
#######################################################################
#
#                 Cambridge Crystallographic Data Centre
#                                CCDC 
#
#######################################################################
#
# If this CIF has been generated from an entry in the Cambridge 
# Structural Database, then it will include bibliographic, chemical, 
# crystal, experimental, refinement or atomic coordinate data resulting 
# from the CCDC's data processing and validation procedures.
#
#######################################################################

data_HEWKEC
_chemical_formula_moiety         'C204 H240 N12'
_chemical_name_systematic        
'1^5^,1^5^,1^10^,1^10^,1^15^,1^15^,8^5^,8^5^,8^10^,8^10^,8^15^,8^15^,15^5^,15^5^,15^10^,15^10^,15^15^,15^15^,22^5^,22^5^,22^10^,22^10^,22^15^,22^15^-tetracosaethyl-3,6,10,13,17,20,24,27,30,33,36,39-dodecaaza-1,8,15,22(2,7,12)-tetratruxenatricyclo[13.13.6.6^8,22^]tetracontaphane-2,6,9,13,16,20,23,27,29,33,35,39-dodecaene unknown solvate'
_symmetry_cell_setting           cubic
_symmetry_space_group_name_H-M   'P -4 3 n'
_symmetry_Int_Tables_number      218
_space_group_name_Hall           'P -4n 2 3'
loop_
_symmetry_equiv_pos_site_id
_symmetry_equiv_pos_as_xyz
1 x,y,z
2 -x,-y,z
3 x,-y,-z
4 -x,y,-z
5 z,x,y
6 y,z,x
7 -z,-x,y
8 -y,z,-x
9 z,-x,-y
10 -y,-z,x
11 -z,x,-y
12 y,-z,-x
13 1/2+y,1/2+x,1/2+z
14 1/2-y,1/2-x,1/2+z
15 1/2-y,1/2+x,1/2-z
16 1/2+y,1/2-x,1/2-z
17 1/2+x,1/2+z,1/2+y
18 1/2+z,1/2+y,1/2+x
19 1/2-x,1/2-z,1/2+y
20 1/2+z,1/2-y,1/2-x
21 1/2-x,1/2+z,1/2-y
22 1/2-z,1/2-y,1/2+x
23 1/2+x,1/2-z,1/2-y
24 1/2-z,1/2+y,1/2-x
_cell_length_a                   36.41557(19)
_cell_length_b                   36.41557(19)
_cell_length_c                   36.41557(19)
_cell_angle_alpha                90
_cell_angle_beta                 90
_cell_angle_gamma                90
_cell_volume                     48290.5
_exptl_crystal_colour            colorless
_exptl_crystal_description       block
_cell_formula_units_Z            8
_exptl_crystal_recrystallization_method hexane
_exptl_crystal_preparation       
'Desolved in mesitylene with hexane on top, Luminescent'
loop_
_atom_site_label
_atom_site_type_symbol
_atom_site_fract_x
_atom_site_fract_y
_atom_site_fract_z
C1 C 0.14904(9) 0.21561(9) 0.42639(8)
N1 N 0.05258(8) 0.12241(8) 0.33774(8)
C2 C 0.14677(10) 0.35384(10) 0.42378(10)
H1 H 0.1280 0.3366 0.4181
C3 C 0.12695(9) 0.18741(9) 0.23848(9)
N2 N 0.40492(9) 0.21323(11) 0.52446(9)
C4 C 0.23667(10) 0.30968(9) 0.44410(10)
C5 C 0.12154(10) 0.19041(9) 0.42059(9)
H2 H 0.0972 0.1986 0.4159
C6 C 0.05268(10) 0.15332(10) 0.32324(10)
H3 H 0.0344 0.1705 0.3305
C7 C 0.14567(9) 0.25696(9) 0.42459(9)
C8 C 0.28465(11) 0.19054(13) 0.42699(13)
H4 H 0.2612 0.1805 0.4176
H5 H 0.2931 0.2081 0.4081
C9 C 0.27334(10) 0.21481(9) 0.45947(9)
N3 N 0.06678(8) 0.13364(8) 0.41302(8)
C10 C 0.26129(11) 0.19133(10) 0.49281(10)
H6 H 0.2417 0.1743 0.4847
H7 H 0.2824 0.1762 0.5008
C11 C 0.12912(10) 0.15320(9) 0.42160(9)
C12 C 0.13890(10) 0.39118(10) 0.42370(10)
H8 H 0.1149 0.3993 0.4175
C13 C 0.18224(10) 0.34135(9) 0.43220(9)
C14 C 0.19910(9) 0.30439(9) 0.43531(9)
C15 C 0.04204(11) 0.10468(10) 0.40121(10)
H9 H 0.0230 0.1005 0.4202
H10 H 0.0559 0.0815 0.3978
C16 C 0.25887(10) 0.27863(10) 0.45046(11)
C17 C 0.15670(9) 0.19098(9) 0.21063(9)
C18 C 0.16581(11) 0.41686(9) 0.43253(9)
C19 C 0.13329(10) 0.15513(10) 0.25841(9)
C20 C 0.36555(12) 0.25389(13) 0.49082(14)
C21 C 0.24544(11) 0.35020(10) 0.44794(13)
C22 C 0.24446(10) 0.24316(9) 0.44844(9)
C23 C 0.20903(10) 0.36768(9) 0.43983(9)
C24 C 0.09621(11) 0.20863(10) 0.24751(10)
H11 H 0.0912 0.2307 0.2346
C25 C 0.07973(10) 0.16468(10) 0.29524(9)
N4 N 0.17587(10) 0.47775(8) 0.45357(8)
C26 C 0.18538(9) 0.20481(9) 0.43316(8)
C27 C 0.15716(14) 0.25511(15) 0.35462(11)
H12 H 0.1822 0.2650 0.3583
H13 H 0.1588 0.2280 0.3551
C28 C 0.13271(10) 0.26788(10) 0.38571(9)
H14 H 0.1078 0.2578 0.3818
H15 H 0.1308 0.2950 0.3846
C29 C 0.19276(11) 0.16647(10) 0.43418(10)
H16 H 0.2169 0.1579 0.4392
C30 C 0.20135(11) 0.40457(10) 0.43967(9)
H17 H 0.2203 0.4218 0.4444
C31 C 0.18473(9) 0.26917(9) 0.43250(9)
C32 C 0.18168(9) 0.16083(9) 0.21557(9)
C33 C 0.30524(11) 0.23865(10) 0.46987(10)
C34 C 0.16540(10) 0.14219(10) 0.42805(10)
H18 H 0.1710 0.1167 0.4281
C35 C 0.14320(18) 0.26709(15) 0.31809(12)
H19 H 0.1599 0.2585 0.2988
H20 H 0.1418 0.2940 0.3174
H21 H 0.1187 0.2567 0.3140
C36 C 0.33835(11) 0.22746(11) 0.48448(11)
H22 H 0.3426 0.2024 0.4901
C37 C 0.10996(10) 0.14346(9) 0.28588(9)
H23 H 0.1146 0.1210 0.2983
C38 C 0.12911(14) 0.25866(11) 0.49372(10)
H24 H 0.1321 0.2317 0.4950
H25 H 0.1531 0.2700 0.4997
C39 C 0.19448(11) 0.13352(13) 0.27933(10)
H26 H 0.1839 0.1167 0.2979
H27 H 0.2179 0.1227 0.2708
C40 C 0.10135(18) 0.27044(14) 0.52187(13)
H28 H 0.0765 0.2660 0.5124
H29 H 0.1044 0.2967 0.5270
H30 H 0.1050 0.2564 0.5445
C41 C 0.15654(10) 0.45623(9) 0.43406(9)
H31 H 0.1362 0.4655 0.4205
C42 C 0.15727(12) 0.09656(10) 0.23174(14)
H32 H 0.1801 0.0827 0.2266
H33 H 0.1438 0.0833 0.2512
C43 C 0.16783(9) 0.13613(10) 0.24640(9)
C44 C 0.44127(11) 0.20278(13) 0.53714(11)
H34 H 0.4409 0.1986 0.5640
H35 H 0.4591 0.2226 0.5318
C45 C 0.11830(10) 0.26934(10) 0.45459(10)
H36 H 0.1158 0.2964 0.4534
H37 H 0.0940 0.2586 0.4491
C46 C 0.20833(9) 0.23804(8) 0.43827(8)
C47 C 0.27206(13) 0.36335(14) 0.41744(17)
H38 H 0.2734 0.3905 0.4183
H39 H 0.2969 0.3538 0.4230
C48 C 0.26223(17) 0.35224(17) 0.37991(16)
H40 H 0.2365 0.3597 0.3751
H41 H 0.2634 0.3251 0.3783
C49 C 0.35952(14) 0.28982(15) 0.4810(2)
H42 H 0.3789 0.3071 0.4830
C50 C 0.16805(13) 0.51740(10) 0.45220(10)
H43 H 0.1597 0.5261 0.4766
H44 H 0.1484 0.5224 0.4341
C51 C 0.40070(12) 0.24247(12) 0.50678(14)
H45 H 0.4214 0.2581 0.5036
C52 C 0.29756(11) 0.27610(11) 0.46273(13)
C53 C 0.13385(17) 0.09729(17) 0.19717(18)
H46 H 0.1111 0.1109 0.2033
H47 H 0.1472 0.1124 0.1789
C54 C 0.32564(14) 0.30117(13) 0.46825(18)
H48 H 0.3216 0.3264 0.4632
C55 C 0.02427(10) 0.11552(11) 0.36581(10)
H49 H 0.0077 0.0957 0.3574
H50 H 0.0094 0.1380 0.3695
C56 C 0.24764(14) 0.21259(12) 0.52499(11)
H51 H 0.2668 0.2302 0.5327
H52 H 0.2258 0.2269 0.5175
C57 C 0.07299(11) 0.19702(10) 0.27572(10)
H53 H 0.0521 0.2114 0.2818
C58 C 0.25731(14) 0.35943(12) 0.48921(16)
H54 H 0.2349 0.3594 0.5046
H55 H 0.2732 0.3392 0.4981
C59 C 0.2378(2) 0.18914(16) 0.55678(14)
H56 H 0.2290 0.2046 0.5770
H57 H 0.2595 0.1754 0.5649
H58 H 0.2184 0.1719 0.5496
C60 C 0.2866(2) 0.3684(3) 0.3499(3)
H59 H 0.2781 0.3598 0.3259
H60 H 0.3120 0.3605 0.3538
H61 H 0.2853 0.3953 0.3508
C61 C 0.10079(11) 0.12528(10) 0.41419(10)
H62 H 0.1080 0.1005 0.4102
C62 C 0.2868(2) 0.39931(19) 0.53535(18)
H63 H 0.3000 0.4224 0.5393
H64 H 0.3023 0.3787 0.5429
H65 H 0.2641 0.3993 0.5499
C63 C 0.20237(16) 0.16980(19) 0.29724(15)
H66 H 0.2152 0.1859 0.2795
H67 H 0.1789 0.1818 0.3040
C64 C 0.27753(17) 0.39560(15) 0.49574(17)
H68 H 0.3003 0.3962 0.4809
H69 H 0.2618 0.4164 0.4880
C65 C 0.1226(3) 0.0637(3) 0.1785(3)
H70 H 0.1074 0.0700 0.1572
H71 H 0.1084 0.0483 0.1954
H72 H 0.1444 0.0503 0.1703
C66 C 0.22557(18) 0.1655(3) 0.33095(16)
H73 H 0.2304 0.1898 0.3417
H74 H 0.2489 0.1539 0.3244
H75 H 0.2126 0.1502 0.3489
C67 C 0.3106(3) 0.1596(3) 0.4243(3)
H76 H 0.3346 0.1681 0.4339
H77 H 0.3019 0.1400 0.4410
C68 C 0.3169(4) 0.1434(4) 0.3886(4)
H78 H 0.3345 0.1231 0.3909
H79 H 0.3268 0.1620 0.3719
H80 H 0.2937 0.1340 0.3788
C1D C 0.42639(8) 0.14904(9) 0.21561(9)
N1D N 0.33774(8) 0.05258(8) 0.12241(8)
C2D C 0.42378(10) 0.14677(10) 0.35384(10)
H1D H 0.4181 0.1280 0.3366
C3D C 0.23848(9) 0.12695(9) 0.18741(9)
N2D N 0.52446(9) 0.40492(9) 0.21323(11)
C4D C 0.44410(10) 0.23667(10) 0.30968(9)
C5D C 0.42059(9) 0.12154(10) 0.19041(9)
H2D H 0.4159 0.0972 0.1986
C6D C 0.32324(10) 0.05268(10) 0.15332(10)
H3D H 0.3305 0.0344 0.1705
C7D C 0.42459(9) 0.14567(9) 0.25696(9)
C8D C 0.42699(13) 0.28465(11) 0.19054(13)
H4D H 0.4176 0.2612 0.1805
H5D H 0.4081 0.2931 0.2081
C9D C 0.45947(9) 0.27334(10) 0.21481(9)
N3D N 0.41302(8) 0.06678(8) 0.13364(8)
C10D C 0.49281(10) 0.26129(11) 0.19133(10)
H6D H 0.4847 0.2417 0.1743
H7D H 0.5008 0.2824 0.1762
C11D C 0.42160(9) 0.12912(10) 0.15320(9)
C12D C 0.42370(10) 0.13890(10) 0.39118(10)
H8D H 0.4175 0.1149 0.3993
C13D C 0.43220(9) 0.18224(10) 0.34135(9)
C14D C 0.43531(9) 0.19910(9) 0.30439(9)
C15D C 0.40121(10) 0.04204(11) 0.10468(10)
H9D H 0.4202 0.0230 0.1005
H10D H 0.3978 0.0559 0.0815
C16D C 0.45046(11) 0.25887(10) 0.27863(10)
C17D C 0.21063(9) 0.15670(9) 0.19098(9)
C18D C 0.43253(9) 0.16581(11) 0.41686(9)
C19D C 0.25841(9) 0.13329(10) 0.15513(10)
C20D C 0.49082(14) 0.36555(12) 0.25389(13)
C21D C 0.44794(13) 0.24544(11) 0.35020(10)
C22D C 0.44844(9) 0.24446(10) 0.24316(9)
C23D C 0.43983(9) 0.20903(10) 0.36768(9)
C24D C 0.24751(10) 0.09621(11) 0.20863(10)
H11D H 0.2346 0.0912 0.2307
C25D C 0.29524(9) 0.07973(10) 0.16468(10)
N4D N 0.45357(8) 0.17587(10) 0.47775(8)
C26D C 0.43316(8) 0.18538(9) 0.20481(9)
C27D C 0.35462(11) 0.15716(14) 0.25511(15)
H12D H 0.3583 0.1822 0.2650
H13D H 0.3551 0.1588 0.2280
C28D C 0.38571(9) 0.13271(10) 0.26788(10)
H14D H 0.3818 0.1078 0.2578
H15D H 0.3846 0.1308 0.2950
C29D C 0.43418(10) 0.19276(11) 0.16647(10)
H16D H 0.4392 0.2169 0.1579
C30D C 0.43967(9) 0.20135(11) 0.40457(10)
H17D H 0.4444 0.2203 0.4218
C31D C 0.43250(9) 0.18473(9) 0.26917(9)
C32D C 0.21557(9) 0.18168(9) 0.16083(9)
C33D C 0.46987(10) 0.30524(11) 0.23865(10)
C34D C 0.42805(10) 0.16540(10) 0.14219(10)
H18D H 0.4281 0.1710 0.1167
C35D C 0.31809(12) 0.14320(18) 0.26709(15)
H19D H 0.2988 0.1599 0.2585
H20D H 0.3174 0.1418 0.2940
H21D H 0.3140 0.1187 0.2567
C36D C 0.48448(11) 0.33835(11) 0.22746(11)
H22D H 0.4901 0.3426 0.2024
C37D C 0.28588(9) 0.10996(10) 0.14346(9)
H23D H 0.2983 0.1146 0.1210
C38D C 0.49372(10) 0.12911(14) 0.25866(11)
H24D H 0.4950 0.1321 0.2317
H25D H 0.4997 0.1531 0.2700
C39D C 0.27933(10) 0.19448(11) 0.13352(13)
H26D H 0.2979 0.1839 0.1167
H27D H 0.2708 0.2179 0.1227
C40D C 0.52187(13) 0.10135(18) 0.27044(14)
H28D H 0.5124 0.0765 0.2660
H29D H 0.5270 0.1044 0.2967
H30D H 0.5445 0.1050 0.2564
C41D C 0.43406(9) 0.15654(10) 0.45623(9)
H31D H 0.4205 0.1362 0.4655
C42D C 0.23174(14) 0.15727(12) 0.09656(10)
H32D H 0.2266 0.1801 0.0827
H33D H 0.2512 0.1438 0.0833
C43D C 0.24640(9) 0.16783(9) 0.13613(10)
C44D C 0.53714(11) 0.44127(11) 0.20278(13)
H34D H 0.5640 0.4409 0.1986
H35D H 0.5318 0.4591 0.2226
C45D C 0.45459(10) 0.11830(10) 0.26934(10)
H36D H 0.4534 0.1158 0.2964
H37D H 0.4491 0.0940 0.2586
C46D C 0.43827(8) 0.20833(9) 0.23804(8)
C47D C 0.41744(17) 0.27206(13) 0.36335(14)
H38D H 0.4183 0.2734 0.3905
H39D H 0.4230 0.2969 0.3538
C48D C 0.37991(16) 0.26223(17) 0.35224(17)
H40D H 0.3751 0.2365 0.3597
H41D H 0.3783 0.2634 0.3251
C49D C 0.4810(2) 0.35952(14) 0.28982(15)
H42D H 0.4830 0.3789 0.3071
C50D C 0.45220(10) 0.16805(13) 0.51740(10)
H43D H 0.4766 0.1597 0.5261
H44D H 0.4341 0.1484 0.5224
C51D C 0.50678(14) 0.40070(12) 0.24247(12)
H45D H 0.5036 0.4214 0.2581
C52D C 0.46273(13) 0.29756(11) 0.27610(11)
C53D C 0.19717(18) 0.13385(17) 0.09729(17)
H46D H 0.2033 0.1111 0.1109
H47D H 0.1789 0.1472 0.1124
C54D C 0.46825(18) 0.32564(14) 0.30117(13)
H48D H 0.4632 0.3216 0.3264
C55D C 0.36581(10) 0.02427(10) 0.11552(11)
H49D H 0.3574 0.0077 0.0957
H50D H 0.3695 0.0094 0.1380
C56D C 0.52499(11) 0.24764(14) 0.21259(12)
H51D H 0.5327 0.2668 0.2302
H52D H 0.5175 0.2258 0.2269
C57D C 0.27572(10) 0.07299(11) 0.19702(10)
H53D H 0.2818 0.0521 0.2114
C58D C 0.48921(16) 0.25731(14) 0.35943(12)
H54D H 0.5046 0.2349 0.3594
H55D H 0.4981 0.2732 0.3392
C59D C 0.55678(14) 0.2378(2) 0.18914(16)
H56D H 0.5770 0.2290 0.2046
H57D H 0.5649 0.2595 0.1754
H58D H 0.5496 0.2184 0.1719
C60D C 0.3499(3) 0.2866(2) 0.3684(3)
H59D H 0.3259 0.2781 0.3598
H60D H 0.3538 0.3120 0.3605
H61D H 0.3508 0.2853 0.3953
C61D C 0.41419(10) 0.10079(11) 0.12528(10)
H62D H 0.4102 0.1080 0.1005
C62D C 0.53535(18) 0.2868(2) 0.39931(19)
H63D H 0.5393 0.3000 0.4224
H64D H 0.5429 0.3023 0.3787
H65D H 0.5499 0.2641 0.3993
C63D C 0.29724(15) 0.20237(16) 0.16980(19)
H66D H 0.2795 0.2152 0.1859
H67D H 0.3040 0.1789 0.1818
C64D C 0.49574(17) 0.27753(17) 0.39560(15)
H68D H 0.4809 0.3003 0.3962
H69D H 0.4880 0.2618 0.4164
C65D C 0.1785(3) 0.1226(3) 0.0637(3)
H70D H 0.1572 0.1074 0.0700
H71D H 0.1954 0.1084 0.0483
H72D H 0.1703 0.1444 0.0503
C66D C 0.33095(16) 0.22557(18) 0.1655(3)
H73D H 0.3417 0.2304 0.1898
H74D H 0.3244 0.2489 0.1539
H75D H 0.3489 0.2126 0.1502
C67D C 0.4243(3) 0.3106(3) 0.1596(3)
H76D H 0.4339 0.3346 0.1681
H77D H 0.4410 0.3019 0.1400
C68D C 0.3886(4) 0.3169(4) 0.1434(4)
H78D H 0.3909 0.3345 0.1231
H79D H 0.3719 0.3268 0.1620
H80D H 0.3788 0.2937 0.1340
C1E C 0.21561(9) 0.42639(8) 0.14904(9)
N1E N 0.12241(8) 0.33774(8) 0.05258(8)
C2E C 0.35384(10) 0.42378(10) 0.14677(10)
H1E H 0.3366 0.4181 0.1280
C3E C 0.18741(9) 0.23848(9) 0.12695(9)
N2E N 0.21323(11) 0.52446(9) 0.40492(9)
C4E C 0.30968(9) 0.44410(10) 0.23667(10)
C5E C 0.19041(9) 0.42059(9) 0.12154(10)
H2E H 0.1986 0.4159 0.0972
C6E C 0.15332(10) 0.32324(10) 0.05268(10)
H3E H 0.1705 0.3305 0.0344
C7E C 0.25696(9) 0.42459(9) 0.14567(9)
C8E C 0.19054(13) 0.42699(13) 0.28465(11)
H4E H 0.1805 0.4176 0.2612
H5E H 0.2081 0.4081 0.2931
C9E C 0.21481(9) 0.45947(9) 0.27334(10)
N3E N 0.13364(8) 0.41302(8) 0.06678(8)
C10E C 0.19133(10) 0.49281(10) 0.26129(11)
H6E H 0.1743 0.4847 0.2417
H7E H 0.1762 0.5008 0.2824
C11E C 0.15320(9) 0.42160(9) 0.12912(10)
C12E C 0.39118(10) 0.42370(10) 0.13890(10)
H8E H 0.3993 0.4175 0.1149
C13E C 0.34135(9) 0.43220(9) 0.18224(10)
C14E C 0.30439(9) 0.43531(9) 0.19910(9)
C15E C 0.10468(10) 0.40121(10) 0.04204(11)
H9E H 0.1005 0.4202 0.0230
H10E H 0.0815 0.3978 0.0559
C16E C 0.27863(10) 0.45046(11) 0.25887(10)
C17E C 0.19098(9) 0.21063(9) 0.15670(9)
C18E C 0.41686(9) 0.43253(9) 0.16581(11)
C19E C 0.15513(10) 0.25841(9) 0.13329(10)
C20E C 0.25389(13) 0.49082(14) 0.36555(12)
C21E C 0.35020(10) 0.44794(13) 0.24544(11)
C22E C 0.24316(9) 0.44844(9) 0.24446(10)
C23E C 0.36768(9) 0.43983(9) 0.20903(10)
C24E C 0.20863(10) 0.24751(10) 0.09621(11)
H11E H 0.2307 0.2346 0.0912
C25E C 0.16468(10) 0.29524(9) 0.07973(10)
N4E N 0.47775(8) 0.45357(8) 0.17587(10)
C26E C 0.20481(9) 0.43316(8) 0.18538(9)
C27E C 0.25511(15) 0.35462(11) 0.15716(14)
H12E H 0.2650 0.3583 0.1822
H13E H 0.2280 0.3551 0.1588
C28E C 0.26788(10) 0.38571(9) 0.13271(10)
H14E H 0.2578 0.3818 0.1078
H15E H 0.2950 0.3846 0.1308
C29E C 0.16647(10) 0.43418(10) 0.19276(11)
H16E H 0.1579 0.4392 0.2169
C30E C 0.40457(10) 0.43967(9) 0.20135(11)
H17E H 0.4218 0.4444 0.2203
C31E C 0.26917(9) 0.43250(9) 0.18473(9)
C32E C 0.16083(9) 0.21557(9) 0.18168(9)
C33E C 0.23865(10) 0.46987(10) 0.30524(11)
C34E C 0.14219(10) 0.42805(10) 0.16540(10)
H18E H 0.1167 0.4281 0.1710
C35E C 0.26709(15) 0.31809(12) 0.14320(18)
H19E H 0.2585 0.2988 0.1599
H20E H 0.2940 0.3174 0.1418
H21E H 0.2567 0.3140 0.1187
C36E C 0.22746(11) 0.48448(11) 0.33835(11)
H22E H 0.2024 0.4901 0.3426
C37E C 0.14346(9) 0.28588(9) 0.10996(10)
H23E H 0.1210 0.2983 0.1146
C38E C 0.25866(11) 0.49372(10) 0.12911(14)
H24E H 0.2317 0.4950 0.1321
H25E H 0.2700 0.4997 0.1531
C39E C 0.13352(13) 0.27933(10) 0.19448(11)
H26E H 0.1167 0.2979 0.1839
H27E H 0.1227 0.2708 0.2179
C40E C 0.27044(14) 0.52187(13) 0.10135(18)
H28E H 0.2660 0.5124 0.0765
H29E H 0.2967 0.5270 0.1044
H30E H 0.2564 0.5445 0.1050
C41E C 0.45623(9) 0.43406(9) 0.15654(10)
H31E H 0.4655 0.4205 0.1362
C42E C 0.09656(10) 0.23174(14) 0.15727(12)
H32E H 0.0827 0.2266 0.1801
H33E H 0.0833 0.2512 0.1438
C43E C 0.13613(10) 0.24640(9) 0.16783(9)
C44E C 0.20278(13) 0.53714(11) 0.44127(11)
H34E H 0.1986 0.5640 0.4409
H35E H 0.2226 0.5318 0.4591
C45E C 0.26934(10) 0.45459(10) 0.11830(10)
H36E H 0.2964 0.4534 0.1158
H37E H 0.2586 0.4491 0.0940
C46E C 0.23804(8) 0.43827(8) 0.20833(9)
C47E C 0.36335(14) 0.41744(17) 0.27206(13)
H38E H 0.3905 0.4183 0.2734
H39E H 0.3538 0.4230 0.2969
C48E C 0.35224(17) 0.37991(16) 0.26223(17)
H40E H 0.3597 0.3751 0.2365
H41E H 0.3251 0.3783 0.2634
C49E C 0.28982(15) 0.4810(2) 0.35952(14)
H42E H 0.3071 0.4830 0.3789
C50E C 0.51740(10) 0.45220(10) 0.16805(13)
H43E H 0.5261 0.4766 0.1597
H44E H 0.5224 0.4341 0.1484
C51E C 0.24247(12) 0.50678(14) 0.40070(12)
H45E H 0.2581 0.5036 0.4214
C52E C 0.27610(11) 0.46273(13) 0.29756(11)
C53E C 0.09729(17) 0.19717(18) 0.13385(17)
H46E H 0.1109 0.2033 0.1111
H47E H 0.1124 0.1789 0.1472
C54E C 0.30117(13) 0.46825(18) 0.32564(14)
H48E H 0.3264 0.4632 0.3216
C55E C 0.11552(11) 0.36581(10) 0.02427(10)
H49E H 0.0957 0.3574 0.0077
H50E H 0.1380 0.3695 0.0094
C56E C 0.21259(12) 0.52499(11) 0.24764(14)
H51E H 0.2302 0.5327 0.2668
H52E H 0.2269 0.5175 0.2258
C57E C 0.19702(10) 0.27572(10) 0.07299(11)
H53E H 0.2114 0.2818 0.0521
C58E C 0.35943(12) 0.48921(16) 0.25731(14)
H54E H 0.3594 0.5046 0.2349
H55E H 0.3392 0.4981 0.2732
C59E C 0.18914(16) 0.55678(14) 0.2378(2)
H56E H 0.2046 0.5770 0.2290
H57E H 0.1754 0.5649 0.2595
H58E H 0.1719 0.5496 0.2184
C60E C 0.3684(3) 0.3499(3) 0.2866(2)
H59E H 0.3598 0.3259 0.2781
H60E H 0.3605 0.3538 0.3120
H61E H 0.3953 0.3508 0.2853
C61E C 0.12528(10) 0.41419(10) 0.10079(11)
H62E H 0.1005 0.4102 0.1080
C62E C 0.39931(19) 0.53535(18) 0.2868(2)
H63E H 0.4224 0.5393 0.3000
H64E H 0.3787 0.5429 0.3023
H65E H 0.3993 0.5499 0.2641
C63E C 0.16980(19) 0.29724(15) 0.20237(16)
H66E H 0.1859 0.2795 0.2152
H67E H 0.1818 0.3040 0.1789
C64E C 0.39560(15) 0.49574(17) 0.27753(17)
H68E H 0.3962 0.4809 0.3003
H69E H 0.4164 0.4880 0.2618
C65E C 0.0637(3) 0.1785(3) 0.1226(3)
H70E H 0.0700 0.1572 0.1074
H71E H 0.0483 0.1954 0.1084
H72E H 0.0503 0.1703 0.1444
C66E C 0.1655(3) 0.33095(16) 0.22557(18)
H73E H 0.1898 0.3417 0.2304
H74E H 0.1539 0.3244 0.2489
H75E H 0.1502 0.3489 0.2126
C67E C 0.1596(3) 0.4243(3) 0.3106(3)
H76E H 0.1681 0.4339 0.3346
H77E H 0.1400 0.4410 0.3019
C68E C 0.1434(4) 0.3886(4) 0.3169(4)
H78E H 0.1231 0.3909 0.3345
H79E H 0.1620 0.3719 0.3268
H80E H 0.1340 0.3788 0.2937
H81? H 0.3011 0.1713 0.4369
H82? H 0.2622 0.1779 0.4183
C69? C 0.3016(3) 0.2049(3) 0.3965(3)
H83? H 0.3205 0.2227 0.4046
H84? H 0.2832 0.2186 0.3819
C70? C 0.3200(3) 0.1764(3) 0.3716(3)
H85? H 0.3320 0.1888 0.3510
H86? H 0.3013 0.1594 0.3621
H87? H 0.3383 0.1626 0.3857
loop_
_geom_bond_atom_site_label_1
_geom_bond_atom_site_label_2
_geom_bond_site_symmetry_1
_geom_bond_site_symmetry_2
C1 C5 1_555 1_555
N1 C6 1_555 1_555
C2 H1 1_555 1_555
C3 C17 1_555 1_555
N2 C44 1_555 1_555
C4 C14 1_555 1_555
C5 H2 1_555 1_555
C6 H3 1_555 1_555
C7 C1 1_555 1_555
C8 H4 1_555 1_555
H5 C8 1_555 1_555
C9 C8 1_555 1_555
N3 C15 1_555 1_555
C10 C9 1_555 1_555
H6 C10 1_555 1_555
H7 C10 1_555 1_555
C11 C5 1_555 1_555
C12 C2 1_555 1_555
H8 C12 1_555 1_555
C13 C2 1_555 1_555
C14 C13 1_555 1_555
C15 H9 1_555 1_555
H10 C15 1_555 1_555
C16 C4 1_555 1_555
C17 C32 1_555 1_555
C18 C12 1_555 1_555
C19 C3 1_555 1_555
C20 C36 1_555 1_555
C21 C4 1_555 1_555
C22 C9 1_555 1_555
C23 C13 1_555 1_555
C24 C3 1_555 1_555
H11 C24 1_555 1_555
C25 C6 1_555 1_555
N4 C41 1_555 1_555
C26 C1 1_555 1_555
C27 H12 1_555 1_555
H13 C27 1_555 1_555
C28 C7 1_555 1_555
H14 C28 1_555 1_555
H15 C28 1_555 1_555
C29 C26 1_555 1_555
H16 C29 1_555 1_555
C30 C18 1_555 1_555
H17 C30 1_555 1_555
C31 C7 1_555 1_555
C32 C43 1_555 1_555
C33 C9 1_555 1_555
C34 C11 1_555 1_555
H18 C34 1_555 1_555
C35 C27 1_555 1_555
H19 C35 1_555 1_555
H20 C35 1_555 1_555
H21 C35 1_555 1_555
C36 C33 1_555 1_555
H22 C36 1_555 1_555
C37 C19 1_555 1_555
H23 C37 1_555 1_555
C38 H24 1_555 1_555
H25 C38 1_555 1_555
C39 H26 1_555 1_555
H27 C39 1_555 1_555
C40 C38 1_555 1_555
H28 C40 1_555 1_555
H29 C40 1_555 1_555
H30 C40 1_555 1_555
C41 C18 1_555 1_555
H31 C41 1_555 1_555
C42 H32 1_555 1_555
H33 C42 1_555 1_555
C43 C19 1_555 1_555
C44 H34 1_555 1_555
H35 C44 1_555 1_555
C45 C7 1_555 1_555
H36 C45 1_555 1_555
H37 C45 1_555 1_555
C46 C22 1_555 1_555
C47 C21 1_555 1_555
H38 C47 1_555 1_555
H39 C47 1_555 1_555
C48 C47 1_555 1_555
H40 C48 1_555 1_555
H41 C48 1_555 1_555
C49 C20 1_555 1_555
H42 C49 1_555 1_555
C50 N4 1_555 1_555
H43 C50 1_555 1_555
H44 C50 1_555 1_555
C51 N2 1_555 1_555
H45 C51 1_555 1_555
C52 C16 1_555 1_555
C53 C42 1_555 1_555
H46 C53 1_555 1_555
H47 C53 1_555 1_555
C54 C49 1_555 1_555
H48 C54 1_555 1_555
C55 N1 1_555 1_555
H49 C55 1_555 1_555
H50 C55 1_555 1_555
C56 C10 1_555 1_555
H51 C56 1_555 1_555
H52 C56 1_555 1_555
C57 C24 1_555 1_555
H53 C57 1_555 1_555
C58 C21 1_555 1_555
H54 C58 1_555 1_555
H55 C58 1_555 1_555
C59 C56 1_555 1_555
H56 C59 1_555 1_555
H57 C59 1_555 1_555
H58 C59 1_555 1_555
C60 C48 1_555 1_555
H59 C60 1_555 1_555
H60 C60 1_555 1_555
H61 C60 1_555 1_555
C61 N3 1_555 1_555
H62 C61 1_555 1_555
C62 H63 1_555 1_555
H64 C62 1_555 1_555
H65 C62 1_555 1_555
C63 C39 1_555 1_555
H66 C63 1_555 1_555
H67 C63 1_555 1_555
C64 C58 1_555 1_555
H68 C64 1_555 1_555
H69 C64 1_555 1_555
C65 C53 1_555 1_555
H70 C65 1_555 1_555
H71 C65 1_555 1_555
H72 C65 1_555 1_555
C66 C63 1_555 1_555
H73 C66 1_555 1_555
H74 C66 1_555 1_555
H75 C66 1_555 1_555
C67 C8 1_555 1_555
H76 C67 1_555 1_555
H77 C67 1_555 1_555
C68 C67 1_555 1_555
H78 C68 1_555 1_555
H79 C68 1_555 1_555
H80 C68 1_555 1_555
C1D C5D 1_555 1_555
N1D C6D 1_555 1_555
C2D H1D 1_555 1_555
C3D C17D 1_555 1_555
N2D C44D 1_555 1_555
C4D C14D 1_555 1_555
C5D H2D 1_555 1_555
C6D H3D 1_555 1_555
C7D C1D 1_555 1_555
C8D H4D 1_555 1_555
H5D C8D 1_555 1_555
C9D C8D 1_555 1_555
N3D C15D 1_555 1_555
C10D C9D 1_555 1_555
H6D C10D 1_555 1_555
H7D C10D 1_555 1_555
C11D C5D 1_555 1_555
C12D C2D 1_555 1_555
H8D C12D 1_555 1_555
C13D C2D 1_555 1_555
C14D C13D 1_555 1_555
C15D H9D 1_555 1_555
H10D C15D 1_555 1_555
C16D C4D 1_555 1_555
C17D C32 1_555 1_555
C18D C12D 1_555 1_555
C19D C3D 1_555 1_555
C20D C36D 1_555 1_555
C21D C4D 1_555 1_555
C22D C9D 1_555 1_555
C23D C13D 1_555 1_555
C24D C3D 1_555 1_555
H11D C24D 1_555 1_555
C25D C6D 1_555 1_555
N4D C41D 1_555 1_555
C26D C1D 1_555 1_555
C27D H12D 1_555 1_555
H13D C27D 1_555 1_555
C28D C7D 1_555 1_555
H14D C28D 1_555 1_555
H15D C28D 1_555 1_555
C29D C26D 1_555 1_555
H16D C29D 1_555 1_555
C30D C18D 1_555 1_555
H17D C30D 1_555 1_555
C31D C7D 1_555 1_555
C32D C17D 1_555 1_555
C33D C9D 1_555 1_555
C34D C11D 1_555 1_555
H18D C34D 1_555 1_555
C35D C27D 1_555 1_555
H19D C35D 1_555 1_555
H20D C35D 1_555 1_555
H21D C35D 1_555 1_555
C36D C33D 1_555 1_555
H22D C36D 1_555 1_555
C37D C19D 1_555 1_555
H23D C37D 1_555 1_555
C38D H24D 1_555 1_555
H25D C38D 1_555 1_555
C39D H26D 1_555 1_555
H27D C39D 1_555 1_555
C40D C38D 1_555 1_555
H28D C40D 1_555 1_555
H29D C40D 1_555 1_555
H30D C40D 1_555 1_555
C41D C18D 1_555 1_555
H31D C41D 1_555 1_555
C42D H32D 1_555 1_555
H33D C42D 1_555 1_555
C43D C19D 1_555 1_555
C44D H34D 1_555 1_555
H35D C44D 1_555 1_555
C45D C7D 1_555 1_555
H36D C45D 1_555 1_555
H37D C45D 1_555 1_555
C46D C22D 1_555 1_555
C47D C21D 1_555 1_555
H38D C47D 1_555 1_555
H39D C47D 1_555 1_555
C48D C47D 1_555 1_555
H40D C48D 1_555 1_555
H41D C48D 1_555 1_555
C49D C20D 1_555 1_555
H42D C49D 1_555 1_555
C50D C44 1_555 1_555
H43D C50D 1_555 1_555
H44D C50D 1_555 1_555
C51D N2D 1_555 1_555
H45D C51D 1_555 1_555
C52D C16D 1_555 1_555
C53D C42D 1_555 1_555
H46D C53D 1_555 1_555
H47D C53D 1_555 1_555
C54D C49D 1_555 1_555
H48D C54D 1_555 1_555
C55D N1D 1_555 1_555
H49D C55D 1_555 1_555
H50D C55D 1_555 1_555
C56D C10D 1_555 1_555
H51D C56D 1_555 1_555
H52D C56D 1_555 1_555
C57D C24D 1_555 1_555
H53D C57D 1_555 1_555
C58D C21D 1_555 1_555
H54D C58D 1_555 1_555
H55D C58D 1_555 1_555
C59D C56D 1_555 1_555
H56D C59D 1_555 1_555
H57D C59D 1_555 1_555
H58D C59D 1_555 1_555
C60D C48D 1_555 1_555
H59D C60D 1_555 1_555
H60D C60D 1_555 1_555
H61D C60D 1_555 1_555
C61D N3D 1_555 1_555
H62D C61D 1_555 1_555
C62D H63D 1_555 1_555
H64D C62D 1_555 1_555
H65D C62D 1_555 1_555
C63D C39D 1_555 1_555
H66D C63D 1_555 1_555
H67D C63D 1_555 1_555
C64D C58D 1_555 1_555
H68D C64D 1_555 1_555
H69D C64D 1_555 1_555
C65D C53D 1_555 1_555
H70D C65D 1_555 1_555
H71D C65D 1_555 1_555
H72D C65D 1_555 1_555
C66D C63D 1_555 1_555
H73D C66D 1_555 1_555
H74D C66D 1_555 1_555
H75D C66D 1_555 1_555
C67D C8D 1_555 1_555
H76D C67D 1_555 1_555
H77D C67D 1_555 1_555
C68D C67D 1_555 1_555
H78D C68D 1_555 1_555
H79D C68D 1_555 1_555
H80D C68D 1_555 1_555
C1E C5E 1_555 1_555
N1E C6E 1_555 1_555
C2E H1E 1_555 1_555
C3E C17E 1_555 1_555
N2E C44E 1_555 1_555
C4E C14E 1_555 1_555
C5E H2E 1_555 1_555
C6E H3E 1_555 1_555
C7E C1E 1_555 1_555
C8E H4E 1_555 1_555
H5E C8E 1_555 1_555
C9E C8E 1_555 1_555
N3E C15E 1_555 1_555
C10E C9E 1_555 1_555
H6E C10E 1_555 1_555
H7E C10E 1_555 1_555
C11E C5E 1_555 1_555
C12E C2E 1_555 1_555
H8E C12E 1_555 1_555
C13E C2E 1_555 1_555
C14E C13E 1_555 1_555
C15E H9E 1_555 1_555
H10E C15E 1_555 1_555
C16E C4E 1_555 1_555
C17E C32D 1_555 1_555
C18E C12E 1_555 1_555
C19E C3E 1_555 1_555
C20E C36E 1_555 1_555
C21E C4E 1_555 1_555
C22E C9E 1_555 1_555
C23E C13E 1_555 1_555
C24E C3E 1_555 1_555
H11E C24E 1_555 1_555
C25E C6E 1_555 1_555
N4E C41E 1_555 1_555
C26E C1E 1_555 1_555
C27E H12E 1_555 1_555
H13E C27E 1_555 1_555
C28E C7E 1_555 1_555
H14E C28E 1_555 1_555
H15E C28E 1_555 1_555
C29E C26E 1_555 1_555
H16E C29E 1_555 1_555
C30E C18E 1_555 1_555
H17E C30E 1_555 1_555
C31E C7E 1_555 1_555
C32E C17 1_555 1_555
C33E C9E 1_555 1_555
C34E C11E 1_555 1_555
H18E C34E 1_555 1_555
C35E C27E 1_555 1_555
H19E C35E 1_555 1_555
H20E C35E 1_555 1_555
H21E C35E 1_555 1_555
C36E C33E 1_555 1_555
H22E C36E 1_555 1_555
C37E C19E 1_555 1_555
H23E C37E 1_555 1_555
C38E H24E 1_555 1_555
H25E C38E 1_555 1_555
C39E H26E 1_555 1_555
H27E C39E 1_555 1_555
C40E C38E 1_555 1_555
H28E C40E 1_555 1_555
H29E C40E 1_555 1_555
H30E C40E 1_555 1_555
C41E C18E 1_555 1_555
H31E C41E 1_555 1_555
C42E H32E 1_555 1_555
H33E C42E 1_555 1_555
C43E C19E 1_555 1_555
C44E C50 1_555 1_555
H34E C44E 1_555 1_555
H35E C44E 1_555 1_555
C45E C7E 1_555 1_555
H36E C45E 1_555 1_555
H37E C45E 1_555 1_555
C46E C22E 1_555 1_555
C47E C21E 1_555 1_555
H38E C47E 1_555 1_555
H39E C47E 1_555 1_555
C48E C47E 1_555 1_555
H40E C48E 1_555 1_555
H41E C48E 1_555 1_555
C49E C20E 1_555 1_555
H42E C49E 1_555 1_555
C50E C44D 1_555 1_555
H43E C50E 1_555 1_555
H44E C50E 1_555 1_555
C51E N2E 1_555 1_555
H45E C51E 1_555 1_555
C52E C16E 1_555 1_555
C53E C42E 1_555 1_555
H46E C53E 1_555 1_555
H47E C53E 1_555 1_555
C54E C49E 1_555 1_555
H48E C54E 1_555 1_555
C55E N1E 1_555 1_555
H49E C55E 1_555 1_555
H50E C55E 1_555 1_555
C56E C10E 1_555 1_555
H51E C56E 1_555 1_555
H52E C56E 1_555 1_555
C57E C24E 1_555 1_555
H53E C57E 1_555 1_555
C58E C21E 1_555 1_555
H54E C58E 1_555 1_555
H55E C58E 1_555 1_555
C59E C56E 1_555 1_555
H56E C59E 1_555 1_555
H57E C59E 1_555 1_555
H58E C59E 1_555 1_555
C60E C48E 1_555 1_555
H59E C60E 1_555 1_555
H60E C60E 1_555 1_555
H61E C60E 1_555 1_555
C61E N3E 1_555 1_555
H62E C61E 1_555 1_555
C62E H63E 1_555 1_555
H64E C62E 1_555 1_555
H65E C62E 1_555 1_555
C63E C39E 1_555 1_555
H66E C63E 1_555 1_555
H67E C63E 1_555 1_555
C64E C58E 1_555 1_555
H68E C64E 1_555 1_555
H69E C64E 1_555 1_555
C65E C53E 1_555 1_555
H70E C65E 1_555 1_555
H71E C65E 1_555 1_555
H72E C65E 1_555 1_555
C66E C63E 1_555 1_555
H73E C66E 1_555 1_555
H74E C66E 1_555 1_555
H75E C66E 1_555 1_555
C67E C8E 1_555 1_555
H76E C67E 1_555 1_555
H77E C67E 1_555 1_555
C68E C67E 1_555 1_555
H78E C68E 1_555 1_555
H79E C68E 1_555 1_555
H80E C68E 1_555 1_555
C11 C61 1_555 1_555
C14 C31 1_555 1_555
C15 C55 1_555 1_555
C16 C22 1_555 1_555
C20 C51 1_555 1_555
C21 C23 1_555 1_555
C23 C30 1_555 1_555
C25 C37 1_555 1_555
C25 C57 1_555 1_555
C26 C46 1_555 1_555
C27 C28 1_555 1_555
C29 C34 1_555 1_555
C31 C46 1_555 1_555
C33 C52 1_555 1_555
C38 C45 1_555 1_555
C39 C43 1_555 1_555
C42 C43 1_555 1_555
C52 C54 1_555 1_555
C62 C64 1_555 1_555
C11D C61D 1_555 1_555
C14D C31D 1_555 1_555
C15D C55D 1_555 1_555
C16D C22D 1_555 1_555
C20D C51D 1_555 1_555
C21D C23D 1_555 1_555
C23D C30D 1_555 1_555
C25D C37D 1_555 1_555
C25D C57D 1_555 1_555
N4D C50D 1_555 1_555
C26D C46D 1_555 1_555
C27D C28D 1_555 1_555
C29D C34D 1_555 1_555
C31D C46D 1_555 1_555
C32D C43D 1_555 1_555
C33D C52D 1_555 1_555
C38D C45D 1_555 1_555
C39D C43D 1_555 1_555
C42D C43D 1_555 1_555
C52D C54D 1_555 1_555
C62D C64D 1_555 1_555
C11E C61E 1_555 1_555
C14E C31E 1_555 1_555
C15E C55E 1_555 1_555
C16E C22E 1_555 1_555
C17E C32E 1_555 1_555
C20E C51E 1_555 1_555
C21E C23E 1_555 1_555
C23E C30E 1_555 1_555
C25E C37E 1_555 1_555
C25E C57E 1_555 1_555
N4E C50E 1_555 1_555
C26E C46E 1_555 1_555
C27E C28E 1_555 1_555
C29E C34E 1_555 1_555
C31E C46E 1_555 1_555
C32E C43E 1_555 1_555
C33E C52E 1_555 1_555
C38E C45E 1_555 1_555
C39E C43E 1_555 1_555
C42E C43E 1_555 1_555
C52E C54E 1_555 1_555
C62E C64E 1_555 1_555

#END
