
#######################################################################
#
#                 Cambridge Crystallographic Data Centre
#                                CCDC 
#
#######################################################################
#
# If this CIF has been generated from an entry in the Cambridge 
# Structural Database, then it will include bibliographic, chemical, 
# crystal, experimental, refinement or atomic coordinate data resulting 
# from the CCDC's data processing and validation procedures.
#
#######################################################################

data_HEWKEB01
_chemical_formula_moiety         'C4 H3 N8 O2 1-,H2 O1,K1 1+'
_chemical_name_systematic        
'potassium 5-oxo-4-((5-oxo-1,5-dihydro-4H-1,2,4-triazol-4-yl)diazenyl)-4,5-dihydro-1,2,4-triazol-1-ide hydrate'
_symmetry_cell_setting           monoclinic
_symmetry_space_group_name_H-M   'P 21/c'
_symmetry_Int_Tables_number      14
_space_group_name_Hall           '-P 2ybc'
loop_
_symmetry_equiv_pos_site_id
_symmetry_equiv_pos_as_xyz
1 x,y,z
2 -x,1/2+y,1/2-z
3 -x,-y,-z
4 x,1/2-y,1/2+z
_cell_length_a                   14.345(4)
_cell_length_b                   10.332(3)
_cell_length_c                   12.600(4)
_cell_angle_alpha                90
_cell_angle_beta                 96.748(3)
_cell_angle_gamma                90
_cell_volume                     1854.54
_exptl_crystal_colour            colorless
_exptl_crystal_description       block
_cell_formula_units_Z            8
loop_
_atom_site_label
_atom_site_type_symbol
_atom_site_fract_x
_atom_site_fract_y
_atom_site_fract_z
O1 O 0.20786(11) 0.35487(15) 0.15028(13)
H1 H 0.2477(19) 0.321(3) 0.121(2)
H2 H 0.162(2) 0.308(3) 0.145(2)
K2 K 0.21160(3) 0.55224(4) 0.63371(3)
O2 O 0.29032(11) 0.51741(15) 0.84304(13)
H3 H 0.2425(19) 0.475(3) 0.866(2)
H4 H 0.338(2) 0.474(3) 0.849(2)
O3 O 0.32812(9) 0.36285(12) 0.57857(11)
O4 O 0.58379(9) -0.19855(12) 0.64593(11)
N1 N 0.47838(11) 0.45077(14) 0.61814(13)
N2 N 0.56959(11) 0.40352(14) 0.63906(13)
N3 N 0.46827(10) 0.24379(13) 0.61308(12)
N4 N 0.42480(10) 0.12483(13) 0.60775(12)
N5 N 0.48378(10) 0.03562(13) 0.61885(12)
N6 N 0.44212(10) -0.08284(13) 0.61369(12)
N7 N 0.43524(11) -0.29475(14) 0.62319(13)
N8 N 0.34289(11) -0.24524(15) 0.60538(14)
C1 C 0.41431(13) 0.35629(16) 0.60125(14)
C2 C 0.56175(12) 0.27848(17) 0.63562(14)
H5 H 0.6127 0.2194 0.6469
C3 C 0.49604(13) -0.19680(16) 0.62922(14)
C4 C 0.34883(13) -0.11975(17) 0.60061(15)
H6 H 0.2969 -0.0622 0.5898
H7 H 0.460(2) 0.549(3) 0.617(2)
O5 O -0.08391(9) 0.63325(13) 0.35634(12)
O6 O 0.17257(9) 1.19412(12) 0.39714(12)
N9 N 0.06536(11) 0.53836(14) 0.38367(13)
N10 N 0.15697(11) 0.58969(15) 0.39698(13)
N11 N 0.05722(10) 0.75022(13) 0.37596(12)
N12 N 0.01530(10) 0.86814(13) 0.37173(12)
N13 N 0.07446(10) 0.95739(14) 0.38045(12)
N14 N 0.03142(10) 1.07594(13) 0.37942(12)
N15 N 0.02181(11) 1.28316(14) 0.38329(13)
N16 N -0.07004(11) 1.23638(14) 0.37065(13)
C5 C 0.00355(13) 0.63529(16) 0.37120(14)
C6 C 0.15109(13) 0.71483(17) 0.39215(15)
H8 H 0.2028 0.7729 0.3986
C7 C 0.08657(13) 1.18849(16) 0.38789(14)
C8 C -0.06229(12) 1.11096(16) 0.36863(14)
H9 H -0.1135 1.0521 0.3609
H10 H 0.041(2) 1.383(3) 0.390(2)
K1 K 0.28796(3) 0.38712(4) 0.35608(3)
loop_
_geom_bond_atom_site_label_1
_geom_bond_atom_site_label_2
_geom_bond_site_symmetry_1
_geom_bond_site_symmetry_2
O1 H1 1_555 1_555
H2 O1 1_555 1_555
O2 H3 1_555 1_555
H4 O2 1_555 1_555
O3 C1 1_555 1_555
O4 C3 1_555 1_555
N1 N2 1_555 1_555
N2 C2 1_555 1_555
N3 N4 1_555 1_555
N4 N5 1_555 1_555
N5 N6 1_555 1_555
N6 C3 1_555 1_555
N7 N8 1_555 1_555
N8 C4 1_555 1_555
C1 N1 1_555 1_555
C2 N3 1_555 1_555
H5 C2 1_555 1_555
C3 N7 1_555 1_555
C4 N6 1_555 1_555
H6 C4 1_555 1_555
H7 N1 1_555 1_555
O5 C5 1_555 1_555
O6 C7 1_555 1_555
N9 N10 1_555 1_555
N10 C6 1_555 1_555
N11 N12 1_555 1_555
N12 N13 1_555 1_555
N13 N14 1_555 1_555
N14 C7 1_555 1_555
N15 N16 1_555 1_555
N16 C8 1_555 1_555
C5 N9 1_555 1_555
C6 N11 1_555 1_555
H8 C6 1_555 1_555
C7 N15 1_555 1_555
C8 N14 1_555 1_555
H9 C8 1_555 1_555
H10 N15 1_555 1_555
N3 C1 1_555 1_555
N11 C5 1_555 1_555

#END
