
#######################################################################
#
#                 Cambridge Crystallographic Data Centre
#                                CCDC 
#
#######################################################################
#
# If this CIF has been generated from an entry in the Cambridge 
# Structural Database, then it will include bibliographic, chemical, 
# crystal, experimental, refinement or atomic coordinate data resulting 
# from the CCDC's data processing and validation procedures.
#
#######################################################################

data_HEWPUV
_chemical_formula_moiety         'C8 H10 N2 O1'
_chemical_name_systematic        2-Methylbenzamidoxime
_symmetry_cell_setting           monoclinic
_symmetry_space_group_name_H-M   'P 21/n'
_symmetry_Int_Tables_number      14
_space_group_name_Hall           '-P 2yn'
loop_
_symmetry_equiv_pos_site_id
_symmetry_equiv_pos_as_xyz
1 x,y,z
2 1/2-x,1/2+y,1/2-z
3 -x,-y,-z
4 1/2+x,1/2-y,1/2+z
_cell_length_a                   9.751(2)
_cell_length_b                   7.0880(14)
_cell_length_c                   11.982(2)
_cell_angle_alpha                90
_cell_angle_beta                 98.60(3)
_cell_angle_gamma                90
_cell_volume                     818.826
_exptl_crystal_colour            yellow
_exptl_crystal_description       block
_cell_formula_units_Z            4
_exptl_crystal_recrystallization_method ethanol/water
loop_
_atom_site_label
_atom_site_type_symbol
_atom_site_fract_x
_atom_site_fract_y
_atom_site_fract_z
O1 O 0.65920(16) 0.0065(2) 0.06365(14)
H1 H 0.6228 -0.0688 0.0163
N1 N 0.7473(2) 0.2577(3) 0.2082(2)
H2 H 0.8035 0.1803 0.1832
H3 H 0.7785 0.3408 0.2578
N2 N 0.55481(18) 0.1307(2) 0.09602(15)
C1 C 0.5160(4) 0.1785(4) 0.3878(2)
H4 H 0.4771 0.1823 0.4568
H5 H 0.6152 0.1704 0.4049
H6 H 0.4810 0.0703 0.3445
C2 C 0.4765(2) 0.3548(3) 0.32086(18)
C3 C 0.3938(2) 0.4922(3) 0.3610(2)
H7 H 0.3647 0.4744 0.4307
C4 C 0.3537(3) 0.6534(4) 0.3007(2)
H8 H 0.2981 0.7421 0.3295
C5 C 0.3960(3) 0.6826(4) 0.1984(2)
H9 H 0.3699 0.7916 0.1574
C6 C 0.4778(2) 0.5489(3) 0.1564(2)
H10 H 0.5062 0.5686 0.0866
C7 C 0.5183(2) 0.3863(3) 0.21620(17)
C8 C 0.6110(2) 0.2487(3) 0.16958(17)
loop_
_geom_bond_atom_site_label_1
_geom_bond_atom_site_label_2
_geom_bond_site_symmetry_1
_geom_bond_site_symmetry_2
O1 H1 1_555 1_555
N1 H2 1_555 1_555
H3 N1 1_555 1_555
N2 O1 1_555 1_555
C1 H4 1_555 1_555
H5 C1 1_555 1_555
H6 C1 1_555 1_555
C2 C1 1_555 1_555
C3 C2 1_555 1_555
H7 C3 1_555 1_555
C4 C3 1_555 1_555
H8 C4 1_555 1_555
C5 C4 1_555 1_555
H9 C5 1_555 1_555
C6 C5 1_555 1_555
H10 C6 1_555 1_555
C7 C2 1_555 1_555
C8 N1 1_555 1_555
N2 C8 1_555 1_555
C6 C7 1_555 1_555
C7 C8 1_555 1_555

#END
