
#######################################################################
#
#                 Cambridge Crystallographic Data Centre
#                                CCDC 
#
#######################################################################
#
# If this CIF has been generated from an entry in the Cambridge 
# Structural Database, then it will include bibliographic, chemical, 
# crystal, experimental, refinement or atomic coordinate data resulting 
# from the CCDC's data processing and validation procedures.
#
#######################################################################

data_HEWROR
_chemical_formula_moiety         'C6 H18 N2 2+,2(C7 H3 N2 O6 1-)'
_chemical_name_systematic        
'Hexamethylenediammonium bis(3,5-dinitrobenzoate)'
_symmetry_cell_setting           monoclinic
_symmetry_space_group_name_H-M   'P 21/c'
_symmetry_Int_Tables_number      14
_space_group_name_Hall           '-P 2ybc'
loop_
_symmetry_equiv_pos_site_id
_symmetry_equiv_pos_as_xyz
1 x,y,z
2 -x,1/2+y,1/2-z
3 -x,-y,-z
4 x,1/2-y,1/2+z
_cell_length_a                   9.551(3)
_cell_length_b                   6.1213(19)
_cell_length_c                   20.847(7)
_cell_angle_alpha                90
_cell_angle_beta                 90.881(6)
_cell_angle_gamma                90
_cell_volume                     1218.67
_exptl_crystal_colour            colorless
_exptl_crystal_description       block
_cell_formula_units_Z            2
loop_
_atom_site_label
_atom_site_type_symbol
_atom_site_fract_x
_atom_site_fract_y
_atom_site_fract_z
N1 N 0.1739(2) 0.6308(4) 0.35298(9)
N2 N 0.3770(2) 1.2584(3) 0.24301(12)
O1 O 0.13246(16) 0.8021(2) 0.06707(7)
O2 O 0.06440(18) 0.5040(2) 0.11922(7)
O3 O 0.2197(3) 0.7024(3) 0.40297(8)
O4 O 0.1142(2) 0.4555(4) 0.34804(9)
O5 O 0.4102(2) 1.3324(3) 0.29504(10)
O6 O 0.4075(2) 1.3427(3) 0.19225(11)
C1 C 0.1717(2) 0.7831(3) 0.18000(9)
C2 C 0.1467(2) 0.6721(4) 0.23639(9)
H4 H 0.0968 0.5417 0.2357
C3 C 0.1964(2) 0.7559(4) 0.29371(10)
C4 C 0.2707(2) 0.9487(4) 0.29769(10)
H5 H 0.3033 1.0035 0.3368
C5 C 0.2940(2) 1.0554(3) 0.24087(10)
C6 C 0.2467(2) 0.9771(3) 0.18248(10)
H6 H 0.2649 1.0537 0.1450
C7 C 0.1186(2) 0.6904(4) 0.11678(10)
N3 N 0.10579(19) 0.2363(3) 0.01685(8)
H1 H 0.1231 0.1022 0.0314
H2 H 0.0342 0.2322 -0.0110
H3 H 0.0845 0.3232 0.0495
C8 C 0.2320(2) 0.3221(4) -0.01558(10)
H7 H 0.2219 0.4783 -0.0221
H8 H 0.2401 0.2537 -0.0573
C9 C 0.3627(3) 0.2784(4) 0.02339(13)
H9 H 0.3756 0.1217 0.0272
H10 H 0.3507 0.3365 0.0662
C10 C 0.4951(3) 0.3792(4) -0.00559(14)
H11 H 0.5770 0.3089 0.0131
H12 H 0.4950 0.3512 -0.0514
N3B N 0.89421(19) 0.7637(3) -0.01685(8)
H1B H 0.8769 0.8978 -0.0314
H2B H 0.9658 0.7678 0.0110
H3B H 0.9155 0.6768 -0.0495
C8B C 0.7680(2) 0.6779(4) 0.01558(10)
H7B H 0.7781 0.5217 0.0221
H8B H 0.7599 0.7463 0.0573
C9B C 0.6373(3) 0.7216(4) -0.02339(13)
H9B H 0.6244 0.8783 -0.0272
H10B H 0.6493 0.6635 -0.0662
C10B C 0.5049(3) 0.6208(4) 0.00559(14)
H11B H 0.4230 0.6911 -0.0131
H12B H 0.5050 0.6488 0.0514
loop_
_geom_bond_atom_site_label_1
_geom_bond_atom_site_label_2
_geom_bond_site_symmetry_1
_geom_bond_site_symmetry_2
N1 O3 1_555 1_555
N2 O5 1_555 1_555
N3 H1 1_555 1_555
H2 N3 1_555 1_555
H3 N3 1_555 1_555
O1 C7 1_555 1_555
O2 C7 1_555 1_555
O4 N1 1_555 1_555
O6 N2 1_555 1_555
C1 C2 1_555 1_555
C2 H4 1_555 1_555
C3 N1 1_555 1_555
C4 C3 1_555 1_555
H5 C4 1_555 1_555
C5 N2 1_555 1_555
C6 C1 1_555 1_555
H6 C6 1_555 1_555
C7 C1 1_555 1_555
C8 N3 1_555 1_555
H7 C8 1_555 1_555
H8 C8 1_555 1_555
C9 C8 1_555 1_555
H9 C9 1_555 1_555
H10 C9 1_555 1_555
C10 C9 1_555 1_555
H11 C10 1_555 1_555
H12 C10 1_555 1_555
N3B H1B 1_555 1_555
H2B N3B 1_555 1_555
H3B N3B 1_555 1_555
C8B N3B 1_555 1_555
H7B C8B 1_555 1_555
H8B C8B 1_555 1_555
C9B C8B 1_555 1_555
H9B C9B 1_555 1_555
H10B C9B 1_555 1_555
C10B C10 1_555 1_555
H11B C10B 1_555 1_555
H12B C10B 1_555 1_555
C2 C3 1_555 1_555
C4 C5 1_555 1_555
C5 C6 1_555 1_555
C9B C10B 1_555 1_555

#END
