
#######################################################################
#
#                 Cambridge Crystallographic Data Centre
#                                CCDC 
#
#######################################################################
#
# If this CIF has been generated from an entry in the Cambridge 
# Structural Database, then it will include bibliographic, chemical, 
# crystal, experimental, refinement or atomic coordinate data resulting 
# from the CCDC's data processing and validation procedures.
#
#######################################################################

data_HEWRAD01
_chemical_formula_moiety         'C12 H12 N4'
_chemical_name_systematic        1,2-bis(2-aminophenyl)diazene
_symmetry_cell_setting           monoclinic
_symmetry_space_group_name_H-M   'C 2/c'
_symmetry_Int_Tables_number      15
_space_group_name_Hall           '-C 2yn'
loop_
_symmetry_equiv_pos_site_id
_symmetry_equiv_pos_as_xyz
1 x,y,z
2 -x,y,1/2-z
3 1/2+x,1/2+y,z
4 1/2-x,1/2+y,1/2-z
5 -x,-y,-z
6 x,-y,1/2+z
7 1/2-x,1/2-y,-z
8 1/2+x,1/2-y,1/2+z
_cell_length_a                   22.479(4)
_cell_length_b                   5.9147(10)
_cell_length_c                   8.4151(14)
_cell_angle_alpha                90
_cell_angle_beta                 106.922(2)
_cell_angle_gamma                90
_cell_volume                     1070.4
_cell_formula_units_Z            4
loop_
_atom_site_label
_atom_site_type_symbol
_atom_site_fract_x
_atom_site_fract_y
_atom_site_fract_z
C1 C 0.07205(5) 0.1399(2) 0.58538(14)
N1 N 0.01096(5) 0.09208(17) 0.48489(12)
C2 C 0.09698(6) 0.3450(2) 0.54842(15)
N2 N 0.06302(6) 0.4808(2) 0.42195(15)
H1 H 0.0788 0.6044 0.3987
H2 H 0.0259 0.4423 0.3661
C3 C 0.15724(6) 0.4034(2) 0.64108(17)
H3 H 0.1747 0.5375 0.6179
C4 C 0.19114(6) 0.2655(3) 0.76605(19)
H4 H 0.2312 0.3074 0.8265
C5 C 0.16629(7) 0.0639(3) 0.80335(18)
H5 H 0.1894 -0.0282 0.8887
C6 C 0.10723(6) 0.0022(2) 0.71283(16)
H6 H 0.0905 -0.1329 0.7368
C1D C -0.07205(5) -0.1399(2) 0.41462(14)
N1D N -0.01096(5) -0.09208(17) 0.51511(12)
C2D C -0.09698(6) -0.3450(2) 0.45158(15)
N2D N -0.06302(6) -0.4808(2) 0.57805(15)
H1D H -0.0788 -0.6044 0.6013
H2D H -0.0259 -0.4423 0.6339
C3D C -0.15724(6) -0.4034(2) 0.35892(17)
H3D H -0.1747 -0.5375 0.3821
C4D C -0.19114(6) -0.2655(3) 0.23395(19)
H4D H -0.2312 -0.3074 0.1735
C5D C -0.16629(7) -0.0639(3) 0.19665(18)
H5D H -0.1894 0.0282 0.1113
C6D C -0.10723(6) -0.0022(2) 0.28717(16)
H6D H -0.0905 0.1329 0.2632
loop_
_geom_bond_atom_site_label_1
_geom_bond_atom_site_label_2
_geom_bond_site_symmetry_1
_geom_bond_site_symmetry_2
C1 N1 1_555 1_555
N1 N1D 1_555 1_555
C2 C1 1_555 1_555
N2 C2 1_555 1_555
H1 N2 1_555 1_555
H2 N2 1_555 1_555
C3 C2 1_555 1_555
H3 C3 1_555 1_555
C4 C3 1_555 1_555
H4 C4 1_555 1_555
C5 C4 1_555 1_555
H5 C5 1_555 1_555
C6 C1 1_555 1_555
H6 C6 1_555 1_555
C1D N1D 1_555 1_555
C2D C1D 1_555 1_555
N2D C2D 1_555 1_555
H1D N2D 1_555 1_555
H2D N2D 1_555 1_555
C3D C2D 1_555 1_555
H3D C3D 1_555 1_555
C4D C3D 1_555 1_555
H4D C4D 1_555 1_555
C5D C4D 1_555 1_555
H5D C5D 1_555 1_555
C6D C1D 1_555 1_555
H6D C6D 1_555 1_555
C5 C6 1_555 1_555
C5D C6D 1_555 1_555

#END
