
#######################################################################
#
#                 Cambridge Crystallographic Data Centre
#                                CCDC 
#
#######################################################################
#
# If this CIF has been generated from an entry in the Cambridge 
# Structural Database, then it will include bibliographic, chemical, 
# crystal, experimental, refinement or atomic coordinate data resulting 
# from the CCDC's data processing and validation procedures.
#
#######################################################################

data_HEWREH
_chemical_formula_moiety         'C20 H16 Cl1 N1 O3'
_chemical_name_systematic        2-Benzyl-4-chloro-1-(4-nitrobenzyloxy)benzene
_symmetry_cell_setting           monoclinic
_symmetry_space_group_name_H-M   'P 21/c'
_symmetry_Int_Tables_number      14
_space_group_name_Hall           '-P 2ybc'
loop_
_symmetry_equiv_pos_site_id
_symmetry_equiv_pos_as_xyz
1 x,y,z
2 -x,1/2+y,1/2-z
3 -x,-y,-z
4 x,1/2-y,1/2+z
_cell_length_a                   7.329(2)
_cell_length_b                   19.023(5)
_cell_length_c                   12.723(3)
_cell_angle_alpha                90
_cell_angle_beta                 101.845(5)
_cell_angle_gamma                90
_cell_volume                     1736.06
_exptl_crystal_colour            yellow
_exptl_crystal_description       block
_chemical_melting_point          '386 K'
_cell_formula_units_Z            4
_exptl_crystal_recrystallization_method 'ethyl acetate'
loop_
_atom_site_label
_atom_site_type_symbol
_atom_site_fract_x
_atom_site_fract_y
_atom_site_fract_z
Cl1 Cl 0.34484(13) 0.59417(5) 1.43271(7)
O1 O 0.2415(3) 0.46451(10) 1.00612(16)
O2 O 0.1394(4) 0.36537(16) 0.4499(2)
O3 O 0.1112(4) 0.27367(15) 0.5420(2)
N1 N 0.1392(4) 0.33657(18) 0.5353(2)
C1 C 0.5150(5) 0.32588(16) 1.3096(3)
H1 H 0.4505 0.3347 1.3640
C2 C 0.6926(6) 0.29889(17) 1.3365(4)
H2 H 0.7462 0.2895 1.4079
C3 C 0.7889(6) 0.28605(18) 1.2583(5)
H3 H 0.9106 0.2694 1.2764
C4 C 0.7084(6) 0.29742(17) 1.1535(4)
H4 H 0.7734 0.2868 1.1000
C5 C 0.5271(5) 0.32517(16) 1.1260(3)
H5 H 0.4729 0.3333 1.0543
C6 C 0.4293(4) 0.34038(13) 1.2052(2)
C7 C 0.2412(4) 0.37622(14) 1.1806(2)
H6 H 0.1655 0.3591 1.2294
H7 H 0.1779 0.3646 1.1080
C8 C 0.2614(3) 0.45515(14) 1.1916(2)
C9 C 0.2852(4) 0.48604(15) 1.2920(2)
H8 H 0.2827 0.4582 1.3518
C10 C 0.3127(4) 0.55776(16) 1.3048(2)
C11 C 0.3167(4) 0.59984(15) 1.2180(3)
H9 H 0.3367 0.6479 1.2270
C12 C 0.2908(4) 0.57019(15) 1.1169(3)
H10 H 0.2906 0.5985 1.0573
C13 C 0.2648(3) 0.49803(14) 1.1041(2)
C14 C 0.2379(4) 0.50590(15) 0.9136(2)
H11 H 0.3538 0.5318 0.9210
H12 H 0.1365 0.5395 0.9058
C15 C 0.2120(3) 0.45985(15) 0.8163(2)
C16 C 0.1963(4) 0.38752(16) 0.8215(3)
H13 H 0.2005 0.3659 0.8875
C17 C 0.1747(4) 0.34722(17) 0.7299(2)
H14 H 0.1657 0.2986 0.7339
C18 C 0.1665(4) 0.37972(17) 0.6325(2)
C19 C 0.1834(4) 0.45146(17) 0.6253(3)
H15 H 0.1796 0.4728 0.5591
C20 C 0.2061(4) 0.49100(17) 0.7173(3)
H16 H 0.2177 0.5395 0.7131
loop_
_geom_bond_atom_site_label_1
_geom_bond_atom_site_label_2
_geom_bond_site_symmetry_1
_geom_bond_site_symmetry_2
Cl1 C10 1_555 1_555
O1 C13 1_555 1_555
O2 N1 1_555 1_555
O3 N1 1_555 1_555
N1 C18 1_555 1_555
C1 H1 1_555 1_555
C2 C1 1_555 1_555
H2 C2 1_555 1_555
C3 C2 1_555 1_555
H3 C3 1_555 1_555
C4 C3 1_555 1_555
H4 C4 1_555 1_555
C5 C4 1_555 1_555
H5 C5 1_555 1_555
C6 C1 1_555 1_555
C7 C6 1_555 1_555
H6 C7 1_555 1_555
H7 C7 1_555 1_555
C8 C7 1_555 1_555
C9 C8 1_555 1_555
H8 C9 1_555 1_555
C10 C9 1_555 1_555
C11 C10 1_555 1_555
H9 C11 1_555 1_555
C12 C11 1_555 1_555
H10 C12 1_555 1_555
C13 C8 1_555 1_555
C14 O1 1_555 1_555
H11 C14 1_555 1_555
H12 C14 1_555 1_555
C15 C14 1_555 1_555
C16 C15 1_555 1_555
H13 C16 1_555 1_555
C17 C16 1_555 1_555
H14 C17 1_555 1_555
C18 C17 1_555 1_555
C19 C18 1_555 1_555
H15 C19 1_555 1_555
C20 C15 1_555 1_555
H16 C20 1_555 1_555
C5 C6 1_555 1_555
C12 C13 1_555 1_555
C19 C20 1_555 1_555

#END
