
#######################################################################
#
#                 Cambridge Crystallographic Data Centre
#                                CCDC 
#
#######################################################################
#
# If this CIF has been generated from an entry in the Cambridge 
# Structural Database, then it will include bibliographic, chemical, 
# crystal, experimental, refinement or atomic coordinate data resulting 
# from the CCDC's data processing and validation procedures.
#
#######################################################################

data_HEWRUX
_chemical_formula_moiety         'C41 H50 N6 O2'
_chemical_name_systematic        
6,6'-bis(2H-1,2,3-Benzotriazol-2-yl)-4,4'-bis(2,4,4-trimethylpentan-2-yl)-2,2'-methylenebiphenol
_symmetry_cell_setting           orthorhombic
_symmetry_space_group_name_H-M   'P b c n'
_symmetry_Int_Tables_number      60
_space_group_name_Hall           '-P 2n 2ab'
loop_
_symmetry_equiv_pos_site_id
_symmetry_equiv_pos_as_xyz
1 x,y,z
2 1/2-x,1/2-y,1/2+z
3 -x,y,1/2-z
4 1/2+x,1/2-y,-z
5 -x,-y,-z
6 1/2+x,1/2+y,1/2-z
7 x,-y,1/2+z
8 1/2-x,1/2+y,z
_cell_length_a                   18.302(4)
_cell_length_b                   8.0960(16)
_cell_length_c                   24.553(5)
_cell_angle_alpha                90
_cell_angle_beta                 90
_cell_angle_gamma                90
_cell_volume                     3638.09
_exptl_crystal_colour            colorless
_exptl_crystal_description       block
_cell_formula_units_Z            4
_exptl_crystal_recrystallization_method ethanol
loop_
_atom_site_label
_atom_site_type_symbol
_atom_site_fract_x
_atom_site_fract_y
_atom_site_fract_z
O1 O 0.14203(15) 0.7076(4) 0.21973(11)
H1 H 0.1820 0.7381 0.2084
N1 N 0.17421(18) 0.9035(5) 0.12466(15)
N2 N 0.18825(19) 0.9850(5) 0.07846(15)
N3 N 0.23242(19) 0.8502(5) 0.15319(14)
C1 C -0.1437(3) 1.3550(6) 0.1379(2)
H2 H -0.1469 1.4451 0.1632
H3 H -0.1855 1.3564 0.1142
H4 H -0.1000 1.3661 0.1165
C2 C -0.2059(3) 1.1957(7) 0.2090(2)
H5 H -0.2044 1.0999 0.2320
H6 H -0.2509 1.1966 0.1889
H7 H -0.2027 1.2934 0.2310
C3 C -0.0710(2) 1.1852(6) 0.2017(2)
H8 H -0.0691 1.2777 0.2261
H9 H -0.0301 1.1897 0.1773
H10 H -0.0691 1.0844 0.2223
C4 C -0.1416(2) 1.1910(5) 0.16924(18)
C5 C -0.15283(19) 1.0401(5) 0.13275(16)
H11 H -0.1949 1.0646 0.1101
H12 H -0.1674 0.9506 0.1567
C6 C -0.0940(2) 0.9677(6) 0.09423(16)
C7 C -0.1294(3) 0.8230(7) 0.0635(2)
H13 H -0.0942 0.7747 0.0392
H14 H -0.1704 0.8625 0.0429
H15 H -0.1455 0.7413 0.0891
C8 C -0.0819(4) 1.0926(5) 0.0489(3)
H16 H -0.0515 1.0440 0.0214
H17 H -0.1278 1.1241 0.0331
H18 H -0.0582 1.1885 0.0635
C9 C -0.0281(2) 0.9002(5) 0.12525(16)
C10 C 0.0437(2) 0.9350(5) 0.11216(16)
H19 H 0.0537 1.0030 0.0826
C11 C 0.1009(2) 0.8710(5) 0.14201(17)
C12 C 0.0887(2) 0.7707(6) 0.18782(17)
C13 C 0.0165(2) 0.7314(5) 0.20028(16)
C14 C -0.0393(2) 0.7926(5) 0.16925(16)
H20 H -0.0869 0.7615 0.1777
C15 C 0.0000 0.6259(8) 0.2500
H21 H 0.0414 0.5566 0.2574
C16 C 0.2623(2) 0.9836(6) 0.07688(18)
C17 C 0.3101(3) 1.0513(7) 0.0388(2)
H22 H 0.2926 1.1063 0.0082
C18 C 0.3831(3) 1.0345(7) 0.0477(2)
H23 H 0.4159 1.0798 0.0229
C19 C 0.4096(3) 0.9510(7) 0.0929(2)
H24 H 0.4599 0.9406 0.0971
C20 C 0.3649(2) 0.8832(6) 0.1319(2)
H25 H 0.3832 0.8288 0.1623
C21 C 0.2894(2) 0.9016(6) 0.12246(19)
O1B O -0.14203(15) 0.7076(4) 0.28027(11)
H1B H -0.1820 0.7381 0.2916
N1B N -0.17421(18) 0.9035(5) 0.37534(15)
N2B N -0.18825(19) 0.9850(5) 0.42154(15)
N3B N -0.23242(19) 0.8502(5) 0.34681(14)
C1B C 0.1437(3) 1.3550(6) 0.3621(2)
H2B H 0.1469 1.4451 0.3368
H3B H 0.1855 1.3564 0.3858
H4B H 0.1000 1.3661 0.3835
C2B C 0.2059(3) 1.1957(7) 0.2910(2)
H5B H 0.2044 1.0999 0.2680
H6B H 0.2509 1.1966 0.3111
H7B H 0.2027 1.2934 0.2690
C3B C 0.0710(2) 1.1852(6) 0.2983(2)
H8B H 0.0691 1.2777 0.2739
H9B H 0.0301 1.1897 0.3227
H10B H 0.0691 1.0844 0.2777
C4B C 0.1416(2) 1.1910(5) 0.33076(18)
C5B C 0.15283(19) 1.0401(5) 0.36725(16)
H11B H 0.1949 1.0646 0.3899
H12B H 0.1674 0.9506 0.3433
C6B C 0.0940(2) 0.9677(6) 0.40577(16)
C7B C 0.1294(3) 0.8230(7) 0.4365(2)
H13B H 0.0942 0.7747 0.4608
H14B H 0.1704 0.8625 0.4571
H15B H 0.1455 0.7413 0.4109
C8B C 0.0819(4) 1.0926(5) 0.4511(3)
H16B H 0.0515 1.0440 0.4786
H17B H 0.1278 1.1241 0.4669
H18B H 0.0582 1.1885 0.4365
C9B C 0.0281(2) 0.9002(5) 0.37475(16)
C10B C -0.0437(2) 0.9350(5) 0.38784(16)
H19B H -0.0537 1.0030 0.4174
C11B C -0.1009(2) 0.8710(5) 0.35799(17)
C12B C -0.0887(2) 0.7707(6) 0.31218(17)
C13B C -0.0165(2) 0.7314(5) 0.29972(16)
C14B C 0.0393(2) 0.7926(5) 0.33075(16)
H20B H 0.0869 0.7615 0.3223
H21B H -0.0414 0.5566 0.2426
C16B C -0.2623(2) 0.9836(6) 0.42312(18)
C17B C -0.3101(3) 1.0513(7) 0.4612(2)
H22B H -0.2926 1.1063 0.4918
C18B C -0.3831(3) 1.0345(7) 0.4523(2)
H23B H -0.4159 1.0798 0.4771
C19B C -0.4096(3) 0.9510(7) 0.4071(2)
H24B H -0.4599 0.9406 0.4029
C20B C -0.3649(2) 0.8832(6) 0.3681(2)
H25B H -0.3832 0.8288 0.3377
C21B C -0.2894(2) 0.9016(6) 0.37754(19)
loop_
_geom_bond_atom_site_label_1
_geom_bond_atom_site_label_2
_geom_bond_site_symmetry_1
_geom_bond_site_symmetry_2
O1 H1 1_555 1_555
N1 N2 1_555 1_555
N2 C16 1_555 1_555
N3 N1 1_555 1_555
C1 H2 1_555 1_555
H3 C1 1_555 1_555
H4 C1 1_555 1_555
C2 H5 1_555 1_555
H6 C2 1_555 1_555
H7 C2 1_555 1_555
C3 H8 1_555 1_555
H9 C3 1_555 1_555
H10 C3 1_555 1_555
C4 C1 1_555 1_555
C5 C4 1_555 1_555
H11 C5 1_555 1_555
H12 C5 1_555 1_555
C6 C5 1_555 1_555
C7 C6 1_555 1_555
H13 C7 1_555 1_555
H14 C7 1_555 1_555
H15 C7 1_555 1_555
C8 C6 1_555 1_555
H16 C8 1_555 1_555
H17 C8 1_555 1_555
H18 C8 1_555 1_555
C9 C6 1_555 1_555
C10 C9 1_555 1_555
H19 C10 1_555 1_555
C11 N1 1_555 1_555
C12 O1 1_555 1_555
C13 C12 1_555 1_555
C14 C9 1_555 1_555
H20 C14 1_555 1_555
C15 C13 1_555 1_555
H21 C15 1_555 1_555
C16 C17 1_555 1_555
C17 H22 1_555 1_555
C18 C17 1_555 1_555
H23 C18 1_555 1_555
C19 C18 1_555 1_555
H24 C19 1_555 1_555
C20 C19 1_555 1_555
H25 C20 1_555 1_555
C21 N3 1_555 1_555
O1B H1B 1_555 1_555
N1B N2B 1_555 1_555
N2B C16B 1_555 1_555
N3B N1B 1_555 1_555
C1B H2B 1_555 1_555
H3B C1B 1_555 1_555
H4B C1B 1_555 1_555
C2B H5B 1_555 1_555
H6B C2B 1_555 1_555
H7B C2B 1_555 1_555
C3B H8B 1_555 1_555
H9B C3B 1_555 1_555
H10B C3B 1_555 1_555
C4B C1B 1_555 1_555
C5B C4B 1_555 1_555
H11B C5B 1_555 1_555
H12B C5B 1_555 1_555
C6B C5B 1_555 1_555
C7B C6B 1_555 1_555
H13B C7B 1_555 1_555
H14B C7B 1_555 1_555
H15B C7B 1_555 1_555
C8B C6B 1_555 1_555
H16B C8B 1_555 1_555
H17B C8B 1_555 1_555
H18B C8B 1_555 1_555
C9B C6B 1_555 1_555
C10B C9B 1_555 1_555
H19B C10B 1_555 1_555
C11B N1B 1_555 1_555
C12B O1B 1_555 1_555
C13B C15 1_555 1_555
C14B C9B 1_555 1_555
H20B C14B 1_555 1_555
H21B C15 1_555 1_555
C16B C17B 1_555 1_555
C17B H22B 1_555 1_555
C18B C17B 1_555 1_555
H23B C18B 1_555 1_555
C19B C18B 1_555 1_555
H24B C19B 1_555 1_555
C20B C19B 1_555 1_555
H25B C20B 1_555 1_555
C21B N3B 1_555 1_555
C2 C4 1_555 1_555
C3 C4 1_555 1_555
C10 C11 1_555 1_555
C11 C12 1_555 1_555
C13 C14 1_555 1_555
C16 C21 1_555 1_555
C20 C21 1_555 1_555
C2B C4B 1_555 1_555
C3B C4B 1_555 1_555
C10B C11B 1_555 1_555
C11B C12B 1_555 1_555
C12B C13B 1_555 1_555
C13B C14B 1_555 1_555
C16B C21B 1_555 1_555
C20B C21B 1_555 1_555

#END
