
#######################################################################
#
#                 Cambridge Crystallographic Data Centre
#                                CCDC 
#
#######################################################################
#
# If this CIF has been generated from an entry in the Cambridge 
# Structural Database, then it will include bibliographic, chemical, 
# crystal, experimental, refinement or atomic coordinate data resulting 
# from the CCDC's data processing and validation procedures.
#
#######################################################################

data_HEWVEL
_chemical_formula_moiety         'C18 H14 Cl3 N1 O4,C1 H4 O1'
_chemical_name_systematic        
'2,3,4-Trichloro-6-(diethylamino)-9-oxo-9H-xanthene-1-carboxylic acid methanol solvate'
_symmetry_cell_setting           triclinic
_symmetry_space_group_name_H-M   'P -1'
_symmetry_Int_Tables_number      2
_space_group_name_Hall           '-P 1'
loop_
_symmetry_equiv_pos_site_id
_symmetry_equiv_pos_as_xyz
1 x,y,z
2 -x,-y,-z
_cell_length_a                   8.5125(12)
_cell_length_b                   10.0649(14)
_cell_length_c                   12.4028(17)
_cell_angle_alpha                105.305(5)
_cell_angle_beta                 95.552(9)
_cell_angle_gamma                101.563(6)
_cell_volume                     991.478
_exptl_crystal_colour            yellow
_exptl_crystal_description       block
_chemical_melting_point          '550-551 K'
_cell_formula_units_Z            2
_exptl_crystal_recrystallization_method 'ethyl acetate/acetone'
loop_
_atom_site_label
_atom_site_type_symbol
_atom_site_fract_x
_atom_site_fract_y
_atom_site_fract_z
Cl1 Cl 0.40286(7) 0.61296(6) 0.40856(5)
Cl2 Cl 0.59495(7) 0.85094(7) 0.62346(5)
Cl3 Cl 0.49796(7) 0.85680(6) 0.86161(5)
O1 O 0.3024(2) 0.55028(19) 0.91922(15)
O2 O 0.1359(2) 0.69565(18) 0.90975(13)
O3 O 0.00232(18) 0.39511(16) 0.75471(12)
O4 O 0.15766(16) 0.40618(15) 0.45381(11)
N1 N -0.1843(2) -0.04209(19) 0.25338(14)
C1 C 0.3544(2) 0.6164(2) 0.54075(17)
C2 C 0.4370(2) 0.7229(2) 0.63624(19)
C3 C 0.3943(3) 0.7225(2) 0.74215(17)
C4 C 0.2707(2) 0.6179(2) 0.75327(17)
C5 C 0.1865(2) 0.5087(2) 0.65680(17)
C6 C 0.2307(2) 0.5088(2) 0.55164(17)
C7 C 0.0430(2) 0.2902(2) 0.45833(17)
C8 C -0.0109(2) 0.2820(2) 0.55991(16)
C9 C 0.0517(2) 0.3936(2) 0.66403(17)
C10 C -0.1310(2) 0.1604(2) 0.55320(17)
H1 H -0.1723 0.1516 0.6184
C11 C -0.1890(3) 0.0548(2) 0.45408(18)
H2 H -0.2680 -0.0243 0.4533
C12 C -0.1298(3) 0.0641(2) 0.35141(17)
C13 C -0.0140(2) 0.1868(2) 0.35690(17)
H3 H 0.0246 0.1985 0.2916
C14 C 0.2250(3) 0.6248(2) 0.86944(18)
C15 C -0.1263(3) -0.0318(3) 0.14802(18)
H4 H -0.1119 0.0652 0.1452
H5 H -0.2078 -0.0915 0.0844
C16 C 0.0332(3) -0.0762(3) 0.1366(2)
H6 H 0.0613 -0.0757 0.0636
H7 H 0.0218 -0.1699 0.1444
H8 H 0.1172 -0.0111 0.1946
C17 C -0.2889(3) -0.1803(2) 0.2473(2)
H9 H -0.2750 -0.1961 0.3211
H10 H -0.2543 -0.2544 0.1943
C18 C -0.4652(3) -0.1915(3) 0.2110(2)
H11 H -0.5256 -0.2866 0.2004
H12 H -0.4789 -0.1677 0.1412
H13 H -0.5041 -0.1272 0.2683
H17 H 0.267(3) 0.552(3) 0.980(2)
O5 O 0.7790(2) 0.4857(2) 0.89281(15)
C19 C 0.7472(3) 0.6128(3) 0.8808(2)
H14 H 0.6477 0.6251 0.9079
H15 H 0.7374 0.6098 0.8023
H16 H 0.8346 0.6907 0.9238
H18 H 0.855(4) 0.463(3) 0.866(3)
loop_
_geom_bond_atom_site_label_1
_geom_bond_atom_site_label_2
_geom_bond_site_symmetry_1
_geom_bond_site_symmetry_2
Cl1 C1 1_555 1_555
Cl2 C2 1_555 1_555
Cl3 C3 1_555 1_555
O1 C14 1_555 1_555
O2 C14 1_555 1_555
O3 C9 1_555 1_555
O4 C6 1_555 1_555
O5 C19 1_555 1_555
N1 C12 1_555 1_555
C1 C2 1_555 1_555
C2 C3 1_555 1_555
C3 C4 1_555 1_555
C4 C5 1_555 1_555
C5 C6 1_555 1_555
C6 C1 1_555 1_555
C7 O4 1_555 1_555
C8 C7 1_555 1_555
C9 C5 1_555 1_555
C10 C8 1_555 1_555
H1 C10 1_555 1_555
C11 C10 1_555 1_555
H2 C11 1_555 1_555
C12 C11 1_555 1_555
C13 C7 1_555 1_555
H3 C13 1_555 1_555
C14 C4 1_555 1_555
C15 N1 1_555 1_555
H4 C15 1_555 1_555
H5 C15 1_555 1_555
C16 C15 1_555 1_555
H6 C16 1_555 1_555
H7 C16 1_555 1_555
H8 C16 1_555 1_555
C17 N1 1_555 1_555
H9 C17 1_555 1_555
H10 C17 1_555 1_555
C18 C17 1_555 1_555
H11 C18 1_555 1_555
H12 C18 1_555 1_555
H13 C18 1_555 1_555
C19 H14 1_555 1_555
H15 C19 1_555 1_555
H16 C19 1_555 1_555
H17 O1 1_555 1_555
H18 O5 1_555 1_555
C8 C9 1_555 1_555
C12 C13 1_555 1_555

#END
