
#######################################################################
#
#                 Cambridge Crystallographic Data Centre
#                                CCDC 
#
#######################################################################
#
# If this CIF has been generated from an entry in the Cambridge 
# Structural Database, then it will include bibliographic, chemical, 
# crystal, experimental, refinement or atomic coordinate data resulting 
# from the CCDC's data processing and validation procedures.
#
#######################################################################

data_HEWVUB
_chemical_formula_moiety         'C20 H23 Cl1 N3 O3 P1 S1'
_chemical_name_systematic        
'(R)-Diethyl ((4-chlorophenyl)(5-(m-tolyl)-1,3,4-thiadiazol-2-ylamino)methyl)phosphonate'
_symmetry_cell_setting           triclinic
_symmetry_space_group_name_H-M   'P -1'
_symmetry_Int_Tables_number      2
_space_group_name_Hall           '-P 1'
loop_
_symmetry_equiv_pos_site_id
_symmetry_equiv_pos_as_xyz
1 x,y,z
2 -x,-y,-z
_cell_length_a                   9.772(2)
_cell_length_b                   11.104(2)
_cell_length_c                   12.588(3)
_cell_angle_alpha                100.14(3)
_cell_angle_beta                 109.80(3)
_cell_angle_gamma                111.17(3)
_cell_volume                     1126.99
_exptl_crystal_colour            colorless
_exptl_crystal_description       block
_chemical_melting_point          '470 K'
_cell_formula_units_Z            2
_exptl_crystal_recrystallization_method acetone
loop_
_atom_site_label
_atom_site_type_symbol
_atom_site_fract_x
_atom_site_fract_y
_atom_site_fract_z
S1 S 0.37548(19) 1.00128(14) 0.28727(13)
P1 P 0.43675(19) 0.74242(15) -0.08265(14)
Cl1 Cl -0.3402(2) 0.6500(2) -0.36484(17)
O1 O 0.5547(5) 0.6948(5) -0.0067(4)
O2 O 0.3332(5) 0.6222(4) -0.2052(4)
O3 O 0.5131(5) 0.8770(4) -0.0936(4)
N1 N 0.3899(5) 0.8551(4) 0.0984(4)
H1 H 0.4738 0.9261 0.1082
N2 N 0.2374(6) 0.7394(4) 0.1885(4)
N3 N 0.2012(6) 0.7663(5) 0.2850(4)
C1 C 0.8175(11) 0.6987(10) 0.0601(8)
H2 H 0.8950 0.6873 0.0339
H3 H 0.7857 0.6332 0.0984
H4 H 0.8662 0.7900 0.1159
C2 C 0.6760(10) 0.6773(10) -0.0418(7)
H5 H 0.6275 0.5853 -0.0984
H6 H 0.7089 0.7420 -0.0817
C3 C 0.2257(12) 0.5457(10) -0.4204(7)
H7 H 0.1778 0.5666 -0.4905
H8 H 0.1515 0.4571 -0.4263
H9 H 0.3259 0.5450 -0.4147
C4 C 0.2585(11) 0.6481(8) -0.3153(6)
H10 H 0.1572 0.6492 -0.3218
H11 H 0.3311 0.7377 -0.3109
C5 C 0.3061(6) 0.7341(5) -0.0084(5)
H12 H 0.2881 0.6537 0.0173
C6 C 0.1411(6) 0.7147(5) -0.0943(5)
C7 C 0.0130(7) 0.5855(5) -0.1556(5)
H13 H 0.0261 0.5104 -0.1403
C8 C -0.1333(7) 0.5653(6) -0.2384(6)
H14 H -0.2179 0.4767 -0.2811
C9 C -0.1558(7) 0.6754(6) -0.2589(5)
C10 C -0.0297(7) 0.8066(6) -0.1967(5)
H15 H -0.0440 0.8819 -0.2100
C11 C 0.1155(7) 0.8242(5) -0.1159(5)
H16 H 0.2004 0.9127 -0.0737
C12 C 0.3325(6) 0.8530(5) 0.1817(5)
C13 C 0.2615(7) 0.8940(6) 0.3431(5)
C14 C 0.2384(7) 0.9460(6) 0.4484(5)
C15 C 0.3203(7) 1.0834(6) 0.5183(5)
H17 H 0.3928 1.1453 0.4985
C16 C 0.2977(9) 1.1319(7) 0.6174(5)
C17 C 0.1912(11) 1.0348(9) 0.6448(7)
H18 H 0.1752 1.0631 0.7117
C18 C 0.1099(11) 0.8995(9) 0.5768(7)
H19 H 0.0379 0.8372 0.5967
C19 C 0.1332(9) 0.8545(7) 0.4794(6)
H20 H 0.0779 0.7616 0.4337
C20 C 0.3844(10) 1.2818(7) 0.6928(6)
H21 H 0.4677 1.2962 0.7685
H22 H 0.3075 1.3092 0.7064
H23 H 0.4334 1.3354 0.6517
loop_
_geom_bond_atom_site_label_1
_geom_bond_atom_site_label_2
_geom_bond_site_symmetry_1
_geom_bond_site_symmetry_2
S1 C12 1_555 1_555
P1 O1 1_555 1_555
Cl1 C9 1_555 1_555
O1 C2 1_555 1_555
O2 P1 1_555 1_555
O3 P1 1_555 1_555
N1 H1 1_555 1_555
N2 N3 1_555 1_555
N3 C13 1_555 1_555
C1 H2 1_555 1_555
H3 C1 1_555 1_555
H4 C1 1_555 1_555
C2 C1 1_555 1_555
H5 C2 1_555 1_555
H6 C2 1_555 1_555
C3 H7 1_555 1_555
H8 C3 1_555 1_555
H9 C3 1_555 1_555
C4 O2 1_555 1_555
H10 C4 1_555 1_555
H11 C4 1_555 1_555
C5 P1 1_555 1_555
H12 C5 1_555 1_555
C6 C5 1_555 1_555
C7 C6 1_555 1_555
H13 C7 1_555 1_555
C8 C7 1_555 1_555
H14 C8 1_555 1_555
C9 C8 1_555 1_555
C10 C9 1_555 1_555
H15 C10 1_555 1_555
C11 C6 1_555 1_555
H16 C11 1_555 1_555
C12 N1 1_555 1_555
C13 S1 1_555 1_555
C14 C13 1_555 1_555
C15 C14 1_555 1_555
H17 C15 1_555 1_555
C16 C15 1_555 1_555
C17 C16 1_555 1_555
H18 C17 1_555 1_555
C18 C17 1_555 1_555
H19 C18 1_555 1_555
C19 C14 1_555 1_555
H20 C19 1_555 1_555
C20 C16 1_555 1_555
H21 C20 1_555 1_555
H22 C20 1_555 1_555
H23 C20 1_555 1_555
N1 C5 1_555 1_555
N2 C12 1_555 1_555
C3 C4 1_555 1_555
C10 C11 1_555 1_555
C18 C19 1_555 1_555

#END
