
#######################################################################
#
#                 Cambridge Crystallographic Data Centre
#                                CCDC 
#
#######################################################################
#
# If this CIF has been generated from an entry in the Cambridge 
# Structural Database, then it will include bibliographic, chemical, 
# crystal, experimental, refinement or atomic coordinate data resulting 
# from the CCDC's data processing and validation procedures.
#
#######################################################################

data_HEXHUQ
_chemical_formula_moiety         'C13 H16 N2 O2'
_chemical_name_systematic        
8-ethyl-3a-hydroxy-1-methyl-3,3a,8,8a-tetrahydropyrrolo[2,3-b]indol-2(1H)-one
_symmetry_cell_setting           monoclinic
_symmetry_space_group_name_H-M   'C 2/c'
_symmetry_Int_Tables_number      15
_space_group_name_Hall           '-C 2yn'
loop_
_symmetry_equiv_pos_site_id
_symmetry_equiv_pos_as_xyz
1 x,y,z
2 -x,y,1/2-z
3 1/2+x,1/2+y,z
4 1/2-x,1/2+y,1/2-z
5 -x,-y,-z
6 x,-y,1/2+z
7 1/2-x,1/2-y,-z
8 1/2+x,1/2-y,1/2+z
_cell_length_a                   28.7011(14)
_cell_length_b                   9.3880(5)
_cell_length_c                   8.9139(4)
_cell_angle_alpha                90
_cell_angle_beta                 99.230(2)
_cell_angle_gamma                90
_cell_volume                     2370.72
_exptl_crystal_colour            yellow
_exptl_crystal_description       plate
_cell_formula_units_Z            8
loop_
_atom_site_label
_atom_site_type_symbol
_atom_site_fract_x
_atom_site_fract_y
_atom_site_fract_z
O1 O 0.31679(3) 0.40789(9) 0.47475(10)
H1 H 0.2897(6) 0.4480(17) 0.4363(18)
O2 O 0.26548(3) 0.04945(9) 0.10213(10)
N1 N 0.31890(3) 0.23138(10) 0.12079(10)
N2 N 0.39198(4) 0.32624(12) 0.25278(11)
C1 C 0.28702(4) 0.14861(11) 0.17375(12)
C2 C 0.40663(4) 0.24810(12) 0.38400(12)
C3 C 0.36846(4) 0.21528(11) 0.45807(11)
C4 C 0.28180(4) 0.19688(12) 0.33158(12)
H2 H 0.281902 0.114482 0.400941
H3 H 0.252136 0.250994 0.330272
C5 C 0.32484(4) 0.29209(11) 0.38054(11)
C6 C 0.34104(4) 0.33856(11) 0.22914(12)
H4 H 0.330298 0.437205 0.198554
C7 C 0.33161(4) 0.21703(13) -0.02979(12)
H5 H 0.364633 0.186865 -0.020696
H6 H 0.327533 0.308860 -0.082535
H7 H 0.311242 0.145665 -0.087720
C8 C 0.41955(5) 0.07858(13) 0.64243(14)
H8 H 0.424275 0.018876 0.729602
C9 C 0.37448(4) 0.13039(12) 0.58629(12)
H9 H 0.348424 0.107616 0.635469
C10 C 0.45180(4) 0.19967(13) 0.44130(13)
H10 H 0.478035 0.224001 0.393613
C11 C 0.45734(4) 0.11443(13) 0.57072(14)
H11 H 0.487890 0.079853 0.611040
C12 C 0.42156(4) 0.42497(14) 0.18577(13)
H12 H 0.403882 0.459721 0.088096
H13 H 0.449728 0.373394 0.163331
C13 C 0.43760(5) 0.55171(15) 0.28532(16)
H14 H 0.409967 0.603800 0.307978
H15 H 0.456748 0.614771 0.232167
H16 H 0.456499 0.518753 0.380379
loop_
_geom_bond_atom_site_label_1
_geom_bond_atom_site_label_2
_geom_bond_site_symmetry_1
_geom_bond_site_symmetry_2
O1 H1 1_555 1_555
O2 C1 1_555 1_555
N1 C1 1_555 1_555
N2 C2 1_555 1_555
C1 C4 1_555 1_555
C2 C3 1_555 1_555
C3 C5 1_555 1_555
C4 H2 1_555 1_555
H3 C4 1_555 1_555
C5 O1 1_555 1_555
C6 N1 1_555 1_555
H4 C6 1_555 1_555
C7 N1 1_555 1_555
H5 C7 1_555 1_555
H6 C7 1_555 1_555
H7 C7 1_555 1_555
C8 H8 1_555 1_555
C9 C3 1_555 1_555
H9 C9 1_555 1_555
C10 C2 1_555 1_555
H10 C10 1_555 1_555
C11 C8 1_555 1_555
H11 C11 1_555 1_555
C12 N2 1_555 1_555
H12 C12 1_555 1_555
H13 C12 1_555 1_555
C13 C12 1_555 1_555
H14 C13 1_555 1_555
H15 C13 1_555 1_555
H16 C13 1_555 1_555
N2 C6 1_555 1_555
C4 C5 1_555 1_555
C5 C6 1_555 1_555
C8 C9 1_555 1_555
C10 C11 1_555 1_555

#END
