
#######################################################################
#
#                 Cambridge Crystallographic Data Centre
#                                CCDC 
#
#######################################################################
#
# If this CIF has been generated from an entry in the Cambridge 
# Structural Database, then it will include bibliographic, chemical, 
# crystal, experimental, refinement or atomic coordinate data resulting 
# from the CCDC's data processing and validation procedures.
#
#######################################################################

data_HEXHOK
_chemical_formula_moiety         'C12 H14 N2 O1'
_chemical_name_systematic        
1,8-dimethyl-3,3a,8,8a-tetrahydropyrrolo[2,3-b]indol-2(1H)-one
_symmetry_cell_setting           orthorhombic
_symmetry_space_group_name_H-M   'P 21 21 21'
_symmetry_Int_Tables_number      19
_space_group_name_Hall           'P 2ac 2ab'
loop_
_symmetry_equiv_pos_site_id
_symmetry_equiv_pos_as_xyz
1 x,y,z
2 1/2-x,-y,1/2+z
3 -x,1/2+y,1/2-z
4 1/2+x,1/2-y,-z
_cell_length_a                   5.7386(4)
_cell_length_b                   9.5416(7)
_cell_length_c                   18.3137(13)
_cell_angle_alpha                90
_cell_angle_beta                 90
_cell_angle_gamma                90
_cell_volume                     1002.77
_exptl_crystal_colour            colorless
_exptl_crystal_description       rod
_cell_formula_units_Z            4
loop_
_atom_site_label
_atom_site_type_symbol
_atom_site_fract_x
_atom_site_fract_y
_atom_site_fract_z
C1 C 0.5536(3) 0.4324(2) 0.60372(10)
C2 C 0.5404(4) 0.5311(2) 0.54805(11)
H1 H 0.642675 0.527373 0.507318
C3 C 0.3719(4) 0.6359(2) 0.55399(11)
H2 H 0.360561 0.704945 0.516796
C4 C 0.2203(4) 0.6415(2) 0.61303(11)
H3 H 0.105587 0.713129 0.615555
C5 C 0.2365(3) 0.54164(19) 0.66885(11)
H4 H 0.132497 0.544249 0.709192
C6 C 0.4057(3) 0.43951(19) 0.66428(10)
C7 C 0.4704(3) 0.3242(2) 0.71748(10)
H5 H 0.555(4) 0.365(2) 0.7608(12)
C8 C 0.2703(3) 0.2290(2) 0.74086(10)
H6 H 0.292604 0.195854 0.791617
H7 H 0.119221 0.278679 0.737539
C9 C 0.2791(3) 0.10769(19) 0.68766(10)
C10 C 0.6335(3) 0.23157(19) 0.67055(10)
H8 H 0.775(4) 0.196(2) 0.6950(11)
C11 C 0.5680(3) -0.0005(2) 0.60526(10)
H9 H 0.456138 -0.078056 0.606129
H10 H 0.718741 -0.032997 0.623844
H11 H 0.586601 0.033086 0.555024
C12 C 0.8912(3) 0.2888(2) 0.56084(10)
H12 H 0.830715 0.274170 0.511382
H13 H 0.972508 0.204143 0.577191
H14 H 0.999884 0.368035 0.560722
N1 N 0.7006(3) 0.31843(18) 0.60970(10)
N2 N 0.4830(3) 0.11280(16) 0.65082(8)
O1 O 0.1299(2) 0.01636(14) 0.68048(8)
loop_
_geom_bond_atom_site_label_1
_geom_bond_atom_site_label_2
_geom_bond_site_symmetry_1
_geom_bond_site_symmetry_2
C1 C2 1_555 1_555
C2 H1 1_555 1_555
C3 C2 1_555 1_555
H2 C3 1_555 1_555
C4 C3 1_555 1_555
H3 C4 1_555 1_555
C5 C4 1_555 1_555
H4 C5 1_555 1_555
C6 C1 1_555 1_555
C7 C6 1_555 1_555
H5 C7 1_555 1_555
C8 C7 1_555 1_555
H6 C8 1_555 1_555
H7 C8 1_555 1_555
C9 C8 1_555 1_555
C10 C7 1_555 1_555
H8 C10 1_555 1_555
C11 H9 1_555 1_555
H10 C11 1_555 1_555
H11 C11 1_555 1_555
C12 H12 1_555 1_555
H13 C12 1_555 1_555
H14 C12 1_555 1_555
N1 C1 1_555 1_555
N2 C9 1_555 1_555
O1 C9 1_555 1_555
C5 C6 1_555 1_555
C10 N1 1_555 1_555
C10 N2 1_555 1_555
C11 N2 1_555 1_555
C12 N1 1_555 1_555

#END
