
#######################################################################
#
#                 Cambridge Crystallographic Data Centre
#                                CCDC 
#
#######################################################################
#
# If this CIF has been generated from an entry in the Cambridge 
# Structural Database, then it will include bibliographic, chemical, 
# crystal, experimental, refinement or atomic coordinate data resulting 
# from the CCDC's data processing and validation procedures.
#
#######################################################################

data_HEXHUO
_chemical_formula_moiety         'C35 H30 N6 O2'
_chemical_name_systematic        
5,12-bis(4-methoxyphenyl)-3,10-diphenyl-1,3,4,8,10,11-hexa-azatetracyclo(6.6.1.0^2,6^,0^9,13^)pentadeca-2(6),4,9(13),11-tetraene
_symmetry_cell_setting           triclinic
_symmetry_space_group_name_H-M   'P -1'
_symmetry_Int_Tables_number      2
_space_group_name_Hall           '-P 1'
loop_
_symmetry_equiv_pos_site_id
_symmetry_equiv_pos_as_xyz
1 x,y,z
2 -x,-y,-z
_cell_length_a                   9.79(2)
_cell_length_b                   12.21(3)
_cell_length_c                   13.47(3)
_cell_angle_alpha                86.71(4)
_cell_angle_beta                 84.35(4)
_cell_angle_gamma                67.39(4)
_cell_volume                     1478.84
_exptl_crystal_colour            colorless
_exptl_crystal_description       block
_chemical_melting_point          '280-281 deg.C'
_cell_formula_units_Z            2
_exptl_crystal_recrystallization_method ethanol
loop_
_atom_site_label
_atom_site_type_symbol
_atom_site_fract_x
_atom_site_fract_y
_atom_site_fract_z
N1 N 0.0060(3) 0.4805(2) 0.2946(2)
N2 N -0.2108(3) 0.6643(3) 0.2622(2)
N3 N 0.1649(3) 0.5115(3) 0.4134(2)
N4 N 0.1596(3) 0.5982(3) 0.4775(2)
N5 N -0.1588(4) 0.7739(3) 0.1088(2)
N6 N -0.0494(4) 0.7556(3) 0.0297(2)
O1 O -0.1300(3) 1.0798(2) 0.7241(2)
O2 O 0.5769(3) 0.4714(2) -0.2206(2)
C1 C -0.1565(4) 0.5348(3) 0.2887(2)
H1 H -0.2054 0.5240 0.3525
H2 H -0.1836 0.4941 0.2391
C2 C -0.1957(4) 0.7312(3) 0.3483(2)
H3 H -0.2766 0.7411 0.3991
H4 H -0.2008 0.8094 0.3254
C3 C 0.0840(4) 0.4763(3) 0.1920(2)
H5 H 0.0797 0.4117 0.1555
H6 H 0.1876 0.4619 0.1975
C4 C 0.0291(4) 0.6891(3) 0.4665(3)
C5 C -0.0485(4) 0.6639(3) 0.3922(2)
C6 C 0.0397(4) 0.5511(3) 0.3621(2)
C7 C 0.2925(4) 0.4018(3) 0.4113(3)
C8 C 0.2922(4) 0.3005(3) 0.3691(2)
H7 H 0.2094 0.3022 0.3396
C9 C 0.4187(5) 0.1962(3) 0.3721(3)
H8 H 0.4184 0.1275 0.3459
C10 C 0.5444(5) 0.1925(4) 0.4128(3)
H9 H 0.6294 0.1233 0.4115
C11 C 0.5412(5) 0.2950(4) 0.4564(3)
H10 H 0.6238 0.2934 0.4860
C12 C 0.4159(4) 0.3986(3) 0.4554(3)
H11 H 0.4145 0.4664 0.4845
C13 C -0.0118(4) 0.7924(3) 0.5322(3)
C14 C -0.1269(4) 0.9005(3) 0.5171(3)
H12 H -0.1810 0.9105 0.4620
C15 C -0.1641(5) 0.9946(3) 0.5817(3)
H13 H -0.2414 1.0662 0.5691
C16 C -0.0857(5) 0.9812(3) 0.6645(3)
C17 C 0.0289(4) 0.8743(3) 0.6820(3)
H14 H 0.0823 0.8647 0.7374
C18 C 0.0649(4) 0.7808(3) 0.6171(3)
H15 H 0.1415 0.7091 0.6304
C19 C -0.0443(5) 1.0708(4) 0.8059(3)
H16 H -0.0547 1.0119 0.8529
H17 H -0.0787 1.1461 0.8378
H18 H 0.0582 1.0485 0.7821
C20 C 0.0516(4) 0.6460(3) 0.0458(3)
C21 C 0.0109(4) 0.5932(3) 0.1356(3)
C22 C -0.1223(4) 0.6754(3) 0.1736(3)
C23 C -0.2850(5) 0.8830(4) 0.1139(3)
C24 C -0.4201(5) 0.8906(4) 0.1648(3)
H19 H -0.4276 0.8243 0.1986
C25 C -0.5427(5) 0.9968(4) 0.1648(3)
H20 H -0.6325 1.0010 0.1978
C26 C -0.5320(6) 1.0973(4) 0.1157(3)
H21 H -0.6139 1.1686 0.1163
C27 C -0.3972(6) 1.0894(4) 0.0657(3)
H22 H -0.3895 1.1562 0.0330
C28 C -0.2746(5) 0.9838(4) 0.0640(3)
H23 H -0.1856 0.9796 0.0298
C29 C 0.1887(4) 0.5975(3) -0.0234(3)
C30 C 0.2380(5) 0.6731(3) -0.0887(3)
H24 H 0.1832 0.7544 -0.0885
C31 C 0.3672(5) 0.6278(4) -0.1529(3)
H25 H 0.3968 0.6793 -0.1948
C32 C 0.4512(5) 0.5072(4) -0.1549(3)
C33 C 0.4047(4) 0.4305(3) -0.0910(3)
H26 H 0.4602 0.3493 -0.0911
C34 C 0.2744(5) 0.4767(3) -0.0271(3)
H27 H 0.2445 0.4248 0.0140
C35 C 0.6541(5) 0.3474(4) -0.2361(3)
H28 H 0.6900 0.3086 -0.1745
H29 H 0.7363 0.3350 -0.2852
H30 H 0.5879 0.3151 -0.2591
loop_
_geom_bond_atom_site_label_1
_geom_bond_atom_site_label_2
_geom_bond_site_symmetry_1
_geom_bond_site_symmetry_2
N1 C1 1_555 1_555
N2 C1 1_555 1_555
N3 N4 1_555 1_555
N4 C4 1_555 1_555
N5 N6 1_555 1_555
N6 C20 1_555 1_555
O1 C16 1_555 1_555
O2 C32 1_555 1_555
C1 H1 1_555 1_555
H2 C1 1_555 1_555
C2 N2 1_555 1_555
H3 C2 1_555 1_555
H4 C2 1_555 1_555
C3 N1 1_555 1_555
H5 C3 1_555 1_555
H6 C3 1_555 1_555
C4 C5 1_555 1_555
C5 C2 1_555 1_555
C6 N1 1_555 1_555
C7 N3 1_555 1_555
C8 C7 1_555 1_555
H7 C8 1_555 1_555
C9 C8 1_555 1_555
H8 C9 1_555 1_555
C10 C9 1_555 1_555
H9 C10 1_555 1_555
C11 C10 1_555 1_555
H10 C11 1_555 1_555
C12 C7 1_555 1_555
H11 C12 1_555 1_555
C13 C4 1_555 1_555
C14 C13 1_555 1_555
H12 C14 1_555 1_555
C15 C14 1_555 1_555
H13 C15 1_555 1_555
C16 C15 1_555 1_555
C17 C16 1_555 1_555
H14 C17 1_555 1_555
C18 C13 1_555 1_555
H15 C18 1_555 1_555
C19 O1 1_555 1_555
H16 C19 1_555 1_555
H17 C19 1_555 1_555
H18 C19 1_555 1_555
C20 C21 1_555 1_555
C21 C3 1_555 1_555
C22 N2 1_555 1_555
C23 N5 1_555 1_555
C24 C23 1_555 1_555
H19 C24 1_555 1_555
C25 C24 1_555 1_555
H20 C25 1_555 1_555
C26 C25 1_555 1_555
H21 C26 1_555 1_555
C27 C26 1_555 1_555
H22 C27 1_555 1_555
C28 C23 1_555 1_555
H23 C28 1_555 1_555
C29 C20 1_555 1_555
C30 C29 1_555 1_555
H24 C30 1_555 1_555
C31 C30 1_555 1_555
H25 C31 1_555 1_555
C32 C31 1_555 1_555
C33 C32 1_555 1_555
H26 C33 1_555 1_555
C34 C29 1_555 1_555
H27 C34 1_555 1_555
C35 O2 1_555 1_555
H28 C35 1_555 1_555
H29 C35 1_555 1_555
H30 C35 1_555 1_555
N3 C6 1_555 1_555
N5 C22 1_555 1_555
C5 C6 1_555 1_555
C11 C12 1_555 1_555
C17 C18 1_555 1_555
C21 C22 1_555 1_555
C27 C28 1_555 1_555
C33 C34 1_555 1_555

#END
