
#######################################################################
#
#                 Cambridge Crystallographic Data Centre
#                                CCDC 
#
#######################################################################
#
# If this CIF has been generated from an entry in the Cambridge 
# Structural Database, then it will include bibliographic, chemical, 
# crystal, experimental, refinement or atomic coordinate data resulting 
# from the CCDC's data processing and validation procedures.
#
#######################################################################

data_HEXQAD
_chemical_formula_moiety         'C10 H11 N1 O5'
_chemical_name_systematic        
(3R,4S)-syn-3,4-dihydroxy-4-(4-nitrophenyl)butan-2-one
_symmetry_cell_setting           orthorhombic
_symmetry_space_group_name_H-M   'P 21 21 21'
_symmetry_Int_Tables_number      19
_space_group_name_Hall           'P 2ac 2ab'
loop_
_symmetry_equiv_pos_site_id
_symmetry_equiv_pos_as_xyz
1 x,y,z
2 1/2-x,-y,1/2+z
3 -x,1/2+y,1/2-z
4 1/2+x,1/2-y,-z
_cell_length_a                   4.7314(9)
_cell_length_b                   9.4083(19)
_cell_length_c                   23.648(5)
_cell_angle_alpha                90
_cell_angle_beta                 90
_cell_angle_gamma                90
_cell_volume                     1052.68
_cell_formula_units_Z            4
loop_
_atom_site_label
_atom_site_type_symbol
_atom_site_fract_x
_atom_site_fract_y
_atom_site_fract_z
O1 O 1.0620(3) 0.62778(17) -0.03198(6)
O2 O 0.5404(3) 0.37643(13) 0.00360(5)
H1 H 0.3898 0.3766 0.0208
O3 O 1.0473(3) 0.37710(14) 0.06349(5)
H2 H 0.9657 0.3112 0.0478
O4 O 0.0047(5) 0.5903(2) 0.27386(8)
O5 O 0.1509(5) 0.3808(2) 0.29394(8)
N1 N 0.1470(5) 0.4855(2) 0.26375(7)
C1 C 0.7904(7) 0.4832(3) -0.09367(10)
H3 H 0.9064 0.5246 -0.1226
H4 H 0.5953 0.5029 -0.1015
H5 H 0.8197 0.3823 -0.0928
C2 C 0.8678(4) 0.5452(2) -0.03786(8)
C3 C 0.6844(4) 0.50715(18) 0.01335(7)
H6 H 0.5433 0.5823 0.0186
C4 C 0.8617(4) 0.49635(18) 0.06730(7)
H7 H 0.9785 0.5821 0.0698
C5 C 0.6773(4) 0.49064(19) 0.11984(7)
C6 C 0.6544(4) 0.3685(2) 0.15260(8)
H8 H 0.7578 0.2880 0.1430
C7 C 0.4788(5) 0.3660(2) 0.19928(8)
H9 H 0.4622 0.2840 0.2210
C8 C 0.3288(4) 0.4862(2) 0.21325(8)
C9 C 0.3465(4) 0.6099(2) 0.18166(8)
H10 H 0.2424 0.6901 0.1914
C10 C 0.5239(5) 0.6104(2) 0.13516(7)
H11 H 0.5408 0.6928 0.1137
loop_
_geom_bond_atom_site_label_1
_geom_bond_atom_site_label_2
_geom_bond_site_symmetry_1
_geom_bond_site_symmetry_2
O1 C2 1_555 1_555
O2 H1 1_555 1_555
O3 H2 1_555 1_555
O4 N1 1_555 1_555
O5 N1 1_555 1_555
N1 C8 1_555 1_555
C1 H3 1_555 1_555
H4 C1 1_555 1_555
H5 C1 1_555 1_555
C2 C1 1_555 1_555
C3 O2 1_555 1_555
H6 C3 1_555 1_555
C4 O3 1_555 1_555
H7 C4 1_555 1_555
C5 C4 1_555 1_555
C6 C5 1_555 1_555
H8 C6 1_555 1_555
C7 C6 1_555 1_555
H9 C7 1_555 1_555
C8 C7 1_555 1_555
C9 C8 1_555 1_555
H10 C9 1_555 1_555
C10 C5 1_555 1_555
H11 C10 1_555 1_555
C2 C3 1_555 1_555
C3 C4 1_555 1_555
C9 C10 1_555 1_555

#END
