
#######################################################################
#
#                 Cambridge Crystallographic Data Centre
#                                CCDC 
#
#######################################################################
#
# If this CIF has been generated from an entry in the Cambridge 
# Structural Database, then it will include bibliographic, chemical, 
# crystal, experimental, refinement or atomic coordinate data resulting 
# from the CCDC's data processing and validation procedures.
#
#######################################################################

data_HEXVOW
_chemical_formula_moiety         'C30 H44 S4'
_chemical_name_systematic        
3,7-Didecanylthieno(3,2-b)thieno(2',3':4,5)thieno(2,3-d)thiophene
_symmetry_cell_setting           triclinic
_symmetry_space_group_name_H-M   'P -1'
_symmetry_Int_Tables_number      2
_space_group_name_Hall           '-P 1'
loop_
_symmetry_equiv_pos_site_id
_symmetry_equiv_pos_as_xyz
1 x,y,z
2 -x,-y,-z
_cell_length_a                   8.2512(7)
_cell_length_b                   9.1811(9)
_cell_length_c                   10.7071(10)
_cell_angle_alpha                111.582(5)
_cell_angle_beta                 92.748(5)
_cell_angle_gamma                107.574(5)
_cell_volume                     707.388
_exptl_crystal_colour            colorless
_exptl_crystal_description       block
_chemical_melting_point          '112 deg.C'
_cell_formula_units_Z            1
_exptl_crystal_recrystallization_method toluene
loop_
_atom_site_label
_atom_site_type_symbol
_atom_site_fract_x
_atom_site_fract_y
_atom_site_fract_z
S1 S -0.36704(3) 0.18866(3) -0.00969(3)
S2 S 0.13186(3) 0.41006(3) 0.11063(2)
C1 C -0.52489(13) 0.21519(14) -0.10318(11)
H1 H -0.6363(17) 0.1432(16) -0.1200(13)
C2 C -0.21114(12) 0.35151(13) -0.02383(10)
C3 C -0.02985(12) 0.43441(12) 0.02015(10)
C4 C -0.28292(12) 0.42134(13) -0.09623(10)
C5 C -0.46502(12) 0.34327(13) -0.14337(10)
C6 C -0.56688(13) 0.39910(14) -0.22460(11)
H2 H -0.5111(16) 0.3983(15) -0.3031(12)
H3 H -0.5522(16) 0.5178(16) -0.1685(13)
C7 C -0.75731(13) 0.29537(14) -0.27017(11)
H4 H -0.7666(15) 0.1793(16) -0.3270(12)
H5 H -0.8099(16) 0.2996(15) -0.1901(13)
C8 C -0.85583(13) 0.35543(14) -0.35279(12)
H6 H -0.8448(16) 0.4678(17) -0.2982(13)
H7 H -0.8027(17) 0.3557(16) -0.4290(13)
C9 C -1.04578(13) 0.24818(14) -0.39809(12)
H8 H -1.0562(16) 0.1322(16) -0.4545(13)
H9 H -1.0999(16) 0.2515(16) -0.3221(13)
C10 C -1.15058(13) 0.30132(14) -0.48283(11)
H10 H -1.0967(17) 0.3000(16) -0.5622(14)
H11 H -1.1454(16) 0.4147(17) -0.4279(13)
C11 C -1.33945(14) 0.19044(15) -0.52580(12)
H12 H -1.3890(17) 0.1918(16) -0.4462(14)
H13 H -1.3483(17) 0.0740(17) -0.5804(14)
C12 C -1.44876(14) 0.24227(15) -0.60828(12)
H14 H -1.3980(18) 0.2404(17) -0.6882(15)
H15 H -1.4402(18) 0.3652(18) -0.5523(14)
C13 C -1.63716(13) 0.13073(15) -0.64998(12)
H16 H -1.6838(18) 0.1374(17) -0.5689(14)
H17 H -1.6434(17) 0.0127(17) -0.7047(13)
C14 C -1.74503(14) 0.17884(16) -0.73689(12)
H18 H -1.6896(17) 0.1761(16) -0.8152(14)
H19 H -1.7379(16) 0.2959(16) -0.6825(12)
C15 C -1.93152(16) 0.06317(18) -0.78295(15)
H20 H -1.937(2) -0.047(2) -0.8402(16)
H21 H -1.989(2) 0.0636(19) -0.7128(17)
H22 H -2.005(2) 0.090(2) -0.8437(17)
S1A S 0.36704(3) 0.81134(3) 0.00969(3)
S2A S -0.13186(3) 0.58994(3) -0.11063(2)
C1A C 0.52489(13) 0.78481(14) 0.10318(11)
H1A H 0.6363(17) 0.8568(16) 0.1200(13)
C2A C 0.21114(12) 0.64849(13) 0.02383(10)
C3A C 0.02985(12) 0.56559(12) -0.02015(10)
C4A C 0.28292(12) 0.57866(13) 0.09623(10)
C5A C 0.46502(12) 0.65673(13) 0.14337(10)
C6A C 0.56688(13) 0.60090(14) 0.22460(11)
H2A H 0.5111(16) 0.6017(15) 0.3031(12)
H3A H 0.5522(16) 0.4822(16) 0.1685(13)
C7A C 0.75731(13) 0.70463(14) 0.27017(11)
H4A H 0.7666(15) 0.8207(16) 0.3270(12)
H5A H 0.8099(16) 0.7004(15) 0.1901(13)
C8A C 0.85583(13) 0.64457(14) 0.35279(12)
H6A H 0.8448(16) 0.5322(17) 0.2982(13)
H7A H 0.8027(17) 0.6443(16) 0.4290(13)
C9A C 1.04578(13) 0.75182(14) 0.39809(12)
H8A H 1.0562(16) 0.8678(16) 0.4545(13)
H9A H 1.0999(16) 0.7485(16) 0.3221(13)
C10A C 1.15058(13) 0.69868(14) 0.48283(11)
H10A H 1.0967(17) 0.7000(16) 0.5622(14)
H11A H 1.1454(16) 0.5853(17) 0.4279(13)
C11A C 1.33945(14) 0.80956(15) 0.52580(12)
H12A H 1.3890(17) 0.8082(16) 0.4462(14)
H13A H 1.3483(17) 0.9260(17) 0.5804(14)
C12A C 1.44876(14) 0.75773(15) 0.60828(12)
H14A H 1.3980(18) 0.7596(17) 0.6882(15)
H15A H 1.4402(18) 0.6348(18) 0.5523(14)
C13A C 1.63716(13) 0.86927(15) 0.64998(12)
H16A H 1.6838(18) 0.8626(17) 0.5689(14)
H17A H 1.6434(17) 0.9873(17) 0.7047(13)
C14A C 1.74503(14) 0.82116(16) 0.73689(12)
H18A H 1.6896(17) 0.8239(16) 0.8152(14)
H19A H 1.7379(16) 0.7041(16) 0.6825(12)
C15A C 1.93152(16) 0.93683(18) 0.78295(15)
H20A H 1.937(2) 1.047(2) 0.8402(16)
H21A H 1.989(2) 0.9364(19) 0.7128(17)
H22A H 2.005(2) 0.910(2) 0.8437(17)
loop_
_geom_bond_atom_site_label_1
_geom_bond_atom_site_label_2
_geom_bond_site_symmetry_1
_geom_bond_site_symmetry_2
S1 C1 1_555 1_555
S2 C3 1_555 1_555
C1 H1 1_555 1_555
C2 S1 1_555 1_555
C3 C2 1_555 1_555
C4 C2 1_555 1_555
C5 C1 1_555 1_555
C6 C5 1_555 1_555
H2 C6 1_555 1_555
H3 C6 1_555 1_555
C7 C6 1_555 1_555
H4 C7 1_555 1_555
H5 C7 1_555 1_555
C8 C7 1_555 1_555
H6 C8 1_555 1_555
H7 C8 1_555 1_555
C9 C8 1_555 1_555
H8 C9 1_555 1_555
H9 C9 1_555 1_555
C10 C9 1_555 1_555
H10 C10 1_555 1_555
H11 C10 1_555 1_555
C11 C10 1_555 1_555
H12 C11 1_555 1_555
H13 C11 1_555 1_555
C12 C11 1_555 1_555
H14 C12 1_555 1_555
H15 C12 1_555 1_555
C13 C12 1_555 1_555
H16 C13 1_555 1_555
H17 C13 1_555 1_555
C14 C13 1_555 1_555
H18 C14 1_555 1_555
H19 C14 1_555 1_555
C15 C14 1_555 1_555
H20 C15 1_555 1_555
H21 C15 1_555 1_555
H22 C15 1_555 1_555
S1A C1A 1_555 1_555
S2A C4 1_555 1_555
C1A H1A 1_555 1_555
C2A S1A 1_555 1_555
C3A C3 1_555 1_555
C4A S2 1_555 1_555
C5A C1A 1_555 1_555
C6A C5A 1_555 1_555
H2A C6A 1_555 1_555
H3A C6A 1_555 1_555
C7A C6A 1_555 1_555
H4A C7A 1_555 1_555
H5A C7A 1_555 1_555
C8A C7A 1_555 1_555
H6A C8A 1_555 1_555
H7A C8A 1_555 1_555
C9A C8A 1_555 1_555
H8A C9A 1_555 1_555
H9A C9A 1_555 1_555
C10A C9A 1_555 1_555
H10A C10A 1_555 1_555
H11A C10A 1_555 1_555
C11A C10A 1_555 1_555
H12A C11A 1_555 1_555
H13A C11A 1_555 1_555
C12A C11A 1_555 1_555
H14A C12A 1_555 1_555
H15A C12A 1_555 1_555
C13A C12A 1_555 1_555
H16A C13A 1_555 1_555
H17A C13A 1_555 1_555
C14A C13A 1_555 1_555
H18A C14A 1_555 1_555
H19A C14A 1_555 1_555
C15A C14A 1_555 1_555
H20A C15A 1_555 1_555
H21A C15A 1_555 1_555
H22A C15A 1_555 1_555
C4 C5 1_555 1_555
S2A C3A 1_555 1_555
C2A C3A 1_555 1_555
C2A C4A 1_555 1_555
C4A C5A 1_555 1_555

#END
