
#######################################################################
#
#                 Cambridge Crystallographic Data Centre
#                                CCDC 
#
#######################################################################
#
# If this CIF has been generated from an entry in the Cambridge 
# Structural Database, then it will include bibliographic, chemical, 
# crystal, experimental, refinement or atomic coordinate data resulting 
# from the CCDC's data processing and validation procedures.
#
#######################################################################

data_HEXWUC
_chemical_formula_moiety         'C24 H39 N2 Na3 O18'
_chemical_name_systematic        
'bis(\m~2~-Triethanolamine-triacetic acid)-tri-sodium'
_symmetry_cell_setting           rhombohedral
_symmetry_space_group_name_H-M   'R -3 c'
_symmetry_Int_Tables_number      167
_space_group_name_Hall           '-R 3 2"c'
loop_
_symmetry_equiv_pos_site_id
_symmetry_equiv_pos_as_xyz
1 x,y,z
2 -y,x-y,z
3 y,x,1/2-z
4 -x+y,-x,z
5 -x,-x+y,1/2-z
6 x-y,-y,1/2-z
7 1/3+x,2/3+y,2/3+z
8 1/3-y,2/3+x-y,2/3+z
9 1/3+y,2/3+x,1/6-z
10 1/3-x+y,2/3-x,2/3+z
11 1/3-x,2/3-x+y,1/6-z
12 1/3+x-y,2/3-y,1/6-z
13 2/3+x,1/3+y,1/3+z
14 2/3-y,1/3+x-y,1/3+z
15 2/3+y,1/3+x,5/6-z
16 2/3-x+y,1/3-x,1/3+z
17 2/3-x,1/3-x+y,5/6-z
18 2/3+x-y,1/3-y,5/6-z
19 -x,-y,-z
20 y,-x+y,-z
21 -y,-x,1/2+z
22 x-y,x,-z
23 x,x-y,1/2+z
24 -x+y,y,1/2+z
25 2/3-x,1/3-y,1/3-z
26 2/3+y,1/3-x+y,1/3-z
27 2/3-y,1/3-x,5/6+z
28 2/3+x-y,1/3+x,1/3-z
29 2/3+x,1/3+x-y,5/6+z
30 2/3-x+y,1/3+y,5/6+z
31 1/3-x,2/3-y,2/3-z
32 1/3+y,2/3-x+y,2/3-z
33 1/3-y,2/3-x,1/6+z
34 1/3+x-y,2/3+x,2/3-z
35 1/3+x,2/3+x-y,1/6+z
36 1/3-x+y,2/3+y,1/6+z
_cell_length_a                   12.198(1)
_cell_length_b                   12.198(1)
_cell_length_c                   40.926(5)
_cell_angle_alpha                90
_cell_angle_beta                 90
_cell_angle_gamma                120
_cell_volume                     5273.6
_exptl_crystal_colour            colorless
_chemical_melting_point          'above 300 deg.C'
_cell_formula_units_Z            6
loop_
_atom_site_label
_atom_site_type_symbol
_atom_site_fract_x
_atom_site_fract_y
_atom_site_fract_z
Na1 Na 0.0000 0.0000 0.2500
Na2 Na 0.0000 0.0000 0.16798(7)
O1 O 0.1908(4) 0.1691(3) 0.14556(8)
O2 O 0.1584(3) 0.1261(4) 0.20898(8)
O3 O 0.3053(4) 0.3241(4) 0.22082(9)
N1 N 0.0000 0.0000 0.1034(2)
C1 C 0.1316(6) 0.0851(7) 0.0924(1)
C2 C 0.1991(6) 0.2038(6) 0.1122(1)
C3 C 0.2630(5) 0.2735(5) 0.1662(1)
C4 C 0.2368(6) 0.2345(7) 0.2012(1)
H1 H 0.1773(6) 0.0376(7) 0.0966(1)
H2 H 0.1336(6) 0.1027(7) 0.0684(1)
H3 H 0.2895(6) 0.2524(6) 0.1050(1)
H4 H 0.1579(6) 0.2561(6) 0.1085(1)
H5 H 0.3552(5) 0.3070(5) 0.1621(1)
H6 H 0.2414(5) 0.3407(5) 0.1610(1)
O2A O -0.1261(4) 0.0323(5) 0.20898(8)
O2B O 0.1261(4) 0.1584(3) 0.29102(8)
O2C O -0.0323(5) -0.1584(3) 0.20898(8)
O2D O -0.1584(3) -0.0323(5) 0.29102(8)
O2E O 0.0323(5) -0.1261(4) 0.29102(8)
O1A O -0.1691(3) 0.0217(5) 0.14556(8)
O1C O -0.0217(5) -0.1908(4) 0.14556(8)
C1A C -0.0851(7) 0.0465(9) 0.0924(1)
C1C C -0.0465(9) -0.1316(6) 0.0924(1)
C4A C -0.2345(7) 0.0023(9) 0.2012(1)
Na2B Na 0.0000 0.0000 0.33202(7)
C4B C 0.2345(7) 0.2368(6) 0.2988(1)
C4C C -0.0023(9) -0.2368(6) 0.2012(1)
C4D C -0.2368(6) -0.0023(9) 0.2988(1)
C4E C 0.0023(9) -0.2345(7) 0.2988(1)
C2A C -0.2038(6) -0.0047(8) 0.1122(1)
C3A C -0.2735(5) -0.0105(7) 0.1662(1)
C2C C 0.0047(8) -0.1991(6) 0.1122(1)
C3C C 0.0105(7) -0.2630(5) 0.1662(1)
H1A H -0.0376(7) 0.1397(9) 0.0966(1)
H2A H -0.1027(7) 0.0309(9) 0.0684(1)
H1C H -0.1397(9) -0.1773(6) 0.0966(1)
H2C H -0.0309(9) -0.1336(6) 0.0684(1)
O3A O -0.3241(4) -0.0188(6) 0.22082(9)
O1B O 0.1691(3) 0.1908(4) 0.35444(8)
O1D O -0.1908(4) -0.0217(5) 0.35444(8)
O1E O 0.0217(5) -0.1691(3) 0.35444(8)
N1B N 0.0000 0.0000 0.3966(2)
O3B O 0.3241(4) 0.3053(4) 0.27918(9)
C3B C 0.2735(5) 0.2630(5) 0.3338(1)
O3C O 0.0188(6) -0.3053(4) 0.22082(9)
O3D O -0.3053(4) 0.0188(6) 0.27918(9)
C3D C -0.2630(5) 0.0105(7) 0.3338(1)
O3E O -0.0188(6) -0.3241(4) 0.27918(9)
C3E C -0.0105(7) -0.2735(5) 0.3338(1)
H3A H -0.2524(6) 0.0371(8) 0.1050(1)
H4A H -0.2561(6) -0.0982(8) 0.1085(1)
H5A H -0.3070(5) 0.0482(7) 0.1621(1)
H6A H -0.3407(5) -0.0993(7) 0.1610(1)
H3C H -0.0371(8) -0.2895(6) 0.1050(1)
H4C H 0.0982(8) -0.1579(6) 0.1085(1)
H5C H -0.0482(7) -0.3552(5) 0.1621(1)
H6C H 0.0993(7) -0.2414(5) 0.1610(1)
C2B C 0.2038(6) 0.1991(6) 0.3878(1)
C2D C -0.1991(6) 0.0047(8) 0.3878(1)
C2E C -0.0047(8) -0.2038(6) 0.3878(1)
C1B C 0.0851(7) 0.1316(6) 0.4076(1)
C1D C -0.1316(6) -0.0465(9) 0.4076(1)
C1E C 0.0465(9) -0.0851(7) 0.4076(1)
H5B H 0.3070(5) 0.3552(5) 0.3379(1)
H6B H 0.3407(5) 0.2414(5) 0.3390(1)
H5D H -0.3552(5) -0.0482(7) 0.3379(1)
H6D H -0.2414(5) 0.0993(7) 0.3390(1)
H5E H 0.0482(7) -0.3070(5) 0.3379(1)
H6E H -0.0993(7) -0.3407(5) 0.3390(1)
H3B H 0.2524(6) 0.2895(6) 0.3950(1)
H4B H 0.2561(6) 0.1579(6) 0.3915(1)
H3D H -0.2895(6) -0.0371(8) 0.3950(1)
H4D H -0.1579(6) 0.0982(8) 0.3915(1)
H3E H 0.0371(8) -0.2524(6) 0.3950(1)
H4E H -0.0982(8) -0.2561(6) 0.3915(1)
H1B H 0.0376(7) 0.1773(6) 0.4034(1)
H2B H 0.1027(7) 0.1336(6) 0.4316(1)
H1D H -0.1773(6) -0.1397(9) 0.4034(1)
H2D H -0.1336(6) -0.0309(9) 0.4316(1)
H1E H 0.1397(9) -0.0376(7) 0.4034(1)
H2E H 0.0309(9) -0.1027(7) 0.4316(1)
H7? H 0.3021 0.3026 0.2500
loop_
_geom_bond_atom_site_label_1
_geom_bond_atom_site_label_2
_geom_bond_site_symmetry_1
_geom_bond_site_symmetry_2
Na1 O2 1_555 1_555
Na2 O1 1_555 1_555
O1 C2 1_555 1_555
O2 Na2 1_555 1_555
O3 C4 1_555 1_555
N1 Na2 1_555 1_555
C1 N1 1_555 1_555
C2 C1 1_555 1_555
C3 O1 1_555 1_555
C4 O2 1_555 1_555
H1 C1 1_555 1_555
H2 C1 1_555 1_555
H3 C2 1_555 1_555
H4 C2 1_555 1_555
H5 C3 1_555 1_555
H6 C3 1_555 1_555
O2A Na1 1_555 1_555
O2B Na1 1_555 1_555
O2C Na1 1_555 1_555
O2D Na1 1_555 1_555
O2E Na1 1_555 1_555
O1A Na2 1_555 1_555
O1C Na2 1_555 1_555
C1A N1 1_555 1_555
C1C N1 1_555 1_555
C4A O2A 1_555 1_555
Na2B O2B 1_555 1_555
C4B O2B 1_555 1_555
C4C O2C 1_555 1_555
C4D O2D 1_555 1_555
C4E O2E 1_555 1_555
C2A O1A 1_555 1_555
C3A O1A 1_555 1_555
C2C O1C 1_555 1_555
C3C O1C 1_555 1_555
H1A C1A 1_555 1_555
H2A C1A 1_555 1_555
H1C C1C 1_555 1_555
H2C C1C 1_555 1_555
O3A C4A 1_555 1_555
O1B Na2B 1_555 1_555
O1D Na2B 1_555 1_555
O1E Na2B 1_555 1_555
N1B Na2B 1_555 1_555
O3B C4B 1_555 1_555
C3B C4B 1_555 1_555
O3C C4C 1_555 1_555
O3D C4D 1_555 1_555
C3D C4D 1_555 1_555
O3E C4E 1_555 1_555
C3E C4E 1_555 1_555
H3A C2A 1_555 1_555
H4A C2A 1_555 1_555
H5A C3A 1_555 1_555
H6A C3A 1_555 1_555
H3C C2C 1_555 1_555
H4C C2C 1_555 1_555
H5C C3C 1_555 1_555
H6C C3C 1_555 1_555
C2B O1B 1_555 1_555
C2D O1D 1_555 1_555
C2E O1E 1_555 1_555
C1B N1B 1_555 1_555
C1D N1B 1_555 1_555
C1E N1B 1_555 1_555
H5B C3B 1_555 1_555
H6B C3B 1_555 1_555
H5D C3D 1_555 1_555
H6D C3D 1_555 1_555
H5E C3E 1_555 1_555
H6E C3E 1_555 1_555
H3B C2B 1_555 1_555
H4B C2B 1_555 1_555
H3D C2D 1_555 1_555
H4D C2D 1_555 1_555
H3E C2E 1_555 1_555
H4E C2E 1_555 1_555
H1B C1B 1_555 1_555
H2B C1B 1_555 1_555
H1D C1D 1_555 1_555
H2D C1D 1_555 1_555
H1E C1E 1_555 1_555
H2E C1E 1_555 1_555
Na2 O2A 1_555 1_555
Na2 O2C 1_555 1_555
C3 C4 1_555 1_555
O2D Na2B 1_555 1_555
O2E Na2B 1_555 1_555
C1A C2A 1_555 1_555
C1C C2C 1_555 1_555
C4A C3A 1_555 1_555
C4C C3C 1_555 1_555
O1B C3B 1_555 1_555
O1D C3D 1_555 1_555
O1E C3E 1_555 1_555
C2B C1B 1_555 1_555
C2D C1D 1_555 1_555
C2E C1E 1_555 1_555

#END
