
#######################################################################
#
#                 Cambridge Crystallographic Data Centre
#                                CCDC 
#
#######################################################################
#
# If this CIF has been generated from an entry in the Cambridge 
# Structural Database, then it will include bibliographic, chemical, 
# crystal, experimental, refinement or atomic coordinate data resulting 
# from the CCDC's data processing and validation procedures.
#
#######################################################################

data_HEXXEN
_chemical_formula_moiety         'C24 H39 N2 Na3 O18,2(H2 O1)'
_chemical_name_systematic        
"bis(\m~2~-Triethanolamine-O,O',O''-triacetic acid)-tri-sodium dihydrate"
_symmetry_cell_setting           monoclinic
_symmetry_space_group_name_H-M   'C 2/c'
_symmetry_Int_Tables_number      15
_space_group_name_Hall           '-C 2yn'
loop_
_symmetry_equiv_pos_site_id
_symmetry_equiv_pos_as_xyz
1 x,y,z
2 -x,y,1/2-z
3 1/2+x,1/2+y,z
4 1/2-x,1/2+y,1/2-z
5 -x,-y,-z
6 x,-y,1/2+z
7 1/2-x,1/2-y,-z
8 1/2+x,1/2-y,1/2+z
_cell_length_a                   25.045(5)
_cell_length_b                   11.373(2)
_cell_length_c                   14.301(2)
_cell_angle_alpha                90
_cell_angle_beta                 122.38(1)
_cell_angle_gamma                90
_cell_volume                     3440.09
_cell_formula_units_Z            4
loop_
_atom_site_label
_atom_site_type_symbol
_atom_site_fract_x
_atom_site_fract_y
_atom_site_fract_z
Na1 Na 0.5000 0.2615(2) 0.2500
Na2 Na 0.41611(8) 0.2561(1) 0.3679(1)
O1 O 0.3090(1) 0.2008(3) 0.2378(2)
O2 O 0.3963(2) 0.1997(3) 0.1880(3)
O3 O 0.3276(1) 0.1387(3) 0.0165(3)
O4 O 0.4088(1) 0.4484(2) 0.4312(2)
O5 O 0.4678(2) 0.4107(3) 0.3266(3)
O6 O 0.4714(2) 0.6020(3) 0.2964(3)
O7 O 0.4601(1) 0.1327(3) 0.5300(2)
O8 O 0.5187(1) 0.1696(3) 0.4253(3)
O9 O 0.6137(1) 0.1336(3) 0.5775(2)
N1 N 0.3458(2) 0.2581(3) 0.4529(3)
C1 C 0.2795(2) 0.2602(5) 0.3626(4)
C2 C 0.2648(2) 0.1774(5) 0.2686(4)
C3 C 0.2939(2) 0.1408(5) 0.1398(4)
C4 C 0.3443(2) 0.1636(4) 0.1142(4)
C5 C 0.3626(2) 0.3623(4) 0.5236(4)
C6 C 0.3678(2) 0.4727(4) 0.4694(4)
C7 C 0.4210(2) 0.5489(4) 0.3873(4)
C8 C 0.4561(2) 0.5145(4) 0.3330(3)
C9 C 0.3616(2) 0.1498(4) 0.5183(4)
C10 C 0.4319(2) 0.1295(4) 0.5943(4)
C11 C 0.5268(2) 0.1234(4) 0.5954(4)
C12 C 0.5522(2) 0.1445(4) 0.5232(4)
H1 H 0.6314(1) 0.1379(3) 0.5316(2)
H2 H 0.2691(2) 0.3414(5) 0.3309(4)
H3 H 0.2527(2) 0.2403(5) 0.3928(4)
H4 H 0.2703(2) 0.0946(5) 0.2959(4)
H5 H 0.2205(2) 0.1888(5) 0.2043(4)
H6 H 0.2913(2) 0.0545(5) 0.1502(4)
H7 H 0.2522(2) 0.1693(5) 0.0767(4)
H8 H 0.4051(2) 0.3475(4) 0.5917(4)
H9 H 0.3308(2) 0.3743(4) 0.5448(4)
H10 H 0.3849(2) 0.5394(4) 0.5233(4)
H11 H 0.3247(2) 0.4933(4) 0.4054(4)
H12 H 0.4465(2) 0.6067(4) 0.4480(4)
H13 H 0.3799(2) 0.5856(4) 0.3303(4)
H14 H 0.3411(2) 0.1511(4) 0.5620(4)
H15 H 0.3444(2) 0.0824(4) 0.4650(4)
H16 H 0.4500(2) 0.1929(4) 0.6517(4)
H17 H 0.4396(2) 0.0512(4) 0.6313(4)
H18 H 0.5443(2) 0.1836(4) 0.6557(4)
H19 H 0.5394(2) 0.0431(4) 0.6287(4)
O2A O 0.6037(2) 0.1997(3) 0.3120(3)
O5A O 0.5322(2) 0.4107(3) 0.1734(3)
O8A O 0.4813(1) 0.1696(3) 0.0747(3)
Na2A Na 0.58389(8) 0.2561(1) 0.1321(1)
C4A C 0.6557(2) 0.1636(4) 0.3858(4)
C8A C 0.5439(2) 0.5145(4) 0.1670(3)
C12A C 0.4478(2) 0.1445(4) -0.0232(4)
O1A O 0.6910(1) 0.2008(3) 0.2622(2)
O4A O 0.5912(1) 0.4484(2) 0.0688(2)
O7A O 0.5399(1) 0.1327(3) -0.0300(2)
N1A N 0.6542(2) 0.2581(3) 0.0471(3)
O3A O 0.6724(1) 0.1387(3) 0.4835(3)
C3A C 0.7061(2) 0.1408(5) 0.3602(4)
O6A O 0.5286(2) 0.6020(3) 0.2036(3)
C7A C 0.5790(2) 0.5489(4) 0.1127(4)
O9A O 0.3863(1) 0.1336(3) -0.0775(2)
C11A C 0.4732(2) 0.1234(4) -0.0954(4)
C2A C 0.7352(2) 0.1774(5) 0.2314(4)
C6A C 0.6322(2) 0.4727(4) 0.0306(4)
C10A C 0.5681(2) 0.1295(4) -0.0943(4)
C1A C 0.7205(2) 0.2602(5) 0.1374(4)
C5A C 0.6374(2) 0.3623(4) -0.0236(4)
C9A C 0.6384(2) 0.1498(4) -0.0183(4)
H6A H 0.7087(2) 0.0545(5) 0.3498(4)
H7A H 0.7478(2) 0.1693(5) 0.4233(4)
H12A H 0.5535(2) 0.6067(4) 0.0520(4)
H13A H 0.6201(2) 0.5856(4) 0.1697(4)
H1A H 0.3686(1) 0.1379(3) -0.0316(2)
H18A H 0.4557(2) 0.1836(4) -0.1557(4)
H19A H 0.4606(2) 0.0431(4) -0.1287(4)
H4A H 0.7297(2) 0.0946(5) 0.2041(4)
H5A H 0.7795(2) 0.1888(5) 0.2957(4)
H10A H 0.6151(2) 0.5394(4) -0.0233(4)
H11A H 0.6753(2) 0.4933(4) 0.0946(4)
H16A H 0.5500(2) 0.1929(4) -0.1517(4)
H17A H 0.5604(2) 0.0512(4) -0.1313(4)
H2A H 0.7309(2) 0.3414(5) 0.1691(4)
H3A H 0.7473(2) 0.2403(5) 0.1072(4)
H8A H 0.5949(2) 0.3475(4) -0.0917(4)
H9A H 0.6692(2) 0.3743(4) -0.0448(4)
H14A H 0.6589(2) 0.1511(4) -0.0620(4)
H15A H 0.6556(2) 0.0824(4) 0.0350(4)
O10 O 0.2068(2) 0.0408(4) -0.1409(4)
H20 H 0.1950(2) 0.1035(4) -0.1953(4)
H21 H 0.2548(2) 0.0603(4) -0.0787(4)
H22? H 0.5000 0.5772 0.2500
loop_
_geom_bond_atom_site_label_1
_geom_bond_atom_site_label_2
_geom_bond_site_symmetry_1
_geom_bond_site_symmetry_2
Na1 O2 1_555 1_555
Na2 O1 1_555 1_555
O1 C2 1_555 1_555
O2 Na2 1_555 1_555
O3 C4 1_555 1_555
O4 Na2 1_555 1_555
O5 Na1 1_555 1_555
O6 C8 1_555 1_555
O7 Na2 1_555 1_555
O8 Na1 1_555 1_555
O9 C12 1_555 1_555
N1 Na2 1_555 1_555
C1 N1 1_555 1_555
C2 C1 1_555 1_555
C3 O1 1_555 1_555
C4 O2 1_555 1_555
C5 N1 1_555 1_555
C6 O4 1_555 1_555
C7 O4 1_555 1_555
C8 O5 1_555 1_555
C9 N1 1_555 1_555
C10 O7 1_555 1_555
C11 O7 1_555 1_555
C12 O8 1_555 1_555
H1 O9 1_555 1_555
H2 C1 1_555 1_555
H3 C1 1_555 1_555
H4 C2 1_555 1_555
H5 C2 1_555 1_555
H6 C3 1_555 1_555
H7 C3 1_555 1_555
H8 C5 1_555 1_555
H9 C5 1_555 1_555
H10 C6 1_555 1_555
H11 C6 1_555 1_555
H12 C7 1_555 1_555
H13 C7 1_555 1_555
H14 C9 1_555 1_555
H15 C9 1_555 1_555
H16 C10 1_555 1_555
H17 C10 1_555 1_555
H18 C11 1_555 1_555
H19 C11 1_555 1_555
O10 H20 1_555 1_555
H21 O10 1_555 1_555
O2A Na1 1_555 1_555
O5A Na1 1_555 1_555
O8A Na1 1_555 1_555
Na2A O2A 1_555 1_555
C4A O2A 1_555 1_555
C8A O5A 1_555 1_555
C12A O8A 1_555 1_555
O1A Na2A 1_555 1_555
O4A Na2A 1_555 1_555
O7A Na2A 1_555 1_555
N1A Na2A 1_555 1_555
O3A C4A 1_555 1_555
C3A C4A 1_555 1_555
O6A C8A 1_555 1_555
C7A C8A 1_555 1_555
O9A C12A 1_555 1_555
C11A C12A 1_555 1_555
C2A O1A 1_555 1_555
C6A O4A 1_555 1_555
C10A O7A 1_555 1_555
C1A N1A 1_555 1_555
C5A N1A 1_555 1_555
C9A N1A 1_555 1_555
H6A C3A 1_555 1_555
H7A C3A 1_555 1_555
H12A C7A 1_555 1_555
H13A C7A 1_555 1_555
H1A O9A 1_555 1_555
H18A C11A 1_555 1_555
H19A C11A 1_555 1_555
H4A C2A 1_555 1_555
H5A C2A 1_555 1_555
H10A C6A 1_555 1_555
H11A C6A 1_555 1_555
H16A C10A 1_555 1_555
H17A C10A 1_555 1_555
H2A C1A 1_555 1_555
H3A C1A 1_555 1_555
H8A C5A 1_555 1_555
H9A C5A 1_555 1_555
H14A C9A 1_555 1_555
H15A C9A 1_555 1_555
Na2 O5 1_555 1_555
Na2 O8 1_555 1_555
C3 C4 1_555 1_555
C5 C6 1_555 1_555
C7 C8 1_555 1_555
C9 C10 1_555 1_555
C11 C12 1_555 1_555
O5A Na2A 1_555 1_555
O8A Na2A 1_555 1_555
O1A C3A 1_555 1_555
O4A C7A 1_555 1_555
O7A C11A 1_555 1_555
C2A C1A 1_555 1_555
C6A C5A 1_555 1_555
C10A C9A 1_555 1_555

#END
