
#######################################################################
#
#                 Cambridge Crystallographic Data Centre
#                                CCDC 
#
#######################################################################
#
# If this CIF has been generated from an entry in the Cambridge 
# Structural Database, then it will include bibliographic, chemical, 
# crystal, experimental, refinement or atomic coordinate data resulting 
# from the CCDC's data processing and validation procedures.
#
#######################################################################

data_HEXYOB
_chemical_formula_moiety         'C24 H17 Cl2 N1 O2'
_chemical_name_systematic        
1-benzyl-3-[1-(3,4-dichlorophenyl)propadienyl]-3-hydroxy-1,3-dihydro-2H-indol-2-one
_symmetry_cell_setting           orthorhombic
_symmetry_space_group_name_H-M   'P 21 21 21'
_symmetry_Int_Tables_number      19
_space_group_name_Hall           'P 2ac 2ab'
loop_
_symmetry_equiv_pos_site_id
_symmetry_equiv_pos_as_xyz
1 x,y,z
2 1/2-x,-y,1/2+z
3 -x,1/2+y,1/2-z
4 1/2+x,1/2-y,-z
_cell_length_a                   8.3054(2)
_cell_length_b                   15.2117(4)
_cell_length_c                   15.9724(4)
_cell_angle_alpha                90
_cell_angle_beta                 90
_cell_angle_gamma                90
_cell_volume                     2017.94
_exptl_crystal_colour            colorless
_exptl_crystal_description       block
_cell_formula_units_Z            4
loop_
_atom_site_label
_atom_site_type_symbol
_atom_site_fract_x
_atom_site_fract_y
_atom_site_fract_z
Cl1 Cl 0.50032(17) 0.23595(6) 0.40902(7)
Cl2 Cl 0.76044(17) 0.38493(9) 0.38948(13)
O1 O 0.2364(3) 0.74503(14) 0.52736(12)
H1 H 0.1645 0.7568 0.4940
O2 O 0.5363(3) 0.66907(16) 0.58666(14)
N1 N 0.3500(3) 0.58137(17) 0.65118(14)
C1 C 0.3596(4) 0.5221(2) 0.43654(16)
C2 C 0.4024(3) 0.63755(18) 0.59086(16)
C3 C 0.4978(4) 0.4581(2) 0.71880(17)
C4 C 0.2613(3) 0.65385(18) 0.52870(16)
C5 C 0.1863(4) 0.55977(19) 0.63973(18)
C6 C 0.1271(4) 0.60233(19) 0.56884(17)
C7 C 0.3142(4) 0.61751(19) 0.44309(17)
C8 C 0.3324(4) 0.6696(2) 0.3795(2)
C9 C 0.4868(5) 0.4077(2) 0.6472(2)
H2 H 0.4416 0.4312 0.5988
C10 C 0.4479(4) 0.5532(2) 0.72139(19)
H3 H 0.3882 0.5634 0.7727
H4 H 0.5440 0.5893 0.7234
C11 C 0.2467(4) 0.4547(2) 0.4474(2)
H5 H 0.1404 0.4686 0.4602
C12 C 0.5618(5) 0.4201(2) 0.7907(2)
H6 H 0.5645 0.4523 0.8402
C13 C -0.0323(4) 0.5928(2) 0.5468(2)
H7 H -0.0739 0.6223 0.5006
C14 C 0.2920(5) 0.3679(2) 0.4392(2)
H8 H 0.2160 0.3238 0.4468
C15 C 0.0914(5) 0.5046(3) 0.6878(2)
H9 H 0.1328 0.4757 0.7344
C16 C 0.4479(5) 0.3458(2) 0.4199(2)
C17 C 0.5168(5) 0.4992(2) 0.4183(2)
H10 H 0.5938 0.5430 0.4114
C18 C -0.1303(4) 0.5381(3) 0.5949(3)
H11 H -0.2380 0.5309 0.5806
C19 C 0.5611(5) 0.4116(3) 0.4101(2)
C20 C -0.0680(5) 0.4943(3) 0.6638(3)
H12 H -0.1345 0.4572 0.6946
C21 C 0.5433(7) 0.3218(3) 0.6474(3)
H13 H 0.5338 0.2878 0.5993
C22 C 0.3475(8) 0.7210(3) 0.3158(2)
C23 C 0.6210(6) 0.3358(3) 0.7899(3)
H14 H 0.6665 0.3122 0.8381
C24 C 0.6133(7) 0.2863(3) 0.7178(3)
H15 H 0.6548 0.2295 0.7167
H16 H 0.459(8) 0.749(4) 0.303(4)
H17 H 0.262(7) 0.742(4) 0.278(4)
loop_
_geom_bond_atom_site_label_1
_geom_bond_atom_site_label_2
_geom_bond_site_symmetry_1
_geom_bond_site_symmetry_2
Cl1 C16 1_555 1_555
Cl2 C19 1_555 1_555
O1 H1 1_555 1_555
O2 C2 1_555 1_555
N1 C2 1_555 1_555
C1 C7 1_555 1_555
C2 C4 1_555 1_555
C3 C9 1_555 1_555
C4 O1 1_555 1_555
C5 N1 1_555 1_555
C6 C4 1_555 1_555
C7 C4 1_555 1_555
C8 C7 1_555 1_555
C9 H2 1_555 1_555
C10 N1 1_555 1_555
H3 C10 1_555 1_555
H4 C10 1_555 1_555
C11 C1 1_555 1_555
H5 C11 1_555 1_555
C12 C3 1_555 1_555
H6 C12 1_555 1_555
C13 C6 1_555 1_555
H7 C13 1_555 1_555
C14 C11 1_555 1_555
H8 C14 1_555 1_555
C15 C5 1_555 1_555
H9 C15 1_555 1_555
C16 C14 1_555 1_555
C17 C1 1_555 1_555
H10 C17 1_555 1_555
C18 C13 1_555 1_555
H11 C18 1_555 1_555
C19 C16 1_555 1_555
C20 C15 1_555 1_555
H12 C20 1_555 1_555
C21 C9 1_555 1_555
H13 C21 1_555 1_555
C22 C8 1_555 1_555
C23 C12 1_555 1_555
H14 C23 1_555 1_555
C24 C21 1_555 1_555
H15 C24 1_555 1_555
H16 C22 1_555 1_555
H17 C22 1_555 1_555
C3 C10 1_555 1_555
C5 C6 1_555 1_555
C17 C19 1_555 1_555
C18 C20 1_555 1_555
C23 C24 1_555 1_555

#END
