
#######################################################################
#
#                 Cambridge Crystallographic Data Centre
#                                CCDC 
#
#######################################################################
#
# If this CIF has been generated from an entry in the Cambridge 
# Structural Database, then it will include bibliographic, chemical, 
# crystal, experimental, refinement or atomic coordinate data resulting 
# from the CCDC's data processing and validation procedures.
#
#######################################################################

data_HEYGID
_chemical_formula_moiety         'C17 H18 S6 Si1'
_chemical_name_systematic        
((2-(4,5-bis(methylsulfanyl)-1,3-dithiol-2-ylidene)-1,3-benzodithiol-5-yl)ethynyl)(trimethyl)silane
_symmetry_cell_setting           triclinic
_symmetry_space_group_name_H-M   'P -1'
_symmetry_Int_Tables_number      2
_space_group_name_Hall           '-P 1'
loop_
_symmetry_equiv_pos_site_id
_symmetry_equiv_pos_as_xyz
1 x,y,z
2 -x,-y,-z
_cell_length_a                   5.6069(15)
_cell_length_b                   12.453(4)
_cell_length_c                   15.351(5)
_cell_angle_alpha                87.330(6)
_cell_angle_beta                 82.746(6)
_cell_angle_gamma                82.964(5)
_cell_volume                     1054.74
_cell_formula_units_Z            2
loop_
_atom_site_label
_atom_site_type_symbol
_atom_site_fract_x
_atom_site_fract_y
_atom_site_fract_z
C1 C -0.1486(5) -0.1611(2) 0.32262(19)
C2 C 0.1349(5) -0.0276(2) 0.28736(16)
H1 H 0.0682 0.0074 0.3385
C3 C 1.1677(4) 0.3138(2) 0.09563(18)
C4 C 0.4236(4) -0.0395(2) 0.15643(16)
C5 C 0.8364(4) 0.1924(2) 0.15516(17)
C6 C 0.0431(5) -0.1190(2) 0.26363(18)
C7 C 0.6735(4) 0.1202(2) 0.16726(17)
C8 C 1.0701(4) 0.3552(2) 0.17326(18)
C9 C 0.3287(5) -0.1302(2) 0.13240(18)
H2 H 0.3913 -0.1639 0.0802
C10 C -0.2982(5) -0.1960(2) 0.3760(2)
C11 C 0.3263(4) 0.01129(19) 0.23450(16)
C12 C 0.1413(5) -0.1699(2) 0.18622(19)
H3 H 0.0799 -0.2314 0.1706
C13 C 0.9093(6) 0.5178(3) 0.2904(2)
H4 H 0.7685 0.5213 0.2603
H5 H 0.9296 0.5892 0.3072
H6 H 0.8898 0.4715 0.3420
C14 C -0.7242(6) -0.1399(3) 0.5135(2)
H7 H -0.6370 -0.0832 0.5289
H8 H -0.8150 -0.1671 0.5653
H9 H -0.8328 -0.1118 0.4722
C15 C -0.6665(5) -0.3512(3) 0.4141(3)
H10 H -0.7524 -0.3160 0.3684
H11 H -0.7789 -0.3805 0.4586
H12 H -0.5505 -0.4085 0.3899
C16 C 1.2792(6) 0.3985(3) -0.0710(2)
H13 H 1.2273 0.3357 -0.0935
H14 H 1.3979 0.4269 -0.1136
H15 H 1.1427 0.4526 -0.0592
C17 C -0.3254(6) -0.3204(3) 0.5467(2)
H16 H -0.2198 -0.3800 0.5206
H17 H -0.4316 -0.3469 0.5948
H18 H -0.2306 -0.2703 0.5679
S1 S 0.84542(14) 0.28823(7) 0.23447(5)
S2 S 1.06018(13) 0.19566(6) 0.06479(5)
S3 S 0.45810(13) 0.12333(6) 0.26049(5)
S4 S 0.66128(13) 0.01829(6) 0.09339(5)
S5 S 1.17110(14) 0.46473(7) 0.21909(6)
S6 S 1.41002(13) 0.36178(7) 0.02913(5)
Si1 Si -0.50692(13) -0.25119(6) 0.46345(5)
loop_
_geom_bond_atom_site_label_1
_geom_bond_atom_site_label_2
_geom_bond_site_symmetry_1
_geom_bond_site_symmetry_2
C1 C6 1_555 1_555
C2 H1 1_555 1_555
C3 C8 1_555 1_555
C4 C9 1_555 1_555
C5 C7 1_555 1_555
C6 C2 1_555 1_555
C7 S3 1_555 1_555
C8 S1 1_555 1_555
C9 H2 1_555 1_555
C10 C1 1_555 1_555
C11 C2 1_555 1_555
C12 C6 1_555 1_555
H3 C12 1_555 1_555
C13 H4 1_555 1_555
H5 C13 1_555 1_555
H6 C13 1_555 1_555
C14 H7 1_555 1_555
H8 C14 1_555 1_555
H9 C14 1_555 1_555
C15 H10 1_555 1_555
H11 C15 1_555 1_555
H12 C15 1_555 1_555
C16 H13 1_555 1_555
H14 C16 1_555 1_555
H15 C16 1_555 1_555
C17 H16 1_555 1_555
H17 C17 1_555 1_555
H18 C17 1_555 1_555
S1 C5 1_555 1_555
S2 C3 1_555 1_555
S3 C11 1_555 1_555
S4 C4 1_555 1_555
S5 C8 1_555 1_555
S6 C3 1_555 1_555
Si1 C10 1_555 1_555
C4 C11 1_555 1_555
C5 S2 1_555 1_555
C7 S4 1_555 1_555
C9 C12 1_555 1_555
C13 S5 1_555 1_555
C14 Si1 1_555 1_555
C15 Si1 1_555 1_555
C16 S6 1_555 1_555
C17 Si1 1_555 1_555

#END
