
#######################################################################
#
#                 Cambridge Crystallographic Data Centre
#                                CCDC 
#
#######################################################################
#
# If this CIF has been generated from an entry in the Cambridge 
# Structural Database, then it will include bibliographic, chemical, 
# crystal, experimental, refinement or atomic coordinate data resulting 
# from the CCDC's data processing and validation procedures.
#
#######################################################################

data_HEYHEB
_chemical_formula_moiety         'C17 H13 F3 I1 N1 O1'
_chemical_name_systematic        
3-(3-iodophenyl)-5-phenyl-5-(2,2,2-trifluoroethyl)-4,5-dihydro-1,2-oxazole
_symmetry_cell_setting           monoclinic
_symmetry_space_group_name_H-M   'P 21'
_symmetry_Int_Tables_number      4
_space_group_name_Hall           'P 2yb'
loop_
_symmetry_equiv_pos_site_id
_symmetry_equiv_pos_as_xyz
1 x,y,z
2 -x,1/2+y,-z
_cell_length_a                   5.7810(5)
_cell_length_b                   30.318(3)
_cell_length_c                   9.0943(8)
_cell_angle_alpha                90
_cell_angle_beta                 92.155(3)
_cell_angle_gamma                90
_cell_volume                     1592.82
_exptl_crystal_colour            colorless
_exptl_crystal_description       prism
_cell_formula_units_Z            4
loop_
_atom_site_label
_atom_site_type_symbol
_atom_site_fract_x
_atom_site_fract_y
_atom_site_fract_z
I1 I -0.10877(7) 0.82998(2) -0.20872(4)
F1 F -0.0098(7) 0.52533(14) 0.4883(4)
O1 O -0.1228(7) 0.63532(15) 0.2221(5)
N1 N -0.1081(9) 0.67826(17) 0.1574(6)
C1 C 0.0295(12) 0.7554(2) 0.0003(7)
H1 H -0.1173 0.7435 -0.0287
C2 C 0.1012(11) 0.7956(2) -0.0552(7)
C3 C 0.3147(11) 0.8133(2) -0.0145(7)
H2 H 0.3618 0.8408 -0.0539
C4 C 0.4593(12) 0.7907(2) 0.0843(8)
H3 H 0.6051 0.8029 0.1137
C5 C 0.3925(11) 0.7502(2) 0.1405(7)
H4 H 0.4938 0.7346 0.2067
C6 C 0.1771(11) 0.7325(2) 0.0999(7)
C7 C 0.1061(11) 0.6898(2) 0.1593(7)
C8 C 0.2671(10) 0.6566(2) 0.2333(7)
H5 H 0.3088 0.6649 0.3362
H6 H 0.4097 0.6522 0.1781
C9 C 0.1083(10) 0.6158(2) 0.2251(6)
C10 C 0.1411(10) 0.59073(19) 0.0809(6)
C11 C 0.3516(11) 0.5690(2) 0.0603(7)
H7 H 0.4693 0.5688 0.1361
C12 C 0.3860(11) 0.5475(2) -0.0733(7)
H8 H 0.5281 0.5327 -0.0873
C13 C 0.2205(12) 0.5475(2) -0.1835(7)
H9 H 0.2460 0.5324 -0.2729
C14 C 0.0109(12) 0.5701(2) -0.1641(7)
H10 H -0.1042 0.5711 -0.2414
C15 C -0.0263(11) 0.5911(2) -0.0310(7)
H11 H -0.1688 0.6058 -0.0171
C16 C 0.1332(11) 0.5867(2) 0.3627(7)
F2 F -0.1227(16) 0.5326(3) 0.2587(6)
F3 F -0.2603(10) 0.5746(3) 0.4266(10)
C17 C -0.065(3) 0.5555(4) 0.3811(18)
I2 I 0.50803(7) 0.67000(2) 0.80891(4)
F6 F 0.5142(8) 0.97851(16) 0.6278(5)
O2 O 0.5837(7) 0.86303(15) 0.3842(5)
N2 N 0.5484(9) 0.82108(17) 0.4513(6)
C19 C 0.3819(11) 0.7470(2) 0.6073(7)
H12 H 0.5285 0.7580 0.6407
C20 C 0.3014(11) 0.7068(2) 0.6584(7)
C21 C 0.0852(12) 0.6908(2) 0.6145(7)
H13 H 0.0311 0.6637 0.6522
C22 C -0.0513(11) 0.7148(2) 0.5153(7)
H14 H -0.1987 0.7039 0.4832
C23 C 0.0280(11) 0.7552(2) 0.4623(7)
H15 H -0.0669 0.7719 0.3956
C24 C 0.2454(11) 0.7708(2) 0.5072(7)
C25 C 0.3298(11) 0.8132(2) 0.4504(7)
C26 C 0.1827(11) 0.8489(2) 0.3797(7)
H16 H 0.0528 0.8573 0.4418
H17 H 0.1213 0.8401 0.2810
C27 C 0.3631(11) 0.8861(2) 0.3708(7)
C28 C 0.3486(12) 0.9172(2) 0.5060(7)
C29 C 0.3485(11) 0.9105(2) 0.2236(7)
C30 C 0.5246(11) 0.9082(2) 0.1255(7)
H18 H 0.6629 0.8926 0.1512
C31 C 0.4997(13) 0.9286(2) -0.0110(7)
H19 H 0.6217 0.9270 -0.0779
C32 C 0.2991(13) 0.9513(2) -0.0503(7)
H20 H 0.2819 0.9647 -0.1444
C33 C 0.1227(12) 0.9542(2) 0.0492(8)
H21 H -0.0146 0.9702 0.0242
C34 C 0.1489(11) 0.9334(2) 0.1861(7)
H22 H 0.0281 0.9352 0.2539
F7 F 0.6437(12) 0.9631(2) 0.4128(6)
F8 F 0.7346(10) 0.9243(2) 0.6005(8)
C35 C 0.560(2) 0.9464(7) 0.5342(18)
F4? F -0.014(6) 0.5191(10) 0.270(3)
F5? F -0.254(5) 0.5627(10) 0.362(4)
C18? C -0.036(12) 0.5459(19) 0.376(8)
F9? F 0.504(4) 0.9831(8) 0.4154(19)
F10? F 0.748(4) 0.9372(7) 0.507(3)
C36? C 0.526(7) 0.950(2) 0.510(8)
loop_
_geom_bond_atom_site_label_1
_geom_bond_atom_site_label_2
_geom_bond_site_symmetry_1
_geom_bond_site_symmetry_2
I1 C2 1_555 1_555
F1 C17 1_555 1_555
O1 N1 1_555 1_555
N1 C7 1_555 1_555
C1 H1 1_555 1_555
C2 C1 1_555 1_555
C3 C2 1_555 1_555
H2 C3 1_555 1_555
C4 C3 1_555 1_555
H3 C4 1_555 1_555
C5 C4 1_555 1_555
H4 C5 1_555 1_555
C6 C1 1_555 1_555
C7 C6 1_555 1_555
C8 C7 1_555 1_555
H5 C8 1_555 1_555
H6 C8 1_555 1_555
C9 O1 1_555 1_555
C10 C9 1_555 1_555
C11 C10 1_555 1_555
H7 C11 1_555 1_555
C12 C11 1_555 1_555
H8 C12 1_555 1_555
C13 C12 1_555 1_555
H9 C13 1_555 1_555
C14 C13 1_555 1_555
H10 C14 1_555 1_555
C15 C10 1_555 1_555
H11 C15 1_555 1_555
C16 C9 1_555 1_555
F2 C17 1_555 1_555
F3 C17 1_555 1_555
C17 C16 1_555 1_555
I2 C20 1_555 1_555
F6 C35 1_555 1_555
O2 N2 1_555 1_555
N2 C25 1_555 1_555
C19 H12 1_555 1_555
C20 C19 1_555 1_555
C21 C20 1_555 1_555
H13 C21 1_555 1_555
C22 C21 1_555 1_555
H14 C22 1_555 1_555
C23 C22 1_555 1_555
H15 C23 1_555 1_555
C24 C19 1_555 1_555
C25 C24 1_555 1_555
C26 C25 1_555 1_555
H16 C26 1_555 1_555
H17 C26 1_555 1_555
C27 O2 1_555 1_555
C28 C27 1_555 1_555
C29 C27 1_555 1_555
C30 C29 1_555 1_555
H18 C30 1_555 1_555
C31 C30 1_555 1_555
H19 C31 1_555 1_555
C32 C31 1_555 1_555
H20 C32 1_555 1_555
C33 C32 1_555 1_555
H21 C33 1_555 1_555
C34 C29 1_555 1_555
H22 C34 1_555 1_555
F7 C35 1_555 1_555
F8 C35 1_555 1_555
C35 C28 1_555 1_555
C5 C6 1_555 1_555
C8 C9 1_555 1_555
C14 C15 1_555 1_555
C23 C24 1_555 1_555
C26 C27 1_555 1_555
C33 C34 1_555 1_555

#END
