
#######################################################################
#
#                 Cambridge Crystallographic Data Centre
#                                CCDC 
#
#######################################################################
#
# If this CIF has been generated from an entry in the Cambridge 
# Structural Database, then it will include bibliographic, chemical, 
# crystal, experimental, refinement or atomic coordinate data resulting 
# from the CCDC's data processing and validation procedures.
#
#######################################################################

data_HEYKOO
_chemical_formula_moiety         'C18 H12 Br1 Cl1 O3'
_chemical_name_systematic        
'(4-chlorophenyl)methyl 1-bromo-2-oxo-1,2-dihydronaphthalene-1-carboxylate'
_symmetry_cell_setting           orthorhombic
_symmetry_space_group_name_H-M   'P 21 21 21'
_symmetry_Int_Tables_number      19
_space_group_name_Hall           'P 2ac 2ab'
loop_
_symmetry_equiv_pos_site_id
_symmetry_equiv_pos_as_xyz
1 x,y,z
2 1/2-x,-y,1/2+z
3 -x,1/2+y,1/2-z
4 1/2+x,1/2-y,-z
_cell_length_a                   9.2037(11)
_cell_length_b                   10.2418(12)
_cell_length_c                   17.436(2)
_cell_angle_alpha                90
_cell_angle_beta                 90
_cell_angle_gamma                90
_cell_volume                     1643.56
_exptl_crystal_colour            colorless
_exptl_crystal_description       block
_cell_formula_units_Z            4
loop_
_atom_site_label
_atom_site_type_symbol
_atom_site_fract_x
_atom_site_fract_y
_atom_site_fract_z
Br1 Br 0.93789(5) 0.66026(4) 0.54650(3)
Cl1 Cl 0.27002(18) 0.5746(2) 0.90557(9)
O1 O 0.8314(3) 0.3775(3) 0.46861(15)
O2 O 0.6112(4) 0.6324(3) 0.5466(3)
O3 O 0.5919(3) 0.4225(3) 0.57856(15)
C1 C 0.8864(4) 0.3991(3) 0.5302(2)
C2 C 1.0111(4) 0.3282(4) 0.5599(2)
H1 H 1.068786 0.280098 0.526437
C3 C 1.0437(4) 0.3310(4) 0.6337(2)
H2 H 1.124238 0.284110 0.650435
C4 C 0.9595(4) 0.4040(4) 0.6904(2)
C5 C 0.9829(5) 0.3850(4) 0.7686(3)
H3 H 1.057431 0.330371 0.784928
C6 C 0.8968(6) 0.4463(5) 0.8215(3)
H4 H 0.912256 0.432352 0.873609
C7 C 0.7872(6) 0.5289(5) 0.7978(2)
H5 H 0.728108 0.569381 0.833990
C8 C 0.7646(5) 0.5516(4) 0.7204(2)
H6 H 0.692379 0.609216 0.704748
C9 C 0.8497(4) 0.4885(3) 0.66627(19)
C10 C 0.8247(4) 0.5076(3) 0.5817(2)
C11 C 0.6643(4) 0.5313(4) 0.5647(2)
C12 C 0.4330(5) 0.4342(5) 0.5837(3)
H7 H 0.387931 0.352057 0.569494
H8 H 0.399159 0.500949 0.548437
C13 C 0.3911(4) 0.4697(4) 0.6639(2)
C14 C 0.4219(5) 0.3859(4) 0.7242(3)
H9 H 0.467437 0.306571 0.714305
C15 C 0.3862(5) 0.4182(5) 0.7986(3)
H10 H 0.407987 0.361552 0.838688
C16 C 0.3188(4) 0.5341(5) 0.8128(3)
C17 C 0.2866(5) 0.6181(5) 0.7545(3)
H11 H 0.240130 0.696907 0.764678
C18 C 0.3237(5) 0.5850(4) 0.6804(3)
H12 H 0.302249 0.642641 0.640782
loop_
_geom_bond_atom_site_label_1
_geom_bond_atom_site_label_2
_geom_bond_site_symmetry_1
_geom_bond_site_symmetry_2
Br1 C10 1_555 1_555
Cl1 C16 1_555 1_555
O1 C1 1_555 1_555
O2 C11 1_555 1_555
O3 C11 1_555 1_555
C1 C2 1_555 1_555
C2 H1 1_555 1_555
C3 C2 1_555 1_555
H2 C3 1_555 1_555
C4 C3 1_555 1_555
C5 C4 1_555 1_555
H3 C5 1_555 1_555
C6 C5 1_555 1_555
H4 C6 1_555 1_555
C7 C6 1_555 1_555
H5 C7 1_555 1_555
C8 C7 1_555 1_555
H6 C8 1_555 1_555
C9 C4 1_555 1_555
C10 C1 1_555 1_555
C11 C10 1_555 1_555
C12 O3 1_555 1_555
H7 C12 1_555 1_555
H8 C12 1_555 1_555
C13 C12 1_555 1_555
C14 C13 1_555 1_555
H9 C14 1_555 1_555
C15 C14 1_555 1_555
H10 C15 1_555 1_555
C16 C15 1_555 1_555
C17 C16 1_555 1_555
H11 C17 1_555 1_555
C18 C13 1_555 1_555
H12 C18 1_555 1_555
C8 C9 1_555 1_555
C9 C10 1_555 1_555
C17 C18 1_555 1_555

#END
