
#######################################################################
#
#                 Cambridge Crystallographic Data Centre
#                                CCDC 
#
#######################################################################
#
# If this CIF has been generated from an entry in the Cambridge 
# Structural Database, then it will include bibliographic, chemical, 
# crystal, experimental, refinement or atomic coordinate data resulting 
# from the CCDC's data processing and validation procedures.
#
#######################################################################

data_HEYTUD
_chemical_formula_moiety         'C40 H52 N8 4+,4(Cl1 O4 1-),0.4(H2 O1)'
_chemical_name_systematic        
'1,16,38,47-tetra-aza-8,23,39,48-tetra-azonianonacyclo[21.7.7.7^8,16^.1^10,14^.1^25,29^.1^32,36^.1^41,45^.0^2,7^.0^17,22^]octatetraconta-10(47),11,13,25(39),26,28,32(38),33,35,41(48),42,44-dodecaene tetraperchlorate hydrate'
_symmetry_cell_setting           orthorhombic
_symmetry_space_group_name_H-M   'P 21 21 21'
_symmetry_Int_Tables_number      19
_space_group_name_Hall           'P 2ac 2ab'
loop_
_symmetry_equiv_pos_site_id
_symmetry_equiv_pos_as_xyz
1 x,y,z
2 1/2-x,-y,1/2+z
3 -x,1/2+y,1/2-z
4 1/2+x,1/2-y,-z
_cell_length_a                   11.232(2)
_cell_length_b                   12.217(2)
_cell_length_c                   33.308(8)
_cell_angle_alpha                90
_cell_angle_beta                 90
_cell_angle_gamma                90
_cell_volume                     4570.57
_exptl_crystal_colour            colorless
_exptl_crystal_description       block
_cell_formula_units_Z            4
loop_
_atom_site_label
_atom_site_type_symbol
_atom_site_fract_x
_atom_site_fract_y
_atom_site_fract_z
Cl1 Cl 0.58762(16) 0.26242(13) 0.45086(5)
O1 O 0.4803(5) 0.2128(4) 0.46472(16)
O2 O 0.5627(6) 0.3709(4) 0.43721(17)
O3 O 0.6742(5) 0.2655(4) 0.48259(15)
O4 O 0.6346(4) 0.1990(4) 0.41777(15)
Cl2 Cl 0.56158(18) -0.06167(14) 0.71098(6)
O5 O 0.6079(6) -0.0124(4) 0.67587(18)
O6 O 0.6418(6) -0.1402(4) 0.72701(16)
O7 O 0.5284(5) 0.0194(4) 0.73968(17)
O8 O 0.4554(6) -0.1215(6) 0.7000(2)
Cl3 Cl 0.6164(6) -0.1178(4) 0.52149(19)
O9 O 0.6026(12) -0.0149(6) 0.5024(3)
O10 O 0.7027(10) -0.1820(7) 0.4994(4)
O11 O 0.5027(9) -0.1740(10) 0.5227(4)
O12 O 0.6602(12) -0.1030(10) 0.5625(3)
Cl5 Cl 1.0870(6) 0.5577(5) 0.72158(19)
O17 O 1.0772(10) 0.5020(9) 0.7583(3)
O18 O 1.0471(9) 0.4876(9) 0.6899(3)
O19 O 1.2046(9) 0.5976(9) 0.7142(4)
O20 O 1.0024(11) 0.6480(8) 0.7259(5)
N1 N 0.4581(4) 0.5397(4) 0.64756(16)
N2 N 0.4259(5) 0.2940(4) 0.66079(15)
N3 N 0.5105(4) 0.2209(4) 0.58891(15)
H1 H 0.5290 0.2712 0.6118
N4 N 0.6064(5) 0.4102(4) 0.55163(16)
H2 H 0.6516 0.3764 0.5693
N5 N 0.8085(5) 0.5310(4) 0.59035(17)
N6 N 0.6844(5) 0.6336(4) 0.65126(17)
H3 H 0.6919 0.5646 0.6353
N7 N 0.6105(5) 0.4247(4) 0.69496(15)
H4 H 0.5554 0.4543 0.6797
N8 N 0.7629(5) 0.3042(4) 0.59790(17)
C1 C 0.4729(6) 0.6318(5) 0.6265(2)
C2 C 0.3888(6) 0.6663(5) 0.5985(2)
H5 H 0.4030 0.7296 0.5826
C3 C 0.2855(6) 0.6080(5) 0.5941(2)
H6 H 0.2275 0.6307 0.5751
C4 C 0.2656(6) 0.5149(5) 0.6176(2)
H7 H 0.1937 0.4745 0.6152
C5 C 0.3545(6) 0.4828(4) 0.64456(19)
C6 C 0.3454(6) 0.3860(4) 0.6728(2)
H8 H 0.3661 0.4099 0.7003
H9 H 0.2621 0.3594 0.6732
C7 C 0.3556(6) 0.2043(5) 0.64085(19)
H10 H 0.2942 0.2406 0.6237
C8 C 0.2889(6) 0.1261(5) 0.6692(2)
H11 H 0.3464 0.0887 0.6870
H12 H 0.2330 0.1683 0.6862
C9 C 0.2195(7) 0.0407(5) 0.6446(2)
H13 H 0.1824 -0.0126 0.6631
H14 H 0.1550 0.0778 0.6296
C10 C 0.2993(7) -0.0199(5) 0.6152(2)
H15 H 0.2501 -0.0706 0.5990
H16 H 0.3577 -0.0642 0.6304
C11 C 0.3662(6) 0.0579(5) 0.5870(2)
H17 H 0.3092 0.0972 0.5695
H18 H 0.4217 0.0161 0.5697
C12 C 0.4360(6) 0.1403(5) 0.61306(19)
H19 H 0.4920 0.0972 0.6302
C13 C 0.4420(6) 0.2761(5) 0.5567(2)
H20 H 0.3595 0.2878 0.5662
H21 H 0.4382 0.2267 0.5331
C14 C 0.4925(6) 0.3845(5) 0.54335(19)
C15 C 0.4236(7) 0.4548(5) 0.5210(2)
H22 H 0.3425 0.4380 0.5156
C16 C 0.4745(7) 0.5512(6) 0.5063(2)
H23 H 0.4274 0.6017 0.4915
C17 C 0.5916(7) 0.5724(5) 0.5131(2)
H24 H 0.6273 0.6358 0.5018
C18 C 0.6597(6) 0.5013(5) 0.53678(19)
C19 C 0.7907(6) 0.5136(5) 0.5468(2)
H25 H 0.8340 0.4469 0.5382
H26 H 0.8240 0.5765 0.5318
C20 C 0.8377(6) 0.6501(5) 0.5980(2)
H27 H 0.7835 0.6947 0.5807
C21 C 0.9648(6) 0.6852(6) 0.5884(3)
H28 H 0.9826 0.6698 0.5599
H29 H 1.0214 0.6429 0.6051
C22 C 0.9800(7) 0.8094(6) 0.5969(3)
H30 H 1.0633 0.8312 0.5912
H31 H 0.9273 0.8515 0.5788
C23 C 0.9505(7) 0.8363(6) 0.6396(2)
H32 H 0.9580 0.9162 0.6438
H33 H 1.0076 0.7991 0.6577
C24 C 0.8224(6) 0.7996(5) 0.6501(3)
H34 H 0.8060 0.8141 0.6788
H35 H 0.7644 0.8416 0.6339
C25 C 0.8089(6) 0.6785(5) 0.6415(2)
H36 H 0.8673 0.6387 0.6589
C26 C 0.5843(6) 0.6990(5) 0.6334(2)
H37 H 0.6108 0.7303 0.6075
H38 H 0.5652 0.7606 0.6516
C27 C 0.4998(6) 0.2509(5) 0.6944(2)
H39 H 0.5281 0.1769 0.6870
H40 H 0.4484 0.2431 0.7184
C28 C 0.6051(6) 0.3191(5) 0.7055(2)
C29 C 0.6951(6) 0.2785(5) 0.7293(2)
H41 H 0.6962 0.2032 0.7365
C30 C 0.7854(7) 0.3491(6) 0.7429(2)
H42 H 0.8479 0.3218 0.7593
C31 C 0.7825(6) 0.4592(6) 0.7322(2)
H43 H 0.8419 0.5081 0.7417
C32 C 0.6941(6) 0.4958(5) 0.70818(18)
C33 C 0.6724(6) 0.6151(5) 0.6968(2)
H44 H 0.7305 0.6621 0.7111
H45 H 0.5916 0.6368 0.7055
C34 C 0.6266(6) 0.1673(5) 0.5743(2)
H46 H 0.6171 0.0868 0.5742
H47 H 0.6434 0.1912 0.5465
C35 C 0.7292(6) 0.1980(5) 0.60094(19)
C36 C 0.7879(6) 0.1285(5) 0.6269(2)
H48 H 0.7643 0.0541 0.6292
C37 C 0.8827(7) 0.1690(6) 0.6496(2)
H49 H 0.9227 0.1235 0.6684
C38 C 0.9171(6) 0.2768(5) 0.6442(2)
H50 H 0.9824 0.3054 0.6590
C39 C 0.8571(6) 0.3427(5) 0.6175(2)
C40 C 0.9011(6) 0.4576(5) 0.6081(2)
H51 H 0.9310 0.4913 0.6332
H52 H 0.9688 0.4524 0.5892
Cl4? Cl 0.6337(10) -0.1197(9) 0.5267(3)
O13? O 0.6464(18) -0.0186(11) 0.5063(6)
O14? O 0.7295(13) -0.1938(12) 0.5167(6)
O15? O 0.5226(16) -0.1685(19) 0.5135(7)
O16? O 0.623(2) -0.1036(19) 0.5701(4)
Cl6? Cl 1.0975(9) 0.5447(7) 0.7223(3)
O21? O 1.0504(14) 0.5677(14) 0.7603(4)
O22? O 1.0758(14) 0.4338(10) 0.7107(5)
O23? O 1.2238(11) 0.5589(12) 0.7224(5)
O24? O 1.0386(17) 0.6231(13) 0.6956(5)
O25? O 0.8696(11) 0.7473(8) 0.7550(4)
H53? H 0.8992 0.7768 0.7755
H54? H 0.8615 0.7916 0.7360
loop_
_geom_bond_atom_site_label_1
_geom_bond_atom_site_label_2
_geom_bond_site_symmetry_1
_geom_bond_site_symmetry_2
N1 C1 1_555 1_555
N2 C6 1_555 1_555
N3 H1 1_555 1_555
N4 H2 1_555 1_555
N5 C19 1_555 1_555
N6 H3 1_555 1_555
N7 H4 1_555 1_555
N8 C35 1_555 1_555
C1 C2 1_555 1_555
C2 H5 1_555 1_555
C3 C2 1_555 1_555
H6 C3 1_555 1_555
C4 C3 1_555 1_555
H7 C4 1_555 1_555
C5 N1 1_555 1_555
C6 C5 1_555 1_555
H8 C6 1_555 1_555
H9 C6 1_555 1_555
C7 N2 1_555 1_555
H10 C7 1_555 1_555
C8 C7 1_555 1_555
H11 C8 1_555 1_555
H12 C8 1_555 1_555
C9 C8 1_555 1_555
H13 C9 1_555 1_555
H14 C9 1_555 1_555
C10 C9 1_555 1_555
H15 C10 1_555 1_555
H16 C10 1_555 1_555
C11 C10 1_555 1_555
H17 C11 1_555 1_555
H18 C11 1_555 1_555
C12 N3 1_555 1_555
H19 C12 1_555 1_555
C13 N3 1_555 1_555
H20 C13 1_555 1_555
H21 C13 1_555 1_555
C14 N4 1_555 1_555
C15 C14 1_555 1_555
H22 C15 1_555 1_555
C16 C15 1_555 1_555
H23 C16 1_555 1_555
C17 C16 1_555 1_555
H24 C17 1_555 1_555
C18 N4 1_555 1_555
C19 C18 1_555 1_555
H25 C19 1_555 1_555
H26 C19 1_555 1_555
C20 N5 1_555 1_555
H27 C20 1_555 1_555
C21 C20 1_555 1_555
H28 C21 1_555 1_555
H29 C21 1_555 1_555
C22 C21 1_555 1_555
H30 C22 1_555 1_555
H31 C22 1_555 1_555
C23 C22 1_555 1_555
H32 C23 1_555 1_555
H33 C23 1_555 1_555
C24 C23 1_555 1_555
H34 C24 1_555 1_555
H35 C24 1_555 1_555
C25 N6 1_555 1_555
H36 C25 1_555 1_555
C26 N6 1_555 1_555
H37 C26 1_555 1_555
H38 C26 1_555 1_555
C27 N2 1_555 1_555
H39 C27 1_555 1_555
H40 C27 1_555 1_555
C28 N7 1_555 1_555
C29 C28 1_555 1_555
H41 C29 1_555 1_555
C30 C29 1_555 1_555
H42 C30 1_555 1_555
C31 C30 1_555 1_555
H43 C31 1_555 1_555
C32 N7 1_555 1_555
C33 N6 1_555 1_555
H44 C33 1_555 1_555
H45 C33 1_555 1_555
C34 N3 1_555 1_555
H46 C34 1_555 1_555
H47 C34 1_555 1_555
C35 C34 1_555 1_555
C36 C35 1_555 1_555
H48 C36 1_555 1_555
C37 C36 1_555 1_555
H49 C37 1_555 1_555
C38 C37 1_555 1_555
H50 C38 1_555 1_555
C39 N8 1_555 1_555
C40 N5 1_555 1_555
H51 C40 1_555 1_555
H52 C40 1_555 1_555
Cl1 O1 1_555 1_555
O2 Cl1 1_555 1_555
O3 Cl1 1_555 1_555
O4 Cl1 1_555 1_555
Cl2 O5 1_555 1_555
O6 Cl2 1_555 1_555
O7 Cl2 1_555 1_555
O8 Cl2 1_555 1_555
Cl3 O9 1_555 1_555
O10 Cl3 1_555 1_555
O11 Cl3 1_555 1_555
O12 Cl3 1_555 1_555
Cl5 O17 1_555 1_555
O18 Cl5 1_555 1_555
O19 Cl5 1_555 1_555
O20 Cl5 1_555 1_555
C1 C26 1_555 1_555
C4 C5 1_555 1_555
C7 C12 1_555 1_555
C11 C12 1_555 1_555
C13 C14 1_555 1_555
C17 C18 1_555 1_555
C20 C25 1_555 1_555
C24 C25 1_555 1_555
C27 C28 1_555 1_555
C31 C32 1_555 1_555
C32 C33 1_555 1_555
C38 C39 1_555 1_555
C39 C40 1_555 1_555

#END
