
#######################################################################
#
#                 Cambridge Crystallographic Data Centre
#                                CCDC 
#
#######################################################################
#
# If this CIF has been generated from an entry in the Cambridge 
# Structural Database, then it will include bibliographic, chemical, 
# crystal, experimental, refinement or atomic coordinate data resulting 
# from the CCDC's data processing and validation procedures.
#
#######################################################################

data_HEYWEO
_chemical_formula_moiety         'C18 H16 N2 O1'
_chemical_name_systematic        
2,6-bis((E)-(Pyridin-4-yl)methylidene)cyclohexanone
_symmetry_cell_setting           monoclinic
_symmetry_space_group_name_H-M   'P 21/c'
_symmetry_Int_Tables_number      14
_space_group_name_Hall           '-P 2ybc'
loop_
_symmetry_equiv_pos_site_id
_symmetry_equiv_pos_as_xyz
1 x,y,z
2 -x,1/2+y,1/2-z
3 -x,-y,-z
4 x,1/2-y,1/2+z
_cell_length_a                   8.309(9)
_cell_length_b                   9.261(5)
_cell_length_c                   18.824(15)
_cell_angle_alpha                90
_cell_angle_beta                 100.94(8)
_cell_angle_gamma                90
_cell_volume                     1422.18
_exptl_crystal_colour            yellow
_exptl_crystal_description       block
_chemical_melting_point          150deg.C
_cell_formula_units_Z            4
loop_
_atom_site_label
_atom_site_type_symbol
_atom_site_fract_x
_atom_site_fract_y
_atom_site_fract_z
O1 O 0.3226(2) 0.11532(13) 0.08162(6)
N1 N 0.0600(2) -0.55278(18) 0.18847(8)
N2 N 0.4105(2) 0.49762(18) -0.22533(9)
C1 C 0.2873(2) 0.03460(17) 0.02983(8)
C2 C 0.2308(2) -0.11626(17) 0.03938(8)
C3 C 0.1958(3) -0.21233(19) -0.02609(9)
C4 C 0.1317(2) -0.12902(19) -0.09454(10)
C5 C 0.2557(3) -0.01586(19) -0.10764(10)
C6 C 0.3001(2) 0.08638(17) -0.04467(8)
C7 C 0.3466(2) 0.22408(17) -0.04929(9)
C8 C 0.4202(3) 0.3547(2) -0.23067(10)
C9 C 0.4022(2) 0.2582(2) -0.17681(9)
C10 C 0.3705(2) 0.31061(18) -0.11162(8)
C11 C 0.3641(3) 0.4598(2) -0.10565(11)
C12 C 0.3833(3) 0.5472(2) -0.16222(11)
C13 C 0.2131(2) -0.15444(18) 0.10605(9)
C14 C 0.1484(2) -0.5521(2) 0.13597(10)
C15 C 0.1984(2) -0.42744(19) 0.10625(10)
C16 C 0.1614(2) -0.29301(17) 0.13180(8)
C17 C 0.0729(2) -0.2950(2) 0.18794(9)
C18 C 0.0247(2) -0.4240(2) 0.21272(10)
H1 H 0.121(2) -0.2874(19) -0.0183(9)
H2 H 0.303(3) -0.267(2) -0.0296(11)
H3 H 0.028(3) -0.077(2) -0.0899(9)
H4 H 0.110(2) -0.199(2) -0.1374(10)
H5 H 0.359(3) -0.069(2) -0.1159(10)
H6 H 0.212(2) 0.0401(19) -0.1519(10)
H7 H 0.3642(18) 0.2788(15) -0.0039(8)
H8 H 0.438(2) 0.321(2) -0.2757(11)
H9 H 0.419(2) 0.157(2) -0.1853(9)
H10 H 0.339(2) 0.505(2) -0.0615(11)
H11 H 0.375(2) 0.655(2) -0.1574(9)
H12 H 0.237(2) -0.0821(19) 0.1418(9)
H13 H 0.179(2) -0.649(2) 0.1199(9)
H14 H 0.263(2) -0.438(2) 0.0673(10)
H15 H 0.051(2) -0.207(2) 0.2090(9)
H16 H -0.037(3) -0.420(2) 0.2509(12)
loop_
_geom_bond_atom_site_label_1
_geom_bond_atom_site_label_2
_geom_bond_site_symmetry_1
_geom_bond_site_symmetry_2
O1 C1 1_555 1_555
N1 C14 1_555 1_555
N2 C8 1_555 1_555
C1 C2 1_555 1_555
C2 C3 1_555 1_555
C3 C4 1_555 1_555
C4 C5 1_555 1_555
C5 C6 1_555 1_555
C6 C1 1_555 1_555
C7 C6 1_555 1_555
C8 C9 1_555 1_555
C9 C10 1_555 1_555
C10 C7 1_555 1_555
C11 C10 1_555 1_555
C12 N2 1_555 1_555
C13 C2 1_555 1_555
C14 C15 1_555 1_555
C15 C16 1_555 1_555
C16 C13 1_555 1_555
C17 C16 1_555 1_555
C18 N1 1_555 1_555
H1 C3 1_555 1_555
H2 C3 1_555 1_555
H3 C4 1_555 1_555
H4 C4 1_555 1_555
H5 C5 1_555 1_555
H6 C5 1_555 1_555
H7 C7 1_555 1_555
H8 C8 1_555 1_555
H9 C9 1_555 1_555
H10 C11 1_555 1_555
H11 C12 1_555 1_555
H12 C13 1_555 1_555
H13 C14 1_555 1_555
H14 C15 1_555 1_555
H15 C17 1_555 1_555
H16 C18 1_555 1_555
C11 C12 1_555 1_555
C17 C18 1_555 1_555

#END
