
#######################################################################
#
#                 Cambridge Crystallographic Data Centre
#                                CCDC 
#
#######################################################################
#
# If this CIF has been generated from an entry in the Cambridge 
# Structural Database, then it will include bibliographic, chemical, 
# crystal, experimental, refinement or atomic coordinate data resulting 
# from the CCDC's data processing and validation procedures.
#
#######################################################################

data_HEYXIV
_chemical_formula_moiety         'C16 H13 N3 O1'
_chemical_name_systematic        
1,4-dimethylpyrrolo[2',3':3,4]pyrido[2,1-b]quinazolin-7(1H)-one
_symmetry_cell_setting           monoclinic
_symmetry_space_group_name_H-M   'P 21/c'
_symmetry_Int_Tables_number      14
_space_group_name_Hall           '-P 2ybc'
loop_
_symmetry_equiv_pos_site_id
_symmetry_equiv_pos_as_xyz
1 x,y,z
2 -x,1/2+y,1/2-z
3 -x,-y,-z
4 x,1/2-y,1/2+z
_cell_length_a                   8.150(2)
_cell_length_b                   15.852(4)
_cell_length_c                   10.041(3)
_cell_angle_alpha                90
_cell_angle_beta                 99.101(4)
_cell_angle_gamma                90
_cell_volume                     1280.9
_exptl_crystal_description       block
_cell_formula_units_Z            4
loop_
_atom_site_label
_atom_site_type_symbol
_atom_site_fract_x
_atom_site_fract_y
_atom_site_fract_z
N1 N 0.76521(12) 0.44490(6) 0.58782(10)
O1 O 0.72200(14) 0.39830(7) 0.79535(11)
N2 N 0.67032(12) 0.58096(6) 0.50376(10)
N3 N 0.80778(13) 0.53653(8) 0.25629(11)
C1 C 0.62973(14) 0.53619(8) 0.72854(12)
C2 C 0.74390(13) 0.50855(7) 0.48950(11)
C3 C 0.80989(14) 0.48822(8) 0.37017(12)
C4 C 0.61445(14) 0.59553(8) 0.62368(12)
C5 C 0.70625(15) 0.45542(8) 0.71211(12)
C6 C 0.84594(16) 0.36817(8) 0.56899(14)
H1 H 0.8552 0.3280 0.6372
C7 C 0.90998(16) 0.35052(9) 0.45695(15)
C8 C 0.89242(15) 0.41286(9) 0.35296(14)
C9 C 0.53810(17) 0.67347(9) 0.64292(15)
H2 H 0.5270 0.7138 0.5749
C10 C 0.57051(17) 0.55487(9) 0.84906(13)
H3 H 0.5821 0.5155 0.9185
C11 C 0.49567(18) 0.63086(10) 0.86494(15)
H4 H 0.4555 0.6428 0.9445
C12 C 0.48007(18) 0.69026(9) 0.76127(16)
H5 H 0.4297 0.7419 0.7724
C13 C 0.94137(18) 0.41666(11) 0.22420(16)
H6 H 0.9992 0.3755 0.1846
C14 C 0.88739(17) 0.49227(12) 0.16942(15)
H7 H 0.9028 0.5110 0.0845
C15 C 0.7343(2) 0.61973(10) 0.22788(15)
H8 H 0.7543 0.6384 0.1409
H9 H 0.7835 0.6589 0.2956
H10 H 0.6167 0.6167 0.2284
C16 C 0.9965(2) 0.26817(10) 0.44003(19)
H11 H 1.0047 0.2361 0.5219
H12 H 1.1058 0.2791 0.4201
H13 H 0.9340 0.2368 0.3673
loop_
_geom_bond_atom_site_label_1
_geom_bond_atom_site_label_2
_geom_bond_site_symmetry_1
_geom_bond_site_symmetry_2
N1 C2 1_555 1_555
O1 C5 1_555 1_555
N2 C2 1_555 1_555
N3 C3 1_555 1_555
C1 C4 1_555 1_555
C2 C3 1_555 1_555
C3 C8 1_555 1_555
C4 N2 1_555 1_555
C5 N1 1_555 1_555
C6 N1 1_555 1_555
H1 C6 1_555 1_555
C7 C6 1_555 1_555
C8 C7 1_555 1_555
C9 C4 1_555 1_555
H2 C9 1_555 1_555
C10 C1 1_555 1_555
H3 C10 1_555 1_555
C11 C10 1_555 1_555
H4 C11 1_555 1_555
C12 C9 1_555 1_555
H5 C12 1_555 1_555
C13 C8 1_555 1_555
H6 C13 1_555 1_555
C14 N3 1_555 1_555
H7 C14 1_555 1_555
C15 N3 1_555 1_555
H8 C15 1_555 1_555
H9 C15 1_555 1_555
H10 C15 1_555 1_555
C16 C7 1_555 1_555
H11 C16 1_555 1_555
H12 C16 1_555 1_555
H13 C16 1_555 1_555
C1 C5 1_555 1_555
C11 C12 1_555 1_555
C13 C14 1_555 1_555

#END
