
#######################################################################
#
#                 Cambridge Crystallographic Data Centre
#                                CCDC 
#
#######################################################################
#
# If this CIF has been generated from an entry in the Cambridge 
# Structural Database, then it will include bibliographic, chemical, 
# crystal, experimental, refinement or atomic coordinate data resulting 
# from the CCDC's data processing and validation procedures.
#
#######################################################################

data_HEZFEA
_chemical_formula_moiety         'C19 H19 N1 O2'
_chemical_name_systematic        
(2-ethyl-6-methoxy-3-methyl-1H-indol-1-yl)(phenyl)methanone
_symmetry_cell_setting           orthorhombic
_symmetry_space_group_name_H-M   'P c a 21'
_symmetry_Int_Tables_number      29
_space_group_name_Hall           'P 2c -2ac'
loop_
_symmetry_equiv_pos_site_id
_symmetry_equiv_pos_as_xyz
1 x,y,z
2 -x,-y,1/2+z
3 1/2-x,y,1/2+z
4 1/2+x,-y,z
_cell_length_a                   15.855(3)
_cell_length_b                   10.658(2)
_cell_length_c                   18.466(4)
_cell_angle_alpha                90
_cell_angle_beta                 90
_cell_angle_gamma                90
_cell_volume                     3120.43
_exptl_crystal_colour            yellow
_exptl_crystal_description       block
_cell_formula_units_Z            8
loop_
_atom_site_label
_atom_site_type_symbol
_atom_site_fract_x
_atom_site_fract_y
_atom_site_fract_z
O1 O 1.01130(14) 0.5269(2) 0.50215(13)
O2 O 0.73868(14) 0.7812(2) 0.73357(13)
N1 N 0.93411(14) 0.4911(2) 0.60430(13)
C1 C 1.02021(19) 0.7891(3) 0.54114(19)
H1 H 1.0045 0.7789 0.4919
C2 C 1.0491(2) 0.9041(4) 0.5652(2)
H2 H 1.0521 0.9731 0.5327
C3 C 1.0738(2) 0.9188(3) 0.6367(2)
H3 H 1.0927 0.9983 0.6535
C4 C 1.0710(2) 0.8175(4) 0.6839(2)
H4 H 1.0900 0.8269 0.7323
C5 C 1.04044(19) 0.7023(3) 0.66022(18)
H5 H 1.0375 0.6334 0.6927
C6 C 1.01402(16) 0.6885(3) 0.58849(16)
C7 C 0.98646(18) 0.5650(3) 0.56043(16)
C8 C 0.86843(16) 0.5351(3) 0.64992(15)
C9 C 0.84201(18) 0.6567(3) 0.66647(16)
H6 H 0.8708 0.7284 0.6484
C10 C 0.77115(19) 0.6676(3) 0.71087(16)
C11 C 0.72774(19) 0.5622(3) 0.73629(17)
H7 H 0.6794 0.5724 0.7662
C12 C 0.75495(19) 0.4441(3) 0.71810(16)
H8 H 0.7253 0.3727 0.7355
C13 C 0.82531(19) 0.4279(3) 0.67449(16)
C14 C 0.86434(19) 0.3183(3) 0.64371(16)
C15 C 0.92883(18) 0.3572(3) 0.60057(17)
C16 C 0.9904(2) 0.2785(4) 0.5602(2)
H9 H 0.9970 0.3120 0.5105
H10 H 0.9683 0.1919 0.5564
C17 C 1.0774(2) 0.2756(4) 0.5977(3)
H11 H 1.0988 0.3614 0.6028
H12 H 1.1168 0.2263 0.5684
H13 H 1.0718 0.2372 0.6457
C18 C 0.7758(2) 0.8921(3) 0.70658(19)
H14 H 0.8359 0.8932 0.7189
H15 H 0.7480 0.9651 0.7283
H16 H 0.7693 0.8950 0.6538
C19 C 0.8375(2) 0.1874(3) 0.6596(2)
H17 H 0.8690 0.1291 0.6288
H18 H 0.7770 0.1786 0.6500
H19 H 0.8488 0.1682 0.7106
O3 O 0.14733(14) 0.8441(2) 0.86759(14)
O4 O 0.50868(12) 0.5728(2) 0.80982(12)
N2 N 0.28885(14) 0.8732(2) 0.88796(13)
C20 C 0.16999(19) 0.5800(3) 0.90152(17)
H20 H 0.1324 0.5936 0.8623
C21 C 0.1752(2) 0.4623(3) 0.93298(18)
H21 H 0.1418 0.3951 0.9151
C22 C 0.2293(2) 0.4433(3) 0.99039(19)
H22 H 0.2337 0.3622 1.0114
C23 C 0.2773(2) 0.5412(3) 1.01794(17)
H23 H 0.3130 0.5279 1.0585
C24 C 0.27272(17) 0.6589(3) 0.98571(16)
H24 H 0.3061 0.7259 1.0038
C25 C 0.21941(16) 0.6786(3) 0.92695(17)
C26 C 0.21352(17) 0.8030(3) 0.89163(18)
C27 C 0.36836(17) 0.8271(3) 0.86551(16)
C28 C 0.39314(18) 0.7045(3) 0.85086(15)
H25 H 0.3560 0.6355 0.8574
C29 C 0.47566(18) 0.6884(3) 0.82598(16)
C30 C 0.52978(18) 0.7905(3) 0.81555(17)
H26 H 0.5854 0.7769 0.7981
C31 C 0.5030(2) 0.9108(3) 0.83047(17)
H27 H 0.5400 0.9799 0.8237
C32 C 0.42088(18) 0.9305(3) 0.85566(16)
C33 C 0.37359(19) 1.0421(3) 0.87278(17)
C34 C 0.29390(19) 1.0069(3) 0.89003(17)
C35 C 0.2218(2) 1.0850(3) 0.9161(2)
H28 H 0.1715 1.0663 0.8863
H29 H 0.2359 1.1747 0.9094
C36 C 0.2006(3) 1.0617(4) 0.9960(2)
H30 H 0.1816 0.9749 1.0022
H31 H 0.1557 1.1192 1.0111
H32 H 0.2509 1.0762 1.0257
C37 C 0.45896(18) 0.4656(3) 0.82860(17)
H33 H 0.4439 0.4697 0.8800
H34 H 0.4914 0.3890 0.8194
H35 H 0.4074 0.4646 0.7993
C38 C 0.4083(2) 1.1726(3) 0.8696(2)
H36 H 0.4159 1.1973 0.8189
H37 H 0.4628 1.1753 0.8946
H38 H 0.3689 1.2305 0.8932
loop_
_geom_bond_atom_site_label_1
_geom_bond_atom_site_label_2
_geom_bond_site_symmetry_1
_geom_bond_site_symmetry_2
O1 C7 1_555 1_555
O2 C10 1_555 1_555
N1 C7 1_555 1_555
C1 H1 1_555 1_555
C2 C1 1_555 1_555
H2 C2 1_555 1_555
C3 C2 1_555 1_555
H3 C3 1_555 1_555
C4 C3 1_555 1_555
H4 C4 1_555 1_555
C5 C4 1_555 1_555
H5 C5 1_555 1_555
C6 C1 1_555 1_555
C7 C6 1_555 1_555
C8 N1 1_555 1_555
C9 C8 1_555 1_555
H6 C9 1_555 1_555
C10 C9 1_555 1_555
C11 C10 1_555 1_555
H7 C11 1_555 1_555
C12 C11 1_555 1_555
H8 C12 1_555 1_555
C13 C8 1_555 1_555
C14 C13 1_555 1_555
C15 N1 1_555 1_555
C16 C15 1_555 1_555
H9 C16 1_555 1_555
H10 C16 1_555 1_555
C17 C16 1_555 1_555
H11 C17 1_555 1_555
H12 C17 1_555 1_555
H13 C17 1_555 1_555
C18 O2 1_555 1_555
H14 C18 1_555 1_555
H15 C18 1_555 1_555
H16 C18 1_555 1_555
C19 C14 1_555 1_555
H17 C19 1_555 1_555
H18 C19 1_555 1_555
H19 C19 1_555 1_555
O3 C26 1_555 1_555
O4 C29 1_555 1_555
N2 C26 1_555 1_555
C20 H20 1_555 1_555
C21 C20 1_555 1_555
H21 C21 1_555 1_555
C22 C21 1_555 1_555
H22 C22 1_555 1_555
C23 C22 1_555 1_555
H23 C23 1_555 1_555
C24 C23 1_555 1_555
H24 C24 1_555 1_555
C25 C20 1_555 1_555
C26 C25 1_555 1_555
C27 N2 1_555 1_555
C28 C27 1_555 1_555
H25 C28 1_555 1_555
C29 C28 1_555 1_555
C30 C29 1_555 1_555
H26 C30 1_555 1_555
C31 C30 1_555 1_555
H27 C31 1_555 1_555
C32 C27 1_555 1_555
C33 C32 1_555 1_555
C34 N2 1_555 1_555
C35 C34 1_555 1_555
H28 C35 1_555 1_555
H29 C35 1_555 1_555
C36 C35 1_555 1_555
H30 C36 1_555 1_555
H31 C36 1_555 1_555
H32 C36 1_555 1_555
C37 O4 1_555 1_555
H33 C37 1_555 1_555
H34 C37 1_555 1_555
H35 C37 1_555 1_555
C38 C33 1_555 1_555
H36 C38 1_555 1_555
H37 C38 1_555 1_555
H38 C38 1_555 1_555
C5 C6 1_555 1_555
C12 C13 1_555 1_555
C14 C15 1_555 1_555
C24 C25 1_555 1_555
C31 C32 1_555 1_555
C33 C34 1_555 1_555

#END
