
#######################################################################
#
#                 Cambridge Crystallographic Data Centre
#                                CCDC 
#
#######################################################################
#
# If this CIF has been generated from an entry in the Cambridge 
# Structural Database, then it will include bibliographic, chemical, 
# crystal, experimental, refinement or atomic coordinate data resulting 
# from the CCDC's data processing and validation procedures.
#
#######################################################################

data_HEZGEA
_chemical_formula_moiety         'C88 H88 N22 O12,2(H2 O1),1.5(C1 H1 Cl3)'
_chemical_name_systematic        
"7,7'-(Pyridazine-3,6-diylbis(pyridine-6,2-diylcarbonylimino))bis(N-(7-((6-((2,2-dimethylpropanoyl)amino)pyridin-2-yl)carbamoyl)-5-isobutoxy-1,8-naphthyridin-2-yl)-4-isobutoxy-1,8-naphthyridine-2-carboxamide) chloroform solvate dihydrate"
_symmetry_cell_setting           monoclinic
_symmetry_space_group_name_H-M   'P 21/n'
_symmetry_Int_Tables_number      14
_space_group_name_Hall           '-P 2yn'
loop_
_symmetry_equiv_pos_site_id
_symmetry_equiv_pos_as_xyz
1 x,y,z
2 1/2-x,1/2+y,1/2-z
3 -x,-y,-z
4 1/2+x,1/2-y,1/2+z
_cell_length_a                   23.453(5)
_cell_length_b                   37.806(8)
_cell_length_c                   25.788(5)
_cell_angle_alpha                90
_cell_angle_beta                 115.10(3)
_cell_angle_gamma                90
_cell_volume                     20706.1
_exptl_crystal_colour            colorless
_exptl_crystal_description       needle
_cell_formula_units_Z            8
loop_
_atom_site_label
_atom_site_type_symbol
_atom_site_fract_x
_atom_site_fract_y
_atom_site_fract_z
Cl1 Cl 0.41555(18) 0.26472(11) 0.0329(2)
Cl2 Cl 0.3738(3) 0.33228(13) 0.0531(4)
Cl3 Cl 0.4548(2) 0.2921(2) 0.1465(2)
C1 C 0.3941(8) 0.2902(4) 0.0756(6)
H1 H 0.3574 0.2791 0.0777
N1 N 0.8100(3) 0.40897(14) 0.9377(2)
N2 N 0.5454(3) 0.26804(16) 0.9218(2)
H2 H 0.5719 0.2645 0.9073
N3 N 0.7712(3) 0.27417(17) 0.6855(3)
H3 H 0.7517 0.2704 0.7067
N4 N 0.6263(3) 0.38069(15) 0.9456(2)
N5 N 0.6774(3) 0.38386(18) 0.6591(3)
N6 N 0.7545(3) 0.21222(16) 0.7288(3)
N7 N 0.9003(3) 0.39275(15) 0.9296(3)
O1 O 0.6687(2) 0.46996(14) 0.9549(2)
N8 N 0.5817(3) 0.32474(15) 0.9337(2)
N9 N 0.7265(3) 0.32933(17) 0.6708(2)
N10 N 0.3276(3) 0.22077(17) 0.6121(3)
H4 H 0.3459 0.2318 0.5942
N11 N 0.7189(3) 0.41983(15) 0.9458(2)
H5 H 0.7161 0.3972 0.9460
N12 N 0.9907(3) 0.23117(16) 1.0123(3)
H6 H 0.9736 0.2428 1.0307
N13 N 0.9817(3) 0.34137(15) 0.9409(3)
H7 H 0.9544 0.3428 0.9548
C2 C 0.5798(3) 0.35905(18) 0.9480(3)
N14 N 0.9914(3) 0.28498(18) 0.9734(3)
O2 O 0.9303(3) 0.49756(12) 0.8982(3)
N15 N 0.4017(4) 0.38840(17) 0.6760(3)
N16 N 0.4908(4) 0.40638(16) 0.6709(2)
O3 O 1.0338(3) 0.37566(14) 0.9013(3)
C3 C 0.7706(4) 0.43378(18) 0.9379(3)
O4 O 0.8318(3) 0.24652(17) 0.6469(3)
O5 O 0.4918(3) 0.41926(16) 0.9978(3)
C4 C 0.6850(3) 0.21667(17) 0.7944(3)
H8 H 0.6960 0.2383 0.7840
C5 C 0.5337(3) 0.3719(2) 0.9648(3)
C6 C 0.6324(4) 0.18237(18) 0.8376(3)
C7 C 0.3239(3) 0.1860(2) 0.6049(4)
O6 O 0.3540(4) 0.49302(15) 0.6907(3)
O7 O 0.3108(3) 0.16563(15) 0.6351(3)
C8 C 0.6723(4) 0.4384(2) 0.9532(3)
N17 N 0.5725(3) 0.20788(14) 0.8843(2)
N18 N 0.3257(3) 0.33398(17) 0.6701(3)
H9 H 0.3588 0.3347 0.6635
C9 C 1.0466(4) 0.2394(2) 0.9508(4)
H10 H 1.0586 0.2157 0.9533
N19 N 0.5832(4) 0.42030(18) 0.6636(3)
H11 H 0.5910 0.3981 0.6696
O8 O 0.6250(3) 0.47169(15) 0.6458(3)
N20 N 0.6512(3) 0.15275(17) 0.8241(3)
C10 C 0.7673(5) 0.3769(2) 0.6342(4)
C11 C 0.8587(4) 0.41894(17) 0.9277(3)
C12 C 0.7906(4) 0.2118(2) 0.6992(4)
C13 C 0.6248(4) 0.41344(19) 0.9587(3)
C14 C 0.5335(4) 0.20546(19) 0.9091(3)
C15 C 0.8711(4) 0.45503(19) 0.9188(3)
C16 C 0.7795(4) 0.47030(19) 0.9315(3)
H12 H 0.7518 0.4869 0.9346
C17 C 0.7236(4) 0.3632(2) 0.6547(3)
O9 O 0.4762(3) 0.23873(14) 0.9490(3)
C18 C 0.9482(4) 0.40102(18) 0.9173(3)
N21 N 0.3231(3) 0.27651(18) 0.6445(3)
C19 C 0.6479(4) 0.21503(19) 0.8242(3)
H13 H 0.6339 0.2356 0.8348
C20 C 0.9845(4) 0.18291(19) 1.0736(4)
O10 O 0.8034(4) 0.42469(18) 0.6000(4)
O11 O 1.0093(3) 0.17568(15) 0.9926(3)
C21 C 0.7463(3) 0.1821(2) 0.7504(3)
C22 C 0.7693(4) 0.3091(2) 0.6666(3)
C23 C 0.5145(4) 0.23899(18) 0.9286(3)
C24 C 0.7053(4) 0.1846(2) 0.7804(3)
C25 C 0.2677(4) 0.2312(2) 0.6696(3)
H14 H 0.2579 0.2074 0.6703
C26 C 0.5188(6) 0.4691(2) 0.6735(4)
H15 H 0.5471 0.4862 0.6733
N22 N 0.6885(4) 0.15321(17) 0.7964(3)
C27 C 0.9952(3) 0.1966(2) 1.0217(4)
C28 C 0.9923(4) 0.3720(2) 0.9193(4)
C29 C 0.4893(3) 0.3143(2) 0.9506(3)
H16 H 0.4585 0.2985 0.9497
C30 C 0.8267(4) 0.48029(19) 0.9214(4)
H17 H 0.8318 0.5042 0.9157
C31 C 0.3357(4) 0.1719(2) 0.5541(4)
C32 C 0.5385(4) 0.3027(2) 0.9359(3)
O12 O 0.2590(4) 0.37037(16) 0.6901(3)
C33 C 0.2703(4) 0.1694(2) 0.5041(4)
H18 H 0.2742 0.1611 0.4706
H19 H 0.2509 0.1924 0.4967
H20 H 0.2447 0.1532 0.5138
C34 C 0.5367(4) 0.4082(2) 0.9805(4)
C35 C 0.5902(4) 0.17850(19) 0.8667(3)
C36 C 1.0093(3) 0.2518(2) 0.9769(3)
C37 C 1.0650(4) 0.2638(3) 0.9211(4)
H21 H 1.0894 0.2564 0.9026
C38 C 0.4390(5) 0.41532(19) 0.6766(3)
C39 C 0.7999(4) 0.2449(2) 0.6746(4)
C40 C 0.5113(5) 0.1728(2) 0.9180(4)
H22 H 0.4849 0.1716 0.9365
C41 C 0.9619(4) 0.4357(2) 0.9054(4)
H23 H 0.9961 0.4400 0.8970
C42 C 0.3011(4) 0.3005(2) 0.6696(3)
C43 C 0.5811(4) 0.4283(2) 0.9773(4)
H24 H 0.5838 0.4521 0.9873
C44 C 0.7609(6) 0.4136(3) 0.6194(4)
C45 C 0.6259(5) 0.4396(2) 0.6503(3)
C46 C 1.0077(3) 0.3085(2) 0.9442(3)
C47 C 0.8170(4) 0.1812(3) 0.6893(4)
H25 H 0.8412 0.1816 0.6685
C48 C 0.4878(4) 0.3483(2) 0.9656(3)
H26 H 0.4568 0.3560 0.9764
C49 C 0.3057(4) 0.2426(2) 0.6450(3)
C50 C 0.9234(4) 0.4631(2) 0.9066(3)
C51 C 0.4217(5) 0.4515(2) 0.6800(4)
C52 C 0.3656(6) 0.4580(2) 0.6853(4)
C53 C 1.0480(4) 0.2990(2) 0.9184(4)
H27 H 1.0624 0.3157 0.9004
C54 C 0.5284(5) 0.4327(2) 0.6686(3)
C55 C 0.7152(6) 0.4336(3) 0.6244(4)
H28 H 0.7108 0.4575 0.6148
C56 C 0.9823(5) 0.5461(2) 0.8778(4)
H29 H 0.9406 0.5544 0.8510
C57 C 0.3477(5) 0.39627(19) 0.6793(4)
C58 C 0.3005(8) 0.5418(3) 0.7040(8)
H30 H 0.2626 0.5483 0.7088
C59 C 0.5680(5) 0.1445(2) 0.8740(4)
H31 H 0.5802 0.1239 0.8617
C60 C 0.3285(5) 0.4313(3) 0.6856(4)
H32 H 0.2915 0.4353 0.6898
C61 C 0.3044(5) 0.3659(2) 0.6795(4)
C62 C 0.4979(5) 0.4547(2) 1.0180(5)
H33 H 0.4926 0.4713 0.9875
H34 H 0.5389 0.4585 1.0495
C63 C 0.8145(4) 0.3212(3) 0.6469(4)
H35 H 0.8442 0.3058 0.6444
C64 C 0.2981(7) 0.5021(3) 0.6991(6)
H36 H 0.2994 0.4913 0.7337
H37 H 0.2601 0.4944 0.6668
C65 C 0.9799(5) 0.5072(2) 0.8828(5)
H38 H 0.9730 0.4963 0.8466
H39 H 1.0197 0.4987 0.9117
C66 C 0.2612(4) 0.2928(2) 0.6943(4)
H40 H 0.2459 0.3102 0.7106
C67 C 0.9436(5) 0.1498(2) 1.0556(4)
H41 H 0.9029 0.1558 1.0264
H42 H 0.9391 0.1403 1.0882
H43 H 0.9631 0.1326 1.0411
C68 C 0.5278(5) 0.1438(2) 0.9004(4)
H44 H 0.5120 0.1222 0.9057
C69 C 0.9494(6) 0.2104(3) 1.0940(4)
H45 H 0.9742 0.2316 1.1060
H46 H 0.9429 0.2008 1.1255
H47 H 0.9095 0.2159 1.0631
C70 C 0.7696(4) 0.1502(2) 0.7419(4)
H48 H 0.7611 0.1293 0.7562
C71 C 0.2447(4) 0.2570(2) 0.6935(3)
H49 H 0.2175 0.2505 0.7096
C72 C 0.4651(6) 0.4774(2) 0.6787(4)
H50 H 0.4563 0.5011 0.6815
C73 C 0.3676(5) 0.1352(2) 0.5688(4)
H51 H 0.3750 0.1267 0.5371
H52 H 0.3406 0.1189 0.5764
H53 H 0.4070 0.1371 0.6021
C74 C 0.8128(5) 0.3542(3) 0.6327(4)
H54 H 0.8428 0.3629 0.6212
C75 C 0.3787(5) 0.1963(2) 0.5385(5)
H55 H 0.3842 0.1864 0.5066
H56 H 0.4189 0.1983 0.5707
H57 H 0.3598 0.2192 0.5284
C76 C 0.6742(4) 0.4167(2) 0.6446(3)
C77 C 0.7976(9) 0.4626(3) 0.5821(9)
H58 H 0.7976 0.4782 0.6119
H59 H 0.7599 0.4667 0.5472
C78 C 0.3494(8) 0.5555(3) 0.7511(6)
H60 H 0.3502 0.5447 0.7851
H61 H 0.3440 0.5805 0.7527
H62 H 0.3884 0.5508 0.7486
C79 C 1.0475(4) 0.1745(3) 1.1192(4)
H63 H 1.0727 0.1956 1.1297
H64 H 1.0676 0.1571 1.1053
H65 H 1.0431 0.1653 1.1520
C80 C 0.8063(5) 0.1504(3) 0.7111(5)
H66 H 0.8234 0.1293 0.7055
C81 C 0.9988(6) 0.5631(2) 0.9361(4)
H67 H 0.9983 0.5884 0.9324
H68 H 1.0400 0.5555 0.9626
H69 H 0.9685 0.5561 0.9500
C82 C 1.0291(7) 0.5552(3) 0.8536(7)
H70 H 1.0309 0.5804 0.8501
H71 H 1.0162 0.5445 0.8166
H72 H 1.0700 0.5466 0.8789
C83 C 0.3820(7) 0.4639(6) 0.9770(12)
H73 H 0.3914 0.4815 0.9548
H74 H 0.3459 0.4712 0.9827
H75 H 0.3733 0.4417 0.9570
C84 C 0.2924(9) 0.5593(3) 0.6475(6)
H76 H 0.2554 0.5500 0.6167
H77 H 0.3286 0.5544 0.6405
H78 H 0.2881 0.5844 0.6502
C85 C 0.4424(6) 0.4594(4) 1.0390(9)
H79 H 0.4491 0.4833 1.0552
C86 C 0.8634(11) 0.4677(4) 0.5715(10)
H80 H 0.8652 0.4922 0.5599
C87 C 0.4533(14) 0.4373(5) 1.0869(13)
H81 H 0.4211 0.4413 1.1000
H82 H 0.4937 0.4426 1.1171
H83 H 0.4524 0.4129 1.0758
C88 C 0.8508(13) 0.4440(6) 0.5209(10)
H84 H 0.8152 0.4528 0.4882
H85 H 0.8421 0.4204 0.5295
H86 H 0.8871 0.4436 0.5127
C89 C 0.9230(12) 0.4603(18) 0.628(2)
H87 H 0.9247 0.4770 0.6569
H88 H 0.9600 0.4626 0.6215
H89 H 0.9208 0.4368 0.6412
Cl4 Cl 0.6407(2) 0.55713(9) 0.72648(17)
Cl5 Cl 0.7599(3) 0.55942(12) 0.8239(2)
Cl6 Cl 0.6638(4) 0.56065(14) 0.8465(2)
C90 C 0.6842(8) 0.5405(4) 0.7966(6)
H90 H 0.6846 0.5146 0.7987
O13 O 0.3645(3) 0.18669(14) 0.7934(2)
N23 N 0.4738(3) 0.28723(18) 0.7694(3)
N24 N 0.4898(3) 0.23305(18) 0.7374(3)
O14 O 0.6552(3) 0.12745(17) 1.0453(3)
N25 N 0.5443(3) 0.19612(15) 0.6815(3)
H91 H 0.5461 0.2186 0.6874
O15 O 0.7515(3) 0.24166(19) 0.5064(3)
N26 N 0.6551(3) 0.22602(17) 0.5800(3)
N27 N 0.5993(3) 0.20893(17) 0.6302(3)
O16 O 0.5037(3) 0.14541(17) 0.7010(2)
N28 N 0.7478(3) 0.21785(19) 0.9779(3)
N29 N 0.6650(3) 0.3430(2) 1.0883(3)
O17 O 0.8424(3) 0.15461(17) 0.9059(3)
N30 N 0.4635(3) 0.34330(18) 0.7994(3)
H92 H 0.4966 0.3484 0.7945
N31 N 0.6930(3) 0.2790(2) 0.5354(3)
H93 H 0.6728 0.2795 0.5565
N32 N 0.6362(3) 0.28596(19) 1.0630(3)
H94 H 0.6565 0.2878 1.0421
O18 O 0.5841(3) 0.24624(17) 1.0910(3)
C91 C 0.5859(4) 0.1462(2) 0.6458(4)
H95 H 0.5704 0.1294 0.6629
N33 N 0.6530(4) 0.3338(2) 0.5078(3)
N34 N 0.8646(3) 0.2971(2) 0.8296(3)
C92 C 0.4067(4) 0.2004(2) 0.7759(4)
C93 C 0.4354(4) 0.1810(2) 0.7496(3)
H96 H 0.4274 0.1569 0.7430
N35 N 0.8544(3) 0.2432(2) 0.8676(3)
N36 N 0.5224(4) 0.40528(17) 0.8135(3)
N37 N 0.7078(4) 0.3971(2) 1.1171(3)
H97 H 0.7403 0.3881 1.1146
C94 C 0.6581(4) 0.3743(2) 1.1091(4)
C95 C 0.4163(4) 0.2373(2) 0.7826(3)
N38 N 0.8074(3) 0.20592(18) 0.9294(3)
H98 H 0.8094 0.2286 0.9272
C96 C 0.5089(4) 0.1772(2) 0.7038(3)
N39 N 0.5988(5) 0.3857(2) 0.4799(3)
H99 H 0.5757 0.3756 0.4939
C97 C 0.6261(4) 0.3176(2) 1.0849(3)
N40 N 0.6853(3) 0.23402(18) 1.0229(3)
N41 N 0.8040(5) 0.4103(2) 0.7828(3)
C98 C 0.7667(4) 0.1566(2) 0.9650(4)
H100 H 0.7864 0.1401 0.9512
C99 C 0.4605(4) 0.2521(2) 0.7624(3)
O19 O 0.6810(3) 0.12073(19) 0.5494(3)
C100 C 0.4785(4) 0.1986(2) 0.7322(3)
C101 C 0.6071(5) 0.3808(3) 1.1244(4)
H101 H 0.6012 0.4030 1.1371
C102 C 0.4007(4) 0.2949(3) 0.8124(3)
H102 H 0.3812 0.3104 0.8279
C103 C 0.6406(6) 0.4019(2) 0.8077(3)
H103 H 0.6248 0.3806 0.8144
C104 C 0.8674(4) 0.2082(3) 0.8738(3)
C105 C 0.7163(7) 0.4353(3) 0.7909(3)
C106 C 0.6983(4) 0.3108(3) 0.5129(3)
C107 C 0.4459(4) 0.3064(2) 0.7927(4)
C108 C 0.6415(4) 0.1627(2) 0.5910(4)
C109 C 0.6486(4) 0.2245(2) 1.0469(4)
C110 C 0.6326(4) 0.1992(2) 0.6010(3)
C111 C 0.5533(6) 0.4355(2) 0.8173(4)
C112 C 0.6118(6) 0.4333(2) 0.8076(4)
C113 C 0.6891(4) 0.2171(2) 0.5511(4)
C114 C 0.6924(6) 0.4025(2) 0.7979(4)
H104 H 0.7122 0.3816 0.7958
N42 N 0.6341(5) 0.4647(2) 0.8032(3)
O20 O 0.9720(4) 0.1956(2) 0.8031(3)
C115 C 0.5773(4) 0.1840(2) 0.6510(3)
C116 C 0.3467(5) 0.1502(2) 0.7801(4)
H105 H 0.3827 0.1349 0.7995
H106 H 0.3309 0.1462 0.7392
C117 C 0.5742(5) 0.3220(3) 1.1012(4)
H107 H 0.5468 0.3036 1.0988
N43 N 0.6852(5) 0.4659(2) 0.7933(3)
C118 C 0.3879(4) 0.2592(2) 0.8069(4)
H108 H 0.3596 0.2498 0.8198
C119 C 0.9191(4) 0.2455(3) 0.8157(4)
N44 N 0.8679(4) 0.3506(2) 0.7954(3)
H109 H 0.8386 0.3559 0.8058
C120 C 0.5685(5) 0.3540(3) 1.1198(4)
H110 H 0.5356 0.3579 1.1303
C121 C 0.7720(4) 0.1926(2) 0.9579(4)
C122 C 0.9336(5) 0.2075(3) 0.8246(4)
C123 C 0.8386(4) 0.1867(3) 0.9051(4)
C124 C 0.7148(5) 0.2465(2) 0.5296(4)
C125 C 0.7125(4) 0.2076(2) 1.0040(3)
C126 C 0.7029(4) 0.1708(2) 1.0130(4)
O21 O 0.3862(4) 0.36890(18) 0.8194(3)
C127 C 0.6513(5) 0.3660(3) 0.4862(4)
C128 C 0.4693(6) 0.4058(2) 0.8195(4)
O22 O 0.6635(5) 0.4481(2) 1.1248(4)
C129 C 0.9070(5) 0.1906(3) 0.8545(4)
H111 H 0.9151 0.1667 0.8625
C130 C 0.8891(5) 0.3160(3) 0.8017(4)
C131 C 0.6614(4) 0.1627(2) 1.0398(4)
C132 C 0.7313(5) 0.1463(2) 0.9929(4)
H112 H 0.7265 0.1224 0.9983
C133 C 0.9432(5) 0.2671(4) 0.7838(5)
H113 H 0.9687 0.2573 0.7681
C134 C 0.8816(4) 0.2614(3) 0.8368(4)
C135 C 0.6196(4) 0.2537(3) 1.0691(4)
C136 C 0.6760(4) 0.1547(3) 0.5588(4)
C137 C 0.7730(5) 0.4509(3) 1.1421(4)
C138 C 0.6999(4) 0.1827(3) 0.5390(4)
H114 H 0.7229 0.1784 0.5179
C139 C 0.7034(7) 0.0682(3) 0.5048(6)
H115 H 0.7286 0.0576 0.5424
C140 C 0.8278(6) 0.4289(3) 1.1840(5)
H116 H 0.8280 0.4062 1.1674
H117 H 0.8230 0.4257 1.2189
H118 H 0.8667 0.4409 1.1921
O23 O 0.9304(4) 0.3767(2) 0.7531(4)
C141 C 0.6991(7) 0.3767(3) 0.4679(4)
H119 H 0.6981 0.3986 0.4511
O24 O 0.6102(6) 0.4350(2) 0.4395(4)
C142 C 0.6352(4) 0.1886(2) 1.0570(4)
H120 H 0.6091 0.1838 1.0750
C143 C 0.2952(7) 0.1422(3) 0.8003(5)
H121 H 0.2842 0.1172 0.7915
C144 C 0.9281(4) 0.3022(4) 0.7767(4)
H122 H 0.9430 0.3168 0.7561
C145 C 0.7095(5) 0.4314(3) 1.1281(4)
C146 C 0.7478(5) 0.3200(3) 0.4959(4)
H123 H 0.7789 0.3039 0.4984
C147 C 0.4410(6) 0.4366(3) 0.8294(4)
H124 H 0.4020 0.4362 0.8309
C148 C 0.6158(5) 0.1374(2) 0.6165(4)
H125 H 0.6211 0.1135 0.6114
C149 C 0.7723(7) 0.4386(3) 0.7781(4)
C150 C 0.4601(6) 0.4046(3) 0.4229(5)
H126 H 0.4706 0.3826 0.4435
H127 H 0.4562 0.4009 0.3847
H128 H 0.4210 0.4133 0.4214
C151 C 0.7053(6) 0.1111(3) 0.5088(7)
H129 H 0.7481 0.1195 0.5213
H130 H 0.6796 0.1213 0.4716
C152 C 0.7466(7) 0.3522(4) 0.4767(5)
H131 H 0.7799 0.3592 0.4684
C153 C 0.4754(7) 0.4671(3) 0.8369(4)
H132 H 0.4621 0.4877 0.8481
C154 C 0.5288(7) 0.4677(3) 0.8280(4)
H133 H 0.5490 0.4890 0.8289
C155 C 0.7686(8) 0.4888(4) 1.1676(6)
H134 H 0.7326 0.5013 1.1406
H135 H 0.8061 0.5020 1.1746
H136 H 0.7646 0.4858 1.2028
C156 C 0.7814(6) 0.4558(3) 1.0879(5)
H137 H 0.7474 0.4698 1.0613
H138 H 0.7817 0.4332 1.0712
H139 H 0.8206 0.4677 1.0965
C157 C 0.5121(7) 0.4316(3) 0.4534(5)
C158 C 0.8408(7) 0.4737(4) 0.7502(6)
H140 H 0.8542 0.4948 0.7404
C159 C 0.4352(6) 0.3713(2) 0.8125(4)
C160 C 0.7898(8) 0.4726(3) 0.7627(5)
H141 H 0.7668 0.4929 0.7613
C161 C 0.8707(7) 0.4434(4) 0.7528(5)
H142 H 0.9046 0.4437 0.7430
C162 C 0.8548(7) 0.4122(3) 0.7687(5)
C163 C 0.6154(7) 0.1172(3) 1.0742(6)
H143 H 0.5716 0.1232 1.0514
H144 H 0.6296 0.1282 1.1116
C164 C 0.6370(6) 0.0564(3) 0.4827(6)
H145 H 0.6352 0.0312 0.4790
H146 H 0.6132 0.0670 0.4459
H147 H 0.6197 0.0635 0.5088
C165 C 0.3216(8) 0.1455(4) 0.8636(5)
H148 H 0.3583 0.1308 0.8807
H149 H 0.2906 0.1380 0.8765
H150 H 0.3328 0.1697 0.8744
C166 C 0.2341(6) 0.1636(4) 0.7649(6)
H151 H 0.2211 0.1592 0.7248
H152 H 0.2422 0.1884 0.7725
H153 H 0.2013 0.1564 0.7756
C167 C 0.9932(8) 0.1603(4) 0.8202(7)
H154 H 0.9629 0.1430 0.7964
H155 H 1.0024 0.1561 0.8601
C168 C 0.5202(7) 0.4358(3) 0.5147(5)
H156 H 0.5305 0.4133 0.5337
H157 H 0.4817 0.4444 0.5147
H158 H 0.5535 0.4523 0.5344
C169 C 0.5765(9) 0.4183(3) 0.4554(4)
C170 C 0.4950(8) 0.4661(3) 0.4223(5)
H159 H 0.4922 0.4632 0.3843
H160 H 0.5267 0.4834 0.4425
H161 H 0.4551 0.4740 0.4202
C171 C 0.8921(7) 0.3779(3) 0.7724(5)
C172 C 0.6264(12) 0.0740(4) 1.0793(10)
H162 H 0.5973 0.0683 1.0964
C173 C 1.0546(9) 0.1605(5) 0.8098(8)
H163 H 1.0725 0.1380 0.8283
C174 C 0.7322(11) 0.0603(5) 0.4631(12)
H164 H 0.7738 0.0702 0.4774
H165 H 0.7065 0.0705 0.4265
H166 H 0.7345 0.0351 0.4590
C175 C 0.5862(14) 0.0624(6) 1.0200(11)
H167 H 0.5848 0.0370 1.0185
H168 H 0.6034 0.0711 0.9947
H169 H 0.5444 0.0715 1.0084
C176 C 1.1113(10) 0.1846(6) 0.8443(10)
H170 H 1.1004 0.2002 0.8680
H171 H 1.1222 0.1982 0.8184
H172 H 1.1466 0.1703 0.8679
C177 C 0.687(2) 0.0596(12) 1.1277(17)
H173 H 0.6861 0.0342 1.1273
H174 H 0.6905 0.0680 1.1639
H175 H 0.7230 0.0675 1.1219
C178 C 1.0179(13) 0.1470(7) 0.7506(11)
H176 H 0.9750 0.1433 0.7443
H177 H 1.0357 0.1251 0.7458
H178 H 1.0193 0.1640 0.7235
O25 O 0.5826(3) 0.31963(17) 0.7708(3)
O26 O 0.6554(3) 0.29624(17) 0.8798(3)
O27 O 0.6795(3) 0.30045(16) 0.7456(3)
Cl7 Cl 0.6274(5) 0.06655(16) 0.7768(3)
Cl8 Cl 0.6902(6) 0.06309(17) 0.8979(3)
Cl9 Cl 0.7532(5) 0.04938(19) 0.8353(4)
C179 C 0.6855(12) 0.0711(4) 0.8345(6)
H179 H 0.6958 0.0963 0.8356
O28 O 0.7568(4) 0.3158(4) 0.8564(5)
loop_
_geom_bond_atom_site_label_1
_geom_bond_atom_site_label_2
_geom_bond_site_symmetry_1
_geom_bond_site_symmetry_2
Cl1 C1 1_555 1_555
Cl2 C1 1_555 1_555
Cl3 C1 1_555 1_555
C1 H1 1_555 1_555
N1 C3 1_555 1_555
N2 H2 1_555 1_555
N3 H3 1_555 1_555
N4 C2 1_555 1_555
N5 C17 1_555 1_555
N6 C12 1_555 1_555
N7 C11 1_555 1_555
O1 C8 1_555 1_555
N8 C2 1_555 1_555
N9 C17 1_555 1_555
N10 H4 1_555 1_555
N11 H5 1_555 1_555
N12 H6 1_555 1_555
N13 H7 1_555 1_555
C2 C5 1_555 1_555
N14 C36 1_555 1_555
O2 C50 1_555 1_555
N15 C38 1_555 1_555
N16 C38 1_555 1_555
O3 C28 1_555 1_555
C3 N11 1_555 1_555
O4 C39 1_555 1_555
O5 C34 1_555 1_555
C4 H8 1_555 1_555
C5 C34 1_555 1_555
C6 N20 1_555 1_555
C7 N10 1_555 1_555
O6 C52 1_555 1_555
O7 C7 1_555 1_555
C8 N11 1_555 1_555
N17 C14 1_555 1_555
N18 H9 1_555 1_555
C9 H10 1_555 1_555
N19 H11 1_555 1_555
O8 C45 1_555 1_555
N20 N22 1_555 1_555
C10 C17 1_555 1_555
C11 N1 1_555 1_555
C12 C39 1_555 1_555
C13 N4 1_555 1_555
C14 C23 1_555 1_555
C15 C11 1_555 1_555
C16 C3 1_555 1_555
H12 C16 1_555 1_555
O9 C23 1_555 1_555
C18 N7 1_555 1_555
N21 C42 1_555 1_555
C19 C4 1_555 1_555
H13 C19 1_555 1_555
C20 C27 1_555 1_555
O10 C44 1_555 1_555
O11 C27 1_555 1_555
C21 N6 1_555 1_555
C22 N3 1_555 1_555
C23 N2 1_555 1_555
C24 C4 1_555 1_555
C25 H14 1_555 1_555
C26 H15 1_555 1_555
N22 C24 1_555 1_555
C27 N12 1_555 1_555
C28 N13 1_555 1_555
C29 H16 1_555 1_555
C30 C15 1_555 1_555
H17 C30 1_555 1_555
C31 C7 1_555 1_555
C32 N2 1_555 1_555
O12 C61 1_555 1_555
C33 C31 1_555 1_555
H18 C33 1_555 1_555
H19 C33 1_555 1_555
H20 C33 1_555 1_555
C34 C43 1_555 1_555
C35 C6 1_555 1_555
C36 N12 1_555 1_555
C37 C9 1_555 1_555
H21 C37 1_555 1_555
C38 C51 1_555 1_555
C39 N3 1_555 1_555
C40 C14 1_555 1_555
H22 C40 1_555 1_555
C41 C18 1_555 1_555
H23 C41 1_555 1_555
C42 N18 1_555 1_555
C43 C13 1_555 1_555
H24 C43 1_555 1_555
C44 C10 1_555 1_555
C45 N19 1_555 1_555
C46 N13 1_555 1_555
C47 C12 1_555 1_555
H25 C47 1_555 1_555
C48 C5 1_555 1_555
H26 C48 1_555 1_555
C49 N10 1_555 1_555
C50 C15 1_555 1_555
C51 C52 1_555 1_555
C52 C60 1_555 1_555
C53 C37 1_555 1_555
H27 C53 1_555 1_555
C54 N16 1_555 1_555
C55 C44 1_555 1_555
H28 C55 1_555 1_555
C56 H29 1_555 1_555
C57 N15 1_555 1_555
C58 H30 1_555 1_555
C59 C35 1_555 1_555
H31 C59 1_555 1_555
C60 C57 1_555 1_555
H32 C60 1_555 1_555
C61 N18 1_555 1_555
C62 O5 1_555 1_555
H33 C62 1_555 1_555
H34 C62 1_555 1_555
C63 C22 1_555 1_555
H35 C63 1_555 1_555
C64 O6 1_555 1_555
H36 C64 1_555 1_555
H37 C64 1_555 1_555
C65 O2 1_555 1_555
H38 C65 1_555 1_555
H39 C65 1_555 1_555
C66 C42 1_555 1_555
H40 C66 1_555 1_555
C67 C20 1_555 1_555
H41 C67 1_555 1_555
H42 C67 1_555 1_555
H43 C67 1_555 1_555
C68 C40 1_555 1_555
H44 C68 1_555 1_555
C69 C20 1_555 1_555
H45 C69 1_555 1_555
H46 C69 1_555 1_555
H47 C69 1_555 1_555
C70 C21 1_555 1_555
H48 C70 1_555 1_555
C71 C25 1_555 1_555
H49 C71 1_555 1_555
C72 C26 1_555 1_555
H50 C72 1_555 1_555
C73 C31 1_555 1_555
H51 C73 1_555 1_555
H52 C73 1_555 1_555
H53 C73 1_555 1_555
C74 C10 1_555 1_555
H54 C74 1_555 1_555
C75 C31 1_555 1_555
H55 C75 1_555 1_555
H56 C75 1_555 1_555
H57 C75 1_555 1_555
C76 N5 1_555 1_555
C77 O10 1_555 1_555
H58 C77 1_555 1_555
H59 C77 1_555 1_555
C78 C58 1_555 1_555
H60 C78 1_555 1_555
H61 C78 1_555 1_555
H62 C78 1_555 1_555
C79 C20 1_555 1_555
H63 C79 1_555 1_555
H64 C79 1_555 1_555
H65 C79 1_555 1_555
C80 C47 1_555 1_555
H66 C80 1_555 1_555
C81 C56 1_555 1_555
H67 C81 1_555 1_555
H68 C81 1_555 1_555
H69 C81 1_555 1_555
C82 C56 1_555 1_555
H70 C82 1_555 1_555
H71 C82 1_555 1_555
H72 C82 1_555 1_555
C83 H73 1_555 1_555
H74 C83 1_555 1_555
H75 C83 1_555 1_555
C84 C58 1_555 1_555
H76 C84 1_555 1_555
H77 C84 1_555 1_555
H78 C84 1_555 1_555
C85 C62 1_555 1_555
H79 C85 1_555 1_555
C86 C77 1_555 1_555
H80 C86 1_555 1_555
C87 C85 1_555 1_555
H81 C87 1_555 1_555
H82 C87 1_555 1_555
H83 C87 1_555 1_555
C88 C86 1_555 1_555
H84 C88 1_555 1_555
H85 C88 1_555 1_555
H86 C88 1_555 1_555
C89 C86 1_555 1_555
H87 C89 1_555 1_555
H88 C89 1_555 1_555
H89 C89 1_555 1_555
Cl4 C90 1_555 1_555
Cl5 C90 1_555 1_555
Cl6 C90 1_555 1_555
C90 H90 1_555 1_555
O13 C92 1_555 1_555
N23 C99 1_555 1_555
N24 C99 1_555 1_555
O14 C131 1_555 1_555
N25 H91 1_555 1_555
O15 C124 1_555 1_555
N26 C110 1_555 1_555
N27 C110 1_555 1_555
O16 C96 1_555 1_555
N28 C121 1_555 1_555
N29 C94 1_555 1_555
O17 C123 1_555 1_555
N30 H92 1_555 1_555
N31 H93 1_555 1_555
N32 H94 1_555 1_555
O18 C135 1_555 1_555
C91 H95 1_555 1_555
N33 C106 1_555 1_555
N34 C130 1_555 1_555
C92 C93 1_555 1_555
C93 H96 1_555 1_555
N35 C104 1_555 1_555
N36 C111 1_555 1_555
N37 H97 1_555 1_555
C94 N37 1_555 1_555
C95 C92 1_555 1_555
N38 H98 1_555 1_555
C96 N25 1_555 1_555
N39 H99 1_555 1_555
C97 N29 1_555 1_555
N40 C109 1_555 1_555
N41 C149 1_555 1_555
C98 H100 1_555 1_555
C99 C95 1_555 1_555
O19 C136 1_555 1_555
C100 N24 1_555 1_555
C101 C94 1_555 1_555
H101 C101 1_555 1_555
C102 H102 1_555 1_555
C103 H103 1_555 1_555
C104 C123 1_555 1_555
C105 C114 1_555 1_555
C106 N31 1_555 1_555
C107 N23 1_555 1_555
C108 C110 1_555 1_555
C109 C135 1_555 1_555
C111 C112 1_555 1_555
C112 C103 1_555 1_555
C113 N26 1_555 1_555
C114 C103 1_555 1_555
H104 C114 1_555 1_555
N42 C112 1_555 1_555
O20 C122 1_555 1_555
C115 N25 1_555 1_555
C116 O13 1_555 1_555
H105 C116 1_555 1_555
H106 C116 1_555 1_555
C117 C97 1_555 1_555
H107 C117 1_555 1_555
N43 C105 1_555 1_555
C118 C95 1_555 1_555
H108 C118 1_555 1_555
C119 C122 1_555 1_555
N44 H109 1_555 1_555
C120 C101 1_555 1_555
H110 C120 1_555 1_555
C121 N38 1_555 1_555
C122 C129 1_555 1_555
C123 N38 1_555 1_555
C124 N31 1_555 1_555
C125 N28 1_555 1_555
C126 C125 1_555 1_555
O21 C159 1_555 1_555
C127 N33 1_555 1_555
C128 N36 1_555 1_555
O22 C145 1_555 1_555
C129 C104 1_555 1_555
H111 C129 1_555 1_555
C130 N44 1_555 1_555
C131 C126 1_555 1_555
C132 C98 1_555 1_555
H112 C132 1_555 1_555
C133 C119 1_555 1_555
H113 C133 1_555 1_555
C134 N34 1_555 1_555
C135 N32 1_555 1_555
C136 C108 1_555 1_555
C137 C140 1_555 1_555
C138 C113 1_555 1_555
H114 C138 1_555 1_555
C139 H115 1_555 1_555
C140 H116 1_555 1_555
H117 C140 1_555 1_555
H118 C140 1_555 1_555
O23 C171 1_555 1_555
C141 C127 1_555 1_555
H119 C141 1_555 1_555
O24 C169 1_555 1_555
C142 C109 1_555 1_555
H120 C142 1_555 1_555
C143 C116 1_555 1_555
H121 C143 1_555 1_555
C144 C130 1_555 1_555
H122 C144 1_555 1_555
C145 N37 1_555 1_555
C146 C106 1_555 1_555
H123 C146 1_555 1_555
C147 C128 1_555 1_555
H124 C147 1_555 1_555
C148 C91 1_555 1_555
H125 C148 1_555 1_555
C149 C105 1_555 1_555
C150 H126 1_555 1_555
H127 C150 1_555 1_555
H128 C150 1_555 1_555
C151 O19 1_555 1_555
H129 C151 1_555 1_555
H130 C151 1_555 1_555
C152 C141 1_555 1_555
H131 C152 1_555 1_555
C153 C147 1_555 1_555
H132 C153 1_555 1_555
C154 C111 1_555 1_555
H133 C154 1_555 1_555
C155 C137 1_555 1_555
H134 C155 1_555 1_555
H135 C155 1_555 1_555
H136 C155 1_555 1_555
C156 C137 1_555 1_555
H137 C156 1_555 1_555
H138 C156 1_555 1_555
H139 C156 1_555 1_555
C157 C150 1_555 1_555
C158 H140 1_555 1_555
C159 N30 1_555 1_555
C160 C149 1_555 1_555
H141 C160 1_555 1_555
C161 C158 1_555 1_555
H142 C161 1_555 1_555
C162 N41 1_555 1_555
C163 O14 1_555 1_555
H143 C163 1_555 1_555
H144 C163 1_555 1_555
C164 C139 1_555 1_555
H145 C164 1_555 1_555
H146 C164 1_555 1_555
H147 C164 1_555 1_555
C165 C143 1_555 1_555
H148 C165 1_555 1_555
H149 C165 1_555 1_555
H150 C165 1_555 1_555
C166 C143 1_555 1_555
H151 C166 1_555 1_555
H152 C166 1_555 1_555
H153 C166 1_555 1_555
C167 O20 1_555 1_555
H154 C167 1_555 1_555
H155 C167 1_555 1_555
C168 C157 1_555 1_555
H156 C168 1_555 1_555
H157 C168 1_555 1_555
H158 C168 1_555 1_555
C169 N39 1_555 1_555
C170 C157 1_555 1_555
H159 C170 1_555 1_555
H160 C170 1_555 1_555
H161 C170 1_555 1_555
C171 N44 1_555 1_555
C172 C163 1_555 1_555
H162 C172 1_555 1_555
C173 C167 1_555 1_555
H163 C173 1_555 1_555
C174 C139 1_555 1_555
H164 C174 1_555 1_555
H165 C174 1_555 1_555
H166 C174 1_555 1_555
C175 C172 1_555 1_555
H167 C175 1_555 1_555
H168 C175 1_555 1_555
H169 C175 1_555 1_555
C176 C173 1_555 1_555
H170 C176 1_555 1_555
H171 C176 1_555 1_555
H172 C176 1_555 1_555
C177 C172 1_555 1_555
H173 C177 1_555 1_555
H174 C177 1_555 1_555
H175 C177 1_555 1_555
C178 C173 1_555 1_555
H176 C178 1_555 1_555
H177 C178 1_555 1_555
H178 C178 1_555 1_555
Cl7 C179 1_555 1_555
Cl8 C179 1_555 1_555
Cl9 C179 1_555 1_555
C179 H179 1_555 1_555
N8 C32 1_555 1_555
N9 C22 1_555 1_555
N14 C46 1_555 1_555
C6 C19 1_555 1_555
C8 C13 1_555 1_555
N17 C35 1_555 1_555
C9 C36 1_555 1_555
N19 C54 1_555 1_555
C16 C30 1_555 1_555
C18 C28 1_555 1_555
N21 C49 1_555 1_555
C21 C24 1_555 1_555
C25 C49 1_555 1_555
C26 C54 1_555 1_555
C29 C32 1_555 1_555
C29 C48 1_555 1_555
C41 C50 1_555 1_555
C45 C76 1_555 1_555
C46 C53 1_555 1_555
C51 C72 1_555 1_555
C55 C76 1_555 1_555
C56 C65 1_555 1_555
C57 C61 1_555 1_555
C58 C64 1_555 1_555
C59 C68 1_555 1_555
C63 C74 1_555 1_555
C66 C71 1_555 1_555
C70 C80 1_555 1_555
C83 C85 1_555 1_555
N27 C115 1_555 1_555
N30 C107 1_555 1_555
N32 C97 1_555 1_555
C91 C115 1_555 1_555
C93 C100 1_555 1_555
N35 C134 1_555 1_555
C96 C100 1_555 1_555
N39 C127 1_555 1_555
N40 C125 1_555 1_555
C98 C121 1_555 1_555
C102 C107 1_555 1_555
C102 C118 1_555 1_555
C108 C148 1_555 1_555
C113 C124 1_555 1_555
N42 N43 1_555 1_555
C117 C120 1_555 1_555
C119 C134 1_555 1_555
C126 C132 1_555 1_555
C128 C159 1_555 1_555
C131 C142 1_555 1_555
C133 C144 1_555 1_555
C136 C138 1_555 1_555
C137 C145 1_555 1_555
C139 C151 1_555 1_555
C146 C152 1_555 1_555
C153 C154 1_555 1_555
C157 C169 1_555 1_555
C158 C160 1_555 1_555
C161 C162 1_555 1_555
C162 C171 1_555 1_555

#END
