
#######################################################################
#
#                 Cambridge Crystallographic Data Centre
#                                CCDC 
#
#######################################################################
#
# If this CIF has been generated from an entry in the Cambridge 
# Structural Database, then it will include bibliographic, chemical, 
# crystal, experimental, refinement or atomic coordinate data resulting 
# from the CCDC's data processing and validation procedures.
#
#######################################################################

data_HEZGIE
_chemical_formula_moiety         
'C88 H88 N22 O12,C34 H46 O8,5(H2 O1),4(C1 H1 Cl3)'
_chemical_name_systematic        
"7,7'-(Pyridazine-3,6-diylbis(pyridine-6,2-diylcarbonylimino))bis(N-(7-((6-((2,2-dimethylpropanoyl)amino)pyridin-2-yl)carbamoyl)-5-isobutoxy-1,8-naphthyridin-2-yl)-4-isobutoxy-1,8-naphthyridine-2-carboxamide) 2,3-bis((3,5-di-t-butylbenzoyl)oxy)succinic acid chloroform solvate pentahydrate"
_symmetry_cell_setting           monoclinic
_symmetry_space_group_name_H-M   'P 21/c'
_symmetry_Int_Tables_number      14
_space_group_name_Hall           '-P 2ybc'
loop_
_symmetry_equiv_pos_site_id
_symmetry_equiv_pos_as_xyz
1 x,y,z
2 -x,1/2+y,1/2-z
3 -x,-y,-z
4 x,1/2-y,1/2+z
_cell_length_a                   23.097(4)
_cell_length_b                   31.196(5)
_cell_length_c                   40.446(6)
_cell_angle_alpha                90
_cell_angle_beta                 100.388(7)
_cell_angle_gamma                90
_cell_volume                     28665
_exptl_crystal_colour            yellow
_exptl_crystal_description       plate
_cell_formula_units_Z            8
loop_
_atom_site_label
_atom_site_type_symbol
_atom_site_fract_x
_atom_site_fract_y
_atom_site_fract_z
Cl1 Cl 0.57900(16) 0.92986(16) 0.13489(9)
Cl2 Cl 0.68919(17) 0.93052(13) 0.11201(9)
Cl3 Cl 0.68693(17) 0.93595(14) 0.18321(9)
C1 C 0.6514(5) 0.9502(4) 0.1423(3)
H1 H 0.6497 0.9815 0.1406
Cl4 Cl 0.25302(18) 0.74562(18) 0.08424(11)
Cl5 Cl 0.13538(17) 0.77382(15) 0.05929(11)
Cl6 Cl 0.1587(3) 0.68541(17) 0.07466(12)
C2 C 0.1799(5) 0.7379(4) 0.0844(3)
H2 H 0.1741 0.7429 0.1075
Cl7 Cl 0.1026(2) 0.8855(2) 0.05671(11)
Cl8 Cl 0.2156(2) 0.87012(17) 0.09754(14)
Cl9 Cl 0.1997(4) 0.93744(17) 0.04932(19)
C3 C 0.1770(8) 0.8884(5) 0.0566(4)
H3 H 0.1865 0.8690 0.0392
Cl10 Cl 0.29334(19) 0.43737(16) 0.22872(12)
Cl11 Cl 0.1790(2) 0.42667(18) 0.24105(15)
Cl12 Cl 0.1969(2) 0.47402(18) 0.18308(13)
C4 C 0.2243(6) 0.4613(4) 0.2259(3)
H4 H 0.2281 0.4876 0.2394
Cl13 Cl 0.9586(2) 0.7771(2) 0.11520(14)
Cl14 Cl 0.9787(2) 0.7136(2) 0.06844(13)
Cl15 Cl 0.9796(2) 0.8012(2) 0.05041(16)
C5 C 0.9931(7) 0.7653(5) 0.0830(4)
H5 H 1.0355 0.7667 0.0920
O1 O 0.0083(3) 0.1682(2) 0.17274(16)
O2 O -0.0771(3) 0.1643(2) 0.23833(16)
O3 O 0.0172(3) 0.2315(3) 0.22519(16)
O4 O -0.0678(3) 0.2467(2) 0.14236(17)
O5 O -0.0291(3) 0.1018(2) 0.15994(16)
O6 O 0.0245(3) 0.2666(2) 0.16245(16)
O7 O -0.0015(3) 0.3034(3) 0.22706(19)
O8 O 0.0067(3) 0.1296(3) 0.23476(17)
C6 C -0.0391(4) 0.1789(3) 0.1905(2)
C7 C 0.0319(4) 0.0982(3) 0.1052(3)
H6 H 0.0070 0.0755 0.1076
C8 C 0.0739(4) 0.1666(3) 0.1241(2)
H7 H 0.0776 0.1888 0.1397
C9 C 0.0626(4) 0.0984(3) 0.0786(2)
C10 C 0.1417(4) 0.2062(4) 0.0916(3)
C11 C 0.1042(4) 0.1690(4) 0.0975(2)
C12 C 0.0798(4) 0.2299(4) 0.2881(3)
H8 H 0.0685 0.2045 0.2767
C13 C 0.0553(5) 0.0630(4) 0.0517(3)
C14 C 0.0380(4) 0.1318(4) 0.1280(2)
C15 C 0.0016(4) 0.1301(4) 0.1545(3)
C16 C -0.0315(4) 0.2267(4) 0.1971(2)
C17 C 0.0961(4) 0.1333(4) 0.0751(2)
H9 H 0.1151 0.1339 0.0567
C18 C -0.0332(5) 0.1542(4) 0.2230(3)
C19 C 0.0782(5) 0.3060(5) 0.2893(3)
H10 H 0.0653 0.3317 0.2788
C20 C 0.0616(4) 0.2686(5) 0.2730(3)
C21 C -0.0197(5) 0.2496(3) 0.1663(3)
C22 C 0.1154(5) 0.2282(5) 0.3206(3)
C23 C 0.1188(5) 0.0420(4) 0.0534(3)
H11 H 0.1164 0.0192 0.0372
H12 H 0.1324 0.0307 0.0755
H13 H 0.1458 0.0634 0.0484
C24 C 0.0153(5) 0.0274(4) 0.0598(4)
H14 H 0.0119 0.0057 0.0427
H15 H -0.0229 0.0389 0.0606
H16 H 0.0316 0.0150 0.0812
C25 C 0.2064(5) 0.1914(4) 0.0919(3)
H17 H 0.2300 0.2157 0.0883
H18 H 0.2070 0.1707 0.0744
H19 H 0.2220 0.1787 0.1133
C26 C 0.1317(5) 0.2669(6) 0.3345(3)
H20 H 0.1572 0.2663 0.3551
C27 C 0.0319(7) 0.0820(4) 0.0166(3)
H21 H 0.0273 0.0595 0.0001
H22 H 0.0594 0.1028 0.0112
H23 H -0.0054 0.0955 0.0166
C28 C 0.1149(5) 0.3075(5) 0.3220(3)
C29 C 0.1748(7) 0.3448(5) 0.3723(4)
H24 H 0.2085 0.3280 0.3696
H25 H 0.1534 0.3304 0.3873
H26 H 0.1876 0.3723 0.3814
C30 C 0.0804(8) 0.3766(5) 0.3409(5)
H27 H 0.0923 0.4038 0.3510
H28 H 0.0579 0.3613 0.3549
H29 H 0.0567 0.3811 0.3191
C31 C 0.1186(5) 0.2286(4) 0.0573(3)
H30 H 0.1439 0.2523 0.0544
H31 H 0.0794 0.2390 0.0570
H32 H 0.1183 0.2085 0.0393
C32 C 0.1459(6) 0.2414(4) 0.1195(4)
H33 H 0.1707 0.2643 0.1145
H34 H 0.1623 0.2291 0.1409
H35 H 0.1073 0.2523 0.1202
C33 C 0.0231(5) 0.2712(5) 0.2395(3)
C34 C 0.1330(6) 0.1862(5) 0.3367(3)
C35 C 0.1341(6) 0.3508(5) 0.3374(3)
C36 C 0.1759(9) 0.1898(6) 0.3689(4)
H36 H 0.2060 0.2101 0.3663
H37 H 0.1934 0.1623 0.3748
H38 H 0.1558 0.1994 0.3864
C37 C 0.1721(9) 0.3756(6) 0.3148(5)
H39 H 0.2065 0.3591 0.3131
H40 H 0.1838 0.4029 0.3248
H41 H 0.1492 0.3799 0.2928
C38 C 0.0838(8) 0.1571(6) 0.3354(6)
H42 H 0.0977 0.1300 0.3449
H43 H 0.0649 0.1531 0.3125
H44 H 0.0561 0.1689 0.3480
C39 C 0.1705(8) 0.1603(6) 0.3124(4)
H45 H 0.2054 0.1762 0.3106
H46 H 0.1468 0.1569 0.2905
H47 H 0.1815 0.1326 0.3219
O9 O 0.4505(3) 0.2054(2) 0.07329(16)
O10 O 0.3685(3) 0.2310(2) 0.13838(16)
O11 O 0.3847(3) 0.1607(3) 0.14629(18)
O12 O 0.3802(3) 0.2886(2) 0.08281(18)
O13 O 0.3575(3) 0.1918(2) 0.07671(17)
O14 O 0.4588(3) 0.3027(2) 0.16697(18)
O15 O 0.4190(3) 0.3545(3) 0.07625(19)
O16 O 0.3765(3) 0.3340(2) 0.14068(17)
C40 C 0.4035(5) 0.2068(3) 0.0878(3)
C41 C 0.4177(4) 0.2348(4) 0.1201(2)
C42 C 0.3152(4) 0.1961(4) 0.1738(2)
C43 C 0.2999(4) 0.2343(4) 0.1859(2)
H48 H 0.3178 0.2593 0.1803
C44 C 0.4257(4) 0.2806(3) 0.1122(2)
C45 C 0.2386(5) 0.2786(5) 0.2195(4)
C46 C 0.2575(5) 0.2366(4) 0.2068(3)
C47 C 0.2912(5) 0.1582(4) 0.1822(3)
H49 H 0.3034 0.1326 0.1740
C48 C 0.3586(4) 0.1920(4) 0.1513(3)
C49 C 0.4167(5) 0.3086(4) 0.1407(3)
C50 C 0.3190(5) 0.2874(4) 0.0198(3)
H50 H 0.3199 0.2640 0.0341
C51 C 0.2477(5) 0.2463(4) -0.0277(3)
C52 C 0.3525(5) 0.3580(5) 0.0098(4)
H51 H 0.3735 0.3824 0.0180
C53 C 0.2689(6) 0.2288(5) -0.0574(3)
H52 H 0.2458 0.2043 -0.0657
H53 H 0.3095 0.2206 -0.0511
H54 H 0.2653 0.2504 -0.0746
C54 C 0.2497(5) 0.1574(5) 0.2026(3)
C55 C 0.1838(5) 0.2606(5) -0.0360(3)
H55 H 0.1718 0.2715 -0.0160
H56 H 0.1594 0.2367 -0.0444
H57 H 0.1798 0.2828 -0.0527
C56 C 0.3498(4) 0.3232(4) 0.0302(3)
C57 C 0.2848(5) 0.2857(4) -0.0137(3)
C58 C 0.2880(6) 0.3195(5) -0.0347(4)
H58 H 0.2665 0.3180 -0.0564
C59 C 0.3249(8) 0.3966(6) -0.0462(5)
C60 C 0.3865(5) 0.3251(5) 0.0650(3)
C61 C 0.2344(5) 0.1980(6) 0.2145(3)
H59 H 0.2066 0.1984 0.2285
C62 C 0.1749(8) 0.2778(6) 0.2227(7)
H60 H 0.1680 0.2541 0.2366
H61 H 0.1510 0.2748 0.2008
H62 H 0.1650 0.3041 0.2327
C63 C 0.3216(7) 0.3560(6) -0.0254(4)
C64 C 0.1579(9) 0.1212(7) 0.2161(6)
H63 H 0.1569 0.1428 0.2329
H64 H 0.1439 0.0945 0.2235
H65 H 0.1331 0.1299 0.1955
C65 C 0.2197(8) 0.1159(6) 0.2104(5)
C66 C 0.2816(15) 0.3907(10) -0.0804(7)
H66 H 0.2924 0.3656 -0.0915
H67 H 0.2836 0.4154 -0.0943
H68 H 0.2422 0.3876 -0.0762
C67 C 0.2434(11) 0.3153(7) 0.1953(6)
H69 H 0.2323 0.3416 0.2047
H70 H 0.2177 0.3099 0.1743
H71 H 0.2833 0.3174 0.1917
C68 C 0.306(2) 0.4374(10) -0.0277(8)
H72 H 0.3097 0.4624 -0.0411
H73 H 0.3318 0.4403 -0.0063
H74 H 0.2664 0.4343 -0.0245
C69 C 0.2846(12) 0.2943(10) 0.2492(7)
H75 H 0.2895 0.2732 0.2667
H76 H 0.2717 0.3208 0.2575
H77 H 0.3215 0.2987 0.2419
C70 C 0.2547(6) 0.2106(4) -0.0020(3)
H78 H 0.2418 0.2204 0.0180
H79 H 0.2953 0.2024 0.0034
H80 H 0.2314 0.1864 -0.0110
C71 C 0.2523(12) 0.0979(10) 0.2396(9)
H81 H 0.2585 0.1190 0.2571
H82 H 0.2896 0.0882 0.2351
H83 H 0.2311 0.0740 0.2465
C72 C 0.3918(12) 0.4041(11) -0.0476(8)
H84 H 0.4059 0.3811 -0.0598
H85 H 0.4141 0.4048 -0.0251
H86 H 0.3963 0.4308 -0.0586
C73 C 0.210(2) 0.0840(9) 0.1790(10)
H87 H 0.1865 0.0977 0.1600
H88 H 0.1906 0.0585 0.1846
H89 H 0.2476 0.0764 0.1736
O17 O 0.8339(3) 0.0110(2) 0.07123(16)
O18 O 0.7953(3) 0.0481(3) 0.23482(17)
O19 O 0.8998(3) 0.1512(2) 0.02381(18)
O20 O 0.4428(4) 0.2471(3) 0.29641(19)
O21 O 0.5253(3) 0.0792(3) 0.10626(18)
O22 O 0.7743(3) 0.1151(3) 0.34842(18)
O23 O 0.5487(3) 0.1106(3) -0.01340(19)
O24 O 0.6700(3) 0.3187(3) -0.0164(2)
N1 N 0.8395(3) 0.1184(3) 0.1555(2)
N2 N 0.8684(3) 0.1365(3) 0.10504(19)
N3 N 0.9167(3) 0.1945(3) 0.0712(2)
H90 H 0.9128 0.1949 0.0920
N4 N 0.5371(3) 0.1442(3) 0.1314(2)
H91 H 0.5491 0.1699 0.1290
O25 O 0.4360(4) 0.4726(3) 0.2051(2)
N5 N 0.8139(3) 0.1070(3) 0.2052(2)
H92 H 0.8177 0.1344 0.2070
O26 O 0.7453(4) 0.3346(3) 0.3255(2)
N6 N 0.4795(3) 0.2045(3) 0.2223(2)
N7 N 0.7825(3) 0.1570(4) 0.2518(2)
O27 O 0.4602(4) 0.0861(3) 0.2670(2)
N8 N 0.9592(3) 0.2601(3) 0.0827(2)
O28 O 1.0094(4) 0.3866(3) 0.0741(2)
N9 N 0.7467(3) 0.2940(4) 0.2777(2)
H93 H 0.7437 0.2966 0.2563
N10 N 0.7634(3) 0.2257(4) 0.2668(2)
N11 N 0.5817(3) 0.1744(3) 0.0789(2)
N12 N 0.4367(3) 0.3424(3) 0.2220(2)
N13 N 0.4551(3) 0.2773(3) 0.2467(2)
H94 H 0.4637 0.2703 0.2276
N14 N 0.6213(3) 0.2322(3) 0.0543(2)
N15 N 0.5099(3) 0.1712(3) 0.1784(2)
N16 N 1.0045(3) 0.3238(3) 0.1015(2)
H95 H 1.0085 0.3125 0.1212
N17 N 0.6608(4) 0.2921(4) 0.0352(2)
H96 H 0.6689 0.2992 0.0560
N18 N 0.7004(4) 0.3632(4) 0.0663(3)
N19 N 0.7371(3) 0.3683(4) 0.2418(3)
C74 C 0.8367(4) 0.0632(4) 0.1128(2)
C75 C 0.7863(4) 0.0988(4) 0.2914(3)
H97 H 0.7914 0.0696 0.2957
N20 N 0.4150(4) 0.4024(3) 0.1918(2)
H98 H 0.4038 0.3855 0.1751
C76 C 0.8170(4) 0.0332(4) 0.1349(3)
H99 H 0.8089 0.0051 0.1280
C77 C 0.8422(5) -0.0041(4) 0.0382(2)
H100 H 0.8808 0.0042 0.0342
H101 H 0.8128 0.0085 0.0208
C78 C 0.7896(4) 0.1148(4) 0.2601(3)
C79 C 0.4402(5) 0.4410(4) 0.1263(3)
H102 H 0.4421 0.4103 0.1278
H103 H 0.4779 0.4529 0.1357
H104 H 0.4297 0.4494 0.1031
C80 C 0.8103(4) 0.0458(4) 0.1655(3)
H105 H 0.7982 0.0267 0.1806
C81 C 0.9467(4) 0.2375(4) 0.0259(2)
H106 H 0.9344 0.2170 0.0093
C82 C 0.8754(4) 0.1239(4) 0.0746(3)
N21 N 0.7354(5) 0.4358(4) 0.1692(4)
C83 C 0.7754(4) 0.1262(4) 0.3162(3)
C84 C 0.8453(4) 0.0528(4) 0.0800(2)
C85 C 0.4635(4) 0.2015(4) 0.2522(3)
C86 C 0.8485(4) 0.1057(4) 0.1239(3)
C87 C 0.9413(4) 0.2309(4) 0.0588(3)
C88 C 0.7181(4) 0.3598(4) 0.1706(3)
H107 H 0.7128 0.3349 0.1824
C89 C 0.7138(4) 0.3599(4) 0.1362(3)
H108 H 0.7064 0.3344 0.1242
C90 C 0.4278(5) 0.4066(4) 0.2527(3)
H109 H 0.4215 0.4360 0.2525
N22 N 0.7312(4) 0.4352(4) 0.1359(4)
C91 C 0.5449(4) 0.1123(4) 0.0456(3)
H110 H 0.5284 0.0851 0.0449
C92 C 0.4831(4) 0.1270(4) 0.2221(3)
C93 C 0.7713(4) 0.1845(4) 0.2764(2)
C94 C 0.4909(4) 0.1673(4) 0.2084(3)
C95 C 0.8224(4) 0.0899(4) 0.1744(2)
C96 C 0.8007(4) 0.0870(5) 0.2326(3)
C97 C 0.4454(5) 0.3199(4) 0.2511(3)
C98 C 0.5558(4) 0.1369(4) 0.0759(3)
C99 C 0.4456(5) 0.3407(5) 0.2815(3)
H111 H 0.4513 0.3249 0.3014
C100 C 0.7663(4) 0.1686(4) 0.3088(2)
C101 C 0.5177(4) 0.1357(4) 0.1624(3)
C102 C 0.4936(4) 0.0899(4) 0.2036(3)
H112 H 0.4891 0.0626 0.2122
C103 C 0.5097(4) 0.0947(4) 0.1741(3)
H113 H 0.5157 0.0708 0.1613
C104 C 0.8982(4) 0.1576(4) 0.0528(3)
C105 C 0.5391(4) 0.1173(5) 0.1054(3)
C106 C 0.6261(5) 0.2328(5) -0.0050(3)
H114 H 0.6362 0.2479 -0.0229
C107 C 0.8631(4) 0.0830(4) 0.0607(3)
H115 H 0.8671 0.0772 0.0387
C108 C 0.7470(5) 0.2415(5) 0.3228(3)
H116 H 0.7389 0.2620 0.3381
C109 C 0.4374(5) 0.3835(5) 0.2826(3)
H117 H 0.4382 0.3974 0.3030
C110 C 0.8367(5) -0.0513(4) 0.0375(3)
H118 H 0.8400 -0.0604 0.0147
C111 C 0.9832(4) 0.2962(4) 0.0742(3)
C112 C 0.5604(5) 0.1315(5) 0.0168(3)
C113 C 0.5850(4) 0.1707(4) 0.0193(3)
C114 C 0.5954(5) 0.1924(5) 0.0501(3)
C115 C 0.7538(5) 0.1997(5) 0.3318(3)
H119 H 0.7503 0.1914 0.3535
C116 C 0.4659(5) 0.1257(4) 0.2547(3)
C117 C 0.4441(6) 0.0840(4) 0.3002(3)
H120 H 0.4079 0.0997 0.3003
H121 H 0.4749 0.0967 0.3168
C118 C 0.3930(6) 0.4579(4) 0.1462(3)
C119 C 0.6352(5) 0.2499(5) 0.0282(3)
C120 C 0.3890(6) 0.5058(4) 0.1440(3)
H122 H 0.4268 0.5181 0.1527
H123 H 0.3607 0.5158 0.1569
H124 H 0.3769 0.5142 0.1209
C121 C 0.9710(5) 0.2757(4) 0.0186(3)
H125 H 0.9754 0.2807 -0.0035
C122 C 0.9893(5) 0.3069(4) 0.0418(3)
H126 H 1.0044 0.3331 0.0364
C123 C 0.7327(6) 0.4366(5) 0.0665(5)
H127 H 0.7434 0.4620 0.0781
C124 C 0.7832(6) 0.0702(5) 0.3581(3)
H128 H 0.8180 0.0592 0.3506
H129 H 0.7496 0.0533 0.3475
C125 C 0.5242(5) 0.0691(4) -0.0157(3)
H130 H 0.4883 0.0690 -0.0064
H131 H 0.5516 0.0492 -0.0027
C126 C 0.8038(8) 0.0199(5) 0.4070(4)
H132 H 0.8367 0.0097 0.3977
H133 H 0.7699 0.0025 0.3989
H134 H 0.8130 0.0184 0.4310
C127 C 0.7204(4) 0.3975(5) 0.1194(3)
C128 C 0.4531(4) 0.2447(4) 0.2682(3)
C129 C 0.7524(4) 0.2539(4) 0.2887(3)
C130 C 0.4572(5) 0.1635(4) 0.2703(3)
H135 H 0.4477 0.1642 0.2916
C131 C 0.4279(5) 0.3834(5) 0.2228(3)
C132 C 0.6023(5) 0.1942(5) -0.0086(3)
H136 H 0.5965 0.1815 -0.0297
C133 C 1.0502(4) 0.3876(4) 0.1323(3)
C134 C 1.1108(7) 0.3679(5) 0.1431(4)
H137 H 1.1336 0.3720 0.1257
H138 H 1.1069 0.3378 0.1471
H139 H 1.1303 0.3815 0.1634
C135 C 0.7778(5) -0.0680(4) 0.0439(3)
H140 H 0.7777 -0.0987 0.0431
H141 H 0.7467 -0.0570 0.0270
H142 H 0.7718 -0.0586 0.0657
C136 C 1.0195(5) 0.3660(5) 0.1007(3)
C137 C 0.7360(5) 0.4051(5) 0.2232(4)
C138 C 0.7117(6) 0.3980(6) 0.0147(4)
H143 H 0.7093 0.3969 -0.0085
C139 C 0.6733(5) 0.3215(5) 0.0136(3)
C140 C 0.7400(5) 0.3721(5) 0.2747(4)
C141 C 0.5107(6) 0.0548(5) -0.0527(3)
H144 H 0.4842 0.0758 -0.0656
C142 C 0.7408(7) 0.0829(5) 0.4097(4)
H145 H 0.7493 0.0814 0.4337
H146 H 0.7065 0.0660 0.4013
H147 H 0.7336 0.1122 0.4029
C143 C 0.5698(7) 0.0546(5) -0.0658(4)
H148 H 0.5869 0.0827 -0.0634
H149 H 0.5627 0.0466 -0.0891
H150 H 0.5962 0.0344 -0.0531
C144 C 0.7180(5) 0.3977(5) 0.0836(4)
C145 C 0.8878(6) -0.0724(4) 0.0614(3)
H151 H 0.8830 -0.1030 0.0605
H152 H 0.8881 -0.0626 0.0839
H153 H 0.9243 -0.0649 0.0547
C146 C 1.0136(9) 0.3819(8) 0.1602(4)
H154 H 1.0333 0.3956 0.1804
H155 H 1.0092 0.3519 0.1644
H156 H 0.9755 0.3946 0.1532
C147 C 0.7447(4) 0.3340(5) 0.2954(4)
C148 C 0.3337(5) 0.4364(5) 0.1329(4)
H157 H 0.3379 0.4058 0.1352
H158 H 0.3212 0.4435 0.1096
H159 H 0.3049 0.4462 0.1456
C149 C 0.4363(7) 0.0379(5) 0.3082(4)
H160 H 0.4731 0.0227 0.3072
C150 C 0.4808(8) 0.0129(5) -0.0548(4)
H161 H 0.4713 0.0041 -0.0779
H162 H 0.4453 0.0153 -0.0457
H163 H 0.5063 -0.0079 -0.0421
C151 C 0.7309(5) 0.3995(5) 0.1868(3)
C152 C 0.7390(6) 0.4452(5) 0.2385(4)
H164 H 0.7384 0.4702 0.2260
C153 C 0.6964(5) 0.3630(5) 0.0324(4)
C154 C 0.3891(7) 0.0185(4) 0.2837(4)
H165 H 0.3986 0.0206 0.2616
H166 H 0.3528 0.0333 0.2842
H167 H 0.3849 -0.0111 0.2893
C155 C 0.4250(9) 0.0357(5) 0.3446(4)
H168 H 0.4227 0.0062 0.3511
H169 H 0.3887 0.0499 0.3459
H170 H 0.4567 0.0495 0.3594
C156 C 0.7907(6) 0.0666(5) 0.3961(3)
H171 H 0.8251 0.0837 0.4057
C157 C 0.4178(6) 0.4446(6) 0.1842(4)
C158 C 0.7450(6) 0.4099(6) 0.2920(4)
H172 H 0.7495 0.4107 0.3153
C159 C 0.7298(6) 0.4331(6) 0.0323(5)
H173 H 0.7412 0.4566 0.0208
C160 C 0.7430(6) 0.4466(6) 0.2731(5)
H174 H 0.7443 0.4731 0.2837
C161 C 1.0549(11) 0.4326(6) 0.1288(5)
H175 H 1.0789 0.4388 0.1123
H176 H 1.0725 0.4449 0.1499
H177 H 1.0164 0.4446 0.1216
O29 O 0.7468(3) 0.1558(2) 0.99314(17)
O30 O 0.8559(3) 0.3668(3) 1.01952(17)
O31 O 0.9022(3) 0.2431(3) 1.3573(2)
O32 O 0.5569(4) 0.4194(3) 0.99025(19)
O33 O 0.6116(3) 0.1653(3) 1.30427(19)
O34 O 0.9040(3) 0.3978(3) 1.31755(18)
O35 O 0.4816(4) 0.2712(3) 0.9507(2)
O36 O 0.3644(3) 0.0527(3) 1.0117(2)
O37 O 0.5819(3) 0.4264(3) 1.16427(19)
O38 O 0.5882(4) 0.3893(3) 1.28962(19)
O39 O 0.8684(4) 0.4013(3) 1.14396(19)
N23 N 0.7091(3) 0.1148(3) 1.06829(19)
N24 N 0.8614(3) 0.3342(3) 1.1674(2)
H178 H 0.8560 0.3078 1.1614
N25 N 0.5134(4) 0.3062(3) 1.0346(2)
N26 N 0.7908(3) 0.2439(3) 1.0731(2)
N27 N 0.7545(3) 0.1840(3) 1.0458(2)
H179 H 0.7466 0.1774 1.0652
N28 N 0.5431(3) 0.3350(3) 1.0870(2)
N29 N 0.5919(3) 0.3249(3) 1.2004(2)
N30 N 0.4659(4) 0.2392(3) 0.9991(2)
H180 H 0.4717 0.2428 1.0205
N31 N 0.8732(3) 0.3084(3) 1.2210(2)
N32 N 0.5668(3) 0.3595(3) 1.1403(2)
H181 H 0.5626 0.3329 1.1450
N33 N 0.4203(4) 0.1775(3) 1.0107(2)
N34 N 0.8904(3) 0.2769(3) 1.2736(2)
N35 N 0.8263(3) 0.3017(3) 1.1050(2)
N36 N 0.3711(3) 0.1216(3) 1.0290(2)
H182 H 0.3672 0.1382 1.0454
N37 N 0.9350(4) 0.1361(3) 1.3000(2)
N38 N 0.6053(3) 0.2604(3) 1.2294(2)
N39 N 0.6418(3) 0.1202(3) 1.2287(2)
N40 N 0.6649(3) 0.0484(3) 1.1306(2)
N41 N 0.9643(3) 0.0710(3) 1.2839(2)
H183 H 0.9731 0.0849 1.2671
N42 N 0.6562(3) 0.0493(3) 1.1626(2)
N43 N 0.6197(3) 0.1959(4) 1.2537(2)
H184 H 0.6273 0.1887 1.2344
O40 O 0.9538(5) 0.0040(3) 1.3041(2)
N44 N 0.9110(3) 0.2050(3) 1.3106(2)
H185 H 0.9072 0.2077 1.2891
C162 C 0.6888(4) 0.0796(4) 1.0817(3)
C163 C 0.8230(4) 0.3054(4) 1.0446(3)
C164 C 0.7163(4) 0.1137(4) 1.0359(3)
C165 C 0.8598(4) 0.3653(4) 1.0797(3)
H186 H 0.8757 0.3927 1.0830
C166 C 0.8475(4) 0.3403(4) 1.1068(2)
C167 C 0.7790(4) 0.2244(4) 1.0444(3)
C168 C 0.6778(4) 0.1246(3) 1.1661(3)
H187 H 0.6809 0.1501 1.1783
C169 C 0.6805(4) 0.0841(4) 1.1164(3)
C170 C 0.5980(4) 0.3029(4) 1.2313(2)
C171 C 0.6048(5) 0.2568(5) 1.2894(3)
H188 H 0.6067 0.2399 1.3085
C172 C 0.8141(4) 0.2833(4) 1.0743(2)
C173 C 0.5852(4) 0.3654(4) 1.2010(3)
C174 C 0.8471(4) 0.3472(4) 1.0482(3)
C175 C 0.7861(4) 0.2433(4) 1.0124(2)
H189 H 0.7756 0.2287 0.9921
C176 C 0.6618(4) 0.0859(4) 1.1798(3)
C177 C 0.6730(4) 0.0419(4) 1.0623(3)
H190 H 0.6589 0.0181 1.0721
C178 C 0.5535(6) 0.4205(5) 0.9534(3)
H191 H 0.5143 0.4129 0.9419
H192 H 0.5815 0.4006 0.9466
C179 C 0.8978(4) 0.2811(4) 1.3067(3)
C180 C 0.6497(4) 0.0825(4) 1.2139(2)
C181 C 0.9193(5) 0.1512(5) 1.3553(3)
H193 H 0.9083 0.1703 1.3707
C182 C 0.6296(4) 0.1208(4) 1.2602(3)
C183 C 0.7407(4) 0.1524(4) 1.0217(3)
C184 C 0.9126(6) 0.4022(4) 1.3541(3)
H194 H 0.9476 0.3869 1.3646
H195 H 0.8790 0.3907 1.3625
C185 C 0.5971(5) 0.2994(5) 1.2899(3)
H196 H 0.5928 0.3124 1.3100
C186 C 0.8778(4) 0.3855(4) 1.2144(3)
H197 H 0.8769 0.4091 1.2002
C187 C 0.6097(4) 0.2394(4) 1.2575(3)
C188 C 0.6884(4) 0.1229(4) 1.1341(3)
H198 H 0.7008 0.1473 1.1241
C189 C 0.5495(4) 0.3794(4) 1.0377(3)
C190 C 0.5954(4) 0.3256(4) 1.2609(3)
C191 C 0.6459(4) 0.0434(4) 1.2311(3)
H199 H 0.6526 0.0174 1.2212
C192 C 0.8820(5) 0.4078(4) 1.0218(3)
H200 H 0.9188 0.4068 1.0377
H201 H 0.8562 0.4279 1.0304
C193 C 0.5076(4) 0.3097(4) 1.0012(3)
C194 C 0.8087(4) 0.2830(4) 1.0138(3)
H202 H 0.8151 0.2961 0.9941
C195 C 0.9497(4) 0.0949(5) 1.3091(3)
C196 C 0.2771(5) 0.1019(4) 1.0647(4)
H203 H 0.2586 0.0940 1.0833
H204 H 0.2484 0.1018 1.0444
H205 H 0.2938 0.1300 1.0684
C197 C 0.9045(4) 0.2417(4) 1.3275(3)
C198 C 0.6195(4) 0.1627(4) 1.2757(3)
C199 C 0.6785(4) 0.0408(4) 1.0295(3)
H206 H 0.6678 0.0164 1.0167
C200 C 0.8858(4) 0.3900(4) 1.2480(3)
H207 H 0.8883 0.4174 1.2572
C201 C 0.5836(4) 0.3919(4) 1.2290(3)
H208 H 0.5797 0.4215 1.2274
C202 C 0.5362(4) 0.3404(4) 1.0533(3)
C203 C 0.8987(4) 0.3578(5) 1.3055(3)
C204 C 0.9231(4) 0.1638(4) 1.3228(3)
C205 C 0.5231(6) 0.3455(5) 0.9839(3)
H209 H 0.5199 0.3452 0.9606
C206 C 0.4396(5) 0.2011(4) 0.9873(3)
C207 C 0.4041(5) 0.1465(5) 0.9462(3)
H210 H 0.3982 0.1360 0.9243
C208 C 0.6322(5) 0.0447(5) 1.2630(4)
H211 H 0.6283 0.0192 1.2743
C209 C 0.9016(5) 0.3197(5) 1.3237(3)
H212 H 0.9060 0.3202 1.3470
C210 C 0.5886(5) 0.3694(5) 1.2596(3)
C211 C 0.5737(4) 0.4082(4) 1.0932(3)
H213 H 0.5842 0.4313 1.1075
C212 C 0.8842(4) 0.3133(4) 1.2548(3)
C213 C 0.9463(5) 0.0795(4) 1.3415(3)
H214 H 0.9531 0.0509 1.3476
C214 C 0.4834(4) 0.2714(5) 0.9814(3)
C215 C 0.3258(5) 0.0697(4) 1.0616(3)
C216 C 0.8599(5) 0.3641(5) 1.1417(3)
C217 C 0.6245(5) 0.0820(5) 1.2776(3)
H215 H 0.6159 0.0826 1.2992
C218 C 0.9324(5) 0.1096(5) 1.3635(3)
H216 H 0.9319 0.1010 1.3854
C219 C 0.9852(5) 0.0070(4) 1.2511(3)
C220 C 0.4328(5) 0.1858(5) 0.9538(3)
H217 H 0.4470 0.2014 0.9374
C221 C 0.8706(4) 0.3425(4) 1.2014(3)
C222 C 0.5695(4) 0.4134(4) 1.0599(3)
H218 H 0.5799 0.4394 1.0514
C223 C 0.9396(5) 0.0208(4) 1.2190(3)
H219 H 0.9502 0.0078 1.1994
H220 H 0.9400 0.0514 1.2167
H221 H 0.9009 0.0116 1.2213
C224 C 0.7010(5) 0.0774(4) 1.0149(3)
H222 H 0.7054 0.0776 0.9925
C225 C 0.8904(4) 0.3542(4) 1.2695(3)
C226 C 0.5622(4) 0.3685(4) 1.1063(3)
C227 C 0.5430(5) 0.3813(5) 1.0022(3)
C228 C 0.5218(9) 0.4995(6) 0.9534(5)
H223 H 0.4833 0.4904 0.9425
H224 H 0.5300 0.5273 0.9453
H225 H 0.5233 0.5006 0.9772
C229 C 0.9089(9) 0.4703(6) 0.9912(4)
H226 H 0.8788 0.4861 0.9995
H227 H 0.9121 0.4805 0.9692
H228 H 0.9458 0.4742 1.0061
C230 C 0.3852(5) 0.1240(4) 0.9700(3)
H229 H 0.3671 0.0976 0.9652
C231 C 0.9854(6) -0.0417(4) 1.2543(3)
H230 H 0.9968 -0.0542 1.2347
H231 H 0.9468 -0.0515 1.2562
H232 H 1.0130 -0.0501 1.2739
C232 C 0.8932(6) 0.4233(5) 0.9893(3)
H233 H 0.8559 0.4209 0.9735
C233 C 0.3929(5) 0.1406(4) 1.0022(3)
C234 C 0.3558(4) 0.0806(5) 1.0317(3)
C235 C 1.0485(5) 0.0235(4) 1.2490(3)
H234 H 1.0612 0.0108 1.2298
H235 H 1.0753 0.0156 1.2691
H236 H 1.0479 0.0541 1.2467
C236 C 0.5770(4) 0.3862(5) 1.1670(3)
C237 C 0.5684(7) 0.4670(5) 0.9454(4)
H237 H 0.5653 0.4679 0.9209
C238 C 0.9665(5) 0.0277(6) 1.2821(3)
C239 C 0.2952(6) 0.0243(4) 1.0553(4)
H238 H 0.2760 0.0173 1.0738
H239 H 0.3244 0.0030 1.0535
H240 H 0.2667 0.0251 1.0349
C240 C 0.9193(7) 0.4506(5) 1.3619(3)
H241 H 0.9247 0.4535 1.3864
C241 C 0.5792(7) 0.4457(5) 1.3284(3)
H242 H 0.5526 0.4256 1.3368
C242 C 0.9746(6) 0.4672(5) 1.3516(3)
H243 H 0.9792 0.4971 1.3572
H244 H 0.9719 0.4637 1.3278
H245 H 1.0078 0.4515 1.3632
C243 C 0.3738(6) 0.0718(5) 1.0936(3)
H246 H 0.3568 0.0649 1.1129
H247 H 0.3900 0.1002 1.0960
H248 H 0.4044 0.0517 1.0917
C244 C 0.5554(8) 0.4868(6) 1.3304(4)
H249 H 0.5533 0.4931 1.3534
H250 H 0.5166 0.4878 1.3170
H251 H 0.5801 0.5075 1.3222
C245 C 0.6408(8) 0.4384(6) 1.3495(4)
H252 H 0.6512 0.4087 1.3485
H253 H 0.6407 0.4464 1.3724
H254 H 0.6690 0.4556 1.3407
C246 C 0.5789(6) 0.4334(5) 1.2910(3)
H255 H 0.5414 0.4409 1.2773
H256 H 0.6098 0.4487 1.2826
C247 C 0.6286(7) 0.4797(5) 0.9589(3)
H257 H 0.6352 0.5083 0.9516
H258 H 0.6554 0.4604 0.9511
H259 H 0.6347 0.4790 0.9830
C248 C 0.9363(7) 0.3945(6) 0.9760(4)
H260 H 0.9409 0.4041 0.9540
H261 H 0.9217 0.3656 0.9745
H262 H 0.9737 0.3954 0.9908
C249 C 0.8655(8) 0.4743(5) 1.3479(4)
H263 H 0.8709 0.5042 1.3533
H264 H 0.8331 0.4634 1.3573
H265 H 0.8572 0.4709 1.3239
Cl16 Cl 0.4181(4) 0.6074(3) 0.1316(2)
Cl17 Cl 0.3893(5) 0.6778(3) 0.0930(3)
Cl18 Cl 0.4957(8) 0.6702(6) 0.1235(3)
C250 C 0.4206(12) 0.6538(7) 0.1208(5)
H266 H 0.4096 0.6689 0.1400
Cl19 Cl 0.3793(9) 0.8051(7) 0.1039(4)
Cl20 Cl 0.4714(6) 0.7714(5) 0.1363(4)
Cl21 Cl 0.4768(9) 0.8434(5) 0.1096(4)
C251 C 0.4489(11) 0.7886(7) 0.0933(5)
H267 H 0.4555 0.7740 0.0729
O41 O 0.6606(3) 0.2661(3) 0.11945(19)
O42 O 0.7576(3) 0.2128(3) 0.1343(2)
Cl22 Cl 0.3867(4) 0.2684(3) 0.8843(2)
Cl23 Cl 0.3367(6) 0.3110(6) 0.8291(4)
Cl24 Cl 0.3222(10) 0.2130(9) 0.8465(3)
C252 C 0.3582(10) 0.2582(12) 0.8482(6)
H268 H 0.3922 0.2506 0.8380
O43 O 0.8150(4) 0.2249(3) 0.2010(2)
O44 O 0.5610(4) 0.2410(4) 0.1438(3)
O45 O 0.0856(6) 0.0016(4) 0.3408(4)
O46 O 0.8094(7) 0.5370(4) 0.1562(10)
O47 O 1.2326(11) 0.3479(8) 0.0805(6)
O48 O 0.1227(10) -0.0046(7) 0.4086(6)
O49 O 1.1220(13) 0.3821(9) 0.9893(7)
O50 O 0.7224(18) 0.2652(12) 0.1998(10)
loop_
_geom_bond_atom_site_label_1
_geom_bond_atom_site_label_2
_geom_bond_site_symmetry_1
_geom_bond_site_symmetry_2
Cl1 C1 1_555 1_555
Cl2 C1 1_555 1_555
Cl3 C1 1_555 1_555
C1 H1 1_555 1_555
Cl4 C2 1_555 1_555
Cl5 C2 1_555 1_555
Cl6 C2 1_555 1_555
C2 H2 1_555 1_555
Cl7 C3 1_555 1_555
Cl8 C3 1_555 1_555
Cl9 C3 1_555 1_555
C3 H3 1_555 1_555
Cl10 C4 1_555 1_555
Cl11 C4 1_555 1_555
Cl12 C4 1_555 1_555
C4 H4 1_555 1_555
Cl13 C5 1_555 1_555
Cl14 C5 1_555 1_555
Cl15 C5 1_555 1_555
C5 H5 1_555 1_555
O1 C6 1_555 1_555
O2 C18 1_555 1_555
O3 C16 1_555 1_555
O4 C21 1_555 1_555
O5 C15 1_555 1_555
O6 C21 1_555 1_555
O7 C33 1_555 1_555
O8 C18 1_555 1_555
C6 C16 1_555 1_555
C7 H6 1_555 1_555
C8 H7 1_555 1_555
C9 C7 1_555 1_555
C10 C11 1_555 1_555
C11 C8 1_555 1_555
C12 H8 1_555 1_555
C13 C9 1_555 1_555
C14 C7 1_555 1_555
C15 O1 1_555 1_555
C16 C21 1_555 1_555
C17 C9 1_555 1_555
H9 C17 1_555 1_555
C18 C6 1_555 1_555
C19 H10 1_555 1_555
C20 C12 1_555 1_555
C22 C12 1_555 1_555
C23 C13 1_555 1_555
H11 C23 1_555 1_555
H12 C23 1_555 1_555
H13 C23 1_555 1_555
C24 C13 1_555 1_555
H14 C24 1_555 1_555
H15 C24 1_555 1_555
H16 C24 1_555 1_555
C25 C10 1_555 1_555
H17 C25 1_555 1_555
H18 C25 1_555 1_555
H19 C25 1_555 1_555
C26 C22 1_555 1_555
H20 C26 1_555 1_555
C27 C13 1_555 1_555
H21 C27 1_555 1_555
H22 C27 1_555 1_555
H23 C27 1_555 1_555
C28 C19 1_555 1_555
C29 H24 1_555 1_555
H25 C29 1_555 1_555
H26 C29 1_555 1_555
C30 H27 1_555 1_555
H28 C30 1_555 1_555
H29 C30 1_555 1_555
C31 C10 1_555 1_555
H30 C31 1_555 1_555
H31 C31 1_555 1_555
H32 C31 1_555 1_555
C32 C10 1_555 1_555
H33 C32 1_555 1_555
H34 C32 1_555 1_555
H35 C32 1_555 1_555
C33 O3 1_555 1_555
C34 C22 1_555 1_555
C35 C28 1_555 1_555
C36 C34 1_555 1_555
H36 C36 1_555 1_555
H37 C36 1_555 1_555
H38 C36 1_555 1_555
C37 C35 1_555 1_555
H39 C37 1_555 1_555
H40 C37 1_555 1_555
H41 C37 1_555 1_555
C38 C34 1_555 1_555
H42 C38 1_555 1_555
H43 C38 1_555 1_555
H44 C38 1_555 1_555
C39 C34 1_555 1_555
H45 C39 1_555 1_555
H46 C39 1_555 1_555
H47 C39 1_555 1_555
O9 C40 1_555 1_555
O10 C41 1_555 1_555
O11 C48 1_555 1_555
O12 C44 1_555 1_555
O13 C40 1_555 1_555
O14 C49 1_555 1_555
O15 C60 1_555 1_555
O16 C49 1_555 1_555
C40 C41 1_555 1_555
C41 C44 1_555 1_555
C42 C43 1_555 1_555
C43 H48 1_555 1_555
C44 C49 1_555 1_555
C45 C46 1_555 1_555
C46 C43 1_555 1_555
C47 C42 1_555 1_555
H49 C47 1_555 1_555
C48 O10 1_555 1_555
C50 H50 1_555 1_555
C51 C53 1_555 1_555
C52 H51 1_555 1_555
C53 H52 1_555 1_555
H53 C53 1_555 1_555
H54 C53 1_555 1_555
C54 C47 1_555 1_555
C55 C51 1_555 1_555
H55 C55 1_555 1_555
H56 C55 1_555 1_555
H57 C55 1_555 1_555
C56 C50 1_555 1_555
C57 C50 1_555 1_555
C58 C57 1_555 1_555
H58 C58 1_555 1_555
C59 C63 1_555 1_555
C60 O12 1_555 1_555
C61 C46 1_555 1_555
H59 C61 1_555 1_555
C62 C45 1_555 1_555
H60 C62 1_555 1_555
H61 C62 1_555 1_555
H62 C62 1_555 1_555
C63 C52 1_555 1_555
C64 H63 1_555 1_555
H64 C64 1_555 1_555
H65 C64 1_555 1_555
C65 C54 1_555 1_555
C66 C59 1_555 1_555
H66 C66 1_555 1_555
H67 C66 1_555 1_555
H68 C66 1_555 1_555
C67 C45 1_555 1_555
H69 C67 1_555 1_555
H70 C67 1_555 1_555
H71 C67 1_555 1_555
C68 C59 1_555 1_555
H72 C68 1_555 1_555
H73 C68 1_555 1_555
H74 C68 1_555 1_555
C69 C45 1_555 1_555
H75 C69 1_555 1_555
H76 C69 1_555 1_555
H77 C69 1_555 1_555
C70 C51 1_555 1_555
H78 C70 1_555 1_555
H79 C70 1_555 1_555
H80 C70 1_555 1_555
C71 C65 1_555 1_555
H81 C71 1_555 1_555
H82 C71 1_555 1_555
H83 C71 1_555 1_555
C72 C59 1_555 1_555
H84 C72 1_555 1_555
H85 C72 1_555 1_555
H86 C72 1_555 1_555
C73 C65 1_555 1_555
H87 C73 1_555 1_555
H88 C73 1_555 1_555
H89 C73 1_555 1_555
O17 C77 1_555 1_555
O18 C96 1_555 1_555
O19 C104 1_555 1_555
O20 C128 1_555 1_555
O21 C105 1_555 1_555
O22 C83 1_555 1_555
O23 C112 1_555 1_555
O24 C139 1_555 1_555
N1 C86 1_555 1_555
N2 C82 1_555 1_555
N3 H90 1_555 1_555
N4 H91 1_555 1_555
O25 C157 1_555 1_555
N5 H92 1_555 1_555
O26 C147 1_555 1_555
N6 C85 1_555 1_555
N7 C78 1_555 1_555
O27 C116 1_555 1_555
N8 C87 1_555 1_555
O28 C136 1_555 1_555
N9 H93 1_555 1_555
N10 C93 1_555 1_555
N11 C98 1_555 1_555
N12 C97 1_555 1_555
N13 H94 1_555 1_555
N14 C114 1_555 1_555
N15 C94 1_555 1_555
N16 H95 1_555 1_555
N17 H96 1_555 1_555
N18 C144 1_555 1_555
N19 C137 1_555 1_555
C74 C76 1_555 1_555
C75 H97 1_555 1_555
N20 H98 1_555 1_555
C76 H99 1_555 1_555
C77 H100 1_555 1_555
H101 C77 1_555 1_555
C78 C75 1_555 1_555
C79 H102 1_555 1_555
H103 C79 1_555 1_555
H104 C79 1_555 1_555
C80 C76 1_555 1_555
H105 C80 1_555 1_555
C81 H106 1_555 1_555
C82 C104 1_555 1_555
N21 N22 1_555 1_555
C83 C75 1_555 1_555
C84 O17 1_555 1_555
C85 C128 1_555 1_555
C86 N2 1_555 1_555
C87 N3 1_555 1_555
C88 H107 1_555 1_555
C89 C88 1_555 1_555
H108 C89 1_555 1_555
C90 H109 1_555 1_555
N22 C127 1_555 1_555
C91 H110 1_555 1_555
C92 C94 1_555 1_555
C93 N7 1_555 1_555
C94 N6 1_555 1_555
C95 N1 1_555 1_555
C96 N5 1_555 1_555
C97 N13 1_555 1_555
C98 C91 1_555 1_555
C99 C97 1_555 1_555
H111 C99 1_555 1_555
C100 C83 1_555 1_555
C101 N4 1_555 1_555
C102 C92 1_555 1_555
H112 C102 1_555 1_555
C103 C101 1_555 1_555
H113 C103 1_555 1_555
C104 N3 1_555 1_555
C105 N4 1_555 1_555
C106 H114 1_555 1_555
C107 C82 1_555 1_555
H115 C107 1_555 1_555
C108 H116 1_555 1_555
C109 C90 1_555 1_555
H117 C109 1_555 1_555
C110 C77 1_555 1_555
H118 C110 1_555 1_555
C111 N8 1_555 1_555
C112 C91 1_555 1_555
C113 C112 1_555 1_555
C114 N11 1_555 1_555
C115 C100 1_555 1_555
H119 C115 1_555 1_555
C116 C92 1_555 1_555
C117 O27 1_555 1_555
H120 C117 1_555 1_555
H121 C117 1_555 1_555
C118 C79 1_555 1_555
C119 N14 1_555 1_555
C120 C118 1_555 1_555
H122 C120 1_555 1_555
H123 C120 1_555 1_555
H124 C120 1_555 1_555
C121 C81 1_555 1_555
H125 C121 1_555 1_555
C122 C111 1_555 1_555
H126 C122 1_555 1_555
C123 H127 1_555 1_555
C124 O22 1_555 1_555
H128 C124 1_555 1_555
H129 C124 1_555 1_555
C125 O23 1_555 1_555
H130 C125 1_555 1_555
H131 C125 1_555 1_555
C126 H132 1_555 1_555
H133 C126 1_555 1_555
H134 C126 1_555 1_555
C127 C89 1_555 1_555
C128 N13 1_555 1_555
C129 N9 1_555 1_555
C130 C85 1_555 1_555
H135 C130 1_555 1_555
C131 N12 1_555 1_555
C132 C106 1_555 1_555
H136 C132 1_555 1_555
C133 C134 1_555 1_555
C134 H137 1_555 1_555
H138 C134 1_555 1_555
H139 C134 1_555 1_555
C135 C110 1_555 1_555
H140 C135 1_555 1_555
H141 C135 1_555 1_555
H142 C135 1_555 1_555
C136 N16 1_555 1_555
C137 C151 1_555 1_555
C138 H143 1_555 1_555
C139 N17 1_555 1_555
C140 N19 1_555 1_555
C141 C125 1_555 1_555
H144 C141 1_555 1_555
C142 H145 1_555 1_555
H146 C142 1_555 1_555
H147 C142 1_555 1_555
C143 C141 1_555 1_555
H148 C143 1_555 1_555
H149 C143 1_555 1_555
H150 C143 1_555 1_555
C144 C123 1_555 1_555
C145 C110 1_555 1_555
H151 C145 1_555 1_555
H152 C145 1_555 1_555
H153 C145 1_555 1_555
C146 C133 1_555 1_555
H154 C146 1_555 1_555
H155 C146 1_555 1_555
H156 C146 1_555 1_555
C147 N9 1_555 1_555
C148 C118 1_555 1_555
H157 C148 1_555 1_555
H158 C148 1_555 1_555
H159 C148 1_555 1_555
C149 C117 1_555 1_555
H160 C149 1_555 1_555
C150 C141 1_555 1_555
H161 C150 1_555 1_555
H162 C150 1_555 1_555
H163 C150 1_555 1_555
C151 N21 1_555 1_555
C152 C137 1_555 1_555
H164 C152 1_555 1_555
C153 N18 1_555 1_555
C154 C149 1_555 1_555
H165 C154 1_555 1_555
H166 C154 1_555 1_555
H167 C154 1_555 1_555
C155 C149 1_555 1_555
H168 C155 1_555 1_555
H169 C155 1_555 1_555
H170 C155 1_555 1_555
C156 C124 1_555 1_555
H171 C156 1_555 1_555
C157 N20 1_555 1_555
C158 C140 1_555 1_555
H172 C158 1_555 1_555
C159 C123 1_555 1_555
H173 C159 1_555 1_555
C160 C152 1_555 1_555
H174 C160 1_555 1_555
C161 C133 1_555 1_555
H175 C161 1_555 1_555
H176 C161 1_555 1_555
H177 C161 1_555 1_555
O29 C183 1_555 1_555
O30 C174 1_555 1_555
O31 C197 1_555 1_555
O32 C178 1_555 1_555
O33 C198 1_555 1_555
O34 C184 1_555 1_555
O35 C214 1_555 1_555
O36 C234 1_555 1_555
O37 C236 1_555 1_555
O38 C210 1_555 1_555
O39 C216 1_555 1_555
N23 C162 1_555 1_555
N24 H178 1_555 1_555
N25 C193 1_555 1_555
N26 C167 1_555 1_555
N27 H179 1_555 1_555
N28 C202 1_555 1_555
N29 C170 1_555 1_555
N30 H180 1_555 1_555
N31 C212 1_555 1_555
N32 H181 1_555 1_555
N33 C206 1_555 1_555
N34 C179 1_555 1_555
N35 C166 1_555 1_555
N36 H182 1_555 1_555
N37 C195 1_555 1_555
N38 C170 1_555 1_555
N39 C180 1_555 1_555
N40 N42 1_555 1_555
N41 H183 1_555 1_555
N42 C176 1_555 1_555
N43 H184 1_555 1_555
O40 C238 1_555 1_555
N44 H185 1_555 1_555
C162 C169 1_555 1_555
C163 C172 1_555 1_555
C164 N23 1_555 1_555
C165 H186 1_555 1_555
C166 C165 1_555 1_555
C167 N27 1_555 1_555
C168 H187 1_555 1_555
C169 N40 1_555 1_555
C170 C190 1_555 1_555
C171 H188 1_555 1_555
C172 N26 1_555 1_555
C173 N29 1_555 1_555
C174 C163 1_555 1_555
C175 C167 1_555 1_555
H189 C175 1_555 1_555
C176 C168 1_555 1_555
C177 C162 1_555 1_555
H190 C177 1_555 1_555
C178 H191 1_555 1_555
H192 C178 1_555 1_555
C179 C197 1_555 1_555
C180 C176 1_555 1_555
C181 H193 1_555 1_555
C182 N39 1_555 1_555
C183 N27 1_555 1_555
C184 H194 1_555 1_555
H195 C184 1_555 1_555
C185 C171 1_555 1_555
H196 C185 1_555 1_555
C186 H197 1_555 1_555
C187 N38 1_555 1_555
C188 C168 1_555 1_555
H198 C188 1_555 1_555
C189 C202 1_555 1_555
C190 C185 1_555 1_555
C191 C180 1_555 1_555
H199 C191 1_555 1_555
C192 O30 1_555 1_555
H200 C192 1_555 1_555
H201 C192 1_555 1_555
C193 C205 1_555 1_555
C194 C163 1_555 1_555
H202 C194 1_555 1_555
C195 N41 1_555 1_555
C196 H203 1_555 1_555
H204 C196 1_555 1_555
H205 C196 1_555 1_555
C197 N44 1_555 1_555
C198 N43 1_555 1_555
C199 C177 1_555 1_555
H206 C199 1_555 1_555
C200 C186 1_555 1_555
H207 C200 1_555 1_555
C201 C173 1_555 1_555
H208 C201 1_555 1_555
C202 N25 1_555 1_555
C203 O34 1_555 1_555
C204 N37 1_555 1_555
C205 H209 1_555 1_555
C206 N30 1_555 1_555
C207 H210 1_555 1_555
C208 C191 1_555 1_555
H211 C208 1_555 1_555
C209 C179 1_555 1_555
H212 C209 1_555 1_555
C210 C190 1_555 1_555
C211 H213 1_555 1_555
C212 N34 1_555 1_555
C213 C195 1_555 1_555
H214 C213 1_555 1_555
C214 N30 1_555 1_555
C215 C196 1_555 1_555
C216 N24 1_555 1_555
C217 C182 1_555 1_555
H215 C217 1_555 1_555
C218 C181 1_555 1_555
H216 C218 1_555 1_555
C219 C223 1_555 1_555
C220 C206 1_555 1_555
H217 C220 1_555 1_555
C221 N24 1_555 1_555
C222 C189 1_555 1_555
H218 C222 1_555 1_555
C223 H219 1_555 1_555
H220 C223 1_555 1_555
H221 C223 1_555 1_555
C224 C164 1_555 1_555
H222 C224 1_555 1_555
C225 C200 1_555 1_555
C226 N28 1_555 1_555
C227 O32 1_555 1_555
C228 H223 1_555 1_555
H224 C228 1_555 1_555
H225 C228 1_555 1_555
C229 H226 1_555 1_555
H227 C229 1_555 1_555
H228 C229 1_555 1_555
C230 C207 1_555 1_555
H229 C230 1_555 1_555
C231 C219 1_555 1_555
H230 C231 1_555 1_555
H231 C231 1_555 1_555
H232 C231 1_555 1_555
C232 C192 1_555 1_555
H233 C232 1_555 1_555
C233 N33 1_555 1_555
C234 N36 1_555 1_555
C235 C219 1_555 1_555
H234 C235 1_555 1_555
H235 C235 1_555 1_555
H236 C235 1_555 1_555
C236 N32 1_555 1_555
C237 C178 1_555 1_555
H237 C237 1_555 1_555
C238 N41 1_555 1_555
C239 C215 1_555 1_555
H238 C239 1_555 1_555
H239 C239 1_555 1_555
H240 C239 1_555 1_555
C240 C184 1_555 1_555
H241 C240 1_555 1_555
C241 H242 1_555 1_555
C242 C240 1_555 1_555
H243 C242 1_555 1_555
H244 C242 1_555 1_555
H245 C242 1_555 1_555
C243 C215 1_555 1_555
H246 C243 1_555 1_555
H247 C243 1_555 1_555
H248 C243 1_555 1_555
C244 C241 1_555 1_555
H249 C244 1_555 1_555
H250 C244 1_555 1_555
H251 C244 1_555 1_555
C245 C241 1_555 1_555
H252 C245 1_555 1_555
H253 C245 1_555 1_555
H254 C245 1_555 1_555
C246 O38 1_555 1_555
H255 C246 1_555 1_555
H256 C246 1_555 1_555
C247 C237 1_555 1_555
H257 C247 1_555 1_555
H258 C247 1_555 1_555
H259 C247 1_555 1_555
C248 C232 1_555 1_555
H260 C248 1_555 1_555
H261 C248 1_555 1_555
H262 C248 1_555 1_555
C249 C240 1_555 1_555
H263 C249 1_555 1_555
H264 C249 1_555 1_555
H265 C249 1_555 1_555
Cl16 C250 1_555 1_555
Cl17 C250 1_555 1_555
Cl18 C250 1_555 1_555
C250 H266 1_555 1_555
Cl19 C251 1_555 1_555
Cl20 C251 1_555 1_555
Cl21 C251 1_555 1_555
C251 H267 1_555 1_555
Cl22 C252 1_555 1_555
Cl23 C252 1_555 1_555
Cl24 C252 1_555 1_555
C252 H268 1_555 1_555
C8 C14 1_555 1_555
C11 C17 1_555 1_555
C14 C15 1_555 1_555
C19 C20 1_555 1_555
C20 C33 1_555 1_555
C26 C28 1_555 1_555
C29 C35 1_555 1_555
C30 C35 1_555 1_555
C42 C48 1_555 1_555
C51 C57 1_555 1_555
C52 C56 1_555 1_555
C54 C61 1_555 1_555
C56 C60 1_555 1_555
C58 C63 1_555 1_555
C64 C65 1_555 1_555
N5 C95 1_555 1_555
N10 C129 1_555 1_555
N15 C101 1_555 1_555
N16 C111 1_555 1_555
N17 C119 1_555 1_555
C74 C84 1_555 1_555
C74 C86 1_555 1_555
N20 C131 1_555 1_555
C78 C96 1_555 1_555
C80 C95 1_555 1_555
C81 C87 1_555 1_555
C84 C107 1_555 1_555
C88 C151 1_555 1_555
C90 C131 1_555 1_555
C93 C100 1_555 1_555
C98 C105 1_555 1_555
C99 C109 1_555 1_555
C102 C103 1_555 1_555
C106 C119 1_555 1_555
C108 C115 1_555 1_555
C108 C129 1_555 1_555
C113 C114 1_555 1_555
C113 C132 1_555 1_555
C116 C130 1_555 1_555
C118 C157 1_555 1_555
C121 C122 1_555 1_555
C126 C156 1_555 1_555
C127 C144 1_555 1_555
C133 C136 1_555 1_555
C138 C153 1_555 1_555
C138 C159 1_555 1_555
C139 C153 1_555 1_555
C140 C147 1_555 1_555
C142 C156 1_555 1_555
C158 C160 1_555 1_555
N31 C221 1_555 1_555
N32 C226 1_555 1_555
N35 C172 1_555 1_555
N36 C233 1_555 1_555
N43 C187 1_555 1_555
N44 C204 1_555 1_555
C164 C183 1_555 1_555
C165 C174 1_555 1_555
C166 C216 1_555 1_555
C169 C188 1_555 1_555
C171 C187 1_555 1_555
C173 C236 1_555 1_555
C175 C194 1_555 1_555
C181 C204 1_555 1_555
C182 C198 1_555 1_555
C186 C221 1_555 1_555
C189 C227 1_555 1_555
C193 C214 1_555 1_555
C199 C224 1_555 1_555
C201 C210 1_555 1_555
C203 C209 1_555 1_555
C203 C225 1_555 1_555
C205 C227 1_555 1_555
C207 C220 1_555 1_555
C208 C217 1_555 1_555
C211 C222 1_555 1_555
C211 C226 1_555 1_555
C212 C225 1_555 1_555
C213 C218 1_555 1_555
C215 C234 1_555 1_555
C219 C238 1_555 1_555
C228 C237 1_555 1_555
C229 C232 1_555 1_555
C230 C233 1_555 1_555
C241 C246 1_555 1_555

#END
