
#######################################################################
#
#                 Cambridge Crystallographic Data Centre
#                                CCDC 
#
#######################################################################
#
# If this CIF has been generated from an entry in the Cambridge 
# Structural Database, then it will include bibliographic, chemical, 
# crystal, experimental, refinement or atomic coordinate data resulting 
# from the CCDC's data processing and validation procedures.
#
#######################################################################

data_HEZHIE
_chemical_name_common            
'12-Acetoxy-7-benzyl-16,16-dimethyl-6-oxo-7,8,11,12,12,14-hexahydro-6H-15,17-dioxa-7-azacyclopenta(a)phenanthrene-9-carboxylic acid methyl ester'
_chemical_formula_moiety         'C27 H29 N1 O7'
_chemical_name_systematic        
'Methyl 11-acetyloxy-4-benzyl-2,2-dimethyl-5-oxo-3a,4,5,10,11,11a-hexahydro(1,3)dioxolo(4,5-c)phenanthridine-9b(3bH)-carboxylate'
_symmetry_cell_setting           monoclinic
_symmetry_space_group_name_H-M   'P 21/c'
_symmetry_Int_Tables_number      14
_space_group_name_Hall           '-P 2ybc'
loop_
_symmetry_equiv_pos_site_id
_symmetry_equiv_pos_as_xyz
1 x,y,z
2 -x,1/2+y,1/2-z
3 -x,-y,-z
4 x,1/2-y,1/2+z
_cell_length_a                   8.6668(3)
_cell_length_b                   10.8196(3)
_cell_length_c                   25.2951(8)
_cell_angle_alpha                90
_cell_angle_beta                 97.941(2)
_cell_angle_gamma                90
_cell_volume                     2349.21
_exptl_crystal_colour            colorless
_exptl_crystal_description       irregular
_chemical_melting_point          '206.5-207.5 deg.C'
_cell_formula_units_Z            4
loop_
_atom_site_label
_atom_site_type_symbol
_atom_site_fract_x
_atom_site_fract_y
_atom_site_fract_z
C1 C 0.5587(2) 0.42180(16) 0.31000(7)
C2 C 0.56620(19) 0.62130(15) 0.34740(7)
H1 H 0.5076 0.6993 0.3372
C3 C 0.62614(18) 0.62013(15) 0.40713(6)
H2 H 0.6551 0.5326 0.4165
C4 C 0.5391(2) 0.65445(15) 0.49389(7)
C5 C 0.7088(2) 0.65038(14) 0.51586(7)
C6 C 0.7495(2) 0.63149(15) 0.57041(7)
H3 H 0.6708 0.6144 0.5921
C7 C 0.9035(2) 0.63739(16) 0.59334(8)
H4 H 0.9309 0.6246 0.6306
C8 C 1.0175(2) 0.66209(16) 0.56161(7)
H5 H 1.1236 0.6662 0.5773
C9 C 0.9788(2) 0.68089(16) 0.50724(7)
H6 H 1.0585 0.6976 0.4860
C10 C 0.82400(19) 0.67564(14) 0.48334(7)
C11 C 0.77404(19) 0.69842(15) 0.42411(7)
C12 C 0.90043(19) 0.65669(16) 0.39032(7)
H7 H 0.9949 0.7079 0.3998
H8 H 0.9287 0.5697 0.3990
C13 C 0.84648(19) 0.66775(16) 0.33114(7)
H9 H 0.8339 0.7573 0.3217
C14 C 0.69508(19) 0.60195(15) 0.31247(7)
H10 H 0.6561 0.6274 0.2750
C15 C 0.5626(2) 0.30339(17) 0.34146(8)
H11 H 0.6349 0.2453 0.3282
H12 H 0.4580 0.2671 0.3374
H13 H 0.5973 0.3208 0.3792
C16 C 0.4883(2) 0.4049(2) 0.25259(8)
H14 H 0.4948 0.4827 0.2332
H15 H 0.3788 0.3805 0.2510
H16 H 0.5454 0.3404 0.2362
C17 C 0.9887(3) 0.6648(2) 0.25722(9)
C18 C 1.1228(3) 0.6035(3) 0.23539(9)
H17 H 1.1422 0.6460 0.2027
H18 H 1.0971 0.5167 0.2273
H19 H 1.2163 0.6079 0.2620
C19 C 0.7441(2) 0.83577(16) 0.41209(7)
C20 C 0.8274(3) 1.03904(18) 0.43473(10)
H20 H 0.8704 1.0529 0.4014
H21 H 0.8898 1.0842 0.4638
H22 H 0.7195 1.0686 0.4308
C21 C 0.34016(19) 0.67332(15) 0.41707(7)
H23 H 0.2721 0.6467 0.4433
H24 H 0.3162 0.6207 0.3850
C22 C 0.3042(2) 0.80663(15) 0.40189(7)
C23 C 0.2476(2) 0.83706(17) 0.34986(8)
H25 H 0.2301 0.7734 0.3239
C24 C 0.2157(2) 0.95818(18) 0.33470(8)
H26 H 0.1780 0.9771 0.2985
C25 C 0.2386(3) 1.05093(19) 0.37177(9)
H27 H 0.2168 1.1343 0.3616
C26 C 0.2936(3) 1.0220(2) 0.42419(10)
H28 H 0.3086 1.0858 0.4502
C27 C 0.3271(3) 0.90103(18) 0.43917(8)
H29 H 0.3661 0.8825 0.4753
N1 N 0.50436(15) 0.65472(12) 0.44010(5)
O1 O 0.71359(13) 0.47064(10) 0.31463(5)
O2 O 0.46914(13) 0.51536(10) 0.33382(5)
O3 O 0.97023(14) 0.61689(11) 0.30465(5)
O4 O 0.9076(2) 0.74519(16) 0.23572(6)
O5 O 0.66037(16) 0.87511(11) 0.37421(5)
O6 O 0.83118(18) 0.90776(11) 0.44701(5)
O7 O 0.43890(15) 0.66413(12) 0.52401(5)
loop_
_geom_bond_atom_site_label_1
_geom_bond_atom_site_label_2
_geom_bond_site_symmetry_1
_geom_bond_site_symmetry_2
C1 C15 1_555 1_555
C2 H1 1_555 1_555
C3 C2 1_555 1_555
H2 C3 1_555 1_555
C4 C5 1_555 1_555
C5 C6 1_555 1_555
C6 H3 1_555 1_555
C7 C6 1_555 1_555
H4 C7 1_555 1_555
C8 C7 1_555 1_555
H5 C8 1_555 1_555
C9 C8 1_555 1_555
H6 C9 1_555 1_555
C10 C5 1_555 1_555
C11 C3 1_555 1_555
C12 C11 1_555 1_555
H7 C12 1_555 1_555
H8 C12 1_555 1_555
C13 C12 1_555 1_555
H9 C13 1_555 1_555
C14 C2 1_555 1_555
H10 C14 1_555 1_555
C15 H11 1_555 1_555
H12 C15 1_555 1_555
H13 C15 1_555 1_555
C16 C1 1_555 1_555
H14 C16 1_555 1_555
H15 C16 1_555 1_555
H16 C16 1_555 1_555
C17 C18 1_555 1_555
C18 H17 1_555 1_555
H18 C18 1_555 1_555
H19 C18 1_555 1_555
C19 C11 1_555 1_555
C20 H20 1_555 1_555
H21 C20 1_555 1_555
H22 C20 1_555 1_555
C21 H23 1_555 1_555
H24 C21 1_555 1_555
C22 C21 1_555 1_555
C23 C22 1_555 1_555
H25 C23 1_555 1_555
C24 C23 1_555 1_555
H26 C24 1_555 1_555
C25 C24 1_555 1_555
H27 C25 1_555 1_555
C26 C25 1_555 1_555
H28 C26 1_555 1_555
C27 C22 1_555 1_555
H29 C27 1_555 1_555
N1 C3 1_555 1_555
O1 C1 1_555 1_555
O2 C1 1_555 1_555
O3 C13 1_555 1_555
O4 C17 1_555 1_555
O5 C19 1_555 1_555
O6 C19 1_555 1_555
O7 C4 1_555 1_555
C2 O2 1_555 1_555
C4 N1 1_555 1_555
C9 C10 1_555 1_555
C10 C11 1_555 1_555
C13 C14 1_555 1_555
C14 O1 1_555 1_555
C17 O3 1_555 1_555
C20 O6 1_555 1_555
C21 N1 1_555 1_555
C26 C27 1_555 1_555

#END
