
#######################################################################
#
#                 Cambridge Crystallographic Data Centre
#                                CCDC 
#
#######################################################################
#
# If this CIF has been generated from an entry in the Cambridge 
# Structural Database, then it will include bibliographic, chemical, 
# crystal, experimental, refinement or atomic coordinate data resulting 
# from the CCDC's data processing and validation procedures.
#
#######################################################################

data_HEZMUX
_chemical_formula_moiety         'C34 H39 N5 O5'
_chemical_name_systematic        
N-t-butyl-18-[(4-methoxyphenyl)methyl]-19-oxo-2,11-dioxa-6,7,8,18-tetraazatetracyclo[19.2.2.1^6,9^.1^12,16^]heptacosa-1(23),7,9(27),12(26),13,15,21,24-octaene-17-carboxamide
_symmetry_cell_setting           triclinic
_symmetry_space_group_name_H-M   'P -1'
_symmetry_Int_Tables_number      2
_space_group_name_Hall           '-P 1'
loop_
_symmetry_equiv_pos_site_id
_symmetry_equiv_pos_as_xyz
1 x,y,z
2 -x,-y,-z
_cell_length_a                   12.7129(2)
_cell_length_b                   13.2012(2)
_cell_length_c                   20.2735(3)
_cell_angle_alpha                98.0531(11)
_cell_angle_beta                 92.5174(10)
_cell_angle_gamma                108.4586(10)
_cell_volume                     3181.39
_exptl_crystal_colour            colorless
_exptl_crystal_description       Prism
_cell_formula_units_Z            4
_exptl_crystal_recrystallization_method 
'Re-crystallisation from solvent: methanol'
loop_
_atom_site_label
_atom_site_type_symbol
_atom_site_fract_x
_atom_site_fract_y
_atom_site_fract_z
O1 O 0.47528(18) 0.20979(17) 0.15110(10)
O2 O 0.22310(19) 0.0735(2) -0.15106(11)
O3 O 0.07794(19) 0.20848(17) 0.07838(11)
O4 O 0.21048(19) 0.0661(2) 0.31965(12)
O5 O 0.5111(3) -0.2612(2) 0.33513(13)
N1 N 0.34881(19) 0.07678(18) 0.19265(11)
N2 N 0.0560(2) 0.2203(2) -0.13064(13)
N3 N -0.0512(2) 0.2068(2) -0.12752(16)
N4 N -0.0674(2) 0.2253(2) -0.06365(16)
N5 N 0.3931(2) 0.1448(2) 0.35678(12)
H1 H 0.4585(13) 0.174(3) 0.3460(16)
C1 C 0.4210(2) 0.1127(2) 0.14805(14)
C2 C 0.4376(3) 0.0339(3) 0.09048(15)
H2 H 0.5165 0.0499 0.0857
H3 H 0.4085 -0.0393 0.1001
C3 C 0.3787(2) 0.0419(2) 0.02608(15)
C4 C 0.2783(3) -0.0328(3) -0.00014(16)
H4 H 0.2462 -0.0902 0.0223
C5 C 0.2232(3) -0.0255(3) -0.05887(17)
H5 H 0.1549 -0.0771 -0.0754
C6 C 0.2709(3) 0.0592(3) -0.09266(15)
C7 C 0.3723(3) 0.1343(3) -0.06779(16)
H6 H 0.4053 0.1907 -0.0909
C8 C 0.4251(3) 0.1265(3) -0.00897(16)
H7 H 0.4930 0.1785 0.0077
C9 C 0.1060(3) 0.0219(3) -0.16783(17)
H8 H 0.0663 0.0273 -0.1284
H9 H 0.0902 -0.0540 -0.1856
C10 C 0.0702(3) 0.0785(3) -0.21944(17)
H10 H -0.0094 0.0457 -0.2312
H11 H 0.1071 0.0681 -0.2595
C11 C 0.0966(3) 0.1991(3) -0.19580(17)
H12 H 0.1765 0.2346 -0.1927
H13 H 0.0623 0.2293 -0.2283
C12 C 0.0306(3) 0.2505(3) -0.02626(16)
C13 C 0.1094(3) 0.2472(3) -0.06921(17)
H14 H 0.1849 0.2609 -0.0581
C14 C 0.0412(3) 0.2833(3) 0.04668(16)
H15 H 0.0944 0.3556 0.0590
H16 H -0.0302 0.2842 0.0613
C15 C 0.1306(2) 0.2446(3) 0.14138(15)
C16 C 0.1952(2) 0.1848(2) 0.16229(15)
H17 H 0.1965 0.1229 0.1346
C17 C 0.2569(2) 0.2165(2) 0.22339(15)
C18 C 0.2532(3) 0.3093(3) 0.26506(16)
H18 H 0.2949 0.3322 0.3064
C19 C 0.1877(3) 0.3660(3) 0.24451(17)
H19 H 0.1847 0.4267 0.2728
C20 C 0.1263(3) 0.3356(3) 0.18317(17)
H20 H 0.0826 0.3753 0.1700
C21 C 0.3368(2) 0.1603(2) 0.24521(14)
H21 H 0.4103 0.2160 0.2552
C22 C 0.3059(3) 0.1166(3) 0.31097(15)
C23 C 0.3921(3) 0.1190(3) 0.42483(15)
C24 C 0.3039(4) 0.1551(4) 0.46089(18)
H22 H 0.3195 0.2314 0.4618
H23 H 0.3050 0.1401 0.5059
H24 H 0.2317 0.1165 0.4377
C25 C 0.3653(4) -0.0031(4) 0.4218(2)
H25 H 0.2934 -0.0403 0.3980
H26 H 0.3650 -0.0197 0.4665
H27 H 0.4207 -0.0259 0.3992
C26 C 0.5070(4) 0.1813(5) 0.4605(2)
H28 H 0.5617 0.1563 0.4385
H29 H 0.5085 0.1697 0.5062
H30 H 0.5233 0.2571 0.4592
C27 C 0.2857(2) -0.0369(2) 0.19234(16)
H31 H 0.2654 -0.0732 0.1463
H32 H 0.2174 -0.0414 0.2131
C28 C 0.3488(2) -0.0961(2) 0.22875(15)
C29 C 0.2912(3) -0.1879(3) 0.25509(18)
H33 H 0.2137 -0.2134 0.2498
C30 C 0.3480(3) -0.2409(3) 0.28882(19)
H34 H 0.3082 -0.3025 0.3057
C31 C 0.4625(3) -0.2050(3) 0.29821(17)
C32 C 0.5211(3) -0.1162(3) 0.27123(17)
H35 H 0.5986 -0.0920 0.2756
C33 C 0.4630(3) -0.0634(3) 0.23738(16)
H36 H 0.5033 -0.0030 0.2197
C34 C 0.6299(4) -0.2229(3) 0.3454(2)
H37 H 0.6602 -0.2281 0.3030
H38 H 0.6543 -0.2661 0.3730
H39 H 0.6549 -0.1488 0.3671
O6 O 0.60452(17) 0.18855(17) 0.29204(11)
O7 O 1.01594(18) 0.1504(2) 0.48835(11)
O8 O 0.8269(2) 0.4457(2) 0.50713(10)
O9 O 0.70347(19) 0.57415(17) 0.25008(11)
O10 O 0.8343(2) 0.4358(2) -0.03233(12)
N6 N 0.72247(19) 0.34066(19) 0.26377(11)
N7 N 1.0251(2) 0.3371(2) 0.62344(13)
N8 N 0.9800(2) 0.3524(2) 0.68084(13)
N9 N 0.9082(2) 0.4034(3) 0.66994(13)
N10 N 0.5572(2) 0.4425(2) 0.18988(13)
H40 H 0.520(2) 0.3755(10) 0.1817(16)
C35 C 0.6923(2) 0.2348(2) 0.27018(14)
C36 C 0.7721(3) 0.1730(2) 0.25217(15)
H41 H 0.7307 0.1014 0.2282
H42 H 0.8242 0.2104 0.2230
C37 C 0.8359(3) 0.1632(2) 0.31465(15)
C38 C 0.7803(3) 0.1182(3) 0.36620(16)
H43 H 0.7028 0.0919 0.3616
C39 C 0.8371(3) 0.1114(3) 0.42438(16)
H44 H 0.7978 0.0811 0.4583
C40 C 0.9519(3) 0.1497(3) 0.43194(15)
C41 C 1.0083(3) 0.1907(3) 0.37993(17)
H45 H 1.0858 0.2142 0.3837
C42 C 0.9507(3) 0.1972(3) 0.32244(16)
H46 H 0.9902 0.2253 0.2879
C43 C 0.9616(3) 0.1178(3) 0.54557(16)
H47 H 0.9288 0.0396 0.5391
H48 H 0.9027 0.1491 0.5525
C44 C 1.0473(3) 0.1565(3) 0.60522(17)
H49 H 1.1034 0.1214 0.5983
H50 H 1.0116 0.1348 0.6446
C45 C 1.1043(3) 0.2783(3) 0.61792(18)
H51 H 1.1535 0.2984 0.6589
H52 H 1.1494 0.2990 0.5816
C46 C 0.9074(3) 0.4186(3) 0.60573(15)
C47 C 0.9823(3) 0.3773(3) 0.57586(17)
H53 H 0.9998 0.3772 0.5318
C48 C 0.8321(3) 0.4711(3) 0.57751(15)
H54 H 0.7585 0.4440 0.5926
H55 H 0.8610 0.5488 0.5917
C49 C 0.7492(3) 0.4703(3) 0.46903(15)
C50 C 0.7392(3) 0.4304(2) 0.40145(14)
H56 H 0.7849 0.3916 0.3854
C51 C 0.6630(2) 0.4468(2) 0.35731(14)
C52 C 0.5960(3) 0.5055(3) 0.38260(17)
H57 H 0.5438 0.5178 0.3539
C53 C 0.6063(3) 0.5452(3) 0.44912(17)
H58 H 0.5606 0.5841 0.4651
C54 C 0.6828(3) 0.5291(3) 0.49357(17)
H59 H 0.6894 0.5572 0.5388
C55 C 0.6435(2) 0.3970(2) 0.28425(14)
H60 H 0.5696 0.3418 0.2781
C56 C 0.6386(2) 0.4807(2) 0.23856(14)
C57 C 0.5252(3) 0.5033(3) 0.14086(15)
C58 C 0.6196(3) 0.5444(4) 0.0987(2)
H61 H 0.6358 0.4842 0.0743
H62 H 0.6845 0.5901 0.1272
H63 H 0.5986 0.5851 0.0679
C59 C 0.4234(4) 0.4261(3) 0.0980(2)
H64 H 0.3989 0.4632 0.0661
H65 H 0.3649 0.3999 0.1259
H66 H 0.4416 0.3662 0.0748
C60 C 0.8289(2) 0.4024(2) 0.24304(15)
H67 H 0.8850 0.3722 0.2568
H68 H 0.8498 0.4763 0.2663
C61 C 0.4956(4) 0.5972(3) 0.1779(2)
H69 H 0.4735 0.6360 0.1462
H70 H 0.5592 0.6450 0.2065
H71 H 0.4353 0.5701 0.2044
C62 C 0.8291(2) 0.4040(2) 0.16905(15)
C63 C 0.9084(3) 0.4875(3) 0.14575(17)
H72 H 0.9616 0.5397 0.1763
C64 C 0.9099(3) 0.4946(3) 0.07909(18)
H73 H 0.9646 0.5506 0.0649
C65 C 0.8301(3) 0.4185(3) 0.03249(16)
C66 C 0.7533(3) 0.3324(3) 0.05397(16)
H74 H 0.7021 0.2784 0.0233
C67 C 0.7537(2) 0.3273(3) 0.12178(15)
H75 H 0.7008 0.2698 0.1359
C68 C 0.7550(4) 0.3612(4) -0.08184(19)
H76 H 0.7655 0.3854 -0.1243
H77 H 0.6813 0.3560 -0.0702
H78 H 0.7644 0.2914 -0.0846
loop_
_geom_bond_atom_site_label_1
_geom_bond_atom_site_label_2
_geom_bond_site_symmetry_1
_geom_bond_site_symmetry_2
O1 C1 1_555 1_555
O2 C6 1_555 1_555
O3 C14 1_555 1_555
O4 C22 1_555 1_555
O5 C31 1_555 1_555
N1 C1 1_555 1_555
N2 N3 1_555 1_555
N3 N4 1_555 1_555
N4 C12 1_555 1_555
N5 H1 1_555 1_555
C1 C2 1_555 1_555
C2 H2 1_555 1_555
H3 C2 1_555 1_555
C3 C2 1_555 1_555
C4 C3 1_555 1_555
H4 C4 1_555 1_555
C5 C4 1_555 1_555
H5 C5 1_555 1_555
C6 C5 1_555 1_555
C7 C6 1_555 1_555
H6 C7 1_555 1_555
C8 C3 1_555 1_555
H7 C8 1_555 1_555
C9 O2 1_555 1_555
H8 C9 1_555 1_555
H9 C9 1_555 1_555
C10 C9 1_555 1_555
H10 C10 1_555 1_555
H11 C10 1_555 1_555
C11 N2 1_555 1_555
H12 C11 1_555 1_555
H13 C11 1_555 1_555
C12 C13 1_555 1_555
C13 N2 1_555 1_555
H14 C13 1_555 1_555
C14 C12 1_555 1_555
H15 C14 1_555 1_555
H16 C14 1_555 1_555
C15 O3 1_555 1_555
C16 C15 1_555 1_555
H17 C16 1_555 1_555
C17 C16 1_555 1_555
C18 C17 1_555 1_555
H18 C18 1_555 1_555
C19 C18 1_555 1_555
H19 C19 1_555 1_555
C20 C15 1_555 1_555
H20 C20 1_555 1_555
C21 N1 1_555 1_555
H21 C21 1_555 1_555
C22 N5 1_555 1_555
C23 N5 1_555 1_555
C24 C23 1_555 1_555
H22 C24 1_555 1_555
H23 C24 1_555 1_555
H24 C24 1_555 1_555
C25 C23 1_555 1_555
H25 C25 1_555 1_555
H26 C25 1_555 1_555
H27 C25 1_555 1_555
C26 C23 1_555 1_555
H28 C26 1_555 1_555
H29 C26 1_555 1_555
H30 C26 1_555 1_555
C27 N1 1_555 1_555
H31 C27 1_555 1_555
H32 C27 1_555 1_555
C28 C27 1_555 1_555
C29 C28 1_555 1_555
H33 C29 1_555 1_555
C30 C29 1_555 1_555
H34 C30 1_555 1_555
C31 C30 1_555 1_555
C32 C31 1_555 1_555
H35 C32 1_555 1_555
C33 C28 1_555 1_555
H36 C33 1_555 1_555
C34 O5 1_555 1_555
H37 C34 1_555 1_555
H38 C34 1_555 1_555
H39 C34 1_555 1_555
O6 C35 1_555 1_555
O7 C40 1_555 1_555
O8 C48 1_555 1_555
O9 C56 1_555 1_555
O10 C65 1_555 1_555
N6 C35 1_555 1_555
N7 N8 1_555 1_555
N8 N9 1_555 1_555
N9 C46 1_555 1_555
N10 H40 1_555 1_555
C35 C36 1_555 1_555
C36 H41 1_555 1_555
H42 C36 1_555 1_555
C37 C36 1_555 1_555
C38 C37 1_555 1_555
H43 C38 1_555 1_555
C39 C38 1_555 1_555
H44 C39 1_555 1_555
C40 C39 1_555 1_555
C41 C40 1_555 1_555
H45 C41 1_555 1_555
C42 C37 1_555 1_555
H46 C42 1_555 1_555
C43 O7 1_555 1_555
H47 C43 1_555 1_555
H48 C43 1_555 1_555
C44 C43 1_555 1_555
H49 C44 1_555 1_555
H50 C44 1_555 1_555
C45 N7 1_555 1_555
H51 C45 1_555 1_555
H52 C45 1_555 1_555
C46 C47 1_555 1_555
C47 N7 1_555 1_555
H53 C47 1_555 1_555
C48 C46 1_555 1_555
H54 C48 1_555 1_555
H55 C48 1_555 1_555
C49 O8 1_555 1_555
C50 C49 1_555 1_555
H56 C50 1_555 1_555
C51 C50 1_555 1_555
C52 C51 1_555 1_555
H57 C52 1_555 1_555
C53 C52 1_555 1_555
H58 C53 1_555 1_555
C54 C49 1_555 1_555
H59 C54 1_555 1_555
C55 N6 1_555 1_555
H60 C55 1_555 1_555
C56 N10 1_555 1_555
C57 N10 1_555 1_555
C58 C57 1_555 1_555
H61 C58 1_555 1_555
H62 C58 1_555 1_555
H63 C58 1_555 1_555
C59 C57 1_555 1_555
H64 C59 1_555 1_555
H65 C59 1_555 1_555
H66 C59 1_555 1_555
C60 N6 1_555 1_555
H67 C60 1_555 1_555
H68 C60 1_555 1_555
C61 C57 1_555 1_555
H69 C61 1_555 1_555
H70 C61 1_555 1_555
H71 C61 1_555 1_555
C62 C60 1_555 1_555
C63 C62 1_555 1_555
H72 C63 1_555 1_555
C64 C63 1_555 1_555
H73 C64 1_555 1_555
C65 C64 1_555 1_555
C66 C65 1_555 1_555
H74 C66 1_555 1_555
C67 C62 1_555 1_555
H75 C67 1_555 1_555
C68 O10 1_555 1_555
H76 C68 1_555 1_555
H77 C68 1_555 1_555
H78 C68 1_555 1_555
C7 C8 1_555 1_555
C10 C11 1_555 1_555
C17 C21 1_555 1_555
C19 C20 1_555 1_555
C21 C22 1_555 1_555
C32 C33 1_555 1_555
C41 C42 1_555 1_555
C44 C45 1_555 1_555
C51 C55 1_555 1_555
C53 C54 1_555 1_555
C55 C56 1_555 1_555
C66 C67 1_555 1_555

#END
