
#######################################################################
#
#                 Cambridge Crystallographic Data Centre
#                                CCDC 
#
#######################################################################
#
# If this CIF has been generated from an entry in the Cambridge 
# Structural Database, then it will include bibliographic, chemical, 
# crystal, experimental, refinement or atomic coordinate data resulting 
# from the CCDC's data processing and validation procedures.
#
#######################################################################

data_HEZMUV
_chemical_formula_moiety         'C22 H20 N2 O3'
_chemical_name_systematic        
4-Benzoylamino-2-p-tolyl-cis-2,3,3a,4,7,7a-hexahydroisoindole-1,3-dione
_symmetry_cell_setting           orthorhombic
_symmetry_space_group_name_H-M   'P c a 21'
_symmetry_Int_Tables_number      29
_space_group_name_Hall           'P 2c -2ac'
loop_
_symmetry_equiv_pos_site_id
_symmetry_equiv_pos_as_xyz
1 x,y,z
2 1/2-x,y,1/2+z
3 1/2+x,-y,z
4 -x,-y,1/2+z
_cell_length_a                   10.4563(3)
_cell_length_b                   6.7793(2)
_cell_length_c                   25.4957(6)
_cell_angle_alpha                90
_cell_angle_beta                 90
_cell_angle_gamma                90
_cell_volume                     1807.3
_exptl_crystal_colour            colorless
_exptl_crystal_description       block
_chemical_melting_point          '189-190 deg.C'
_cell_formula_units_Z            4
loop_
_atom_site_label
_atom_site_type_symbol
_atom_site_fract_x
_atom_site_fract_y
_atom_site_fract_z
O1 O 0.7438(2) 0.4311(2) 0.34376(7)
O2 O 0.8682(2) 0.9322(3) 0.44994(7)
O3 O 1.0753(2) 0.4471(3) 0.22537(8)
N1 N 0.7928(2) 0.6559(3) 0.40755(8)
N2 N 0.8725(2) 0.5288(3) 0.24346(8)
C1 C 0.9296(2) 0.6458(3) 0.3340(1)
C2 C 0.8120(2) 0.5594(3) 0.3598(1)
C3 C 0.8728(3) 0.8199(4) 0.4135(1)
C4 C 0.9612(3) 0.8308(4) 0.3668(1)
C5 C 0.9386(3) 1.0265(4) 0.3372(1)
C6 C 0.8222(3) 1.0125(4) 0.3034(1)
C7 C 0.8065(3) 0.8566(4) 0.2734(1)
C8 C 0.9051(2) 0.6970(3) 0.2757(1)
C9 C 0.9611(2) 0.4189(4) 0.2195(1)
C10 C 0.9134(2) 0.2580(4) 0.18420(9)
C11 C 0.9844(3) 0.0853(4) 0.1803(1)
C12 C 0.9438(3) -0.0670(5) 0.1484(1)
C13 C 0.8368(3) -0.0479(5) 0.1192(1)
C14 C 0.7679(3) 0.1247(6) 0.1211(1)
C15 C 0.8037(3) 0.2774(5) 0.1542(1)
C16 C 0.6981(2) 0.5940(3) 0.44477(9)
C17 C 0.6981(3) 0.4000(4) 0.4613(1)
C18 C 0.6083(3) 0.3406(4) 0.4983(1)
C19 C 0.5188(3) 0.4701(5) 0.51865(9)
C20 C 0.5221(3) 0.6649(5) 0.5012(1)
C21 C 0.6099(3) 0.7270(4) 0.4641(1)
C22 C 0.4230(4) 0.4011(6) 0.5585(1)
H1 H 1.0004 0.5515 0.3365
H2 H 1.0503 0.8242 0.3786
H3 H 0.9261 1.1310 0.3627
H4 H 1.0126 1.0565 0.3157
H5 H 0.7585 1.1185 0.3033
H6 H 0.7320 0.8444 0.2503
H7 H 0.9848 0.7521 0.2617
H8 H 1.0638 0.0720 0.2005
H9 H 0.9929 -0.1901 0.1474
H10 H 0.8080 -0.1567 0.0968
H11 H 0.6931 0.1411 0.0984
H12 H 0.7521 0.3978 0.1564
H13 H 0.7603 0.3060 0.4472
H14 H 0.6079 0.2030 0.5101
H15 H 0.4609 0.7603 0.5155
H16 H 0.6098 0.8638 0.4516
H17 H 0.3475 0.3559 0.5408
H18 H 0.4014 0.5084 0.5815
H19 H 0.4602 0.2939 0.5778
H20 H 0.7931 0.4983 0.2399
loop_
_geom_bond_atom_site_label_1
_geom_bond_atom_site_label_2
_geom_bond_site_symmetry_1
_geom_bond_site_symmetry_2
O1 C2 1_555 1_555
O2 C3 1_555 1_555
O3 C9 1_555 1_555
N1 C2 1_555 1_555
N2 C8 1_555 1_555
C1 C2 1_555 1_555
C3 N1 1_555 1_555
C4 C1 1_555 1_555
C5 C4 1_555 1_555
C6 C5 1_555 1_555
C7 C6 1_555 1_555
C8 C1 1_555 1_555
C9 N2 1_555 1_555
C10 C9 1_555 1_555
C11 C10 1_555 1_555
C12 C11 1_555 1_555
C13 C12 1_555 1_555
C14 C13 1_555 1_555
C15 C10 1_555 1_555
C16 N1 1_555 1_555
C17 C16 1_555 1_555
C18 C17 1_555 1_555
C19 C18 1_555 1_555
C20 C19 1_555 1_555
C21 C16 1_555 1_555
C22 C19 1_555 1_555
H1 C1 1_555 1_555
H2 C4 1_555 1_555
H3 C5 1_555 1_555
H4 C5 1_555 1_555
H5 C6 1_555 1_555
H6 C7 1_555 1_555
H7 C8 1_555 1_555
H8 C11 1_555 1_555
H9 C12 1_555 1_555
H10 C13 1_555 1_555
H11 C14 1_555 1_555
H12 C15 1_555 1_555
H13 C17 1_555 1_555
H14 C18 1_555 1_555
H15 C20 1_555 1_555
H16 C21 1_555 1_555
H17 C22 1_555 1_555
H18 C22 1_555 1_555
H19 C22 1_555 1_555
H20 N2 1_555 1_555
C3 C4 1_555 1_555
C7 C8 1_555 1_555
C14 C15 1_555 1_555
C20 C21 1_555 1_555

#END
