
#######################################################################
#
#                 Cambridge Crystallographic Data Centre
#                                CCDC 
#
#######################################################################
#
# If this CIF has been generated from an entry in the Cambridge 
# Structural Database, then it will include bibliographic, chemical, 
# crystal, experimental, refinement or atomic coordinate data resulting 
# from the CCDC's data processing and validation procedures.
#
#######################################################################

data_HEZNIK
_chemical_formula_moiety         'C33 H32 N2 O3'
_chemical_name_systematic        
2-(2,4-Dimethylanilino)-3-methyl-6-(diethylamino)fluorane
_symmetry_cell_setting           triclinic
_symmetry_space_group_name_H-M   'P -1'
_symmetry_Int_Tables_number      2
_space_group_name_Hall           '-P 1'
loop_
_symmetry_equiv_pos_site_id
_symmetry_equiv_pos_as_xyz
1 x,y,z
2 -x,-y,-z
_cell_length_a                   11.2877(9)
_cell_length_b                   11.9539(9)
_cell_length_c                   12.2365(9)
_cell_angle_alpha                97.2580(10)
_cell_angle_beta                 116.2850(10)
_cell_angle_gamma                106.3710(10)
_cell_volume                     1358.48
_exptl_crystal_colour            colorless
_cell_formula_units_Z            2
_exptl_crystal_recrystallization_method isopropanol
loop_
_atom_site_label
_atom_site_type_symbol
_atom_site_fract_x
_atom_site_fract_y
_atom_site_fract_z
O1 O 0.0573(2) 0.82847(15) 0.47373(17)
O2 O 0.02896(18) 1.01173(16) 0.22977(16)
O3 O 0.0163(3) 1.1252(2) 0.0963(2)
N1 N 0.3812(3) 1.3258(2) 0.6793(2)
H1 H 0.4418 1.3517 0.7597
N2 N -0.1699(4) 0.4426(2) 0.1657(3)
C1 C 0.4853(3) 1.5259(3) 0.6637(3)
C2 C 0.4711(3) 1.6122(3) 0.5992(3)
H2 H 0.5471 1.6870 0.6339
C3 C 0.3503(3) 1.5937(3) 0.4858(3)
C4 C 0.2389(3) 1.4821(3) 0.4369(3)
H3 H 0.1561 1.4665 0.3606
C5 C 0.2475(3) 1.3928(3) 0.4988(3)
H4 H 0.1704 1.3188 0.4643
C6 C 0.3708(3) 1.4133(2) 0.6122(3)
C7 C 0.3012(3) 1.1998(2) 0.6261(2)
C8 C 0.2622(3) 1.1407(2) 0.5038(2)
H5 H 0.2923 1.1854 0.4576
C9 C 0.1797(3) 1.0172(2) 0.4472(2)
C10 C 0.1297(3) 0.9577(2) 0.3102(2)
C11 C 0.0519(3) 0.8229(2) 0.2727(2)
C12 C 0.0066(3) 0.7474(2) 0.1542(3)
H6 H 0.0262 0.7822 0.0972
C13 C -0.0657(3) 0.6236(3) 0.1177(3)
H7 H -0.0935 0.5767 0.0375
C14 C -0.0983(3) 0.5668(3) 0.2007(3)
C15 C -0.0552(3) 0.6418(2) 0.3187(3)
H8 H -0.0758 0.6079 0.3755
C16 C 0.0182(3) 0.7663(2) 0.3529(2)
C17 C 0.1401(3) 0.9509(2) 0.5193(2)
C18 C 0.1836(3) 1.0082(2) 0.6441(2)
H9 H 0.1583 0.9622 0.6917
C19 C 0.2632(3) 1.1313(2) 0.6995(2)
C20 C 0.3080(3) 1.1914(3) 0.8350(3)
H10 H 0.2738 1.1312 0.8702
H11 H 0.2683 1.2525 0.8363
H12 H 0.4103 1.2287 0.8847
C21 C 0.2460(3) 0.9938(2) 0.2758(2)
C22 C 0.3696(3) 0.9704(3) 0.3194(3)
H13 H 0.3929 0.9282 0.3796
C23 C 0.4575(4) 1.0116(3) 0.2706(4)
H14 H 0.5417 0.9976 0.2989
C24 C 0.4219(4) 1.0736(3) 0.1801(4)
H15 H 0.4823 1.0996 0.1479
C25 C 0.3001(4) 1.0975(3) 0.1370(3)
H16 H 0.2766 1.1394 0.0764
C26 C 0.2127(3) 1.0569(2) 0.1872(2)
C27 C 0.0787(3) 1.0713(2) 0.1623(2)
C28 C -0.1631(10) 0.3596(4) 0.0677(6)
H17 H -0.0969 0.4120 0.0481
H18 H -0.1163 0.3093 0.1118
C29 C -0.2596(9) 0.2927(9) -0.0313(8)
H19 H -0.2249 0.2500 -0.0745
H20 H -0.3059 0.3385 -0.0824
H21 H -0.3266 0.2351 -0.0177
C30 C -0.2462(5) 0.3888(4) 0.2296(4)
H22 H -0.2632 0.4518 0.2717
H23 H -0.3384 0.3270 0.1656
C31 C -0.1724(7) 0.3360(6) 0.3195(5)
H24 H -0.2272 0.3036 0.3580
H25 H -0.0816 0.3968 0.3841
H26 H -0.1580 0.2716 0.2782
C32 C 0.3405(4) 1.6919(3) 0.4203(4)
H27 H 0.2496 1.6626 0.3433
H28 H 0.4154 1.7131 0.4001
H29 H 0.3502 1.7624 0.4758
C33 C 0.6205(4) 1.5534(3) 0.7877(3)
H30 H 0.6870 1.6340 0.8076
H31 H 0.6621 1.4952 0.7797
H32 H 0.5985 1.5485 0.8547
loop_
_geom_bond_atom_site_label_1
_geom_bond_atom_site_label_2
_geom_bond_site_symmetry_1
_geom_bond_site_symmetry_2
O1 C16 1_555 1_555
O2 C10 1_555 1_555
O3 C27 1_555 1_555
N1 H1 1_555 1_555
N2 C14 1_555 1_555
C1 C2 1_555 1_555
C2 H2 1_555 1_555
C3 C2 1_555 1_555
C4 C3 1_555 1_555
H3 C4 1_555 1_555
C5 C4 1_555 1_555
H4 C5 1_555 1_555
C6 N1 1_555 1_555
C7 N1 1_555 1_555
C8 C7 1_555 1_555
H5 C8 1_555 1_555
C9 C8 1_555 1_555
C10 C9 1_555 1_555
C11 C10 1_555 1_555
C12 C11 1_555 1_555
H6 C12 1_555 1_555
C13 C12 1_555 1_555
H7 C13 1_555 1_555
C14 C13 1_555 1_555
C15 C14 1_555 1_555
H8 C15 1_555 1_555
C16 C11 1_555 1_555
C17 O1 1_555 1_555
C18 C17 1_555 1_555
H9 C18 1_555 1_555
C19 C7 1_555 1_555
C20 C19 1_555 1_555
H10 C20 1_555 1_555
H11 C20 1_555 1_555
H12 C20 1_555 1_555
C21 C10 1_555 1_555
C22 C21 1_555 1_555
H13 C22 1_555 1_555
C23 C22 1_555 1_555
H14 C23 1_555 1_555
C24 C23 1_555 1_555
H15 C24 1_555 1_555
C25 C24 1_555 1_555
H16 C25 1_555 1_555
C26 C21 1_555 1_555
C27 O2 1_555 1_555
C28 N2 1_555 1_555
H17 C28 1_555 1_555
H18 C28 1_555 1_555
C29 C28 1_555 1_555
H19 C29 1_555 1_555
H20 C29 1_555 1_555
H21 C29 1_555 1_555
C30 N2 1_555 1_555
H22 C30 1_555 1_555
H23 C30 1_555 1_555
C31 C30 1_555 1_555
H24 C31 1_555 1_555
H25 C31 1_555 1_555
H26 C31 1_555 1_555
C32 C3 1_555 1_555
H27 C32 1_555 1_555
H28 C32 1_555 1_555
H29 C32 1_555 1_555
C33 C1 1_555 1_555
H30 C33 1_555 1_555
H31 C33 1_555 1_555
H32 C33 1_555 1_555
C1 C6 1_555 1_555
C5 C6 1_555 1_555
C9 C17 1_555 1_555
C15 C16 1_555 1_555
C18 C19 1_555 1_555
C25 C26 1_555 1_555
C26 C27 1_555 1_555

#END
