
#######################################################################
#
#                 Cambridge Crystallographic Data Centre
#                                CCDC 
#
#######################################################################
#
# If this CIF has been generated from an entry in the Cambridge 
# Structural Database, then it will include bibliographic, chemical, 
# crystal, experimental, refinement or atomic coordinate data resulting 
# from the CCDC's data processing and validation procedures.
#
#######################################################################

data_HEZPOU
_chemical_formula_moiety         'C21 H22 F1 N1 O2 S1'
_chemical_name_systematic        
3-t-butyl-5-[2-(3-fluorophenyl)ethenyl]-2,3-dihydro-1H-1,2-benzothiazepine-1,1-dione
_symmetry_cell_setting           hexagonal
_symmetry_space_group_name_H-M   'P 65'
_symmetry_Int_Tables_number      170
_space_group_name_Hall           'P 65'
loop_
_symmetry_equiv_pos_site_id
_symmetry_equiv_pos_as_xyz
1 x,y,z
2 -y,x-y,2/3+z
3 -x+y,-x,1/3+z
4 -x,-y,1/2+z
5 y,-x+y,1/6+z
6 x-y,x,5/6+z
_cell_length_a                   19.2452(3)
_cell_length_b                   19.2452(3)
_cell_length_c                   9.2133(2)
_cell_angle_alpha                90
_cell_angle_beta                 90
_cell_angle_gamma                120
_cell_volume                     2955.23
_exptl_crystal_colour            colorless
_exptl_crystal_description       block
_cell_formula_units_Z            6
loop_
_atom_site_label
_atom_site_type_symbol
_atom_site_fract_x
_atom_site_fract_y
_atom_site_fract_z
S1 S 0.22283(6) 0.02116(6) 0.69814(13)
C1 C 0.2182(3) -0.0030(3) 0.5107(5)
N1 N 0.2541(2) -0.0335(2) 0.7775(5)
H1 H 0.2332 -0.0564 0.8613
O1 O 0.1426(2) -0.0076(2) 0.7505(5)
F1 F 0.5266(2) 0.41782(18) 0.0564(4)
O2 O 0.2816(2) 0.10426(19) 0.7171(4)
C2 C 0.2892(3) 0.0185(2) 0.4341(5)
C3 C 0.3687(2) 0.0588(2) 0.5092(5)
C4 C 0.1432(3) -0.0427(3) 0.4431(8)
H2 H 0.0958 -0.0562 0.4963
C5 C 0.1391(4) -0.0621(3) 0.2979(8)
H3 H 0.0884 -0.0894 0.2509
C6 C 0.2081(4) -0.0421(3) 0.2200(7)
H4 H 0.2047 -0.0559 0.1202
C7 C 0.2826(3) -0.0018(3) 0.2881(6)
H5 H 0.3297 0.0121 0.2337
C8 C 0.4338(3) 0.1340(3) 0.4518(5)
H6 H 0.4848 0.1535 0.4961
C9 C 0.4301(2) 0.1785(2) 0.3446(5)
H7 H 0.3807 0.1581 0.2940
C10 C 0.4970(2) 0.2570(2) 0.2985(5)
C11 C 0.4814(3) 0.3014(3) 0.1958(5)
H8 H 0.4296 0.2803 0.1542
C12 C 0.5428(3) 0.3762(3) 0.1566(5)
C13 C 0.6186(3) 0.4113(3) 0.2141(5)
H9 H 0.6588 0.4638 0.1866
C14 C 0.6342(3) 0.3670(3) 0.3136(5)
H10 H 0.6865 0.3889 0.3535
C15 C 0.5748(3) 0.2914(3) 0.3560(5)
H11 H 0.5869 0.2623 0.4251
C16 C 0.3797(2) 0.0299(2) 0.6337(5)
H12 H 0.4309 0.0592 0.6784
C17 C 0.3179(2) -0.0452(2) 0.7092(5)
H13 H 0.2919 -0.0885 0.6346
C18 C 0.3567(3) -0.0738(3) 0.8257(5)
C19 C 0.4162(3) -0.0914(3) 0.7503(7)
H14 H 0.3874 -0.1374 0.6852
H15 H 0.4456 -0.1037 0.8230
H16 H 0.4541 -0.0444 0.6938
C20 C 0.3982(3) -0.0098(3) 0.9428(5)
H17 H 0.4462 0.0361 0.9020
H18 H 0.4136 -0.0322 1.0239
H19 H 0.3614 0.0079 0.9776
C21 C 0.2909(3) -0.1517(3) 0.8965(7)
H20 H 0.2604 -0.1910 0.8208
H21 H 0.2547 -0.1401 0.9528
H22 H 0.3158 -0.1735 0.9610
loop_
_geom_bond_atom_site_label_1
_geom_bond_atom_site_label_2
_geom_bond_site_symmetry_1
_geom_bond_site_symmetry_2
S1 C1 1_555 1_555
C1 C2 1_555 1_555
N1 S1 1_555 1_555
H1 N1 1_555 1_555
O1 S1 1_555 1_555
F1 C12 1_555 1_555
O2 S1 1_555 1_555
C2 C3 1_555 1_555
C3 C8 1_555 1_555
C4 C1 1_555 1_555
H2 C4 1_555 1_555
C5 C4 1_555 1_555
H3 C5 1_555 1_555
C6 C5 1_555 1_555
H4 C6 1_555 1_555
C7 C2 1_555 1_555
H5 C7 1_555 1_555
C8 H6 1_555 1_555
C9 C8 1_555 1_555
H7 C9 1_555 1_555
C10 C9 1_555 1_555
C11 C10 1_555 1_555
H8 C11 1_555 1_555
C12 C11 1_555 1_555
C13 C12 1_555 1_555
H9 C13 1_555 1_555
C14 C13 1_555 1_555
H10 C14 1_555 1_555
C15 C10 1_555 1_555
H11 C15 1_555 1_555
C16 C3 1_555 1_555
H12 C16 1_555 1_555
C17 N1 1_555 1_555
H13 C17 1_555 1_555
C18 C17 1_555 1_555
C19 C18 1_555 1_555
H14 C19 1_555 1_555
H15 C19 1_555 1_555
H16 C19 1_555 1_555
C20 C18 1_555 1_555
H17 C20 1_555 1_555
H18 C20 1_555 1_555
H19 C20 1_555 1_555
C21 C18 1_555 1_555
H20 C21 1_555 1_555
H21 C21 1_555 1_555
H22 C21 1_555 1_555
C6 C7 1_555 1_555
C14 C15 1_555 1_555
C16 C17 1_555 1_555

#END
