
#######################################################################
#
#                 Cambridge Crystallographic Data Centre
#                                CCDC 
#
#######################################################################
#
# If this CIF has been generated from an entry in the Cambridge 
# Structural Database, then it will include bibliographic, chemical, 
# crystal, experimental, refinement or atomic coordinate data resulting 
# from the CCDC's data processing and validation procedures.
#
#######################################################################

data_HEZQIN01
_chemical_compound_source        'Daldinia eschscholzii'
_chemical_name_common            3,3-diindolylmethane
_chemical_formula_moiety         'C17 H14 N2'
_chemical_name_systematic        3,3'-methylenebis(1H-indole)
_symmetry_cell_setting           monoclinic
_symmetry_space_group_name_H-M   'C 2/c'
_symmetry_Int_Tables_number      15
_space_group_name_Hall           '-C 2yn'
loop_
_symmetry_equiv_pos_site_id
_symmetry_equiv_pos_as_xyz
1 x,y,z
2 -x,y,1/2-z
3 1/2+x,1/2+y,z
4 1/2-x,1/2+y,1/2-z
5 -x,-y,-z
6 x,-y,1/2+z
7 1/2-x,1/2-y,-z
8 1/2+x,1/2-y,1/2+z
_cell_length_a                   27.123(2)
_cell_length_b                   5.7091(4)
_cell_length_c                   8.2877(6)
_cell_angle_alpha                90
_cell_angle_beta                 106.445(3)
_cell_angle_gamma                90
_cell_volume                     1230.83
_exptl_crystal_colour            brown
_exptl_crystal_description       Prism
_cell_formula_units_Z            4
_chemical_properties_physical    'Air-sensitive, Oxygen-sensitive'
_exptl_crystal_recrystallization_method 'dichloromethane/ methanol'
loop_
_atom_site_label
_atom_site_type_symbol
_atom_site_fract_x
_atom_site_fract_y
_atom_site_fract_z
N1 N 0.10624(4) 1.0457(2) 0.92378(14)
H1 H 0.1191 1.1702 0.9780
C1 C 0.13261(5) 0.8872(2) 0.85634(15)
C2 C 0.18386(5) 0.8860(2) 0.85486(16)
H2 H 0.2063 1.0052 0.9055
C3 C 0.20001(5) 0.7014(3) 0.77546(17)
H3 H 0.2340 0.6957 0.7726
C4 C 0.16605(5) 0.5214(2) 0.69877(17)
H4 H 0.1780 0.3995 0.6455
C5 C 0.11537(5) 0.5221(2) 0.70093(16)
H5 H 0.0933 0.4014 0.6505
C6 C 0.09756(5) 0.7077(2) 0.78043(14)
C7 C 0.04866(5) 0.7684(2) 0.80413(15)
C8 C 0.05607(5) 0.9745(2) 0.89116(17)
H6 H 0.0307 1.0552 0.9238
C9 C 0.0000 0.6262(3) 0.7500
H7 H 0.0018 0.5258 0.6574
H7A H -0.0018 0.5258 0.8426
N1A N -0.10624(4) 1.0457(2) 0.57622(14)
H1A H -0.1191 1.1702 0.5220
C1A C -0.13261(5) 0.8872(2) 0.64366(15)
C2A C -0.18386(5) 0.8860(2) 0.64514(16)
H2A H -0.2063 1.0052 0.5945
C3A C -0.20001(5) 0.7014(3) 0.72454(17)
H3A H -0.2340 0.6957 0.7274
C4A C -0.16605(5) 0.5214(2) 0.80123(17)
H4A H -0.1780 0.3995 0.8545
C5A C -0.11537(5) 0.5221(2) 0.79907(16)
H5A H -0.0933 0.4014 0.8495
C6A C -0.09756(5) 0.7077(2) 0.71957(14)
C7A C -0.04866(5) 0.7684(2) 0.69587(15)
C8A C -0.05607(5) 0.9745(2) 0.60884(17)
H6A H -0.0307 1.0552 0.5762
H8? H 0.0018 0.5258 0.6574
loop_
_geom_bond_atom_site_label_1
_geom_bond_atom_site_label_2
_geom_bond_site_symmetry_1
_geom_bond_site_symmetry_2
N1 H1 1_555 1_555
C1 N1 1_555 1_555
C2 C1 1_555 1_555
H2 C2 1_555 1_555
C3 C2 1_555 1_555
H3 C3 1_555 1_555
C4 C3 1_555 1_555
H4 C4 1_555 1_555
C5 C4 1_555 1_555
H5 C5 1_555 1_555
C6 C1 1_555 1_555
C7 C6 1_555 1_555
C8 N1 1_555 1_555
H6 C8 1_555 1_555
C9 C7 1_555 1_555
H7 C9 1_555 1_555
H7A C9 1_555 1_555
N1A H1A 1_555 1_555
C1A N1A 1_555 1_555
C2A C1A 1_555 1_555
H2A C2A 1_555 1_555
C3A C2A 1_555 1_555
H3A C3A 1_555 1_555
C4A C3A 1_555 1_555
H4A C4A 1_555 1_555
C5A C4A 1_555 1_555
H5A C5A 1_555 1_555
C6A C1A 1_555 1_555
C7A C9 1_555 1_555
C8A N1A 1_555 1_555
H6A C8A 1_555 1_555
C5 C6 1_555 1_555
C7 C8 1_555 1_555
C5A C6A 1_555 1_555
C6A C7A 1_555 1_555
C7A C8A 1_555 1_555

#END
