
#######################################################################
#
#                 Cambridge Crystallographic Data Centre
#                                CCDC 
#
#######################################################################
#
# If this CIF has been generated from an entry in the Cambridge 
# Structural Database, then it will include bibliographic, chemical, 
# crystal, experimental, refinement or atomic coordinate data resulting 
# from the CCDC's data processing and validation procedures.
#
#######################################################################

data_HEZSOX
_chemical_formula_moiety         'C20 H27 Br1 N2 O4'
_chemical_name_systematic        
'di-t-butyl 3a-bromo-2,3,3a,8a-tetrahydropyrrolo[2,3-b]indole-1,8-dicarboxylate'
_symmetry_cell_setting           orthorhombic
_symmetry_space_group_name_H-M   'P 21 21 21'
_symmetry_Int_Tables_number      19
_space_group_name_Hall           'P 2ac 2ab'
loop_
_symmetry_equiv_pos_site_id
_symmetry_equiv_pos_as_xyz
1 x,y,z
2 1/2-x,-y,1/2+z
3 -x,1/2+y,1/2-z
4 1/2+x,1/2-y,-z
_cell_length_a                   9.93050(10)
_cell_length_b                   12.05900(10)
_cell_length_c                   18.5891(2)
_cell_angle_alpha                90
_cell_angle_beta                 90
_cell_angle_gamma                90
_cell_volume                     2226.08
_exptl_crystal_description       block
_cell_formula_units_Z            4
loop_
_atom_site_label
_atom_site_type_symbol
_atom_site_fract_x
_atom_site_fract_y
_atom_site_fract_z
Br1 Br 0.66501(4) 0.23966(3) 0.29253(2)
O1 O 0.2360(3) 0.13371(19) 0.30887(13)
N1 N 0.3140(2) 0.31153(18) 0.30271(11)
O2 O 0.1804(2) 0.2615(2) 0.39305(12)
O3 O 0.1773(2) 0.2335(2) 0.16173(12)
N2 N 0.3520(3) 0.3469(2) 0.17471(12)
C1 C 0.4966(3) 0.4276(2) 0.31187(13)
C2 C 0.5324(3) 0.3462(2) 0.25461(15)
C3 C 0.3693(3) 0.4045(2) 0.33917(13)
O4 O 0.2179(4) 0.3656(3) 0.07779(15)
C4 C 0.3968(3) 0.2886(2) 0.23944(13)
H1 H 0.4077 0.2088 0.2311
C5 C 0.2415(3) 0.2256(3) 0.33371(15)
C6 C 0.5710(4) 0.5157(3) 0.33813(16)
H2 H 0.6558 0.5314 0.3195
C7 C 0.3915(4) 0.5565(3) 0.41965(16)
H3 H 0.3568 0.6006 0.4563
C8 C 0.3146(4) 0.4686(3) 0.39373(15)
H4 H 0.2297 0.4534 0.4124
C9 C 0.5174(4) 0.5800(3) 0.39253(16)
H5 H 0.5664 0.6394 0.4109
C10 C 0.4481(5) 0.4310(3) 0.15012(16)
H6 H 0.4230 0.5042 0.1672
H7 H 0.4537 0.4324 0.0980
C11 C 0.5791(4) 0.3936(3) 0.18298(17)
H8 H 0.6404 0.4554 0.1898
H9 H 0.6226 0.3375 0.1537
C12 C 0.2448(4) 0.3187(3) 0.13351(17)
C13 C 0.1017(4) 0.1855(4) 0.4392(2)
C14 C -0.0183(5) 0.1443(6) 0.3997(3)
H10 H -0.0681 0.2061 0.3810
H11 H -0.0745 0.1026 0.4318
H12 H 0.0101 0.0976 0.3607
C15 C 0.1918(6) 0.0936(6) 0.4657(3)
H13 H 0.2030 0.0393 0.4284
H14 H 0.1517 0.0592 0.5071
H15 H 0.2780 0.1236 0.4786
C16 C 0.0508(4) 0.1935(5) 0.1296(2)
C17 C 0.0808(7) 0.1449(6) 0.0552(3)
H16 H 0.1134 0.2024 0.0241
H17 H -0.0001 0.1138 0.0354
H18 H 0.1479 0.0879 0.0595
C18 C 0.0619(7) 0.2619(8) 0.5006(3)
H19 H 0.1415 0.2913 0.5229
H20 H 0.0107 0.2211 0.5355
H21 H 0.0082 0.3218 0.4823
C19 C 0.0079(6) 0.1057(7) 0.1809(3)
H22 H 0.0711 0.0456 0.1795
H23 H -0.0797 0.0790 0.1676
H24 H 0.0044 0.1359 0.2286
C20 C -0.0499(6) 0.2859(8) 0.1252(5)
H25 H -0.0483 0.3277 0.1692
H26 H -0.1382 0.2555 0.1181
H27 H -0.0276 0.3336 0.0857
loop_
_geom_bond_atom_site_label_1
_geom_bond_atom_site_label_2
_geom_bond_site_symmetry_1
_geom_bond_site_symmetry_2
Br1 C2 1_555 1_555
O1 C5 1_555 1_555
N1 C3 1_555 1_555
O2 C5 1_555 1_555
O3 C12 1_555 1_555
N2 C4 1_555 1_555
C1 C2 1_555 1_555
C2 C4 1_555 1_555
C3 C1 1_555 1_555
O4 C12 1_555 1_555
C4 N1 1_555 1_555
H1 C4 1_555 1_555
C5 N1 1_555 1_555
C6 C1 1_555 1_555
H2 C6 1_555 1_555
C7 H3 1_555 1_555
C8 C3 1_555 1_555
H4 C8 1_555 1_555
C9 C6 1_555 1_555
H5 C9 1_555 1_555
C10 N2 1_555 1_555
H6 C10 1_555 1_555
H7 C10 1_555 1_555
C11 C2 1_555 1_555
H8 C11 1_555 1_555
H9 C11 1_555 1_555
C12 N2 1_555 1_555
C13 O2 1_555 1_555
C14 C13 1_555 1_555
H10 C14 1_555 1_555
H11 C14 1_555 1_555
H12 C14 1_555 1_555
C15 C13 1_555 1_555
H13 C15 1_555 1_555
H14 C15 1_555 1_555
H15 C15 1_555 1_555
C16 O3 1_555 1_555
C17 C16 1_555 1_555
H16 C17 1_555 1_555
H17 C17 1_555 1_555
H18 C17 1_555 1_555
C18 C13 1_555 1_555
H19 C18 1_555 1_555
H20 C18 1_555 1_555
H21 C18 1_555 1_555
C19 C16 1_555 1_555
H22 C19 1_555 1_555
H23 C19 1_555 1_555
H24 C19 1_555 1_555
C20 C16 1_555 1_555
H25 C20 1_555 1_555
H26 C20 1_555 1_555
H27 C20 1_555 1_555
C7 C8 1_555 1_555
C7 C9 1_555 1_555
C10 C11 1_555 1_555

#END
