
#######################################################################
#
#                 Cambridge Crystallographic Data Centre
#                                CCDC 
#
#######################################################################
#
# If this CIF has been generated from an entry in the Cambridge 
# Structural Database, then it will include bibliographic, chemical, 
# crystal, experimental, refinement or atomic coordinate data resulting 
# from the CCDC's data processing and validation procedures.
#
#######################################################################

data_HEZSUD
_chemical_formula_moiety         'C26 H32 B2 N4,C4 H8 O1'
_chemical_name_systematic        
"1,6-dimethyl-5,10-bis(2,4,6-trimethylphenyl)-5a,10a-dihydro-1H,5H-diimidazo[2,1-c:2',1'-f][1,4,2,5]diazadiborinine tetrahydrofuran solvate"
_symmetry_cell_setting           monoclinic
_symmetry_space_group_name_H-M   'C 2/c'
_symmetry_Int_Tables_number      15
_space_group_name_Hall           '-C 2yn'
loop_
_symmetry_equiv_pos_site_id
_symmetry_equiv_pos_as_xyz
1 x,y,z
2 -x,y,1/2-z
3 1/2+x,1/2+y,z
4 1/2-x,1/2+y,1/2-z
5 -x,-y,-z
6 x,-y,1/2+z
7 1/2-x,1/2-y,-z
8 1/2+x,1/2-y,1/2+z
_cell_length_a                   13.3757(2)
_cell_length_b                   9.84250(10)
_cell_length_c                   20.6673(3)
_cell_angle_alpha                90
_cell_angle_beta                 90.0664(9)
_cell_angle_gamma                90
_cell_volume                     2720.85
_exptl_crystal_colour            orange
_exptl_crystal_description       block
_cell_formula_units_Z            4
loop_
_atom_site_label
_atom_site_type_symbol
_atom_site_fract_x
_atom_site_fract_y
_atom_site_fract_z
B1 B 0.43407(12) 0.00221(16) 0.05985(8)
C1 C 0.36000(11) 0.01830(15) 0.11921(7)
C2 C 0.27387(11) -0.06323(15) 0.12613(7)
C3 C 0.25181(13) -0.17534(17) 0.07837(8)
H1 H 0.2256 -0.1359 0.0382
H2 H 0.2021 -0.2374 0.0968
H3 H 0.3134 -0.2255 0.069
C4 C 0.20776(11) -0.04173(16) 0.17747(7)
H4 H 0.1497 -0.0969 0.1809
C5 C 0.22478(11) 0.05807(16) 0.22360(7)
C6 C 0.15512(13) 0.07808(19) 0.28023(8)
H5 H 0.1572 0.1733 0.294
H6 H 0.1762 0.0196 0.3161
H7 H 0.0868 0.0543 0.2673
C7 C 0.30962(11) 0.13834(15) 0.21696(7)
H8 H 0.3224 0.2074 0.248
C8 C 0.37653(11) 0.12031(15) 0.16596(7)
C9 C 0.46649(12) 0.21263(17) 0.16151(8)
H9 H 0.527 0.1613 0.1725
H10 H 0.4587 0.2884 0.1918
H11 H 0.4722 0.248 0.1174
C10 C 0.45971(11) 0.04335(15) -0.06015(7)
C11 C 0.43242(12) 0.13283(17) -0.17326(7)
H12 H 0.4727 0.2158 -0.1703
H13 H 0.3743 0.1495 -0.201
H14 H 0.4729 0.0596 -0.1918
C12 C 0.30709(11) 0.12524(16) -0.08422(7)
H15 H 0.2527 0.1629 -0.1078
C13 C 0.30650(11) 0.09411(16) -0.02089(7)
H16 H 0.2516 0.105 0.0077
N1 N 0.40089(9) 0.04279(12) -0.00435(6)
N2 N 0.39897(9) 0.09386(13) -0.10924(6)
B1D B 0.56593(12) -0.00221(16) -0.05985(8)
C1D C 0.64000(11) -0.01830(15) -0.11921(7)
C2D C 0.72613(11) 0.06323(15) -0.12613(7)
C3D C 0.74819(13) 0.17534(17) -0.07837(8)
H1D H 0.7744 0.1359 -0.0382
H2D H 0.7979 0.2374 -0.0968
H3D H 0.6866 0.2255 -0.069
C4D C 0.79224(11) 0.04173(16) -0.17747(7)
H4D H 0.8503 0.0969 -0.1809
C5D C 0.77522(11) -0.05807(16) -0.22360(7)
C6D C 0.84488(13) -0.07808(19) -0.28023(8)
H5D H 0.8428 -0.1733 -0.294
H6D H 0.8238 -0.0196 -0.3161
H7D H 0.9132 -0.0543 -0.2673
C7D C 0.69038(11) -0.13834(15) -0.21696(7)
H8D H 0.6776 -0.2074 -0.248
C8D C 0.62347(11) -0.12031(15) -0.16596(7)
C9D C 0.53351(12) -0.21263(17) -0.16151(8)
H9D H 0.473 -0.1613 -0.1725
H10D H 0.5413 -0.2884 -0.1918
H11D H 0.5278 -0.248 -0.1174
C10D C 0.54029(11) -0.04335(15) 0.06015(7)
C11D C 0.56758(12) -0.13283(17) 0.17326(7)
H12D H 0.5273 -0.2158 0.1703
H13D H 0.6257 -0.1495 0.201
H14D H 0.5271 -0.0596 0.1918
C12D C 0.69291(11) -0.12524(16) 0.08422(7)
H15D H 0.7473 -0.1629 0.1078
C13D C 0.69350(11) -0.09411(16) 0.02089(7)
H16D H 0.7484 -0.105 -0.0077
N1D N 0.59911(9) -0.04279(12) 0.00435(6)
N2D N 0.60103(9) -0.09386(13) 0.10924(6)
O1? O 0.4304(3) 0.4445(4) 0.04267(19)
C14? C 0.4903(5) 0.5603(6) 0.0600(3)
H17? H 0.5503 0.5317 0.0846
H18? H 0.4514 0.6249 0.0867
C15? C 0.5195(10) 0.6239(12) -0.0033(4)
H19? H 0.5845 0.6716 0.0002
H20? H 0.4679 0.6888 -0.0184
C16? C 0.5269(5) 0.4990(6) -0.0489(3)
H21? H 0.4896 0.5151 -0.0897
H22? H 0.5974 0.4782 -0.0594
C17? C 0.4810(12) 0.3875(13) -0.0112(5)
H23? H 0.4332 0.3365 -0.0386
H24? H 0.5333 0.3238 0.0039
loop_
_geom_bond_atom_site_label_1
_geom_bond_atom_site_label_2
_geom_bond_site_symmetry_1
_geom_bond_site_symmetry_2
B1 C1 1_555 1_555
C1 C2 1_555 1_555
C2 C3 1_555 1_555
C3 H1 1_555 1_555
H2 C3 1_555 1_555
H3 C3 1_555 1_555
C4 C2 1_555 1_555
H4 C4 1_555 1_555
C5 C4 1_555 1_555
C6 C5 1_555 1_555
H5 C6 1_555 1_555
H6 C6 1_555 1_555
H7 C6 1_555 1_555
C7 C5 1_555 1_555
H8 C7 1_555 1_555
C8 C1 1_555 1_555
C9 C8 1_555 1_555
H9 C9 1_555 1_555
H10 C9 1_555 1_555
H11 C9 1_555 1_555
C10 N1 1_555 1_555
C11 H12 1_555 1_555
H13 C11 1_555 1_555
H14 C11 1_555 1_555
C12 H15 1_555 1_555
C13 C12 1_555 1_555
H16 C13 1_555 1_555
N1 B1 1_555 1_555
N2 C10 1_555 1_555
B1D C10 1_555 1_555
C1D B1D 1_555 1_555
C2D C1D 1_555 1_555
C3D C2D 1_555 1_555
H1D C3D 1_555 1_555
H2D C3D 1_555 1_555
H3D C3D 1_555 1_555
C4D C2D 1_555 1_555
H4D C4D 1_555 1_555
C5D C4D 1_555 1_555
C6D C5D 1_555 1_555
H5D C6D 1_555 1_555
H6D C6D 1_555 1_555
H7D C6D 1_555 1_555
C7D C5D 1_555 1_555
H8D C7D 1_555 1_555
C8D C1D 1_555 1_555
C9D C8D 1_555 1_555
H9D C9D 1_555 1_555
H10D C9D 1_555 1_555
H11D C9D 1_555 1_555
C10D B1 1_555 1_555
C11D H12D 1_555 1_555
H13D C11D 1_555 1_555
H14D C11D 1_555 1_555
C12D H15D 1_555 1_555
C13D C12D 1_555 1_555
H16D C13D 1_555 1_555
N1D B1D 1_555 1_555
N2D C10D 1_555 1_555
C7 C8 1_555 1_555
C11 N2 1_555 1_555
C12 N2 1_555 1_555
C13 N1 1_555 1_555
C7D C8D 1_555 1_555
C10D N1D 1_555 1_555
C11D N2D 1_555 1_555
C12D N2D 1_555 1_555
C13D N1D 1_555 1_555

#END
