
#######################################################################
#
#                 Cambridge Crystallographic Data Centre
#                                CCDC 
#
#######################################################################
#
# If this CIF has been generated from an entry in the Cambridge 
# Structural Database, then it will include bibliographic, chemical, 
# crystal, experimental, refinement or atomic coordinate data resulting 
# from the CCDC's data processing and validation procedures.
#
#######################################################################

data_HEZTAK
_chemical_formula_moiety         'C28 H32 B2 F6 N4 O6 S2'
_chemical_name_systematic        
1,6-dimethyl-5,10-bis((trifluoromethanesulfonyl)oxy)-5,10-bis(2,4,6-trimethylphenyl)-1,5,6,10-tetrahydrodiimidazo[2,1-c:2',1'-f][1,4,2,5]diazadiborinine-4,9-diium-2,5-diide
_symmetry_cell_setting           monoclinic
_symmetry_space_group_name_H-M   'P 21/c'
_symmetry_Int_Tables_number      14
_space_group_name_Hall           '-P 2ybc'
loop_
_symmetry_equiv_pos_site_id
_symmetry_equiv_pos_as_xyz
1 x,y,z
2 -x,1/2+y,1/2-z
3 -x,-y,-z
4 x,1/2-y,1/2+z
_cell_length_a                   7.7567(4)
_cell_length_b                   12.6187(5)
_cell_length_c                   16.2679(7)
_cell_angle_alpha                90
_cell_angle_beta                 94.6610(18)
_cell_angle_gamma                90
_cell_volume                     1587.03
_exptl_crystal_colour            colorless
_exptl_crystal_description       plate
_cell_formula_units_Z            2
loop_
_atom_site_label
_atom_site_type_symbol
_atom_site_fract_x
_atom_site_fract_y
_atom_site_fract_z
B1 B 0.5520(2) 0.59353(14) 0.44011(11)
C1 C 0.6213(2) 0.47732(12) 0.56965(10)
C2 C 0.7614(2) 0.40517(15) 0.70299(11)
H1 H 0.6542 0.3642 0.7042
H2 H 0.7748 0.4515 0.7514
H3 H 0.8601 0.3566 0.7036
C3 C 0.8879(2) 0.53374(14) 0.60741(10)
H4 H 0.9965 0.5425 0.6381
C4 C 0.8353(2) 0.58152(13) 0.53564(10)
H5 H 0.9004 0.6303 0.5062
C5 C 0.6536(2) 0.61316(13) 0.35845(10)
C6 C 0.7297(2) 0.71039(13) 0.33705(10)
C7 C 0.7377(3) 0.80929(14) 0.39005(12)
H6 H 0.8335 0.8542 0.3752
H7 H 0.7562 0.7892 0.4483
H8 H 0.6287 0.8484 0.3809
C8 C 0.8075(2) 0.71951(14) 0.26283(11)
H9 H 0.856 0.7858 0.2493
C9 C 0.8168(2) 0.63590(14) 0.20828(10)
C10 C 0.9021(3) 0.64970(17) 0.12885(11)
H10 H 0.8292 0.6944 0.091
H11 H 0.9173 0.5802 0.1035
H12 H 1.0153 0.6834 0.1405
C11 C 0.7497(2) 0.53947(14) 0.23037(10)
H13 H 0.7573 0.4804 0.1946
C12 C 0.6709(2) 0.52672(13) 0.30395(10)
C13 C 0.6107(2) 0.41564(14) 0.32215(11)
H14 H 0.4861 0.4099 0.3071
H15 H 0.6345 0.4006 0.3811
H16 H 0.6724 0.3645 0.29
C14 C 0.3809(2) 0.86245(14) 0.55153(12)
F1 F 0.53131(13) 0.90767(8) 0.54119(7)
F2 F 0.38916(17) 0.81898(9) 0.62570(7)
F3 F 0.25862(15) 0.93640(9) 0.54702(8)
N1 N 0.66935(17) 0.54663(11) 0.51262(8)
N2 N 0.75391(18) 0.46969(11) 0.62788(8)
O1 O 0.49241(14) 0.70185(9) 0.47950(7)
O2 O 0.30131(19) 0.81951(11) 0.39571(8)
O3 O 0.18273(16) 0.70526(10) 0.49876(8)
S1 S 0.32516(5) 0.76307(3) 0.47136(3)
B1B B 0.4480(2) 0.40647(14) 0.55989(11)
C1B C 0.3787(2) 0.52268(12) 0.43035(10)
C2B C 0.2386(2) 0.59483(15) 0.29701(11)
H1B H 0.3458 0.6358 0.2958
H2B H 0.2252 0.5485 0.2486
H3B H 0.1399 0.6434 0.2964
C3B C 0.1121(2) 0.46626(14) 0.39259(10)
H4B H 0.0035 0.4575 0.3619
C4B C 0.1647(2) 0.41848(13) 0.46436(10)
H5B H 0.0996 0.3697 0.4938
C5B C 0.3464(2) 0.38684(13) 0.64155(10)
C6B C 0.2703(2) 0.28961(13) 0.66295(10)
C7B C 0.2623(3) 0.19071(14) 0.60995(12)
H6B H 0.1665 0.1458 0.6248
H7B H 0.2438 0.2108 0.5517
H8B H 0.3713 0.1516 0.6191
C8B C 0.1925(2) 0.28049(14) 0.73717(11)
H9B H 0.144 0.2142 0.7507
C9B C 0.1832(2) 0.36410(14) 0.79172(10)
C10B C 0.0979(3) 0.35030(17) 0.87115(11)
H10B H 0.1708 0.3056 0.909
H11B H 0.0827 0.4198 0.8965
H12B H -0.0153 0.3166 0.8595
C11B C 0.2503(2) 0.46053(14) 0.76963(10)
H13B H 0.2427 0.5196 0.8054
C12B C 0.3291(2) 0.47328(13) 0.69605(10)
C13B C 0.3893(2) 0.58436(14) 0.67785(11)
H14B H 0.5139 0.5901 0.6929
H15B H 0.3655 0.5994 0.6189
H16B H 0.3276 0.6355 0.71
C14B C 0.6191(2) 0.13755(14) 0.44847(12)
F1B F 0.46869(13) 0.09233(8) 0.45881(7)
F2B F 0.61084(17) 0.18102(9) 0.37430(7)
F3B F 0.74138(15) 0.06360(9) 0.45298(8)
N1B N 0.33065(17) 0.45337(11) 0.48738(8)
N2B N 0.24609(18) 0.53031(11) 0.37212(8)
O1B O 0.50759(14) 0.29815(9) 0.52050(7)
O2B O 0.69869(19) 0.18049(11) 0.60429(8)
O3B O 0.81727(16) 0.29474(10) 0.50124(8)
S1B S 0.67484(5) 0.23693(3) 0.52864(3)
loop_
_geom_bond_atom_site_label_1
_geom_bond_atom_site_label_2
_geom_bond_site_symmetry_1
_geom_bond_site_symmetry_2
B1 C5 1_555 1_555
C1 N1 1_555 1_555
C2 H1 1_555 1_555
H2 C2 1_555 1_555
H3 C2 1_555 1_555
C3 H4 1_555 1_555
C4 C3 1_555 1_555
H5 C4 1_555 1_555
C5 C6 1_555 1_555
C6 C7 1_555 1_555
C7 H6 1_555 1_555
H7 C7 1_555 1_555
H8 C7 1_555 1_555
C8 C6 1_555 1_555
H9 C8 1_555 1_555
C9 C8 1_555 1_555
C10 C9 1_555 1_555
H10 C10 1_555 1_555
H11 C10 1_555 1_555
H12 C10 1_555 1_555
C11 C9 1_555 1_555
H13 C11 1_555 1_555
C12 C5 1_555 1_555
C13 C12 1_555 1_555
H14 C13 1_555 1_555
H15 C13 1_555 1_555
H16 C13 1_555 1_555
C14 F1 1_555 1_555
F2 C14 1_555 1_555
F3 C14 1_555 1_555
N1 B1 1_555 1_555
N2 C1 1_555 1_555
O1 B1 1_555 1_555
O2 S1 1_555 1_555
O3 S1 1_555 1_555
S1 C14 1_555 1_555
B1B C1 1_555 1_555
C1B B1 1_555 1_555
C2B H1B 1_555 1_555
H2B C2B 1_555 1_555
H3B C2B 1_555 1_555
C3B H4B 1_555 1_555
C4B C3B 1_555 1_555
H5B C4B 1_555 1_555
C5B B1B 1_555 1_555
C6B C5B 1_555 1_555
C7B C6B 1_555 1_555
H6B C7B 1_555 1_555
H7B C7B 1_555 1_555
H8B C7B 1_555 1_555
C8B C6B 1_555 1_555
H9B C8B 1_555 1_555
C9B C8B 1_555 1_555
C10B C9B 1_555 1_555
H10B C10B 1_555 1_555
H11B C10B 1_555 1_555
H12B C10B 1_555 1_555
C11B C9B 1_555 1_555
H13B C11B 1_555 1_555
C12B C5B 1_555 1_555
C13B C12B 1_555 1_555
H14B C13B 1_555 1_555
H15B C13B 1_555 1_555
H16B C13B 1_555 1_555
C14B F1B 1_555 1_555
F2B C14B 1_555 1_555
F3B C14B 1_555 1_555
N1B B1B 1_555 1_555
N2B C1B 1_555 1_555
O1B B1B 1_555 1_555
O2B S1B 1_555 1_555
O3B S1B 1_555 1_555
S1B C14B 1_555 1_555
C2 N2 1_555 1_555
C3 N2 1_555 1_555
C4 N1 1_555 1_555
C11 C12 1_555 1_555
O1 S1 1_555 1_555
C1B N1B 1_555 1_555
C2B N2B 1_555 1_555
C3B N2B 1_555 1_555
C4B N1B 1_555 1_555
C11B C12B 1_555 1_555
O1B S1B 1_555 1_555

#END
