
#######################################################################
#
#                 Cambridge Crystallographic Data Centre
#                                CCDC 
#
#######################################################################
#
# If this CIF has been generated from an entry in the Cambridge 
# Structural Database, then it will include bibliographic, chemical, 
# crystal, experimental, refinement or atomic coordinate data resulting 
# from the CCDC's data processing and validation procedures.
#
#######################################################################

data_HEZWER
_chemical_formula_moiety         'C25 H25 N1 O3 S1'
_chemical_name_systematic        
'3-(3-(benzyloxy)propyl)-3-(2-phenylvinyl)-2,3-dihydro-1,2-benzothiazole 1,1-dioxide'
_symmetry_cell_setting           orthorhombic
_symmetry_space_group_name_H-M   'P 21 21 21'
_symmetry_Int_Tables_number      19
_space_group_name_Hall           'P 2ac 2ab'
loop_
_symmetry_equiv_pos_site_id
_symmetry_equiv_pos_as_xyz
1 x,y,z
2 1/2-x,-y,1/2+z
3 1/2+x,1/2-y,-z
4 -x,1/2+y,1/2-z
_cell_length_a                   7.65150(10)
_cell_length_b                   11.0047(2)
_cell_length_c                   26.0381(4)
_cell_angle_alpha                90
_cell_angle_beta                 90
_cell_angle_gamma                90
_cell_volume                     2192.47
_exptl_crystal_colour            colorless
_exptl_crystal_description       block
_cell_formula_units_Z            4
loop_
_atom_site_label
_atom_site_type_symbol
_atom_site_fract_x
_atom_site_fract_y
_atom_site_fract_z
S1 S 0.58128(10) 0.18657(6) 0.15319(2)
O1 O 0.1285(3) 0.09180(16) -0.04005(7)
O2 O 0.6198(4) 0.2328(2) 0.20320(9)
O3 O 0.7297(3) 0.1554(2) 0.12225(10)
N1 N 0.4518(3) 0.27714(19) 0.12149(8)
C1 C 0.0414(4) 0.4974(2) 0.18603(9)
C2 C 0.2701(4) 0.1050(2) 0.13823(9)
C3 C 0.0982(5) 0.5890(2) 0.21946(10)
H1 H 0.2164 0.5950 0.2274
C4 C 0.1276(4) 0.0289(2) 0.14263(10)
H2 H 0.0191 0.0516 0.1297
C5 C 0.2325(4) 0.2226(2) 0.05524(9)
H3 H 0.1123 0.1966 0.0510
H4 H 0.2428 0.3031 0.0404
C6 C 0.2729(4) 0.2313(2) 0.11343(9)
C7 C 0.1505(5) -0.0832(3) 0.16700(11)
H5 H 0.0560 -0.1359 0.1699
C8 C 0.1382(4) 0.3126(2) 0.13837(9)
H6 H 0.0218 0.2891 0.1355
C9 C -0.0185(5) 0.6707(3) 0.24088(11)
H7 H 0.0215 0.7306 0.2632
C10 C 0.1704(4) 0.4137(2) 0.16383(10)
H8 H 0.2874 0.4342 0.1682
C11 C 0.3037(4) 0.1329(3) -0.03135(10)
H9 H 0.3171 0.2137 -0.0457
H10 H 0.3843 0.0794 -0.0491
C12 C 0.3502(4) 0.1363(2) 0.02545(10)
H11 H 0.4708 0.1618 0.0293
H12 H 0.3395 0.0552 0.0397
C13 C -0.1368(5) 0.4906(3) 0.17524(12)
H13 H -0.1780 0.4303 0.1533
C14 C 0.4282(4) 0.0694(2) 0.15859(9)
C15 C 0.3111(5) -0.1173(3) 0.18683(12)
H14 H 0.3231 -0.1925 0.2027
C16 C -0.0733(5) -0.0738(2) -0.03271(11)
C17 C 0.4533(5) -0.0410(3) 0.18335(11)
H15 H 0.5613 -0.0625 0.1970
C18 C -0.1940(5) 0.6635(3) 0.22923(11)
H16 H -0.2723 0.7193 0.2431
C19 C 0.1136(5) -0.0382(3) -0.04084(14)
H17 H 0.1858 -0.0730 -0.0140
H18 H 0.1543 -0.0692 -0.0736
C20 C -0.1665(6) -0.1302(3) -0.07101(14)
H19 H -0.1157 -0.1427 -0.1030
C21 C -0.1525(5) -0.0559(3) 0.01447(14)
H20 H -0.0912 -0.0169 0.0405
C22 C -0.2532(5) 0.5723(3) 0.19664(13)
H21 H -0.3718 0.5662 0.1892
C23 C -0.4122(7) -0.1516(3) -0.0147(2)
H22 H -0.5254 -0.1786 -0.0086
C24 C -0.3371(7) -0.1686(4) -0.0618(2)
H23 H -0.4003 -0.2060 -0.0879
C25 C -0.3197(6) -0.0947(3) 0.02341(17)
H24 H -0.3708 -0.0823 0.0554
loop_
_geom_bond_atom_site_label_1
_geom_bond_atom_site_label_2
_geom_bond_site_symmetry_1
_geom_bond_site_symmetry_2
S1 O2 1_555 1_555
O1 C11 1_555 1_555
O3 S1 1_555 1_555
N1 S1 1_555 1_555
C1 C3 1_555 1_555
C2 C4 1_555 1_555
C3 H1 1_555 1_555
C4 H2 1_555 1_555
C5 H3 1_555 1_555
H4 C5 1_555 1_555
C6 N1 1_555 1_555
C7 C4 1_555 1_555
H5 C7 1_555 1_555
C8 C6 1_555 1_555
H6 C8 1_555 1_555
C9 C3 1_555 1_555
H7 C9 1_555 1_555
C10 C1 1_555 1_555
H8 C10 1_555 1_555
C11 H9 1_555 1_555
H10 C11 1_555 1_555
C12 C5 1_555 1_555
H11 C12 1_555 1_555
H12 C12 1_555 1_555
C13 C1 1_555 1_555
H13 C13 1_555 1_555
C14 S1 1_555 1_555
C15 C7 1_555 1_555
H14 C15 1_555 1_555
C16 C19 1_555 1_555
C17 C14 1_555 1_555
H15 C17 1_555 1_555
C18 C9 1_555 1_555
H16 C18 1_555 1_555
C19 O1 1_555 1_555
H17 C19 1_555 1_555
H18 C19 1_555 1_555
C20 C16 1_555 1_555
H19 C20 1_555 1_555
C21 C16 1_555 1_555
H20 C21 1_555 1_555
C22 C13 1_555 1_555
H21 C22 1_555 1_555
C23 H22 1_555 1_555
C24 C20 1_555 1_555
H23 C24 1_555 1_555
C25 C21 1_555 1_555
H24 C25 1_555 1_555
C2 C6 1_555 1_555
C2 C14 1_555 1_555
C5 C6 1_555 1_555
C8 C10 1_555 1_555
C11 C12 1_555 1_555
C15 C17 1_555 1_555
C18 C22 1_555 1_555
C23 C24 1_555 1_555
C23 C25 1_555 1_555

#END
