
#######################################################################
#
#                 Cambridge Crystallographic Data Centre
#                                CCDC 
#
#######################################################################
#
# If this CIF has been generated from an entry in the Cambridge 
# Structural Database, then it will include bibliographic, chemical, 
# crystal, experimental, refinement or atomic coordinate data resulting 
# from the CCDC's data processing and validation procedures.
#
#######################################################################

data_HEZXUG
_chemical_formula_moiety         'C15 H15 N1 O5'
_chemical_name_systematic        
(2R,5R,6R,7R)-6,7-epoxy-7-ethoxycarbonyl-8-oxo-2-phenyl-1-aza-3-oxabicyclo[3.3.0]octane
_symmetry_cell_setting           orthorhombic
_symmetry_space_group_name_H-M   'P 21 21 21'
_symmetry_Int_Tables_number      19
_space_group_name_Hall           'P 2ac 2ab'
loop_
_symmetry_equiv_pos_site_id
_symmetry_equiv_pos_as_xyz
1 x,y,z
2 1/2+x,1/2-y,-z
3 -x,1/2+y,1/2-z
4 1/2-x,-y,1/2+z
_cell_length_a                   6.3547(1)
_cell_length_b                   7.7537(2)
_cell_length_c                   28.1695(6)
_cell_angle_alpha                90
_cell_angle_beta                 90
_cell_angle_gamma                90
_cell_volume                     1387.98
_exptl_crystal_colour            colorless
_exptl_crystal_description       plate
_cell_formula_units_Z            4
loop_
_atom_site_label
_atom_site_type_symbol
_atom_site_fract_x
_atom_site_fract_y
_atom_site_fract_z
N1 N 0.6644(3) 0.0289(3) 0.89261(6)
C1 C 0.7316(4) -0.1004(3) 0.92681(8)
O1 O 0.4837(3) 0.2475(2) 0.83000(6)
C2 C 0.4476(5) -0.2048(4) 0.88221(9)
O2 O 0.9774(3) 0.0791(3) 0.85424(6)
C3 C 0.4463(3) -0.0091(4) 0.87882(7)
C4 C 0.4281(3) 0.0693(3) 0.82999(8)
C5 C 0.6390(4) 0.1252(3) 0.81508(7)
C6 C 0.7879(3) 0.0769(3) 0.85507(7)
C7 C 0.7120(4) -0.0362(3) 0.97770(7)
C8 C 0.5294(4) -0.0599(4) 1.00355(8)
C9 C 0.5152(5) 0.0090(4) 1.04921(9)
C10 C 0.6820(6) 0.0950(4) 1.06889(9)
C11 C 0.8638(6) 0.1158(4) 1.0437(1)
C12 C 0.8795(4) 0.0502(4) 0.99772(9)
O3 O 0.5973(4) -0.2433(2) 0.91852(6)
C13 C 0.7016(4) 0.1332(4) 0.76345(8)
O4 O 0.6202(4) 0.2271(3) 0.73579(6)
O5 O 0.8481(3) 0.0158(3) 0.75439(6)
C14 C 0.9090(5) -0.0105(5) 0.70460(9)
C15 C 1.0932(6) 0.0926(6) 0.69335(12)
H1 H 0.8837 -0.1303 0.9228
H2 H 0.3051 -0.2489 0.8911
H3 H 0.4916 -0.2572 0.8513
H4 H 0.3239 0.0363 0.8973
H5 H 0.3088 0.0012 0.8164
H6 H 0.4088 -0.1257 0.9897
H7 H 0.3819 -0.0045 1.0677
H8 H 0.6707 0.1426 1.1018
H9 H 0.9857 0.1781 1.0582
H10 H 1.0125 0.0659 0.9793
H11 H 0.9419 -0.1351 0.6993
H12 H 0.7899 0.0246 0.6835
H13 H 1.1333 0.0737 0.6594
H14 H 1.2126 0.0576 0.7144
H15 H 1.0606 0.2173 0.6985
loop_
_geom_bond_atom_site_label_1
_geom_bond_atom_site_label_2
_geom_bond_site_symmetry_1
_geom_bond_site_symmetry_2
N1 C1 1_555 1_555
C1 C7 1_555 1_555
O1 C4 1_555 1_555
C2 C3 1_555 1_555
O2 C6 1_555 1_555
C3 N1 1_555 1_555
C4 C3 1_555 1_555
C5 O1 1_555 1_555
C6 N1 1_555 1_555
C7 C8 1_555 1_555
C8 C9 1_555 1_555
C9 C10 1_555 1_555
C10 C11 1_555 1_555
C11 C12 1_555 1_555
C12 C7 1_555 1_555
O3 C1 1_555 1_555
C13 C5 1_555 1_555
O4 C13 1_555 1_555
O5 C13 1_555 1_555
C14 O5 1_555 1_555
C15 C14 1_555 1_555
H1 C1 1_555 1_555
H2 C2 1_555 1_555
H3 C2 1_555 1_555
H4 C3 1_555 1_555
H5 C4 1_555 1_555
H6 C8 1_555 1_555
H7 C9 1_555 1_555
H8 C10 1_555 1_555
H9 C11 1_555 1_555
H10 C12 1_555 1_555
H11 C14 1_555 1_555
H12 C14 1_555 1_555
H13 C15 1_555 1_555
H14 C15 1_555 1_555
H15 C15 1_555 1_555
C2 O3 1_555 1_555
C4 C5 1_555 1_555
C5 C6 1_555 1_555

#END
