
#######################################################################
#
#                 Cambridge Crystallographic Data Centre
#                                CCDC 
#
#######################################################################
#
# If this CIF has been generated from an entry in the Cambridge 
# Structural Database, then it will include bibliographic, chemical, 
# crystal, experimental, refinement or atomic coordinate data resulting 
# from the CCDC's data processing and validation procedures.
#
#######################################################################

data_HEZXOA
_chemical_formula_moiety         'C15 H17 N1 O6'
_chemical_name_systematic        
(2R,5R,6R,7R)-7-ethoxycarbonyl-8-oxo-2-phenyl-6,7-dihydroxy-1-aza-3-oxabicyclo[3.3.0]octane
_symmetry_cell_setting           orthorhombic
_symmetry_space_group_name_H-M   'P 21 21 21'
_symmetry_Int_Tables_number      19
_space_group_name_Hall           'P 2ac 2ab'
loop_
_symmetry_equiv_pos_site_id
_symmetry_equiv_pos_as_xyz
1 x,y,z
2 1/2+x,1/2-y,-z
3 -x,1/2+y,1/2-z
4 1/2-x,-y,1/2+z
_cell_length_a                   5.8907(2)
_cell_length_b                   10.4767(4)
_cell_length_c                   23.5621(8)
_cell_angle_alpha                90
_cell_angle_beta                 90
_cell_angle_gamma                90
_cell_volume                     1454.14
_exptl_crystal_colour            colorless
_exptl_crystal_description       plate
_cell_formula_units_Z            4
loop_
_atom_site_label
_atom_site_type_symbol
_atom_site_fract_x
_atom_site_fract_y
_atom_site_fract_z
N1 N 0.3965(4) 0.1873(2) 0.66217(9)
C1 C 0.4179(5) 0.1175(2) 0.7096(1)
C2 C 0.2016(4) 0.1423(2) 0.7446(1)
C3 C 0.1363(4) 0.2784(2) 0.72593(11)
C4 C 0.2169(4) 0.2839(2) 0.66392(11)
C5 C 0.3528(5) 0.4001(2) 0.64496(12)
C6 C 0.5760(5) 0.2233(2) 0.62141(11)
C7 C 0.5896(5) 0.1357(3) 0.5710(1)
C8 C 0.4214(5) 0.1361(3) 0.52985(11)
C9 C 0.4306(6) 0.0500(3) 0.48450(11)
C10 C 0.6082(6) -0.0359(3) 0.48100(12)
C11 C 0.7792(6) -0.0344(3) 0.52096(13)
C12 C 0.7706(5) 0.0503(3) 0.56643(12)
C13 C 0.2364(5) 0.1353(2) 0.80884(11)
O1 O 0.5728(3) 0.04418(17) 0.72179(7)
O2 O 0.0438(3) 0.04913(16) 0.72603(8)
O3 O -0.0991(3) 0.29686(17) 0.73291(8)
O4 O 0.5078(4) 0.34770(18) 0.60367(8)
O5 O 0.1178(4) 0.0761(2) 0.84076(8)
O6 O 0.4109(3) 0.20881(17) 0.82344(7)
C14 C 0.4536(6) 0.2247(3) 0.88421(12)
C15 C 0.6589(6) 0.3077(3) 0.88892(13)
H1 H -0.091(8) 0.076(4) 0.7297(16)
H2 H -0.115(7) 0.364(4) 0.7455(16)
H3 H 0.2070 0.3484 0.7487
H4 H 0.0762 0.2780 0.6403
H5 H 0.4368 0.4389 0.6776
H6 H 0.2517 0.4658 0.6274
H7 H 0.7301 0.2190 0.6391
H8 H 0.2930 0.1982 0.5326
H9 H 0.3094 0.0506 0.4548
H10 H 0.6127 -0.0994 0.4493
H11 H 0.9102 -0.0945 0.5173
H12 H 0.8935 0.0500 0.5957
H13 H 0.3207 0.2665 0.9029
H14 H 0.4825 0.1400 0.9024
H15 H 0.6958 0.3217 0.9299
H16 H 0.6283 0.3917 0.8703
H17 H 0.7901 0.2651 0.8697
loop_
_geom_bond_atom_site_label_1
_geom_bond_atom_site_label_2
_geom_bond_site_symmetry_1
_geom_bond_site_symmetry_2
N1 C1 1_555 1_555
C1 C2 1_555 1_555
C2 C3 1_555 1_555
C3 C4 1_555 1_555
C4 N1 1_555 1_555
C5 C4 1_555 1_555
C6 N1 1_555 1_555
C7 C6 1_555 1_555
C8 C7 1_555 1_555
C9 C8 1_555 1_555
C10 C9 1_555 1_555
C11 C10 1_555 1_555
C12 C7 1_555 1_555
C13 C2 1_555 1_555
O1 C1 1_555 1_555
O2 C2 1_555 1_555
O3 C3 1_555 1_555
O4 C5 1_555 1_555
O5 C13 1_555 1_555
O6 C13 1_555 1_555
C14 O6 1_555 1_555
C15 C14 1_555 1_555
H1 O2 1_555 1_555
H2 O3 1_555 1_555
H3 C3 1_555 1_555
H4 C4 1_555 1_555
H5 C5 1_555 1_555
H6 C5 1_555 1_555
H7 C6 1_555 1_555
H8 C8 1_555 1_555
H9 C9 1_555 1_555
H10 C10 1_555 1_555
H11 C11 1_555 1_555
H12 C12 1_555 1_555
H13 C14 1_555 1_555
H14 C14 1_555 1_555
H15 C15 1_555 1_555
H16 C15 1_555 1_555
H17 C15 1_555 1_555
C6 O4 1_555 1_555
C11 C12 1_555 1_555

#END
