
#######################################################################
#
#                 Cambridge Crystallographic Data Centre
#                                CCDC 
#
#######################################################################
#
# If this CIF has been generated from an entry in the Cambridge 
# Structural Database, then it will include bibliographic, chemical, 
# crystal, experimental, refinement or atomic coordinate data resulting 
# from the CCDC's data processing and validation procedures.
#
#######################################################################

data_HIBCOK01
_chemical_formula_moiety         'C1 H6 N3 1+,C6 H4 N1 O5 S1 1-'
_chemical_name_systematic        'Guanidinium 4-nitrobenzenesulfonate'
_symmetry_cell_setting           monoclinic
_symmetry_space_group_name_H-M   'P 21/c'
_symmetry_Int_Tables_number      14
_space_group_name_Hall           '-P 2ybc'
loop_
_symmetry_equiv_pos_site_id
_symmetry_equiv_pos_as_xyz
1 x,y,z
2 -x,1/2+y,1/2-z
3 -x,-y,-z
4 x,1/2-y,1/2+z
_cell_length_a                   11.2544(9)
_cell_length_b                   7.7474(6)
_cell_length_c                   13.0949(10)
_cell_angle_alpha                90
_cell_angle_beta                 110.8500(10)
_cell_angle_gamma                90
_cell_volume                     1067.01
_exptl_crystal_colour            colorless
_exptl_crystal_description       block
_cell_formula_units_Z            4
_exptl_crystal_recrystallization_method methanol
loop_
_atom_site_label
_atom_site_type_symbol
_atom_site_fract_x
_atom_site_fract_y
_atom_site_fract_z
S1 S 0.77005(3) 0.13666(5) 0.82171(3)
O1 O 0.72974(11) 0.0618(2) 0.71296(10)
N1 N 0.30476(13) 0.21429(19) 0.93878(13)
C1 C 0.63032(14) 0.15713(19) 0.85507(13)
O2 O 0.81934(12) 0.31040(17) 0.82514(13)
C2 C 0.51914(15) 0.0743(2) 0.79319(14)
H3 H 0.5165 0.0071 0.7336
O3 O 0.85527(11) 0.02655(16) 0.90457(10)
C3 C 0.41115(16) 0.0920(2) 0.82069(15)
H6 H 0.3353 0.0381 0.7797
O4 O 0.20510(12) 0.14911(18) 0.87932(12)
C4 C 0.41947(15) 0.1916(2) 0.91021(13)
O5 O 0.31476(13) 0.2996(2) 1.02015(12)
C5 C 0.53008(15) 0.2737(2) 0.97394(14)
H9 H 0.5330 0.3382 1.0347
C6 C 0.63628(15) 0.2572(2) 0.94490(14)
H10 H 0.7115 0.3130 0.9854
N2 N 0.91175(14) -0.33537(19) 0.91004(12)
H1 H 0.8776 -0.4309 0.9188
H2 H 0.8827 -0.2388 0.9237
N3 N 1.06357(14) -0.19006(18) 0.86500(12)
H4 H 1.1281 -0.1911 0.8444
H5 H 1.0345 -0.0936 0.8787
N4 N 1.05361(13) -0.48536(18) 0.85464(12)
H7 H 1.0195 -0.5809 0.8634
H8 H 1.1168 -0.4863 0.8323
C7 C 1.00897(15) -0.3370(2) 0.87562(12)
loop_
_geom_bond_atom_site_label_1
_geom_bond_atom_site_label_2
_geom_bond_site_symmetry_1
_geom_bond_site_symmetry_2
S1 O1 1_555 1_555
N1 O4 1_555 1_555
C1 S1 1_555 1_555
O2 S1 1_555 1_555
N2 H1 1_555 1_555
H2 N2 1_555 1_555
C2 C1 1_555 1_555
H3 C2 1_555 1_555
O3 S1 1_555 1_555
N3 H4 1_555 1_555
H5 N3 1_555 1_555
C3 C2 1_555 1_555
H6 C3 1_555 1_555
N4 H7 1_555 1_555
H8 N4 1_555 1_555
C4 N1 1_555 1_555
O5 N1 1_555 1_555
C5 C4 1_555 1_555
H9 C5 1_555 1_555
C6 C1 1_555 1_555
H10 C6 1_555 1_555
C7 N2 1_555 1_555
N3 C7 1_555 1_555
C3 C4 1_555 1_555
N4 C7 1_555 1_555
C5 C6 1_555 1_555

#END
