
#######################################################################
#
#                 Cambridge Crystallographic Data Centre
#                                CCDC 
#
#######################################################################
#
# If this CIF has been generated from an entry in the Cambridge 
# Structural Database, then it will include bibliographic, chemical, 
# crystal, experimental, refinement or atomic coordinate data resulting 
# from the CCDC's data processing and validation procedures.
#
#######################################################################

data_HIBCAW
_chemical_formula_moiety         'C1 H6 N3 1+,C7 H7 O3 S1 1-'
_chemical_name_systematic        'Guanidinium p-toluenesulfonate'
_symmetry_cell_setting           monoclinic
_symmetry_space_group_name_H-M   'P 21/c'
_symmetry_Int_Tables_number      14
_space_group_name_Hall           '-P 2ybc'
loop_
_symmetry_equiv_pos_site_id
_symmetry_equiv_pos_as_xyz
1 x,y,z
2 -x,1/2+y,1/2-z
3 -x,-y,-z
4 x,1/2-y,1/2+z
_cell_length_a                   12.437(3)
_cell_length_b                   7.418(4)
_cell_length_c                   25.72(3)
_cell_angle_alpha                90
_cell_angle_beta                 95.56(6)
_cell_angle_gamma                90
_cell_volume                     2361.7
_exptl_crystal_colour            colorless
_chemical_melting_point          232-233deg.C
_cell_formula_units_Z            8
loop_
_atom_site_label
_atom_site_type_symbol
_atom_site_fract_x
_atom_site_fract_y
_atom_site_fract_z
S1 S 0.51489(8) 0.1431(1) 0.40537(4)
O1 O 0.5823(2) -0.0159(3) 0.4145(1)
O2 O 0.5779(2) 0.3085(3) 0.4096(1)
O3 O 0.4254(2) 0.1480(3) 0.4376(1)
C1 C 0.4564(3) 0.1287(5) 0.3402(2)
C2 C 0.3541(4) 0.1919(6) 0.3259(2)
C3 C 0.3120(4) 0.1829(7) 0.2743(2)
C4 C 0.3676(4) 0.1121(6) 0.2362(2)
C5 C 0.4693(4) 0.0506(7) 0.2509(2)
C6 C 0.5142(4) 0.0587(7) 0.3024(2)
C7 C 0.3218(5) 0.1045(8) 0.1796(2)
H1 H 0.3131 0.2425 0.3514
H2 H 0.2412 0.2253 0.2632
H3 H 0.5113 0.0006 0.2248
H4 H 0.5870 0.0146 0.3110
H5 H 0.3028 0.2235 0.1656
H6 H 0.3690 0.0509 0.1567
H7 H 0.2543 0.0351 0.1752
S2 S 0.04255(8) 0.6610(1) 0.41587(4)
O4 O -0.0748(2) 0.6632(4) 0.4146(1)
O5 O 0.0928(2) 0.8277(3) 0.4356(1)
O6 O 0.0898(2) 0.5039(3) 0.4433(1)
C8 C 0.0735(3) 0.6390(5) 0.3509(1)
C9 C 0.0091(4) 0.5364(7) 0.3156(2)
C10 C 0.0359(5) 0.5164(7) 0.2651(2)
C11 C 0.1248(5) 0.5938(7) 0.2484(2)
C12 C 0.1886(4) 0.6945(7) 0.2836(2)
C13 C 0.1636(4) 0.7189(6) 0.3342(2)
C14 C 0.1507(5) 0.5712(8) 0.1927(2)
H8 H -0.0564 0.4809 0.3265
H9 H -0.0112 0.4434 0.2423
H10 H 0.2499 0.7489 0.2711
H11 H 0.2074 0.7907 0.3582
H12 H 0.0993 0.4953 0.1718
H13 H 0.1528 0.6844 0.1740
H14 H 0.2212 0.5152 0.1904
N1 N 0.3290(2) 0.8031(4) 0.4585(1)
N2 N 0.3247(2) 0.4949(4) 0.4562(1)
N3 N 0.4816(3) 0.6450(4) 0.4452(1)
C15 C 0.3780(3) 0.6489(6) 0.4530(1)
H15 H 0.3683 0.9124 0.4561
H16 H 0.2556 0.8054 0.4648
H17 H 0.2510 0.4958 0.4627
H18 H 0.3609 0.3832 0.4523
H19 H 0.5164 0.5328 0.4414
H20 H 0.5202 0.7544 0.4437
N4 N -0.0235(3) 0.1636(4) 0.4423(1)
N5 N -0.1849(3) 0.3138(4) 0.4361(1)
N6 N -0.1827(2) 0.0048(4) 0.4378(1)
C16 C -0.1302(3) 0.1619(6) 0.4387(1)
H21 H 0.0153 0.0531 0.4435
H22 H 0.0140 0.2748 0.4425
H23 H -0.1475 0.4256 0.4365
H24 H -0.2618 0.3128 0.4333
H25 H -0.2597 0.0020 0.4348
H26 H -0.1433 -0.1051 0.4392
loop_
_geom_bond_atom_site_label_1
_geom_bond_atom_site_label_2
_geom_bond_site_symmetry_1
_geom_bond_site_symmetry_2
S1 O1 1_555 1_555
O2 S1 1_555 1_555
O3 S1 1_555 1_555
C1 S1 1_555 1_555
C2 C1 1_555 1_555
C3 C2 1_555 1_555
C4 C3 1_555 1_555
C5 C4 1_555 1_555
C6 C1 1_555 1_555
C7 C4 1_555 1_555
H1 C2 1_555 1_555
H2 C3 1_555 1_555
H3 C5 1_555 1_555
H4 C6 1_555 1_555
H5 C7 1_555 1_555
H6 C7 1_555 1_555
H7 C7 1_555 1_555
S2 O4 1_555 1_555
O5 S2 1_555 1_555
O6 S2 1_555 1_555
C8 S2 1_555 1_555
C9 C8 1_555 1_555
C10 C9 1_555 1_555
C11 C10 1_555 1_555
C12 C11 1_555 1_555
C13 C8 1_555 1_555
C14 C11 1_555 1_555
H8 C9 1_555 1_555
H9 C10 1_555 1_555
H10 C12 1_555 1_555
H11 C13 1_555 1_555
H12 C14 1_555 1_555
H13 C14 1_555 1_555
H14 C14 1_555 1_555
N1 C15 1_555 1_555
N2 C15 1_555 1_555
N3 C15 1_555 1_555
H15 N1 1_555 1_555
H16 N1 1_555 1_555
H17 N2 1_555 1_555
H18 N2 1_555 1_555
H19 N3 1_555 1_555
H20 N3 1_555 1_555
N4 C16 1_555 1_555
N5 C16 1_555 1_555
N6 C16 1_555 1_555
H21 N4 1_555 1_555
H22 N4 1_555 1_555
H23 N5 1_555 1_555
H24 N5 1_555 1_555
H25 N6 1_555 1_555
H26 N6 1_555 1_555
C5 C6 1_555 1_555
C12 C13 1_555 1_555

#END
