
#######################################################################
#
#                 Cambridge Crystallographic Data Centre
#                                CCDC 
#
#######################################################################
#
# If this CIF has been generated from an entry in the Cambridge 
# Structural Database, then it will include bibliographic, chemical, 
# crystal, experimental, refinement or atomic coordinate data resulting 
# from the CCDC's data processing and validation procedures.
#
#######################################################################

data_HIBDAX
_chemical_formula_moiety         'C1 H6 N3 1+,C6 H5 O4 S1 1-'
_chemical_name_systematic        'Guanidinium p-hydroxybenzenesulfonate'
_symmetry_cell_setting           orthorhombic
_symmetry_space_group_name_H-M   'I m a 2'
_symmetry_Int_Tables_number      46
_space_group_name_Hall           'I 2 -2a'
loop_
_symmetry_equiv_pos_site_id
_symmetry_equiv_pos_as_xyz
1 x,y,z
2 -x,-y,z
3 1/2-x,y,z
4 1/2+x,-y,z
5 1/2+x,1/2+y,1/2+z
6 1/2-x,1/2-y,1/2+z
7 -x,1/2+y,1/2+z
8 x,1/2-y,1/2+z
_cell_length_a                   7.191(4)
_cell_length_b                   17.345(5)
_cell_length_c                   7.899(3)
_cell_angle_alpha                90
_cell_angle_beta                 90
_cell_angle_gamma                90
_cell_volume                     985.226
_exptl_crystal_colour            colorless
_chemical_melting_point          189-192deg.C
_cell_formula_units_Z            4
loop_
_atom_site_label
_atom_site_type_symbol
_atom_site_fract_x
_atom_site_fract_y
_atom_site_fract_z
S1 S 0.2500 0.12453(5) 1.0048
O1 O 0.2500 0.2072(2) 1.0405(4)
O2 O 0.0811(3) 0.1007(1) 0.9160(3)
O3 O 0.2500 -0.0368(2) 1.6595(5)
C1 C 0.2500 0.0773(2) 1.2020(5)
C2 C 0.2500 0.1194(2) 1.3498(2)
C3 C 0.2500 0.0816(2) 1.5044(6)
C4 C 0.2500 0.0019(2) 1.5073(7)
C5 C 0.2500 -0.0395(2) 1.3589(6)
C6 C 0.2500 -0.0022(2) 1.2075(6)
H1 H 0.2500 0.1739 1.3467
H2 H 0.2500 0.1090 1.6046
H3 H 0.2500 -0.0942 1.3597
H4 H 0.2500 -0.0297 1.1043
O2B O 0.4189(3) 0.1007(1) 0.9160(3)
N1 N -0.2500 0.1864(2) 1.0328(6)
N2 N -0.0906(4) 0.2924(1) 1.1257(4)
C7 C -0.2500 0.2573(2) 1.0955(6)
H5 H -0.1356 0.1619 1.0079
H6 H 0.0254 0.2669 1.1019
H7 H -0.0866 0.3428 1.1742
H5B H -0.3644 0.1619 1.0079
N2B N -0.4094(4) 0.2924(1) 1.1257(4)
H6B H -0.5254 0.2669 1.1019
H7B H -0.4134 0.3428 1.1742
loop_
_geom_bond_atom_site_label_1
_geom_bond_atom_site_label_2
_geom_bond_site_symmetry_1
_geom_bond_site_symmetry_2
S1 O1 1_555 1_555
O2 S1 1_555 1_555
O3 C4 1_555 1_555
C1 S1 1_555 1_555
C2 C1 1_555 1_555
C3 C2 1_555 1_555
C4 C3 1_555 1_555
C5 C4 1_555 1_555
C6 C1 1_555 1_555
H1 C2 1_555 1_555
H2 C3 1_555 1_555
H3 C5 1_555 1_555
H4 C6 1_555 1_555
N1 C7 1_555 1_555
N2 C7 1_555 1_555
C7 N2B 1_555 1_555
H5 N1 1_555 1_555
H6 N2 1_555 1_555
H7 N2 1_555 1_555
O2B S1 1_555 1_555
H5B N1 1_555 1_555
N2B H6B 1_555 1_555
H7B N2B 1_555 1_555
C5 C6 1_555 1_555

#END
