
#######################################################################
#
#                 Cambridge Crystallographic Data Centre
#                                CCDC 
#
#######################################################################
#
# If this CIF has been generated from an entry in the Cambridge 
# Structural Database, then it will include bibliographic, chemical, 
# crystal, experimental, refinement or atomic coordinate data resulting 
# from the CCDC's data processing and validation procedures.
#
#######################################################################

data_HIBDEB
_chemical_formula_moiety         'C1 H6 N3 1+,C7 H5 O5 S1 1-'
_chemical_name_systematic        'Guanidinium p-carboxybenzenesulfonate'
_symmetry_cell_setting           monoclinic
_symmetry_space_group_name_H-M   'P 21/a'
_symmetry_Int_Tables_number      14
_space_group_name_Hall           '-P 2yab'
loop_
_symmetry_equiv_pos_site_id
_symmetry_equiv_pos_as_xyz
1 x,y,z
2 1/2-x,1/2+y,-z
3 -x,-y,-z
4 1/2+x,1/2-y,z
_cell_length_a                   7.191(3)
_cell_length_b                   15.602(3)
_cell_length_c                   10.614(2)
_cell_angle_alpha                90
_cell_angle_beta                 103.33(3)
_cell_angle_gamma                90
_cell_volume                     1158.74
_exptl_crystal_colour            colorless
_chemical_melting_point          281deg.C
_cell_formula_units_Z            4
loop_
_atom_site_label
_atom_site_type_symbol
_atom_site_fract_x
_atom_site_fract_y
_atom_site_fract_z
N1 N 0.0801(3) 0.4256(2) 0.3963(2)
N2 N 0.2978(3) 0.3537(1) 0.5512(2)
N3 N -0.0199(4) 0.3520(2) 0.5554(2)
C1 C 0.1194(4) 0.3770(1) 0.5013(2)
H1 H -0.0479 0.4425 0.3600
H2 H 0.1799 0.4435 0.3573
H3 H 0.3971 0.3718 0.5117
H4 H 0.3269 0.3188 0.6266
H5 H 0.0082 0.3171 0.6308
H6 H -0.1479 0.3689 0.5189
S1 S 0.5425(1) 0.43836(4) 0.28823(6)
O1 O 0.5976(3) 0.3887(1) 0.4065(2)
O2 O 0.7010(3) 0.4797(1) 0.2505(2)
O3 O 0.3868(3) 0.4977(1) 0.2939(2)
O4 O 0.1483(3) 0.2184(1) -0.2549(2)
O5 O 0.2570(3) 0.1130(1) -0.1184(2)
C2 C 0.4455(3) 0.3649(1) 0.1633(2)
C3 C 0.3612(4) 0.3968(1) 0.0411(2)
C4 C 0.2909(4) 0.3407(2) -0.0586(2)
C5 C 0.3045(3) 0.2526(1) -0.0377(2)
C6 C 0.3864(4) 0.2217(2) 0.0854(2)
C7 C 0.4571(4) 0.2773(2) 0.1853(2)
C8 C 0.2287(4) 0.1943(2) -0.1476(2)
H7 H 0.3521 0.4568 0.0266
H8 H 0.2328 0.3623 -0.1421
H9 H 0.3936 0.1616 0.1005
H10 H 0.5137 0.2558 0.2692
H11 H 0.207(5) 0.080(2) -0.186(4)
loop_
_geom_bond_atom_site_label_1
_geom_bond_atom_site_label_2
_geom_bond_site_symmetry_1
_geom_bond_site_symmetry_2
N1 C1 1_555 1_555
N2 C1 1_555 1_555
N3 C1 1_555 1_555
H1 N1 1_555 1_555
H2 N1 1_555 1_555
H3 N2 1_555 1_555
H4 N2 1_555 1_555
H5 N3 1_555 1_555
H6 N3 1_555 1_555
S1 O1 1_555 1_555
O2 S1 1_555 1_555
O3 S1 1_555 1_555
O4 C8 1_555 1_555
O5 C8 1_555 1_555
C2 S1 1_555 1_555
C3 C2 1_555 1_555
C4 C3 1_555 1_555
C5 C4 1_555 1_555
C6 C5 1_555 1_555
C7 C2 1_555 1_555
C8 C5 1_555 1_555
H7 C3 1_555 1_555
H8 C4 1_555 1_555
H9 C6 1_555 1_555
H10 C7 1_555 1_555
H11 O5 1_555 1_555
C6 C7 1_555 1_555

#END
