
#######################################################################
#
#                 Cambridge Crystallographic Data Centre
#                                CCDC 
#
#######################################################################
#
# If this CIF has been generated from an entry in the Cambridge 
# Structural Database, then it will include bibliographic, chemical, 
# crystal, experimental, refinement or atomic coordinate data resulting 
# from the CCDC's data processing and validation procedures.
#
#######################################################################

data_HIBHIJ
_chemical_formula_moiety         'C20 H18 N2 O10,0.5(C7 H8),0.5(H2 O1)'
_chemical_name_systematic        
"3-(3',5'-Dinitrophenyl)-4-(2',5'-dimethoxyphenyl)cyclobutane-1,2-dicarboxylic acid hemitoluene hemihydrate clathrate"
_symmetry_cell_setting           triclinic
_symmetry_space_group_name_H-M   'P -1'
_symmetry_Int_Tables_number      2
_space_group_name_Hall           '-P 1'
loop_
_symmetry_equiv_pos_site_id
_symmetry_equiv_pos_as_xyz
1 x,y,z
2 -x,-y,-z
_cell_length_a                   8.150(1)
_cell_length_b                   8.927(2)
_cell_length_c                   17.894(4)
_cell_angle_alpha                98.91(1)
_cell_angle_beta                 97.60(2)
_cell_angle_gamma                110.62(2)
_cell_volume                     1178.95
_exptl_crystal_colour            'deep yellow'
_chemical_melting_point          210deg.C
_cell_formula_units_Z            2
loop_
_atom_site_label
_atom_site_type_symbol
_atom_site_fract_x
_atom_site_fract_y
_atom_site_fract_z
O11 O 0.5000 0.5000 0.0000
H24 H 0.555 0.454 0.011
H24A H 0.445 0.546 -0.011
C1 C -0.0403(4) 0.0222(4) -0.2151(2)
C2 C -0.1751(4) 0.0555(4) -0.1856(2)
C3 C -0.2630(4) 0.1398(4) -0.2219(2)
C4 C -0.2238(5) 0.1930(4) -0.2879(2)
C5 C -0.0904(4) 0.1565(4) -0.3166(2)
C6 C -0.0007(4) 0.0723(4) -0.2823(2)
C7 C -0.2253(5) -0.3449(4) -0.2504(2)
C8 C -0.2138(6) -0.3684(5) -0.3279(2)
C9 C -0.3698(8) -0.4530(6) -0.3839(2)
C10 C -0.5326(7) -0.5117(7) -0.3636(3)
C11 C -0.5467(6) -0.4872(5) -0.2877(3)
C12 C -0.3916(5) -0.4052(4) -0.2311(2)
C13 C 0.0559(4) -0.0748(4) -0.1801(2)
C14 C -0.0566(4) -0.2621(4) -0.1903(2)
C15 C -0.0656(4) -0.2313(4) -0.1046(2)
C16 C 0.0787(4) -0.0550(4) -0.0906(2)
C17 C -0.0326(9) -0.3114(6) -0.4217(3)
C18 C -0.7351(7) -0.5173(6) -0.1967(4)
C19 C 0.2613(4) -0.0336(4) -0.0501(2)
C20 C -0.0344(4) -0.3492(4) -0.0590(2)
N1 N -0.4096(4) 0.1675(4) -0.1907(2)
N2 N -0.0421(4) 0.2096(4) -0.3872(2)
O1 O -0.4178(4) 0.1584(4) -0.1244(2)
O2 O -0.5147(5) 0.2028(5) -0.2311(2)
O3 O -0.0973(5) 0.3080(4) -0.4089(2)
O4 O 0.0515(4) 0.1534(4) -0.4199(2)
O5 O 0.3266(3) -0.1357(3) -0.0769(1)
O6 O 0.3405(3) 0.0812(3) 0.0073(1)
O7 O 0.0209(4) -0.2930(3) 0.0134(1)
O8 O -0.0678(4) -0.4927(3) -0.0919(1)
O9 O -0.0463(4) -0.3041(3) -0.3417(1)
O10 O -0.7148(4) -0.5489(5) -0.2723(2)
H1 H -0.206(4) 0.027(4) -0.137(2)
H2 H -0.288(4) 0.252(4) -0.308(2)
H3 H 0.089(4) 0.049(4) -0.303(2)
H4 H -0.351(6) -0.472(5) -0.435(2)
H5 H -0.636(6) -0.565(5) -0.404(4)
H6 H -0.408(4) -0.384(4) -0.175(2)
H7 H 0.164(4) -0.061(3) -0.196(2)
H8 H 0.017(3) -0.320(3) -0.198(1)
H9 H -0.181(3) -0.229(3) -0.094(1)
H10 H 0.045(3) 0.030(3) -0.064(2)
H11 H 0.109(7) -0.264(7) -0.415(3)
H12 H -0.101(9) -0.245(8) -0.445(4)
H13 H -0.077(9) -0.431(8) -0.453(4)
H14 H -0.869(6) -0.573(6) -0.201(2)
H15 H -0.697(8) -0.401(7) -0.184(3)
H16 H -0.655(9) -0.580(8) -0.157(4)
H17 H 0.451(6) -0.120(5) -0.053(2)
H18 H 0.043(7) -0.349(6) 0.037(3)
C21? C -0.4031(10) -0.0399(9) -0.5501(6)
C22? C -0.4300(11) -0.1149(9) -0.4886(7)
C23? C -0.5303(10) -0.0775(9) -0.4379(5)
C24? C -0.5689(22) -0.1611(16) -0.3645(10)
H19? H -0.312 -0.070 -0.587
H20? H -0.363 -0.189 -0.491
H21? H -0.512 -0.251 -0.360
H22? H -0.716 -0.221 -0.368
H23? H -0.519 -0.068 -0.309
H25? H 0.421 0.502 0.050
loop_
_geom_bond_atom_site_label_1
_geom_bond_atom_site_label_2
_geom_bond_site_symmetry_1
_geom_bond_site_symmetry_2
C1 C2 1_555 1_555
C2 C3 1_555 1_555
C3 C4 1_555 1_555
C4 C5 1_555 1_555
C5 C6 1_555 1_555
C6 C1 1_555 1_555
C7 C8 1_555 1_555
C8 C9 1_555 1_555
C9 C10 1_555 1_555
C10 C11 1_555 1_555
C11 C12 1_555 1_555
C12 C7 1_555 1_555
C13 C1 1_555 1_555
C14 C7 1_555 1_555
C15 C14 1_555 1_555
C16 C13 1_555 1_555
C17 O9 1_555 1_555
C18 O10 1_555 1_555
C19 C16 1_555 1_555
C20 C15 1_555 1_555
N1 C3 1_555 1_555
N2 C5 1_555 1_555
O1 N1 1_555 1_555
O2 N1 1_555 1_555
O3 N2 1_555 1_555
O4 N2 1_555 1_555
O5 C19 1_555 1_555
O6 C19 1_555 1_555
O7 C20 1_555 1_555
O8 C20 1_555 1_555
O9 C8 1_555 1_555
O10 C11 1_555 1_555
O11 H24 1_555 1_555
H1 C2 1_555 1_555
H2 C4 1_555 1_555
H3 C6 1_555 1_555
H4 C9 1_555 1_555
H5 C10 1_555 1_555
H6 C12 1_555 1_555
H7 C13 1_555 1_555
H8 C14 1_555 1_555
H9 C15 1_555 1_555
H10 C16 1_555 1_555
H11 C17 1_555 1_555
H12 C17 1_555 1_555
H13 C17 1_555 1_555
H14 C18 1_555 1_555
H15 C18 1_555 1_555
H16 C18 1_555 1_555
H17 O5 1_555 1_555
H18 O7 1_555 1_555
H24A O11 1_555 1_555
C13 C14 1_555 1_555
C15 C16 1_555 1_555

#END
