
#######################################################################
#
#                 Cambridge Crystallographic Data Centre
#                                CCDC 
#
#######################################################################
#
# If this CIF has been generated from an entry in the Cambridge 
# Structural Database, then it will include bibliographic, chemical, 
# crystal, experimental, refinement or atomic coordinate data resulting 
# from the CCDC's data processing and validation procedures.
#
#######################################################################

data_HIBHEH
_chemical_formula_moiety         'C27 H30 O4'
_chemical_name_systematic        
'3-(4-t-Butylphenyl)-3-(5-(4-t-butylphenyl)-2-oxofuran-3(2H)-ylidene)propanoic acid unknown solvate'
_symmetry_cell_setting           triclinic
_symmetry_space_group_name_H-M   'P -1'
_symmetry_Int_Tables_number      2
_space_group_name_Hall           '-P 1'
loop_
_symmetry_equiv_pos_site_id
_symmetry_equiv_pos_as_xyz
1 x,y,z
2 -x,-y,-z
_cell_length_a                   5.9166(2)
_cell_length_b                   13.7691(5)
_cell_length_c                   15.2416(5)
_cell_angle_alpha                90.410(2)
_cell_angle_beta                 95.548(2)
_cell_angle_gamma                96.100(2)
_cell_volume                     1228.67
_exptl_crystal_colour            colorless
_exptl_crystal_description       block
_cell_formula_units_Z            2
loop_
_atom_site_label
_atom_site_type_symbol
_atom_site_fract_x
_atom_site_fract_y
_atom_site_fract_z
O1 O 1.1091(2) 0.40912(9) 0.95710(8)
O2 O 0.8047(2) 0.04411(10) 1.05330(9)
O3 O 0.8858(2) 0.08391(10) 0.91691(9)
H1 H 0.995(4) 0.0401(18) 0.9273(15)
C1 C 1.7171(3) 0.83107(16) 0.79539(13)
H2 H 1.6752 0.8484 0.8537
H3 H 1.7882 0.8894 0.7682
H4 H 1.8253 0.7818 0.8015
C2 C 1.5027(3) 0.78980(14) 0.73713(12)
C3 C 1.3813(3) 0.69826(14) 0.77522(12)
C4 C 1.1682(3) 0.65795(15) 0.73587(13)
H5 H 1.1038 0.6870 0.6843
C5 C 1.0487(3) 0.57755(15) 0.76931(13)
H6 H 0.9035 0.5529 0.7411
C6 C 1.1396(3) 0.53156(14) 0.84469(12)
C7 C 1.0126(3) 0.44704(14) 0.87835(12)
C8 C 0.8195(3) 0.39226(13) 0.84732(12)
H7 H 0.7269 0.4040 0.7948
C9 C 0.7753(3) 0.31284(14) 0.90647(12)
C10 C 0.6081(3) 0.23697(13) 0.90541(12)
C11 C 0.4239(3) 0.22155(13) 0.83235(12)
C12 C 0.3249(3) 0.29816(14) 0.78978(12)
H8 H 0.3736 0.3634 0.8093
C13 C 0.1579(3) 0.28144(14) 0.71997(12)
H9 H 0.0949 0.3355 0.6924
C14 C 0.0794(3) 0.18702(14) 0.68887(12)
C15 C -0.0987(3) 0.17054(15) 0.60877(13)
C16 C -0.2884(4) 0.23637(19) 0.61379(15)
H10 H -0.2232 0.3049 0.6151
H11 H -0.3640 0.2224 0.6674
H12 H -0.4001 0.2242 0.5621
C17 C 1.3392(3) 0.86938(15) 0.72814(14)
H13 H 1.2970 0.8863 0.7865
H14 H 1.2014 0.8451 0.6901
H15 H 1.4147 0.9275 0.7021
C18 C 1.4720(3) 0.65083(14) 0.84880(12)
H16 H 1.6185 0.6748 0.8763
C19 C 1.3549(3) 0.56997(14) 0.88284(12)
H17 H 1.4221 0.5398 0.9333
C20 C 0.9716(3) 0.32565(14) 0.97551(12)
C21 C -0.2083(5) 0.06503(19) 0.60193(19)
H18 H -0.3238 0.0575 0.5511
H19 H -0.2807 0.0484 0.6558
H20 H -0.0907 0.0214 0.5945
C22 C 0.0226(4) 0.1938(2) 0.52622(14)
H21 H 0.1484 0.1532 0.5242
H22 H 0.0831 0.2630 0.5277
H23 H -0.0860 0.1802 0.4737
C23 C 0.1742(3) 0.11034(14) 0.73287(12)
H24 H 0.1227 0.0450 0.7143
C24 C 0.3419(3) 0.12696(14) 0.80309(12)
H25 H 0.4019 0.0729 0.8318
C25 C 0.6034(3) 0.16532(14) 0.98027(12)
H26 H 0.6213 0.2035 1.0363
H27 H 0.4499 0.1282 0.9757
C26 C 0.7770(3) 0.09291(14) 0.98694(12)
O4 O 1.0245(2) 0.27644(10) 1.03776(9)
C27 C 1.5716(3) 0.76469(16) 0.64590(13)
H28 H 1.6455 0.8235 0.6204
H29 H 1.4352 0.7398 0.6074
H30 H 1.6781 0.7147 0.6516
loop_
_geom_bond_atom_site_label_1
_geom_bond_atom_site_label_2
_geom_bond_site_symmetry_1
_geom_bond_site_symmetry_2
O1 C7 1_555 1_555
O2 C26 1_555 1_555
O3 H1 1_555 1_555
C1 H2 1_555 1_555
H3 C1 1_555 1_555
H4 C1 1_555 1_555
C2 C1 1_555 1_555
C3 C2 1_555 1_555
C4 C3 1_555 1_555
H5 C4 1_555 1_555
C5 C4 1_555 1_555
H6 C5 1_555 1_555
C6 C5 1_555 1_555
C7 C6 1_555 1_555
C8 C7 1_555 1_555
H7 C8 1_555 1_555
C9 C8 1_555 1_555
C10 C9 1_555 1_555
C11 C10 1_555 1_555
C12 C11 1_555 1_555
H8 C12 1_555 1_555
C13 C12 1_555 1_555
H9 C13 1_555 1_555
C14 C13 1_555 1_555
C15 C14 1_555 1_555
C16 C15 1_555 1_555
H10 C16 1_555 1_555
H11 C16 1_555 1_555
H12 C16 1_555 1_555
C17 C2 1_555 1_555
H13 C17 1_555 1_555
H14 C17 1_555 1_555
H15 C17 1_555 1_555
C18 C3 1_555 1_555
H16 C18 1_555 1_555
C19 C6 1_555 1_555
H17 C19 1_555 1_555
C20 O1 1_555 1_555
C21 C15 1_555 1_555
H18 C21 1_555 1_555
H19 C21 1_555 1_555
H20 C21 1_555 1_555
C22 C15 1_555 1_555
H21 C22 1_555 1_555
H22 C22 1_555 1_555
H23 C22 1_555 1_555
C23 C14 1_555 1_555
H24 C23 1_555 1_555
C24 C11 1_555 1_555
H25 C24 1_555 1_555
C25 C10 1_555 1_555
H26 C25 1_555 1_555
H27 C25 1_555 1_555
C26 O3 1_555 1_555
O4 C20 1_555 1_555
C27 C2 1_555 1_555
H28 C27 1_555 1_555
H29 C27 1_555 1_555
H30 C27 1_555 1_555
C9 C20 1_555 1_555
C18 C19 1_555 1_555
C23 C24 1_555 1_555
C25 C26 1_555 1_555

#END
