
#######################################################################
#
#                 Cambridge Crystallographic Data Centre
#                                CCDC 
#
#######################################################################
#
# If this CIF has been generated from an entry in the Cambridge 
# Structural Database, then it will include bibliographic, chemical, 
# crystal, experimental, refinement or atomic coordinate data resulting 
# from the CCDC's data processing and validation procedures.
#
#######################################################################

data_HIBJUY
_chemical_formula_moiety         'C23 H35 N2 O1 1+,Br1 1-,0.75(H2 O1)'
_chemical_name_systematic        
'2-(3-cyclohexylimidazolium-1-yl)-4,6-di-t-butylphenol bromide hydrate'
_symmetry_cell_setting           monoclinic
_symmetry_space_group_name_H-M   'P 21/a'
_symmetry_Int_Tables_number      14
_space_group_name_Hall           '-P 2yab'
loop_
_symmetry_equiv_pos_site_id
_symmetry_equiv_pos_as_xyz
1 x,y,z
2 1/2-x,1/2+y,-z
3 -x,-y,-z
4 1/2+x,1/2-y,z
_cell_length_a                   11.176(2)
_cell_length_b                   28.222(5)
_cell_length_c                   14.987(3)
_cell_angle_alpha                90
_cell_angle_beta                 90.392(3)
_cell_angle_gamma                90
_cell_volume                     4726.93
_exptl_crystal_colour            colorless
_exptl_crystal_description       platelet
_chemical_melting_point          '236-237 deg.C'
_cell_formula_units_Z            8
_exptl_crystal_recrystallization_method dichloromethane/hexane
loop_
_atom_site_label
_atom_site_type_symbol
_atom_site_fract_x
_atom_site_fract_y
_atom_site_fract_z
Br1 Br 0.91274(5) 0.885735(19) 0.98356(4)
Br2 Br 0.95477(5) 0.675985(18) 0.02232(4)
O1 O 0.8884(3) 0.71257(12) 0.2195(3)
H1 H 0.9606 0.7086 0.2335
N1 N 0.6802(4) 0.74327(14) -0.0371(3)
N2 N 0.7354(4) 0.75861(14) 0.0990(3)
C1 C 0.7466(4) 0.77209(17) 0.0147(4)
H3 H 0.7939 0.7979 -0.0056
C2 C 0.6578(4) 0.72065(17) 0.1026(4)
H4 H 0.6335 0.7042 0.1548
C3 C 0.6228(5) 0.71120(18) 0.0173(4)
H5 H 0.5689 0.6870 -0.0012
C4 C 0.6617(6) 0.7462(2) -0.1344(4)
H6 H 0.5740 0.7501 -0.1460
C5 C 0.7015(7) 0.7000(2) -0.1773(4)
H7 H 0.6560 0.6731 -0.1519
H8 H 0.7877 0.6946 -0.1654
C6 C 0.6784(8) 0.7032(3) -0.2791(5)
H9 H 0.7058 0.6737 -0.3082
H10 H 0.5916 0.7066 -0.2907
C7 C 0.7447(8) 0.7452(3) -0.3181(5)
H11 H 0.8319 0.7412 -0.3085
H12 H 0.7294 0.7470 -0.3831
C8 C 0.7033(9) 0.7904(3) -0.2739(5)
H13 H 0.6169 0.7950 -0.2861
H14 H 0.7469 0.8176 -0.2995
C9 C 0.7248(7) 0.7889(2) -0.1720(4)
H15 H 0.8117 0.7868 -0.1591
H16 H 0.6936 0.8181 -0.1441
C10 C 0.7837(4) 0.78369(17) 0.1751(3)
C11 C 0.8568(4) 0.75856(17) 0.2350(3)
C12 C 0.8899(4) 0.78141(17) 0.3156(3)
C13 C 0.8534(4) 0.82774(16) 0.3266(3)
H17 H 0.8771 0.8436 0.3797
C14 C 0.7834(4) 0.85307(17) 0.2642(3)
C15 C 0.7475(4) 0.82985(17) 0.1889(3)
H18 H 0.6980 0.8453 0.1462
C16 C 0.9598(4) 0.75429(17) 0.3887(4)
C17 C 1.0826(4) 0.7394(2) 0.3531(4)
H19 H 1.0718 0.7196 0.3000
H20 H 1.1258 0.7215 0.3991
H21 H 1.1287 0.7678 0.3374
C18 C 0.8900(5) 0.71075(19) 0.4187(4)
H22 H 0.8737 0.6903 0.3671
H23 H 0.8142 0.7207 0.4453
H24 H 0.9372 0.6932 0.4630
C19 C 0.9822(5) 0.78543(19) 0.4714(4)
H25 H 1.0279 0.7674 0.5159
H26 H 0.9054 0.7951 0.4968
H27 H 1.0276 0.8137 0.4542
C20 C 0.7428(4) 0.90387(17) 0.2860(4)
C21 C 0.6758(5) 0.9040(2) 0.3761(4)
H28 H 0.6496 0.9363 0.3899
H29 H 0.7296 0.8927 0.4235
H30 H 0.6060 0.8831 0.3720
C22 C 0.6598(5) 0.92349(18) 0.2125(4)
H31 H 0.7040 0.9257 0.1564
H32 H 0.6315 0.9550 0.2297
H33 H 0.5912 0.9022 0.2046
C23 C 0.8509(5) 0.93706(18) 0.2923(4)
H34 H 0.8910 0.9384 0.2344
H35 H 0.9069 0.9252 0.3377
H36 H 0.8240 0.9689 0.3090
O2 O -0.0071(3) 0.94529(13) 0.8189(3)
H2 H -0.0134 0.9280 0.8642
N3 N 0.2237(4) 0.93816(15) 1.0660(3)
N4 N 0.2011(4) 0.94808(14) 0.9234(3)
C24 C 0.2419(4) 0.91826(17) 0.9874(3)
H37 H 0.2776 0.8882 0.9775
C25 C 0.1564(5) 0.98804(17) 0.9668(4)
H38 H 0.1221 1.0151 0.9388
C26 C 0.1703(5) 0.98155(18) 1.0547(4)
H39 H 0.1475 1.0029 1.1006
C27 C 0.2518(4) 0.91470(18) 1.1524(3)
H40 H 0.2947 0.8843 1.1400
C28 C 0.1348(5) 0.90312(19) 1.2013(4)
H41 H 0.0904 0.9327 1.2137
H42 H 0.0838 0.8826 1.1633
C29 C 0.1640(5) 0.87785(19) 1.2886(4)
H43 H 0.2036 0.8473 1.2756
H44 H 0.0889 0.8711 1.3209
C30 C 0.2461(5) 0.90810(19) 1.3474(4)
H45 H 0.2041 0.9376 1.3647
H46 H 0.2667 0.8905 1.4026
C31 C 0.3594(5) 0.9204(2) 1.2976(4)
H47 H 0.4046 0.8910 1.2853
H48 H 0.4102 0.9410 1.3355
C32 C 0.3324(5) 0.94580(19) 1.2092(4)
H49 H 0.2925 0.9765 1.2210
H50 H 0.4080 0.9522 1.1773
C33 C 0.2077(4) 0.93982(17) 0.8294(3)
C34 C 0.1018(5) 0.93784(17) 0.7801(3)
C35 C 0.1084(5) 0.93029(17) 0.6866(4)
C36 C 0.2223(5) 0.92545(17) 0.6511(4)
H51 H 0.2285 0.9212 0.5885
C37 C 0.3285(5) 0.92642(17) 0.7009(4)
C38 C 0.3203(5) 0.93429(17) 0.7915(4)
H52 H 0.3904 0.9359 0.8276
C39 C -0.0055(5) 0.92713(19) 0.6297(4)
C40 C -0.0783(5) 0.9727(2) 0.6362(4)
H53 H -0.0262 1.0000 0.6253
H54 H -0.1128 0.9753 0.6959
H55 H -0.1427 0.9722 0.5915
C41 C -0.0808(5) 0.8842(2) 0.6596(4)
H56 H -0.0989 0.8871 0.7232
H57 H -0.0356 0.8549 0.6494
H58 H -0.1556 0.8832 0.6252
C42 C 0.0240(6) 0.9200(2) 0.5314(4)
H59 H -0.0504 0.9184 0.4965
H60 H 0.0686 0.8903 0.5241
H61 H 0.0727 0.9465 0.5103
C43 C 0.4503(5) 0.9198(2) 0.6546(4)
C44 C 0.4531(7) 0.8722(3) 0.6107(6)
H62 H 0.5294 0.8681 0.5798
H63 H 0.3871 0.8698 0.5675
H64 H 0.4445 0.8474 0.6560
C45 C 0.5539(6) 0.9234(3) 0.7200(6)
H65 H 0.5507 0.8968 0.7619
H66 H 0.5483 0.9533 0.7530
H67 H 0.6295 0.9224 0.6874
C46 C 0.4674(8) 0.9587(3) 0.5847(6)
H68 H 0.5451 0.9546 0.5557
H69 H 0.4647 0.9898 0.6138
H70 H 0.4034 0.9566 0.5398
O3 O 0.8876(5) 0.42002(16) 0.0380(4)
O4 O 0.0388(9) 0.4945(4) 0.0532(8)
loop_
_geom_bond_atom_site_label_1
_geom_bond_atom_site_label_2
_geom_bond_site_symmetry_1
_geom_bond_site_symmetry_2
O1 H1 1_555 1_555
O2 H2 1_555 1_555
N1 C1 1_555 1_555
N2 C1 1_555 1_555
N3 C24 1_555 1_555
N4 C24 1_555 1_555
C1 H3 1_555 1_555
C2 N2 1_555 1_555
H4 C2 1_555 1_555
C3 N1 1_555 1_555
H5 C3 1_555 1_555
C4 N1 1_555 1_555
H6 C4 1_555 1_555
C5 C4 1_555 1_555
H7 C5 1_555 1_555
H8 C5 1_555 1_555
C6 C5 1_555 1_555
H9 C6 1_555 1_555
H10 C6 1_555 1_555
C7 C6 1_555 1_555
H11 C7 1_555 1_555
H12 C7 1_555 1_555
C8 C7 1_555 1_555
H13 C8 1_555 1_555
H14 C8 1_555 1_555
C9 C4 1_555 1_555
H15 C9 1_555 1_555
H16 C9 1_555 1_555
C10 N2 1_555 1_555
C11 O1 1_555 1_555
C12 C11 1_555 1_555
C13 C12 1_555 1_555
H17 C13 1_555 1_555
C14 C13 1_555 1_555
C15 C10 1_555 1_555
H18 C15 1_555 1_555
C16 C12 1_555 1_555
C17 C16 1_555 1_555
H19 C17 1_555 1_555
H20 C17 1_555 1_555
H21 C17 1_555 1_555
C18 C16 1_555 1_555
H22 C18 1_555 1_555
H23 C18 1_555 1_555
H24 C18 1_555 1_555
C19 C16 1_555 1_555
H25 C19 1_555 1_555
H26 C19 1_555 1_555
H27 C19 1_555 1_555
C20 C14 1_555 1_555
C21 C20 1_555 1_555
H28 C21 1_555 1_555
H29 C21 1_555 1_555
H30 C21 1_555 1_555
C22 C20 1_555 1_555
H31 C22 1_555 1_555
H32 C22 1_555 1_555
H33 C22 1_555 1_555
C23 C20 1_555 1_555
H34 C23 1_555 1_555
H35 C23 1_555 1_555
H36 C23 1_555 1_555
C24 H37 1_555 1_555
C25 N4 1_555 1_555
H38 C25 1_555 1_555
C26 N3 1_555 1_555
H39 C26 1_555 1_555
C27 N3 1_555 1_555
H40 C27 1_555 1_555
C28 C27 1_555 1_555
H41 C28 1_555 1_555
H42 C28 1_555 1_555
C29 C28 1_555 1_555
H43 C29 1_555 1_555
H44 C29 1_555 1_555
C30 C29 1_555 1_555
H45 C30 1_555 1_555
H46 C30 1_555 1_555
C31 C30 1_555 1_555
H47 C31 1_555 1_555
H48 C31 1_555 1_555
C32 C27 1_555 1_555
H49 C32 1_555 1_555
H50 C32 1_555 1_555
C33 N4 1_555 1_555
C34 O2 1_555 1_555
C35 C34 1_555 1_555
C36 C35 1_555 1_555
H51 C36 1_555 1_555
C37 C36 1_555 1_555
C38 C33 1_555 1_555
H52 C38 1_555 1_555
C39 C35 1_555 1_555
C40 C39 1_555 1_555
H53 C40 1_555 1_555
H54 C40 1_555 1_555
H55 C40 1_555 1_555
C41 C39 1_555 1_555
H56 C41 1_555 1_555
H57 C41 1_555 1_555
H58 C41 1_555 1_555
C42 C39 1_555 1_555
H59 C42 1_555 1_555
H60 C42 1_555 1_555
H61 C42 1_555 1_555
C43 C37 1_555 1_555
C44 C43 1_555 1_555
H62 C44 1_555 1_555
H63 C44 1_555 1_555
H64 C44 1_555 1_555
C45 C43 1_555 1_555
H65 C45 1_555 1_555
H66 C45 1_555 1_555
H67 C45 1_555 1_555
C46 C43 1_555 1_555
H68 C46 1_555 1_555
H69 C46 1_555 1_555
H70 C46 1_555 1_555
C2 C3 1_555 1_555
C8 C9 1_555 1_555
C10 C11 1_555 1_555
C14 C15 1_555 1_555
C25 C26 1_555 1_555
C31 C32 1_555 1_555
C33 C34 1_555 1_555
C37 C38 1_555 1_555

#END
