
#######################################################################
#
#                 Cambridge Crystallographic Data Centre
#                                CCDC 
#
#######################################################################
#
# If this CIF has been generated from an entry in the Cambridge 
# Structural Database, then it will include bibliographic, chemical, 
# crystal, experimental, refinement or atomic coordinate data resulting 
# from the CCDC's data processing and validation procedures.
#
#######################################################################

data_HIBKUA
_chemical_formula_moiety         'C23 H29 N1 O7'
_chemical_name_systematic        
'(1-(2-(3,4-Dimethoxyphenyl)ethyl)-4a-(ethoxycarbonyl)-2-oxo-2,3,4,4a,5,6-hexahydro-1H-cyclopenta[b]pyridin-3-yl)acetic acid'
_symmetry_cell_setting           monoclinic
_symmetry_space_group_name_H-M   'P 21/c'
_symmetry_Int_Tables_number      14
_space_group_name_Hall           '-P 2ybc'
loop_
_symmetry_equiv_pos_site_id
_symmetry_equiv_pos_as_xyz
1 x,y,z
2 -x,1/2+y,1/2-z
3 -x,-y,-z
4 x,1/2-y,1/2+z
_cell_length_a                   9.834(3)
_cell_length_b                   21.975(6)
_cell_length_c                   10.063(3)
_cell_angle_alpha                90
_cell_angle_beta                 101.023(5)
_cell_angle_gamma                90
_cell_volume                     2134.52
_cell_formula_units_Z            4
loop_
_atom_site_label
_atom_site_type_symbol
_atom_site_fract_x
_atom_site_fract_y
_atom_site_fract_z
C1 C -0.2406(3) 0.07697(13) 0.2908(3)
H1 H -0.2735 0.1147 0.2434
H2 H -0.2674 0.0422 0.2304
H3 H -0.1395 0.0783 0.3179
C2 C -0.5050(3) 0.05805(13) 0.7171(3)
H4 H -0.4392 0.0554 0.8033
H5 H -0.5627 0.0214 0.7044
H6 H -0.5641 0.0939 0.7177
C3 C -0.3487(3) 0.11347(12) 0.6087(3)
C4 C -0.2776(3) 0.11712(12) 0.5017(3)
C5 C -0.1881(3) 0.16515(12) 0.4958(3)
H7 H -0.1379 0.1668 0.4241
C6 C -0.1702(3) 0.21093(12) 0.5925(3)
C7 C -0.2458(3) 0.20774(13) 0.6944(3)
H8 H -0.2372 0.2393 0.7600
C8 C -0.3340(3) 0.15944(13) 0.7031(3)
H9 H -0.3845 0.1580 0.7746
C9 C -0.0657(3) 0.26069(13) 0.5899(3)
H10 H -0.1025 0.2995 0.6184
H11 H -0.0499 0.2659 0.4963
C10 C 0.0715(3) 0.24608(12) 0.6836(3)
H12 H 0.0551 0.2385 0.7762
H13 H 0.1113 0.2086 0.6519
C11 C 0.1540(3) 0.34538(12) 0.7650(3)
C12 C 0.2498(3) 0.40000(12) 0.7692(3)
H14 H 0.1987 0.4315 0.7072
C13 C 0.2761(3) 0.42677(12) 0.9109(3)
H15 H 0.3073 0.3939 0.9770
H16 H 0.3519 0.4570 0.9186
C14 C 0.1518(3) 0.45677(13) 0.9465(3)
C15 C 0.3824(3) 0.38551(13) 0.7178(3)
H17 H 0.4320 0.4237 0.7057
H18 H 0.4440 0.3600 0.7849
C16 C 0.3467(3) 0.35194(13) 0.5838(3)
C17 C 0.4714(3) 0.32652(13) 0.5299(3)
H19 H 0.5013 0.3554 0.4656
H20 H 0.5504 0.3187 0.6051
C18 C 0.4193(3) 0.26706(14) 0.4585(3)
H21 H 0.3824 0.2738 0.3610
H22 H 0.4936 0.2361 0.4688
C19 C 0.3048(3) 0.24847(14) 0.5334(3)
H23 H 0.2651 0.2090 0.5308
C20 C 0.2688(3) 0.29450(13) 0.6019(3)
C21 C 0.2604(3) 0.39518(14) 0.4818(3)
C22 C 0.0302(3) 0.41628(14) 0.3607(3)
H24 H -0.0057 0.3964 0.2727
H25 H 0.0751 0.4550 0.3432
C23 C -0.0864(3) 0.42834(14) 0.4342(3)
H26 H -0.1296 0.3897 0.4517
H27 H -0.1556 0.4545 0.3786
H28 H -0.0502 0.4487 0.5204
N1 N 0.1705(2) 0.29650(10) 0.6867(2)
O1 O -0.30146(18) 0.07068(8) 0.40887(19)
O2 O -0.43066(18) 0.06313(8) 0.60872(18)
O3 O 0.1299(2) 0.37676(9) 0.4450(2)
O4 O 0.3063(2) 0.44112(10) 0.4427(2)
O5 O 0.1330(2) 0.44431(9) 1.07006(19)
H29 H 0.0642 0.4638 1.0857
O6 O 0.0783(2) 0.49119(8) 0.87046(18)
O7 O 0.06420(19) 0.34565(8) 0.83376(18)
loop_
_geom_bond_atom_site_label_1
_geom_bond_atom_site_label_2
_geom_bond_site_symmetry_1
_geom_bond_site_symmetry_2
C1 H1 1_555 1_555
H2 C1 1_555 1_555
H3 C1 1_555 1_555
C2 H4 1_555 1_555
H5 C2 1_555 1_555
H6 C2 1_555 1_555
C3 C4 1_555 1_555
C4 C5 1_555 1_555
C5 H7 1_555 1_555
C6 C5 1_555 1_555
C7 C6 1_555 1_555
H8 C7 1_555 1_555
C8 C3 1_555 1_555
H9 C8 1_555 1_555
C9 C6 1_555 1_555
H10 C9 1_555 1_555
H11 C9 1_555 1_555
C10 C9 1_555 1_555
H12 C10 1_555 1_555
H13 C10 1_555 1_555
C11 C12 1_555 1_555
C12 H14 1_555 1_555
C13 C12 1_555 1_555
H15 C13 1_555 1_555
H16 C13 1_555 1_555
C14 C13 1_555 1_555
C15 C12 1_555 1_555
H17 C15 1_555 1_555
H18 C15 1_555 1_555
C16 C15 1_555 1_555
C17 C16 1_555 1_555
H19 C17 1_555 1_555
H20 C17 1_555 1_555
C18 C17 1_555 1_555
H21 C18 1_555 1_555
H22 C18 1_555 1_555
C19 C18 1_555 1_555
H23 C19 1_555 1_555
C20 C16 1_555 1_555
C21 C16 1_555 1_555
C22 H24 1_555 1_555
H25 C22 1_555 1_555
C23 C22 1_555 1_555
H26 C23 1_555 1_555
H27 C23 1_555 1_555
H28 C23 1_555 1_555
N1 C10 1_555 1_555
O1 C1 1_555 1_555
O2 C2 1_555 1_555
O3 C21 1_555 1_555
O4 C21 1_555 1_555
O5 C14 1_555 1_555
H29 O5 1_555 1_555
O6 C14 1_555 1_555
O7 C11 1_555 1_555
C3 O2 1_555 1_555
C4 O1 1_555 1_555
C7 C8 1_555 1_555
C11 N1 1_555 1_555
C19 C20 1_555 1_555
C20 N1 1_555 1_555
C22 O3 1_555 1_555

#END
