
#######################################################################
#
#                 Cambridge Crystallographic Data Centre
#                                CCDC 
#
#######################################################################
#
# If this CIF has been generated from an entry in the Cambridge 
# Structural Database, then it will include bibliographic, chemical, 
# crystal, experimental, refinement or atomic coordinate data resulting 
# from the CCDC's data processing and validation procedures.
#
#######################################################################

data_HIBLAH
_chemical_formula_moiety         'C22 H23 N1 O5'
_chemical_name_systematic        
'(10a-(Methoxycarbonyl)-2-oxo-6-phenyl-1,2,4,7,8,9,10,10a-octahydrocyclohepta[hi]indolizin-1-yl)acetic acid'
_symmetry_cell_setting           triclinic
_symmetry_space_group_name_H-M   'P -1'
_symmetry_Int_Tables_number      2
_space_group_name_Hall           '-P 1'
loop_
_symmetry_equiv_pos_site_id
_symmetry_equiv_pos_as_xyz
1 x,y,z
2 -x,-y,-z
_cell_length_a                   9.157(4)
_cell_length_b                   11.436(5)
_cell_length_c                   11.830(5)
_cell_angle_alpha                111.732(8)
_cell_angle_beta                 92.678(7)
_cell_angle_gamma                111.409(8)
_cell_volume                     1047.42
_cell_formula_units_Z            2
loop_
_atom_site_label
_atom_site_type_symbol
_atom_site_fract_x
_atom_site_fract_y
_atom_site_fract_z
C1 C 0.3099(3) 0.2987(2) 0.5308(2)
C2 C 0.4224(3) 0.4140(2) 0.6441(2)
C3 C 0.5746(3) 0.4951(3) 0.6395(2)
H1 H 0.6064 0.4769 0.5616
C4 C 0.6809(3) 0.6012(3) 0.7449(2)
H2 H 0.7855 0.6554 0.7401
C5 C 0.6357(3) 0.6285(3) 0.8566(3)
H3 H 0.7089 0.7022 0.9298
C6 C 0.4846(3) 0.5500(3) 0.8639(2)
H4 H 0.4533 0.5694 0.9419
C7 C 0.3792(3) 0.4436(3) 0.7580(2)
H5 H 0.2748 0.3896 0.7633
C8 C 0.3527(3) 0.2024(2) 0.4588(2)
H6 H 0.4573 0.2089 0.4813
C9 C 0.2429(3) 0.0841(3) 0.3436(2)
H7 H 0.2598 0.1069 0.2710
H8 H 0.2647 0.0016 0.3292
C10 C 0.1455(3) 0.2869(2) 0.5018(2)
C11 C 0.0353(3) 0.1649(2) 0.4221(2)
C12 C -0.1435(3) 0.1136(2) 0.3860(2)
C13 C -0.2212(3) 0.1509(2) 0.4988(2)
H9 H -0.3387 0.0969 0.4704
H10 H -0.1837 0.1210 0.5587
C14 C -0.1888(3) 0.3020(2) 0.5673(2)
H11 H -0.2176 0.3344 0.5062
H12 H -0.2606 0.3098 0.6271
C15 C -0.0190(3) 0.3968(2) 0.6370(2)
H13 H 0.0106 0.3636 0.6971
H14 H -0.0145 0.4900 0.6854
C16 C 0.1048(3) 0.4089(2) 0.5563(2)
H15 H 0.0651 0.4261 0.4873
H16 H 0.2046 0.4909 0.6069
C17 C -0.0479(3) -0.0643(3) 0.2967(2)
C18 C -0.1991(3) -0.0451(2) 0.3190(2)
H17 H -0.2419 -0.0857 0.3785
C19 C -0.3221(3) -0.1254(2) 0.1972(2)
H18 H -0.2897 -0.0766 0.1427
H19 H -0.3201 -0.2173 0.1555
C20 C -0.4885(3) -0.1452(3) 0.2090(2)
C21 C -0.1825(3) 0.1676(2) 0.2942(2)
C22 C -0.3866(3) 0.1861(3) 0.1846(2)
H20 H -0.3224 0.2843 0.2068
H21 H -0.5000 0.1692 0.1805
H22 H -0.3727 0.1306 0.1034
N1 N 0.0783(2) 0.05585(19) 0.35900(18)
O1 O -0.04159(19) -0.17240(17) 0.23051(16)
O2 O -0.5402(2) -0.13301(18) 0.30125(17)
O3 O -0.5777(2) -0.1856(2) 0.09895(16)
H23 H -0.6748 -0.2108 0.1036
O4 O -0.0888(2) 0.21813(18) 0.24075(16)
O5 O -0.33452(19) 0.14830(18) 0.27747(15)
loop_
_geom_bond_atom_site_label_1
_geom_bond_atom_site_label_2
_geom_bond_site_symmetry_1
_geom_bond_site_symmetry_2
C1 C2 1_555 1_555
C2 C3 1_555 1_555
C3 H1 1_555 1_555
C4 C3 1_555 1_555
H2 C4 1_555 1_555
C5 C4 1_555 1_555
H3 C5 1_555 1_555
C6 C5 1_555 1_555
H4 C6 1_555 1_555
C7 C2 1_555 1_555
H5 C7 1_555 1_555
C8 C1 1_555 1_555
H6 C8 1_555 1_555
C9 C8 1_555 1_555
H7 C9 1_555 1_555
H8 C9 1_555 1_555
C10 C1 1_555 1_555
C11 C10 1_555 1_555
C12 C11 1_555 1_555
C13 C12 1_555 1_555
H9 C13 1_555 1_555
H10 C13 1_555 1_555
C14 C13 1_555 1_555
H11 C14 1_555 1_555
H12 C14 1_555 1_555
C15 C14 1_555 1_555
H13 C15 1_555 1_555
H14 C15 1_555 1_555
C16 C10 1_555 1_555
H15 C16 1_555 1_555
H16 C16 1_555 1_555
C17 C18 1_555 1_555
C18 C12 1_555 1_555
H17 C18 1_555 1_555
C19 C18 1_555 1_555
H18 C19 1_555 1_555
H19 C19 1_555 1_555
C20 C19 1_555 1_555
C21 C12 1_555 1_555
C22 H20 1_555 1_555
H21 C22 1_555 1_555
H22 C22 1_555 1_555
N1 C9 1_555 1_555
O1 C17 1_555 1_555
O2 C20 1_555 1_555
O3 C20 1_555 1_555
H23 O3 1_555 1_555
O4 C21 1_555 1_555
O5 C21 1_555 1_555
C6 C7 1_555 1_555
C11 N1 1_555 1_555
C15 C16 1_555 1_555
C17 N1 1_555 1_555
C22 O5 1_555 1_555

#END
