
#######################################################################
#
#                 Cambridge Crystallographic Data Centre
#                                CCDC 
#
#######################################################################
#
# If this CIF has been generated from an entry in the Cambridge 
# Structural Database, then it will include bibliographic, chemical, 
# crystal, experimental, refinement or atomic coordinate data resulting 
# from the CCDC's data processing and validation procedures.
#
#######################################################################

data_HIBLEL
_chemical_formula_moiety         'C16 H21 N1 O5'
_chemical_name_systematic        
'(9a-(Ethoxycarbonyl)-3-oxo-2,3,5,6,7,8,9,9a-octahydro-1H-cyclopenta[ij]quinolizin-2-yl)acetic acid'
_symmetry_cell_setting           monoclinic
_symmetry_space_group_name_H-M   'P 21/c'
_symmetry_Int_Tables_number      14
_space_group_name_Hall           '-P 2ybc'
loop_
_symmetry_equiv_pos_site_id
_symmetry_equiv_pos_as_xyz
1 x,y,z
2 -x,1/2+y,1/2-z
3 -x,-y,-z
4 x,1/2-y,1/2+z
_cell_length_a                   10.503(3)
_cell_length_b                   12.281(3)
_cell_length_c                   11.173(3)
_cell_angle_alpha                90
_cell_angle_beta                 100.114(5)
_cell_angle_gamma                90
_cell_volume                     1418.78
_cell_formula_units_Z            4
loop_
_atom_site_label
_atom_site_type_symbol
_atom_site_fract_x
_atom_site_fract_y
_atom_site_fract_z
C1 C 0.7142(3) 0.0620(3) 1.1379(3)
H1 H 0.6228 0.0859 1.1236
H2 H 0.7624 0.1075 1.2039
C2 C 0.7215(3) -0.0548(3) 1.1772(3)
H3 H 0.6809 -0.0627 1.2503
H4 H 0.8134 -0.0764 1.1996
C3 C 0.6540(3) -0.1304(3) 1.0779(3)
H5 H 0.6800 -0.2067 1.0977
H6 H 0.5591 -0.1250 1.0723
C4 C 0.6901(3) -0.0993(3) 0.9603(3)
C5 C 0.7388(3) -0.0037(3) 0.9401(3)
C6 C 0.6804(3) -0.1690(3) 0.8488(3)
H7 H 0.5899 -0.1739 0.8054
H8 H 0.7134 -0.2434 0.8698
C7 C 0.7662(3) -0.1086(3) 0.7718(3)
H9 H 0.8548 -0.1393 0.7856
H10 H 0.7293 -0.1139 0.6841
C8 C 0.7676(3) 0.0099(3) 0.8153(3)
C9 C 0.8941(3) 0.0717(3) 0.8234(3)
H11 H 0.9661 0.0265 0.8659
H12 H 0.9106 0.0871 0.7405
C10 C 0.8883(3) 0.1776(3) 0.8914(3)
H13 H 0.8232 0.2251 0.8399
C11 C 0.8453(3) 0.1645(3) 1.0132(3)
C12 C 1.0164(3) 0.2372(3) 0.9095(3)
H14 H 1.0791 0.1976 0.9707
H15 H 1.0499 0.2364 0.8321
C13 C 1.0087(4) 0.3523(3) 0.9501(3)
C14 C 0.6619(4) 0.0774(3) 0.7382(3)
C15 C 0.5828(3) 0.1432(3) 0.5430(3)
H16 H 0.6051 0.2196 0.5661
H17 H 0.4913 0.1304 0.5500
C16 C 0.6026(3) 0.1220(3) 0.4168(3)
H18 H 0.6952 0.1241 0.4138
H19 H 0.5577 0.1778 0.3625
H20 H 0.5679 0.0501 0.3907
N1 N 0.7677(3) 0.0784(2) 1.0274(2)
O1 O 0.8779(2) 0.23008(18) 1.0956(2)
O2 O 1.1076(2) 0.38339(18) 1.0303(2)
H21 H 1.0950 0.4470 1.0532
O3 O 0.9217(2) 0.41318(18) 0.9064(2)
O4 O 0.5862(2) 0.13395(19) 0.7787(2)
O5 O 0.6663(2) 0.06928(17) 0.6211(2)
loop_
_geom_bond_atom_site_label_1
_geom_bond_atom_site_label_2
_geom_bond_site_symmetry_1
_geom_bond_site_symmetry_2
C1 H1 1_555 1_555
H2 C1 1_555 1_555
C2 C1 1_555 1_555
H3 C2 1_555 1_555
H4 C2 1_555 1_555
C3 C2 1_555 1_555
H5 C3 1_555 1_555
H6 C3 1_555 1_555
C4 C3 1_555 1_555
C5 C4 1_555 1_555
C6 C4 1_555 1_555
H7 C6 1_555 1_555
H8 C6 1_555 1_555
C7 C6 1_555 1_555
H9 C7 1_555 1_555
H10 C7 1_555 1_555
C8 C5 1_555 1_555
C9 C8 1_555 1_555
H11 C9 1_555 1_555
H12 C9 1_555 1_555
C10 C9 1_555 1_555
H13 C10 1_555 1_555
C11 C10 1_555 1_555
C12 C10 1_555 1_555
H14 C12 1_555 1_555
H15 C12 1_555 1_555
C13 C12 1_555 1_555
C14 C8 1_555 1_555
C15 H16 1_555 1_555
H17 C15 1_555 1_555
C16 C15 1_555 1_555
H18 C16 1_555 1_555
H19 C16 1_555 1_555
H20 C16 1_555 1_555
N1 C1 1_555 1_555
O1 C11 1_555 1_555
O2 C13 1_555 1_555
H21 O2 1_555 1_555
O3 C13 1_555 1_555
O4 C14 1_555 1_555
O5 C14 1_555 1_555
C5 N1 1_555 1_555
C7 C8 1_555 1_555
C11 N1 1_555 1_555
C15 O5 1_555 1_555

#END
