
#######################################################################
#
#                 Cambridge Crystallographic Data Centre
#                                CCDC 
#
#######################################################################
#
# If this CIF has been generated from an entry in the Cambridge 
# Structural Database, then it will include bibliographic, chemical, 
# crystal, experimental, refinement or atomic coordinate data resulting 
# from the CCDC's data processing and validation procedures.
#
#######################################################################

data_HIBQAN
_chemical_formula_moiety         'C11 H14 N1 O5 P1'
_chemical_name_systematic        
N-(4-methoxyphenyl)-2-oxo-1,3,2\l^5^-dioxaphosphinane-2-carboxamide
_symmetry_cell_setting           triclinic
_symmetry_space_group_name_H-M   'P -1'
_symmetry_Int_Tables_number      2
_space_group_name_Hall           '-P 1'
loop_
_symmetry_equiv_pos_site_id
_symmetry_equiv_pos_as_xyz
1 x,y,z
2 -x,-y,-z
_cell_length_a                   5.7070(17)
_cell_length_b                   9.7375(16)
_cell_length_c                   12.0777(18)
_cell_angle_alpha                79.858(13)
_cell_angle_beta                 77.700(18)
_cell_angle_gamma                74.88(2)
_cell_volume                     627.883
_exptl_crystal_colour            colorless
_exptl_crystal_description       block
_cell_formula_units_Z            2
loop_
_atom_site_label
_atom_site_type_symbol
_atom_site_fract_x
_atom_site_fract_y
_atom_site_fract_z
P1 P 0.50189(15) 0.73979(7) 0.60704(5)
O1 O 0.2762(4) 0.6820(2) 0.67587(17)
O2 O 0.7082(4) 0.60600(19) 0.57250(16)
O3 O 0.4464(5) 0.84429(19) 0.50914(16)
O4 O 0.6396(5) 0.7400(2) 0.80376(18)
O5 O 1.0734(5) 1.2535(2) 0.89511(18)
N1 N 0.6710(4) 0.9383(2) 0.67446(17)
H1 H 0.6436 0.9780 0.6075
C1 C 0.7338(7) 0.4654(3) 0.6398(3)
H2 H 0.8149 0.4633 0.7032
H3 H 0.8360 0.3934 0.5928
C2 C 0.4891(8) 0.4312(3) 0.6845(3)
H4 H 0.4219 0.4174 0.6211
H5 H 0.5115 0.3414 0.7352
C3 C 0.3113(8) 0.5414(4) 0.7463(3)
H6 H 0.3687 0.5481 0.8148
H7 H 0.1545 0.5141 0.7695
C4 C 0.6157(6) 0.8118(3) 0.7113(2)
C5 C 0.7727(5) 1.0144(2) 0.7369(2)
C6 C 0.6635(6) 1.0436(3) 0.8458(2)
H8 H 0.5248 1.0096 0.8819
C7 C 0.7579(6) 1.1233(3) 0.9023(2)
H9 H 0.6828 1.1436 0.9757
C8 C 0.9653(6) 1.1721(3) 0.8481(2)
C9 C 1.0740(6) 1.1437(3) 0.7388(2)
H10 H 1.2126 1.1776 0.7024
C10 C 0.9776(5) 1.0650(3) 0.6830(2)
H11 H 1.0508 1.0461 0.6091
C11 C 0.9643(8) 1.2897(4) 1.0058(3)
H12 H 0.7988 1.3454 1.0051
H13 H 1.0586 1.3446 1.0291
H14 H 0.9615 1.2036 1.0584
loop_
_geom_bond_atom_site_label_1
_geom_bond_atom_site_label_2
_geom_bond_site_symmetry_1
_geom_bond_site_symmetry_2
P1 O1 1_555 1_555
O1 C3 1_555 1_555
O2 P1 1_555 1_555
O3 P1 1_555 1_555
O4 C4 1_555 1_555
O5 C8 1_555 1_555
N1 H1 1_555 1_555
C1 O2 1_555 1_555
H2 C1 1_555 1_555
H3 C1 1_555 1_555
C2 C1 1_555 1_555
H4 C2 1_555 1_555
H5 C2 1_555 1_555
C3 C2 1_555 1_555
H6 C3 1_555 1_555
H7 C3 1_555 1_555
C4 P1 1_555 1_555
C5 N1 1_555 1_555
C6 C5 1_555 1_555
H8 C6 1_555 1_555
C7 C6 1_555 1_555
H9 C7 1_555 1_555
C8 C7 1_555 1_555
C9 C8 1_555 1_555
H10 C9 1_555 1_555
C10 C5 1_555 1_555
H11 C10 1_555 1_555
C11 O5 1_555 1_555
H12 C11 1_555 1_555
H13 C11 1_555 1_555
H14 C11 1_555 1_555
N1 C4 1_555 1_555
C9 C10 1_555 1_555

#END
