
#######################################################################
#
#                 Cambridge Crystallographic Data Centre
#                                CCDC 
#
#######################################################################
#
# If this CIF has been generated from an entry in the Cambridge 
# Structural Database, then it will include bibliographic, chemical, 
# crystal, experimental, refinement or atomic coordinate data resulting 
# from the CCDC's data processing and validation procedures.
#
#######################################################################

data_HIBSUJ
_chemical_formula_moiety         'C13 H18 O2'
_chemical_name_systematic        cis-4-[4-(hydroxymethyl)cyclohexyl]phenol
_symmetry_cell_setting           orthorhombic
_symmetry_space_group_name_H-M   'P b c a'
_symmetry_Int_Tables_number      61
_space_group_name_Hall           '-P 2ac 2ab'
loop_
_symmetry_equiv_pos_site_id
_symmetry_equiv_pos_as_xyz
1 x,y,z
2 1/2-x,-y,1/2+z
3 1/2+x,1/2-y,-z
4 -x,1/2+y,1/2-z
5 -x,-y,-z
6 1/2+x,y,1/2-z
7 1/2-x,1/2+y,z
8 x,1/2-y,1/2+z
_cell_length_a                   12.0669(2)
_cell_length_b                   8.09601(18)
_cell_length_c                   22.4321(4)
_cell_angle_alpha                90
_cell_angle_beta                 90
_cell_angle_gamma                90
_cell_volume                     2191.48
_exptl_crystal_colour            colorless
_exptl_crystal_description       plate
_chemical_melting_point          '388-393 K'
_cell_formula_units_Z            8
_exptl_crystal_recrystallization_method 'ethyl acetate/hexanes'
loop_
_atom_site_label
_atom_site_type_symbol
_atom_site_fract_x
_atom_site_fract_y
_atom_site_fract_z
O1 O 0.63982(8) 0.55684(12) 0.51522(4)
H1 H 0.6910 0.6208 0.5046
O2 O 0.68943(8) 0.26352(13) 0.97761(4)
H2 H 0.6660 0.1674 0.9839
C1 C 0.61631(10) 0.54145(15) 0.70172(5)
C2 C 0.69785(11) 0.63550(17) 0.67345(6)
H3 H 0.7484 0.6968 0.6972
C3 C 0.70758(11) 0.64251(17) 0.61195(6)
H4 H 0.7643 0.7070 0.5940
C4 C 0.63355(11) 0.55418(15) 0.57666(6)
C5 C 0.55173(11) 0.45987(16) 0.60319(6)
H5 H 0.5011 0.3994 0.5792
C6 C 0.54371(11) 0.45373(16) 0.66527(6)
H6 H 0.4874 0.3882 0.6830
C7 C 0.61351(10) 0.53715(15) 0.76949(5)
H7 H 0.6284 0.6522 0.7836
C8 C 0.70664(11) 0.42833(17) 0.79411(6)
H8 H 0.6962 0.3139 0.7796
H9 H 0.7785 0.4688 0.7786
C9 C 0.71052(11) 0.42686(17) 0.86196(5)
H10 H 0.7274 0.5393 0.8768
H11 H 0.7702 0.3519 0.8755
C10 C 0.59967(11) 0.36927(16) 0.88748(6)
H12 H 0.5852 0.2549 0.8726
C11 C 0.50669(11) 0.48130(18) 0.86481(6)
H13 H 0.5184 0.5948 0.8800
H14 H 0.4348 0.4412 0.8804
C12 C 0.50266(10) 0.48481(18) 0.79658(6)
H15 H 0.4828 0.3736 0.7816
H16 H 0.4442 0.5627 0.7836
C13 C 0.60096(12) 0.36387(18) 0.95502(6)
H17 H 0.6090 0.4776 0.9707
H18 H 0.5294 0.3195 0.9695
loop_
_geom_bond_atom_site_label_1
_geom_bond_atom_site_label_2
_geom_bond_site_symmetry_1
_geom_bond_site_symmetry_2
O1 H1 1_555 1_555
O2 H2 1_555 1_555
C1 C2 1_555 1_555
C2 H3 1_555 1_555
C3 C2 1_555 1_555
H4 C3 1_555 1_555
C4 O1 1_555 1_555
C5 C4 1_555 1_555
H5 C5 1_555 1_555
C6 C1 1_555 1_555
H6 C6 1_555 1_555
C7 C1 1_555 1_555
H7 C7 1_555 1_555
C8 C7 1_555 1_555
H8 C8 1_555 1_555
H9 C8 1_555 1_555
C9 C8 1_555 1_555
H10 C9 1_555 1_555
H11 C9 1_555 1_555
C10 C9 1_555 1_555
H12 C10 1_555 1_555
C11 C10 1_555 1_555
H13 C11 1_555 1_555
H14 C11 1_555 1_555
C12 C7 1_555 1_555
H15 C12 1_555 1_555
H16 C12 1_555 1_555
C13 O2 1_555 1_555
H17 C13 1_555 1_555
H18 C13 1_555 1_555
C3 C4 1_555 1_555
C5 C6 1_555 1_555
C10 C13 1_555 1_555
C11 C12 1_555 1_555

#END
