
#######################################################################
#
#                 Cambridge Crystallographic Data Centre
#                                CCDC 
#
#######################################################################
#
# If this CIF has been generated from an entry in the Cambridge 
# Structural Database, then it will include bibliographic, chemical, 
# crystal, experimental, refinement or atomic coordinate data resulting 
# from the CCDC's data processing and validation procedures.
#
#######################################################################

data_HIBZAT
_chemical_formula_moiety         'C15 H24 O1'
_chemical_name_systematic        
(6\a(H))-7,7,9\b-Trimethyl-cis-tricyclo(6.3.1.0^1,6^)dodecan-2-one
_symmetry_cell_setting           orthorhombic
_symmetry_space_group_name_H-M   'P 21 21 21'
_symmetry_Int_Tables_number      19
_space_group_name_Hall           'P 2ac 2ab'
loop_
_symmetry_equiv_pos_site_id
_symmetry_equiv_pos_as_xyz
1 x,y,z
2 1/2-x,-y,1/2+z
3 1/2+x,1/2-y,-z
4 -x,1/2+y,1/2-z
_cell_length_a                   9.958(3)
_cell_length_b                   9.961(4)
_cell_length_c                   12.978(6)
_cell_angle_alpha                90
_cell_angle_beta                 90
_cell_angle_gamma                90
_cell_volume                     1287.31
_exptl_crystal_colour            Colorless
_cell_formula_units_Z            4
loop_
_atom_site_label
_atom_site_type_symbol
_atom_site_fract_x
_atom_site_fract_y
_atom_site_fract_z
O1 O 0.0535(3) 0.1891(3) -0.2387(2)
C1 C 0.0728(3) 0.0358(3) -0.0994(2)
C2 C 0.0021(4) 0.0987(3) -0.1903(2)
C3 C -0.1324(5) 0.0417(6) -0.2210(3)
C4 C -0.2199(4) -0.0062(6) -0.1333(3)
C5 C -0.1646(4) 0.0368(5) -0.0290(3)
C6 C -0.0236(3) -0.0186(3) -0.0147(2)
C7 C 0.0481(3) 0.0110(3) 0.0905(2)
C8 C 0.1922(3) 0.0537(3) 0.0566(2)
C9 C 0.2890(3) -0.0637(4) 0.0318(3)
C10 C 0.2338(4) -0.1533(3) -0.0541(3)
C11 C 0.1640(3) -0.0781(4) -0.1413(3)
C12 C 0.1641(4) 0.1329(3) -0.0415(3)
C13 C 0.4296(4) -0.0111(6) 0.0071(5)
C14 C -0.0143(5) 0.1283(4) 0.1492(3)
C15 C 0.0432(4) -0.1097(4) 0.1624(3)
H1 H -0.1671(42) 0.0991(43) -0.2600(28)
H2 H -0.1086(73) -0.0253(66) -0.2739(47)
H3 H -0.3137(47) 0.0247(43) -0.1465(34)
H4 H -0.2264(57) -0.1093(54) -0.1361(40)
H5 H -0.1682(47) 0.1454(44) -0.0251(35)
H6 H -0.2197(41) -0.0107(37) 0.0270(29)
H7 H -0.0323(30) -0.1125(27) -0.0230(21)
H8 H 0.2328(33) 0.1119(30) 0.1118(22)
H9 H 0.3012(40) -0.1196(36) 0.0884(28)
H10 H 0.1677(32) -0.2123(32) -0.0260(24)
H11 H 0.3046(41) -0.2087(39) -0.0868(28)
H12 H 0.2273(39) -0.0386(37) -0.1889(26)
H13 H 0.1117(40) -0.1459(36) -0.1818(29)
H14 H 0.2447(27) 0.1558(28) -0.0812(21)
H15 H 0.1232(33) 0.2223(36) -0.0256(26)
H16 H 0.4605(47) 0.0496(46) 0.0604(31)
H17 H 0.4886(43) -0.0766(42) 0.0054(34)
H18 H 0.4355(44) 0.0474(43) -0.0654(29)
H19 H -0.1095(37) 0.1120(34) 0.1684(25)
H20 H -0.0107(37) 0.2181(37) 0.1092(30)
H21 H 0.0314(45) 0.1238(43) 0.2153(33)
H22 H 0.0767(33) -0.1904(30) 0.1279(25)
H23 H 0.0933(41) -0.0949(37) 0.2245(27)
H24 H -0.0483(40) -0.1196(37) 0.1859(29)
loop_
_geom_bond_atom_site_label_1
_geom_bond_atom_site_label_2
_geom_bond_site_symmetry_1
_geom_bond_site_symmetry_2
O1 C2 1_555 1_555
C1 C2 1_555 1_555
C2 C3 1_555 1_555
C3 C4 1_555 1_555
C4 C5 1_555 1_555
C5 C6 1_555 1_555
C6 C1 1_555 1_555
C7 C6 1_555 1_555
C8 C7 1_555 1_555
C9 C8 1_555 1_555
C10 C9 1_555 1_555
C11 C1 1_555 1_555
C12 C1 1_555 1_555
C13 C9 1_555 1_555
C14 C7 1_555 1_555
C15 C7 1_555 1_555
H1 C3 1_555 1_555
H2 C3 1_555 1_555
H3 C4 1_555 1_555
H4 C4 1_555 1_555
H5 C5 1_555 1_555
H6 C5 1_555 1_555
H7 C6 1_555 1_555
H8 C8 1_555 1_555
H9 C9 1_555 1_555
H10 C10 1_555 1_555
H11 C10 1_555 1_555
H12 C11 1_555 1_555
H13 C11 1_555 1_555
H14 C12 1_555 1_555
H15 C12 1_555 1_555
H16 C13 1_555 1_555
H17 C13 1_555 1_555
H18 C13 1_555 1_555
H19 C14 1_555 1_555
H20 C14 1_555 1_555
H21 C14 1_555 1_555
H22 C15 1_555 1_555
H23 C15 1_555 1_555
H24 C15 1_555 1_555
C8 C12 1_555 1_555
C10 C11 1_555 1_555

#END
