
#######################################################################
#
#                 Cambridge Crystallographic Data Centre
#                                CCDC 
#
#######################################################################
#
# If this CIF has been generated from an entry in the Cambridge 
# Structural Database, then it will include bibliographic, chemical, 
# crystal, experimental, refinement or atomic coordinate data resulting 
# from the CCDC's data processing and validation procedures.
#
#######################################################################

data_HICCIF
_chemical_name_common            '(E,Z)-4-Thia-2,5-heptadienedioic acid 4-oxide'
_chemical_formula_moiety         'C6 H6 O5 S1'
_chemical_name_systematic        "cis,trans-3,3'-Sulfinylbis(acrylic acid)"
_symmetry_cell_setting           monoclinic
_symmetry_space_group_name_H-M   'P 21/n'
_symmetry_Int_Tables_number      14
_space_group_name_Hall           '-P 2yn'
loop_
_symmetry_equiv_pos_site_id
_symmetry_equiv_pos_as_xyz
1 x,y,z
2 1/2-x,1/2+y,1/2-z
3 -x,-y,-z
4 1/2+x,1/2-y,1/2+z
_cell_length_a                   5.782(2)
_cell_length_b                   18.164(5)
_cell_length_c                   7.531(2)
_cell_angle_alpha                90
_cell_angle_beta                 90.07(2)
_cell_angle_gamma                90
_cell_volume                     790.937
_exptl_crystal_colour            colorless
_cell_formula_units_Z            4
loop_
_atom_site_label
_atom_site_type_symbol
_atom_site_fract_x
_atom_site_fract_y
_atom_site_fract_z
S1 S 0.2685(1) 0.3526(1) 0.7264(1)
O1 O 0.3847(4) 0.2809(1) 0.7717(3)
C1 C 0.2587(5) 0.3571(2) 0.4925(4)
C2 C 0.3218(5) 0.3016(2) 0.3919(4)
C3 C 0.2953(5) 0.3064(2) 0.1965(4)
O2 O 0.1999(4) 0.3570(1) 0.1212(3)
O3 O 0.3870(4) 0.2510(1) 0.1117(3)
C4 C 0.4940(5) 0.4193(2) 0.7489(4)
C5 C 0.4642(5) 0.4900(2) 0.7733(4)
C6 C 0.2316(5) 0.5234(2) 0.7727(4)
O4 O 0.0623(4) 0.4927(1) 0.7156(4)
O5 O 0.2306(4) 0.5904(1) 0.8383(5)
H1 H 0.2061 0.4016 0.4371
H2 H 0.3840 0.2580 0.4458
H3 H 0.3934 0.2589 0.0005
H4 H 0.6504 0.4018 0.7425
H5 H 0.5966 0.5210 0.7915
H6 H 0.0905 0.6043 0.8453
loop_
_geom_bond_atom_site_label_1
_geom_bond_atom_site_label_2
_geom_bond_site_symmetry_1
_geom_bond_site_symmetry_2
S1 O1 1_555 1_555
C1 S1 1_555 1_555
C2 C1 1_555 1_555
C3 C2 1_555 1_555
O2 C3 1_555 1_555
O3 C3 1_555 1_555
C4 S1 1_555 1_555
C5 C4 1_555 1_555
C6 C5 1_555 1_555
O4 C6 1_555 1_555
O5 C6 1_555 1_555
H1 C1 1_555 1_555
H2 C2 1_555 1_555
H3 O3 1_555 1_555
H4 C4 1_555 1_555
H5 C5 1_555 1_555
H6 O5 1_555 1_555

#END
