
#######################################################################
#
#                 Cambridge Crystallographic Data Centre
#                                CCDC 
#
#######################################################################
#
# If this CIF has been generated from an entry in the Cambridge 
# Structural Database, then it will include bibliographic, chemical, 
# crystal, experimental, refinement or atomic coordinate data resulting 
# from the CCDC's data processing and validation procedures.
#
#######################################################################

data_HICDUU
_chemical_formula_moiety         'C14 H15 Br1 N2 O1'
_chemical_name_systematic        
1-Allyl-3-(4-bromophenyl)-4-(hydroxymethyl)azetidine-2-carbonitrile
_symmetry_cell_setting           monoclinic
_symmetry_space_group_name_H-M   'P 21'
_symmetry_Int_Tables_number      4
_space_group_name_Hall           'P 2yb'
loop_
_symmetry_equiv_pos_site_id
_symmetry_equiv_pos_as_xyz
1 x,y,z
2 -x,1/2+y,-z
_cell_length_a                   9.3522(17)
_cell_length_b                   6.0075(11)
_cell_length_c                   12.278(2)
_cell_angle_alpha                90
_cell_angle_beta                 98.837(3)
_cell_angle_gamma                90
_cell_volume                     681.63
_exptl_crystal_colour            colorless
_exptl_crystal_description       plate
_cell_formula_units_Z            2
loop_
_atom_site_label
_atom_site_type_symbol
_atom_site_fract_x
_atom_site_fract_y
_atom_site_fract_z
Br1 Br -0.381790(18) 1.28902(4) 0.447820(13)
N1 N 0.17637(18) 0.7297(2) 0.13967(12)
N2 N 0.2745(2) 1.1893(3) 0.30526(14)
O1 O -0.06253(16) 0.6101(2) -0.02819(11)
H1 H -0.099(3) 0.494(3) -0.0539(19)
C1 C 0.0533(2) 0.5827(3) 0.16090(15)
H2 H 0.0810 0.4222 0.1583
C2 C 0.0718(2) 0.6674(3) 0.28396(15)
H3 H 0.0897 0.5387 0.3359
C3 C 0.21967(19) 0.7671(4) 0.26075(13)
H4 H 0.3025 0.6687 0.2912
C4 C 0.2900(2) 0.6241(3) 0.08504(16)
H5 H 0.2509 0.5911 0.0072
H6 H 0.3210 0.4822 0.1224
C5 C 0.4170(2) 0.7786(6) 0.09035(16)
H7 H 0.4056 0.9102 0.0470
C6 C 0.5435(3) 0.7424(5) 0.1516(2)
H8 H 0.5583 0.6122 0.1958
H9 H 0.6200 0.8465 0.1515
C7 C -0.0866(2) 0.6269(3) 0.08349(15)
H10 H -0.1609 0.5176 0.0973
H11 H -0.1226 0.7778 0.0972
C8 C -0.0391(2) 0.8215(4) 0.31985(14)
C9 C -0.1104(2) 0.7570(4) 0.40740(15)
H12 H -0.0869 0.6178 0.4423
C10 C -0.2139(2) 0.8899(3) 0.44447(15)
H13 H -0.2626 0.8410 0.5026
C11 C -0.2455(2) 1.0976(3) 0.39492(15)
C12 C -0.1770(2) 1.1680(3) 0.30786(15)
H14 H -0.1994 1.3088 0.2743
C13 C -0.0752(2) 1.0293(3) 0.27055(15)
H15 H -0.0292 1.0762 0.2106
C14 C 0.2528(2) 1.0030(3) 0.28789(15)
loop_
_geom_bond_atom_site_label_1
_geom_bond_atom_site_label_2
_geom_bond_site_symmetry_1
_geom_bond_site_symmetry_2
Br1 C11 1_555 1_555
N1 C1 1_555 1_555
N2 C14 1_555 1_555
O1 H1 1_555 1_555
C1 H2 1_555 1_555
C2 C1 1_555 1_555
H3 C2 1_555 1_555
C3 N1 1_555 1_555
H4 C3 1_555 1_555
C4 N1 1_555 1_555
H5 C4 1_555 1_555
H6 C4 1_555 1_555
C5 C4 1_555 1_555
H7 C5 1_555 1_555
C6 C5 1_555 1_555
H8 C6 1_555 1_555
H9 C6 1_555 1_555
C7 O1 1_555 1_555
H10 C7 1_555 1_555
H11 C7 1_555 1_555
C8 C2 1_555 1_555
C9 C8 1_555 1_555
H12 C9 1_555 1_555
C10 C9 1_555 1_555
H13 C10 1_555 1_555
C11 C10 1_555 1_555
C12 C11 1_555 1_555
H14 C12 1_555 1_555
C13 C8 1_555 1_555
H15 C13 1_555 1_555
C14 C3 1_555 1_555
C1 C7 1_555 1_555
C2 C3 1_555 1_555
C12 C13 1_555 1_555

#END
