
#######################################################################
#
#                 Cambridge Crystallographic Data Centre
#                                CCDC 
#
#######################################################################
#
# If this CIF has been generated from an entry in the Cambridge 
# Structural Database, then it will include bibliographic, chemical, 
# crystal, experimental, refinement or atomic coordinate data resulting 
# from the CCDC's data processing and validation procedures.
#
#######################################################################

data_HICFOQ
_chemical_formula_moiety         'C15 H22 N2 O1'
_chemical_name_systematic        
(9-Phenyl-1,6-diazabicyclo[6.2.0]dec-10-yl)methanol
_symmetry_cell_setting           orthorhombic
_symmetry_space_group_name_H-M   'P 21 21 21'
_symmetry_Int_Tables_number      19
_space_group_name_Hall           'P 2ac 2ab'
loop_
_symmetry_equiv_pos_site_id
_symmetry_equiv_pos_as_xyz
1 x,y,z
2 1/2-x,-y,1/2+z
3 -x,1/2+y,1/2-z
4 1/2+x,1/2-y,-z
_cell_length_a                   5.5620(2)
_cell_length_b                   7.5197(2)
_cell_length_c                   31.5189(10)
_cell_angle_alpha                90
_cell_angle_beta                 90
_cell_angle_gamma                90
_cell_volume                     1318.26
_exptl_crystal_colour            colorless
_exptl_crystal_description       block
_cell_formula_units_Z            4
loop_
_atom_site_label
_atom_site_type_symbol
_atom_site_fract_x
_atom_site_fract_y
_atom_site_fract_z
C1 C 0.2037(2) 0.96505(16) 0.12459(3)
H1 H 0.0374 0.9321 0.1338
C2 C 0.2307(2) 1.16972(16) 0.12451(4)
H2 H 0.3139 1.2059 0.0981
H3 H 0.0684 1.2238 0.1241
N1 N 0.3636(2) 1.24119(14) 0.16084(3)
H4 H 0.480(3) 1.162(2) 0.1668(5)
C3 C 0.2146(3) 1.26770(19) 0.19892(4)
H5 H 0.0809 1.3489 0.1915
H6 H 0.3136 1.3278 0.2207
C4 C 0.1077(3) 1.09861(19) 0.21851(4)
H7 H -0.0184 1.0518 0.1994
H8 H 0.0301 1.1295 0.2458
C5 C 0.2950(3) 0.95245(18) 0.22634(4)
H9 H 0.4554 1.0089 0.2284
H10 H 0.2605 0.8964 0.2541
C6 C 0.3066(3) 0.80642(17) 0.19274(4)
H11 H 0.4188 0.7131 0.2027
H12 H 0.1454 0.7515 0.1902
N2 N 0.38348(19) 0.86501(13) 0.15047(3)
C7 C 0.3826(2) 0.72078(16) 0.11805(4)
H13 H 0.2571 0.6312 0.1257
C8 C 0.2763(2) 0.85285(16) 0.08482(4)
H14 H 0.1323 0.8019 0.0702
C9 C 0.6185(2) 0.62572(17) 0.11003(4)
H15 H 0.6015 0.5493 0.0846
H16 H 0.7447 0.7150 0.1040
O1 O 0.69211(16) 0.51934(12) 0.14490(3)
H17 H 0.5862 0.4427 0.1500
C10 C 0.4498(2) 0.93421(15) 0.05358(4)
C11 C 0.4024(2) 0.92502(15) 0.01011(4)
H18 H 0.2610 0.8668 0.0005
C12 C 0.5593(2) 0.99985(16) -0.01924(4)
H19 H 0.5234 0.9934 -0.0487
C13 C 0.7674(2) 1.08371(16) -0.00587(4)
H20 H 0.8752 1.1339 -0.0260
C14 C 0.8171(2) 1.09374(16) 0.03740(4)
H21 H 0.9596 1.1510 0.0469
C15 C 0.6599(2) 1.02066(16) 0.06662(4)
H22 H 0.6953 1.0293 0.0960
loop_
_geom_bond_atom_site_label_1
_geom_bond_atom_site_label_2
_geom_bond_site_symmetry_1
_geom_bond_site_symmetry_2
C1 H1 1_555 1_555
C2 C1 1_555 1_555
H2 C2 1_555 1_555
H3 C2 1_555 1_555
N1 C2 1_555 1_555
H4 N1 1_555 1_555
C3 N1 1_555 1_555
H5 C3 1_555 1_555
H6 C3 1_555 1_555
C4 C3 1_555 1_555
H7 C4 1_555 1_555
H8 C4 1_555 1_555
C5 C4 1_555 1_555
H9 C5 1_555 1_555
H10 C5 1_555 1_555
C6 C5 1_555 1_555
H11 C6 1_555 1_555
H12 C6 1_555 1_555
N2 C1 1_555 1_555
C7 N2 1_555 1_555
H13 C7 1_555 1_555
C8 C1 1_555 1_555
H14 C8 1_555 1_555
C9 C7 1_555 1_555
H15 C9 1_555 1_555
H16 C9 1_555 1_555
O1 C9 1_555 1_555
H17 O1 1_555 1_555
C10 C8 1_555 1_555
C11 C10 1_555 1_555
H18 C11 1_555 1_555
C12 C11 1_555 1_555
H19 C12 1_555 1_555
C13 C12 1_555 1_555
H20 C13 1_555 1_555
C14 C13 1_555 1_555
H21 C14 1_555 1_555
C15 C10 1_555 1_555
H22 C15 1_555 1_555
C6 N2 1_555 1_555
C7 C8 1_555 1_555
C14 C15 1_555 1_555

#END
