
#######################################################################
#
#                 Cambridge Crystallographic Data Centre
#                                CCDC 
#
#######################################################################
#
# If this CIF has been generated from an entry in the Cambridge 
# Structural Database, then it will include bibliographic, chemical, 
# crystal, experimental, refinement or atomic coordinate data resulting 
# from the CCDC's data processing and validation procedures.
#
#######################################################################

data_HICFAA
_chemical_formula_moiety         'C24 H20 N2 O5'
_chemical_name_systematic        
6'-Diethylamino-2'-nitrospiro(isobenzofuran-1(3H),9'-(9H)xanthen)-3-one
_symmetry_cell_setting           triclinic
_symmetry_space_group_name_H-M   'P -1'
_symmetry_Int_Tables_number      2
_space_group_name_Hall           '-P 1'
loop_
_symmetry_equiv_pos_site_id
_symmetry_equiv_pos_as_xyz
1 x,y,z
2 -x,-y,-z
_cell_length_a                   8.342(3)
_cell_length_b                   9.861(2)
_cell_length_c                   12.735(2)
_cell_angle_alpha                80.41(2)
_cell_angle_beta                 79.91(2)
_cell_angle_gamma                80.96(2)
_cell_volume                     1008.1
_exptl_crystal_colour            'light yellow'
_cell_formula_units_Z            2
loop_
_atom_site_label
_atom_site_type_symbol
_atom_site_fract_x
_atom_site_fract_y
_atom_site_fract_z
O1 O 0.6912(3) 0.4355(2) 0.1180(2)
O2 O 0.9686(3) 0.7396(2) 0.1105(3)
O3 O 1.0858(3) 0.9290(3) 0.1116(3)
O4 O 0.9293(5) 0.8466(4) -0.2853(4)
O5 O 0.8371(6) 0.6974(4) -0.3576(3)
N1 N 0.6553(5) 0.3107(4) 0.4952(3)
N2 N 0.8688(5) 0.7414(4) -0.2812(4)
C1 C 0.9622(4) 0.8780(4) 0.1164(4)
C2 C 0.8009(4) 0.7010(4) 0.1196(4)
C3 C 0.6807(6) 0.3298(5) 0.6017(5)
C4 C 0.8439(7) 0.2726(7) 0.6266(5)
C5 C 0.5944(6) 0.1815(5) 0.4879(5)
C6 C 0.7247(7) 0.0684(5) 0.4574(6)
C7 C 0.7541(5) 0.5274(4) 0.4101(4)
C8 C 0.6955(5) 0.4011(4) 0.4035(4)
C9 C 0.6772(5) 0.3772(4) 0.3037(4)
C10 C 0.7136(4) 0.4712(4) 0.2146(4)
C11 C 0.7696(4) 0.5973(4) 0.2162(4)
C12 C 0.7844(5) 0.6190(4) 0.3190(4)
C13 C 0.7351(5) 0.5168(4) 0.0224(4)
C14 C 0.7178(5) 0.4660(4) -0.0686(4)
C15 C 0.7610(6) 0.5395(4) -0.1661(4)
C16 C 0.8232(5) 0.6625(4) -0.1748(4)
C17 C 0.8397(5) 0.7120(4) -0.0827(4)
C18 C 0.7940(4) 0.6424(4) 0.0193(4)
C19 C 0.7887(4) 0.9397(4) 0.1275(4)
C20 C 0.7218(5) 1.0746(4) 0.1372(4)
C21 C 0.5532(5) 1.1042(4) 0.1469(4)
C22 C 0.4564(4) 1.0016(4) 0.1482(4)
C23 C 0.5250(4) 0.8678(4) 0.1372(4)
C24 C 0.6935(4) 0.8383(3) 0.1275(4)
H1 H 0.7708 0.5500 0.4775
H2 H 0.6434 0.2931 0.2857
H3 H 0.6769 0.3749 -0.0569
H4 H 0.7460 0.5084 -0.2249
H5 H 0.8894 0.8003 -0.0864
H6 H 0.7916 1.1425 0.1352
H7 H 0.5042 1.1950 0.1547
H8 H 0.3473 1.0229 0.1505
H9 H 0.4652 0.7957 0.1402
H10 H 0.5943 0.2857 0.6678
H11 H 0.6548 0.4329 0.6103
H12 H 0.4938 0.2064 0.4350
H13 H 0.5390 0.1524 0.5517
H14 H 0.8698 0.2812 0.7162
H15 H 0.8962 0.1678 0.6345
H16 H 0.9315 0.3161 0.5783
H17 H 0.6836 -0.0175 0.4532
H18 H 0.7903 0.0837 0.3874
H19 H 0.7968 0.0264 0.5190
H20 H 0.8285 0.7103 0.3195
loop_
_geom_bond_atom_site_label_1
_geom_bond_atom_site_label_2
_geom_bond_site_symmetry_1
_geom_bond_site_symmetry_2
O1 C10 1_555 1_555
O2 C1 1_555 1_555
O3 C1 1_555 1_555
O4 N2 1_555 1_555
O5 N2 1_555 1_555
N1 C3 1_555 1_555
N2 C16 1_555 1_555
C1 C19 1_555 1_555
C2 O2 1_555 1_555
C3 C4 1_555 1_555
C4 H14 1_555 1_555
C5 N1 1_555 1_555
C6 C5 1_555 1_555
C7 C8 1_555 1_555
C8 N1 1_555 1_555
C9 C8 1_555 1_555
C10 C9 1_555 1_555
C11 C2 1_555 1_555
C12 C7 1_555 1_555
C13 O1 1_555 1_555
C14 C13 1_555 1_555
C15 C14 1_555 1_555
C16 C15 1_555 1_555
C17 C16 1_555 1_555
C18 C2 1_555 1_555
C19 C20 1_555 1_555
C20 C21 1_555 1_555
C21 C22 1_555 1_555
C22 C23 1_555 1_555
C23 C24 1_555 1_555
C24 C2 1_555 1_555
H1 C7 1_555 1_555
H2 C9 1_555 1_555
H3 C14 1_555 1_555
H4 C15 1_555 1_555
H5 C17 1_555 1_555
H6 C20 1_555 1_555
H7 C21 1_555 1_555
H8 C22 1_555 1_555
H9 C23 1_555 1_555
H10 C3 1_555 1_555
H11 C3 1_555 1_555
H12 C5 1_555 1_555
H13 C5 1_555 1_555
H15 C4 1_555 1_555
H16 C4 1_555 1_555
H17 C6 1_555 1_555
H18 C6 1_555 1_555
H19 C6 1_555 1_555
H20 C12 1_555 1_555
C10 C11 1_555 1_555
C11 C12 1_555 1_555
C13 C18 1_555 1_555
C17 C18 1_555 1_555
C19 C24 1_555 1_555

#END
