
#######################################################################
#
#                 Cambridge Crystallographic Data Centre
#                                CCDC 
#
#######################################################################
#
# If this CIF has been generated from an entry in the Cambridge 
# Structural Database, then it will include bibliographic, chemical, 
# crystal, experimental, refinement or atomic coordinate data resulting 
# from the CCDC's data processing and validation procedures.
#
#######################################################################

data_HICFUX
_chemical_formula_moiety         'C44 H36 N2 Se1'
_chemical_name_systematic        
2,7-di-t-butyl-9,15-diphenyldibenzo[10,11:6,7]tetraceno[2,3-c][1,2,5]selenadiazole
_symmetry_cell_setting           orthorhombic
_symmetry_space_group_name_H-M   'P c c a'
_symmetry_Int_Tables_number      54
_space_group_name_Hall           '-P 2a 2ac'
loop_
_symmetry_equiv_pos_site_id
_symmetry_equiv_pos_as_xyz
1 x,y,z
2 1/2-x,-y,z
3 -x,y,1/2-z
4 1/2+x,-y,1/2-z
5 -x,-y,-z
6 1/2+x,y,-z
7 x,-y,1/2+z
8 1/2-x,y,1/2+z
_cell_length_a                   26.90(2)
_cell_length_b                   16.101(13)
_cell_length_c                   7.650(6)
_cell_angle_alpha                90
_cell_angle_beta                 90
_cell_angle_gamma                90
_cell_volume                     3313.34
_exptl_crystal_colour            red
_exptl_crystal_description       PLATE
_cell_formula_units_Z            4
loop_
_atom_site_label
_atom_site_type_symbol
_atom_site_fract_x
_atom_site_fract_y
_atom_site_fract_z
Se1 Se 0.5000 -0.25242(6) 0.2500
N1 N 0.54812(17) -0.1782(3) 0.2673(6)
C1 C 0.52638(19) -0.1068(4) 0.2615(8)
C2 C 0.55144(19) -0.0292(3) 0.2679(8)
H1 H 0.5858 -0.0292 0.2800
C3 C 0.52704(18) 0.0464(3) 0.2571(8)
C4 C 0.55320(17) 0.1247(3) 0.2502(7)
C5 C 0.52680(17) 0.1990(3) 0.2375(7)
C6 C 0.55030(19) 0.2779(4) 0.1856(7)
C7 C 0.52481(17) 0.3529(4) 0.2127(6)
C8 C 0.5473(2) 0.4296(4) 0.1695(8)
C9 C 0.59300(19) 0.4295(4) 0.0831(8)
H2 H 0.6074 0.4798 0.0514
C10 C 0.61721(19) 0.3567(4) 0.0437(7)
C11 C 0.59534(18) 0.2828(4) 0.0972(7)
H3 H 0.6119 0.2334 0.0723
C12 C 0.52207(19) 0.5045(4) 0.2092(8)
H4 H 0.5364 0.5549 0.1778
C13 C 0.60827(18) 0.1204(3) 0.2648(7)
C14 C 0.63809(19) 0.0799(3) 0.1470(8)
H5 H 0.6238 0.0561 0.0484
C15 C 0.6889(2) 0.0738(4) 0.1711(9)
H6 H 0.7081 0.0462 0.0883
C16 C 0.7106(2) 0.1066(4) 0.3102(9)
H7 H 0.7448 0.1016 0.3251
C17 C 0.6824(2) 0.1482(4) 0.4329(9)
H8 H 0.6976 0.1723 0.5296
C18 C 0.63098(18) 0.1539(3) 0.4112(8)
H9 H 0.6118 0.1805 0.4956
C19 C 0.66609(19) 0.3558(4) -0.0597(9)
C20 C 0.6841(5) 0.4456(8) -0.097(2)
H10 H 0.6901 0.4737 0.0121
H11 H 0.6591 0.4749 -0.1614
H12 H 0.7143 0.4438 -0.1634
C21 C 0.6574(6) 0.3133(12) -0.233(3)
H13 H 0.6223 0.3079 -0.2525
H14 H 0.6725 0.2593 -0.2307
H15 H 0.6720 0.3458 -0.3245
C22 C 0.7051(4) 0.3167(12) 0.058(2)
H16 H 0.7358 0.3112 -0.0047
H17 H 0.6940 0.2629 0.0955
H18 H 0.7102 0.3515 0.1587
N1B N 0.45188(17) -0.1782(3) 0.2327(6)
C1B C 0.47362(19) -0.1068(4) 0.2385(8)
C2B C 0.44856(19) -0.0292(3) 0.2321(8)
H1B H 0.4142 -0.0292 0.2200
C3B C 0.47296(18) 0.0464(3) 0.2429(8)
C4B C 0.44680(17) 0.1247(3) 0.2498(7)
C5B C 0.47320(17) 0.1990(3) 0.2625(7)
C6B C 0.44970(19) 0.2779(4) 0.3144(7)
C7B C 0.47519(17) 0.3529(4) 0.2873(6)
C8B C 0.4527(2) 0.4296(4) 0.3305(8)
C9B C 0.40700(19) 0.4295(4) 0.4169(8)
H2B H 0.3926 0.4798 0.4486
C10B C 0.38279(19) 0.3567(4) 0.4563(7)
C11B C 0.40466(18) 0.2828(4) 0.4028(7)
H3B H 0.3881 0.2334 0.4277
C12B C 0.47793(19) 0.5045(4) 0.2908(8)
H4B H 0.4636 0.5549 0.3222
C13B C 0.39173(18) 0.1204(3) 0.2352(7)
C14B C 0.36191(19) 0.0799(3) 0.3530(8)
H5B H 0.3762 0.0561 0.4516
C15B C 0.3111(2) 0.0738(4) 0.3289(9)
H6B H 0.2919 0.0462 0.4117
C16B C 0.2894(2) 0.1066(4) 0.1898(9)
H7B H 0.2552 0.1016 0.1749
C17B C 0.3176(2) 0.1482(4) 0.0671(9)
H8B H 0.3024 0.1723 -0.0296
C18B C 0.36902(18) 0.1539(3) 0.0888(8)
H9B H 0.3882 0.1805 0.0044
C19B C 0.33391(19) 0.3558(4) 0.5597(9)
C20B C 0.3159(5) 0.4456(8) 0.597(2)
H10B H 0.3099 0.4737 0.4879
H11B H 0.3409 0.4749 0.6614
H12B H 0.2857 0.4438 0.6634
C21B C 0.3426(6) 0.3133(12) 0.733(3)
H13B H 0.3777 0.3079 0.7525
H14B H 0.3275 0.2593 0.7307
H15B H 0.3280 0.3458 0.8245
C22B C 0.2949(4) 0.3167(12) 0.442(2)
H16B H 0.2642 0.3112 0.5047
H17B H 0.3060 0.2629 0.4045
H18B H 0.2898 0.3515 0.3413
C23? C 0.6897(10) 0.2671(19) -0.058(5)
H19? H 0.7223 0.2694 -0.1092
H20? H 0.6693 0.2299 -0.1250
H21? H 0.6921 0.2475 0.0598
C24? C 0.7034(10) 0.420(2) -0.002(5)
H22? H 0.6988 0.4317 0.1203
H23? H 0.6986 0.4702 -0.0680
H24? H 0.7364 0.3996 -0.0208
C25? C 0.6512(12) 0.368(2) -0.254(6)
H25? H 0.6267 0.4111 -0.2618
H26? H 0.6378 0.3172 -0.2988
H27? H 0.6800 0.3836 -0.3201
loop_
_geom_bond_atom_site_label_1
_geom_bond_atom_site_label_2
_geom_bond_site_symmetry_1
_geom_bond_site_symmetry_2
Se1 N1 1_555 1_555
N1 C1 1_555 1_555
C1 C2 1_555 1_555
C2 H1 1_555 1_555
C3 C2 1_555 1_555
C4 C3 1_555 1_555
C5 C4 1_555 1_555
C6 C5 1_555 1_555
C7 C6 1_555 1_555
C8 C7 1_555 1_555
C9 C8 1_555 1_555
H2 C9 1_555 1_555
C10 C9 1_555 1_555
C11 C6 1_555 1_555
H3 C11 1_555 1_555
C12 C8 1_555 1_555
H4 C12 1_555 1_555
C13 C4 1_555 1_555
C14 C13 1_555 1_555
H5 C14 1_555 1_555
C15 C14 1_555 1_555
H6 C15 1_555 1_555
C16 C15 1_555 1_555
H7 C16 1_555 1_555
C17 C16 1_555 1_555
H8 C17 1_555 1_555
C18 C13 1_555 1_555
H9 C18 1_555 1_555
C19 C10 1_555 1_555
C20 C19 1_555 1_555
H10 C20 1_555 1_555
H11 C20 1_555 1_555
H12 C20 1_555 1_555
C21 C19 1_555 1_555
H13 C21 1_555 1_555
H14 C21 1_555 1_555
H15 C21 1_555 1_555
C22 C19 1_555 1_555
H16 C22 1_555 1_555
H17 C22 1_555 1_555
H18 C22 1_555 1_555
N1B Se1 1_555 1_555
C1B C1 1_555 1_555
C2B C1B 1_555 1_555
H1B C2B 1_555 1_555
C3B C3 1_555 1_555
C4B C3B 1_555 1_555
C5B C5 1_555 1_555
C6B C5B 1_555 1_555
C7B C7 1_555 1_555
C8B C7B 1_555 1_555
C9B C8B 1_555 1_555
H2B C9B 1_555 1_555
C10B C9B 1_555 1_555
C11B C6B 1_555 1_555
H3B C11B 1_555 1_555
C12B C12 1_555 1_555
H4B C12B 1_555 1_555
C13B C4B 1_555 1_555
C14B C13B 1_555 1_555
H5B C14B 1_555 1_555
C15B C14B 1_555 1_555
H6B C15B 1_555 1_555
C16B C15B 1_555 1_555
H7B C16B 1_555 1_555
C17B C16B 1_555 1_555
H8B C17B 1_555 1_555
C18B C13B 1_555 1_555
H9B C18B 1_555 1_555
C19B C10B 1_555 1_555
C20B C19B 1_555 1_555
H10B C20B 1_555 1_555
H11B C20B 1_555 1_555
H12B C20B 1_555 1_555
C21B C19B 1_555 1_555
H13B C21B 1_555 1_555
H14B C21B 1_555 1_555
H15B C21B 1_555 1_555
C22B C19B 1_555 1_555
H16B C22B 1_555 1_555
H17B C22B 1_555 1_555
H18B C22B 1_555 1_555
C10 C11 1_555 1_555
C17 C18 1_555 1_555
N1B C1B 1_555 1_555
C2B C3B 1_555 1_555
C4B C5B 1_555 1_555
C6B C7B 1_555 1_555
C8B C12B 1_555 1_555
C10B C11B 1_555 1_555
C17B C18B 1_555 1_555

#END
