
#######################################################################
#
#                 Cambridge Crystallographic Data Centre
#                                CCDC 
#
#######################################################################
#
# If this CIF has been generated from an entry in the Cambridge 
# Structural Database, then it will include bibliographic, chemical, 
# crystal, experimental, refinement or atomic coordinate data resulting 
# from the CCDC's data processing and validation procedures.
#
#######################################################################

data_HICFAC
_chemical_formula_moiety         'C33 H29 Br1 N2 O1'
_chemical_name_systematic        
1-Allyl-3-(4-bromophenyl)-4-((trityloxy)methyl)azetidine-2-carbonitrile
_symmetry_cell_setting           monoclinic
_symmetry_space_group_name_H-M   'P 21'
_symmetry_Int_Tables_number      4
_space_group_name_Hall           'P 2yb'
loop_
_symmetry_equiv_pos_site_id
_symmetry_equiv_pos_as_xyz
1 x,y,z
2 -x,1/2+y,-z
_cell_length_a                   9.8613(3)
_cell_length_b                   16.2226(5)
_cell_length_c                   17.3882(5)
_cell_angle_alpha                90
_cell_angle_beta                 98.7040(10)
_cell_angle_gamma                90
_cell_volume                     2749.66
_exptl_crystal_colour            colorless
_exptl_crystal_description       block
_cell_formula_units_Z            4
loop_
_atom_site_label
_atom_site_type_symbol
_atom_site_fract_x
_atom_site_fract_y
_atom_site_fract_z
Br1 Br 0.790464(19) 0.140996(15) 0.474550(10)
O1 O 0.32981(13) 0.21150(8) 0.16205(7)
N1 N 0.60129(16) 0.33800(11) 0.09428(9)
N2 N 0.7238(2) 0.23089(15) -0.05745(11)
C1 C 0.70704(19) 0.27511(13) 0.08597(11)
H1 H 0.7977 0.2870 0.1183
C2 C 0.62018(19) 0.21028(12) 0.12348(10)
H2 H 0.6068 0.1579 0.0929
C3 C 0.49877(19) 0.27258(12) 0.10199(10)
H3 H 0.4460 0.2588 0.0498
C4 C 0.7184(2) 0.25132(14) 0.00461(12)
C5 C 0.5688(2) 0.40041(14) 0.03305(11)
H4 H 0.5273 0.3733 -0.0159
H5 H 0.6543 0.4280 0.0236
C6 C 0.4715(2) 0.46310(14) 0.05593(13)
H6 H 0.4992 0.4937 0.1022
C7 C 0.3506(3) 0.47862(19) 0.01630(17)
H7 H 0.3198 0.4491 -0.0303
H8 H 0.2935 0.5194 0.0341
C8 C 0.66625(18) 0.19556(12) 0.20897(11)
C9 C 0.72098(18) 0.25804(12) 0.25948(11)
H9 H 0.7328 0.3117 0.2396
C10 C 0.75846(19) 0.24291(13) 0.33855(11)
H10 H 0.7960 0.2855 0.3728
C11 C 0.73982(18) 0.16421(13) 0.36638(10)
C12 C 0.68403(19) 0.10137(13) 0.31790(11)
H11 H 0.6702 0.0482 0.3382
C13 C 0.64857(18) 0.11745(12) 0.23909(11)
H12 H 0.6116 0.0745 0.2051
C14 C 0.40137(18) 0.28811(12) 0.16001(10)
H13 H 0.4524 0.3020 0.2119
H14 H 0.3371 0.3335 0.1424
C15 C 0.20379(18) 0.21069(12) 0.19469(10)
C16 C 0.13628(18) 0.12800(12) 0.16793(9)
C17 C 0.2167(2) 0.06035(12) 0.15408(10)
H15 H 0.3134 0.0662 0.1578
C18 C 0.1553(2) -0.01585(13) 0.13472(11)
H16 H 0.2105 -0.0615 0.1249
C19 C 0.0143(2) -0.02558(14) 0.12965(11)
H17 H -0.0268 -0.0778 0.1170
C20 C -0.0659(2) 0.04147(14) 0.14317(11)
H18 H -0.1625 0.0352 0.1396
C21 C -0.0061(2) 0.11778(12) 0.16191(10)
H19 H -0.0621 0.1634 0.1707
C22 C 0.11627(18) 0.28435(12) 0.16232(11)
C23 C 0.0859(2) 0.35159(13) 0.20603(12)
H20 H 0.1133 0.3515 0.2608
C24 C 0.0155(2) 0.41938(14) 0.17024(14)
H21 H -0.0055 0.4648 0.2009
C25 C -0.0237(2) 0.42085(14) 0.09063(14)
H22 H -0.0717 0.4670 0.0664
C26 C 0.0074(2) 0.35436(14) 0.04623(12)
H23 H -0.0188 0.3552 -0.0086
C27 C 0.07643(19) 0.28655(12) 0.08164(11)
H24 H 0.0969 0.2412 0.0508
C28 C 0.23213(18) 0.20600(11) 0.28422(10)
C29 C 0.12278(19) 0.20774(13) 0.32667(11)
H25 H 0.0323 0.2168 0.3005
C30 C 0.1448(2) 0.19638(13) 0.40683(11)
H26 H 0.0697 0.1979 0.4351
C31 C 0.2768(2) 0.18279(13) 0.44564(10)
H27 H 0.2921 0.1750 0.5004
C32 C 0.38573(19) 0.18066(12) 0.40397(11)
H28 H 0.4761 0.1715 0.4303
C33 C 0.36370(19) 0.19189(11) 0.32334(10)
H29 H 0.4390 0.1899 0.2952
Br2 Br 0.46674(2) 0.390610(12) 0.386180(13)
O2 O 0.09832(13) 0.71384(8) 0.26464(7)
N3 N 0.40673(16) 0.83681(11) 0.34036(9)
N4 N 0.53545(19) 0.92358(12) 0.18248(10)
C34 C 0.50622(19) 0.81245(12) 0.28891(11)
H30 H 0.5942 0.7901 0.3175
C35 C 0.40355(19) 0.74436(12) 0.25316(10)
H31 H 0.3895 0.7446 0.1950
C36 C 0.29342(18) 0.79680(12) 0.28715(10)
H32 H 0.2496 0.8372 0.2475
C37 C 0.52568(19) 0.87521(12) 0.22873(11)
C38 C 0.3946(2) 0.92415(13) 0.35992(12)
H33 H 0.3708 0.9565 0.3115
H34 H 0.4839 0.9444 0.3871
C39 C 0.2868(2) 0.93657(13) 0.41083(12)
H35 H 0.2959 0.9080 0.4590
C40 C 0.1797(2) 0.98524(15) 0.39213(15)
H36 H 0.1682 1.0145 0.3443
H37 H 0.1140 0.9910 0.4265
C41 C 0.42846(17) 0.65925(12) 0.28640(10)
C42 C 0.47634(17) 0.64558(13) 0.36531(10)
H38 H 0.4999 0.6913 0.3988
C43 C 0.48992(19) 0.56608(13) 0.39536(11)
H39 H 0.5220 0.5571 0.4490
C44 C 0.4558(2) 0.50032(12) 0.34554(12)
C45 C 0.4093(2) 0.51159(13) 0.26718(12)
H40 H 0.3867 0.4656 0.2338
C46 C 0.3963(2) 0.59116(13) 0.23827(11)
H41 H 0.3648 0.5995 0.1845
C47 C 0.18558(18) 0.75416(12) 0.32629(10)
H42 H 0.2283 0.7137 0.3652
H43 H 0.1333 0.7947 0.3526
C48 C -0.03751(18) 0.68952(12) 0.27730(10)
C49 C -0.09999(17) 0.76113(12) 0.31762(10)
C50 C -0.12169(19) 0.75860(12) 0.39485(10)
H44 H -0.1104 0.7082 0.4229
C51 C -0.1600(2) 0.82979(13) 0.43119(11)
H45 H -0.1763 0.8273 0.4836
C52 C -0.17451(19) 0.90393(12) 0.39156(11)
H46 H -0.1988 0.9524 0.4169
C53 C -0.15320(19) 0.90694(12) 0.31416(11)
H47 H -0.1632 0.9576 0.2864
C54 C -0.11741(18) 0.83592(12) 0.27789(10)
H48 H -0.1045 0.8382 0.2249
C55 C -0.03319(18) 0.60748(12) 0.32223(10)
C56 C -0.1535(2) 0.57294(13) 0.34217(11)
H49 H -0.2380 0.6015 0.3292
C57 C -0.1514(2) 0.49794(13) 0.38038(13)
H50 H -0.2339 0.4756 0.3936
C58 C -0.0280(2) 0.45526(13) 0.39941(12)
H51 H -0.0261 0.4040 0.4260
C59 C 0.0911(2) 0.48783(13) 0.37949(11)
H52 H 0.1751 0.4587 0.3922
C60 C 0.08908(18) 0.56339(12) 0.34077(10)
H53 H 0.1716 0.5850 0.3269
C61 C -0.11547(19) 0.67328(11) 0.19512(10)
C62 C -0.2589(2) 0.67849(13) 0.18017(11)
H54 H -0.3083 0.6951 0.2204
C63 C -0.3297(2) 0.65951(13) 0.10674(12)
H55 H -0.4269 0.6633 0.0971
C64 C -0.2580(2) 0.63510(14) 0.04769(10)
H56 H -0.3060 0.6219 -0.0023
C65 C -0.1158(2) 0.63013(12) 0.06207(10)
H57 H -0.0669 0.6136 0.0216
C66 C -0.04427(19) 0.64914(12) 0.13537(10)
H58 H 0.0530 0.6457 0.1446
loop_
_geom_bond_atom_site_label_1
_geom_bond_atom_site_label_2
_geom_bond_site_symmetry_1
_geom_bond_site_symmetry_2
Br1 C11 1_555 1_555
O1 C14 1_555 1_555
N1 C1 1_555 1_555
N2 C4 1_555 1_555
C1 H1 1_555 1_555
C2 C1 1_555 1_555
H2 C2 1_555 1_555
C3 N1 1_555 1_555
H3 C3 1_555 1_555
C4 C1 1_555 1_555
C5 N1 1_555 1_555
H4 C5 1_555 1_555
H5 C5 1_555 1_555
C6 C5 1_555 1_555
H6 C6 1_555 1_555
C7 C6 1_555 1_555
H7 C7 1_555 1_555
H8 C7 1_555 1_555
C8 C2 1_555 1_555
C9 C8 1_555 1_555
H9 C9 1_555 1_555
C10 C9 1_555 1_555
H10 C10 1_555 1_555
C11 C10 1_555 1_555
C12 C11 1_555 1_555
H11 C12 1_555 1_555
C13 C8 1_555 1_555
H12 C13 1_555 1_555
C14 C3 1_555 1_555
H13 C14 1_555 1_555
H14 C14 1_555 1_555
C15 O1 1_555 1_555
C16 C15 1_555 1_555
C17 C16 1_555 1_555
H15 C17 1_555 1_555
C18 C17 1_555 1_555
H16 C18 1_555 1_555
C19 C18 1_555 1_555
H17 C19 1_555 1_555
C20 C19 1_555 1_555
H18 C20 1_555 1_555
C21 C16 1_555 1_555
H19 C21 1_555 1_555
C22 C15 1_555 1_555
C23 C22 1_555 1_555
H20 C23 1_555 1_555
C24 C23 1_555 1_555
H21 C24 1_555 1_555
C25 C24 1_555 1_555
H22 C25 1_555 1_555
C26 C25 1_555 1_555
H23 C26 1_555 1_555
C27 C22 1_555 1_555
H24 C27 1_555 1_555
C28 C15 1_555 1_555
C29 C28 1_555 1_555
H25 C29 1_555 1_555
C30 C29 1_555 1_555
H26 C30 1_555 1_555
C31 C30 1_555 1_555
H27 C31 1_555 1_555
C32 C31 1_555 1_555
H28 C32 1_555 1_555
C33 C28 1_555 1_555
H29 C33 1_555 1_555
Br2 C44 1_555 1_555
O2 C47 1_555 1_555
N3 C34 1_555 1_555
N4 C37 1_555 1_555
C34 H30 1_555 1_555
C35 C34 1_555 1_555
H31 C35 1_555 1_555
C36 N3 1_555 1_555
H32 C36 1_555 1_555
C37 C34 1_555 1_555
C38 N3 1_555 1_555
H33 C38 1_555 1_555
H34 C38 1_555 1_555
C39 C38 1_555 1_555
H35 C39 1_555 1_555
C40 C39 1_555 1_555
H36 C40 1_555 1_555
H37 C40 1_555 1_555
C41 C35 1_555 1_555
C42 C41 1_555 1_555
H38 C42 1_555 1_555
C43 C42 1_555 1_555
H39 C43 1_555 1_555
C44 C43 1_555 1_555
C45 C44 1_555 1_555
H40 C45 1_555 1_555
C46 C41 1_555 1_555
H41 C46 1_555 1_555
C47 C36 1_555 1_555
H42 C47 1_555 1_555
H43 C47 1_555 1_555
C48 O2 1_555 1_555
C49 C48 1_555 1_555
C50 C49 1_555 1_555
H44 C50 1_555 1_555
C51 C50 1_555 1_555
H45 C51 1_555 1_555
C52 C51 1_555 1_555
H46 C52 1_555 1_555
C53 C52 1_555 1_555
H47 C53 1_555 1_555
C54 C49 1_555 1_555
H48 C54 1_555 1_555
C55 C48 1_555 1_555
C56 C55 1_555 1_555
H49 C56 1_555 1_555
C57 C56 1_555 1_555
H50 C57 1_555 1_555
C58 C57 1_555 1_555
H51 C58 1_555 1_555
C59 C58 1_555 1_555
H52 C59 1_555 1_555
C60 C55 1_555 1_555
H53 C60 1_555 1_555
C61 C48 1_555 1_555
C62 C61 1_555 1_555
H54 C62 1_555 1_555
C63 C62 1_555 1_555
H55 C63 1_555 1_555
C64 C63 1_555 1_555
H56 C64 1_555 1_555
C65 C64 1_555 1_555
H57 C65 1_555 1_555
C66 C61 1_555 1_555
H58 C66 1_555 1_555
C2 C3 1_555 1_555
C12 C13 1_555 1_555
C20 C21 1_555 1_555
C26 C27 1_555 1_555
C32 C33 1_555 1_555
C35 C36 1_555 1_555
C45 C46 1_555 1_555
C53 C54 1_555 1_555
C59 C60 1_555 1_555
C65 C66 1_555 1_555

#END
