
#######################################################################
#
#                 Cambridge Crystallographic Data Centre
#                                CCDC 
#
#######################################################################
#
# If this CIF has been generated from an entry in the Cambridge 
# Structural Database, then it will include bibliographic, chemical, 
# crystal, experimental, refinement or atomic coordinate data resulting 
# from the CCDC's data processing and validation procedures.
#
#######################################################################

data_HICFIK
_chemical_formula_moiety         'C14 H18 Br1 N2 1+,Cl1 1-'
_chemical_name_systematic        
'6-Allyl-7-(4-bromophenyl)-6-aza-3-azoniabicyclo[3.1.1]heptane chloride'
_symmetry_cell_setting           triclinic
_symmetry_space_group_name_H-M   'P -1'
_symmetry_Int_Tables_number      2
_space_group_name_Hall           '-P 1'
loop_
_symmetry_equiv_pos_site_id
_symmetry_equiv_pos_as_xyz
1 x,y,z
2 -x,-y,-z
_cell_length_a                   7.42280(10)
_cell_length_b                   7.42460(10)
_cell_length_c                   13.3468(2)
_cell_angle_alpha                82.9110(10)
_cell_angle_beta                 89.4980(10)
_cell_angle_gamma                77.1800(10)
_cell_volume                     711.609
_exptl_crystal_colour            colorless
_exptl_crystal_description       block
_cell_formula_units_Z            2
loop_
_atom_site_label
_atom_site_type_symbol
_atom_site_fract_x
_atom_site_fract_y
_atom_site_fract_z
Br1 Br -0.37685(2) 0.17538(2) 0.970828(13)
N1 N 0.4261(2) 0.6766(2) 0.72152(11)
N2 N 0.1281(2) 0.5780(2) 0.61569(11)
H1 H 0.036(3) 0.520(3) 0.6303(17)
H2 H 0.126(3) 0.601(3) 0.5472(12)
C1 C 0.2528(2) 0.5527(2) 0.81633(13)
H3 H 0.3213 0.5589 0.8796
C2 C 0.3968(2) 0.4838(2) 0.73634(13)
H4 H 0.5068 0.3871 0.7642
C3 C 0.3062(2) 0.4372(2) 0.64451(13)
H5 H 0.3918 0.4357 0.5872
H6 H 0.2802 0.3116 0.6592
C4 C 0.0964(3) 0.7592(2) 0.66079(13)
H7 H -0.0323 0.7912 0.6843
H8 H 0.1142 0.8602 0.6085
C5 C 0.2294(2) 0.7436(2) 0.74898(13)
H9 H 0.2063 0.8541 0.7871
C6 C 0.5033(3) 0.7466(3) 0.62819(13)
H10 H 0.4057 0.7811 0.5748
H11 H 0.6025 0.6470 0.6065
C7 C 0.5808(3) 0.9133(2) 0.64063(15)
H12 H 0.6225 0.9761 0.5816
C8 C 0.5957(3) 0.9797(3) 0.72676(16)
H13 H 0.5556 0.9210 0.7875
H14 H 0.6465 1.0861 0.7280
C9 C 0.0946(2) 0.4631(2) 0.84484(12)
C10 C 0.1210(2) 0.2691(2) 0.85772(13)
H15 H 0.2367 0.1951 0.8417
C11 C -0.0186(3) 0.1832(2) 0.89343(13)
H16 H 0.0007 0.0513 0.9022
C12 C -0.1868(2) 0.2930(2) 0.91616(12)
C13 C -0.2201(2) 0.4856(2) 0.90222(13)
H17 H -0.3374 0.5589 0.9165
C14 C -0.0779(3) 0.5690(2) 0.86691(13)
H18 H -0.0985 0.7010 0.8576
Cl1 Cl 0.86474(6) 0.30628(6) 0.61031(3)
loop_
_geom_bond_atom_site_label_1
_geom_bond_atom_site_label_2
_geom_bond_site_symmetry_1
_geom_bond_site_symmetry_2
Br1 C12 1_555 1_555
N1 C2 1_555 1_555
N2 H1 1_555 1_555
H2 N2 1_555 1_555
C1 H3 1_555 1_555
C2 C1 1_555 1_555
H4 C2 1_555 1_555
C3 N2 1_555 1_555
H5 C3 1_555 1_555
H6 C3 1_555 1_555
C4 N2 1_555 1_555
H7 C4 1_555 1_555
H8 C4 1_555 1_555
C5 N1 1_555 1_555
H9 C5 1_555 1_555
C6 N1 1_555 1_555
H10 C6 1_555 1_555
H11 C6 1_555 1_555
C7 C6 1_555 1_555
H12 C7 1_555 1_555
C8 C7 1_555 1_555
H13 C8 1_555 1_555
H14 C8 1_555 1_555
C9 C1 1_555 1_555
C10 C9 1_555 1_555
H15 C10 1_555 1_555
C11 C10 1_555 1_555
H16 C11 1_555 1_555
C12 C11 1_555 1_555
C13 C12 1_555 1_555
H17 C13 1_555 1_555
C14 C9 1_555 1_555
H18 C14 1_555 1_555
C1 C5 1_555 1_555
C2 C3 1_555 1_555
C4 C5 1_555 1_555
C13 C14 1_555 1_555

#END
