
#######################################################################
#
#                 Cambridge Crystallographic Data Centre
#                                CCDC 
#
#######################################################################
#
# If this CIF has been generated from an entry in the Cambridge 
# Structural Database, then it will include bibliographic, chemical, 
# crystal, experimental, refinement or atomic coordinate data resulting 
# from the CCDC's data processing and validation procedures.
#
#######################################################################

data_HICFOR
_chemical_formula_moiety         'C44 H36 N2 S1'
_chemical_name_systematic        
2,7-di-t-butyl-9,15-diphenyldibenzo[10,11:6,7]tetraceno[2,3-c][1,2,5]thiadiazole
_symmetry_cell_setting           orthorhombic
_symmetry_space_group_name_H-M   'P c c a'
_symmetry_Int_Tables_number      54
_space_group_name_Hall           '-P 2a 2ac'
loop_
_symmetry_equiv_pos_site_id
_symmetry_equiv_pos_as_xyz
1 x,y,z
2 1/2-x,-y,z
3 -x,y,1/2-z
4 1/2+x,-y,1/2-z
5 -x,-y,-z
6 1/2+x,y,-z
7 x,-y,1/2+z
8 1/2-x,y,1/2+z
_cell_length_a                   27.000(2)
_cell_length_b                   15.9623(13)
_cell_length_c                   7.6740(7)
_cell_angle_alpha                90
_cell_angle_beta                 90
_cell_angle_gamma                90
_cell_volume                     3307.36
_exptl_crystal_colour            red
_exptl_crystal_description       BLOCK
_cell_formula_units_Z            4
loop_
_atom_site_label
_atom_site_type_symbol
_atom_site_fract_x
_atom_site_fract_y
_atom_site_fract_z
S1 S 0.5000 0.24939(9) 0.2500
N1 N 0.54597(9) 0.31299(17) 0.2408(4)
C1 C 0.52639(10) 0.3913(2) 0.2439(6)
C2 C 0.55198(11) 0.4661(2) 0.2379(5)
H1 H 0.5863 0.4657 0.2282
C3 C 0.52668(9) 0.5426(2) 0.2464(5)
C4 C 0.55287(10) 0.6211(2) 0.2530(5)
C5 C 0.52674(9) 0.6956(2) 0.2647(5)
C6 C 0.55002(11) 0.7770(2) 0.3151(4)
C7 C 0.52446(10) 0.8527(2) 0.2865(4)
C8 C 0.54660(13) 0.9293(2) 0.3320(5)
C9 C 0.59292(13) 0.9289(2) 0.4169(5)
H2 H 0.6076 0.9797 0.4460
C10 C 0.61698(12) 0.8557(3) 0.4576(5)
C11 C 0.59489(12) 0.7808(2) 0.4045(5)
H3 H 0.6110 0.7308 0.4302
C12 C 0.52207(10) 1.0056(2) 0.2913(5)
H4 H 0.5366 1.0562 0.3220
C13 C 0.60825(11) 0.61791(19) 0.2364(5)
C14 C 0.63085(12) 0.6528(2) 0.0918(5)
H5 H 0.6118 0.6802 0.0085
C15 C 0.68175(13) 0.6474(2) 0.0702(5)
H6 H 0.6966 0.6714 -0.0271
C16 C 0.71049(14) 0.6066(2) 0.1915(6)
H7 H 0.7447 0.6038 0.1772
C17 C 0.68853(13) 0.5703(2) 0.3336(5)
H8 H 0.7078 0.5418 0.4148
C18 C 0.63781(12) 0.5758(2) 0.3568(5)
H9 H 0.6233 0.5512 0.4539
C19 C 0.66599(14) 0.8543(3) 0.5584(6)
C20 C 0.6568(4) 0.8162(8) 0.732(2)
H10 H 0.6878 0.8078 0.7905
H11 H 0.6404 0.7633 0.7173
H12 H 0.6363 0.8529 0.7998
C21 C 0.7047(2) 0.8121(8) 0.4474(17)
H13 H 0.7362 0.8152 0.5048
H14 H 0.7067 0.8399 0.3366
H15 H 0.6958 0.7545 0.4300
C22 C 0.6853(3) 0.9442(5) 0.5945(14)
H16 H 0.6608 0.9748 0.6594
H17 H 0.6915 0.9722 0.4859
H18 H 0.7154 0.9413 0.6606
N1B N 0.45403(9) 0.31299(17) 0.2592(4)
C1B C 0.47361(10) 0.3913(2) 0.2561(6)
C2B C 0.44802(11) 0.4661(2) 0.2621(5)
H1B H 0.4137 0.4657 0.2718
C3B C 0.47332(9) 0.5426(2) 0.2536(5)
C4B C 0.44713(10) 0.6211(2) 0.2470(5)
C5B C 0.47326(9) 0.6956(2) 0.2353(5)
C6B C 0.44998(11) 0.7770(2) 0.1849(4)
C7B C 0.47554(10) 0.8527(2) 0.2135(4)
C8B C 0.45340(13) 0.9293(2) 0.1680(5)
C9B C 0.40708(13) 0.9289(2) 0.0831(5)
H2B H 0.3924 0.9797 0.0540
C10B C 0.38302(12) 0.8557(3) 0.0424(5)
C11B C 0.40511(12) 0.7808(2) 0.0955(5)
H3B H 0.3890 0.7308 0.0698
C12B C 0.47793(10) 1.0056(2) 0.2087(5)
H4B H 0.4634 1.0562 0.1780
C13B C 0.39175(11) 0.61791(19) 0.2636(5)
C14B C 0.36915(12) 0.6528(2) 0.4082(5)
H5B H 0.3882 0.6802 0.4915
C15B C 0.31825(13) 0.6474(2) 0.4298(5)
H6B H 0.3034 0.6714 0.5271
C16B C 0.28951(14) 0.6066(2) 0.3085(6)
H7B H 0.2553 0.6038 0.3228
C17B C 0.31147(13) 0.5703(2) 0.1664(5)
H8B H 0.2922 0.5418 0.0852
C18B C 0.36219(12) 0.5758(2) 0.1432(5)
H9B H 0.3767 0.5512 0.0461
C19B C 0.33401(14) 0.8543(3) -0.0584(6)
C20B C 0.3432(4) 0.8162(8) -0.232(2)
H10B H 0.3122 0.8078 -0.2905
H11B H 0.3596 0.7633 -0.2173
H12B H 0.3637 0.8529 -0.2998
C21B C 0.2953(2) 0.8121(8) 0.0526(17)
H13B H 0.2638 0.8152 -0.0048
H14B H 0.2933 0.8399 0.1634
H15B H 0.3042 0.7545 0.0700
C22B C 0.3147(3) 0.9442(5) -0.0945(14)
H16B H 0.3392 0.9748 -0.1594
H17B H 0.3085 0.9722 0.0141
H18B H 0.2846 0.9413 -0.1606
C23? C 0.6861(8) 0.7599(13) 0.593(4)
H19? H 0.7159 0.7622 0.6609
H20? H 0.6928 0.7331 0.4836
H21? H 0.6614 0.7285 0.6552
C24? C 0.7045(8) 0.9017(19) 0.469(4)
H22? H 0.6990 0.9606 0.4857
H23? H 0.7036 0.8891 0.3466
H24? H 0.7363 0.8867 0.5153
C25? C 0.6576(11) 0.8765(19) 0.749(5)
H25? H 0.6263 0.8542 0.7861
H26? H 0.6574 0.9364 0.7616
H27? H 0.6837 0.8531 0.8181
loop_
_geom_bond_atom_site_label_1
_geom_bond_atom_site_label_2
_geom_bond_site_symmetry_1
_geom_bond_site_symmetry_2
S1 N1 1_555 1_555
N1 C1 1_555 1_555
C1 C2 1_555 1_555
C2 H1 1_555 1_555
C3 C2 1_555 1_555
C4 C3 1_555 1_555
C5 C4 1_555 1_555
C6 C5 1_555 1_555
C7 C6 1_555 1_555
C8 C7 1_555 1_555
C9 C8 1_555 1_555
H2 C9 1_555 1_555
C10 C9 1_555 1_555
C11 C6 1_555 1_555
H3 C11 1_555 1_555
C12 C8 1_555 1_555
H4 C12 1_555 1_555
C13 C4 1_555 1_555
C14 C13 1_555 1_555
H5 C14 1_555 1_555
C15 C14 1_555 1_555
H6 C15 1_555 1_555
C16 C15 1_555 1_555
H7 C16 1_555 1_555
C17 C16 1_555 1_555
H8 C17 1_555 1_555
C18 C13 1_555 1_555
H9 C18 1_555 1_555
C19 C10 1_555 1_555
C20 C19 1_555 1_555
H10 C20 1_555 1_555
H11 C20 1_555 1_555
H12 C20 1_555 1_555
C21 C19 1_555 1_555
H13 C21 1_555 1_555
H14 C21 1_555 1_555
H15 C21 1_555 1_555
C22 C19 1_555 1_555
H16 C22 1_555 1_555
H17 C22 1_555 1_555
H18 C22 1_555 1_555
N1B S1 1_555 1_555
C1B C1 1_555 1_555
C2B C1B 1_555 1_555
H1B C2B 1_555 1_555
C3B C3 1_555 1_555
C4B C3B 1_555 1_555
C5B C5 1_555 1_555
C6B C5B 1_555 1_555
C7B C7 1_555 1_555
C8B C7B 1_555 1_555
C9B C8B 1_555 1_555
H2B C9B 1_555 1_555
C10B C9B 1_555 1_555
C11B C6B 1_555 1_555
H3B C11B 1_555 1_555
C12B C12 1_555 1_555
H4B C12B 1_555 1_555
C13B C4B 1_555 1_555
C14B C13B 1_555 1_555
H5B C14B 1_555 1_555
C15B C14B 1_555 1_555
H6B C15B 1_555 1_555
C16B C15B 1_555 1_555
H7B C16B 1_555 1_555
C17B C16B 1_555 1_555
H8B C17B 1_555 1_555
C18B C13B 1_555 1_555
H9B C18B 1_555 1_555
C19B C10B 1_555 1_555
C20B C19B 1_555 1_555
H10B C20B 1_555 1_555
H11B C20B 1_555 1_555
H12B C20B 1_555 1_555
C21B C19B 1_555 1_555
H13B C21B 1_555 1_555
H14B C21B 1_555 1_555
H15B C21B 1_555 1_555
C22B C19B 1_555 1_555
H16B C22B 1_555 1_555
H17B C22B 1_555 1_555
H18B C22B 1_555 1_555
C10 C11 1_555 1_555
C17 C18 1_555 1_555
N1B C1B 1_555 1_555
C2B C3B 1_555 1_555
C4B C5B 1_555 1_555
C6B C7B 1_555 1_555
C8B C12B 1_555 1_555
C10B C11B 1_555 1_555
C17B C18B 1_555 1_555

#END
