
#######################################################################
#
#                 Cambridge Crystallographic Data Centre
#                                CCDC 
#
#######################################################################
#
# If this CIF has been generated from an entry in the Cambridge 
# Structural Database, then it will include bibliographic, chemical, 
# crystal, experimental, refinement or atomic coordinate data resulting 
# from the CCDC's data processing and validation procedures.
#
#######################################################################

data_HICGIL
_chemical_formula_moiety         'C39 H35 N3 O5 S1'
_chemical_name_systematic        
2-Allyl-4-((2-nitrophenyl)sulfonyl)-1-((trityloxy)methyl)-1,2,2a,3,4,8b-hexahydroazeto[2,3-c]quinoline
_symmetry_cell_setting           monoclinic
_symmetry_space_group_name_H-M   'P 21/c'
_symmetry_Int_Tables_number      14
_space_group_name_Hall           '-P 2ybc'
loop_
_symmetry_equiv_pos_site_id
_symmetry_equiv_pos_as_xyz
1 x,y,z
2 -x,1/2+y,1/2-z
3 -x,-y,-z
4 x,1/2-y,1/2+z
_cell_length_a                   19.8216(16)
_cell_length_b                   8.8060(7)
_cell_length_c                   18.8374(16)
_cell_angle_alpha                90
_cell_angle_beta                 94.8350(10)
_cell_angle_gamma                90
_cell_volume                     3276.35
_exptl_crystal_colour            colorless
_exptl_crystal_description       block
_cell_formula_units_Z            4
loop_
_atom_site_label
_atom_site_type_symbol
_atom_site_fract_x
_atom_site_fract_y
_atom_site_fract_z
S1 S 0.135831(14) 1.05252(3) 0.282537(16)
O1 O 0.06891(4) 1.11473(11) 0.27246(5)
O2 O 0.19216(5) 1.13829(11) 0.26146(5)
C1 C 0.15315(6) 1.01797(14) 0.37501(6)
C2 C 0.10507(6) 1.02297(14) 0.42465(7)
C3 C 0.12180(7) 0.99716(16) 0.49653(7)
H1 H 0.0884 1.0047 0.5297
C4 C 0.18831(7) 0.95998(16) 0.51918(8)
H2 H 0.2002 0.9374 0.5680
C5 C 0.23732(7) 0.95568(15) 0.47099(8)
H3 H 0.2828 0.9314 0.4869
C6 C 0.22033(6) 0.98661(14) 0.39969(7)
H4 H 0.2545 0.9866 0.3672
N1 N 0.03263(5) 1.05557(13) 0.40500(6)
O3 O -0.00249(5) 0.95532(12) 0.37614(6)
O4 O 0.01110(5) 1.17866(13) 0.42293(6)
O5 O 0.28601(4) 0.47268(9) 0.36937(4)
N2 N 0.13486(5) 0.88777(12) 0.24218(5)
C7 C 0.19467(5) 0.81852(14) 0.21830(6)
C8 C 0.23813(6) 0.90197(15) 0.17810(7)
H5 H 0.2286 1.0056 0.1674
C9 C 0.29501(6) 0.83387(16) 0.15379(7)
H6 H 0.3248 0.8918 0.1276
C10 C 0.30854(6) 0.68144(16) 0.16756(7)
H7 H 0.3479 0.6353 0.1517
C11 C 0.26389(6) 0.59725(15) 0.20474(6)
H8 H 0.2725 0.4923 0.2129
C12 C 0.20632(5) 0.66308(14) 0.23057(6)
C13 C 0.15857(6) 0.56262(14) 0.26711(6)
H9 H 0.1507 0.4633 0.2420
C14 C 0.09152(5) 0.63954(14) 0.28350(7)
H10 H 0.0529 0.5667 0.2764
C15 C 0.17166(5) 0.54220(13) 0.34956(6)
H11 H 0.1594 0.4372 0.3641
C16 C 0.23942(5) 0.58928(13) 0.38594(6)
H12 H 0.2536 0.6888 0.3677
H13 H 0.2370 0.5970 0.4381
C17 C 0.35170(5) 0.46944(12) 0.40856(6)
C18 C 0.34849(5) 0.37874(12) 0.47789(6)
C19 C 0.40848(6) 0.33324(14) 0.51665(6)
H14 H 0.4508 0.3572 0.4993
C20 C 0.40699(7) 0.25337(15) 0.58029(7)
H15 H 0.4481 0.2227 0.6058
C21 C 0.34539(7) 0.21858(15) 0.60644(7)
H16 H 0.3442 0.1654 0.6502
C22 C 0.28567(7) 0.26199(15) 0.56830(7)
H17 H 0.2435 0.2382 0.5861
C23 C 0.28694(6) 0.34032(14) 0.50401(6)
H18 H 0.2456 0.3676 0.4779
C24 C 0.37808(5) 0.63183(12) 0.42168(6)
C25 C 0.38272(6) 0.72462(14) 0.36193(7)
H19 H 0.3709 0.6850 0.3157
C26 C 0.40444(7) 0.87395(14) 0.36967(8)
H20 H 0.4070 0.9359 0.3287
C27 C 0.42249(6) 0.93378(14) 0.43699(8)
H21 H 0.4370 1.0363 0.4421
C28 C 0.41901(6) 0.84246(14) 0.49642(7)
H22 H 0.4318 0.8821 0.5425
C29 C 0.39668(5) 0.69175(13) 0.48892(6)
H23 H 0.3942 0.6301 0.5300
C30 C 0.39680(5) 0.38386(12) 0.35946(6)
C31 C 0.46623(6) 0.41222(14) 0.36145(6)
H24 H 0.4860 0.4878 0.3927
C32 C 0.50696(6) 0.33065(15) 0.31798(7)
H25 H 0.5542 0.3502 0.3202
C33 C 0.47862(7) 0.22084(15) 0.27153(7)
H26 H 0.5062 0.1653 0.2419
C34 C 0.40940(7) 0.19326(14) 0.26899(6)
H27 H 0.3897 0.1192 0.2370
C35 C 0.36852(6) 0.27289(13) 0.31285(6)
H28 H 0.3214 0.2518 0.3111
C36 C 0.07481(5) 0.78777(14) 0.24494(7)
H29 H 0.0559 0.7654 0.1957
H30 H 0.0397 0.8421 0.2694
N3 N 0.11596(5) 0.65050(12) 0.36024(5)
C37 C 0.06740(6) 0.59880(16) 0.41022(7)
H31 H 0.0494 0.4981 0.3949
H32 H 0.0289 0.6707 0.4089
C38 C 0.09936(7) 0.58781(17) 0.48492(7)
H33 H 0.1207 0.6760 0.5053
C39 C 0.09995(7) 0.46378(18) 0.52439(8)
H34 H 0.0791 0.3735 0.5057
H35 H 0.1212 0.4648 0.5715
loop_
_geom_bond_atom_site_label_1
_geom_bond_atom_site_label_2
_geom_bond_site_symmetry_1
_geom_bond_site_symmetry_2
S1 O1 1_555 1_555
O2 S1 1_555 1_555
C1 S1 1_555 1_555
C2 C1 1_555 1_555
C3 C2 1_555 1_555
H1 C3 1_555 1_555
C4 C3 1_555 1_555
H2 C4 1_555 1_555
C5 C4 1_555 1_555
H3 C5 1_555 1_555
C6 C1 1_555 1_555
H4 C6 1_555 1_555
N1 C2 1_555 1_555
O3 N1 1_555 1_555
O4 N1 1_555 1_555
O5 C16 1_555 1_555
N2 S1 1_555 1_555
C7 N2 1_555 1_555
C8 C7 1_555 1_555
H5 C8 1_555 1_555
C9 C8 1_555 1_555
H6 C9 1_555 1_555
C10 C9 1_555 1_555
H7 C10 1_555 1_555
C11 C10 1_555 1_555
H8 C11 1_555 1_555
C12 C7 1_555 1_555
C13 C12 1_555 1_555
H9 C13 1_555 1_555
C14 C13 1_555 1_555
H10 C14 1_555 1_555
C15 C13 1_555 1_555
H11 C15 1_555 1_555
C16 C15 1_555 1_555
H12 C16 1_555 1_555
H13 C16 1_555 1_555
C17 O5 1_555 1_555
C18 C17 1_555 1_555
C19 C18 1_555 1_555
H14 C19 1_555 1_555
C20 C19 1_555 1_555
H15 C20 1_555 1_555
C21 C20 1_555 1_555
H16 C21 1_555 1_555
C22 C21 1_555 1_555
H17 C22 1_555 1_555
C23 C18 1_555 1_555
H18 C23 1_555 1_555
C24 C17 1_555 1_555
C25 C24 1_555 1_555
H19 C25 1_555 1_555
C26 C25 1_555 1_555
H20 C26 1_555 1_555
C27 C26 1_555 1_555
H21 C27 1_555 1_555
C28 C27 1_555 1_555
H22 C28 1_555 1_555
C29 C24 1_555 1_555
H23 C29 1_555 1_555
C30 C17 1_555 1_555
C31 C30 1_555 1_555
H24 C31 1_555 1_555
C32 C31 1_555 1_555
H25 C32 1_555 1_555
C33 C32 1_555 1_555
H26 C33 1_555 1_555
C34 C33 1_555 1_555
H27 C34 1_555 1_555
C35 C30 1_555 1_555
H28 C35 1_555 1_555
C36 N2 1_555 1_555
H29 C36 1_555 1_555
H30 C36 1_555 1_555
N3 C14 1_555 1_555
C37 N3 1_555 1_555
H31 C37 1_555 1_555
H32 C37 1_555 1_555
C38 C37 1_555 1_555
H33 C38 1_555 1_555
C39 C38 1_555 1_555
H34 C39 1_555 1_555
H35 C39 1_555 1_555
C5 C6 1_555 1_555
C11 C12 1_555 1_555
C14 C36 1_555 1_555
C15 N3 1_555 1_555
C22 C23 1_555 1_555
C28 C29 1_555 1_555
C34 C35 1_555 1_555

#END
