
#######################################################################
#
#                 Cambridge Crystallographic Data Centre
#                                CCDC 
#
#######################################################################
#
# If this CIF has been generated from an entry in the Cambridge 
# Structural Database, then it will include bibliographic, chemical, 
# crystal, experimental, refinement or atomic coordinate data resulting 
# from the CCDC's data processing and validation procedures.
#
#######################################################################

data_HICJUA
_chemical_formula_moiety         'C20 H16 Cl2 N2 O2'
_chemical_name_systematic        
N,1-bis(2-chlorophenyl)-2,6-dimethyl-4-oxo-1,4-dihydropyridine-3-carboxamide
_symmetry_cell_setting           orthorhombic
_symmetry_space_group_name_H-M   'P n a 21'
_symmetry_Int_Tables_number      33
_space_group_name_Hall           'P 2c -2n'
loop_
_symmetry_equiv_pos_site_id
_symmetry_equiv_pos_as_xyz
1 x,y,z
2 -x,-y,1/2+z
3 1/2+x,1/2-y,z
4 1/2-x,1/2+y,1/2+z
_cell_length_a                   13.8598(7)
_cell_length_b                   11.5756(7)
_cell_length_c                   23.3102(12)
_cell_angle_alpha                90
_cell_angle_beta                 90
_cell_angle_gamma                90
_cell_volume                     3739.78
_cell_formula_units_Z            8
loop_
_atom_site_label
_atom_site_type_symbol
_atom_site_fract_x
_atom_site_fract_y
_atom_site_fract_z
N1 N 0.3743(3) 0.5418(3) 0.75820(16)
C1 C 0.3437(3) 0.4456(4) 0.72699(18)
O1 O 0.2352(2) 0.5948(3) 0.80066(17)
C2 C 0.3779(2) 0.7016(4) 0.82394(17)
C3 C 0.3211(3) 0.6084(4) 0.79411(18)
C4 C 0.5213(4) 0.9827(5) 0.9082(3)
H1 H 0.5791 1.0043 0.8882
H2 H 0.5372 0.9607 0.9468
H3 H 0.4776 1.0469 0.9089
N2 N 0.3897(2) 0.8384(3) 0.90040(15)
C5 C 0.3522(3) 0.8868(4) 0.9532(2)
C6 C 0.3409(3) 0.7490(4) 0.87368(18)
C7 C 0.3816(4) 0.8433(5) 1.0053(2)
C8 C 0.2877(4) 0.9757(5) 0.9509(3)
H4 H 0.2680 1.0065 0.9160
C9 C 0.2779(7) 0.9725(9) 1.0533(4)
C10 C 0.4747(3) 0.8828(4) 0.8781(2)
C11 C 0.2514(4) 0.7117(6) 0.9034(3)
C12 C 0.3435(5) 0.8860(7) 1.0547(3)
H5 H 0.3627 0.8554 1.0898
C13 C 0.2937(5) 0.2492(5) 0.6645(3)
C14 C 0.2532(3) 0.3946(4) 0.7328(2)
C15 C 0.5106(3) 0.8379(4) 0.8310(2)
C16 C 0.4079(3) 0.3929(4) 0.68891(19)
C17 C 0.3834(5) 0.2966(5) 0.6577(2)
C18 C 0.4687(3) 0.7433(4) 0.80084(18)
C19 C 0.2280(4) 0.2978(5) 0.7021(2)
Cl1 Cl 0.52455(9) 0.44843(13) 0.68168(7)
Cl2 Cl 0.46406(16) 0.73188(18) 1.00807(8)
C20 C 0.2525(7) 1.0189(8) 1.0025(5)
H6 H 0.154(3) 0.267(4) 0.7065(19)
H7 H 0.427(3) 0.571(4) 0.7536(17)
H8 H 0.251(4) 1.008(5) 1.089(3)
H9 H 0.567(3) 0.866(4) 0.8161(18)
H10 H 0.213(3) 0.429(4) 0.7562(18)
H11 H 0.427(4) 0.258(5) 0.634(2)
H12 H 0.263(3) 0.725(5) 0.949(2)
H13 H 0.236(2) 0.645(3) 0.8941(16)
O2 O 0.50781(19) 0.7008(3) 0.75736(14)
H14 H 0.204(3) 0.769(5) 0.893(2)
H15 H 0.280(4) 0.194(5) 0.643(2)
H16 H 0.214(5) 1.069(6) 0.997(3)
C21 C 0.2865(3) -0.0180(4) 0.7696(2)
N3 N 0.3586(2) -0.1209(3) 0.67028(14)
O3 O 0.52400(19) 0.1201(3) 0.76673(15)
N4 N 0.3875(2) 0.1789(3) 0.81118(15)
C22 C 0.2732(3) -0.1599(4) 0.69331(19)
C23 C 0.3843(4) 0.4268(4) 0.9093(2)
C24 C 0.4375(3) 0.1098(4) 0.77446(17)
C25 C 0.4205(3) 0.2760(4) 0.84071(17)
O4 O 0.2512(2) 0.0260(3) 0.81380(15)
C26 C 0.3783(2) 0.0185(3) 0.74581(17)
C27 C 0.4551(3) -0.2634(5) 0.6198(2)
C28 C 0.4114(3) -0.0343(4) 0.69645(19)
C29 C 0.3570(3) 0.3296(4) 0.87863(19)
C30 C 0.2386(3) -0.1097(4) 0.7412(2)
C31 C 0.5030(3) -0.0003(5) 0.6659(2)
H17 H 0.5116 -0.0485 0.6328
H18 H 0.5568 -0.0098 0.6914
H19 H 0.4988 0.0790 0.6542
C32 C 0.5369(4) 0.4229(4) 0.8651(2)
C33 C 0.5117(3) 0.3244(4) 0.8345(2)
C34 C 0.4895(5) -0.3104(7) 0.5702(3)
C35 C 0.3980(5) -0.1779(6) 0.5159(2)
C36 C 0.3630(3) -0.1298(4) 0.5657(2)
C37 C 0.3929(3) -0.1718(4) 0.6179(2)
C38 C 0.2233(4) -0.2584(5) 0.6639(3)
Cl3 Cl 0.24112(9) 0.27756(14) 0.88637(7)
Cl4 Cl 0.28134(14) -0.01569(15) 0.56249(8)
C39 C 0.4744(4) 0.4730(4) 0.9018(2)
C40 C 0.4600(5) -0.2670(7) 0.5175(3)
H20 H 0.205(3) -0.244(5) 0.623(3)
H21 H 0.342(3) 0.450(3) 0.9375(17)
H22 H 0.371(4) -0.143(5) 0.488(2)
H23 H 0.471(2) -0.300(3) 0.6567(17)
H24 H 0.185(3) -0.132(3) 0.7566(18)
H25 H 0.326(3) 0.153(3) 0.8183(15)
H26 H 0.169(3) -0.267(4) 0.684(2)
H27 H 0.531(4) -0.369(5) 0.567(2)
H28 H 0.273(3) -0.332(4) 0.666(2)
H29 H 0.498(4) 0.530(6) 0.928(3)
H30 H 0.598(4) 0.457(4) 0.863(2)
H31 H 0.492(4) -0.304(6) 0.481(3)
H32 H 0.557(3) 0.282(4) 0.802(2)
loop_
_geom_bond_atom_site_label_1
_geom_bond_atom_site_label_2
_geom_bond_site_symmetry_1
_geom_bond_site_symmetry_2
N1 C1 1_555 1_555
C1 C14 1_555 1_555
O1 C3 1_555 1_555
C2 C3 1_555 1_555
C3 N1 1_555 1_555
C4 H1 1_555 1_555
H2 C4 1_555 1_555
H3 C4 1_555 1_555
N2 C5 1_555 1_555
C5 C7 1_555 1_555
C6 C2 1_555 1_555
C7 C12 1_555 1_555
C8 C5 1_555 1_555
H4 C8 1_555 1_555
C9 C12 1_555 1_555
C10 C4 1_555 1_555
C11 C6 1_555 1_555
C12 H5 1_555 1_555
C13 C17 1_555 1_555
C14 C19 1_555 1_555
C15 C10 1_555 1_555
C16 C1 1_555 1_555
C17 C16 1_555 1_555
C18 C2 1_555 1_555
C19 C13 1_555 1_555
Cl1 C16 1_555 1_555
Cl2 C7 1_555 1_555
C20 C8 1_555 1_555
H6 C19 1_555 1_555
H7 N1 1_555 1_555
H8 C9 1_555 1_555
H9 C15 1_555 1_555
H10 C14 1_555 1_555
H11 C17 1_555 1_555
H12 C11 1_555 1_555
H13 C11 1_555 1_555
O2 C18 1_555 1_555
H14 C11 1_555 1_555
H15 C13 1_555 1_555
H16 C20 1_555 1_555
C21 O4 1_555 1_555
N3 C22 1_555 1_555
O3 C24 1_555 1_555
N4 C24 1_555 1_555
C22 C30 1_555 1_555
C23 C29 1_555 1_555
C24 C26 1_555 1_555
C25 N4 1_555 1_555
C26 C21 1_555 1_555
C27 C34 1_555 1_555
C28 N3 1_555 1_555
C29 C25 1_555 1_555
C30 C21 1_555 1_555
C31 C28 1_555 1_555
H17 C31 1_555 1_555
H18 C31 1_555 1_555
H19 C31 1_555 1_555
C32 C33 1_555 1_555
C33 C25 1_555 1_555
C34 C40 1_555 1_555
C35 C36 1_555 1_555
C36 C37 1_555 1_555
C37 N3 1_555 1_555
C38 C22 1_555 1_555
Cl3 C29 1_555 1_555
Cl4 C36 1_555 1_555
C39 C23 1_555 1_555
C40 C35 1_555 1_555
H20 C38 1_555 1_555
H21 C23 1_555 1_555
H22 C35 1_555 1_555
H23 C27 1_555 1_555
H24 C30 1_555 1_555
H25 N4 1_555 1_555
H26 C38 1_555 1_555
H27 C34 1_555 1_555
H28 C38 1_555 1_555
H29 C39 1_555 1_555
H30 C32 1_555 1_555
H31 C40 1_555 1_555
H32 C33 1_555 1_555
N2 C6 1_555 1_555
N2 C10 1_555 1_555
C9 C20 1_555 1_555
C15 C18 1_555 1_555
C26 C28 1_555 1_555
C27 C37 1_555 1_555
C32 C39 1_555 1_555

#END
