
#######################################################################
#
#                 Cambridge Crystallographic Data Centre
#                                CCDC 
#
#######################################################################
#
# If this CIF has been generated from an entry in the Cambridge 
# Structural Database, then it will include bibliographic, chemical, 
# crystal, experimental, refinement or atomic coordinate data resulting 
# from the CCDC's data processing and validation procedures.
#
#######################################################################

data_HICSIW
_chemical_formula_moiety         'C33 H32 O1 S2'
_chemical_name_systematic        2,7-bis(4-(t-butylthio)phenyl)fluorenone
_symmetry_cell_setting           monoclinic
_symmetry_space_group_name_H-M   'C 2/c'
_symmetry_Int_Tables_number      15
_space_group_name_Hall           '-C 2yn'
loop_
_symmetry_equiv_pos_site_id
_symmetry_equiv_pos_as_xyz
1 x,y,z
2 1/2+x,1/2+y,z
3 -x,y,1/2-z
4 1/2-x,1/2+y,1/2-z
5 -x,-y,-z
6 1/2-x,1/2-y,-z
7 x,-y,1/2+z
8 1/2+x,1/2-y,1/2+z
_cell_length_a                   44.525(2)
_cell_length_b                   6.2063(3)
_cell_length_c                   19.6664(9)
_cell_angle_alpha                90
_cell_angle_beta                 92.087(3)
_cell_angle_gamma                90
_cell_volume                     5430.92
_exptl_crystal_colour            yellow
_exptl_crystal_description       plate
_chemical_melting_point          '264 deg.C'
_cell_formula_units_Z            8
_exptl_crystal_recrystallization_method dichloromethane/ethanol
_exptl_crystal_preparation       luminescent
loop_
_atom_site_label
_atom_site_type_symbol
_atom_site_fract_x
_atom_site_fract_y
_atom_site_fract_z
C1 C 0.03793(9) -0.0273(8) 0.6829(2)
H1 H 0.0196 -0.0778 0.6611
H2 H 0.0351 0.1168 0.6992
H3 H 0.0434 -0.1200 0.7204
C2 C 0.06795(10) -0.2616(7) 0.6096(3)
H4 H 0.0506 -0.3123 0.5840
H5 H 0.0713 -0.3508 0.6490
H6 H 0.0852 -0.2679 0.5817
C3 C 0.05480(10) 0.1129(7) 0.5724(2)
H7 H 0.0375 0.0555 0.5483
H8 H 0.0714 0.1186 0.5426
H9 H 0.0504 0.2555 0.5882
C4 C 0.06281(8) -0.0286(6) 0.63193(18)
C5 C 0.14812(9) 0.3382(6) 0.5402(2)
H10 H 0.1491 0.4727 0.5195
C6 C 0.12613(9) 0.3006(7) 0.5862(2)
H11 H 0.1127 0.4105 0.5956
C7 C 0.12340(8) 0.1072(6) 0.61830(18)
C8 C 0.14406(9) -0.0478(6) 0.6038(2)
H12 H 0.1432 -0.1811 0.6252
C9 C 0.16617(8) -0.0095(6) 0.5577(2)
H13 H 0.1798 -0.1187 0.5493
C10 C 0.16883(7) 0.1832(5) 0.52389(16)
C11 C 0.19275(7) 0.2266(5) 0.47512(16)
C12 C 0.19309(8) 0.4182(6) 0.43857(18)
H14 H 0.1776 0.5163 0.4444
C13 C 0.21531(8) 0.4705(6) 0.39379(18)
H15 H 0.2150 0.6026 0.3714
C14 C 0.23779(7) 0.3250(5) 0.38295(16)
C15 C 0.23784(7) 0.1283(5) 0.41855(16)
C16 C 0.21624(7) 0.0798(5) 0.46425(17)
H16 H 0.2171 -0.0498 0.4880
C17 C 0.26449(8) 0.0001(6) 0.39767(17)
C18 C 0.27932(7) 0.1353(5) 0.34559(17)
C19 C 0.26346(7) 0.3272(5) 0.33757(16)
C20 C 0.27297(8) 0.4769(6) 0.29110(18)
H17 H 0.2629 0.6073 0.2853
C21 C 0.29776(8) 0.4296(6) 0.25329(17)
H18 H 0.3040 0.5311 0.2220
C22 C 0.31386(7) 0.2364(5) 0.25976(16)
C23 C 0.30386(7) 0.0878(5) 0.30827(17)
H19 H 0.3139 -0.0423 0.3149
C24 C 0.33978(7) 0.1868(6) 0.21692(17)
C25 C 0.35531(9) -0.0049(6) 0.2236(2)
H20 H 0.3500 -0.1016 0.2573
C26 C 0.37840(9) -0.0576(6) 0.1823(2)
H21 H 0.3882 -0.1889 0.1884
C27 C 0.38739(8) 0.0806(6) 0.13157(18)
C28 C 0.37228(8) 0.2720(7) 0.12472(18)
H22 H 0.3779 0.3692 0.0916
C29 C 0.34882(8) 0.3245(6) 0.16578(18)
H23 H 0.3389 0.4549 0.1590
C30 C 0.45061(8) 0.1088(6) 0.11922(19)
C31 C 0.44925(10) 0.3536(7) 0.1259(2)
H24 H 0.4673 0.4047 0.1487
H25 H 0.4322 0.3930 0.1517
H26 H 0.4474 0.4172 0.0814
C32 C 0.47556(9) 0.0386(8) 0.0724(2)
H27 H 0.4946 0.0862 0.0912
H28 H 0.4721 0.1013 0.0282
H29 H 0.4756 -0.1156 0.0686
C33 C 0.45539(10) 0.0049(8) 0.1882(2)
H30 H 0.4734 0.0614 0.2100
H31 H 0.4573 -0.1481 0.1829
H32 H 0.4385 0.0355 0.2157
O1 O 0.27228(6) -0.1747(4) 0.41875(13)
S1 S 0.09613(2) 0.07058(18) 0.68081(5)
S2 S 0.41619(2) 0.00548(19) 0.07648(5)
loop_
_geom_bond_atom_site_label_1
_geom_bond_atom_site_label_2
_geom_bond_site_symmetry_1
_geom_bond_site_symmetry_2
C1 H1 1_555 1_555
H2 C1 1_555 1_555
H3 C1 1_555 1_555
C2 H4 1_555 1_555
H5 C2 1_555 1_555
H6 C2 1_555 1_555
C3 H7 1_555 1_555
H8 C3 1_555 1_555
H9 C3 1_555 1_555
C4 C1 1_555 1_555
C5 H10 1_555 1_555
C6 C5 1_555 1_555
H11 C6 1_555 1_555
C7 C6 1_555 1_555
C8 C7 1_555 1_555
H12 C8 1_555 1_555
C9 C8 1_555 1_555
H13 C9 1_555 1_555
C10 C5 1_555 1_555
C11 C10 1_555 1_555
C12 C11 1_555 1_555
H14 C12 1_555 1_555
C13 C12 1_555 1_555
H15 C13 1_555 1_555
C14 C13 1_555 1_555
C15 C14 1_555 1_555
C16 C11 1_555 1_555
H16 C16 1_555 1_555
C17 C15 1_555 1_555
C18 C17 1_555 1_555
C19 C14 1_555 1_555
C20 C19 1_555 1_555
H17 C20 1_555 1_555
C21 C20 1_555 1_555
H18 C21 1_555 1_555
C22 C21 1_555 1_555
C23 C18 1_555 1_555
H19 C23 1_555 1_555
C24 C22 1_555 1_555
C25 C24 1_555 1_555
H20 C25 1_555 1_555
C26 C25 1_555 1_555
H21 C26 1_555 1_555
C27 C26 1_555 1_555
C28 C27 1_555 1_555
H22 C28 1_555 1_555
C29 C24 1_555 1_555
H23 C29 1_555 1_555
C30 C31 1_555 1_555
C31 H24 1_555 1_555
H25 C31 1_555 1_555
H26 C31 1_555 1_555
C32 C30 1_555 1_555
H27 C32 1_555 1_555
H28 C32 1_555 1_555
H29 C32 1_555 1_555
C33 C30 1_555 1_555
H30 C33 1_555 1_555
H31 C33 1_555 1_555
H32 C33 1_555 1_555
O1 C17 1_555 1_555
S1 C4 1_555 1_555
S2 C27 1_555 1_555
C2 C4 1_555 1_555
C3 C4 1_555 1_555
C7 S1 1_555 1_555
C9 C10 1_555 1_555
C15 C16 1_555 1_555
C18 C19 1_555 1_555
C22 C23 1_555 1_555
C28 C29 1_555 1_555
C30 S2 1_555 1_555

#END
