
#######################################################################
#
#                 Cambridge Crystallographic Data Centre
#                                CCDC 
#
#######################################################################
#
# If this CIF has been generated from an entry in the Cambridge 
# Structural Database, then it will include bibliographic, chemical, 
# crystal, experimental, refinement or atomic coordinate data resulting 
# from the CCDC's data processing and validation procedures.
#
#######################################################################

data_HICVUL01
_chemical_name_common            '4-Oxo-4-(2-pyridinylamino)butanoic acid'
_chemical_formula_moiety         'C9 H10 N2 O3'
_chemical_name_systematic        '3-(2-Pyridylaminocarbonyl)propanoic acid'
_symmetry_cell_setting           monoclinic
_symmetry_space_group_name_H-M   'P 21/n'
_symmetry_Int_Tables_number      14
_space_group_name_Hall           '-P 2yn'
loop_
_symmetry_equiv_pos_site_id
_symmetry_equiv_pos_as_xyz
1 x,y,z
2 1/2-x,1/2+y,1/2-z
3 -x,-y,-z
4 1/2+x,1/2-y,1/2+z
_cell_length_a                   12.7384(10)
_cell_length_b                   5.0485(5)
_cell_length_c                   13.8463(12)
_cell_angle_alpha                90
_cell_angle_beta                 92.924(8)
_cell_angle_gamma                90
_cell_volume                     889.294
_exptl_crystal_colour            colorless
_exptl_crystal_description       prism
_chemical_melting_point          '454-455 K'
_cell_formula_units_Z            4
_exptl_crystal_recrystallization_method methanol
loop_
_atom_site_label
_atom_site_type_symbol
_atom_site_fract_x
_atom_site_fract_y
_atom_site_fract_z
O1 O 0.44178(10) 0.2594(3) 0.58044(9)
H1 H 0.4642(15) 0.145(4) 0.6323(13)
O2 O 0.34511(10) 0.4177(3) 0.69759(9)
O3 O 0.12611(10) 0.3483(3) 0.52083(9)
N1 N 0.08391(12) 0.5393(3) 0.66376(11)
N2 N -0.02347(12) 0.4254(3) 0.78432(11)
C1 C 0.37059(14) 0.4218(4) 0.61433(13)
C2 C 0.32399(15) 0.6117(4) 0.54040(13)
H2 H 0.3090 0.5171 0.4786
H3 H 0.3753 0.7541 0.5288
C3 C 0.22283(14) 0.7334(4) 0.57436(13)
H4 H 0.2367 0.8194 0.6380
H5 H 0.1972 0.8703 0.5277
C4 C 0.14010(14) 0.5211(4) 0.58271(13)
C5 C 0.00578(14) 0.3716(4) 0.69450(13)
C6 C -0.04012(15) 0.1661(4) 0.63919(13)
H6 H -0.0190 0.1317 0.5756
C7 C -0.11649(15) 0.0153(4) 0.67911(14)
H7 H -0.1484 -0.1261 0.6431
C8 C -0.14707(15) 0.0686(4) 0.77148(13)
H8 H -0.1999 -0.0338 0.7999
C9 C -0.09839(15) 0.2750(4) 0.82096(13)
H9 H -0.1190 0.3126 0.8845
H10 H 0.1087(16) 0.673(4) 0.7090(14)
loop_
_geom_bond_atom_site_label_1
_geom_bond_atom_site_label_2
_geom_bond_site_symmetry_1
_geom_bond_site_symmetry_2
O1 H1 1_555 1_555
O2 C1 1_555 1_555
O3 C4 1_555 1_555
N1 C4 1_555 1_555
N2 C5 1_555 1_555
C1 O1 1_555 1_555
C2 C1 1_555 1_555
H2 C2 1_555 1_555
H3 C2 1_555 1_555
C3 C2 1_555 1_555
H4 C3 1_555 1_555
H5 C3 1_555 1_555
C4 C3 1_555 1_555
C5 N1 1_555 1_555
C6 C5 1_555 1_555
H6 C6 1_555 1_555
C7 C6 1_555 1_555
H7 C7 1_555 1_555
C8 C7 1_555 1_555
H8 C8 1_555 1_555
C9 N2 1_555 1_555
H9 C9 1_555 1_555
H10 N1 1_555 1_555
C8 C9 1_555 1_555

#END
