
#######################################################################
#
#                 Cambridge Crystallographic Data Centre
#                                CCDC 
#
#######################################################################
#
# If this CIF has been generated from an entry in the Cambridge 
# Structural Database, then it will include bibliographic, chemical, 
# crystal, experimental, refinement or atomic coordinate data resulting 
# from the CCDC's data processing and validation procedures.
#
#######################################################################

data_HICVAR
_chemical_name_common            
'5,11,17,23-Tetra-t-butyl-25,27-dihydroxy-26,28-(6-oxa-3,9-diselenaundeca-1,11-dioxy)calix(4)arene dichloromethane clathrate'
_chemical_formula_moiety         'C52 H70 O5 Se2,C1 H2 Cl2'
_chemical_name_systematic        
'5,11,17,23-Tetra-t-butyl-25,27-dihydroxy-26,28-(6-oxa-3,9-diselenaundeca-1,11-dioxy)pentacyclo(19.3.1.1^3,7^.1^9,13^.1^15,19^)octacosa-1(25),3,5,7(28),9,11,13(27),15,17,19(26),21,23-dodecaene dichloromethane clathrate'
_symmetry_cell_setting           monoclinic
_symmetry_space_group_name_H-M   'P 21/c'
_symmetry_Int_Tables_number      14
_space_group_name_Hall           '-P 2ybc'
loop_
_symmetry_equiv_pos_site_id
_symmetry_equiv_pos_as_xyz
1 x,y,z
2 -x,1/2+y,1/2-z
3 -x,-y,-z
4 x,1/2-y,1/2+z
_cell_length_a                   18.512(9)
_cell_length_b                   12.693(6)
_cell_length_c                   23.166(11)
_cell_angle_alpha                90
_cell_angle_beta                 97.339(9)
_cell_angle_gamma                90
_cell_volume                     5398.79
_exptl_crystal_colour            white
_chemical_melting_point          '289-290 deg.C'
_cell_formula_units_Z            4
_exptl_crystal_recrystallization_method dichloromethane/methanol
loop_
_atom_site_label
_atom_site_type_symbol
_atom_site_fract_x
_atom_site_fract_y
_atom_site_fract_z
Se1 Se 0.009107(18) 0.89057(3) 0.412676(14)
Se2 Se -0.08147(3) 0.50837(4) 0.617329(19)
C1 C -0.04768(18) 0.6158(3) 0.56735(18)
O1 O 0.05518(8) 0.58386(14) 0.71376(7)
O2 O 0.11705(9) 0.55491(16) 0.61325(8)
O3 O 0.12827(9) 0.76888(14) 0.56474(7)
O4 O 0.09614(8) 0.80354(14) 0.67624(7)
O5 O -0.07596(13) 0.7544(2) 0.50545(12)
C3 C 0.13623(12) 0.64086(19) 0.79752(10)
C4 C 0.19107(13) 0.6134(2) 0.84166(10)
H1 H 0.2038 0.6626 0.8710
C5 C 0.22834(14) 0.5183(2) 0.84532(11)
C6 C 0.20876(14) 0.4471(2) 0.79933(10)
H2 H 0.2334 0.3833 0.7990
C7 C 0.15362(14) 0.46935(19) 0.75442(10)
C8 C 0.11518(12) 0.5646(2) 0.75555(10)
C9 C 0.28370(16) 0.4924(2) 0.89664(12)
C10 C 0.31823(19) 0.3879(3) 0.89466(16)
H3 H 0.2819 0.3340 0.8951
H4 H 0.3545 0.3797 0.9279
H5 H 0.3407 0.3819 0.8597
C11 C 0.2542(2) 0.5101(4) 0.95271(15)
H6 H 0.2148 0.4621 0.9557
H7 H 0.2369 0.5812 0.9541
H8 H 0.2920 0.4984 0.9845
C12 C 0.3490(2) 0.5724(4) 0.8973(2)
H9 H 0.3310 0.6432 0.8984
H10 H 0.3721 0.5629 0.8628
H11 H 0.3838 0.5598 0.9310
C13 C 0.13767(15) 0.3924(2) 0.70318(11)
H12 H 0.1427 0.3207 0.7177
H13 H 0.0878 0.4018 0.6854
C14 C 0.18858(14) 0.4086(2) 0.65731(10)
C15 C 0.25051(14) 0.3460(2) 0.65675(11)
H14 H 0.2599 0.2951 0.6856
C16 C 0.29930(11) 0.35482(18) 0.61563(10)
C17 C 0.28145(14) 0.4351(2) 0.57359(11)
H15 H 0.3114 0.4437 0.5446
C18 C 0.22150(14) 0.5021(2) 0.57330(10)
C19 C 0.17503(13) 0.4894(2) 0.61510(11)
C20 C 0.36470(11) 0.28395(14) 0.61347(7)
C21 C 0.3798(2) 0.2209(3) 0.66558(12)
H16 H 0.4208 0.1761 0.6623
H17 H 0.3380 0.1785 0.6703
H18 H 0.3905 0.2664 0.6987
C22 C 0.3477(2) 0.2124(3) 0.56433(13)
H19 H 0.3880 0.1656 0.5622
H20 H 0.3388 0.2523 0.5290
H21 H 0.3051 0.1721 0.5695
C23 C 0.42797(14) 0.3460(3) 0.60352(17)
H22 H 0.4689 0.3002 0.6020
H23 H 0.4389 0.3957 0.6347
H24 H 0.4178 0.3832 0.5673
C27 C 0.20777(15) 0.5900(2) 0.52852(11)
H34 H 0.1557 0.6011 0.5193
H35 H 0.2267 0.5692 0.4930
C28 C 0.24391(12) 0.6928(2) 0.55095(10)
C29 C 0.31910(14) 0.7031(2) 0.55611(11)
H36 H 0.3454 0.6489 0.5416
C30 C 0.35884(11) 0.7907(2) 0.58208(11)
C31 C 0.31428(13) 0.8672(2) 0.60305(11)
H37 H 0.3369 0.9263 0.6210
C32 C 0.23853(13) 0.8614(2) 0.59907(10)
C33 C 0.20504(12) 0.7753(2) 0.56990(10)
C34 C 0.43887(11) 0.80151(13) 0.58746(7)
C35 C 0.4724(2) 0.6990(2) 0.5843(2)
H38 H 0.5244 0.7071 0.5873
H39 H 0.4549 0.6664 0.5478
H40 H 0.4603 0.6557 0.6156
C36 C 0.4593(2) 0.8644(3) 0.54026(13)
H41 H 0.5114 0.8714 0.5444
H42 H 0.4375 0.9330 0.5412
H43 H 0.4427 0.8308 0.5039
C37 C 0.4671(3) 0.8489(3) 0.64275(13)
H44 H 0.5189 0.8563 0.6450
H45 H 0.4555 0.8047 0.6739
H46 H 0.4453 0.9170 0.6459
C41 C 0.19719(14) 0.9445(2) 0.62887(12)
H56 H 0.2188 1.0130 0.6238
H57 H 0.1471 0.9467 0.6104
C42 C 0.19803(12) 0.92307(19) 0.69290(11)
C43 C 0.25163(12) 0.9683(2) 0.73440(13)
H58 H 0.2837 1.0154 0.7204
C44 C 0.26143(11) 0.94968(18) 0.79367(10)
C45 C 0.20959(12) 0.88044(19) 0.81064(11)
H59 H 0.2119 0.8665 0.8502
C46 C 0.15477(12) 0.83016(19) 0.77402(10)
C47 C 0.15054(12) 0.85197(19) 0.71407(10)
C48 C 0.32054(10) 0.99961(14) 0.83335(8)
C49 C 0.3238(3) 0.9645(4) 0.89201(11)
H60 H 0.3629 0.9996 0.9156
H61 H 0.3319 0.8898 0.8936
H62 H 0.2786 0.9803 0.9064
C50 C 0.3091(3) 1.1130(2) 0.8285(2)
H63 H 0.3466 1.1488 0.8535
H64 H 0.2624 1.1304 0.8399
H65 H 0.3106 1.1346 0.7890
C51 C 0.39076(13) 0.9813(4) 0.81244(17)
H66 H 0.4287 1.0146 0.8383
H67 H 0.3898 1.0104 0.7741
H68 H 0.3999 0.9070 0.8112
C55 C 0.10376(12) 0.74995(18) 0.79547(11)
H78 H 0.0936 0.7697 0.8341
H79 H 0.0580 0.7499 0.7698
C56 C -0.01216(13) 0.5506(2) 0.73432(12)
H80 H -0.0161 0.5825 0.7718
H81 H -0.0122 0.4747 0.7390
C57 C -0.07480(15) 0.5829(2) 0.69186(12)
C58 C -0.10961(15) 0.6884(3) 0.54070(12)
C59 C -0.11546(19) 0.7881(4) 0.45631(15)
H82 H -0.1381 0.8546 0.4642
H83 H -0.1541 0.7377 0.4451
C60 C -0.07520(16) 0.8020(3) 0.40900(15)
H84 H -0.1093 0.8273 0.3767
H85 H -0.0600 0.7323 0.3982
C61 C 0.07941(18) 0.7976(3) 0.47241(18)
H86 H 0.0593 0.7283 0.4781
H87 H 0.1277 0.7907 0.4608
C62 C 0.0792(2) 0.8539(3) 0.51542(18)
H88 H 0.0304 0.8670 0.5248
H89 H 0.1042 0.9202 0.5116
C63 C 0.66127(13) 0.07999(18) 0.79068(12)
Cl1 Cl 0.67818(8) 0.20294(11) 0.76174(7)
Cl2 Cl 0.57486(9) 0.04450(14) 0.75723(8)
Se3? Se -0.09633(9) 0.72923(15) 0.68252(7)
C2? C -0.0702(4) 0.7159(10) 0.60153(15)
C24? C 0.4143(2) 0.3096(6) 0.66482(15)
H25? H 0.4570 0.2663 0.6662
H26? H 0.3909 0.2970 0.6989
H27? H 0.4280 0.3824 0.6635
C25? C 0.3413(3) 0.1769(2) 0.6162(3)
H28? H 0.3822 0.1308 0.6148
H29? H 0.3050 0.1624 0.5837
H30? H 0.3210 0.1656 0.6518
C26? C 0.3969(2) 0.3068(6) 0.56206(13)
H31? H 0.4378 0.2610 0.5601
H32? H 0.4130 0.3787 0.5631
H33? H 0.3616 0.2959 0.5285
C38? C 0.4709(2) 0.7291(3) 0.54992(15)
H47? H 0.5226 0.7394 0.5541
H48? H 0.4508 0.7416 0.5102
H49? H 0.4604 0.6581 0.5605
C39? C 0.4582(3) 0.9075(2) 0.5717(2)
H50? H 0.5103 0.9138 0.5752
H51? H 0.4395 0.9572 0.5973
H52? H 0.4377 0.9218 0.5323
C40? C 0.4717(3) 0.7795(4) 0.64631(12)
H53? H 0.5236 0.7877 0.6489
H54? H 0.4605 0.7085 0.6564
H55? H 0.4529 0.8276 0.6727
C52? C 0.3527(3) 0.9202(3) 0.87471(17)
H69? H 0.3913 0.9516 0.9007
H70? H 0.3719 0.8635 0.8539
H71? H 0.3161 0.8935 0.8967
C53? C 0.2895(2) 1.0782(3) 0.86845(16)
H72? H 0.3278 1.1114 0.8940
H73? H 0.2560 1.0449 0.8911
H74? H 0.2642 1.1303 0.8435
C54? C 0.37777(17) 1.0454(4) 0.80565(18)
H75? H 0.4133 1.0763 0.8346
H76? H 0.3579 1.0989 0.7789
H77? H 0.4005 0.9919 0.7849
C64? C 0.5912(2) 0.1682(3) 0.7273(3)
loop_
_geom_bond_atom_site_label_1
_geom_bond_atom_site_label_2
_geom_bond_site_symmetry_1
_geom_bond_site_symmetry_2
Se1 C60 1_555 1_555
Se2 C1 1_555 1_555
C1 C58 1_555 1_555
O1 C8 1_555 1_555
O2 C19 1_555 1_555
O3 C33 1_555 1_555
O4 C47 1_555 1_555
O5 C58 1_555 1_555
C3 C4 1_555 1_555
C4 H1 1_555 1_555
C5 C4 1_555 1_555
C6 C5 1_555 1_555
H2 C6 1_555 1_555
C7 C6 1_555 1_555
C8 C3 1_555 1_555
C9 C5 1_555 1_555
C10 C9 1_555 1_555
H3 C10 1_555 1_555
H4 C10 1_555 1_555
H5 C10 1_555 1_555
C11 C9 1_555 1_555
H6 C11 1_555 1_555
H7 C11 1_555 1_555
H8 C11 1_555 1_555
C12 C9 1_555 1_555
H9 C12 1_555 1_555
H10 C12 1_555 1_555
H11 C12 1_555 1_555
C13 C7 1_555 1_555
H12 C13 1_555 1_555
H13 C13 1_555 1_555
C14 C13 1_555 1_555
C15 C14 1_555 1_555
H14 C15 1_555 1_555
C16 C15 1_555 1_555
C17 C16 1_555 1_555
H15 C17 1_555 1_555
C18 C17 1_555 1_555
C19 C14 1_555 1_555
C20 C16 1_555 1_555
C21 C20 1_555 1_555
H16 C21 1_555 1_555
H17 C21 1_555 1_555
H18 C21 1_555 1_555
C22 C20 1_555 1_555
H19 C22 1_555 1_555
H20 C22 1_555 1_555
H21 C22 1_555 1_555
C23 C20 1_555 1_555
H22 C23 1_555 1_555
H23 C23 1_555 1_555
H24 C23 1_555 1_555
C27 C18 1_555 1_555
H34 C27 1_555 1_555
H35 C27 1_555 1_555
C28 C27 1_555 1_555
C29 C28 1_555 1_555
H36 C29 1_555 1_555
C30 C29 1_555 1_555
C31 C30 1_555 1_555
H37 C31 1_555 1_555
C32 C31 1_555 1_555
C33 C28 1_555 1_555
C34 C30 1_555 1_555
C35 C34 1_555 1_555
H38 C35 1_555 1_555
H39 C35 1_555 1_555
H40 C35 1_555 1_555
C36 C34 1_555 1_555
H41 C36 1_555 1_555
H42 C36 1_555 1_555
H43 C36 1_555 1_555
C37 C34 1_555 1_555
H44 C37 1_555 1_555
H45 C37 1_555 1_555
H46 C37 1_555 1_555
C41 C32 1_555 1_555
H56 C41 1_555 1_555
H57 C41 1_555 1_555
C42 C41 1_555 1_555
C43 C42 1_555 1_555
H58 C43 1_555 1_555
C44 C43 1_555 1_555
C45 C44 1_555 1_555
H59 C45 1_555 1_555
C46 C45 1_555 1_555
C47 C42 1_555 1_555
C48 C44 1_555 1_555
C49 C48 1_555 1_555
H60 C49 1_555 1_555
H61 C49 1_555 1_555
H62 C49 1_555 1_555
C50 C48 1_555 1_555
H63 C50 1_555 1_555
H64 C50 1_555 1_555
H65 C50 1_555 1_555
C51 C48 1_555 1_555
H66 C51 1_555 1_555
H67 C51 1_555 1_555
H68 C51 1_555 1_555
C55 C3 1_555 1_555
H78 C55 1_555 1_555
H79 C55 1_555 1_555
C56 O1 1_555 1_555
H80 C56 1_555 1_555
H81 C56 1_555 1_555
C57 Se2 1_555 1_555
C59 O5 1_555 1_555
H82 C59 1_555 1_555
H83 C59 1_555 1_555
C60 C59 1_555 1_555
H84 C60 1_555 1_555
H85 C60 1_555 1_555
C61 Se1 1_555 1_555
H86 C61 1_555 1_555
H87 C61 1_555 1_555
C62 O3 1_555 1_555
H88 C62 1_555 1_555
H89 C62 1_555 1_555
C63 Cl1 1_555 1_555
Cl2 C63 1_555 1_555
C7 C8 1_555 1_555
C18 C19 1_555 1_555
C32 C33 1_555 1_555
C46 C47 1_555 1_555
C46 C55 1_555 1_555
C56 C57 1_555 1_555
C61 C62 1_555 1_555

#END
