
#######################################################################
#
#                 Cambridge Crystallographic Data Centre
#                                CCDC 
#
#######################################################################
#
# If this CIF has been generated from an entry in the Cambridge 
# Structural Database, then it will include bibliographic, chemical, 
# crystal, experimental, refinement or atomic coordinate data resulting 
# from the CCDC's data processing and validation procedures.
#
#######################################################################

data_HICVUL
_chemical_formula_moiety         'C9 H10 N2 O3'
_chemical_name_systematic        '4-Oxo-4-(2-pyridylamino)butanoic acid'
_symmetry_cell_setting           triclinic
_symmetry_space_group_name_H-M   'P -1'
_symmetry_Int_Tables_number      2
_space_group_name_Hall           '-P 1'
loop_
_symmetry_equiv_pos_site_id
_symmetry_equiv_pos_as_xyz
1 x,y,z
2 -x,-y,-z
_cell_length_a                   5.0825(8)
_cell_length_b                   13.1263(16)
_cell_length_c                   13.8157(18)
_cell_angle_alpha                88.705(10)
_cell_angle_beta                 89.497(12)
_cell_angle_gamma                88.337(10)
_cell_volume                     921.052
_exptl_crystal_colour            colorless
_exptl_crystal_description       plate
_cell_formula_units_Z            4
_exptl_crystal_recrystallization_method water
loop_
_atom_site_label
_atom_site_type_symbol
_atom_site_fract_x
_atom_site_fract_y
_atom_site_fract_z
O1 O 0.3611(5) 0.14604(19) 0.98109(17)
O2 O 0.4167(5) 0.34824(19) 0.79920(16)
O3 O 0.2818(5) 0.4555(2) 0.91164(18)
H1 H 0.1800 0.4749 0.8689
N1 N 0.4283(5) -0.0088(2) 0.71752(19)
N2 N 0.5466(5) 0.0972(2) 0.83759(18)
H3 H 0.6772 0.1089 0.7994
C1 C 0.3809(6) 0.0208(2) 0.8089(2)
C2 C 0.1876(7) -0.0225(3) 0.8665(2)
H5 H 0.1607 -0.0015 0.9297
C3 C 0.0371(7) -0.0964(3) 0.8290(3)
H6 H -0.0938 -0.1262 0.8666
C4 C 0.0806(7) -0.1266(3) 0.7350(3)
H7 H -0.0207 -0.1763 0.7078
C5 C 0.2771(7) -0.0813(3) 0.6829(3)
H8 H 0.3076 -0.1021 0.6198
C6 C 0.5305(7) 0.1564(3) 0.9186(2)
C7 C 0.7397(6) 0.2344(3) 0.9233(2)
H9 H 0.8245 0.2415 0.8604
H10 H 0.8723 0.2119 0.9697
C8 C 0.6216(7) 0.3371(3) 0.9529(2)
H11 H 0.5326 0.3292 1.0149
H12 H 0.7620 0.3847 0.9608
C9 C 0.4308(7) 0.3800(3) 0.8802(2)
O4 O 0.8241(5) 0.3775(2) 0.52393(17)
O5 O 0.9077(5) 0.16267(19) 0.69508(16)
O6 O 0.7470(5) 0.06905(19) 0.57885(16)
H2 H 0.6565 0.0472 0.6237
N3 N 0.9430(6) 0.5357(2) 0.7809(2)
N4 N 1.0287(6) 0.4208(2) 0.66310(19)
H4 H 1.1604 0.4041 0.6994
C10 C 0.8720(6) 0.5029(3) 0.6940(2)
C11 C 0.6628(7) 0.5473(3) 0.6429(3)
H13 H 0.6163 0.5226 0.5830
C12 C 0.5271(8) 0.6273(3) 0.6818(3)
H14 H 0.3859 0.6576 0.6486
C13 C 0.5985(8) 0.6639(3) 0.7707(3)
H15 H 0.5094 0.7192 0.7980
C14 C 0.8063(7) 0.6150(3) 0.8171(3)
H16 H 0.8549 0.6385 0.8772
C15 C 1.0010(7) 0.3632(3) 0.5828(2)
C16 C 1.2066(7) 0.2795(3) 0.5712(2)
H17 H 1.2924 0.2657 0.6328
H18 H 1.3392 0.3014 0.5250
C17 C 1.0849(7) 0.1828(3) 0.5366(2)
H19 H 0.9871 0.1980 0.4778
H20 H 1.2238 0.1333 0.5214
C18 C 0.9049(7) 0.1379(2) 0.6111(2)
loop_
_geom_bond_atom_site_label_1
_geom_bond_atom_site_label_2
_geom_bond_site_symmetry_1
_geom_bond_site_symmetry_2
O1 C6 1_555 1_555
O2 C9 1_555 1_555
O3 H1 1_555 1_555
O4 C15 1_555 1_555
O5 C18 1_555 1_555
O6 H2 1_555 1_555
N1 C1 1_555 1_555
N2 H3 1_555 1_555
N3 C10 1_555 1_555
N4 H4 1_555 1_555
C1 N2 1_555 1_555
C2 C1 1_555 1_555
H5 C2 1_555 1_555
C3 C2 1_555 1_555
H6 C3 1_555 1_555
C4 C3 1_555 1_555
H7 C4 1_555 1_555
C5 N1 1_555 1_555
H8 C5 1_555 1_555
C6 N2 1_555 1_555
C7 C6 1_555 1_555
H9 C7 1_555 1_555
H10 C7 1_555 1_555
C8 C7 1_555 1_555
H11 C8 1_555 1_555
H12 C8 1_555 1_555
C9 O3 1_555 1_555
C10 N4 1_555 1_555
C11 C10 1_555 1_555
H13 C11 1_555 1_555
C12 C11 1_555 1_555
H14 C12 1_555 1_555
C13 C12 1_555 1_555
H15 C13 1_555 1_555
C14 N3 1_555 1_555
H16 C14 1_555 1_555
C15 N4 1_555 1_555
C16 C15 1_555 1_555
H17 C16 1_555 1_555
H18 C16 1_555 1_555
C17 C16 1_555 1_555
H19 C17 1_555 1_555
H20 C17 1_555 1_555
C18 O6 1_555 1_555
C4 C5 1_555 1_555
C8 C9 1_555 1_555
C13 C14 1_555 1_555
C17 C18 1_555 1_555

#END
