
#######################################################################
#
#                 Cambridge Crystallographic Data Centre
#                                CCDC 
#
#######################################################################
#
# If this CIF has been generated from an entry in the Cambridge 
# Structural Database, then it will include bibliographic, chemical, 
# crystal, experimental, refinement or atomic coordinate data resulting 
# from the CCDC's data processing and validation procedures.
#
#######################################################################

data_HICYUQ
_chemical_formula_moiety         'C28 H43 N1 O7 S1 Si1'
_chemical_name_systematic        
4-methyl-N-phenyl-N-[3,4,5-trihydroxy-6-({[tris(propan-2-yl)silyl]oxy}methyl)oxan-2-yl]benzene-1-sulfonamide
_symmetry_cell_setting           orthorhombic
_symmetry_space_group_name_H-M   'P 21 21 21'
_symmetry_Int_Tables_number      19
_space_group_name_Hall           'P 2ac 2ab'
loop_
_symmetry_equiv_pos_site_id
_symmetry_equiv_pos_as_xyz
1 x,y,z
2 1/2-x,-y,1/2+z
3 -x,1/2+y,1/2-z
4 1/2+x,1/2-y,-z
_cell_length_a                   9.7568(4)
_cell_length_b                   10.8762(5)
_cell_length_c                   27.8631(12)
_cell_angle_alpha                90
_cell_angle_beta                 90
_cell_angle_gamma                90
_cell_volume                     2956.75
_exptl_crystal_colour            colorless
_exptl_crystal_description       plate
_cell_formula_units_Z            4
loop_
_atom_site_label
_atom_site_type_symbol
_atom_site_fract_x
_atom_site_fract_y
_atom_site_fract_z
N1 N 0.29868(16) 0.43952(14) 0.45856(5)
S1 S 0.22355(4) 0.53263(4) 0.49737(2)
Si1 Si 0.65875(5) 0.76248(5) 0.31220(2)
O1 O 0.08618(14) 0.48736(12) 0.50408(5)
O2 O 0.31188(15) 0.54285(13) 0.53816(5)
O3 O 0.49645(13) 0.53929(12) 0.42999(5)
O4 O 0.44826(15) 0.22182(14) 0.46742(6)
H1 H 0.501(3) 0.169(3) 0.4748(11)
O5 O 0.69548(15) 0.33698(14) 0.49244(5)
H2 H 0.772(3) 0.312(3) 0.4990(10)
O6 O 0.69247(15) 0.41011(14) 0.36528(5)
H3 H 0.668(3) 0.477(3) 0.3538(10)
O7 O 0.64070(15) 0.65866(13) 0.35592(5)
C1 C 0.1739(3) 1.0237(2) 0.39770(8)
H4 H 0.190765 1.012714 0.363292
H5 H 0.241330 1.081232 0.410936
H6 H 0.081427 1.056500 0.402545
C2 C 0.1867(2) 0.90157(18) 0.42280(7)
C3 C 0.0828(2) 0.8145(2) 0.41922(7)
H7 H 0.003429 0.832829 0.400795
C4 C 0.0927(2) 0.70206(19) 0.44190(7)
H8 H 0.021436 0.643016 0.438939
C5 C 0.2086(2) 0.67658(16) 0.46912(7)
C6 C 0.31476(19) 0.76154(18) 0.47339(7)
H9 H 0.394025 0.742920 0.491816
C7 C 0.3024(2) 0.87378(18) 0.45023(7)
H10 H 0.373817 0.932725 0.453046
C8 C 0.1146(2) 0.33512(18) 0.41562(8)
H11 H 0.095650 0.289857 0.444020
C9 C 0.0338(2) 0.31906(19) 0.37478(8)
H12 H -0.041130 0.263304 0.375499
C10 C 0.0622(2) 0.3839(2) 0.33322(8)
H13 H 0.006400 0.373503 0.305582
C11 C 0.1726(2) 0.4641(2) 0.33215(7)
H14 H 0.193593 0.506935 0.303352
C12 C 0.2530(2) 0.48266(19) 0.37280(7)
H15 H 0.327469 0.538884 0.372076
C13 C 0.2228(2) 0.41790(17) 0.41436(7)
C14 C 0.44795(19) 0.43966(17) 0.45858(7)
H16 H 0.479(2) 0.450(2) 0.4902(9)
C15 C 0.50480(19) 0.31834(17) 0.43958(7)
H17 H 0.482(3) 0.310(2) 0.4061(9)
C16 C 0.6624(2) 0.32465(18) 0.44308(7)
H18 H 0.701(3) 0.247(2) 0.4293(9)
C17 C 0.7144(2) 0.43607(17) 0.41467(7)
H19 H 0.812(3) 0.444(2) 0.4217(8)
C18 C 0.64251(19) 0.55271(18) 0.43229(6)
H20 H 0.671(3) 0.568(2) 0.4648(9)
C19 C 0.6786(2) 0.66910(18) 0.40516(7)
H21 H 0.630227 0.739862 0.419761
H22 H 0.778354 0.684335 0.407593
C20 C 0.4958(2) 0.7463(2) 0.27636(8)
H23 H 0.496(3) 0.660(3) 0.2689(10)
C21 C 0.3639(2) 0.7753(2) 0.30392(10)
H24 H 0.355872 0.864464 0.308271
H25 H 0.366700 0.735094 0.335369
H26 H 0.284850 0.745041 0.285748
C22 C 0.4998(3) 0.8158(3) 0.22844(9)
H27 H 0.415870 0.798746 0.210330
H28 H 0.579504 0.788716 0.209805
H29 H 0.506750 0.904307 0.234584
C23 C 0.6952(2) 0.91840(19) 0.33936(7)
H30 H 0.762(3) 0.904(2) 0.3637(9)
C24 C 0.5718(3) 0.9787(2) 0.36416(9)
H31 H 0.603103 1.049071 0.383212
H32 H 0.527250 0.918715 0.385251
H33 H 0.506379 1.006870 0.339850
C25 C 0.7587(3) 1.0110(2) 0.30402(8)
H34 H 0.693890 1.027361 0.277934
H35 H 0.843515 0.976738 0.290711
H36 H 0.779295 1.087849 0.320911
C26 C 0.8075(2) 0.7143(2) 0.27322(7)
H37 H 0.809(3) 0.776(3) 0.2475(9)
C27 C 0.7866(3) 0.5878(2) 0.24999(9)
H38 H 0.865005 0.568735 0.229305
H39 H 0.702547 0.588679 0.230723
H40 H 0.778797 0.525041 0.275095
C28 C 0.9445(2) 0.7177(2) 0.30003(9)
H41 H 0.943021 0.657348 0.326145
H42 H 0.959014 0.800069 0.313344
H43 H 1.019015 0.697866 0.277765
loop_
_geom_bond_atom_site_label_1
_geom_bond_atom_site_label_2
_geom_bond_site_symmetry_1
_geom_bond_site_symmetry_2
N1 S1 1_555 1_555
S1 O1 1_555 1_555
Si1 O7 1_555 1_555
O2 S1 1_555 1_555
O3 C14 1_555 1_555
O4 H1 1_555 1_555
O5 H2 1_555 1_555
O6 H3 1_555 1_555
O7 C19 1_555 1_555
C1 H4 1_555 1_555
H5 C1 1_555 1_555
H6 C1 1_555 1_555
C2 C1 1_555 1_555
C3 C2 1_555 1_555
H7 C3 1_555 1_555
C4 C3 1_555 1_555
H8 C4 1_555 1_555
C5 S1 1_555 1_555
C6 C5 1_555 1_555
H9 C6 1_555 1_555
C7 C2 1_555 1_555
H10 C7 1_555 1_555
C8 H11 1_555 1_555
C9 C8 1_555 1_555
H12 C9 1_555 1_555
C10 C9 1_555 1_555
H13 C10 1_555 1_555
C11 C10 1_555 1_555
H14 C11 1_555 1_555
C12 C11 1_555 1_555
H15 C12 1_555 1_555
C13 N1 1_555 1_555
C14 N1 1_555 1_555
H16 C14 1_555 1_555
C15 O4 1_555 1_555
H17 C15 1_555 1_555
C16 O5 1_555 1_555
H18 C16 1_555 1_555
C17 O6 1_555 1_555
H19 C17 1_555 1_555
C18 O3 1_555 1_555
H20 C18 1_555 1_555
C19 C18 1_555 1_555
H21 C19 1_555 1_555
H22 C19 1_555 1_555
C20 Si1 1_555 1_555
H23 C20 1_555 1_555
C21 C20 1_555 1_555
H24 C21 1_555 1_555
H25 C21 1_555 1_555
H26 C21 1_555 1_555
C22 C20 1_555 1_555
H27 C22 1_555 1_555
H28 C22 1_555 1_555
H29 C22 1_555 1_555
C23 Si1 1_555 1_555
H30 C23 1_555 1_555
C24 C23 1_555 1_555
H31 C24 1_555 1_555
H32 C24 1_555 1_555
H33 C24 1_555 1_555
C25 C23 1_555 1_555
H34 C25 1_555 1_555
H35 C25 1_555 1_555
H36 C25 1_555 1_555
C26 Si1 1_555 1_555
H37 C26 1_555 1_555
C27 C26 1_555 1_555
H38 C27 1_555 1_555
H39 C27 1_555 1_555
H40 C27 1_555 1_555
C28 C26 1_555 1_555
H41 C28 1_555 1_555
H42 C28 1_555 1_555
H43 C28 1_555 1_555
C4 C5 1_555 1_555
C6 C7 1_555 1_555
C8 C13 1_555 1_555
C12 C13 1_555 1_555
C14 C15 1_555 1_555
C15 C16 1_555 1_555
C16 C17 1_555 1_555
C17 C18 1_555 1_555

#END
