
#######################################################################
#
#                 Cambridge Crystallographic Data Centre
#                                CCDC 
#
#######################################################################
#
# If this CIF has been generated from an entry in the Cambridge 
# Structural Database, then it will include bibliographic, chemical, 
# crystal, experimental, refinement or atomic coordinate data resulting 
# from the CCDC's data processing and validation procedures.
#
#######################################################################

data_HIDFAE
_chemical_formula_moiety         'C21 H18 O3'
_chemical_name_systematic        
5'-hydroxy-3-methoxy-2'-methyl-1,1':3',1''-terphenyl-4'-carbaldehyde
_symmetry_cell_setting           triclinic
_symmetry_space_group_name_H-M   'P -1'
_symmetry_Int_Tables_number      2
_space_group_name_Hall           '-P 1'
loop_
_symmetry_equiv_pos_site_id
_symmetry_equiv_pos_as_xyz
1 x,y,z
2 -x,-y,-z
_cell_length_a                   9.2885(4)
_cell_length_b                   9.7979(4)
_cell_length_c                   10.2169(4)
_cell_angle_alpha                107.6060(10)
_cell_angle_beta                 91.6280(10)
_cell_angle_gamma                112.8550(10)
_cell_volume                     805.339
_exptl_crystal_colour            colorless
_exptl_crystal_description       block
_cell_formula_units_Z            2
loop_
_atom_site_label
_atom_site_type_symbol
_atom_site_fract_x
_atom_site_fract_y
_atom_site_fract_z
O1 O 0.81811(11) 0.55801(10) 0.28538(9)
H1 H 0.802(2) 0.634(3) 0.354(2)
O2 O 0.76457(11) 0.70854(10) 0.51905(9)
O3 O 0.69044(12) -0.19865(11) -0.15566(9)
C1 C 0.77242(13) 0.46022(13) 0.47778(12)
C2 C 0.75629(13) 0.33694(14) 0.52931(11)
C3 C 0.80630(13) 0.44679(14) 0.34226(12)
C4 C 0.81295(13) 0.19490(13) 0.31292(12)
C5 C 0.82876(14) 0.31655(14) 0.26343(12)
H2 H 0.8556 0.3102 0.1734
C6 C 0.77531(14) 0.20343(14) 0.44808(12)
C7 C 0.71000(14) 0.34784(13) 0.67041(12)
C8 C 0.82930(14) 0.05551(14) 0.21438(12)
C9 C 0.76107(15) 0.60341(14) 0.56317(13)
H3 H 0.7504 0.6165 0.6579
C10 C 0.74963(14) -0.00539(14) 0.07708(12)
H4 H 0.6848 0.0396 0.0502
C11 C 0.81604(15) 0.36871(14) 0.78124(12)
H5 H 0.9194 0.3765 0.7681
C12 C 0.76508(15) -0.13131(14) -0.01999(13)
C13 C 0.77132(17) 0.37821(15) 0.91110(13)
H6 H 0.8450 0.3940 0.9866
C14 C 0.92488(15) -0.01050(15) 0.25191(13)
H7 H 0.9805 0.0304 0.3444
C15 C 0.55914(15) 0.33668(16) 0.69248(14)
H8 H 0.4859 0.3238 0.6181
C16 C 0.93884(16) -0.13689(15) 0.15352(14)
H9 H 1.0041 -0.1818 0.1798
C17 C 0.85946(16) -0.19784(15) 0.01857(14)
H10 H 0.8693 -0.2846 -0.0474
C18 C 0.74663(18) 0.06835(15) 0.50128(14)
H11 H 0.7095 -0.0306 0.4223
H12 H 0.6662 0.0626 0.5620
H13 H 0.8456 0.0854 0.5540
C19 C 0.62070(17) 0.36498(16) 0.93163(13)
H14 H 0.5904 0.3702 1.0204
C20 C 0.51471(17) 0.34422(17) 0.82244(15)
H15 H 0.4110 0.3350 0.8360
C21 C 0.60986(18) -0.12257(19) -0.20513(14)
H16 H 0.5694 -0.1780 -0.3049
H17 H 0.6833 -0.0133 -0.1898
H18 H 0.5213 -0.1238 -0.1549
loop_
_geom_bond_atom_site_label_1
_geom_bond_atom_site_label_2
_geom_bond_site_symmetry_1
_geom_bond_site_symmetry_2
O1 H1 1_555 1_555
O2 C9 1_555 1_555
O3 C12 1_555 1_555
C1 C2 1_555 1_555
C2 C6 1_555 1_555
C3 O1 1_555 1_555
C4 C5 1_555 1_555
C5 C3 1_555 1_555
H2 C5 1_555 1_555
C6 C4 1_555 1_555
C7 C2 1_555 1_555
C8 C4 1_555 1_555
C9 C1 1_555 1_555
H3 C9 1_555 1_555
C10 C8 1_555 1_555
H4 C10 1_555 1_555
C11 C7 1_555 1_555
H5 C11 1_555 1_555
C12 C10 1_555 1_555
C13 C11 1_555 1_555
H6 C13 1_555 1_555
C14 C8 1_555 1_555
H7 C14 1_555 1_555
C15 C7 1_555 1_555
H8 C15 1_555 1_555
C16 C14 1_555 1_555
H9 C16 1_555 1_555
C17 C12 1_555 1_555
H10 C17 1_555 1_555
C18 C6 1_555 1_555
H11 C18 1_555 1_555
H12 C18 1_555 1_555
H13 C18 1_555 1_555
C19 C13 1_555 1_555
H14 C19 1_555 1_555
C20 C15 1_555 1_555
H15 C20 1_555 1_555
C21 O3 1_555 1_555
H16 C21 1_555 1_555
H17 C21 1_555 1_555
H18 C21 1_555 1_555
C1 C3 1_555 1_555
C16 C17 1_555 1_555
C19 C20 1_555 1_555

#END
