
#######################################################################
#
#                 Cambridge Crystallographic Data Centre
#                                CCDC 
#
#######################################################################
#
# If this CIF has been generated from an entry in the Cambridge 
# Structural Database, then it will include bibliographic, chemical, 
# crystal, experimental, refinement or atomic coordinate data resulting 
# from the CCDC's data processing and validation procedures.
#
#######################################################################

data_HIDJUA
_chemical_formula_moiety         'C11 H14 N2 O2 S1'
_chemical_name_systematic        N-Ethoxycarbonyl-N'-m-tolylthiourea
_symmetry_cell_setting           triclinic
_symmetry_space_group_name_H-M   'P 1'
_symmetry_Int_Tables_number      1
_space_group_name_Hall           'P 1'
loop_
_symmetry_equiv_pos_site_id
_symmetry_equiv_pos_as_xyz
1 x,y,z
_cell_length_a                   5.8380(10)
_cell_length_b                   9.441(2)
_cell_length_c                   11.595(2)
_cell_angle_alpha                77.15(3)
_cell_angle_beta                 87.89(3)
_cell_angle_gamma                86.22(3)
_cell_volume                     621.555
_exptl_crystal_colour            colorless
_exptl_crystal_description       block
_chemical_melting_point          102-103deg.C
_cell_formula_units_Z            2
_exptl_crystal_recrystallization_method dimethylformamide/ethanol/water
loop_
_atom_site_label
_atom_site_type_symbol
_atom_site_fract_x
_atom_site_fract_y
_atom_site_fract_z
S1 S 0.1362(2) 0.89308(13) 0.15305(12)
N1 N -0.1772(12) 1.1110(7) 0.1693(6)
H1 H -0.3044 1.1420 0.2050
N2 N -0.2177(10) 0.8843(6) 0.2981(5)
H2 H -0.1664 0.7908 0.3226
O1 O -0.4830(10) 0.8125(6) 0.4360(5)
O2 O -0.5049(8) 1.0500(6) 0.3426(5)
C1 C 0.1332(11) 1.2677(9) 0.0856(6)
H3 H 0.2140 1.2371 0.1584
C2 C 0.2106(12) 1.3669(10) -0.0112(9)
H4 H 0.3470 1.4134 -0.0002
C3 C 0.0941(16) 1.4018(8) -0.1170(8)
H5 H 0.1613 1.4652 -0.1842
C4 C -0.0918(11) 1.3507(7) -0.1245(5)
C5 C -0.1899(10) 1.2457(8) -0.0331(6)
H6 H -0.3301 1.2014 -0.0414
C6 C -0.0717(9) 1.2047(6) 0.0707(5)
C7 C -0.2418(19) 1.3911(17) -0.2411(8)
H7 H -0.3826 1.3422 -0.2299
H8 H -0.2754 1.4943 -0.2645
H9 H -0.1494 1.3589 -0.3017
C8 C -0.0911(11) 0.9665(6) 0.2056(5)
C9 C -0.4193(10) 0.9313(7) 0.3561(5)
C10 C -0.6877(16) 0.8348(8) 0.5036(8)
H10 H -0.8193 0.8366 0.4559
H11 H -0.6882 0.9260 0.5273
C11 C -0.701(2) 0.7087(11) 0.6101(12)
H12 H -0.8385 0.7212 0.6560
H13 H -0.7014 0.6182 0.5855
H14 H -0.5695 0.7082 0.6573
S2 S -0.0848(2) 0.53883(13) 0.42621(11)
N3 N 0.2274(8) 0.3295(6) 0.4091(5)
H15 H 0.3464 0.2967 0.3687
N4 N 0.2773(14) 0.5453(6) 0.2814(6)
H16 H 0.2221 0.6380 0.2565
O3 O 0.5340(12) 0.6184(7) 0.1462(6)
O4 O 0.5554(10) 0.3842(7) 0.2419(5)
C12 C -0.0721(15) 0.1682(7) 0.4931(7)
H17 H -0.1566 0.1971 0.4213
C13 C -0.1643(14) 0.0650(10) 0.5817(10)
H18 H -0.3084 0.0238 0.5760
C14 C -0.0454(13) 0.0173(9) 0.6876(7)
H19 H -0.1011 -0.0601 0.7483
C15 C 0.1791(13) 0.0874(8) 0.7098(7)
C16 C 0.2446(12) 0.1901(7) 0.6114(6)
H20 H 0.3843 0.2349 0.6192
C17 C 0.1315(13) 0.2273(6) 0.5033(6)
C18 C 0.284(2) 0.0402(12) 0.8179(8)
H21 H 0.1931 -0.0280 0.8713
H22 H 0.4292 -0.0067 0.8027
H23 H 0.3084 0.1210 0.8528
C19 C 0.1544(12) 0.4611(8) 0.3700(6)
C20 C 0.4630(11) 0.5067(6) 0.2231(6)
C21 C 0.7422(12) 0.6014(8) 0.0773(8)
H24 H 0.7584 0.5047 0.0634
H25 H 0.8770 0.6193 0.1156
C22 C 0.717(2) 0.7074(13) -0.0349(10)
H26 H 0.8470 0.7012 -0.0869
H27 H 0.5807 0.6882 -0.0717
H28 H 0.6999 0.8033 -0.0193
loop_
_geom_bond_atom_site_label_1
_geom_bond_atom_site_label_2
_geom_bond_site_symmetry_1
_geom_bond_site_symmetry_2
S1 C8 1_555 1_555
N1 H1 1_555 1_555
N2 H2 1_555 1_555
O1 C9 1_555 1_555
O2 C9 1_555 1_555
C1 H3 1_555 1_555
C2 C1 1_555 1_555
H4 C2 1_555 1_555
C3 C2 1_555 1_555
H5 C3 1_555 1_555
C4 C3 1_555 1_555
C5 C4 1_555 1_555
H6 C5 1_555 1_555
C6 N1 1_555 1_555
C7 C4 1_555 1_555
H7 C7 1_555 1_555
H8 C7 1_555 1_555
H9 C7 1_555 1_555
C8 N1 1_555 1_555
C9 N2 1_555 1_555
C10 O1 1_555 1_555
H10 C10 1_555 1_555
H11 C10 1_555 1_555
C11 C10 1_555 1_555
H12 C11 1_555 1_555
H13 C11 1_555 1_555
H14 C11 1_555 1_555
S2 C19 1_555 1_555
N3 H15 1_555 1_555
N4 H16 1_555 1_555
O3 C20 1_555 1_555
O4 C20 1_555 1_555
C12 H17 1_555 1_555
C13 C12 1_555 1_555
H18 C13 1_555 1_555
C14 C13 1_555 1_555
H19 C14 1_555 1_555
C15 C14 1_555 1_555
C16 C15 1_555 1_555
H20 C16 1_555 1_555
C17 N3 1_555 1_555
C18 C15 1_555 1_555
H21 C18 1_555 1_555
H22 C18 1_555 1_555
H23 C18 1_555 1_555
C19 N3 1_555 1_555
C20 N4 1_555 1_555
C21 O3 1_555 1_555
H24 C21 1_555 1_555
H25 C21 1_555 1_555
C22 C21 1_555 1_555
H26 C22 1_555 1_555
H27 C22 1_555 1_555
H28 C22 1_555 1_555
N2 C8 1_555 1_555
C1 C6 1_555 1_555
C5 C6 1_555 1_555
N4 C19 1_555 1_555
C12 C17 1_555 1_555
C16 C17 1_555 1_555

#END
