
#######################################################################
#
#                 Cambridge Crystallographic Data Centre
#                                CCDC 
#
#######################################################################
#
# If this CIF has been generated from an entry in the Cambridge 
# Structural Database, then it will include bibliographic, chemical, 
# crystal, experimental, refinement or atomic coordinate data resulting 
# from the CCDC's data processing and validation procedures.
#
#######################################################################

data_HIDJEK
_chemical_formula_moiety         'C16 H10 O4'
_chemical_name_systematic        
cis-1,5-Diphenyl-3,6-dioxabicyclo(3.1.0)hexane-2,4-dione
_symmetry_cell_setting           orthorhombic
_symmetry_space_group_name_H-M   'P 21 21 21'
_symmetry_Int_Tables_number      19
_space_group_name_Hall           'P 2ac 2ab'
loop_
_symmetry_equiv_pos_site_id
_symmetry_equiv_pos_as_xyz
1 x,y,z
2 1/2-x,-y,1/2+z
3 -x,1/2+y,1/2-z
4 1/2+x,1/2-y,-z
_cell_length_a                   5.5581(5)
_cell_length_b                   9.6828(11)
_cell_length_c                   23.340(3)
_cell_angle_alpha                90
_cell_angle_beta                 90
_cell_angle_gamma                90
_cell_volume                     1256.11
_exptl_crystal_colour            colorless
_exptl_crystal_description       needle
_chemical_melting_point          141-142deg.C
_cell_formula_units_Z            4
loop_
_atom_site_label
_atom_site_type_symbol
_atom_site_fract_x
_atom_site_fract_y
_atom_site_fract_z
O1 O 0.1891(2) 0.43161(13) 0.12304(5)
O2 O 0.2499(2) 0.08523(13) 0.10658(5)
O3 O 0.1912(2) 0.24301(12) 0.03732(5)
O4 O 0.2330(2) 0.42447(12) -0.02144(5)
C1 C 0.3722(3) 0.32591(18) 0.12159(7)
C2 C 0.3689(3) 0.44113(18) 0.07862(7)
C3 C 0.2702(3) 0.20227(18) 0.09133(7)
C4 C 0.2629(3) 0.37832(17) 0.02498(7)
C5 C 0.5413(3) 0.31194(19) 0.17045(7)
C6 C 0.5250(4) 0.4003(2) 0.21706(7)
H1 H 0.4030 0.4690 0.2185
C7 C 0.6886(4) 0.3873(2) 0.26150(8)
H2 H 0.6784 0.4474 0.2936
C8 C 0.8660(4) 0.2881(3) 0.25959(8)
H3 H 0.9780 0.2806 0.2902
C9 C 0.8818(4) 0.1995(3) 0.21342(9)
H4 H 1.0034 0.1306 0.2123
C10 C 0.7193(3) 0.2115(2) 0.16863(8)
H5 H 0.7298 0.1509 0.1367
C11 C 0.5343(3) 0.56103(18) 0.07751(7)
C12 C 0.5037(3) 0.67049(19) 0.11504(7)
H6 H 0.3712 0.6716 0.1407
C13 C 0.6683(3) 0.77887(19) 0.11488(8)
H7 H 0.6469 0.8542 0.1405
C14 C 0.8624(3) 0.77816(19) 0.07795(7)
H8 H 0.9758 0.8515 0.0786
C15 C 0.8903(3) 0.66961(18) 0.03988(8)
H9 H 1.0221 0.6693 0.0139
C16 C 0.7274(3) 0.56154(18) 0.03942(7)
H10 H 0.7473 0.4876 0.0131
loop_
_geom_bond_atom_site_label_1
_geom_bond_atom_site_label_2
_geom_bond_site_symmetry_1
_geom_bond_site_symmetry_2
O1 C1 1_555 1_555
O2 C3 1_555 1_555
O3 C3 1_555 1_555
O4 C4 1_555 1_555
C1 C2 1_555 1_555
C2 O1 1_555 1_555
C3 C1 1_555 1_555
C4 O3 1_555 1_555
C5 C1 1_555 1_555
C6 C5 1_555 1_555
H1 C6 1_555 1_555
C7 C6 1_555 1_555
H2 C7 1_555 1_555
C8 C7 1_555 1_555
H3 C8 1_555 1_555
C9 C8 1_555 1_555
H4 C9 1_555 1_555
C10 C5 1_555 1_555
H5 C10 1_555 1_555
C11 C2 1_555 1_555
C12 C11 1_555 1_555
H6 C12 1_555 1_555
C13 C12 1_555 1_555
H7 C13 1_555 1_555
C14 C13 1_555 1_555
H8 C14 1_555 1_555
C15 C14 1_555 1_555
H9 C15 1_555 1_555
C16 C11 1_555 1_555
H10 C16 1_555 1_555
C2 C4 1_555 1_555
C9 C10 1_555 1_555
C15 C16 1_555 1_555

#END
