
#######################################################################
#
#                 Cambridge Crystallographic Data Centre
#                                CCDC 
#
#######################################################################
#
# If this CIF has been generated from an entry in the Cambridge 
# Structural Database, then it will include bibliographic, chemical, 
# crystal, experimental, refinement or atomic coordinate data resulting 
# from the CCDC's data processing and validation procedures.
#
#######################################################################

data_HIDKEK
_chemical_formula_moiety         'C28 H30 Br1 N3 O3'
_chemical_name_systematic        
'p-Bromobenzoyl-D-\a-methylphenylalanyl-D-\a-methylphenylalanine methylamide'
_symmetry_cell_setting           orthorhombic
_symmetry_space_group_name_H-M   'P 21 21 21'
_symmetry_Int_Tables_number      19
_space_group_name_Hall           'P 2ac 2ab'
loop_
_symmetry_equiv_pos_site_id
_symmetry_equiv_pos_as_xyz
1 x,y,z
2 1/2-x,-y,1/2+z
3 1/2+x,1/2-y,-z
4 -x,1/2+y,1/2-z
_cell_length_a                   8.915(2)
_cell_length_b                   15.357(2)
_cell_length_c                   40.155(6)
_cell_angle_alpha                90
_cell_angle_beta                 90
_cell_angle_gamma                90
_cell_volume                     5497.53
_cell_formula_units_Z            8
loop_
_atom_site_label
_atom_site_type_symbol
_atom_site_fract_x
_atom_site_fract_y
_atom_site_fract_z
C1 C 0.5067(11) 1.49810(90) 0.10200(40)
N1 N 0.2845(10) 1.40140(70) 0.10750(30)
O1 O 0.58340(90) 1.55670(60) 0.11250(30)
C2 C 0.3358(10) 1.49010(90) 0.10930(40)
C3 C 0.3083(11) 1.52910(80) 0.14400(40)
C4 C 0.2526(11) 1.54560(80) 0.08300(40)
C5 C 0.2886(11) 1.53370(80) 0.04820(40)
C6 C 0.2340(11) 1.45950(80) 0.03140(40)
C7 C 0.3856(11) 1.58430(90) 0.03050(50)
C8 C 0.27030(11) 1.44400(90) -0.00190(50)
C9 C 0.42080(11) 1.56580(90) -0.00310(50)
C10 C 0.36300(11) 1.49730(90) -0.01940(50)
C11 C 0.3356(10) 1.33500(80) 0.12620(40)
C12 C 0.2512(11) 1.25210(80) 0.12330(40)
C13 C 0.2668(11) 1.19200(90) 0.14480(50)
C14 C 0.1928(11) 1.11280(90) 0.14740(50)
C15 C 0.1074(11) 1.09260(90) 0.11990(50)
C16 C 0.0982(11) 1.14960(80) 0.09380(50)
C17 C 0.1721(11) 1.22870(90) 0.09610(50)
O2 O 0.4520(10) 1.34430(70) 0.14340(30)
Br1 Br 0.00420(30) 0.98360(10) 0.11860(10)
C18 C 0.8248(10) 1.40440(80) 0.09800(40)
N2 N 0.56250(90) 1.43580(70) 0.08130(30)
O3 O 0.96430(90) 1.40670(70) 0.09230(30)
C19 C 0.7167(10) 1.42510(80) 0.06950(40)
C20 C 0.7733(11) 1.51090(80) 0.05420(40)
C21 C 0.7236(10) 1.35370(80) 0.04260(40)
C22 C 0.6523(11) 1.27050(90) 0.05200(50)
C23 C 0.5281(11) 1.24680(90) 0.03590(40)
C24 C 0.6987(11) 1.21370(90) 0.07490(50)
C25 C 0.4454(11) 1.17020(90) 0.04220(50)
C26 C 0.6264(11) 1.13810(90) 0.08310(50)
C27 C 0.4977(11) 1.11500(90) 0.06710(40)
C28 C 0.8714(11) 1.35800(90) 0.15550(50)
N3 N 0.7741(10) 1.38060(70) 0.12780(30)
C29 C -0.6595(11) 1.31610(90) 0.35940(40)
N4 N -0.4397(10) 1.28600(70) 0.32520(40)
O4 O -0.7386(10) 1.37530(70) 0.37050(30)
C30 C -0.4864(11) 1.32830(80) 0.35490(40)
C31 C -0.4487(11) 1.42240(80) 0.35620(40)
C32 C -0.4191(11) 1.27770(80) 0.38420(40)
C33 C -0.4475(11) 1.30610(80) 0.42000(40)
C34 C -0.5768(11) 1.27840(90) 0.43830(50)
C35 C -0.3466(11) 1.35900(90) 0.43600(50)
C36 C -0.6011(11) 1.30860(90) 0.47050(50)
C37 C -0.3678(11) 1.3860(10) 0.46860(60)
C38 C -0.4932(11) 1.36100(90) 0.48480(50)
C39 C -0.4954(11) 1.29640(80) 0.29370(40)
C40 C -0.4213(11) 1.24950(90) 0.26560(40)
C41 C -0.3320(11) 1.17530(80) 0.27060(50)
C42 C -0.2810(11) 1.12620(90) 0.24460(40)
C43 C -0.3070(11) 1.15710(90) 0.21210(40)
C44 C -0.3969(11) 1.22960(80) 0.20740(40)
C45 C -0.4533(11) 1.27820(90) 0.23390(40)
O5 O -0.6066(10) 1.34640(70) 0.28950(30)
Br2 Br -0.23110(30) 1.09130(20) 0.17740(10)
C46 C -0.9805(11) 1.26810(90) 0.32800(40)
N5 N -0.7203(10) 1.24040(70) 0.34890(30)
O6 O -1.11940(90) 1.25400(70) 0.33260(30)
C47 C -0.8805(11) 1.21370(90) 0.35140(50)
C48 C -0.9339(11) 1.22090(90) 0.38690(40)
C49 C -0.8843(11) 1.11480(90) 0.34000(40)
C50 C -0.8231(11) 1.09620(90) 0.30820(50)
C51 C -0.8980(11) 1.11760(90) 0.27920(50)
C52 C -0.6837(11) 1.05090(90) 0.30350(50)
C53 C -0.8416(11) 1.0999(10) 0.24750(60)
C54 C -0.6372(11) 1.03040(90) 0.27250(50)
C55 C -0.7052(11) 1.05350(90) 0.24360(60)
N6 N -0.9241(10) 1.32180(80) 0.30710(40)
C56 C -1.0173(11) 1.36910(90) 0.28360(50)
loop_
_geom_bond_atom_site_label_1
_geom_bond_atom_site_label_2
_geom_bond_site_symmetry_1
_geom_bond_site_symmetry_2
C1 O1 1_555 1_555
N1 C2 1_555 1_555
C2 C1 1_555 1_555
C3 C2 1_555 1_555
C4 C2 1_555 1_555
C5 C4 1_555 1_555
C6 C5 1_555 1_555
C7 C5 1_555 1_555
C8 C6 1_555 1_555
C9 C7 1_555 1_555
C10 C8 1_555 1_555
C11 N1 1_555 1_555
C12 C11 1_555 1_555
C13 C12 1_555 1_555
C14 C13 1_555 1_555
C15 C14 1_555 1_555
C16 C15 1_555 1_555
C17 C12 1_555 1_555
O2 C11 1_555 1_555
Br1 C15 1_555 1_555
C18 O3 1_555 1_555
N2 C1 1_555 1_555
C19 C18 1_555 1_555
C20 C19 1_555 1_555
C21 C19 1_555 1_555
C22 C21 1_555 1_555
C23 C22 1_555 1_555
C24 C22 1_555 1_555
C25 C23 1_555 1_555
C26 C24 1_555 1_555
C27 C25 1_555 1_555
C28 N3 1_555 1_555
N3 C18 1_555 1_555
C29 O4 1_555 1_555
N4 C30 1_555 1_555
C30 C29 1_555 1_555
C31 C30 1_555 1_555
C32 C30 1_555 1_555
C33 C32 1_555 1_555
C34 C33 1_555 1_555
C35 C33 1_555 1_555
C36 C34 1_555 1_555
C37 C35 1_555 1_555
C38 C36 1_555 1_555
C39 N4 1_555 1_555
C40 C39 1_555 1_555
C41 C40 1_555 1_555
C42 C41 1_555 1_555
C43 C42 1_555 1_555
C44 C43 1_555 1_555
C45 C40 1_555 1_555
O5 C39 1_555 1_555
Br2 C43 1_555 1_555
C46 O6 1_555 1_555
N5 C29 1_555 1_555
C47 C46 1_555 1_555
C48 C47 1_555 1_555
C49 C47 1_555 1_555
C50 C49 1_555 1_555
C51 C50 1_555 1_555
C52 C50 1_555 1_555
C53 C51 1_555 1_555
C54 C52 1_555 1_555
C55 C53 1_555 1_555
N6 C46 1_555 1_555
C56 N6 1_555 1_555
C9 C10 1_555 1_555
C16 C17 1_555 1_555
N2 C19 1_555 1_555
C26 C27 1_555 1_555
C37 C38 1_555 1_555
C44 C45 1_555 1_555
N5 C47 1_555 1_555
C54 C55 1_555 1_555

#END
