
#######################################################################
#
#                 Cambridge Crystallographic Data Centre
#                                CCDC 
#
#######################################################################
#
# If this CIF has been generated from an entry in the Cambridge 
# Structural Database, then it will include bibliographic, chemical, 
# crystal, experimental, refinement or atomic coordinate data resulting 
# from the CCDC's data processing and validation procedures.
#
#######################################################################

data_HIDKIO
_chemical_formula_moiety         'C37 H38 Br1 N3 O5,0.5(H2 O1)'
_chemical_name_systematic        
'p-Bromobenzoyl-D-\a-methylphenylalanyl-D-\a-methylphenylalanyl-D-\a-methylphenylalanine hemihydrate'
_symmetry_cell_setting           monoclinic
_symmetry_space_group_name_H-M   'P 21'
_symmetry_Int_Tables_number      4
_space_group_name_Hall           'P 2yb'
loop_
_symmetry_equiv_pos_site_id
_symmetry_equiv_pos_as_xyz
1 x,y,z
2 -x,1/2+y,-z
_cell_length_a                   18.552(2)
_cell_length_b                   11.216(2)
_cell_length_c                   17.333(2)
_cell_angle_alpha                90
_cell_angle_beta                 90.8(2)
_cell_angle_gamma                90
_cell_volume                     3606.29
_cell_formula_units_Z            4
loop_
_atom_site_label
_atom_site_type_symbol
_atom_site_fract_x
_atom_site_fract_y
_atom_site_fract_z
Br1 Br 0.21641(8) 0.00000 -0.05066(17)
O1 O 0.45598(29) 0.33406(68) 0.15550(67)
O2 O 0.52429(30) 0.44080(69) 0.32490(71)
O3 O 0.63185(34) 0.16829(79) 0.34745(70)
O4 O 0.75622(28) 0.32239(79) 0.22744(73)
O5 O 0.66614(34) 0.41764(74) 0.28056(78)
N1 N 0.36008(36) 0.38786(80) 0.22003(80)
N2 N 0.45230(31) 0.28054(75) 0.32626(63)
N3 N 0.57253(31) 0.23213(75) 0.24157(67)
C1 C 0.26791(40) 0.10232(77) 0.01657(57)
C2 C 0.23225(40) 0.19191(77) 0.05678(57)
C3 C 0.27087(40) 0.26698(77) 0.10645(57)
C4 C 0.34515(40) 0.25246(77) 0.11590(57)
C5 C 0.38081(40) 0.16287(77) 0.07569(57)
C6 C 0.34219(40) 0.08780(77) 0.02602(57)
C7 C 0.39121(41) 0.32710(88) 0.16670(91)
C8 C 0.40310(45) 0.46838(82) 0.27554(94)
C9 C 0.46589(43) 0.39391(86) 0.31157(93)
C10 C 0.35294(41) 0.50855(98) 0.34022(89)
C11 C 0.43311(50) 0.5738(10) 0.23218(96)
C12 C 0.37750(44) 0.66087(86) 0.20003(76)
C13 C 0.33620(44) 0.63401(86) 0.13444(76)
C14 C 0.28709(44) 0.71726(86) 0.10520(76)
C15 C 0.27926(44) 0.82737(86) 0.14156(76)
C16 C 0.32056(44) 0.85423(86) 0.20715(76)
C17 C 0.36967(44) 0.77098(86) 0.23639(76)
C18 C 0.50464(54) 0.1979(12) 0.3607(14)
C19 C 0.57689(38) 0.19888(96) 0.31415(94)
C20 C 0.47234(47) 0.07315(99) 0.3508(10)
C21 C 0.52262(63) 0.2311(15) 0.4450(15)
C22 C 0.45984(37) 0.2452(12) 0.49691(59)
C23 C 0.42875(37) 0.3577(12) 0.50454(59)
C24 C 0.37092(37) 0.3741(12) 0.55403(59)
C25 C 0.34419(37) 0.2779(12) 0.59588(59)
C26 C 0.37528(37) 0.1654(12) 0.58825(59)
C27 C 0.43311(37) 0.1490(12) 0.53876(59)
C28 C 0.63691(45) 0.2483(10) 0.1957(12)
C29 C 0.69164(46) 0.32809(93) 0.23671(94)
C30 C 0.61589(50) 0.3146(13) 0.1208(13)
C31 C 0.67361(50) 0.1287(11) 0.17769(96)
C32 C 0.62199(41) 0.03489(81) 0.1458(11)
C33 C 0.59301(41) -0.04771(81) 0.1970(11)
C34 C 0.54514(41) -0.13459(81) 0.1700(11)
C35 C 0.52623(41) -0.13889(81) 0.0918(11)
C36 C 0.55521(41) -0.05629(81) 0.0407(11)
C37 C 0.60309(41) 0.03059(81) 0.0677(11)
Br2 Br 0.24899(8) 0.77749(18) 0.38509(14)
O6 O 0.01076(28) 0.65162(63) 0.66815(56)
O7 O -0.07314(29) 0.71429(67) 0.83121(60)
O8 O -0.20958(29) 0.88220(59) 0.72663(61)
O9 O -0.29989(29) 0.64641(73) 0.67774(67)
O10 O -0.21230(34) 0.62026(73) 0.76137(67)
N4 N 0.09854(37) 0.71682(75) 0.74796(85)
N5 N -0.02016(36) 0.86606(87) 0.76897(79)
N6 N -0.12544(33) 0.76506(76) 0.67203(75)
C38 C 0.19770(50) 0.74984(85) 0.47558(64)
C39 C 0.12303(50) 0.76459(85) 0.47398(64)
C40 C 0.08330(50) 0.74423(85) 0.54044(64)
C41 C 0.11825(50) 0.70913(85) 0.60851(64)
C42 C 0.19292(50) 0.69438(85) 0.61012(64)
C43 C 0.23264(50) 0.71474(85) 0.54366(64)
C44 C 0.07344(47) 0.6880(10) 0.6730(14)
C45 C 0.05718(50) 0.7030(11) 0.8152(12)
C46 C -0.01926(41) 0.76034(92) 0.80446(86)
C47 C 0.09568(50) 0.7664(11) 0.8818(11)
C48 C 0.04431(47) 0.56870(99) 0.83698(95)
C49 C 0.11375(34) 0.49976(75) 0.84979(85)
C50 C 0.14884(34) 0.49429(75) 0.92141(85)
C51 C 0.20964(34) 0.42239(75) 0.93119(85)
C52 C 0.23535(34) 0.35596(75) 0.86935(85)
C53 C 0.20026(34) 0.36142(75) 0.79773(85)
C54 C 0.13946(34) 0.43333(75) 0.78795(85)
C55 C -0.08767(47) 0.9359(10) 0.7563(11)
C56 C -0.14419(40) 0.85511(92) 0.71646(93)
C57 C -0.06811(51) 1.03285(98) 0.6951(10)
C58 C -0.11717(48) 0.9874(11) 0.8315(11)
C59 C -0.06989(44) 1.07875(82) 0.86809(63)
C60 C -0.01416(44) 1.04429(82) 0.91814(63)
C61 C 0.02933(44) 1.13047(82) 0.95346(63)
C62 C 0.01709(44) 1.25111(82) 0.93872(63)
C63 C -0.03864(44) 1.28557(82) 0.88866(63)
C64 C -0.08213(44) 1.19939(82) 0.85335(63)
C65 C -0.17907(52) 0.6878(11) 0.6345(11)
C66 C -0.23643(51) 0.6513(10) 0.6923(11)
C67 C -0.14066(52) 0.5692(11) 0.6095(11)
C68 C -0.21518(59) 0.7491(13) 0.5617(12)
C69 C -0.12481(96) 0.8879(15) 0.50284(90)
C70 C -0.07324(96) 0.9152(15) 0.44777(90)
C71 C -0.05781(96) 0.8335(15) 0.38960(90)
C72 C -0.09395(96) 0.7245(15) 0.38651(90)
C73 C -0.14553(96) 0.6972(15) 0.44158(90)
C74 C -0.16096(96) 0.7789(15) 0.49975(90)
O11 O 0.12396(47) 1.0050(11) 0.75046(91)
loop_
_geom_bond_atom_site_label_1
_geom_bond_atom_site_label_2
_geom_bond_site_symmetry_1
_geom_bond_site_symmetry_2
Br1 C1 1_555 1_555
O1 C7 1_555 1_555
O2 C9 1_555 1_555
O3 C19 1_555 1_555
O4 C29 1_555 1_555
O5 C29 1_555 1_555
N1 C7 1_555 1_555
N2 C9 1_555 1_555
N3 C19 1_555 1_555
C1 C2 1_555 1_555
C2 C3 1_555 1_555
C3 C4 1_555 1_555
C4 C5 1_555 1_555
C5 C6 1_555 1_555
C6 C1 1_555 1_555
C7 C4 1_555 1_555
C8 N1 1_555 1_555
C9 C8 1_555 1_555
C10 C8 1_555 1_555
C11 C8 1_555 1_555
C12 C11 1_555 1_555
C13 C12 1_555 1_555
C14 C13 1_555 1_555
C15 C14 1_555 1_555
C16 C15 1_555 1_555
C17 C12 1_555 1_555
C18 N2 1_555 1_555
C19 C18 1_555 1_555
C20 C18 1_555 1_555
C21 C18 1_555 1_555
C22 C21 1_555 1_555
C23 C22 1_555 1_555
C24 C23 1_555 1_555
C25 C24 1_555 1_555
C26 C25 1_555 1_555
C27 C22 1_555 1_555
C28 N3 1_555 1_555
C29 C28 1_555 1_555
C30 C28 1_555 1_555
C31 C28 1_555 1_555
C32 C31 1_555 1_555
C33 C32 1_555 1_555
C34 C33 1_555 1_555
C35 C34 1_555 1_555
C36 C35 1_555 1_555
C37 C32 1_555 1_555
Br2 C38 1_555 1_555
O6 C44 1_555 1_555
O7 C46 1_555 1_555
O8 C56 1_555 1_555
O9 C66 1_555 1_555
O10 C66 1_555 1_555
N4 C44 1_555 1_555
N5 C46 1_555 1_555
N6 C56 1_555 1_555
C38 C39 1_555 1_555
C39 C40 1_555 1_555
C40 C41 1_555 1_555
C41 C42 1_555 1_555
C42 C43 1_555 1_555
C43 C38 1_555 1_555
C44 C41 1_555 1_555
C45 N4 1_555 1_555
C46 C45 1_555 1_555
C47 C45 1_555 1_555
C48 C45 1_555 1_555
C49 C48 1_555 1_555
C50 C49 1_555 1_555
C51 C50 1_555 1_555
C52 C51 1_555 1_555
C53 C52 1_555 1_555
C54 C49 1_555 1_555
C55 N5 1_555 1_555
C56 C55 1_555 1_555
C57 C55 1_555 1_555
C58 C55 1_555 1_555
C59 C58 1_555 1_555
C60 C59 1_555 1_555
C61 C60 1_555 1_555
C62 C61 1_555 1_555
C63 C62 1_555 1_555
C64 C59 1_555 1_555
C65 N6 1_555 1_555
C66 C65 1_555 1_555
C67 C65 1_555 1_555
C68 C65 1_555 1_555
C69 C70 1_555 1_555
C70 C71 1_555 1_555
C71 C72 1_555 1_555
C72 C73 1_555 1_555
C73 C74 1_555 1_555
C74 C68 1_555 1_555
C16 C17 1_555 1_555
C26 C27 1_555 1_555
C36 C37 1_555 1_555
C53 C54 1_555 1_555
C63 C64 1_555 1_555
C69 C74 1_555 1_555

#END
