
#######################################################################
#
#                 Cambridge Crystallographic Data Centre
#                                CCDC 
#
#######################################################################
#
# If this CIF has been generated from an entry in the Cambridge 
# Structural Database, then it will include bibliographic, chemical, 
# crystal, experimental, refinement or atomic coordinate data resulting 
# from the CCDC's data processing and validation procedures.
#
#######################################################################

data_HIDPUF
_chemical_name_common            'Iodixanol monohydrate'
_chemical_formula_moiety         '2(C35 H44 I6 N6 O15),2(H2 O1)'
_chemical_name_systematic        
"bis(3,3',5,5'-tetrakis(2,3-Dihydroxypropylcarbamoyl)-2,2',4,4',6,6'-hexaiodo-N,N'-(2-hydroxypropane-1,3-diyl)diacetanilide) dihydrate"
_chemical_properties_biological  
'x-ray contrast agent used for medical diagnosis'
_symmetry_cell_setting           triclinic
_symmetry_space_group_name_H-M   'P -1'
_symmetry_Int_Tables_number      2
_space_group_name_Hall           '-P 1'
loop_
_symmetry_equiv_pos_site_id
_symmetry_equiv_pos_as_xyz
1 x,y,z
2 -x,-y,-z
_cell_length_a                   16.864(3)
_cell_length_b                   18.164(3)
_cell_length_c                   19.360(4)
_cell_angle_alpha                95.68(2)
_cell_angle_beta                 102.43(2)
_cell_angle_gamma                114.56(1)
_cell_volume                     5147.44
_cell_formula_units_Z            2
loop_
_atom_site_label
_atom_site_type_symbol
_atom_site_fract_x
_atom_site_fract_y
_atom_site_fract_z
I1 I -0.0609(2) 0.3037(2) 0.2280(2)
I2 I -0.0365(2) 0.0085(2) 0.3288(2)
I3 I 0.0852(2) 0.1091(1) 0.0670(1)
I4 I 0.2141(2) 0.2440(2) 0.3176(23)
I5 I 0.4799(2) 0.5889(2) 0.3180(1)
I6 I 0.3396(2) 0.5171(2) 0.5779(2)
O1 O -0.058(8) 0.141(9) 0.600(4)
O2 O -0.135(6) 0.202(5) 0.536(4)
O3 O -0.165(1) 0.134(1) 0.3130(1)
O4 O 0.070(10) -0.259(6) 0.263(5)
O5 O -0.024(4) -0.192(4) 0.230(3)
O6 O 0.139(1) 0.039(1) 0.238(1)
O7 O -0.112(2) 0.186(1) 0.045(1)
O8 O 0.128(1) 0.443(1) 0.165(1)
O9 O 0.351(1) 0.350(1) 0.160(1)
O10 O 0.164(2) 0.317(2) 0.477(2)
O11 O 0.287(4) 0.138(3) 0.497(3)
O12 O 0.069(5) 0.082(6) 0.545(6)
O13 O 0.539(1) 0.642(1) 0.513(1)
O14 O 0.500(6) 0.904(3) 0.517(4)
O15 O 0.540(7) 0.829(7) 0.408(5)
N1 N -0.021(7) 0.213(2) 0.386(1)
N2 N 0.006(1) -0.058(1) 0.160(1)
N3 N 0.037(2) 0.256(1) 0.116(1)
N4 N 0.318(2) 0.404(2) 0.254(1)
N5 N 0.290(2) 0.297(2) 0.513(2)
N6 N 0.420(2) 0.671(2) 0.474(2)
C1 C -0.017(6) 0.157(6) 0.535(5)
C2 C -0.088(3) 0.174(3) 0.484(2)
C3 C -0.053(3) 0.244(2) 0.447(2)
C4 C -0.080(2) 0.165(2) 0.323(1)
C5 C 0.084(5) -0.229(4) 0.191(3)
C6 C 0.065(3) -0.152(3) 0.205(3)
C7 C 0.043(3) -0.120(2) 0.141(2)
C8 C 0.059(2) 0.017(1) 0.200(2)
C9 C 0.0200(2) 0.078(1) 0.202(2)
C10 C 0.034(2) 0.128(2) 0.154(2)
C11 C 0.018(2) 0.199(2) 0.165(2)
C12 C -0.025(2) 0.207(2) 0.212(2)
C13 C -0.040(2) 0.154(2) 0.263(1)
C14 C -0.018(2) 0.086(2) 0.252(2)
C15 C -0.031(3) 0.243(2) 0.055(2)
C16 C -0.010(3) 0.302(2) 0.003(2)
C17 C 0.138(2) 0.313(2) 0.132(2)
C18 C 0.165(2) 0.386(2) 0.192(2)
C19 C 0.271(2) 0.442(2) 0.208(2)
C20 C 0.361(2) 0.364(2) 0.224(2)
C21 C 0.429(2) 0.344(2) 0.276(2)
C22 C 0.338(2) 0.426(2) 0.331(2)
C23 C 0.398(2) 0.510(2) 0.369(2)
C24 C 0.396(2) 0.531(2) 0.441(2)
C25 C 0.344(3) 0.474(2) 0.477(2)
C26 C 0.294(2) 0.396(2) 0.439(2)
C27 C 0.285(2) 0.368(2) 0.366(2)
C28 C 0.244(2) 0.333(2) 0.479(2)
C29 C 0.249(3) 0.235(2) 0.560(2)
C30 C 0.206(3) 0.151(2) 0.511(2)
C31 C 0.160(4) 0.077(3) 0.546(3)
C32 C 0.458(2) 0.620(2) 0.480(2)
C33 C 0.476(3) 0.762(2) 0.519(2)
C34 C 0.436(4) 0.810(3) 0.479(3)
C35 C 0.438(6) 0.809(5) 0.399(3)
H1 H 0.04371 0.20498 0.55002
H2 H -0.01318 0.10738 0.51333
H3 H -0.13346 0.12240 0.44774
H4 H -0.00232 0.29341 0.48122
H5 H -0.10229 0.25925 0.42610
H6 H 0.03888 -0.27135 0.14772
H7 H 0.14609 -0.21374 0.18758
H8 H 0.36497 0.65408 0.44581
H9 H -0.00342 -0.16601 0.10051
H10 H 0.09792 -0.09150 0.12472
H11 H 0.05489 0.34104 0.01894
H12 H -0.04633 0.33192 0.00164
H13 H -0.02436 0.26938 -0.04580
H14 H 0.15104 0.33214 0.08744
H15 H 0.17361 0.28222 0.14642
H16 H 0.14771 0.36917 0.23623
H17 H 0.28760 0.44479 0.16215
H18 H 0.28804 0.49868 0.23333
H19 H 0.42970 0.35904 0.32613
H20 H 0.49043 0.37505 0.27092
H21 H 0.41153 0.28429 0.26388
H22 H 0.29696 0.23924 0.60227
H23 H 0.20290 0.24550 0.57775
H24 H 0.16320 0.14832 0.46520
H25 H 0.19619 0.08418 0.59627
H26 H 0.14803 0.02336 0.51702
H27 H 0.46992 0.76597 0.56882
H28 H 0.54132 0.78353 0.52171
H29 H 0.37283 0.79396 0.48234
H30 H 0.42369 0.85237 0.38069
H31 H 0.39583 0.75443 0.36750
H32 H 0.03691 0.22639 0.39297
H33 H -0.05301 -0.07383 0.14423
H34 H 0.34427 0.30819 0.50910
H35 H 0.11550 -0.10683 0.24473
I7 I 0.3002(2) -0.0203(1) -0.1834(1)
I8 I 0.6910(2) 0.1532(2) 0.0070(2)
I9 I 0.4120(2) 0.2540(1) 0.0747(1)
I10 I 0.1846(2) 0.3728(2) -0.3135(2)
I11 I 0.3616(2) 0.4520(2) 0.0084(2)
I12 I 0.0517(2) 0.5304(2) -0.1070(2)
O16 O 0.665(9) -0.050(8) -0.317(5)
O17 O 0.705(7) 0.083(7) -0.241(12)
O18 O 0.501(2) -0.045(1) -0.108(1)
O19 O 0.629(3) 0.213(2) 0.327(2)
O20 O 0.736(3) 0.328(3) 0.322(2)
O21 O 0.652(1) 0.326(1) 0.085(1)
O22 O 0.150(2) 0.071(1) -0.062(1)
O23 O 0.225(2) 0.252(2) -0.070(2)
O24 O 0.436(2) 0.380(2) -0.1810(2)
O25 O 0.101(2) 0.528(1) -0.280(1)
O26 O -0.180(3) 0.403(3) -0.280(2)
O27 O -0.235(3) 0.398(3) -0.424(2)
O28 O 0.178(2) 0.482(1) 0.047(1)
O29 O 0.372(3) 0.762(3) 0.198(2)
O30 O 0.517(3) 0.742(3) 0.193(3)
N7 N 0.546(2) 0.051(2) -0.176(2)
N8 N 0.620(2) 0.223(1) 0.147(1)
N9 N 0.291(2) 0.119(2) -0.074(1)
N10 N 0.306(2) 0.373(2) -0.163(1)
N11 N -0.007(2) 0.399(1) -0.284(2)
N12 N 0.266(2) 0.606(1) 0.025(1)
C36 C 0.680(8) -0.058(8) -0.237(6)
C37 C 0.654(4) 0.009(5) -0.206(4)
C38 C 0.556(3) -0.010(3) -0.233(2)
C39 C 0.511(3) 0.023(2) -0.123(2)
C40 C 0.586(3) 0.264(3) 0.291(3)
C41 C 0.657(3) 0.318(2) 0.257(2)
C42 C 0.699(2) 0.277(2) 0.216(1)
C43 C 0.608(2) 0.252(1) 0.088(1)
C44 C 0.535(2) 0.191(1) 0.023(1)
C45 C 0.449(2) 0.183(2) 0.007(2)
C46 C 0.383(2) 0.127(2) -0.052(2)
C47 C 0.401(2) 0.071(2) -0.097(2)
C48 C 0.490(2) 0.080(2) -0.077(2)
C49 C 0.557(2) 0.138(2) -0.019(2)
C50 C 0.227(2) 0.074(2) -0.045(2)
C51 C 0.246(2) 0.029(2) 0.012(2)
C52 C 0.267(2) 0.152(2) -0.137(2)
C53 C 0.288(2) 0.245(2) -0.109(2)
C54 C 0.266(2) 0.280(2) -0.181(2)
C55 C 0.388(3) 0.418(3) -0.171(2)
C56 C 0.426(3) 0.509(3) -0.166(2)
C57 C 0.253(2) 0.411(2) -0.146(2)
C58 C 0.264(2) 0.449(2) -0.078(2)
C59 C 0.209(2) 0.484(2) -0.068(1)
C60 C 0.142(2) 0.483(2) -0.124(2)
C61 C 0.137(2) 0.452(2) -0.195(2)
C62 C 0.187(2) 0.413(2) -0.208(2)
C63 C 0.074(2) 0.463(2) -0.257(2)
C64 C -0.077(2) 0.4010(3) -0.350(2)
C65 C -0.110(3) 0.458(3) -0.319(2)
C66 C -0.170(4) 0.484(3) -0.374(3)
C67 C 0.218(2) 0.524(2) 0.007(1)
C68 C 0.265(2) 0.655(2) 0.095(2)
C69 C 0.354(3) 0.679(3) 0.148(2)
C70 C 0.438(3) 0.704(5) 0.121(3)
H36 H 0.63847 -0.11417 -0.23244
H37 H 0.74332 -0.04540 -0.21335
H38 H 0.67615 0.02376 -0.15202
H39 H 0.51572 -0.06845 -0.23425
H40 H 0.54240 0.00108 -0.28225
H41 H 0.52739 0.22825 0.25388
H42 H 0.57496 0.29858 0.32753
H43 H 0.29904 0.63181 -0.00235
H44 H 0.71870 0.24171 0.24435
H45 H 0.75143 0.31766 0.20360
H46 H 0.30826 0.03623 0.02016
H47 H 0.20351 -0.03059 -0.00512
H48 H 0.23748 0.04999 0.05661
H49 H 0.20145 0.11945 -0.16297
H50 H 0.30247 0.14990 -0.17088
H51 H 0.35279 0.27816 -0.07966
H52 H 0.29235 0.26384 -0.21764
H53 H 0.19971 0.25629 -0.20266
H54 H 0.38099 0.52775 -0.15894
H55 H 0.44202 0.52225 -0.21023
H56 H 0.48070 0.53707 -0.12434
H57 H -0.04750 0.42317 -0.38756
H58 H -0.12747 0.34494 -0.37187
H59 H -0.05922 0.50698 -0.28311
H60 H -0.20214 0.50867 -0.35128
H61 H -0.13294 0.52255 -0.40054
H62 H 0.25742 0.70422 0.08486
H63 H 0.21446 0.61966 0.11295
H64 H 0.34976 0.63622 0.17757
H65 H 0.44272 0.74560 0.09051
H66 H 0.43822 0.65541 0.09299
H67 H 0.56325 0.10325 -0.17885
H68 H 0.58286 0.17168 0.14720
H69 H -0.02173 0.35549 -0.26432
H70 H 0.63189 0.34818 0.22533
O31 O 0.081(3) 0.440(3) 0.477(3)
O32 O 0.784(3) 0.316(3) 0.462(2)
O33 O 0.932(3) 0.437(3) 0.424(2)
O34 O 0.225(4) 0.033(4) 0.398(3)
O35 O 0.718(5) 0.017(4) 0.378(4)
loop_
_geom_bond_atom_site_label_1
_geom_bond_atom_site_label_2
_geom_bond_site_symmetry_1
_geom_bond_site_symmetry_2
I1 C12 1_555 1_555
I2 C14 1_555 1_555
I3 C10 1_555 1_555
I4 C27 1_555 1_555
I5 C23 1_555 1_555
I6 C25 1_555 1_555
O1 C1 1_555 1_555
O2 C2 1_555 1_555
O3 C4 1_555 1_555
O4 C5 1_555 1_555
O5 C6 1_555 1_555
O6 C8 1_555 1_555
O7 C15 1_555 1_555
O8 C18 1_555 1_555
O9 C20 1_555 1_555
O10 C28 1_555 1_555
O11 C30 1_555 1_555
O12 C31 1_555 1_555
O13 C32 1_555 1_555
O14 C34 1_555 1_555
O15 C35 1_555 1_555
N1 C3 1_555 1_555
N2 C7 1_555 1_555
N3 C11 1_555 1_555
N4 C19 1_555 1_555
N5 C28 1_555 1_555
N6 C32 1_555 1_555
C1 C2 1_555 1_555
C2 C3 1_555 1_555
C3 H4 1_555 1_555
C4 N1 1_555 1_555
C5 C6 1_555 1_555
C6 C7 1_555 1_555
C7 H9 1_555 1_555
C8 N2 1_555 1_555
C9 C8 1_555 1_555
C10 C9 1_555 1_555
C11 C10 1_555 1_555
C12 C11 1_555 1_555
C13 C4 1_555 1_555
C14 C9 1_555 1_555
C15 N3 1_555 1_555
C16 C15 1_555 1_555
C17 N3 1_555 1_555
C18 C17 1_555 1_555
C19 C18 1_555 1_555
C20 N4 1_555 1_555
C21 C20 1_555 1_555
C22 N4 1_555 1_555
C23 C22 1_555 1_555
C24 C23 1_555 1_555
C25 C24 1_555 1_555
C26 C25 1_555 1_555
C27 C22 1_555 1_555
C28 C26 1_555 1_555
C29 N5 1_555 1_555
C30 C29 1_555 1_555
C31 C30 1_555 1_555
C32 C24 1_555 1_555
C33 N6 1_555 1_555
C34 C33 1_555 1_555
C35 C34 1_555 1_555
H1 C1 1_555 1_555
H2 C1 1_555 1_555
H3 C2 1_555 1_555
H5 C3 1_555 1_555
H6 C5 1_555 1_555
H7 C5 1_555 1_555
H8 N6 1_555 1_555
H10 C7 1_555 1_555
H11 C16 1_555 1_555
H12 C16 1_555 1_555
H13 C16 1_555 1_555
H14 C17 1_555 1_555
H15 C17 1_555 1_555
H16 C18 1_555 1_555
H17 C19 1_555 1_555
H18 C19 1_555 1_555
H19 C21 1_555 1_555
H20 C21 1_555 1_555
H21 C21 1_555 1_555
H22 C29 1_555 1_555
H23 C29 1_555 1_555
H24 C30 1_555 1_555
H25 C31 1_555 1_555
H26 C31 1_555 1_555
H27 C33 1_555 1_555
H28 C33 1_555 1_555
H29 C34 1_555 1_555
H30 C35 1_555 1_555
H31 C35 1_555 1_555
H32 N1 1_555 1_555
H33 N2 1_555 1_555
H34 N5 1_555 1_555
H35 C6 1_555 1_555
I7 C47 1_555 1_555
I8 C49 1_555 1_555
I9 C45 1_555 1_555
I10 C62 1_555 1_555
I11 C58 1_555 1_555
I12 C60 1_555 1_555
O16 C36 1_555 1_555
O17 C37 1_555 1_555
O18 C39 1_555 1_555
O19 C40 1_555 1_555
O20 C41 1_555 1_555
O21 C43 1_555 1_555
O22 C50 1_555 1_555
O23 C53 1_555 1_555
O24 C55 1_555 1_555
O25 C63 1_555 1_555
O26 C65 1_555 1_555
O27 C66 1_555 1_555
O28 C67 1_555 1_555
O29 C69 1_555 1_555
O30 C70 1_555 1_555
N7 C38 1_555 1_555
N8 C42 1_555 1_555
N9 C46 1_555 1_555
N10 C54 1_555 1_555
N11 C63 1_555 1_555
N12 C67 1_555 1_555
C36 C37 1_555 1_555
C37 C38 1_555 1_555
C38 H39 1_555 1_555
C39 N7 1_555 1_555
C40 C41 1_555 1_555
C41 C42 1_555 1_555
C42 H44 1_555 1_555
C43 N8 1_555 1_555
C44 C43 1_555 1_555
C45 C44 1_555 1_555
C46 C45 1_555 1_555
C47 C46 1_555 1_555
C48 C39 1_555 1_555
C49 C44 1_555 1_555
C50 N9 1_555 1_555
C51 C50 1_555 1_555
C52 N9 1_555 1_555
C53 C52 1_555 1_555
C54 C53 1_555 1_555
C55 N10 1_555 1_555
C56 C55 1_555 1_555
C57 N10 1_555 1_555
C58 C57 1_555 1_555
C59 C58 1_555 1_555
C60 C59 1_555 1_555
C61 C60 1_555 1_555
C62 C57 1_555 1_555
C63 C61 1_555 1_555
C64 N11 1_555 1_555
C65 C64 1_555 1_555
C66 C65 1_555 1_555
C67 C59 1_555 1_555
C68 N12 1_555 1_555
C69 C68 1_555 1_555
C70 C69 1_555 1_555
H36 C36 1_555 1_555
H37 C36 1_555 1_555
H38 C37 1_555 1_555
H40 C38 1_555 1_555
H41 C40 1_555 1_555
H42 C40 1_555 1_555
H43 N12 1_555 1_555
H45 C42 1_555 1_555
H46 C51 1_555 1_555
H47 C51 1_555 1_555
H48 C51 1_555 1_555
H49 C52 1_555 1_555
H50 C52 1_555 1_555
H51 C53 1_555 1_555
H52 C54 1_555 1_555
H53 C54 1_555 1_555
H54 C56 1_555 1_555
H55 C56 1_555 1_555
H56 C56 1_555 1_555
H57 C64 1_555 1_555
H58 C64 1_555 1_555
H59 C65 1_555 1_555
H60 C66 1_555 1_555
H61 C66 1_555 1_555
H62 C68 1_555 1_555
H63 C68 1_555 1_555
H64 C69 1_555 1_555
H65 C70 1_555 1_555
H66 C70 1_555 1_555
H67 N7 1_555 1_555
H68 N8 1_555 1_555
H69 N11 1_555 1_555
H70 C41 1_555 1_555
C12 C13 1_555 1_555
C13 C14 1_555 1_555
C26 C27 1_555 1_555
C47 C48 1_555 1_555
C48 C49 1_555 1_555
C61 C62 1_555 1_555

#END
