
#######################################################################
#
#                 Cambridge Crystallographic Data Centre
#                                CCDC 
#
#######################################################################
#
# If this CIF has been generated from an entry in the Cambridge 
# Structural Database, then it will include bibliographic, chemical, 
# crystal, experimental, refinement or atomic coordinate data resulting 
# from the CCDC's data processing and validation procedures.
#
#######################################################################

data_HIDQIW
_chemical_formula_moiety         'C19 H15 N1 O5'
_chemical_name_systematic        'Ethyl 4-(4-nitrophenyl)-5-phenyl-3-furoate'
_symmetry_cell_setting           monoclinic
_symmetry_space_group_name_H-M   'P 21/n'
_symmetry_Int_Tables_number      14
_space_group_name_Hall           '-P 2yn'
loop_
_symmetry_equiv_pos_site_id
_symmetry_equiv_pos_as_xyz
1 x,y,z
2 1/2-x,1/2+y,1/2-z
3 -x,-y,-z
4 1/2+x,1/2-y,1/2+z
_cell_length_a                   8.0434(5)
_cell_length_b                   11.8212(8)
_cell_length_c                   17.4583(11)
_cell_angle_alpha                90
_cell_angle_beta                 95.022(2)
_cell_angle_gamma                90
_cell_volume                     1653.61
_exptl_crystal_colour            green
_exptl_crystal_description       prismatic
_cell_formula_units_Z            4
loop_
_atom_site_label
_atom_site_type_symbol
_atom_site_fract_x
_atom_site_fract_y
_atom_site_fract_z
N1 N 0.3102(2) 0.53525(13) -0.06193(11)
O1 O 0.26458(15) -0.08312(9) 0.09433(6)
O2 O 0.1705(2) 0.04754(11) -0.15328(8)
O3 O 0.14474(16) -0.13751(10) -0.13346(6)
O4 O 0.4127(3) 0.56176(13) -0.10606(11)
O5 O 0.2245(2) 0.60352(12) -0.03094(12)
C1 C 0.28769(19) 0.03260(12) 0.09340(9)
C2 C 0.2240(2) -0.11573(14) 0.02095(10)
H1 H 0.2020 -0.1900 0.0057
C3 C 0.21968(19) -0.02677(12) -0.02712(9)
C4 C 0.25981(18) 0.07115(12) 0.02000(8)
C5 C 0.26711(18) 0.19070(12) -0.00477(8)
C6 C 0.3764(2) 0.22459(13) -0.05769(9)
H2 H 0.4407 0.1708 -0.0804
C7 C 0.3908(2) 0.33696(14) -0.07689(9)
H3 H 0.4654 0.3596 -0.1117
C8 C 0.2930(2) 0.41496(13) -0.04371(9)
C9 C 0.1801(2) 0.38417(13) 0.00714(9)
H4 H 0.1136 0.4382 0.0283
C10 C 0.16751(19) 0.27143(13) 0.02624(8)
H5 H 0.0912 0.2493 0.0604
C11 C 0.33718(19) 0.08429(13) 0.16830(8)
C12 C 0.4245(2) 0.18620(15) 0.17390(10)
H6 H 0.4544 0.2213 0.1294
C13 C 0.4671(2) 0.23582(18) 0.24437(11)
H7 H 0.5237 0.3045 0.2471
C14 C 0.4262(3) 0.1844(2) 0.31023(12)
H8 H 0.4554 0.2178 0.3577
C15 C 0.3418(3) 0.0829(2) 0.30611(11)
H9 H 0.3142 0.0482 0.3511
C16 C 0.2971(3) 0.03172(17) 0.23536(10)
H10 H 0.2409 -0.0371 0.2331
C17 C 0.1770(2) -0.03170(14) -0.11092(9)
C18 C 0.1109(2) -0.15726(16) -0.21518(9)
H11 H 0.2110 -0.1451 -0.2412
H12 H 0.0251 -0.1058 -0.2367
C19 C 0.0537(3) -0.27627(19) -0.22515(12)
H13 H 0.1398 -0.3263 -0.2040
H14 H 0.0294 -0.2921 -0.2789
H15 H -0.0451 -0.2873 -0.1990
loop_
_geom_bond_atom_site_label_1
_geom_bond_atom_site_label_2
_geom_bond_site_symmetry_1
_geom_bond_site_symmetry_2
N1 O4 1_555 1_555
O1 C1 1_555 1_555
O2 C17 1_555 1_555
O3 C17 1_555 1_555
O5 N1 1_555 1_555
C1 C4 1_555 1_555
C2 O1 1_555 1_555
H1 C2 1_555 1_555
C3 C2 1_555 1_555
C4 C3 1_555 1_555
C5 C4 1_555 1_555
C6 C5 1_555 1_555
H2 C6 1_555 1_555
C7 C6 1_555 1_555
H3 C7 1_555 1_555
C8 N1 1_555 1_555
C9 C8 1_555 1_555
H4 C9 1_555 1_555
C10 C5 1_555 1_555
H5 C10 1_555 1_555
C11 C1 1_555 1_555
C12 C11 1_555 1_555
H6 C12 1_555 1_555
C13 C12 1_555 1_555
H7 C13 1_555 1_555
C14 C13 1_555 1_555
H8 C14 1_555 1_555
C15 C14 1_555 1_555
H9 C15 1_555 1_555
C16 C11 1_555 1_555
H10 C16 1_555 1_555
C17 C3 1_555 1_555
C18 O3 1_555 1_555
H11 C18 1_555 1_555
H12 C18 1_555 1_555
C19 C18 1_555 1_555
H13 C19 1_555 1_555
H14 C19 1_555 1_555
H15 C19 1_555 1_555
C7 C8 1_555 1_555
C9 C10 1_555 1_555
C15 C16 1_555 1_555

#END
