
#######################################################################
#
#                 Cambridge Crystallographic Data Centre
#                                CCDC 
#
#######################################################################
#
# If this CIF has been generated from an entry in the Cambridge 
# Structural Database, then it will include bibliographic, chemical, 
# crystal, experimental, refinement or atomic coordinate data resulting 
# from the CCDC's data processing and validation procedures.
#
#######################################################################

data_HIDWUP
_chemical_formula_moiety         'C25 H26 N4 O5 S1'
_chemical_name_systematic        
'ethyl N-{[5-amino-4-cyano-3-(4-methoxyphenyl)-2,3-dihydrothiophene-2-carbonyl]carbamoyl}phenylalaninate'
_symmetry_cell_setting           monoclinic
_symmetry_space_group_name_H-M   'P 21'
_symmetry_Int_Tables_number      4
_space_group_name_Hall           'P 2yb'
loop_
_symmetry_equiv_pos_site_id
_symmetry_equiv_pos_as_xyz
1 x,y,z
2 -x,1/2+y,-z
_cell_length_a                   8.4154(17)
_cell_length_b                   34.970(7)
_cell_length_c                   8.6188(18)
_cell_angle_alpha                90
_cell_angle_beta                 100.377(7)
_cell_angle_gamma                90
_cell_volume                     2494.91
_exptl_crystal_colour            'light yellow'
_exptl_crystal_description       block
_cell_formula_units_Z            4
loop_
_atom_site_label
_atom_site_type_symbol
_atom_site_fract_x
_atom_site_fract_y
_atom_site_fract_z
C1 C -0.0518(4) 0.59839(10) 0.7533(4)
H1 H -0.0579 0.5780 0.6830
C2 C -0.0461(4) 0.63551(11) 0.6958(5)
H2 H -0.0466 0.6399 0.5893
C3 C -0.0399(4) 0.66557(10) 0.7995(5)
C4 C 0.0002(7) 0.71104(13) 0.6048(6)
H3 H 0.0980 0.6981 0.5933
H4 H 0.0139 0.7381 0.5934
H5 H -0.0869 0.7022 0.5252
C5 C -0.0401(5) 0.65865(10) 0.9552(5)
H6 H -0.0386 0.6791 1.0244
C6 C -0.0427(5) 0.62196(10) 1.0111(5)
H7 H -0.0402 0.6178 1.1181
C7 C -0.0489(4) 0.59083(9) 0.9091(4)
C8 C 0.1304(4) 0.53596(9) 1.0247(4)
H8 H 0.2045 0.5520 0.9776
C9 C -0.0443(4) 0.54996(9) 0.9677(4)
H9 H -0.0956 0.5335 0.8810
C10 C -0.1306(4) 0.54457(9) 1.1062(4)
C11 C -0.3002(5) 0.54619(10) 1.0885(4)
C12 C -0.0335(4) 0.54120(9) 1.2492(4)
C13 C 0.1586(4) 0.49442(9) 0.9877(4)
C14 C 0.3908(4) 0.45185(11) 0.9557(4)
C15 C 0.1999(7) 0.37157(13) 1.2465(6)
H10 H 0.2403 0.3960 1.2721
C16 C 0.0699(7) 0.35917(14) 1.3056(6)
H11 H 0.0227 0.3752 1.3704
C17 C 0.0070(7) 0.32334(14) 1.2712(6)
H12 H -0.0819 0.3149 1.3119
C18 C 0.0786(7) 0.30035(13) 1.1754(6)
H13 H 0.0378 0.2759 1.1509
C19 C 0.2100(6) 0.31266(11) 1.1146(5)
H14 H 0.2565 0.2966 1.0494
C20 C 0.2735(5) 0.34876(11) 1.1494(5)
C21 C 0.4190(5) 0.36252(12) 1.0814(5)
H15 H 0.4855 0.3406 1.0671
H16 H 0.4832 0.3794 1.1572
C22 C 0.3746(5) 0.38367(10) 0.9234(5)
H17 H 0.4752 0.3884 0.8844
C23 C 0.2667(5) 0.36061(11) 0.8003(5)
C24 C 0.2517(9) 0.30111(17) 0.6664(8)
H18 H 0.1368 0.3022 0.6677
H19 H 0.2686 0.3075 0.5611
C25 C 0.3122(11) 0.2639(2) 0.7085(13)
H20 H 0.4209 0.2657 0.7658
H21 H 0.3112 0.2490 0.6147
H22 H 0.2455 0.2517 0.7734
N1 N -0.4390(4) 0.54766(10) 1.0733(4)
N2 N -0.0737(4) 0.53922(9) 1.3924(3)
H23 H -0.1737 0.5401 1.4019
H24 H 0.0003 0.5371 1.4749
N3 N 0.3158(3) 0.48676(7) 0.9772(3)
H25 H 0.3782 0.5064 0.9850
N4 N 0.3004(4) 0.42068(8) 0.9410(4)
H26 H 0.1986 0.4222 0.9418
O1 O -0.0358(4) 0.70322(7) 0.7564(4)
O2 O 0.0528(3) 0.47045(7) 0.9730(3)
O3 O 0.5360(3) 0.45235(7) 0.9516(3)
O4 O 0.1362(4) 0.36964(9) 0.7342(4)
O5 O 0.3373(4) 0.32767(9) 0.7798(4)
S1 S 0.17480(10) 0.54165(3) 1.23956(11)
C26 C 0.7878(4) 0.38354(11) 0.8227(4)
H27 H 0.8076 0.4018 0.9025
C27 C 0.7880(5) 0.34571(12) 0.8616(5)
H28 H 0.8086 0.3385 0.9672
C28 C 0.7583(5) 0.31836(11) 0.7471(5)
C29 C 0.7748(9) 0.25167(14) 0.6862(8)
H29 H 0.6769 0.2513 0.6093
H30 H 0.7893 0.2274 0.7387
H31 H 0.8648 0.2566 0.6347
C30 C 0.7272(6) 0.32911(12) 0.5929(5)
H32 H 0.7068 0.3107 0.5138
C31 C 0.7261(5) 0.36741(10) 0.5546(5)
H33 H 0.7026 0.3745 0.4489
C32 C 0.7584(4) 0.39539(9) 0.6666(4)
C33 C 0.5918(4) 0.45376(10) 0.5660(4)
H34 H 0.5120 0.4383 0.6078
C34 C 0.7637(4) 0.43764(9) 0.6245(4)
H35 H 0.8147 0.4520 0.7181
C35 C 0.8546(4) 0.44511(9) 0.4927(4)
C36 C 1.0259(4) 0.44612(9) 0.5149(4)
C37 C 0.7637(4) 0.44945(9) 0.3480(4)
C38 C 0.5728(4) 0.49556(9) 0.6066(4)
C39 C 0.3529(4) 0.54115(10) 0.6382(4)
C40 C 0.3683(5) 0.68447(14) 0.8905(5)
H36 H 0.3180 0.6661 0.9428
C41 C 0.3332(7) 0.72260(19) 0.9067(7)
H37 H 0.2603 0.7297 0.9708
C42 C 0.4034(9) 0.74978(18) 0.8309(10)
H38 H 0.3796 0.7755 0.8431
C43 C 0.5089(8) 0.73945(15) 0.7365(9)
H39 H 0.5557 0.7581 0.6823
C44 C 0.5477(5) 0.70129(12) 0.7201(6)
H40 H 0.6216 0.6946 0.6566
C45 C 0.4772(4) 0.67337(10) 0.7973(5)
C46 C 0.5190(5) 0.63186(10) 0.7814(5)
H41 H 0.5273 0.6197 0.8837
H42 H 0.6241 0.6302 0.7506
C47 C 0.3971(4) 0.60976(10) 0.6619(4)
H43 H 0.2939 0.6091 0.6995
C48 C 0.3703(5) 0.62872(11) 0.5028(5)
C49 C 0.4896(8) 0.6413(2) 0.2791(6)
H44 H 0.4358 0.6239 0.1985
H45 H 0.4285 0.6649 0.2720
C50 C 0.6497(9) 0.6487(2) 0.2545(7)
H46 H 0.7020 0.6660 0.3341
H47 H 0.6457 0.6600 0.1523
H48 H 0.7092 0.6252 0.2607
N5 N 1.1639(4) 0.44817(10) 0.5282(4)
N6 N 0.8103(4) 0.45251(9) 0.2075(3)
H49 H 0.9113 0.4518 0.2020
H50 H 0.7392 0.4552 0.1231
N7 N 0.4183(3) 0.50524(7) 0.6174(3)
H51 H 0.3514 0.4865 0.6104
N8 N 0.4540(4) 0.57056(8) 0.6532(4)
H52 H 0.5555 0.5664 0.6580
O6 O 0.7650(5) 0.28089(9) 0.7987(4)
O7 O 0.6855(3) 0.51800(7) 0.6252(3)
O8 O 0.2083(3) 0.54348(7) 0.6416(3)
O9 O 0.2516(4) 0.64603(10) 0.4470(4)
O10 O 0.4968(4) 0.62427(10) 0.4343(4)
S2 S 0.55432(10) 0.45111(3) 0.35032(10)
loop_
_geom_bond_atom_site_label_1
_geom_bond_atom_site_label_2
_geom_bond_site_symmetry_1
_geom_bond_site_symmetry_2
C1 H1 1_555 1_555
C2 C1 1_555 1_555
H2 C2 1_555 1_555
C3 C2 1_555 1_555
C4 H3 1_555 1_555
H4 C4 1_555 1_555
H5 C4 1_555 1_555
C5 C3 1_555 1_555
H6 C5 1_555 1_555
C6 C5 1_555 1_555
H7 C6 1_555 1_555
C7 C1 1_555 1_555
C8 H8 1_555 1_555
C9 C7 1_555 1_555
H9 C9 1_555 1_555
C10 C9 1_555 1_555
C11 C10 1_555 1_555
C12 C10 1_555 1_555
C13 C8 1_555 1_555
C14 N3 1_555 1_555
C15 H10 1_555 1_555
C16 C15 1_555 1_555
H11 C16 1_555 1_555
C17 C16 1_555 1_555
H12 C17 1_555 1_555
C18 C17 1_555 1_555
H13 C18 1_555 1_555
C19 C18 1_555 1_555
H14 C19 1_555 1_555
C20 C15 1_555 1_555
C21 C20 1_555 1_555
H15 C21 1_555 1_555
H16 C21 1_555 1_555
C22 C21 1_555 1_555
H17 C22 1_555 1_555
C23 C22 1_555 1_555
C24 H18 1_555 1_555
H19 C24 1_555 1_555
C25 C24 1_555 1_555
H20 C25 1_555 1_555
H21 C25 1_555 1_555
H22 C25 1_555 1_555
N1 C11 1_555 1_555
N2 C12 1_555 1_555
H23 N2 1_555 1_555
H24 N2 1_555 1_555
N3 C13 1_555 1_555
H25 N3 1_555 1_555
N4 C14 1_555 1_555
H26 N4 1_555 1_555
O1 C3 1_555 1_555
O2 C13 1_555 1_555
O3 C14 1_555 1_555
O4 C23 1_555 1_555
O5 C23 1_555 1_555
S1 C8 1_555 1_555
C26 H27 1_555 1_555
C27 C26 1_555 1_555
H28 C27 1_555 1_555
C28 C27 1_555 1_555
C29 H29 1_555 1_555
H30 C29 1_555 1_555
H31 C29 1_555 1_555
C30 C28 1_555 1_555
H32 C30 1_555 1_555
C31 C30 1_555 1_555
H33 C31 1_555 1_555
C32 C26 1_555 1_555
C33 H34 1_555 1_555
C34 C32 1_555 1_555
H35 C34 1_555 1_555
C35 C34 1_555 1_555
C36 C35 1_555 1_555
C37 C35 1_555 1_555
C38 C33 1_555 1_555
C39 N7 1_555 1_555
C40 H36 1_555 1_555
C41 C40 1_555 1_555
H37 C41 1_555 1_555
C42 C41 1_555 1_555
H38 C42 1_555 1_555
C43 C42 1_555 1_555
H39 C43 1_555 1_555
C44 C43 1_555 1_555
H40 C44 1_555 1_555
C45 C40 1_555 1_555
C46 C45 1_555 1_555
H41 C46 1_555 1_555
H42 C46 1_555 1_555
C47 C46 1_555 1_555
H43 C47 1_555 1_555
C48 C47 1_555 1_555
C49 H44 1_555 1_555
H45 C49 1_555 1_555
C50 C49 1_555 1_555
H46 C50 1_555 1_555
H47 C50 1_555 1_555
H48 C50 1_555 1_555
N5 C36 1_555 1_555
N6 C37 1_555 1_555
H49 N6 1_555 1_555
H50 N6 1_555 1_555
N7 C38 1_555 1_555
H51 N7 1_555 1_555
N8 C39 1_555 1_555
H52 N8 1_555 1_555
O6 C28 1_555 1_555
O7 C38 1_555 1_555
O8 C39 1_555 1_555
O9 C48 1_555 1_555
O10 C48 1_555 1_555
S2 C33 1_555 1_555
C4 O1 1_555 1_555
C6 C7 1_555 1_555
C8 C9 1_555 1_555
C12 S1 1_555 1_555
C19 C20 1_555 1_555
C22 N4 1_555 1_555
C24 O5 1_555 1_555
C29 O6 1_555 1_555
C31 C32 1_555 1_555
C33 C34 1_555 1_555
C37 S2 1_555 1_555
C44 C45 1_555 1_555
C47 N8 1_555 1_555
C49 O10 1_555 1_555

#END
