
#######################################################################
#
#                 Cambridge Crystallographic Data Centre
#                                CCDC 
#
#######################################################################
#
# If this CIF has been generated from an entry in the Cambridge 
# Structural Database, then it will include bibliographic, chemical, 
# crystal, experimental, refinement or atomic coordinate data resulting 
# from the CCDC's data processing and validation procedures.
#
#######################################################################

data_HIDXAW
_chemical_formula_moiety         'C25 H26 N4 O5 S1'
_chemical_name_systematic        
'ethyl N-{[5-amino-4-cyano-3-(3-methoxyphenyl)-2,3-dihydrothiophene-2-carbonyl]carbamoyl}phenylalaninate'
_symmetry_cell_setting           monoclinic
_symmetry_space_group_name_H-M   'P 21'
_symmetry_Int_Tables_number      4
_space_group_name_Hall           'P 2yb'
loop_
_symmetry_equiv_pos_site_id
_symmetry_equiv_pos_as_xyz
1 x,y,z
2 -x,1/2+y,-z
_cell_length_a                   8.4873(16)
_cell_length_b                   34.193(5)
_cell_length_c                   8.7571(16)
_cell_angle_alpha                90
_cell_angle_beta                 97.759(6)
_cell_angle_gamma                90
_cell_volume                     2518.1
_exptl_crystal_colour            colorless
_exptl_crystal_description       block
_cell_formula_units_Z            4
loop_
_atom_site_label
_atom_site_type_symbol
_atom_site_fract_x
_atom_site_fract_y
_atom_site_fract_z
C1 C 0.5653(6) 0.37188(13) 0.5162(6)
H1 H 0.5582 0.3680 0.4104
C2 C 0.5645(7) 0.40964(16) 0.5762(8)
C3 C 0.5229(12) 0.4383(2) 0.3272(11)
H2 H 0.6069 0.4240 0.2895
H3 H 0.5138 0.4637 0.2797
H4 H 0.4245 0.4244 0.3026
C4 C 0.5721(7) 0.4150(2) 0.7329(10)
H5 H 0.5698 0.4402 0.7723
C5 C 0.5827(7) 0.3842(2) 0.8306(8)
H6 H 0.5879 0.3883 0.9361
C6 C 0.5858(6) 0.34611(17) 0.7735(6)
H7 H 0.5940 0.3250 0.8409
C7 C 0.5768(5) 0.33995(13) 0.6168(6)
C8 C 0.3938(5) 0.28544(12) 0.5021(6)
H8 H 0.3226 0.3023 0.5523
C9 C 0.5680(5) 0.29860(12) 0.5518(5)
H9 H 0.6163 0.2808 0.6326
C10 C 0.6511(5) 0.29300(13) 0.4118(6)
C11 C 0.8199(7) 0.29378(13) 0.4225(6)
C12 C 0.5559(5) 0.29061(13) 0.2745(6)
C13 C 0.3610(6) 0.24286(13) 0.5384(5)
C14 C 0.1279(6) 0.19992(14) 0.5698(5)
C15 C 0.3121(8) 0.05488(14) 0.4293(7)
H10 H 0.2660 0.0387 0.4963
C16 C 0.4407(8) 0.04147(16) 0.3620(7)
H11 H 0.4792 0.0163 0.3838
C17 C 0.5120(8) 0.06475(18) 0.2637(7)
H12 H 0.5991 0.0559 0.2196
C18 C 0.4508(8) 0.10181(16) 0.2319(7)
H13 H 0.4965 0.1178 0.1641
C19 C 0.3241(7) 0.11541(15) 0.2983(7)
H14 H 0.2865 0.1406 0.2761
C20 C 0.2513(7) 0.09231(14) 0.3976(6)
C21 C 0.1071(7) 0.10640(14) 0.4659(7)
H15 H 0.0438 0.0838 0.4863
H16 H 0.0429 0.1224 0.3899
C22 C 0.1440(6) 0.13031(14) 0.6164(6)
H17 H 0.0427 0.1357 0.6543
C23 C 0.2479(8) 0.10849(16) 0.7409(7)
C24 C 0.2706(12) 0.0495(2) 0.8897(10)
H18 H 0.3798 0.0468 0.8697
H19 H 0.2716 0.0616 0.9900
C25 C 0.2018(13) 0.0134(3) 0.8900(13)
H20 H 0.0972 0.0159 0.9192
H21 H 0.2653 -0.0032 0.9624
H22 H 0.1945 0.0022 0.7889
N1 N 0.9554(6) 0.29459(14) 0.4330(6)
N2 N 0.5966(5) 0.28850(11) 0.1307(5)
H23 H 0.6952 0.2886 0.1176
H24 H 0.5239 0.2871 0.0523
N3 N 0.2042(5) 0.23548(10) 0.5445(5)
H25 H 0.1426 0.2555 0.5308
N4 N 0.2189(5) 0.16816(11) 0.5912(5)
H26 H 0.3199 0.1697 0.5904
O1 O 0.5573(6) 0.44262(11) 0.4873(7)
O2 O 0.4649(4) 0.21818(9) 0.5564(5)
O3 O -0.0161(4) 0.20053(10) 0.5720(4)
O4 O 0.3751(6) 0.11886(13) 0.8034(5)
O5 O 0.1817(5) 0.07455(11) 0.7701(5)
S1 S 0.35151(14) 0.29218(4) 0.29164(15)
C26 C 0.7754(6) 0.11155(14) 0.9465(6)
H27 H 0.7996 0.1158 1.0520
C27 C 0.7640(7) 0.07338(15) 0.8905(7)
C28 C 0.7421(9) 0.00521(17) 0.9518(9)
H28 H 0.6296 0.0046 0.9186
H29 H 0.7675 -0.0123 1.0372
H30 H 0.7976 -0.0027 0.8685
C29 C 0.7319(7) 0.06721(18) 0.7334(8)
H31 H 0.7251 0.0419 0.6944
C30 C 0.7103(8) 0.09857(19) 0.6352(7)
H32 H 0.6892 0.0944 0.5295
C31 C 0.7195(6) 0.13647(16) 0.6920(6)
H33 H 0.7039 0.1575 0.6243
C32 C 0.7515(5) 0.14313(14) 0.8486(6)
C33 C 0.9318(5) 0.19874(12) 0.9607(5)
H34 H 1.0062 0.1821 0.9138
C34 C 0.7585(5) 0.18506(12) 0.9083(5)
H35 H 0.7110 0.2023 0.8252
C35 C 0.6711(5) 0.19090(12) 1.0466(6)
C36 C 0.5032(7) 0.19287(13) 1.0341(6)
C37 C 0.7631(5) 0.19434(13) 1.1848(6)
C38 C 0.9576(6) 0.24145(13) 0.9212(5)
C39 C 1.1781(6) 0.28736(13) 0.8848(5)
C40 C 0.9671(7) 0.44951(16) 0.7392(7)
H36 H 0.8918 0.4436 0.8036
C41 C 0.9955(8) 0.48846(17) 0.7057(9)
H37 H 0.9394 0.5083 0.7471
C42 C 1.1048(9) 0.49716(18) 0.6130(9)
H38 H 1.1230 0.5231 0.5890
C43 C 1.1895(8) 0.46810(19) 0.5536(9)
H39 H 1.2662 0.4743 0.4910
C44 C 1.1598(7) 0.42942(16) 0.5875(7)
H40 H 1.2174 0.4097 0.5470
C45 C 1.0478(6) 0.41951(14) 0.6793(6)
C46 C 1.0123(6) 0.37736(13) 0.7090(6)
H41 H 1.0068 0.3632 0.6124
H42 H 0.9081 0.3759 0.7425
C47 C 1.1308(6) 0.35660(13) 0.8280(6)
H43 H 1.2337 0.3556 0.7891
C48 C 1.1527(7) 0.37801(16) 0.9804(7)
C49 C 1.0453(12) 0.3902(3) 1.2084(9)
H44 H 1.0968 0.3727 1.2868
H45 H 1.1068 0.4141 1.2104
C50 C 0.8887(13) 0.3983(4) 1.2353(13)
H46 H 0.8480 0.4201 1.1732
H47 H 0.8884 0.4044 1.3422
H48 H 0.8229 0.3758 1.2088
N5 N 0.3671(6) 0.19535(14) 1.0269(6)
N6 N 0.7189(5) 0.19689(12) 1.3261(4)
H49 H 0.6197 0.1964 1.3370
H50 H 0.7898 0.1990 1.4057
N7 N 1.1126(4) 0.25112(10) 0.9156(4)
H51 H 1.1797 0.2323 0.9336
N8 N 1.0768(5) 0.31659(11) 0.8464(5)
H52 H 0.9765 0.3117 0.8321
O6 O 0.7895(6) 0.04432(10) 0.9989(5)
O7 O 0.8482(4) 0.26489(10) 0.8978(5)
O8 O 1.3228(4) 0.29020(10) 0.8914(4)
O9 O 1.2601(6) 0.39934(14) 1.0244(5)
O10 O 1.0338(6) 0.37170(16) 1.0551(5)
S2 S 0.96874(15) 0.19422(3) 1.17206(14)
loop_
_geom_bond_atom_site_label_1
_geom_bond_atom_site_label_2
_geom_bond_site_symmetry_1
_geom_bond_site_symmetry_2
C1 H1 1_555 1_555
C2 C1 1_555 1_555
C3 H2 1_555 1_555
H3 C3 1_555 1_555
H4 C3 1_555 1_555
C4 C2 1_555 1_555
H5 C4 1_555 1_555
C5 C4 1_555 1_555
H6 C5 1_555 1_555
C6 C5 1_555 1_555
H7 C6 1_555 1_555
C7 C1 1_555 1_555
C8 H8 1_555 1_555
C9 C7 1_555 1_555
H9 C9 1_555 1_555
C10 C9 1_555 1_555
C11 C10 1_555 1_555
C12 C10 1_555 1_555
C13 C8 1_555 1_555
C14 N3 1_555 1_555
C15 H10 1_555 1_555
C16 C15 1_555 1_555
H11 C16 1_555 1_555
C17 C16 1_555 1_555
H12 C17 1_555 1_555
C18 C17 1_555 1_555
H13 C18 1_555 1_555
C19 C18 1_555 1_555
H14 C19 1_555 1_555
C20 C15 1_555 1_555
C21 C20 1_555 1_555
H15 C21 1_555 1_555
H16 C21 1_555 1_555
C22 C21 1_555 1_555
H17 C22 1_555 1_555
C23 C22 1_555 1_555
C24 H18 1_555 1_555
H19 C24 1_555 1_555
C25 C24 1_555 1_555
H20 C25 1_555 1_555
H21 C25 1_555 1_555
H22 C25 1_555 1_555
N1 C11 1_555 1_555
N2 C12 1_555 1_555
H23 N2 1_555 1_555
H24 N2 1_555 1_555
N3 C13 1_555 1_555
H25 N3 1_555 1_555
N4 C14 1_555 1_555
H26 N4 1_555 1_555
O1 C2 1_555 1_555
O2 C13 1_555 1_555
O3 C14 1_555 1_555
O4 C23 1_555 1_555
O5 C23 1_555 1_555
S1 C8 1_555 1_555
C26 H27 1_555 1_555
C27 C26 1_555 1_555
C28 H28 1_555 1_555
H29 C28 1_555 1_555
H30 C28 1_555 1_555
C29 C27 1_555 1_555
H31 C29 1_555 1_555
C30 C29 1_555 1_555
H32 C30 1_555 1_555
C31 C30 1_555 1_555
H33 C31 1_555 1_555
C32 C26 1_555 1_555
C33 H34 1_555 1_555
C34 C32 1_555 1_555
H35 C34 1_555 1_555
C35 C34 1_555 1_555
C36 C35 1_555 1_555
C37 C35 1_555 1_555
C38 C33 1_555 1_555
C39 N7 1_555 1_555
C40 H36 1_555 1_555
C41 C40 1_555 1_555
H37 C41 1_555 1_555
C42 C41 1_555 1_555
H38 C42 1_555 1_555
C43 C42 1_555 1_555
H39 C43 1_555 1_555
C44 C43 1_555 1_555
H40 C44 1_555 1_555
C45 C40 1_555 1_555
C46 C45 1_555 1_555
H41 C46 1_555 1_555
H42 C46 1_555 1_555
C47 C46 1_555 1_555
H43 C47 1_555 1_555
C48 C47 1_555 1_555
C49 H44 1_555 1_555
H45 C49 1_555 1_555
C50 C49 1_555 1_555
H46 C50 1_555 1_555
H47 C50 1_555 1_555
H48 C50 1_555 1_555
N5 C36 1_555 1_555
N6 C37 1_555 1_555
H49 N6 1_555 1_555
H50 N6 1_555 1_555
N7 C38 1_555 1_555
H51 N7 1_555 1_555
N8 C39 1_555 1_555
H52 N8 1_555 1_555
O6 C27 1_555 1_555
O7 C38 1_555 1_555
O8 C39 1_555 1_555
O9 C48 1_555 1_555
O10 C48 1_555 1_555
S2 C33 1_555 1_555
C3 O1 1_555 1_555
C6 C7 1_555 1_555
C8 C9 1_555 1_555
C12 S1 1_555 1_555
C19 C20 1_555 1_555
C22 N4 1_555 1_555
C24 O5 1_555 1_555
C28 O6 1_555 1_555
C31 C32 1_555 1_555
C33 C34 1_555 1_555
C37 S2 1_555 1_555
C44 C45 1_555 1_555
C47 N8 1_555 1_555
C49 O10 1_555 1_555

#END
