
#######################################################################
#
#                 Cambridge Crystallographic Data Centre
#                                CCDC 
#
#######################################################################
#
# If this CIF has been generated from an entry in the Cambridge 
# Structural Database, then it will include bibliographic, chemical, 
# crystal, experimental, refinement or atomic coordinate data resulting 
# from the CCDC's data processing and validation procedures.
#
#######################################################################

data_HIFDIL
_chemical_formula_moiety         'C25 H42 O2'
_chemical_name_systematic        
2a,5,5,9,12,13a-Hexamethyl-2,2a,3,4,5,6,6a,6b,7,8,10,11,12,12a,13,13a-hexadecahydro-1H-cyclopenta[4,5]cycloocta[1,2-a]naphthalene-11,13-diol
_symmetry_cell_setting           monoclinic
_symmetry_space_group_name_H-M   'P 21'
_symmetry_Int_Tables_number      4
_space_group_name_Hall           'P 2yb'
loop_
_symmetry_equiv_pos_site_id
_symmetry_equiv_pos_as_xyz
1 x,y,z
2 -x,1/2+y,-z
_cell_length_a                   12.6439(3)
_cell_length_b                   6.8702(2)
_cell_length_c                   13.2201(4)
_cell_angle_alpha                90
_cell_angle_beta                 97.454(2)
_cell_angle_gamma                90
_cell_volume                     1138.67
_exptl_crystal_colour            colorless
_exptl_crystal_description       block
_cell_formula_units_Z            2
loop_
_atom_site_label
_atom_site_type_symbol
_atom_site_fract_x
_atom_site_fract_y
_atom_site_fract_z
C1 C 0.29223(19) 0.3710(4) 0.4080(2)
H1 H 0.2250 0.4289 0.4271
C2 C 0.2982(2) 0.1622(4) 0.4523(2)
H2 H 0.3452 0.0868 0.4111
C3 C 0.3519(2) 0.1507(4) 0.5645(2)
H3 H 0.4285 0.1904 0.5693
C4 C 0.3434(2) -0.0680(4) 0.5841(2)
H4 H 0.3526 -0.0968 0.6588
C5 C 0.2304(2) -0.1215(5) 0.5342(2)
H5 H 0.2304 -0.2503 0.5006
H6 H 0.1803 -0.1255 0.5858
C6 C 0.1988(2) 0.0376(4) 0.4561(2)
C7 C 0.1000(2) 0.0580(4) 0.4081(2)
C8 C 0.05692(19) 0.2197(5) 0.3350(2)
H7 H -0.0218 0.2103 0.3228
H8 H 0.0754 0.3472 0.3675
C9 C 0.0988(2) 0.2123(5) 0.2364(2)
H9 H 0.0716 0.3290 0.1975
H10 H 0.0656 0.0981 0.1991
C10 C 0.2218(2) 0.2008(5) 0.2295(2)
H11 H 0.2496 0.0801 0.2660
C11 C 0.2812(2) 0.3794(4) 0.2859(2)
C12 C 0.3985(2) 0.3867(5) 0.2609(2)
H12 H 0.4308 0.5117 0.2861
H13 H 0.4394 0.2809 0.2989
C13 C 0.4106(3) 0.3669(5) 0.1487(2)
H14 H 0.4873 0.3705 0.1407
H15 H 0.3756 0.4789 0.1110
C14 C 0.3618(2) 0.1775(5) 0.1022(2)
C15 C 0.2415(2) 0.1807(5) 0.1161(2)
H16 H 0.2093 0.2977 0.0790
C16 C 0.1884(2) -0.0054(5) 0.0592(2)
H17 H 0.2206 -0.1229 0.0941
H18 H 0.1116 -0.0059 0.0670
C17 C 0.1987(3) -0.0213(6) -0.0510(2)
C18 C 0.3167(3) -0.0008(6) -0.0673(2)
H19 H 0.3554 -0.1205 -0.0428
H20 H 0.3210 0.0115 -0.1413
C19 C 0.3713(3) 0.1738(6) -0.0124(2)
H21 H 0.3396 0.2945 -0.0441
H22 H 0.4478 0.1724 -0.0216
C20 C 0.2947(3) 0.2706(5) 0.6386(2)
H23 H 0.2193 0.2330 0.6317
H24 H 0.3003 0.4093 0.6228
H25 H 0.3278 0.2463 0.7086
C21 C 0.0139(2) -0.0914(5) 0.4185(3)
H26 H 0.0448 -0.2018 0.4591
H27 H -0.0164 -0.1372 0.3507
H28 H -0.0425 -0.0321 0.4526
C22 C 0.2280(3) 0.5729(5) 0.2524(3)
H29 H 0.2693 0.6804 0.2867
H30 H 0.1554 0.5752 0.2707
H31 H 0.2254 0.5873 0.1783
C23 C 0.4223(3) 0.0037(6) 0.1545(3)
H32 H 0.4979 0.0131 0.1459
H33 H 0.3927 -0.1176 0.1236
H34 H 0.4149 0.0044 0.2274
C24 C 0.1299(3) 0.1271(6) -0.1154(3)
H35 H 0.1352 0.1045 -0.1878
H36 H 0.1549 0.2588 -0.0966
H37 H 0.0555 0.1132 -0.1032
C25 C 0.1615(3) -0.2276(6) -0.0834(3)
H38 H 0.0864 -0.2436 -0.0738
H39 H 0.2049 -0.3234 -0.0417
H40 H 0.1694 -0.2474 -0.1555
O1 O 0.37365(16) 0.4866(3) 0.45277(16)
H41 H 0.4321 0.4285 0.4524
O2 O 0.42330(15) -0.1630(3) 0.53509(17)
H42 H 0.4002 -0.2712 0.5123
loop_
_geom_bond_atom_site_label_1
_geom_bond_atom_site_label_2
_geom_bond_site_symmetry_1
_geom_bond_site_symmetry_2
C1 H1 1_555 1_555
C2 C1 1_555 1_555
H2 C2 1_555 1_555
C3 C2 1_555 1_555
H3 C3 1_555 1_555
C4 C3 1_555 1_555
H4 C4 1_555 1_555
C5 C4 1_555 1_555
H5 C5 1_555 1_555
H6 C5 1_555 1_555
C6 C2 1_555 1_555
C7 C6 1_555 1_555
C8 C7 1_555 1_555
H7 C8 1_555 1_555
H8 C8 1_555 1_555
C9 C8 1_555 1_555
H9 C9 1_555 1_555
H10 C9 1_555 1_555
C10 C9 1_555 1_555
H11 C10 1_555 1_555
C11 C1 1_555 1_555
C12 C11 1_555 1_555
H12 C12 1_555 1_555
H13 C12 1_555 1_555
C13 C12 1_555 1_555
H14 C13 1_555 1_555
H15 C13 1_555 1_555
C14 C13 1_555 1_555
C15 C10 1_555 1_555
H16 C15 1_555 1_555
C16 C15 1_555 1_555
H17 C16 1_555 1_555
H18 C16 1_555 1_555
C17 C16 1_555 1_555
C18 C17 1_555 1_555
H19 C18 1_555 1_555
H20 C18 1_555 1_555
C19 C14 1_555 1_555
H21 C19 1_555 1_555
H22 C19 1_555 1_555
C20 C3 1_555 1_555
H23 C20 1_555 1_555
H24 C20 1_555 1_555
H25 C20 1_555 1_555
C21 C7 1_555 1_555
H26 C21 1_555 1_555
H27 C21 1_555 1_555
H28 C21 1_555 1_555
C22 C11 1_555 1_555
H29 C22 1_555 1_555
H30 C22 1_555 1_555
H31 C22 1_555 1_555
C23 C14 1_555 1_555
H32 C23 1_555 1_555
H33 C23 1_555 1_555
H34 C23 1_555 1_555
C24 C17 1_555 1_555
H35 C24 1_555 1_555
H36 C24 1_555 1_555
H37 C24 1_555 1_555
C25 C17 1_555 1_555
H38 C25 1_555 1_555
H39 C25 1_555 1_555
H40 C25 1_555 1_555
O1 C1 1_555 1_555
H41 O1 1_555 1_555
O2 C4 1_555 1_555
H42 O2 1_555 1_555
C5 C6 1_555 1_555
C10 C11 1_555 1_555
C14 C15 1_555 1_555
C18 C19 1_555 1_555

#END
