
#######################################################################
#
#                 Cambridge Crystallographic Data Centre
#                                CCDC 
#
#######################################################################
#
# If this CIF has been generated from an entry in the Cambridge 
# Structural Database, then it will include bibliographic, chemical, 
# crystal, experimental, refinement or atomic coordinate data resulting 
# from the CCDC's data processing and validation procedures.
#
#######################################################################

data_HIFDEH
_chemical_formula_moiety         'C25 H42 O1,0.75(H2 O1)'
_chemical_name_systematic        
'2a,5,5,9,12,13a-Hexamethyl-2,2a,3,4,5,6,6a,6b,7,8,10,11,12,12a,13,13a-hexadecahydro-1H-cyclopenta[4,5]cycloocta[1,2-a]naphthalen-13-ol hydrate'
_symmetry_cell_setting           monoclinic
_symmetry_space_group_name_H-M   'C 2'
_symmetry_Int_Tables_number      5
_space_group_name_Hall           'C 2y'
loop_
_symmetry_equiv_pos_site_id
_symmetry_equiv_pos_as_xyz
1 x,y,z
2 -x,y,-z
3 1/2+x,1/2+y,z
4 1/2-x,1/2+y,-z
_cell_length_a                   29.5357(3)
_cell_length_b                   15.7962(2)
_cell_length_c                   20.0056(2)
_cell_angle_alpha                90
_cell_angle_beta                 96.3130(10)
_cell_angle_gamma                90
_cell_volume                     9277.05
_exptl_crystal_colour            colorless
_exptl_crystal_description       block
_cell_formula_units_Z            16
loop_
_atom_site_label
_atom_site_type_symbol
_atom_site_fract_x
_atom_site_fract_y
_atom_site_fract_z
O2 O 0.79670(5) 0.45413(11) 0.83550(8)
H43 H 0.8013 0.4564 0.7949
C26 C 0.83548(6) 0.42196(14) 0.87375(11)
H44 H 0.8594 0.4146 0.8425
C27 C 0.82633(7) 0.33421(14) 0.90206(10)
H45 H 0.8107 0.3440 0.9433
C28 C 0.79406(7) 0.27714(14) 0.85498(11)
H46 H 0.7631 0.3032 0.8465
C29 C 0.79262(8) 0.19792(16) 0.89835(13)
H47 H 0.7819 0.1484 0.8706
H48 H 0.7721 0.2062 0.9338
C30 C 0.84193(10) 0.18556(16) 0.92929(13)
H49 H 0.8431 0.1692 0.9772
H50 H 0.8571 0.1411 0.9050
C31 C 0.86487(8) 0.27146(15) 0.92207(11)
C32 C 0.90981(9) 0.27991(17) 0.92330(13)
C33 C 0.93654(7) 0.35852(18) 0.90934(14)
H51 H 0.9239 0.3827 0.8656
H52 H 0.9686 0.3425 0.9058
C34 C 0.93543(8) 0.42671(18) 0.96429(13)
H53 H 0.9513 0.4772 0.9491
H54 H 0.9540 0.4054 1.0050
C35 C 0.88964(7) 0.45711(15) 0.98620(11)
H55 H 0.8755 0.4077 1.0072
C36 C 0.85411(8) 0.49022(14) 0.92779(11)
C37 C 0.81149(8) 0.52214(15) 0.95862(12)
H56 H 0.7904 0.5481 0.9225
H57 H 0.7958 0.4728 0.9761
C38 C 0.82120(9) 0.58632(15) 1.01520(13)
H58 H 0.7923 0.6005 1.0334
H59 H 0.8331 0.6389 0.9966
C39 C 0.85558(9) 0.55427(15) 1.07274(12)
C40 C 0.89882(8) 0.52621(15) 1.04167(11)
H60 H 0.9093 0.5773 1.0182
C41 C 0.93747(9) 0.50534(17) 1.09734(12)
H61 H 0.9650 0.4898 1.0761
H62 H 0.9285 0.4555 1.1228
C42 C 0.94940(10) 0.57864(19) 1.14696(13)
C43 C 0.90649(10) 0.60805(19) 1.17590(13)
H63 H 0.9137 0.6591 1.2038
H64 H 0.8964 0.5632 1.2055
C44 C 0.86765(10) 0.62865(17) 1.12164(13)
H65 H 0.8763 0.6783 1.0957
H66 H 0.8403 0.6442 1.1435
C45 C 0.81329(9) 0.25896(16) 0.78873(11)
H67 H 0.8452 0.2412 0.7979
H68 H 0.8115 0.3103 0.7610
H69 H 0.7956 0.2137 0.7647
C46 C 0.94092(11) 0.2043(2) 0.93935(19)
H70 H 0.9246 0.1607 0.9620
H71 H 0.9679 0.2222 0.9689
H72 H 0.9503 0.1812 0.8975
C47 C 0.87460(10) 0.56256(17) 0.88913(13)
H73 H 0.8514 0.5847 0.8548
H74 H 0.9005 0.5410 0.8674
H75 H 0.8850 0.6079 0.9205
C48 C 0.83397(9) 0.48314(16) 1.11073(13)
H76 H 0.8074 0.5052 1.1303
H77 H 0.8563 0.4617 1.1467
H78 H 0.8245 0.4371 1.0795
C49 C 0.97131(12) 0.6522(2) 1.11130(16)
H79 H 0.9979 0.6313 1.0910
H80 H 0.9809 0.6966 1.1441
H81 H 0.9491 0.6756 1.0761
C50 C 0.98470(11) 0.5475(3) 1.20348(15)
H82 H 0.9725 0.4983 1.2255
H83 H 0.9914 0.5928 1.2365
H84 H 1.0127 0.5313 1.1846
C51 C 0.83923(6) 0.49207(14) 0.66001(11)
H85 H 0.8665 0.5069 0.6920
C52 C 0.82410(7) 0.57556(14) 0.62456(11)
H86 H 0.8073 0.5596 0.5802
C53 C 0.79093(8) 0.62985(15) 0.66144(11)
H87 H 0.7614 0.5996 0.6635
C54 C 0.78468(9) 0.70594(16) 0.61385(12)
H88 H 0.7637 0.6920 0.5733
H89 H 0.7725 0.7553 0.6366
C55 C 0.83219(10) 0.72386(15) 0.59564(13)
H90 H 0.8463 0.7708 0.6233
H91 H 0.8312 0.7396 0.5476
C56 C 0.85915(8) 0.64198(14) 0.60973(11)
C57 C 0.90451(8) 0.63843(15) 0.61483(12)
C58 C 0.93530(7) 0.56276(16) 0.63219(12)
H92 H 0.9281 0.5381 0.6753
H93 H 0.9674 0.5820 0.6383
C59 C 0.92986(7) 0.49399(16) 0.57734(12)
H94 H 0.9427 0.5169 0.5374
H95 H 0.9493 0.4456 0.5937
C60 C 0.88234(7) 0.45853(13) 0.55329(10)
H96 H 0.8638 0.5067 0.5325
C61 C 0.85631(8) 0.42262(14) 0.61111(11)
C62 C 0.81182(8) 0.37858(15) 0.58051(13)
H97 H 0.7985 0.3479 0.6168
H98 H 0.7898 0.4227 0.5634
C63 C 0.81753(9) 0.31653(15) 0.52370(13)
H99 H 0.8362 0.2680 0.5420
H100 H 0.7872 0.2945 0.5058
C64 C 0.84004(8) 0.35621(14) 0.46638(12)
C65 C 0.88667(7) 0.39248(13) 0.49663(11)
H101 H 0.9043 0.3438 0.5182
C66 C 0.91372(8) 0.42482(15) 0.44052(11)
H102 H 0.9439 0.4444 0.4611
H103 H 0.8976 0.4744 0.4190
C67 C 0.92086(8) 0.35923(17) 0.38557(12)
C68 C 0.87529(9) 0.31741(17) 0.35928(13)
H104 H 0.8564 0.3588 0.3314
H105 H 0.8813 0.2689 0.3302
C69 C 0.84883(9) 0.28640(16) 0.41533(14)
H106 H 0.8660 0.2397 0.4395
H107 H 0.8192 0.2634 0.3953
C70 C 0.81169(9) 0.65590(17) 0.73154(11)
H108 H 0.8424 0.6786 0.7291
H109 H 0.8135 0.6065 0.7613
H110 H 0.7926 0.6994 0.7493
C71 C 0.93152(11) 0.71659(19) 0.60088(17)
H111 H 0.9112 0.7586 0.5774
H112 H 0.9554 0.7014 0.5727
H113 H 0.9455 0.7404 0.6435
C72 C 0.88580(10) 0.35836(17) 0.65440(14)
H114 H 0.8686 0.3364 0.6898
H115 H 0.9135 0.3863 0.6749
H116 H 0.8940 0.3115 0.6260
C73 C 0.80874(8) 0.42411(17) 0.43120(13)
H117 H 0.7795 0.3984 0.4141
H118 H 0.8231 0.4483 0.3937
H119 H 0.8036 0.4689 0.4634
C74 C 0.95523(10) 0.2918(2) 0.41349(16)
H120 H 0.9594 0.2503 0.3783
H121 H 0.9438 0.2633 0.4517
H122 H 0.9845 0.3189 0.4283
C75 C 0.94023(10) 0.4044(2) 0.32789(14)
H123 H 0.9688 0.4324 0.3447
H124 H 0.9184 0.4468 0.3086
H125 H 0.9460 0.3631 0.2932
O3 O 0.80749(6) 0.45942(11) 0.69969(8)
H126 H 0.7816 0.4595 0.6777
C76 C 0.67185(6) 0.39226(14) 0.63922(11)
H127 H 0.6495 0.3857 0.6729
C77 C 0.67849(7) 0.30420(14) 0.60893(11)
H128 H 0.6915 0.3136 0.5654
C78 C 0.71253(8) 0.24595(15) 0.65224(11)
H129 H 0.7439 0.2706 0.6564
C79 C 0.71018(9) 0.16571(16) 0.60860(13)
H130 H 0.7217 0.1159 0.6353
H131 H 0.7282 0.1726 0.5701
C80 C 0.65923(9) 0.15612(15) 0.58440(13)
H132 H 0.6548 0.1391 0.5365
H133 H 0.6452 0.1129 0.6114
C81 C 0.63813(8) 0.24313(14) 0.59384(11)
C82 C 0.59372(8) 0.25471(16) 0.59638(12)
C83 C 0.56917(7) 0.33551(17) 0.61136(13)
H134 H 0.5838 0.3601 0.6538
H135 H 0.5372 0.3219 0.6178
C84 C 0.56955(8) 0.40171(16) 0.55461(12)
H136 H 0.5500 0.3795 0.5151
H137 H 0.5545 0.4533 0.5695
C85 C 0.61499(7) 0.42936(14) 0.53015(11)
H138 H 0.6279 0.3787 0.5090
C86 C 0.65210(8) 0.46154(14) 0.58686(12)
C87 C 0.69364(8) 0.49361(15) 0.55337(13)
H139 H 0.7154 0.5202 0.5884
H140 H 0.7091 0.4442 0.5355
C88 C 0.68274(9) 0.55720(15) 0.49637(14)
H141 H 0.6710 0.6099 0.5150
H142 H 0.7112 0.5714 0.4769
C89 C 0.64793(9) 0.52451(14) 0.44079(13)
C90 C 0.60493(8) 0.49741(14) 0.47361(12)
H143 H 0.5947 0.5491 0.4966
C91 C 0.56571(8) 0.47435(16) 0.42005(13)
H144 H 0.5384 0.4611 0.4427
H145 H 0.5741 0.4226 0.3963
C92 C 0.55345(10) 0.54511(19) 0.36749(14)
C93 C 0.59606(10) 0.57421(19) 0.33717(15)
H146 H 0.5884 0.6243 0.3084
H147 H 0.6061 0.5286 0.3082
C94 C 0.63529(11) 0.59688(17) 0.39080(15)
H148 H 0.6266 0.6472 0.4159
H149 H 0.6624 0.6120 0.3683
C95 C 0.69760(9) 0.22859(19) 0.72167(12)
H150 H 0.6656 0.2112 0.7169
H151 H 0.7012 0.2801 0.7490
H152 H 0.7164 0.1833 0.7437
C96 C 0.56080(10) 0.1813(2) 0.58296(17)
H153 H 0.5763 0.1341 0.5633
H154 H 0.5348 0.1993 0.5516
H155 H 0.5501 0.1630 0.6253
C97 C 0.63343(10) 0.53378(17) 0.62786(14)
H156 H 0.6579 0.5555 0.6605
H157 H 0.6086 0.5122 0.6517
H158 H 0.6220 0.5795 0.5974
C98 C 0.66863(9) 0.45147(16) 0.40336(13)
H159 H 0.6946 0.4725 0.3816
H160 H 0.6456 0.4286 0.3692
H161 H 0.6789 0.4068 0.4354
C99 C 0.53147(13) 0.6204(2) 0.40129(19)
H162 H 0.5533 0.6437 0.4371
H163 H 0.5042 0.6010 0.4205
H164 H 0.5230 0.6644 0.3677
C100 C 0.51869(11) 0.5098(3) 0.31277(16)
H165 H 0.4910 0.4935 0.3325
H166 H 0.5315 0.4601 0.2923
H167 H 0.5112 0.5532 0.2783
O4 O 0.71285(5) 0.41959(11) 0.67424(8)
H168 H 0.7079 0.4382 0.7121
C1 C 0.65170(8) 0.44843(15) 0.88127(12)
C2 C 0.66782(7) 0.51987(15) 0.83351(11)
H1 H 0.6412 0.5307 0.7992
C3 C 0.67808(7) 0.60540(15) 0.86958(11)
H2 H 0.6922 0.5919 0.9161
C4 C 0.71232(8) 0.66330(16) 0.83736(11)
H3 H 0.7434 0.6372 0.8417
C5 C 0.71156(11) 0.74085(18) 0.88249(14)
H4 H 0.7240 0.7910 0.8611
H5 H 0.7295 0.7308 0.9265
C6 C 0.66120(12) 0.75315(18) 0.89079(15)
H6 H 0.6574 0.7723 0.9370
H7 H 0.6474 0.7958 0.8585
C7 C 0.63907(9) 0.66692(15) 0.87699(12)
C8 C 0.59411(9) 0.65612(18) 0.86732(13)
C9 C 0.56715(7) 0.5753(2) 0.85106(14)
H8 H 0.5767 0.5502 0.8095
H9 H 0.5344 0.5896 0.8423
C10 C 0.57359(8) 0.50934(18) 0.90779(13)
H10 H 0.5568 0.4578 0.8915
H11 H 0.5584 0.5315 0.9459
C11 C 0.62188(8) 0.48151(14) 0.93619(11)
H12 H 0.6376 0.5326 0.9571
C12 C 0.69648(9) 0.41049(17) 0.91572(13)
H13 H 0.7123 0.3812 0.8812
H14 H 0.7164 0.4575 0.9338
C13 C 0.69118(10) 0.34861(17) 0.97248(14)
H15 H 0.7217 0.3303 0.9925
H16 H 0.6746 0.2979 0.9539
C14 C 0.66559(8) 0.38668(15) 1.02728(12)
C15 C 0.61859(8) 0.41582(15) 0.99368(12)
H17 H 0.6035 0.3645 0.9721
C16 C 0.58883(8) 0.44503(18) 1.04716(13)
H18 H 0.5583 0.4599 1.0246
H19 H 0.6023 0.4972 1.0684
C17 C 0.58281(9) 0.3802(2) 1.10286(14)
C18 C 0.62908(10) 0.34652(18) 1.13302(14)
H20 H 0.6453 0.3916 1.1605
H21 H 0.6243 0.2984 1.1632
C19 C 0.65844(11) 0.31752(17) 1.07973(14)
H22 H 0.6440 0.2676 1.0562
H23 H 0.6885 0.2996 1.1020
C20 C 0.69675(10) 0.68493(18) 0.76439(12)
H24 H 0.6641 0.6983 0.7596
H25 H 0.7022 0.6364 0.7358
H26 H 0.7139 0.7340 0.7508
C21 C 0.56280(14) 0.7315(2) 0.8742(2)
H27 H 0.5799 0.7769 0.8989
H28 H 0.5374 0.7142 0.8987
H29 H 0.5510 0.7519 0.8294
C22 C 0.62589(11) 0.38092(18) 0.83651(14)
H30 H 0.6457 0.3589 0.8044
H31 H 0.5987 0.4064 0.8120
H32 H 0.6168 0.3345 0.8647
C23 C 0.69353(8) 0.45913(17) 1.06252(13)
H33 H 0.7225 0.4369 1.0839
H34 H 0.6764 0.4845 1.0968
H35 H 0.6994 0.5022 1.0293
C24 C 0.55292(14) 0.3063(3) 1.0743(2)
H36 H 0.5503 0.2643 1.1097
H37 H 0.5668 0.2800 1.0371
H38 H 0.5225 0.3275 1.0578
C25 C 0.55933(11) 0.4238(3) 1.15836(17)
H39 H 0.5298 0.4464 1.1392
H40 H 0.5785 0.4702 1.1777
H41 H 0.5547 0.3826 1.1936
O1 O 0.70290(6) 0.49207(12) 0.79724(8)
H42 H 0.7266 0.4843 0.8237
loop_
_geom_bond_atom_site_label_1
_geom_bond_atom_site_label_2
_geom_bond_site_symmetry_1
_geom_bond_site_symmetry_2
C1 C2 1_555 1_555
C2 H1 1_555 1_555
C3 C2 1_555 1_555
H2 C3 1_555 1_555
C4 C3 1_555 1_555
H3 C4 1_555 1_555
C5 C4 1_555 1_555
H4 C5 1_555 1_555
H5 C5 1_555 1_555
C6 C5 1_555 1_555
H6 C6 1_555 1_555
H7 C6 1_555 1_555
C7 C3 1_555 1_555
C8 C7 1_555 1_555
C9 C8 1_555 1_555
H8 C9 1_555 1_555
H9 C9 1_555 1_555
C10 C9 1_555 1_555
H10 C10 1_555 1_555
H11 C10 1_555 1_555
C11 C1 1_555 1_555
H12 C11 1_555 1_555
C12 C1 1_555 1_555
H13 C12 1_555 1_555
H14 C12 1_555 1_555
C13 C12 1_555 1_555
H15 C13 1_555 1_555
H16 C13 1_555 1_555
C14 C13 1_555 1_555
C15 C11 1_555 1_555
H17 C15 1_555 1_555
C16 C15 1_555 1_555
H18 C16 1_555 1_555
H19 C16 1_555 1_555
C17 C16 1_555 1_555
C18 C17 1_555 1_555
H20 C18 1_555 1_555
H21 C18 1_555 1_555
C19 C14 1_555 1_555
H22 C19 1_555 1_555
H23 C19 1_555 1_555
C20 C4 1_555 1_555
H24 C20 1_555 1_555
H25 C20 1_555 1_555
H26 C20 1_555 1_555
C21 C8 1_555 1_555
H27 C21 1_555 1_555
H28 C21 1_555 1_555
H29 C21 1_555 1_555
C22 C1 1_555 1_555
H30 C22 1_555 1_555
H31 C22 1_555 1_555
H32 C22 1_555 1_555
C23 C14 1_555 1_555
H33 C23 1_555 1_555
H34 C23 1_555 1_555
H35 C23 1_555 1_555
C24 C17 1_555 1_555
H36 C24 1_555 1_555
H37 C24 1_555 1_555
H38 C24 1_555 1_555
C25 C17 1_555 1_555
H39 C25 1_555 1_555
H40 C25 1_555 1_555
H41 C25 1_555 1_555
O1 C2 1_555 1_555
H42 O1 1_555 1_555
O2 H43 1_555 1_555
C26 O2 1_555 1_555
H44 C26 1_555 1_555
C27 C26 1_555 1_555
H45 C27 1_555 1_555
C28 C27 1_555 1_555
H46 C28 1_555 1_555
C29 C28 1_555 1_555
H47 C29 1_555 1_555
H48 C29 1_555 1_555
C30 C29 1_555 1_555
H49 C30 1_555 1_555
H50 C30 1_555 1_555
C31 C27 1_555 1_555
C32 C31 1_555 1_555
C33 C32 1_555 1_555
H51 C33 1_555 1_555
H52 C33 1_555 1_555
C34 C33 1_555 1_555
H53 C34 1_555 1_555
H54 C34 1_555 1_555
C35 C34 1_555 1_555
H55 C35 1_555 1_555
C36 C26 1_555 1_555
C37 C36 1_555 1_555
H56 C37 1_555 1_555
H57 C37 1_555 1_555
C38 C37 1_555 1_555
H58 C38 1_555 1_555
H59 C38 1_555 1_555
C39 C38 1_555 1_555
C40 C35 1_555 1_555
H60 C40 1_555 1_555
C41 C40 1_555 1_555
H61 C41 1_555 1_555
H62 C41 1_555 1_555
C42 C41 1_555 1_555
C43 C42 1_555 1_555
H63 C43 1_555 1_555
H64 C43 1_555 1_555
C44 C39 1_555 1_555
H65 C44 1_555 1_555
H66 C44 1_555 1_555
C45 C28 1_555 1_555
H67 C45 1_555 1_555
H68 C45 1_555 1_555
H69 C45 1_555 1_555
C46 C32 1_555 1_555
H70 C46 1_555 1_555
H71 C46 1_555 1_555
H72 C46 1_555 1_555
C47 C36 1_555 1_555
H73 C47 1_555 1_555
H74 C47 1_555 1_555
H75 C47 1_555 1_555
C48 C39 1_555 1_555
H76 C48 1_555 1_555
H77 C48 1_555 1_555
H78 C48 1_555 1_555
C49 C42 1_555 1_555
H79 C49 1_555 1_555
H80 C49 1_555 1_555
H81 C49 1_555 1_555
C50 C42 1_555 1_555
H82 C50 1_555 1_555
H83 C50 1_555 1_555
H84 C50 1_555 1_555
C51 H85 1_555 1_555
C52 C51 1_555 1_555
H86 C52 1_555 1_555
C53 C52 1_555 1_555
H87 C53 1_555 1_555
C54 C53 1_555 1_555
H88 C54 1_555 1_555
H89 C54 1_555 1_555
C55 C54 1_555 1_555
H90 C55 1_555 1_555
H91 C55 1_555 1_555
C56 C52 1_555 1_555
C57 C56 1_555 1_555
C58 C57 1_555 1_555
H92 C58 1_555 1_555
H93 C58 1_555 1_555
C59 C58 1_555 1_555
H94 C59 1_555 1_555
H95 C59 1_555 1_555
C60 C59 1_555 1_555
H96 C60 1_555 1_555
C61 C51 1_555 1_555
C62 C61 1_555 1_555
H97 C62 1_555 1_555
H98 C62 1_555 1_555
C63 C62 1_555 1_555
H99 C63 1_555 1_555
H100 C63 1_555 1_555
C64 C63 1_555 1_555
C65 C60 1_555 1_555
H101 C65 1_555 1_555
C66 C65 1_555 1_555
H102 C66 1_555 1_555
H103 C66 1_555 1_555
C67 C66 1_555 1_555
C68 C67 1_555 1_555
H104 C68 1_555 1_555
H105 C68 1_555 1_555
C69 C64 1_555 1_555
H106 C69 1_555 1_555
H107 C69 1_555 1_555
C70 C53 1_555 1_555
H108 C70 1_555 1_555
H109 C70 1_555 1_555
H110 C70 1_555 1_555
C71 C57 1_555 1_555
H111 C71 1_555 1_555
H112 C71 1_555 1_555
H113 C71 1_555 1_555
C72 C61 1_555 1_555
H114 C72 1_555 1_555
H115 C72 1_555 1_555
H116 C72 1_555 1_555
C73 C64 1_555 1_555
H117 C73 1_555 1_555
H118 C73 1_555 1_555
H119 C73 1_555 1_555
C74 C67 1_555 1_555
H120 C74 1_555 1_555
H121 C74 1_555 1_555
H122 C74 1_555 1_555
C75 C67 1_555 1_555
H123 C75 1_555 1_555
H124 C75 1_555 1_555
H125 C75 1_555 1_555
O3 C51 1_555 1_555
H126 O3 1_555 1_555
C76 H127 1_555 1_555
C77 C76 1_555 1_555
H128 C77 1_555 1_555
C78 C77 1_555 1_555
H129 C78 1_555 1_555
C79 C78 1_555 1_555
H130 C79 1_555 1_555
H131 C79 1_555 1_555
C80 C79 1_555 1_555
H132 C80 1_555 1_555
H133 C80 1_555 1_555
C81 C77 1_555 1_555
C82 C81 1_555 1_555
C83 C82 1_555 1_555
H134 C83 1_555 1_555
H135 C83 1_555 1_555
C84 C83 1_555 1_555
H136 C84 1_555 1_555
H137 C84 1_555 1_555
C85 C84 1_555 1_555
H138 C85 1_555 1_555
C86 C76 1_555 1_555
C87 C86 1_555 1_555
H139 C87 1_555 1_555
H140 C87 1_555 1_555
C88 C87 1_555 1_555
H141 C88 1_555 1_555
H142 C88 1_555 1_555
C89 C88 1_555 1_555
C90 C85 1_555 1_555
H143 C90 1_555 1_555
C91 C90 1_555 1_555
H144 C91 1_555 1_555
H145 C91 1_555 1_555
C92 C91 1_555 1_555
C93 C92 1_555 1_555
H146 C93 1_555 1_555
H147 C93 1_555 1_555
C94 C89 1_555 1_555
H148 C94 1_555 1_555
H149 C94 1_555 1_555
C95 C78 1_555 1_555
H150 C95 1_555 1_555
H151 C95 1_555 1_555
H152 C95 1_555 1_555
C96 C82 1_555 1_555
H153 C96 1_555 1_555
H154 C96 1_555 1_555
H155 C96 1_555 1_555
C97 C86 1_555 1_555
H156 C97 1_555 1_555
H157 C97 1_555 1_555
H158 C97 1_555 1_555
C98 C89 1_555 1_555
H159 C98 1_555 1_555
H160 C98 1_555 1_555
H161 C98 1_555 1_555
C99 C92 1_555 1_555
H162 C99 1_555 1_555
H163 C99 1_555 1_555
H164 C99 1_555 1_555
C100 C92 1_555 1_555
H165 C100 1_555 1_555
H166 C100 1_555 1_555
H167 C100 1_555 1_555
O4 C76 1_555 1_555
H168 O4 1_555 1_555
C6 C7 1_555 1_555
C10 C11 1_555 1_555
C14 C15 1_555 1_555
C18 C19 1_555 1_555
C30 C31 1_555 1_555
C35 C36 1_555 1_555
C39 C40 1_555 1_555
C43 C44 1_555 1_555
C55 C56 1_555 1_555
C60 C61 1_555 1_555
C64 C65 1_555 1_555
C68 C69 1_555 1_555
C80 C81 1_555 1_555
C85 C86 1_555 1_555
C89 C90 1_555 1_555
C93 C94 1_555 1_555

#END
