
#######################################################################
#
#                 Cambridge Crystallographic Data Centre
#                                CCDC 
#
#######################################################################
#
# If this CIF has been generated from an entry in the Cambridge 
# Structural Database, then it will include bibliographic, chemical, 
# crystal, experimental, refinement or atomic coordinate data resulting 
# from the CCDC's data processing and validation procedures.
#
#######################################################################

data_HIFGAF
_chemical_formula_moiety         'C13 H15 N1 O4'
_chemical_name_systematic        
'Isopropyl 2-oxo-3,4-dihydro-1,4-benzoxazin-4-yl-acetate'
_symmetry_cell_setting           monoclinic
_symmetry_space_group_name_H-M   'P 21/c'
_symmetry_Int_Tables_number      14
_space_group_name_Hall           '-P 2ybc'
loop_
_symmetry_equiv_pos_site_id
_symmetry_equiv_pos_as_xyz
1 x,y,z
2 -x,1/2+y,1/2-z
3 -x,-y,-z
4 x,1/2-y,1/2+z
_cell_length_a                   13.632(6)
_cell_length_b                   9.587(4)
_cell_length_c                   10.240(5)
_cell_angle_alpha                90
_cell_angle_beta                 108.349(6)
_cell_angle_gamma                90
_cell_volume                     1270.22
_exptl_crystal_colour            colorless
_exptl_crystal_description       rectangle
_cell_formula_units_Z            4
loop_
_atom_site_label
_atom_site_type_symbol
_atom_site_fract_x
_atom_site_fract_y
_atom_site_fract_z
N1 N 0.3795(2) 0.4579(3) 0.4064(3)
O1 O 0.5507(2) 0.5936(3) 0.2382(3)
O2 O 0.17099(19) 0.2136(3) 0.3604(3)
O3 O 0.1893(2) 0.3773(3) 0.2144(4)
C1 C 0.4229(3) 0.4595(4) 0.2946(5)
H1 H 0.3673 0.4491 0.2086
H2 H 0.4684 0.3797 0.3041
C2 C 0.4820(3) 0.5881(4) 0.2873(5)
O4 O 0.4533(2) 0.7072(2) 0.3347(3)
C3 C 0.3738(3) 0.7076(4) 0.3932(4)
C4 C 0.3360(3) 0.5839(4) 0.4300(4)
C5 C 0.2629(3) 0.5947(4) 0.4971(5)
H3 H 0.2373 0.5142 0.5252
C6 C 0.2274(4) 0.7233(5) 0.5229(5)
H4 H 0.1784 0.7286 0.5687
C7 C 0.2638(4) 0.8436(5) 0.4814(5)
H5 H 0.2385 0.9299 0.4972
C8 C 0.3375(3) 0.8357(4) 0.4165(5)
H6 H 0.3627 0.9166 0.3885
C9 C 0.2224(3) 0.3115(4) 0.3186(4)
C10 C 0.3292(3) 0.3288(4) 0.4217(4)
H7 H 0.3237 0.3249 0.5138
H8 H 0.3721 0.2513 0.4119
C11 C 0.0660(3) 0.1809(4) 0.2702(5)
H9 H 0.0339 0.2647 0.2199
C12 C 0.0082(4) 0.1356(7) 0.3651(7)
H10 H 0.0389 0.0521 0.4123
H11 H -0.0626 0.1177 0.3129
H12 H 0.0111 0.2080 0.4310
C13 C 0.0729(4) 0.0712(6) 0.1723(6)
H13 H 0.1116 0.1056 0.1153
H14 H 0.0046 0.0460 0.1157
H15 H 0.1069 -0.0092 0.2223
loop_
_geom_bond_atom_site_label_1
_geom_bond_atom_site_label_2
_geom_bond_site_symmetry_1
_geom_bond_site_symmetry_2
N1 C1 1_555 1_555
O1 C2 1_555 1_555
O2 C9 1_555 1_555
O3 C9 1_555 1_555
C1 H1 1_555 1_555
H2 C1 1_555 1_555
C2 C1 1_555 1_555
O4 C2 1_555 1_555
C3 O4 1_555 1_555
C4 N1 1_555 1_555
C5 C4 1_555 1_555
H3 C5 1_555 1_555
C6 C5 1_555 1_555
H4 C6 1_555 1_555
C7 C6 1_555 1_555
H5 C7 1_555 1_555
C8 C3 1_555 1_555
H6 C8 1_555 1_555
C9 C10 1_555 1_555
C10 N1 1_555 1_555
H7 C10 1_555 1_555
H8 C10 1_555 1_555
C11 O2 1_555 1_555
H9 C11 1_555 1_555
C12 C11 1_555 1_555
H10 C12 1_555 1_555
H11 C12 1_555 1_555
H12 C12 1_555 1_555
C13 C11 1_555 1_555
H13 C13 1_555 1_555
H14 C13 1_555 1_555
H15 C13 1_555 1_555
C3 C4 1_555 1_555
C7 C8 1_555 1_555

#END
