
#######################################################################
#
#                 Cambridge Crystallographic Data Centre
#                                CCDC 
#
#######################################################################
#
# If this CIF has been generated from an entry in the Cambridge 
# Structural Database, then it will include bibliographic, chemical, 
# crystal, experimental, refinement or atomic coordinate data resulting 
# from the CCDC's data processing and validation procedures.
#
#######################################################################

data_HIFJIR
_chemical_formula_moiety         'C60 H74 N4 Na2 O28 S4,H2 O1'
_chemical_name_systematic        
"Diaqua-(\m~2~-6,9,12,15,18,29,32,35,38,41-decaoxapentacyclo[40.4.0.0^5,46^.0^19,24^.0^23,28^]hexatetraconta-1(46),2,4,19,21,23,25,27,42,44-decaene-2,22,25,45-tetrasulfonato)-(\m~2~-2,2'-(1,6-dioxo-3-(oxo)-8-(oxo)-1,3,6,8-tetrahydrobenzo[lmn][3,8]phenanthroline-2,7-diyl)bis(N,N,N-trimethylethanaminium))-di-sodium monohydrate"
_symmetry_cell_setting           monoclinic
_symmetry_space_group_name_H-M   'P 21/c'
_symmetry_Int_Tables_number      14
_space_group_name_Hall           '-P 2ybc'
loop_
_symmetry_equiv_pos_site_id
_symmetry_equiv_pos_as_xyz
1 x,y,z
2 -x,1/2+y,1/2-z
3 -x,-y,-z
4 x,1/2-y,1/2+z
_cell_length_a                   16.0646(16)
_cell_length_b                   19.1312(18)
_cell_length_c                   14.7690(12)
_cell_angle_alpha                90
_cell_angle_beta                 114.212(4)
_cell_angle_gamma                90
_cell_volume                     4139.75
_exptl_crystal_colour            colorless
_exptl_crystal_description       Prism
_cell_formula_units_Z            2
loop_
_atom_site_label
_atom_site_type_symbol
_atom_site_fract_x
_atom_site_fract_y
_atom_site_fract_z
S1 S 0.61411(7) 0.65341(6) 0.76670(8)
S2 S 1.04679(7) 0.72652(6) 1.13448(7)
Na1 Na 0.69073(11) 0.56754(10) 0.60541(13)
O1 O 0.6050(2) 0.61482(19) 0.6784(2)
O2 O 0.6134(2) 0.72883(19) 0.7549(3)
O3 O 0.5454(2) 0.6296(2) 0.8011(3)
O4 O 1.1009(2) 0.66303(19) 1.1633(2)
O5 O 1.0980(2) 0.78439(17) 1.1184(2)
O6 O 1.0058(2) 0.7476(2) 1.2014(2)
O7 O 0.7659(2) 0.69387(15) 0.7191(2)
O8 O 0.6965(2) 0.66291(16) 0.5107(2)
O9 O 0.8046(2) 0.54634(17) 0.5386(2)
O10 O 0.9820(2) 0.46733(17) 0.6159(2)
O11 O 0.9337(2) 0.61713(17) 1.1482(2)
O12 O 0.7675(3) 0.4930(2) 0.7308(3)
C1 C 0.7209(3) 0.6344(2) 0.8691(3)
C2 C 0.7117(3) 0.5914(2) 0.9395(3)
H1 H 0.6554 0.5683 0.9250
C3 C 0.7852(3) 0.5814(2) 1.0329(3)
H2 H 0.7806 0.5478 1.0780
C4 C 0.8636(3) 0.6205(2) 1.0585(3)
C5 C 0.8764(2) 0.6673(2) 0.9895(3)
C6 C 0.8051(3) 0.66905(19) 0.8894(3)
C7 C 0.8248(3) 0.7051(2) 0.8156(3)
C8 C 0.9021(3) 0.7455(2) 0.8414(3)
H3 H 0.9131 0.7702 0.7916
C9 C 0.9640(3) 0.7504(2) 0.9398(3)
H4 H 1.0142 0.7816 0.9565
C10 C 0.9553(3) 0.7120(2) 1.0136(3)
C11 C 0.7638(4) 0.7460(3) 0.6487(3)
H5 H 0.8227 0.7465 0.6421
H6 H 0.7544 0.7927 0.6719
C12 C 0.6873(4) 0.7299(2) 0.5497(3)
H7 H 0.6286 0.7313 0.5569
H8 H 0.6852 0.7667 0.5017
C13 C 0.7690(5) 0.6605(3) 0.4746(6)
H9 H 0.8269 0.6782 0.5262
H10 H 0.7524 0.6899 0.4146
C14 C 0.7795(6) 0.5865(3) 0.4509(5)
H11 H 0.7213 0.5690 0.3996
H12 H 0.8271 0.5828 0.4248
C15 C 0.8149(3) 0.4746(3) 0.5213(4)
H13 H 0.7667 0.4612 0.4561
H14 H 0.8058 0.4464 0.5727
C16 C 0.9078(3) 0.4566(3) 0.5222(3)
H15 H 0.9074 0.4070 0.5029
H16 H 0.9176 0.4855 0.4718
C17 C 0.9829(3) 0.4189(2) 0.6882(3)
H17 H 0.9748 0.3708 0.6611
H18 H 0.9327 0.4291 0.7087
C18 C 1.0745(3) 0.4257(2) 0.7763(3)
H19 H 1.1245 0.4088 0.7591
H20 H 1.0867 0.4749 0.7985
C19 C 0.8138(4) 0.4797(3) 0.8195(4)
C20 C 0.9051(4) 0.5089(3) 0.8746(3)
C21 C 0.9423(4) 0.5563(3) 0.8308(3)
H21 H 0.9087 0.5698 0.7637
C22 C 1.0270(4) 0.5838(3) 0.8834(4)
H22 H 1.0513 0.6175 0.8536
C23 C 1.0772(4) 0.5627(3) 0.9800(4)
C24 C 1.0433(3) 0.5140(2) 1.0262(3)
C25 C 1.1705(4) 0.5892(4) 1.0361(4)
N1 N 0.7777(3) 0.4363(3) 0.8697(3)
O13 O 1.2076(4) 0.6336(4) 0.9992(3)
O14 O 0.5852(3) 0.4949(3) 0.4896(4)
H23 H 0.568(6) 0.512(3) 0.431(2)
H24 H 0.576(6) 0.4509(9) 0.487(5)
C26 C 0.6843(6) 0.4137(5) 0.8171(6)
H25 H 0.6474 0.4479 0.7704
H26 H 0.6581 0.4040 0.8637
N2 N 0.6170(7) 0.3122(6) 0.6698(8)
C27 C 0.6872(10) 0.3463(9) 0.7612(14)
H27 H 0.7411 0.3525 0.7457
H28 H 0.7042 0.3093 0.8126
C28 C 0.6405(14) 0.2371(7) 0.6656(17)
H29 H 0.5987 0.2169 0.6023
H30 H 0.6348 0.2117 0.7204
H31 H 0.7033 0.2334 0.6715
C29 C 0.5245(8) 0.3192(11) 0.6694(15)
H32 H 0.5083 0.3688 0.6664
H33 H 0.5245 0.2985 0.7300
H34 H 0.4798 0.2950 0.6113
C30 C 0.6183(18) 0.3496(14) 0.5794(14)
H35 H 0.5957 0.3180 0.5221
H36 H 0.6809 0.3638 0.5930
H37 H 0.5792 0.3911 0.5650
S1B S 1.38589(7) 0.34659(6) 1.23330(8)
S2B S 0.95321(7) 0.27348(6) 0.86552(7)
O1B O 1.3950(2) 0.38518(19) 1.3216(2)
O2B O 1.3866(2) 0.27117(19) 1.2451(3)
O3B O 1.4546(2) 0.3704(2) 1.1989(3)
O4B O 0.8991(2) 0.33697(19) 0.8367(2)
O5B O 0.9020(2) 0.21561(17) 0.8816(2)
O6B O 0.9942(2) 0.2524(2) 0.7986(2)
O7B O 1.2341(2) 0.30613(15) 1.2809(2)
O8B O 1.3035(2) 0.33709(16) 1.4893(2)
O9B O 1.1954(2) 0.45366(17) 1.4614(2)
O10B O 1.0180(2) 0.53267(17) 1.3841(2)
O11B O 1.0663(2) 0.38287(17) 0.8518(2)
C1B C 1.2791(3) 0.3656(2) 1.1309(3)
C2B C 1.2883(3) 0.4086(2) 1.0605(3)
H1B H 1.3446 0.4317 1.0750
C3B C 1.2148(3) 0.4186(2) 0.9671(3)
H2B H 1.2194 0.4522 0.9220
C4B C 1.1364(3) 0.3795(2) 0.9415(3)
C5B C 1.1236(2) 0.3327(2) 1.0105(3)
C6B C 1.1949(3) 0.33095(19) 1.1106(3)
C7B C 1.1752(3) 0.2949(2) 1.1844(3)
C8B C 1.0979(3) 0.2545(2) 1.1586(3)
H3B H 1.0869 0.2298 1.2084
C9B C 1.0360(3) 0.2496(2) 1.0602(3)
H4B H 0.9858 0.2184 1.0435
C10B C 1.0447(3) 0.2880(2) 0.9864(3)
C11B C 1.2362(4) 0.2540(3) 1.3513(3)
H5B H 1.1773 0.2535 1.3579
H6B H 1.2456 0.2073 1.3281
C12B C 1.3127(4) 0.2701(2) 1.4503(3)
H7B H 1.3714 0.2687 1.4431
H8B H 1.3148 0.2333 1.4983
C13B C 1.2310(5) 0.3395(3) 1.5254(6)
H9B H 1.1731 0.3218 1.4738
H10B H 1.2476 0.3101 1.5854
C14B C 1.2205(6) 0.4135(3) 1.5491(5)
H11B H 1.2787 0.4310 1.6004
H12B H 1.1729 0.4172 1.5752
C15B C 1.1851(3) 0.5254(3) 1.4787(4)
H13B H 1.2333 0.5388 1.5439
H14B H 1.1942 0.5536 1.4273
C16B C 1.0922(3) 0.5434(3) 1.4778(3)
H15B H 1.0926 0.5930 1.4971
H16B H 1.0824 0.5145 1.5282
C17B C 1.0171(3) 0.5811(2) 1.3118(3)
H17B H 1.0252 0.6292 1.3389
H18B H 1.0673 0.5709 1.2913
C18B C 0.9255(3) 0.5743(2) 1.2237(3)
H19B H 0.8755 0.5912 1.2409
H20B H 0.9133 0.5251 1.2015
O12B O 1.2325(3) 0.5070(2) 1.2692(3)
C19B C 1.1862(4) 0.5203(3) 1.1805(4)
C20B C 1.0949(4) 0.4911(3) 1.1254(3)
C21B C 1.0577(4) 0.4437(3) 1.1692(3)
H21B H 1.0913 0.4302 1.2363
C22B C 0.9730(4) 0.4162(3) 1.1166(4)
H22B H 0.9487 0.3825 1.1464
C23B C 0.9228(4) 0.4373(3) 1.0200(4)
C24B C 0.9567(3) 0.4860(2) 0.9738(3)
C25B C 0.8295(4) 0.4108(4) 0.9639(4)
N1B N 1.2223(3) 0.5637(3) 1.1303(3)
O13B O 0.7924(4) 0.3664(4) 1.0008(3)
C26B C 1.3157(6) 0.5863(5) 1.1829(6)
H25B H 1.3526 0.5521 1.2296
H26B H 1.3419 0.5960 1.1363
N2B N 1.3830(7) 0.6878(6) 1.3302(8)
C27B C 1.3128(10) 0.6537(9) 1.2388(14)
H27B H 1.2589 0.6475 1.2543
H28B H 1.2958 0.6907 1.1874
C28B C 1.3595(14) 0.7629(7) 1.3344(17)
H29B H 1.4013 0.7831 1.3977
H30B H 1.3652 0.7883 1.2796
H31B H 1.2967 0.7666 1.3285
C29B C 1.4755(8) 0.6808(11) 1.3306(15)
H32B H 1.4917 0.6312 1.3336
H33B H 1.4755 0.7015 1.2700
H34B H 1.5202 0.7050 1.3887
C30B C 1.3817(18) 0.6504(14) 1.4206(14)
H35B H 1.4043 0.6820 1.4779
H36B H 1.3191 0.6362 1.4070
H37B H 1.4208 0.6089 1.4350
Na1B Na 1.30927(11) 0.43246(10) 1.39459(13)
O14B O 1.4148(3) 0.5051(3) 1.5104(4)
H23B H 1.432(6) 0.488(3) 1.569(2)
H24B H 1.424(6) 0.5491(9) 1.513(5)
O15 O 0.5326(13) 0.2689(10) 0.9186(13)
H38? H 0.6482 0.4485 0.7710
H39? H 0.6584 0.4055 0.8643
C31? C 0.6854(9) 0.3447(7) 0.7691(14)
H40? H 0.6922 0.3509 0.7059
H41? H 0.7346 0.3139 0.8138
C32? C 0.5849(9) 0.3080(7) 0.8494(8)
H42? H 0.5791 0.3539 0.8757
H43? H 0.6396 0.2844 0.8968
H44? H 0.5309 0.2797 0.8392
C33? C 0.5194(9) 0.3652(9) 0.6862(11)
H45? H 0.4610 0.3517 0.6872
H46? H 0.5151 0.3620 0.6182
H47? H 0.5342 0.4133 0.7102
C34? C 0.5813(14) 0.2464(7) 0.7020(14)
H48? H 0.6261 0.2414 0.6732
H49? H 0.5196 0.2426 0.6493
H50? H 0.5907 0.2094 0.7511
N3? N 0.5928(8) 0.3172(6) 0.7520(8)
O16? O 0.6445(19) 0.3430(14) 0.518(2)
loop_
_geom_bond_atom_site_label_1
_geom_bond_atom_site_label_2
_geom_bond_site_symmetry_1
_geom_bond_site_symmetry_2
S1 O1 1_555 1_555
S2 O4 1_555 1_555
Na1 O1 1_555 1_555
O2 S1 1_555 1_555
O3 S1 1_555 1_555
O5 S2 1_555 1_555
O6 S2 1_555 1_555
O7 Na1 1_555 1_555
O8 Na1 1_555 1_555
O9 Na1 1_555 1_555
O10 C16 1_555 1_555
O11 C4 1_555 1_555
O12 Na1 1_555 1_555
C1 S1 1_555 1_555
C2 C1 1_555 1_555
H1 C2 1_555 1_555
C3 C2 1_555 1_555
H2 C3 1_555 1_555
C4 C3 1_555 1_555
C5 C4 1_555 1_555
C6 C1 1_555 1_555
C7 O7 1_555 1_555
C8 C7 1_555 1_555
H3 C8 1_555 1_555
C9 C8 1_555 1_555
H4 C9 1_555 1_555
C10 S2 1_555 1_555
C11 O7 1_555 1_555
H5 C11 1_555 1_555
H6 C11 1_555 1_555
C12 O8 1_555 1_555
H7 C12 1_555 1_555
H8 C12 1_555 1_555
C13 O8 1_555 1_555
H9 C13 1_555 1_555
H10 C13 1_555 1_555
C14 O9 1_555 1_555
H11 C14 1_555 1_555
H12 C14 1_555 1_555
C15 O9 1_555 1_555
H13 C15 1_555 1_555
H14 C15 1_555 1_555
C16 C15 1_555 1_555
H15 C16 1_555 1_555
H16 C16 1_555 1_555
C17 O10 1_555 1_555
H17 C17 1_555 1_555
H18 C17 1_555 1_555
C18 C17 1_555 1_555
H19 C18 1_555 1_555
H20 C18 1_555 1_555
C19 O12 1_555 1_555
C20 C19 1_555 1_555
C21 C20 1_555 1_555
H21 C21 1_555 1_555
C22 C21 1_555 1_555
H22 C22 1_555 1_555
C23 C22 1_555 1_555
C24 C23 1_555 1_555
C25 C23 1_555 1_555
N1 C19 1_555 1_555
O13 C25 1_555 1_555
O14 Na1 1_555 1_555
H23 O14 1_555 1_555
H24 O14 1_555 1_555
C26 N1 1_555 1_555
H25 C26 1_555 1_555
H26 C26 1_555 1_555
N2 C27 1_555 1_555
C27 C26 1_555 1_555
H27 C27 1_555 1_555
H28 C27 1_555 1_555
C28 N2 1_555 1_555
H29 C28 1_555 1_555
H30 C28 1_555 1_555
H31 C28 1_555 1_555
C29 N2 1_555 1_555
H32 C29 1_555 1_555
H33 C29 1_555 1_555
H34 C29 1_555 1_555
C30 N2 1_555 1_555
H35 C30 1_555 1_555
H36 C30 1_555 1_555
H37 C30 1_555 1_555
S1B O1B 1_555 1_555
S2B O4B 1_555 1_555
O1B Na1B 1_555 1_555
O2B S1B 1_555 1_555
O3B S1B 1_555 1_555
O5B S2B 1_555 1_555
O6B S2B 1_555 1_555
O7B C7B 1_555 1_555
O8B C12B 1_555 1_555
O9B C14B 1_555 1_555
O10B C16B 1_555 1_555
O11B C18 1_555 1_555
C1B S1B 1_555 1_555
C2B C1B 1_555 1_555
H1B C2B 1_555 1_555
C3B C2B 1_555 1_555
H2B C3B 1_555 1_555
C4B O11B 1_555 1_555
C5B C4B 1_555 1_555
C6B C1B 1_555 1_555
C7B C6B 1_555 1_555
C8B C7B 1_555 1_555
H3B C8B 1_555 1_555
C9B C8B 1_555 1_555
H4B C9B 1_555 1_555
C10B S2B 1_555 1_555
C11B O7B 1_555 1_555
H5B C11B 1_555 1_555
H6B C11B 1_555 1_555
C12B C11B 1_555 1_555
H7B C12B 1_555 1_555
H8B C12B 1_555 1_555
C13B O8B 1_555 1_555
H9B C13B 1_555 1_555
H10B C13B 1_555 1_555
C14B C13B 1_555 1_555
H11B C14B 1_555 1_555
H12B C14B 1_555 1_555
C15B O9B 1_555 1_555
H13B C15B 1_555 1_555
H14B C15B 1_555 1_555
C16B C15B 1_555 1_555
H15B C16B 1_555 1_555
H16B C16B 1_555 1_555
C17B O10B 1_555 1_555
H17B C17B 1_555 1_555
H18B C17B 1_555 1_555
C18B O11 1_555 1_555
H19B C18B 1_555 1_555
H20B C18B 1_555 1_555
O12B C19B 1_555 1_555
C19B C20B 1_555 1_555
C20B C24 1_555 1_555
C21B C20B 1_555 1_555
H21B C21B 1_555 1_555
C22B C21B 1_555 1_555
H22B C22B 1_555 1_555
C23B C22B 1_555 1_555
C24B C20 1_555 1_555
C25B N1 1_555 1_555
N1B C25 1_555 1_555
O13B C25B 1_555 1_555
C26B N1B 1_555 1_555
H25B C26B 1_555 1_555
H26B C26B 1_555 1_555
N2B C27B 1_555 1_555
C27B C26B 1_555 1_555
H27B C27B 1_555 1_555
H28B C27B 1_555 1_555
C28B N2B 1_555 1_555
H29B C28B 1_555 1_555
H30B C28B 1_555 1_555
H31B C28B 1_555 1_555
C29B N2B 1_555 1_555
H32B C29B 1_555 1_555
H33B C29B 1_555 1_555
H34B C29B 1_555 1_555
C30B N2B 1_555 1_555
H35B C30B 1_555 1_555
H36B C30B 1_555 1_555
H37B C30B 1_555 1_555
Na1B O7B 1_555 1_555
O14B Na1B 1_555 1_555
H23B O14B 1_555 1_555
H24B O14B 1_555 1_555
C5 C6 1_555 1_555
C5 C10 1_555 1_555
C6 C7 1_555 1_555
C9 C10 1_555 1_555
C11 C12 1_555 1_555
C13 C14 1_555 1_555
C24 C24B 1_555 1_555
O8B Na1B 1_555 1_555
O9B Na1B 1_555 1_555
C3B C4B 1_555 1_555
C5B C6B 1_555 1_555
C5B C10B 1_555 1_555
C9B C10B 1_555 1_555
C17B C18B 1_555 1_555
O12B Na1B 1_555 1_555
C19B N1B 1_555 1_555
C23B C24B 1_555 1_555
C23B C25B 1_555 1_555

#END
