
#######################################################################
#
#                 Cambridge Crystallographic Data Centre
#                                CCDC 
#
#######################################################################
#
# If this CIF has been generated from an entry in the Cambridge 
# Structural Database, then it will include bibliographic, chemical, 
# crystal, experimental, refinement or atomic coordinate data resulting 
# from the CCDC's data processing and validation procedures.
#
#######################################################################

data_HIFJEN
_chemical_formula_moiety         
'C36 H40 O22 S4 4-,2(C20 H28 N4 O4 2+),8.25(H2 O1)'
_chemical_name_systematic        
"bis(2,2'-(1,3,5,7-Tetraoxo-5,7-dihydropyrrolo[3,4-f]isoindole-2,6(1H,3H)-diyl)bis(N,N,N-trimethylethanaminium)) 6,9,12,15,18,29,32,35,38,41-decaoxapentacyclo[40.4.0.0^5,46^.0^19,24^.0^23,28^]hexatetraconta-1(46),2,4,19,21,23,25,27,42,44-decaene-2,22,25,45-tetrasulfonate hydrate"
_symmetry_cell_setting           triclinic
_symmetry_space_group_name_H-M   'P -1'
_symmetry_Int_Tables_number      2
_space_group_name_Hall           '-P 1'
loop_
_symmetry_equiv_pos_site_id
_symmetry_equiv_pos_as_xyz
1 x,y,z
2 -x,-y,-z
_cell_length_a                   18.452(5)
_cell_length_b                   21.012(5)
_cell_length_c                   23.169(5)
_cell_angle_alpha                77.835(13)
_cell_angle_beta                 76.289(13)
_cell_angle_gamma                80.419(14)
_cell_volume                     8466.56
_exptl_crystal_colour            colorless
_exptl_crystal_description       Prism
_cell_formula_units_Z            4
loop_
_atom_site_label
_atom_site_type_symbol
_atom_site_fract_x
_atom_site_fract_y
_atom_site_fract_z
S1 S 0.60506(8) -0.15149(7) 0.18406(6)
S2 S 0.86899(7) 0.06016(6) 0.13756(6)
S3 S 0.33458(7) 0.18800(6) 0.35515(6)
S4 S 0.62551(7) 0.37389(6) 0.31095(6)
O1 O 0.6319(2) -0.21964(18) 0.20764(18)
O2 O 0.6187(2) -0.13807(18) 0.11814(16)
O3 O 0.5275(2) -0.13478(19) 0.21289(17)
O4 O 0.91543(19) -0.00335(17) 0.13966(16)
O5 O 0.87421(19) 0.09660(17) 0.18318(16)
O6 O 0.8814(2) 0.10019(18) 0.07705(16)
O7 O 0.82152(19) -0.01957(16) 0.25676(15)
O8 O 0.89351(19) -0.01324(17) 0.38612(15)
O9 O 0.90781(19) 0.10610(17) 0.42938(16)
O10 O 0.76870(18) 0.18710(16) 0.46384(15)
O11 O 0.63744(17) 0.23801(15) 0.36605(15)
O12 O 0.32050(19) 0.14512(17) 0.41407(16)
O13 O 0.32391(19) 0.15716(17) 0.30750(17)
O14 O 0.29339(18) 0.25314(16) 0.35650(16)
O15 O 0.70137(18) 0.34477(17) 0.29128(16)
O16 O 0.60134(19) 0.36925(17) 0.37585(15)
O17 O 0.6150(2) 0.44200(17) 0.27919(18)
O18 O 0.38750(18) 0.26825(16) 0.23748(14)
O19 O 0.3255(2) 0.26203(18) 0.10364(15)
O20 O 0.2859(2) 0.14248(18) 0.07555(19)
O21 O 0.4117(2) 0.0012(2) 0.1252(2)
O22 O 0.57069(18) -0.01184(17) 0.13721(15)
C1 C 0.7493(3) -0.1092(2) 0.2708(2)
H1 H 0.7680 -0.1313 0.3055
C2 C 0.6983(3) -0.1363(2) 0.2509(2)
H2 H 0.6877 -0.1795 0.2696
C3 C 0.6624(3) -0.1042(2) 0.2058(2)
C4 C 0.6808(3) -0.0394(2) 0.1763(2)
C5 C 0.6383(3) 0.0053(2) 0.1371(2)
C6 C 0.6631(3) 0.0631(3) 0.1059(2)
H3 H 0.6332 0.0926 0.0812
C7 C 0.7324(3) 0.0794(2) 0.1098(2)
H4 H 0.7509 0.1177 0.0846
C8 C 0.7736(3) 0.0412(2) 0.1491(2)
C9 C 0.7443(3) -0.0161(2) 0.1877(2)
C10 C 0.7730(3) -0.0499(2) 0.2398(2)
C11 C 0.8380(3) -0.0438(2) 0.3159(2)
H5 H 0.8641 -0.0891 0.3186
H6 H 0.7912 -0.0435 0.3475
C12 C 0.8877(3) 0.0022(2) 0.3235(2)
H7 H 0.9380 -0.0041 0.2969
H8 H 0.8655 0.0483 0.3131
C13 C 0.9601(3) 0.0050(3) 0.3962(3)
H9 H 1.0042 -0.0157 0.3699
H10 H 0.9640 -0.0129 0.4386
C14 C 0.9636(3) 0.0779(3) 0.3843(3)
H11 H 1.0141 0.0866 0.3860
H12 H 0.9541 0.0976 0.3437
C15 C 0.9011(3) 0.1770(3) 0.4169(3)
H13 H 0.8886 0.1937 0.3767
H14 H 0.9495 0.1918 0.4165
C16 C 0.8411(3) 0.2030(3) 0.4642(2)
H15 H 0.8533 0.1847 0.5043
H16 H 0.8395 0.2513 0.4578
C17 C 0.7342(3) 0.2310(2) 0.4186(2)
H17 H 0.7706 0.2379 0.3795
H18 H 0.7152 0.2740 0.4310
C18 C 0.6706(3) 0.1978(2) 0.4134(2)
H19 H 0.6896 0.1535 0.4036
H20 H 0.6330 0.1931 0.4519
C19 C 0.5711(3) 0.2241(2) 0.3600(2)
C20 C 0.5419(3) 0.1666(2) 0.3879(2)
H21 H 0.5701 0.1336 0.4115
C21 C 0.4714(3) 0.1561(2) 0.3822(2)
H22 H 0.4502 0.1181 0.4054
C22 C 0.4319(3) 0.1990(2) 0.3439(2)
C23 C 0.4670(3) 0.2548(2) 0.3061(2)
C24 C 0.4411(3) 0.2921(2) 0.2538(2)
C25 C 0.4726(3) 0.3474(2) 0.2223(2)
H23 H 0.4559 0.3711 0.1872
C26 C 0.5290(3) 0.3690(2) 0.2414(2)
H24 H 0.5464 0.4096 0.2210
C27 C 0.5602(3) 0.3340(2) 0.2883(2)
C28 C 0.5338(3) 0.2717(2) 0.3190(2)
C29 C 0.3769(3) 0.2914(3) 0.1768(2)
H25 H 0.4253 0.2865 0.1475
H26 H 0.3557 0.3382 0.1714
C30 C 0.3233(3) 0.2501(3) 0.1675(2)
H27 H 0.3387 0.2031 0.1819
H28 H 0.2719 0.2624 0.1900
C31 C 0.2575(3) 0.2552(3) 0.0889(2)
H29 H 0.2623 0.2685 0.0447
H30 H 0.2168 0.2857 0.1084
C32 C 0.2353(3) 0.1880(3) 0.1073(3)
H31 H 0.2330 0.1734 0.1511
H32 H 0.1844 0.1888 0.1000
C33 C 0.3226(5) 0.0933(4) 0.1190(4)
H33 H 0.2851 0.0681 0.1489
H34 H 0.3492 0.1148 0.1406
C34 C 0.3769(4) 0.0496(4) 0.0812(4)
H35 H 0.3506 0.0282 0.0593
H36 H 0.4149 0.0745 0.0516
C35 C 0.4766(3) -0.0301(3) 0.0908(3)
H37 H 0.4667 -0.0317 0.0510
H38 H 0.4868 -0.0759 0.1117
C36 C 0.5448(3) 0.0042(3) 0.0814(3)
H39 H 0.5844 -0.0107 0.0484
H40 H 0.5317 0.0522 0.0707
S5 S 0.10673(7) 0.37547(6) 0.18909(6)
S6 S 0.40488(7) 0.55395(6) 0.14793(6)
S7 S -0.14414(7) 0.69862(6) 0.35255(5)
S8 S 0.14356(7) 0.88015(6) 0.32733(6)
O23 O 0.03206(18) 0.40648(17) 0.21098(16)
O24 O 0.12787(19) 0.38189(18) 0.12405(15)
O25 O 0.1170(2) 0.30668(16) 0.21885(17)
O26 O 0.44539(18) 0.48874(16) 0.14480(16)
O27 O 0.41584(18) 0.58297(16) 0.19654(16)
O28 O 0.41963(19) 0.59937(16) 0.09023(16)
O29 O 0.35005(18) 0.47148(15) 0.26464(14)
O30 O 0.40476(19) 0.47161(17) 0.40360(15)
O31 O 0.30196(19) 0.68035(17) 0.45244(17)
O32 O 0.16241(17) 0.74029(16) 0.36346(14)
O33 O -0.16138(18) 0.65679(16) 0.41180(15)
O34 O -0.15046(18) 0.66575(16) 0.30470(15)
O35 O -0.18591(18) 0.76384(16) 0.35149(15)
O36 O 0.22026(18) 0.85473(16) 0.30253(16)
O37 O 0.12168(19) 0.86493(17) 0.39283(15)
O38 O 0.12824(19) 0.95080(16) 0.30529(17)
O39 O -0.08801(17) 0.78429(16) 0.23697(14)
O40 O -0.14470(19) 0.78806(17) 0.09854(15)
O41 O -0.1494(2) 0.68181(19) 0.03051(19)
O42 O -0.03759(19) 0.57177(17) 0.04512(16)
O43 O 0.09975(17) 0.51111(16) 0.13602(15)
C37 C 0.2642(3) 0.3932(2) 0.2772(2)
H41 H 0.2809 0.3679 0.3118
C38 C 0.2072(3) 0.3743(2) 0.2565(2)
H42 H 0.1897 0.3333 0.2748
C39 C 0.1755(3) 0.4121(2) 0.2114(2)
C40 C 0.2040(3) 0.4728(2) 0.1818(2)
C41 C 0.1664(3) 0.5227(2) 0.1422(2)
C42 C 0.1972(3) 0.5798(2) 0.1146(2)
H43 H 0.1696 0.6136 0.0913
C43 C 0.2681(3) 0.5887(2) 0.1206(2)
H44 H 0.2904 0.6263 0.0979
C44 C 0.3063(3) 0.5437(2) 0.1588(2)
C45 C 0.2708(3) 0.4882(2) 0.1952(2)
C46 C 0.2960(2) 0.4488(2) 0.2468(2)
C47 C 0.3574(3) 0.4470(2) 0.3258(2)
H45 H 0.3806 0.4007 0.3304
H46 H 0.3075 0.4495 0.3535
C48 C 0.4071(3) 0.4900(3) 0.3399(2)
H47 H 0.4592 0.4824 0.3167
H48 H 0.3879 0.5369 0.3296
C49 C 0.4698(3) 0.4852(3) 0.4209(3)
H49 H 0.4711 0.4612 0.4623
H50 H 0.5155 0.4685 0.3935
O44 O 0.4162(2) 0.57525(18) 0.4694(2)
C50 C 0.4712(3) 0.5562(3) 0.4191(3)
H51 H 0.4594 0.5823 0.3808
H52 H 0.5217 0.5640 0.4217
C51 C 0.4160(4) 0.6375(3) 0.4844(3)
H53 H 0.4686 0.6454 0.4802
H54 H 0.3906 0.6366 0.5273
C52 C 0.3777(3) 0.6935(3) 0.4463(3)
C53 C 0.2669(3) 0.7258(2) 0.4093(2)
H55 H 0.2999 0.7290 0.3686
H56 H 0.2551 0.7698 0.4205
C54 C 0.1961(3) 0.6987(2) 0.4105(2)
H57 H 0.2077 0.6530 0.4031
H58 H 0.1614 0.6990 0.4502
C55 C 0.0935(3) 0.7297(2) 0.3604(2)
C56 C 0.0632(3) 0.6728(2) 0.3874(2)
H59 H 0.0910 0.6385 0.4100
C57 C -0.0082(3) 0.6650(2) 0.3818(2)
H60 H -0.0307 0.6274 0.4047
C58 C -0.0474(3) 0.7102(2) 0.3441(2)
C59 C -0.0122(3) 0.7663(2) 0.3084(2)
C60 C -0.0383(3) 0.8082(2) 0.2585(2)
C61 C -0.0104(3) 0.8666(2) 0.2334(2)
H61 H -0.0286 0.8941 0.2005
C62 C 0.0450(3) 0.8862(2) 0.2562(2)
H62 H 0.0589 0.9292 0.2418
C63 C 0.0792(3) 0.8447(2) 0.2985(2)
C64 C 0.0540(2) 0.7813(2) 0.32351(19)
C65 C -0.0976(3) 0.8122(2) 0.1763(2)
H63 H -0.0484 0.8120 0.1476
H64 H -0.1224 0.8579 0.1742
C66 C -0.1460(3) 0.7695(3) 0.1615(2)
H65 H -0.1260 0.7227 0.1713
H66 H -0.1980 0.7761 0.1851
C67 C -0.2073(3) 0.7696(3) 0.0814(3)
H67 H -0.2099 0.7933 0.0401
H68 H -0.2541 0.7845 0.1088
C68 C -0.2052(3) 0.6979(3) 0.0827(3)
H69 H -0.1913 0.6721 0.1203
H70 H -0.2551 0.6879 0.0808
C69 C -0.1517(3) 0.6190(3) 0.0158(3)
H71 H -0.1268 0.6193 -0.0270
H72 H -0.2049 0.6126 0.0203
C70 C -0.1152(3) 0.5630(3) 0.0537(3)
H73 H -0.1402 0.5612 0.0967
H74 H -0.1192 0.5213 0.0417
C71 C 0.0009(3) 0.5229(2) 0.0836(2)
H75 H 0.0182 0.4828 0.0658
H76 H -0.0322 0.5114 0.1237
C72 C 0.0669(3) 0.5534(2) 0.0890(2)
H77 H 0.1042 0.5576 0.0503
H78 H 0.0500 0.5976 0.0993
O45 O 0.9381(2) 0.16255(19) 0.93182(18)
O46 O 0.7056(2) 0.10251(19) 0.94756(18)
O47 O 0.7927(2) 0.40659(18) 1.03261(16)
O48 O 0.56249(19) 0.33432(17) 1.07095(16)
N1 N 0.8844(3) -0.0490(2) 0.9753(2)
N2 N 0.8298(3) 0.1175(2) 0.9363(2)
N3 N 0.6684(2) 0.3885(2) 1.04946(18)
N4 N 0.6232(2) 0.5599(2) 1.00881(18)
C73 C 0.9384(4) -0.0885(3) 1.0133(4)
H79 H 0.9190 -0.1297 1.0345
H80 H 0.9436 -0.0633 1.0429
H81 H 0.9876 -0.0981 0.9872
C74 C 0.8123(4) -0.0378(4) 1.0169(3)
H82 H 0.7748 -0.0132 0.9942
H83 H 0.8180 -0.0126 1.0463
H84 H 0.7956 -0.0800 1.0381
C75 C 0.8791(7) -0.0869(4) 0.9319(4)
H85 H 0.8440 -0.0625 0.9069
H86 H 0.8610 -0.1287 0.9530
H87 H 0.9288 -0.0955 0.9061
C76 C 0.9171(4) 0.0139(3) 0.9438(4)
H88 H 0.9660 0.0025 0.9171
H89 H 0.9272 0.0354 0.9748
C77 C 0.8683(4) 0.0637(3) 0.9061(3)
H90 H 0.9003 0.0816 0.8672
H91 H 0.8305 0.0410 0.8970
C78 C 0.7525(3) 0.1332(3) 0.9532(2)
C79 C 0.7418(3) 0.1950(3) 0.9781(2)
C80 C 0.6765(3) 0.2297(3) 1.0040(2)
H92 H 0.6284 0.2159 1.0096
C81 C 0.6863(3) 0.2865(2) 1.0214(2)
C82 C 0.6290(3) 0.3369(3) 1.0498(2)
C83 C 0.7456(3) 0.3727(3) 1.0320(2)
C84 C 0.7564(3) 0.3079(3) 1.0124(2)
C85 C 0.8225(3) 0.2729(2) 0.9872(2)
H93 H 0.8705 0.2869 0.9813
C86 C 0.8122(3) 0.2149(3) 0.9712(2)
C87 C 0.8706(3) 0.1653(3) 0.9437(2)
C88 C 0.6314(3) 0.4453(3) 1.0775(2)
H94 H 0.6695 0.4662 1.0881
H95 H 0.5955 0.4302 1.1153
C89 C 0.5893(3) 0.4956(2) 1.0351(2)
H96 H 0.5372 0.5062 1.0574
H97 H 0.5863 0.4750 1.0012
C90 C 0.6269(3) 0.5943(3) 1.0584(2)
H98 H 0.6492 0.6351 1.0409
H99 H 0.6577 0.5658 1.0851
H100 H 0.5760 0.6045 1.0817
C91 C 0.5711(3) 0.6021(3) 0.9713(2)
H101 H 0.5907 0.6440 0.9532
H102 H 0.5212 0.6102 0.9970
H103 H 0.5673 0.5797 0.9393
C92 C 0.6989(3) 0.5477(3) 0.9696(2)
H104 H 0.7198 0.5894 0.9534
H105 H 0.6944 0.5278 0.9361
H106 H 0.7322 0.5180 0.9933
O49 O 0.1472(2) 0.75749(18) 0.16965(17)
O50 O 0.24660(19) 0.60029(18) 0.30862(16)
O51 O -0.0072(2) 0.44285(17) 0.33890(15)
O52 O -0.10416(19) 0.59370(17) 0.19451(15)
N5 N 0.3910(2) 0.7675(2) 0.17676(19)
N6 N 0.2127(2) 0.6875(2) 0.23602(19)
N7 N -0.0726(2) 0.51023(19) 0.27031(18)
N8 N -0.2267(2) 0.4731(2) 0.36913(18)
C93 C 0.3664(3) 0.8367(3) 0.1845(3)
H107 H 0.3312 0.8379 0.2234
H108 H 0.3414 0.8600 0.1518
H109 H 0.4102 0.8579 0.1834
C94 C 0.4326(3) 0.7323(3) 0.2257(3)
H110 H 0.3988 0.7323 0.2653
H111 H 0.4759 0.7547 0.2235
H112 H 0.4500 0.6869 0.2199
C95 C 0.4455(3) 0.7665(4) 0.1158(3)
H113 H 0.4199 0.7893 0.0833
H114 H 0.4627 0.7210 0.1106
H115 H 0.4888 0.7886 0.1144
C96 C 0.3261(3) 0.7324(2) 0.1769(2)
H116 H 0.3454 0.6872 0.1697
H117 H 0.3013 0.7554 0.1434
C97 C 0.2688(3) 0.7292(3) 0.2359(3)
H118 H 0.2941 0.7110 0.2701
H119 H 0.2439 0.7738 0.2407
C98 C 0.1538(3) 0.7079(3) 0.2054(2)
C99 C 0.1038(3) 0.6539(2) 0.2263(2)
C100 C 0.0380(3) 0.6488(2) 0.2093(2)
H120 H 0.0169 0.6815 0.1807
C101 C 0.0052(3) 0.5920(2) 0.2376(2)
C102 C -0.0636(3) 0.5694(2) 0.2297(2)
C103 C -0.0134(3) 0.4909(3) 0.3008(2)
C104 C 0.0366(3) 0.5441(2) 0.2791(2)
C105 C 0.1024(3) 0.5488(2) 0.2951(2)
H121 H 0.1239 0.5158 0.3232
C106 C 0.1352(3) 0.6055(2) 0.2671(2)
C107 C 0.2046(3) 0.6273(3) 0.2748(2)
C108 C -0.1268(3) 0.4668(3) 0.2699(2)
H122 H -0.1107 0.4222 0.2903
H123 H -0.1258 0.4645 0.2275
C109 C -0.2077(3) 0.4881(3) 0.3005(2)
H124 H -0.2442 0.5096 0.2778
C110 C -0.2116(3) 0.4014(2) 0.3925(2)
H125 H -0.2400 0.3773 0.3755
H126 H -0.2271 0.3931 0.4366
H127 H -0.1578 0.3869 0.3808
C111 C -0.1835(3) 0.5106(3) 0.3954(2)
H128 H -0.1937 0.5576 0.3801
H129 H -0.1296 0.4963 0.3837
H130 H -0.1991 0.5022 0.4395
C112 C -0.3080(3) 0.4953(2) 0.3883(2)
H131 H -0.3182 0.5423 0.3729
H132 H -0.3223 0.4872 0.4325
H133 H -0.3374 0.4710 0.3722
O53 O 0.82877(18) 0.16895(17) 0.29941(15)
O54 O 0.72587(18) 0.31014(17) 0.15312(15)
O55 O 0.48839(19) 0.13360(17) 0.18316(17)
O56 O 0.58872(19) -0.00827(17) 0.33219(16)
N9 N 0.9525(2) 0.2848(2) 0.12738(18)
N10 N 0.7943(2) 0.24753(19) 0.22191(17)
N11 N 0.5246(2) 0.0524(2) 0.25983(19)
N12 N 0.3503(2) -0.0329(2) 0.3278(2)
C113 C 0.9105(3) 0.2479(3) 0.1003(2)
H134 H 0.9176 0.2012 0.1177
H135 H 0.9296 0.2540 0.0565
H136 H 0.8569 0.2644 0.1089
C114 C 0.9420(3) 0.3569(3) 0.1014(2)
H137 H 0.9698 0.3805 0.1195
H138 H 0.8885 0.3736 0.1102
H139 H 0.9610 0.3635 0.0576
C115 C 1.0340(3) 0.2601(3) 0.1122(2)
H140 H 1.0417 0.2133 0.1293
H141 H 1.0624 0.2843 0.1292
H142 H 1.0513 0.2666 0.0683
C116 C 0.9279(3) 0.2741(3) 0.1956(2)
H143 H 0.9581 0.2988 0.2112
H144 H 0.9403 0.2269 0.2116
C117 C 0.8451(3) 0.2940(2) 0.2211(2)
H145 H 0.8398 0.3010 0.2629
H146 H 0.8289 0.3366 0.1969
C118 C 0.7353(3) 0.2618(2) 0.1912(2)
C119 C 0.6891(3) 0.2061(2) 0.2138(2)
C120 C 0.6252(3) 0.1962(2) 0.1969(2)
H147 H 0.6033 0.2266 0.1673
C121 C 0.5956(3) 0.1386(2) 0.2263(2)
C122 C 0.5295(3) 0.1117(2) 0.2189(2)
C123 C 0.5807(3) 0.0395(2) 0.2928(2)
C124 C 0.6283(3) 0.0949(2) 0.2701(2)
C125 C 0.6916(3) 0.1044(2) 0.2875(2)
H148 H 0.7131 0.0743 0.3175
C126 C 0.7215(3) 0.1620(2) 0.2572(2)
C127 C 0.7882(3) 0.1895(2) 0.2639(2)
C128 C 0.4716(3) 0.0063(3) 0.2642(2)
H149 H 0.4987 -0.0385 0.2638
H150 H 0.4470 0.0187 0.2291
C129 C 0.4125(3) 0.0074(3) 0.3226(2)
H151 H 0.4372 -0.0093 0.3573
H152 H 0.3905 0.0534 0.3249
C130 C 0.3785(3) -0.1038(3) 0.3297(3)
H153 H 0.4038 -0.1198 0.3637
H154 H 0.4141 -0.1096 0.2919
H155 H 0.3361 -0.1285 0.3348
C131 C 0.2958(4) -0.0262(4) 0.3866(3)
H156 H 0.3218 -0.0419 0.4201
H157 H 0.2546 -0.0523 0.3916
H158 H 0.2754 0.0200 0.3863
C132 C 0.3116(3) -0.0089(3) 0.2758(3)
H159 H 0.2929 0.0378 0.2743
H160 H 0.2694 -0.0338 0.2811
H161 H 0.3473 -0.0150 0.2381
O57 O 0.7570(3) 0.4553(2) 0.1711(2)
O58 O 0.6134(2) 0.7949(2) 0.02754(19)
O59 O 0.99655(19) 0.70771(18) 0.04737(17)
O60 O 0.7249(2) 0.6690(2) 0.2538(2)
O61 O 0.9715(3) 0.3060(2) 0.3287(2)
O62 O 0.6988(3) 0.5862(3) 0.1767(2)
O63 O 0.5868(3) 0.6353(3) 0.3175(2)
O64 O 0.5209(3) 0.7586(3) 0.3342(2)
O65 O 0.26575(19) 0.54271(18) 0.46319(16)
O66 O 0.0109(5) 0.1213(4) 0.2162(4)
O67 O 0.1502(4) 0.0447(4) 0.2112(4)
O68 O 0.5075(3) 0.1832(3) 0.0370(2)
O69 O 0.0578(4) 0.2016(4) 0.2846(4)
O70 O 0.5512(2) 0.56444(19) 0.2359(2)
O71 O 0.7503(2) 0.05014(18) 0.45947(19)
O72 O 0.8884(2) 0.0189(2) 0.54914(18)
O73 O 0.2031(4) 0.1307(4) 0.2687(4)
C133? C 0.3077(14) 0.0724(12) 0.0938(12)
H162? H 0.3197 0.0490 0.0592
H163? H 0.2684 0.0518 0.1259
C134? C 0.3783(15) 0.0749(12) 0.1174(12)
H164? H 0.3651 0.0908 0.1564
H165? H 0.4133 0.1029 0.0878
O74? O 0.4225(18) 0.6056(10) 0.3878(11)
C135? C 0.430(2) 0.6729(7) 0.3897(9)
H166? H 0.4823 0.6768 0.3899
H167? H 0.4162 0.7023 0.3533
C136? C 0.4712(3) 0.5562(3) 0.4191(3)
H168? H 0.4603 0.5630 0.4615
H169? H 0.5234 0.5657 0.4012
C137? C 0.3777(3) 0.6935(3) 0.4463(3)
O75? O 0.0193(6) 0.1019(6) 0.1812(6)
O76? O 0.1345(8) 0.0785(6) 0.2398(7)
O77? O 0.1736(5) 0.1799(5) 0.2819(4)
O78? O 0.69259(19) 0.91608(17) 0.43606(16)
O79? O 0.4642(2) 0.84817(18) 0.45242(16)
N13? N 0.6396(2) 0.6999(2) 0.49026(18)
N14? N 0.5871(2) 0.8670(2) 0.44219(19)
C138? C 0.6380(3) 0.6605(3) 0.4438(3)
H170? H 0.6888 0.6528 0.4193
H171? H 0.6040 0.6845 0.4177
H172? H 0.6203 0.6183 0.4640
C139? C 0.5618(3) 0.7130(3) 0.5280(2)
H173? H 0.5439 0.6713 0.5496
H174? H 0.5276 0.7361 0.5017
H175? H 0.5633 0.7402 0.5572
C140? C 0.6910(3) 0.6616(3) 0.5307(2)
H176? H 0.6918 0.6866 0.5618
H177? H 0.7419 0.6538 0.5066
H178? H 0.6726 0.6194 0.5501
C141? C 0.6716(3) 0.7638(2) 0.4601(2)
H179? H 0.6747 0.7872 0.4922
H180? H 0.7235 0.7530 0.4378
C142? C 0.6287(3) 0.8100(3) 0.4172(2)
H181? H 0.6643 0.8252 0.3794
H182? H 0.5929 0.7861 0.4069
C143? C 0.5090(3) 0.8810(3) 0.4569(2)
C144? C 0.4955(3) 0.9441(2) 0.4800(2)
C145? C 0.4277(3) 0.9784(2) 0.5032(2)
H183? H 0.3805 0.9648 0.5050
C146? C 0.5653(3) 0.9643(2) 0.4757(2)
H184? H 0.5712 0.9675 0.5150
H185? H 0.5684 1.0067 0.4503
C147? C 0.6253(3) 0.9160(3) 0.4497(2)
O80? O -0.05841(19) 0.34893(17) 0.46584(16)
O81? O 0.1788(2) 0.40842(18) 0.42415(17)
N15? N 0.1149(2) 0.1878(2) 0.48719(19)
N16? N 0.0684(2) 0.3619(2) 0.44311(19)
C148? C 0.0356(3) 0.1959(3) 0.5229(2)
H186? H 0.0031 0.2233 0.4971
H187? H 0.0341 0.2169 0.5572
H188? H 0.0179 0.1527 0.5378
C149? C 0.1200(3) 0.1521(3) 0.4364(3)
H189? H 0.1040 0.1085 0.4529
H190? H 0.1720 0.1475 0.4136
H191? H 0.0872 0.1769 0.4096
C150? C 0.1659(3) 0.1487(3) 0.5274(2)
H192? H 0.1629 0.1710 0.5611
H193? H 0.2177 0.1446 0.5041
H194? H 0.1502 0.1049 0.5431
C151? C 0.1439(3) 0.2538(2) 0.4630(2)
H195? H 0.1970 0.2462 0.4418
H196? H 0.1432 0.2746 0.4978
C152? C 0.1008(3) 0.3022(2) 0.4199(2)
H197? H 0.1353 0.3134 0.3805
H198? H 0.0601 0.2810 0.4133
C153? C -0.0078(3) 0.3798(2) 0.4641(2)
C154? C -0.0115(3) 0.4441(2) 0.4834(2)
H199? H -0.0335 0.4406 0.5257
H200? H -0.0424 0.4772 0.4615
C155? C 0.0597(3) 0.4615(2) 0.4725(2)
C156? C 0.1121(3) 0.4102(3) 0.4439(2)
C157? C 0.0760(3) 0.5180(2) 0.4877(2)
H201? H 0.1254 0.5298 0.4795
loop_
_geom_bond_atom_site_label_1
_geom_bond_atom_site_label_2
_geom_bond_site_symmetry_1
_geom_bond_site_symmetry_2
S1 O1 1_555 1_555
S2 O4 1_555 1_555
S3 O12 1_555 1_555
S4 O15 1_555 1_555
O2 S1 1_555 1_555
O3 S1 1_555 1_555
O5 S2 1_555 1_555
O6 S2 1_555 1_555
O7 C10 1_555 1_555
O8 C12 1_555 1_555
O9 C14 1_555 1_555
O10 C16 1_555 1_555
O11 C18 1_555 1_555
O13 S3 1_555 1_555
O14 S3 1_555 1_555
O16 S4 1_555 1_555
O17 S4 1_555 1_555
O18 C24 1_555 1_555
O19 C30 1_555 1_555
O20 C32 1_555 1_555
O21 C34 1_555 1_555
O22 C5 1_555 1_555
C1 H1 1_555 1_555
C2 C1 1_555 1_555
H2 C2 1_555 1_555
C3 S1 1_555 1_555
C4 C3 1_555 1_555
C5 C4 1_555 1_555
C6 C5 1_555 1_555
H3 C6 1_555 1_555
C7 C6 1_555 1_555
H4 C7 1_555 1_555
C8 S2 1_555 1_555
C9 C4 1_555 1_555
C10 C1 1_555 1_555
C11 O7 1_555 1_555
H5 C11 1_555 1_555
H6 C11 1_555 1_555
C12 C11 1_555 1_555
H7 C12 1_555 1_555
H8 C12 1_555 1_555
C13 O8 1_555 1_555
H9 C13 1_555 1_555
H10 C13 1_555 1_555
C14 C13 1_555 1_555
H11 C14 1_555 1_555
H12 C14 1_555 1_555
C15 O9 1_555 1_555
H13 C15 1_555 1_555
H14 C15 1_555 1_555
C16 C15 1_555 1_555
H15 C16 1_555 1_555
H16 C16 1_555 1_555
C17 O10 1_555 1_555
H17 C17 1_555 1_555
H18 C17 1_555 1_555
C18 C17 1_555 1_555
H19 C18 1_555 1_555
H20 C18 1_555 1_555
C19 O11 1_555 1_555
C20 C19 1_555 1_555
H21 C20 1_555 1_555
C21 C20 1_555 1_555
H22 C21 1_555 1_555
C22 S3 1_555 1_555
C23 C22 1_555 1_555
C24 C23 1_555 1_555
C25 C24 1_555 1_555
H23 C25 1_555 1_555
C26 C25 1_555 1_555
H24 C26 1_555 1_555
C27 S4 1_555 1_555
C28 C19 1_555 1_555
C29 O18 1_555 1_555
H25 C29 1_555 1_555
H26 C29 1_555 1_555
C30 C29 1_555 1_555
H27 C30 1_555 1_555
H28 C30 1_555 1_555
C31 O19 1_555 1_555
H29 C31 1_555 1_555
H30 C31 1_555 1_555
C32 C31 1_555 1_555
H31 C32 1_555 1_555
H32 C32 1_555 1_555
C33 O20 1_555 1_555
H33 C33 1_555 1_555
H34 C33 1_555 1_555
C34 C33 1_555 1_555
H35 C34 1_555 1_555
H36 C34 1_555 1_555
C35 O21 1_555 1_555
H37 C35 1_555 1_555
H38 C35 1_555 1_555
C36 O22 1_555 1_555
H39 C36 1_555 1_555
H40 C36 1_555 1_555
S5 O23 1_555 1_555
S6 O26 1_555 1_555
S7 O33 1_555 1_555
S8 O36 1_555 1_555
O24 S5 1_555 1_555
O25 S5 1_555 1_555
O27 S6 1_555 1_555
O28 S6 1_555 1_555
O29 C46 1_555 1_555
O30 C48 1_555 1_555
O31 C52 1_555 1_555
O32 C54 1_555 1_555
O34 S7 1_555 1_555
O35 S7 1_555 1_555
O37 S8 1_555 1_555
O38 S8 1_555 1_555
O39 C60 1_555 1_555
O40 C66 1_555 1_555
O41 C68 1_555 1_555
O42 C70 1_555 1_555
O43 C41 1_555 1_555
C37 H41 1_555 1_555
C38 C37 1_555 1_555
H42 C38 1_555 1_555
C39 S5 1_555 1_555
C40 C39 1_555 1_555
C41 C40 1_555 1_555
C42 C41 1_555 1_555
H43 C42 1_555 1_555
C43 C42 1_555 1_555
H44 C43 1_555 1_555
C44 S6 1_555 1_555
C45 C40 1_555 1_555
C46 C37 1_555 1_555
C47 O29 1_555 1_555
H45 C47 1_555 1_555
H46 C47 1_555 1_555
C48 C47 1_555 1_555
H47 C48 1_555 1_555
H48 C48 1_555 1_555
C49 O30 1_555 1_555
H49 C49 1_555 1_555
H50 C49 1_555 1_555
O44 C50 1_555 1_555
C50 C49 1_555 1_555
H51 C50 1_555 1_555
H52 C50 1_555 1_555
C51 O44 1_555 1_555
H53 C51 1_555 1_555
H54 C51 1_555 1_555
C52 C51 1_555 1_555
C53 O31 1_555 1_555
H55 C53 1_555 1_555
H56 C53 1_555 1_555
C54 C53 1_555 1_555
H57 C54 1_555 1_555
H58 C54 1_555 1_555
C55 O32 1_555 1_555
C56 C55 1_555 1_555
H59 C56 1_555 1_555
C57 C56 1_555 1_555
H60 C57 1_555 1_555
C58 S7 1_555 1_555
C59 C58 1_555 1_555
C60 C59 1_555 1_555
C61 C60 1_555 1_555
H61 C61 1_555 1_555
C62 C61 1_555 1_555
H62 C62 1_555 1_555
C63 S8 1_555 1_555
C64 C55 1_555 1_555
C65 O39 1_555 1_555
H63 C65 1_555 1_555
H64 C65 1_555 1_555
C66 C65 1_555 1_555
H65 C66 1_555 1_555
H66 C66 1_555 1_555
C67 O40 1_555 1_555
H67 C67 1_555 1_555
H68 C67 1_555 1_555
C68 C67 1_555 1_555
H69 C68 1_555 1_555
H70 C68 1_555 1_555
C69 O41 1_555 1_555
H71 C69 1_555 1_555
H72 C69 1_555 1_555
C70 C69 1_555 1_555
H73 C70 1_555 1_555
H74 C70 1_555 1_555
C71 O42 1_555 1_555
H75 C71 1_555 1_555
H76 C71 1_555 1_555
C72 O43 1_555 1_555
H77 C72 1_555 1_555
H78 C72 1_555 1_555
O45 C87 1_555 1_555
O46 C78 1_555 1_555
O47 C83 1_555 1_555
O48 C82 1_555 1_555
N1 C73 1_555 1_555
N2 C77 1_555 1_555
N3 C82 1_555 1_555
N4 C89 1_555 1_555
C73 H79 1_555 1_555
H80 C73 1_555 1_555
H81 C73 1_555 1_555
C74 N1 1_555 1_555
H82 C74 1_555 1_555
H83 C74 1_555 1_555
H84 C74 1_555 1_555
C75 N1 1_555 1_555
H85 C75 1_555 1_555
H86 C75 1_555 1_555
H87 C75 1_555 1_555
C76 N1 1_555 1_555
H88 C76 1_555 1_555
H89 C76 1_555 1_555
C77 C76 1_555 1_555
H90 C77 1_555 1_555
H91 C77 1_555 1_555
C78 N2 1_555 1_555
C79 C78 1_555 1_555
C80 C79 1_555 1_555
H92 C80 1_555 1_555
C81 C80 1_555 1_555
C82 C81 1_555 1_555
C83 N3 1_555 1_555
C84 C81 1_555 1_555
C85 C84 1_555 1_555
H93 C85 1_555 1_555
C86 C79 1_555 1_555
C87 N2 1_555 1_555
C88 N3 1_555 1_555
H94 C88 1_555 1_555
H95 C88 1_555 1_555
C89 C88 1_555 1_555
H96 C89 1_555 1_555
H97 C89 1_555 1_555
C90 N4 1_555 1_555
H98 C90 1_555 1_555
H99 C90 1_555 1_555
H100 C90 1_555 1_555
C91 N4 1_555 1_555
H101 C91 1_555 1_555
H102 C91 1_555 1_555
H103 C91 1_555 1_555
C92 N4 1_555 1_555
H104 C92 1_555 1_555
H105 C92 1_555 1_555
H106 C92 1_555 1_555
O49 C98 1_555 1_555
O50 C107 1_555 1_555
O51 C103 1_555 1_555
O52 C102 1_555 1_555
N5 C93 1_555 1_555
N6 C97 1_555 1_555
N7 C102 1_555 1_555
N8 C109 1_555 1_555
C93 H107 1_555 1_555
H108 C93 1_555 1_555
H109 C93 1_555 1_555
C94 N5 1_555 1_555
H110 C94 1_555 1_555
H111 C94 1_555 1_555
H112 C94 1_555 1_555
C95 N5 1_555 1_555
H113 C95 1_555 1_555
H114 C95 1_555 1_555
H115 C95 1_555 1_555
C96 N5 1_555 1_555
H116 C96 1_555 1_555
H117 C96 1_555 1_555
C97 C96 1_555 1_555
H118 C97 1_555 1_555
H119 C97 1_555 1_555
C98 N6 1_555 1_555
C99 C98 1_555 1_555
C100 C99 1_555 1_555
H120 C100 1_555 1_555
C101 C100 1_555 1_555
C102 C101 1_555 1_555
C103 N7 1_555 1_555
C104 C101 1_555 1_555
C105 C104 1_555 1_555
H121 C105 1_555 1_555
C106 C99 1_555 1_555
C107 N6 1_555 1_555
C108 N7 1_555 1_555
H122 C108 1_555 1_555
H123 C108 1_555 1_555
C109 C108 1_555 1_555
H124 C109 1_555 1_555
C110 N8 1_555 1_555
H125 C110 1_555 1_555
H126 C110 1_555 1_555
H127 C110 1_555 1_555
C111 N8 1_555 1_555
H128 C111 1_555 1_555
H129 C111 1_555 1_555
H130 C111 1_555 1_555
C112 N8 1_555 1_555
H131 C112 1_555 1_555
H132 C112 1_555 1_555
H133 C112 1_555 1_555
O53 C127 1_555 1_555
O54 C118 1_555 1_555
O55 C122 1_555 1_555
O56 C123 1_555 1_555
N9 C113 1_555 1_555
N10 C117 1_555 1_555
N11 C122 1_555 1_555
N12 C129 1_555 1_555
C113 H134 1_555 1_555
H135 C113 1_555 1_555
H136 C113 1_555 1_555
C114 N9 1_555 1_555
H137 C114 1_555 1_555
H138 C114 1_555 1_555
H139 C114 1_555 1_555
C115 N9 1_555 1_555
H140 C115 1_555 1_555
H141 C115 1_555 1_555
H142 C115 1_555 1_555
C116 N9 1_555 1_555
H143 C116 1_555 1_555
H144 C116 1_555 1_555
C117 C116 1_555 1_555
H145 C117 1_555 1_555
H146 C117 1_555 1_555
C118 N10 1_555 1_555
C119 C118 1_555 1_555
C120 C119 1_555 1_555
H147 C120 1_555 1_555
C121 C120 1_555 1_555
C122 C121 1_555 1_555
C123 N11 1_555 1_555
C124 C121 1_555 1_555
C125 C124 1_555 1_555
H148 C125 1_555 1_555
C126 C119 1_555 1_555
C127 N10 1_555 1_555
C128 N11 1_555 1_555
H149 C128 1_555 1_555
H150 C128 1_555 1_555
C129 C128 1_555 1_555
H151 C129 1_555 1_555
H152 C129 1_555 1_555
C130 N12 1_555 1_555
H153 C130 1_555 1_555
H154 C130 1_555 1_555
H155 C130 1_555 1_555
C131 N12 1_555 1_555
H156 C131 1_555 1_555
H157 C131 1_555 1_555
H158 C131 1_555 1_555
C132 N12 1_555 1_555
H159 C132 1_555 1_555
H160 C132 1_555 1_555
H161 C132 1_555 1_555
C2 C3 1_555 1_555
C7 C8 1_555 1_555
C8 C9 1_555 1_555
C9 C10 1_555 1_555
C21 C22 1_555 1_555
C23 C28 1_555 1_555
C26 C27 1_555 1_555
C27 C28 1_555 1_555
C35 C36 1_555 1_555
C38 C39 1_555 1_555
C43 C44 1_555 1_555
C44 C45 1_555 1_555
C45 C46 1_555 1_555
C57 C58 1_555 1_555
C59 C64 1_555 1_555
C62 C63 1_555 1_555
C63 C64 1_555 1_555
C71 C72 1_555 1_555
C83 C84 1_555 1_555
C85 C86 1_555 1_555
C86 C87 1_555 1_555
C103 C104 1_555 1_555
C105 C106 1_555 1_555
C106 C107 1_555 1_555
C123 C124 1_555 1_555
C125 C126 1_555 1_555
C126 C127 1_555 1_555

#END
