
#######################################################################
#
#                 Cambridge Crystallographic Data Centre
#                                CCDC 
#
#######################################################################
#
# If this CIF has been generated from an entry in the Cambridge 
# Structural Database, then it will include bibliographic, chemical, 
# crystal, experimental, refinement or atomic coordinate data resulting 
# from the CCDC's data processing and validation procedures.
#
#######################################################################

data_HIFPAN
_chemical_formula_moiety         'C24 H20 P1 1+,I3 1-'
_chemical_name_systematic        'Tetraphenylphosphonium tri-iodide'
_symmetry_cell_setting           monoclinic
_symmetry_space_group_name_H-M   'P 2/n'
_symmetry_Int_Tables_number      13
_space_group_name_Hall           '-P 2yac'
loop_
_symmetry_equiv_pos_site_id
_symmetry_equiv_pos_as_xyz
1 x,y,z
2 1/2-x,y,1/2-z
3 -x,-y,-z
4 1/2+x,-y,1/2+z
_cell_length_a                   10.332(2)
_cell_length_b                   7.690(3)
_cell_length_c                   15.406(2)
_cell_angle_alpha                90
_cell_angle_beta                 92.77(1)
_cell_angle_gamma                90
_cell_volume                     1222.62
_exptl_crystal_colour            red
_cell_formula_units_Z            2
loop_
_atom_site_label
_atom_site_type_symbol
_atom_site_fract_x
_atom_site_fract_y
_atom_site_fract_z
I1 I 0.2500 0.15918(6) 0.2500
I2 I 0.20103(4) 0.17484(6) 0.06203(3)
I2A I 0.29897(4) 0.17484(6) 0.43797(3)
P1 P 0.2500 0.0092(2) 0.7500
C1 C 0.3844(4) 0.1501(6) 0.7334(3)
C2 C 0.4590(5) 0.1361(6) 0.6613(3)
C3 C 0.5554(5) 0.2540(7) 0.6476(3)
C4 C 0.5792(5) 0.3868(7) 0.7056(4)
C5 C 0.5069(6) 0.4019(7) 0.7786(4)
C6 C 0.4097(5) 0.2854(6) 0.7931(3)
C7 C 0.2823(5) -0.1309(5) 0.8413(3)
C8 C 0.1905(5) -0.2563(6) 0.8596(3)
C9 C 0.2125(6) -0.3717(6) 0.9276(3)
C10 C 0.3259(6) -0.3606(7) 0.9782(3)
C11 C 0.4172(5) -0.2386(7) 0.9586(4)
C12 C 0.3972(5) -0.1234(6) 0.8917(3)
H1 H 0.4430 0.0443 0.6209
H2 H 0.6060 0.2437 0.5980
H3 H 0.6456 0.4688 0.6956
H4 H 0.5249 0.4934 0.8189
H5 H 0.3598 0.2964 0.8430
H6 H 0.1117 -0.2626 0.8253
H7 H 0.1500 -0.4581 0.9393
H8 H 0.3410 -0.4369 1.0261
H9 H 0.4965 -0.2343 0.9925
H10 H 0.4611 -0.0389 0.8800
C1A C 0.1156(4) 0.1501(6) 0.7666(3)
C7A C 0.2177(5) -0.1309(5) 0.6587(3)
C2A C 0.0410(5) 0.1361(6) 0.8387(3)
C6A C 0.0903(5) 0.2854(6) 0.7069(3)
C8A C 0.3095(5) -0.2563(6) 0.6404(3)
C12A C 0.1028(5) -0.1234(6) 0.6083(3)
C3A C -0.0554(5) 0.2540(7) 0.8524(3)
H1A H 0.0570 0.0443 0.8791
C5A C -0.0069(6) 0.4019(7) 0.7214(4)
H5A H 0.1402 0.2964 0.6570
C9A C 0.2875(6) -0.3717(6) 0.5724(3)
H6A H 0.3883 -0.2626 0.6747
C11A C 0.0828(5) -0.2386(7) 0.5414(4)
H10A H 0.0389 -0.0389 0.6200
C4A C -0.0792(5) 0.3868(7) 0.7944(4)
H2A H -0.1060 0.2437 0.9020
H4A H -0.0249 0.4934 0.6811
C10A C 0.1741(6) -0.3606(7) 0.5218(3)
H7A H 0.3500 -0.4581 0.5607
H9A H 0.0035 -0.2343 0.5075
H3A H -0.1456 0.4688 0.8044
H8A H 0.1590 -0.4369 0.4739
loop_
_geom_bond_atom_site_label_1
_geom_bond_atom_site_label_2
_geom_bond_site_symmetry_1
_geom_bond_site_symmetry_2
I1 I2 1_555 1_555
P1 C1 1_555 1_555
C1 C2 1_555 1_555
C2 C3 1_555 1_555
C3 C4 1_555 1_555
C4 C5 1_555 1_555
C5 C6 1_555 1_555
C6 C1 1_555 1_555
C7 P1 1_555 1_555
C8 C7 1_555 1_555
C9 C8 1_555 1_555
C10 C9 1_555 1_555
C11 C10 1_555 1_555
C12 C7 1_555 1_555
H1 C2 1_555 1_555
H2 C3 1_555 1_555
H3 C4 1_555 1_555
H4 C5 1_555 1_555
H5 C6 1_555 1_555
H6 C8 1_555 1_555
H7 C9 1_555 1_555
H8 C10 1_555 1_555
H9 C11 1_555 1_555
H10 C12 1_555 1_555
I2A I1 1_555 1_555
C1A P1 1_555 1_555
C7A P1 1_555 1_555
C2A C1A 1_555 1_555
C6A C1A 1_555 1_555
C8A C7A 1_555 1_555
C12A C7A 1_555 1_555
C3A C2A 1_555 1_555
H1A C2A 1_555 1_555
C5A C6A 1_555 1_555
H5A C6A 1_555 1_555
C9A C8A 1_555 1_555
H6A C8A 1_555 1_555
C11A C12A 1_555 1_555
H10A C12A 1_555 1_555
C4A C3A 1_555 1_555
H2A C3A 1_555 1_555
H4A C5A 1_555 1_555
C10A C9A 1_555 1_555
H7A C9A 1_555 1_555
H9A C11A 1_555 1_555
H3A C4A 1_555 1_555
H8A C10A 1_555 1_555
C11 C12 1_555 1_555
C5A C4A 1_555 1_555
C11A C10A 1_555 1_555

#END
