
#######################################################################
#
#                 Cambridge Crystallographic Data Centre
#                                CCDC 
#
#######################################################################
#
# If this CIF has been generated from an entry in the Cambridge 
# Structural Database, then it will include bibliographic, chemical, 
# crystal, experimental, refinement or atomic coordinate data resulting 
# from the CCDC's data processing and validation procedures.
#
#######################################################################

data_HIFQUL
_chemical_formula_moiety         'C23 H23 N3 O5'
_chemical_name_systematic        
"4'-methyl 2'-propyl 1-methyl-2-oxo-1'-phenyl-1,2-dihydrospiro[indole-3,3'-pyrazole]-2',4'(1'H)-dicarboxylate"
_symmetry_cell_setting           monoclinic
_symmetry_space_group_name_H-M   'P 21/c'
_symmetry_Int_Tables_number      14
_space_group_name_Hall           '-P 2ybc'
loop_
_symmetry_equiv_pos_site_id
_symmetry_equiv_pos_as_xyz
1 x,y,z
2 -x,1/2+y,1/2-z
3 -x,-y,-z
4 x,1/2-y,1/2+z
_cell_length_a                   10.3563(3)
_cell_length_b                   15.4359(5)
_cell_length_c                   13.7798(4)
_cell_angle_alpha                90
_cell_angle_beta                 99.5710(10)
_cell_angle_gamma                90
_cell_volume                     2172.16
_exptl_crystal_colour            colorless
_exptl_crystal_description       block
_cell_formula_units_Z            4
loop_
_atom_site_label
_atom_site_type_symbol
_atom_site_fract_x
_atom_site_fract_y
_atom_site_fract_z
O1 O 0.98998(15) 0.29690(11) 0.68562(14)
O2 O 1.03405(15) 0.07299(12) 0.72478(12)
O3 O 0.98122(15) 0.05686(10) 0.87464(10)
O4 O 0.71562(15) 0.33519(10) 0.55414(10)
O5 O 0.60296(16) 0.37004(10) 0.67583(12)
N1 N 0.95736(18) 0.20886(14) 0.54863(14)
N2 N 0.68312(14) 0.23589(10) 0.77994(11)
N3 N 0.70450(14) 0.24292(10) 0.67996(11)
C1 C 1.0658(3) 0.2390(2) 0.5030(2)
H1 H 1.1101 0.2854 0.5414
H2 H 1.0332 0.2593 0.4377
H3 H 1.1260 0.1921 0.4998
C2 C 0.8723(2) 0.14195(16) 0.51246(15)
C3 C 0.8697(3) 0.0938(2) 0.42734(19)
H4 H 0.9286 0.1042 0.3846
C4 C 0.7763(4) 0.0300(3) 0.4089(2)
H5 H 0.7714 -0.0028 0.3518
C5 C 0.6903(3) 0.0133(2) 0.4718(2)
H6 H 0.6288 -0.0308 0.4571
C6 C 0.6937(2) 0.06151(15) 0.55766(17)
H7 H 0.6358 0.0501 0.6009
C7 C 0.78493(19) 0.12628(13) 0.57649(14)
C8 C 0.81484(16) 0.18750(12) 0.66259(13)
C9 C 0.93151(19) 0.24063(14) 0.63530(16)
C10 C 0.96363(18) 0.08891(12) 0.78373(14)
C11 C 0.85167(17) 0.14671(12) 0.76303(13)
C12 C 0.77224(17) 0.17529(12) 0.82310(13)
H8 H 0.7766 0.1562 0.8876
C13 C 1.0904(3) -0.00231(19) 0.8981(2)
H9 H 1.0732 -0.0539 0.8592
H10 H 1.1017 -0.0171 0.9667
H11 H 1.1686 0.0248 0.8841
C14 C 0.67854(18) 0.31995(13) 0.63096(14)
C15 C 0.5516(3) 0.44784(18) 0.6245(3)
H12 H 0.6173 0.4932 0.6346
H13 H 0.5307 0.4362 0.5545
C16 C 0.4369(4) 0.4760(3) 0.6598(4)
C17 C 0.3309(4) 0.4251(3) 0.6616(5)
H14 H 0.3133 0.3920 0.6020
H15 H 0.2565 0.4607 0.6673
H16 H 0.3478 0.3866 0.7170
C18 C 0.4534(2) 0.19165(14) 0.72540(16)
H17 H 0.4743 0.1704 0.6668
C19 C 0.54849(17) 0.22867(12) 0.79420(13)
C20 C 0.5175(2) 0.26030(19) 0.88051(17)
H18 H 0.5814 0.2863 0.9268
C21 C 0.3906(3) 0.2532(2) 0.8979(2)
H19 H 0.3695 0.2732 0.9569
C22 C 0.2954(2) 0.2170(2) 0.8291(2)
H20 H 0.2097 0.2135 0.8409
C23 C 0.3263(2) 0.18610(17) 0.7438(2)
H21 H 0.2617 0.1610 0.6973
H22? H 0.4347 0.5325 0.6829
loop_
_geom_bond_atom_site_label_1
_geom_bond_atom_site_label_2
_geom_bond_site_symmetry_1
_geom_bond_site_symmetry_2
O1 C9 1_555 1_555
O2 C10 1_555 1_555
O3 C10 1_555 1_555
O4 C14 1_555 1_555
O5 C14 1_555 1_555
N1 C1 1_555 1_555
N2 N3 1_555 1_555
N3 C8 1_555 1_555
C1 H1 1_555 1_555
H2 C1 1_555 1_555
H3 C1 1_555 1_555
C2 N1 1_555 1_555
C3 C2 1_555 1_555
H4 C3 1_555 1_555
C4 C3 1_555 1_555
H5 C4 1_555 1_555
C5 C4 1_555 1_555
H6 C5 1_555 1_555
C6 C5 1_555 1_555
H7 C6 1_555 1_555
C7 C2 1_555 1_555
C8 C7 1_555 1_555
C9 N1 1_555 1_555
C10 C11 1_555 1_555
C11 C8 1_555 1_555
C12 N2 1_555 1_555
H8 C12 1_555 1_555
C13 O3 1_555 1_555
H9 C13 1_555 1_555
H10 C13 1_555 1_555
H11 C13 1_555 1_555
C14 N3 1_555 1_555
C15 O5 1_555 1_555
H12 C15 1_555 1_555
H13 C15 1_555 1_555
C16 C15 1_555 1_555
C17 C16 1_555 1_555
H14 C17 1_555 1_555
H15 C17 1_555 1_555
H16 C17 1_555 1_555
C18 H17 1_555 1_555
C19 N2 1_555 1_555
C20 C19 1_555 1_555
H18 C20 1_555 1_555
C21 C20 1_555 1_555
H19 C21 1_555 1_555
C22 C21 1_555 1_555
H20 C22 1_555 1_555
C23 C18 1_555 1_555
H21 C23 1_555 1_555
C6 C7 1_555 1_555
C8 C9 1_555 1_555
C11 C12 1_555 1_555
C18 C19 1_555 1_555
C22 C23 1_555 1_555

#END
