
#######################################################################
#
#                 Cambridge Crystallographic Data Centre
#                                CCDC 
#
#######################################################################
#
# If this CIF has been generated from an entry in the Cambridge 
# Structural Database, then it will include bibliographic, chemical, 
# crystal, experimental, refinement or atomic coordinate data resulting 
# from the CCDC's data processing and validation procedures.
#
#######################################################################

data_HIFROE
_chemical_formula_moiety         'C16 H36 N1 1+,C5 H3 N2 O3 1-'
_chemical_name_systematic        
'tetra-n-butylammonium 4-nitro-5-oxo-2-pentenenitrile'
_symmetry_cell_setting           monoclinic
_symmetry_space_group_name_H-M   'P 21/n'
_symmetry_Int_Tables_number      14
_space_group_name_Hall           '-P 2yn'
loop_
_symmetry_equiv_pos_site_id
_symmetry_equiv_pos_as_xyz
1 x,y,z
2 1/2-x,1/2+y,1/2-z
3 -x,-y,-z
4 1/2+x,1/2-y,1/2+z
_cell_length_a                   12.2793(16)
_cell_length_b                   9.7588(12)
_cell_length_c                   18.422(2)
_cell_angle_alpha                90
_cell_angle_beta                 97.444(2)
_cell_angle_gamma                90
_cell_volume                     2188.93
_exptl_crystal_colour            colorless
_exptl_crystal_description       block
_cell_formula_units_Z            4
_exptl_crystal_recrystallization_method hexanes/dichloromethane
loop_
_atom_site_label
_atom_site_type_symbol
_atom_site_fract_x
_atom_site_fract_y
_atom_site_fract_z
C1 C 0.66758(17) 0.4305(2) 0.51970(11)
H1 H 0.6227 0.4714 0.5550
H2 H 0.6172 0.4070 0.4750
C2 C 0.71834(17) 0.2987(2) 0.55253(12)
H3 H 0.7618 0.3179 0.6006
H4 H 0.7680 0.2591 0.5198
C3 C 0.62603(18) 0.1977(2) 0.56196(12)
H5 H 0.5743 0.2410 0.5920
H6 H 0.5851 0.1767 0.5133
C4 C 0.6689(2) 0.0647(2) 0.59833(13)
H7 H 0.7051 0.0842 0.6478
H8 H 0.7216 0.0226 0.5695
H9 H 0.6074 0.0017 0.6011
C5 C 0.82398(17) 0.5857(2) 0.56707(11)
H10 H 0.8645 0.5051 0.5892
H11 H 0.8786 0.6499 0.5511
C6 C 0.76742(18) 0.6557(2) 0.62561(12)
H12 H 0.7154 0.5910 0.6442
H13 H 0.7250 0.7354 0.6041
C7 C 0.85114(18) 0.7034(2) 0.68867(12)
H14 H 0.9104 0.7548 0.6690
H15 H 0.8845 0.6226 0.7154
C8 C 0.7982(2) 0.7949(2) 0.74164(12)
H16 H 0.7385 0.7449 0.7604
H17 H 0.7687 0.8775 0.7160
H18 H 0.8534 0.8210 0.7826
C9 C 0.67666(17) 0.6553(2) 0.46563(11)
H19 H 0.6309 0.6200 0.4214
H20 H 0.6263 0.6836 0.5007
C10 C 0.73768(17) 0.7814(2) 0.44421(12)
H21 H 0.7813 0.7581 0.4043
H22 H 0.7887 0.8141 0.4867
C11 C 0.65515(18) 0.8942(2) 0.41870(12)
H23 H 0.6056 0.8616 0.3755
H24 H 0.6098 0.9141 0.4581
C12 C 0.7123(2) 1.0254(2) 0.39888(13)
H25 H 0.7546 1.0069 0.3584
H26 H 0.7618 1.0575 0.4415
H27 H 0.6570 1.0959 0.3840
C13 C 0.82321(17) 0.4830(2) 0.44702(11)
H28 H 0.8703 0.5588 0.4337
H29 H 0.8720 0.4131 0.4731
C14 C 0.76606(18) 0.4194(2) 0.37688(11)
H30 H 0.7269 0.4912 0.3458
H31 H 0.7116 0.3509 0.3887
C15 C 0.85185(19) 0.3506(2) 0.33596(13)
H32 H 0.9051 0.4205 0.3238
H33 H 0.8926 0.2819 0.3684
C16 C 0.8011(2) 0.2806(2) 0.26595(12)
H34 H 0.7615 0.3484 0.2333
H35 H 0.7499 0.2095 0.2778
H36 H 0.8592 0.2388 0.2416
N1 N 0.74801(14) 0.53846(17) 0.49969(9)
C17 C 0.50529(19) 0.8085(2) 0.77333(13)
H37 H 0.5074 0.8763 0.7366
C18 C 0.50457(17) 0.6675(2) 0.75225(12)
N2 N 0.50543(15) 0.6390(2) 0.67769(10)
O1 O 0.50716(13) 0.51655(17) 0.65574(9)
O2 O 0.50433(15) 0.7341(2) 0.63188(10)
O3 O 0.50335(17) 0.84590(19) 0.83661(10)
C19 C 0.50129(18) 0.5527(2) 0.79985(13)
H38 H 0.4973 0.4675 0.7746
C20 C 0.5026(5) 0.5383(4) 0.87301(15)
H39 H 0.4954 0.4462 0.8884
C21 C 0.51271(19) 0.6356(3) 0.93144(14)
N3 N 0.51927(18) 0.6968(2) 0.98476(12)
C22? C 0.50129(18) 0.5527(2) 0.79985(13)
H40? H 0.4882 0.4648 0.7783
C23? C 0.516(7) 0.561(4) 0.8742(10)
H41? H 0.5323 0.6467 0.8975
C24? C 0.506(2) 0.440(2) 0.9173(14)
N4? N 0.494(2) 0.341(2) 0.9503(13)
loop_
_geom_bond_atom_site_label_1
_geom_bond_atom_site_label_2
_geom_bond_site_symmetry_1
_geom_bond_site_symmetry_2
C1 H1 1_555 1_555
H2 C1 1_555 1_555
C2 C1 1_555 1_555
H3 C2 1_555 1_555
H4 C2 1_555 1_555
C3 C2 1_555 1_555
H5 C3 1_555 1_555
H6 C3 1_555 1_555
C4 C3 1_555 1_555
H7 C4 1_555 1_555
H8 C4 1_555 1_555
H9 C4 1_555 1_555
C5 H10 1_555 1_555
H11 C5 1_555 1_555
C6 C5 1_555 1_555
H12 C6 1_555 1_555
H13 C6 1_555 1_555
C7 C6 1_555 1_555
H14 C7 1_555 1_555
H15 C7 1_555 1_555
C8 C7 1_555 1_555
H16 C8 1_555 1_555
H17 C8 1_555 1_555
H18 C8 1_555 1_555
C9 H19 1_555 1_555
H20 C9 1_555 1_555
C10 C9 1_555 1_555
H21 C10 1_555 1_555
H22 C10 1_555 1_555
C11 C10 1_555 1_555
H23 C11 1_555 1_555
H24 C11 1_555 1_555
C12 C11 1_555 1_555
H25 C12 1_555 1_555
H26 C12 1_555 1_555
H27 C12 1_555 1_555
C13 H28 1_555 1_555
H29 C13 1_555 1_555
C14 C13 1_555 1_555
H30 C14 1_555 1_555
H31 C14 1_555 1_555
C15 C14 1_555 1_555
H32 C15 1_555 1_555
H33 C15 1_555 1_555
C16 C15 1_555 1_555
H34 C16 1_555 1_555
H35 C16 1_555 1_555
H36 C16 1_555 1_555
N1 C1 1_555 1_555
C17 H37 1_555 1_555
C18 C17 1_555 1_555
N2 C18 1_555 1_555
O1 N2 1_555 1_555
O2 N2 1_555 1_555
O3 C17 1_555 1_555
C19 C18 1_555 1_555
H38 C19 1_555 1_555
C20 C19 1_555 1_555
H39 C20 1_555 1_555
C21 C20 1_555 1_555
N3 C21 1_555 1_555
C5 N1 1_555 1_555
C9 N1 1_555 1_555
C13 N1 1_555 1_555

#END
