
#######################################################################
#
#                 Cambridge Crystallographic Data Centre
#                                CCDC 
#
#######################################################################
#
# If this CIF has been generated from an entry in the Cambridge 
# Structural Database, then it will include bibliographic, chemical, 
# crystal, experimental, refinement or atomic coordinate data resulting 
# from the CCDC's data processing and validation procedures.
#
#######################################################################

data_HIFRAQ
_chemical_name_common            N-(4-Nitrobenzoyl)-N'-phenylhydrazine
_chemical_formula_moiety         'C13 H11 N3 O3'
_chemical_name_systematic        N-anilino-4-nitrobenzamide
_symmetry_cell_setting           orthorhombic
_symmetry_space_group_name_H-M   'P 21 21 21'
_symmetry_Int_Tables_number      19
_space_group_name_Hall           'P 2ac 2ab'
loop_
_symmetry_equiv_pos_site_id
_symmetry_equiv_pos_as_xyz
1 x,y,z
2 1/2-x,-y,1/2+z
3 -x,1/2+y,1/2-z
4 1/2+x,1/2-y,-z
_cell_length_a                   4.6982(6)
_cell_length_b                   9.9532(13)
_cell_length_c                   25.719(4)
_cell_angle_alpha                90
_cell_angle_beta                 90
_cell_angle_gamma                90
_cell_volume                     1202.68
_exptl_crystal_colour            yellow
_exptl_crystal_description       plate
_chemical_melting_point          '476-478 K'
_cell_formula_units_Z            4
_exptl_crystal_recrystallization_method ethanol
loop_
_atom_site_label
_atom_site_type_symbol
_atom_site_fract_x
_atom_site_fract_y
_atom_site_fract_z
C1 C 0.5301(8) 0.4619(4) 0.62844(12)
C2 C 0.3233(8) 0.4257(4) 0.66448(13)
C3 C 0.2294(9) 0.5166(4) 0.70126(13)
C4 C 0.3444(9) 0.6445(4) 0.70033(13)
N1 N 0.2407(9) 0.7426(4) 0.73870(12)
O1 O 0.0836(10) 0.7033(4) 0.77368(12)
O2 O 0.3102(8) 0.8603(3) 0.73315(12)
C5 C 0.5504(9) 0.6830(4) 0.66527(13)
C6 C 0.6447(9) 0.5911(4) 0.62919(13)
C7 C 0.6417(8) 0.3675(4) 0.58886(13)
O3 O 0.8892(5) 0.3774(3) 0.57235(9)
N2 N 0.4676(7) 0.2685(3) 0.57330(10)
N3 N 0.5636(7) 0.1789(3) 0.53576(11)
C8 C 0.7356(8) 0.0726(3) 0.55066(13)
C9 C 0.8580(8) 0.0630(4) 0.60011(13)
C10 C 1.0473(9) -0.0398(4) 0.61098(14)
C11 C 1.1178(9) -0.1335(4) 0.57367(16)
C12 C 0.9950(8) -0.1248(4) 0.52475(15)
C13 C 0.8070(8) -0.0236(4) 0.51305(13)
H1 H 0.2458 0.3376 0.6638
H2 H 0.0904 0.4921 0.7264
H3 H 0.6260 0.7714 0.6660
H4 H 0.7876 0.6156 0.6048
H5 H 0.2858 0.2666 0.5815
H6 H 0.4602 0.1733 0.5073
H7 H 0.8113 0.1269 0.6262
H8 H 1.1297 -0.0459 0.6446
H9 H 1.2491 -0.2033 0.5814
H10 H 1.0416 -0.1896 0.4990
H11 H 0.7250 -0.0188 0.4793
loop_
_geom_bond_atom_site_label_1
_geom_bond_atom_site_label_2
_geom_bond_site_symmetry_1
_geom_bond_site_symmetry_2
C1 C2 1_555 1_555
C2 C3 1_555 1_555
C3 C4 1_555 1_555
C4 N1 1_555 1_555
N1 O1 1_555 1_555
O2 N1 1_555 1_555
C5 C4 1_555 1_555
C6 C1 1_555 1_555
C7 C1 1_555 1_555
O3 C7 1_555 1_555
N2 C7 1_555 1_555
N3 N2 1_555 1_555
C8 N3 1_555 1_555
C9 C8 1_555 1_555
C10 C9 1_555 1_555
C11 C10 1_555 1_555
C12 C11 1_555 1_555
C13 C8 1_555 1_555
H1 C2 1_555 1_555
H2 C3 1_555 1_555
H3 C5 1_555 1_555
H4 C6 1_555 1_555
H5 N2 1_555 1_555
H6 N3 1_555 1_555
H7 C9 1_555 1_555
H8 C10 1_555 1_555
H9 C11 1_555 1_555
H10 C12 1_555 1_555
H11 C13 1_555 1_555
C5 C6 1_555 1_555
C12 C13 1_555 1_555

#END
