
#######################################################################
#
#                 Cambridge Crystallographic Data Centre
#                                CCDC 
#
#######################################################################
#
# If this CIF has been generated from an entry in the Cambridge 
# Structural Database, then it will include bibliographic, chemical, 
# crystal, experimental, refinement or atomic coordinate data resulting 
# from the CCDC's data processing and validation procedures.
#
#######################################################################

data_HIFSIY
_chemical_name_common            
2-(4,5-bis(Methylthio)-1,3-dithiol-2-ylidene)-5,6-dihydro-1,3-dithiolo(4,5-b)(1,4)dithiine
_chemical_formula_moiety         'C10 H10 S8'
_chemical_name_systematic        
bis(Methylthio)ethylenedithiotetrathiafulvalene
_symmetry_cell_setting           triclinic
_symmetry_space_group_name_H-M   'P -1'
_symmetry_Int_Tables_number      2
_space_group_name_Hall           '-P 1'
loop_
_symmetry_equiv_pos_site_id
_symmetry_equiv_pos_as_xyz
1 x,y,z
2 -x,-y,-z
_cell_length_a                   8.433(2)
_cell_length_b                   12.987(6)
_cell_length_c                   7.743(3)
_cell_angle_alpha                98.92(4)
_cell_angle_beta                 98.90(3)
_cell_angle_gamma                105.53(3)
_cell_volume                     789.828
_exptl_crystal_colour            orange
_chemical_melting_point          395-396K
_cell_formula_units_Z            2
loop_
_atom_site_label
_atom_site_type_symbol
_atom_site_fract_x
_atom_site_fract_y
_atom_site_fract_z
S1 S 0.7585(3) 0.4517(2) 0.5646(3)
S2 S 0.6169(3) 0.5230(2) 0.2466(3)
S3 S 0.7365(3) 0.2202(2) 0.3109(3)
S4 S 0.5840(3) 0.2908(2) -0.0003(3)
S5 S 0.8182(3) 0.6726(2) 0.8057(3)
S6 S 0.6669(3) 0.7489(2) 0.4519(3)
S7 S 0.8444(3) 0.0517(2) 0.0910(3)
S8 S 0.6688(4) 0.1378(2) -0.2686(3)
C1 C 0.682(1) 0.4205(6) 0.331(1)
C2 C 0.671(1) 0.3247(6) 0.231(1)
C3 C 0.756(1) 0.5875(6) 0.592(1)
C4 C 0.693(1) 0.6208(6) 0.446(1)
C5 C 0.754(1) 0.1578(6) 0.098(1)
C6 C 0.681(1) 0.1885(6) -0.044(1)
C7 C 0.926(1) 0.5967(8) 0.934(1)
C8 C 0.839(1) 0.8137(9) 0.352(2)
C9 C 0.706(1) -0.0394(7) -0.112(1)
C10 C 0.729(1) 0.0139(8) -0.273(1)
H1 H 0.850876 0.527140 0.931326
H2 H 1.018986 0.587449 0.884549
H3 H 0.965851 0.635820 1.054640
H4 H 0.942794 0.815226 0.422378
H5 H 0.825717 0.773385 0.234648
H6 H 0.838384 0.886176 0.347052
H7 H 0.734097 -0.106012 -0.130144
H8 H 0.592845 -0.053877 -0.098856
H9 H 0.662203 -0.037588 -0.377131
H10 H 0.843826 0.030728 -0.280225
loop_
_geom_bond_atom_site_label_1
_geom_bond_atom_site_label_2
_geom_bond_site_symmetry_1
_geom_bond_site_symmetry_2
S1 C1 1_555 1_555
S2 C1 1_555 1_555
S3 C2 1_555 1_555
S4 C2 1_555 1_555
S5 C3 1_555 1_555
S6 C4 1_555 1_555
S7 C5 1_555 1_555
S8 C6 1_555 1_555
C1 C2 1_555 1_555
C3 S1 1_555 1_555
C4 S2 1_555 1_555
C5 S3 1_555 1_555
C6 S4 1_555 1_555
C7 S5 1_555 1_555
C8 S6 1_555 1_555
C9 S7 1_555 1_555
C10 S8 1_555 1_555
H1 C7 1_555 1_555
H2 C7 1_555 1_555
H3 C7 1_555 1_555
H4 C8 1_555 1_555
H5 C8 1_555 1_555
H6 C8 1_555 1_555
H7 C9 1_555 1_555
H8 C9 1_555 1_555
H9 C10 1_555 1_555
H10 C10 1_555 1_555
C3 C4 1_555 1_555
C5 C6 1_555 1_555
C9 C10 1_555 1_555

#END
