
#######################################################################
#
#                 Cambridge Crystallographic Data Centre
#                                CCDC 
#
#######################################################################
#
# If this CIF has been generated from an entry in the Cambridge 
# Structural Database, then it will include bibliographic, chemical, 
# crystal, experimental, refinement or atomic coordinate data resulting 
# from the CCDC's data processing and validation procedures.
#
#######################################################################

data_HIFSOG
_chemical_formula_moiety         'C12 H13 N3 O4'
_chemical_name_systematic        
2,4-Dimethoxy-6-(4-methoxyphenoxy)-1,3,5-triazine
_symmetry_cell_setting           monoclinic
_symmetry_space_group_name_H-M   'P 21/c'
_symmetry_Int_Tables_number      14
_space_group_name_Hall           '-P 2ybc'
loop_
_symmetry_equiv_pos_site_id
_symmetry_equiv_pos_as_xyz
1 x,y,z
2 -x,1/2+y,1/2-z
3 -x,-y,-z
4 x,1/2-y,1/2+z
_cell_length_a                   7.902(2)
_cell_length_b                   6.4016(16)
_cell_length_c                   24.337(6)
_cell_angle_alpha                90
_cell_angle_beta                 94.076(5)
_cell_angle_gamma                90
_cell_volume                     1227.98
_exptl_crystal_colour            colorless
_exptl_crystal_description       Prism
_cell_formula_units_Z            4
loop_
_atom_site_label
_atom_site_type_symbol
_atom_site_fract_x
_atom_site_fract_y
_atom_site_fract_z
O1 O 0.16793(9) 0.87400(12) 0.17453(3)
O2 O 0.35754(10) 1.19124(11) 0.38110(3)
O3 O 0.32892(9) 1.20904(11) 0.56628(3)
O4 O 0.08432(9) 0.67811(11) 0.47218(3)
N1 N 0.35017(10) 1.20740(13) 0.47267(3)
N2 N 0.20493(10) 0.94265(13) 0.52000(3)
N3 N 0.21422(10) 0.92753(13) 0.42218(3)
C1 C 0.21236(14) 0.66685(17) 0.15874(4)
H1 H 0.3354 0.6581 0.1562
H2 H 0.1545 0.6335 0.1229
H3 H 0.1777 0.5671 0.1863
C2 C 0.22235(12) 0.94020(16) 0.22604(4)
C3 C 0.15694(13) 1.13114(16) 0.24202(4)
H4 H 0.0815 1.2066 0.2172
C4 C 0.20113(13) 1.21161(17) 0.29384(4)
H5 H 0.1573 1.3424 0.3046
C5 C 0.30982(12) 1.09913(16) 0.32963(4)
C6 C 0.37831(13) 0.91190(17) 0.31423(4)
H6 H 0.4550 0.8385 0.3391
C7 C 0.33478(13) 0.83081(16) 0.26211(4)
H7 H 0.3814 0.7018 0.2512
C8 C 0.30398(12) 1.10190(15) 0.42697(4)
C9 C 0.29407(12) 1.11830(15) 0.51749(4)
C10 C 0.17051(12) 0.85529(15) 0.47092(4)
C11 C 0.04204(13) 0.57432(16) 0.42013(4)
H8 H -0.0312 0.6652 0.3964
H9 H -0.0176 0.4434 0.4267
H10 H 0.1463 0.5441 0.4021
C12 C 0.41078(13) 1.41150(16) 0.56663(4)
H11 H 0.5240 1.3973 0.5530
H12 H 0.4210 1.4664 0.6043
H13 H 0.3428 1.5078 0.5428
loop_
_geom_bond_atom_site_label_1
_geom_bond_atom_site_label_2
_geom_bond_site_symmetry_1
_geom_bond_site_symmetry_2
O1 C1 1_555 1_555
O2 C5 1_555 1_555
O3 C9 1_555 1_555
O4 C10 1_555 1_555
N1 C8 1_555 1_555
N2 C9 1_555 1_555
N3 C8 1_555 1_555
C1 H1 1_555 1_555
H2 C1 1_555 1_555
H3 C1 1_555 1_555
C2 O1 1_555 1_555
C3 C2 1_555 1_555
H4 C3 1_555 1_555
C4 C3 1_555 1_555
H5 C4 1_555 1_555
C5 C4 1_555 1_555
C6 C5 1_555 1_555
H6 C6 1_555 1_555
C7 C2 1_555 1_555
H7 C7 1_555 1_555
C8 O2 1_555 1_555
C9 N1 1_555 1_555
C10 N2 1_555 1_555
C11 O4 1_555 1_555
H8 C11 1_555 1_555
H9 C11 1_555 1_555
H10 C11 1_555 1_555
C12 O3 1_555 1_555
H11 C12 1_555 1_555
H12 C12 1_555 1_555
H13 C12 1_555 1_555
N3 C10 1_555 1_555
C6 C7 1_555 1_555

#END
