
#######################################################################
#
#                 Cambridge Crystallographic Data Centre
#                                CCDC 
#
#######################################################################
#
# If this CIF has been generated from an entry in the Cambridge 
# Structural Database, then it will include bibliographic, chemical, 
# crystal, experimental, refinement or atomic coordinate data resulting 
# from the CCDC's data processing and validation procedures.
#
#######################################################################

data_HIFTAS
_chemical_formula_moiety         'C23 H21 N5 O6,H2 O1'
_chemical_name_systematic        
'2,6-bis((2-Hydroxy-3-methoxybenzylidene)hydrazinocarbonyl)pyridine monohydrate'
_symmetry_cell_setting           triclinic
_symmetry_space_group_name_H-M   'P -1'
_symmetry_Int_Tables_number      2
_space_group_name_Hall           '-P 1'
loop_
_symmetry_equiv_pos_site_id
_symmetry_equiv_pos_as_xyz
1 x,y,z
2 -x,-y,-z
_cell_length_a                   10.184(2)
_cell_length_b                   10.842(1)
_cell_length_c                   11.034(2)
_cell_angle_alpha                98.72(3)
_cell_angle_beta                 110.42(2)
_cell_angle_gamma                92.42(3)
_cell_volume                     1122.6
_exptl_crystal_colour            colorless
_exptl_crystal_description       block
_cell_formula_units_Z            2
_exptl_crystal_recrystallization_method methanol
loop_
_atom_site_label
_atom_site_type_symbol
_atom_site_fract_x
_atom_site_fract_y
_atom_site_fract_z
C1 C 0.19884(18) 0.34160(17) 0.4560(2)
C2 C 0.0625(2) 0.3316(2) 0.4553(2)
H1 H 0.0014 0.3903 0.4237
C3 C 0.0192(2) 0.2335(2) 0.5023(2)
H2 H -0.0720 0.2245 0.5025
C4 C 0.11283(19) 0.1481(2) 0.5493(2)
H3 H 0.0862 0.0806 0.5815
C5 C 0.24745(18) 0.16595(18) 0.54719(19)
C6 C 0.35072(19) 0.07563(18) 0.5996(2)
C7 C 0.71717(19) 0.09205(19) 0.70697(19)
H4 H 0.7332 0.1719 0.6906
C8 C 0.83587(19) 0.02501(18) 0.76564(19)
C9 C 0.9736(2) 0.0783(2) 0.7935(2)
H5 H 0.9876 0.1571 0.7738
C10 C 1.0867(2) 0.0165(2) 0.8489(2)
H6 H 1.1770 0.0539 0.8675
C11 C 1.0688(2) -0.1017(2) 0.8780(2)
H7 H 1.1467 -0.1437 0.9148
C12 C 0.9351(2) -0.15635(19) 0.8522(2)
C13 C 0.81783(18) -0.09329(19) 0.79588(19)
C14 C 1.0176(2) -0.3454(2) 0.9237(3)
H8 H 0.9818 -0.4247 0.9345
H9 H 1.0820 -0.3015 1.0070
H10 H 1.0656 -0.3590 0.8626
C15 C 0.24496(19) 0.44445(19) 0.3995(2)
C16 C 0.5142(2) 0.49243(19) 0.2783(2)
H11 H 0.5721 0.4337 0.3155
C17 C 0.55434(19) 0.56697(18) 0.1965(2)
C18 C 0.6858(2) 0.5582(2) 0.1820(2)
H12 H 0.7469 0.5052 0.2269
C19 C 0.7251(2) 0.6259(2) 0.1037(2)
H13 H 0.8131 0.6198 0.0966
C20 C 0.6339(2) 0.7040(2) 0.0344(2)
H14 H 0.6603 0.7491 -0.0201
C21 C 0.5040(2) 0.7146(2) 0.0463(2)
C22 C 0.46500(18) 0.64702(18) 0.1278(2)
C23 C 0.4325(3) 0.8464(2) -0.1146(3)
H15 H 0.3552 0.8927 -0.1538
H16 H 0.4434 0.7840 -0.1812
H17 H 0.5174 0.9027 -0.0739
N1 N 0.29100(15) 0.26075(14) 0.50166(15)
N2 N 0.48504(16) 0.11625(14) 0.62165(17)
H18 H 0.5027 0.1883 0.5979
N3 N 0.59051(16) 0.04457(15) 0.67688(16)
N4 N 0.36241(16) 0.42826(14) 0.37266(17)
H19 H 0.4161 0.3685 0.4019
N5 N 0.39901(16) 0.50634(15) 0.30027(17)
O1 O 0.31393(14) -0.02534(13) 0.62118(15)
O2 O 0.68928(13) -0.15184(13) 0.77465(14)
H20 H 0.6281 -0.1074 0.7419
O3 O 0.90350(14) -0.27240(14) 0.87475(16)
O4 O 0.18031(14) 0.53748(13) 0.38126(17)
O5 O 0.33579(13) 0.66089(13) 0.13551(14)
H21 H 0.3229 0.6168 0.1853
O6 O 0.40564(16) 0.78740(16) -0.01889(16)
O7 O 0.60588(14) 0.26205(13) 0.46378(16)
H22 H 0.6343 0.1989 0.4345
H23 H 0.6832 0.3008 0.5065
loop_
_geom_bond_atom_site_label_1
_geom_bond_atom_site_label_2
_geom_bond_site_symmetry_1
_geom_bond_site_symmetry_2
C1 C2 1_555 1_555
C2 H1 1_555 1_555
C3 C2 1_555 1_555
H2 C3 1_555 1_555
C4 C3 1_555 1_555
H3 C4 1_555 1_555
C5 C4 1_555 1_555
C6 C5 1_555 1_555
C7 H4 1_555 1_555
C8 C7 1_555 1_555
C9 C8 1_555 1_555
H5 C9 1_555 1_555
C10 C9 1_555 1_555
H6 C10 1_555 1_555
C11 C10 1_555 1_555
H7 C11 1_555 1_555
C12 C11 1_555 1_555
C13 C8 1_555 1_555
C14 H8 1_555 1_555
H9 C14 1_555 1_555
H10 C14 1_555 1_555
C15 C1 1_555 1_555
C16 H11 1_555 1_555
C17 C16 1_555 1_555
C18 C17 1_555 1_555
H12 C18 1_555 1_555
C19 C18 1_555 1_555
H13 C19 1_555 1_555
C20 C19 1_555 1_555
H14 C20 1_555 1_555
C21 C20 1_555 1_555
C22 C17 1_555 1_555
C23 H15 1_555 1_555
H16 C23 1_555 1_555
H17 C23 1_555 1_555
N1 C1 1_555 1_555
N2 C6 1_555 1_555
H18 N2 1_555 1_555
N3 C7 1_555 1_555
N4 C15 1_555 1_555
H19 N4 1_555 1_555
N5 C16 1_555 1_555
O1 C6 1_555 1_555
O2 C13 1_555 1_555
H20 O2 1_555 1_555
O3 C12 1_555 1_555
O4 C15 1_555 1_555
O5 C22 1_555 1_555
H21 O5 1_555 1_555
O6 C21 1_555 1_555
O7 H22 1_555 1_555
H23 O7 1_555 1_555
C5 N1 1_555 1_555
C12 C13 1_555 1_555
C14 O3 1_555 1_555
C21 C22 1_555 1_555
C23 O6 1_555 1_555
N2 N3 1_555 1_555
N4 N5 1_555 1_555

#END
