
#######################################################################
#
#                 Cambridge Crystallographic Data Centre
#                                CCDC 
#
#######################################################################
#
# If this CIF has been generated from an entry in the Cambridge 
# Structural Database, then it will include bibliographic, chemical, 
# crystal, experimental, refinement or atomic coordinate data resulting 
# from the CCDC's data processing and validation procedures.
#
#######################################################################

data_HIFXUR
_chemical_name_common            '(Z)-3-Nitrobenzophenone O-methyl oxime'
_chemical_formula_moiety         'C14 H12 N2 O3'
_chemical_name_systematic        
(Z)-N-Methoxy-1-(3-nitrophenyl)-1-phenylmethanimine
_symmetry_cell_setting           monoclinic
_symmetry_space_group_name_H-M   'P 21/c'
_symmetry_Int_Tables_number      14
_space_group_name_Hall           '-P 2ybc'
loop_
_symmetry_equiv_pos_site_id
_symmetry_equiv_pos_as_xyz
1 x,y,z
2 -x,1/2+y,1/2-z
3 -x,-y,-z
4 x,1/2-y,1/2+z
_cell_length_a                   8.7740(10)
_cell_length_b                   8.8629(10)
_cell_length_c                   16.001(2)
_cell_angle_alpha                90
_cell_angle_beta                 94.810(5)
_cell_angle_gamma                90
_cell_volume                     1239.91
_exptl_crystal_colour            colorless
_exptl_crystal_description       needle
_cell_formula_units_Z            4
loop_
_atom_site_label
_atom_site_type_symbol
_atom_site_fract_x
_atom_site_fract_y
_atom_site_fract_z
O1 O 0.28988(6) 0.57846(7) 0.17013(3)
O2 O 0.91166(7) 0.31311(9) 0.11170(4)
O3 O 0.67852(7) 0.25694(8) 0.06771(4)
N1 N 0.23688(7) 0.50600(8) 0.24019(4)
N2 N 0.77295(8) 0.31721(8) 0.11783(4)
C1 C 0.34731(8) 0.44959(8) 0.28879(4)
C2 C 0.30331(8) 0.37214(8) 0.36501(4)
C3 C 0.16946(8) 0.41277(9) 0.40149(4)
H1 H 0.1089 0.4942 0.3788
C4 C 0.12497(8) 0.33460(9) 0.47050(4)
H2 H 0.0336 0.3622 0.4946
C5 C 0.21368(9) 0.21584(9) 0.50457(5)
H3 H 0.1828 0.1621 0.5517
C6 C 0.34750(9) 0.17643(9) 0.46938(5)
H4 H 0.4086 0.0960 0.4928
C7 C 0.39282(8) 0.25408(9) 0.39989(5)
H5 H 0.4847 0.2267 0.3762
C8 C 0.51192(8) 0.45768(8) 0.27223(4)
C9 C 0.56326(8) 0.38976(8) 0.20133(4)
H6 H 0.4940 0.3398 0.1617
C10 C 0.71806(8) 0.39690(8) 0.18999(4)
C11 C 0.82323(8) 0.47458(9) 0.24342(5)
H7 H 0.9280 0.4800 0.2328
C12 C 0.76957(8) 0.54409(9) 0.31301(5)
H8 H 0.8381 0.6001 0.3502
C13 C 0.61611(8) 0.53239(9) 0.32877(5)
H9 H 0.5821 0.5755 0.3783
C14 C 0.16099(9) 0.64539(10) 0.12315(5)
H10 H 0.0909 0.5659 0.1013
H11 H 0.1962 0.7035 0.0763
H12 H 0.1077 0.7126 0.1597
loop_
_geom_bond_atom_site_label_1
_geom_bond_atom_site_label_2
_geom_bond_site_symmetry_1
_geom_bond_site_symmetry_2
O1 N1 1_555 1_555
O2 N2 1_555 1_555
O3 N2 1_555 1_555
N1 C1 1_555 1_555
N2 C10 1_555 1_555
C1 C2 1_555 1_555
C2 C3 1_555 1_555
C3 H1 1_555 1_555
C4 C3 1_555 1_555
H2 C4 1_555 1_555
C5 C4 1_555 1_555
H3 C5 1_555 1_555
C6 C5 1_555 1_555
H4 C6 1_555 1_555
C7 C2 1_555 1_555
H5 C7 1_555 1_555
C8 C1 1_555 1_555
C9 C8 1_555 1_555
H6 C9 1_555 1_555
C10 C9 1_555 1_555
C11 C10 1_555 1_555
H7 C11 1_555 1_555
C12 C11 1_555 1_555
H8 C12 1_555 1_555
C13 C8 1_555 1_555
H9 C13 1_555 1_555
C14 O1 1_555 1_555
H10 C14 1_555 1_555
H11 C14 1_555 1_555
H12 C14 1_555 1_555
C6 C7 1_555 1_555
C12 C13 1_555 1_555

#END
