
#######################################################################
#
#                 Cambridge Crystallographic Data Centre
#                                CCDC 
#
#######################################################################
#
# If this CIF has been generated from an entry in the Cambridge 
# Structural Database, then it will include bibliographic, chemical, 
# crystal, experimental, refinement or atomic coordinate data resulting 
# from the CCDC's data processing and validation procedures.
#
#######################################################################

data_HIFXAX
_chemical_formula_moiety         'C15 H15 N1 O2'
_chemical_name_systematic        
N-Methoxy-1-(4-methoxyphenyl)-1-phenylmethanimine
_symmetry_cell_setting           orthorhombic
_symmetry_space_group_name_H-M   'P 21 21 21'
_symmetry_Int_Tables_number      19
_space_group_name_Hall           'P 2ac 2ab'
loop_
_symmetry_equiv_pos_site_id
_symmetry_equiv_pos_as_xyz
1 x,y,z
2 1/2-x,-y,1/2+z
3 -x,1/2+y,1/2-z
4 1/2+x,1/2-y,-z
_cell_length_a                   7.2117(10)
_cell_length_b                   10.1590(15)
_cell_length_c                   16.885(2)
_cell_angle_alpha                90
_cell_angle_beta                 90
_cell_angle_gamma                90
_cell_volume                     1237.06
_exptl_crystal_colour            colorless
_cell_formula_units_Z            4
loop_
_atom_site_label
_atom_site_type_symbol
_atom_site_fract_x
_atom_site_fract_y
_atom_site_fract_z
O1 O 0.81690(7) 0.59325(5) 0.83888(3)
O2 O 0.60674(7) 0.95184(5) 0.44874(3)
N1 N 0.80886(7) 0.64774(5) 0.76232(3)
C1 C 0.67403(8) 0.73083(6) 0.75421(3)
C2 C 0.65161(7) 0.78472(5) 0.67334(3)
C3 C 0.57055(8) 0.90843(6) 0.66086(3)
H1 H 0.5231 0.9564 0.7047
C4 C 0.55877(8) 0.96166(6) 0.58537(3)
H2 H 0.5047 1.0460 0.5779
C5 C 0.62620(8) 0.89144(6) 0.52038(3)
C6 C 0.70443(8) 0.76692(6) 0.53134(3)
H3 H 0.7493 0.7182 0.4873
C7 C 0.71601(8) 0.71498(6) 0.60748(3)
H4 H 0.7689 0.6302 0.6148
C8 C 0.54688(8) 0.77337(5) 0.81862(3)
C9 C 0.35503(8) 0.77357(6) 0.80594(4)
H5 H 0.3067 0.7459 0.7563
C10 C 0.23481(9) 0.81393(7) 0.86551(4)
H6 H 0.1047 0.8127 0.8568
C11 C 0.30494(11) 0.85607(7) 0.93799(4)
H7 H 0.2229 0.8841 0.9787
C12 C 0.49529(11) 0.85703(7) 0.95072(4)
H8 H 0.5433 0.8862 1.0001
C13 C 0.61580(9) 0.81546(6) 0.89160(4)
H9 H 0.7457 0.8157 0.9009
C14 C 0.95874(10) 0.49546(6) 0.83843(4)
H10 H 1.0789 0.5373 0.8284
H11 H 0.9330 0.4310 0.7967
H12 H 0.9618 0.4509 0.8899
C15 C 0.68216(10) 0.88597(7) 0.38143(4)
H13 H 0.6183 0.8017 0.3739
H14 H 0.8147 0.8701 0.3899
H15 H 0.6653 0.9409 0.3343
loop_
_geom_bond_atom_site_label_1
_geom_bond_atom_site_label_2
_geom_bond_site_symmetry_1
_geom_bond_site_symmetry_2
O1 N1 1_555 1_555
O2 C5 1_555 1_555
N1 C1 1_555 1_555
C1 C2 1_555 1_555
C2 C3 1_555 1_555
C3 H1 1_555 1_555
C4 C3 1_555 1_555
H2 C4 1_555 1_555
C5 C4 1_555 1_555
C6 C5 1_555 1_555
H3 C6 1_555 1_555
C7 C2 1_555 1_555
H4 C7 1_555 1_555
C8 C1 1_555 1_555
C9 C8 1_555 1_555
H5 C9 1_555 1_555
C10 C9 1_555 1_555
H6 C10 1_555 1_555
C11 C10 1_555 1_555
H7 C11 1_555 1_555
C12 C11 1_555 1_555
H8 C12 1_555 1_555
C13 C8 1_555 1_555
H9 C13 1_555 1_555
C14 O1 1_555 1_555
H10 C14 1_555 1_555
H11 C14 1_555 1_555
H12 C14 1_555 1_555
C15 O2 1_555 1_555
H13 C15 1_555 1_555
H14 C15 1_555 1_555
H15 C15 1_555 1_555
C6 C7 1_555 1_555
C12 C13 1_555 1_555

#END
