
#######################################################################
#
#                 Cambridge Crystallographic Data Centre
#                                CCDC 
#
#######################################################################
#
# If this CIF has been generated from an entry in the Cambridge 
# Structural Database, then it will include bibliographic, chemical, 
# crystal, experimental, refinement or atomic coordinate data resulting 
# from the CCDC's data processing and validation procedures.
#
#######################################################################

data_HIFXOL
_chemical_formula_moiety         'C14 H12 N2 O3'
_chemical_name_systematic        '(E)-4-Nitrobenzophenone O-methyl oxime'
_symmetry_cell_setting           monoclinic
_symmetry_space_group_name_H-M   'P 21/c'
_symmetry_Int_Tables_number      14
_space_group_name_Hall           '-P 2ybc'
loop_
_symmetry_equiv_pos_site_id
_symmetry_equiv_pos_as_xyz
1 x,y,z
2 -x,1/2+y,1/2-z
3 -x,-y,-z
4 x,1/2-y,1/2+z
_cell_length_a                   11.0615(15)
_cell_length_b                   8.4714(10)
_cell_length_c                   13.820(2)
_cell_angle_alpha                90
_cell_angle_beta                 108.144(5)
_cell_angle_gamma                90
_cell_volume                     1230.63
_exptl_crystal_colour            colorless
_exptl_crystal_description       parallelepiped
_cell_formula_units_Z            4
loop_
_atom_site_label
_atom_site_type_symbol
_atom_site_fract_x
_atom_site_fract_y
_atom_site_fract_z
O1 O 0.34705(4) 0.81575(5) 0.39799(3)
O2 O -0.01864(5) 0.08231(6) 0.62252(4)
O3 O -0.00034(5) 0.27170(6) 0.73126(4)
N1 N 0.28460(4) 0.73508(5) 0.45703(4)
N2 N 0.01743(4) 0.21471(6) 0.65494(4)
C1 C 0.27689(5) 0.58573(5) 0.43717(4)
C2 C 0.21436(5) 0.48843(5) 0.49680(4)
C3 C 0.19896(5) 0.54446(6) 0.58776(4)
H1 H 0.2337 0.6439 0.6140
C4 C 0.13353(5) 0.45614(6) 0.63969(4)
H2 H 0.1218 0.4945 0.7007
C5 C 0.08549(5) 0.31003(6) 0.60018(4)
C6 C 0.09953(5) 0.25034(6) 0.51102(4)
H3 H 0.0656 0.1501 0.4857
C7 C 0.16456(5) 0.34076(6) 0.45955(4)
H4 H 0.1754 0.3018 0.3983
C8 C 0.32254(5) 0.51082(6) 0.35758(4)
C9 C 0.26993(5) 0.55534(6) 0.25556(4)
H5 H 0.2056 0.6340 0.2372
C10 C 0.31175(6) 0.48464(7) 0.18102(4)
H6 H 0.2752 0.5143 0.1117
C11 C 0.40707(6) 0.37036(7) 0.20752(5)
H7 H 0.4360 0.3228 0.1565
C12 C 0.45974(6) 0.32619(7) 0.30889(5)
H8 H 0.5253 0.2490 0.3272
C13 C 0.41666(5) 0.39485(6) 0.38380(4)
H9 H 0.4514 0.3626 0.4528
C14 C 0.33497(6) 0.98163(6) 0.41125(5)
H10 H 0.2448 1.0089 0.3957
H11 H 0.3711 1.0393 0.3653
H12 H 0.3807 1.0105 0.4819
loop_
_geom_bond_atom_site_label_1
_geom_bond_atom_site_label_2
_geom_bond_site_symmetry_1
_geom_bond_site_symmetry_2
O1 N1 1_555 1_555
O2 N2 1_555 1_555
O3 N2 1_555 1_555
N1 C1 1_555 1_555
N2 C5 1_555 1_555
C1 C2 1_555 1_555
C2 C3 1_555 1_555
C3 H1 1_555 1_555
C4 C3 1_555 1_555
H2 C4 1_555 1_555
C5 C4 1_555 1_555
C6 C5 1_555 1_555
H3 C6 1_555 1_555
C7 C2 1_555 1_555
H4 C7 1_555 1_555
C8 C1 1_555 1_555
C9 C8 1_555 1_555
H5 C9 1_555 1_555
C10 C9 1_555 1_555
H6 C10 1_555 1_555
C11 C10 1_555 1_555
H7 C11 1_555 1_555
C12 C11 1_555 1_555
H8 C12 1_555 1_555
C13 C8 1_555 1_555
H9 C13 1_555 1_555
C14 O1 1_555 1_555
H10 C14 1_555 1_555
H11 C14 1_555 1_555
H12 C14 1_555 1_555
C6 C7 1_555 1_555
C12 C13 1_555 1_555

#END
