
#######################################################################
#
#                 Cambridge Crystallographic Data Centre
#                                CCDC 
#
#######################################################################
#
# If this CIF has been generated from an entry in the Cambridge 
# Structural Database, then it will include bibliographic, chemical, 
# crystal, experimental, refinement or atomic coordinate data resulting 
# from the CCDC's data processing and validation procedures.
#
#######################################################################

data_HIFYIG
_chemical_formula_moiety         'C15 H15 N1 O1'
_chemical_name_systematic        
N-Methoxy-1-(4-methylphenyl)-1-phenylmethanimine
_symmetry_cell_setting           monoclinic
_symmetry_space_group_name_H-M   'P 21/c'
_symmetry_Int_Tables_number      14
_space_group_name_Hall           '-P 2ybc'
loop_
_symmetry_equiv_pos_site_id
_symmetry_equiv_pos_as_xyz
1 x,y,z
2 -x,1/2+y,1/2-z
3 -x,-y,-z
4 x,1/2-y,1/2+z
_cell_length_a                   14.187(4)
_cell_length_b                   7.762(2)
_cell_length_c                   22.998(6)
_cell_angle_alpha                90
_cell_angle_beta                 103.422(15)
_cell_angle_gamma                90
_cell_volume                     2463.36
_exptl_crystal_colour            colorless
_cell_formula_units_Z            8
loop_
_atom_site_label
_atom_site_type_symbol
_atom_site_fract_x
_atom_site_fract_y
_atom_site_fract_z
O1 O 0.91195(7) 0.63645(12) 0.48880(5)
N1 N 0.82183(8) 0.71846(14) 0.46884(5)
C1 C 0.75284(10) 0.62912(16) 0.48139(6)
C2 C 0.65429(10) 0.70238(16) 0.46092(6)
C3 C 0.62914(10) 0.80121(18) 0.40878(7)
H1 H 0.6747 0.8171 0.3848
C4 C 0.53812(11) 0.87619(19) 0.39188(7)
H2 H 0.5213 0.9425 0.3563
C5 C 0.47157(11) 0.85439(19) 0.42697(8)
H3 H 0.4096 0.9073 0.4157
C6 C 0.49547(11) 0.75544(19) 0.47843(7)
H4 H 0.4497 0.7401 0.5023
C7 C 0.58626(10) 0.67848(18) 0.49530(6)
H5 H 0.6020 0.6095 0.5303
C8 C 0.76748(9) 0.46191(16) 0.51439(6)
C9 C 0.80682(11) 0.45585(17) 0.57548(6)
H6 H 0.8228 0.5599 0.5973
C10 C 0.82299(11) 0.29803(17) 0.60509(6)
H7 H 0.8489 0.2960 0.6471
C11 C 0.80174(10) 0.14339(17) 0.57417(6)
C12 C 0.76085(10) 0.15075(16) 0.51299(6)
H8 H 0.7448 0.0468 0.4912
C13 C 0.74312(10) 0.30750(16) 0.48339(6)
H9 H 0.7142 0.3097 0.4418
C14 C 0.82219(12) -0.02838(17) 0.60523(7)
H10 H 0.7610 -0.0889 0.6035
H11 H 0.8558 -0.0101 0.6471
H12 H 0.8631 -0.0977 0.5853
C15 C 0.98549(10) 0.74525(18) 0.47568(7)
H13 H 0.9714 0.7682 0.4326
H14 H 1.0486 0.6880 0.4880
H15 H 0.9870 0.8542 0.4974
O2 O 0.90805(7) 0.77534(12) 0.24606(5)
N2 N 0.81157(8) 0.82917(14) 0.22434(5)
C16 C 0.75071(9) 0.71850(15) 0.23573(6)
C17 C 0.64669(9) 0.76074(15) 0.21325(6)
C18 C 0.61473(10) 0.86841(17) 0.16396(6)
H16 H 0.6601 0.9167 0.1440
C19 C 0.51644(11) 0.90513(18) 0.14394(6)
H17 H 0.4950 0.9783 0.1103
C20 C 0.44969(10) 0.83515(18) 0.17294(6)
H18 H 0.3826 0.8593 0.1589
C21 C 0.48113(10) 0.72999(18) 0.22236(7)
H19 H 0.4357 0.6834 0.2426
C22 C 0.57896(10) 0.69291(17) 0.24219(6)
H20 H 0.6001 0.6203 0.2760
C23 C 0.77774(9) 0.55436(15) 0.26920(6)
C24 C 0.83182(10) 0.55519(16) 0.32817(6)
H21 H 0.8523 0.6615 0.3475
C25 C 0.85592(10) 0.40112(17) 0.35886(6)
H22 H 0.8917 0.4034 0.3993
C26 C 0.82815(10) 0.24317(16) 0.33109(6)
C27 C 0.77375(10) 0.24332(16) 0.27245(6)
H23 H 0.7541 0.1369 0.2530
C28 C 0.74762(9) 0.39735(16) 0.24184(6)
H24 H 0.7091 0.3953 0.2021
C29 C 0.85711(12) 0.07687(18) 0.36417(7)
H25 H 0.8248 -0.0197 0.3401
H26 H 0.8379 0.0798 0.4024
H27 H 0.9275 0.0623 0.3715
C30 C 0.97012(11) 0.90970(19) 0.23443(8)
H28 H 0.9574 0.9306 0.1913
H29 H 1.0379 0.8753 0.2493
H30 H 0.9576 1.0153 0.2548
loop_
_geom_bond_atom_site_label_1
_geom_bond_atom_site_label_2
_geom_bond_site_symmetry_1
_geom_bond_site_symmetry_2
O1 N1 1_555 1_555
N1 C1 1_555 1_555
C1 C2 1_555 1_555
C2 C3 1_555 1_555
C3 H1 1_555 1_555
C4 C3 1_555 1_555
H2 C4 1_555 1_555
C5 C4 1_555 1_555
H3 C5 1_555 1_555
C6 C5 1_555 1_555
H4 C6 1_555 1_555
C7 C2 1_555 1_555
H5 C7 1_555 1_555
C8 C1 1_555 1_555
C9 C8 1_555 1_555
H6 C9 1_555 1_555
C10 C9 1_555 1_555
H7 C10 1_555 1_555
C11 C10 1_555 1_555
C12 C11 1_555 1_555
H8 C12 1_555 1_555
C13 C8 1_555 1_555
H9 C13 1_555 1_555
C14 C11 1_555 1_555
H10 C14 1_555 1_555
H11 C14 1_555 1_555
H12 C14 1_555 1_555
C15 O1 1_555 1_555
H13 C15 1_555 1_555
H14 C15 1_555 1_555
H15 C15 1_555 1_555
O2 N2 1_555 1_555
N2 C16 1_555 1_555
C16 C17 1_555 1_555
C17 C18 1_555 1_555
C18 H16 1_555 1_555
C19 C18 1_555 1_555
H17 C19 1_555 1_555
C20 C19 1_555 1_555
H18 C20 1_555 1_555
C21 C20 1_555 1_555
H19 C21 1_555 1_555
C22 C17 1_555 1_555
H20 C22 1_555 1_555
C23 C16 1_555 1_555
C24 C23 1_555 1_555
H21 C24 1_555 1_555
C25 C24 1_555 1_555
H22 C25 1_555 1_555
C26 C25 1_555 1_555
C27 C26 1_555 1_555
H23 C27 1_555 1_555
C28 C23 1_555 1_555
H24 C28 1_555 1_555
C29 C26 1_555 1_555
H25 C29 1_555 1_555
H26 C29 1_555 1_555
H27 C29 1_555 1_555
C30 O2 1_555 1_555
H28 C30 1_555 1_555
H29 C30 1_555 1_555
H30 C30 1_555 1_555
C6 C7 1_555 1_555
C12 C13 1_555 1_555
C21 C22 1_555 1_555
C27 C28 1_555 1_555

#END
