
#######################################################################
#
#                 Cambridge Crystallographic Data Centre
#                                CCDC 
#
#######################################################################
#
# If this CIF has been generated from an entry in the Cambridge 
# Structural Database, then it will include bibliographic, chemical, 
# crystal, experimental, refinement or atomic coordinate data resulting 
# from the CCDC's data processing and validation procedures.
#
#######################################################################

data_HIFYEC
_chemical_formula_moiety         'C14 H12 Cl1 N1 O1'
_chemical_name_systematic        
1-(4-Chlorophenyl)-N-methoxy-1-phenylmethanimine
_symmetry_cell_setting           orthorhombic
_symmetry_space_group_name_H-M   'P n a 21'
_symmetry_Int_Tables_number      33
_space_group_name_Hall           'P 2c -2n'
loop_
_symmetry_equiv_pos_site_id
_symmetry_equiv_pos_as_xyz
1 x,y,z
2 -x,-y,1/2+z
3 1/2+x,1/2-y,z
4 1/2-x,1/2+y,1/2+z
_cell_length_a                   16.783(2)
_cell_length_b                   16.484(3)
_cell_length_c                   8.9999(10)
_cell_angle_alpha                90
_cell_angle_beta                 90
_cell_angle_gamma                90
_cell_volume                     2489.83
_exptl_crystal_colour            colorless
_exptl_crystal_description       needle
_cell_formula_units_Z            8
loop_
_atom_site_label
_atom_site_type_symbol
_atom_site_fract_x
_atom_site_fract_y
_atom_site_fract_z
Cl1 Cl 0.627764(12) 0.376105(16) 0.00944(3)
O1 O 0.27298(4) 0.32888(5) 0.22437(10)
N1 N 0.27664(5) 0.33876(6) 0.37908(11)
C1 C 0.34813(6) 0.35557(6) 0.42277(11)
C2 C 0.35837(6) 0.36940(6) 0.58370(12)
C3 C 0.29704(6) 0.40123(7) 0.67070(12)
H1 H 0.2484 0.4174 0.6254
C4 C 0.30673(7) 0.40942(7) 0.82333(13)
H2 H 0.2647 0.4310 0.8820
C5 C 0.37809(7) 0.38596(7) 0.89078(13)
H3 H 0.3845 0.3909 0.9953
C6 C 0.43963(6) 0.35534(7) 0.80423(12)
H4 H 0.4884 0.3398 0.8497
C7 C 0.43025(5) 0.34732(6) 0.65133(12)
H5 H 0.4728 0.3268 0.5927
C8 C 0.41887(5) 0.35921(6) 0.32269(11)
C9 C 0.46027(6) 0.43239(6) 0.30659(12)
H6 H 0.4440 0.4788 0.3612
C10 C 0.52526(6) 0.43746(6) 0.21086(12)
H7 H 0.5529 0.4873 0.1981
C11 C 0.54889(5) 0.36844(6) 0.13451(12)
C12 C 0.51014(5) 0.29452(6) 0.15131(12)
H8 H 0.5280 0.2478 0.0994
C13 C 0.44446(5) 0.29043(6) 0.24606(11)
H9 H 0.4170 0.2405 0.2585
C14 C 0.19391(7) 0.30474(9) 0.18694(16)
H10 H 0.1562 0.3463 0.2205
H11 H 0.1816 0.2530 0.2356
H12 H 0.1896 0.2983 0.0790
Cl2 Cl 0.371203(14) 0.597512(18) 0.03255(3)
O2 O 0.01073(4) 0.64478(6) 0.22868(10)
N2 N 0.01330(5) 0.63183(6) 0.38279(11)
C15 C 0.08347(6) 0.61146(6) 0.42776(12)
C16 C 0.09122(6) 0.59479(6) 0.58852(12)
C17 C 0.02457(6) 0.57520(7) 0.67532(13)
H13 H -0.0259 0.5681 0.6295
C18 C 0.03209(7) 0.56609(7) 0.82807(14)
H14 H -0.0135 0.5538 0.8863
C19 C 0.10618(7) 0.57492(8) 0.89654(13)
H15 H 0.1110 0.5694 1.0012
C20 C 0.17236(7) 0.59173(8) 0.81102(14)
H16 H 0.2231 0.5968 0.8570
C21 C 0.16542(6) 0.60138(7) 0.65763(13)
H17 H 0.2115 0.6125 0.5998
C22 C 0.15511(6) 0.60728(6) 0.32974(11)
C23 C 0.18321(6) 0.67737(7) 0.26057(13)
H18 H 0.1564 0.7274 0.2760
C24 C 0.24999(6) 0.67494(7) 0.16945(13)
H19 H 0.2690 0.7228 0.1226
C25 C 0.28832(5) 0.60126(7) 0.14824(12)
C26 C 0.26186(6) 0.53051(6) 0.21572(12)
H20 H 0.2887 0.4805 0.1993
C27 C 0.19526(6) 0.53408(6) 0.30810(12)
H21 H 0.1771 0.4864 0.3566
C28 C -0.06975(7) 0.66151(10) 0.18874(17)
H22 H -0.0894 0.7074 0.2474
H23 H -0.1027 0.6136 0.2085
H24 H -0.0725 0.6750 0.0828
loop_
_geom_bond_atom_site_label_1
_geom_bond_atom_site_label_2
_geom_bond_site_symmetry_1
_geom_bond_site_symmetry_2
Cl1 C11 1_555 1_555
O1 N1 1_555 1_555
N1 C1 1_555 1_555
C1 C2 1_555 1_555
C2 C3 1_555 1_555
C3 H1 1_555 1_555
C4 C3 1_555 1_555
H2 C4 1_555 1_555
C5 C4 1_555 1_555
H3 C5 1_555 1_555
C6 C5 1_555 1_555
H4 C6 1_555 1_555
C7 C2 1_555 1_555
H5 C7 1_555 1_555
C8 C1 1_555 1_555
C9 C8 1_555 1_555
H6 C9 1_555 1_555
C10 C9 1_555 1_555
H7 C10 1_555 1_555
C11 C10 1_555 1_555
C12 C11 1_555 1_555
H8 C12 1_555 1_555
C13 C8 1_555 1_555
H9 C13 1_555 1_555
C14 O1 1_555 1_555
H10 C14 1_555 1_555
H11 C14 1_555 1_555
H12 C14 1_555 1_555
Cl2 C25 1_555 1_555
O2 N2 1_555 1_555
N2 C15 1_555 1_555
C15 C16 1_555 1_555
C16 C17 1_555 1_555
C17 H13 1_555 1_555
C18 C17 1_555 1_555
H14 C18 1_555 1_555
C19 C18 1_555 1_555
H15 C19 1_555 1_555
C20 C19 1_555 1_555
H16 C20 1_555 1_555
C21 C16 1_555 1_555
H17 C21 1_555 1_555
C22 C15 1_555 1_555
C23 C22 1_555 1_555
H18 C23 1_555 1_555
C24 C23 1_555 1_555
H19 C24 1_555 1_555
C25 C24 1_555 1_555
C26 C25 1_555 1_555
H20 C26 1_555 1_555
C27 C22 1_555 1_555
H21 C27 1_555 1_555
C28 O2 1_555 1_555
H22 C28 1_555 1_555
H23 C28 1_555 1_555
H24 C28 1_555 1_555
C6 C7 1_555 1_555
C12 C13 1_555 1_555
C20 C21 1_555 1_555
C26 C27 1_555 1_555

#END
