
#######################################################################
#
#                 Cambridge Crystallographic Data Centre
#                                CCDC 
#
#######################################################################
#
# If this CIF has been generated from an entry in the Cambridge 
# Structural Database, then it will include bibliographic, chemical, 
# crystal, experimental, refinement or atomic coordinate data resulting 
# from the CCDC's data processing and validation procedures.
#
#######################################################################

data_HIFYOM
_chemical_name_common            '(E)-3-Nitrobenzophenone O-methyl oxime'
_chemical_formula_moiety         'C14 H12 N2 O3'
_chemical_name_systematic        
(E)-N-Methoxy-1-(3-nitrophenyl)-1-phenylmethanimine
_symmetry_cell_setting           monoclinic
_symmetry_space_group_name_H-M   'P 21/c'
_symmetry_Int_Tables_number      14
_space_group_name_Hall           '-P 2ybc'
loop_
_symmetry_equiv_pos_site_id
_symmetry_equiv_pos_as_xyz
1 x,y,z
2 -x,1/2+y,1/2-z
3 -x,-y,-z
4 x,1/2-y,1/2+z
_cell_length_a                   8.8582(16)
_cell_length_b                   8.4797(15)
_cell_length_c                   32.907(6)
_cell_angle_alpha                90
_cell_angle_beta                 90.782(3)
_cell_angle_gamma                90
_cell_volume                     2471.58
_exptl_crystal_colour            colorless
_exptl_crystal_description       plate
_cell_formula_units_Z            8
loop_
_atom_site_label
_atom_site_type_symbol
_atom_site_fract_x
_atom_site_fract_y
_atom_site_fract_z
O1 O 0.5246(2) 0.21123(19) 0.39566(5)
O2 O 0.0946(2) -0.2134(2) 0.56375(6)
O3 O 0.2429(2) -0.2693(2) 0.51410(7)
N1 N 0.4459(2) 0.1467(2) 0.42866(6)
N2 N 0.1729(3) -0.1746(3) 0.53496(7)
C1 C 0.3637(3) 0.2520(3) 0.44587(8)
C2 C 0.2730(3) 0.1980(3) 0.48111(7)
C3 C 0.2676(3) 0.0384(3) 0.49205(7)
H1 H 0.3225 -0.0382 0.4772
C4 C 0.1812(3) -0.0057(3) 0.52467(8)
C5 C 0.1011(3) 0.1004(3) 0.54745(8)
H2 H 0.0437 0.0667 0.5700
C6 C 0.1069(3) 0.2578(3) 0.53651(8)
H3 H 0.0522 0.3336 0.5517
C7 C 0.1915(3) 0.3063(3) 0.50364(8)
H4 H 0.1937 0.4147 0.4965
C8 C 0.3549(3) 0.4201(3) 0.43276(7)
C9 C 0.4717(3) 0.5242(3) 0.44290(8)
H5 H 0.5570 0.4884 0.4581
C10 C 0.4622(3) 0.6797(3) 0.43064(8)
H6 H 0.5410 0.7511 0.4377
C11 C 0.3394(3) 0.7320(3) 0.40828(8)
H7 H 0.3341 0.8392 0.4000
C12 C 0.2240(3) 0.6299(3) 0.39788(8)
H8 H 0.1402 0.6659 0.3821
C13 C 0.2314(3) 0.4741(3) 0.41058(8)
H9 H 0.1511 0.4039 0.4040
C14 C 0.6053(3) 0.0873(3) 0.37598(8)
H10 H 0.6807 0.0433 0.3949
H11 H 0.6559 0.1295 0.3520
H12 H 0.5344 0.0043 0.3676
O4 O -0.0286(2) 0.44844(19) 0.15193(6)
O5 O 0.4508(3) 0.8221(2) 0.31764(6)
O6 O 0.2948(3) 0.8857(2) 0.26931(7)
N3 N 0.0619(2) 0.4963(2) 0.18507(6)
N4 N 0.3663(3) 0.7890(3) 0.28910(8)
C15 C 0.1452(3) 0.3832(3) 0.19876(8)
C16 C 0.2438(3) 0.4254(3) 0.23398(7)
C17 C 0.2671(3) 0.5836(3) 0.24401(8)
H13 H 0.2269 0.6650 0.2272
C18 C 0.3494(3) 0.6198(3) 0.27857(8)
C19 C 0.4144(3) 0.5082(3) 0.30370(8)
H14 H 0.4713 0.5373 0.3272
C20 C 0.3931(3) 0.3517(3) 0.29313(9)
H15 H 0.4361 0.2712 0.3097
C21 C 0.3101(3) 0.3108(3) 0.25884(8)
H16 H 0.2981 0.2026 0.2521
C22 C 0.1419(3) 0.2183(3) 0.18284(7)
C23 C 0.2140(3) 0.1781(3) 0.14709(8)
H17 H 0.2673 0.2564 0.1324
C24 C 0.2089(3) 0.0251(3) 0.13276(8)
H18 H 0.2588 -0.0015 0.1083
C25 C 0.1316(3) -0.0890(3) 0.15376(8)
H19 H 0.1285 -0.1942 0.1439
C26 C 0.0590(3) -0.0506(3) 0.18906(9)
H20 H 0.0045 -0.1290 0.2034
C27 C 0.0652(3) 0.1026(3) 0.20385(9)
H21 H 0.0166 0.1281 0.2285
C28 C -0.1395(3) 0.5685(3) 0.14419(9)
H22 H -0.2205 0.5598 0.1641
H23 H -0.1817 0.5553 0.1167
H24 H -0.0921 0.6726 0.1465
loop_
_geom_bond_atom_site_label_1
_geom_bond_atom_site_label_2
_geom_bond_site_symmetry_1
_geom_bond_site_symmetry_2
O1 N1 1_555 1_555
O2 N2 1_555 1_555
O3 N2 1_555 1_555
N1 C1 1_555 1_555
N2 C4 1_555 1_555
C1 C2 1_555 1_555
C2 C3 1_555 1_555
C3 H1 1_555 1_555
C4 C3 1_555 1_555
C5 C4 1_555 1_555
H2 C5 1_555 1_555
C6 C5 1_555 1_555
H3 C6 1_555 1_555
C7 C2 1_555 1_555
H4 C7 1_555 1_555
C8 C1 1_555 1_555
C9 C8 1_555 1_555
H5 C9 1_555 1_555
C10 C9 1_555 1_555
H6 C10 1_555 1_555
C11 C10 1_555 1_555
H7 C11 1_555 1_555
C12 C11 1_555 1_555
H8 C12 1_555 1_555
C13 C8 1_555 1_555
H9 C13 1_555 1_555
C14 O1 1_555 1_555
H10 C14 1_555 1_555
H11 C14 1_555 1_555
H12 C14 1_555 1_555
O4 N3 1_555 1_555
O5 N4 1_555 1_555
O6 N4 1_555 1_555
N3 C15 1_555 1_555
N4 C18 1_555 1_555
C15 C16 1_555 1_555
C16 C17 1_555 1_555
C17 H13 1_555 1_555
C18 C17 1_555 1_555
C19 C18 1_555 1_555
H14 C19 1_555 1_555
C20 C19 1_555 1_555
H15 C20 1_555 1_555
C21 C16 1_555 1_555
H16 C21 1_555 1_555
C22 C15 1_555 1_555
C23 C22 1_555 1_555
H17 C23 1_555 1_555
C24 C23 1_555 1_555
H18 C24 1_555 1_555
C25 C24 1_555 1_555
H19 C25 1_555 1_555
C26 C25 1_555 1_555
H20 C26 1_555 1_555
C27 C22 1_555 1_555
H21 C27 1_555 1_555
C28 O4 1_555 1_555
H22 C28 1_555 1_555
H23 C28 1_555 1_555
H24 C28 1_555 1_555
C6 C7 1_555 1_555
C12 C13 1_555 1_555
C20 C21 1_555 1_555
C26 C27 1_555 1_555

#END
