
#######################################################################
#
#                 Cambridge Crystallographic Data Centre
#                                CCDC 
#
#######################################################################
#
# If this CIF has been generated from an entry in the Cambridge 
# Structural Database, then it will include bibliographic, chemical, 
# crystal, experimental, refinement or atomic coordinate data resulting 
# from the CCDC's data processing and validation procedures.
#
#######################################################################

data_HIFZAX
_chemical_formula_moiety         'C42 H41 N1 O1'
_chemical_name_systematic        
N,N,-Dimethyl-(2-((2,3-di(p-tolyl)-5-methyl-1-indenylidene)-(p-tolyl)methyl)-5-methoxyphenylmethyl)amine
_symmetry_cell_setting           triclinic
_symmetry_space_group_name_H-M   'P -1'
_symmetry_Int_Tables_number      2
_space_group_name_Hall           '-P 1'
loop_
_symmetry_equiv_pos_site_id
_symmetry_equiv_pos_as_xyz
1 x,y,z
2 -x,-y,-z
_cell_length_a                   12.3228(13)
_cell_length_b                   13.0782(6)
_cell_length_c                   11.6694(12)
_cell_angle_alpha                98.505(6)
_cell_angle_beta                 105.878(8)
_cell_angle_gamma                106.988(6)
_cell_volume                     1676.06
_exptl_crystal_colour            orange
_cell_formula_units_Z            2
loop_
_atom_site_label
_atom_site_type_symbol
_atom_site_fract_x
_atom_site_fract_y
_atom_site_fract_z
O1 O -0.0414(2) -0.0419(2) 0.3312(3)
N1 N 0.2205(3) -0.1122(2) 0.0815(3)
C1 C 0.3758(3) 0.3272(2) 0.2352(3)
C2 C 0.4756(3) 0.4324(2) 0.2563(3)
C3 C 0.4330(3) 0.4959(2) 0.1860(3)
C4 C 0.3055(3) 0.4363(3) 0.1140(3)
C5 C 0.2274(3) 0.4661(3) 0.0269(3)
H1 H 0.2547(3) 0.5322(3) 0.0054(3)
C6 C 0.1083(3) 0.3970(3) -0.0284(3)
C7 C 0.0705(3) 0.3013(3) 0.0087(4)
H2 H -0.0100(3) 0.2559(3) -0.0262(4)
C8 C 0.1478(3) 0.2697(3) 0.0963(3)
H3 H 0.1195(3) 0.2042(3) 0.1188(3)
C9 C 0.2681(3) 0.3381(3) 0.1495(3)
C10 C 0.3793(3) 0.2353(2) 0.2763(3)
C11 C 0.2655(3) 0.1559(3) 0.2815(3)
C12 C 0.2087(3) 0.0477(3) 0.2103(3)
C13 C 0.1047(3) -0.0186(3) 0.2252(4)
H4 H 0.0656(3) -0.0903(3) 0.1763(4)
C14 C 0.0587(3) 0.0196(3) 0.3104(3)
C15 C 0.1155(3) 0.1262(3) 0.3820(4)
H5 H 0.0857(3) 0.1527(3) 0.4406(4)
C16 C 0.2168(3) 0.1933(3) 0.3663(3)
H6 H 0.2538(3) 0.2656(3) 0.4138(3)
C17 C 0.4902(3) 0.2116(2) 0.3262(3)
C18 C 0.5035(3) 0.1591(3) 0.4217(3)
H7 H 0.4399(3) 0.1351(3) 0.4510(3)
C19 C 0.6100(4) 0.1421(3) 0.4738(4)
H8 H 0.6170(4) 0.1077(3) 0.5384(4)
C20 C 0.7054(4) 0.1748(3) 0.4322(4)
C21 C 0.6912(3) 0.2229(3) 0.3339(3)
H9 H 0.7541(3) 0.2442(3) 0.3030(3)
C22 C 0.5850(3) 0.2398(3) 0.2807(3)
H10 H 0.5769(3) 0.2707(3) 0.2134(3)
C23 C 0.5969(3) 0.4708(2) 0.3502(3)
C24 C 0.6127(3) 0.4577(2) 0.4689(3)
H11 H 0.5460(3) 0.4226(2) 0.4895(3)
C25 C 0.7260(3) 0.4959(3) 0.5570(3)
H12 H 0.7339(3) 0.4862(3) 0.6359(3)
C26 C 0.8275(3) 0.5483(3) 0.5304(3)
C27 C 0.8119(3) 0.5621(3) 0.4125(3)
H13 H 0.8788(3) 0.5979(3) 0.3925(3)
C28 C 0.6989(3) 0.5238(3) 0.3238(3)
H14 H 0.6911(3) 0.5337(3) 0.2450(3)
C29 C 0.4936(3) 0.6110(3) 0.1853(3)
C30 C 0.5042(3) 0.6395(3) 0.0781(3)
H15 H 0.4756(3) 0.5843(3) 0.0058(3)
C31 C 0.5557(4) 0.7471(3) 0.0757(3)
H16 H 0.5639(4) 0.7630(3) 0.0028(3)
C32 C 0.5953(4) 0.8313(3) 0.1788(4)
C33 C 0.5873(4) 0.8036(3) 0.2868(4)
H17 H 0.6161(4) 0.8590(3) 0.3589(4)
C34 C 0.5375(3) 0.6957(3) 0.2894(3)
H18 H 0.5334(3) 0.6796(3) 0.3634(3)
C35 C 0.2501(4) 0.0025(3) 0.1093(4)
H19 H 0.2148(4) 0.0233(3) 0.0353(4)
H20 H 0.3369(4) 0.0369(3) 0.1337(4)
C36 C 0.2393(6) -0.1609(4) -0.0239(5)
H21 H 0.2158(6) -0.2393(4) -0.0334(5)
H22 H 0.3229(6) -0.1310(4) -0.0152(5)
H23 H 0.1918(6) -0.1457(4) -0.0951(5)
C37 C 0.3025(6) -0.1372(6) 0.1875(6)
H24 H 0.2854(6) -0.2153(6) 0.1725(6)
H25 H 0.2893(6) -0.1114(6) 0.2622(6)
H26 H 0.3849(6) -0.1005(6) 0.1952(6)
C38 C -0.0993(4) -0.1535(4) 0.2632(4)
H27 H -0.1678(4) -0.1871(4) 0.2863(4)
H28 H -0.0440(4) -0.1924(4) 0.2803(4)
H29 H -0.1253(4) -0.1566(4) 0.1769(4)
C39 C 0.0236(4) 0.4259(4) -0.1286(4)
H30 H 0.0657(4) 0.4951(4) -0.1417(4)
H31 H -0.0432(4) 0.4317(4) -0.1043(4)
H32 H -0.0055(4) 0.3692(4) -0.2034(4)
C40 C 0.6478(5) 0.9489(3) 0.1752(5)
H33 H 0.6704(5) 0.9962(3) 0.2554(5)
H34 H 0.5891(5) 0.9674(3) 0.1174(5)
H35 H 0.7176(5) 0.9585(3) 0.1505(5)
C41 C 0.9509(4) 0.5919(4) 0.6277(4)
H36 H 1.0101(4) 0.6255(4) 0.5927(4)
H37 H 0.9684(4) 0.5322(4) 0.6581(4)
H38 H 0.9524(4) 0.6458(4) 0.6942(4)
C42 C 0.8223(4) 0.1585(5) 0.4927(5)
H39 H 0.8788(4) 0.1859(5) 0.4521(5)
H40 H 0.8076(4) 0.0813(5) 0.4866(5)
H41 H 0.8548(4) 0.1979(5) 0.5777(5)
loop_
_geom_bond_atom_site_label_1
_geom_bond_atom_site_label_2
_geom_bond_site_symmetry_1
_geom_bond_site_symmetry_2
O1 C14 1_555 1_555
N1 C35 1_555 1_555
C1 C2 1_555 1_555
C2 C3 1_555 1_555
C3 C4 1_555 1_555
C4 C5 1_555 1_555
C5 H1 1_555 1_555
C6 C5 1_555 1_555
C7 C6 1_555 1_555
H2 C7 1_555 1_555
C8 C7 1_555 1_555
H3 C8 1_555 1_555
C9 C1 1_555 1_555
C10 C1 1_555 1_555
C11 C10 1_555 1_555
C12 C11 1_555 1_555
C13 C12 1_555 1_555
H4 C13 1_555 1_555
C14 C13 1_555 1_555
C15 C14 1_555 1_555
H5 C15 1_555 1_555
C16 C11 1_555 1_555
H6 C16 1_555 1_555
C17 C10 1_555 1_555
C18 C17 1_555 1_555
H7 C18 1_555 1_555
C19 C18 1_555 1_555
H8 C19 1_555 1_555
C20 C19 1_555 1_555
C21 C20 1_555 1_555
H9 C21 1_555 1_555
C22 C17 1_555 1_555
H10 C22 1_555 1_555
C23 C2 1_555 1_555
C24 C23 1_555 1_555
H11 C24 1_555 1_555
C25 C24 1_555 1_555
H12 C25 1_555 1_555
C26 C25 1_555 1_555
C27 C26 1_555 1_555
H13 C27 1_555 1_555
C28 C23 1_555 1_555
H14 C28 1_555 1_555
C29 C3 1_555 1_555
C30 C29 1_555 1_555
H15 C30 1_555 1_555
C31 C30 1_555 1_555
H16 C31 1_555 1_555
C32 C31 1_555 1_555
C33 C32 1_555 1_555
H17 C33 1_555 1_555
C34 C29 1_555 1_555
H18 C34 1_555 1_555
C35 C12 1_555 1_555
H19 C35 1_555 1_555
H20 C35 1_555 1_555
C36 N1 1_555 1_555
H21 C36 1_555 1_555
H22 C36 1_555 1_555
H23 C36 1_555 1_555
C37 N1 1_555 1_555
H24 C37 1_555 1_555
H25 C37 1_555 1_555
H26 C37 1_555 1_555
C38 O1 1_555 1_555
H27 C38 1_555 1_555
H28 C38 1_555 1_555
H29 C38 1_555 1_555
C39 C6 1_555 1_555
H30 C39 1_555 1_555
H31 C39 1_555 1_555
H32 C39 1_555 1_555
C40 C32 1_555 1_555
H33 C40 1_555 1_555
H34 C40 1_555 1_555
H35 C40 1_555 1_555
C41 C26 1_555 1_555
H36 C41 1_555 1_555
H37 C41 1_555 1_555
H38 C41 1_555 1_555
C42 C20 1_555 1_555
H39 C42 1_555 1_555
H40 C42 1_555 1_555
H41 C42 1_555 1_555
C4 C9 1_555 1_555
C8 C9 1_555 1_555
C15 C16 1_555 1_555
C21 C22 1_555 1_555
C27 C28 1_555 1_555
C33 C34 1_555 1_555

#END
