
#######################################################################
#
#                 Cambridge Crystallographic Data Centre
#                                CCDC 
#
#######################################################################
#
# If this CIF has been generated from an entry in the Cambridge 
# Structural Database, then it will include bibliographic, chemical, 
# crystal, experimental, refinement or atomic coordinate data resulting 
# from the CCDC's data processing and validation procedures.
#
#######################################################################

data_HIGGEL
_chemical_formula_moiety         'C28 H24 I1 N1 O6 S1'
_chemical_name_systematic        
'Dimethyl 5-iodo-1-((4-methylphenyl)sulfonyl)-4,6-diphenyl-1,6-dihydropyridine-2,3-dicarboxylate'
_symmetry_cell_setting           triclinic
_symmetry_space_group_name_H-M   'P 1'
_symmetry_Int_Tables_number      1
_space_group_name_Hall           'P 1'
loop_
_symmetry_equiv_pos_site_id
_symmetry_equiv_pos_as_xyz
1 x,y,z
_cell_length_a                   9.6086(4)
_cell_length_b                   11.3986(5)
_cell_length_c                   14.7124(6)
_cell_angle_alpha                89.194(3)
_cell_angle_beta                 83.704(3)
_cell_angle_gamma                73.888(3)
_cell_volume                     1538.51
_exptl_crystal_colour            colorless
_exptl_crystal_description       block
_cell_formula_units_Z            2
loop_
_atom_site_label
_atom_site_type_symbol
_atom_site_fract_x
_atom_site_fract_y
_atom_site_fract_z
I1 I 0.18497(7) 0.96563(6) -0.09142(5)
S1 S 0.4964(6) 0.5632(5) -0.0071(4)
O1 O 0.4240(19) 0.5159(15) -0.0710(10)
O2 O 0.5925(16) 0.4871(14) 0.0524(11)
O3 O 0.495(2) 0.9112(18) 0.2565(11)
O4 O 0.2879(16) 0.8604(14) 0.3093(9)
O5 O 0.390(2) 0.5141(17) 0.2282(12)
O6 O 0.5272(18) 0.6287(17) 0.2722(11)
N1 N 0.3603(16) 0.6516(14) 0.0606(10)
C1 C 0.312(2) 1.2356(16) 0.1008(13)
H1 H 0.2552 1.2855 0.0575
C2 C 0.461(3) 1.220(2) 0.0744(16)
H2 H 0.4909 1.2939 0.0723
C3 C 0.560(2) 1.1213(17) 0.0555(13)
H3 H 0.6611 1.1159 0.0412
C4 C 0.495(3) 1.030(2) 0.0581(12)
H4 H 0.5651 0.9528 0.0423
C5 C 0.354(2) 1.0220(19) 0.0824(10)
C6 C 0.260(3) 1.117(2) 0.1071(16)
H5 H 0.1641 1.1076 0.1229
C7 C 0.325(2) 0.8993(19) 0.0878(13)
C8 C 0.3797(19) 0.8165(17) 0.1547(13)
C9 C 0.394(2) 0.695(2) 0.1431(14)
C10 C 0.239(2) 0.7315(17) 0.0234(13)
H6 H 0.2393 0.7052 -0.0383
C11 C 0.260(2) 0.8596(19) 0.0201(13)
C12 C 0.098(2) 0.723(2) 0.0797(15)
C13 C -0.011(2) 0.837(3) 0.1128(15)
H7 H 0.0158 0.9116 0.1089
C14 C -0.148(3) 0.834(3) 0.1692(18)
H8 H -0.1577 0.8722 0.2281
C15 C -0.144(3) 0.696(3) 0.1824(18)
H9 H -0.2273 0.6819 0.2177
C16 C -0.049(3) 0.599(3) 0.1500(18)
H10 H -0.0658 0.5206 0.1591
C17 C 0.077(3) 0.606(2) 0.0961(19)
H11 H 0.1579 0.5607 0.1267
C18 C 0.592(2) 0.6579(19) -0.0623(15)
C19 C 0.536(2) 0.713(2) -0.1398(14)
H12 H 0.4363 0.7582 -0.1230
C20 C 0.623(3) 0.793(2) -0.1834(16)
H13 H 0.5921 0.8312 -0.2391
C21 C 0.734(3) 0.823(3) -0.150(2)
C22 C 0.772(3) 0.754(3) -0.085(2)
H14 H 0.8578 0.7675 -0.0642
C23 C 0.713(2) 0.674(2) -0.0392(16)
H15 H 0.7592 0.6278 0.0096
C24 C 0.798(3) 0.907(2) -0.201(2)
H16 H 0.8782 0.9201 -0.1728
H17 H 0.8309 0.8784 -0.2628
H18 H 0.7227 0.9830 -0.2013
C25 C 0.389(2) 0.8672(19) 0.2452(14)
C26 C 0.277(2) 0.9185(17) 0.3975(10)
H19 H 0.1965 0.9070 0.4375
H20 H 0.3665 0.8806 0.4230
H21 H 0.2672 1.0043 0.3907
C27 C 0.4363(17) 0.6045(15) 0.2143(10)
C28 C 0.557(4) 0.556(3) 0.3599(18)
H22 H 0.6273 0.5815 0.3903
H23 H 0.4692 0.5661 0.4008
H24 H 0.5953 0.4718 0.3415
I2 I 0.43884(7) 0.20484(6) 0.82203(5)
S2 S 0.1263(6) 0.6078(5) 0.7368(4)
O7 O 0.140(2) 0.258(2) 0.4697(12)
O8 O 0.341(2) 0.306(2) 0.4228(12)
O9 O 0.098(2) 0.5430(16) 0.4612(11)
O10 O 0.2413(19) 0.6566(15) 0.5040(11)
O11 O 0.192(2) 0.6657(16) 0.8007(12)
O12 O 0.033(2) 0.6815(16) 0.6805(12)
N2 N 0.2616(19) 0.5208(14) 0.6636(11)
C29 C 0.791(2) 0.446(3) 0.5478(16)
H25 H 0.8810 0.4507 0.5148
C30 C 0.682(4) 0.554(3) 0.581(2)
H26 H 0.6955 0.6328 0.5665
C31 C 0.555(2) 0.541(2) 0.6301(13)
H27 H 0.4872 0.6143 0.6553
C32 C 0.528(2) 0.4344(18) 0.6464(12)
C33 C 0.628(3) 0.341(3) 0.6094(19)
H28 H 0.5844 0.2933 0.5739
C34 C 0.751(2) 0.356(3) 0.5636(18)
H29 H 0.8233 0.2858 0.5361
C35 C 0.390(2) 0.4308(18) 0.7032(13)
H30 H 0.3946 0.4582 0.7639
C36 C 0.363(2) 0.3101(16) 0.7095(12)
C37 C 0.292(2) 0.2737(15) 0.6520(12)
C38 C 0.252(2) 0.3583(16) 0.5723(11)
C39 C 0.224(2) 0.4779(17) 0.5834(12)
C40 C 0.194(3) 0.575(2) 0.5108(14)
C41 C 0.059(3) 0.620(3) 0.3868(16)
H31 H -0.0026 0.5869 0.3531
H32 H 0.0081 0.7022 0.4057
H33 H 0.1467 0.6185 0.3488
C42 C 0.302(3) 0.284(2) 0.3259(15)
H34 H 0.3819 0.2878 0.2816
H35 H 0.2862 0.2048 0.3232
H36 H 0.2157 0.3452 0.3128
C43 C 0.223(2) 0.303(2) 0.4835(14)
C44 C 0.257(3) 0.1518(19) 0.6477(15)
C45 C 0.383(3) 0.037(2) 0.6253(18)
H37 H 0.4825 0.0370 0.6086
C46 C 0.3726(18) -0.0730(18) 0.6161(12)
H38 H 0.4464 -0.1457 0.5946
C47 C 0.2219(18) -0.0813(14) 0.6421(10)
H39 H 0.1953 -0.1179 0.5907
C48 C 0.115(3) 0.015(2) 0.6646(17)
H40 H 0.0211 0.0011 0.6820
C49 C 0.117(3) 0.149(3) 0.673(2)
H41 H 0.0538 0.2003 0.6333
C50 C 0.039(2) 0.509(2) 0.7985(12)
C51 C -0.078(2) 0.485(2) 0.7585(14)
H42 H -0.1068 0.5218 0.7019
C52 C -0.150(3) 0.402(2) 0.8018(16)
H43 H -0.2335 0.3884 0.7785
C53 C -0.095(2) 0.3488(18) 0.8824(18)
C54 C 0.0283(19) 0.365(2) 0.9142(15)
H44 H 0.0641 0.3241 0.9677
C55 C 0.086(2) 0.447(2) 0.8750(13)
H45 H 0.1696 0.4589 0.9000
C56 C -0.173(4) 0.247(3) 0.921(2)
H46 H -0.1360 0.2087 0.9754
H47 H -0.2729 0.2933 0.9354
H48 H -0.1662 0.1863 0.8754
loop_
_geom_bond_atom_site_label_1
_geom_bond_atom_site_label_2
_geom_bond_site_symmetry_1
_geom_bond_site_symmetry_2
I1 C11 1_555 1_555
S1 O1 1_555 1_555
O2 S1 1_555 1_555
O3 C25 1_555 1_555
O4 C25 1_555 1_555
O5 C27 1_555 1_555
O6 C27 1_555 1_555
N1 S1 1_555 1_555
C1 H1 1_555 1_555
C2 C1 1_555 1_555
H2 C2 1_555 1_555
C3 C2 1_555 1_555
H3 C3 1_555 1_555
C4 C3 1_555 1_555
H4 C4 1_555 1_555
C5 C4 1_555 1_555
C6 C1 1_555 1_555
H5 C6 1_555 1_555
C7 C5 1_555 1_555
C8 C7 1_555 1_555
C9 N1 1_555 1_555
C10 N1 1_555 1_555
H6 C10 1_555 1_555
C11 C7 1_555 1_555
C12 C10 1_555 1_555
C13 C12 1_555 1_555
H7 C13 1_555 1_555
C14 C13 1_555 1_555
H8 C14 1_555 1_555
C15 C14 1_555 1_555
H9 C15 1_555 1_555
C16 C15 1_555 1_555
H10 C16 1_555 1_555
C17 C12 1_555 1_555
H11 C17 1_555 1_555
C18 S1 1_555 1_555
C19 C18 1_555 1_555
H12 C19 1_555 1_555
C20 C19 1_555 1_555
H13 C20 1_555 1_555
C21 C20 1_555 1_555
C22 C21 1_555 1_555
H14 C22 1_555 1_555
C23 C18 1_555 1_555
H15 C23 1_555 1_555
C24 C21 1_555 1_555
H16 C24 1_555 1_555
H17 C24 1_555 1_555
H18 C24 1_555 1_555
C25 C8 1_555 1_555
C26 O4 1_555 1_555
H19 C26 1_555 1_555
H20 C26 1_555 1_555
H21 C26 1_555 1_555
C27 C9 1_555 1_555
C28 O6 1_555 1_555
H22 C28 1_555 1_555
H23 C28 1_555 1_555
H24 C28 1_555 1_555
I2 C36 1_555 1_555
S2 O11 1_555 1_555
O7 C43 1_555 1_555
O8 C42 1_555 1_555
O9 C40 1_555 1_555
O10 C40 1_555 1_555
O12 S2 1_555 1_555
N2 S2 1_555 1_555
C29 H25 1_555 1_555
C30 C29 1_555 1_555
H26 C30 1_555 1_555
C31 C30 1_555 1_555
H27 C31 1_555 1_555
C32 C31 1_555 1_555
C33 C32 1_555 1_555
H28 C33 1_555 1_555
C34 C29 1_555 1_555
H29 C34 1_555 1_555
C35 N2 1_555 1_555
H30 C35 1_555 1_555
C36 C35 1_555 1_555
C37 C36 1_555 1_555
C38 C37 1_555 1_555
C39 N2 1_555 1_555
C40 C39 1_555 1_555
C41 O9 1_555 1_555
H31 C41 1_555 1_555
H32 C41 1_555 1_555
H33 C41 1_555 1_555
C42 H34 1_555 1_555
H35 C42 1_555 1_555
H36 C42 1_555 1_555
C43 O8 1_555 1_555
C44 C37 1_555 1_555
C45 C44 1_555 1_555
H37 C45 1_555 1_555
C46 C45 1_555 1_555
H38 C46 1_555 1_555
C47 C46 1_555 1_555
H39 C47 1_555 1_555
C48 C47 1_555 1_555
H40 C48 1_555 1_555
C49 C44 1_555 1_555
H41 C49 1_555 1_555
C50 S2 1_555 1_555
C51 C50 1_555 1_555
H42 C51 1_555 1_555
C52 C51 1_555 1_555
H43 C52 1_555 1_555
C53 C52 1_555 1_555
C54 C53 1_555 1_555
H44 C54 1_555 1_555
C55 C50 1_555 1_555
H45 C55 1_555 1_555
C56 C53 1_555 1_555
H46 C56 1_555 1_555
H47 C56 1_555 1_555
H48 C56 1_555 1_555
C5 C6 1_555 1_555
C8 C9 1_555 1_555
C10 C11 1_555 1_555
C16 C17 1_555 1_555
C22 C23 1_555 1_555
C32 C35 1_555 1_555
C33 C34 1_555 1_555
C38 C39 1_555 1_555
C38 C43 1_555 1_555
C48 C49 1_555 1_555
C54 C55 1_555 1_555

#END
