
#######################################################################
#
#                 Cambridge Crystallographic Data Centre
#                                CCDC 
#
#######################################################################
#
# If this CIF has been generated from an entry in the Cambridge 
# Structural Database, then it will include bibliographic, chemical, 
# crystal, experimental, refinement or atomic coordinate data resulting 
# from the CCDC's data processing and validation procedures.
#
#######################################################################

data_HIGNAP
_chemical_formula_moiety         'C21 H20 N2 O3'
_chemical_name_systematic        
3-[2-methyl-5-phenyl-3-(phenylimino)pent-4-enoyl]-1,3-oxazolidin-2-one
_symmetry_cell_setting           monoclinic
_symmetry_space_group_name_H-M   'P 21/n'
_symmetry_Int_Tables_number      14
_space_group_name_Hall           '-P 2yn'
loop_
_symmetry_equiv_pos_site_id
_symmetry_equiv_pos_as_xyz
1 x,y,z
2 1/2-x,1/2+y,1/2-z
3 -x,-y,-z
4 1/2+x,1/2-y,1/2+z
_cell_length_a                   13.218(3)
_cell_length_b                   8.696(2)
_cell_length_c                   16.546(4)
_cell_angle_alpha                90
_cell_angle_beta                 98.483(4)
_cell_angle_gamma                90
_cell_volume                     1881.05
_cell_formula_units_Z            4
loop_
_atom_site_label
_atom_site_type_symbol
_atom_site_fract_x
_atom_site_fract_y
_atom_site_fract_z
C1 C 0.51823(16) 0.4509(2) 0.23027(13)
C2 C 0.48079(17) 0.5394(3) 0.28836(14)
H1 H 0.5250 0.6035 0.3219
C3 C 0.37887(19) 0.5343(3) 0.29750(17)
H2 H 0.3551 0.5946 0.3371
C4 C 0.3127(2) 0.4414(4) 0.24881(18)
H3 H 0.2439 0.4384 0.2550
C5 C 0.34819(19) 0.3527(3) 0.1909(2)
H4 H 0.3033 0.2891 0.1576
C6 C 0.45037(17) 0.3568(3) 0.18152(17)
H5 H 0.4737 0.2956 0.1420
C7 C 0.62657(15) 0.4620(2) 0.22097(13)
H6 H 0.6663 0.5295 0.2559
C8 C 0.67402(15) 0.3861(2) 0.16799(13)
H7 H 0.6342 0.3191 0.1328
C9 C 0.78180(14) 0.3963(2) 0.15896(13)
C10 C 0.85512(15) 0.4856(2) 0.22035(13)
H8 H 0.8243 0.5854 0.2295
C11 C 0.87700(17) 0.4009(3) 0.30207(14)
H9 H 0.9176 0.3113 0.2959
H10 H 0.8136 0.3704 0.3191
H11 H 0.9135 0.4677 0.3424
C12 C 0.95473(17) 0.5132(3) 0.18652(14)
C13 C 0.8756(2) 0.6971(3) 0.08201(16)
C14 C 1.0166(2) 0.7646(3) 0.02515(18)
H12 H 1.0498 0.8623 0.0394
H13 H 1.0334 0.7318 -0.0273
C15 C 1.05038(18) 0.6462(3) 0.08973(17)
H14 H 1.0740 0.5531 0.0661
H15 H 1.1042 0.6856 0.1307
C16 C 0.75695(14) 0.2454(3) 0.03990(12)
C17 C 0.70236(18) 0.3221(3) -0.02464(17)
H16 H 0.7024 0.4291 -0.0256
C18 C 0.64727(19) 0.2411(4) -0.08824(17)
H17 H 0.6109 0.2940 -0.1321
C19 C 0.64566(19) 0.0838(3) -0.08733(16)
H18 H 0.6078 0.0296 -0.1299
C20 C 0.69959(19) 0.0085(3) -0.02404(16)
H19 H 0.6984 -0.0984 -0.0229
C21 C 0.75648(18) 0.0879(3) 0.03906(14)
H20 H 0.7949 0.0339 0.0815
N1 N 0.82056(12) 0.3260(2) 0.10251(11)
N2 N 0.95613(13) 0.6192(2) 0.12399(12)
O1 O 1.03339(12) 0.4489(2) 0.21310(11)
O2 O 0.78765(13) 0.6981(2) 0.09283(12)
O3 O 0.90790(14) 0.7785(2) 0.02172(12)
loop_
_geom_bond_atom_site_label_1
_geom_bond_atom_site_label_2
_geom_bond_site_symmetry_1
_geom_bond_site_symmetry_2
C1 C2 1_555 1_555
C2 H1 1_555 1_555
C3 C2 1_555 1_555
H2 C3 1_555 1_555
C4 C3 1_555 1_555
H3 C4 1_555 1_555
C5 C4 1_555 1_555
H4 C5 1_555 1_555
C6 C1 1_555 1_555
H5 C6 1_555 1_555
C7 C1 1_555 1_555
H6 C7 1_555 1_555
C8 C7 1_555 1_555
H7 C8 1_555 1_555
C9 C8 1_555 1_555
C10 C9 1_555 1_555
H8 C10 1_555 1_555
C11 C10 1_555 1_555
H9 C11 1_555 1_555
H10 C11 1_555 1_555
H11 C11 1_555 1_555
C12 C10 1_555 1_555
C13 N2 1_555 1_555
C14 H12 1_555 1_555
H13 C14 1_555 1_555
C15 C14 1_555 1_555
H14 C15 1_555 1_555
H15 C15 1_555 1_555
C16 C17 1_555 1_555
C17 H16 1_555 1_555
C18 C17 1_555 1_555
H17 C18 1_555 1_555
C19 C18 1_555 1_555
H18 C19 1_555 1_555
C20 C19 1_555 1_555
H19 C20 1_555 1_555
C21 C16 1_555 1_555
H20 C21 1_555 1_555
N1 C9 1_555 1_555
N2 C12 1_555 1_555
O1 C12 1_555 1_555
O2 C13 1_555 1_555
O3 C13 1_555 1_555
C5 C6 1_555 1_555
C14 O3 1_555 1_555
C15 N2 1_555 1_555
C16 N1 1_555 1_555
C20 C21 1_555 1_555

#END
