
#######################################################################
#
#                 Cambridge Crystallographic Data Centre
#                                CCDC 
#
#######################################################################
#
# If this CIF has been generated from an entry in the Cambridge 
# Structural Database, then it will include bibliographic, chemical, 
# crystal, experimental, refinement or atomic coordinate data resulting 
# from the CCDC's data processing and validation procedures.
#
#######################################################################

data_HIGQEW
_chemical_formula_moiety         'C22 H22 N2 O4'
_chemical_name_systematic        
3-(3-((2-methoxyphenyl)imino)-2-methyl-5-phenylpent-4-enoyl)-1,3-oxazolidin-2-one
_symmetry_cell_setting           monoclinic
_symmetry_space_group_name_H-M   'P 21/n'
_symmetry_Int_Tables_number      14
_space_group_name_Hall           '-P 2yn'
loop_
_symmetry_equiv_pos_site_id
_symmetry_equiv_pos_as_xyz
1 x,y,z
2 1/2-x,1/2+y,1/2-z
3 -x,-y,-z
4 1/2+x,1/2-y,1/2+z
_cell_length_a                   10.559(5)
_cell_length_b                   8.848(4)
_cell_length_c                   20.030(9)
_cell_angle_alpha                90
_cell_angle_beta                 91.424(8)
_cell_angle_gamma                90
_cell_volume                     1870.75
_exptl_crystal_colour            yellow
_exptl_crystal_description       block
_cell_formula_units_Z            4
loop_
_atom_site_label
_atom_site_type_symbol
_atom_site_fract_x
_atom_site_fract_y
_atom_site_fract_z
C1 C 0.7873(2) 0.5005(3) 0.42210(13)
H1 H 0.7295 0.5728 0.4069
C2 C 0.8049(3) 0.4781(4) 0.48917(13)
H2 H 0.7600 0.5359 0.5193
C3 C 0.8883(3) 0.3709(4) 0.51207(14)
H3 H 0.8998 0.3560 0.5578
C4 C 0.9551(3) 0.2853(3) 0.46833(14)
H4 H 1.0112 0.2118 0.4840
C5 C 0.9383(2) 0.3091(3) 0.40085(12)
H5 H 0.9843 0.2514 0.3712
C6 C 0.8549(2) 0.4165(3) 0.37610(11)
C7 C 0.8337(2) 0.4410(3) 0.30491(12)
H6 H 0.7675 0.5051 0.2924
C8 C 0.8994(2) 0.3811(3) 0.25642(11)
H7 H 0.9680 0.3214 0.2696
C9 C 0.8777(2) 0.3972(3) 0.18523(11)
C10 C 1.0628(2) 0.2638(3) 0.16087(10)
C11 C 1.1744(2) 0.3453(3) 0.16235(11)
C12 C 1.2874(2) 0.2731(4) 0.17701(13)
H8 H 1.3626 0.3278 0.1795
C13 C 1.2882(3) 0.1200(4) 0.18792(13)
H9 H 1.3642 0.0713 0.1982
C14 C 1.1788(3) 0.0388(4) 0.18390(13)
H10 H 1.1807 -0.0654 0.1898
C15 C 1.0656(3) 0.1109(3) 0.17110(12)
H11 H 0.9906 0.0557 0.1694
C16 C 1.2739(3) 0.5795(4) 0.13641(15)
H12 H 1.3259 0.5842 0.1763
H13 H 1.2509 0.6799 0.1227
H14 H 1.3200 0.5312 0.1016
C17 C 0.7614(2) 0.4804(3) 0.15881(11)
H15 H 0.7528 0.5752 0.1836
C18 C 0.6411(2) 0.3873(3) 0.16652(13)
H16 H 0.5695 0.4440 0.1500
H17 H 0.6303 0.3641 0.2128
H18 H 0.6479 0.2951 0.1416
C19 C 0.7805(2) 0.5166(3) 0.08599(12)
C20 C 0.9330(2) 0.7223(3) 0.11233(13)
C21 C 0.9998(3) 0.7708(3) 0.00684(13)
H19 H 1.0784 0.7260 -0.0075
H20 H 0.9819 0.8596 -0.0202
C22 C 0.8931(2) 0.6591(3) 0.00064(11)
H21 H 0.8202 0.7025 -0.0228
H22 H 0.9191 0.5682 -0.0224
N1 N 0.86585(17) 0.6281(2) 0.07020(9)
O1 O 1.00853(17) 0.8101(2) 0.07627(9)
N2 N 0.94936(17) 0.3403(2) 0.14173(9)
O2 O 1.16275(16) 0.4953(2) 0.14909(9)
O3 O 0.72613(16) 0.4512(2) 0.04120(8)
O4 O 0.92748(17) 0.7329(2) 0.17154(9)
loop_
_geom_bond_atom_site_label_1
_geom_bond_atom_site_label_2
_geom_bond_site_symmetry_1
_geom_bond_site_symmetry_2
C1 H1 1_555 1_555
C2 C1 1_555 1_555
H2 C2 1_555 1_555
C3 C2 1_555 1_555
H3 C3 1_555 1_555
C4 C3 1_555 1_555
H4 C4 1_555 1_555
C5 C4 1_555 1_555
H5 C5 1_555 1_555
C6 C1 1_555 1_555
C7 C6 1_555 1_555
H6 C7 1_555 1_555
C8 C7 1_555 1_555
H7 C8 1_555 1_555
C9 C8 1_555 1_555
C10 C11 1_555 1_555
C11 C12 1_555 1_555
C12 H8 1_555 1_555
C13 C12 1_555 1_555
H9 C13 1_555 1_555
C14 C13 1_555 1_555
H10 C14 1_555 1_555
C15 C10 1_555 1_555
H11 C15 1_555 1_555
C16 H12 1_555 1_555
H13 C16 1_555 1_555
H14 C16 1_555 1_555
C17 C9 1_555 1_555
H15 C17 1_555 1_555
C18 C17 1_555 1_555
H16 C18 1_555 1_555
H17 C18 1_555 1_555
H18 C18 1_555 1_555
C19 C17 1_555 1_555
C20 N1 1_555 1_555
C21 H19 1_555 1_555
H20 C21 1_555 1_555
C22 C21 1_555 1_555
H21 C22 1_555 1_555
H22 C22 1_555 1_555
N1 C19 1_555 1_555
O1 C20 1_555 1_555
N2 C9 1_555 1_555
O2 C11 1_555 1_555
O3 C19 1_555 1_555
O4 C20 1_555 1_555
C5 C6 1_555 1_555
C10 N2 1_555 1_555
C14 C15 1_555 1_555
C16 O2 1_555 1_555
C21 O1 1_555 1_555
C22 N1 1_555 1_555

#END
