
#######################################################################
#
#                 Cambridge Crystallographic Data Centre
#                                CCDC 
#
#######################################################################
#
# If this CIF has been generated from an entry in the Cambridge 
# Structural Database, then it will include bibliographic, chemical, 
# crystal, experimental, refinement or atomic coordinate data resulting 
# from the CCDC's data processing and validation procedures.
#
#######################################################################

data_HIGQAS
_chemical_formula_moiety         'C26 H24 Br1 N1 O4 S1'
_chemical_name_systematic        
1-benzyl-6-bromo-3-(((3,4-dimethoxyphenyl)sulfanyl)methyl)-3-methylquinoline-2,4(1H,3H)-dione
_symmetry_cell_setting           monoclinic
_symmetry_space_group_name_H-M   'P 21'
_symmetry_Int_Tables_number      4
_space_group_name_Hall           'P 2yb'
loop_
_symmetry_equiv_pos_site_id
_symmetry_equiv_pos_as_xyz
1 x,y,z
2 -x,1/2+y,-z
_cell_length_a                   9.6586(13)
_cell_length_b                   20.340(3)
_cell_length_c                   12.2794(17)
_cell_angle_alpha                90
_cell_angle_beta                 91.295(2)
_cell_angle_gamma                90
_cell_volume                     2411.74
_exptl_crystal_description       block
_cell_formula_units_Z            4
loop_
_atom_site_label
_atom_site_type_symbol
_atom_site_fract_x
_atom_site_fract_y
_atom_site_fract_z
Br1 Br -0.05438(10) 0.58447(5) 0.81330(6)
S1 S -0.03287(17) 0.45841(8) 0.20738(14)
O1 O -0.0357(4) 0.5967(2) 0.3723(3)
O2 O 0.3253(4) 0.4575(2) 0.2672(4)
O3 O 0.2459(5) 0.2488(2) 0.1158(3)
O4 O 0.1800(4) 0.2544(2) -0.0889(3)
N1 N 0.2664(4) 0.4626(2) 0.4438(4)
C1 C 0.0415(7) 0.5460(3) 0.6970(5)
C2 C 0.1338(7) 0.4957(4) 0.7187(5)
H1 H 0.1464 0.4805 0.7896
C3 C 0.2073(7) 0.4681(3) 0.6353(5)
H2 H 0.2694 0.4342 0.6503
C4 C 0.1894(6) 0.4906(3) 0.5283(4)
C5 C 0.0907(5) 0.5399(2) 0.5076(4)
C6 C 0.0181(6) 0.5672(3) 0.5915(4)
H3 H -0.0468 0.6001 0.5771
C7 C 0.3179(6) 0.3428(2) 0.4833(4)
C8 C 0.4171(6) 0.2937(3) 0.4868(4)
H4 H 0.5095 0.3041 0.4757
C9 C 0.3797(9) 0.2289(3) 0.5066(5)
H5 H 0.4467 0.1961 0.5099
C10 C 0.2440(10) 0.2139(3) 0.5213(5)
H6 H 0.2189 0.1706 0.5350
C11 C 0.1433(7) 0.2619(4) 0.5162(5)
H7 H 0.0509 0.2511 0.5263
C12 C 0.1813(6) 0.3268(3) 0.4958(5)
H8 H 0.1138 0.3593 0.4907
C13 C 0.0362(5) 0.4002(3) 0.1154(4)
C14 C 0.1175(6) 0.3484(3) 0.1557(4)
H9 H 0.1390 0.3458 0.2298
C15 C 0.1663(6) 0.3010(3) 0.0846(5)
C16 C 0.1316(6) 0.3042(3) -0.0260(4)
C17 C 0.0531(6) 0.3557(3) -0.0651(5)
H10 H 0.0319 0.3587 -0.1392
C18 C 0.0055(5) 0.4031(3) 0.0059(5)
H11 H -0.0484 0.4375 -0.0211
C19 C 0.0629(6) 0.5608(3) 0.3962(4)
C20 C 0.1635(5) 0.5412(2) 0.3083(4)
C21 C 0.2588(6) 0.6015(3) 0.2942(5)
H12 H 0.2034 0.6396 0.2780
H13 H 0.3207 0.5936 0.2355
H14 H 0.3115 0.6088 0.3603
C22 C 0.0855(6) 0.5274(3) 0.2013(5)
H15 H 0.1523 0.5188 0.1452
H16 H 0.0337 0.5663 0.1802
C23 C 0.2570(6) 0.4831(3) 0.3372(5)
C24 C 0.3715(5) 0.4121(3) 0.4683(5)
H17 H 0.4216 0.4249 0.5343
H18 H 0.4371 0.4117 0.4097
C25 C 0.2852(8) 0.2441(4) 0.2272(5)
H19 H 0.3296 0.2841 0.2501
H20 H 0.3482 0.2080 0.2373
H21 H 0.2044 0.2369 0.2697
C26 C 0.1361(7) 0.2520(4) -0.2004(5)
H22 H 0.0368 0.2524 -0.2051
H23 H 0.1702 0.2125 -0.2331
H24 H 0.1718 0.2895 -0.2380
Br2 Br 0.84974(9) 0.25700(4) 1.32326(6)
S2 S 0.79433(18) 0.39213(9) 0.73081(15)
O5 O 0.7982(4) 0.2444(2) 0.8831(3)
O6 O 0.4421(4) 0.3895(2) 0.7787(3)
O7 O 0.4968(5) 0.5852(2) 0.5799(3)
O8 O 0.5846(4) 0.57127(18) 0.3861(3)
N2 N 0.4989(4) 0.3780(2) 0.9562(4)
C27 C 0.7433(6) 0.2947(3) 1.2084(5)
C28 C 0.6458(7) 0.3421(3) 1.2313(5)
H25 H 0.6338 0.3555 1.3029
C29 C 0.5670(7) 0.3691(3) 1.1492(5)
H26 H 0.5014 0.4008 1.1664
C30 C 0.5812(6) 0.3513(2) 1.0416(4)
C31 C 0.6812(5) 0.3029(2) 1.0186(4)
C32 C 0.7638(6) 0.2762(3) 1.1019(4)
H27 H 0.8327 0.2460 1.0858
C33 C 0.4576(7) 0.4993(3) 0.9810(4)
C34 C 0.5983(8) 0.5121(3) 0.9890(5)
H28 H 0.6618 0.4778 0.9936
C35 C 0.6437(10) 0.5776(5) 0.9899(6)
H29 H 0.7379 0.5867 0.9963
C36 C 0.5533(17) 0.6269(5) 0.9817(8)
H30 H 0.5853 0.6701 0.9807
C37 C 0.4149(14) 0.6150(4) 0.9749(7)
H31 H 0.3530 0.6500 0.9693
C38 C 0.3657(9) 0.5509(3) 0.9765(5)
H32 H 0.2709 0.5429 0.9744
C39 C 0.7320(6) 0.4452(3) 0.6270(5)
C40 C 0.6395(7) 0.4960(3) 0.6487(5)
H33 H 0.6093 0.5024 0.7193
C41 C 0.5928(6) 0.5367(3) 0.5664(5)
C42 C 0.6375(6) 0.5281(3) 0.4607(4)
C43 C 0.7294(6) 0.4784(3) 0.4370(5)
H34 H 0.7598 0.4726 0.3663
C44 C 0.7757(6) 0.4374(3) 0.5202(5)
H35 H 0.8374 0.4038 0.5045
C45 C 0.7033(6) 0.2821(3) 0.9067(4)
C46 C 0.6030(5) 0.3048(3) 0.8188(4)
C47 C 0.5063(6) 0.2463(3) 0.7942(5)
H36 H 0.5602 0.2092 0.7720
H37 H 0.4418 0.2579 0.7369
H38 H 0.4566 0.2352 0.8585
C48 C 0.6786(6) 0.3223(3) 0.7140(4)
H39 H 0.6106 0.3321 0.6569
H40 H 0.7316 0.2844 0.6909
C49 C 0.5115(6) 0.3626(3) 0.8485(5)
C50 C 0.3994(6) 0.4307(3) 0.9831(5)
H41 H 0.3643 0.4223 1.0552
H42 H 0.3216 0.4284 0.9319
C51 C 0.4546(8) 0.5991(3) 0.6876(6)
H43 H 0.4080 0.5615 0.7165
H44 H 0.3929 0.6361 0.6864
H45 H 0.5345 0.6091 0.7325
C52 C 0.6298(6) 0.5650(3) 0.2763(5)
H46 H 0.7287 0.5694 0.2749
H47 H 0.5876 0.5987 0.2322
H48 H 0.6035 0.5226 0.2483
loop_
_geom_bond_atom_site_label_1
_geom_bond_atom_site_label_2
_geom_bond_site_symmetry_1
_geom_bond_site_symmetry_2
Br1 C1 1_555 1_555
S1 C13 1_555 1_555
O1 C19 1_555 1_555
O2 C23 1_555 1_555
O3 C15 1_555 1_555
O4 C16 1_555 1_555
N1 C4 1_555 1_555
C1 C2 1_555 1_555
C2 H1 1_555 1_555
C3 C2 1_555 1_555
H2 C3 1_555 1_555
C4 C3 1_555 1_555
C5 C4 1_555 1_555
C6 C1 1_555 1_555
H3 C6 1_555 1_555
C7 C8 1_555 1_555
C8 H4 1_555 1_555
C9 C8 1_555 1_555
H5 C9 1_555 1_555
C10 C9 1_555 1_555
H6 C10 1_555 1_555
C11 C10 1_555 1_555
H7 C11 1_555 1_555
C12 C7 1_555 1_555
H8 C12 1_555 1_555
C13 C14 1_555 1_555
C14 H9 1_555 1_555
C15 C14 1_555 1_555
C16 C15 1_555 1_555
C17 C16 1_555 1_555
H10 C17 1_555 1_555
C18 C13 1_555 1_555
H11 C18 1_555 1_555
C19 C5 1_555 1_555
C20 C19 1_555 1_555
C21 C20 1_555 1_555
H12 C21 1_555 1_555
H13 C21 1_555 1_555
H14 C21 1_555 1_555
C22 S1 1_555 1_555
H15 C22 1_555 1_555
H16 C22 1_555 1_555
C23 N1 1_555 1_555
C24 N1 1_555 1_555
H17 C24 1_555 1_555
H18 C24 1_555 1_555
C25 O3 1_555 1_555
H19 C25 1_555 1_555
H20 C25 1_555 1_555
H21 C25 1_555 1_555
C26 O4 1_555 1_555
H22 C26 1_555 1_555
H23 C26 1_555 1_555
H24 C26 1_555 1_555
Br2 C27 1_555 1_555
S2 C39 1_555 1_555
O5 C45 1_555 1_555
O6 C49 1_555 1_555
O7 C41 1_555 1_555
O8 C42 1_555 1_555
N2 C30 1_555 1_555
C27 C28 1_555 1_555
C28 H25 1_555 1_555
C29 C28 1_555 1_555
H26 C29 1_555 1_555
C30 C29 1_555 1_555
C31 C30 1_555 1_555
C32 C27 1_555 1_555
H27 C32 1_555 1_555
C33 C34 1_555 1_555
C34 H28 1_555 1_555
C35 C34 1_555 1_555
H29 C35 1_555 1_555
C36 C35 1_555 1_555
H30 C36 1_555 1_555
C37 C36 1_555 1_555
H31 C37 1_555 1_555
C38 C33 1_555 1_555
H32 C38 1_555 1_555
C39 C40 1_555 1_555
C40 H33 1_555 1_555
C41 C40 1_555 1_555
C42 C41 1_555 1_555
C43 C42 1_555 1_555
H34 C43 1_555 1_555
C44 C39 1_555 1_555
H35 C44 1_555 1_555
C45 C31 1_555 1_555
C46 C45 1_555 1_555
C47 C46 1_555 1_555
H36 C47 1_555 1_555
H37 C47 1_555 1_555
H38 C47 1_555 1_555
C48 S2 1_555 1_555
H39 C48 1_555 1_555
H40 C48 1_555 1_555
C49 N2 1_555 1_555
C50 N2 1_555 1_555
H41 C50 1_555 1_555
H42 C50 1_555 1_555
C51 O7 1_555 1_555
H43 C51 1_555 1_555
H44 C51 1_555 1_555
H45 C51 1_555 1_555
C52 O8 1_555 1_555
H46 C52 1_555 1_555
H47 C52 1_555 1_555
H48 C52 1_555 1_555
C5 C6 1_555 1_555
C7 C24 1_555 1_555
C11 C12 1_555 1_555
C17 C18 1_555 1_555
C20 C22 1_555 1_555
C20 C23 1_555 1_555
C31 C32 1_555 1_555
C33 C50 1_555 1_555
C37 C38 1_555 1_555
C43 C44 1_555 1_555
C46 C48 1_555 1_555
C46 C49 1_555 1_555

#END
