
#######################################################################
#
#                 Cambridge Crystallographic Data Centre
#                                CCDC 
#
#######################################################################
#
# If this CIF has been generated from an entry in the Cambridge 
# Structural Database, then it will include bibliographic, chemical, 
# crystal, experimental, refinement or atomic coordinate data resulting 
# from the CCDC's data processing and validation procedures.
#
#######################################################################

data_HIGRIZ
_chemical_formula_moiety         
'3(C56 H52 N4),3(C16 H36 N1 1+),3(N3 1-),3.5(C4 H10 O1)'
_chemical_name_systematic        
'tris(Tetrabutylammonium) tris(azide) tris(13,20,35,42-tetra-t-butyl-2,9,24,31-tetraazaundecacyclo[38.4.0.0^3,8^.0^4,44^.0^7,11^.0^10,15^.0^18,23^.0^22,26^.0^25,30^.0^29,33^.0^32,37^]tetratetraconta-1(44),3,5,7,10,12,14,18,20,22,25,27,29,32,34,36,40,42-octadecaene-16,38-diyne) diethyl ether solvate'
_symmetry_cell_setting           triclinic
_symmetry_space_group_name_H-M   'P -1'
_symmetry_Int_Tables_number      2
_space_group_name_Hall           '-P 1'
loop_
_symmetry_equiv_pos_site_id
_symmetry_equiv_pos_as_xyz
1 x,y,z
2 -x,-y,-z
_cell_length_a                   22.506(5)
_cell_length_b                   22.564(5)
_cell_length_c                   22.614(5)
_cell_angle_alpha                65.145(5)
_cell_angle_beta                 85.503(5)
_cell_angle_gamma                80.707(5)
_cell_volume                     10282.8
_exptl_crystal_colour            'pale yellow'
_exptl_crystal_description       block
_cell_formula_units_Z            2
_chemical_properties_physical    air-sensitive
loop_
_atom_site_label
_atom_site_type_symbol
_atom_site_fract_x
_atom_site_fract_y
_atom_site_fract_z
C1 C -0.04453(10) 0.28480(11) 0.62850(12)
C2 C -0.05073(10) 0.34368(11) 0.57242(11)
N1 N -0.00652(10) 0.38006(9) 0.53580(9)
C3 C -0.03344(11) 0.43326(11) 0.48343(11)
C4 C -0.00780(10) 0.48252(11) 0.43197(11)
N2 N 0.05199(9) 0.49238(10) 0.41897(10)
C5 C 0.05492(10) 0.54694(11) 0.36156(11)
C6 C 0.10563(11) 0.57569(11) 0.32891(12)
C7 C 0.09593(11) 0.62965(11) 0.26963(11)
C8 C 0.03945(11) 0.65540(11) 0.24083(12)
C9 C -0.01099(11) 0.62717(11) 0.27536(12)
C10 C -0.00346(11) 0.57325(11) 0.33591(12)
C11 C -0.04448(10) 0.53194(11) 0.38274(12)
C12 C -0.10758(11) 0.53284(11) 0.38657(12)
C13 C -0.13307(11) 0.48426(11) 0.43755(12)
C14 C -0.09614(10) 0.43309(11) 0.48611(11)
C15 C -0.10700(10) 0.37493(11) 0.54363(11)
C16 C -0.15866(11) 0.34605(11) 0.57238(12)
C17 C -0.15414(10) 0.28679(11) 0.62778(12)
C18 C -0.09735(11) 0.25708(11) 0.65490(12)
C19 C 0.27032(10) 0.49800(11) 0.41160(12)
C20 C 0.27326(10) 0.45009(11) 0.47529(12)
N3 N 0.22786(10) 0.41747(9) 0.51362(10)
C21 C 0.25101(11) 0.37499(11) 0.57359(12)
C22 C 0.22413(10) 0.32884(11) 0.62726(12)
N4 N 0.16769(9) 0.30975(9) 0.63315(10)
C23 C 0.16546(11) 0.25578(11) 0.69136(12)
C24 C 0.11809(11) 0.21705(11) 0.71638(12)
C25 C 0.12961(11) 0.16095(11) 0.77399(12)
C26 C 0.18376(11) 0.14322(11) 0.80840(12)
C27 C 0.22787(11) 0.18477(11) 0.78378(12)
C28 C 0.21935(11) 0.24078(11) 0.72546(12)
C29 C 0.25763(11) 0.28911(11) 0.68391(12)
C30 C 0.31765(11) 0.29839(12) 0.68726(13)
C31 C 0.34455(11) 0.34338(11) 0.63446(13)
C32 C 0.31191(10) 0.38121(11) 0.57599(12)
C33 C 0.32659(11) 0.42847(11) 0.51133(13)
C34 C 0.37989(11) 0.45241(12) 0.48021(13)
C35 C 0.37917(11) 0.49683(12) 0.41539(14)
C36 C 0.32437(11) 0.52010(12) 0.38229(13)
C37 C 0.01339(11) 0.25648(11) 0.65812(12)
C38 C 0.06166(11) 0.23670(11) 0.68336(12)
C39 C 0.21359(12) 0.52385(11) 0.37923(12)
C40 C 0.16434(11) 0.54786(11) 0.35584(12)
C41 C -0.21090(11) 0.25382(11) 0.65641(12)
C42 C -0.26240(11) 0.30498(13) 0.66237(13)
C43 C -0.20016(12) 0.19715(13) 0.72327(13)
C44 C -0.22978(12) 0.22633(13) 0.60978(14)
C45 C 0.03458(12) 0.71215(12) 0.17268(12)
C46 C 0.08250(13) 0.69608(13) 0.12703(13)
C47 C 0.04597(13) 0.77613(12) 0.17586(13)
C48 C -0.02730(13) 0.72473(14) 0.14283(14)
C49 C 0.43673(12) 0.52365(14) 0.37874(15)
C50 C 0.4227(3) 0.6039(3) 0.3538(5)
C51 C 0.4552(4) 0.5059(4) 0.3289(4)
C52 C 0.4897(2) 0.5100(3) 0.4299(3)
C56 C 0.19292(12) 0.07807(12) 0.86932(13)
C57 C 0.19557(13) 0.02041(12) 0.84918(14)
C58 C 0.25147(13) 0.06915(14) 0.90435(14)
C59 C 0.14013(13) 0.07471(14) 0.91762(13)
H1 H 0.0338(14) 0.3694(14) 0.5438(14)
H2 H 0.0826(13) 0.4627(14) 0.4420(13)
H3 H 0.1296 0.6503 0.2473
H4 H -0.0501 0.6447 0.2575
H5 H -0.1325 0.5671 0.3539
H6 H -0.1755 0.4851 0.4401
H7 H -0.1970 0.3671 0.5539
H8 H -0.0944 0.2166 0.6927
H9 H 0.1951(13) 0.4176(14) 0.4959(14)
H10 H 0.1383(14) 0.3290(14) 0.5983(15)
H11 H 0.0993 0.1331 0.7911
H12 H 0.2641 0.1747 0.8071
H13 H 0.3396 0.2733 0.7263
H14 H 0.3850 0.3492 0.6371
H15 H 0.4164 0.4380 0.5038
H16 H 0.3239 0.5520 0.3384
H17 H -0.2979 0.2833 0.6820
H18 H -0.2724 0.3398 0.6190
H19 H -0.2497 0.3244 0.6899
H20 H -0.2377 0.1789 0.7401
H21 H -0.1865 0.2134 0.7531
H22 H -0.1694 0.1627 0.7197
H23 H -0.1973 0.1933 0.6063
H24 H -0.2378 0.2624 0.5666
H25 H -0.2663 0.2058 0.6268
H26 H 0.1227 0.6961 0.1409
H27 H 0.0758 0.7294 0.0823
H28 H 0.0795 0.6525 0.1289
H29 H 0.0160 0.7872 0.2048
H30 H 0.0428 0.8121 0.1321
H31 H 0.0864 0.7698 0.1927
H32 H -0.0362 0.6840 0.1419
H33 H -0.0274 0.7592 0.0983
H34 H -0.0580 0.7391 0.1691
H35 H 0.4093 0.6147 0.3908
H36 H 0.3911 0.6217 0.3209
H37 H 0.4594 0.6232 0.3347
H38 H 0.4879 0.5302 0.3045
H39 H 0.4214 0.5162 0.2997
H40 H 0.4696 0.4584 0.3465
H41 H 0.5237 0.5324 0.4063
H42 H 0.5031 0.4624 0.4519
H43 H 0.4741 0.5270 0.4623
H53 H 0.1579 0.0244 0.8280
H54 H 0.2012 -0.0215 0.8880
H55 H 0.2293 0.0216 0.8188
H56 H 0.2549 0.0276 0.9436
H57 H 0.2511 0.1060 0.9167
H58 H 0.2859 0.0682 0.8752
H59 H 0.1029 0.0748 0.8978
H60 H 0.1360 0.1130 0.9283
H61 H 0.1479 0.0342 0.9575
N5 N 0.12135(9) 0.36443(9) 0.50263(10)
N6 N 0.11009(9) 0.33135(9) 0.47684(10)
N7 N 0.09844(10) 0.29873(11) 0.45190(11)
C60 C 0.49629(11) 0.11639(12) 0.20127(12)
C61 C 0.50846(11) 0.16968(12) 0.21262(12)
N8 N 0.53231(9) 0.16769(10) 0.26820(10)
C62 C 0.53650(11) 0.23203(11) 0.25764(12)
C63 C 0.56057(11) 0.25508(11) 0.29786(12)
N9 N 0.58771(9) 0.22089(10) 0.35727(10)
C64 C 0.61011(11) 0.26507(11) 0.37371(12)
C65 C 0.64405(11) 0.25236(11) 0.42808(12)
C66 C 0.66540(11) 0.30608(11) 0.43050(12)
C67 C 0.65258(11) 0.37076(11) 0.38269(12)
C68 C 0.61639(11) 0.38225(12) 0.33068(12)
C69 C 0.59506(11) 0.32941(11) 0.32548(12)
C70 C 0.56148(11) 0.32341(11) 0.27626(12)
C71 C 0.53679(12) 0.36776(12) 0.21549(13)
C72 C 0.51345(12) 0.34457(12) 0.17608(13)
C73 C 0.51426(11) 0.27619(12) 0.19617(13)
C74 C 0.49746(11) 0.23551(12) 0.16599(12)
C75 C 0.47689(11) 0.24821(13) 0.10433(13)
C76 C 0.46744(11) 0.19624(12) 0.08958(12)
C77 C 0.47648(11) 0.13162(12) 0.13862(12)
C78 C 0.65748(11) 0.07149(11) 0.57855(12)
C79 C 0.63086(10) 0.02248(11) 0.57231(12)
N10 N 0.60568(9) 0.02414(10) 0.51823(11)
C80 C 0.58656(10) -0.03580(11) 0.53456(12)
C81 C 0.55954(10) -0.05852(11) 0.49555(12)
N11 N 0.54487(9) -0.02797(10) 0.43069(10)
C82 C 0.52133(10) -0.07189(11) 0.41463(12)
C83 C 0.50064(11) -0.06268(11) 0.35406(12)
C84 C 0.48105(11) -0.11726(11) 0.35092(13)
C85 C 0.48296(10) -0.17871(11) 0.40436(13)
C86 C 0.50184(11) -0.18526(12) 0.46415(13)
C87 C 0.52065(10) -0.13164(11) 0.46997(12)
C88 C 0.54458(10) -0.12295(11) 0.52325(12)
C89 C 0.55462(11) -0.16355(11) 0.58981(13)
C90 C 0.58099(10) -0.14106(11) 0.62807(12)
C91 C 0.59712(10) -0.07666(11) 0.60019(12)
C92 C 0.62623(10) -0.03872(11) 0.62520(12)
C93 C 0.64905(10) -0.05101(11) 0.68573(12)
C94 C 0.67640(11) -0.00358(11) 0.69375(12)
C95 C 0.68042(11) 0.05670(11) 0.63990(12)
C96 C 0.50139(11) 0.05160(12) 0.25221(12)
C97 C 0.50114(11) -0.00099(12) 0.29845(13)
C98 C 0.65803(11) 0.13451(12) 0.52445(12)
C99 C 0.65428(11) 0.18734(12) 0.47940(12)
C100 C 0.44864(12) 0.20781(13) 0.02141(13)
C101 C 0.42205(18) 0.27883(16) -0.01756(16)
C102 C 0.40069(15) 0.16481(18) 0.02579(16)
C103 C 0.50320(14) 0.19008(18) -0.01533(16)
C104 C 0.68217(12) 0.42485(12) 0.38856(13)
C105 C 0.66258(15) 0.49286(13) 0.33542(15)
C106 C 0.75023(13) 0.40848(15) 0.38244(16)
C107 C 0.66645(14) 0.42667(13) 0.45523(14)
C108 C 0.70189(12) -0.01823(12) 0.76017(12)
C109 C 0.71879(14) 0.04272(13) 0.76412(14)
C110 C 0.75884(15) -0.06990(14) 0.77281(16)
C111 C 0.65589(15) -0.04605(17) 0.81468(15)
C112 C 0.46629(11) -0.23723(12) 0.39405(13)
C113 C 0.50431(13) -0.24342(13) 0.33620(15)
C114 C 0.47976(14) -0.30211(12) 0.45434(15)
C115 C 0.39945(11) -0.22557(13) 0.37769(14)
H62 H 0.5498(13) 0.1256(15) 0.3064(14)
H63 H 0.5971(14) 0.1771(16) 0.3740(15)
H64 H 0.6897 0.2985 0.4662
H65 H 0.6061 0.4259 0.2986
H66 H 0.5362 0.4139 0.2016
H67 H 0.4967 0.3748 0.1352
H68 H 0.4693 0.2924 0.0724
H69 H 0.4688 0.0966 0.1288
H70 H 0.6057(10) 0.0551(11) 0.4800(11)
H71 H 0.5501(11) 0.0110(13) 0.4023(13)
H72 H 0.4658 -0.1124 0.3109
H73 H 0.5020 -0.2262 0.5012
H74 H 0.5432 -0.2065 0.6084
H75 H 0.5883 -0.1686 0.6728
H76 H 0.6459 -0.0920 0.7217
H77 H 0.6994 0.0888 0.6452
H78 H 0.3877 0.2912 0.0064
H79 H 0.4085 0.2838 -0.0598
H80 H 0.4527 0.3075 -0.0246
H81 H 0.3658 0.1746 0.0506
H82 H 0.4175 0.1181 0.0478
H83 H 0.3882 0.1743 -0.0182
H84 H 0.4913 0.1986 -0.0593
H85 H 0.5190 0.1433 0.0080
H86 H 0.5344 0.2170 -0.0183
H87 H 0.6738 0.4927 0.2927
H88 H 0.6825 0.5255 0.3414
H89 H 0.6188 0.5042 0.3379
H90 H 0.7642 0.3653 0.4171
H91 H 0.7700 0.4422 0.3864
H92 H 0.7602 0.4074 0.3399
H93 H 0.6226 0.4355 0.4598
H94 H 0.6850 0.4616 0.4585
H95 H 0.6817 0.3840 0.4899
H96 H 0.7523 0.0582 0.7339
H97 H 0.7310 0.0316 0.8087
H98 H 0.6840 0.0776 0.7524
H99 H 0.7490 -0.1093 0.7697
H100 H 0.7739 -0.0820 0.8165
H101 H 0.7899 -0.0513 0.7402
H102 H 0.6186 -0.0147 0.8059
H103 H 0.6723 -0.0533 0.8564
H104 H 0.6473 -0.0880 0.8166
H105 H 0.5471 -0.2469 0.3444
H106 H 0.4928 -0.2043 0.2960
H107 H 0.4970 -0.2829 0.3316
H108 H 0.4542 -0.3002 0.4908
H109 H 0.5222 -0.3091 0.4659
H110 H 0.4715 -0.3387 0.4450
H111 H 0.3899 -0.2624 0.3696
H112 H 0.3907 -0.1844 0.3387
H113 H 0.3749 -0.2225 0.4144
N12 N 0.61367(9) 0.08419(10) 0.37458(10)
N13 N 0.65849(10) 0.04613(10) 0.37862(10)
N14 N 0.70231(10) 0.00863(10) 0.38288(12)
C116 C 0.74309(11) 0.43155(11) 0.00668(11)
C117 C 0.77529(11) 0.36938(11) 0.01567(11)
N15 N 0.83244(9) 0.34287(9) 0.03854(10)
C118 C 0.84583(11) 0.28136(11) 0.03768(11)
C119 C 0.89777(11) 0.23557(11) 0.05546(11)
N16 N 0.95175(9) 0.23846(9) 0.07871(10)
C120 C 0.98861(11) 0.18003(11) 0.09112(11)
C121 C 1.04638(11) 0.15958(11) 0.11805(12)
C122 C 1.07367(11) 0.09597(11) 0.12688(12)
C123 C 1.04565(11) 0.05412(11) 0.10966(12)
C124 C 0.98859(11) 0.07672(11) 0.08222(12)
C125 C 0.95981(10) 0.13951(11) 0.07293(11)
C126 C 0.90087(11) 0.17534(11) 0.04963(11)
C127 C 0.85090(11) 0.16188(11) 0.02518(12)
C128 C 0.79961(11) 0.20685(11) 0.00754(12)
C129 C 0.79612(11) 0.26745(11) 0.01405(11)
C130 C 0.75034(11) 0.32433(11) 0.00011(12)
C131 C 0.69174(11) 0.34069(12) -0.02388(12)
C132 C 0.65837(11) 0.40160(12) -0.03311(13)
C133 C 0.68501(11) 0.44553(12) -0.01763(12)
C134 C 1.13165(11) 0.29286(11) 0.14310(11)
C135 C 1.10255(11) 0.35787(11) 0.12309(11)
N17 N 1.04324(9) 0.38216(9) 0.10706(9)
C136 C 1.03508(11) 0.44947(11) 0.09015(11)
C137 C 0.98271(10) 0.49538(11) 0.07279(11)
N18 N 0.92466(9) 0.48707(10) 0.06561(10)
C138 C 0.88848(11) 0.54707(11) 0.04974(11)
C139 C 0.82653(11) 0.56292(11) 0.03741(11)
C140 C 0.79992(11) 0.62681(11) 0.02814(12)
C141 C 0.83307(11) 0.67397(11) 0.02988(12)
C142 C 0.89494(11) 0.65803(11) 0.03711(11)
C143 C 0.92324(11) 0.59452(11) 0.04711(11)
C144 C 0.98511(11) 0.56139(11) 0.06031(11)
C145 C 1.04068(11) 0.58190(11) 0.06211(11)
C146 C 1.09257(11) 0.53665(11) 0.07878(11)
C147 C 1.08995(10) 0.46960(11) 0.09445(11)
C148 C 1.13387(11) 0.40996(11) 0.11661(11)
C149 C 1.19460(11) 0.39626(11) 0.13229(11)
C150 C 1.22473(11) 0.33144(11) 0.15431(11)
C151 C 1.19220(11) 0.28120(11) 0.15974(11)
C152 C 0.76975(10) 0.47703(11) 0.02148(11)
C153 C 0.79365(10) 0.51593(11) 0.03143(11)
C154 C 1.10086(11) 0.24279(11) 0.14094(11)
C155 C 1.07597(11) 0.20327(11) 0.13328(12)
C156 C 0.59366(12) 0.42123(13) -0.05833(16)
C157 C 0.5877(2) 0.48849(18) -0.1160(3)
C158 C 0.57535(14) 0.37378(16) -0.0832(2)
C159 C 0.55110(16) 0.4230(3) -0.0034(3)
C160 C 1.07550(11) -0.01693(11) 0.12433(13)
C161 C 1.05241(16) -0.06264(13) 0.19077(14)
C162 C 1.14443(13) -0.02342(14) 0.12578(19)
C163 C 1.05934(12) -0.03920(12) 0.07358(13)
C164 C 1.29221(11) 0.31768(12) 0.16941(12)
C165 C 1.30337(14) 0.33784(17) 0.22388(17)
C166 C 1.31871(12) 0.24486(12) 0.19085(14)
C167 C 1.32707(13) 0.35739(13) 0.10800(15)
C168 C 0.79909(12) 0.74138(11) 0.02402(12)
C169 C 0.76709(12) 0.77791(12) -0.04176(13)
C170 C 0.75233(12) 0.73011(13) 0.07939(14)
C171 C 0.84141(12) 0.78537(12) 0.02911(15)
H114 H 0.8529(10) 0.3601(11) 0.0568(11)
H115 H 0.9593(11) 0.2695(13) 0.0905(12)
H116 H 1.1127 0.0805 0.1453
H117 H 0.9693 0.0493 0.0698
H118 H 0.8530 0.1214 0.0210
H119 H 0.7664 0.1977 -0.0090
H120 H 0.6746 0.3102 -0.0339
H121 H 0.6622 0.4870 -0.0241
H122 H 1.0102(13) 0.3612(14) 0.1110(13)
H123 H 0.9146(13) 0.4475(15) 0.0739(14)
H124 H 0.7579 0.6388 0.0204
H125 H 0.9183 0.6903 0.0353
H126 H 1.0424 0.6270 0.0518
H127 H 1.1300 0.5506 0.0797
H128 H 1.2158 0.4310 0.1280
H129 H 1.2124 0.2372 0.1755
H130 H 0.5471 0.4994 -0.1339
H131 H 0.6174 0.4873 -0.1497
H132 H 0.5948 0.5220 -0.1016
H133 H 0.5768 0.3298 -0.0473
H134 H 0.6031 0.3716 -0.1180
H135 H 0.5343 0.3894 -0.1001
H136 H 0.5095 0.4350 -0.0188
H137 H 0.5608 0.4557 0.0109
H138 H 0.5555 0.3793 0.0333
H139 H 1.0083 -0.0568 0.1907
H140 H 1.0659 -0.0518 0.2247
H141 H 1.0683 -0.1086 0.1994
H142 H 1.1621 -0.0679 0.1310
H143 H 1.1562 -0.0155 0.1624
H144 H 1.1590 0.0091 0.0849
H145 H 1.0165 -0.0440 0.0778
H146 H 1.0835 -0.0817 0.0804
H147 H 1.0676 -0.0063 0.0299
H148 H 1.2893 0.3851 0.2102
H149 H 1.3466 0.3289 0.2330
H150 H 1.2814 0.3125 0.2633
H151 H 1.2984 0.2180 0.2309
H152 H 1.3619 0.2392 0.1989
H153 H 1.3128 0.2308 0.1565
H154 H 1.3206 0.3443 0.0731
H155 H 1.3701 0.3486 0.1176
H156 H 1.3128 0.4046 0.0941
H157 H 0.7403 0.7501 -0.0465
H158 H 0.7971 0.7879 -0.0771
H159 H 0.7435 0.8191 -0.0436
H160 H 0.7728 0.7079 0.1214
H161 H 0.7241 0.7025 0.0766
H162 H 0.7302 0.7727 0.0755
H163 H 0.8184 0.8279 0.0242
H164 H 0.8722 0.7925 -0.0054
H165 H 0.8608 0.7640 0.0718
N19 N 0.92412(9) 0.34383(9) 0.12336(10)
N20 N 0.90881(9) 0.30816(10) 0.17659(11)
N21 N 0.89417(10) 0.27233(12) 0.22883(12)
N22 N 0.26363(9) 0.19020(9) 0.51863(10)
C172 C 0.27122(13) 0.26232(12) 0.47984(14)
C173 C 0.33078(13) 0.27338(12) 0.44247(14)
C174 C 0.33090(15) 0.34387(13) 0.39299(15)
C175 C 0.38911(15) 0.35435(14) 0.35471(15)
C176 C 0.20084(12) 0.18831(13) 0.54999(13)
C177 C 0.18764(13) 0.12220(15) 0.59910(15)
C178 C 0.11946(13) 0.12071(15) 0.60904(15)
C179 C 0.09073(18) 0.11620(19) 0.5521(2)
C180 C 0.26943(12) 0.15399(12) 0.47415(12)
C181 C 0.22980(12) 0.18633(13) 0.41405(13)
C182 C 0.23825(12) 0.14493(12) 0.37442(13)
C183 C 0.21894(13) 0.07703(14) 0.41002(15)
C184 C 0.31194(12) 0.15501(12) 0.56975(12)
C185 C 0.31207(13) 0.18377(13) 0.61978(13)
C186 C 0.35673(12) 0.14166(13) 0.67377(13)
C187 C 0.34111(14) 0.07377(14) 0.71667(15)
H166 H 0.2678 0.2841 0.5101
H167 H 0.2378 0.2839 0.4484
H168 H 0.3636 0.2617 0.4738
H169 H 0.3390 0.2437 0.4198
H170 H 0.2973 0.3560 0.3624
H171 H 0.3239 0.3735 0.4158
H172 H 0.4224 0.3441 0.3845
H173 H 0.3866 0.4004 0.3229
H174 H 0.3962 0.3253 0.3319
H175 H 0.1952 0.2191 0.5714
H176 H 0.1707 0.2050 0.5149
H177 H 0.2061 0.1122 0.6412
H178 H 0.2057 0.0878 0.5841
H179 H 0.1120 0.0823 0.6498
H180 H 0.1002 0.1612 0.6138
H181 H 0.0993 0.1532 0.5114
H182 H 0.0471 0.1180 0.5591
H183 H 0.1075 0.0745 0.5493
H184 H 0.3120 0.1498 0.4597
H185 H 0.2596 0.1088 0.5000
H186 H 0.2403 0.2309 0.3866
H187 H 0.1871 0.1913 0.4277
H188 H 0.2149 0.1692 0.3338
H189 H 0.2813 0.1396 0.3619
H190 H 0.2451 0.0506 0.4475
H191 H 0.2221 0.0551 0.3803
H192 H 0.1772 0.0816 0.4252
H193 H 0.3518 0.1567 0.5476
H194 H 0.3063 0.1080 0.5929
H195 H 0.3227 0.2290 0.5979
H196 H 0.2712 0.1866 0.6389
H197 H 0.3969 0.1367 0.6538
H198 H 0.3596 0.1653 0.7015
H199 H 0.3016 0.0779 0.7372
H200 H 0.3716 0.0503 0.7505
H201 H 0.3400 0.0490 0.6902
N23 N 0.76138(10) 0.17122(10) 0.24140(10)
C188 C 0.70989(12) 0.14314(13) 0.22724(13)
C189 C 0.70484(13) 0.15345(14) 0.15670(14)
C190 C 0.65428(14) 0.11962(16) 0.15008(15)
C191 C 0.64904(16) 0.12483(18) 0.08198(17)
C192 C 0.75880(12) 0.15304(13) 0.31408(12)
C193 C 0.80997(13) 0.17123(15) 0.34070(13)
C194 C 0.80163(14) 0.15272(14) 0.41358(13)
C195 C 0.79787(18) 0.08095(16) 0.45576(16)
C196 C 0.82154(12) 0.14262(13) 0.22177(13)
C197 C 0.83774(12) 0.06819(12) 0.25525(14)
C198 C 0.90048(13) 0.04709(14) 0.23476(14)
C199 C 0.95038(14) 0.06634(17) 0.26197(18)
C200 C 0.75591(12) 0.24526(12) 0.20259(13)
C201 C 0.69780(13) 0.28493(13) 0.21352(14)
C202 C 0.70042(14) 0.35868(13) 0.17946(14)
C203 C 0.74614(15) 0.38216(17) 0.2073(2)
H202 H 0.6716 0.1633 0.2402
H203 H 0.7145 0.0952 0.2551
H204 H 0.6969 0.2013 0.1285
H205 H 0.7433 0.1352 0.1423
H206 H 0.6613 0.0724 0.1806
H207 H 0.6157 0.1396 0.1627
H208 H 0.6398 0.1714 0.0518
H209 H 0.6168 0.1009 0.0809
H210 H 0.6872 0.1056 0.0689
H211 H 0.7586 0.1048 0.3372
H212 H 0.7202 0.1750 0.3244
H213 H 0.8488 0.1479 0.3327
H214 H 0.8112 0.2193 0.3175
H215 H 0.8356 0.1654 0.4288
H216 H 0.7643 0.1792 0.4203
H217 H 0.7600 0.0697 0.4474
H218 H 0.7993 0.0729 0.5018
H219 H 0.8319 0.0536 0.4456
H220 H 0.8215 0.1557 0.1741
H221 H 0.8536 0.1630 0.2307
H222 H 0.8361 0.0538 0.3031
H223 H 0.8082 0.0469 0.2436
H224 H 0.9034 0.0673 0.1866
H225 H 0.9068 -0.0014 0.2495
H226 H 0.9464 0.1145 0.2449
H227 H 0.9896 0.0492 0.2489
H228 H 0.9472 0.0476 0.3096
H229 H 0.7594 0.2546 0.1557
H230 H 0.7903 0.2611 0.2135
H231 H 0.6634 0.2745 0.1967
H232 H 0.6912 0.2722 0.2608
H233 H 0.7101 0.3703 0.1328
H234 H 0.6601 0.3826 0.1822
H235 H 0.7366 0.3716 0.2534
H236 H 0.7449 0.4300 0.1833
H237 H 0.7865 0.3601 0.2034
N24 N 0.98058(9) 0.36561(10) 0.30929(10)
C204 C 0.93353(12) 0.40896(13) 0.25848(12)
C205 C 0.90084(12) 0.46902(13) 0.26751(13)
C206 C 0.85208(13) 0.50455(14) 0.21767(14)
C207 C 0.81741(14) 0.56581(14) 0.22302(16)
C208 C 1.00645(12) 0.30876(12) 0.29078(13)
C209 C 1.05611(13) 0.25998(14) 0.33389(15)
C210 C 1.07107(13) 0.19919(13) 0.31868(14)
C211 C 1.02153(18) 0.15645(18) 0.3406(3)
C212 C 0.95313(11) 0.33944(13) 0.37751(12)
C213 C 0.90229(12) 0.29805(14) 0.38823(14)
C214 C 0.88319(13) 0.27004(15) 0.45953(14)
C215 C 0.93009(16) 0.21829(17) 0.50411(16)
C216 C 1.02961(11) 0.40383(13) 0.31096(13)
C217 C 1.06372(12) 0.43386(13) 0.24728(13)
C218 C 1.11706(12) 0.46390(14) 0.25437(14)
C219 C 1.16550(14) 0.41478(17) 0.29911(16)
H238 H 0.9534 0.4242 0.2150
H239 H 0.9033 0.3816 0.2586
H240 H 0.8829 0.4550 0.3118
H241 H 0.9299 0.4993 0.2630
H242 H 0.8234 0.4737 0.2225
H243 H 0.8705 0.5175 0.1736
H244 H 0.7971 0.5532 0.2656
H245 H 0.7874 0.5871 0.1885
H246 H 0.8454 0.5966 0.2184
H247 H 0.9733 0.2845 0.2914
H248 H 1.0221 0.3275 0.2455
H249 H 1.0434 0.2461 0.3801
H250 H 1.0926 0.2815 0.3273
H251 H 1.0777 0.2136 0.2711
H252 H 1.1089 0.1729 0.3407
H253 H 1.0170 0.1392 0.3881
H254 H 1.0318 0.1196 0.3276
H255 H 0.9836 0.1828 0.3201
H256 H 0.9374 0.3774 0.3881
H257 H 0.9856 0.3122 0.4087
H258 H 0.8674 0.3259 0.3610
H259 H 0.9163 0.2615 0.3749
H260 H 0.8738 0.3066 0.4736
H261 H 0.8458 0.2505 0.4640
H262 H 0.9401 0.1822 0.4902
H263 H 0.9143 0.2011 0.5489
H264 H 0.9664 0.2379 0.5022
H265 H 1.0111 0.4397 0.3238
H266 H 1.0587 0.3738 0.3451
H267 H 1.0360 0.4685 0.2144
H268 H 1.0783 0.3993 0.2313
H269 H 1.1351 0.4864 0.2107
H270 H 1.1023 0.4978 0.2711
H271 H 1.1492 0.3953 0.3435
H272 H 1.1994 0.4373 0.2987
H273 H 1.1793 0.3799 0.2841
O1 O 0.60277(16) 0.59811(13) 0.17072(16)
C220 C 0.6265(2) 0.53670(18) 0.0987(3)
C221 C 0.6494(2) 0.5795(3) 0.1446(3)
C222 C 0.6165(3) 0.6427(2) 0.1963(2)
C223 C 0.5640(3) 0.6678(3) 0.2196(3)
O3 O 0.31321(15) 0.6659(2) 0.18938(15)
C228 C 0.3882(2) 0.7363(3) 0.1850(3)
C229 C 0.3213(2) 0.7365(2) 0.1616(2)
C230 C 0.2552(2) 0.6641(4) 0.1756(2)
C231 C 0.2528(2) 0.5896(3) 0.1941(2)
O5 O 0.4778(5) 0.9491(5) 0.1030(5)
C237 C 0.5738(6) 0.8800(7) 0.1505(6)
C238 C 0.5358(5) 0.9399(5) 0.1488(5)
C239 C 0.3916(8) 0.9466(7) 0.0707(8)
C242 C 0.4362(11) 0.9300(10) 0.1098(10)
C53? C 0.4498(4) 0.5751(3) 0.3873(4)
C54? C 0.4313(4) 0.5399(5) 0.2996(4)
C55? C 0.4909(3) 0.4628(3) 0.3983(3)
O2? O 0.5644(12) 0.5423(13) 0.1832(14)
C224? C 0.6627(7) 0.5341(8) 0.1413(7)
C225? C 0.6115(12) 0.5559(12) 0.1394(12)
C226? C 0.5642(5) 0.5501(5) 0.2086(5)
C227? C 0.5696(15) 0.6289(15) 0.1947(14)
C232? C 0.2836(9) 0.6214(8) 0.1909(7)
C233? C 0.2322(13) 0.5737(13) 0.1808(13)
O4? O 0.0398(2) 0.9772(2) 0.4278(2)
C234? C 0.0980(4) 0.9512(4) 0.3471(4)
C235? C 0.1003(3) 0.9584(4) 0.4088(4)
C236? C 0.0337(2) 0.9878(3) 0.4930(3)
C240? C 0.3996(9) 0.9899(11) 0.0213(11)
C241? C 0.3517(19) 0.9339(19) 0.0648(18)
C243? C 0.4407(7) 0.8855(8) 0.1784(8)
H44? H 0.4890 0.5861 0.3670
H45? H 0.4514 0.5639 0.4340
H46? H 0.4187 0.6131 0.3672
H47? H 0.3995 0.5772 0.2796
H48? H 0.4215 0.5010 0.2956
H49? H 0.4698 0.5511 0.2774
H50? H 0.5261 0.4769 0.3703
H51? H 0.4781 0.4261 0.3925
H52? H 0.5015 0.4485 0.4440
loop_
_geom_bond_atom_site_label_1
_geom_bond_atom_site_label_2
_geom_bond_site_symmetry_1
_geom_bond_site_symmetry_2
C1 C2 1_555 1_555
C2 N1 1_555 1_555
N1 C3 1_555 1_555
C3 C4 1_555 1_555
C4 N2 1_555 1_555
N2 C5 1_555 1_555
C5 C6 1_555 1_555
C6 C7 1_555 1_555
C7 C8 1_555 1_555
C8 C9 1_555 1_555
C9 C10 1_555 1_555
C10 C5 1_555 1_555
C11 C4 1_555 1_555
C12 C11 1_555 1_555
C13 C12 1_555 1_555
C14 C3 1_555 1_555
C15 C2 1_555 1_555
C16 C15 1_555 1_555
C17 C16 1_555 1_555
C18 C1 1_555 1_555
C19 C20 1_555 1_555
C20 N3 1_555 1_555
N3 C21 1_555 1_555
C21 C22 1_555 1_555
C22 N4 1_555 1_555
N4 C23 1_555 1_555
C23 C24 1_555 1_555
C24 C25 1_555 1_555
C25 C26 1_555 1_555
C26 C27 1_555 1_555
C27 C28 1_555 1_555
C28 C23 1_555 1_555
C29 C22 1_555 1_555
C30 C29 1_555 1_555
C31 C30 1_555 1_555
C32 C21 1_555 1_555
C33 C20 1_555 1_555
C34 C33 1_555 1_555
C35 C34 1_555 1_555
C36 C19 1_555 1_555
C37 C1 1_555 1_555
C38 C24 1_555 1_555
C39 C19 1_555 1_555
C40 C6 1_555 1_555
C41 C17 1_555 1_555
C42 C41 1_555 1_555
C43 C41 1_555 1_555
C44 C41 1_555 1_555
C45 C8 1_555 1_555
C46 C45 1_555 1_555
C47 C45 1_555 1_555
C48 C45 1_555 1_555
C49 C35 1_555 1_555
C50 C49 1_555 1_555
C51 C49 1_555 1_555
C52 C49 1_555 1_555
C56 C26 1_555 1_555
C57 C56 1_555 1_555
C58 C56 1_555 1_555
C59 C56 1_555 1_555
N5 N6 1_555 1_555
N6 N7 1_555 1_555
C60 C61 1_555 1_555
C61 N8 1_555 1_555
N8 C62 1_555 1_555
C62 C63 1_555 1_555
C63 N9 1_555 1_555
N9 C64 1_555 1_555
C64 C65 1_555 1_555
C65 C66 1_555 1_555
C66 C67 1_555 1_555
C67 C68 1_555 1_555
C68 C69 1_555 1_555
C69 C64 1_555 1_555
C70 C63 1_555 1_555
C71 C70 1_555 1_555
C72 C71 1_555 1_555
C73 C62 1_555 1_555
C74 C61 1_555 1_555
C75 C74 1_555 1_555
C76 C75 1_555 1_555
C77 C60 1_555 1_555
C78 C79 1_555 1_555
C79 N10 1_555 1_555
N10 C80 1_555 1_555
C80 C81 1_555 1_555
C81 N11 1_555 1_555
N11 C82 1_555 1_555
C82 C83 1_555 1_555
C83 C84 1_555 1_555
C84 C85 1_555 1_555
C85 C86 1_555 1_555
C86 C87 1_555 1_555
C87 C82 1_555 1_555
C88 C81 1_555 1_555
C89 C88 1_555 1_555
C90 C89 1_555 1_555
C91 C80 1_555 1_555
C92 C79 1_555 1_555
C93 C92 1_555 1_555
C94 C93 1_555 1_555
C95 C78 1_555 1_555
C96 C60 1_555 1_555
C97 C83 1_555 1_555
C98 C78 1_555 1_555
C99 C65 1_555 1_555
C100 C76 1_555 1_555
C101 C100 1_555 1_555
C102 C100 1_555 1_555
C103 C100 1_555 1_555
C104 C67 1_555 1_555
C105 C104 1_555 1_555
C106 C104 1_555 1_555
C107 C104 1_555 1_555
C108 C94 1_555 1_555
C109 C108 1_555 1_555
C110 C108 1_555 1_555
C111 C108 1_555 1_555
C112 C85 1_555 1_555
C113 C112 1_555 1_555
C114 C112 1_555 1_555
C115 C112 1_555 1_555
N12 N13 1_555 1_555
N13 N14 1_555 1_555
C116 C117 1_555 1_555
C117 N15 1_555 1_555
N15 C118 1_555 1_555
C118 C119 1_555 1_555
C119 N16 1_555 1_555
N16 C120 1_555 1_555
C120 C121 1_555 1_555
C121 C122 1_555 1_555
C122 C123 1_555 1_555
C123 C124 1_555 1_555
C124 C125 1_555 1_555
C125 C120 1_555 1_555
C126 C119 1_555 1_555
C127 C126 1_555 1_555
C128 C127 1_555 1_555
C129 C118 1_555 1_555
C130 C117 1_555 1_555
C131 C130 1_555 1_555
C132 C131 1_555 1_555
C133 C116 1_555 1_555
C134 C135 1_555 1_555
C135 N17 1_555 1_555
N17 C136 1_555 1_555
C136 C137 1_555 1_555
C137 N18 1_555 1_555
N18 C138 1_555 1_555
C138 C139 1_555 1_555
C139 C140 1_555 1_555
C140 C141 1_555 1_555
C141 C142 1_555 1_555
C142 C143 1_555 1_555
C143 C138 1_555 1_555
C144 C137 1_555 1_555
C145 C144 1_555 1_555
C146 C145 1_555 1_555
C147 C136 1_555 1_555
C148 C135 1_555 1_555
C149 C148 1_555 1_555
C150 C149 1_555 1_555
C151 C134 1_555 1_555
C152 C116 1_555 1_555
C153 C139 1_555 1_555
C154 C134 1_555 1_555
C155 C121 1_555 1_555
C156 C132 1_555 1_555
C157 C156 1_555 1_555
C158 C156 1_555 1_555
C159 C156 1_555 1_555
C160 C123 1_555 1_555
C161 C160 1_555 1_555
C162 C160 1_555 1_555
C163 C160 1_555 1_555
C164 C150 1_555 1_555
C165 C164 1_555 1_555
C166 C164 1_555 1_555
C167 C164 1_555 1_555
C168 C141 1_555 1_555
C169 C168 1_555 1_555
C170 C168 1_555 1_555
C171 C168 1_555 1_555
N19 N20 1_555 1_555
N20 N21 1_555 1_555
N22 C172 1_555 1_555
C172 C173 1_555 1_555
C173 C174 1_555 1_555
C174 C175 1_555 1_555
C175 H172 1_555 1_555
C176 N22 1_555 1_555
C177 C176 1_555 1_555
C178 C177 1_555 1_555
C179 C178 1_555 1_555
C180 N22 1_555 1_555
C181 C180 1_555 1_555
C182 C181 1_555 1_555
C183 C182 1_555 1_555
C184 N22 1_555 1_555
C185 C184 1_555 1_555
C186 C185 1_555 1_555
C187 C186 1_555 1_555
N23 C188 1_555 1_555
C188 C189 1_555 1_555
C189 C190 1_555 1_555
C190 C191 1_555 1_555
C191 H208 1_555 1_555
C192 N23 1_555 1_555
C193 C192 1_555 1_555
C194 C193 1_555 1_555
C195 C194 1_555 1_555
C196 N23 1_555 1_555
C197 C196 1_555 1_555
C198 C197 1_555 1_555
C199 C198 1_555 1_555
C200 N23 1_555 1_555
C201 C200 1_555 1_555
C202 C201 1_555 1_555
C203 C202 1_555 1_555
N24 C204 1_555 1_555
C204 C205 1_555 1_555
C205 C206 1_555 1_555
C206 C207 1_555 1_555
C207 H244 1_555 1_555
C208 N24 1_555 1_555
C209 C208 1_555 1_555
C210 C209 1_555 1_555
C211 C210 1_555 1_555
C212 N24 1_555 1_555
C213 C212 1_555 1_555
C214 C213 1_555 1_555
C215 C214 1_555 1_555
C216 N24 1_555 1_555
C217 C216 1_555 1_555
C218 C217 1_555 1_555
C219 C218 1_555 1_555
O1 C221 1_555 1_555
C220 C221 1_555 1_555
C222 O1 1_555 1_555
C223 C222 1_555 1_555
O3 C229 1_555 1_555
C228 C229 1_555 1_555
C230 O3 1_555 1_555
C231 C230 1_555 1_555
O5 C238 1_555 1_555
C237 C238 1_555 1_555
C239 C242 1_555 1_555
C242 O5 1_555 1_555
H1 N1 1_555 1_555
H2 N2 1_555 1_555
H3 C7 1_555 1_555
H4 C9 1_555 1_555
H5 C12 1_555 1_555
H6 C13 1_555 1_555
H7 C16 1_555 1_555
H8 C18 1_555 1_555
H9 N3 1_555 1_555
H10 N4 1_555 1_555
H11 C25 1_555 1_555
H12 C27 1_555 1_555
H13 C30 1_555 1_555
H14 C31 1_555 1_555
H15 C34 1_555 1_555
H16 C36 1_555 1_555
H17 C42 1_555 1_555
H18 C42 1_555 1_555
H19 C42 1_555 1_555
H20 C43 1_555 1_555
H21 C43 1_555 1_555
H22 C43 1_555 1_555
H23 C44 1_555 1_555
H24 C44 1_555 1_555
H25 C44 1_555 1_555
H26 C46 1_555 1_555
H27 C46 1_555 1_555
H28 C46 1_555 1_555
H29 C47 1_555 1_555
H30 C47 1_555 1_555
H31 C47 1_555 1_555
H32 C48 1_555 1_555
H33 C48 1_555 1_555
H34 C48 1_555 1_555
H35 C50 1_555 1_555
H36 C50 1_555 1_555
H37 C50 1_555 1_555
H38 C51 1_555 1_555
H39 C51 1_555 1_555
H40 C51 1_555 1_555
H41 C52 1_555 1_555
H42 C52 1_555 1_555
H43 C52 1_555 1_555
H53 C57 1_555 1_555
H54 C57 1_555 1_555
H55 C57 1_555 1_555
H56 C58 1_555 1_555
H57 C58 1_555 1_555
H58 C58 1_555 1_555
H59 C59 1_555 1_555
H60 C59 1_555 1_555
H61 C59 1_555 1_555
H62 N8 1_555 1_555
H63 N9 1_555 1_555
H64 C66 1_555 1_555
H65 C68 1_555 1_555
H66 C71 1_555 1_555
H67 C72 1_555 1_555
H68 C75 1_555 1_555
H69 C77 1_555 1_555
H70 N10 1_555 1_555
H71 N11 1_555 1_555
H72 C84 1_555 1_555
H73 C86 1_555 1_555
H74 C89 1_555 1_555
H75 C90 1_555 1_555
H76 C93 1_555 1_555
H77 C95 1_555 1_555
H78 C101 1_555 1_555
H79 C101 1_555 1_555
H80 C101 1_555 1_555
H81 C102 1_555 1_555
H82 C102 1_555 1_555
H83 C102 1_555 1_555
H84 C103 1_555 1_555
H85 C103 1_555 1_555
H86 C103 1_555 1_555
H87 C105 1_555 1_555
H88 C105 1_555 1_555
H89 C105 1_555 1_555
H90 C106 1_555 1_555
H91 C106 1_555 1_555
H92 C106 1_555 1_555
H93 C107 1_555 1_555
H94 C107 1_555 1_555
H95 C107 1_555 1_555
H96 C109 1_555 1_555
H97 C109 1_555 1_555
H98 C109 1_555 1_555
H99 C110 1_555 1_555
H100 C110 1_555 1_555
H101 C110 1_555 1_555
H102 C111 1_555 1_555
H103 C111 1_555 1_555
H104 C111 1_555 1_555
H105 C113 1_555 1_555
H106 C113 1_555 1_555
H107 C113 1_555 1_555
H108 C114 1_555 1_555
H109 C114 1_555 1_555
H110 C114 1_555 1_555
H111 C115 1_555 1_555
H112 C115 1_555 1_555
H113 C115 1_555 1_555
H114 N15 1_555 1_555
H115 N16 1_555 1_555
H116 C122 1_555 1_555
H117 C124 1_555 1_555
H118 C127 1_555 1_555
H119 C128 1_555 1_555
H120 C131 1_555 1_555
H121 C133 1_555 1_555
H122 N17 1_555 1_555
H123 N18 1_555 1_555
H124 C140 1_555 1_555
H125 C142 1_555 1_555
H126 C145 1_555 1_555
H127 C146 1_555 1_555
H128 C149 1_555 1_555
H129 C151 1_555 1_555
H130 C157 1_555 1_555
H131 C157 1_555 1_555
H132 C157 1_555 1_555
H133 C158 1_555 1_555
H134 C158 1_555 1_555
H135 C158 1_555 1_555
H136 C159 1_555 1_555
H137 C159 1_555 1_555
H138 C159 1_555 1_555
H139 C161 1_555 1_555
H140 C161 1_555 1_555
H141 C161 1_555 1_555
H142 C162 1_555 1_555
H143 C162 1_555 1_555
H144 C162 1_555 1_555
H145 C163 1_555 1_555
H146 C163 1_555 1_555
H147 C163 1_555 1_555
H148 C165 1_555 1_555
H149 C165 1_555 1_555
H150 C165 1_555 1_555
H151 C166 1_555 1_555
H152 C166 1_555 1_555
H153 C166 1_555 1_555
H154 C167 1_555 1_555
H155 C167 1_555 1_555
H156 C167 1_555 1_555
H157 C169 1_555 1_555
H158 C169 1_555 1_555
H159 C169 1_555 1_555
H160 C170 1_555 1_555
H161 C170 1_555 1_555
H162 C170 1_555 1_555
H163 C171 1_555 1_555
H164 C171 1_555 1_555
H165 C171 1_555 1_555
H166 C172 1_555 1_555
H167 C172 1_555 1_555
H168 C173 1_555 1_555
H169 C173 1_555 1_555
H170 C174 1_555 1_555
H171 C174 1_555 1_555
H173 C175 1_555 1_555
H174 C175 1_555 1_555
H175 C176 1_555 1_555
H176 C176 1_555 1_555
H177 C177 1_555 1_555
H178 C177 1_555 1_555
H179 C178 1_555 1_555
H180 C178 1_555 1_555
H181 C179 1_555 1_555
H182 C179 1_555 1_555
H183 C179 1_555 1_555
H184 C180 1_555 1_555
H185 C180 1_555 1_555
H186 C181 1_555 1_555
H187 C181 1_555 1_555
H188 C182 1_555 1_555
H189 C182 1_555 1_555
H190 C183 1_555 1_555
H191 C183 1_555 1_555
H192 C183 1_555 1_555
H193 C184 1_555 1_555
H194 C184 1_555 1_555
H195 C185 1_555 1_555
H196 C185 1_555 1_555
H197 C186 1_555 1_555
H198 C186 1_555 1_555
H199 C187 1_555 1_555
H200 C187 1_555 1_555
H201 C187 1_555 1_555
H202 C188 1_555 1_555
H203 C188 1_555 1_555
H204 C189 1_555 1_555
H205 C189 1_555 1_555
H206 C190 1_555 1_555
H207 C190 1_555 1_555
H209 C191 1_555 1_555
H210 C191 1_555 1_555
H211 C192 1_555 1_555
H212 C192 1_555 1_555
H213 C193 1_555 1_555
H214 C193 1_555 1_555
H215 C194 1_555 1_555
H216 C194 1_555 1_555
H217 C195 1_555 1_555
H218 C195 1_555 1_555
H219 C195 1_555 1_555
H220 C196 1_555 1_555
H221 C196 1_555 1_555
H222 C197 1_555 1_555
H223 C197 1_555 1_555
H224 C198 1_555 1_555
H225 C198 1_555 1_555
H226 C199 1_555 1_555
H227 C199 1_555 1_555
H228 C199 1_555 1_555
H229 C200 1_555 1_555
H230 C200 1_555 1_555
H231 C201 1_555 1_555
H232 C201 1_555 1_555
H233 C202 1_555 1_555
H234 C202 1_555 1_555
H235 C203 1_555 1_555
H236 C203 1_555 1_555
H237 C203 1_555 1_555
H238 C204 1_555 1_555
H239 C204 1_555 1_555
H240 C205 1_555 1_555
H241 C205 1_555 1_555
H242 C206 1_555 1_555
H243 C206 1_555 1_555
H245 C207 1_555 1_555
H246 C207 1_555 1_555
H247 C208 1_555 1_555
H248 C208 1_555 1_555
H249 C209 1_555 1_555
H250 C209 1_555 1_555
H251 C210 1_555 1_555
H252 C210 1_555 1_555
H253 C211 1_555 1_555
H254 C211 1_555 1_555
H255 C211 1_555 1_555
H256 C212 1_555 1_555
H257 C212 1_555 1_555
H258 C213 1_555 1_555
H259 C213 1_555 1_555
H260 C214 1_555 1_555
H261 C214 1_555 1_555
H262 C215 1_555 1_555
H263 C215 1_555 1_555
H264 C215 1_555 1_555
H265 C216 1_555 1_555
H266 C216 1_555 1_555
H267 C217 1_555 1_555
H268 C217 1_555 1_555
H269 C218 1_555 1_555
H270 C218 1_555 1_555
H271 C219 1_555 1_555
H272 C219 1_555 1_555
H273 C219 1_555 1_555
C10 C11 1_555 1_555
C13 C14 1_555 1_555
C14 C15 1_555 1_555
C17 C18 1_555 1_555
C28 C29 1_555 1_555
C31 C32 1_555 1_555
C32 C33 1_555 1_555
C35 C36 1_555 1_555
C37 C38 1_555 1_555
C39 C40 1_555 1_555
C69 C70 1_555 1_555
C72 C73 1_555 1_555
C73 C74 1_555 1_555
C76 C77 1_555 1_555
C87 C88 1_555 1_555
C90 C91 1_555 1_555
C91 C92 1_555 1_555
C94 C95 1_555 1_555
C96 C97 1_555 1_555
C98 C99 1_555 1_555
C125 C126 1_555 1_555
C128 C129 1_555 1_555
C129 C130 1_555 1_555
C132 C133 1_555 1_555
C143 C144 1_555 1_555
C146 C147 1_555 1_555
C147 C148 1_555 1_555
C150 C151 1_555 1_555
C152 C153 1_555 1_555
C154 C155 1_555 1_555

#END
