
#######################################################################
#
#                 Cambridge Crystallographic Data Centre
#                                CCDC 
#
#######################################################################
#
# If this CIF has been generated from an entry in the Cambridge 
# Structural Database, then it will include bibliographic, chemical, 
# crystal, experimental, refinement or atomic coordinate data resulting 
# from the CCDC's data processing and validation procedures.
#
#######################################################################

data_HIGSEW
_chemical_formula_moiety         
'C40 H58 Cl1 N20 O14 Sr2 3+,3(Cl1 1-),2(H1 Cl1),19(H2 O1)'
_chemical_name_systematic        
'(\m~2~-Chloro)-(\m~2~-decamethylcucurbit[5]uril)-tetraaqua-di-strontium trichloride bis(hydrogen chloride) nonadecahydrate'
_symmetry_cell_setting           triclinic
_symmetry_space_group_name_H-M   'P -1'
_symmetry_Int_Tables_number      2
_space_group_name_Hall           '-P 1'
loop_
_symmetry_equiv_pos_site_id
_symmetry_equiv_pos_as_xyz
1 x,y,z
2 -x,-y,-z
_cell_length_a                   16.100(4)
_cell_length_b                   16.105(4)
_cell_length_c                   16.465(4)
_cell_angle_alpha                65.370(3)
_cell_angle_beta                 80.916(3)
_cell_angle_gamma                65.687(3)
_cell_volume                     3536.12
_cell_formula_units_Z            2
loop_
_atom_site_label
_atom_site_type_symbol
_atom_site_fract_x
_atom_site_fract_y
_atom_site_fract_z
Cl1 Cl 0.67530(11) 0.75238(12) 0.32075(11)
O1 O 0.8336(3) 0.7973(3) 0.5701(3)
O2 O 0.4116(3) 0.7049(3) 0.1761(3)
O3 O 0.8827(3) 0.9214(4) 0.3998(3)
O4 O 0.5875(3) 0.5845(3) 0.1246(3)
C1 C 0.8655(4) 0.8248(4) 0.2122(4)
C2 C 0.8856(4) 0.7470(4) 0.1127(4)
C3 C 0.8166(4) 0.8599(4) 0.0701(4)
C4 C 0.7393(4) 0.7550(4) 0.0940(4)
C5 C 0.7631(4) 0.9945(4) 0.1369(4)
H1 H 0.7945 1.0063 0.1742
H2 H 0.7633 1.0409 0.0760
C6 C 0.6467(4) 0.9306(4) 0.0260(4)
H3 H 0.6606 0.9825 -0.0234
H4 H 0.6138 0.9072 0.0015
C7 C 0.6464(4) 1.0110(4) 0.2487(4)
C8 C 0.5910(4) 1.0500(4) 0.1083(4)
C9 C 0.5086(4) 1.0661(4) 0.1742(4)
C10 C 0.5208(4) 0.9399(4) 0.1315(3)
C11 C 0.5088(4) 1.0482(4) 0.3385(4)
H5 H 0.5462 1.0621 0.3679
H6 H 0.4509 1.1043 0.3229
C12 C 0.3971(4) 0.9759(4) 0.2316(4)
H7 H 0.3719 0.9481 0.2043
H8 H 0.3503 1.0389 0.2289
C13 C 0.5549(4) 0.8897(4) 0.4660(4)
C14 C 0.4139(4) 0.9381(4) 0.3989(4)
C15 C 0.4338(4) 0.8374(4) 0.4832(4)
C16 C 0.4326(4) 0.8128(4) 0.3524(4)
C17 C 0.5713(4) 0.7345(4) 0.5929(4)
H9 H 0.5284 0.7181 0.6390
H10 H 0.6099 0.7528 0.6161
C18 C 0.4511(4) 0.6670(4) 0.4900(4)
H11 H 0.4196 0.6605 0.5463
H12 H 0.4208 0.6514 0.4550
C19 C 0.7184(4) 0.6235(4) 0.5607(4)
C20 C 0.6003(4) 0.5662(4) 0.5842(4)
C21 C 0.6926(4) 0.4870(4) 0.5685(4)
C22 C 0.5889(4) 0.5516(4) 0.4501(4)
C23 C 0.8554(4) 0.4887(4) 0.5477(4)
H13 H 0.8839 0.5143 0.5742
H14 H 0.8756 0.4179 0.5819
C24 C 0.7364(4) 0.4259(4) 0.4385(4)
H15 H 0.7018 0.4158 0.4029
H16 H 0.7714 0.3616 0.4828
C25 C 0.9121(4) 0.5844(4) 0.4085(4)
C26 C 0.8904(4) 0.4495(4) 0.4054(4)
C27 C 0.9300(4) 0.5028(4) 0.3138(4)
C28 C 0.7830(4) 0.5187(4) 0.2915(4)
C29 C 0.9748(4) 0.6538(4) 0.2629(4)
H17 H 0.9998 0.6771 0.2950
H18 H 1.0244 0.6213 0.2308
C30 C 0.8580(4) 0.5876(4) 0.1555(4)
H19 H 0.8199 0.5716 0.1290
H20 H 0.9199 0.5609 0.1362
C31 C 0.9683(4) 0.7189(5) 0.0585(4)
H21 H 1.0045 0.7552 0.0546
H22 H 0.9499 0.7342 -0.0004
H23 H 1.0037 0.6492 0.0866
C32 C 0.8426(5) 0.9227(5) -0.0193(4)
H24 H 0.8987 0.9273 -0.0129
H25 H 0.7953 0.9878 -0.0405
H26 H 0.8503 0.8930 -0.0613
C33 C 0.5880(4) 1.1406(4) 0.0257(4)
H27 H 0.5361 1.1626 -0.0108
H28 H 0.6427 1.1243 -0.0075
H29 H 0.5833 1.1924 0.0430
C34 C 0.4351(4) 1.1702(4) 0.1441(4)
H30 H 0.4066 1.1853 0.0900
H31 H 0.4621 1.2169 0.1337
H32 H 0.3902 1.1740 0.1898
C35 C 0.3244(4) 1.0228(4) 0.3985(4)
H33 H 0.2745 1.0050 0.3983
H34 H 0.3205 1.0810 0.3461
H35 H 0.3218 1.0358 0.4509
C36 C 0.5566(4) 0.5313(5) 0.6723(4)
H36 H 0.5390 0.4795 0.6764
H37 H 0.5036 0.5855 0.6774
H38 H 0.5991 0.5066 0.7198
C37 C 0.7219(4) 0.3850(4) 0.6413(4)
H39 H 0.6771 0.3580 0.6472
H40 H 0.7280 0.3886 0.6967
H41 H 0.7795 0.3433 0.6265
C38 C 0.9454(4) 0.3397(4) 0.4540(4)
H42 H 1.0046 0.3302 0.4695
H43 H 0.9518 0.3058 0.4159
H44 H 0.9145 0.3137 0.5074
C39 C 1.0192(4) 0.4375(4) 0.2868(4)
H45 H 1.0102 0.3861 0.2786
H46 H 1.0645 0.4084 0.3328
H47 H 1.0394 0.4768 0.2319
C40 C 0.3620(4) 0.8385(5) 0.5549(4)
H48 H 0.3055 0.8510 0.5309
H49 H 0.3536 0.8897 0.5746
H50 H 0.3815 0.7756 0.6045
N1 N 0.9086(3) 0.7378(3) 0.1989(3)
N2 N 0.8135(3) 0.8947(3) 0.1407(3)
N3 N 0.8279(3) 0.6941(3) 0.1216(3)
N4 N 0.7318(3) 0.8494(3) 0.0655(3)
N5 N 0.6699(3) 1.0144(3) 0.1655(3)
N6 N 0.5534(3) 1.0395(3) 0.2564(3)
N7 N 0.5875(3) 0.9728(3) 0.0862(3)
N8 N 0.4734(3) 0.9938(3) 0.1798(3)
N9 N 0.4930(3) 0.9627(3) 0.4002(3)
N10 N 0.5216(3) 0.8181(3) 0.5171(3)
N11 N 0.4184(3) 0.9099(3) 0.3249(3)
N12 N 0.4417(3) 0.7691(3) 0.4427(3)
N13 N 0.6284(3) 0.6460(3) 0.5750(3)
N14 N 0.7573(3) 0.5333(3) 0.5558(3)
N15 N 0.5431(3) 0.5956(3) 0.5081(3)
N16 N 0.6733(3) 0.4866(3) 0.4843(3)
N17 N 0.8868(3) 0.5058(3) 0.4571(3)
N18 N 0.9409(3) 0.5810(3) 0.3275(3)
N19 N 0.7995(3) 0.4686(3) 0.3805(3)
N20 N 0.8559(3) 0.5395(3) 0.2506(3)
O5 O 0.8746(3) 0.8354(3) 0.2786(2)
O6 O 0.6987(3) 0.9884(3) 0.3080(3)
O7 O 0.6268(3) 0.8898(3) 0.4793(3)
O8 O 0.7578(3) 0.6764(3) 0.5538(2)
O9 O 0.9138(3) 0.6439(3) 0.4352(2)
O10 O 0.6793(3) 0.7281(3) 0.0938(3)
O11 O 0.5060(3) 0.8744(3) 0.1252(2)
O12 O 0.4341(3) 0.7719(3) 0.3038(3)
O13 O 0.5578(3) 0.5655(3) 0.3802(2)
O14 O 0.7128(3) 0.5404(3) 0.2529(3)
Sr1 Sr 0.78671(4) 0.81306(4) 0.42195(3)
Sr2 Sr 0.56524(4) 0.68901(4) 0.21952(3)
Cl2 Cl 0.78042(17) 0.49285(18) 0.78427(17)
Cl3 Cl 0.59817(18) 1.26802(18) 0.18620(18)
Cl4 Cl 0.19485(18) 0.8670(2) 0.3958(2)
Cl5 Cl 0.81392(18) 0.7540(2) -0.12287(19)
Cl6 Cl 1.0749(2) 0.8564(3) 0.1346(2)
O15 O 0.2529(3) 1.2780(3) 0.2743(3)
O16 O 0.7436(3) 1.1425(4) -0.1952(4)
O17 O 0.8060(5) 1.1175(4) 0.2846(5)
O18 O 0.5595(4) 1.3972(5) -0.0407(4)
O19 O 0.3285(4) 0.6229(4) 0.7416(5)
O20 O 0.7203(5) 0.5854(5) -0.0138(4)
O21 O 0.6050(5) 0.5668(4) -0.1177(4)
O22 O 0.9511(5) 0.1705(6) 0.6676(5)
O23 O 0.9261(5) 0.9213(6) 0.5662(5)
O24 O 1.2375(7) 0.6998(7) 0.1006(6)
O25 O 0.9390(7) 1.0496(10) 0.0755(7)
O26 O 0.9383(6) 1.1268(8) 0.1693(6)
O27 O 1.1173(6) 0.8420(9) 0.5883(8)
O28 O 1.2338(7) 0.7324(9) -0.0645(6)
O29 O 0.9159(9) 0.9005(12) -0.2403(8)
O30 O 0.8397(8) 0.3922(10) 0.0595(10)
O31 O 0.1556(10) 0.6799(11) 0.7337(12)
O32 O 1.038(2) 0.4515(13) 0.0594(11)
O33 O 0.9581(17) 0.3410(19) 0.154(2)
loop_
_geom_bond_atom_site_label_1
_geom_bond_atom_site_label_2
_geom_bond_site_symmetry_1
_geom_bond_site_symmetry_2
Cl1 Sr1 1_555 1_555
O1 Sr1 1_555 1_555
O2 Sr2 1_555 1_555
O3 Sr1 1_555 1_555
O4 Sr2 1_555 1_555
C1 N1 1_555 1_555
C2 C3 1_555 1_555
C3 C32 1_555 1_555
C4 N3 1_555 1_555
C5 H1 1_555 1_555
H2 C5 1_555 1_555
C6 H3 1_555 1_555
H4 C6 1_555 1_555
C7 N5 1_555 1_555
C8 C9 1_555 1_555
C9 C34 1_555 1_555
C10 N7 1_555 1_555
C11 H5 1_555 1_555
H6 C11 1_555 1_555
C12 H7 1_555 1_555
H8 C12 1_555 1_555
C13 N9 1_555 1_555
C14 C15 1_555 1_555
C15 C40 1_555 1_555
C16 N11 1_555 1_555
C17 H9 1_555 1_555
H10 C17 1_555 1_555
C18 H11 1_555 1_555
H12 C18 1_555 1_555
C19 N13 1_555 1_555
C20 C21 1_555 1_555
C21 C37 1_555 1_555
C22 N15 1_555 1_555
C23 H13 1_555 1_555
H14 C23 1_555 1_555
C24 H15 1_555 1_555
H16 C24 1_555 1_555
C25 N17 1_555 1_555
C26 C27 1_555 1_555
C27 C39 1_555 1_555
C28 N19 1_555 1_555
C29 H17 1_555 1_555
H18 C29 1_555 1_555
C30 H19 1_555 1_555
H20 C30 1_555 1_555
C31 C2 1_555 1_555
H21 C31 1_555 1_555
H22 C31 1_555 1_555
H23 C31 1_555 1_555
C32 H24 1_555 1_555
H25 C32 1_555 1_555
H26 C32 1_555 1_555
C33 C8 1_555 1_555
H27 C33 1_555 1_555
H28 C33 1_555 1_555
H29 C33 1_555 1_555
C34 H30 1_555 1_555
H31 C34 1_555 1_555
H32 C34 1_555 1_555
C35 C14 1_555 1_555
H33 C35 1_555 1_555
H34 C35 1_555 1_555
H35 C35 1_555 1_555
C36 C20 1_555 1_555
H36 C36 1_555 1_555
H37 C36 1_555 1_555
H38 C36 1_555 1_555
C37 H39 1_555 1_555
H40 C37 1_555 1_555
H41 C37 1_555 1_555
C38 C26 1_555 1_555
H42 C38 1_555 1_555
H43 C38 1_555 1_555
H44 C38 1_555 1_555
C39 H45 1_555 1_555
H46 C39 1_555 1_555
H47 C39 1_555 1_555
C40 H48 1_555 1_555
H49 C40 1_555 1_555
H50 C40 1_555 1_555
N1 C2 1_555 1_555
N2 C1 1_555 1_555
N3 C2 1_555 1_555
N4 C3 1_555 1_555
N5 C5 1_555 1_555
N6 C7 1_555 1_555
N7 C6 1_555 1_555
N8 C9 1_555 1_555
N9 C11 1_555 1_555
N10 C13 1_555 1_555
N11 C12 1_555 1_555
N12 C15 1_555 1_555
N13 C17 1_555 1_555
N14 C19 1_555 1_555
N15 C18 1_555 1_555
N16 C21 1_555 1_555
N17 C23 1_555 1_555
N18 C25 1_555 1_555
N19 C24 1_555 1_555
N20 C27 1_555 1_555
O5 C1 1_555 1_555
O6 C7 1_555 1_555
O7 C13 1_555 1_555
O8 C19 1_555 1_555
O9 C25 1_555 1_555
O10 C4 1_555 1_555
O11 C10 1_555 1_555
O12 C16 1_555 1_555
O13 C22 1_555 1_555
O14 C28 1_555 1_555
Sr1 O5 1_555 1_555
Sr2 Cl1 1_555 1_555
C3 N2 1_555 1_555
C4 N4 1_555 1_555
C5 N2 1_555 1_555
C6 N4 1_555 1_555
C8 N5 1_555 1_555
C8 N7 1_555 1_555
C9 N6 1_555 1_555
C10 N8 1_555 1_555
C11 N6 1_555 1_555
C12 N8 1_555 1_555
C14 N9 1_555 1_555
C14 N11 1_555 1_555
C15 N10 1_555 1_555
C16 N12 1_555 1_555
C17 N10 1_555 1_555
C18 N12 1_555 1_555
C20 N13 1_555 1_555
C20 N15 1_555 1_555
C21 N14 1_555 1_555
C22 N16 1_555 1_555
C23 N14 1_555 1_555
C24 N16 1_555 1_555
C26 N17 1_555 1_555
C26 N19 1_555 1_555
C27 N18 1_555 1_555
C28 N20 1_555 1_555
C29 N1 1_555 1_555
C29 N18 1_555 1_555
C30 N3 1_555 1_555
C30 N20 1_555 1_555
O6 Sr1 1_555 1_555
O7 Sr1 1_555 1_555
O8 Sr1 1_555 1_555
O9 Sr1 1_555 1_555
O10 Sr2 1_555 1_555
O11 Sr2 1_555 1_555
O12 Sr2 1_555 1_555
O13 Sr2 1_555 1_555
O14 Sr2 1_555 1_555

#END
