
#######################################################################
#
#                 Cambridge Crystallographic Data Centre
#                                CCDC 
#
#######################################################################
#
# If this CIF has been generated from an entry in the Cambridge 
# Structural Database, then it will include bibliographic, chemical, 
# crystal, experimental, refinement or atomic coordinate data resulting 
# from the CCDC's data processing and validation procedures.
#
#######################################################################

data_HIGTAU
_chemical_name_common            
'Norfloxacin hydrogen 5-aminoisophthalate hydrate'
_chemical_formula_moiety         'C16 H19 F1 N3 O3 1+,C8 H6 N1 O4 1-,3.5(H2 O1)'
_chemical_name_systematic        
'4-(3-Carboxy-1-ethyl-6-fluoro-4-oxo-1,4-dihydroquinolin-7-yl)piperazin-1-ium 3-amino-5-carboxybenzoate hydrate'
_chemical_properties_biological  'antibacterial activity'
_symmetry_cell_setting           monoclinic
_symmetry_space_group_name_H-M   'P 21/c'
_symmetry_Int_Tables_number      14
_space_group_name_Hall           '-P 2ybc'
loop_
_symmetry_equiv_pos_site_id
_symmetry_equiv_pos_as_xyz
1 x,y,z
2 -x,1/2+y,1/2-z
3 -x,-y,-z
4 x,1/2-y,1/2+z
_cell_length_a                   9.964(3)
_cell_length_b                   14.760(4)
_cell_length_c                   18.275(5)
_cell_angle_alpha                90
_cell_angle_beta                 90.283(5)
_cell_angle_gamma                90
_cell_volume                     2687.65
_exptl_crystal_colour            yellow
_exptl_crystal_description       block
_cell_formula_units_Z            4
loop_
_atom_site_label
_atom_site_type_symbol
_atom_site_fract_x
_atom_site_fract_y
_atom_site_fract_z
C1 C 0.3861(3) 0.4562(2) 0.27944(17)
H1 H 0.3795 0.4566 0.3324
H2 H 0.3858 0.3936 0.2631
C2 C 0.2692(3) 0.5054(2) 0.24678(14)
H3 H 0.1865 0.4754 0.2607
H4 H 0.2667 0.5668 0.2655
C3 C 0.4034(3) 0.5492(2) 0.14354(15)
H5 H 0.4046 0.6122 0.1585
H6 H 0.4089 0.5471 0.0906
C4 C 0.5221(3) 0.5009(2) 0.17631(15)
H7 H 0.5253 0.4392 0.1583
H8 H 0.6042 0.5312 0.1620
C5 C 0.1635(2) 0.53456(17) 0.13004(12)
C6 C 0.0432(3) 0.48671(18) 0.13962(13)
C7 C -0.0711(2) 0.50904(18) 0.10571(13)
H9 H -0.1491 0.4766 0.1152
C8 C -0.0741(2) 0.58085(17) 0.05611(13)
C9 C 0.0443(2) 0.62791(17) 0.04338(13)
C10 C 0.1605(2) 0.60533(17) 0.08167(13)
H10 H 0.2380 0.6391 0.0742
C11 C -0.1960(3) 0.60396(19) 0.01869(14)
C12 C -0.1863(3) 0.6748(2) -0.03283(15)
C13 C -0.0682(3) 0.7185(2) -0.04213(16)
H11 H -0.0653 0.7655 -0.0760
N1 N 0.0430(2) 0.69871(16) -0.00611(13)
C14 C 0.1643(3) 0.7521(2) -0.02119(19)
H12 H 0.2108 0.7645 0.0245
H13 H 0.1386 0.8097 -0.0427
C15 C 0.2571(4) 0.7040(3) -0.0718(2)
H14 H 0.2872 0.6488 -0.0494
H15 H 0.3330 0.7420 -0.0820
H16 H 0.2108 0.6903 -0.1166
C16 C -0.3029(3) 0.7040(3) -0.0761(2)
F1 F 0.04400(18) 0.41385(12) 0.18336(10)
N2 N 0.5112(2) 0.50051(16) 0.25683(12)
H17 H 0.5818 0.4709 0.2763
H18 H 0.5127 0.5578 0.2736
N3 N 0.2795(2) 0.50739(15) 0.16703(12)
O1 O -0.30395(19) 0.56273(17) 0.03097(12)
O2 O -0.4149(2) 0.6633(2) -0.06129(14)
H19 H -0.4048 0.6314 -0.0249
O3 O -0.2970(3) 0.7621(2) -0.12221(19)
C17 C -0.2496(3) 0.3468(2) 0.29773(17)
C18 C -0.1128(3) 0.30681(18) 0.30118(15)
C19 C -0.0814(3) 0.23415(19) 0.25793(16)
H20 H -0.1456 0.2096 0.2266
C20 C 0.0468(3) 0.19738(19) 0.26112(15)
C21 C 0.1408(3) 0.2323(2) 0.30850(16)
H21 H 0.2258 0.2066 0.3110
C22 C 0.1101(3) 0.3054(2) 0.35255(16)
C23 C -0.0170(3) 0.34242(19) 0.34786(15)
H22 H -0.0384 0.3923 0.3767
C24 C 0.0760(3) 0.1194(2) 0.21413(16)
N4 N 0.2044(3) 0.3415(2) 0.39942(16)
H23 H 0.1844 0.3876 0.4261
H24 H 0.2833 0.3181 0.4020
O4 O -0.3430(3) 0.3036(2) 0.2715(2)
O5 O -0.2663(2) 0.42484(14) 0.32384(14)
O6 O 0.0075(2) 0.09837(17) 0.16224(14)
O7 O 0.1824(2) 0.07451(15) 0.23406(13)
H25 H 0.1947 0.0324 0.2056
O8 O 0.4995(4) 0.2748(3) 0.4094(2)
H26 H 0.4935 0.3260 0.4266
H27 H 0.5625 0.2414 0.4200
O9 O 0.5080(3) 0.1770(2) 0.1991(2)
H28 H 0.5798 0.2039 0.2028
H29 H 0.4475 0.1851 0.2287
O10 O 0.4778(13) 0.8958(8) 0.9550(3)
H30 H 0.4122 0.9214 0.9724
H31 H 0.5334 0.8706 0.9812
O11 O 0.3172(14) 0.9663(10) 0.0300(7)
H32 H 0.3729 0.9992 0.0498
H33 H 0.2405 0.9839 0.0212
O12 O 0.0886(13) 0.0344(10) 0.0209(7)
H34 H 0.0788 0.0076 -0.0181
H35 H 0.1635 0.0438 0.0381
loop_
_geom_bond_atom_site_label_1
_geom_bond_atom_site_label_2
_geom_bond_site_symmetry_1
_geom_bond_site_symmetry_2
C1 H1 1_555 1_555
H2 C1 1_555 1_555
C2 C1 1_555 1_555
H3 C2 1_555 1_555
H4 C2 1_555 1_555
C3 H5 1_555 1_555
H6 C3 1_555 1_555
C4 C3 1_555 1_555
H7 C4 1_555 1_555
H8 C4 1_555 1_555
C5 C6 1_555 1_555
C6 C7 1_555 1_555
C7 H9 1_555 1_555
C8 C7 1_555 1_555
C9 C8 1_555 1_555
C10 C5 1_555 1_555
H10 C10 1_555 1_555
C11 C8 1_555 1_555
C12 C11 1_555 1_555
C13 C12 1_555 1_555
H11 C13 1_555 1_555
N1 C9 1_555 1_555
C14 N1 1_555 1_555
H12 C14 1_555 1_555
H13 C14 1_555 1_555
C15 C14 1_555 1_555
H14 C15 1_555 1_555
H15 C15 1_555 1_555
H16 C15 1_555 1_555
C16 C12 1_555 1_555
F1 C6 1_555 1_555
N2 C1 1_555 1_555
H17 N2 1_555 1_555
H18 N2 1_555 1_555
N3 C2 1_555 1_555
O1 C11 1_555 1_555
O2 C16 1_555 1_555
H19 O2 1_555 1_555
O3 C16 1_555 1_555
C17 C18 1_555 1_555
C18 C19 1_555 1_555
C19 H20 1_555 1_555
C20 C19 1_555 1_555
C21 C20 1_555 1_555
H21 C21 1_555 1_555
C22 C21 1_555 1_555
C23 C18 1_555 1_555
H22 C23 1_555 1_555
C24 C20 1_555 1_555
N4 C22 1_555 1_555
H23 N4 1_555 1_555
H24 N4 1_555 1_555
O4 C17 1_555 1_555
O5 C17 1_555 1_555
O6 C24 1_555 1_555
O7 C24 1_555 1_555
H25 O7 1_555 1_555
O8 H26 1_555 1_555
H27 O8 1_555 1_555
O9 H28 1_555 1_555
H29 O9 1_555 1_555
O10 H30 1_555 1_555
H31 O10 1_555 1_555
O11 H32 1_555 1_555
H33 O11 1_555 1_555
O12 H34 1_555 1_555
H35 O12 1_555 1_555
C3 N3 1_555 1_555
C4 N2 1_555 1_555
C5 N3 1_555 1_555
C9 C10 1_555 1_555
C13 N1 1_555 1_555
C22 C23 1_555 1_555

#END
