
#######################################################################
#
#                 Cambridge Crystallographic Data Centre
#                                CCDC 
#
#######################################################################
#
# If this CIF has been generated from an entry in the Cambridge 
# Structural Database, then it will include bibliographic, chemical, 
# crystal, experimental, refinement or atomic coordinate data resulting 
# from the CCDC's data processing and validation procedures.
#
#######################################################################

data_HIGTEZ
_chemical_name_common            '(-)-eptazocine hydrobromide'
_chemical_formula_moiety         'C15 H22 N1 O1 1+,Br1 1-'
_chemical_name_systematic        
'10-hydroxy-1,4-dimethyl-2,3,4,5,6,7-hexahydro-1H-1,6-methano-4-benzazonin-4-ium bromide'
_symmetry_cell_setting           monoclinic
_symmetry_space_group_name_H-M   'P 21'
_symmetry_Int_Tables_number      4
_space_group_name_Hall           'P 2yb'
loop_
_symmetry_equiv_pos_site_id
_symmetry_equiv_pos_as_xyz
1 x,y,z
2 -x,1/2+y,-z
_cell_length_a                   7.5964(3)
_cell_length_b                   16.0907(6)
_cell_length_c                   12.1098(5)
_cell_angle_alpha                90
_cell_angle_beta                 99.736(2)
_cell_angle_gamma                90
_cell_volume                     1458.88
_exptl_crystal_colour            colorless
_exptl_crystal_description       block
_cell_formula_units_Z            4
loop_
_atom_site_label
_atom_site_type_symbol
_atom_site_fract_x
_atom_site_fract_y
_atom_site_fract_z
Br1 Br 0.09787(3) 0.195488(12) 0.978782(16)
Br2 Br 0.09961(2) 0.203225(11) 0.457124(16)
C1 C 0.40402(16) 0.45796(8) 0.29929(12)
C2 C 0.10170(18) 0.52119(10) 0.24147(14)
H1 H 0.0116 0.5342 0.1770
H2 H 0.0506 0.4802 0.2856
C3 C 0.56688(19) 0.49993(10) 0.32238(16)
C4 C 0.4616(2) 0.60712(10) 0.17230(15)
H3 H 0.5070 0.6359 0.1116
C5 C 0.6207(2) 0.56454(14) 0.2436(2)
H4 H 0.6925 0.5381 0.1945
H5 H 0.6942 0.6063 0.2871
C6 C 0.26114(18) 0.48100(9) 0.19899(13)
C7 C 0.1388(2) 0.59929(11) 0.31136(14)
H6 H 0.0327 0.6137 0.3419
H7 H 0.2338 0.5880 0.3738
N1 N 0.19159(18) 0.67238(8) 0.24684(12)
H8 H 0.1309 0.6690 0.1754
C8 C 0.3334(2) 0.54038(10) 0.11822(14)
H9 H 0.3938 0.5077 0.0687
H10 H 0.2328 0.5675 0.0723
C9 C 0.3866(3) 0.67398(12) 0.2419(2)
H11 H 0.4509 0.6702 0.3181
H12 H 0.4140 0.7278 0.2130
C10 C 0.36680(19) 0.39510(9) 0.37195(13)
H13 H 0.2584 0.3670 0.3567
C11 C 0.4891(2) 0.37411(9) 0.46610(14)
O1 O 0.45858(19) 0.31179(9) 0.53702(13)
H14 H 0.3656 0.2877 0.5112
C12 C 0.1926(3) 0.40302(11) 0.13208(16)
H15 H 0.2910 0.3749 0.1079
H16 H 0.1071 0.4188 0.0678
H17 H 0.1371 0.3665 0.1786
C13 C 0.6856(2) 0.47899(11) 0.42007(18)
H18 H 0.7926 0.5080 0.4375
C14 C 0.6492(2) 0.41698(11) 0.49086(17)
H19 H 0.7310 0.4039 0.5547
C15 C 0.1393(3) 0.75160(12) 0.29671(19)
H20 H 0.0116 0.7542 0.2893
H21 H 0.1812 0.7979 0.2583
H22 H 0.1916 0.7537 0.3746
O2 O 0.51536(17) 0.78304(8) 0.01388(12)
H23 H 0.6220 0.7715 0.0232
C16 C 0.59787(17) 0.96232(9) 0.20581(12)
C17 C 0.6282(2) 0.89161(9) 0.14445(14)
H24 H 0.7430 0.8698 0.1519
C18 C 0.6829(2) 1.04865(10) 0.37930(14)
H25 H 0.6471 1.0066 0.4285
H26 H 0.7810 1.0796 0.4221
C19 C 0.8455(2) 1.06513(12) 0.21133(16)
H27 H 0.9577 1.0820 0.2565
H28 H 0.8744 1.0344 0.1478
C20 C 0.42586(19) 0.99529(10) 0.19377(15)
C21 C 0.75175(18) 1.00460(10) 0.28216(14)
C22 C 0.4909(2) 0.85354(10) 0.07303(14)
C23 C 0.2903(2) 0.95627(13) 0.11988(18)
H29 H 0.1757 0.9785 0.1102
C24 C 0.3197(2) 0.88583(13) 0.06048(18)
H30 H 0.2261 0.8605 0.0129
C25 C 0.8944(3) 0.94174(13) 0.3342(2)
H31 H 0.8398 0.8997 0.3734
H32 H 0.9849 0.9699 0.3857
H33 H 0.9476 0.9164 0.2760
C26 C 0.5259(2) 1.10819(11) 0.34496(14)
H34 H 0.4731 1.1148 0.4129
C27 C 0.3772(2) 1.06892(13) 0.2597(2)
H35 H 0.2824 1.0518 0.2993
H36 H 0.3285 1.1117 0.2068
N2 N 0.74092(18) 1.20295(10) 0.26184(11)
H37 H 0.8372 1.1917 0.3154
C28 C 0.5791(2) 1.19564(13) 0.31675(18)
H38 H 0.4791 1.2208 0.2678
H39 H 0.5998 1.2278 0.3854
C29 C 0.7469(3) 1.14258(11) 0.16722(15)
H40 H 0.6263 1.1284 0.1321
H41 H 0.8066 1.1682 0.1111
C30 C 0.7595(3) 1.29120(14) 0.2264(2)
H42 H 0.6574 1.3064 0.1721
H43 H 0.8657 1.2968 0.1938
H44 H 0.7675 1.3270 0.2905
loop_
_geom_bond_atom_site_label_1
_geom_bond_atom_site_label_2
_geom_bond_site_symmetry_1
_geom_bond_site_symmetry_2
C1 C3 1_555 1_555
C2 H1 1_555 1_555
H2 C2 1_555 1_555
C3 C5 1_555 1_555
C4 H3 1_555 1_555
C5 C4 1_555 1_555
H4 C5 1_555 1_555
H5 C5 1_555 1_555
C6 C1 1_555 1_555
C7 C2 1_555 1_555
H6 C7 1_555 1_555
H7 C7 1_555 1_555
N1 C7 1_555 1_555
H8 N1 1_555 1_555
C8 C4 1_555 1_555
H9 C8 1_555 1_555
H10 C8 1_555 1_555
C9 C4 1_555 1_555
H11 C9 1_555 1_555
H12 C9 1_555 1_555
C10 C1 1_555 1_555
H13 C10 1_555 1_555
C11 C10 1_555 1_555
O1 C11 1_555 1_555
H14 O1 1_555 1_555
C12 C6 1_555 1_555
H15 C12 1_555 1_555
H16 C12 1_555 1_555
H17 C12 1_555 1_555
C13 C3 1_555 1_555
H18 C13 1_555 1_555
C14 C11 1_555 1_555
H19 C14 1_555 1_555
C15 N1 1_555 1_555
H20 C15 1_555 1_555
H21 C15 1_555 1_555
H22 C15 1_555 1_555
O2 H23 1_555 1_555
C16 C17 1_555 1_555
C17 H24 1_555 1_555
C18 H25 1_555 1_555
H26 C18 1_555 1_555
C19 H27 1_555 1_555
H28 C19 1_555 1_555
C20 C16 1_555 1_555
C21 C16 1_555 1_555
C22 O2 1_555 1_555
C23 C20 1_555 1_555
H29 C23 1_555 1_555
C24 C22 1_555 1_555
H30 C24 1_555 1_555
C25 C21 1_555 1_555
H31 C25 1_555 1_555
H32 C25 1_555 1_555
H33 C25 1_555 1_555
C26 C18 1_555 1_555
H34 C26 1_555 1_555
C27 C20 1_555 1_555
H35 C27 1_555 1_555
H36 C27 1_555 1_555
N2 H37 1_555 1_555
C28 C26 1_555 1_555
H38 C28 1_555 1_555
H39 C28 1_555 1_555
C29 C19 1_555 1_555
H40 C29 1_555 1_555
H41 C29 1_555 1_555
C30 N2 1_555 1_555
H42 C30 1_555 1_555
H43 C30 1_555 1_555
H44 C30 1_555 1_555
C2 C6 1_555 1_555
C6 C8 1_555 1_555
N1 C9 1_555 1_555
C13 C14 1_555 1_555
C17 C22 1_555 1_555
C18 C21 1_555 1_555
C19 C21 1_555 1_555
C23 C24 1_555 1_555
C26 C27 1_555 1_555
N2 C28 1_555 1_555
N2 C29 1_555 1_555

#END
