
#######################################################################
#
#                 Cambridge Crystallographic Data Centre
#                                CCDC 
#
#######################################################################
#
# If this CIF has been generated from an entry in the Cambridge 
# Structural Database, then it will include bibliographic, chemical, 
# crystal, experimental, refinement or atomic coordinate data resulting 
# from the CCDC's data processing and validation procedures.
#
#######################################################################

data_HIGVOL
_chemical_formula_moiety         'C7 H5 F3 I1 1+,C7 H5 Cl1 F3 I1,Cl1 1-'
_chemical_name_systematic        
'phenyl(trifluoromethyl)iodanium chloro(phenyl)trifluoromethyliodane chloride'
_symmetry_cell_setting           triclinic
_symmetry_space_group_name_H-M   'P -1'
_symmetry_Int_Tables_number      2
_space_group_name_Hall           '-P 1'
loop_
_symmetry_equiv_pos_site_id
_symmetry_equiv_pos_as_xyz
1 x,y,z
2 -x,-y,-z
_cell_length_a                   9.3504(17)
_cell_length_b                   9.5266(17)
_cell_length_c                   10.993(2)
_cell_angle_alpha                93.766(3)
_cell_angle_beta                 94.796(3)
_cell_angle_gamma                100.268(3)
_cell_volume                     956.925
_exptl_crystal_colour            white
_exptl_crystal_description       block
_cell_formula_units_Z            2
loop_
_atom_site_label
_atom_site_type_symbol
_atom_site_fract_x
_atom_site_fract_y
_atom_site_fract_z
C1 C 0.8108(11) 0.2957(9) -0.1919(8)
H1 H 0.8332 0.2923 -0.2727
C2 C 0.9235(10) 0.3167(10) -0.0932(9)
H2 H 1.0204 0.3263 -0.1101
C3 C 0.8923(9) 0.3226(10) 0.0227(8)
H3 H 0.9669 0.3392 0.0864
C4 C 0.7479(8) 0.3038(8) 0.0474(7)
C5 C 0.6353(9) 0.2849(9) -0.0451(7)
H4 H 0.5388 0.2753 -0.0270
C6 C 0.6686(10) 0.2807(9) -0.1648(7)
H5 H 0.5937 0.2675 -0.2280
C7 C 0.7016(15) 0.0809(10) 0.2303(9)
F1 F 0.6179(10) 0.0092(7) 0.1365(8)
F2 F 0.8325(10) 0.0567(8) 0.2045(10)
F3 F 0.6701(18) 0.0301(9) 0.3255(9)
I1 I 0.69530(6) 0.31187(5) 0.23087(4)
C8 C 0.2569(11) 0.2019(10) 0.0807(7)
H6 H 0.2424 0.1869 -0.0043
C9 C 0.2836(10) 0.3351(10) 0.1348(8)
H7 H 0.2885 0.4120 0.0865
C10 C 0.3040(9) 0.3613(9) 0.2611(7)
H8 H 0.3228 0.4546 0.2974
C11 C 0.2960(10) 0.2475(9) 0.3312(8)
C12 C 0.2695(13) 0.1089(9) 0.2820(8)
H9 H 0.2639 0.0332 0.3317
C13 C 0.2509(14) 0.0842(10) 0.1528(9)
H10 H 0.2349 -0.0086 0.1158
C14 C 0.0825(14) 0.2711(18) 0.5215(12)
Cl1 Cl 0.6244(3) 0.2985(3) 0.50272(19)
F4 F 0.0211(9) 0.253(2) 0.4185(10)
F5 F 0.0509(9) 0.3896(11) 0.5763(10)
F6 F 0.0351(10) 0.1794(11) 0.5966(13)
I2 I 0.32367(6) 0.28963(6) 0.52420(4)
Cl2 Cl 0.6877(3) 0.6043(2) 0.19984(18)
loop_
_geom_bond_atom_site_label_1
_geom_bond_atom_site_label_2
_geom_bond_site_symmetry_1
_geom_bond_site_symmetry_2
C1 H1 1_555 1_555
C2 C1 1_555 1_555
H2 C2 1_555 1_555
C3 C2 1_555 1_555
H3 C3 1_555 1_555
C4 C3 1_555 1_555
C5 C4 1_555 1_555
H4 C5 1_555 1_555
C6 C1 1_555 1_555
H5 C6 1_555 1_555
C7 F1 1_555 1_555
F2 C7 1_555 1_555
F3 C7 1_555 1_555
I1 C4 1_555 1_555
C8 H6 1_555 1_555
C9 C8 1_555 1_555
H7 C9 1_555 1_555
C10 C9 1_555 1_555
H8 C10 1_555 1_555
C11 C10 1_555 1_555
C12 C11 1_555 1_555
H9 C12 1_555 1_555
C13 C8 1_555 1_555
H10 C13 1_555 1_555
C14 F4 1_555 1_555
Cl1 I2 1_555 1_555
F5 C14 1_555 1_555
F6 C14 1_555 1_555
I2 C11 1_555 1_555
C5 C6 1_555 1_555
C7 I1 1_555 1_555
C12 C13 1_555 1_555
C14 I2 1_555 1_555

#END
