
#######################################################################
#
#                 Cambridge Crystallographic Data Centre
#                                CCDC 
#
#######################################################################
#
# If this CIF has been generated from an entry in the Cambridge 
# Structural Database, then it will include bibliographic, chemical, 
# crystal, experimental, refinement or atomic coordinate data resulting 
# from the CCDC's data processing and validation procedures.
#
#######################################################################

data_HIGXED
_chemical_formula_moiety         'C27 H21 F3 O3'
_chemical_name_systematic        
'2,2,2-trifluoroethyl (R)-1-(3-methylphenyl)-2-oxo-3,4-diphenylcyclopent-3-ene-1-carboxylate'
_symmetry_cell_setting           orthorhombic
_symmetry_space_group_name_H-M   'P 21 21 21'
_symmetry_Int_Tables_number      19
_space_group_name_Hall           'P 2ac 2ab'
loop_
_symmetry_equiv_pos_site_id
_symmetry_equiv_pos_as_xyz
1 x,y,z
2 1/2-x,-y,1/2+z
3 -x,1/2+y,1/2-z
4 1/2+x,1/2-y,-z
_cell_length_a                   11.10350(10)
_cell_length_b                   15.34130(10)
_cell_length_c                   38.8957(2)
_cell_angle_alpha                90
_cell_angle_beta                 90
_cell_angle_gamma                90
_cell_volume                     6625.58
_exptl_crystal_colour            colorless
_exptl_crystal_description       needle
_chemical_melting_point          '93-94 deg.C'
_cell_formula_units_Z            12
_exptl_crystal_recrystallization_method 'diethyl ether/pentane'
loop_
_atom_site_label
_atom_site_type_symbol
_atom_site_fract_x
_atom_site_fract_y
_atom_site_fract_z
C1 C 1.00343(18) 0.70244(14) 0.35872(5)
C2 C 1.03467(19) 0.73517(14) 0.32174(5)
C3 C 0.97319(19) 0.67810(14) 0.29702(5)
C4 C 0.90036(18) 0.62170(13) 0.31389(5)
C5 C 0.89740(19) 0.63978(14) 0.35209(5)
H1 H 0.907572 0.585161 0.365330
H2 H 0.820108 0.667178 0.358737
C6 C 0.96607(19) 0.78323(14) 0.37884(5)
O1 O 0.86554(15) 0.81168(12) 0.37975(5)
O2 O 1.06102(14) 0.82151(10) 0.39396(4)
C7 C 1.0372(2) 0.90142(15) 0.41174(6)
H3 H 0.964324 0.929426 0.402090
H4 H 1.105855 0.941910 0.408819
C8 C 1.0185(2) 0.88250(18) 0.44920(6)
F1 F 1.0006(2) 0.95673(15) 0.46619(5)
F2 F 1.11192(15) 0.84360(13) 0.46356(4)
F3 F 0.92336(16) 0.83137(16) 0.45481(4)
C9 C 1.10963(19) 0.65490(13) 0.37509(5)
C10 C 1.0979(2) 0.62391(15) 0.40867(6)
H5 H 1.025285 0.634888 0.420840
C11 C 1.1890(2) 0.57759(16) 0.42481(6)
C12 C 1.2948(2) 0.56190(17) 0.40660(7)
H6 H 1.358460 0.530542 0.417240
C13 C 1.3083(2) 0.59124(16) 0.37337(7)
H7 H 1.380844 0.579491 0.361260
C14 C 1.2162(2) 0.63820(15) 0.35732(6)
H8 H 1.226189 0.658605 0.334436
C15 C 1.1738(3) 0.5432(2) 0.46094(7)
H9 H 1.109159 0.575322 0.472496
H10 H 1.249233 0.550936 0.473682
H11 H 1.153302 0.481147 0.460073
O3 O 1.09906(15) 0.79664(11) 0.31546(4)
C16 C 0.98897(19) 0.69176(14) 0.25953(5)
C17 C 1.1022(2) 0.68430(16) 0.24426(6)
H12 H 1.169953 0.667904 0.257711
C18 C 1.1159(2) 0.70097(17) 0.20916(6)
H13 H 1.192676 0.694761 0.198664
C19 C 1.0177(2) 0.72654(16) 0.18962(6)
H14 H 1.027377 0.738608 0.165828
C20 C 0.9059(2) 0.73445(16) 0.20471(6)
H15 H 0.838870 0.752262 0.191256
C21 C 0.8905(2) 0.71651(15) 0.23957(6)
H16 H 0.812972 0.721154 0.249716
C22 C 0.83513(19) 0.54720(14) 0.29944(5)
C23 C 0.8840(2) 0.49978(15) 0.27196(6)
H17 H 0.955032 0.520144 0.260959
C24 C 0.8297(2) 0.42316(16) 0.26058(6)
H18 H 0.865344 0.390445 0.242522
C25 C 0.7240(2) 0.39480(15) 0.27555(6)
H19 H 0.686973 0.342478 0.267876
C26 C 0.6719(2) 0.44322(16) 0.30196(6)
H20 H 0.597547 0.424887 0.311645
C27 C 0.72741(19) 0.51771(15) 0.31421(5)
H21 H 0.692351 0.549070 0.332745
C28 C 0.51877(18) 0.31601(14) 0.48795(5)
C29 C 0.54919(18) 0.24234(14) 0.51381(5)
C30 C 0.48368(19) 0.25968(14) 0.54608(5)
C31 C 0.40902(18) 0.32912(13) 0.54159(5)
C32 C 0.40792(18) 0.35951(14) 0.50462(5)
H22 H 0.414176 0.423804 0.503358
H23 H 0.332922 0.340963 0.492961
C33 C 0.4878(2) 0.27237(14) 0.45396(5)
O4 O 0.39019(15) 0.24290(12) 0.44677(4)
O5 O 0.58381(14) 0.26823(11) 0.43287(4)
C34 C 0.5614(2) 0.23729(16) 0.39875(6)
H24 H 0.493082 0.195810 0.398873
H25 H 0.633374 0.206660 0.389829
C35 C 0.5325(2) 0.31353(17) 0.37646(6)
F4 F 0.5163(2) 0.28931(12) 0.34399(4)
F5 F 0.61905(17) 0.37423(12) 0.37694(4)
F6 F 0.43241(17) 0.35566(13) 0.38635(5)
C36 C 0.62184(19) 0.38077(14) 0.48404(5)
C37 C 0.6079(2) 0.44965(15) 0.46104(6)
H26 H 0.535131 0.454154 0.448332
C38 C 0.6969(3) 0.51188(17) 0.45607(7)
C39 C 0.8023(3) 0.5051(2) 0.47576(8)
H27 H 0.863959 0.547542 0.473241
C40 C 0.8174(2) 0.4380(2) 0.49856(8)
H28 H 0.889558 0.434454 0.511622
C41 C 0.7281(2) 0.37472(18) 0.50289(7)
H29 H 0.739794 0.327983 0.518559
C42 C 0.6817(3) 0.5824(2) 0.43006(10)
H30 H 0.686232 0.557395 0.406915
H31 H 0.745626 0.625803 0.432942
H32 H 0.603085 0.610378 0.433235
O6 O 0.61503(15) 0.18108(11) 0.50777(4)
C43 C 0.6128(2) 0.18287(15) 0.58926(5)
H33 H 0.682119 0.207907 0.578919
C44 C 0.6254(2) 0.12774(15) 0.61747(6)
H34 H 0.703212 0.116530 0.626604
C45 C 0.5253(2) 0.08910(16) 0.63234(6)
H35 H 0.534172 0.051509 0.651579
C46 C 0.4118(2) 0.10586(15) 0.61882(6)
H36 H 0.342841 0.079415 0.628837
C47 C 0.3985(2) 0.16110(15) 0.59072(6)
H37 H 0.320659 0.171405 0.581402
C48 C 0.49894(19) 0.20146(14) 0.57614(5)
C49 C 0.33657(19) 0.37543(14) 0.56729(5)
C50 C 0.3681(2) 0.37680(15) 0.60221(6)
H38 H 0.434757 0.343406 0.610010
C51 C 0.3024(2) 0.42683(15) 0.62558(6)
H39 H 0.325444 0.428208 0.649096
C52 C 0.2036(2) 0.47447(16) 0.61462(6)
H40 H 0.158162 0.507838 0.630594
C53 C 0.1713(2) 0.47313(16) 0.58004(6)
H41 H 0.103759 0.505875 0.572403
C54 C 0.2370(2) 0.42432(15) 0.55672(6)
H42 H 0.214180 0.424061 0.533185
C55 C 0.49357(18) 0.28120(14) 0.19495(5)
C56 C 0.47074(19) 0.25109(14) 0.15722(6)
C57 C 0.53674(18) 0.30973(14) 0.13408(5)
C58 C 0.60738(18) 0.36449(13) 0.15287(5)
C59 C 0.60361(18) 0.34150(14) 0.19084(5)
H43 H 0.594282 0.394643 0.205025
H44 H 0.678357 0.311110 0.197833
C60 C 0.5232(2) 0.19948(14) 0.21537(5)
O7 O 0.61914(15) 0.16314(11) 0.21465(4)
O8 O 0.42731(14) 0.16979(10) 0.23342(4)
C61 C 0.4471(2) 0.09363(14) 0.25395(6)
H45 H 0.513356 0.058516 0.244031
H46 H 0.373393 0.057330 0.254344
C62 C 0.4792(2) 0.12148(17) 0.28991(6)
F7 F 0.50508(17) 0.05178(12) 0.30924(4)
F8 F 0.38941(15) 0.16404(12) 0.30524(4)
F9 F 0.57507(14) 0.17412(11) 0.29051(4)
C63 C 0.38646(19) 0.33232(14) 0.20897(6)
C64 C 0.3893(2) 0.36207(14) 0.24287(6)
H47 H 0.456134 0.347584 0.256994
C65 C 0.2968(2) 0.41233(16) 0.25649(7)
C66 C 0.2014(2) 0.43474(18) 0.23511(8)
H48 H 0.138872 0.470925 0.243721
C67 C 0.1958(2) 0.40550(19) 0.20167(8)
H49 H 0.128996 0.420620 0.187629
C68 C 0.2879(2) 0.35381(16) 0.18836(7)
H50 H 0.283573 0.333270 0.165348
C69 C 0.2988(3) 0.4410(2) 0.29349(7)
H51 H 0.361166 0.408564 0.305905
H52 H 0.220161 0.429622 0.304004
H53 H 0.316443 0.503538 0.294653
O9 O 0.40791(15) 0.18941(11) 0.14936(4)
C70 C 0.5243(2) 0.30208(14) 0.09639(5)
C71 C 0.4114(2) 0.30867(16) 0.08112(6)
H54 H 0.341943 0.316218 0.095063
C72 C 0.3996(2) 0.30426(18) 0.04553(6)
H55 H 0.322552 0.310581 0.035205
C73 C 0.5007(3) 0.29060(19) 0.02506(6)
H56 H 0.492960 0.287577 0.000766
C74 C 0.6125(3) 0.28147(18) 0.04030(6)
H57 H 0.681242 0.270997 0.026376
C75 C 0.6253(2) 0.28742(16) 0.07569(6)
H58 H 0.702685 0.281542 0.085863
C76 C 0.67768(19) 0.43997(14) 0.14148(6)
C77 C 0.7717(2) 0.47174(15) 0.16212(6)
H59 H 0.793893 0.441005 0.182356
C78 C 0.8324(2) 0.54753(16) 0.15330(7)
H60 H 0.896582 0.567870 0.167330
C79 C 0.7999(2) 0.59368(16) 0.12411(8)
H61 H 0.840347 0.646375 0.118502
C80 C 0.7083(2) 0.56295(16) 0.10304(7)
H62 H 0.686412 0.594278 0.082910
C81 C 0.6484(2) 0.48599(15) 0.11151(6)
H63 H 0.587004 0.464485 0.096776
loop_
_geom_bond_atom_site_label_1
_geom_bond_atom_site_label_2
_geom_bond_site_symmetry_1
_geom_bond_site_symmetry_2
C1 C2 1_555 1_555
C2 C3 1_555 1_555
C3 C4 1_555 1_555
C4 C5 1_555 1_555
C5 C1 1_555 1_555
H1 C5 1_555 1_555
H2 C5 1_555 1_555
C6 C1 1_555 1_555
O1 C6 1_555 1_555
O2 C6 1_555 1_555
C7 O2 1_555 1_555
H3 C7 1_555 1_555
H4 C7 1_555 1_555
C8 C7 1_555 1_555
F1 C8 1_555 1_555
F2 C8 1_555 1_555
F3 C8 1_555 1_555
C9 C1 1_555 1_555
C10 C9 1_555 1_555
H5 C10 1_555 1_555
C11 C10 1_555 1_555
C12 C11 1_555 1_555
H6 C12 1_555 1_555
C13 C12 1_555 1_555
H7 C13 1_555 1_555
C14 C9 1_555 1_555
H8 C14 1_555 1_555
C15 C11 1_555 1_555
H9 C15 1_555 1_555
H10 C15 1_555 1_555
H11 C15 1_555 1_555
O3 C2 1_555 1_555
C16 C3 1_555 1_555
C17 C16 1_555 1_555
H12 C17 1_555 1_555
C18 C17 1_555 1_555
H13 C18 1_555 1_555
C19 C18 1_555 1_555
H14 C19 1_555 1_555
C20 C19 1_555 1_555
H15 C20 1_555 1_555
C21 C16 1_555 1_555
H16 C21 1_555 1_555
C22 C4 1_555 1_555
C23 C22 1_555 1_555
H17 C23 1_555 1_555
C24 C23 1_555 1_555
H18 C24 1_555 1_555
C25 C24 1_555 1_555
H19 C25 1_555 1_555
C26 C25 1_555 1_555
H20 C26 1_555 1_555
C27 C22 1_555 1_555
H21 C27 1_555 1_555
C28 C29 1_555 1_555
C29 C30 1_555 1_555
C30 C31 1_555 1_555
C31 C32 1_555 1_555
C32 C28 1_555 1_555
H22 C32 1_555 1_555
H23 C32 1_555 1_555
C33 C28 1_555 1_555
O4 C33 1_555 1_555
O5 C33 1_555 1_555
C34 O5 1_555 1_555
H24 C34 1_555 1_555
H25 C34 1_555 1_555
C35 C34 1_555 1_555
F4 C35 1_555 1_555
F5 C35 1_555 1_555
F6 C35 1_555 1_555
C36 C28 1_555 1_555
C37 C36 1_555 1_555
H26 C37 1_555 1_555
C38 C37 1_555 1_555
C39 C38 1_555 1_555
H27 C39 1_555 1_555
C40 C39 1_555 1_555
H28 C40 1_555 1_555
C41 C36 1_555 1_555
H29 C41 1_555 1_555
C42 C38 1_555 1_555
H30 C42 1_555 1_555
H31 C42 1_555 1_555
H32 C42 1_555 1_555
O6 C29 1_555 1_555
C43 H33 1_555 1_555
C44 C43 1_555 1_555
H34 C44 1_555 1_555
C45 C44 1_555 1_555
H35 C45 1_555 1_555
C46 C45 1_555 1_555
H36 C46 1_555 1_555
C47 C46 1_555 1_555
H37 C47 1_555 1_555
C48 C30 1_555 1_555
C49 C31 1_555 1_555
C50 C49 1_555 1_555
H38 C50 1_555 1_555
C51 C50 1_555 1_555
H39 C51 1_555 1_555
C52 C51 1_555 1_555
H40 C52 1_555 1_555
C53 C52 1_555 1_555
H41 C53 1_555 1_555
C54 C49 1_555 1_555
H42 C54 1_555 1_555
C55 C56 1_555 1_555
C56 C57 1_555 1_555
C57 C58 1_555 1_555
C58 C59 1_555 1_555
C59 C55 1_555 1_555
H43 C59 1_555 1_555
H44 C59 1_555 1_555
C60 C55 1_555 1_555
O7 C60 1_555 1_555
O8 C60 1_555 1_555
C61 O8 1_555 1_555
H45 C61 1_555 1_555
H46 C61 1_555 1_555
C62 C61 1_555 1_555
F7 C62 1_555 1_555
F8 C62 1_555 1_555
F9 C62 1_555 1_555
C63 C55 1_555 1_555
C64 C63 1_555 1_555
H47 C64 1_555 1_555
C65 C64 1_555 1_555
C66 C65 1_555 1_555
H48 C66 1_555 1_555
C67 C66 1_555 1_555
H49 C67 1_555 1_555
C68 C63 1_555 1_555
H50 C68 1_555 1_555
C69 C65 1_555 1_555
H51 C69 1_555 1_555
H52 C69 1_555 1_555
H53 C69 1_555 1_555
O9 C56 1_555 1_555
C70 C57 1_555 1_555
C71 C70 1_555 1_555
H54 C71 1_555 1_555
C72 C71 1_555 1_555
H55 C72 1_555 1_555
C73 C72 1_555 1_555
H56 C73 1_555 1_555
C74 C73 1_555 1_555
H57 C74 1_555 1_555
C75 C70 1_555 1_555
H58 C75 1_555 1_555
C76 C58 1_555 1_555
C77 C76 1_555 1_555
H59 C77 1_555 1_555
C78 C77 1_555 1_555
H60 C78 1_555 1_555
C79 C78 1_555 1_555
H61 C79 1_555 1_555
C80 C79 1_555 1_555
H62 C80 1_555 1_555
C81 C76 1_555 1_555
H63 C81 1_555 1_555
C13 C14 1_555 1_555
C20 C21 1_555 1_555
C26 C27 1_555 1_555
C40 C41 1_555 1_555
C43 C48 1_555 1_555
C47 C48 1_555 1_555
C53 C54 1_555 1_555
C67 C68 1_555 1_555
C74 C75 1_555 1_555
C80 C81 1_555 1_555

#END
