
#######################################################################
#
#                 Cambridge Crystallographic Data Centre
#                                CCDC 
#
#######################################################################
#
# If this CIF has been generated from an entry in the Cambridge 
# Structural Database, then it will include bibliographic, chemical, 
# crystal, experimental, refinement or atomic coordinate data resulting 
# from the CCDC's data processing and validation procedures.
#
#######################################################################

data_HIGXEB
_chemical_formula_moiety         'C13 H15 Cl1 N3 O4'
_chemical_name_systematic        
(4,4,5,5-Tetramethylimidazoline-2-yl-(2'-chloro-5'-nitrophenyl)-3-oxide-1-oxyl)
_symmetry_cell_setting           monoclinic
_symmetry_space_group_name_H-M   'P 21/n'
_symmetry_Int_Tables_number      14
_space_group_name_Hall           '-P 2yn'
loop_
_symmetry_equiv_pos_site_id
_symmetry_equiv_pos_as_xyz
1 x,y,z
2 1/2-x,1/2+y,1/2-z
3 -x,-y,-z
4 1/2+x,1/2-y,1/2+z
_cell_length_a                   10.6798(9)
_cell_length_b                   11.2705(9)
_cell_length_c                   12.9559(10)
_cell_angle_alpha                90
_cell_angle_beta                 107.3770(10)
_cell_angle_gamma                90
_cell_volume                     1488.29
_exptl_crystal_colour            brown
_exptl_crystal_description       block
_cell_formula_units_Z            4
_exptl_crystal_preparation       'magnetic properties'
loop_
_atom_site_label
_atom_site_type_symbol
_atom_site_fract_x
_atom_site_fract_y
_atom_site_fract_z
Cl1 Cl 0.49530(8) 0.80118(8) 1.09603(7)
O1 O 0.8679(4) 1.2719(2) 1.1301(3)
O2 O 0.9770(3) 1.1503(3) 1.0603(3)
O3 O 0.6614(3) 0.8952(2) 0.80379(17)
O4 O 0.7274(3) 0.6388(2) 1.08944(17)
N1 N 0.8879(3) 1.1737(2) 1.0969(2)
N2 N 0.6722(2) 0.79909(18) 0.85729(16)
N3 N 0.7025(2) 0.67712(19) 0.99335(17)
C1 C 0.6165(3) 0.9046(3) 1.1018(2)
C2 C 0.6961(2) 0.8929(2) 1.03427(18)
C3 C 0.7849(2) 0.9826(2) 1.03431(19)
H1 H 0.8385 0.9775 0.9896
C4 C 0.7931(3) 1.0786(2) 1.1007(2)
C5 C 0.7168(3) 1.0888(3) 1.1696(2)
H2 H 0.7254 1.1543 1.2149
C6 C 0.6289(3) 1.0018(3) 1.1704(2)
H3 H 0.5772 1.0072 1.2166
C7 C 0.6883(2) 0.7907(2) 0.96261(19)
C8 C 0.6603(3) 0.6808(2) 0.8041(2)
C9 C 0.7056(3) 0.5967(2) 0.9030(2)
C10 C 0.5154(5) 0.6696(4) 0.7431(5)
H4 H 0.4661 0.6620 0.7938
H5 H 0.5015 0.6008 0.6975
H6 H 0.4869 0.7391 0.6995
C11 C 0.7424(6) 0.6785(4) 0.7279(4)
H7 H 0.7153 0.7414 0.6761
H8 H 0.7313 0.6036 0.6909
H9 H 0.8331 0.6889 0.7681
C12 C 0.6253(5) 0.4877(4) 0.9024(4)
H10 H 0.6620 0.4443 0.9683
H11 H 0.6256 0.4388 0.8419
H12 H 0.5368 0.5102 0.8968
C13 C 0.8511(4) 0.5603(4) 0.9279(4)
H13 H 0.9037 0.6297 0.9292
H14 H 0.8606 0.5069 0.8731
H15 H 0.8795 0.5218 0.9971
loop_
_geom_bond_atom_site_label_1
_geom_bond_atom_site_label_2
_geom_bond_site_symmetry_1
_geom_bond_site_symmetry_2
Cl1 C1 1_555 1_555
O1 N1 1_555 1_555
O2 N1 1_555 1_555
O3 N2 1_555 1_555
O4 N3 1_555 1_555
N1 C4 1_555 1_555
N2 C7 1_555 1_555
N3 C7 1_555 1_555
C1 C2 1_555 1_555
C2 C3 1_555 1_555
C3 H1 1_555 1_555
C4 C3 1_555 1_555
C5 C4 1_555 1_555
H2 C5 1_555 1_555
C6 C1 1_555 1_555
H3 C6 1_555 1_555
C7 C2 1_555 1_555
C8 N2 1_555 1_555
C9 N3 1_555 1_555
C10 C8 1_555 1_555
H4 C10 1_555 1_555
H5 C10 1_555 1_555
H6 C10 1_555 1_555
C11 C8 1_555 1_555
H7 C11 1_555 1_555
H8 C11 1_555 1_555
H9 C11 1_555 1_555
C12 C9 1_555 1_555
H10 C12 1_555 1_555
H11 C12 1_555 1_555
H12 C12 1_555 1_555
C13 C9 1_555 1_555
H13 C13 1_555 1_555
H14 C13 1_555 1_555
H15 C13 1_555 1_555
C5 C6 1_555 1_555
C8 C9 1_555 1_555

#END
