
#######################################################################
#
#                 Cambridge Crystallographic Data Centre
#                                CCDC 
#
#######################################################################
#
# If this CIF has been generated from an entry in the Cambridge 
# Structural Database, then it will include bibliographic, chemical, 
# crystal, experimental, refinement or atomic coordinate data resulting 
# from the CCDC's data processing and validation procedures.
#
#######################################################################

data_HIHHUD
_chemical_formula_moiety         'C31 H25 N3 O4 S1,2(C4 H8 O1)'
_chemical_name_systematic        
'Methyl 2-((1-benzyl-1H-indol-3-yl)methylene)-5-(4-hydroxyphenyl)-7-methyl-3-oxo-2,3-dihydro-5H-[1,3]thiazolo[3,2-a]pyrimidine-6-carboxylate tetrahydrofuran solvate'
_symmetry_cell_setting           triclinic
_symmetry_space_group_name_H-M   'P -1'
_symmetry_Int_Tables_number      2
_space_group_name_Hall           '-P 1'
loop_
_symmetry_equiv_pos_site_id
_symmetry_equiv_pos_as_xyz
1 x,y,z
2 -x,-y,-z
_cell_length_a                   9.4103(13)
_cell_length_b                   11.5966(16)
_cell_length_c                   15.993(2)
_cell_angle_alpha                79.623(2)
_cell_angle_beta                 85.822(2)
_cell_angle_gamma                78.788(2)
_cell_volume                     1682.67
_exptl_crystal_colour            orange
_exptl_crystal_description       prismatic
_cell_formula_units_Z            2
_exptl_crystal_recrystallization_method 'tetrahydrofuran/petroleum ether'
loop_
_atom_site_label
_atom_site_type_symbol
_atom_site_fract_x
_atom_site_fract_y
_atom_site_fract_z
S1 S 0.60290(8) 0.66403(6) 0.56375(4)
N1 N 0.4122(3) 0.7253(2) 0.68628(16)
N2 N 0.4750(2) 0.5209(2) 0.67263(14)
N3 N 0.9718(3) 0.6444(2) 0.37082(16)
O1 O 0.5550(2) 0.33807(19) 0.63216(13)
O2 O 0.7988(2) 0.2381(2) 1.00562(14)
H1 H 0.8207 0.2861 1.0340
O3 O 0.1224(2) 0.6112(2) 0.89740(14)
O4 O 0.1589(2) 0.4403(2) 0.84621(13)
C1 C 0.4839(3) 0.6386(3) 0.65122(17)
C2 C 0.6419(3) 0.5119(3) 0.55634(17)
C3 C 0.5565(3) 0.4438(3) 0.62102(17)
C4 C 0.3984(3) 0.4763(2) 0.75225(17)
H2 H 0.3409 0.4175 0.7402
C5 C 0.2944(3) 0.5807(3) 0.78047(17)
C6 C 0.3067(3) 0.6955(3) 0.74963(18)
C7 C 0.2098(4) 0.8047(3) 0.7732(2)
H3 H 0.1381 0.7808 0.8173
H4 H 0.1597 0.8511 0.7229
H5 H 0.2681 0.8534 0.7949
C8 C 0.1841(3) 0.5497(3) 0.84610(17)
C9 C 0.0514(3) 0.4006(3) 0.9087(2)
H6 H 0.0411 0.3198 0.9034
H7 H -0.0420 0.4548 0.8991
H8 H 0.0823 0.4004 0.9660
C10 C 0.5057(3) 0.4137(2) 0.82057(17)
C11 C 0.5594(3) 0.2914(3) 0.82921(18)
H9 H 0.5289 0.2468 0.7918
C12 C 0.6564(3) 0.2337(3) 0.89130(19)
H10 H 0.6911 0.1502 0.8966
C13 C 0.7030(3) 0.2986(3) 0.94587(18)
C14 C 0.6507(3) 0.4209(3) 0.93823(18)
H11 H 0.6823 0.4656 0.9751
C15 C 0.5519(3) 0.4770(3) 0.87620(17)
H12 H 0.5154 0.5602 0.8718
C16 C 0.7403(3) 0.4585(3) 0.50255(17)
H13 H 0.7446 0.3755 0.5048
C17 C 0.8389(3) 0.5130(3) 0.44253(17)
C18 C 0.8639(3) 0.6292(3) 0.43050(18)
H14 H 0.8124 0.6897 0.4600
C19 C 1.0209(3) 0.5379(3) 0.34106(18)
C20 C 1.1311(3) 0.5116(3) 0.27971(19)
H15 H 1.1830 0.5702 0.2504
C21 C 1.1599(3) 0.3960(3) 0.2642(2)
H16 H 1.2339 0.3746 0.2231
C22 C 1.0833(3) 0.3090(3) 0.3073(2)
H17 H 1.1064 0.2301 0.2950
C23 C 0.9743(3) 0.3370(3) 0.36750(19)
H18 H 0.9226 0.2779 0.3964
C24 C 0.9418(3) 0.4530(3) 0.38504(17)
C25 C 1.0197(4) 0.7572(3) 0.3389(2)
H19 H 1.1262 0.7414 0.3289
H20 H 0.9969 0.8090 0.3828
C26 C 0.9497(3) 0.8224(3) 0.2574(2)
C27 C 1.0223(4) 0.8993(3) 0.2007(2)
H21 H 1.1151 0.9103 0.2138
C28 C 0.9606(4) 0.9602(3) 0.1250(2)
H22 H 1.0123 1.0115 0.0868
C29 C 0.8274(4) 0.9471(3) 0.1051(2)
H23 H 0.7864 0.9887 0.0531
C30 C 0.7515(4) 0.8723(3) 0.1613(3)
H24 H 0.6581 0.8630 0.1479
C31 C 0.8121(4) 0.8112(3) 0.2372(2)
H25 H 0.7591 0.7613 0.2756
C32 C 0.1871(6) 0.9450(5) 0.5339(3)
H26 H 0.2568 0.8907 0.5733
H27 H 0.0931 0.9630 0.5654
C33 C 0.2428(6) 1.0585(5) 0.4998(3)
H28 H 0.3011 1.0801 0.5417
H29 H 0.1631 1.1260 0.4818
C34 C 0.3384(7) 1.0188(6) 0.4221(4)
H30 H 0.3499 1.0880 0.3776
H31 H 0.4354 0.9742 0.4397
C35 C 0.2530(7) 0.9416(5) 0.3928(4)
H32 H 0.1875 0.9888 0.3482
H33 H 0.3183 0.8774 0.3682
O5 O 0.1698(5) 0.8909(3) 0.4637(3)
C36 C 0.256(2) 0.0892(11) 0.1591(10)
H34 H 0.2492 0.0227 0.1459
H35 H 0.1953 0.0991 0.2101
C37 C 0.2069(14) 0.1774(8) 0.0949(9)
H36 H 0.1277 0.2350 0.1170
H37 H 0.1667 0.1432 0.0514
C38 C 0.3235(14) 0.2412(16) 0.0546(15)
H38 H 0.3016 0.3265 0.0604
H39 H 0.3400 0.2345 -0.0064
C39 C 0.4568(9) 0.1707(10) 0.1087(7)
H40 H 0.5305 0.1272 0.0725
H41 H 0.5023 0.2264 0.1333
O6 O 0.4008(6) 0.0879(6) 0.1754(5)
C40? C 0.247(2) 0.1161(12) 0.1708(8)
H42? H 0.3186 0.1342 0.2067
H43? H 0.1658 0.0862 0.2051
C41? C 0.2032(15) 0.2109(10) 0.0935(10)
H44? H 0.1409 0.2831 0.1099
H45? H 0.1526 0.1801 0.0525
C42? C 0.3516(13) 0.2355(13) 0.0576(16)
H46? H 0.3815 0.2988 0.0825
H47? H 0.3536 0.2571 -0.0051
C43? C 0.4459(10) 0.1116(10) 0.0877(8)
H48? H 0.4976 0.1078 0.1401
H49? H 0.5143 0.0825 0.0427
O7? O 0.3091(10) 0.0489(7) 0.1037(6)
loop_
_geom_bond_atom_site_label_1
_geom_bond_atom_site_label_2
_geom_bond_site_symmetry_1
_geom_bond_site_symmetry_2
S1 C1 1_555 1_555
N1 C1 1_555 1_555
N2 C1 1_555 1_555
N3 C18 1_555 1_555
O1 C3 1_555 1_555
O2 H1 1_555 1_555
O3 C8 1_555 1_555
O4 C8 1_555 1_555
C2 S1 1_555 1_555
C3 N2 1_555 1_555
C4 N2 1_555 1_555
H2 C4 1_555 1_555
C5 C4 1_555 1_555
C6 N1 1_555 1_555
C7 C6 1_555 1_555
H3 C7 1_555 1_555
H4 C7 1_555 1_555
H5 C7 1_555 1_555
C8 C5 1_555 1_555
C9 O4 1_555 1_555
H6 C9 1_555 1_555
H7 C9 1_555 1_555
H8 C9 1_555 1_555
C10 C4 1_555 1_555
C11 C10 1_555 1_555
H9 C11 1_555 1_555
C12 C11 1_555 1_555
H10 C12 1_555 1_555
C13 O2 1_555 1_555
C14 C13 1_555 1_555
H11 C14 1_555 1_555
C15 C10 1_555 1_555
H12 C15 1_555 1_555
C16 C2 1_555 1_555
H13 C16 1_555 1_555
C17 C16 1_555 1_555
C18 C17 1_555 1_555
H14 C18 1_555 1_555
C19 N3 1_555 1_555
C20 C19 1_555 1_555
H15 C20 1_555 1_555
C21 C20 1_555 1_555
H16 C21 1_555 1_555
C22 C21 1_555 1_555
H17 C22 1_555 1_555
C23 C22 1_555 1_555
H18 C23 1_555 1_555
C24 C17 1_555 1_555
C25 N3 1_555 1_555
H19 C25 1_555 1_555
H20 C25 1_555 1_555
C26 C25 1_555 1_555
C27 C26 1_555 1_555
H21 C27 1_555 1_555
C28 C27 1_555 1_555
H22 C28 1_555 1_555
C29 C28 1_555 1_555
H23 C29 1_555 1_555
C30 C29 1_555 1_555
H24 C30 1_555 1_555
C31 C26 1_555 1_555
H25 C31 1_555 1_555
C32 H26 1_555 1_555
H27 C32 1_555 1_555
C33 C32 1_555 1_555
H28 C33 1_555 1_555
H29 C33 1_555 1_555
C34 C33 1_555 1_555
H30 C34 1_555 1_555
H31 C34 1_555 1_555
C35 C34 1_555 1_555
H32 C35 1_555 1_555
H33 C35 1_555 1_555
O5 C32 1_555 1_555
C36 H34 1_555 1_555
H35 C36 1_555 1_555
C37 C36 1_555 1_555
H36 C37 1_555 1_555
H37 C37 1_555 1_555
C38 C37 1_555 1_555
H38 C38 1_555 1_555
H39 C38 1_555 1_555
C39 C38 1_555 1_555
H40 C39 1_555 1_555
H41 C39 1_555 1_555
O6 C36 1_555 1_555
C2 C3 1_555 1_555
C5 C6 1_555 1_555
C12 C13 1_555 1_555
C14 C15 1_555 1_555
C19 C24 1_555 1_555
C23 C24 1_555 1_555
C30 C31 1_555 1_555
C35 O5 1_555 1_555
C39 O6 1_555 1_555

#END
