
#######################################################################
#
#                 Cambridge Crystallographic Data Centre
#                                CCDC 
#
#######################################################################
#
# If this CIF has been generated from an entry in the Cambridge 
# Structural Database, then it will include bibliographic, chemical, 
# crystal, experimental, refinement or atomic coordinate data resulting 
# from the CCDC's data processing and validation procedures.
#
#######################################################################

data_HIHJIR01
_chemical_name_common            '1,3-Adamantanediacetic acid'
_chemical_formula_moiety         'C14 H20 O4'
_chemical_name_systematic        
"2,2'-Tricyclo[3.3.1.1^3,7^]decane-1,3-diyldiacetic acid"
_symmetry_cell_setting           monoclinic
_symmetry_space_group_name_H-M   'P 21/n'
_symmetry_Int_Tables_number      14
_space_group_name_Hall           '-P 2yn'
loop_
_symmetry_equiv_pos_site_id
_symmetry_equiv_pos_as_xyz
1 x,y,z
2 1/2-x,1/2+y,1/2-z
3 -x,-y,-z
4 1/2+x,1/2-y,1/2+z
_cell_length_a                   14.7198(16)
_cell_length_b                   7.7386(17)
_cell_length_c                   23.1799(9)
_cell_angle_alpha                90
_cell_angle_beta                 106.385(3)
_cell_angle_gamma                90
_cell_volume                     2533.2
_exptl_crystal_colour            colorless
_exptl_crystal_description       prismatic
_cell_formula_units_Z            8
loop_
_atom_site_label
_atom_site_type_symbol
_atom_site_fract_x
_atom_site_fract_y
_atom_site_fract_z
C1 C 0.30324(13) 0.3383(2) 0.08277(8)
H1 H 0.3427 0.4191 0.0688
H2 H 0.2509 0.3057 0.0486
C2 C 0.36152(13) 0.1768(3) 0.10794(8)
C8 C 0.26436(13) 0.4270(3) 0.12978(9)
C9 C 0.44388(14) 0.2298(3) 0.16199(9)
H9 H 0.4806 0.1286 0.1790
H10 H 0.4851 0.3095 0.1491
C10 C 0.29816(14) 0.0512(3) 0.12974(10)
H11 H 0.2458 0.0156 0.0960
H12 H 0.3342 -0.0510 0.1465
C11 C 0.39698(16) 0.1002(3) 0.05681(10)
H13 H 0.3423 0.0660 0.0244
H14 H 0.4295 0.1905 0.0415
C12 C 0.11746(16) 0.5587(3) 0.05841(11)
C16 C 0.20247(14) 0.2967(3) 0.15158(10)
H20 H 0.1783 0.3501 0.1821
H21 H 0.1489 0.2636 0.1182
C19 C 0.40529(16) 0.3158(3) 0.20946(9)
H23 H 0.4584 0.3495 0.2437
C22 C 0.46180(16) -0.0515(3) 0.07327(10)
C23 C 0.20907(15) 0.5933(3) 0.10503(11)
H26 H 0.1963 0.6564 0.1381
H27 H 0.2482 0.6660 0.0877
C25 C 0.34910(15) 0.4760(3) 0.18329(10)
H30 H 0.3897 0.5564 0.1701
H31 H 0.3265 0.5324 0.2140
C27 C 0.25991(16) 0.1367(3) 0.17753(11)
H34 H 0.2194 0.0546 0.1909
C28 C 0.34224(18) 0.1892(4) 0.23088(10)
H35 H 0.3785 0.0879 0.2483
H36 H 0.3184 0.2431 0.2615
O1 O 0.04300(11) 0.5512(2) 0.07660(8)
H37 H -0.0218 0.5200 0.0405
O2 O 0.11521(11) 0.5377(2) 0.00507(7)
O3 O 0.54895(11) -0.0264(2) 0.08097(9)
H38 H 0.5964 -0.1365 0.0892
O4 O 0.42878(12) -0.1983(2) 0.07729(10)
C3 C 0.12558(13) 0.9179(2) 0.85700(9)
C4 C 0.28083(13) 0.7255(3) 0.82790(9)
H3 H 0.3327 0.8064 0.8421
H4 H 0.3045 0.6255 0.8115
C5 C 0.20507(13) 0.8293(3) 0.90529(8)
H5 H 0.1812 0.7946 0.9385
H6 H 0.2563 0.9108 0.9206
C6 C 0.24320(14) 0.6701(3) 0.88026(9)
C7 C 0.16109(15) 0.5433(3) 0.85635(10)
H7 H 0.1837 0.4420 0.8400
H8 H 0.1366 0.5062 0.8891
C13 C 0.20140(15) 0.8107(3) 0.77902(9)
H15 H 0.2261 0.8464 0.7458
C14 C 0.04536(14) 0.7873(3) 0.83368(10)
H16 H 0.0204 0.7517 0.8663
H17 H -0.0055 0.8407 0.8029
C15 C 0.12000(16) 0.6836(3) 0.75541(10)
H18 H 0.0700 0.7379 0.7242
H19 H 0.1422 0.5832 0.7383
C17 C 0.37548(17) 0.4435(3) 0.91876(10)
C18 C 0.08227(15) 0.6291(3) 0.80759(11)
H22 H 0.0304 0.5466 0.7930
C20 C 0.32219(16) 0.5942(3) 0.93277(10)
H24 H 0.3673 0.6855 0.9491
H25 H 0.2941 0.5598 0.9642
C21 C 0.05125(14) 1.0507(3) 0.93343(10)
C24 C 0.16538(15) 0.9701(3) 0.80484(10)
H28 H 0.1162 1.0260 0.7736
H29 H 0.2168 1.0516 0.8192
C26 C 0.09150(15) 1.0825(3) 0.88229(10)
H32 H 0.1445 1.1615 0.8954
H33 H 0.0438 1.1386 0.8502
O5 O 0.45914(14) 0.4662(2) 0.91923(13)
H39 H 0.4983 0.3591 0.9289
O6 O 0.33779(12) 0.2979(2) 0.91006(10)
O7 O 0.10482(11) 1.0581(2) 0.98657(7)
O8 O -0.03568(11) 1.0164(2) 0.92265(7)
H40 H -0.0593 1.0452 0.9575
loop_
_geom_bond_atom_site_label_1
_geom_bond_atom_site_label_2
_geom_bond_site_symmetry_1
_geom_bond_site_symmetry_2
C1 H1 1_555 1_555
H2 C1 1_555 1_555
C2 C1 1_555 1_555
C3 C5 1_555 1_555
C4 H3 1_555 1_555
H4 C4 1_555 1_555
C5 H5 1_555 1_555
H6 C5 1_555 1_555
C6 C4 1_555 1_555
C7 C6 1_555 1_555
H7 C7 1_555 1_555
H8 C7 1_555 1_555
C8 C1 1_555 1_555
C9 C2 1_555 1_555
H9 C9 1_555 1_555
H10 C9 1_555 1_555
C10 C2 1_555 1_555
H11 C10 1_555 1_555
H12 C10 1_555 1_555
C11 C2 1_555 1_555
H13 C11 1_555 1_555
H14 C11 1_555 1_555
C12 C23 1_555 1_555
C13 C4 1_555 1_555
H15 C13 1_555 1_555
C14 C3 1_555 1_555
H16 C14 1_555 1_555
H17 C14 1_555 1_555
C15 C13 1_555 1_555
H18 C15 1_555 1_555
H19 C15 1_555 1_555
C16 C8 1_555 1_555
H20 C16 1_555 1_555
H21 C16 1_555 1_555
C17 C20 1_555 1_555
C18 C7 1_555 1_555
H22 C18 1_555 1_555
C19 C9 1_555 1_555
H23 C19 1_555 1_555
C20 C6 1_555 1_555
H24 C20 1_555 1_555
H25 C20 1_555 1_555
C21 C26 1_555 1_555
C22 C11 1_555 1_555
C23 C8 1_555 1_555
H26 C23 1_555 1_555
H27 C23 1_555 1_555
C24 C3 1_555 1_555
H28 C24 1_555 1_555
H29 C24 1_555 1_555
C25 C8 1_555 1_555
H30 C25 1_555 1_555
H31 C25 1_555 1_555
C26 C3 1_555 1_555
H32 C26 1_555 1_555
H33 C26 1_555 1_555
C27 C10 1_555 1_555
H34 C27 1_555 1_555
C28 C19 1_555 1_555
H35 C28 1_555 1_555
H36 C28 1_555 1_555
O1 C12 1_555 1_555
H37 O1 1_555 1_555
O2 C12 1_555 1_555
O3 C22 1_555 1_555
H38 O3 1_555 1_555
O4 C22 1_555 1_555
O5 C17 1_555 1_555
H39 O5 1_555 1_555
O6 C17 1_555 1_555
O7 C21 1_555 1_555
O8 C21 1_555 1_555
H40 O8 1_555 1_555
C5 C6 1_555 1_555
C13 C24 1_555 1_555
C14 C18 1_555 1_555
C15 C18 1_555 1_555
C16 C27 1_555 1_555
C19 C25 1_555 1_555
C27 C28 1_555 1_555

#END
