
#######################################################################
#
#                 Cambridge Crystallographic Data Centre
#                                CCDC 
#
#######################################################################
#
# If this CIF has been generated from an entry in the Cambridge 
# Structural Database, then it will include bibliographic, chemical, 
# crystal, experimental, refinement or atomic coordinate data resulting 
# from the CCDC's data processing and validation procedures.
#
#######################################################################

data_HIHKOA
_chemical_formula_moiety         'C27 H30 N2 O4 Si1'
_chemical_name_systematic        
4-(Benzyloxy)-2-(4-nitrophenyl)-2-phenyl-3-((trimethylsilyl)oxy)pentanenitrile
_symmetry_cell_setting           orthorhombic
_symmetry_space_group_name_H-M   'P 21 21 21'
_symmetry_Int_Tables_number      19
_space_group_name_Hall           'P 2ac 2ab'
loop_
_symmetry_equiv_pos_site_id
_symmetry_equiv_pos_as_xyz
1 x,y,z
2 1/2-x,-y,1/2+z
3 -x,1/2+y,1/2-z
4 1/2+x,1/2-y,-z
_cell_length_a                   6.775(3)
_cell_length_b                   13.084(5)
_cell_length_c                   30.195(11)
_cell_angle_alpha                90
_cell_angle_beta                 90
_cell_angle_gamma                90
_cell_volume                     2676.61
_exptl_crystal_colour            white
_exptl_crystal_description       needle
_cell_formula_units_Z            4
loop_
_atom_site_label
_atom_site_type_symbol
_atom_site_fract_x
_atom_site_fract_y
_atom_site_fract_z
Si1 Si 0.3247(2) 0.51113(16) 0.01146(4)
C1 C 0.1709(11) 0.2257(4) 0.2196(2)
H1 H 0.2990 0.2055 0.2128
C2 C -0.1559(11) 0.2608(5) 0.1967(2)
H2 H -0.2496 0.2668 0.1743
C3 C -0.2092(13) 0.2788(5) 0.2399(3)
H3 H -0.3394 0.2951 0.2466
C4 C 0.0343(10) 0.2339(4) 0.18619(19)
C5 C 0.1216(14) 0.2469(5) 0.2633(3)
H4 H 0.2159 0.2438 0.2856
C6 C -0.075(2) 0.2732(5) 0.2727(3)
H5 H -0.1123 0.2869 0.3017
C7 C 0.1240(7) 0.5065(4) 0.25819(14)
H6 H 0.0231 0.5052 0.2791
C8 C 0.4275(7) 0.5063(4) 0.19661(13)
H7 H 0.5293 0.5036 0.1760
C9 C 0.0817(6) 0.5088(3) 0.21373(13)
H8 H -0.0495 0.5094 0.2047
C10 C 0.2305(6) 0.5104(3) 0.18187(12)
C11 C 0.4713(7) 0.5060(4) 0.24066(15)
H9 H 0.6020 0.5058 0.2501
C12 C 0.3191(8) 0.5061(4) 0.27128(13)
N1 N 0.3666(9) 0.5069(4) 0.31877(14)
O1 O 0.5367(9) 0.5234(4) 0.32970(13)
O2 O 0.2332(8) 0.4922(4) 0.34507(12)
C13 C 0.0852(11) 0.2133(4) 0.13877(19)
H10 H 0.2027 0.1710 0.1376
H11 H -0.0217 0.1753 0.1252
O3 O 0.1192(5) 0.3046(3) 0.11390(13)
C14 C 0.3085(7) 0.4544(4) 0.10119(13)
H12 H 0.441(4) 0.483(3) 0.1015(13)
C15 C 0.3156(8) 0.3436(4) 0.11458(16)
H13 H 0.353(7) 0.337(3) 0.1462(8)
C16 C 0.4499(10) 0.2813(5) 0.0845(2)
H14 H 0.4720 0.2152 0.0973
H15 H 0.5738 0.3161 0.0811
H16 H 0.3886 0.2735 0.0560
C17 C 0.1828(6) 0.5235(3) 0.13226(13)
C18 C -0.0284(7) 0.4976(4) 0.12484(13)
N2 N -0.1947(6) 0.4847(4) 0.12117(13)
C19 C 0.2109(7) 0.6371(4) 0.12056(13)
C20 C 0.3961(8) 0.6817(4) 0.12218(19)
H17 H 0.5051 0.6413 0.1289
C21 C 0.0523(9) 0.7023(5) 0.11068(19)
H18 H -0.0757 0.6767 0.1096
C22 C 0.4230(11) 0.7838(5) 0.1141(2)
H19 H 0.5491 0.8116 0.1156
C23 C 0.0872(13) 0.8053(6) 0.1025(2)
H20 H -0.0195 0.8472 0.0959
C24 C 0.2648(13) 0.8459(5) 0.10373(19)
H21 H 0.2834 0.9150 0.0977
O4 O 0.2316(4) 0.4656(3) 0.05821(9)
C25 C 0.1933(13) 0.6342(7) -0.0008(2)
H22 H 0.1329 0.6302 -0.0295
H23 H 0.2863 0.6896 -0.0003
H24 H 0.0935 0.6458 0.0213
C26 C 0.5832(11) 0.5352(9) 0.0158(2)
H25 H 0.6040 0.6002 0.0299
H26 H 0.6407 0.5361 -0.0132
H27 H 0.6438 0.4824 0.0332
C27 C 0.256(2) 0.4213(9) -0.0309(2)
H28 H 0.3455 0.3643 -0.0303
H29 H 0.2625 0.4540 -0.0593
H30 H 0.1242 0.3976 -0.0256
loop_
_geom_bond_atom_site_label_1
_geom_bond_atom_site_label_2
_geom_bond_site_symmetry_1
_geom_bond_site_symmetry_2
Si1 O4 1_555 1_555
C1 H1 1_555 1_555
C2 H2 1_555 1_555
C3 C2 1_555 1_555
H3 C3 1_555 1_555
C4 C1 1_555 1_555
C5 C1 1_555 1_555
H4 C5 1_555 1_555
C6 C3 1_555 1_555
H5 C6 1_555 1_555
C7 H6 1_555 1_555
C8 H7 1_555 1_555
C9 C7 1_555 1_555
H8 C9 1_555 1_555
C10 C8 1_555 1_555
C11 C8 1_555 1_555
H9 C11 1_555 1_555
C12 C7 1_555 1_555
N1 C12 1_555 1_555
O1 N1 1_555 1_555
O2 N1 1_555 1_555
C13 C4 1_555 1_555
H10 C13 1_555 1_555
H11 C13 1_555 1_555
O3 C13 1_555 1_555
C14 H12 1_555 1_555
C15 O3 1_555 1_555
H13 C15 1_555 1_555
C16 C15 1_555 1_555
H14 C16 1_555 1_555
H15 C16 1_555 1_555
H16 C16 1_555 1_555
C17 C10 1_555 1_555
C18 C17 1_555 1_555
N2 C18 1_555 1_555
C19 C17 1_555 1_555
C20 C19 1_555 1_555
H17 C20 1_555 1_555
C21 C19 1_555 1_555
H18 C21 1_555 1_555
C22 C20 1_555 1_555
H19 C22 1_555 1_555
C23 C21 1_555 1_555
H20 C23 1_555 1_555
C24 C22 1_555 1_555
H21 C24 1_555 1_555
O4 C14 1_555 1_555
C25 Si1 1_555 1_555
H22 C25 1_555 1_555
H23 C25 1_555 1_555
H24 C25 1_555 1_555
C26 Si1 1_555 1_555
H25 C26 1_555 1_555
H26 C26 1_555 1_555
H27 C26 1_555 1_555
C27 Si1 1_555 1_555
H28 C27 1_555 1_555
H29 C27 1_555 1_555
H30 C27 1_555 1_555
C2 C4 1_555 1_555
C5 C6 1_555 1_555
C9 C10 1_555 1_555
C11 C12 1_555 1_555
C14 C15 1_555 1_555
C14 C17 1_555 1_555
C23 C24 1_555 1_555

#END
