
#######################################################################
#
#                 Cambridge Crystallographic Data Centre
#                                CCDC 
#
#######################################################################
#
# If this CIF has been generated from an entry in the Cambridge 
# Structural Database, then it will include bibliographic, chemical, 
# crystal, experimental, refinement or atomic coordinate data resulting 
# from the CCDC's data processing and validation procedures.
#
#######################################################################

data_HIHKUG
_chemical_formula_moiety         'C30 H40 N2 O2 Si2'
_chemical_name_systematic        
4-((t-Butyl(dimethyl)silyl)oxy)-2,4-diphenyl-2-(pyridin-3-yl)-3-((trimethylsilyl)oxy)butanenitrile
_symmetry_cell_setting           tetragonal
_symmetry_space_group_name_H-M   'P 42'
_symmetry_Int_Tables_number      77
_space_group_name_Hall           'P 4c'
loop_
_symmetry_equiv_pos_site_id
_symmetry_equiv_pos_as_xyz
1 x,y,z
2 -x,-y,z
3 -y,x,1/2+z
4 y,-x,1/2+z
_cell_length_a                   21.117(6)
_cell_length_b                   21.117(6)
_cell_length_c                   6.719(2)
_cell_angle_alpha                90
_cell_angle_beta                 90
_cell_angle_gamma                90
_cell_volume                     2996.19
_exptl_crystal_colour            'dark yellow'
_exptl_crystal_description       platelet
_cell_formula_units_Z            4
loop_
_atom_site_label
_atom_site_type_symbol
_atom_site_fract_x
_atom_site_fract_y
_atom_site_fract_z
Si1 Si 0.69978(7) 0.62309(7) -0.1096(2)
Si2 Si 0.97733(7) 0.71292(7) 0.0916(3)
O1 O 0.90387(15) 0.70703(15) 0.0060(5)
O2 O 0.77330(15) 0.64916(15) -0.0682(5)
N1 N 0.8234(2) 0.7498(2) -0.4038(8)
C1 C 0.8204(2) 0.7603(2) -0.2371(9)
C2 C 0.8584(2) 0.8385(2) 0.0051(8)
C3 C 0.8171(2) 0.7790(2) -0.0238(7)
N2 N 0.9144(2) 0.9284(2) -0.1357(9)
C4 C 0.9044(3) 0.9167(3) 0.2175(10)
H1 H 0.9134 0.9323 0.3439
C5 C 0.8819(3) 0.8739(3) -0.1543(9)
H2 H 0.8746 0.8588 -0.2822
C6 C 0.9246(3) 0.9486(3) 0.0512(12)
H3 H 0.9465 0.9863 0.0689
C7 C 0.8705(2) 0.8610(3) 0.1947(9)
H4 H 0.8561 0.8389 0.3056
C8 C 0.7071(2) 0.8192(2) -0.1191(9)
H5 H 0.7203 0.8196 -0.2512
C9 C 0.7276(2) 0.7983(2) 0.2241(8)
H6 H 0.7542 0.7842 0.3253
C10 C 0.6271(3) 0.8406(2) 0.1233(9)
H7 H 0.5867 0.8548 0.1554
C11 C 0.7486(2) 0.7975(2) 0.0286(8)
C12 C 0.6677(2) 0.8197(2) 0.2698(9)
H8 H 0.6545 0.8200 0.4018
C13 C 0.6474(2) 0.8400(3) -0.0719(9)
H9 H 0.6204 0.8539 -0.1723
C14 C 1.0183(2) 0.7804(3) -0.0252(9)
H10 H 1.0008 0.8193 0.0245
H11 H 1.0127 0.7785 -0.1669
H12 H 1.0626 0.7786 0.0060
C15 C 1.0174(3) 0.6398(3) 0.0145(12)
H13 H 1.0090 0.6319 -0.1238
H14 H 1.0019 0.6050 0.0925
H15 H 1.0622 0.6442 0.0343
C16 C 0.9792(3) 0.7226(4) 0.3655(10)
H16 H 0.9592 0.6869 0.4273
H17 H 0.9569 0.7606 0.4016
H18 H 1.0223 0.7255 0.4096
C17 C 0.8454(2) 0.7228(2) 0.0984(9)
H19 H 0.851(2) 0.737(2) 0.237(7)
C18 C 0.8020(2) 0.6638(2) 0.1179(8)
H20 H 0.768(2) 0.674(2) 0.225(7)
C19 C 0.8512(2) 0.5996(2) 0.3979(9)
H21 H 0.8336 0.6277 0.4891
C20 C 0.8411(2) 0.6083(2) 0.1956(7)
C21 C 0.9046(2) 0.5158(2) 0.1284(9)
H22 H 0.9223 0.4878 0.0373
C22 C 0.8688(2) 0.5666(2) 0.0634(8)
H23 H 0.8632 0.5728 -0.0725
C23 C 0.8875(3) 0.5489(3) 0.4644(8)
H24 H 0.8940 0.5432 0.6001
C24 C 0.9140(2) 0.5073(3) 0.3309(8)
H25 H 0.9381 0.4733 0.3763
C25 C 0.6420(2) 0.6643(2) 0.0536(8)
H26 H 0.6427 0.7089 0.0253
H27 H 0.6532 0.6575 0.1904
H28 H 0.6003 0.6480 0.0294
C26 C 0.6854(2) 0.6443(3) -0.3757(8)
H29 H 0.7131 0.6200 -0.4593
H30 H 0.6934 0.6886 -0.3949
H31 H 0.6422 0.6351 -0.4095
C27 C 0.6896(3) 0.5348(2) -0.0722(8)
C28 C 0.6217(3) 0.5166(3) -0.1386(10)
H32 H 0.5914 0.5395 -0.0603
H33 H 0.6154 0.4719 -0.1199
H34 H 0.6162 0.5269 -0.2766
C29 C 0.7371(3) 0.4964(3) -0.1967(9)
H35 H 0.7293 0.4520 -0.1780
H36 H 0.7794 0.5062 -0.1549
H37 H 0.7321 0.5069 -0.3348
C30 C 0.6968(3) 0.5162(3) 0.1486(8)
H38 H 0.6891 0.4717 0.1636
H39 H 0.6669 0.5396 0.2273
H40 H 0.7390 0.5258 0.1925
loop_
_geom_bond_atom_site_label_1
_geom_bond_atom_site_label_2
_geom_bond_site_symmetry_1
_geom_bond_site_symmetry_2
Si1 O2 1_555 1_555
Si2 O1 1_555 1_555
O1 C17 1_555 1_555
O2 C18 1_555 1_555
N1 C1 1_555 1_555
C1 C3 1_555 1_555
C2 C3 1_555 1_555
C3 C11 1_555 1_555
N2 C5 1_555 1_555
C4 H1 1_555 1_555
C5 C2 1_555 1_555
H2 C5 1_555 1_555
C6 N2 1_555 1_555
H3 C6 1_555 1_555
C7 C2 1_555 1_555
H4 C7 1_555 1_555
C8 H5 1_555 1_555
C9 H6 1_555 1_555
C10 H7 1_555 1_555
C11 C8 1_555 1_555
C12 C9 1_555 1_555
H8 C12 1_555 1_555
C13 C8 1_555 1_555
H9 C13 1_555 1_555
C14 Si2 1_555 1_555
H10 C14 1_555 1_555
H11 C14 1_555 1_555
H12 C14 1_555 1_555
C15 Si2 1_555 1_555
H13 C15 1_555 1_555
H14 C15 1_555 1_555
H15 C15 1_555 1_555
C16 Si2 1_555 1_555
H16 C16 1_555 1_555
H17 C16 1_555 1_555
H18 C16 1_555 1_555
C17 C3 1_555 1_555
H19 C17 1_555 1_555
C18 C17 1_555 1_555
H20 C18 1_555 1_555
C19 H21 1_555 1_555
C20 C18 1_555 1_555
C21 H22 1_555 1_555
C22 C20 1_555 1_555
H23 C22 1_555 1_555
C23 C19 1_555 1_555
H24 C23 1_555 1_555
C24 C21 1_555 1_555
H25 C24 1_555 1_555
C25 Si1 1_555 1_555
H26 C25 1_555 1_555
H27 C25 1_555 1_555
H28 C25 1_555 1_555
C26 Si1 1_555 1_555
H29 C26 1_555 1_555
H30 C26 1_555 1_555
H31 C26 1_555 1_555
C27 Si1 1_555 1_555
C28 C27 1_555 1_555
H32 C28 1_555 1_555
H33 C28 1_555 1_555
H34 C28 1_555 1_555
C29 C27 1_555 1_555
H35 C29 1_555 1_555
H36 C29 1_555 1_555
H37 C29 1_555 1_555
C30 C27 1_555 1_555
H38 C30 1_555 1_555
H39 C30 1_555 1_555
H40 C30 1_555 1_555
C4 C6 1_555 1_555
C4 C7 1_555 1_555
C9 C11 1_555 1_555
C10 C12 1_555 1_555
C10 C13 1_555 1_555
C19 C20 1_555 1_555
C21 C22 1_555 1_555
C23 C24 1_555 1_555

#END
