
#######################################################################
#
#                 Cambridge Crystallographic Data Centre
#                                CCDC 
#
#######################################################################
#
# If this CIF has been generated from an entry in the Cambridge 
# Structural Database, then it will include bibliographic, chemical, 
# crystal, experimental, refinement or atomic coordinate data resulting 
# from the CCDC's data processing and validation procedures.
#
#######################################################################

data_HIHLUI
_chemical_formula_moiety         'C27 H28 N2 O5'
_chemical_name_systematic        
'diethyl 2,6-dimethyl-4-[5-methyl-3-(naphthalen-1-yl)-1,2-oxazol-4-yl]-1,4-dihydropyridine-3,5-dicarboxylate'
_symmetry_cell_setting           monoclinic
_symmetry_space_group_name_H-M   'P 21/c'
_symmetry_Int_Tables_number      14
_space_group_name_Hall           '-P 2ybc'
loop_
_symmetry_equiv_pos_site_id
_symmetry_equiv_pos_as_xyz
1 x,y,z
2 -x,1/2+y,1/2-z
3 -x,-y,-z
4 x,1/2-y,1/2+z
_cell_length_a                   8.2709(7)
_cell_length_b                   20.1782(16)
_cell_length_c                   14.0531(12)
_cell_angle_alpha                90
_cell_angle_beta                 92.412(4)
_cell_angle_gamma                90
_cell_volume                     2343.27
_exptl_crystal_colour            white
_exptl_crystal_description       Prism
_cell_formula_units_Z            4
loop_
_atom_site_label
_atom_site_type_symbol
_atom_site_fract_x
_atom_site_fract_y
_atom_site_fract_z
O1 O 2.25612(12) -0.17315(6) 0.21656(8)
O2 O 2.14143(11) -0.09044(5) 0.29756(8)
O3 O 1.60604(11) -0.00748(5) 0.21432(8)
O4 O 1.45481(11) -0.05393(5) 0.09598(8)
O5 O 1.74980(13) -0.10952(5) 0.47906(8)
N1 N 1.78749(13) -0.21080(6) 0.09247(9)
H1 H 1.7647 -0.2482 0.0625
N2 N 1.72159(15) -0.17675(6) 0.45622(10)
C1 C 1.94087(16) -0.20289(7) 0.13291(11)
C2 C 1.97323(15) -0.15085(7) 0.19175(11)
C3 C 1.83777(15) -0.10550(7) 0.22290(10)
H2 H 1.8789 -0.0589 0.2213
C4 C 1.69153(15) -0.10998(7) 0.15333(11)
C5 C 1.66750(15) -0.16351(7) 0.09622(11)
C6 C 1.52092(17) -0.17979(7) 0.03316(12)
H3 H 1.5232 -0.1536 -0.0255
H4 H 1.4226 -0.1693 0.0667
H5 H 1.5216 -0.2271 0.0173
C7 C 2.05709(17) -0.25645(8) 0.10634(12)
H6 H 1.9978 -0.2919 0.0723
H7 H 2.1107 -0.2745 0.1642
H8 H 2.1385 -0.2378 0.0653
C8 C 2.13603(16) -0.14117(7) 0.23348(11)
C9 C 2.29282(17) -0.08308(8) 0.35271(12)
H9 H 2.3018 -0.0372 0.3774
H10 H 2.3845 -0.0910 0.3111
C10 C 2.30227(19) -0.13114(8) 0.43479(12)
H11 H 2.3980 -0.1212 0.4758
H12 H 2.3100 -0.1764 0.4103
H13 H 2.2049 -0.1270 0.4717
C11 C 1.58251(15) -0.05298(7) 0.15888(11)
C12 C 1.34442(16) 0.00147(7) 0.10346(12)
H14 H 1.3979 0.0432 0.0850
H15 H 1.3099 0.0060 0.1697
C13 C 1.20030(17) -0.01241(8) 0.03713(13)
H16 H 1.1471 -0.0532 0.0570
H17 H 1.2364 -0.0176 -0.0280
H18 H 1.1238 0.0246 0.0393
C14 C 1.8204(2) -0.00541(8) 0.40815(12)
H19 H 1.7355 0.0190 0.3724
H20 H 1.9260 0.0054 0.3829
H21 H 1.8198 0.0071 0.4755
C15 C 1.79029(16) -0.07772(7) 0.39842(11)
C16 C 1.79220(15) -0.12006(7) 0.32392(11)
C17 C 1.74583(16) -0.18192(7) 0.36435(11)
C18 C 1.71824(16) -0.24712(7) 0.31735(11)
C19 C 1.56961(16) -0.26065(7) 0.27460(11)
H22 H 1.4860 -0.2284 0.2765
C20 C 1.53897(17) -0.32125(8) 0.22816(12)
H23 H 1.4349 -0.3298 0.1996
C21 C 1.65839(18) -0.36800(8) 0.22383(12)
H24 H 1.6370 -0.4087 0.1918
C22 C 1.81439(17) -0.35597(7) 0.26710(12)
C23 C 1.84450(16) -0.29497(7) 0.31515(11)
C24 C 2.00115(16) -0.28351(7) 0.35854(11)
H25 H 2.0234 -0.2430 0.3909
C25 C 2.11953(18) -0.33073(8) 0.35375(12)
H26 H 2.2231 -0.3226 0.3833
C26 C 2.09027(19) -0.39105(8) 0.30585(13)
H27 H 2.1740 -0.4231 0.3024
C27 C 1.94067(19) -0.40335(8) 0.26424(13)
H28 H 1.9211 -0.4444 0.2328
loop_
_geom_bond_atom_site_label_1
_geom_bond_atom_site_label_2
_geom_bond_site_symmetry_1
_geom_bond_site_symmetry_2
O1 C8 1_555 1_555
O2 C8 1_555 1_555
O3 C11 1_555 1_555
O4 C11 1_555 1_555
O5 N2 1_555 1_555
N1 H1 1_555 1_555
N2 C17 1_555 1_555
C1 N1 1_555 1_555
C2 C1 1_555 1_555
C3 C2 1_555 1_555
H2 C3 1_555 1_555
C4 C3 1_555 1_555
C5 N1 1_555 1_555
C6 C5 1_555 1_555
H3 C6 1_555 1_555
H4 C6 1_555 1_555
H5 C6 1_555 1_555
C7 C1 1_555 1_555
H6 C7 1_555 1_555
H7 C7 1_555 1_555
H8 C7 1_555 1_555
C8 C2 1_555 1_555
C9 O2 1_555 1_555
H9 C9 1_555 1_555
H10 C9 1_555 1_555
C10 C9 1_555 1_555
H11 C10 1_555 1_555
H12 C10 1_555 1_555
H13 C10 1_555 1_555
C11 C4 1_555 1_555
C12 O4 1_555 1_555
H14 C12 1_555 1_555
H15 C12 1_555 1_555
C13 C12 1_555 1_555
H16 C13 1_555 1_555
H17 C13 1_555 1_555
H18 C13 1_555 1_555
C14 H19 1_555 1_555
H20 C14 1_555 1_555
H21 C14 1_555 1_555
C15 O5 1_555 1_555
C16 C3 1_555 1_555
C17 C16 1_555 1_555
C18 C17 1_555 1_555
C19 C18 1_555 1_555
H22 C19 1_555 1_555
C20 C19 1_555 1_555
H23 C20 1_555 1_555
C21 C20 1_555 1_555
H24 C21 1_555 1_555
C22 C21 1_555 1_555
C23 C18 1_555 1_555
C24 C23 1_555 1_555
H25 C24 1_555 1_555
C25 C24 1_555 1_555
H26 C25 1_555 1_555
C26 C25 1_555 1_555
H27 C26 1_555 1_555
C27 C22 1_555 1_555
H28 C27 1_555 1_555
C4 C5 1_555 1_555
C14 C15 1_555 1_555
C15 C16 1_555 1_555
C22 C23 1_555 1_555
C26 C27 1_555 1_555

#END
