
#######################################################################
#
#                 Cambridge Crystallographic Data Centre
#                                CCDC 
#
#######################################################################
#
# If this CIF has been generated from an entry in the Cambridge 
# Structural Database, then it will include bibliographic, chemical, 
# crystal, experimental, refinement or atomic coordinate data resulting 
# from the CCDC's data processing and validation procedures.
#
#######################################################################

data_HIHLOC
_chemical_formula_moiety         'C28 H30 N2 O6'
_chemical_name_systematic        
'diethyl 4-[3-(2-methoxynaphthalen-1-yl)-5-methyl-1,2-oxazol-4-yl]-2,6-dimethyl-1,4-dihydropyridine-3,5-dicarboxylate'
_symmetry_cell_setting           monoclinic
_symmetry_space_group_name_H-M   'C 2/c'
_symmetry_Int_Tables_number      15
_space_group_name_Hall           '-C 2yn'
loop_
_symmetry_equiv_pos_site_id
_symmetry_equiv_pos_as_xyz
1 x,y,z
2 -x,y,1/2-z
3 1/2+x,1/2+y,z
4 1/2-x,1/2+y,1/2-z
5 -x,-y,-z
6 x,-y,1/2+z
7 1/2-x,1/2-y,-z
8 1/2+x,1/2-y,1/2+z
_cell_length_a                   19.5698(9)
_cell_length_b                   15.3341(7)
_cell_length_c                   17.2324(7)
_cell_angle_alpha                90
_cell_angle_beta                 108.724(3)
_cell_angle_gamma                90
_cell_volume                     4897.51
_exptl_crystal_colour            'pale yellow'
_exptl_crystal_description       Prism
_cell_formula_units_Z            8
loop_
_atom_site_label
_atom_site_type_symbol
_atom_site_fract_x
_atom_site_fract_y
_atom_site_fract_z
C1 C 0.2954(3) 0.1503(4) 0.1965(3)
C2 C 0.3697(3) 0.1356(4) 0.2216(4)
H1 H 0.3916 0.0963 0.265
C3 C 0.4110(3) 0.1797(5) 0.1818(4)
H2 H 0.4609 0.1662 0.1955
C4 C 0.3811(3) 0.2439(4) 0.1214(4)
H3 H 0.4109 0.276 0.0976
C5 C 0.3089(3) 0.2585(4) 0.0982(3)
H4 H 0.2891 0.3018 0.0579
C6 C 0.2622(3) 0.2133(3) 0.1306(3)
C7 C 0.1877(3) 0.2201(4) 0.1039(3)
H5 H 0.1665 0.2612 0.0619
C8 C 0.1436(3) 0.1738(4) 0.1322(3)
H6 H 0.0927 0.1796 0.1097
C9 C 0.1758(3) 0.1148(3) 0.1981(3)
C10 C 0.2499(3) 0.1047(3) 0.2314(3)
O1 O 0.13394(19) 0.0664(2) 0.2320(2)
C11 C 0.0585(3) 0.0649(5) 0.1913(4)
H7 H 0.0491 0.0608 0.1321
H8 H 0.0368 0.1184 0.2039
H9 H 0.0374 0.0142 0.2099
C12 C 0.2782(3) 0.0475(3) 0.3053(3)
N1 N 0.2837(2) -0.0365(3) 0.2965(2)
O2 O 0.30517(18) -0.0714(2) 0.37685(19)
C13 C 0.2945(2) 0.1617(3) 0.4256(3)
H10 H 0.3074 0.1542 0.4863
C14 C 0.3513(3) 0.2222(3) 0.4109(3)
C15 C 0.3312(3) 0.2877(3) 0.3549(3)
N2 N 0.2593(2) 0.3067(3) 0.3197(3)
H11 H 0.254(2) 0.342(3) 0.290(2)
C16 C 0.2052(3) 0.2705(3) 0.3434(3)
C17 C 0.2203(2) 0.2021(3) 0.3963(3)
C18 C 0.4274(3) 0.2093(4) 0.4574(3)
O3 O 0.4782(2) 0.2532(3) 0.4535(2)
O4 O 0.43654(17) 0.1419(2) 0.5114(2)
C19 C 0.5097(3) 0.1325(4) 0.5677(4)
H12 H 0.5225 0.1832 0.605
H13 H 0.5444 0.1292 0.5367
C20 C 0.5127(3) 0.0508(4) 0.6156(3)
H14 H 0.4811 0.0564 0.6493
H15 H 0.5624 0.0406 0.651
H16 H 0.4967 0.0015 0.5779
C21 C 0.3800(3) 0.3442(3) 0.3250(3)
H17 H 0.42 0.365 0.3718
H18 H 0.3527 0.3943 0.2952
H19 H 0.3991 0.3104 0.2883
C22 C 0.1332(3) 0.3122(3) 0.3069(3)
H20 H 0.1013 0.2725 0.2667
H21 H 0.1386 0.3666 0.2798
H22 H 0.1122 0.3247 0.3503
C23 C 0.2959(2) 0.0727(3) 0.3903(3)
C24 C 0.3109(3) -0.0043(3) 0.4303(3)
C25 C 0.3294(3) -0.0291(4) 0.5176(3)
H23 H 0.338 0.0236 0.5515
H24 H 0.3731 -0.0651 0.5333
H25 H 0.2895 -0.0623 0.5257
C26 C 0.1623(3) 0.1613(3) 0.4205(3)
O5 O 0.09834(18) 0.1762(2) 0.39425(19)
O6 O 0.18973(17) 0.0985(2) 0.47811(19)
C27 C 0.1372(3) 0.0462(4) 0.4997(3)
H26 H 0.0955 0.0831 0.4994
H27 H 0.159 0.0227 0.5558
C28 C 0.1118(3) -0.0277(4) 0.4403(4)
H28 H 0.0836 -0.0046 0.3866
H29 H 0.0816 -0.0672 0.4601
H30 H 0.1535 -0.0598 0.4355
loop_
_geom_bond_atom_site_label_1
_geom_bond_atom_site_label_2
_geom_bond_site_symmetry_1
_geom_bond_site_symmetry_2
C1 C2 1_555 1_555
C2 H1 1_555 1_555
C3 C2 1_555 1_555
H2 C3 1_555 1_555
C4 C3 1_555 1_555
H3 C4 1_555 1_555
C5 C4 1_555 1_555
H4 C5 1_555 1_555
C6 C1 1_555 1_555
C7 C6 1_555 1_555
H5 C7 1_555 1_555
C8 C7 1_555 1_555
H6 C8 1_555 1_555
C9 C8 1_555 1_555
C10 C1 1_555 1_555
O1 C9 1_555 1_555
C11 O1 1_555 1_555
H7 C11 1_555 1_555
H8 C11 1_555 1_555
H9 C11 1_555 1_555
C12 C10 1_555 1_555
N1 C12 1_555 1_555
O2 N1 1_555 1_555
C13 H10 1_555 1_555
C14 C13 1_555 1_555
C15 C14 1_555 1_555
N2 C15 1_555 1_555
H11 N2 1_555 1_555
C16 N2 1_555 1_555
C17 C13 1_555 1_555
C18 C14 1_555 1_555
O3 C18 1_555 1_555
O4 C18 1_555 1_555
C19 O4 1_555 1_555
H12 C19 1_555 1_555
H13 C19 1_555 1_555
C20 C19 1_555 1_555
H14 C20 1_555 1_555
H15 C20 1_555 1_555
H16 C20 1_555 1_555
C21 C15 1_555 1_555
H17 C21 1_555 1_555
H18 C21 1_555 1_555
H19 C21 1_555 1_555
C22 C16 1_555 1_555
H20 C22 1_555 1_555
H21 C22 1_555 1_555
H22 C22 1_555 1_555
C23 C12 1_555 1_555
C24 O2 1_555 1_555
C25 C24 1_555 1_555
H23 C25 1_555 1_555
H24 C25 1_555 1_555
H25 C25 1_555 1_555
C26 C17 1_555 1_555
O5 C26 1_555 1_555
O6 C26 1_555 1_555
C27 O6 1_555 1_555
H26 C27 1_555 1_555
H27 C27 1_555 1_555
C28 C27 1_555 1_555
H28 C28 1_555 1_555
H29 C28 1_555 1_555
H30 C28 1_555 1_555
C5 C6 1_555 1_555
C9 C10 1_555 1_555
C13 C23 1_555 1_555
C16 C17 1_555 1_555
C23 C24 1_555 1_555

#END
