
#######################################################################
#
#                 Cambridge Crystallographic Data Centre
#                                CCDC 
#
#######################################################################
#
# If this CIF has been generated from an entry in the Cambridge 
# Structural Database, then it will include bibliographic, chemical, 
# crystal, experimental, refinement or atomic coordinate data resulting 
# from the CCDC's data processing and validation procedures.
#
#######################################################################

data_HIHLER
_chemical_formula_moiety         'C28 H33 N1 O3 Si1'
_chemical_name_systematic        
4-(Benzyloxy)-2-(4-methoxyphenyl)-2-phenyl-3-((trimethylsilyl)oxy)pentanenitrile
_symmetry_cell_setting           monoclinic
_symmetry_space_group_name_H-M   'P 21'
_symmetry_Int_Tables_number      4
_space_group_name_Hall           'P 2yb'
loop_
_symmetry_equiv_pos_site_id
_symmetry_equiv_pos_as_xyz
1 x,y,z
2 -x,1/2+y,-z
_cell_length_a                   6.8930(9)
_cell_length_b                   19.533(2)
_cell_length_c                   10.4109(13)
_cell_angle_alpha                90
_cell_angle_beta                 106.5340(10)
_cell_angle_gamma                90
_cell_volume                     1343.77
_exptl_crystal_colour            white
_exptl_crystal_description       platelet
_cell_formula_units_Z            2
loop_
_atom_site_label
_atom_site_type_symbol
_atom_site_fract_x
_atom_site_fract_y
_atom_site_fract_z
Si1 Si 0.72288(10) 0.34625(3) 0.72016(7)
C1 C 0.1851(3) 0.07664(12) 0.4108(2)
C2 C 0.1129(4) 0.04893(13) 0.5113(2)
H1 H 0.1918 0.0508 0.6001
C3 C -0.0771(4) 0.01848(13) 0.4791(3)
H2 H -0.1254 -0.0001 0.5464
C4 C -0.1950(3) 0.01574(15) 0.3465(4)
H3 H -0.3221 -0.0046 0.3250
C5 C -0.1228(4) 0.04345(17) 0.2459(3)
H4 H -0.2017 0.0416 0.1572
C6 C 0.0672(5) 0.07390(14) 0.2781(2)
H5 H 0.1155 0.0924 0.2108
C7 C 0.6526(3) 0.16501(11) 0.5894(2)
H6 H 0.722(4) 0.1196(10) 0.606(3)
O1 O 0.4391(2) 0.15183(9) 0.54152(17)
C8 C 0.7302(5) 0.20269(16) 0.4875(3)
H7 H 0.7068 0.1755 0.4076
H8 H 0.8727 0.2109 0.5237
H9 H 0.6606 0.2456 0.4663
C9 C 0.7031(3) 0.20791(12) 0.9648(2)
C10 C 0.6187(3) 0.16903(10) 0.8318(2)
C11 C 0.6758(3) 0.09213(11) 0.8491(2)
C12 C 0.8663(5) 0.27918(17) 1.2054(3)
C13 C 0.8672(4) 0.07008(13) 0.8492(3)
H10 H 0.9615 0.1014 0.8363
C14 C 0.9098(4) 0.21441(16) 1.0212(3)
H11 H 0.9967 0.1949 0.9776
C15 C 0.5800(4) 0.23931(17) 1.0322(3)
H12 H 0.4402 0.2369 0.9967
C16 C 0.7844(6) -0.04522(15) 0.8880(4)
H13 H 0.8200 -0.0912 0.9003
C17 C 0.5402(4) 0.04442(14) 0.8699(3)
H14 H 0.4114 0.0581 0.8708
C18 C 0.6613(5) 0.27420(19) 1.1515(3)
H15 H 0.5755 0.2944 1.1952
C19 C 0.5955(6) -0.02363(16) 0.8893(4)
H16 H 0.5030 -0.0554 0.9034
C20 C 0.9910(5) 0.24887(19) 1.1397(3)
H17 H 1.1307 0.2517 1.1754
C21 C 0.9179(5) 0.00164(16) 0.8686(4)
H18 H 1.0466 -0.0125 0.8683
C22 C 0.3937(3) 0.17470(12) 0.7923(2)
N1 N 0.2234(3) 0.17850(14) 0.7725(3)
C23 C 0.6965(3) 0.20420(10) 0.7210(2)
H19 H 0.846(2) 0.2071(13) 0.760(2)
O2 O 0.6107(2) 0.27073(7) 0.70116(16)
C24 C 1.0025(4) 0.33929(17) 0.7685(4)
H20 H 1.0502 0.3211 0.8576
H21 H 1.0602 0.3838 0.7657
H22 H 1.0419 0.3094 0.7071
C25 C 0.6325(6) 0.39172(15) 0.5597(4)
H23 H 0.6625 0.3651 0.4902
H24 H 0.6988 0.4353 0.5662
H25 H 0.4889 0.3985 0.5388
C26 C 0.6426(6) 0.39352(16) 0.8507(4)
H26 H 0.4975 0.3950 0.8270
H27 H 0.6951 0.4393 0.8575
H28 H 0.6937 0.3707 0.9353
O3 O 0.9314(4) 0.31495(14) 1.3226(2)
C27 C 1.1388(7) 0.3106(3) 1.3961(4)
H29 H 1.1730 0.2637 1.4202
H30 H 1.1629 0.3378 1.4759
H31 H 1.2207 0.3272 1.3421
C28 C 0.3957(5) 0.1031(2) 0.4393(4)
H32 H 0.4899 0.0652 0.4649
H33 H 0.4141 0.1234 0.3586
loop_
_geom_bond_atom_site_label_1
_geom_bond_atom_site_label_2
_geom_bond_site_symmetry_1
_geom_bond_site_symmetry_2
Si1 O2 1_555 1_555
C1 C2 1_555 1_555
C2 H1 1_555 1_555
C3 C2 1_555 1_555
H2 C3 1_555 1_555
C4 C3 1_555 1_555
H3 C4 1_555 1_555
C5 C4 1_555 1_555
H4 C5 1_555 1_555
C6 C1 1_555 1_555
H5 C6 1_555 1_555
C7 H6 1_555 1_555
O1 C7 1_555 1_555
C8 C7 1_555 1_555
H7 C8 1_555 1_555
H8 C8 1_555 1_555
H9 C8 1_555 1_555
C9 C10 1_555 1_555
C10 C11 1_555 1_555
C11 C13 1_555 1_555
C12 C18 1_555 1_555
C13 H10 1_555 1_555
C14 C9 1_555 1_555
H11 C14 1_555 1_555
C15 C9 1_555 1_555
H12 C15 1_555 1_555
C16 H13 1_555 1_555
C17 C11 1_555 1_555
H14 C17 1_555 1_555
C18 C15 1_555 1_555
H15 C18 1_555 1_555
C19 C16 1_555 1_555
H16 C19 1_555 1_555
C20 C12 1_555 1_555
H17 C20 1_555 1_555
C21 C13 1_555 1_555
H18 C21 1_555 1_555
C22 C10 1_555 1_555
N1 C22 1_555 1_555
C23 C7 1_555 1_555
H19 C23 1_555 1_555
O2 C23 1_555 1_555
C24 Si1 1_555 1_555
H20 C24 1_555 1_555
H21 C24 1_555 1_555
H22 C24 1_555 1_555
C25 Si1 1_555 1_555
H23 C25 1_555 1_555
H24 C25 1_555 1_555
H25 C25 1_555 1_555
C26 Si1 1_555 1_555
H26 C26 1_555 1_555
H27 C26 1_555 1_555
H28 C26 1_555 1_555
O3 C12 1_555 1_555
C27 O3 1_555 1_555
H29 C27 1_555 1_555
H30 C27 1_555 1_555
H31 C27 1_555 1_555
C28 C1 1_555 1_555
H32 C28 1_555 1_555
H33 C28 1_555 1_555
C5 C6 1_555 1_555
O1 C28 1_555 1_555
C10 C23 1_555 1_555
C14 C20 1_555 1_555
C16 C21 1_555 1_555
C17 C19 1_555 1_555

#END
