
#######################################################################
#
#                 Cambridge Crystallographic Data Centre
#                                CCDC 
#
#######################################################################
#
# If this CIF has been generated from an entry in the Cambridge 
# Structural Database, then it will include bibliographic, chemical, 
# crystal, experimental, refinement or atomic coordinate data resulting 
# from the CCDC's data processing and validation procedures.
#
#######################################################################

data_HIHMIX
_chemical_formula_moiety         'C20 H32 O3,0.5(H2 O1)'
_chemical_name_systematic        
"2-(hydroxymethyl)-3,3-dimethyl-5'-methylideneoctahydrospiro[cyclohexane-1,1'-[3a,6]methanoazulene]-3',8'-diol hemihydrate"
_symmetry_cell_setting           monoclinic
_symmetry_space_group_name_H-M   'P 21/n'
_symmetry_Int_Tables_number      14
_space_group_name_Hall           '-P 2yn'
loop_
_symmetry_equiv_pos_site_id
_symmetry_equiv_pos_as_xyz
1 x,y,z
2 1/2-x,1/2+y,1/2-z
3 -x,-y,-z
4 1/2+x,1/2-y,1/2+z
_cell_length_a                   10.887(2)
_cell_length_b                   17.027(3)
_cell_length_c                   19.737(4)
_cell_angle_alpha                90
_cell_angle_beta                 100.88(3)
_cell_angle_gamma                90
_cell_volume                     3592.94
_exptl_crystal_colour            white
_exptl_crystal_description       block
_chemical_melting_point          '124 deg.C'
_cell_formula_units_Z            8
loop_
_atom_site_label
_atom_site_type_symbol
_atom_site_fract_x
_atom_site_fract_y
_atom_site_fract_z
O1 O 0.95220(13) 0.49139(9) 0.40172(7)
H1 H 0.9224 0.4842 0.4375
O2 O 0.69731(12) 0.48419(9) 0.09858(7)
H2 H 0.7126 0.4745 0.0593
O3 O 0.47253(14) 0.52210(10) 0.12065(7)
H3 H 0.5360 0.5207 0.1022
C1 C 0.85590(18) 0.48158(12) 0.34220(9)
H4 H 0.8040 0.4351 0.3498
C2 C 0.90412(17) 0.46917(11) 0.27621(9)
C3 C 0.77815(17) 0.47449(11) 0.22371(9)
H5 H 0.7309 0.4260 0.2315
C4 C 0.70253(17) 0.54499(11) 0.24908(9)
C5 C 0.77018(18) 0.55268(12) 0.32641(10)
H6 H 0.8195 0.6018 0.3334
H7 H 0.7081 0.5535 0.3572
C6 C 0.97549(19) 0.39243(11) 0.26850(10)
H8 H 1.0294 0.3776 0.3128
H9 H 0.9166 0.3489 0.2530
C7 C 1.05410(18) 0.41112(12) 0.21424(10)
C8 C 1.1299(2) 0.36318(14) 0.18892(11)
H10 H 1.1769 0.3821 0.1564
H11 H 1.1372 0.3099 0.2033
C9 C 1.03406(18) 0.49731(11) 0.19556(10)
H12 H 1.1116 0.5221 0.1850
C10 C 1.00089(18) 0.53020(11) 0.26190(10)
H13 H 0.9638 0.5833 0.2547
H14 H 1.0748 0.5320 0.2998
C11 C 0.92129(18) 0.50982(12) 0.13670(10)
H15 H 0.9024 0.5666 0.1318
H16 H 0.9426 0.4911 0.0929
C12 C 0.80527(17) 0.46600(11) 0.15008(9)
H17 H 0.8225 0.4090 0.1442
C13 C 0.71501(18) 0.62077(11) 0.20801(10)
H18 H 0.8044 0.6359 0.2153
H19 H 0.6871 0.6097 0.1582
C14 C 0.64007(19) 0.68980(12) 0.22773(11)
H20 H 0.6718 0.7042 0.2765
H21 H 0.6508 0.7357 0.1987
C15 C 0.5023(2) 0.66912(12) 0.21817(11)
H22 H 0.4699 0.6578 0.1688
H23 H 0.4558 0.7149 0.2313
C16 C 0.47820(18) 0.59765(12) 0.26163(10)
C17 C 0.55991(18) 0.52482(11) 0.24700(10)
H24 H 0.5601 0.4886 0.2869
C18 C 0.49623(19) 0.47827(13) 0.18370(10)
H25 H 0.5495 0.4326 0.1777
H26 H 0.4157 0.4577 0.1926
C19 C 0.5016(2) 0.62146(13) 0.33854(11)
H27 H 0.5853 0.6444 0.3515
H28 H 0.4955 0.5749 0.3669
H29 H 0.4389 0.6602 0.3460
C20 C 0.3380(2) 0.57815(14) 0.24340(12)
H30 H 0.2895 0.6225 0.2559
H31 H 0.3208 0.5313 0.2689
H32 H 0.3144 0.5682 0.1937
O4 O 0.32633(13) 0.03390(7) 1.01149(7)
H33 H 0.3793 0.0232 1.0471
O5 O 0.16805(13) 0.37841(8) 1.01090(7)
H34 H 0.1978 0.4236 1.0198
O6 O -0.07510(13) 0.35232(8) 0.97311(8)
H35 H -0.0058 0.3750 0.9759
C21 C 0.25310(17) 0.10022(11) 1.02489(10)
H36 H 0.2144 0.0887 1.0659
C22 C 0.32258(18) 0.17763(10) 1.03591(9)
C23 C 0.21155(17) 0.23641(11) 1.02681(9)
H37 H 0.1736 0.2293 1.0688
C24 C 0.10974(17) 0.20422(11) 0.96471(9)
C25 C 0.14993(18) 0.11547(11) 0.96249(10)
H38 H 0.0775 0.0808 0.9640
H39 H 0.1809 0.1046 0.9194
C26 C 0.41387(19) 0.18931(11) 1.10502(10)
H40 H 0.3688 0.2076 1.1412
H41 H 0.4578 0.1397 1.1204
C27 C 0.50612(18) 0.25158(11) 1.09003(10)
C28 C 0.5994(2) 0.28189(13) 1.13467(12)
H42 H 0.6542 0.3187 1.1197
H43 H 0.6119 0.2669 1.1818
C29 C 0.47405(18) 0.26944(11) 1.01346(10)
H44 H 0.5505 0.2811 0.9940
C30 C 0.41226(18) 0.19255(11) 0.98512(10)
H45 H 0.4743 0.1498 0.9868
H46 H 0.3660 0.1988 0.9372
C31 C 0.37585(18) 0.33521(12) 0.99712(10)
H47 H 0.4151 0.3861 1.0128
H48 H 0.3463 0.3383 0.9466
C32 C 0.26374(18) 0.32100(11) 1.03226(10)
H49 H 0.2950 0.3306 1.0826
C33 C 0.11600(19) 0.24609(12) 0.89603(9)
H50 H 0.1058 0.3033 0.9022
H51 H 0.1998 0.2374 0.8848
C34 C 0.0171(2) 0.21827(13) 0.83540(10)
H52 H 0.0255 0.2480 0.7934
H53 H 0.0302 0.1619 0.8266
C35 C -0.1139(2) 0.23009(13) 0.85049(11)
H54 H -0.1760 0.2110 0.8107
H55 H -0.1286 0.2869 0.8558
C36 C -0.13407(19) 0.18698(12) 0.91598(11)
C37 C -0.02821(17) 0.20821(11) 0.97976(10)
H56 H -0.0318 0.1653 1.0139
C38 C -0.05962(19) 0.28302(12) 1.01583(10)
H57 H -0.1378 0.2741 1.0334
H58 H 0.0079 0.2929 1.0561
C39 C -0.1428(2) 0.09803(13) 0.90102(12)
H59 H -0.2179 0.0871 0.8663
H60 H -0.1475 0.0695 0.9436
H61 H -0.0686 0.0809 0.8836
C40 C -0.2632(2) 0.21015(14) 0.93054(13)
H62 H -0.2672 0.2673 0.9355
H63 H -0.2762 0.1849 0.9732
H64 H -0.3284 0.1930 0.8921
O7 O 0.25204(13) 0.53216(8) 0.03157(7)
H65 H 0.3196(12) 0.5353(11) 0.0622(9)
H66 H 0.2018(15) 0.5712(9) 0.0326(10)
loop_
_geom_bond_atom_site_label_1
_geom_bond_atom_site_label_2
_geom_bond_site_symmetry_1
_geom_bond_site_symmetry_2
O1 H1 1_555 1_555
O2 H2 1_555 1_555
O3 H3 1_555 1_555
C1 O1 1_555 1_555
H4 C1 1_555 1_555
C2 C1 1_555 1_555
C3 C2 1_555 1_555
H5 C3 1_555 1_555
C4 C3 1_555 1_555
C5 C1 1_555 1_555
H6 C5 1_555 1_555
H7 C5 1_555 1_555
C6 C2 1_555 1_555
H8 C6 1_555 1_555
H9 C6 1_555 1_555
C7 C6 1_555 1_555
C8 C7 1_555 1_555
H10 C8 1_555 1_555
H11 C8 1_555 1_555
C9 C7 1_555 1_555
H12 C9 1_555 1_555
C10 C2 1_555 1_555
H13 C10 1_555 1_555
H14 C10 1_555 1_555
C11 C9 1_555 1_555
H15 C11 1_555 1_555
H16 C11 1_555 1_555
C12 O2 1_555 1_555
H17 C12 1_555 1_555
C13 C4 1_555 1_555
H18 C13 1_555 1_555
H19 C13 1_555 1_555
C14 C13 1_555 1_555
H20 C14 1_555 1_555
H21 C14 1_555 1_555
C15 C14 1_555 1_555
H22 C15 1_555 1_555
H23 C15 1_555 1_555
C16 C15 1_555 1_555
C17 C4 1_555 1_555
H24 C17 1_555 1_555
C18 O3 1_555 1_555
H25 C18 1_555 1_555
H26 C18 1_555 1_555
C19 C16 1_555 1_555
H27 C19 1_555 1_555
H28 C19 1_555 1_555
H29 C19 1_555 1_555
C20 C16 1_555 1_555
H30 C20 1_555 1_555
H31 C20 1_555 1_555
H32 C20 1_555 1_555
O4 H33 1_555 1_555
O5 H34 1_555 1_555
O6 H35 1_555 1_555
C21 O4 1_555 1_555
H36 C21 1_555 1_555
C22 C21 1_555 1_555
C23 C22 1_555 1_555
H37 C23 1_555 1_555
C24 C23 1_555 1_555
C25 C21 1_555 1_555
H38 C25 1_555 1_555
H39 C25 1_555 1_555
C26 C22 1_555 1_555
H40 C26 1_555 1_555
H41 C26 1_555 1_555
C27 C26 1_555 1_555
C28 C27 1_555 1_555
H42 C28 1_555 1_555
H43 C28 1_555 1_555
C29 C27 1_555 1_555
H44 C29 1_555 1_555
C30 C22 1_555 1_555
H45 C30 1_555 1_555
H46 C30 1_555 1_555
C31 C29 1_555 1_555
H47 C31 1_555 1_555
H48 C31 1_555 1_555
C32 O5 1_555 1_555
H49 C32 1_555 1_555
C33 C24 1_555 1_555
H50 C33 1_555 1_555
H51 C33 1_555 1_555
C34 C33 1_555 1_555
H52 C34 1_555 1_555
H53 C34 1_555 1_555
C35 C34 1_555 1_555
H54 C35 1_555 1_555
H55 C35 1_555 1_555
C36 C35 1_555 1_555
C37 C24 1_555 1_555
H56 C37 1_555 1_555
C38 O6 1_555 1_555
H57 C38 1_555 1_555
H58 C38 1_555 1_555
C39 C36 1_555 1_555
H59 C39 1_555 1_555
H60 C39 1_555 1_555
H61 C39 1_555 1_555
C40 C36 1_555 1_555
H62 C40 1_555 1_555
H63 C40 1_555 1_555
H64 C40 1_555 1_555
O7 H65 1_555 1_555
H66 O7 1_555 1_555
C3 C12 1_555 1_555
C4 C5 1_555 1_555
C9 C10 1_555 1_555
C11 C12 1_555 1_555
C16 C17 1_555 1_555
C17 C18 1_555 1_555
C23 C32 1_555 1_555
C24 C25 1_555 1_555
C29 C30 1_555 1_555
C31 C32 1_555 1_555
C36 C37 1_555 1_555
C37 C38 1_555 1_555

#END
