
#######################################################################
#
#                 Cambridge Crystallographic Data Centre
#                                CCDC 
#
#######################################################################
#
# If this CIF has been generated from an entry in the Cambridge 
# Structural Database, then it will include bibliographic, chemical, 
# crystal, experimental, refinement or atomic coordinate data resulting 
# from the CCDC's data processing and validation procedures.
#
#######################################################################

data_HIHNES
_chemical_formula_moiety         'C15 H17 N2 O2 S2'
_chemical_name_systematic        
"4,4,5,5-Tetramethyl-2-(2,2'-bithiophen-5-yl)imidazoline-1-oxyl-3-oxide radical"
_symmetry_cell_setting           orthorhombic
_symmetry_space_group_name_H-M   'P 21 21 21'
_symmetry_Int_Tables_number      19
_space_group_name_Hall           'P 2ac 2ab'
loop_
_symmetry_equiv_pos_site_id
_symmetry_equiv_pos_as_xyz
1 x,y,z
2 1/2-x,-y,1/2+z
3 -x,1/2+y,1/2-z
4 1/2+x,1/2-y,-z
_cell_length_a                   6.1635(5)
_cell_length_b                   11.6722(9)
_cell_length_c                   21.9089(18)
_cell_angle_alpha                90
_cell_angle_beta                 90
_cell_angle_gamma                90
_cell_volume                     1576.16
_exptl_crystal_colour            green
_exptl_crystal_description       prism
_cell_formula_units_Z            4
_exptl_crystal_preparation       'magnetic properties'
loop_
_atom_site_label
_atom_site_type_symbol
_atom_site_fract_x
_atom_site_fract_y
_atom_site_fract_z
S1 S 0.5937(2) 0.50019(8) 0.07330(6)
S2 S 0.64898(11) 0.76558(5) 0.11983(3)
O1 O 0.4779(3) 1.15244(16) 0.11476(9)
O2 O 0.9083(4) 0.87916(16) 0.20512(10)
N1 N 0.6202(4) 1.10614(17) 0.14924(9)
N2 N 0.8285(4) 0.97722(17) 0.19222(10)
C1 C 0.4436(10) 0.3969(3) 0.04021(19)
H1 H 0.4861 0.3205 0.0380
C2 C 0.2631(10) 0.4349(3) 0.01824(19)
H2 H 0.1675 0.3880 -0.0031
C3 C 0.2198(6) 0.5521(2) 0.02858(13)
H3 H 0.0938 0.5910 0.0179
C4 C 0.4073(6) 0.6009(2) 0.05888(11)
C5 C 0.4305(4) 0.7202(2) 0.07731(11)
C6 C 0.2897(5) 0.8080(3) 0.06621(13)
H4 H 0.1609 0.7990 0.0446
C7 C 0.3572(5) 0.9122(2) 0.09038(11)
H5 H 0.2800 0.9801 0.0859
C8 C 0.5507(4) 0.9043(2) 0.12165(11)
C9 C 0.6629(4) 0.9933(2) 0.15276(10)
C10 C 0.7799(4) 1.1761(2) 0.18551(13)
C11 C 0.8803(4) 1.0836(2) 0.22767(11)
C12 C 0.6597(5) 1.2720(2) 0.21758(15)
H6 H 0.6004 1.3235 0.1878
H7 H 0.7583 1.3129 0.2436
H8 H 0.5443 1.2404 0.2417
C13 C 0.9390(5) 1.2268(3) 0.13885(16)
H9 H 1.0173 1.1660 0.1193
H10 H 1.0392 1.2767 0.1593
H11 H 0.8598 1.2696 0.1087
C14 C 0.7651(6) 1.0711(3) 0.28899(13)
H12 H 0.6112 1.0677 0.2825
H13 H 0.7991 1.1357 0.3144
H14 H 0.8127 1.0020 0.3086
C15 C 1.1224(5) 1.0930(3) 0.23690(15)
H15 H 1.1713 1.0313 0.2624
H16 H 1.1557 1.1648 0.2561
H17 H 1.1942 1.0890 0.1981
loop_
_geom_bond_atom_site_label_1
_geom_bond_atom_site_label_2
_geom_bond_site_symmetry_1
_geom_bond_site_symmetry_2
S1 C1 1_555 1_555
S2 C5 1_555 1_555
O1 N1 1_555 1_555
O2 N2 1_555 1_555
N1 C9 1_555 1_555
N2 C9 1_555 1_555
C1 H1 1_555 1_555
C2 C1 1_555 1_555
H2 C2 1_555 1_555
C3 C2 1_555 1_555
H3 C3 1_555 1_555
C4 S1 1_555 1_555
C5 C4 1_555 1_555
C6 C5 1_555 1_555
H4 C6 1_555 1_555
C7 C6 1_555 1_555
H5 C7 1_555 1_555
C8 S2 1_555 1_555
C9 C8 1_555 1_555
C10 N1 1_555 1_555
C11 N2 1_555 1_555
C12 C10 1_555 1_555
H6 C12 1_555 1_555
H7 C12 1_555 1_555
H8 C12 1_555 1_555
C13 C10 1_555 1_555
H9 C13 1_555 1_555
H10 C13 1_555 1_555
H11 C13 1_555 1_555
C14 C11 1_555 1_555
H12 C14 1_555 1_555
H13 C14 1_555 1_555
H14 C14 1_555 1_555
C15 C11 1_555 1_555
H15 C15 1_555 1_555
H16 C15 1_555 1_555
H17 C15 1_555 1_555
C3 C4 1_555 1_555
C7 C8 1_555 1_555
C10 C11 1_555 1_555

#END
