
#######################################################################
#
#                 Cambridge Crystallographic Data Centre
#                                CCDC 
#
#######################################################################
#
# If this CIF has been generated from an entry in the Cambridge 
# Structural Database, then it will include bibliographic, chemical, 
# crystal, experimental, refinement or atomic coordinate data resulting 
# from the CCDC's data processing and validation procedures.
#
#######################################################################

data_HIHQEV
_chemical_formula_moiety         'C26 H24 N6 O2 2+,2(Cl1 O4 1-)'
_chemical_name_systematic        
"4,4'-(Diazaethene-1,2-diyl)-bis(N-((pyridin-2-yl-1-ium)methyl)benzamide) bis(perchlorate)"
_symmetry_cell_setting           monoclinic
_symmetry_space_group_name_H-M   'C 2/c'
_symmetry_Int_Tables_number      15
_space_group_name_Hall           '-C 2yn'
loop_
_symmetry_equiv_pos_site_id
_symmetry_equiv_pos_as_xyz
1 x,y,z
2 1/2+x,1/2+y,z
3 -x,y,1/2-z
4 1/2-x,1/2+y,1/2-z
5 -x,-y,-z
6 1/2-x,1/2-y,-z
7 x,-y,1/2+z
8 1/2+x,1/2-y,1/2+z
_cell_length_a                   37.067(7)
_cell_length_b                   5.1017(10)
_cell_length_c                   15.358(3)
_cell_angle_alpha                90
_cell_angle_beta                 108.86(3)
_cell_angle_gamma                90
_cell_volume                     2748.34
_exptl_crystal_colour            yellow
_cell_formula_units_Z            4
loop_
_atom_site_label
_atom_site_type_symbol
_atom_site_fract_x
_atom_site_fract_y
_atom_site_fract_z
Cl1 Cl 0.075154(14) -0.30796(9) 0.15533(3)
O2 O 0.07165(6) -0.0310(3) 0.15147(11)
O3 O 0.09883(6) -0.3917(4) 0.24297(12)
O4 O 0.03906(6) -0.4286(5) 0.1334(2)
O5 O 0.09266(7) -0.3907(4) 0.08948(14)
C1 C -0.03888(6) -0.1086(5) 0.05491(13)
H1 H -0.0229 -0.1877 0.0267
C2 C -0.02523(6) 0.0850(5) 0.11791(14)
H2 H 0.0000 0.1404 0.1333
C3 C -0.04991(6) 0.1978(4) 0.15875(14)
H3 H -0.0413 0.3319 0.2015
C4 C -0.08686(6) 0.1128(4) 0.13639(12)
H4 H -0.1032 0.1874 0.1644
C5 C -0.09972(5) -0.0835(3) 0.07231(10)
C6 C -0.13908(5) -0.1985(4) 0.04459(12)
H5 H -0.1378 -0.3725 0.0709
H6 H -0.1550 -0.0913 0.0695
C7 C -0.16971(4) 0.0018(3) -0.10379(12)
C8 C -0.18770(5) -0.0364(3) -0.20552(11)
C9 C -0.21545(5) 0.1419(4) -0.25298(13)
H7 H -0.2212 0.2843 -0.2221
C10 C -0.23449(5) 0.1084(4) -0.34594(13)
H8 H -0.2525 0.2305 -0.3779
C11 C -0.22654(5) -0.1078(4) -0.39116(12)
C12 C -0.19753(5) -0.2796(4) -0.34540(13)
H9 H -0.1911 -0.4184 -0.3769
C13 C -0.17815(5) -0.2433(4) -0.25261(13)
H10 H -0.1587 -0.3579 -0.2218
N1 N -0.07521(4) -0.1853(3) 0.03344(10)
H11 H -0.0833 -0.3060 -0.0073
N2 N -0.15647(4) -0.2154(3) -0.05450(10)
H12 H -0.1583 -0.3646 -0.0817
N3 N -0.24962(5) -0.1371(3) -0.48546(11)
O1 O -0.16806(4) 0.2173(2) -0.06727(10)
C1E C -0.46112(6) -0.3914(5) -1.05491(13)
H1E H -0.4771 -0.3123 -1.0267
C2E C -0.47477(6) -0.5850(5) -1.11791(14)
H2E H -0.5000 -0.6404 -1.1333
C3E C -0.45009(6) -0.6978(4) -1.15875(14)
H3E H -0.4587 -0.8319 -1.2015
C4E C -0.41314(6) -0.6128(4) -1.13639(12)
H4E H -0.3968 -0.6874 -1.1644
C5E C -0.40028(5) -0.4165(3) -1.07231(10)
C6E C -0.36092(5) -0.3015(4) -1.04459(12)
H5E H -0.3622 -0.1275 -1.0709
H6E H -0.3450 -0.4087 -1.0695
C7E C -0.33029(4) -0.5018(3) -0.89621(12)
C8E C -0.31230(5) -0.4636(3) -0.79448(11)
C9E C -0.28455(5) -0.6419(4) -0.74702(13)
H7E H -0.2788 -0.7843 -0.7779
C10E C -0.26551(5) -0.6084(4) -0.65406(13)
H8E H -0.2475 -0.7305 -0.6221
C11E C -0.27346(5) -0.3922(4) -0.60884(12)
C12E C -0.30247(5) -0.2204(4) -0.65460(13)
H9E H -0.3089 -0.0816 -0.6231
C13E C -0.32185(5) -0.2567(4) -0.74739(13)
H10E H -0.3413 -0.1421 -0.7782
N1E N -0.42479(4) -0.3147(3) -1.03344(10)
H11E H -0.4167 -0.1940 -0.9927
N2E N -0.34353(4) -0.2846(3) -0.94550(10)
H12E H -0.3417 -0.1354 -0.9183
N3E N -0.25038(5) -0.3629(3) -0.51454(11)
O1E O -0.33194(4) -0.7173(2) -0.93273(10)
loop_
_geom_bond_atom_site_label_1
_geom_bond_atom_site_label_2
_geom_bond_site_symmetry_1
_geom_bond_site_symmetry_2
Cl1 O2 1_555 1_555
C1 H1 1_555 1_555
C2 C1 1_555 1_555
H2 C2 1_555 1_555
C3 C2 1_555 1_555
H3 C3 1_555 1_555
C4 C3 1_555 1_555
H4 C4 1_555 1_555
C5 C4 1_555 1_555
C6 C5 1_555 1_555
H5 C6 1_555 1_555
H6 C6 1_555 1_555
C7 C8 1_555 1_555
C8 C9 1_555 1_555
C9 H7 1_555 1_555
C10 C9 1_555 1_555
H8 C10 1_555 1_555
C11 C10 1_555 1_555
C12 C11 1_555 1_555
H9 C12 1_555 1_555
C13 C8 1_555 1_555
H10 C13 1_555 1_555
N1 C1 1_555 1_555
H11 N1 1_555 1_555
N2 C6 1_555 1_555
H12 N2 1_555 1_555
N3 C11 1_555 1_555
O1 C7 1_555 1_555
O3 Cl1 1_555 1_555
O4 Cl1 1_555 1_555
O5 Cl1 1_555 1_555
C1E H1E 1_555 1_555
C2E C1E 1_555 1_555
H2E C2E 1_555 1_555
C3E C2E 1_555 1_555
H3E C3E 1_555 1_555
C4E C3E 1_555 1_555
H4E C4E 1_555 1_555
C5E C4E 1_555 1_555
C6E C5E 1_555 1_555
H5E C6E 1_555 1_555
H6E C6E 1_555 1_555
C7E C8E 1_555 1_555
C8E C9E 1_555 1_555
C9E H7E 1_555 1_555
C10E C9E 1_555 1_555
H8E C10E 1_555 1_555
C11E C10E 1_555 1_555
C12E C11E 1_555 1_555
H9E C12E 1_555 1_555
C13E C8E 1_555 1_555
H10E C13E 1_555 1_555
N1E C1E 1_555 1_555
H11E N1E 1_555 1_555
N2E C6E 1_555 1_555
H12E N2E 1_555 1_555
N3E N3 1_555 1_555
O1E C7E 1_555 1_555
C5 N1 1_555 1_555
C7 N2 1_555 1_555
C12 C13 1_555 1_555
C5E N1E 1_555 1_555
C7E N2E 1_555 1_555
C11E N3E 1_555 1_555
C12E C13E 1_555 1_555

#END
