
#######################################################################
#
#                 Cambridge Crystallographic Data Centre
#                                CCDC 
#
#######################################################################
#
# If this CIF has been generated from an entry in the Cambridge 
# Structural Database, then it will include bibliographic, chemical, 
# crystal, experimental, refinement or atomic coordinate data resulting 
# from the CCDC's data processing and validation procedures.
#
#######################################################################

data_HIHQIZ
_chemical_compound_source        
'broth of a marine isolate of the fungus Aspergillus sp. (family Trichocomaceae)'
_chemical_name_common            
'7-Chloro-3,6-dimethyl-6-hydroxy-3,4-epoxy-2-(1-methylprop-1-ene-1-yl)-1-(2,4-dimethyl-hepta-4,6-diene-7-yl-1,3-diol)-decahydronaphthalene hydrate'
_chemical_formula_moiety         'C25 H39 Cl1 O4,0.75(H2 O1)'
_chemical_name_systematic        'Dehydroxychlorofusarielin B hydrate'
_chemical_properties_biological  
'Mild antibacterial activity against S. aureus including methicillin- and multidrug-resistant strains'
_symmetry_cell_setting           orthorhombic
_symmetry_space_group_name_H-M   'P 21 21 21'
_symmetry_Int_Tables_number      19
_space_group_name_Hall           'P 2ac 2ab'
loop_
_symmetry_equiv_pos_site_id
_symmetry_equiv_pos_as_xyz
1 x,y,z
2 1/2-x,-y,1/2+z
3 1/2+x,1/2-y,-z
4 -x,1/2+y,1/2-z
_cell_length_a                   11.0682(6)
_cell_length_b                   17.380(1)
_cell_length_c                   29.355(2)
_cell_angle_alpha                90
_cell_angle_beta                 90
_cell_angle_gamma                90
_cell_volume                     5646.88
_exptl_crystal_colour            colorless
_exptl_crystal_description       block
_cell_formula_units_Z            8
_exptl_crystal_recrystallization_method acetone/n-hexane
loop_
_atom_site_label
_atom_site_type_symbol
_atom_site_fract_x
_atom_site_fract_y
_atom_site_fract_z
Cl1 Cl -0.2744(2) -0.13504(11) 0.20488(8)
O1 O 0.5987(5) 0.1135(4) 0.1579(2)
H1 H 0.6593 0.0917 0.1674
O2 O 0.4468(5) 0.0036(4) 0.18320(18)
H2 H 0.3853 0.0100 0.1983
O3 O -0.1924(5) -0.3537(3) 0.22518(17)
H3 H -0.2000 -0.3924 0.2095
O4 O -0.1070(5) -0.3720(3) 0.05744(18)
C1 C 0.5779(8) 0.0915(5) 0.1118(3)
H7 H 0.6531 0.0956 0.0950
H8 H 0.5207 0.1270 0.0982
C2 C 0.5289(7) 0.0092(4) 0.1070(2)
H9 H 0.5912 -0.0271 0.1169
C3 C 0.4151(7) -0.0036(5) 0.1354(3)
H10 H 0.3553 0.0358 0.1276
C4 C 0.3582(7) -0.0830(4) 0.1297(3)
C5 C 0.2413(7) -0.0876(4) 0.1184(2)
H11 H 0.2003 -0.0414 0.1146
C6 C 0.1723(7) -0.1571(4) 0.1115(2)
H12 H 0.2122 -0.2040 0.1135
C7 C 0.0549(7) -0.1574(4) 0.1027(3)
H13 H 0.0159 -0.1102 0.1004
C8 C -0.0193(7) -0.2285(4) 0.0959(3)
H14 H 0.0336 -0.2731 0.1002
C9 C -0.1207(7) -0.2338(4) 0.1306(2)
H15 H -0.1795 -0.1935 0.1232
C10 C -0.0824(8) -0.2216(5) 0.1805(2)
H16 H -0.0264 -0.2619 0.1892
H17 H -0.0408 -0.1727 0.1832
C11 C -0.1882(8) -0.2224(4) 0.2121(3)
H18 H -0.1562 -0.2221 0.2433
C12 C -0.2700(7) -0.2934(4) 0.2077(3)
C13 C -0.2988(7) -0.3113(4) 0.1580(2)
H19 H -0.3375 -0.3613 0.1562
H20 H -0.3554 -0.2733 0.1466
C14 C -0.1875(7) -0.3114(4) 0.1283(2)
H21 H -0.1326 -0.3495 0.1416
C15 C -0.2104(7) -0.3371(4) 0.0802(2)
H22 H -0.2882 -0.3625 0.0749
C16 C -0.1546(8) -0.3004(5) 0.0394(3)
C17 C -0.0719(7) -0.2319(4) 0.0463(3)
H23 H -0.0027 -0.2401 0.0261
C18 C -0.1329(8) -0.1569(5) 0.0300(3)
C19 C -0.0769(10) -0.1074(5) 0.0034(3)
H24 H -0.0002 -0.1208 -0.0068
C20 C -0.1251(12) -0.0328(6) -0.0115(4)
H25 H -0.2117 -0.0353 -0.0127
H26 H -0.0941 -0.0208 -0.0412
H27 H -0.1010 0.0065 0.0096
C21 C 0.5016(8) -0.0046(5) 0.0555(3)
H28 H 0.5744 0.0021 0.0381
H29 H 0.4419 0.0316 0.0453
H30 H 0.4719 -0.0560 0.0513
C22 C 0.4419(8) -0.1500(5) 0.1374(3)
H31 H 0.3966 -0.1931 0.1487
H32 H 0.5025 -0.1359 0.1593
H33 H 0.4801 -0.1637 0.1092
C23 C -0.3819(8) -0.2898(5) 0.2366(3)
H34 H -0.3597 -0.2805 0.2677
H35 H -0.4246 -0.3377 0.2345
H36 H -0.4330 -0.2488 0.2260
C24 C -0.2102(9) -0.3100(5) -0.0066(3)
H37 H -0.2757 -0.3461 -0.0047
H38 H -0.1505 -0.3288 -0.0275
H39 H -0.2402 -0.2613 -0.0171
C25 C -0.2602(8) -0.1409(5) 0.0466(3)
H40 H -0.2572 -0.1069 0.0723
H41 H -0.2980 -0.1884 0.0554
H42 H -0.3061 -0.1174 0.0226
Cl2 Cl 0.7882(2) 0.28613(11) 0.23562(8)
O5 O -0.1688(5) 0.0742(4) 0.1792(2)
H4 H -0.1427 0.1086 0.1955
O6 O 0.0211(4) 0.1548(3) 0.20776(17)
H5 H 0.0711 0.1638 0.2277
O7 O 0.6998(5) 0.5090(3) 0.24309(18)
H6 H 0.7258 0.5482 0.2310
O8 O 0.6183(5) 0.5083(3) 0.07938(18)
C26 C -0.0855(8) 0.0601(5) 0.1431(3)
H43 H -0.1295 0.0409 0.1169
H44 H -0.0292 0.0204 0.1525
C27 C -0.0154(7) 0.1302(4) 0.1292(2)
H45 H -0.0724 0.1731 0.1266
C28 C 0.0801(7) 0.1521(4) 0.1644(2)
H46 H 0.1416 0.1116 0.1652
C29 C 0.1414(7) 0.2276(4) 0.1539(3)
C30 C 0.2607(7) 0.2288(4) 0.1460(3)
H47 H 0.3015 0.1820 0.1475
C31 C 0.3328(8) 0.2975(4) 0.1353(3)
H48 H 0.2931 0.3443 0.1316
C32 C 0.4539(7) 0.2958(4) 0.1307(3)
H49 H 0.4930 0.2486 0.1328
C33 C 0.5298(7) 0.3678(4) 0.1221(3)
H50 H 0.4769 0.4125 0.1259
C34 C 0.6313(8) 0.3749(4) 0.1566(2)
H51 H 0.6905 0.3345 0.1501
C35 C 0.5930(7) 0.3672(4) 0.2066(2)
H52 H 0.5350 0.4073 0.2137
H53 H 0.5530 0.3180 0.2108
C36 C 0.6963(8) 0.3726(4) 0.2396(3)
H54 H 0.6631 0.3757 0.2704
C37 C 0.7771(8) 0.4444(4) 0.2315(2)
C38 C 0.8076(7) 0.4556(4) 0.1820(2)
H55 H 0.8632 0.4156 0.1725
H56 H 0.8478 0.5048 0.1782
C39 C 0.6956(7) 0.4532(4) 0.1520(2)
H57 H 0.6398 0.4922 0.1638
C40 C 0.7226(8) 0.4748(4) 0.1037(2)
H58 H 0.8013 0.4988 0.0980
C41 C 0.6641(8) 0.4356(5) 0.0641(3)
C42 C 0.5778(8) 0.3688(5) 0.0717(3)
H59 H 0.5071 0.3798 0.0527
C43 C 0.6298(8) 0.2935(5) 0.0535(3)
C44 C 0.5746(9) 0.2569(5) 0.0194(3)
H60 H 0.5022 0.2782 0.0094
C45 C 0.6147(12) 0.1866(5) -0.0044(3)
H61 H 0.6945 0.1731 0.0057
H62 H 0.6157 0.1957 -0.0366
H63 H 0.5601 0.1452 0.0023
C46 C 0.0441(9) 0.1187(5) 0.0825(3)
H64 H -0.0168 0.1074 0.0602
H65 H 0.1003 0.0767 0.0841
H66 H 0.0862 0.1648 0.0740
C47 C 0.0623(8) 0.2973(5) 0.1535(3)
H67 H 0.1079 0.3412 0.1635
H68 H -0.0050 0.2894 0.1736
H69 H 0.0331 0.3061 0.1232
C48 C 0.8878(8) 0.4456(5) 0.2625(3)
H70 H 0.8625 0.4423 0.2937
H71 H 0.9318 0.4925 0.2578
H72 H 0.9388 0.4025 0.2554
C49 C 0.7225(10) 0.4404(6) 0.0176(3)
H73 H 0.7888 0.4760 0.0186
H74 H 0.6640 0.4578 -0.0043
H75 H 0.7516 0.3905 0.0089
C50 C 0.7471(9) 0.2646(5) 0.0732(3)
H76 H 0.7307 0.2338 0.0996
H77 H 0.7968 0.3075 0.0817
H78 H 0.7884 0.2340 0.0509
O9 O 0.116(2) -0.4814(15) 0.1199(17)
O10 O 0.287(4) -0.4491(16) 0.2061(9)
O11 O 0.227(5) -0.411(3) 0.1355(17)
loop_
_geom_bond_atom_site_label_1
_geom_bond_atom_site_label_2
_geom_bond_site_symmetry_1
_geom_bond_site_symmetry_2
Cl1 C11 1_555 1_555
Cl2 C36 1_555 1_555
O1 H1 1_555 1_555
O2 H2 1_555 1_555
O3 H3 1_555 1_555
O4 C15 1_555 1_555
O5 H4 1_555 1_555
O6 H5 1_555 1_555
O7 H6 1_555 1_555
O8 C40 1_555 1_555
C1 O1 1_555 1_555
H7 C1 1_555 1_555
H8 C1 1_555 1_555
C2 C1 1_555 1_555
H9 C2 1_555 1_555
C3 O2 1_555 1_555
H10 C3 1_555 1_555
C4 C3 1_555 1_555
C5 C4 1_555 1_555
H11 C5 1_555 1_555
C6 C5 1_555 1_555
H12 C6 1_555 1_555
C7 C6 1_555 1_555
H13 C7 1_555 1_555
C8 C7 1_555 1_555
H14 C8 1_555 1_555
C9 C8 1_555 1_555
H15 C9 1_555 1_555
C10 C9 1_555 1_555
H16 C10 1_555 1_555
H17 C10 1_555 1_555
C11 C10 1_555 1_555
H18 C11 1_555 1_555
C12 O3 1_555 1_555
C13 C12 1_555 1_555
H19 C13 1_555 1_555
H20 C13 1_555 1_555
C14 C9 1_555 1_555
H21 C14 1_555 1_555
C15 C14 1_555 1_555
H22 C15 1_555 1_555
C16 O4 1_555 1_555
C17 C8 1_555 1_555
H23 C17 1_555 1_555
C18 C17 1_555 1_555
C19 C18 1_555 1_555
H24 C19 1_555 1_555
C20 C19 1_555 1_555
H25 C20 1_555 1_555
H26 C20 1_555 1_555
H27 C20 1_555 1_555
C21 C2 1_555 1_555
H28 C21 1_555 1_555
H29 C21 1_555 1_555
H30 C21 1_555 1_555
C22 C4 1_555 1_555
H31 C22 1_555 1_555
H32 C22 1_555 1_555
H33 C22 1_555 1_555
C23 C12 1_555 1_555
H34 C23 1_555 1_555
H35 C23 1_555 1_555
H36 C23 1_555 1_555
C24 C16 1_555 1_555
H37 C24 1_555 1_555
H38 C24 1_555 1_555
H39 C24 1_555 1_555
C25 C18 1_555 1_555
H40 C25 1_555 1_555
H41 C25 1_555 1_555
H42 C25 1_555 1_555
C26 O5 1_555 1_555
H43 C26 1_555 1_555
H44 C26 1_555 1_555
C27 C26 1_555 1_555
H45 C27 1_555 1_555
C28 O6 1_555 1_555
H46 C28 1_555 1_555
C29 C28 1_555 1_555
C30 C29 1_555 1_555
H47 C30 1_555 1_555
C31 C30 1_555 1_555
H48 C31 1_555 1_555
C32 C31 1_555 1_555
H49 C32 1_555 1_555
C33 C32 1_555 1_555
H50 C33 1_555 1_555
C34 C33 1_555 1_555
H51 C34 1_555 1_555
C35 C34 1_555 1_555
H52 C35 1_555 1_555
H53 C35 1_555 1_555
C36 C35 1_555 1_555
H54 C36 1_555 1_555
C37 O7 1_555 1_555
C38 C37 1_555 1_555
H55 C38 1_555 1_555
H56 C38 1_555 1_555
C39 C34 1_555 1_555
H57 C39 1_555 1_555
C40 C39 1_555 1_555
H58 C40 1_555 1_555
C41 O8 1_555 1_555
C42 C33 1_555 1_555
H59 C42 1_555 1_555
C43 C42 1_555 1_555
C44 C43 1_555 1_555
H60 C44 1_555 1_555
C45 C44 1_555 1_555
H61 C45 1_555 1_555
H62 C45 1_555 1_555
H63 C45 1_555 1_555
C46 C27 1_555 1_555
H64 C46 1_555 1_555
H65 C46 1_555 1_555
H66 C46 1_555 1_555
C47 C29 1_555 1_555
H67 C47 1_555 1_555
H68 C47 1_555 1_555
H69 C47 1_555 1_555
C48 C37 1_555 1_555
H70 C48 1_555 1_555
H71 C48 1_555 1_555
H72 C48 1_555 1_555
C49 C41 1_555 1_555
H73 C49 1_555 1_555
H74 C49 1_555 1_555
H75 C49 1_555 1_555
C50 C43 1_555 1_555
H76 C50 1_555 1_555
H77 C50 1_555 1_555
H78 C50 1_555 1_555
C2 C3 1_555 1_555
C11 C12 1_555 1_555
C13 C14 1_555 1_555
C15 C16 1_555 1_555
C16 C17 1_555 1_555
C27 C28 1_555 1_555
C36 C37 1_555 1_555
C38 C39 1_555 1_555
C40 C41 1_555 1_555
C41 C42 1_555 1_555

#END
