
#######################################################################
#
#                 Cambridge Crystallographic Data Centre
#                                CCDC 
#
#######################################################################
#
# If this CIF has been generated from an entry in the Cambridge 
# Structural Database, then it will include bibliographic, chemical, 
# crystal, experimental, refinement or atomic coordinate data resulting 
# from the CCDC's data processing and validation procedures.
#
#######################################################################

data_HIHROF01
_chemical_formula_moiety         'C12 H8 N2 O4 S3'
_chemical_name_systematic        'bis(2-Nitrophenyl) trisulfide'
_symmetry_cell_setting           orthorhombic
_symmetry_space_group_name_H-M   'P 21 21 2'
_symmetry_Int_Tables_number      18
_space_group_name_Hall           'P 2 2ab'
loop_
_symmetry_equiv_pos_site_id
_symmetry_equiv_pos_as_xyz
1 x,y,z
2 -x,-y,z
3 1/2+x,1/2-y,-z
4 1/2-x,1/2+y,-z
_cell_length_a                   13.620(5)
_cell_length_b                   12.088(5)
_cell_length_c                   4.115(2)
_cell_angle_alpha                90
_cell_angle_beta                 90
_cell_angle_gamma                90
_cell_volume                     677.488
_exptl_crystal_colour            orange
_cell_formula_units_Z            2
loop_
_atom_site_label
_atom_site_type_symbol
_atom_site_fract_x
_atom_site_fract_y
_atom_site_fract_z
S1 S 0.62235(7) 0.47537(8) 0.5825(2)
S2 S 0.5000 0.5000 0.8675(3)
O1 O 0.7861(2) 0.4399(2) 0.2828(8)
O2 O 0.8334(2) 0.3042(3) -0.0190(9)
N1 N 0.7744(2) 0.3462(3) 0.1698(9)
C1 C 0.6876(3) 0.2846(3) 0.2687(10)
C2 C 0.6144(3) 0.3333(3) 0.4565(9)
C3 C 0.5344(3) 0.2670(3) 0.5411(10)
H1 H 0.4828(3) 0.2971(3) 0.6685(10)
C4 C 0.5297(3) 0.1579(3) 0.4410(10)
H2 H 0.4750(3) 0.1139(3) 0.5025(10)
C5 C 0.6030(3) 0.1121(3) 0.2534(10)
H3 H 0.5987(3) 0.0372(3) 0.1851(10)
C6 C 0.6817(3) 0.1749(3) 0.1667(10)
H4 H 0.7325(3) 0.1441(3) 0.0370(10)
S1A S 0.37765(7) 0.52463(8) 0.5825(2)
C2A C 0.3856(3) 0.6667(3) 0.4565(9)
C1A C 0.3124(3) 0.7154(3) 0.2687(10)
N1A N 0.2256(2) 0.6538(3) 0.1698(9)
O1A O 0.2139(2) 0.5601(2) 0.2828(8)
O2A O 0.1666(2) 0.6958(3) -0.0190(9)
C6A C 0.3183(3) 0.8251(3) 0.1667(10)
C5A C 0.3970(3) 0.8879(3) 0.2534(10)
C4A C 0.4703(3) 0.8421(3) 0.4410(10)
C3A C 0.4656(3) 0.7330(3) 0.5411(10)
H1A H 0.5172(3) 0.7029(3) 0.6685(10)
H2A H 0.5250(3) 0.8861(3) 0.5025(10)
H3A H 0.4013(3) 0.9628(3) 0.1851(10)
H4A H 0.2675(3) 0.8559(3) 0.0370(10)
loop_
_geom_bond_atom_site_label_1
_geom_bond_atom_site_label_2
_geom_bond_site_symmetry_1
_geom_bond_site_symmetry_2
S1 S2 1_555 1_555
S2 S1A 1_555 1_555
O1 N1 1_555 1_555
O2 N1 1_555 1_555
N1 C1 1_555 1_555
C1 C2 1_555 1_555
C2 S1 1_555 1_555
C3 C2 1_555 1_555
H1 C3 1_555 1_555
C4 C3 1_555 1_555
H2 C4 1_555 1_555
C5 C4 1_555 1_555
H3 C5 1_555 1_555
C6 C1 1_555 1_555
H4 C6 1_555 1_555
S1A C2A 1_555 1_555
C2A C1A 1_555 1_555
C1A N1A 1_555 1_555
N1A O1A 1_555 1_555
O2A N1A 1_555 1_555
C6A C1A 1_555 1_555
C5A C6A 1_555 1_555
C4A C5A 1_555 1_555
C3A C2A 1_555 1_555
H1A C3A 1_555 1_555
H2A C4A 1_555 1_555
H3A C5A 1_555 1_555
H4A C6A 1_555 1_555
C5 C6 1_555 1_555
C4A C3A 1_555 1_555

#END
