
#######################################################################
#
#                 Cambridge Crystallographic Data Centre
#                                CCDC 
#
#######################################################################
#
# If this CIF has been generated from an entry in the Cambridge 
# Structural Database, then it will include bibliographic, chemical, 
# crystal, experimental, refinement or atomic coordinate data resulting 
# from the CCDC's data processing and validation procedures.
#
#######################################################################

data_HIHROF
_chemical_formula_moiety         'C12 H8 N2 O4 S3'
_chemical_name_systematic        'bis(2-Nitrophenyl) trisulfide'
_symmetry_cell_setting           triclinic
_symmetry_space_group_name_H-M   'P -1'
_symmetry_Int_Tables_number      2
_space_group_name_Hall           '-P 1'
loop_
_symmetry_equiv_pos_site_id
_symmetry_equiv_pos_as_xyz
1 x,y,z
2 -x,-y,-z
_cell_length_a                   7.839(7)
_cell_length_b                   8.281(7)
_cell_length_c                   13.113(9)
_cell_angle_alpha                92.77(6)
_cell_angle_beta                 104.85(6)
_cell_angle_gamma                120.82(6)
_cell_volume                     689.859
_exptl_crystal_colour            yellow
_chemical_melting_point          448-449K
_cell_formula_units_Z            2
loop_
_atom_site_label
_atom_site_type_symbol
_atom_site_fract_x
_atom_site_fract_y
_atom_site_fract_z
S1 S 0.34065(12) 0.74005(11) 0.77778(6)
S2 S 0.53008(13) 0.98355(11) 0.72912(6)
S3 S 0.72929(11) 0.93467(11) 0.67815(6)
O1 O 0.0857(4) 0.4468(4) 0.8436(2)
O2 O 0.1080(4) 0.3834(3) 1.0016(2)
O3 O 0.9830(3) 0.8792(4) 0.6114(2)
O4 O 0.9407(4) 0.7274(4) 0.4611(2)
N1 N 0.1811(4) 0.4842(4) 0.9398(2)
N2 N 0.8764(4) 0.7835(4) 0.5201(2)
C1 C 0.3957(4) 0.6568(4) 0.9824(2)
C2 C 0.4835(4) 0.7803(4) 0.9166(2)
C3 C 0.6882(4) 0.9386(4) 0.9655(2)
C4 C 0.7954(5) 0.9683(5) 1.0724(3)
C5 C 0.7055(5) 0.8443(5) 1.1358(3)
C6 C 0.5030(5) 0.6869(5) 1.0899(2)
C7 C 0.6586(4) 0.7329(4) 0.4791(2)
C8 C 0.5770(4) 0.7956(4) 0.5435(2)
C9 C 0.3692(4) 0.7394(4) 0.4974(2)
C10 C 0.2505(4) 0.6265(4) 0.3944(2)
C11 C 0.3343(5) 0.5640(4) 0.3338(2)
C12 C 0.5394(5) 0.6186(4) 0.3765(2)
H1 H 0.7549 1.0275 0.9240
H2 H 0.9352 1.0770 1.1035
H3 H 0.7808 0.8676 1.2099
H4 H 0.4385 0.5988 1.1323
H5 H 0.3078 0.7805 0.5373
H6 H 0.1089 0.5909 0.3650
H7 H 0.2511 0.4843 0.2635
H8 H 0.5998 0.5769 0.3360
loop_
_geom_bond_atom_site_label_1
_geom_bond_atom_site_label_2
_geom_bond_site_symmetry_1
_geom_bond_site_symmetry_2
S1 S2 1_555 1_555
S2 S3 1_555 1_555
S3 C8 1_555 1_555
O1 N1 1_555 1_555
O2 N1 1_555 1_555
O3 N2 1_555 1_555
O4 N2 1_555 1_555
N1 C1 1_555 1_555
N2 C7 1_555 1_555
C1 C2 1_555 1_555
C2 S1 1_555 1_555
C3 C2 1_555 1_555
C4 C3 1_555 1_555
C5 C4 1_555 1_555
C6 C1 1_555 1_555
C7 C8 1_555 1_555
C8 C9 1_555 1_555
C9 C10 1_555 1_555
C10 C11 1_555 1_555
C11 C12 1_555 1_555
C12 C7 1_555 1_555
H1 C3 1_555 1_555
H2 C4 1_555 1_555
H3 C5 1_555 1_555
H4 C6 1_555 1_555
H5 C9 1_555 1_555
H6 C10 1_555 1_555
H7 C11 1_555 1_555
H8 C12 1_555 1_555
C5 C6 1_555 1_555

#END
