
#######################################################################
#
#                 Cambridge Crystallographic Data Centre
#                                CCDC 
#
#######################################################################
#
# If this CIF has been generated from an entry in the Cambridge 
# Structural Database, then it will include bibliographic, chemical, 
# crystal, experimental, refinement or atomic coordinate data resulting 
# from the CCDC's data processing and validation procedures.
#
#######################################################################

data_HIHYOO
_chemical_name_common            
'((2,6-Dioxopiperidin-1-yl)methyl)(dimethyl)silanylium iodide'
_chemical_formula_moiety         'C8 H14 N1 O2 Si1 1+,I1 1-'
_chemical_name_systematic        
'dimethyl-((2,6-dioxopiperidin-1-yl)methyl)-silicon iodide'
_symmetry_cell_setting           monoclinic
_symmetry_space_group_name_H-M   'P 21'
_symmetry_Int_Tables_number      4
_space_group_name_Hall           'P 2yb'
loop_
_symmetry_equiv_pos_site_id
_symmetry_equiv_pos_as_xyz
1 x,y,z
2 -x,1/2+y,-z
_cell_length_a                   8.4342(3)
_cell_length_b                   7.2543(2)
_cell_length_c                   9.6610(3)
_cell_angle_alpha                90
_cell_angle_beta                 103.079(2)
_cell_angle_gamma                90
_cell_volume                     575.767
_exptl_crystal_colour            yellow
_exptl_crystal_description       block
_cell_formula_units_Z            2
loop_
_atom_site_label
_atom_site_type_symbol
_atom_site_fract_x
_atom_site_fract_y
_atom_site_fract_z
C1 C 1.0658(4) 0.2828(14) 0.3683(3)
C2 C 1.1481(5) 0.2637(6) 0.5196(4)
H1 H 1.1565 0.1315 0.5458
H2 H 1.0831 0.3261 0.5791
C3 C 1.3174(4) 0.3480(5) 0.5476(4)
H3 H 1.3088 0.4836 0.5372
H4 H 1.3767 0.3197 0.6459
C4 C 1.4095(4) 0.2709(9) 0.4436(4)
H5 H 1.5162 0.3338 0.4578
H6 H 1.4305 0.1382 0.4638
C5 C 1.3205(4) 0.2929(18) 0.2912(3)
C6 C 1.0460(3) 0.3053(19) 0.1184(3)
H7 H 1.0686 0.2002 0.0603
H8 H 1.0668 0.4220 0.0723
C7 C 0.7130(13) 0.0831(11) 0.1018(10)
H9 H 0.7839 -0.0234 0.1323
H10 H 0.6679 0.0759 -0.0009
H11 H 0.6239 0.0827 0.1517
C8 C 0.7221(13) 0.5153(11) 0.1195(11)
H12 H 0.6308 0.5098 0.1666
H13 H 0.6806 0.5387 0.0178
H14 H 0.7961 0.6149 0.1612
N1 N 1.1457(3) 0.2937(14) 0.2658(2)
O1 O 0.9084(3) 0.2834(12) 0.3305(2)
O2 O 1.3820(2) 0.3013(11) 0.1909(2)
Si1 Si 0.83140(10) 0.2964(5) 0.14348(8)
I1 I 1.18985(2) -0.19733(3) 0.248333(18)
loop_
_geom_bond_atom_site_label_1
_geom_bond_atom_site_label_2
_geom_bond_site_symmetry_1
_geom_bond_site_symmetry_2
C1 C2 1_555 1_555
C2 H1 1_555 1_555
H2 C2 1_555 1_555
C3 C2 1_555 1_555
H3 C3 1_555 1_555
H4 C3 1_555 1_555
C4 C3 1_555 1_555
H5 C4 1_555 1_555
H6 C4 1_555 1_555
C5 C4 1_555 1_555
C6 H7 1_555 1_555
H8 C6 1_555 1_555
C7 H9 1_555 1_555
H10 C7 1_555 1_555
H11 C7 1_555 1_555
C8 H12 1_555 1_555
H13 C8 1_555 1_555
H14 C8 1_555 1_555
N1 C1 1_555 1_555
O1 C1 1_555 1_555
O2 C5 1_555 1_555
Si1 C6 1_555 1_555
C5 N1 1_555 1_555
C6 N1 1_555 1_555
C7 Si1 1_555 1_555
C8 Si1 1_555 1_555
O1 Si1 1_555 1_555

#END
