
#######################################################################
#
#                 Cambridge Crystallographic Data Centre
#                                CCDC 
#
#######################################################################
#
# If this CIF has been generated from an entry in the Cambridge 
# Structural Database, then it will include bibliographic, chemical, 
# crystal, experimental, refinement or atomic coordinate data resulting 
# from the CCDC's data processing and validation procedures.
#
#######################################################################

data_HIJCIN
_chemical_formula_moiety         'C19 H23 N1 O2 S1'
_chemical_name_systematic        
7,8-Dimethyl-3-(p-tolylsulfonyl)-3-azatetracyclo(6.2.1.0^1,5^.0^5,10^)undec-6-ene
_symmetry_cell_setting           triclinic
_symmetry_space_group_name_H-M   'P -1'
_symmetry_Int_Tables_number      2
_space_group_name_Hall           '-P 1'
loop_
_symmetry_equiv_pos_site_id
_symmetry_equiv_pos_as_xyz
1 x,y,z
2 -x,-y,-z
_cell_length_a                   6.1743(6)
_cell_length_b                   10.9348(12)
_cell_length_c                   13.6290(15)
_cell_angle_alpha                105.017(5)
_cell_angle_beta                 100.703(6)
_cell_angle_gamma                93.627(6)
_cell_volume                     867.238
_exptl_crystal_colour            colorless
_exptl_crystal_description       prism
_cell_formula_units_Z            2
loop_
_atom_site_label
_atom_site_type_symbol
_atom_site_fract_x
_atom_site_fract_y
_atom_site_fract_z
S1 S 0.47828(14) 0.49293(8) 0.26058(6)
C1 C 0.4036(5) 0.4045(3) 0.3426(2)
O1 O 0.3768(5) 0.6078(2) 0.28000(19)
N1 N 0.3681(4) 0.4122(3) 0.14150(19)
C2 C 0.1242(5) 0.3991(3) 0.1025(2)
H1 H 0.0743 0.4803 0.0984
H2 H 0.0449 0.3648 0.1464
O2 O 0.7127(4) 0.4974(3) 0.26959(19)
C3 C 0.5338(6) 0.3125(3) 0.3661(3)
H3 H 0.6619 0.2994 0.3400
C4 C 0.0937(5) 0.3077(3) -0.0033(2)
C5 C 0.2137(6) 0.4231(4) 0.3823(2)
H4 H 0.1249 0.4841 0.3670
C6 C 0.2976(5) 0.2358(3) -0.0053(2)
C7 C 0.4555(5) 0.2911(4) 0.0980(3)
H5 H 0.4530 0.2348 0.1424
H6 H 0.6061 0.3067 0.0891
C8 C -0.1177(5) 0.2299(3) -0.0671(2)
H7 H -0.2285 0.2842 -0.0847
H8 H -0.1767 0.1748 -0.0305
C9 C 0.1290(7) 0.2530(4) -0.1830(3)
H9 H 0.2315 0.2106 -0.2227
H10 H 0.0560 0.3100 -0.2187
C10 C 0.2455(6) 0.3231(3) -0.0744(2)
H11 H 0.3394 0.4038 -0.0609
C11 C -0.0483(6) 0.1514(3) -0.1650(3)
C12 C 0.2584(6) 0.0979(4) -0.0565(3)
H12 H 0.3513 0.0427 -0.0336
C13 C 0.2848(7) 0.2588(4) 0.4683(3)
C14 C 0.1574(7) 0.3503(4) 0.4447(3)
H13 H 0.0303 0.3634 0.4716
C15 C 0.4729(7) 0.2412(4) 0.4278(3)
H14 H 0.5603 0.1795 0.4427
C16 C 0.0901(7) 0.0547(4) -0.1350(3)
C17 C -0.2393(8) 0.0994(4) -0.2582(3)
H15 H -0.1831 0.0539 -0.3166
H16 H -0.3120 0.1687 -0.2748
H17 H -0.3436 0.0427 -0.2419
C18 C 0.2195(10) 0.1789(5) 0.5349(3)
H18 H 0.2967 0.1046 0.5255
H19 H 0.0624 0.1534 0.5152
H20 H 0.2577 0.2278 0.6065
C19 C 0.0338(10) -0.0872(5) -0.1928(4)
H21 H 0.1370 -0.1351 -0.1613
H22 H 0.0432 -0.0999 -0.2642
H23 H -0.1141 -0.1157 -0.1892
loop_
_geom_bond_atom_site_label_1
_geom_bond_atom_site_label_2
_geom_bond_site_symmetry_1
_geom_bond_site_symmetry_2
S1 C1 1_555 1_555
C1 C3 1_555 1_555
O1 S1 1_555 1_555
N1 S1 1_555 1_555
C2 N1 1_555 1_555
H1 C2 1_555 1_555
H2 C2 1_555 1_555
O2 S1 1_555 1_555
C3 H3 1_555 1_555
C4 C2 1_555 1_555
C5 C1 1_555 1_555
H4 C5 1_555 1_555
C6 C4 1_555 1_555
C7 N1 1_555 1_555
H5 C7 1_555 1_555
H6 C7 1_555 1_555
C8 C4 1_555 1_555
H7 C8 1_555 1_555
H8 C8 1_555 1_555
C9 H9 1_555 1_555
H10 C9 1_555 1_555
C10 C4 1_555 1_555
H11 C10 1_555 1_555
C11 C8 1_555 1_555
C12 C6 1_555 1_555
H12 C12 1_555 1_555
C13 C14 1_555 1_555
C14 C5 1_555 1_555
H13 C14 1_555 1_555
C15 C3 1_555 1_555
H14 C15 1_555 1_555
C16 C11 1_555 1_555
C17 C11 1_555 1_555
H15 C17 1_555 1_555
H16 C17 1_555 1_555
H17 C17 1_555 1_555
C18 C13 1_555 1_555
H18 C18 1_555 1_555
H19 C18 1_555 1_555
H20 C18 1_555 1_555
C19 C16 1_555 1_555
H21 C19 1_555 1_555
H22 C19 1_555 1_555
H23 C19 1_555 1_555
C6 C7 1_555 1_555
C6 C10 1_555 1_555
C9 C10 1_555 1_555
C9 C11 1_555 1_555
C12 C16 1_555 1_555
C13 C15 1_555 1_555

#END
