
#######################################################################
#
#                 Cambridge Crystallographic Data Centre
#                                CCDC 
#
#######################################################################
#
# If this CIF has been generated from an entry in the Cambridge 
# Structural Database, then it will include bibliographic, chemical, 
# crystal, experimental, refinement or atomic coordinate data resulting 
# from the CCDC's data processing and validation procedures.
#
#######################################################################

data_HIJCEJ
_chemical_formula_moiety         'C17 H19 N1 O2 S1'
_chemical_name_systematic        
10-(p-Tolylsulfonyl)-10-azapentacyclo(5.4.0.0^1,8^.0^3,5^.0^4,8^)undecane
_symmetry_cell_setting           monoclinic
_symmetry_space_group_name_H-M   'P 21/a'
_symmetry_Int_Tables_number      14
_space_group_name_Hall           '-P 2yab'
loop_
_symmetry_equiv_pos_site_id
_symmetry_equiv_pos_as_xyz
1 x,y,z
2 1/2-x,1/2+y,-z
3 -x,-y,-z
4 1/2+x,1/2-y,z
_cell_length_a                   12.5501(10)
_cell_length_b                   7.7877(5)
_cell_length_c                   16.2226(11)
_cell_angle_alpha                90
_cell_angle_beta                 111.091(3)
_cell_angle_gamma                90
_cell_volume                     1479.32
_exptl_crystal_colour            colorless
_exptl_crystal_description       block
_cell_formula_units_Z            4
loop_
_atom_site_label
_atom_site_type_symbol
_atom_site_fract_x
_atom_site_fract_y
_atom_site_fract_z
S1 S 0.68970(15) 0.6514(2) 0.28769(12)
O1 O 0.6673(5) 0.8183(7) 0.2474(4)
O2 O 0.7990(5) 0.5792(9) 0.3088(4)
N1 N 0.6003(5) 0.5203(8) 0.2201(4)
C1 C 0.6563(6) 0.6617(9) 0.3842(5)
C2 C 0.7207(6) 0.5682(10) 0.4582(5)
H1 H 0.7824 0.5025 0.4579
C3 C 0.6910(7) 0.5746(11) 0.5328(5)
H2 H 0.7333 0.5114 0.5824
C4 C 0.6005(7) 0.6725(9) 0.5352(5)
C5 C 0.5371(7) 0.7645(10) 0.4602(6)
H3 H 0.4750 0.8292 0.4604
C6 C 0.5651(6) 0.7610(10) 0.3857(5)
H4 H 0.5230 0.8251 0.3363
C7 C 0.5712(10) 0.6776(15) 0.6179(6)
H5 H 0.6013 0.5772 0.6529
H6 H 0.4897 0.6804 0.6018
H7 H 0.6040 0.7784 0.6515
C8 C 0.4778(6) 0.5649(9) 0.1799(5)
H8 H 0.4661 0.6642 0.1415
H9 H 0.4452 0.5875 0.2247
C9 C 0.4275(6) 0.4043(9) 0.1279(4)
C10 C 0.3091(7) 0.3365(10) 0.1034(6)
C11 C 0.3243(8) 0.1417(11) 0.1190(6)
C12 C 0.4477(7) 0.1026(9) 0.1685(6)
H10 H 0.4721 0.0055 0.1422
H11 H 0.4606 0.0759 0.2297
C13 C 0.5116(6) 0.2616(9) 0.1621(4)
C14 C 0.6142(6) 0.3288(9) 0.2337(5)
H12 H 0.6840 0.2888 0.2271
H13 H 0.6147 0.2957 0.2914
C15 C 0.4838(7) 0.3272(9) 0.0685(5)
C16 C 0.3969(9) 0.2255(14) -0.0031(6)
H14 H 0.4266 0.1133 -0.0094
H15 H 0.3748 0.2852 -0.0593
C17 C 0.2949(8) 0.2091(15) 0.0279(7)
H16 H 0.243(5) 0.389(8) 0.099(4)
H17 H 0.267(6) 0.084(10) 0.118(5)
H18 H 0.544(6) 0.379(10) 0.054(5)
H19 H 0.211(11) 0.190(17) -0.034(10)
loop_
_geom_bond_atom_site_label_1
_geom_bond_atom_site_label_2
_geom_bond_site_symmetry_1
_geom_bond_site_symmetry_2
S1 O1 1_555 1_555
O2 S1 1_555 1_555
N1 S1 1_555 1_555
C1 S1 1_555 1_555
C2 C1 1_555 1_555
H1 C2 1_555 1_555
C3 C2 1_555 1_555
H2 C3 1_555 1_555
C4 C3 1_555 1_555
C5 C4 1_555 1_555
H3 C5 1_555 1_555
C6 C1 1_555 1_555
H4 C6 1_555 1_555
C7 C4 1_555 1_555
H5 C7 1_555 1_555
H6 C7 1_555 1_555
H7 C7 1_555 1_555
C8 N1 1_555 1_555
H8 C8 1_555 1_555
H9 C8 1_555 1_555
C9 C8 1_555 1_555
C10 C9 1_555 1_555
C11 C10 1_555 1_555
C12 C11 1_555 1_555
H10 C12 1_555 1_555
H11 C12 1_555 1_555
C13 C9 1_555 1_555
C14 N1 1_555 1_555
H12 C14 1_555 1_555
H13 C14 1_555 1_555
C15 C9 1_555 1_555
C16 C15 1_555 1_555
H14 C16 1_555 1_555
H15 C16 1_555 1_555
C17 C10 1_555 1_555
H16 C10 1_555 1_555
H17 C11 1_555 1_555
H18 C15 1_555 1_555
H19 C17 1_555 1_555
C5 C6 1_555 1_555
C11 C17 1_555 1_555
C12 C13 1_555 1_555
C13 C14 1_555 1_555
C13 C15 1_555 1_555
C16 C17 1_555 1_555

#END
