
#######################################################################
#
#                 Cambridge Crystallographic Data Centre
#                                CCDC 
#
#######################################################################
#
# If this CIF has been generated from an entry in the Cambridge 
# Structural Database, then it will include bibliographic, chemical, 
# crystal, experimental, refinement or atomic coordinate data resulting 
# from the CCDC's data processing and validation procedures.
#
#######################################################################

data_HIJGAL
_chemical_formula_moiety         'C25 H22 N2 O4'
_chemical_name_systematic        
N'-[(anthracen-9-yl)methylidene]-3,4,5-trimethoxybenzohydrazide
_symmetry_cell_setting           monoclinic
_symmetry_space_group_name_H-M   'P 21'
_symmetry_Int_Tables_number      4
_space_group_name_Hall           'P 2yb'
loop_
_symmetry_equiv_pos_site_id
_symmetry_equiv_pos_as_xyz
1 x,y,z
2 -x,1/2+y,-z
_cell_length_a                   4.9082(2)
_cell_length_b                   13.7755(7)
_cell_length_c                   15.3401(8)
_cell_angle_alpha                90
_cell_angle_beta                 95.100(2)
_cell_angle_gamma                90
_cell_volume                     1033.08
_exptl_crystal_colour            yellow
_exptl_crystal_description       rod
_cell_formula_units_Z            2
_chemical_properties_physical    Heat-sensitive,Light-sensitive
loop_
_atom_site_label
_atom_site_type_symbol
_atom_site_fract_x
_atom_site_fract_y
_atom_site_fract_z
O1 O 1.1892(5) 0.1292(2) 0.24449(19)
C1 C 0.9938(7) -0.0429(3) 0.1585(3)
H1 H 1.1363 -0.0527 0.2017
C2 C 0.6459(8) 0.4519(3) 0.5436(3)
C3 C 0.7024(7) 0.3765(3) 0.4010(2)
C4 C 0.9453(6) 0.1198(3) 0.2191(2)
N1 N 0.7487(6) 0.1767(2) 0.2482(2)
H2 H 0.5790 0.1674 0.2313
C5 C 0.6417(7) 0.0607(3) 0.0886(2)
H3 H 0.5446 0.1188 0.0868
C6 C 0.5747(7) 0.3775(3) 0.4801(2)
O2 O 0.6467(7) -0.1712(2) -0.0284(2)
C7 C 0.8937(7) 0.4491(3) 0.3834(3)
O3 O 0.3895(7) -0.0014(3) -0.0443(2)
C8 C 0.6346(7) 0.2960(3) 0.3393(3)
H4 H 0.4533 0.2785 0.3245
C9 C 0.8523(7) 0.0441(3) 0.1544(2)
O4 O 1.0405(7) -0.2051(2) 0.0986(2)
N2 N 0.8284(6) 0.2505(2) 0.3063(2)
C10 C 0.9228(8) -0.1154(3) 0.0981(3)
C11 C 0.3790(8) 0.3074(3) 0.5014(3)
H5 H 0.3287 0.2586 0.4612
C12 C 0.8421(9) 0.5207(3) 0.5264(3)
H6 H 0.8918 0.5676 0.5685
C13 C 0.5792(8) -0.0106(3) 0.0259(2)
C14 C 0.2624(9) 0.3092(4) 0.5788(3)
H7 H 0.1366 0.2617 0.5910
C15 C 0.9655(8) 0.5215(3) 0.4486(3)
C16 C 1.1676(9) 0.5925(3) 0.4320(4)
H8 H 1.2204 0.6383 0.4748
C17 C 1.0160(9) 0.4557(3) 0.3025(3)
H9 H 0.9658 0.4118 0.2579
C18 C 1.2052(10) 0.5255(4) 0.2899(4)
H10 H 1.2847 0.5281 0.2372
C19 C 0.7171(8) -0.0996(3) 0.0309(3)
C20 C 0.3333(10) 0.3833(4) 0.6403(3)
H11 H 0.2518 0.3850 0.6927
C21 C 1.2447(11) -0.2262(4) 0.1669(4)
H12 H 1.3965 -0.1829 0.1634
H13 H 1.3054 -0.2920 0.1614
H14 H 1.1707 -0.2181 0.2223
C22 C 0.2410(10) 0.0872(4) -0.0529(3)
H15 H 0.1336 0.0948 -0.0040
H16 H 0.1225 0.0861 -0.1062
H17 H 0.3666 0.1404 -0.0544
C23 C 1.2816(10) 0.5938(4) 0.3560(4)
H18 H 1.4129 0.6405 0.3466
C24 C 0.5194(10) 0.4518(4) 0.6232(3)
H19 H 0.5652 0.4998 0.6646
C25 C 0.8143(18) -0.1740(6) -0.0985(4)
H20 H 0.7899 -0.1154 -0.1321
H21 H 0.7648 -0.2288 -0.1351
H22 H 1.0023 -0.1796 -0.0758
loop_
_geom_bond_atom_site_label_1
_geom_bond_atom_site_label_2
_geom_bond_site_symmetry_1
_geom_bond_site_symmetry_2
O1 C4 1_555 1_555
C1 H1 1_555 1_555
C2 C6 1_555 1_555
C3 C6 1_555 1_555
C4 N1 1_555 1_555
N1 H2 1_555 1_555
C5 H3 1_555 1_555
C6 C11 1_555 1_555
O2 C19 1_555 1_555
C7 C3 1_555 1_555
O3 C13 1_555 1_555
C8 C3 1_555 1_555
H4 C8 1_555 1_555
C9 C1 1_555 1_555
O4 C10 1_555 1_555
N2 N1 1_555 1_555
C10 C1 1_555 1_555
C11 H5 1_555 1_555
C12 C2 1_555 1_555
H6 C12 1_555 1_555
C13 C5 1_555 1_555
C14 C11 1_555 1_555
H7 C14 1_555 1_555
C15 C7 1_555 1_555
C16 C15 1_555 1_555
H8 C16 1_555 1_555
C17 C7 1_555 1_555
H9 C17 1_555 1_555
C18 C17 1_555 1_555
H10 C18 1_555 1_555
C19 C10 1_555 1_555
C20 C14 1_555 1_555
H11 C20 1_555 1_555
C21 O4 1_555 1_555
H12 C21 1_555 1_555
H13 C21 1_555 1_555
H14 C21 1_555 1_555
C22 O3 1_555 1_555
H15 C22 1_555 1_555
H16 C22 1_555 1_555
H17 C22 1_555 1_555
C23 C16 1_555 1_555
H18 C23 1_555 1_555
C24 C2 1_555 1_555
H19 C24 1_555 1_555
C25 O2 1_555 1_555
H20 C25 1_555 1_555
H21 C25 1_555 1_555
H22 C25 1_555 1_555
C4 C9 1_555 1_555
C5 C9 1_555 1_555
C8 N2 1_555 1_555
C12 C15 1_555 1_555
C13 C19 1_555 1_555
C18 C23 1_555 1_555
C20 C24 1_555 1_555

#END
