
#######################################################################
#
#                 Cambridge Crystallographic Data Centre
#                                CCDC 
#
#######################################################################
#
# If this CIF has been generated from an entry in the Cambridge 
# Structural Database, then it will include bibliographic, chemical, 
# crystal, experimental, refinement or atomic coordinate data resulting 
# from the CCDC's data processing and validation procedures.
#
#######################################################################

data_HIJPIC
_chemical_formula_moiety         'C22 H19 F6 I1 N2 O2'
_chemical_name_systematic        
2-(benzenecarbonyl)-1-(1,1,2,2,3,3-hexafluoro-3-iodopropyl)-5,6,7,8,9,10-hexahydro-3H,4H-3a,6a-diazacyclohepta[1,2,3-de]naphthalen-3-one
_symmetry_cell_setting           monoclinic
_symmetry_space_group_name_H-M   'P 21/n'
_symmetry_Int_Tables_number      14
_space_group_name_Hall           '-P 2yn'
loop_
_symmetry_equiv_pos_site_id
_symmetry_equiv_pos_as_xyz
1 x,y,z
2 1/2-x,1/2+y,1/2-z
3 -x,-y,-z
4 1/2+x,1/2-y,1/2+z
_cell_length_a                   10.7013(10)
_cell_length_b                   10.5720(9)
_cell_length_c                   19.8575(18)
_cell_angle_alpha                90
_cell_angle_beta                 103.499(3)
_cell_angle_gamma                90
_cell_volume                     2184.5
_exptl_crystal_colour            yellow
_exptl_crystal_description       block
_chemical_melting_point          '195-196 deg.C'
_cell_formula_units_Z            4
loop_
_atom_site_label
_atom_site_type_symbol
_atom_site_fract_x
_atom_site_fract_y
_atom_site_fract_z
I1 I 0.90761(8) 0.70676(8) 0.05475(5)
F1 F 1.0334(5) 0.4041(6) 0.2527(3)
F2 F 1.1470(6) 0.3366(7) 0.1844(4)
F3 F 1.1270(11) 0.6671(9) 0.1939(6)
F4 F 0.8992(11) 0.4514(8) 0.1133(5)
C1 C 1.1173(8) 0.5032(8) 0.3686(4)
C2 C 1.1021(7) 0.3896(8) 0.4109(4)
C3 C 1.1921(9) 0.2919(7) 0.4228(4)
H1 H 1.2633 0.2958 0.4034
C4 C 1.1761(12) 0.1892(9) 0.4632(5)
H2 H 1.2355 0.1235 0.4703
C5 C 1.0720(16) 0.1846(12) 0.4927(6)
H3 H 1.0631 0.1172 0.5214
C6 C 0.9809(13) 0.2790(15) 0.4802(6)
H4 H 0.9088 0.2735 0.4987
C7 C 0.9964(9) 0.3812(12) 0.4406(5)
H5 H 0.9356 0.4457 0.4333
C8 C 1.3445(7) 0.5574(7) 0.3907(4)
C9 C 1.2367(7) 0.5109(7) 0.3406(4)
C10 C 1.2499(7) 0.4777(7) 0.2745(4)
C11 C 1.3681(8) 0.4878(8) 0.2546(4)
C12 C 1.3967(11) 0.4210(11) 0.1906(6)
H6 H 1.3663 0.4748 0.1506
H7 H 1.3471 0.3434 0.1828
C13 C 1.5398(11) 0.3878(11) 0.1947(6)
H8 H 1.5791 0.3568 0.2407
H9 H 1.5439 0.3206 0.1620
C14 C 1.6141(13) 0.4997(13) 0.1789(6)
H10 H 1.7054 0.4843 0.1959
H11 H 1.5971 0.5119 0.1292
C15 C 1.5769(11) 0.6165(11) 0.2122(5)
H12 H 1.6365 0.6841 0.2091
H13 H 1.4917 0.6431 0.1876
C16 C 1.4680(7) 0.5494(7) 0.3024(4)
C17 C 1.5679(8) 0.6234(9) 0.4192(4)
H14 H 1.5623 0.5991 0.4655
H15 H 1.5670 0.7150 0.4167
C18 C 1.6901(9) 0.5753(10) 0.4056(5)
H16 H 1.7628 0.6081 0.4399
H17 H 1.6922 0.4836 0.4079
C19 C 1.6957(11) 0.6182(13) 0.3359(6)
H18 H 1.7134 0.7083 0.3373
H19 H 1.7657 0.5754 0.3220
C20 C 1.1298(8) 0.4372(9) 0.2215(4)
C21 C 1.0729(13) 0.5545(16) 0.1716(6)
N1 N 1.4574(6) 0.5729(6) 0.3687(3)
N2 N 1.5774(7) 0.5939(8) 0.2852(4)
O1 O 1.0385(7) 0.5876(7) 0.3600(4)
O2 O 1.3389(6) 0.5877(6) 0.4503(3)
F5 F 1.1478(13) 0.5319(13) 0.1156(7)
C22 C 0.956(2) 0.556(2) 0.1246(11)
F6 F 0.9191(15) 0.6169(14) 0.1992(7)
loop_
_geom_bond_atom_site_label_1
_geom_bond_atom_site_label_2
_geom_bond_site_symmetry_1
_geom_bond_site_symmetry_2
I1 C22 1_555 1_555
F1 C20 1_555 1_555
F2 C20 1_555 1_555
F3 C21 1_555 1_555
F4 C22 1_555 1_555
C1 C2 1_555 1_555
C2 C3 1_555 1_555
C3 H1 1_555 1_555
C4 C3 1_555 1_555
H2 C4 1_555 1_555
C5 C4 1_555 1_555
H3 C5 1_555 1_555
C6 C5 1_555 1_555
H4 C6 1_555 1_555
C7 C2 1_555 1_555
H5 C7 1_555 1_555
C8 C9 1_555 1_555
C9 C1 1_555 1_555
C10 C9 1_555 1_555
C11 C10 1_555 1_555
C12 C11 1_555 1_555
H6 C12 1_555 1_555
H7 C12 1_555 1_555
C13 C12 1_555 1_555
H8 C13 1_555 1_555
H9 C13 1_555 1_555
C14 C13 1_555 1_555
H10 C14 1_555 1_555
H11 C14 1_555 1_555
C15 C14 1_555 1_555
H12 C15 1_555 1_555
H13 C15 1_555 1_555
C16 C11 1_555 1_555
C17 H14 1_555 1_555
H15 C17 1_555 1_555
C18 C17 1_555 1_555
H16 C18 1_555 1_555
H17 C18 1_555 1_555
C19 C18 1_555 1_555
H18 C19 1_555 1_555
H19 C19 1_555 1_555
C20 C10 1_555 1_555
C21 C20 1_555 1_555
N1 C8 1_555 1_555
N2 C15 1_555 1_555
O1 C1 1_555 1_555
O2 C8 1_555 1_555
F5 C21 1_555 1_555
C22 C21 1_555 1_555
F6 C22 1_555 1_555
C6 C7 1_555 1_555
C16 N1 1_555 1_555
C16 N2 1_555 1_555
C17 N1 1_555 1_555
C19 N2 1_555 1_555

#END
