
#######################################################################
#
#                 Cambridge Crystallographic Data Centre
#                                CCDC 
#
#######################################################################
#
# If this CIF has been generated from an entry in the Cambridge 
# Structural Database, then it will include bibliographic, chemical, 
# crystal, experimental, refinement or atomic coordinate data resulting 
# from the CCDC's data processing and validation procedures.
#
#######################################################################

data_HIJSAW
_chemical_formula_moiety         'C20 H23 N3 O2'
_chemical_name_systematic        
3,3'-(1H-Pyrrole-2,5-diyl)bis(3-(1H-pyrrol-2-yl)butan-2-one)
_symmetry_cell_setting           triclinic
_symmetry_space_group_name_H-M   'P -1'
_symmetry_Int_Tables_number      2
_space_group_name_Hall           '-P 1'
loop_
_symmetry_equiv_pos_site_id
_symmetry_equiv_pos_as_xyz
1 x,y,z
2 -x,-y,-z
_cell_length_a                   8.4855(12)
_cell_length_b                   10.2487(12)
_cell_length_c                   11.0122(13)
_cell_angle_alpha                87.534(10)
_cell_angle_beta                 76.273(11)
_cell_angle_gamma                85.501(11)
_cell_volume                     927.165
_exptl_crystal_colour            colorless
_exptl_crystal_description       block
_cell_formula_units_Z            2
loop_
_atom_site_label
_atom_site_type_symbol
_atom_site_fract_x
_atom_site_fract_y
_atom_site_fract_z
N1 N 0.3228(6) 0.2259(4) 0.8954(4)
O1 O 0.4324(5) -0.0053(3) 1.1440(3)
N2 N 0.4629(7) 0.2462(5) 1.2567(5)
C1 C 0.2528(7) 0.2825(5) 0.8047(5)
C2 C 0.4087(7) 0.2613(5) 1.1490(5)
C3 C 0.3107(7) 0.0436(5) 1.1184(5)
C4 C 0.2220(7) 0.2448(5) 1.0124(5)
N3 N 0.5846(8) 0.3748(6) 0.6894(5)
C5 C 0.2689(7) 0.1934(5) 1.1296(5)
C6 C 0.3364(8) 0.2708(5) 0.6672(5)
C7 C 0.5182(8) 0.2733(6) 0.6479(5)
C8 C 0.5137(7) 0.3416(5) 1.0736(5)
H1 H 0.5086 0.3697 0.9931
C9 C 0.2681(6) 0.3867(5) 0.5901(4)
H2 H 0.2742 0.4685 0.6275
H3 H 0.1569 0.3747 0.5905
H4 H 0.3319 0.3873 0.5054
C10 C 0.1050(7) 0.3373(5) 0.8645(5)
H5 H 0.0293 0.3825 0.8266
C11 C 0.6433(9) 0.1909(6) 0.5895(5)
H6 H 0.6349 0.1129 0.5522
O2 O 0.3089(8) 0.1368(5) 0.5064(4)
C12 C 0.1928(7) -0.0394(5) 1.0819(6)
H7 H 0.2446 -0.0831 1.0058
H8 H 0.1003 0.0149 1.0693
H9 H 0.1579 -0.1033 1.1471
C13 C 0.0870(7) 0.3139(5) 0.9928(5)
H10 H -0.0032 0.3413 1.0548
C14 C 0.1215(6) 0.2135(5) 1.2432(4)
H11 H 0.0988 0.3054 1.2586
H12 H 0.1466 0.1695 1.3157
H13 H 0.0281 0.1782 1.2255
C15 C 0.6304(8) 0.3751(6) 1.1358(6)
H14 H 0.7149 0.4290 1.1052
C16 C 0.3017(8) 0.1450(7) 0.6172(6)
C17 C 0.5963(8) 0.3144(6) 1.2476(7)
H15 H 0.6543 0.3181 1.3091
C18 C 0.2583(8) 0.0339(5) 0.7008(5)
H16 H 0.2327 -0.0359 0.6549
H17 H 0.1653 0.0590 0.7662
H18 H 0.3480 0.0048 0.7367
C19 C 0.7479(9) 0.3583(7) 0.6586(6)
H19 H 0.8200 0.4140 0.6769
C20 C 0.7872(9) 0.2449(8) 0.5956(6)
H20 H 0.8921 0.2093 0.5622
H21 H 0.420(6) 0.179(4) 0.887(4)
H22 H 0.418(5) 0.209(4) 1.325(4)
H23 H 0.521(7) 0.432(5) 0.725(5)
loop_
_geom_bond_atom_site_label_1
_geom_bond_atom_site_label_2
_geom_bond_site_symmetry_1
_geom_bond_site_symmetry_2
N1 C1 1_555 1_555
O1 C3 1_555 1_555
N2 C2 1_555 1_555
C1 C6 1_555 1_555
C2 C5 1_555 1_555
C3 C5 1_555 1_555
C4 N1 1_555 1_555
N3 C7 1_555 1_555
C5 C4 1_555 1_555
C6 C7 1_555 1_555
C7 C11 1_555 1_555
C8 C2 1_555 1_555
H1 C8 1_555 1_555
C9 C6 1_555 1_555
H2 C9 1_555 1_555
H3 C9 1_555 1_555
H4 C9 1_555 1_555
C10 C1 1_555 1_555
H5 C10 1_555 1_555
C11 H6 1_555 1_555
O2 C16 1_555 1_555
C12 C3 1_555 1_555
H7 C12 1_555 1_555
H8 C12 1_555 1_555
H9 C12 1_555 1_555
C13 C4 1_555 1_555
H10 C13 1_555 1_555
C14 C5 1_555 1_555
H11 C14 1_555 1_555
H12 C14 1_555 1_555
H13 C14 1_555 1_555
C15 C8 1_555 1_555
H14 C15 1_555 1_555
C16 C6 1_555 1_555
C17 N2 1_555 1_555
H15 C17 1_555 1_555
C18 C16 1_555 1_555
H16 C18 1_555 1_555
H17 C18 1_555 1_555
H18 C18 1_555 1_555
C19 N3 1_555 1_555
H19 C19 1_555 1_555
C20 C11 1_555 1_555
H20 C20 1_555 1_555
H21 N1 1_555 1_555
H22 N2 1_555 1_555
H23 N3 1_555 1_555
C10 C13 1_555 1_555
C15 C17 1_555 1_555
C19 C20 1_555 1_555

#END
