
#######################################################################
#
#                 Cambridge Crystallographic Data Centre
#                                CCDC 
#
#######################################################################
#
# If this CIF has been generated from an entry in the Cambridge 
# Structural Database, then it will include bibliographic, chemical, 
# crystal, experimental, refinement or atomic coordinate data resulting 
# from the CCDC's data processing and validation procedures.
#
#######################################################################

data_HIKCEL
_chemical_formula_moiety         'C18 H21 N1 O2 S1'
_chemical_name_systematic        
N-(1-Ethyl-2,3-dihydro-1H-inden-2-yl)-4-methylbenzenesulfonamide
_symmetry_cell_setting           monoclinic
_symmetry_space_group_name_H-M   'P 21'
_symmetry_Int_Tables_number      4
_space_group_name_Hall           'P 2yb'
loop_
_symmetry_equiv_pos_site_id
_symmetry_equiv_pos_as_xyz
1 x,y,z
2 -x,1/2+y,-z
_cell_length_a                   13.5492(9)
_cell_length_b                   18.0106(12)
_cell_length_c                   14.3126(9)
_cell_angle_alpha                90
_cell_angle_beta                 91.255(2)
_cell_angle_gamma                90
_cell_volume                     3491.85
_exptl_crystal_colour            colorless
_exptl_crystal_description       prismatic
_cell_formula_units_Z            2
loop_
_atom_site_label
_atom_site_type_symbol
_atom_site_fract_x
_atom_site_fract_y
_atom_site_fract_z
S1 S 0.48550(9) 0.91985(6) 1.11559(7)
N1 N 0.5537(3) 0.9569(2) 1.0377(2)
O1 O 0.5217(2) 0.84771(17) 1.13497(19)
O2 O 0.4807(2) 0.97349(16) 1.18972(17)
C1 C 0.5141(3) 0.9238(2) 0.8667(2)
H1 H 0.4627 0.8855 0.8688
C2 C 0.5831(3) 0.9179(2) 0.9542(2)
H2 H 0.5891 0.8652 0.9702
C3 C 0.6840(3) 0.9440(3) 0.9215(3)
H3 H 0.6906 0.9975 0.9268
H4 H 0.7371 0.9203 0.9568
C4 C 0.6825(3) 0.9199(2) 0.8221(3)
C5 C 0.5860(3) 0.9061(2) 0.7910(3)
C6 C 0.5684(4) 0.8808(2) 0.7013(3)
H5 H 0.5042 0.8720 0.6799
C7 C 0.6467(5) 0.8688(3) 0.6437(3)
H6 H 0.6345 0.8517 0.5833
C8 C 0.7420(5) 0.8812(3) 0.6728(4)
H7 H 0.7937 0.8728 0.6324
C9 C 0.7614(3) 0.9065(3) 0.7632(3)
H8 H 0.8260 0.9145 0.7841
C10 C 0.4676(3) 0.9998(3) 0.8541(3)
H9 H 0.4306 1.0115 0.9095
H10 H 0.5198 1.0363 0.8491
C11 C 0.3994(4) 1.0064(4) 0.7693(3)
H11 H 0.4363 0.9984 0.7137
H12 H 0.3705 1.0550 0.7676
H13 H 0.3481 0.9698 0.7729
C12 C 0.3663(3) 0.9102(3) 1.0676(3)
C13 C 0.3345(4) 0.8430(2) 1.0335(3)
H14 H 0.3744 0.8011 1.0390
C14 C 0.2421(4) 0.8383(3) 0.9906(3)
H15 H 0.2201 0.7925 0.9687
C15 C 0.1816(4) 0.8990(3) 0.9795(3)
C16 C 0.2148(4) 0.9664(3) 1.0135(4)
H16 H 0.1748 1.0082 1.0074
C17 C 0.3065(4) 0.9727(3) 1.0564(3)
H17 H 0.3285 1.0187 1.0778
C18 C 0.0817(4) 0.8935(4) 0.9287(4)
H18 H 0.0845 0.9191 0.8700
H19 H 0.0319 0.9156 0.9664
H20 H 0.0659 0.8422 0.9177
H21 H 0.542(3) 1.0020(12) 1.035(3)
S2 S 0.03564(8) 0.91728(6) 0.62685(7)
N2 N -0.0396(3) 0.9498(2) 0.5494(2)
O3 O 0.0055(2) 0.84424(16) 0.64912(19)
O4 O 0.0410(2) 0.97170(16) 0.69915(17)
C19 C -0.1705(3) 0.9179(2) 0.4285(2)
H22 H -0.2108 0.8796 0.4577
C20 C -0.0619(3) 0.9102(2) 0.4622(2)
H23 H -0.0485 0.8573 0.4727
C21 C -0.0008(3) 0.9356(2) 0.3783(3)
H24 H 0.0109 0.9887 0.3798
H25 H 0.0619 0.9098 0.3764
C22 C -0.0674(4) 0.9141(2) 0.2967(3)
C23 C -0.1630(3) 0.9026(2) 0.3250(3)
C24 C -0.2357(4) 0.8816(3) 0.2614(3)
H26 H -0.3001 0.8734 0.2801
C25 C -0.2101(6) 0.8733(3) 0.1693(4)
H27 H -0.2584 0.8593 0.1255
C26 C -0.1175(6) 0.8846(3) 0.1409(3)
H28 H -0.1031 0.8788 0.0781
C27 C -0.0438(4) 0.9047(3) 0.2032(3)
H29 H 0.0205 0.9118 0.1835
C28 C -0.2128(3) 0.9935(3) 0.4479(3)
H30 H -0.1745 1.0304 0.4151
H31 H -0.2055 1.0036 0.5143
C29 C -0.3208(4) 1.0026(4) 0.4195(4)
H32 H -0.3273 1.0027 0.3526
H33 H -0.3452 1.0487 0.4437
H34 H -0.3583 0.9622 0.4443
C30 C 0.1524(3) 0.9098(3) 0.5768(3)
C31 C 0.2104(4) 0.9731(4) 0.5710(4)
H35 H 0.1892 1.0179 0.5958
C32 C 0.2994(5) 0.9683(4) 0.5280(4)
H36 H 0.3382 1.0106 0.5238
C33 C 0.3336(4) 0.9023(6) 0.4905(4)
C34 C 0.2738(5) 0.8399(4) 0.4987(4)
H37 H 0.2952 0.7947 0.4750
C35 C 0.1848(4) 0.8433(3) 0.5407(3)
H38 H 0.1459 0.8010 0.5451
C36 C 0.4313(4) 0.8961(5) 0.4417(5)
H39 H 0.4728 0.9371 0.4597
H40 H 0.4200 0.8970 0.3753
H41 H 0.4629 0.8503 0.4593
H42 H -0.025(3) 0.9912(12) 0.540(2)
S3 S 0.53052(8) 0.16915(6) 0.12074(6)
N3 N 0.4553(3) 0.1353(2) 0.1946(3)
O5 O 0.5051(2) 0.24500(15) 0.10636(18)
O6 O 0.5283(2) 0.11929(15) 0.04297(16)
C37 C 0.4903(3) 0.1517(3) 0.3683(3)
H43 H 0.5046 0.0989 0.3683
H44 H 0.5518 0.1791 0.3734
C38 C 0.4306(3) 0.1743(3) 0.2815(3)
H45 H 0.4413 0.2275 0.2714
C39 C 0.3232(3) 0.1638(3) 0.3085(3)
H46 H 0.2791 0.1982 0.2749
C40 C 0.3279(4) 0.1801(3) 0.4118(3)
C41 C 0.4225(4) 0.1717(3) 0.4452(3)
C42 C 0.4432(4) 0.1840(4) 0.5385(3)
H47 H 0.5072 0.1785 0.5623
C43 C 0.3667(6) 0.2048(4) 0.5968(4)
H48 H 0.3805 0.2141 0.6597
C44 C 0.2730(5) 0.2118(3) 0.5636(4)
H49 H 0.2226 0.2246 0.6037
C45 C 0.2530(4) 0.2001(3) 0.4719(4)
H50 H 0.1887 0.2055 0.4487
C46 C 0.2928(7) 0.0819(7) 0.2920(8)
H51 H 0.3055 0.0685 0.2277
H52 H 0.3327 0.0500 0.3323
C47 C 0.1829(6) 0.0690(6) 0.3118(7)
H53 H 0.1749 0.0614 0.3776
H54 H 0.1600 0.0260 0.2782
H55 H 0.1453 0.1116 0.2920
C48 C 0.6504(3) 0.1662(2) 0.1698(2)
C49 C 0.6929(4) 0.2289(3) 0.2075(3)
H56 H 0.6575 0.2731 0.2078
C50 C 0.7868(4) 0.2271(3) 0.2445(3)
H57 H 0.8150 0.2703 0.2683
C51 C 0.8394(3) 0.1625(3) 0.2469(3)
C52 C 0.7963(4) 0.1005(3) 0.2080(3)
H58 H 0.8319 0.0564 0.2073
C53 C 0.7037(3) 0.1015(2) 0.1705(3)
H59 H 0.6763 0.0584 0.1453
C54 C 0.9434(4) 0.1592(3) 0.2890(4)
H60 H 0.9401 0.1521 0.3553
H61 H 0.9773 0.2048 0.2763
H62 H 0.9786 0.1185 0.2619
H63 H 0.464(3) 0.0905(11) 0.201(3)
S4 S 0.98136(9) 0.16841(6) 0.62310(7)
N4 N 1.0546(3) 0.1366(2) 0.7030(2)
O7 O 1.0121(2) 0.24188(16) 0.60233(19)
O8 O 0.9781(2) 0.11329(16) 0.55164(17)
C55 C 1.1864(3) 0.1588(3) 0.8225(3)
H64 H 1.1976 0.1057 0.8193
H65 H 1.2366 0.1842 0.7874
C56 C 1.0821(3) 0.1791(2) 0.7864(3)
H66 H 1.0830 0.2317 0.7688
C57 C 1.0166(3) 0.1718(2) 0.8732(2)
H67 H 0.9627 0.2080 0.8696
C58 C 1.0894(3) 0.1936(2) 0.9498(3)
C59 C 1.1848(4) 0.1852(2) 0.9214(3)
C60 C 1.2644(4) 0.2049(3) 0.9811(4)
H68 H 1.3291 0.1996 0.9616
C61 C 1.2456(5) 0.2316(3) 1.0669(4)
H69 H 1.2977 0.2449 1.1068
C62 C 1.1516(5) 0.2390(3) 1.0955(3)
H70 H 1.1402 0.2568 1.1554
C63 C 1.0723(4) 0.2209(3) 1.0381(3)
H71 H 1.0081 0.2270 1.0586
C64 C 0.9749(3) 0.0942(3) 0.8879(3)
H72 H 0.9368 0.0800 0.8326
H73 H 1.0293 0.0595 0.8947
C65 C 0.9100(4) 0.0872(4) 0.9722(4)
H74 H 0.9483 0.0977 1.0279
H75 H 0.8843 0.0376 0.9754
H76 H 0.8564 0.1219 0.9667
C66 C 0.8623(3) 0.1754(2) 0.6690(2)
C67 C 0.8047(4) 0.1135(3) 0.6766(3)
H77 H 0.8282 0.0679 0.6563
C68 C 0.7126(4) 0.1179(3) 0.7139(3)
H78 H 0.6738 0.0754 0.7168
C69 C 0.6760(4) 0.1842(3) 0.7473(3)
C70 C 0.7346(4) 0.2457(3) 0.7397(3)
H79 H 0.7115 0.2912 0.7605
C71 C 0.8274(4) 0.2415(2) 0.7018(3)
H80 H 0.8664 0.2839 0.6985
C72 C 0.5755(4) 0.1885(3) 0.7895(4)
H81 H 0.5308 0.1565 0.7556
H82 H 0.5517 0.2387 0.7860
H83 H 0.5798 0.1732 0.8537
H84 H 1.054(3) 0.0923(11) 0.712(2)
H85? H 0.2751 0.1955 0.2786
C73? C 0.275(3) 0.0332(13) 0.308(2)
H86? H 0.2758 -0.0024 0.2578
H87? H 0.2242 0.0208 0.3504
H88? H 0.3382 0.0324 0.3403
C74? C 0.2576(14) 0.1069(9) 0.2698(13)
H89? H 0.1899 0.1208 0.2817
H90? H 0.2652 0.1051 0.2026
loop_
_geom_bond_atom_site_label_1
_geom_bond_atom_site_label_2
_geom_bond_site_symmetry_1
_geom_bond_site_symmetry_2
S1 N1 1_555 1_555
N1 C2 1_555 1_555
O1 S1 1_555 1_555
O2 S1 1_555 1_555
C1 H1 1_555 1_555
C2 C1 1_555 1_555
H2 C2 1_555 1_555
C3 C2 1_555 1_555
H3 C3 1_555 1_555
H4 C3 1_555 1_555
C4 C3 1_555 1_555
C5 C1 1_555 1_555
C6 C5 1_555 1_555
H5 C6 1_555 1_555
C7 C6 1_555 1_555
H6 C7 1_555 1_555
C8 C7 1_555 1_555
H7 C8 1_555 1_555
C9 C4 1_555 1_555
H8 C9 1_555 1_555
C10 C1 1_555 1_555
H9 C10 1_555 1_555
H10 C10 1_555 1_555
C11 C10 1_555 1_555
H11 C11 1_555 1_555
H12 C11 1_555 1_555
H13 C11 1_555 1_555
C12 S1 1_555 1_555
C13 C12 1_555 1_555
H14 C13 1_555 1_555
C14 C13 1_555 1_555
H15 C14 1_555 1_555
C15 C14 1_555 1_555
C16 C15 1_555 1_555
H16 C16 1_555 1_555
C17 C12 1_555 1_555
H17 C17 1_555 1_555
C18 C15 1_555 1_555
H18 C18 1_555 1_555
H19 C18 1_555 1_555
H20 C18 1_555 1_555
H21 N1 1_555 1_555
S2 N2 1_555 1_555
N2 C20 1_555 1_555
O3 S2 1_555 1_555
O4 S2 1_555 1_555
C19 H22 1_555 1_555
C20 C19 1_555 1_555
H23 C20 1_555 1_555
C21 C20 1_555 1_555
H24 C21 1_555 1_555
H25 C21 1_555 1_555
C22 C21 1_555 1_555
C23 C19 1_555 1_555
C24 C23 1_555 1_555
H26 C24 1_555 1_555
C25 C24 1_555 1_555
H27 C25 1_555 1_555
C26 C25 1_555 1_555
H28 C26 1_555 1_555
C27 C22 1_555 1_555
H29 C27 1_555 1_555
C28 C19 1_555 1_555
H30 C28 1_555 1_555
H31 C28 1_555 1_555
C29 C28 1_555 1_555
H32 C29 1_555 1_555
H33 C29 1_555 1_555
H34 C29 1_555 1_555
C30 S2 1_555 1_555
C31 C30 1_555 1_555
H35 C31 1_555 1_555
C32 C31 1_555 1_555
H36 C32 1_555 1_555
C33 C32 1_555 1_555
C34 C33 1_555 1_555
H37 C34 1_555 1_555
C35 C30 1_555 1_555
H38 C35 1_555 1_555
C36 C33 1_555 1_555
H39 C36 1_555 1_555
H40 C36 1_555 1_555
H41 C36 1_555 1_555
H42 N2 1_555 1_555
S3 N3 1_555 1_555
N3 C38 1_555 1_555
O5 S3 1_555 1_555
O6 S3 1_555 1_555
C37 H43 1_555 1_555
H44 C37 1_555 1_555
C38 C37 1_555 1_555
H45 C38 1_555 1_555
C39 C38 1_555 1_555
H46 C39 1_555 1_555
C40 C39 1_555 1_555
C41 C37 1_555 1_555
C42 C41 1_555 1_555
H47 C42 1_555 1_555
C43 C42 1_555 1_555
H48 C43 1_555 1_555
C44 C43 1_555 1_555
H49 C44 1_555 1_555
C45 C40 1_555 1_555
H50 C45 1_555 1_555
C46 C39 1_555 1_555
H51 C46 1_555 1_555
H52 C46 1_555 1_555
C47 C46 1_555 1_555
H53 C47 1_555 1_555
H54 C47 1_555 1_555
H55 C47 1_555 1_555
C48 S3 1_555 1_555
C49 C48 1_555 1_555
H56 C49 1_555 1_555
C50 C49 1_555 1_555
H57 C50 1_555 1_555
C51 C50 1_555 1_555
C52 C51 1_555 1_555
H58 C52 1_555 1_555
C53 C48 1_555 1_555
H59 C53 1_555 1_555
C54 C51 1_555 1_555
H60 C54 1_555 1_555
H61 C54 1_555 1_555
H62 C54 1_555 1_555
H63 N3 1_555 1_555
S4 N4 1_555 1_555
N4 C56 1_555 1_555
O7 S4 1_555 1_555
O8 S4 1_555 1_555
C55 H64 1_555 1_555
H65 C55 1_555 1_555
C56 C55 1_555 1_555
H66 C56 1_555 1_555
C57 C56 1_555 1_555
H67 C57 1_555 1_555
C58 C57 1_555 1_555
C59 C55 1_555 1_555
C60 C59 1_555 1_555
H68 C60 1_555 1_555
C61 C60 1_555 1_555
H69 C61 1_555 1_555
C62 C61 1_555 1_555
H70 C62 1_555 1_555
C63 C58 1_555 1_555
H71 C63 1_555 1_555
C64 C57 1_555 1_555
H72 C64 1_555 1_555
H73 C64 1_555 1_555
C65 C64 1_555 1_555
H74 C65 1_555 1_555
H75 C65 1_555 1_555
H76 C65 1_555 1_555
C66 S4 1_555 1_555
C67 C66 1_555 1_555
H77 C67 1_555 1_555
C68 C67 1_555 1_555
H78 C68 1_555 1_555
C69 C68 1_555 1_555
C70 C69 1_555 1_555
H79 C70 1_555 1_555
C71 C66 1_555 1_555
H80 C71 1_555 1_555
C72 C69 1_555 1_555
H81 C72 1_555 1_555
H82 C72 1_555 1_555
H83 C72 1_555 1_555
H84 N4 1_555 1_555
C4 C5 1_555 1_555
C8 C9 1_555 1_555
C16 C17 1_555 1_555
C22 C23 1_555 1_555
C26 C27 1_555 1_555
C34 C35 1_555 1_555
C40 C41 1_555 1_555
C44 C45 1_555 1_555
C52 C53 1_555 1_555
C58 C59 1_555 1_555
C62 C63 1_555 1_555
C70 C71 1_555 1_555

#END
