
#######################################################################
#
#                 Cambridge Crystallographic Data Centre
#                                CCDC 
#
#######################################################################
#
# If this CIF has been generated from an entry in the Cambridge 
# Structural Database, then it will include bibliographic, chemical, 
# crystal, experimental, refinement or atomic coordinate data resulting 
# from the CCDC's data processing and validation procedures.
#
#######################################################################

data_HIKCAH
_chemical_name_common            'PDB Chemical Component code: 38T'
_chemical_formula_moiety         'C10 H14 N2 O6,2(H2 O1)'
_chemical_name_systematic        
'1-(3,4-Dihydroxy-5-(hydroxymethyl)tetrahydrofuran-2-yl)-5-methylpyrimidine-2,4(1H,3H)-dione dihydrate'
_symmetry_cell_setting           orthorhombic
_symmetry_space_group_name_H-M   'P 21 21 21'
_symmetry_Int_Tables_number      19
_space_group_name_Hall           'P 2ac 2ab'
loop_
_symmetry_equiv_pos_site_id
_symmetry_equiv_pos_as_xyz
1 x,y,z
2 1/2-x,-y,1/2+z
3 1/2+x,1/2-y,-z
4 -x,1/2+y,1/2-z
_cell_length_a                   6.75400(10)
_cell_length_b                   8.83730(10)
_cell_length_c                   20.9847(3)
_cell_angle_alpha                90
_cell_angle_beta                 90
_cell_angle_gamma                90
_cell_volume                     1252.52
_exptl_crystal_colour            colorless
_exptl_crystal_description       BLOCK
_cell_formula_units_Z            4
loop_
_atom_site_label
_atom_site_type_symbol
_atom_site_fract_x
_atom_site_fract_y
_atom_site_fract_z
O1 O 0.66028(15) 0.58757(13) 0.31820(5)
O2 O 0.11759(17) 0.34821(13) 0.39524(5)
O3 O 0.45724(16) 0.64475(12) 0.15743(5)
O4 O 0.82986(15) 0.43963(12) 0.12939(5)
H1 H 0.892(3) 0.359(2) 0.1225(10)
O5 O 0.57932(16) 0.39059(13) 0.02795(5)
H2 H 0.700(3) 0.418(3) 0.0243(9)
O6 O 0.13278(17) 0.61299(13) 0.06682(5)
H3 H 0.049(3) 0.673(2) 0.0851(10)
N1 N 0.44475(18) 0.48414(14) 0.24593(6)
N2 N 0.3795(2) 0.47617(14) 0.35461(6)
H4 H 0.422(3) 0.501(2) 0.3914(7)
C1 C 0.5058(2) 0.51974(16) 0.30715(7)
C2 C 0.2079(2) 0.39140(17) 0.34786(7)
C3 C 0.1495(2) 0.35970(16) 0.28243(7)
C4 C 0.2672(2) 0.40834(16) 0.23547(7)
H5 H 0.2275 0.3902 0.1927
C5 C -0.0362(2) 0.27046(17) 0.27214(7)
H6 H -0.0542 0.2519 0.2265
H7 H -0.1496 0.3275 0.2886
H8 H -0.0262 0.1736 0.2946
C6 C 0.5664(2) 0.53435(17) 0.19225(7)
H9 H 0.6886 0.5834 0.2095
C7 C 0.6288(2) 0.41111(17) 0.14448(7)
H10 H 0.6072 0.3066 0.1613
C8 C 0.4996(2) 0.44574(17) 0.08614(7)
H11 H 0.3655 0.4004 0.0927
C9 C 0.4829(2) 0.61821(17) 0.08985(6)
H12 H 0.6104 0.6647 0.0756
C10 C 0.3144(2) 0.68950(17) 0.05411(7)
H13 H 0.3021 0.7970 0.0668
H14 H 0.3423 0.6860 0.0078
O7 O 0.52511(17) 0.57145(13) 0.47835(5)
H15 H 0.484(3) 0.6618(17) 0.4799(9)
H16 H 0.466(3) 0.5172(19) 0.5062(8)
O8 O 1.03472(19) 0.18607(13) 0.10323(6)
H17 H 1.026(3) 0.146(2) 0.0666(7)
H18 H 1.130(3) 0.146(2) 0.1248(8)
loop_
_geom_bond_atom_site_label_1
_geom_bond_atom_site_label_2
_geom_bond_site_symmetry_1
_geom_bond_site_symmetry_2
O1 C1 1_555 1_555
O2 C2 1_555 1_555
O3 C6 1_555 1_555
O4 H1 1_555 1_555
O5 H2 1_555 1_555
O6 H3 1_555 1_555
N1 C1 1_555 1_555
N2 H4 1_555 1_555
C1 N2 1_555 1_555
C2 N2 1_555 1_555
C3 C2 1_555 1_555
C4 N1 1_555 1_555
H5 C4 1_555 1_555
C5 C3 1_555 1_555
H6 C5 1_555 1_555
H7 C5 1_555 1_555
H8 C5 1_555 1_555
C6 N1 1_555 1_555
H9 C6 1_555 1_555
C7 O4 1_555 1_555
H10 C7 1_555 1_555
C8 O5 1_555 1_555
H11 C8 1_555 1_555
C9 O3 1_555 1_555
H12 C9 1_555 1_555
C10 O6 1_555 1_555
H13 C10 1_555 1_555
H14 C10 1_555 1_555
O7 H15 1_555 1_555
H16 O7 1_555 1_555
O8 H17 1_555 1_555
H18 O8 1_555 1_555
C3 C4 1_555 1_555
C6 C7 1_555 1_555
C7 C8 1_555 1_555
C8 C9 1_555 1_555
C9 C10 1_555 1_555

#END
