
#######################################################################
#
#                 Cambridge Crystallographic Data Centre
#                                CCDC 
#
#######################################################################
#
# If this CIF has been generated from an entry in the Cambridge 
# Structural Database, then it will include bibliographic, chemical, 
# crystal, experimental, refinement or atomic coordinate data resulting 
# from the CCDC's data processing and validation procedures.
#
#######################################################################

data_HIKLAQ
_chemical_formula_moiety         'C24 H24 B3 F3 N4 O3'
_chemical_name_systematic        
1-(2,4,6-tris(4-fluorophenyl)boroxin-2-yl)-1,3,5,7-tetraazatricyclo[3.3.1.1^3,7^]decane
_symmetry_cell_setting           triclinic
_symmetry_space_group_name_H-M   'P -1'
_symmetry_Int_Tables_number      2
_space_group_name_Hall           '-P 1'
loop_
_symmetry_equiv_pos_site_id
_symmetry_equiv_pos_as_xyz
1 x,y,z
2 -x,-y,-z
_cell_length_a                   10.910(4)
_cell_length_b                   11.238(4)
_cell_length_c                   11.295(4)
_cell_angle_alpha                80.469(12)
_cell_angle_beta                 62.890(12)
_cell_angle_gamma                72.457(12)
_cell_volume                     1174.71
_exptl_crystal_colour            colorless
_exptl_crystal_description       blocks
_cell_formula_units_Z            2
loop_
_atom_site_label
_atom_site_type_symbol
_atom_site_fract_x
_atom_site_fract_y
_atom_site_fract_z
C1 C 0.5363(3) 0.1450(2) 0.1623(3)
C2 C 0.6662(3) 0.0703(2) -0.0569(3)
C3 C 0.4431(3) 0.2200(2) 0.0028(3)
C4 C 0.6570(3) 0.2784(2) -0.1477(3)
C5 C 0.7548(2) 0.2036(2) 0.0100(2)
C6 C 0.5256(3) 0.3573(2) 0.0710(3)
C7 C 0.7008(2) 0.1724(2) 0.3178(2)
C8 C 0.8492(3) 0.1326(2) 0.2676(3)
C9 C 0.9188(3) 0.0366(3) 0.3262(3)
C10 C 0.8375(3) -0.0209(2) 0.4403(3)
C11 C 0.6920(3) 0.0127(2) 0.4944(3)
C12 C 0.6251(3) 0.1083(2) 0.4327(3)
C13 C 0.2479(2) 0.4808(2) 0.4990(2)
C14 C 0.1704(3) 0.3908(2) 0.5408(3)
C15 C 0.0305(3) 0.4140(3) 0.6371(3)
C16 C -0.0308(3) 0.5307(3) 0.6892(3)
C17 C 0.0388(3) 0.6241(3) 0.6507(3)
C18 C 0.1785(3) 0.5983(2) 0.5549(3)
C19 C 0.7030(2) 0.6116(2) 0.2039(2)
C20 C 0.8281(3) 0.6009(2) 0.0868(3)
C21 C 0.9002(3) 0.6934(2) 0.0414(3)
C22 C 0.8450(3) 0.7971(2) 0.1170(3)
C23 C 0.7229(3) 0.8128(2) 0.2329(3)
C24 C 0.6513(3) 0.7198(2) 0.2755(3)
B1 B 0.6174(3) 0.2897(2) 0.2559(3)
B2 B 0.4070(3) 0.4463(2) 0.3968(3)
B3 B 0.6235(3) 0.5056(2) 0.2545(3)
F1 F 0.90433(19) -0.11531(15) 0.49989(19)
F2 F -0.16819(15) 0.55482(16) 0.78387(17)
F3 F 0.91501(15) 0.88906(12) 0.07426(16)
N1 N 0.61024(19) 0.24875(16) 0.12516(19)
N2 N 0.5231(2) 0.11022(18) 0.0523(2)
N3 N 0.5130(2) 0.32331(18) -0.0403(2)
N4 N 0.7424(2) 0.16986(19) -0.1014(2)
O1 O 0.46850(16) 0.32996(14) 0.34958(16)
O2 O 0.48479(17) 0.53497(14) 0.35325(17)
O3 O 0.68821(16) 0.39040(14) 0.20494(16)
H1 H 0.692(3) 0.887(3) 0.283(3)
H2 H 0.438(3) 0.197(2) -0.074(3)
H3 H 0.351(3) 0.243(2) 0.076(3)
H4 H 0.804(3) 0.273(2) -0.015(2)
H5 H 0.811(3) 0.134(2) 0.044(3)
H6 H -0.014(3) 0.704(3) 0.683(3)
H7 H 0.443(3) 0.176(2) 0.235(3)
H8 H 0.592(3) 0.075(2) 0.190(3)
H9 H 0.644(3) 0.255(2) -0.225(3)
H10 H 0.703(3) 0.345(2) -0.173(3)
H11 H 0.581(3) 0.421(2) 0.046(3)
H12 H 0.428(3) 0.386(2) 0.149(3)
H13 H 0.863(3) 0.530(2) 0.036(3)
H14 H 0.217(3) 0.312(3) 0.505(3)
H15 H 0.562(3) 0.728(3) 0.359(3)
H16 H 0.985(3) 0.687(2) -0.045(3)
H17 H 0.233(3) 0.663(3) 0.535(3)
H18 H 0.519(3) 0.134(3) 0.468(3)
H19 H -0.026(3) 0.355(3) 0.665(3)
H20 H 0.659(2) 0.048(2) -0.134(2)
H21 H 0.726(3) 0.001(3) -0.019(3)
H22 H 0.908(3) 0.174(3) 0.190(3)
H23 H 1.020(3) 0.016(3) 0.302(3)
H24 H 0.641(3) -0.026(2) 0.575(3)
loop_
_geom_bond_atom_site_label_1
_geom_bond_atom_site_label_2
_geom_bond_site_symmetry_1
_geom_bond_site_symmetry_2
C1 N1 1_555 1_555
C2 N2 1_555 1_555
C3 N2 1_555 1_555
C4 N3 1_555 1_555
C5 N1 1_555 1_555
C6 N1 1_555 1_555
C7 C8 1_555 1_555
C8 C9 1_555 1_555
C9 C10 1_555 1_555
C10 C11 1_555 1_555
C11 C12 1_555 1_555
C12 C7 1_555 1_555
C13 C14 1_555 1_555
C14 C15 1_555 1_555
C15 C16 1_555 1_555
C16 C17 1_555 1_555
C17 C18 1_555 1_555
C18 C13 1_555 1_555
C19 C20 1_555 1_555
C20 C21 1_555 1_555
C21 C22 1_555 1_555
C22 C23 1_555 1_555
C23 C24 1_555 1_555
C24 C19 1_555 1_555
B1 C7 1_555 1_555
B2 C13 1_555 1_555
B3 C19 1_555 1_555
F1 C10 1_555 1_555
F2 C16 1_555 1_555
F3 C22 1_555 1_555
N1 B1 1_555 1_555
N2 C1 1_555 1_555
N3 C3 1_555 1_555
N4 C2 1_555 1_555
O1 B1 1_555 1_555
O2 B2 1_555 1_555
O3 B1 1_555 1_555
H1 C23 1_555 1_555
H2 C3 1_555 1_555
H3 C3 1_555 1_555
H4 C5 1_555 1_555
H5 C5 1_555 1_555
H6 C17 1_555 1_555
H7 C1 1_555 1_555
H8 C1 1_555 1_555
H9 C4 1_555 1_555
H10 C4 1_555 1_555
H11 C6 1_555 1_555
H12 C6 1_555 1_555
H13 C20 1_555 1_555
H14 C14 1_555 1_555
H15 C24 1_555 1_555
H16 C21 1_555 1_555
H17 C18 1_555 1_555
H18 C12 1_555 1_555
H19 C15 1_555 1_555
H20 C2 1_555 1_555
H21 C2 1_555 1_555
H22 C8 1_555 1_555
H23 C9 1_555 1_555
H24 C11 1_555 1_555
C4 N4 1_555 1_555
C5 N4 1_555 1_555
C6 N3 1_555 1_555
B2 O1 1_555 1_555
B3 O2 1_555 1_555
B3 O3 1_555 1_555

#END
