
#######################################################################
#
#                 Cambridge Crystallographic Data Centre
#                                CCDC 
#
#######################################################################
#
# If this CIF has been generated from an entry in the Cambridge 
# Structural Database, then it will include bibliographic, chemical, 
# crystal, experimental, refinement or atomic coordinate data resulting 
# from the CCDC's data processing and validation procedures.
#
#######################################################################

data_HIKTAZ
_chemical_formula_moiety         'C20 H25 O1 P1'
_chemical_name_systematic        
'(R)-t-butyl(phenyl)((R,E)-4-phenylbut-3-en-2-yl)phosphine oxide'
_symmetry_cell_setting           orthorhombic
_symmetry_space_group_name_H-M   'P 21 21 21'
_symmetry_Int_Tables_number      19
_space_group_name_Hall           'P 2ac 2ab'
loop_
_symmetry_equiv_pos_site_id
_symmetry_equiv_pos_as_xyz
1 x,y,z
2 1/2-x,-y,1/2+z
3 -x,1/2+y,1/2-z
4 1/2+x,1/2-y,-z
_cell_length_a                   5.9083(9)
_cell_length_b                   13.523(2)
_cell_length_c                   21.616(3)
_cell_angle_alpha                90
_cell_angle_beta                 90
_cell_angle_gamma                90
_cell_volume                     1727.07
_exptl_crystal_colour            colorless
_exptl_crystal_description       irregular
_cell_formula_units_Z            4
loop_
_atom_site_label
_atom_site_type_symbol
_atom_site_fract_x
_atom_site_fract_y
_atom_site_fract_z
P1 P 0.81198(6) 0.90419(2) 0.84548(2)
O1 O 1.05533(16) 0.88157(8) 0.83210(5)
C1 C 0.6155(2) 0.81748(10) 0.80811(6)
C2 C 0.6022(2) 0.82941(10) 0.73891(6)
C3 C 0.4089(2) 0.85186(10) 0.70999(6)
C4 C 0.3743(2) 0.86088(10) 0.64264(6)
C5 C 0.5353(3) 0.82956(11) 0.59908(7)
C6 C 0.4905(3) 0.83627(11) 0.53600(7)
C7 C 0.2850(3) 0.87414(10) 0.51541(6)
C8 C 0.1239(2) 0.90562(11) 0.55766(7)
C9 C 0.1692(2) 0.89922(11) 0.62090(6)
C10 C 0.6945(3) 0.71162(11) 0.82440(7)
C11 C 0.7488(2) 0.89109(10) 0.92746(6)
C12 C 0.5402(2) 0.85733(10) 0.95024(6)
C13 C 0.5094(3) 0.84358(11) 1.01356(7)
C14 C 0.6821(3) 0.86673(10) 1.05481(6)
C15 C 0.8870(2) 0.90349(11) 1.03291(6)
C16 C 0.9217(2) 0.91383(10) 0.96945(6)
C17 C 0.7385(2) 1.03275(10) 0.82479(6)
C18 C 0.8168(3) 1.05402(11) 0.75814(7)
C19 C 0.4837(2) 1.05143(11) 0.83174(7)
C20 C 0.8690(3) 1.10202(11) 0.86872(7)
H1 H 0.474(3) 0.8302(15) 0.8257(9)
H2 H 0.740(3) 0.8191(14) 0.7179(8)
H3 H 0.280(4) 0.8625(14) 0.7337(9)
H4 H 0.678(4) 0.8019(15) 0.6139(9)
H5 H 0.609(4) 0.8151(15) 0.5071(10)
H6 H 0.253(4) 0.8773(15) 0.4700(10)
H7 H -0.015(4) 0.9303(16) 0.5442(10)
H8 H 0.046(4) 0.9225(16) 0.6521(9)
H9 H 0.598(4) 0.6608(16) 0.8094(9)
H10 H 0.700(4) 0.7021(15) 0.8679(10)
H11 H 0.836(4) 0.6968(16) 0.8079(10)
H12 H 0.421(4) 0.8422(15) 0.9233(10)
H13 H 0.371(4) 0.8184(14) 1.0283(9)
H14 H 0.664(4) 0.8564(16) 1.0996(9)
H15 H 1.010(4) 0.9208(15) 1.0610(10)
H16 H 1.057(3) 0.9374(13) 0.9549(8)
H17 H 0.800(4) 1.1252(15) 0.7512(9)
H18 H 0.734(3) 1.0149(14) 0.7278(9)
H19 H 0.971(5) 1.0402(18) 0.7541(11)
H20 H 0.450(4) 1.1234(16) 0.8230(10)
H21 H 0.431(4) 1.0356(15) 0.8757(10)
H22 H 0.392(4) 1.0110(16) 0.8040(10)
H23 H 0.842(4) 1.1678(15) 0.8582(9)
H24 H 1.026(4) 1.0894(17) 0.8669(10)
H25 H 0.816(3) 1.0947(14) 0.9102(9)
loop_
_geom_bond_atom_site_label_1
_geom_bond_atom_site_label_2
_geom_bond_site_symmetry_1
_geom_bond_site_symmetry_2
P1 O1 1_555 1_555
C1 P1 1_555 1_555
C2 C1 1_555 1_555
C3 C2 1_555 1_555
C4 C3 1_555 1_555
C5 C4 1_555 1_555
C6 C5 1_555 1_555
C7 C6 1_555 1_555
C8 C7 1_555 1_555
C9 C4 1_555 1_555
C10 C1 1_555 1_555
C11 P1 1_555 1_555
C12 C11 1_555 1_555
C13 C12 1_555 1_555
C14 C13 1_555 1_555
C15 C14 1_555 1_555
C16 C11 1_555 1_555
C17 P1 1_555 1_555
C18 C17 1_555 1_555
C19 C17 1_555 1_555
C20 C17 1_555 1_555
H1 C1 1_555 1_555
H2 C2 1_555 1_555
H3 C3 1_555 1_555
H4 C5 1_555 1_555
H5 C6 1_555 1_555
H6 C7 1_555 1_555
H7 C8 1_555 1_555
H8 C9 1_555 1_555
H9 C10 1_555 1_555
H10 C10 1_555 1_555
H11 C10 1_555 1_555
H12 C12 1_555 1_555
H13 C13 1_555 1_555
H14 C14 1_555 1_555
H15 C15 1_555 1_555
H16 C16 1_555 1_555
H17 C18 1_555 1_555
H18 C18 1_555 1_555
H19 C18 1_555 1_555
H20 C19 1_555 1_555
H21 C19 1_555 1_555
H22 C19 1_555 1_555
H23 C20 1_555 1_555
H24 C20 1_555 1_555
H25 C20 1_555 1_555
C8 C9 1_555 1_555
C15 C16 1_555 1_555

#END
