
#######################################################################
#
#                 Cambridge Crystallographic Data Centre
#                                CCDC 
#
#######################################################################
#
# If this CIF has been generated from an entry in the Cambridge 
# Structural Database, then it will include bibliographic, chemical, 
# crystal, experimental, refinement or atomic coordinate data resulting 
# from the CCDC's data processing and validation procedures.
#
#######################################################################

data_HIKWAC
_chemical_formula_moiety         'C22 H17 N1 O4 S2'
_chemical_name_systematic        
4-[3,3-bis(phenylsulfonyl)prop-1-en-1-yl]benzonitrile
_symmetry_cell_setting           orthorhombic
_symmetry_space_group_name_H-M   'P n a 21'
_symmetry_Int_Tables_number      33
_space_group_name_Hall           'P 2c -2n'
loop_
_symmetry_equiv_pos_site_id
_symmetry_equiv_pos_as_xyz
1 x,y,z
2 -x,-y,1/2+z
3 1/2-x,1/2+y,1/2+z
4 1/2+x,1/2-y,z
_cell_length_a                   11.1451(4)
_cell_length_b                   16.3538(6)
_cell_length_c                   10.6857(4)
_cell_angle_alpha                90
_cell_angle_beta                 90
_cell_angle_gamma                90
_cell_volume                     1947.63
_exptl_crystal_colour            colorless
_exptl_crystal_description       block
_cell_formula_units_Z            4
loop_
_atom_site_label
_atom_site_type_symbol
_atom_site_fract_x
_atom_site_fract_y
_atom_site_fract_z
C1 C 0.2993(3) 0.70640(18) 0.3344(4)
H1 H 0.2121 0.7085 0.3125
C2 C 0.3405(3) 0.61951(18) 0.3275(4)
H2 H 0.4243 0.6088 0.3274
C3 C 0.2655(3) 0.5566(2) 0.3214(3)
H3 H 0.1821 0.5682 0.3172
C4 C 0.3025(3) 0.46992(19) 0.3206(3)
C5 C 0.2149(3) 0.4096(2) 0.3349(4)
H4 H 0.1328 0.4245 0.3413
C6 C 0.2479(3) 0.3274(2) 0.3398(4)
H5 H 0.1885 0.2865 0.3511
C7 C 0.3672(3) 0.3057(2) 0.3281(4)
C8 C 0.4554(3) 0.3656(2) 0.3108(4)
H6 H 0.5373 0.3507 0.3016
C9 C 0.4216(3) 0.4466(2) 0.3073(4)
H7 H 0.4811 0.4874 0.2955
C10 C 0.4032(4) 0.2211(2) 0.3369(5)
C11 C 0.2998(3) 0.85513(19) 0.1919(3)
C12 C 0.3560(3) 0.93049(19) 0.2060(4)
H8 H 0.4361 0.9339 0.2358
C13 C 0.2917(3) 1.0012(2) 0.1754(4)
H9 H 0.3288 1.0533 0.1828
C14 C 0.1752(3) 0.9957(2) 0.1346(4)
H10 H 0.1320 1.0440 0.1144
C15 C 0.1195(3) 0.9195(2) 0.1224(4)
H11 H 0.0383 0.9163 0.0958
C16 C 0.1828(3) 0.8485(2) 0.1492(3)
H12 H 0.1466 0.7964 0.1385
C17 C 0.3078(3) 0.84378(18) 0.5040(3)
C18 C 0.4113(3) 0.8902(2) 0.5164(4)
H13 H 0.4878 0.8649 0.5231
C19 C 0.3998(4) 0.9749(2) 0.5185(4)
H14 H 0.4693 1.0081 0.5264
C20 C 0.2888(4) 1.0108(2) 0.5094(4)
H15 H 0.2826 1.0687 0.5104
C21 C 0.1863(3) 0.9643(2) 0.4989(4)
H16 H 0.1101 0.9901 0.4933
C22 C 0.1943(3) 0.87883(19) 0.4964(4)
H17 H 0.1245 0.8458 0.4897
N1 N 0.4338(3) 0.15481(19) 0.3461(5)
O1 O 0.3784(3) 0.71595(16) 0.1071(3)
O2 O 0.4974(2) 0.78653(16) 0.2705(3)
O3 O 0.2144(2) 0.70169(15) 0.5594(3)
O4 O 0.4338(2) 0.71226(16) 0.5391(3)
S1 S 0.38273(7) 0.76524(4) 0.21888(9)
S2 S 0.31715(7) 0.73669(5) 0.49928(8)
loop_
_geom_bond_atom_site_label_1
_geom_bond_atom_site_label_2
_geom_bond_site_symmetry_1
_geom_bond_site_symmetry_2
C1 H1 1_555 1_555
C2 C1 1_555 1_555
H2 C2 1_555 1_555
C3 C2 1_555 1_555
H3 C3 1_555 1_555
C4 C3 1_555 1_555
C5 C4 1_555 1_555
H4 C5 1_555 1_555
C6 C5 1_555 1_555
H5 C6 1_555 1_555
C7 C6 1_555 1_555
C8 C7 1_555 1_555
H6 C8 1_555 1_555
C9 C4 1_555 1_555
H7 C9 1_555 1_555
C10 C7 1_555 1_555
C11 C12 1_555 1_555
C12 H8 1_555 1_555
C13 C12 1_555 1_555
H9 C13 1_555 1_555
C14 C13 1_555 1_555
H10 C14 1_555 1_555
C15 C14 1_555 1_555
H11 C15 1_555 1_555
C16 C11 1_555 1_555
H12 C16 1_555 1_555
C17 C18 1_555 1_555
C18 H13 1_555 1_555
C19 C18 1_555 1_555
H14 C19 1_555 1_555
C20 C19 1_555 1_555
H15 C20 1_555 1_555
C21 C20 1_555 1_555
H16 C21 1_555 1_555
C22 C17 1_555 1_555
H17 C22 1_555 1_555
N1 C10 1_555 1_555
O1 S1 1_555 1_555
O2 S1 1_555 1_555
O3 S2 1_555 1_555
O4 S2 1_555 1_555
S1 C1 1_555 1_555
S2 C1 1_555 1_555
C8 C9 1_555 1_555
C11 S1 1_555 1_555
C15 C16 1_555 1_555
C17 S2 1_555 1_555
C21 C22 1_555 1_555

#END
