
#######################################################################
#
#                 Cambridge Crystallographic Data Centre
#                                CCDC 
#
#######################################################################
#
# If this CIF has been generated from an entry in the Cambridge 
# Structural Database, then it will include bibliographic, chemical, 
# crystal, experimental, refinement or atomic coordinate data resulting 
# from the CCDC's data processing and validation procedures.
#
#######################################################################

data_HIKWUW
_chemical_formula_moiety         'C31 H36 O4'
_chemical_name_systematic        
2,6-di-t-butyl-4-(5-methoxy-3',4'-dihydro-3H-spiro[2-benzofuran-1,2'-[1]benzopyran]-4'-yl)phenol
_symmetry_cell_setting           triclinic
_symmetry_space_group_name_H-M   'P -1'
_symmetry_Int_Tables_number      2
_space_group_name_Hall           '-P 1'
loop_
_symmetry_equiv_pos_site_id
_symmetry_equiv_pos_as_xyz
1 x,y,z
2 -x,-y,-z
_cell_length_a                   9.7271(9)
_cell_length_b                   12.1139(11)
_cell_length_c                   13.3466(12)
_cell_angle_alpha                116.0560(10)
_cell_angle_beta                 102.8250(10)
_cell_angle_gamma                98.7450(10)
_cell_volume                     1320.51
_exptl_crystal_colour            colorless
_exptl_crystal_description       block
_cell_formula_units_Z            2
loop_
_atom_site_label
_atom_site_type_symbol
_atom_site_fract_x
_atom_site_fract_y
_atom_site_fract_z
O1 O 0.81277(11) 0.85001(9) 0.29539(9)
O2 O 0.57262(11) 0.86593(10) 0.25238(9)
O3 O 0.96512(15) 1.52060(11) 0.25011(13)
O4 O 0.57619(12) 0.88616(11) 0.70251(10)
C1 C 0.71785(15) 0.92876(13) 0.33471(12)
C2 C 0.77259(16) 1.05669(13) 0.34162(13)
H1 H 0.872765 1.098776 0.395302
H2 H 0.711847 1.111200 0.372236
C3 C 0.76759(15) 1.03827(12) 0.21999(12)
H3 H 0.663675 1.004222 0.171295
C4 C 0.84145(15) 0.93590(12) 0.16393(12)
C5 C 0.85460(15) 0.84674(12) 0.20229(12)
C6 C 0.91678(19) 0.74970(14) 0.14952(15)
H4 H 0.927262 0.692217 0.177324
C7 C 0.9630(2) 0.73826(15) 0.05603(16)
H5 H 1.002859 0.671992 0.019810
C8 C 0.9505(2) 0.82473(15) 0.01592(15)
H6 H 0.982068 0.817296 -0.047054
C9 C 0.89080(18) 0.92240(14) 0.07010(13)
H7 H 0.883313 0.980885 0.043122
C10 C 0.70489(15) 0.93130(13) 0.44498(13)
C11 C 0.80412(16) 0.99459(15) 0.55815(14)
H8 H 0.896860 1.045462 0.574738
C12 C 0.76412(16) 0.98153(15) 0.64667(14)
H9 H 0.830140 1.023927 0.723072
C13 C 0.62482(16) 0.90480(14) 0.62131(13)
C14 C 0.52563(16) 0.84058(13) 0.50715(13)
H10 H 0.433067 0.788887 0.489780
C15 C 0.56672(15) 0.85483(12) 0.42072(13)
C16 C 0.48338(16) 0.80081(13) 0.29300(13)
H11 H 0.469400 0.709122 0.249987
H12 H 0.387859 0.816784 0.283151
C17 C 0.6676(2) 0.9595(2) 0.82236(16)
H13 H 0.760356 0.940299 0.830212
H14 H 0.620754 0.938559 0.870441
H15 H 0.683563 1.049100 0.847392
C18 C 0.82543(14) 1.16515(12) 0.22516(12)
C19 C 0.97108(14) 1.23943(12) 0.28624(12)
H16 H 1.036664 1.207600 0.320503
C20 C 1.02199(14) 1.35925(12) 0.29789(12)
C21 C 0.92040(16) 1.40299(12) 0.24307(12)
C22 C 0.77175(15) 1.33210(13) 0.18090(12)
C23 C 0.72957(15) 1.21344(13) 0.17389(12)
H17 H 0.632189 1.164047 0.132739
C24 C 0.65979(17) 1.38290(14) 0.12412(15)
C25 C 0.6495(2) 1.51046(18) 0.21793(19)
H18 H 0.622893 1.498519 0.278321
H19 H 0.576252 1.538504 0.181743
H20 H 0.743053 1.573943 0.252232
C26 C 0.50451(19) 1.28930(19) 0.0671(2)
H21 H 0.505569 1.208084 0.007282
H22 H 0.437818 1.323146 0.032069
H23 H 0.473051 1.278128 0.126116
C27 C 0.7032(2) 1.39922(19) 0.02678(17)
H24 H 0.800378 1.457016 0.059486
H25 H 0.634785 1.433377 -0.006223
H26 H 0.701569 1.317487 -0.033899
C28 C 1.18385(16) 1.44214(13) 0.37062(14)
C29 C 1.1900(2) 1.56782(17) 0.47617(16)
H27 H 1.143554 1.618009 0.448178
H28 H 1.290761 1.615134 0.522887
H29 H 1.139582 1.548919 0.523458
C30 C 1.2699(2) 1.3727(2) 0.4217(2)
H30 H 1.225679 1.356920 0.473405
H31 H 1.369852 1.424979 0.465045
H32 H 1.268354 1.292651 0.358638
C31 C 1.2643(2) 1.4700(2) 0.29434(19)
H33 H 1.259122 1.390718 0.228520
H34 H 1.365402 1.516408 0.340534
H35 H 1.218835 1.520466 0.266084
H36 H 1.046(5) 1.554(4) 0.278(4)
loop_
_geom_bond_atom_site_label_1
_geom_bond_atom_site_label_2
_geom_bond_site_symmetry_1
_geom_bond_site_symmetry_2
O1 C1 1_555 1_555
O2 C1 1_555 1_555
O3 C21 1_555 1_555
O4 C13 1_555 1_555
C1 C2 1_555 1_555
C2 H1 1_555 1_555
H2 C2 1_555 1_555
C3 C2 1_555 1_555
H3 C3 1_555 1_555
C4 C3 1_555 1_555
C5 O1 1_555 1_555
C6 C5 1_555 1_555
H4 C6 1_555 1_555
C7 C6 1_555 1_555
H5 C7 1_555 1_555
C8 C7 1_555 1_555
H6 C8 1_555 1_555
C9 C4 1_555 1_555
H7 C9 1_555 1_555
C10 C1 1_555 1_555
C11 C10 1_555 1_555
H8 C11 1_555 1_555
C12 C11 1_555 1_555
H9 C12 1_555 1_555
C13 C12 1_555 1_555
C14 C13 1_555 1_555
H10 C14 1_555 1_555
C15 C10 1_555 1_555
C16 O2 1_555 1_555
H11 C16 1_555 1_555
H12 C16 1_555 1_555
C17 O4 1_555 1_555
H13 C17 1_555 1_555
H14 C17 1_555 1_555
H15 C17 1_555 1_555
C18 C3 1_555 1_555
C19 C18 1_555 1_555
H16 C19 1_555 1_555
C20 C19 1_555 1_555
C21 C20 1_555 1_555
C22 C21 1_555 1_555
C23 C18 1_555 1_555
H17 C23 1_555 1_555
C24 C22 1_555 1_555
C25 C24 1_555 1_555
H18 C25 1_555 1_555
H19 C25 1_555 1_555
H20 C25 1_555 1_555
C26 C24 1_555 1_555
H21 C26 1_555 1_555
H22 C26 1_555 1_555
H23 C26 1_555 1_555
C27 C24 1_555 1_555
H24 C27 1_555 1_555
H25 C27 1_555 1_555
H26 C27 1_555 1_555
C28 C20 1_555 1_555
C29 C28 1_555 1_555
H27 C29 1_555 1_555
H28 C29 1_555 1_555
H29 C29 1_555 1_555
C30 C28 1_555 1_555
H30 C30 1_555 1_555
H31 C30 1_555 1_555
H32 C30 1_555 1_555
C31 C28 1_555 1_555
H33 C31 1_555 1_555
H34 C31 1_555 1_555
H35 C31 1_555 1_555
H36 O3 1_555 1_555
C4 C5 1_555 1_555
C8 C9 1_555 1_555
C14 C15 1_555 1_555
C15 C16 1_555 1_555
C22 C23 1_555 1_555

#END
