
#######################################################################
#
#                 Cambridge Crystallographic Data Centre
#                                CCDC 
#
#######################################################################
#
# If this CIF has been generated from an entry in the Cambridge 
# Structural Database, then it will include bibliographic, chemical, 
# crystal, experimental, refinement or atomic coordinate data resulting 
# from the CCDC's data processing and validation procedures.
#
#######################################################################

data_HIKWIK
_chemical_formula_moiety         'C16 H28 O2'
_chemical_name_systematic        
\b-7-(2-hydroxyethyl)-1,5,7-trimethyldecahydrocyclobuta[d]inden-1-ol
_symmetry_cell_setting           orthorhombic
_symmetry_space_group_name_H-M   'P 21 21 21'
_symmetry_Int_Tables_number      19
_space_group_name_Hall           'P 2ac 2ab'
loop_
_symmetry_equiv_pos_site_id
_symmetry_equiv_pos_as_xyz
1 x,y,z
2 1/2-x,-y,1/2+z
3 -x,1/2+y,1/2-z
4 1/2+x,1/2-y,-z
_cell_length_a                   6.3617(2)
_cell_length_b                   8.7528(2)
_cell_length_c                   26.7339(7)
_cell_angle_alpha                90
_cell_angle_beta                 90
_cell_angle_gamma                90
_cell_volume                     1488.62
_exptl_crystal_colour            colorless
_exptl_crystal_description       needle
_cell_formula_units_Z            4
loop_
_atom_site_label
_atom_site_type_symbol
_atom_site_fract_x
_atom_site_fract_y
_atom_site_fract_z
C1 C 0.5451(4) 0.5867(2) 0.60250(8)
H1 H 0.4077 0.6365 0.5995
C2 C 0.6171(4) 0.5595(3) 0.65743(8)
C3 C 0.7852(4) 0.6721(3) 0.67680(8)
H2 H 0.9263 0.6351 0.6684
C4 C 0.7446(4) 0.8270(3) 0.65198(8)
H3 H 0.8408 0.9014 0.6661
H4 H 0.6029 0.8595 0.6601
C5 C 0.7699(4) 0.8280(2) 0.59464(8)
C6 C 0.7216(4) 0.6671(2) 0.57411(8)
H5 H 0.6826 0.6754 0.5391
H6 H 0.8479 0.6053 0.5760
C7 C 0.5392(4) 0.4104(2) 0.59480(9)
C8 C 0.6801(4) 0.3939(3) 0.64186(9)
H7 H 0.8284 0.3821 0.6344
H8 H 0.6327 0.3159 0.6650
C9 C 0.4490(4) 0.5652(3) 0.69882(9)
H9 H 0.3633 0.6564 0.6961
H10 H 0.3589 0.4758 0.6978
C10 C 0.5825(4) 0.5675(3) 0.74639(9)
H11 H 0.5005 0.6016 0.7749
H12 H 0.6394 0.4670 0.7535
C11 C 0.7575(4) 0.6807(3) 0.73436(9)
H13 H 0.7061 0.7832 0.7426
C12 C 0.9986(4) 0.8706(3) 0.58192(9)
H14 H 1.0211 0.8593 0.5466
H15 H 1.0927 0.8045 0.5998
H16 H 1.0244 0.9747 0.5915
C13 C 0.3223(4) 0.3413(3) 0.60087(10)
H17 H 0.2382 0.3657 0.5722
H18 H 0.2571 0.3821 0.6304
H19 H 0.3343 0.2324 0.6039
O1 O 0.6162(3) 0.35188(19) 0.54873(7)
H20 H 0.733(6) 0.390(4) 0.5402(14)
C14 C 0.9580(5) 0.6537(4) 0.76423(10)
H21 H 1.0152 0.5555 0.7558
H22 H 0.9266 0.6568 0.7993
H23 H 1.0587 0.7317 0.7563
C15 C 0.6190(4) 0.9489(3) 0.57318(8)
H24 H 0.4761 0.9159 0.5797
H25 H 0.6408 1.0436 0.5913
C16 C 0.6389(4) 0.9825(3) 0.51761(9)
H26 H 0.7783 1.0221 0.5107
H27 H 0.6218 0.8883 0.4989
O2 O 0.4856(3) 1.0906(2) 0.50136(7)
H28 H 0.506(6) 1.181(5) 0.5134(14)
loop_
_geom_bond_atom_site_label_1
_geom_bond_atom_site_label_2
_geom_bond_site_symmetry_1
_geom_bond_site_symmetry_2
C1 H1 1_555 1_555
C2 C1 1_555 1_555
C3 C2 1_555 1_555
H2 C3 1_555 1_555
C4 C3 1_555 1_555
H3 C4 1_555 1_555
H4 C4 1_555 1_555
C5 C4 1_555 1_555
C6 C1 1_555 1_555
H5 C6 1_555 1_555
H6 C6 1_555 1_555
C7 C1 1_555 1_555
C8 C2 1_555 1_555
H7 C8 1_555 1_555
H8 C8 1_555 1_555
C9 C2 1_555 1_555
H9 C9 1_555 1_555
H10 C9 1_555 1_555
C10 C9 1_555 1_555
H11 C10 1_555 1_555
H12 C10 1_555 1_555
C11 C3 1_555 1_555
H13 C11 1_555 1_555
C12 C5 1_555 1_555
H14 C12 1_555 1_555
H15 C12 1_555 1_555
H16 C12 1_555 1_555
C13 C7 1_555 1_555
H17 C13 1_555 1_555
H18 C13 1_555 1_555
H19 C13 1_555 1_555
O1 C7 1_555 1_555
H20 O1 1_555 1_555
C14 C11 1_555 1_555
H21 C14 1_555 1_555
H22 C14 1_555 1_555
H23 C14 1_555 1_555
C15 C5 1_555 1_555
H24 C15 1_555 1_555
H25 C15 1_555 1_555
C16 C15 1_555 1_555
H26 C16 1_555 1_555
H27 C16 1_555 1_555
O2 C16 1_555 1_555
H28 O2 1_555 1_555
C5 C6 1_555 1_555
C7 C8 1_555 1_555
C10 C11 1_555 1_555

#END
