
#######################################################################
#
#                 Cambridge Crystallographic Data Centre
#                                CCDC 
#
#######################################################################
#
# If this CIF has been generated from an entry in the Cambridge 
# Structural Database, then it will include bibliographic, chemical, 
# crystal, experimental, refinement or atomic coordinate data resulting 
# from the CCDC's data processing and validation procedures.
#
#######################################################################

data_HILGUG
_chemical_formula_moiety         'C33 H46 Cl1 N1 O5 S1,2(C2 H6 O1)'
_chemical_name_systematic        
'3-hydroxy-2,4,7,14-tetramethyl-9-oxo-4-vinyltricyclo[5.4.3.0^1,8^]tetradec-6-yl ((1-((4-chlorobenzoyl)amino)-2-methylpropan-2-yl)sulfanyl)acetate ethanol solvate'
_symmetry_cell_setting           orthorhombic
_symmetry_space_group_name_H-M   'P 21 21 21'
_symmetry_Int_Tables_number      19
_space_group_name_Hall           'P 2ac 2ab'
loop_
_symmetry_equiv_pos_site_id
_symmetry_equiv_pos_as_xyz
1 x,y,z
2 1/2-x,-y,1/2+z
3 1/2+x,1/2-y,-z
4 -x,1/2+y,1/2-z
_cell_length_a                   10.42854(17)
_cell_length_b                   11.07220(17)
_cell_length_c                   31.7312(6)
_cell_angle_alpha                90
_cell_angle_beta                 90
_cell_angle_gamma                90
_cell_volume                     3663.9
_exptl_crystal_colour            'light colorless'
_exptl_crystal_description       block
_cell_formula_units_Z            4
_exptl_crystal_recrystallization_method acetone/ethanol
loop_
_atom_site_label
_atom_site_type_symbol
_atom_site_fract_x
_atom_site_fract_y
_atom_site_fract_z
Cl1 Cl 0.70584(5) 0.70168(4) 0.746846(14)
S1 S 0.62279(3) 0.66946(3) 0.452781(12)
O1 O 0.43785(13) 0.00255(11) 0.60673(4)
O2 O 0.93686(11) 0.30392(11) 0.68206(4)
H1 H 0.979(2) 0.246(3) 0.6832(8)
O3 O 0.65386(11) 0.37129(10) 0.52182(3)
O4 O 0.63156(11) 0.56455(10) 0.54264(4)
O5 O 0.84156(11) 0.97184(10) 0.56439(4)
N1 N 0.73421(13) 0.81250(12) 0.53653(4)
H2 H 0.6913 0.7477 0.5414
C1 C 0.60053(14) 0.16353(13) 0.61592(5)
H3 H 0.6874 0.1313 0.6123
C2 C 0.51367(16) 0.05665(15) 0.62848(5)
C3 C 0.53465(17) 0.03093(16) 0.67497(5)
H4 H 0.5818 -0.0438 0.6787
H5 H 0.4532 0.0244 0.6896
C4 C 0.61187(16) 0.13794(14) 0.69179(5)
H6 H 0.7009 0.1154 0.6959
H7 H 0.5771 0.1656 0.7184
C5 C 0.60032(15) 0.23823(14) 0.65773(5)
C6 C 0.46707(15) 0.29820(15) 0.66065(5)
H8 H 0.4036 0.2362 0.6663
H9 H 0.4668 0.3536 0.6843
C7 C 0.42743(16) 0.36727(15) 0.62093(5)
H10 H 0.4848 0.4353 0.6170
H11 H 0.3415 0.3989 0.6248
C8 C 0.43028(16) 0.28773(14) 0.58117(5)
H12 H 0.3721 0.2200 0.5867
C9 C 0.56560(15) 0.23146(13) 0.57445(5)
C10 C 0.70963(15) 0.33244(14) 0.66309(5)
H13 H 0.6903 0.4001 0.6442
C11 C 0.84299(15) 0.28119(14) 0.64980(5)
H14 H 0.8340 0.1934 0.6472
C12 C 0.89358(15) 0.32969(15) 0.60666(5)
C13 C 0.80983(15) 0.28703(14) 0.56895(5)
H15 H 0.8530 0.3116 0.5433
H16 H 0.8092 0.1994 0.5692
C14 C 0.66977(15) 0.32948(14) 0.56576(5)
H17 H 0.6565 0.3977 0.5849
C15 C 0.37354(16) 0.35639(15) 0.54386(5)
H18 H 0.2846 0.3728 0.5491
H19 H 0.3815 0.3084 0.5188
H20 H 0.4188 0.4311 0.5402
C16 C 0.71232(17) 0.38278(16) 0.70831(5)
H21 H 0.6284 0.4112 0.7158
H22 H 0.7724 0.4484 0.7099
H23 H 0.7379 0.3201 0.7275
C17 C 0.90153(18) 0.46707(16) 0.60736(6)
H24 H 0.8538 0.5056 0.6281
C18 C 0.9991(5) 0.5364(5) 0.60054(18)
H25 H 1.0096 0.5730 0.5744
H26 H 1.0589 0.5497 0.6218
C19 C 1.02647(17) 0.27313(17) 0.59892(6)
H27 H 1.0848 0.2995 0.6204
H28 H 1.0579 0.2980 0.5718
H29 H 1.0195 0.1867 0.5997
C20 C 0.56515(16) 0.14115(14) 0.53735(5)
H30 H 0.6436 0.0959 0.5374
H31 H 0.5577 0.1845 0.5113
H32 H 0.4939 0.0869 0.5403
C21 C 0.64232(15) 0.48956(14) 0.51519(5)
C22 C 0.64254(16) 0.51417(14) 0.46803(5)
H33 H 0.5742 0.4674 0.4553
H34 H 0.7229 0.4851 0.4565
C23 C 0.77844(15) 0.74737(14) 0.46238(5)
C24 C 0.75471(17) 0.85159(14) 0.49330(5)
H35 H 0.8278 0.9057 0.4926
H36 H 0.6802 0.8967 0.4840
C25 C 0.78154(15) 0.87645(14) 0.56904(5)
C26 C 0.75919(15) 0.82696(15) 0.61263(5)
C27 C 0.66538(17) 0.74162(15) 0.62234(5)
H37 H 0.6132 0.7112 0.6011
C28 C 0.64908(18) 0.70154(16) 0.66351(5)
H38 H 0.5866 0.6446 0.6699
C29 C 0.72769(18) 0.74799(16) 0.69487(5)
C30 C 0.82102(17) 0.83306(17) 0.68626(5)
H39 H 0.8729 0.8631 0.7077
C31 C 0.83594(16) 0.87290(16) 0.64493(6)
H40 H 0.8978 0.9308 0.6388
C32 C 0.88357(16) 0.66303(16) 0.47832(5)
H41 H 0.8567 0.6264 0.5043
H42 H 0.9607 0.7084 0.4830
H43 H 0.8994 0.6013 0.4577
C33 C 0.81855(18) 0.80240(16) 0.41997(5)
H44 H 0.8350 0.7389 0.4001
H45 H 0.8948 0.8497 0.4237
H46 H 0.7509 0.8530 0.4095
O6 O 0.54451(12) 0.42356(12) 0.31476(4)
H50 H 0.5411 0.4496 0.2906
C35 C 0.68684(19) 0.59761(18) 0.32469(6)
H51 H 0.6945 0.6067 0.2947
H52 H 0.7659 0.6209 0.3379
H53 H 0.6186 0.6480 0.3348
C36 C 0.65794(19) 0.46829(18) 0.33500(7)
H54 H 0.7303 0.4188 0.3266
H55 H 0.6479 0.4604 0.3653
O7 O 0.01257(13) 0.49346(13) 0.73538(4)
H56 H -0.0119 0.4428 0.7183
C37 C 0.2109(3) 0.5395(3) 0.69953(8)
H57 H 0.1988 0.4760 0.6793
H58 H 0.2584 0.5093 0.7232
H59 H 0.2574 0.6046 0.6867
C38 C 0.0833(2) 0.58428(18) 0.71411(7)
H60 H 0.0958 0.6524 0.7329
H61 H 0.0345 0.6122 0.6900
C34? C 0.9624(8) 0.5321(6) 0.5841(2)
H47? H 1.0374 0.5684 0.5937
H48? H 0.9342 0.5457 0.5567
H49? H 0.8252 0.5068 0.6136
loop_
_geom_bond_atom_site_label_1
_geom_bond_atom_site_label_2
_geom_bond_site_symmetry_1
_geom_bond_site_symmetry_2
Cl1 C29 1_555 1_555
S1 C22 1_555 1_555
O1 C2 1_555 1_555
O2 H1 1_555 1_555
O3 C14 1_555 1_555
O4 C21 1_555 1_555
O5 C25 1_555 1_555
N1 H2 1_555 1_555
C1 H3 1_555 1_555
C2 C1 1_555 1_555
C3 C2 1_555 1_555
H4 C3 1_555 1_555
H5 C3 1_555 1_555
C4 C3 1_555 1_555
H6 C4 1_555 1_555
H7 C4 1_555 1_555
C5 C1 1_555 1_555
C6 C5 1_555 1_555
H8 C6 1_555 1_555
H9 C6 1_555 1_555
C7 C6 1_555 1_555
H10 C7 1_555 1_555
H11 C7 1_555 1_555
C8 C7 1_555 1_555
H12 C8 1_555 1_555
C9 C1 1_555 1_555
C10 C5 1_555 1_555
H13 C10 1_555 1_555
C11 O2 1_555 1_555
H14 C11 1_555 1_555
C12 C11 1_555 1_555
C13 C12 1_555 1_555
H15 C13 1_555 1_555
H16 C13 1_555 1_555
C14 C9 1_555 1_555
H17 C14 1_555 1_555
C15 C8 1_555 1_555
H18 C15 1_555 1_555
H19 C15 1_555 1_555
H20 C15 1_555 1_555
C16 C10 1_555 1_555
H21 C16 1_555 1_555
H22 C16 1_555 1_555
H23 C16 1_555 1_555
C17 C12 1_555 1_555
H24 C17 1_555 1_555
C18 C17 1_555 1_555
H25 C18 1_555 1_555
H26 C18 1_555 1_555
C19 C12 1_555 1_555
H27 C19 1_555 1_555
H28 C19 1_555 1_555
H29 C19 1_555 1_555
C20 C9 1_555 1_555
H30 C20 1_555 1_555
H31 C20 1_555 1_555
H32 C20 1_555 1_555
C21 O3 1_555 1_555
C22 C21 1_555 1_555
H33 C22 1_555 1_555
H34 C22 1_555 1_555
C23 S1 1_555 1_555
C24 N1 1_555 1_555
H35 C24 1_555 1_555
H36 C24 1_555 1_555
C25 N1 1_555 1_555
C26 C25 1_555 1_555
C27 C26 1_555 1_555
H37 C27 1_555 1_555
C28 C27 1_555 1_555
H38 C28 1_555 1_555
C29 C28 1_555 1_555
C30 C29 1_555 1_555
H39 C30 1_555 1_555
C31 C26 1_555 1_555
H40 C31 1_555 1_555
C32 C23 1_555 1_555
H41 C32 1_555 1_555
H42 C32 1_555 1_555
H43 C32 1_555 1_555
C33 C23 1_555 1_555
H44 C33 1_555 1_555
H45 C33 1_555 1_555
H46 C33 1_555 1_555
O6 H50 1_555 1_555
C35 H51 1_555 1_555
H52 C35 1_555 1_555
H53 C35 1_555 1_555
C36 O6 1_555 1_555
H54 C36 1_555 1_555
H55 C36 1_555 1_555
O7 H56 1_555 1_555
C37 H57 1_555 1_555
H58 C37 1_555 1_555
H59 C37 1_555 1_555
C38 O7 1_555 1_555
H60 C38 1_555 1_555
H61 C38 1_555 1_555
C4 C5 1_555 1_555
C8 C9 1_555 1_555
C10 C11 1_555 1_555
C13 C14 1_555 1_555
C23 C24 1_555 1_555
C30 C31 1_555 1_555
C35 C36 1_555 1_555
C37 C38 1_555 1_555

#END
