
#######################################################################
#
#                 Cambridge Crystallographic Data Centre
#                                CCDC 
#
#######################################################################
#
# If this CIF has been generated from an entry in the Cambridge 
# Structural Database, then it will include bibliographic, chemical, 
# crystal, experimental, refinement or atomic coordinate data resulting 
# from the CCDC's data processing and validation procedures.
#
#######################################################################

data_HILHUH
_chemical_formula_moiety         'C15 H16 N2 O1,H2 O1'
_chemical_name_systematic        
'9-ethyl-7-methoxy-1-methyl-9H-\b-carboline monohydrate'
_symmetry_cell_setting           tetragonal
_symmetry_space_group_name_H-M   'I 41/a'
_symmetry_Int_Tables_number      88
_space_group_name_Hall           '-I 4ad'
loop_
_symmetry_equiv_pos_site_id
_symmetry_equiv_pos_as_xyz
1 x,y,z
2 1/2-x,-y,1/2+z
3 3/4-y,1/4+x,1/4+z
4 3/4+y,3/4-x,3/4+z
5 1/2+x,1/2+y,1/2+z
6 -x,1/2-y,z
7 1/4-y,3/4+x,3/4+z
8 1/4+y,1/4-x,1/4+z
9 -x,-y,-z
10 1/2+x,y,1/2-z
11 1/4+y,3/4-x,3/4-z
12 1/4-y,1/4+x,1/4-z
13 1/2-x,1/2-y,1/2-z
14 x,1/2+y,-z
15 3/4+y,1/4-x,1/4-z
16 3/4-y,3/4+x,3/4-z
_cell_length_a                   14.6620(13)
_cell_length_b                   14.6620(13)
_cell_length_c                   26.049(2)
_cell_angle_alpha                90
_cell_angle_beta                 90
_cell_angle_gamma                90
_cell_volume                     5599.86
_exptl_crystal_colour            colorless
_exptl_crystal_description       block
_cell_formula_units_Z            16
loop_
_atom_site_label
_atom_site_type_symbol
_atom_site_fract_x
_atom_site_fract_y
_atom_site_fract_z
N1 N 0.87587(17) 0.71522(16) 0.12279(9)
N2 N 0.88493(17) 0.83387(18) -0.00312(9)
O1 O 0.87884(17) 0.77970(16) 0.30776(8)
C1 C 0.87803(19) 0.7656(2) 0.16779(11)
C2 C 0.8754(2) 0.7346(2) 0.21837(11)
H1 H 0.8708 0.6728 0.2260
C3 C 0.8801(2) 0.7992(2) 0.25633(11)
C4 C 0.8867(2) 0.8928(2) 0.24537(12)
H2 H 0.8895 0.9348 0.2721
C5 C 0.8889(2) 0.9225(2) 0.19567(11)
H3 H 0.8933 0.9845 0.1884
C6 C 0.8843(2) 0.85865(19) 0.15595(11)
C7 C 0.88573(19) 0.86581(19) 0.10104(11)
C8 C 0.8932(2) 0.9386(2) 0.06741(11)
H4 H 0.8980 0.9983 0.0792
C9 C 0.8931(2) 0.9188(2) 0.01609(12)
H5 H 0.8990 0.9669 -0.0069
C10 C 0.8772(2) 0.7621(2) 0.02834(11)
C11 C 0.87946(19) 0.77586(19) 0.08149(11)
C12 C 0.8777(2) 0.6150(2) 0.12243(13)
H6 H 0.9133 0.5937 0.1514
H7 H 0.9074 0.5942 0.0913
C13 C 0.7852(3) 0.5748(3) 0.12518(17)
H8 H 0.7547 0.5966 0.1554
H9 H 0.7898 0.5096 0.1266
H10 H 0.7510 0.5923 0.0953
C14 C 0.8710(3) 0.6866(3) 0.32249(13)
H11 H 0.8164 0.6612 0.3080
H12 H 0.8683 0.6824 0.3592
H13 H 0.9230 0.6533 0.3102
C15 C 0.8658(3) 0.6715(2) 0.00207(13)
H14 H 0.8590 0.6809 -0.0342
H15 H 0.8125 0.6415 0.0152
H16 H 0.9185 0.6344 0.0084
O2 O 0.90015(17) 0.83735(18) 0.88869(9)
H17 H 0.8952 0.8363 0.9212
H18 H 0.9561 0.8407 0.8804
loop_
_geom_bond_atom_site_label_1
_geom_bond_atom_site_label_2
_geom_bond_site_symmetry_1
_geom_bond_site_symmetry_2
N1 C1 1_555 1_555
N2 C9 1_555 1_555
O1 C3 1_555 1_555
C1 C2 1_555 1_555
C2 H1 1_555 1_555
C3 C2 1_555 1_555
C4 C3 1_555 1_555
H2 C4 1_555 1_555
C5 C4 1_555 1_555
H3 C5 1_555 1_555
C6 C1 1_555 1_555
C7 C6 1_555 1_555
C8 C7 1_555 1_555
H4 C8 1_555 1_555
C9 C8 1_555 1_555
H5 C9 1_555 1_555
C10 N2 1_555 1_555
C11 N1 1_555 1_555
C12 N1 1_555 1_555
H6 C12 1_555 1_555
H7 C12 1_555 1_555
C13 C12 1_555 1_555
H8 C13 1_555 1_555
H9 C13 1_555 1_555
H10 C13 1_555 1_555
C14 O1 1_555 1_555
H11 C14 1_555 1_555
H12 C14 1_555 1_555
H13 C14 1_555 1_555
C15 C10 1_555 1_555
H14 C15 1_555 1_555
H15 C15 1_555 1_555
H16 C15 1_555 1_555
O2 H17 1_555 1_555
H18 O2 1_555 1_555
C5 C6 1_555 1_555
C7 C11 1_555 1_555
C10 C11 1_555 1_555

#END
