
#######################################################################
#
#                 Cambridge Crystallographic Data Centre
#                                CCDC 
#
#######################################################################
#
# If this CIF has been generated from an entry in the Cambridge 
# Structural Database, then it will include bibliographic, chemical, 
# crystal, experimental, refinement or atomic coordinate data resulting 
# from the CCDC's data processing and validation procedures.
#
#######################################################################

data_HILJAP
_chemical_formula_moiety         'C10 H8 N2,2(C2 H3 Cl1 O2)'
_chemical_name_systematic        "bis(chloroacetic acid) 4,4'-bipyridine"
_symmetry_cell_setting           monoclinic
_symmetry_space_group_name_H-M   'P 21/c'
_symmetry_Int_Tables_number      14
_space_group_name_Hall           '-P 2ybc'
loop_
_symmetry_equiv_pos_site_id
_symmetry_equiv_pos_as_xyz
1 x,y,z
2 -x,1/2+y,1/2-z
3 -x,-y,-z
4 x,1/2-y,1/2+z
_cell_length_a                   9.339(5)
_cell_length_b                   4.237(2)
_cell_length_c                   20.017(10)
_cell_angle_alpha                90
_cell_angle_beta                 90.326(8)
_cell_angle_gamma                90
_cell_volume                     792.047
_exptl_crystal_colour            colorless
_exptl_crystal_description       block
_cell_formula_units_Z            2
loop_
_atom_site_label
_atom_site_type_symbol
_atom_site_fract_x
_atom_site_fract_y
_atom_site_fract_z
N1 N 0.2214(3) 0.3822(7) 0.41174(13)
C1 C 0.3549(4) 0.3856(9) 0.38986(15)
H1 H 0.3742 0.4911 0.3502
C2 C 0.4660(3) 0.2415(8) 0.42282(14)
H2 H 0.5582 0.2528 0.4057
C3 C 0.4412(3) 0.0792(6) 0.48156(12)
C4 C 0.3015(3) 0.0772(9) 0.50414(17)
H3 H 0.2788 -0.0260 0.5437
C5 C 0.1966(3) 0.2274(10) 0.46813(18)
H4 H 0.1033 0.2206 0.4840
N1B N 0.7786(3) -0.3822(7) 0.58826(13)
C1B C 0.6451(4) -0.3856(9) 0.61014(15)
H1B H 0.6258 -0.4911 0.6498
C2B C 0.5340(3) -0.2415(8) 0.57718(14)
H2B H 0.4418 -0.2528 0.5943
C3B C 0.5588(3) -0.0792(6) 0.51844(12)
C4B C 0.6985(3) -0.0772(9) 0.49586(17)
H3B H 0.7212 0.0260 0.4563
C5B C 0.8034(3) -0.2274(10) 0.53187(18)
H4B H 0.8967 -0.2206 0.5160
O1 O 0.1375(3) -0.1406(7) 0.12009(12)
O2 O -0.0347(2) 0.1512(7) 0.16493(14)
Cl1 Cl 0.35143(8) -0.0101(2) 0.22660(5)
C6 C 0.1816(3) 0.1657(8) 0.21829(17)
H5 H 0.1288 0.1327 0.2593
H6 H 0.1939 0.3914 0.2125
C7 C 0.0948(3) 0.0404(6) 0.16089(14)
H7 H -0.081(5) 0.093(11) 0.135(2)
loop_
_geom_bond_atom_site_label_1
_geom_bond_atom_site_label_2
_geom_bond_site_symmetry_1
_geom_bond_site_symmetry_2
N1 C1 1_555 1_555
C1 H1 1_555 1_555
C2 C1 1_555 1_555
H2 C2 1_555 1_555
C3 C2 1_555 1_555
C4 C3 1_555 1_555
H3 C4 1_555 1_555
C5 N1 1_555 1_555
H4 C5 1_555 1_555
O1 C7 1_555 1_555
O2 C7 1_555 1_555
Cl1 C6 1_555 1_555
C6 H5 1_555 1_555
H6 C6 1_555 1_555
C7 C6 1_555 1_555
H7 O2 1_555 1_555
N1B C1B 1_555 1_555
C1B H1B 1_555 1_555
C2B C1B 1_555 1_555
H2B C2B 1_555 1_555
C3B C3 1_555 1_555
C4B C3B 1_555 1_555
H3B C4B 1_555 1_555
C5B N1B 1_555 1_555
H4B C5B 1_555 1_555
C4 C5 1_555 1_555
C2B C3B 1_555 1_555
C4B C5B 1_555 1_555

#END
