
#######################################################################
#
#                 Cambridge Crystallographic Data Centre
#                                CCDC 
#
#######################################################################
#
# If this CIF has been generated from an entry in the Cambridge 
# Structural Database, then it will include bibliographic, chemical, 
# crystal, experimental, refinement or atomic coordinate data resulting 
# from the CCDC's data processing and validation procedures.
#
#######################################################################

data_HILKOD
_chemical_formula_moiety         'C21 H17 Cl1 N2 O3'
_chemical_name_systematic        
N'-((1E)-(5-chloro-2-hydroxyphenyl)(phenyl)methylene)-4-methoxybenzohydrazide
_symmetry_cell_setting           monoclinic
_symmetry_space_group_name_H-M   'P 21/n'
_symmetry_Int_Tables_number      14
_space_group_name_Hall           '-P 2yn'
loop_
_symmetry_equiv_pos_site_id
_symmetry_equiv_pos_as_xyz
1 x,y,z
2 1/2-x,1/2+y,1/2-z
3 -x,-y,-z
4 1/2+x,1/2-y,1/2+z
_cell_length_a                   9.2861(19)
_cell_length_b                   13.026(3)
_cell_length_c                   15.722(3)
_cell_angle_alpha                90
_cell_angle_beta                 102.089(8)
_cell_angle_gamma                90
_cell_volume                     1859.57
_exptl_crystal_colour            yellow
_exptl_crystal_description       plate
_cell_formula_units_Z            4
loop_
_atom_site_label
_atom_site_type_symbol
_atom_site_fract_x
_atom_site_fract_y
_atom_site_fract_z
Cl1 Cl 0.13352(7) 0.88139(5) 0.18144(5)
O1 O 0.6354(2) 0.60874(13) 0.30330(11)
H1 H 0.6975 0.6134 0.2733
O2 O 0.99011(18) 0.55710(13) 0.21902(10)
O3 O 1.35103(16) 0.55585(13) -0.08113(10)
N1 N 0.74992(19) 0.67796(14) 0.17801(11)
N2 N 0.85754(19) 0.67454(14) 0.13064(12)
H2 H 0.8526 0.7146 0.0866
C1 C 0.2845(2) 0.80152(17) 0.21698(15)
C2 C 0.3986(2) 0.80150(16) 0.17394(14)
H3 H 0.3948 0.8449 0.1266
C3 C 0.5204(2) 0.73755(15) 0.19997(13)
C4 C 0.5222(3) 0.67327(16) 0.27222(14)
C5 C 0.4053(3) 0.67538(19) 0.31437(15)
H4 H 0.4074 0.6327 0.3620
C6 C 0.2874(3) 0.7384(2) 0.28777(15)
H5 H 0.2100 0.7388 0.3169
C7 C 0.6397(2) 0.73889(16) 0.15167(13)
C8 C 0.6309(2) 0.80770(15) 0.07446(13)
C9 C 0.7175(2) 0.89464(16) 0.07990(14)
H6 H 0.7789 0.9121 0.1325
C10 C 0.7133(3) 0.95584(18) 0.00764(15)
H7 H 0.7722 1.0141 0.0119
C11 C 0.6227(3) 0.93109(18) -0.07028(15)
H8 H 0.6207 0.9719 -0.1190
C12 C 0.5354(3) 0.8458(2) -0.07564(15)
H9 H 0.4728 0.8294 -0.1282
C13 C 0.5392(2) 0.78388(18) -0.00424(13)
H10 H 0.4798 0.7258 -0.0090
C14 C 0.9726(2) 0.60810(16) 0.15275(13)
C15 C 1.0706(2) 0.60199(15) 0.08952(13)
C16 C 1.1987(2) 0.54446(18) 0.11171(15)
H11 H 1.2230 0.5141 0.1664
C17 C 1.2902(2) 0.53153(19) 0.05433(15)
H12 H 1.3764 0.4936 0.0707
C18 C 1.2549(2) 0.57464(17) -0.02765(13)
C19 C 1.1298(2) 0.63223(18) -0.05077(14)
H13 H 1.1059 0.6625 -0.1055
C20 C 1.0394(3) 0.64517(19) 0.00765(15)
H14 H 0.9544 0.6844 -0.0087
C21 C 1.3176(3) 0.5988(2) -0.16640(15)
H15 H 1.2245 0.5729 -0.1973
H16 H 1.3931 0.5803 -0.1969
H17 H 1.3126 0.6722 -0.1624
loop_
_geom_bond_atom_site_label_1
_geom_bond_atom_site_label_2
_geom_bond_site_symmetry_1
_geom_bond_site_symmetry_2
Cl1 C1 1_555 1_555
O1 H1 1_555 1_555
O2 C14 1_555 1_555
O3 C18 1_555 1_555
N1 N2 1_555 1_555
N2 H2 1_555 1_555
C1 C2 1_555 1_555
C2 H3 1_555 1_555
C3 C2 1_555 1_555
C4 O1 1_555 1_555
C5 C4 1_555 1_555
H4 C5 1_555 1_555
C6 C1 1_555 1_555
H5 C6 1_555 1_555
C7 N1 1_555 1_555
C8 C7 1_555 1_555
C9 C8 1_555 1_555
H6 C9 1_555 1_555
C10 C9 1_555 1_555
H7 C10 1_555 1_555
C11 C10 1_555 1_555
H8 C11 1_555 1_555
C12 C11 1_555 1_555
H9 C12 1_555 1_555
C13 C8 1_555 1_555
H10 C13 1_555 1_555
C14 N2 1_555 1_555
C15 C14 1_555 1_555
C16 C15 1_555 1_555
H11 C16 1_555 1_555
C17 C16 1_555 1_555
H12 C17 1_555 1_555
C18 C17 1_555 1_555
C19 C18 1_555 1_555
H13 C19 1_555 1_555
C20 C15 1_555 1_555
H14 C20 1_555 1_555
C21 O3 1_555 1_555
H15 C21 1_555 1_555
H16 C21 1_555 1_555
H17 C21 1_555 1_555
C3 C4 1_555 1_555
C3 C7 1_555 1_555
C5 C6 1_555 1_555
C12 C13 1_555 1_555
C19 C20 1_555 1_555

#END
