
#######################################################################
#
#                 Cambridge Crystallographic Data Centre
#                                CCDC 
#
#######################################################################
#
# If this CIF has been generated from an entry in the Cambridge 
# Structural Database, then it will include bibliographic, chemical, 
# crystal, experimental, refinement or atomic coordinate data resulting 
# from the CCDC's data processing and validation procedures.
#
#######################################################################

data_HILNOI
_chemical_formula_moiety         'C18 H16 O5'
_chemical_name_systematic        
3-(benzenecarbonyl)-6,7-dimethoxy-3,4-dihydro-1H-2-benzopyran-1-one
_symmetry_cell_setting           triclinic
_symmetry_space_group_name_H-M   'P -1'
_symmetry_Int_Tables_number      2
_space_group_name_Hall           '-P 1'
loop_
_symmetry_equiv_pos_site_id
_symmetry_equiv_pos_as_xyz
1 x,y,z
2 -x,-y,-z
_cell_length_a                   7.5282(6)
_cell_length_b                   8.2601(7)
_cell_length_c                   13.8286(12)
_cell_angle_alpha                93.465(4)
_cell_angle_beta                 104.206(3)
_cell_angle_gamma                116.505(3)
_cell_volume                     731.544
_exptl_crystal_colour            colorless
_cell_formula_units_Z            2
loop_
_atom_site_label
_atom_site_type_symbol
_atom_site_fract_x
_atom_site_fract_y
_atom_site_fract_z
O1 O -0.13240(15) 0.21053(13) 0.79138(7)
O2 O 0.45892(16) 0.48301(13) 1.22395(7)
O3 O -0.10611(19) 0.47517(15) 0.62210(8)
O4 O -0.19395(15) 0.06650(13) 0.91741(7)
O5 O 0.62397(15) 0.79257(13) 1.16868(7)
C1 C -0.3374(2) -0.1453(2) 0.42035(11)
H1 H -0.3952 -0.2533 0.3698
C2 C -0.3565(2) 0.0069(2) 0.39492(11)
H2 H -0.4270 0.0030 0.3269
C3 C -0.2736(2) 0.1648(2) 0.46790(11)
H3 H -0.2859 0.2693 0.4498
C4 C -0.1720(2) 0.1704(2) 0.56806(10)
C5 C -0.0897(2) 0.3413(2) 0.64425(10)
C6 C 0.0243(2) 0.34883(19) 0.75414(10)
H4 H 0.1351 0.3133 0.7540
C7 C -0.0783(2) 0.20059(19) 0.89101(10)
C8 C 0.1139(2) 0.35672(18) 0.96000(10)
C9 C 0.1917(2) 0.33695(18) 1.05916(10)
H5 H 0.1258 0.2225 1.0796
C10 C 0.3641(2) 0.48431(19) 1.12660(10)
C11 C 0.3625(2) 0.3191(2) 1.26235(11)
H6 H 0.2228 0.2958 1.2621
H7 H 0.4468 0.3345 1.3320
H8 H 0.3517 0.2144 1.2192
C12 C 0.4581(2) 0.65504(18) 1.09596(10)
C13 C 0.7090(2) 0.97274(19) 1.14491(11)
H9 H 0.7633 0.9714 1.0875
H10 H 0.8223 1.0610 1.2042
H11 H 0.5998 1.0093 1.1268
C14 C 0.3818(2) 0.67187(18) 0.99761(10)
H12 H 0.4475 0.7862 0.9770
C15 C 0.2092(2) 0.52242(19) 0.92854(10)
C16 C 0.1223(2) 0.53596(19) 0.82111(10)
H13 H 0.2352 0.6267 0.7980
H14 H 0.0167 0.5777 0.8174
C17 C -0.1522(2) 0.0168(2) 0.59291(11)
H15 H -0.0819 0.0202 0.6608
C18 C -0.2341(2) -0.1408(2) 0.51933(12)
H16 H -0.2196 -0.2448 0.5366
loop_
_geom_bond_atom_site_label_1
_geom_bond_atom_site_label_2
_geom_bond_site_symmetry_1
_geom_bond_site_symmetry_2
O1 C6 1_555 1_555
O2 C10 1_555 1_555
O3 C5 1_555 1_555
O4 C7 1_555 1_555
O5 C12 1_555 1_555
C1 H1 1_555 1_555
C2 C1 1_555 1_555
H2 C2 1_555 1_555
C3 C2 1_555 1_555
H3 C3 1_555 1_555
C4 C3 1_555 1_555
C5 C4 1_555 1_555
C6 C5 1_555 1_555
H4 C6 1_555 1_555
C7 O1 1_555 1_555
C8 C7 1_555 1_555
C9 C8 1_555 1_555
H5 C9 1_555 1_555
C10 C9 1_555 1_555
C11 O2 1_555 1_555
H6 C11 1_555 1_555
H7 C11 1_555 1_555
H8 C11 1_555 1_555
C12 C10 1_555 1_555
C13 O5 1_555 1_555
H9 C13 1_555 1_555
H10 C13 1_555 1_555
H11 C13 1_555 1_555
C14 C12 1_555 1_555
H12 C14 1_555 1_555
C15 C8 1_555 1_555
C16 C6 1_555 1_555
H13 C16 1_555 1_555
H14 C16 1_555 1_555
C17 C4 1_555 1_555
H15 C17 1_555 1_555
C18 C1 1_555 1_555
H16 C18 1_555 1_555
C14 C15 1_555 1_555
C15 C16 1_555 1_555
C17 C18 1_555 1_555

#END
