
#######################################################################
#
#                 Cambridge Crystallographic Data Centre
#                                CCDC 
#
#######################################################################
#
# If this CIF has been generated from an entry in the Cambridge 
# Structural Database, then it will include bibliographic, chemical, 
# crystal, experimental, refinement or atomic coordinate data resulting 
# from the CCDC's data processing and validation procedures.
#
#######################################################################

data_HILQUP
_chemical_formula_moiety         'C9 H8 N2 S5'
_chemical_name_systematic        
4,5-bis(2-Cyanoethylsulfanyl)-1,2-dithiole-3-thione
_symmetry_cell_setting           triclinic
_symmetry_space_group_name_H-M   'P -1'
_symmetry_Int_Tables_number      2
_space_group_name_Hall           '-P 1'
loop_
_symmetry_equiv_pos_site_id
_symmetry_equiv_pos_as_xyz
1 x,y,z
2 -x,-y,-z
_cell_length_a                   8.0216(4)
_cell_length_b                   8.9771(3)
_cell_length_c                   9.4799(5)
_cell_angle_alpha                91.251(3)
_cell_angle_beta                 112.426(2)
_cell_angle_gamma                92.418(2)
_cell_volume                     629.933
_exptl_crystal_colour            orange
_exptl_crystal_description       Platelet
_chemical_melting_point          '438-440 K'
_cell_formula_units_Z            2
loop_
_atom_site_label
_atom_site_type_symbol
_atom_site_fract_x
_atom_site_fract_y
_atom_site_fract_z
S1 S 0.78564(4) 0.08290(4) 0.87088(4)
S2 S 0.46153(4) 0.27359(4) 0.42090(4)
S3 S 0.71016(4) 0.23908(4) 0.59050(4)
S4 S 0.11016(4) 0.14093(4) 0.42447(4)
S5 S 0.32847(4) 0.01628(4) 0.74868(4)
C1 C 0.63223(17) 0.13923(14) 0.70953(15)
C2 C 0.34299(16) 0.17310(14) 0.50870(15)
C3 C 0.43995(16) 0.11596(14) 0.64918(14)
C4 C 0.04858(18) 0.23962(16) 0.24812(15)
H1 H 0.132(3) 0.221(2) 0.206(2)
H2 H -0.060(3) 0.193(2) 0.187(3)
C5 C 0.02689(19) 0.40643(16) 0.26544(18)
H3 H 0.137(3) 0.454(2) 0.342(3)
H4 H 0.002(3) 0.452(2) 0.170(3)
C6 C -0.12281(19) 0.43476(16) 0.31424(17)
C7 C 0.24831(17) 0.17041(16) 0.82867(16)
H5 H 0.189(3) 0.240(2) 0.749(2)
H6 H 0.159(3) 0.127(2) 0.863(3)
C8 C 0.40294(19) 0.25499(18) 0.95806(19)
H7 H 0.488(3) 0.300(2) 0.924(3)
H8 H 0.460(3) 0.189(3) 1.034(3)
C9 C 0.33548(19) 0.37807(17) 1.02277(17)
N1 N -0.23980(19) 0.45526(17) 0.35162(18)
N2 N 0.27916(19) 0.47209(17) 1.07180(17)
loop_
_geom_bond_atom_site_label_1
_geom_bond_atom_site_label_2
_geom_bond_site_symmetry_1
_geom_bond_site_symmetry_2
S1 C1 1_555 1_555
S2 S3 1_555 1_555
S3 C1 1_555 1_555
S4 C2 1_555 1_555
S5 C3 1_555 1_555
C1 C3 1_555 1_555
C2 S2 1_555 1_555
C3 C2 1_555 1_555
C4 S4 1_555 1_555
H1 C4 1_555 1_555
H2 C4 1_555 1_555
C5 C4 1_555 1_555
H3 C5 1_555 1_555
H4 C5 1_555 1_555
C6 C5 1_555 1_555
C7 S5 1_555 1_555
H5 C7 1_555 1_555
H6 C7 1_555 1_555
C8 C7 1_555 1_555
H7 C8 1_555 1_555
H8 C8 1_555 1_555
C9 C8 1_555 1_555
N1 C6 1_555 1_555
N2 C9 1_555 1_555

#END
