
#######################################################################
#
#                 Cambridge Crystallographic Data Centre
#                                CCDC 
#
#######################################################################
#
# If this CIF has been generated from an entry in the Cambridge 
# Structural Database, then it will include bibliographic, chemical, 
# crystal, experimental, refinement or atomic coordinate data resulting 
# from the CCDC's data processing and validation procedures.
#
#######################################################################

data_HILQID
_chemical_formula_moiety         'C19 H15 F1 N2 O3'
_chemical_name_systematic        
'(Z)-ethyl 3-(benzamido)-2-cyano-3-(4-fluorophenyl)acrylate'
_chemical_properties_biological  
'inhibitor of Pyricularia oryzae, Rhizoctonia solani, Botrytis cinerea and Gibberella zeae'
_symmetry_cell_setting           orthorhombic
_symmetry_space_group_name_H-M   'P 21 21 21'
_symmetry_Int_Tables_number      19
_space_group_name_Hall           'P 2ac 2ab'
loop_
_symmetry_equiv_pos_site_id
_symmetry_equiv_pos_as_xyz
1 x,y,z
2 1/2-x,-y,1/2+z
3 -x,1/2+y,1/2-z
4 1/2+x,1/2-y,-z
_cell_length_a                   6.2149(5)
_cell_length_b                   14.1380(10)
_cell_length_c                   19.0500(10)
_cell_angle_alpha                90
_cell_angle_beta                 90
_cell_angle_gamma                90
_cell_volume                     1673.85
_exptl_crystal_colour            colorless
_exptl_crystal_description       needle
_cell_formula_units_Z            4
_exptl_crystal_recrystallization_method 'ethyl acetate/light petroleum'
loop_
_atom_site_label
_atom_site_type_symbol
_atom_site_fract_x
_atom_site_fract_y
_atom_site_fract_z
C1 C 0.5735(7) 0.8275(3) 0.24083(18)
C2 C 0.7450(7) 0.8137(2) 0.19792(18)
H1 H 0.8569 0.8574 0.1961
C3 C 0.7488(6) 0.7328(2) 0.15683(17)
H2 H 0.8650 0.7216 0.1272
C4 C 0.5810(5) 0.6683(2) 0.15954(14)
C5 C 0.4083(6) 0.6857(3) 0.20415(17)
H3 H 0.2945 0.6431 0.2062
C6 C 0.4053(7) 0.7653(3) 0.24518(19)
H4 H 0.2909 0.7768 0.2755
C7 C 0.5925(6) 0.5794(2) 0.11847(15)
C8 C 0.2774(6) 0.6138(3) 0.04035(17)
C9 C 0.1542(6) 0.5683(3) -0.01794(16)
C10 C 0.2301(8) 0.4928(3) -0.05696(19)
H5 H 0.3628 0.4659 -0.0464
C11 C 0.1081(9) 0.4574(3) -0.1117(2)
H6 H 0.1609 0.4077 -0.1387
C12 C -0.0893(9) 0.4948(4) -0.1265(2)
H7 H -0.1738 0.4691 -0.1620
C13 C -0.1612(8) 0.5702(4) -0.0887(2)
H8 H -0.2938 0.5969 -0.0997
C14 C -0.0433(6) 0.6077(3) -0.03491(19)
H9 H -0.0952 0.6594 -0.0099
C15 C 0.7524(6) 0.5153(2) 0.13150(15)
C16 C 0.8881(6) 0.5289(2) 0.19117(18)
C17 C 0.7806(7) 0.4278(3) 0.09120(18)
C18 C 0.976(2) 0.2890(7) 0.0723(5)
H10 H 1.0026 0.3004 0.0228
H11 H 0.8489 0.2499 0.0770
C19 C 1.1684(18) 0.2416(9) 0.1059(6)
H12 H 1.2945 0.2795 0.0984
H13 H 1.1893 0.1803 0.0853
H14 H 1.1435 0.2348 0.1554
F1 F 0.5689(5) 0.90628(18) 0.28136(12)
N1 N 0.4415(5) 0.5588(2) 0.06813(15)
H20 H 0.471(6) 0.503(3) 0.0484(19)
N2 N 0.9903(6) 0.5370(2) 0.24060(17)
O1 O 0.2334(5) 0.69149(19) 0.06227(14)
O2 O 0.6578(5) 0.39995(18) 0.04527(14)
O3 O 0.9497(5) 0.3796(2) 0.11071(14)
C20? C 1.081(6) 0.3096(18) 0.0732(17)
H15? H 1.2306 0.3285 0.0735
H16? H 1.0332 0.3045 0.0248
C21? C 1.053(9) 0.214(2) 0.111(2)
H17? H 1.1194 0.2175 0.1565
H18? H 1.1203 0.1652 0.0839
H19? H 0.9027 0.2005 0.1162
loop_
_geom_bond_atom_site_label_1
_geom_bond_atom_site_label_2
_geom_bond_site_symmetry_1
_geom_bond_site_symmetry_2
C1 C2 1_555 1_555
C2 H1 1_555 1_555
C3 C2 1_555 1_555
H2 C3 1_555 1_555
C4 C3 1_555 1_555
C5 C4 1_555 1_555
H3 C5 1_555 1_555
C6 C1 1_555 1_555
H4 C6 1_555 1_555
C7 C4 1_555 1_555
C8 C9 1_555 1_555
C9 C10 1_555 1_555
C10 H5 1_555 1_555
C11 C10 1_555 1_555
H6 C11 1_555 1_555
C12 C11 1_555 1_555
H7 C12 1_555 1_555
C13 C12 1_555 1_555
H8 C13 1_555 1_555
C14 C9 1_555 1_555
H9 C14 1_555 1_555
C15 C7 1_555 1_555
C16 C15 1_555 1_555
C17 C15 1_555 1_555
C18 H10 1_555 1_555
H11 C18 1_555 1_555
C19 C18 1_555 1_555
H12 C19 1_555 1_555
H13 C19 1_555 1_555
H14 C19 1_555 1_555
F1 C1 1_555 1_555
N1 C7 1_555 1_555
H20 N1 1_555 1_555
N2 C16 1_555 1_555
O1 C8 1_555 1_555
O2 C17 1_555 1_555
O3 C17 1_555 1_555
C5 C6 1_555 1_555
C8 N1 1_555 1_555
C13 C14 1_555 1_555
C18 O3 1_555 1_555

#END
