
#######################################################################
#
#                 Cambridge Crystallographic Data Centre
#                                CCDC 
#
#######################################################################
#
# If this CIF has been generated from an entry in the Cambridge 
# Structural Database, then it will include bibliographic, chemical, 
# crystal, experimental, refinement or atomic coordinate data resulting 
# from the CCDC's data processing and validation procedures.
#
#######################################################################

data_HILRAW
_chemical_formula_moiety         'C12 H12 Cl1 N5 O3 S1'
_chemical_name_systematic        
'4-(2-Chlorobenzylidenehydrazinocarbonyl)-2-methyl-2H-pyrazole-3-sulfonic acid amide'
_symmetry_cell_setting           triclinic
_symmetry_space_group_name_H-M   'P -1'
_symmetry_Int_Tables_number      2
_space_group_name_Hall           '-P 1'
loop_
_symmetry_equiv_pos_site_id
_symmetry_equiv_pos_as_xyz
1 x,y,z
2 -x,-y,-z
_cell_length_a                   8.4272(6)
_cell_length_b                   9.0905(7)
_cell_length_c                   10.4381(7)
_cell_angle_alpha                89.5250(10)
_cell_angle_beta                 66.8520(10)
_cell_angle_gamma                87.7220(10)
_cell_volume                     734.655
_exptl_crystal_colour            colorless
_exptl_crystal_description       block
_cell_formula_units_Z            2
_exptl_crystal_recrystallization_method 'tetrahydrofuran/petroleum ether'
loop_
_atom_site_label
_atom_site_type_symbol
_atom_site_fract_x
_atom_site_fract_y
_atom_site_fract_z
C1 C 1.4090(3) 0.9541(3) -0.1318(3)
H1 H 1.4523 1.0053 -0.2188
H2 H 1.4896 0.8758 -0.1332
H3 H 1.3944 1.0214 -0.0572
C2 C 1.1438(3) 0.8013(2) -0.0105(2)
C3 C 0.9973(3) 0.7766(2) -0.0376(2)
C4 C 1.0236(3) 0.8610(3) -0.1570(2)
H4 H 0.9460 0.8673 -0.2004
C5 C 0.8395(3) 0.6899(2) 0.0232(2)
C6 C 0.6552(3) 0.4574(3) 0.3040(2)
H5 H 0.7386 0.4629 0.3411
C7 C 0.5040(3) 0.3680(3) 0.3721(2)
C8 C 0.4960(4) 0.2636(3) 0.4734(3)
C9 C 0.3514(5) 0.1801(3) 0.5337(3)
H6 H 0.3483 0.1104 0.6003
C10 C 0.2140(5) 0.1986(4) 0.4970(4)
H7 H 0.1185 0.1408 0.5373
C11 C 0.2164(4) 0.3036(4) 0.3995(3)
H8 H 0.1214 0.3182 0.3760
C12 C 0.3606(3) 0.3868(3) 0.3372(3)
H9 H 0.3620 0.4565 0.2710
Cl1 Cl 0.66414(13) 0.23836(9) 0.52817(8)
N1 N 1.2424(2) 0.8929(2) -0.11050(19)
N2 N 1.1702(3) 0.9306(2) -0.2012(2)
N3 N 0.8156(3) 0.6116(2) 0.1381(2)
H10 H 0.894(4) 0.615(3) 0.174(3)
N4 N 0.6715(2) 0.5276(2) 0.1936(2)
N5 N 1.3822(3) 0.6394(3) 0.0437(3)
H11 H 1.371(4) 0.572(4) 0.004(3)
H12 H 1.475(4) 0.675(4) 0.028(3)
O1 O 1.0830(2) 0.6507(2) 0.2113(2)
O2 O 1.2641(2) 0.8658(2) 0.17484(19)
O3 O 0.7372(2) 0.6923(2) -0.03414(19)
S1 S 1.21556(7) 0.74039(6) 0.12003(6)
loop_
_geom_bond_atom_site_label_1
_geom_bond_atom_site_label_2
_geom_bond_site_symmetry_1
_geom_bond_site_symmetry_2
C1 H1 1_555 1_555
H2 C1 1_555 1_555
H3 C1 1_555 1_555
C2 C3 1_555 1_555
C3 C4 1_555 1_555
C4 H4 1_555 1_555
C5 C3 1_555 1_555
C6 H5 1_555 1_555
C7 C6 1_555 1_555
C8 C7 1_555 1_555
C9 C8 1_555 1_555
H6 C9 1_555 1_555
C10 C9 1_555 1_555
H7 C10 1_555 1_555
C11 C10 1_555 1_555
H8 C11 1_555 1_555
C12 C7 1_555 1_555
H9 C12 1_555 1_555
Cl1 C8 1_555 1_555
N1 C1 1_555 1_555
N2 C4 1_555 1_555
N3 C5 1_555 1_555
H10 N3 1_555 1_555
N4 C6 1_555 1_555
N5 H11 1_555 1_555
H12 N5 1_555 1_555
O1 S1 1_555 1_555
O2 S1 1_555 1_555
O3 C5 1_555 1_555
S1 C2 1_555 1_555
C2 N1 1_555 1_555
C11 C12 1_555 1_555
N1 N2 1_555 1_555
N3 N4 1_555 1_555
N5 S1 1_555 1_555

#END
