
#######################################################################
#
#                 Cambridge Crystallographic Data Centre
#                                CCDC 
#
#######################################################################
#
# If this CIF has been generated from an entry in the Cambridge 
# Structural Database, then it will include bibliographic, chemical, 
# crystal, experimental, refinement or atomic coordinate data resulting 
# from the CCDC's data processing and validation procedures.
#
#######################################################################

data_HILRUQ
_chemical_formula_moiety         'C27 H39 N3 O2 S1,0.5(C2 H3 N1)'
_chemical_name_systematic        
'(E)-2,4,6-Triisopropyl-N-(2-(2-pyridylmethyleneamino)cyclohexyl)benzenesulfonamide acetonitrile solvate'
_symmetry_cell_setting           tetragonal
_symmetry_space_group_name_H-M   'I 41/a'
_symmetry_Int_Tables_number      88
_space_group_name_Hall           '-I 4ad'
loop_
_symmetry_equiv_pos_site_id
_symmetry_equiv_pos_as_xyz
1 x,y,z
2 3/4-y,1/4+x,1/4+z
3 1/2+x,1/2+y,1/2+z
4 1/4-y,3/4+x,3/4+z
5 1/4+y,1/4-x,1/4+z
6 1/2-x,-y,1/2+z
7 3/4+y,3/4-x,3/4+z
8 -x,1/2-y,z
9 -x,-y,-z
10 1/4+y,3/4-x,3/4-z
11 1/2-x,1/2-y,1/2-z
12 3/4+y,1/4-x,1/4-z
13 3/4-y,3/4+x,3/4-z
14 1/2+x,y,1/2-z
15 1/4-y,1/4+x,1/4-z
16 x,1/2+y,-z
_cell_length_a                   21.9895(17)
_cell_length_b                   21.9895(17)
_cell_length_c                   24.035(3)
_cell_angle_alpha                90
_cell_angle_beta                 90
_cell_angle_gamma                90
_cell_volume                     11621.8
_exptl_crystal_colour            yellow
_exptl_crystal_description       block
_cell_formula_units_Z            16
loop_
_atom_site_label
_atom_site_type_symbol
_atom_site_fract_x
_atom_site_fract_y
_atom_site_fract_z
S1 S 0.12749(4) 0.60119(4) 0.03742(3)
O1 O 0.14047(12) 0.57455(12) -0.01578(8)
O2 O 0.09863(11) 0.65909(10) 0.03769(10)
C1 C -0.07243(18) 0.68154(17) -0.01539(14)
H1 H -0.0586 0.7005 0.0168
N1 N -0.03673(11) 0.60214(11) 0.07332(10)
N2 N 0.08473(11) 0.55429(11) 0.06978(9)
H2 H 0.0798 0.5186 0.0559
N4 N -0.09302(12) 0.59030(12) -0.06422(11)
C2 C -0.11168(15) 0.62558(18) -0.10696(13)
H3 H -0.1257 0.6064 -0.1390
C3 C -0.11121(16) 0.68721(18) -0.10611(15)
H4 H -0.1242 0.7093 -0.1369
C4 C -0.09163(19) 0.71601(18) -0.05998(16)
H5 H -0.0911 0.7583 -0.0582
C5 C -0.07375(13) 0.61963(14) -0.01864(12)
C6 C -0.05335(13) 0.58042(15) 0.02798(12)
H6 H -0.0530 0.5385 0.0232
C7 C -0.01480(13) 0.56002(14) 0.11595(11)
H7 H -0.0233 0.5181 0.1046
C8 C -0.04702(16) 0.57368(19) 0.17042(14)
H8 H -0.0418 0.6163 0.1795
H9 H -0.0902 0.5660 0.1661
C9 C -0.02260(19) 0.5352(2) 0.21751(14)
H10 H -0.0432 0.5458 0.2518
H11 H -0.0304 0.4926 0.2098
C10 C 0.0446(2) 0.5451(2) 0.22403(13)
H12 H 0.0600 0.5187 0.2531
H13 H 0.0520 0.5869 0.2353
C11 C 0.07834(16) 0.53241(18) 0.17040(13)
H14 H 0.0752 0.4894 0.1618
H15 H 0.1210 0.5420 0.1754
C12 C 0.05348(13) 0.56906(13) 0.12206(11)
H16 H 0.0607 0.6122 0.1300
C13 C 0.19802(13) 0.60672(14) 0.07480(11)
C14 C 0.24248(16) 0.56126(15) 0.06689(13)
C15 C 0.23114(18) 0.50094(16) 0.03670(16)
H17 H 0.1873 0.4977 0.0298
C16 C 0.2634(3) 0.5001(2) -0.0199(2)
H18 H 0.2503 0.5343 -0.0416
H19 H 0.2536 0.4632 -0.0392
H20 H 0.3066 0.5023 -0.0144
C17 C 0.2495(2) 0.44733(19) 0.0724(3)
H21 H 0.2279 0.4488 0.1070
H22 H 0.2925 0.4490 0.0794
H23 H 0.2399 0.4102 0.0533
C18 C 0.29944(17) 0.57050(17) 0.08867(15)
H24 H 0.3291 0.5413 0.0819
C19 C 0.31504(17) 0.62005(19) 0.11959(16)
C20 C 0.3802(2) 0.6297(3) 0.1408(3)
H25 H 0.3949 0.5879 0.1455
C21 C 0.3848(3) 0.6544(3) 0.1970(2)
H26 H 0.4269 0.6584 0.2070
H27 H 0.3649 0.6276 0.2227
H28 H 0.3656 0.6937 0.1982
C22 C 0.4194(3) 0.6531(5) 0.0965(3)
H29 H 0.4599 0.6586 0.1106
H30 H 0.4040 0.6914 0.0836
H31 H 0.4202 0.6247 0.0661
C23 C 0.27044(17) 0.66180(17) 0.13025(14)
H32 H 0.2799 0.6951 0.1525
C24 C 0.21147(15) 0.65686(14) 0.10948(12)
C25 C 0.16786(18) 0.70501(17) 0.13004(16)
H33 H 0.1272 0.6927 0.1178
C26 C 0.1808(2) 0.7662(2) 0.1032(2)
H34 H 0.1788 0.7623 0.0634
H35 H 0.2206 0.7798 0.1138
H36 H 0.1511 0.7953 0.1154
C27 C 0.1664(3) 0.7066(3) 0.1933(2)
H37 H 0.1567 0.6668 0.2073
H38 H 0.1361 0.7350 0.2055
H39 H 0.2055 0.7188 0.2071
N3 N 0.0000 0.7500 0.2299(5)
C28 C 0.0000 0.7500 0.1224(3)
C29 C 0.0000 0.7500 0.1818(6)
loop_
_geom_bond_atom_site_label_1
_geom_bond_atom_site_label_2
_geom_bond_site_symmetry_1
_geom_bond_site_symmetry_2
S1 O1 1_555 1_555
O2 S1 1_555 1_555
C1 H1 1_555 1_555
N1 C6 1_555 1_555
N2 S1 1_555 1_555
H2 N2 1_555 1_555
N3 C29 1_555 1_555
N4 C2 1_555 1_555
C2 H3 1_555 1_555
C3 C2 1_555 1_555
H4 C3 1_555 1_555
C4 C1 1_555 1_555
H5 C4 1_555 1_555
C5 C1 1_555 1_555
C6 C5 1_555 1_555
H6 C6 1_555 1_555
C7 N1 1_555 1_555
H7 C7 1_555 1_555
C8 C7 1_555 1_555
H8 C8 1_555 1_555
H9 C8 1_555 1_555
C9 C8 1_555 1_555
H10 C9 1_555 1_555
H11 C9 1_555 1_555
C10 C9 1_555 1_555
H12 C10 1_555 1_555
H13 C10 1_555 1_555
C11 C10 1_555 1_555
H14 C11 1_555 1_555
H15 C11 1_555 1_555
C12 N2 1_555 1_555
H16 C12 1_555 1_555
C13 S1 1_555 1_555
C14 C13 1_555 1_555
C15 C14 1_555 1_555
H17 C15 1_555 1_555
C16 C15 1_555 1_555
H18 C16 1_555 1_555
H19 C16 1_555 1_555
H20 C16 1_555 1_555
C17 C15 1_555 1_555
H21 C17 1_555 1_555
H22 C17 1_555 1_555
H23 C17 1_555 1_555
C18 C14 1_555 1_555
H24 C18 1_555 1_555
C19 C18 1_555 1_555
C20 C19 1_555 1_555
H25 C20 1_555 1_555
C21 C20 1_555 1_555
H26 C21 1_555 1_555
H27 C21 1_555 1_555
H28 C21 1_555 1_555
C22 C20 1_555 1_555
H29 C22 1_555 1_555
H30 C22 1_555 1_555
H31 C22 1_555 1_555
C23 C19 1_555 1_555
H32 C23 1_555 1_555
C24 C13 1_555 1_555
C25 C24 1_555 1_555
H33 C25 1_555 1_555
C26 C25 1_555 1_555
H34 C26 1_555 1_555
H35 C26 1_555 1_555
H36 C26 1_555 1_555
C27 C25 1_555 1_555
H37 C27 1_555 1_555
H38 C27 1_555 1_555
H39 C27 1_555 1_555
C28 C29 1_555 1_555
N4 C5 1_555 1_555
C3 C4 1_555 1_555
C7 C12 1_555 1_555
C11 C12 1_555 1_555
C23 C24 1_555 1_555

#END
