
#######################################################################
#
#                 Cambridge Crystallographic Data Centre
#                                CCDC 
#
#######################################################################
#
# If this CIF has been generated from an entry in the Cambridge 
# Structural Database, then it will include bibliographic, chemical, 
# crystal, experimental, refinement or atomic coordinate data resulting 
# from the CCDC's data processing and validation procedures.
#
#######################################################################

data_HILREC
_chemical_formula_moiety         'C23 H28 Cl1 N1 O4 S2'
_chemical_name_systematic        
3-(2-chloropropan-2-yl)-4-methyl-1,5-bis[(4-methylphenyl)sulfonyl]-1,2,3,6-tetrahydropyridine
_symmetry_cell_setting           monoclinic
_symmetry_space_group_name_H-M   'C 2/c'
_symmetry_Int_Tables_number      15
_space_group_name_Hall           '-C 2yn'
loop_
_symmetry_equiv_pos_site_id
_symmetry_equiv_pos_as_xyz
1 x,y,z
2 -x,y,1/2-z
3 1/2+x,1/2+y,z
4 1/2-x,1/2+y,1/2-z
5 -x,-y,-z
6 x,-y,1/2+z
7 1/2-x,1/2-y,-z
8 1/2+x,1/2-y,1/2+z
_cell_length_a                   34.813(3)
_cell_length_b                   7.4281(6)
_cell_length_c                   25.248(4)
_cell_angle_alpha                90
_cell_angle_beta                 131.451(2)
_cell_angle_gamma                90
_cell_volume                     4893.62
_exptl_crystal_colour            white
_exptl_crystal_description       block
_cell_formula_units_Z            8
loop_
_atom_site_label
_atom_site_type_symbol
_atom_site_fract_x
_atom_site_fract_y
_atom_site_fract_z
C1 C 0.16804(11) 0.6585(4) 0.43396(16)
C2 C 0.21689(15) 0.4533(4) 0.64408(19)
C3 C 0.14209(13) 0.5382(4) 0.30775(17)
C4 C 0.17438(14) 0.5220(4) 0.48328(18)
H1 H 0.1599 0.4079 0.4589
H2 H 0.2106 0.5038 0.5233
C5 C 0.15447(13) 0.7773(4) 0.52359(17)
H3 H 0.1905 0.8090 0.5571
H4 H 0.1397 0.8083 0.5441
C6 C 0.12726(13) 0.8806(5) 0.45473(18)
H5 H 0.1371 1.0071 0.4679
C7 C 0.10378(14) 0.4235(5) 0.28906(19)
H6 H 0.1042 0.3754 0.3234
C8 C 0.14788(13) 0.8214(4) 0.41995(17)
C9 C 0.14111(16) 0.6088(5) 0.2565(2)
H7 H 0.1667 0.6876 0.2691
C10 C 0.25445(16) 0.3545(5) 0.6527(2)
H8 H 0.2461 0.2839 0.6159
C11 C 0.22994(18) 0.5555(5) 0.6998(2)
H9 H 0.2051 0.6230 0.6945
C12 C 0.30412(18) 0.3613(5) 0.7159(2)
H10 H 0.3292 0.2967 0.7208
C13 C 0.10239(18) 0.5632(6) 0.1870(2)
H11 H 0.1025 0.6101 0.1530
C14 C 0.31817(17) 0.4613(5) 0.7729(2)
C15 C 0.06364(16) 0.4504(6) 0.1666(2)
C16 C 0.2793(2) 0.5570(5) 0.7625(3)
H12 H 0.2873 0.6245 0.7997
C17 C 0.1461(2) 0.9572(6) 0.3741(3)
H13 H 0.1687 1.0553 0.4028
H14 H 0.1117 1.0018 0.3390
H15 H 0.1566 0.9011 0.3512
C18 C 0.06804(15) 0.8753(6) 0.4039(2)
C19 C 0.04859(17) 0.8940(8) 0.4447(3)
H16 H 0.0122 0.9126 0.4115
H17 H 0.0652 0.9948 0.4764
H18 H 0.0565 0.7862 0.4713
C20 C 0.06487(16) 0.3808(6) 0.2188(2)
H19 H 0.0389 0.3038 0.2061
C21 C 0.0207(2) 0.3970(9) 0.0897(2)
H20 H 0.0269 0.4497 0.0611
H21 H -0.0114 0.4392 0.0739
H22 H 0.0198 0.2682 0.0855
C22 C 0.04396(16) 0.7092(9) 0.3556(3)
H23 H 0.0545 0.7032 0.3289
H24 H 0.0073 0.7180 0.3239
H25 H 0.0550 0.6025 0.3839
C23 C 0.3721(2) 0.4619(7) 0.8419(3)
H26 H 0.3803 0.3456 0.8637
H27 H 0.3756 0.5514 0.8724
H28 H 0.3950 0.4890 0.8342
Cl1 Cl 0.04464(7) 1.0792(3) 0.34805(9)
N1 N 0.14868(11) 0.5832(4) 0.50850(15)
O1 O 0.12104(12) 0.5233(5) 0.57464(17)
O2 O 0.14291(13) 0.2712(4) 0.53489(17)
O3 O 0.22563(10) 0.7144(4) 0.40159(15)
O4 O 0.21814(11) 0.4083(4) 0.43075(14)
S1 S 0.19486(3) 0.57872(13) 0.39792(5)
S2 S 0.15308(4) 0.44753(13) 0.56328(5)
loop_
_geom_bond_atom_site_label_1
_geom_bond_atom_site_label_2
_geom_bond_site_symmetry_1
_geom_bond_site_symmetry_2
C1 C4 1_555 1_555
C2 C10 1_555 1_555
C3 C7 1_555 1_555
C4 H1 1_555 1_555
H2 C4 1_555 1_555
C5 H3 1_555 1_555
H4 C5 1_555 1_555
C6 C5 1_555 1_555
H5 C6 1_555 1_555
C7 H6 1_555 1_555
C8 C1 1_555 1_555
C9 C3 1_555 1_555
H7 C9 1_555 1_555
C10 H8 1_555 1_555
C11 C2 1_555 1_555
H9 C11 1_555 1_555
C12 C10 1_555 1_555
H10 C12 1_555 1_555
C13 C9 1_555 1_555
H11 C13 1_555 1_555
C14 C12 1_555 1_555
C15 C13 1_555 1_555
C16 C11 1_555 1_555
H12 C16 1_555 1_555
C17 C8 1_555 1_555
H13 C17 1_555 1_555
H14 C17 1_555 1_555
H15 C17 1_555 1_555
C18 C6 1_555 1_555
C19 C18 1_555 1_555
H16 C19 1_555 1_555
H17 C19 1_555 1_555
H18 C19 1_555 1_555
C20 C7 1_555 1_555
H19 C20 1_555 1_555
C21 C15 1_555 1_555
H20 C21 1_555 1_555
H21 C21 1_555 1_555
H22 C21 1_555 1_555
C22 C18 1_555 1_555
H23 C22 1_555 1_555
H24 C22 1_555 1_555
H25 C22 1_555 1_555
C23 C14 1_555 1_555
H26 C23 1_555 1_555
H27 C23 1_555 1_555
H28 C23 1_555 1_555
Cl1 C18 1_555 1_555
N1 C4 1_555 1_555
O1 S2 1_555 1_555
O2 S2 1_555 1_555
O3 S1 1_555 1_555
O4 S1 1_555 1_555
S1 C1 1_555 1_555
S2 C2 1_555 1_555
C3 S1 1_555 1_555
C5 N1 1_555 1_555
C6 C8 1_555 1_555
C14 C16 1_555 1_555
C15 C20 1_555 1_555
N1 S2 1_555 1_555

#END
