
#######################################################################
#
#                 Cambridge Crystallographic Data Centre
#                                CCDC 
#
#######################################################################
#
# If this CIF has been generated from an entry in the Cambridge 
# Structural Database, then it will include bibliographic, chemical, 
# crystal, experimental, refinement or atomic coordinate data resulting 
# from the CCDC's data processing and validation procedures.
#
#######################################################################

data_HILSAZ
_chemical_formula_moiety         'C21 H18 Cl2 O3 S2'
_chemical_name_systematic        
'methyl 8-chloro-4-(2-chlorophenyl)-2-[(methylsulfanyl)methyl]-3,4-dihydro-2H-[1]benzothieno[3,2-b]pyran-3-carboxylate'
_symmetry_cell_setting           triclinic
_symmetry_space_group_name_H-M   'P -1'
_symmetry_Int_Tables_number      2
_space_group_name_Hall           '-P 1'
loop_
_symmetry_equiv_pos_site_id
_symmetry_equiv_pos_as_xyz
1 x,y,z
2 -x,-y,-z
_cell_length_a                   9.7362(8)
_cell_length_b                   14.1432(11)
_cell_length_c                   15.9734(12)
_cell_angle_alpha                105.417(4)
_cell_angle_beta                 90.289(4)
_cell_angle_gamma                98.775(4)
_cell_volume                     2093.19
_exptl_crystal_colour            colorless
_exptl_crystal_description       block
_cell_formula_units_Z            4
loop_
_atom_site_label
_atom_site_type_symbol
_atom_site_fract_x
_atom_site_fract_y
_atom_site_fract_z
C1 C 0.6295(5) 0.7624(4) 0.1892(3)
H1 H 0.6219 0.8085 0.1564
C2 C 0.7046(5) 0.6851(4) 0.1585(2)
H2 H 0.7483 0.6784 0.1047
C3 C 0.7157(5) 0.6176(3) 0.2066(3)
C4 C 0.6517(5) 0.6274(3) 0.2853(3)
H3 H 0.6592 0.5812 0.3182
C5 C 0.5766(4) 0.7047(3) 0.3161(2)
C6 C 0.5655(5) 0.7722(3) 0.2680(3)
C7 C 0.5052(7) 0.7295(5) 0.3943(4)
C8 C 0.4414(7) 0.8096(6) 0.4049(5)
C9 C 0.3642(7) 0.8527(5) 0.4830(5)
H4 H 0.3958 0.9261 0.5021
C10 C 0.4069(7) 0.8067(6) 0.5560(5)
H5 H 0.3351 0.8153 0.6008
C11 C 0.4065(7) 0.6951(5) 0.5188(4)
H6 H 0.3135 0.6649 0.4889
C12 C 0.4348(8) 0.6373(6) 0.5830(5)
H7 H 0.5218 0.6708 0.6175
H8 H 0.4498 0.5700 0.5501
C13 C 0.1705(11) 0.5345(9) 0.5870(8)
H9 H 0.1272 0.5645 0.5471
H10 H 0.0992 0.5096 0.6224
H11 H 0.2146 0.4794 0.5536
C14 C 0.2056(3) 0.8330(4) 0.4672(3)
C15 C 0.1248(5) 0.8923(3) 0.5230(3)
C16 C -0.0192(4) 0.8745(4) 0.5100(3)
H12 H -0.0744 0.9150 0.5482
C17 C -0.0822(3) 0.7972(5) 0.4411(4)
H13 H -0.1806 0.7850 0.4321
C18 C -0.0014(5) 0.7378(4) 0.3852(3)
H14 H -0.0445 0.6851 0.3381
C19 C 0.1426(5) 0.7557(4) 0.3982(3)
H15 H 0.1978 0.7151 0.3600
C20 C 0.5448(8) 0.8619(6) 0.5997(5)
C21 C 0.6866(10) 0.9059(8) 0.7286(6)
H16 H 0.7641 0.8761 0.6993
H17 H 0.6843 0.8990 0.7880
H18 H 0.6993 0.9765 0.7304
Cl1 Cl 0.8083(2) 0.52246(16) 0.16764(14)
Cl2 Cl 0.1974(2) 0.98474(17) 0.61124(14)
O1 O 0.5563(6) 0.8555(5) 0.6812(4)
O2 O 0.6341(6) 0.9076(5) 0.5674(4)
O3 O 0.5111(5) 0.6764(4) 0.4552(3)
S1 S 0.4662(2) 0.86085(15) 0.31699(13)
S2 S 0.2982(2) 0.62540(18) 0.65602(14)
C22 C 1.0215(5) 0.2460(4) 0.3153(3)
H19 H 0.9952 0.1983 0.3468
C23 C 1.1287(5) 0.3247(4) 0.3481(3)
H20 H 1.1757 0.3307 0.4020
C24 C 1.1671(4) 0.3945(3) 0.3021(3)
C25 C 1.0983(5) 0.3857(3) 0.2232(3)
H21 H 1.1245 0.4334 0.1918
C26 C 0.9911(4) 0.3070(3) 0.1904(2)
C27 C 0.9527(4) 0.2371(3) 0.2365(3)
C28 C 0.8097(7) 0.2018(5) 0.1006(5)
C29 C 0.9075(7) 0.2836(5) 0.1123(4)
C30 C 0.8210(7) 0.3196(5) -0.0118(5)
H22 H 0.7399 0.3483 0.0169
C31 C 0.7736(7) 0.2076(5) -0.0509(4)
H23 H 0.6977 0.1988 -0.0960
C32 C 0.7117(7) 0.1612(5) 0.0214(5)
H24 H 0.7098 0.0877 0.0012
C33 C 0.8872(8) 0.1552(6) -0.0938(5)
C34 C 0.9904(12) 0.0986(10) -0.2297(8)
H25 H 1.0773 0.1454 -0.2245
H26 H 0.9581 0.0737 -0.2910
H27 H 1.0065 0.0429 -0.2074
C35 C 0.5614(3) 0.1806(4) 0.0385(3)
C36 C 0.5335(5) 0.2543(4) 0.1105(3)
H28 H 0.6075 0.2934 0.1494
C37 C 0.3975(6) 0.2706(4) 0.1255(3)
H29 H 0.3785 0.3209 0.1747
C38 C 0.2893(4) 0.2133(5) 0.0685(4)
C39 C 0.3171(4) 0.1396(4) -0.0034(3)
H30 H 0.2432 0.1004 -0.0423
C40 C 0.4532(5) 0.1233(3) -0.0184(3)
C41 C 0.8720(8) 0.3775(6) -0.0768(5)
H31 H 0.9488 0.3474 -0.1083
H32 H 0.9103 0.4465 -0.0443
C42 C 0.6486(12) 0.4701(9) -0.0906(9)
H33 H 0.6014 0.4439 -0.0455
H34 H 0.5795 0.4851 -0.1279
H35 H 0.7134 0.5309 -0.0632
Cl3 Cl 0.4833(2) 0.03381(15) -0.10934(13)
Cl4 Cl 1.3021(2) 0.48885(16) 0.34173(14)
O4 O 0.8844(8) 0.1494(6) -0.1793(4)
O5 O 0.9715(10) 0.1257(11) -0.0630(6)
O6 O 0.9324(5) 0.3403(4) 0.0535(3)
S3 S 0.8156(2) 0.14730(15) 0.18560(13)
S4 S 0.7417(2) 0.38051(18) -0.15414(14)
loop_
_geom_bond_atom_site_label_1
_geom_bond_atom_site_label_2
_geom_bond_site_symmetry_1
_geom_bond_site_symmetry_2
C1 H1 1_555 1_555
C2 C1 1_555 1_555
H2 C2 1_555 1_555
C3 C2 1_555 1_555
C4 C3 1_555 1_555
H3 C4 1_555 1_555
C5 C4 1_555 1_555
C6 C1 1_555 1_555
C7 C5 1_555 1_555
C8 C7 1_555 1_555
C9 C8 1_555 1_555
H4 C9 1_555 1_555
C10 C9 1_555 1_555
H5 C10 1_555 1_555
C11 C10 1_555 1_555
H6 C11 1_555 1_555
C12 C11 1_555 1_555
H7 C12 1_555 1_555
H8 C12 1_555 1_555
C13 H9 1_555 1_555
H10 C13 1_555 1_555
H11 C13 1_555 1_555
C14 C9 1_555 1_555
C15 C14 1_555 1_555
C16 C15 1_555 1_555
H12 C16 1_555 1_555
C17 C16 1_555 1_555
H13 C17 1_555 1_555
C18 C17 1_555 1_555
H14 C18 1_555 1_555
C19 C14 1_555 1_555
H15 C19 1_555 1_555
C20 C10 1_555 1_555
C21 H16 1_555 1_555
H17 C21 1_555 1_555
H18 C21 1_555 1_555
Cl1 C3 1_555 1_555
Cl2 C15 1_555 1_555
O1 C20 1_555 1_555
O2 C20 1_555 1_555
O3 C7 1_555 1_555
S1 C6 1_555 1_555
S2 C12 1_555 1_555
C22 H19 1_555 1_555
C23 C22 1_555 1_555
H20 C23 1_555 1_555
C24 C23 1_555 1_555
C25 C24 1_555 1_555
H21 C25 1_555 1_555
C26 C25 1_555 1_555
C27 C22 1_555 1_555
C28 C29 1_555 1_555
C29 C26 1_555 1_555
C30 H22 1_555 1_555
C31 C30 1_555 1_555
H23 C31 1_555 1_555
C32 C28 1_555 1_555
H24 C32 1_555 1_555
C33 C31 1_555 1_555
C34 H25 1_555 1_555
H26 C34 1_555 1_555
H27 C34 1_555 1_555
C35 C32 1_555 1_555
C36 C35 1_555 1_555
H28 C36 1_555 1_555
C37 C36 1_555 1_555
H29 C37 1_555 1_555
C38 C37 1_555 1_555
C39 C38 1_555 1_555
H30 C39 1_555 1_555
C40 C35 1_555 1_555
C41 C30 1_555 1_555
H31 C41 1_555 1_555
H32 C41 1_555 1_555
C42 H33 1_555 1_555
H34 C42 1_555 1_555
H35 C42 1_555 1_555
Cl3 C40 1_555 1_555
Cl4 C24 1_555 1_555
O4 C33 1_555 1_555
O5 C33 1_555 1_555
O6 C29 1_555 1_555
S3 C27 1_555 1_555
S4 C41 1_555 1_555
C5 C6 1_555 1_555
C8 S1 1_555 1_555
C11 O3 1_555 1_555
C13 S2 1_555 1_555
C18 C19 1_555 1_555
C21 O1 1_555 1_555
C26 C27 1_555 1_555
C28 S3 1_555 1_555
C30 O6 1_555 1_555
C31 C32 1_555 1_555
C34 O4 1_555 1_555
C39 C40 1_555 1_555
C42 S4 1_555 1_555

#END
