
#######################################################################
#
#                 Cambridge Crystallographic Data Centre
#                                CCDC 
#
#######################################################################
#
# If this CIF has been generated from an entry in the Cambridge 
# Structural Database, then it will include bibliographic, chemical, 
# crystal, experimental, refinement or atomic coordinate data resulting 
# from the CCDC's data processing and validation procedures.
#
#######################################################################

data_HILTOM
_chemical_formula_moiety         'C5 H4 I1 N1 O1'
_chemical_name_systematic        4-Iodo-1H-pyrrole-2-carbaldehyde
_symmetry_cell_setting           monoclinic
_symmetry_space_group_name_H-M   'P 21/c'
_symmetry_Int_Tables_number      14
_space_group_name_Hall           '-P 2ybc'
loop_
_symmetry_equiv_pos_site_id
_symmetry_equiv_pos_as_xyz
1 x,y,z
2 -x,1/2+y,1/2-z
3 -x,-y,-z
4 x,1/2-y,1/2+z
_cell_length_a                   10.245(3)
_cell_length_b                   4.726(2)
_cell_length_c                   13.531(4)
_cell_angle_alpha                90
_cell_angle_beta                 92.73(2)
_cell_angle_gamma                90
_cell_volume                     654.399
_exptl_crystal_colour            colorless
_exptl_crystal_description       plate
_chemical_melting_point          '390-391 K'
_cell_formula_units_Z            4
loop_
_atom_site_label
_atom_site_type_symbol
_atom_site_fract_x
_atom_site_fract_y
_atom_site_fract_z
I1 I 0.10101(3) 0.11438(6) 0.17038(2)
O1 O 0.4065(3) 0.9850(9) -0.1241(2)
N1 N 0.3783(3) 0.6731(8) 0.0582(2)
C1 C 0.2945(4) 0.6628(9) -0.0239(3)
C2 C 0.1952(4) 0.4801(10) -0.0045(3)
C3 C 0.2196(4) 0.3788(8) 0.0908(3)
C4 C 0.3333(4) 0.5006(10) 0.1282(3)
C5 C 0.3154(4) 0.8263(11) -0.1112(3)
H1 H 0.45070 0.77370 0.06420
H2 H 0.25140 0.80760 -0.16460
H3 H 0.12300 0.42850 -0.04790
H4 H 0.37100 0.46580 0.19280
loop_
_geom_bond_atom_site_label_1
_geom_bond_atom_site_label_2
_geom_bond_site_symmetry_1
_geom_bond_site_symmetry_2
I1 C3 1_555 1_555
O1 C5 1_555 1_555
N1 C1 1_555 1_555
C1 C2 1_555 1_555
C2 C3 1_555 1_555
C3 C4 1_555 1_555
C4 N1 1_555 1_555
C5 C1 1_555 1_555
H1 N1 1_555 1_555
H2 C5 1_555 1_555
H3 C2 1_555 1_555
H4 C4 1_555 1_555

#END
