
#######################################################################
#
#                 Cambridge Crystallographic Data Centre
#                                CCDC 
#
#######################################################################
#
# If this CIF has been generated from an entry in the Cambridge 
# Structural Database, then it will include bibliographic, chemical, 
# crystal, experimental, refinement or atomic coordinate data resulting 
# from the CCDC's data processing and validation procedures.
#
#######################################################################

data_HILVOQ
_chemical_formula_moiety         'C38 H40 Br1 N1 O2'
_chemical_name_systematic        
4-[3-(2-bromophenyl)-2-(3-methyl-1H-indol-2-yl)-3,4-dihydro-2H-1-benzopyran-4-yl]-2,6-di-t-butylphenol
_symmetry_cell_setting           monoclinic
_symmetry_space_group_name_H-M   'P 21'
_symmetry_Int_Tables_number      4
_space_group_name_Hall           'P 2yb'
loop_
_symmetry_equiv_pos_site_id
_symmetry_equiv_pos_as_xyz
1 x,y,z
2 -x,1/2+y,-z
_cell_length_a                   9.9362(16)
_cell_length_b                   21.471(4)
_cell_length_c                   15.571(3)
_cell_angle_alpha                90
_cell_angle_beta                 90.048(2)
_cell_angle_gamma                90
_cell_volume                     3321.92
_exptl_crystal_colour            colorless
_exptl_crystal_description       block
_cell_formula_units_Z            4
loop_
_atom_site_label
_atom_site_type_symbol
_atom_site_fract_x
_atom_site_fract_y
_atom_site_fract_z
Br1 Br 0.04670(11) 0.67651(3) 0.90586(6)
O1 O -0.0407(5) 0.46424(19) 1.0317(3)
O2 O 0.3864(6) 0.6469(2) 0.6599(3)
H1 H 0.418065 0.626192 0.620559
N1 N -0.1276(5) 0.5896(2) 1.0870(4)
H2 H -0.156053 0.587656 1.034872
C1 C 0.0517(7) 0.5096(3) 1.0646(4)
H3 H 0.121171 0.488460 1.098435
C2 C 0.1180(7) 0.5438(3) 0.9898(4)
H4 H 0.046163 0.559310 0.952274
C3 C 0.2036(7) 0.4986(3) 0.9373(4)
H5 H 0.280556 0.486180 0.972773
C4 C 0.1208(7) 0.4408(3) 0.9188(4)
C5 C 0.1569(8) 0.3990(3) 0.8552(4)
H6 H 0.231315 0.407506 0.821038
C6 C 0.0841(8) 0.3441(3) 0.8411(4)
H7 H 0.110892 0.316470 0.798434
C7 C -0.0250(8) 0.3315(4) 0.8894(4)
H8 H -0.072879 0.294909 0.880358
C8 C -0.0660(9) 0.3727(3) 0.9523(5)
H9 H -0.142815 0.364337 0.984391
C9 C 0.0070(7) 0.4261(3) 0.9674(4)
C10 C -0.0257(7) 0.5524(3) 1.1216(3)
C11 C -0.0092(8) 0.5690(3) 1.2056(4)
C12 C -0.1006(7) 0.6175(3) 1.2239(4)
C13 C -0.1322(9) 0.6535(4) 1.2969(5)
H10 H -0.086154 0.647468 1.348260
C14 C -0.2307(10) 0.6971(4) 1.2914(6)
H11 H -0.250698 0.720760 1.339759
C15 C -0.3022(10) 0.7078(4) 1.2171(6)
H12 H -0.369063 0.738051 1.216393
C16 C -0.2756(8) 0.6739(4) 1.1435(6)
H13 H -0.323390 0.680802 1.092984
C17 C -0.1747(7) 0.6292(3) 1.1477(5)
C18 C 0.0915(9) 0.5426(4) 1.2685(5)
H14 H 0.086872 0.497959 1.267569
H15 H 0.071257 0.557365 1.325239
H16 H 0.180488 0.555723 1.252685
C19 C 0.1959(7) 0.5994(3) 1.0218(4)
C20 C 0.1777(8) 0.6596(3) 0.9907(5)
C21 C 0.2565(11) 0.7102(4) 1.0207(7)
H17 H 0.244154 0.750020 0.998691
C22 C 0.3501(11) 0.6992(5) 1.0822(8)
H18 H 0.402416 0.732127 1.102145
C23 C 0.3699(10) 0.6406(5) 1.1160(6)
H19 H 0.432871 0.634376 1.159363
C24 C 0.2965(8) 0.5918(4) 1.0855(5)
H20 H 0.312995 0.552205 1.107195
C25 C 0.2583(6) 0.5318(3) 0.8577(4)
C26 C 0.1809(6) 0.5393(3) 0.7846(4)
H21 H 0.098473 0.518871 0.781112
C27 C 0.2218(7) 0.5761(3) 0.7164(4)
C28 C 0.3449(8) 0.6077(4) 0.7251(4)
C29 C 0.4273(7) 0.6024(3) 0.7985(4)
C30 C 0.3798(7) 0.5627(3) 0.8625(4)
H22 H 0.432811 0.556721 0.911111
C31 C 0.5571(8) 0.6400(4) 0.8105(5)
C32 C 0.5221(12) 0.7097(5) 0.8097(7)
H23 H 0.490935 0.721273 0.753525
H24 H 0.600681 0.733522 0.823916
H25 H 0.452652 0.717753 0.851054
C33 C 0.6599(10) 0.6249(6) 0.7410(6)
H26 H 0.683124 0.581576 0.743878
H27 H 0.739251 0.649684 0.749671
H28 H 0.622242 0.634047 0.685606
C34 C 0.6232(9) 0.6246(6) 0.8987(5)
H29 H 0.562365 0.635389 0.944172
H30 H 0.705002 0.647949 0.904856
H31 H 0.643033 0.580849 0.901431
C35 C 0.1328(8) 0.5829(3) 0.6355(4)
C36 C 0.0050(10) 0.5452(4) 0.6436(5)
H32 H -0.050061 0.551596 0.593698
H33 H -0.043383 0.558193 0.693878
H34 H 0.027197 0.501822 0.648467
C37 C 0.2103(11) 0.5578(5) 0.5571(5)
H35 H 0.246110 0.517399 0.570252
H36 H 0.282769 0.585697 0.543444
H37 H 0.150449 0.554762 0.508917
C38 C 0.0907(11) 0.6514(4) 0.6235(6)
H38 H 0.169179 0.676352 0.613178
H39 H 0.046084 0.665792 0.674384
H40 H 0.030644 0.654627 0.575369
Br2 Br 0.53157(11) 0.33127(3) 0.40977(5)
O3 O 0.4611(5) 0.55090(19) 0.3077(3)
O4 O 0.8781(7) 0.3474(3) 0.6624(4)
H41 H 0.813145 0.332603 0.687678
N2 N 0.3687(6) 0.4307(3) 0.2414(4)
H42 H 0.334971 0.433627 0.292032
C39 C 0.5508(7) 0.5064(3) 0.2697(4)
H43 H 0.620957 0.528559 0.237840
C40 C 0.6165(7) 0.4682(3) 0.3419(4)
H44 H 0.543792 0.451702 0.377754
C41 C 0.7035(7) 0.5112(3) 0.3994(4)
H45 H 0.782040 0.523530 0.365420
C42 C 0.6266(7) 0.5700(3) 0.4199(4)
C43 C 0.6673(9) 0.6118(3) 0.4842(4)
H46 H 0.742456 0.602143 0.517207
C44 C 0.6006(11) 0.6663(3) 0.5000(5)
H47 H 0.632011 0.693580 0.541875
C45 C 0.4869(10) 0.6807(3) 0.4537(4)
H48 H 0.439257 0.716940 0.465764
C46 C 0.4435(9) 0.6413(3) 0.3894(5)
H49 H 0.368022 0.651612 0.356943
C47 C 0.5121(8) 0.5868(3) 0.3732(4)
C48 C 0.4758(6) 0.4657(3) 0.2100(4)
C49 C 0.4997(8) 0.4502(3) 0.1261(4)
C50 C 0.4057(7) 0.4013(3) 0.1053(4)
C51 C 0.3844(11) 0.3660(4) 0.0310(5)
H50 H 0.437410 0.371415 -0.017614
C52 C 0.2810(12) 0.3226(4) 0.0330(7)
H51 H 0.263507 0.298705 -0.015540
C53 C 0.2039(10) 0.3144(4) 0.1053(9)
H52 H 0.135940 0.284670 0.103540
C54 C 0.2213(9) 0.3476(4) 0.1805(7)
H53 H 0.167643 0.341566 0.228752
C55 C 0.3258(8) 0.3908(3) 0.1782(5)
C56 C 0.6043(9) 0.4767(4) 0.0685(5)
H54 H 0.641655 0.513425 0.094207
H55 H 0.564451 0.487146 0.014190
H56 H 0.674246 0.446471 0.059874
C57 C 0.6934(6) 0.4133(3) 0.3075(4)
C58 C 0.6691(8) 0.3519(3) 0.3283(4)
C59 C 0.7435(10) 0.3035(3) 0.2949(6)
H57 H 0.726742 0.262759 0.312117
C60 C 0.8418(10) 0.3158(4) 0.2363(6)
H58 H 0.892031 0.283322 0.213210
C61 C 0.8670(9) 0.3758(4) 0.2114(5)
H59 H 0.933109 0.384454 0.170876
C62 C 0.7929(7) 0.4230(4) 0.2473(4)
H60 H 0.810778 0.463705 0.230132
C63 C 0.7552(6) 0.4734(3) 0.4745(4)
C64 C 0.8741(7) 0.4411(3) 0.4684(4)
H61 H 0.928390 0.448561 0.420938
C65 C 0.9186(7) 0.3979(3) 0.5286(4)
C66 C 0.8333(8) 0.3903(3) 0.6011(5)
C67 C 0.7123(7) 0.4215(3) 0.6113(4)
C68 C 0.6760(7) 0.4635(3) 0.5469(4)
H62 H 0.596120 0.485737 0.552597
C69 C 0.6203(10) 0.4101(4) 0.6899(5)
C70 C 0.4911(10) 0.4489(5) 0.6830(6)
H63 H 0.513934 0.492070 0.676598
H64 H 0.438255 0.443397 0.733998
H65 H 0.440196 0.435406 0.633933
C71 C 0.5769(13) 0.3405(5) 0.6921(7)
H66 H 0.481399 0.337549 0.683726
H67 H 0.600303 0.322732 0.746731
H68 H 0.622297 0.318141 0.647248
C72 C 0.6912(11) 0.4301(5) 0.7741(5)
H69 H 0.774051 0.407576 0.780182
H70 H 0.633704 0.421236 0.822068
H71 H 0.709704 0.473989 0.772181
C73 C 1.0461(8) 0.3587(4) 0.5139(4)
C74 C 1.0076(12) 0.2911(4) 0.5033(7)
H72 H 0.960038 0.277279 0.553501
H73 H 1.087390 0.266446 0.496046
H74 H 0.950860 0.286538 0.453802
C75 C 1.1185(11) 0.3783(6) 0.4313(6)
H75 H 1.060588 0.371151 0.382924
H76 H 1.199306 0.354210 0.424891
H77 H 1.140996 0.421700 0.434397
C76 C 1.1490(9) 0.3668(4) 0.5859(6)
H78 H 1.175675 0.409681 0.589252
H79 H 1.226491 0.341434 0.574161
H80 H 1.109689 0.354253 0.639432
loop_
_geom_bond_atom_site_label_1
_geom_bond_atom_site_label_2
_geom_bond_site_symmetry_1
_geom_bond_site_symmetry_2
Br1 C20 1_555 1_555
O1 C1 1_555 1_555
O2 H1 1_555 1_555
N1 H2 1_555 1_555
C1 H3 1_555 1_555
C2 C1 1_555 1_555
H4 C2 1_555 1_555
C3 C2 1_555 1_555
H5 C3 1_555 1_555
C4 C3 1_555 1_555
C5 C4 1_555 1_555
H6 C5 1_555 1_555
C6 C5 1_555 1_555
H7 C6 1_555 1_555
C7 C6 1_555 1_555
H8 C7 1_555 1_555
C8 C7 1_555 1_555
H9 C8 1_555 1_555
C9 O1 1_555 1_555
C10 N1 1_555 1_555
C11 C10 1_555 1_555
C12 C11 1_555 1_555
C13 C12 1_555 1_555
H10 C13 1_555 1_555
C14 C13 1_555 1_555
H11 C14 1_555 1_555
C15 C14 1_555 1_555
H12 C15 1_555 1_555
C16 C15 1_555 1_555
H13 C16 1_555 1_555
C17 N1 1_555 1_555
C18 C11 1_555 1_555
H14 C18 1_555 1_555
H15 C18 1_555 1_555
H16 C18 1_555 1_555
C19 C2 1_555 1_555
C20 C19 1_555 1_555
C21 C20 1_555 1_555
H17 C21 1_555 1_555
C22 C21 1_555 1_555
H18 C22 1_555 1_555
C23 C22 1_555 1_555
H19 C23 1_555 1_555
C24 C19 1_555 1_555
H20 C24 1_555 1_555
C25 C3 1_555 1_555
C26 C25 1_555 1_555
H21 C26 1_555 1_555
C27 C26 1_555 1_555
C28 O2 1_555 1_555
C29 C28 1_555 1_555
C30 C25 1_555 1_555
H22 C30 1_555 1_555
C31 C29 1_555 1_555
C32 C31 1_555 1_555
H23 C32 1_555 1_555
H24 C32 1_555 1_555
H25 C32 1_555 1_555
C33 C31 1_555 1_555
H26 C33 1_555 1_555
H27 C33 1_555 1_555
H28 C33 1_555 1_555
C34 C31 1_555 1_555
H29 C34 1_555 1_555
H30 C34 1_555 1_555
H31 C34 1_555 1_555
C35 C27 1_555 1_555
C36 C35 1_555 1_555
H32 C36 1_555 1_555
H33 C36 1_555 1_555
H34 C36 1_555 1_555
C37 C35 1_555 1_555
H35 C37 1_555 1_555
H36 C37 1_555 1_555
H37 C37 1_555 1_555
C38 C35 1_555 1_555
H38 C38 1_555 1_555
H39 C38 1_555 1_555
H40 C38 1_555 1_555
Br2 C58 1_555 1_555
O3 C39 1_555 1_555
O4 H41 1_555 1_555
N2 H42 1_555 1_555
C39 H43 1_555 1_555
C40 C39 1_555 1_555
H44 C40 1_555 1_555
C41 C40 1_555 1_555
H45 C41 1_555 1_555
C42 C41 1_555 1_555
C43 C42 1_555 1_555
H46 C43 1_555 1_555
C44 C43 1_555 1_555
H47 C44 1_555 1_555
C45 C44 1_555 1_555
H48 C45 1_555 1_555
C46 C45 1_555 1_555
H49 C46 1_555 1_555
C47 O3 1_555 1_555
C48 N2 1_555 1_555
C49 C48 1_555 1_555
C50 C49 1_555 1_555
C51 C50 1_555 1_555
H50 C51 1_555 1_555
C52 C51 1_555 1_555
H51 C52 1_555 1_555
C53 C52 1_555 1_555
H52 C53 1_555 1_555
C54 C53 1_555 1_555
H53 C54 1_555 1_555
C55 N2 1_555 1_555
C56 C49 1_555 1_555
H54 C56 1_555 1_555
H55 C56 1_555 1_555
H56 C56 1_555 1_555
C57 C40 1_555 1_555
C58 C57 1_555 1_555
C59 C58 1_555 1_555
H57 C59 1_555 1_555
C60 C59 1_555 1_555
H58 C60 1_555 1_555
C61 C60 1_555 1_555
H59 C61 1_555 1_555
C62 C57 1_555 1_555
H60 C62 1_555 1_555
C63 C41 1_555 1_555
C64 C63 1_555 1_555
H61 C64 1_555 1_555
C65 C64 1_555 1_555
C66 O4 1_555 1_555
C67 C66 1_555 1_555
C68 C63 1_555 1_555
H62 C68 1_555 1_555
C69 C67 1_555 1_555
C70 C69 1_555 1_555
H63 C70 1_555 1_555
H64 C70 1_555 1_555
H65 C70 1_555 1_555
C71 C69 1_555 1_555
H66 C71 1_555 1_555
H67 C71 1_555 1_555
H68 C71 1_555 1_555
C72 C69 1_555 1_555
H69 C72 1_555 1_555
H70 C72 1_555 1_555
H71 C72 1_555 1_555
C73 C65 1_555 1_555
C74 C73 1_555 1_555
H72 C74 1_555 1_555
H73 C74 1_555 1_555
H74 C74 1_555 1_555
C75 C73 1_555 1_555
H75 C75 1_555 1_555
H76 C75 1_555 1_555
H77 C75 1_555 1_555
C76 C73 1_555 1_555
H78 C76 1_555 1_555
H79 C76 1_555 1_555
H80 C76 1_555 1_555
C1 C10 1_555 1_555
C4 C9 1_555 1_555
C8 C9 1_555 1_555
C12 C17 1_555 1_555
C16 C17 1_555 1_555
C23 C24 1_555 1_555
C27 C28 1_555 1_555
C29 C30 1_555 1_555
C39 C48 1_555 1_555
C42 C47 1_555 1_555
C46 C47 1_555 1_555
C50 C55 1_555 1_555
C54 C55 1_555 1_555
C61 C62 1_555 1_555
C65 C66 1_555 1_555
C67 C68 1_555 1_555

#END
