
#######################################################################
#
#                 Cambridge Crystallographic Data Centre
#                                CCDC 
#
#######################################################################
#
# If this CIF has been generated from an entry in the Cambridge 
# Structural Database, then it will include bibliographic, chemical, 
# crystal, experimental, refinement or atomic coordinate data resulting 
# from the CCDC's data processing and validation procedures.
#
#######################################################################

data_HILVEG
_chemical_formula_moiety         'C20 H17 Br1 O4'
_chemical_name_systematic        
4-[2-(4-bromophenyl)-2-oxoethyl]-3,4,4a,10b-tetrahydro-2H,5H-pyrano[3,2-c][1]benzopyran-5-one
_symmetry_cell_setting           orthorhombic
_symmetry_space_group_name_H-M   'P 21 21 21'
_symmetry_Int_Tables_number      19
_space_group_name_Hall           'P 2ac 2ab'
loop_
_symmetry_equiv_pos_site_id
_symmetry_equiv_pos_as_xyz
1 x,y,z
2 1/2-x,-y,1/2+z
3 -x,1/2+y,1/2-z
4 1/2+x,1/2-y,-z
_cell_length_a                   4.6107(3)
_cell_length_b                   14.6436(11)
_cell_length_c                   25.5248(14)
_cell_angle_alpha                90
_cell_angle_beta                 90
_cell_angle_gamma                90
_cell_volume                     1723.36
_exptl_crystal_colour            colorless
_exptl_crystal_description       Block
_cell_formula_units_Z            4
_exptl_crystal_recrystallization_method dichloromethane/hexane
loop_
_atom_site_label
_atom_site_type_symbol
_atom_site_fract_x
_atom_site_fract_y
_atom_site_fract_z
Br1 Br 0.40498(17) 0.64886(5) 0.39910(2)
O1 O 0.5022(8) 0.4956(2) 0.81945(15)
O2 O 0.8140(9) 0.7602(3) 0.81208(17)
O3 O 1.0002(9) 0.4941(3) 0.62650(17)
O4 O 1.0150(10) 0.7330(3) 0.73527(18)
C1 C 0.6638(11) 0.5778(3) 0.8186(2)
H1 H 0.8650 0.5633 0.8278
C2 C 0.6853(12) 0.5695(4) 0.5681(2)
C3 C 0.5105(13) 0.6136(4) 0.4672(2)
C4 C 0.5507(11) 0.6437(4) 0.8580(2)
C5 C 0.6097(13) 0.4638(4) 0.7286(2)
H2 H 0.4075 0.4673 0.7183
H3 H 0.7042 0.4197 0.7059
C6 C 0.6633(10) 0.6221(3) 0.7651(2)
H4 H 0.4636 0.6413 0.7580
C7 C 0.4742(11) 0.6350(4) 0.5596(2)
H5 H 0.3881 0.6641 0.5880
C8 C 0.7108(14) 0.5460(5) 0.4750(3)
H6 H 0.7869 0.5146 0.4465
C9 C 0.3899(12) 0.6578(4) 0.5091(2)
H7 H 0.2516 0.7031 0.5038
C10 C 0.7986(12) 0.5480(4) 0.6220(2)
C11 C 0.7532(10) 0.5587(4) 0.7206(2)
H8 H 0.9641 0.5508 0.7222
C12 C 0.6274(15) 0.4308(4) 0.7841(2)
H9 H 0.5259 0.3730 0.7872
H10 H 0.8288 0.4207 0.7934
C13 C 0.8012(13) 0.5237(4) 0.5254(3)
H11 H 0.9392 0.4782 0.5304
C14 C 0.8471(13) 0.7085(4) 0.7683(3)
C15 C 0.6770(11) 0.5964(4) 0.6675(2)
H12 H 0.5594 0.6476 0.6636
C16 C 0.6308(13) 0.7334(4) 0.8525(2)
C17 C 0.5467(16) 0.8006(4) 0.8872(2)
H13 H 0.6109 0.8605 0.8834
C18 C 0.3661(12) 0.6203(4) 0.8992(2)
H14 H 0.3050 0.5603 0.9038
C19 C 0.3648(16) 0.7762(5) 0.9277(3)
H15 H 0.3024 0.8202 0.9515
C20 C 0.2761(15) 0.6883(5) 0.9331(3)
H16 H 0.1513 0.6734 0.9605
loop_
_geom_bond_atom_site_label_1
_geom_bond_atom_site_label_2
_geom_bond_site_symmetry_1
_geom_bond_site_symmetry_2
Br1 C3 1_555 1_555
O1 C1 1_555 1_555
O2 C14 1_555 1_555
O3 C10 1_555 1_555
O4 C14 1_555 1_555
C1 H1 1_555 1_555
C2 C7 1_555 1_555
C3 C8 1_555 1_555
C4 C1 1_555 1_555
C5 H2 1_555 1_555
H3 C5 1_555 1_555
C6 C1 1_555 1_555
H4 C6 1_555 1_555
C7 H5 1_555 1_555
C8 H6 1_555 1_555
C9 C3 1_555 1_555
H7 C9 1_555 1_555
C10 C2 1_555 1_555
C11 C5 1_555 1_555
H8 C11 1_555 1_555
C12 O1 1_555 1_555
H9 C12 1_555 1_555
H10 C12 1_555 1_555
C13 C2 1_555 1_555
H11 C13 1_555 1_555
C14 C6 1_555 1_555
C15 C10 1_555 1_555
H12 C15 1_555 1_555
C16 O2 1_555 1_555
C17 C16 1_555 1_555
H13 C17 1_555 1_555
C18 C4 1_555 1_555
H14 C18 1_555 1_555
C19 C17 1_555 1_555
H15 C19 1_555 1_555
C20 C18 1_555 1_555
H16 C20 1_555 1_555
C4 C16 1_555 1_555
C5 C12 1_555 1_555
C6 C11 1_555 1_555
C7 C9 1_555 1_555
C8 C13 1_555 1_555
C11 C15 1_555 1_555
C19 C20 1_555 1_555

#END
