
#######################################################################
#
#                 Cambridge Crystallographic Data Centre
#                                CCDC 
#
#######################################################################
#
# If this CIF has been generated from an entry in the Cambridge 
# Structural Database, then it will include bibliographic, chemical, 
# crystal, experimental, refinement or atomic coordinate data resulting 
# from the CCDC's data processing and validation procedures.
#
#######################################################################

data_HILWOR
_chemical_formula_moiety         'C10 H13 Cl3 O1'
_chemical_name_systematic        
7,7-dichloro-2-(chloromethylidene)-1-ethoxybicyclo[4.1.0]heptane
_symmetry_cell_setting           triclinic
_symmetry_space_group_name_H-M   'P -1'
_symmetry_Int_Tables_number      2
_space_group_name_Hall           '-P 1'
loop_
_symmetry_equiv_pos_site_id
_symmetry_equiv_pos_as_xyz
1 x,y,z
2 -x,-y,-z
_cell_length_a                   7.3031(6)
_cell_length_b                   8.9170(7)
_cell_length_c                   9.1413(8)
_cell_angle_alpha                81.507(7)
_cell_angle_beta                 85.452(7)
_cell_angle_gamma                80.354(7)
_cell_volume                     579.536
_exptl_crystal_colour            colorless
_exptl_crystal_description       plate
_cell_formula_units_Z            2
loop_
_atom_site_label
_atom_site_type_symbol
_atom_site_fract_x
_atom_site_fract_y
_atom_site_fract_z
C1 C 0.6121(3) 0.2714(2) 0.3521(2)
C2 C 0.7407(3) 0.3704(2) 0.2646(2)
C3 C 0.8532(3) 0.3129(3) 0.1330(3)
H1 H 0.9685 0.3551 0.1195
H2 H 0.7844 0.3489 0.0447
C4 C 0.8979(3) 0.1384(3) 0.1515(3)
H3 H 0.9713 0.1066 0.0650
H4 H 0.9715 0.1025 0.2372
C5 C 0.7221(3) 0.0653(3) 0.1711(3)
H5 H 0.6541 0.0933 0.0816
H6 H 0.7556 -0.0456 0.1870
C6 C 0.5989(3) 0.1174(3) 0.3016(3)
H7 H 0.5793 0.0351 0.3822
C7 C 0.4396(3) 0.2473(3) 0.2832(2)
O1 O 0.58478(19) 0.28115(17) 0.50281(16)
C8 C 0.7429(3) 0.2119(3) 0.5862(3)
H8 H 0.8450 0.2693 0.5589
H9 H 0.7836 0.1073 0.5659
C9 C 0.6862(4) 0.2128(3) 0.7472(3)
H10 H 0.6508 0.3168 0.7668
H11 H 0.7887 0.1637 0.8056
H12 H 0.5827 0.1584 0.7723
C10 C 0.7520(3) 0.5005(3) 0.3131(3)
H13 H 0.6783 0.5263 0.3962
Cl1 Cl 0.89845(9) 0.62508(7) 0.22832(7)
Cl2 Cl 0.23695(8) 0.23736(7) 0.39961(7)
Cl3 Cl 0.38594(8) 0.34076(7) 0.10643(7)
loop_
_geom_bond_atom_site_label_1
_geom_bond_atom_site_label_2
_geom_bond_site_symmetry_1
_geom_bond_site_symmetry_2
C1 C2 1_555 1_555
C2 C3 1_555 1_555
C3 H1 1_555 1_555
H2 C3 1_555 1_555
C4 C3 1_555 1_555
H3 C4 1_555 1_555
H4 C4 1_555 1_555
C5 C4 1_555 1_555
H5 C5 1_555 1_555
H6 C5 1_555 1_555
C6 C1 1_555 1_555
H7 C6 1_555 1_555
C7 C1 1_555 1_555
O1 C1 1_555 1_555
C8 O1 1_555 1_555
H8 C8 1_555 1_555
H9 C8 1_555 1_555
C9 C8 1_555 1_555
H10 C9 1_555 1_555
H11 C9 1_555 1_555
H12 C9 1_555 1_555
C10 C2 1_555 1_555
H13 C10 1_555 1_555
Cl1 C10 1_555 1_555
Cl2 C7 1_555 1_555
Cl3 C7 1_555 1_555
C5 C6 1_555 1_555
C6 C7 1_555 1_555

#END
