
#######################################################################
#
#                 Cambridge Crystallographic Data Centre
#                                CCDC 
#
#######################################################################
#
# If this CIF has been generated from an entry in the Cambridge 
# Structural Database, then it will include bibliographic, chemical, 
# crystal, experimental, refinement or atomic coordinate data resulting 
# from the CCDC's data processing and validation procedures.
#
#######################################################################

data_HILXEI
_chemical_formula_moiety         'C18 H14 N2 O4'
_chemical_name_systematic        'dibut-3-yn-1-yl quinoxaline-2,3-dicarboxylate'
_symmetry_cell_setting           monoclinic
_symmetry_space_group_name_H-M   'C 2/c'
_symmetry_Int_Tables_number      15
_space_group_name_Hall           '-C 2yn'
loop_
_symmetry_equiv_pos_site_id
_symmetry_equiv_pos_as_xyz
1 x,y,z
2 -x,y,1/2-z
3 1/2+x,1/2+y,z
4 1/2-x,1/2+y,1/2-z
5 -x,-y,-z
6 x,-y,1/2+z
7 1/2-x,1/2-y,-z
8 1/2+x,1/2-y,1/2+z
_cell_length_a                   35.826(8)
_cell_length_b                   5.9039(14)
_cell_length_c                   16.169(4)
_cell_angle_alpha                90
_cell_angle_beta                 96.383(6)
_cell_angle_gamma                90
_cell_volume                     3398.76
_exptl_crystal_description       block
_cell_formula_units_Z            8
loop_
_atom_site_label
_atom_site_type_symbol
_atom_site_fract_x
_atom_site_fract_y
_atom_site_fract_z
O1 O 0.65980(6) 0.6563(4) 0.60619(12)
O2 O 0.59159(6) 0.1528(4) 0.38736(15)
N1 N 0.70294(6) 0.5542(4) 0.46862(13)
O3 O 0.62090(8) 0.7685(5) 0.49572(14)
O4 O 0.59984(7) 0.2857(5) 0.51812(17)
N2 N 0.66821(6) 0.1683(4) 0.39050(14)
C1 C 0.70472(7) 0.2185(5) 0.38337(15)
C2 C 0.65044(7) 0.3049(5) 0.43662(16)
C3 C 0.64646(8) 0.6569(4) 0.52633(17)
C4 C 0.66806(7) 0.4984(4) 0.47636(15)
C5 C 0.72211(7) 0.4141(5) 0.42133(16)
C6 C 0.61084(8) 0.2478(5) 0.4519(2)
C7 C 0.76013(8) 0.4606(5) 0.41265(18)
H1 H 0.7718 0.5884 0.4373
C8 C 0.72592(8) 0.0732(5) 0.33686(18)
H2 H 0.7148 -0.0549 0.3113
C9 C 0.77972(8) 0.3150(6) 0.36740(19)
H3 H 0.8048 0.3450 0.3616
C10 C 0.76257(9) 0.1210(6) 0.32960(19)
H4 H 0.7764 0.0245 0.2993
C11 C 0.63938(10) 0.7903(6) 0.66154(19)
H5 H 0.6295 0.9256 0.6328
H6 H 0.6563 0.8370 0.7096
C12 C 0.60730(10) 0.6537(6) 0.6900(2)
H7 H 0.5929 0.7502 0.7232
H8 H 0.5908 0.6062 0.6415
C13 C 0.61964(10) 0.4529(6) 0.7390(2)
C14 C 0.62946(13) 0.2950(6) 0.7803(2)
H9 H 0.6372 0.1704 0.8130
C15 C 0.55383(12) 0.0849(11) 0.4036(4)
H10 H 0.5364 0.2074 0.3879
H11 H 0.5537 0.0574 0.4627
C16 C 0.4999(2) -0.135(2) 0.3662(6)
C17 C 0.5405(3) -0.1315(18) 0.3547(7)
H12 H 0.5443 -0.1193 0.2964
H13 H 0.5533 -0.2654 0.3782
C18 C 0.4687(2) -0.154(2) 0.3722(5)
H14 H 0.4432 -0.1695 0.3771
loop_
_geom_bond_atom_site_label_1
_geom_bond_atom_site_label_2
_geom_bond_site_symmetry_1
_geom_bond_site_symmetry_2
O1 C3 1_555 1_555
O2 C6 1_555 1_555
N1 C4 1_555 1_555
O3 C3 1_555 1_555
O4 C6 1_555 1_555
N2 C1 1_555 1_555
C1 C5 1_555 1_555
C2 N2 1_555 1_555
C3 C4 1_555 1_555
C4 C2 1_555 1_555
C5 N1 1_555 1_555
C6 C2 1_555 1_555
C7 C5 1_555 1_555
H1 C7 1_555 1_555
C8 C1 1_555 1_555
H2 C8 1_555 1_555
C9 C7 1_555 1_555
H3 C9 1_555 1_555
C10 C8 1_555 1_555
H4 C10 1_555 1_555
C11 O1 1_555 1_555
H5 C11 1_555 1_555
H6 C11 1_555 1_555
C12 C11 1_555 1_555
H7 C12 1_555 1_555
H8 C12 1_555 1_555
C13 C12 1_555 1_555
C14 C13 1_555 1_555
H9 C14 1_555 1_555
C15 O2 1_555 1_555
H10 C15 1_555 1_555
H11 C15 1_555 1_555
C16 C17 1_555 1_555
C17 C15 1_555 1_555
H12 C17 1_555 1_555
H13 C17 1_555 1_555
C18 C16 1_555 1_555
H14 C18 1_555 1_555
C9 C10 1_555 1_555

#END
