
#######################################################################
#
#                 Cambridge Crystallographic Data Centre
#                                CCDC 
#
#######################################################################
#
# If this CIF has been generated from an entry in the Cambridge 
# Structural Database, then it will include bibliographic, chemical, 
# crystal, experimental, refinement or atomic coordinate data resulting 
# from the CCDC's data processing and validation procedures.
#
#######################################################################

data_HILXAE
_chemical_formula_moiety         'C10 H13 Br2 Cl1 O1'
_chemical_name_systematic        
7,7-dibromo-2-(chloromethylidene)-1-ethoxybicyclo[4.1.0]heptane
_symmetry_cell_setting           triclinic
_symmetry_space_group_name_H-M   'P -1'
_symmetry_Int_Tables_number      2
_space_group_name_Hall           '-P 1'
loop_
_symmetry_equiv_pos_site_id
_symmetry_equiv_pos_as_xyz
1 x,y,z
2 -x,-y,-z
_cell_length_a                   7.4888(5)
_cell_length_b                   8.8924(6)
_cell_length_c                   9.2043(6)
_cell_angle_alpha                83.085(6)
_cell_angle_beta                 86.309(6)
_cell_angle_gamma                81.870(6)
_cell_volume                     601.672
_exptl_crystal_colour            colorless
_exptl_crystal_description       plate
_cell_formula_units_Z            2
loop_
_atom_site_label
_atom_site_type_symbol
_atom_site_fract_x
_atom_site_fract_y
_atom_site_fract_z
C1 C 0.6070(5) 0.2698(5) 0.3509(5)
C2 C 0.7346(5) 0.3647(5) 0.2636(5)
C3 C 0.8438(5) 0.2999(5) 0.1366(5)
H1 H 0.9576 0.3412 0.1241
H2 H 0.7789 0.3318 0.0477
C4 C 0.8814(5) 0.1253(5) 0.1586(6)
H3 H 0.9518 0.0933 0.2445
H4 H 0.9520 0.0892 0.0745
C5 C 0.7059(6) 0.0536(5) 0.1780(6)
H5 H 0.6406 0.0775 0.0886
H6 H 0.7340 -0.0567 0.1964
C6 C 0.5889(5) 0.1132(5) 0.3042(5)
H7 H 0.5692 0.0350 0.3859
C7 C 0.4353(5) 0.2409(5) 0.2846(5)
O1 O 0.5839(3) 0.2866(3) 0.4994(3)
C8 C 0.7394(5) 0.2233(5) 0.5816(5)
H8 H 0.8366 0.2845 0.5563
H9 H 0.7812 0.1199 0.5593
C9 C 0.6859(6) 0.2227(6) 0.7400(5)
H10 H 0.6449 0.3255 0.7610
H11 H 0.7879 0.1812 0.7971
H12 H 0.5904 0.1612 0.7641
C10 C 0.7489(5) 0.4980(5) 0.3065(5)
H13 H 0.6759 0.5296 0.3858
Cl1 Cl 0.89777(14) 0.61776(12) 0.22204(13)
Br1 Br 0.22342(5) 0.23573(5) 0.41231(5)
Br2 Br 0.37518(5) 0.33376(5) 0.09362(5)
loop_
_geom_bond_atom_site_label_1
_geom_bond_atom_site_label_2
_geom_bond_site_symmetry_1
_geom_bond_site_symmetry_2
C1 C2 1_555 1_555
C2 C3 1_555 1_555
C3 H1 1_555 1_555
H2 C3 1_555 1_555
C4 C3 1_555 1_555
H3 C4 1_555 1_555
H4 C4 1_555 1_555
C5 C4 1_555 1_555
H5 C5 1_555 1_555
H6 C5 1_555 1_555
C6 C1 1_555 1_555
H7 C6 1_555 1_555
C7 C1 1_555 1_555
O1 C1 1_555 1_555
C8 O1 1_555 1_555
H8 C8 1_555 1_555
H9 C8 1_555 1_555
C9 C8 1_555 1_555
H10 C9 1_555 1_555
H11 C9 1_555 1_555
H12 C9 1_555 1_555
C10 C2 1_555 1_555
H13 C10 1_555 1_555
Cl1 C10 1_555 1_555
Br1 C7 1_555 1_555
Br2 C7 1_555 1_555
C5 C6 1_555 1_555
C6 C7 1_555 1_555

#END
