
#######################################################################
#
#                 Cambridge Crystallographic Data Centre
#                                CCDC 
#
#######################################################################
#
# If this CIF has been generated from an entry in the Cambridge 
# Structural Database, then it will include bibliographic, chemical, 
# crystal, experimental, refinement or atomic coordinate data resulting 
# from the CCDC's data processing and validation procedures.
#
#######################################################################

data_HILXIM
_chemical_formula_moiety         'C19 H22 N4 O5'
_chemical_name_systematic        
'diethyl 1-{8-[(cyclopropanecarbonyl)amino]quinolin-5-yl}hydrazine-1,2-dicarboxylate'
_symmetry_cell_setting           triclinic
_symmetry_space_group_name_H-M   'P -1'
_symmetry_Int_Tables_number      2
_space_group_name_Hall           '-P 1'
loop_
_symmetry_equiv_pos_site_id
_symmetry_equiv_pos_as_xyz
1 x,y,z
2 -x,-y,-z
_cell_length_a                   8.6974(2)
_cell_length_b                   9.8994(3)
_cell_length_c                   12.5588(3)
_cell_angle_alpha                105.0590(10)
_cell_angle_beta                 98.5340(10)
_cell_angle_gamma                111.7240(10)
_cell_volume                     933.265
_exptl_crystal_colour            colorless
_exptl_crystal_description       block
_cell_formula_units_Z            2
loop_
_atom_site_label
_atom_site_type_symbol
_atom_site_fract_x
_atom_site_fract_y
_atom_site_fract_z
C1 C 0.1704(2) -0.19850(18) -0.16490(14)
H1 H 0.1815 -0.2614 -0.2341
H2 H 0.1862 -0.2309 -0.0991
C2 C 0.04320(19) -0.13385(17) -0.17767(13)
H3 H -0.0185 -0.1267 -0.1196
H4 H -0.0232 -0.1572 -0.2547
C3 C 0.23287(19) -0.02738(17) -0.14338(12)
H5 H 0.2800 0.0117 -0.2011
C4 C 0.30826(18) 0.07672(16) -0.02190(12)
C5 C 0.52243(17) 0.34352(16) 0.09815(11)
C6 C 0.48298(18) 0.35079(16) 0.20084(12)
H6 H 0.3897 0.2691 0.2051
C7 C 0.58310(18) 0.48134(16) 0.29946(11)
H7 H 0.5564 0.4839 0.3688
C8 C 0.71858(17) 0.60421(15) 0.29551(11)
C9 C 0.76210(17) 0.60394(15) 0.19096(11)
C10 C 0.66418(17) 0.47139(15) 0.09169(11)
C11 C 0.8281(2) 0.57608(18) -0.01848(13)
H8 H 0.8528 0.5677 -0.0888
C12 C 0.9314(2) 0.71321(18) 0.07433(13)
H9 H 1.0206 0.7932 0.0649
C13 C 0.89865(18) 0.72702(16) 0.17855(12)
H10 H 0.9657 0.8168 0.2411
C14 C 0.97034(17) 0.75347(15) 0.46519(11)
C15 C 1.18368(18) 0.66027(17) 0.47532(12)
H11 H 1.1812 0.6479 0.5492
H12 H 1.2725 0.7617 0.4873
C16 C 1.2184(2) 0.53641(19) 0.40025(14)
H13 H 1.1280 0.4369 0.3875
H14 H 1.3263 0.5413 0.4370
H15 H 1.2233 0.5516 0.3282
C17 C 0.69654(17) 0.83542(15) 0.53557(11)
C18 C 0.6342(2) 0.98320(18) 0.68845(12)
H16 H 0.7155 0.9753 0.7456
H17 H 0.5210 0.9019 0.6755
C19 C 0.6319(2) 1.1389(2) 0.72871(14)
H18 H 0.7409 1.2176 0.7333
H19 H 0.6113 1.1574 0.8030
H20 H 0.5423 1.1413 0.6756
N1 N 0.75350(15) 0.84015(13) 0.43975(9)
H21 H 0.7481 0.9050 0.4068
N2 N 0.82050(15) 0.73519(13) 0.39812(9)
N3 N 0.43325(15) 0.21973(13) -0.00472(10)
H22 H 0.4605 0.2355 -0.0649
N4 N 0.69840(15) 0.45849(14) -0.01210(10)
O1 O 1.05001(13) 0.85719(11) 0.55683(8)
O2 O 1.01707(12) 0.64380(11) 0.41616(8)
O3 O 0.65932(13) 0.72858(11) 0.57068(9)
O4 O 0.68479(13) 0.96828(11) 0.58225(8)
O5 O 0.25946(15) 0.03676(12) 0.05606(8)
loop_
_geom_bond_atom_site_label_1
_geom_bond_atom_site_label_2
_geom_bond_site_symmetry_1
_geom_bond_site_symmetry_2
C1 H1 1_555 1_555
H2 C1 1_555 1_555
C2 C1 1_555 1_555
H3 C2 1_555 1_555
H4 C2 1_555 1_555
C3 C1 1_555 1_555
H5 C3 1_555 1_555
C4 C3 1_555 1_555
C5 C6 1_555 1_555
C6 H6 1_555 1_555
C7 C6 1_555 1_555
H7 C7 1_555 1_555
C8 C7 1_555 1_555
C9 C8 1_555 1_555
C10 C5 1_555 1_555
C11 H8 1_555 1_555
C12 C11 1_555 1_555
H9 C12 1_555 1_555
C13 C9 1_555 1_555
H10 C13 1_555 1_555
C14 N2 1_555 1_555
C15 H11 1_555 1_555
H12 C15 1_555 1_555
C16 C15 1_555 1_555
H13 C16 1_555 1_555
H14 C16 1_555 1_555
H15 C16 1_555 1_555
C17 N1 1_555 1_555
C18 H16 1_555 1_555
H17 C18 1_555 1_555
C19 C18 1_555 1_555
H18 C19 1_555 1_555
H19 C19 1_555 1_555
H20 C19 1_555 1_555
N1 H21 1_555 1_555
N2 C8 1_555 1_555
N3 C4 1_555 1_555
H22 N3 1_555 1_555
N4 C10 1_555 1_555
O1 C14 1_555 1_555
O2 C14 1_555 1_555
O3 C17 1_555 1_555
O4 C17 1_555 1_555
O5 C4 1_555 1_555
C2 C3 1_555 1_555
C5 N3 1_555 1_555
C9 C10 1_555 1_555
C11 N4 1_555 1_555
C12 C13 1_555 1_555
C15 O2 1_555 1_555
C18 O4 1_555 1_555
N1 N2 1_555 1_555

#END
