
#######################################################################
#
#                 Cambridge Crystallographic Data Centre
#                                CCDC 
#
#######################################################################
#
# If this CIF has been generated from an entry in the Cambridge 
# Structural Database, then it will include bibliographic, chemical, 
# crystal, experimental, refinement or atomic coordinate data resulting 
# from the CCDC's data processing and validation procedures.
#
#######################################################################

data_HIMFIS
_chemical_formula_moiety         'C21 H24 F1 N1 O2'
_chemical_name_systematic        
7-Isopropyl-6-fluoro-2,2-dimethyl-6-naphthyl-3-oxa-1-azabicyclo(3.3.0)octan-8-one
_symmetry_cell_setting           orthorhombic
_symmetry_space_group_name_H-M   'P 21 21 21'
_symmetry_Int_Tables_number      19
_space_group_name_Hall           'P 2ac 2ab'
loop_
_symmetry_equiv_pos_site_id
_symmetry_equiv_pos_as_xyz
1 x,y,z
2 1/2-x,-y,1/2+z
3 1/2+x,1/2-y,-z
4 -x,1/2+y,1/2-z
_cell_length_a                   9.3744(8)
_cell_length_b                   11.9016(14)
_cell_length_c                   16.5736(11)
_cell_angle_alpha                90
_cell_angle_beta                 90
_cell_angle_gamma                90
_cell_volume                     1849.12
_exptl_crystal_colour            colorless
_exptl_crystal_description       plate
_cell_formula_units_Z            4
loop_
_atom_site_label
_atom_site_type_symbol
_atom_site_fract_x
_atom_site_fract_y
_atom_site_fract_z
N1 N 1.0790(2) 0.4864(1) 0.2452(1)
O1 O 1.0393(1) 0.6374(1) 0.3282(1)
C1 C 0.9998(2) 0.5694(1) 0.2774(1)
C2 C 0.8514(2) 0.5638(1) 0.2387(1)
F1 F 0.9447(1) 0.5839(1) 0.1074(1)
C3 C 0.8826(2) 0.5007(1) 0.1586(1)
C4 C 1.0063(2) 0.4227(2) 0.1821(1)
C5 C 1.1283(2) 0.4000(2) 0.1241(1)
O2 O 1.2495(1) 0.3941(1) 0.1758(1)
C6 C 1.2355(2) 0.4754(2) 0.2388(1)
C7 C 1.3016(2) 0.4250(2) 0.3132(1)
C8 C 1.3041(2) 0.5854(2) 0.2157(1)
C9 C 0.7589(2) 0.4489(1) 0.1142(1)
C10 C 0.7489(2) 0.3340(1) 0.1082(1)
C11 C 0.6322(2) 0.2818(2) 0.0701(1)
C12 C 0.5269(2) 0.3438(2) 0.0367(1)
C13 C 0.5330(2) 0.4622(2) 0.0395(1)
C14 C 0.4252(2) 0.5276(2) 0.0032(1)
C15 C 0.4290(3) 0.6415(2) 0.0059(1)
C16 C 0.5415(3) 0.6960(2) 0.0449(1)
C17 C 0.6477(2) 0.6359(2) 0.0803(1)
C18 C 0.6489(2) 0.5167(2) 0.0789(1)
C19 C 0.7355(2) 0.5133(2) 0.2936(1)
C20 C 0.7758(3) 0.4021(2) 0.3325(1)
C21 C 0.6922(3) 0.5977(2) 0.3587(1)
H1 H 0.8226(2) 0.6406(1) 0.2250(1)
H2 H 0.9694(2) 0.3520(2) 0.2040(1)
H3 H 1.1141(2) 0.3298(2) 0.0955(1)
H4 H 1.1381(2) 0.4604(2) 0.0852(1)
H5 H 1.2943(2) 0.4773(2) 0.3571(1)
H6 H 1.4003(2) 0.4087(2) 0.3031(1)
H7 H 1.2525(2) 0.3569(2) 0.3270(1)
H8 H 1.2931(2) 0.6382(2) 0.2590(1)
H9 H 1.2591(2) 0.6144(2) 0.1680(1)
H10 H 1.4037(2) 0.5736(2) 0.2053(1)
H11 H 0.8209(2) 0.2896(1) 0.1300(1)
H12 H 0.6277(2) 0.2038(2) 0.0677(1)
H13 H 0.4502(2) 0.3084(2) 0.0119(1)
H14 H 0.3502(2) 0.4919(2) -0.0231(1)
H15 H 0.3567(3) 0.6832(2) -0.0182(1)
H16 H 0.5438(3) 0.7741(2) 0.0466(1)
H17 H 0.7214(2) 0.6739(2) 0.1061(1)
H18 H 0.6513(2) 0.4997(2) 0.2600(1)
H19 H 0.8029(3) 0.3495(2) 0.2914(1)
H20 H 0.6956(3) 0.3732(2) 0.3620(1)
H21 H 0.8544(3) 0.4135(2) 0.3688(1)
H22 H 0.6669(3) 0.6677(2) 0.3339(1)
H23 H 0.7706(3) 0.6093(2) 0.3950(1)
H24 H 0.6119(3) 0.5690(2) 0.3881(1)
loop_
_geom_bond_atom_site_label_1
_geom_bond_atom_site_label_2
_geom_bond_site_symmetry_1
_geom_bond_site_symmetry_2
N1 C1 1_555 1_555
O1 C1 1_555 1_555
C1 C2 1_555 1_555
C2 C3 1_555 1_555
F1 C3 1_555 1_555
C3 C4 1_555 1_555
C4 N1 1_555 1_555
C5 C4 1_555 1_555
O2 C5 1_555 1_555
C6 N1 1_555 1_555
C7 C6 1_555 1_555
C8 C6 1_555 1_555
C9 C3 1_555 1_555
C10 C9 1_555 1_555
C11 C10 1_555 1_555
C12 C11 1_555 1_555
C13 C12 1_555 1_555
C14 C13 1_555 1_555
C15 C14 1_555 1_555
C16 C15 1_555 1_555
C17 C16 1_555 1_555
C18 C9 1_555 1_555
C19 C2 1_555 1_555
C20 C19 1_555 1_555
C21 C19 1_555 1_555
H1 C2 1_555 1_555
H2 C4 1_555 1_555
H3 C5 1_555 1_555
H4 C5 1_555 1_555
H5 C7 1_555 1_555
H6 C7 1_555 1_555
H7 C7 1_555 1_555
H8 C8 1_555 1_555
H9 C8 1_555 1_555
H10 C8 1_555 1_555
H11 C10 1_555 1_555
H12 C11 1_555 1_555
H13 C12 1_555 1_555
H14 C14 1_555 1_555
H15 C15 1_555 1_555
H16 C16 1_555 1_555
H17 C17 1_555 1_555
H18 C19 1_555 1_555
H19 C20 1_555 1_555
H20 C20 1_555 1_555
H21 C20 1_555 1_555
H22 C21 1_555 1_555
H23 C21 1_555 1_555
H24 C21 1_555 1_555
O2 C6 1_555 1_555
C13 C18 1_555 1_555
C17 C18 1_555 1_555

#END
