
#######################################################################
#
#                 Cambridge Crystallographic Data Centre
#                                CCDC 
#
#######################################################################
#
# If this CIF has been generated from an entry in the Cambridge 
# Structural Database, then it will include bibliographic, chemical, 
# crystal, experimental, refinement or atomic coordinate data resulting 
# from the CCDC's data processing and validation procedures.
#
#######################################################################

data_HIMJIZ
_chemical_compound_source        'Ainsliaea fragrans'
_chemical_name_common            'ainsliatriolide A unknown solvate'
_chemical_formula_moiety         'C45 H48 O10'
_chemical_name_systematic        
"1'-[2-(3,6-dimethylidene-2,8-dioxododecahydroazuleno[4,5-b]furan-9-yl)ethyl]-5a'-hydroxy-3,6,8'-trimethylidene-3a,4,5,5',5a',6,6',6a,7,7',7a',8',9a,9b,10a',10b'-hexadecahydro-2H-spiro[azuleno[4,5-b]furan-9,3'-benzo[1,8]azuleno[4,5-b]furan]-2,2',8,9'(1'H,3H,4'H)-tetrone unknown solvate"
_chemical_properties_biological  
'potent cytotoxicity against A-549, HT-29, BEL-7402 and HL-60 cancer cell lines'
_symmetry_cell_setting           orthorhombic
_symmetry_space_group_name_H-M   'P 21 21 21'
_symmetry_Int_Tables_number      19
_space_group_name_Hall           'P 2ac 2ab'
loop_
_symmetry_equiv_pos_site_id
_symmetry_equiv_pos_as_xyz
1 x,y,z
2 1/2-x,-y,1/2+z
3 -x,1/2+y,1/2-z
4 1/2+x,1/2-y,-z
_cell_length_a                   8.6493(3)
_cell_length_b                   11.5382(4)
_cell_length_c                   39.4347(14)
_cell_angle_alpha                90
_cell_angle_beta                 90
_cell_angle_gamma                90
_cell_volume                     3935.48
_exptl_crystal_colour            colorless
_exptl_crystal_description       block
_chemical_melting_point          '499-500 K'
_cell_formula_units_Z            4
_exptl_crystal_recrystallization_method 
'Re-crystallisation from solvent: Methanol'
loop_
_atom_site_label
_atom_site_type_symbol
_atom_site_fract_x
_atom_site_fract_y
_atom_site_fract_z
O1 O 0.27332(16) 0.13607(14) 0.54477(4)
O2 O 0.84302(19) 0.44914(13) 0.63002(4)
O3 O 0.42245(17) 0.24578(14) 0.66795(4)
O4 O 0.4953(2) 0.60506(12) 0.68247(4)
O5 O 0.6034(2) 0.58107(15) 0.73343(4)
O6 O 0.7631(2) 0.01090(15) 0.58558(5)
O7 O 0.1230(2) 0.0785(2) 0.50165(5)
O8 O 0.8425(3) 0.62076(16) 0.60425(5)
O9 O 0.7159(3) 0.00263(16) 0.67652(5)
C1 C 0.4716(2) 0.23500(16) 0.63913(5)
C2 C 0.6367(2) 0.18510(16) 0.59593(5)
C3 C 0.6309(2) 0.20441(16) 0.62930(5)
C4 C 0.4882(2) 0.21902(17) 0.57795(5)
H1 H 0.5083 0.2914 0.5647
C5 C 0.4378(2) 0.12493(19) 0.55333(5)
H2 H 0.4573 0.0470 0.5636
C6 C 0.5472(3) 0.64465(19) 0.71264(6)
C7 C 0.8940(2) 0.39900(18) 0.66218(5)
H3 H 0.9955 0.3593 0.6586
C8 C 0.8659(3) 0.5648(2) 0.62948(6)
C9 C 0.3755(2) 0.24877(17) 0.60705(5)
H4 H 0.2897 0.1906 0.6073
C10 C 0.4582(3) 0.68424(18) 0.62604(6)
H5 H 0.5696 0.6617 0.6243
C11 C 0.9179(3) 0.50148(19) 0.68657(5)
H6 H 0.8258 0.5066 0.7018
C12 C 0.7776(2) 0.31123(18) 0.67458(5)
H7 H 0.6739 0.3494 0.6738
C13 C 0.2500(3) 0.0924(2) 0.51314(6)
C14 C 0.5249(3) 0.77202(19) 0.71406(6)
C15 C 0.4204(3) 0.69820(17) 0.66306(6)
H8 H 0.3059 0.6918 0.6660
C16 C 0.7301(3) 0.1050(2) 0.68192(6)
C17 C 0.7778(2) 0.1328(2) 0.57912(5)
C18 C 0.9124(2) 0.15263(19) 0.63553(6)
H9 H 1.0037 0.1873 0.6468
H10 H 0.9198 0.0675 0.6382
C19 C 0.3056(2) 0.37182(18) 0.60473(5)
H11 H 0.2606 0.3829 0.5819
H12 H 0.2209 0.3790 0.6215
C20 C 0.4345(3) 0.7980(2) 0.60473(6)
H13 H 0.5292 0.8471 0.6069
C21 C 0.7643(2) 0.19550(18) 0.65404(5)
C22 C 0.9793(3) 0.2756(2) 0.72215(6)
C23 C 0.9191(2) 0.1815(2) 0.59794(6)
H14 H 1.0146 0.1484 0.5880
H15 H 0.9228 0.2666 0.5950
C24 C 0.4757(3) 0.81141(18) 0.67957(6)
H16 H 0.5690 0.8395 0.6671
C25 C 0.3618(3) 0.59090(18) 0.60768(6)
H17 H 0.2546 0.5925 0.6172
C26 C 0.4250(3) 0.46707(18) 0.61131(6)
H18 H 0.5120 0.4570 0.5953
H19 H 0.4665 0.4574 0.6345
C27 C 0.2955(3) 0.8684(2) 0.61583(7)
C28 C 0.4023(3) 0.0725(2) 0.49666(6)
C29 C 0.8089(3) 0.2769(2) 0.71241(5)
H20 H 0.7549 0.3343 0.7273
C30 C 0.7261(3) 0.1608(2) 0.71588(6)
H21 H 0.7791 0.1114 0.7328
H22 H 0.6178 0.1727 0.7233
C31 C 0.5180(2) 0.1326(2) 0.51888(5)
H23 H 0.5193 0.2161 0.5121
C32 C 0.9170(3) 0.6043(2) 0.66359(6)
O10 O 0.3023(5) 0.5777(2) 0.54798(6)
C33 C 0.5474(3) 0.8328(2) 0.74222(7)
H24 H 0.5789 0.7947 0.7624
H25 H 0.5319 0.9143 0.7422
C34 C 0.3260(3) 0.9563(2) 0.64340(8)
H26 H 0.2368 1.0100 0.6445
H27 H 0.4178 1.0025 0.6369
C35 C 1.0617(3) 0.4853(2) 0.70856(7)
H28 H 1.0859 0.5594 0.7201
H29 H 1.1505 0.4654 0.6938
C36 C 0.3530(3) 0.9064(2) 0.67872(7)
H30 H 0.2544 0.8744 0.6874
H31 H 0.3849 0.9699 0.6941
C37 C 1.0662(3) 0.1821(3) 0.72010(7)
H32 H 1.1712 0.1849 0.7271
H33 H 1.0239 0.1119 0.7116
C38 C 0.3548(4) 0.6319(2) 0.57135(8)
C39 C 1.0409(3) 0.3894(3) 0.73550(7)
H34 H 1.1421 0.3750 0.7465
H35 H 0.9694 0.4182 0.7532
C40 C 0.4266(4) 0.7503(2) 0.56857(7)
H36 H 0.3626 0.8013 0.5541
H37 H 0.5315 0.7450 0.5586
C41 C 0.4185(4) 0.0142(3) 0.46840(7)
H38 H 0.3304 -0.0177 0.4575
H39 H 0.5184 0.0038 0.4588
C42 C 0.9420(4) 0.7149(2) 0.67035(9)
H40 H 0.9275 0.7717 0.6532
H41 H 0.9746 0.7377 0.6924
C43 C 0.7927(3) 0.1565(3) 0.54123(6)
H42 H 0.9003 0.1392 0.5344
H43 H 0.7756 0.2404 0.5374
C44 C 0.6835(3) 0.0893(4) 0.51768(7)
H44 H 0.7222 0.0955 0.4941
H45 H 0.6853 0.0064 0.5241
C45 C 0.1581(4) 0.8583(3) 0.60152(9)
H46 H 0.0755 0.9070 0.6085
H47 H 0.1418 0.8024 0.5842
H48 H 0.813(4) -0.022(3) 0.5704(8)
loop_
_geom_bond_atom_site_label_1
_geom_bond_atom_site_label_2
_geom_bond_site_symmetry_1
_geom_bond_site_symmetry_2
O1 C5 1_555 1_555
O2 C7 1_555 1_555
O3 C1 1_555 1_555
O4 C6 1_555 1_555
O5 C6 1_555 1_555
O6 C17 1_555 1_555
O7 C13 1_555 1_555
O8 C8 1_555 1_555
O9 C16 1_555 1_555
C1 C3 1_555 1_555
C2 C3 1_555 1_555
C3 C21 1_555 1_555
C4 C2 1_555 1_555
H1 C4 1_555 1_555
C5 C4 1_555 1_555
H2 C5 1_555 1_555
C6 C14 1_555 1_555
C7 H3 1_555 1_555
C8 O2 1_555 1_555
C9 C1 1_555 1_555
H4 C9 1_555 1_555
C10 H5 1_555 1_555
C11 C7 1_555 1_555
H6 C11 1_555 1_555
C12 C7 1_555 1_555
H7 C12 1_555 1_555
C13 O1 1_555 1_555
C14 C24 1_555 1_555
C15 O4 1_555 1_555
H8 C15 1_555 1_555
C16 C21 1_555 1_555
C17 C2 1_555 1_555
C18 H9 1_555 1_555
H10 C18 1_555 1_555
C19 C9 1_555 1_555
H11 C19 1_555 1_555
H12 C19 1_555 1_555
C20 C10 1_555 1_555
H13 C20 1_555 1_555
C21 C12 1_555 1_555
C22 C29 1_555 1_555
C23 C17 1_555 1_555
H14 C23 1_555 1_555
H15 C23 1_555 1_555
C24 C15 1_555 1_555
H16 C24 1_555 1_555
C25 C10 1_555 1_555
H17 C25 1_555 1_555
C26 C19 1_555 1_555
H18 C26 1_555 1_555
H19 C26 1_555 1_555
C27 C20 1_555 1_555
C28 C13 1_555 1_555
C29 C12 1_555 1_555
H20 C29 1_555 1_555
C30 C16 1_555 1_555
H21 C30 1_555 1_555
H22 C30 1_555 1_555
C31 C5 1_555 1_555
H23 C31 1_555 1_555
C32 C8 1_555 1_555
O10 C38 1_555 1_555
C33 C14 1_555 1_555
H24 C33 1_555 1_555
H25 C33 1_555 1_555
C34 C27 1_555 1_555
H26 C34 1_555 1_555
H27 C34 1_555 1_555
C35 C11 1_555 1_555
H28 C35 1_555 1_555
H29 C35 1_555 1_555
C36 C24 1_555 1_555
H30 C36 1_555 1_555
H31 C36 1_555 1_555
C37 C22 1_555 1_555
H32 C37 1_555 1_555
H33 C37 1_555 1_555
C38 C25 1_555 1_555
C39 C22 1_555 1_555
H34 C39 1_555 1_555
H35 C39 1_555 1_555
C40 C20 1_555 1_555
H36 C40 1_555 1_555
H37 C40 1_555 1_555
C41 C28 1_555 1_555
H38 C41 1_555 1_555
H39 C41 1_555 1_555
C42 C32 1_555 1_555
H40 C42 1_555 1_555
H41 C42 1_555 1_555
C43 C17 1_555 1_555
H42 C43 1_555 1_555
H43 C43 1_555 1_555
C44 C31 1_555 1_555
H44 C44 1_555 1_555
H45 C44 1_555 1_555
C45 C27 1_555 1_555
H46 C45 1_555 1_555
H47 C45 1_555 1_555
H48 O6 1_555 1_555
C4 C9 1_555 1_555
C10 C15 1_555 1_555
C11 C32 1_555 1_555
C18 C21 1_555 1_555
C18 C23 1_555 1_555
C25 C26 1_555 1_555
C28 C31 1_555 1_555
C29 C30 1_555 1_555
C34 C36 1_555 1_555
C35 C39 1_555 1_555
C38 C40 1_555 1_555
C43 C44 1_555 1_555

#END
