
#######################################################################
#
#                 Cambridge Crystallographic Data Centre
#                                CCDC 
#
#######################################################################
#
# If this CIF has been generated from an entry in the Cambridge 
# Structural Database, then it will include bibliographic, chemical, 
# crystal, experimental, refinement or atomic coordinate data resulting 
# from the CCDC's data processing and validation procedures.
#
#######################################################################

data_HIMJUL
_chemical_formula_moiety         'C22 H21 F1 O3 S2'
_chemical_name_systematic        
'methyl 8-fluoro-4-(4-methylphenyl)-2-[(methylsulfanyl)methyl]-3,4-dihydro-2H-[1]benzothieno[3,2-b]pyran-3-carboxylate'
_symmetry_cell_setting           triclinic
_symmetry_space_group_name_H-M   'P -1'
_symmetry_Int_Tables_number      2
_space_group_name_Hall           '-P 1'
loop_
_symmetry_equiv_pos_site_id
_symmetry_equiv_pos_as_xyz
1 x,y,z
2 -x,-y,-z
_cell_length_a                   8.7061(7)
_cell_length_b                   10.3173(7)
_cell_length_c                   12.3890(8)
_cell_angle_alpha                78.715(6)
_cell_angle_beta                 73.044(7)
_cell_angle_gamma                87.566(6)
_cell_volume                     1043.74
_exptl_crystal_description       block
_cell_formula_units_Z            2
loop_
_atom_site_label
_atom_site_type_symbol
_atom_site_fract_x
_atom_site_fract_y
_atom_site_fract_z
S1 S 0.76576(6) 0.04218(5) 0.41219(5)
S2 S 0.13973(7) 0.44312(6) 0.60285(5)
O1 O 0.45521(15) 0.30526(13) 0.52464(11)
F1 F 0.6164(2) 0.07362(17) 0.89762(12)
O2 O 0.4473(2) 0.53994(15) 0.18137(14)
O3 O 0.3358(3) 0.34498(18) 0.19447(17)
C1 C 0.7355(2) 0.24191(19) 0.19009(16)
C2 C 0.5654(2) 0.20677(18) 0.50609(16)
C3 C 0.5868(2) 0.22865(18) 0.29481(16)
H1 H 0.5092 0.1700 0.2841
C4 C 0.5028(2) 0.36110(18) 0.31514(16)
H2 H 0.5828 0.4267 0.3122
C5 C 0.6276(2) 0.16855(18) 0.40367(17)
C6 C 0.3764(2) 0.33796(19) 0.43535(16)
H3 H 0.3060 0.2638 0.4409
C7 C 0.6238(2) 0.13609(18) 0.59835(17)
C8 C 0.7376(2) 0.04222(19) 0.55797(18)
C9 C 0.7495(3) 0.1643(2) 0.10864(18)
H4 H 0.6640 0.1101 0.1137
C10 C 0.4192(3) 0.4114(2) 0.22370(18)
C11 C 0.2734(2) 0.4579(2) 0.45864(19)
H5 H 0.2096 0.4751 0.4050
H6 H 0.3438 0.5339 0.4431
C12 C 0.8116(3) -0.0392(2) 0.6318(2)
H7 H 0.8868 -0.1008 0.6049
C13 C 0.5819(3) 0.1488(2) 0.71339(18)
H8 H 0.5070 0.2101 0.7414
C14 C 0.8902(3) 0.1664(3) 0.0193(2)
H9 H 0.8975 0.1129 -0.0342
C15 C 0.8654(3) 0.3221(3) 0.1788(2)
H10 H 0.8588 0.3757 0.2322
C16 C 0.6566(3) 0.0660(2) 0.78338(18)
C17 C 0.7707(3) -0.0262(2) 0.7452(2)
H11 H 0.8190 -0.0786 0.7958
C18 C 1.0201(3) 0.2463(3) 0.00809(19)
C19 C 1.0047(3) 0.3232(3) 0.0890(2)
H12 H 1.0902 0.3777 0.0835
C20 C 0.3599(4) 0.5999(3) 0.1010(3)
H13 H 0.3610 0.5420 0.0488
H14 H 0.4100 0.6829 0.0585
H15 H 0.2509 0.6144 0.1426
C21 C 1.1758(3) 0.2446(4) -0.0872(3)
H16 H 1.2570 0.2017 -0.0551
H17 H 1.2097 0.3337 -0.1243
H18 H 1.1591 0.1973 -0.1424
C22 C 0.0233(4) 0.2977(3) 0.6150(3)
H19 H -0.0122 0.3047 0.5477
H20 H -0.0682 0.2902 0.6818
H21 H 0.0885 0.2209 0.6219
loop_
_geom_bond_atom_site_label_1
_geom_bond_atom_site_label_2
_geom_bond_site_symmetry_1
_geom_bond_site_symmetry_2
S1 C5 1_555 1_555
S2 C11 1_555 1_555
O1 C2 1_555 1_555
F1 C16 1_555 1_555
O2 C10 1_555 1_555
O3 C10 1_555 1_555
C1 C3 1_555 1_555
C2 C5 1_555 1_555
C3 H1 1_555 1_555
C4 C3 1_555 1_555
H2 C4 1_555 1_555
C5 C3 1_555 1_555
C6 O1 1_555 1_555
H3 C6 1_555 1_555
C7 C2 1_555 1_555
C8 S1 1_555 1_555
C9 C1 1_555 1_555
H4 C9 1_555 1_555
C10 C4 1_555 1_555
C11 C6 1_555 1_555
H5 C11 1_555 1_555
H6 C11 1_555 1_555
C12 C8 1_555 1_555
H7 C12 1_555 1_555
C13 C7 1_555 1_555
H8 C13 1_555 1_555
C14 C9 1_555 1_555
H9 C14 1_555 1_555
C15 C1 1_555 1_555
H10 C15 1_555 1_555
C16 C13 1_555 1_555
C17 C12 1_555 1_555
H11 C17 1_555 1_555
C18 C14 1_555 1_555
C19 C15 1_555 1_555
H12 C19 1_555 1_555
C20 O2 1_555 1_555
H13 C20 1_555 1_555
H14 C20 1_555 1_555
H15 C20 1_555 1_555
C21 C18 1_555 1_555
H16 C21 1_555 1_555
H17 C21 1_555 1_555
H18 C21 1_555 1_555
C22 S2 1_555 1_555
H19 C22 1_555 1_555
H20 C22 1_555 1_555
H21 C22 1_555 1_555
C4 C6 1_555 1_555
C7 C8 1_555 1_555
C16 C17 1_555 1_555
C18 C19 1_555 1_555

#END
