
#######################################################################
#
#                 Cambridge Crystallographic Data Centre
#                                CCDC 
#
#######################################################################
#
# If this CIF has been generated from an entry in the Cambridge 
# Structural Database, then it will include bibliographic, chemical, 
# crystal, experimental, refinement or atomic coordinate data resulting 
# from the CCDC's data processing and validation procedures.
#
#######################################################################

data_HIMNOH01
_chemical_formula_moiety         'C16 H24 N2 O6'
_chemical_name_systematic        
anti-(N,N,N',N'-tetrakis(2-hydroxyethyl)terephthalamide)
_symmetry_cell_setting           orthorhombic
_symmetry_space_group_name_H-M   'P b c a'
_symmetry_Int_Tables_number      61
_space_group_name_Hall           '-P 2ac 2ab'
loop_
_symmetry_equiv_pos_site_id
_symmetry_equiv_pos_as_xyz
1 x,y,z
2 1/2-x,-y,1/2+z
3 -x,1/2+y,1/2-z
4 1/2+x,1/2-y,-z
5 -x,-y,-z
6 1/2+x,y,1/2-z
7 x,1/2-y,1/2+z
8 1/2-x,1/2+y,z
_cell_length_a                   10.3244(12)
_cell_length_b                   12.5378(14)
_cell_length_c                   12.8384(15)
_cell_angle_alpha                90
_cell_angle_beta                 90
_cell_angle_gamma                90
_cell_volume                     1661.87
_exptl_crystal_colour            colorless
_exptl_crystal_description       block
_cell_formula_units_Z            4
_exptl_crystal_recrystallization_method methanol/dimethylformamide
loop_
_atom_site_label
_atom_site_type_symbol
_atom_site_fract_x
_atom_site_fract_y
_atom_site_fract_z
C1 C 0.78238(19) 0.31459(17) 0.30476(16)
H1 H 0.8162 0.3857 0.3168
H2 H 0.8130 0.2906 0.2373
C2 C 0.63782(13) 0.31829(14) 0.30437(14)
H3 H 0.6033 0.2481 0.2887
H4 H 0.6064 0.3396 0.3725
O1 O 0.59529(19) 0.39348(12) 0.22709(12)
H5 H 0.6203 0.4534 0.2429
C5 C 0.93464(15) 0.07120(12) 0.43518(12)
C6 C 1.06224(16) 0.04283(12) 0.41398(13)
H11 H 1.1041 0.0714 0.3562
C7 C 0.87299(16) 0.02751(13) 0.52163(14)
H12 H 0.7876 0.0458 0.5362
C8 C 0.86624(17) 0.14222(13) 0.35884(14)
C9 C 0.84524(17) 0.28318(13) 0.49384(14)
H13 H 0.8715 0.2257 0.5398
H14 H 0.7615 0.3087 0.5175
C10 C 0.94175(18) 0.37226(15) 0.50233(16)
H15 H 0.9164 0.4296 0.4559
H16 H 0.9410 0.3999 0.5729
N1 N 0.83155(14) 0.24090(12) 0.38745(12)
O3 O 0.84678(17) 0.10814(11) 0.26939(11)
O4 O 1.06824(13) 0.33898(13) 0.47707(12)
H17 H 1.0808 0.3474 0.4145
C1D C 1.21762(19) -0.31459(17) 0.69524(16)
H1D H 1.1838 -0.3857 0.6832
H2D H 1.1870 -0.2906 0.7627
C2D C 1.36218(13) -0.31829(14) 0.69563(14)
H3D H 1.3967 -0.2481 0.7113
H4D H 1.3936 -0.3396 0.6275
O1D O 1.40471(19) -0.39348(12) 0.77291(12)
H5D H 1.3797 -0.4534 0.7571
C5D C 1.06536(15) -0.07120(12) 0.56482(12)
C6D C 0.93776(16) -0.04283(12) 0.58602(13)
H11D H 0.8959 -0.0714 0.6438
C7D C 1.12701(16) -0.02751(13) 0.47837(14)
H12D H 1.2124 -0.0458 0.4638
C8D C 1.13376(17) -0.14222(13) 0.64116(14)
C9D C 1.15476(17) -0.28318(13) 0.50616(14)
H13D H 1.1285 -0.2257 0.4602
H14D H 1.2385 -0.3087 0.4825
C10D C 1.05825(18) -0.37226(15) 0.49767(16)
H15D H 1.0836 -0.4296 0.5441
H16D H 1.0590 -0.3999 0.4271
N1D N 1.16845(14) -0.24090(12) 0.61255(12)
O3D O 1.15322(17) -0.10814(11) 0.73061(11)
O4D O 0.93176(13) -0.33898(13) 0.52293(12)
H17D H 0.9192 -0.3474 0.5855
C3? C 0.70527(19) 0.28471(18) 0.34485(17)
H6? H 0.6561 0.3216 0.3982
H7? H 0.6523 0.2288 0.3147
C4? C 0.75511(17) 0.36199(17) 0.26151(16)
H8? H 0.8070 0.4170 0.2944
H9? H 0.8102 0.3236 0.2131
O2? O 0.6539(2) 0.40926(16) 0.20721(15)
H10? H 0.5952 0.3659 0.1996
loop_
_geom_bond_atom_site_label_1
_geom_bond_atom_site_label_2
_geom_bond_site_symmetry_1
_geom_bond_site_symmetry_2
C1 H1 1_555 1_555
H2 C1 1_555 1_555
C2 C1 1_555 1_555
H3 C2 1_555 1_555
H4 C2 1_555 1_555
O1 C2 1_555 1_555
H5 O1 1_555 1_555
C5 C6 1_555 1_555
C6 H11 1_555 1_555
C7 C5 1_555 1_555
H12 C7 1_555 1_555
C8 C5 1_555 1_555
C9 H13 1_555 1_555
H14 C9 1_555 1_555
C10 C9 1_555 1_555
H15 C10 1_555 1_555
H16 C10 1_555 1_555
N1 C1 1_555 1_555
O3 C8 1_555 1_555
O4 C10 1_555 1_555
H17 O4 1_555 1_555
C1D H1D 1_555 1_555
H2D C1D 1_555 1_555
C2D C1D 1_555 1_555
H3D C2D 1_555 1_555
H4D C2D 1_555 1_555
O1D C2D 1_555 1_555
H5D O1D 1_555 1_555
C5D C6D 1_555 1_555
C6D C7 1_555 1_555
H11D C6D 1_555 1_555
C7D C6 1_555 1_555
H12D C7D 1_555 1_555
C8D C5D 1_555 1_555
C9D H13D 1_555 1_555
H14D C9D 1_555 1_555
C10D C9D 1_555 1_555
H15D C10D 1_555 1_555
H16D C10D 1_555 1_555
N1D C1D 1_555 1_555
O3D C8D 1_555 1_555
O4D C10D 1_555 1_555
H17D O4D 1_555 1_555
C8 N1 1_555 1_555
C9 N1 1_555 1_555
C5D C7D 1_555 1_555
C8D N1D 1_555 1_555
C9D N1D 1_555 1_555

#END
