
#######################################################################
#
#                 Cambridge Crystallographic Data Centre
#                                CCDC 
#
#######################################################################
#
# If this CIF has been generated from an entry in the Cambridge 
# Structural Database, then it will include bibliographic, chemical, 
# crystal, experimental, refinement or atomic coordinate data resulting 
# from the CCDC's data processing and validation procedures.
#
#######################################################################

data_HIMQUS
_chemical_formula_moiety         'C8 H7 N1 O2 S1'
_chemical_name_systematic        6-nitro-2,3-dihydro-1-benzothiophene
_symmetry_cell_setting           triclinic
_symmetry_space_group_name_H-M   'P -1'
_symmetry_Int_Tables_number      2
_space_group_name_Hall           '-P 1'
loop_
_symmetry_equiv_pos_site_id
_symmetry_equiv_pos_as_xyz
1 x,y,z
2 -x,-y,-z
_cell_length_a                   7.1620(5)
_cell_length_b                   9.6670(7)
_cell_length_c                   12.2413(9)
_cell_angle_alpha                95.148(2)
_cell_angle_beta                 104.397(2)
_cell_angle_gamma                92.431(2)
_cell_volume                     815.758
_exptl_crystal_colour            yellow
_exptl_crystal_description       block
_cell_formula_units_Z            4
loop_
_atom_site_label
_atom_site_type_symbol
_atom_site_fract_x
_atom_site_fract_y
_atom_site_fract_z
S1 S 0.19004(9) 0.11461(5) 0.44443(5)
O1 O 0.1528(3) 0.61782(19) 0.29280(16)
O2 O 0.2576(3) 0.76598(17) 0.43715(18)
N1 N 0.2160(3) 0.64724(18) 0.39402(18)
C1 C 0.3045(4) 0.0734(2) 0.5866(2)
H1 H 0.2431 -0.0110 0.6028
H2 H 0.4404 0.0600 0.5941
C2 C 0.2808(4) 0.1952(3) 0.66669(19)
H3 H 0.3864 0.2039 0.7347
H4 H 0.1604 0.1821 0.6884
C3 C 0.2802(3) 0.3240(2) 0.60552(16)
C4 C 0.2262(3) 0.29402(19) 0.48800(15)
C5 C 0.2051(3) 0.39930(19) 0.41796(15)
H5 H 0.1682 0.3798 0.3395
C6 C 0.2404(3) 0.53454(19) 0.46805(16)
C7 C 0.2992(3) 0.5672(2) 0.58318(18)
H6 H 0.3252 0.6594 0.6144
C8 C 0.3190(3) 0.4605(2) 0.65162(17)
H7 H 0.3590 0.4809 0.7299
S2 S 0.17755(9) -0.23382(6) -0.16794(5)
O3 O 0.3236(3) 0.30559(17) -0.02906(19)
O4 O 0.3331(3) 0.33070(18) 0.14819(18)
N2 N 0.3159(3) 0.25832(19) 0.05882(19)
C9 C 0.1826(4) -0.3796(2) -0.0855(2)
H8 H 0.0686 -0.4419 -0.1177
H9 H 0.2955 -0.4307 -0.0876
C10 C 0.1884(4) -0.3298(2) 0.0342(2)
H10 H 0.2898 -0.3730 0.0854
H11 H 0.0662 -0.3554 0.0502
C11 C 0.2261(3) -0.1746(2) 0.05213(16)
C12 C 0.2229(2) -0.11397(18) -0.04716(15)
C13 C 0.2521(3) 0.02824(19) -0.04642(16)
H12 H 0.2496 0.0689 -0.1127
C14 C 0.2850(3) 0.10730(19) 0.05675(17)
C15 C 0.2884(3) 0.0509(2) 0.15631(17)
H13 H 0.3107 0.1076 0.2244
C16 C 0.2581(3) -0.0908(2) 0.15319(17)
H14 H 0.2592 -0.1305 0.2198
loop_
_geom_bond_atom_site_label_1
_geom_bond_atom_site_label_2
_geom_bond_site_symmetry_1
_geom_bond_site_symmetry_2
S1 C1 1_555 1_555
O1 N1 1_555 1_555
O2 N1 1_555 1_555
N1 C6 1_555 1_555
C1 H1 1_555 1_555
H2 C1 1_555 1_555
C2 C1 1_555 1_555
H3 C2 1_555 1_555
H4 C2 1_555 1_555
C3 C2 1_555 1_555
C4 S1 1_555 1_555
C5 C4 1_555 1_555
H5 C5 1_555 1_555
C6 C5 1_555 1_555
C7 C6 1_555 1_555
H6 C7 1_555 1_555
C8 C3 1_555 1_555
H7 C8 1_555 1_555
S2 C9 1_555 1_555
O3 N2 1_555 1_555
O4 N2 1_555 1_555
N2 C14 1_555 1_555
C9 H8 1_555 1_555
H9 C9 1_555 1_555
C10 C9 1_555 1_555
H10 C10 1_555 1_555
H11 C10 1_555 1_555
C11 C10 1_555 1_555
C12 S2 1_555 1_555
C13 C12 1_555 1_555
H12 C13 1_555 1_555
C14 C13 1_555 1_555
C15 C14 1_555 1_555
H13 C15 1_555 1_555
C16 C11 1_555 1_555
H14 C16 1_555 1_555
C3 C4 1_555 1_555
C7 C8 1_555 1_555
C11 C12 1_555 1_555
C15 C16 1_555 1_555

#END
