
#######################################################################
#
#                 Cambridge Crystallographic Data Centre
#                                CCDC 
#
#######################################################################
#
# If this CIF has been generated from an entry in the Cambridge 
# Structural Database, then it will include bibliographic, chemical, 
# crystal, experimental, refinement or atomic coordinate data resulting 
# from the CCDC's data processing and validation procedures.
#
#######################################################################

data_HIMSEE
_chemical_formula_moiety         'C17 H13 N1 O2'
_chemical_name_systematic        2-(1-oxyquinolinium-8-yl)-1-phenylethan-1-one
_symmetry_cell_setting           monoclinic
_symmetry_space_group_name_H-M   'P 21/c'
_symmetry_Int_Tables_number      14
_space_group_name_Hall           '-P 2ybc'
loop_
_symmetry_equiv_pos_site_id
_symmetry_equiv_pos_as_xyz
1 x,y,z
2 -x,1/2+y,1/2-z
3 -x,-y,-z
4 x,1/2-y,1/2+z
_cell_length_a                   10.5294(16)
_cell_length_b                   8.2031(4)
_cell_length_c                   15.4236(11)
_cell_angle_alpha                90
_cell_angle_beta                 100.966(9)
_cell_angle_gamma                90
_cell_volume                     1307.87
_exptl_crystal_colour            colorless
_exptl_crystal_description       prism
_cell_formula_units_Z            4
loop_
_atom_site_label
_atom_site_type_symbol
_atom_site_fract_x
_atom_site_fract_y
_atom_site_fract_z
C1 C 0.9433(2) -0.0953(2) 0.72211(14)
H1 H 0.9524 -0.0712 0.7819
C2 C 1.0329(2) -0.1976(2) 0.69496(17)
H2 H 1.1010 -0.2403 0.7360
C3 C 1.0207(2) -0.2350(2) 0.60868(17)
H3 H 1.0791 -0.3060 0.5902
C4 C 0.91959(17) -0.1664(2) 0.54658(14)
C5 C 0.83034(17) -0.05774(19) 0.57457(12)
C6 C 0.73121(17) 0.01817(19) 0.51232(13)
C7 C 0.7248(2) -0.0215(2) 0.42557(14)
H4 H 0.6605 0.0262 0.3835
C8 C 0.8105(2) -0.1307(2) 0.39697(14)
H5 H 0.8014 -0.1550 0.3372
C9 C 0.9060(2) -0.2004(2) 0.45576(15)
H6 H 0.9634 -0.2715 0.4363
C10 C 0.63519(18) 0.1407(2) 0.53491(14)
H7 H 0.5915 0.0934 0.5789
H8 H 0.5704 0.1619 0.4824
C11 C 0.69573(18) 0.3010(2) 0.56984(13)
C12 C 0.61369(17) 0.4189(2) 0.60817(12)
C13 C 0.48528(19) 0.3903(2) 0.61052(14)
H9 H 0.4465 0.2947 0.5861
C14 C 0.4132(2) 0.5004(2) 0.64835(15)
H10 H 0.3269 0.4789 0.6496
C15 C 0.4700(2) 0.6424(2) 0.68426(14)
H11 H 0.4227 0.7156 0.7116
C16 C 0.5963(2) 0.6762(2) 0.67974(14)
H12 H 0.6335 0.7742 0.7020
C17 C 0.66833(19) 0.5653(2) 0.64234(13)
H13 H 0.7540 0.5885 0.6399
N1 N 0.84400(16) -0.02971(17) 0.66559(11)
O1 O 0.75902(14) 0.05818(16) 0.69619(9)
O2 O 0.80643(14) 0.33481(16) 0.56471(11)
loop_
_geom_bond_atom_site_label_1
_geom_bond_atom_site_label_2
_geom_bond_site_symmetry_1
_geom_bond_site_symmetry_2
C1 H1 1_555 1_555
C2 C1 1_555 1_555
H2 C2 1_555 1_555
C3 C2 1_555 1_555
H3 C3 1_555 1_555
C4 C3 1_555 1_555
C5 C4 1_555 1_555
C6 C5 1_555 1_555
C7 C6 1_555 1_555
H4 C7 1_555 1_555
C8 C7 1_555 1_555
H5 C8 1_555 1_555
C9 C4 1_555 1_555
H6 C9 1_555 1_555
C10 C6 1_555 1_555
H7 C10 1_555 1_555
H8 C10 1_555 1_555
C11 C10 1_555 1_555
C12 C11 1_555 1_555
C13 C12 1_555 1_555
H9 C13 1_555 1_555
C14 C13 1_555 1_555
H10 C14 1_555 1_555
C15 C14 1_555 1_555
H11 C15 1_555 1_555
C16 C15 1_555 1_555
H12 C16 1_555 1_555
C17 C12 1_555 1_555
H13 C17 1_555 1_555
N1 C1 1_555 1_555
O1 N1 1_555 1_555
O2 C11 1_555 1_555
C5 N1 1_555 1_555
C8 C9 1_555 1_555
C16 C17 1_555 1_555

#END
