
#######################################################################
#
#                 Cambridge Crystallographic Data Centre
#                                CCDC 
#
#######################################################################
#
# If this CIF has been generated from an entry in the Cambridge 
# Structural Database, then it will include bibliographic, chemical, 
# crystal, experimental, refinement or atomic coordinate data resulting 
# from the CCDC's data processing and validation procedures.
#
#######################################################################

data_HIMSUS
_chemical_formula_moiety         'C14 H13 N1 O7'
_chemical_name_systematic        
'(E)-Dimethyl 2-(1-(4-nitrophenyl)-3-oxoprop-1-en-2-yl)malonate'
_symmetry_cell_setting           monoclinic
_symmetry_space_group_name_H-M   'P 21'
_symmetry_Int_Tables_number      4
_space_group_name_Hall           'P 2yb'
loop_
_symmetry_equiv_pos_site_id
_symmetry_equiv_pos_as_xyz
1 x,y,z
2 -x,1/2+y,-z
_cell_length_a                   8.9216(8)
_cell_length_b                   6.9662(6)
_cell_length_c                   11.5578(10)
_cell_angle_alpha                90
_cell_angle_beta                 99.224(4)
_cell_angle_gamma                90
_cell_volume                     709.025
_exptl_crystal_colour            colorless
_exptl_crystal_description       needle
_cell_formula_units_Z            2
loop_
_atom_site_label
_atom_site_type_symbol
_atom_site_fract_x
_atom_site_fract_y
_atom_site_fract_z
O1 O 0.39345(18) 0.1770(2) 0.43761(13)
O2 O 0.23225(15) 0.3524(3) 0.51048(11)
O3 O 0.77469(12) 0.8450(2) 0.01476(9)
O4 O 0.92680(12) 0.71982(18) 0.16951(9)
O5 O 0.99235(12) 1.1170(2) 0.25678(12)
O6 O 0.78826(11) 1.22448(17) 0.32782(9)
O7 O 0.71057(13) 1.29265(19) 0.06982(11)
N1 N 0.32541(15) 0.3272(2) 0.44425(11)
C1 C 0.35527(15) 0.4882(2) 0.36893(12)
C2 C 0.26726(16) 0.6507(2) 0.36393(14)
H1 H 0.1856 0.6581 0.4060
C3 C 0.30072(15) 0.8030(2) 0.29602(14)
H2 H 0.2393 0.9133 0.2898
C4 C 0.42535(14) 0.7946(2) 0.23621(12)
C5 C 0.50837(15) 0.6243(2) 0.23980(14)
H3 H 0.5888 0.6145 0.1966
C6 C 0.47405(16) 0.4699(2) 0.30591(13)
H4 H 0.5300 0.3552 0.3080
C7 C 0.46008(14) 0.9642(2) 0.17064(12)
H5 H 0.3758 1.0341 0.1335
C8 C 0.59717(14) 1.0333(2) 0.15656(11)
C9 C 0.75011(13) 0.95176(19) 0.20902(11)
H6 H 0.7334 0.8623 0.2723
C10 C 0.81817(14) 0.8360(2) 0.11817(12)
C11 C 1.00074(19) 0.6028(3) 0.09102(16)
H7 H 0.9247 0.5310 0.0390
H8 H 1.0705 0.5142 0.1366
H9 H 1.0564 0.6850 0.0451
C12 C 0.86045(15) 1.1070(2) 0.26420(12)
C13 C 0.8772(2) 1.3801(3) 0.38613(16)
H10 H 0.9602 1.3281 0.4419
H11 H 0.8134 1.4594 0.4271
H12 H 0.9178 1.4573 0.3285
C14 C 0.59706(16) 1.2087(2) 0.08539(13)
H13 H 0.5029 1.2583 0.0499
loop_
_geom_bond_atom_site_label_1
_geom_bond_atom_site_label_2
_geom_bond_site_symmetry_1
_geom_bond_site_symmetry_2
O1 N1 1_555 1_555
O2 N1 1_555 1_555
O3 C10 1_555 1_555
O4 C10 1_555 1_555
O5 C12 1_555 1_555
O6 C12 1_555 1_555
O7 C14 1_555 1_555
N1 C1 1_555 1_555
C1 C2 1_555 1_555
C2 H1 1_555 1_555
C3 C2 1_555 1_555
H2 C3 1_555 1_555
C4 C3 1_555 1_555
C5 C4 1_555 1_555
H3 C5 1_555 1_555
C6 C1 1_555 1_555
H4 C6 1_555 1_555
C7 C4 1_555 1_555
H5 C7 1_555 1_555
C8 C7 1_555 1_555
C9 C8 1_555 1_555
H6 C9 1_555 1_555
C10 C9 1_555 1_555
C11 O4 1_555 1_555
H7 C11 1_555 1_555
H8 C11 1_555 1_555
H9 C11 1_555 1_555
C12 C9 1_555 1_555
C13 O6 1_555 1_555
H10 C13 1_555 1_555
H11 C13 1_555 1_555
H12 C13 1_555 1_555
C14 C8 1_555 1_555
H13 C14 1_555 1_555
C5 C6 1_555 1_555

#END
