
#######################################################################
#
#                 Cambridge Crystallographic Data Centre
#                                CCDC 
#
#######################################################################
#
# If this CIF has been generated from an entry in the Cambridge 
# Structural Database, then it will include bibliographic, chemical, 
# crystal, experimental, refinement or atomic coordinate data resulting 
# from the CCDC's data processing and validation procedures.
#
#######################################################################

data_HIMTAZ
_chemical_formula_moiety         'C20 H18 Br1 N1 O5'
_chemical_name_systematic        
'(2R,3S)-Dimethyl 2-(4-bromophenylcarbamoyl)-3-phenylcyclopropane-1,1-dicarboxylate'
_symmetry_cell_setting           monoclinic
_symmetry_space_group_name_H-M   'P 21'
_symmetry_Int_Tables_number      4
_space_group_name_Hall           'P 2yb'
loop_
_symmetry_equiv_pos_site_id
_symmetry_equiv_pos_as_xyz
1 x,y,z
2 -x,1/2+y,-z
_cell_length_a                   11.5548(7)
_cell_length_b                   14.7492(8)
_cell_length_c                   11.6438(7)
_cell_angle_alpha                90
_cell_angle_beta                 92.817(3)
_cell_angle_gamma                90
_cell_volume                     1981.99
_exptl_crystal_colour            colorless
_exptl_crystal_description       needle
_cell_formula_units_Z            4
loop_
_atom_site_label
_atom_site_type_symbol
_atom_site_fract_x
_atom_site_fract_y
_atom_site_fract_z
Br1 Br 0.47849(4) 0.475792(18) 0.02813(4)
N1 N 0.5802(2) 0.84514(15) 0.2391(2)
H1 H 0.5222 0.8734 0.2678
O1 O 0.7694(2) 0.85179(16) 0.2097(3)
O2 O 0.9704(2) 0.93646(14) 0.3506(2)
O3 O 0.8579(2) 0.89238(15) 0.4906(2)
O4 O 0.6645(2) 1.10435(16) 0.4776(2)
O5 O 0.8513(2) 1.08771(16) 0.5313(2)
C1 C 0.4950(3) 0.6955(2) 0.2483(3)
H2 H 0.4664 0.7109 0.3200
C2 C 0.4710(3) 0.6107(2) 0.2009(4)
H3 H 0.4252 0.5687 0.2391
C3 C 0.5149(3) 0.59008(18) 0.0985(3)
C4 C 0.5821(3) 0.6494(2) 0.0406(3)
H4 H 0.6119 0.6332 -0.0302
C5 C 0.6055(3) 0.73405(19) 0.0889(3)
H5 H 0.6523 0.7756 0.0512
C6 C 0.5602(3) 0.7568(2) 0.1912(3)
C7 C 0.6828(3) 0.88627(19) 0.2420(3)
C8 C 0.6838(2) 0.9821(2) 0.2903(3)
H6 H 0.6079 1.0099 0.3049
C9 C 0.7860(2) 1.00798(18) 0.3710(2)
C10 C 0.7769(3) 1.04371(19) 0.2506(3)
H7 H 0.8303 1.0130 0.1992
C11 C 0.8825(3) 0.94230(19) 0.3999(3)
C12 C 0.9507(4) 0.8331(3) 0.5349(4)
H8 H 0.9720 0.7915 0.4750
H9 H 0.9243 0.7990 0.5999
H10 H 1.0174 0.8694 0.5593
C13 C 0.7565(3) 1.0709(2) 0.4659(3)
C14 C 0.8364(4) 1.1491(3) 0.6262(4)
H11 H 0.7651 1.1346 0.6628
H12 H 0.8328 1.2109 0.5978
H13 H 0.9014 1.1430 0.6816
C15 C 0.7591(3) 1.1422(2) 0.2216(3)
C16 C 0.6533(3) 1.1756(2) 0.1828(3)
H14 H 0.5877 1.1379 0.1793
C17 C 0.6443(4) 1.2664(2) 0.1486(3)
H15 H 0.5724 1.2898 0.1215
C18 C 0.7382(4) 1.3202(2) 0.1544(3)
H16 H 0.7318 1.3806 0.1289
C19 C 0.8422(4) 1.2887(2) 0.1967(3)
H17 H 0.9061 1.3281 0.2036
C20 C 0.8548(3) 1.1982(2) 0.2300(3)
H18 H 0.9271 1.1759 0.2577
Br2 Br 0.98125(4) -0.004902(18) 0.99207(4)
N2 N 0.8685(2) 0.37008(14) 0.8074(2)
H19 H 0.9308 0.4006 0.7939
O6 O 0.6721(2) 0.38249(14) 0.7941(2)
O7 O 0.5453(2) 0.44543(14) 0.5656(2)
O8 O 0.7119(2) 0.39118(15) 0.5033(2)
O9 O 0.8813(2) 0.61570(14) 0.5521(2)
O10 O 0.7386(2) 0.57631(17) 0.4242(2)
C21 C 0.8000(3) 0.22753(19) 0.8906(3)
H20 H 0.7227 0.2477 0.8868
C22 C 0.8280(3) 0.14188(19) 0.9326(3)
H21 H 0.7697 0.1031 0.9576
C23 C 0.9424(3) 0.11402(18) 0.9373(3)
C24 C 1.0300(3) 0.1693(2) 0.9056(3)
H22 H 1.1075 0.1498 0.9118
C25 C 1.0020(3) 0.2549(2) 0.8639(3)
H23 H 1.0609 0.2944 0.8421
C26 C 0.8874(3) 0.28258(19) 0.8544(3)
C27 C 0.7674(3) 0.41313(19) 0.7802(3)
C28 C 0.7858(2) 0.50441(18) 0.7278(3)
H24 H 0.8640 0.5310 0.7412
C29 C 0.7261(3) 0.52309(18) 0.6105(3)
C30 C 0.6876(3) 0.57001(18) 0.7182(3)
H25 H 0.6138 0.5473 0.7472
C31 C 0.6481(3) 0.45007(19) 0.5593(3)
C32 C 0.6476(4) 0.3208(2) 0.4422(4)
H26 H 0.6014 0.2877 0.4955
H27 H 0.7011 0.2796 0.4075
H28 H 0.5971 0.3479 0.3827
C33 C 0.7929(4) 0.5763(2) 0.5281(3)
C34 C 0.7967(5) 0.6216(3) 0.3339(4)
H29 H 0.8004 0.6861 0.3498
H30 H 0.7543 0.6115 0.2611
H31 H 0.8746 0.5977 0.3299
C35 C 0.7083(3) 0.6707(2) 0.7352(3)
C36 C 0.7882(4) 0.7000(2) 0.8195(4)
H32 H 0.8306 0.6576 0.8648
C37 C 0.8056(4) 0.7925(3) 0.8370(4)
H33 H 0.8605 0.8128 0.8934
C38 C 0.7429(4) 0.8532(3) 0.7720(5)
H34 H 0.7542 0.9156 0.7843
C39 C 0.6632(4) 0.8242(2) 0.6886(5)
H35 H 0.6205 0.8666 0.6436
C40 C 0.6461(3) 0.7316(2) 0.6711(4)
H36 H 0.5912 0.7114 0.6147
loop_
_geom_bond_atom_site_label_1
_geom_bond_atom_site_label_2
_geom_bond_site_symmetry_1
_geom_bond_site_symmetry_2
Br1 C3 1_555 1_555
N1 H1 1_555 1_555
O1 C7 1_555 1_555
O2 C11 1_555 1_555
O3 C11 1_555 1_555
O4 C13 1_555 1_555
O5 C13 1_555 1_555
C1 H2 1_555 1_555
C2 C1 1_555 1_555
H3 C2 1_555 1_555
C3 C2 1_555 1_555
C4 C3 1_555 1_555
H4 C4 1_555 1_555
C5 C4 1_555 1_555
H5 C5 1_555 1_555
C6 N1 1_555 1_555
C7 N1 1_555 1_555
C8 C7 1_555 1_555
H6 C8 1_555 1_555
C9 C8 1_555 1_555
C10 C8 1_555 1_555
H7 C10 1_555 1_555
C11 C9 1_555 1_555
C12 O3 1_555 1_555
H8 C12 1_555 1_555
H9 C12 1_555 1_555
H10 C12 1_555 1_555
C13 C9 1_555 1_555
C14 O5 1_555 1_555
H11 C14 1_555 1_555
H12 C14 1_555 1_555
H13 C14 1_555 1_555
C15 C10 1_555 1_555
C16 C15 1_555 1_555
H14 C16 1_555 1_555
C17 C16 1_555 1_555
H15 C17 1_555 1_555
C18 C17 1_555 1_555
H16 C18 1_555 1_555
C19 C18 1_555 1_555
H17 C19 1_555 1_555
C20 C15 1_555 1_555
H18 C20 1_555 1_555
Br2 C23 1_555 1_555
N2 H19 1_555 1_555
O6 C27 1_555 1_555
O7 C31 1_555 1_555
O8 C31 1_555 1_555
O9 C33 1_555 1_555
O10 C33 1_555 1_555
C21 H20 1_555 1_555
C22 C21 1_555 1_555
H21 C22 1_555 1_555
C23 C22 1_555 1_555
C24 C23 1_555 1_555
H22 C24 1_555 1_555
C25 C24 1_555 1_555
H23 C25 1_555 1_555
C26 N2 1_555 1_555
C27 N2 1_555 1_555
C28 C27 1_555 1_555
H24 C28 1_555 1_555
C29 C28 1_555 1_555
C30 C28 1_555 1_555
H25 C30 1_555 1_555
C31 C29 1_555 1_555
C32 O8 1_555 1_555
H26 C32 1_555 1_555
H27 C32 1_555 1_555
H28 C32 1_555 1_555
C33 C29 1_555 1_555
C34 O10 1_555 1_555
H29 C34 1_555 1_555
H30 C34 1_555 1_555
H31 C34 1_555 1_555
C35 C30 1_555 1_555
C36 C35 1_555 1_555
H32 C36 1_555 1_555
C37 C36 1_555 1_555
H33 C37 1_555 1_555
C38 C37 1_555 1_555
H34 C38 1_555 1_555
C39 C38 1_555 1_555
H35 C39 1_555 1_555
C40 C35 1_555 1_555
H36 C40 1_555 1_555
C1 C6 1_555 1_555
C5 C6 1_555 1_555
C9 C10 1_555 1_555
C19 C20 1_555 1_555
C21 C26 1_555 1_555
C25 C26 1_555 1_555
C29 C30 1_555 1_555
C39 C40 1_555 1_555

#END
