
#######################################################################
#
#                 Cambridge Crystallographic Data Centre
#                                CCDC 
#
#######################################################################
#
# If this CIF has been generated from an entry in the Cambridge 
# Structural Database, then it will include bibliographic, chemical, 
# crystal, experimental, refinement or atomic coordinate data resulting 
# from the CCDC's data processing and validation procedures.
#
#######################################################################

data_HIMTOM
_chemical_formula_moiety         'C32 H28 N2 O4'
_chemical_name_systematic        
6'-Diethylamino-2'-phenacylamino-spiro-(isobenzofuran-1(3H),9'-xanthen)-3-one
_symmetry_cell_setting           monoclinic
_symmetry_space_group_name_H-M   'P 21/c'
_symmetry_Int_Tables_number      14
_space_group_name_Hall           '-P 2ybc'
loop_
_symmetry_equiv_pos_site_id
_symmetry_equiv_pos_as_xyz
1 x,y,z
2 -x,1/2+y,1/2-z
3 -x,-y,-z
4 x,1/2-y,1/2+z
_cell_length_a                   11.778(3)
_cell_length_b                   8.416(3)
_cell_length_c                   26.310(6)
_cell_angle_alpha                90
_cell_angle_beta                 95.74(2)
_cell_angle_gamma                90
_cell_volume                     2594.87
_exptl_crystal_colour            'light yellow'
_cell_formula_units_Z            4
_exptl_crystal_recrystallization_method ethanol
loop_
_atom_site_label
_atom_site_type_symbol
_atom_site_fract_x
_atom_site_fract_y
_atom_site_fract_z
O1 O 0.6763(4) 0.1250(7) 0.1693(2)
O2 O 0.9336(4) 0.0410(7) 0.0882(2)
O3 O 1.0846(4) -0.0340(1) 0.0487(2)
O4 O 0.4863(5) 0.2437(9) -0.1332(2)
N1 N 0.8898(5) -0.0585(9) 0.3194(2)
N2 N 0.5799(5) 0.2201(9) -0.0392(2)
C1 C 0.82366(5) -0.033(1) 0.1022(3)
C2 C 0.9872(6) -0.061(1) 0.0592(3)
C3 C 0.6330(6) 0.134(1) -0.0768(3)
C4 C 0.5712(6) 0.163(1) -0.1291(3)
C5 C 0.9754(7) -0.159(1) 0.3468(3)
C6 C 1.0896(8) -0.080(1) 0.3531(4)
C7 C 0.8186(7) 0.029(1) 0.3521(3)
C8 C 0.7173(8) -0.061(1) 0.3658(4)
C9 C 0.7662(6) 0.035(1) 0.1897(3)
C10 C 0.8379(5) -0.045(1) 0.1594(3)
C11 C 0.9240(6) -0.134(1) 0.1853(3)
C12 C 0.9428(6) -0.138(1) 0.2376(3)
C13 C 0.8692(6) -0.054(1) 0.2676(3)
C14 C 0.7811(6) 0.033(1) 0.2419(3)
C15 C 0.6563(6) 0.138(1) 0.1172(3)
C16 C 0.7259(5) 0.0748(9) 0.0832(3)
C17 C 0.6992(6) 0.101(1) 0.0310(3)
C18 C 0.6076(6) 0.191(1) 0.0122(3)
C19 C 0.5354(6) 0.250(1) 0.0477(3)
C20 C 0.5614(6) 0.229(1) 0.0986(3)
C21 C 0.8199(6) -0.185(1) 0.0742(3)
C22 C 0.9134(7) -0.200(1) 0.0459(3)
C23 C 0.9219(8) -0.322(1) 0.0118(3)
C24 C 0.8374(9) -0.434(1) 0.0076(4)
C25 C 0.7461(8) -0.425(1) 0.0373(4)
C26 C 0.7378(7) -0.302(1) 0.0698(3)
C27 C 0.6141(6) 0.087(1) -0.1734(3)
C28 C 0.7214(7) 0.020(1) -0.1728(3)
C29 C 0.7579(7) -0.048(1) -0.2152(4)
C30 C 0.6875(7) -0.056(1) -0.2602(3)
C31 C 0.5809(8) 0.010(1) -0.2615(3)
C32 C 0.5461(7) 0.083(1) -0.2198(3)
loop_
_geom_bond_atom_site_label_1
_geom_bond_atom_site_label_2
_geom_bond_site_symmetry_1
_geom_bond_site_symmetry_2
O1 C9 1_555 1_555
O2 C1 1_555 1_555
O3 C2 1_555 1_555
O4 C4 1_555 1_555
N1 C5 1_555 1_555
N2 C3 1_555 1_555
C1 C10 1_555 1_555
C2 O2 1_555 1_555
C3 C4 1_555 1_555
C4 C27 1_555 1_555
C5 C6 1_555 1_555
C7 N1 1_555 1_555
C8 C7 1_555 1_555
C9 C10 1_555 1_555
C10 C11 1_555 1_555
C11 C12 1_555 1_555
C12 C13 1_555 1_555
C13 N1 1_555 1_555
C14 C9 1_555 1_555
C15 O1 1_555 1_555
C16 C1 1_555 1_555
C17 C16 1_555 1_555
C18 N2 1_555 1_555
C19 C18 1_555 1_555
C20 C15 1_555 1_555
C21 C1 1_555 1_555
C22 C2 1_555 1_555
C23 C22 1_555 1_555
C24 C23 1_555 1_555
C25 C24 1_555 1_555
C26 C21 1_555 1_555
C27 C28 1_555 1_555
C28 C29 1_555 1_555
C29 C30 1_555 1_555
C30 C31 1_555 1_555
C31 C32 1_555 1_555
C32 C27 1_555 1_555
C13 C14 1_555 1_555
C15 C16 1_555 1_555
C17 C18 1_555 1_555
C19 C20 1_555 1_555
C21 C22 1_555 1_555
C25 C26 1_555 1_555

#END
