
#######################################################################
#
#                 Cambridge Crystallographic Data Centre
#                                CCDC 
#
#######################################################################
#
# If this CIF has been generated from an entry in the Cambridge 
# Structural Database, then it will include bibliographic, chemical, 
# crystal, experimental, refinement or atomic coordinate data resulting 
# from the CCDC's data processing and validation procedures.
#
#######################################################################

data_HIMTIG
_chemical_formula_moiety         'C18 H21 Cl1 O4'
_chemical_name_systematic        
'Methyl 3-(2-chlorophenyl)-3-(5,5-dimethyl-3-hydroxycyclohex-2-en-1-on-2-yl)propionate'
_symmetry_cell_setting           monoclinic
_symmetry_space_group_name_H-M   'P 21/c'
_symmetry_Int_Tables_number      14
_space_group_name_Hall           '-P 2ybc'
loop_
_symmetry_equiv_pos_site_id
_symmetry_equiv_pos_as_xyz
1 x,y,z
2 -x,1/2+y,1/2-z
3 -x,-y,-z
4 x,1/2-y,1/2+z
_cell_length_a                   7.587(2)
_cell_length_b                   11.736(3)
_cell_length_c                   19.120(7)
_cell_angle_alpha                90
_cell_angle_beta                 101.30
_cell_angle_gamma                90
_cell_volume                     1669.46
_exptl_crystal_colour            colorless
_chemical_melting_point          174-176deg.C
_cell_formula_units_Z            4
_exptl_crystal_recrystallization_method ethanol
loop_
_atom_site_label
_atom_site_type_symbol
_atom_site_fract_x
_atom_site_fract_y
_atom_site_fract_z
Cl1 Cl 0.1612(1) 0.49371(8) 0.25273(5)
O1 O 0.3830(3) 0.8400(2) 0.0635(1)
O2 O 0.1920(3) 0.4612(2) 0.0383(1)
O3 O -0.1238(3) 0.7189(2) 0.0557(1)
O4 O -0.0429(3) 0.8960(2) 0.0861(1)
C1 C 0.3571(4) 0.7511(2) 0.0289(2)
C2 C 0.2826(3) 0.6493(2) 0.0558(2)
C3 C 0.2497(3) 0.5578(2) 0.0122(2)
C4 C 0.2750(5) 0.5549(3) -0.0629(2)
C5 C 0.2875(4) 0.6714(2) -0.0970(2)
C6 C 0.4117(4) 0.7439(3) -0.0423(2)
C7 C 0.1021(5) 0.7268(3) -0.1154(2)
C8 C 0.3642(7) 0.6582(4) -0.1639(2)
C9 C -0.0231(4) 0.7845(2) 0.0916(2)
C10 C 0.1356(4) 0.7524(3) 0.1484(2)
C11 C 0.2335(4) 0.6450(3) 0.1289(2)
C12 C 0.3903(4) 0.6188(2) 0.1901(2)
C13 C 0.5596(4) 0.6641(3) 0.1916(2)
C14 C 0.7012(5) 0.6430(4) 0.2477(2)
C15 C 0.6768(6) 0.5745(3) 0.3025(2)
C16 C 0.5131(5) 0.5281(3) 0.3038(2)
C17 C 0.3696(4) 0.5510(3) 0.2474(2)
C18 C -0.1951(6) 0.9379(4) 0.0342(3)
loop_
_geom_bond_atom_site_label_1
_geom_bond_atom_site_label_2
_geom_bond_site_symmetry_1
_geom_bond_site_symmetry_2
Cl1 C17 1_555 1_555
O1 C1 1_555 1_555
O2 C3 1_555 1_555
O3 C9 1_555 1_555
O4 C9 1_555 1_555
C1 C2 1_555 1_555
C2 C3 1_555 1_555
C3 C4 1_555 1_555
C4 C5 1_555 1_555
C5 C6 1_555 1_555
C6 C1 1_555 1_555
C7 C5 1_555 1_555
C8 C5 1_555 1_555
C9 C10 1_555 1_555
C10 C11 1_555 1_555
C11 C2 1_555 1_555
C12 C11 1_555 1_555
C13 C12 1_555 1_555
C14 C13 1_555 1_555
C15 C14 1_555 1_555
C16 C15 1_555 1_555
C17 C12 1_555 1_555
C18 O4 1_555 1_555
C16 C17 1_555 1_555

#END
