
#######################################################################
#
#                 Cambridge Crystallographic Data Centre
#                                CCDC 
#
#######################################################################
#
# If this CIF has been generated from an entry in the Cambridge 
# Structural Database, then it will include bibliographic, chemical, 
# crystal, experimental, refinement or atomic coordinate data resulting 
# from the CCDC's data processing and validation procedures.
#
#######################################################################

data_HIMVIL
_chemical_formula_moiety         'C22 H19 Cl1 O4 S1'
_chemical_name_systematic        
'isopropyl [3-(5-chloro-3-hydroxy-1-benzothiophen-2-yl)-2H-1-benzopyran-2-yl]acetate'
_symmetry_cell_setting           monoclinic
_symmetry_space_group_name_H-M   'C 2/c'
_symmetry_Int_Tables_number      15
_space_group_name_Hall           '-C 2yn'
loop_
_symmetry_equiv_pos_site_id
_symmetry_equiv_pos_as_xyz
1 x,y,z
2 -x,y,1/2-z
3 1/2+x,1/2+y,z
4 1/2-x,1/2+y,1/2-z
5 -x,-y,-z
6 x,-y,1/2+z
7 1/2-x,1/2-y,-z
8 1/2+x,1/2-y,1/2+z
_cell_length_a                   29.068(3)
_cell_length_b                   8.7264(8)
_cell_length_c                   17.6647(17)
_cell_angle_alpha                90
_cell_angle_beta                 98.078(10)
_cell_angle_gamma                90
_cell_volume                     4436.35
_exptl_crystal_description       block
_cell_formula_units_Z            8
loop_
_atom_site_label
_atom_site_type_symbol
_atom_site_fract_x
_atom_site_fract_y
_atom_site_fract_z
S1 S 0.54731(3) 0.86239(8) 0.54038(4)
Cl1 Cl 0.72135(3) 0.68954(14) 0.76660(6)
O1 O 0.39468(7) 0.6716(2) 0.59921(10)
O2 O 0.40672(8) 0.3751(2) 0.71031(11)
O3 O 0.53414(7) 0.5275(3) 0.68077(12)
H1 H 0.556196 0.494796 0.710447
O4 O 0.37347(8) 0.2755(3) 0.60057(11)
C1 C 0.59447(9) 0.7078(3) 0.65050(15)
C2 C 0.44072(10) 0.6070(3) 0.60864(15)
H2 H 0.454868 0.624184 0.661657
C3 C 0.39979(10) 0.6993(3) 0.46605(17)
C4 C 0.54844(9) 0.6454(3) 0.64002(15)
C5 C 0.40486(10) 0.3611(3) 0.64165(17)
C6 C 0.59884(10) 0.8267(3) 0.59892(16)
C7 C 0.51904(9) 0.7154(3) 0.58340(14)
C8 C 0.47070(9) 0.6849(3) 0.55689(14)
C9 C 0.43736(10) 0.4352(3) 0.59522(16)
H3 H 0.426895 0.415911 0.541479
H4 H 0.467954 0.389997 0.607941
C10 C 0.37367(10) 0.6771(3) 0.52425(17)
C11 C 0.63271(10) 0.6651(4) 0.70303(17)
H5 H 0.630494 0.586538 0.737888
C12 C 0.44945(10) 0.7227(3) 0.48661(16)
H6 H 0.466700 0.763933 0.451025
C13 C 0.64050(11) 0.9026(3) 0.59895(19)
H7 H 0.643102 0.981849 0.564630
C14 C 0.37721(11) 0.7069(3) 0.39119(17)
H8 H 0.394305 0.723360 0.351219
C15 C 0.67810(11) 0.8589(4) 0.6506(2)
H9 H 0.706560 0.907924 0.651092
C16 C 0.67345(11) 0.7421(4) 0.70178(19)
C17 C 0.32996(13) 0.6901(4) 0.3761(2)
H10 H 0.315205 0.691812 0.325877
C18 C 0.32554(11) 0.6667(4) 0.5101(2)
H11 H 0.308060 0.657222 0.550052
C19 C 0.30433(13) 0.6708(4) 0.4351(3)
H12 H 0.272236 0.660423 0.424396
C20 C 0.2922(2) 0.2123(10) 0.5767(4)
H13 H 0.283698 0.315711 0.562363
H14 H 0.266912 0.163238 0.596620
H15 H 0.299166 0.157211 0.532624
C21 C 0.3479(3) 0.0646(11) 0.6673(7)
H16 H 0.365458 0.012280 0.632967
H17 H 0.320988 0.005164 0.673816
H18 H 0.366894 0.078000 0.715860
C22 C 0.3335(4) 0.2136(14) 0.6356(5)
H19 H 0.327538 0.281446 0.677384
C23? C 0.3444(6) 0.1766(17) 0.6441(10)
H20? H 0.358563 0.167850 0.697628
C24? C 0.3040(5) 0.2789(16) 0.6372(10)
H21? H 0.313617 0.378800 0.655989
H22? H 0.281393 0.238655 0.666607
H23? H 0.290570 0.286331 0.584482
C25? C 0.3378(5) 0.0256(11) 0.6091(10)
H24? H 0.331423 0.036170 0.554593
H25? H 0.312195 -0.024851 0.627515
H26? H 0.365520 -0.034216 0.622319
loop_
_geom_bond_atom_site_label_1
_geom_bond_atom_site_label_2
_geom_bond_site_symmetry_1
_geom_bond_site_symmetry_2
S1 C6 1_555 1_555
Cl1 C16 1_555 1_555
O1 C2 1_555 1_555
O2 C5 1_555 1_555
O3 H1 1_555 1_555
O4 C5 1_555 1_555
C1 C4 1_555 1_555
C2 H2 1_555 1_555
C3 C10 1_555 1_555
C4 O3 1_555 1_555
C5 C9 1_555 1_555
C6 C1 1_555 1_555
C7 S1 1_555 1_555
C8 C2 1_555 1_555
C9 C2 1_555 1_555
H3 C9 1_555 1_555
H4 C9 1_555 1_555
C10 O1 1_555 1_555
C11 C1 1_555 1_555
H5 C11 1_555 1_555
C12 C3 1_555 1_555
H6 C12 1_555 1_555
C13 C6 1_555 1_555
H7 C13 1_555 1_555
C14 C3 1_555 1_555
H8 C14 1_555 1_555
C15 C13 1_555 1_555
H9 C15 1_555 1_555
C16 C11 1_555 1_555
C17 C14 1_555 1_555
H10 C17 1_555 1_555
C18 C10 1_555 1_555
H11 C18 1_555 1_555
C19 C17 1_555 1_555
H12 C19 1_555 1_555
C20 H13 1_555 1_555
H14 C20 1_555 1_555
H15 C20 1_555 1_555
C21 H16 1_555 1_555
H17 C21 1_555 1_555
H18 C21 1_555 1_555
C22 O4 1_555 1_555
H19 C22 1_555 1_555
C4 C7 1_555 1_555
C7 C8 1_555 1_555
C8 C12 1_555 1_555
C15 C16 1_555 1_555
C18 C19 1_555 1_555
C20 C22 1_555 1_555
C21 C22 1_555 1_555

#END
