
#######################################################################
#
#                 Cambridge Crystallographic Data Centre
#                                CCDC 
#
#######################################################################
#
# If this CIF has been generated from an entry in the Cambridge 
# Structural Database, then it will include bibliographic, chemical, 
# crystal, experimental, refinement or atomic coordinate data resulting 
# from the CCDC's data processing and validation procedures.
#
#######################################################################

data_HIMWOQ
_chemical_formula_moiety         'C15 H14 Cl2 N4 O2 S2'
_chemical_name_systematic        
'2-(3,4-Dichlorophenyl)-2-oxo-1-(1H-1,2,4-triazol-1-yl)ethyl morpholine-4-carbodithioate'
_chemical_properties_biological  
'fungicidal and plant growth regulating activity'
_symmetry_cell_setting           triclinic
_symmetry_space_group_name_H-M   'P -1'
_symmetry_Int_Tables_number      2
_space_group_name_Hall           '-P 1'
loop_
_symmetry_equiv_pos_site_id
_symmetry_equiv_pos_as_xyz
1 x,y,z
2 -x,-y,-z
_cell_length_a                   7.300(3)
_cell_length_b                   7.588(3)
_cell_length_c                   18.035(8)
_cell_angle_alpha                79.113(7)
_cell_angle_beta                 79.256(7)
_cell_angle_gamma                71.697(7)
_cell_volume                     922.694
_chemical_melting_point          142.6-143.1deg.C
_cell_formula_units_Z            2
_exptl_crystal_recrystallization_method 'ethyl acetate/petroleum ether'
loop_
_atom_site_label
_atom_site_type_symbol
_atom_site_fract_x
_atom_site_fract_y
_atom_site_fract_z
Cl1 Cl 0.3156(5) 0.1469(5) 0.5815(2)
Cl2 Cl 0.2075(6) 0.5320(6) 0.63968(17)
S1 S 0.4277(3) 0.8310(4) 0.23952(13)
S2 S 0.2929(3) 0.6051(4) 0.15060(16)
O1 O 0.1298(13) 1.0107(12) 0.3879(4)
O2 O 0.9102(12) 0.7811(12) -0.0047(4)
N1 N 0.6194(10) 0.7061(11) 0.1133(4)
N2 N 0.0481(11) 1.0307(10) 0.2450(4)
N3 N -0.1358(13) 1.0342(13) 0.2383(5)
N4 N -0.0884(17) 1.3197(14) 0.1995(6)
C1 C 0.2650(16) 0.5044(14) 0.3910(6)
H1 H 0.2752 0.4979 0.3393
C2 C 0.3000(17) 0.340(2) 0.4421(7)
H2 H 0.3365 0.2241 0.4251
C3 C 0.2800(15) 0.3530(17) 0.5171(6)
C4 C 0.2313(13) 0.5205(18) 0.5431(5)
C5 C 0.1993(14) 0.6876(18) 0.4929(5)
H3 H 0.1682 0.8022 0.5107
C6 C 0.2149(13) 0.6790(16) 0.4155(5)
C7 C 0.1681(13) 0.8630(14) 0.3646(5)
C8 C 0.1744(12) 0.8619(13) 0.2792(5)
H4 H 0.1354 0.7545 0.2721
C9 C 0.4551(11) 0.7072(12) 0.1604(5)
C10 C 0.7746(13) 0.7744(14) 0.1285(5)
H5 H 0.8820 0.6689 0.1445
H6 H 0.7253 0.8511 0.1693
C11 C 0.8445(17) 0.8880(16) 0.0574(6)
H7 H 0.7392 0.9987 0.0441
H8 H 0.9502 0.9289 0.0669
C12 C 0.7585(19) 0.724(2) -0.0197(6)
H9 H 0.8048 0.6537 -0.0626
H10 H 0.6539 0.8341 -0.0342
C13 C 0.6794(14) 0.6047(14) 0.0472(6)
H11 H 0.5687 0.5763 0.0349
H12 H 0.7786 0.4874 0.0587
C14 C 0.0676(19) 1.2000(17) 0.2224(6)
H13 H 0.1814 1.2304 0.2227
C15 C -0.2081(18) 1.2130(16) 0.2109(7)
H14 H -0.3357 1.2614 0.2002
loop_
_geom_bond_atom_site_label_1
_geom_bond_atom_site_label_2
_geom_bond_site_symmetry_1
_geom_bond_site_symmetry_2
Cl1 C3 1_555 1_555
Cl2 C4 1_555 1_555
S1 C8 1_555 1_555
S2 C9 1_555 1_555
O1 C7 1_555 1_555
O2 C11 1_555 1_555
N1 C9 1_555 1_555
N2 N3 1_555 1_555
N3 C15 1_555 1_555
N4 C14 1_555 1_555
C1 H1 1_555 1_555
C2 C1 1_555 1_555
H2 C2 1_555 1_555
C3 C2 1_555 1_555
C4 C3 1_555 1_555
C5 C4 1_555 1_555
H3 C5 1_555 1_555
C6 C1 1_555 1_555
C7 C6 1_555 1_555
C8 N2 1_555 1_555
H4 C8 1_555 1_555
C9 S1 1_555 1_555
C10 N1 1_555 1_555
H5 C10 1_555 1_555
H6 C10 1_555 1_555
C11 C10 1_555 1_555
H7 C11 1_555 1_555
H8 C11 1_555 1_555
C12 O2 1_555 1_555
H9 C12 1_555 1_555
H10 C12 1_555 1_555
C13 N1 1_555 1_555
H11 C13 1_555 1_555
H12 C13 1_555 1_555
C14 N2 1_555 1_555
H13 C14 1_555 1_555
C15 N4 1_555 1_555
H14 C15 1_555 1_555
C5 C6 1_555 1_555
C7 C8 1_555 1_555
C12 C13 1_555 1_555

#END
