
#######################################################################
#
#                 Cambridge Crystallographic Data Centre
#                                CCDC 
#
#######################################################################
#
# If this CIF has been generated from an entry in the Cambridge 
# Structural Database, then it will include bibliographic, chemical, 
# crystal, experimental, refinement or atomic coordinate data resulting 
# from the CCDC's data processing and validation procedures.
#
#######################################################################

data_HIMXOR
_chemical_formula_moiety         'C14 H18 O2 S1'
_chemical_name_systematic        
4,4-Di-isopropyl-4H-benzo(d)(1,3)oxathiin-2-one
_symmetry_cell_setting           monoclinic
_symmetry_space_group_name_H-M   'P 21/n'
_symmetry_Int_Tables_number      14
_space_group_name_Hall           '-P 2yn'
loop_
_symmetry_equiv_pos_site_id
_symmetry_equiv_pos_as_xyz
1 x,y,z
2 1/2-x,1/2+y,1/2-z
3 -x,-y,-z
4 1/2+x,1/2-y,1/2+z
_cell_length_a                   8.8887(7)
_cell_length_b                   13.4421(10)
_cell_length_c                   10.9908(8)
_cell_angle_alpha                90
_cell_angle_beta                 93.7400(10)
_cell_angle_gamma                90
_cell_volume                     1310.41
_exptl_crystal_colour            colorless
_exptl_crystal_description       blocks
_chemical_melting_point          93-95deg.C
_cell_formula_units_Z            4
loop_
_atom_site_label
_atom_site_type_symbol
_atom_site_fract_x
_atom_site_fract_y
_atom_site_fract_z
S1 S 0.22227(6) 0.26070(5) 0.94664(5)
C1 C 0.3745(2) 0.33446(14) 0.99878(17)
O1 O 0.50565(13) 0.32777(9) 0.94975(11)
C2 C 0.56810(18) 0.24432(11) 0.88058(14)
C3 C 0.4901(2) 0.11522(13) 0.72264(16)
H1 H 0.5909 0.1112 0.7053
C4 C 0.3851(2) 0.05601(14) 0.65824(17)
H2 H 0.4165 0.0119 0.5998
C5 C 0.2352(2) 0.06198(16) 0.68003(19)
H3 H 0.1646 0.0231 0.6356
C6 C 0.1905(2) 0.12592(16) 0.76813(19)
H4 H 0.0891 0.1304 0.7834
C7 C 0.2960(2) 0.18421(14) 0.83495(16)
C8 C 0.44808(18) 0.18091(12) 0.81323(14)
O2 O 0.35510(18) 0.39471(12) 1.07690(14)
C9 C 0.6644(2) 0.18542(14) 0.97888(16)
H5 H 0.7325 0.2333 1.0213
C10 C 0.66155(19) 0.30028(13) 0.78778(15)
H6 H 0.7056 0.2499 0.7363
C11 C 0.5693(3) 0.13949(17) 1.0745(2)
H7 H 0.4967 0.0949 1.0356
H8 H 0.5178 0.1912 1.1154
H9 H 0.6333 0.1034 1.1327
C12 C 0.7631(3) 0.10527(17) 0.9257(2)
H10 H 0.8321 0.0795 0.9888
H11 H 0.8188 0.1336 0.8622
H12 H 0.7005 0.0523 0.8927
C13 C 0.5612(3) 0.36628(16) 0.7046(2)
H13 H 0.5230 0.4200 0.7511
H14 H 0.4785 0.3278 0.6691
H15 H 0.6187 0.3926 0.6410
C14 C 0.7914(2) 0.36158(17) 0.8463(2)
H16 H 0.8445 0.3935 0.7837
H17 H 0.8592 0.3187 0.8933
H18 H 0.7523 0.4111 0.8987
loop_
_geom_bond_atom_site_label_1
_geom_bond_atom_site_label_2
_geom_bond_site_symmetry_1
_geom_bond_site_symmetry_2
S1 C1 1_555 1_555
C1 O1 1_555 1_555
O1 C2 1_555 1_555
C2 C8 1_555 1_555
C3 H1 1_555 1_555
C4 C3 1_555 1_555
H2 C4 1_555 1_555
C5 C4 1_555 1_555
H3 C5 1_555 1_555
C6 C5 1_555 1_555
H4 C6 1_555 1_555
C7 S1 1_555 1_555
C8 C3 1_555 1_555
O2 C1 1_555 1_555
C9 C2 1_555 1_555
H5 C9 1_555 1_555
C10 C2 1_555 1_555
H6 C10 1_555 1_555
C11 C9 1_555 1_555
H7 C11 1_555 1_555
H8 C11 1_555 1_555
H9 C11 1_555 1_555
C12 C9 1_555 1_555
H10 C12 1_555 1_555
H11 C12 1_555 1_555
H12 C12 1_555 1_555
C13 C10 1_555 1_555
H13 C13 1_555 1_555
H14 C13 1_555 1_555
H15 C13 1_555 1_555
C14 C10 1_555 1_555
H16 C14 1_555 1_555
H17 C14 1_555 1_555
H18 C14 1_555 1_555
C6 C7 1_555 1_555
C7 C8 1_555 1_555

#END
