
#######################################################################
#
#                 Cambridge Crystallographic Data Centre
#                                CCDC 
#
#######################################################################
#
# If this CIF has been generated from an entry in the Cambridge 
# Structural Database, then it will include bibliographic, chemical, 
# crystal, experimental, refinement or atomic coordinate data resulting 
# from the CCDC's data processing and validation procedures.
#
#######################################################################

data_HIMYEK
_chemical_formula_moiety         'C54 H48 B10'
_chemical_name_systematic        
1,2-bis(4-(1,2,2-triphenylethenyl)phenyl)-1,2-dicarba-closo-dodecaborane
_symmetry_cell_setting           monoclinic
_symmetry_space_group_name_H-M   'P 21/c'
_symmetry_Int_Tables_number      14
_space_group_name_Hall           '-P 2ybc'
loop_
_symmetry_equiv_pos_site_id
_symmetry_equiv_pos_as_xyz
1 x,y,z
2 -x,1/2+y,1/2-z
3 -x,-y,-z
4 x,1/2-y,1/2+z
_cell_length_a                   15.8897(12)
_cell_length_b                   16.8118(12)
_cell_length_c                   18.2673(13)
_cell_angle_alpha                90
_cell_angle_beta                 108.7570(10)
_cell_angle_gamma                90
_cell_volume                     4620.66
_exptl_crystal_colour            white
_cell_formula_units_Z            4
loop_
_atom_site_label
_atom_site_type_symbol
_atom_site_fract_x
_atom_site_fract_y
_atom_site_fract_z
B1 B 0.32804(15) 0.95928(15) 0.37816(13)
H1 H 0.339142 0.935910 0.436763
B2 B 0.30346(15) 0.89566(17) 0.29632(14)
H2 H 0.298418 0.830802 0.301725
B3 B 0.22077(16) 0.96136(17) 0.30670(14)
H3 H 0.161283 0.939542 0.318744
B4 B 0.23550(16) 0.94865(18) 0.21462(14)
H4 H 0.185861 0.918077 0.166638
B5 B 0.35019(15) 0.93947(16) 0.22942(13)
H5 H 0.376991 0.903139 0.191968
B6 B 0.21633(16) 1.04445(18) 0.24613(14)
H6 H 0.153660 1.076473 0.218947
B7 B 0.29575(16) 1.03127(17) 0.19798(14)
H7 H 0.285681 1.054523 0.139494
B8 B 0.31998(16) 1.09503(17) 0.27949(13)
H8 H 0.325644 1.159825 0.274138
B9 B 0.27430(16) 1.05148(16) 0.34716(14)
H9 H 0.249848 1.088298 0.385843
B10 B 0.38892(15) 1.04155(15) 0.36083(12)
H10 H 0.440497 1.071199 0.408079
C1 C 0.40140(12) 0.94761(12) 0.32811(10)
C2 C 0.39689(13) 1.02901(12) 0.26934(11)
C3 C 0.48231(13) 1.05576(13) 0.25777(11)
C4 C 0.52479(13) 1.12464(13) 0.29230(12)
H11 H 0.499069 1.155485 0.321674
C5 C 0.60458(13) 1.14857(12) 0.28410(12)
H12 H 0.631283 1.195256 0.307750
C6 C 0.64570(13) 1.10368(13) 0.24081(11)
C7 C 0.60211(16) 1.03566(15) 0.20569(13)
H13 H 0.627120 1.005142 0.175557
C8 C 0.52247(16) 1.01170(16) 0.21406(13)
H14 H 0.495428 0.965303 0.189986
C9 C 0.73246(14) 1.12594(13) 0.23013(11)
C10 C 0.80416(13) 1.14963(12) 0.28826(11)
C11 C 0.80865(13) 1.15032(12) 0.37115(11)
C12 C 0.83746(14) 1.21872(13) 0.41493(12)
H15 H 0.853024 1.263349 0.392065
C13 C 0.84321(15) 1.22107(13) 0.49203(12)
H16 H 0.862040 1.267209 0.520708
C14 C 0.82099(15) 1.15498(14) 0.52617(12)
H17 H 0.822735 1.157101 0.577506
C15 C 0.79617(14) 1.08562(13) 0.48468(11)
H18 H 0.784102 1.040340 0.508808
C16 C 0.78913(13) 1.08311(12) 0.40729(11)
H19 H 0.771316 1.036415 0.379279
C17 C 0.88818(13) 1.17496(12) 0.27478(11)
C18 C 0.96845(14) 1.14155(13) 0.31911(12)
H20 H 0.969347 1.105084 0.357639
C19 C 1.04721(15) 1.16209(15) 0.30644(14)
H21 H 1.100288 1.138127 0.335230
C20 C 1.04672(15) 1.21781(15) 0.25135(14)
H22 H 1.099463 1.231600 0.242794
C21 C 0.96872(15) 1.25299(14) 0.20913(13)
H23 H 0.968900 1.291395 0.172540
C22 C 0.88969(14) 1.23218(13) 0.22017(12)
H24 H 0.837072 1.256547 0.190927
C23 C 0.73471(14) 1.11624(13) 0.14905(11)
C24 C 0.79851(15) 1.06789(13) 0.13387(12)
H25 H 0.839345 1.040835 0.174285
C25 C 0.80184(16) 1.05965(14) 0.05942(13)
H26 H 0.844837 1.027462 0.049999
C26 C 0.74087(17) 1.09956(15) -0.00093(13)
H27 H 0.743127 1.094609 -0.050973
C27 C 0.67728(17) 1.14630(16) 0.01319(13)
H28 H 0.636532 1.173126 -0.027472
C28 C 0.67288(15) 1.15421(15) 0.08831(12)
H29 H 0.628430 1.184932 0.097143
C29 C 0.48899(12) 0.90588(12) 0.35918(11)
C30 C 0.56377(13) 0.94464(12) 0.40629(11)
H30 H 0.559394 0.996875 0.421452
C31 C 0.64487(13) 0.90602(12) 0.43087(11)
H31 H 0.694815 0.933513 0.460945
C32 C 0.65361(13) 0.82703(12) 0.41172(11)
C33 C 0.57802(14) 0.78799(13) 0.36558(12)
H32 H 0.581865 0.735042 0.352251
C34 C 0.49730(14) 0.82688(13) 0.33931(12)
H33 H 0.447705 0.799957 0.307862
C35 C 0.74387(13) 0.78937(13) 0.43753(12)
C36 C 0.76116(14) 0.72362(12) 0.48231(12)
C37 C 0.69299(14) 0.68969(13) 0.51402(11)
C38 C 0.6496(2) 0.73523(15) 0.55425(16)
H34 H 0.664054 0.788709 0.563592
C39 C 0.5852(2) 0.70195(18) 0.5805(2)
H35 H 0.557073 0.733137 0.607759
C40 C 0.56226(19) 0.62347(18) 0.56689(17)
H36 H 0.517191 0.602010 0.582988
C41 C 0.60609(17) 0.57681(15) 0.52944(14)
H37 H 0.592232 0.523099 0.521333
C42 C 0.67087(15) 0.60999(13) 0.50385(12)
H38 H 0.700688 0.577720 0.478927
C43 C 0.84720(13) 0.68035(12) 0.50081(12)
C44 C 0.89234(15) 0.65735(14) 0.57694(13)
H39 H 0.868364 0.668857 0.615944
C45 C 0.97306(16) 0.61729(15) 0.59446(14)
H40 H 1.003512 0.602973 0.645276
C46 C 1.00779(16) 0.59887(14) 0.53661(15)
H41 H 1.061736 0.572074 0.548602
C47 C 0.96389(14) 0.61951(14) 0.46186(14)
H42 H 0.987506 0.606421 0.422987
C48 C 0.88390(14) 0.66011(13) 0.44408(13)
H43 H 0.854251 0.674047 0.392997
C49 C 0.81041(14) 0.83263(13) 0.41075(13)
C50 C 0.89266(15) 0.85543(14) 0.46279(17)
H44 H 0.907326 0.840908 0.514506
C51 C 0.95186(19) 0.89879(17) 0.4387(3)
H45 H 1.005921 0.913853 0.474244
C52 C 0.9323(2) 0.91977(18) 0.3639(3)
H46 H 0.973468 0.948643 0.348248
C53 C 0.8516(3) 0.89884(17) 0.3099(2)
H47 H 0.838752 0.913405 0.258389
C54 C 0.78958(18) 0.85538(15) 0.33401(16)
H48 H 0.734806 0.841961 0.298589
loop_
_geom_bond_atom_site_label_1
_geom_bond_atom_site_label_2
_geom_bond_site_symmetry_1
_geom_bond_site_symmetry_2
B1 H1 1_555 1_555
B2 B1 1_555 1_555
H2 B2 1_555 1_555
B3 B1 1_555 1_555
H3 B3 1_555 1_555
B4 B2 1_555 1_555
H4 B4 1_555 1_555
B5 B2 1_555 1_555
H5 B5 1_555 1_555
B6 B3 1_555 1_555
H6 B6 1_555 1_555
B7 B4 1_555 1_555
H7 B7 1_555 1_555
B8 B6 1_555 1_555
H8 B8 1_555 1_555
B9 B1 1_555 1_555
H9 B9 1_555 1_555
B10 B1 1_555 1_555
H10 B10 1_555 1_555
C1 B1 1_555 1_555
C2 B5 1_555 1_555
C3 C2 1_555 1_555
C4 C3 1_555 1_555
H11 C4 1_555 1_555
C5 C4 1_555 1_555
H12 C5 1_555 1_555
C6 C5 1_555 1_555
C7 C6 1_555 1_555
H13 C7 1_555 1_555
C8 C3 1_555 1_555
H14 C8 1_555 1_555
C9 C6 1_555 1_555
C10 C9 1_555 1_555
C11 C10 1_555 1_555
C12 C11 1_555 1_555
H15 C12 1_555 1_555
C13 C12 1_555 1_555
H16 C13 1_555 1_555
C14 C13 1_555 1_555
H17 C14 1_555 1_555
C15 C14 1_555 1_555
H18 C15 1_555 1_555
C16 C11 1_555 1_555
H19 C16 1_555 1_555
C17 C10 1_555 1_555
C18 C17 1_555 1_555
H20 C18 1_555 1_555
C19 C18 1_555 1_555
H21 C19 1_555 1_555
C20 C19 1_555 1_555
H22 C20 1_555 1_555
C21 C20 1_555 1_555
H23 C21 1_555 1_555
C22 C17 1_555 1_555
H24 C22 1_555 1_555
C23 C9 1_555 1_555
C24 C23 1_555 1_555
H25 C24 1_555 1_555
C25 C24 1_555 1_555
H26 C25 1_555 1_555
C26 C25 1_555 1_555
H27 C26 1_555 1_555
C27 C26 1_555 1_555
H28 C27 1_555 1_555
C28 C23 1_555 1_555
H29 C28 1_555 1_555
C29 C1 1_555 1_555
C30 C29 1_555 1_555
H30 C30 1_555 1_555
C31 C30 1_555 1_555
H31 C31 1_555 1_555
C32 C31 1_555 1_555
C33 C32 1_555 1_555
H32 C33 1_555 1_555
C34 C29 1_555 1_555
H33 C34 1_555 1_555
C35 C32 1_555 1_555
C36 C35 1_555 1_555
C37 C36 1_555 1_555
C38 C37 1_555 1_555
H34 C38 1_555 1_555
C39 C38 1_555 1_555
H35 C39 1_555 1_555
C40 C39 1_555 1_555
H36 C40 1_555 1_555
C41 C40 1_555 1_555
H37 C41 1_555 1_555
C42 C37 1_555 1_555
H38 C42 1_555 1_555
C43 C36 1_555 1_555
C44 C43 1_555 1_555
H39 C44 1_555 1_555
C45 C44 1_555 1_555
H40 C45 1_555 1_555
C46 C45 1_555 1_555
H41 C46 1_555 1_555
C47 C46 1_555 1_555
H42 C47 1_555 1_555
C48 C43 1_555 1_555
H43 C48 1_555 1_555
C49 C35 1_555 1_555
C50 C49 1_555 1_555
H44 C50 1_555 1_555
C51 C50 1_555 1_555
H45 C51 1_555 1_555
C52 C51 1_555 1_555
H46 C52 1_555 1_555
C53 C52 1_555 1_555
H47 C53 1_555 1_555
C54 C49 1_555 1_555
H48 C54 1_555 1_555
B2 B3 1_555 1_555
B2 C1 1_555 1_555
B3 B4 1_555 1_555
B3 B9 1_555 1_555
B4 B5 1_555 1_555
B4 B6 1_555 1_555
B5 B7 1_555 1_555
B5 C1 1_555 1_555
B6 B7 1_555 1_555
B6 B9 1_555 1_555
B7 B8 1_555 1_555
B7 C2 1_555 1_555
B8 B9 1_555 1_555
B8 B10 1_555 1_555
B8 C2 1_555 1_555
B9 B10 1_555 1_555
B10 C1 1_555 1_555
B10 C2 1_555 1_555
C1 C2 1_555 1_555
C7 C8 1_555 1_555
C15 C16 1_555 1_555
C21 C22 1_555 1_555
C27 C28 1_555 1_555
C33 C34 1_555 1_555
C41 C42 1_555 1_555
C47 C48 1_555 1_555
C53 C54 1_555 1_555

#END
