
#######################################################################
#
#                 Cambridge Crystallographic Data Centre
#                                CCDC 
#
#######################################################################
#
# If this CIF has been generated from an entry in the Cambridge 
# Structural Database, then it will include bibliographic, chemical, 
# crystal, experimental, refinement or atomic coordinate data resulting 
# from the CCDC's data processing and validation procedures.
#
#######################################################################

data_HINBAJ
_chemical_formula_moiety         'C11 H8 N4 O2,C1 H4 O1'
_chemical_name_systematic        
'4-(1H-3,1-Benzimidazol-3-ium-2-yl)-1H-imidazole-5-carboxylate methanol solvate'
_symmetry_cell_setting           triclinic
_symmetry_space_group_name_H-M   'P -1'
_symmetry_Int_Tables_number      2
_space_group_name_Hall           '-P 1'
loop_
_symmetry_equiv_pos_site_id
_symmetry_equiv_pos_as_xyz
1 x,y,z
2 -x,-y,-z
_cell_length_a                   7.016(3)
_cell_length_b                   9.929(4)
_cell_length_c                   17.032(6)
_cell_angle_alpha                93.472(9)
_cell_angle_beta                 92.686(7)
_cell_angle_gamma                95.759(6)
_cell_volume                     1176.65
_exptl_crystal_colour            colorless
_exptl_crystal_description       prism
_cell_formula_units_Z            4
loop_
_atom_site_label
_atom_site_type_symbol
_atom_site_fract_x
_atom_site_fract_y
_atom_site_fract_z
C1 C 0.7815(3) 0.3947(2) 0.16649(12)
H1 H 0.7197 0.4555 0.2005
H2 H 0.7844 0.4275 0.1147
H3 H 0.9102 0.3894 0.1869
O1 O 0.6769(2) 0.26229(15) 0.16270(8)
H4 H 0.5715 0.2676 0.1808
O2 O 0.3482(2) 0.44742(14) 0.28869(7)
N1 N 0.1883(2) 0.11425(17) 0.34844(9)
O3 O 0.3226(2) 0.24685(14) 0.21969(7)
N2 N 0.2098(2) 0.45985(18) 0.54260(10)
N3 N 0.1436(2) 0.18794(16) 0.47143(9)
N4 N 0.2889(2) 0.54383(17) 0.43151(10)
C2 C 0.2526(3) 0.6801(2) 0.62802(11)
H5 H 0.2192 0.6439 0.6752
C3 C 0.1347(3) 0.0816(2) 0.42055(11)
H6 H 0.0957 -0.0064 0.4330
C4 C 0.3529(3) 0.7904(2) 0.48310(11)
H7 H 0.3854 0.8268 0.4359
C5 C 0.2520(3) 0.5989(2) 0.55829(11)
C6 C 0.2348(3) 0.4300(2) 0.46590(11)
C7 C 0.3071(3) 0.3197(2) 0.28124(11)
C8 C 0.3537(3) 0.8713(2) 0.55227(11)
H8 H 0.3872 0.9642 0.5514
C9 C 0.2065(3) 0.2952(2) 0.42812(11)
C10 C 0.3052(3) 0.8168(2) 0.62342(11)
H9 H 0.3086 0.8743 0.6688
C11 C 0.3017(3) 0.6529(2) 0.48744(11)
C12 C 0.2348(3) 0.2511(2) 0.35106(11)
H10 H 0.204(3) 0.055(2) 0.3059(12)
H11 H 0.315(3) 0.542(2) 0.3764(14)
H12 H 0.174(4) 0.399(3) 0.5794(14)
O4 O 0.2477(2) 0.74689(14) 0.29347(8)
N5 N 0.3533(2) 0.60226(17) 0.16059(9)
O5 O 0.2284(2) 0.93172(14) 0.22599(7)
N6 N 0.2481(2) 1.00154(17) 0.08100(10)
N7 N 0.2934(2) 0.90184(18) -0.03358(10)
N8 N 0.3697(2) 0.65372(16) 0.03549(9)
C13 C 0.3112(3) 0.7333(2) 0.15917(11)
C14 C 0.2896(3) 0.8861(2) 0.04411(11)
C15 C 0.1666(3) 1.2267(2) 0.03256(12)
H13 H 0.1469 1.2692 0.0812
C16 C 0.3875(3) 0.5591(2) 0.08600(11)
H14 H 0.4198 0.4727 0.0719
C17 C 0.2476(3) 1.0313(2) -0.04735(11)
C18 C 0.2593(3) 0.8089(2) 0.23217(11)
C19 C 0.2274(3) 1.0963(2) -0.11700(11)
H15 H 0.2474 1.0540 -0.1657
C20 C 0.3227(3) 0.7638(2) 0.08094(11)
C21 C 0.1460(3) 1.2912(2) -0.03650(12)
H16 H 0.1115 1.3793 -0.0343
C22 C 0.2180(3) 1.0956(2) 0.02574(11)
C23 C 0.1762(3) 1.2269(2) -0.10988(12)
H17 H 0.1611 1.2737 -0.1551
H18 H 0.344(3) 0.542(2) 0.2081(13)
H19 H 0.314(3) 0.833(2) -0.0733(13)
H20 H 0.239(4) 1.005(2) 0.1350(14)
O6 O 0.8794(2) 0.68077(14) 0.33139(9)
H21 H 0.9932 0.7022 0.3248
C24 C 0.7761(3) 0.7963(2) 0.32515(12)
H22 H 0.7637 0.8380 0.3768
H23 H 0.6510 0.7687 0.3008
H24 H 0.8441 0.8602 0.2937
loop_
_geom_bond_atom_site_label_1
_geom_bond_atom_site_label_2
_geom_bond_site_symmetry_1
_geom_bond_site_symmetry_2
C1 H1 1_555 1_555
H2 C1 1_555 1_555
H3 C1 1_555 1_555
O1 C1 1_555 1_555
H4 O1 1_555 1_555
O2 C7 1_555 1_555
N1 C3 1_555 1_555
O3 C7 1_555 1_555
N2 C5 1_555 1_555
N3 C3 1_555 1_555
N4 C6 1_555 1_555
C2 H5 1_555 1_555
C3 H6 1_555 1_555
C4 H7 1_555 1_555
C5 C2 1_555 1_555
C6 N2 1_555 1_555
C7 C12 1_555 1_555
C8 C4 1_555 1_555
H8 C8 1_555 1_555
C9 N3 1_555 1_555
C10 C2 1_555 1_555
H9 C10 1_555 1_555
C11 N4 1_555 1_555
C12 N1 1_555 1_555
H10 N1 1_555 1_555
H11 N4 1_555 1_555
H12 N2 1_555 1_555
O4 C18 1_555 1_555
N5 C13 1_555 1_555
O5 C18 1_555 1_555
N6 C14 1_555 1_555
N7 C14 1_555 1_555
N8 C16 1_555 1_555
C13 C18 1_555 1_555
C14 C20 1_555 1_555
C15 H13 1_555 1_555
C16 N5 1_555 1_555
H14 C16 1_555 1_555
C17 N7 1_555 1_555
C19 C17 1_555 1_555
H15 C19 1_555 1_555
C20 N8 1_555 1_555
C21 C15 1_555 1_555
H16 C21 1_555 1_555
C22 N6 1_555 1_555
C23 C19 1_555 1_555
H17 C23 1_555 1_555
H18 N5 1_555 1_555
H19 N7 1_555 1_555
H20 N6 1_555 1_555
O6 H21 1_555 1_555
C24 O6 1_555 1_555
H22 C24 1_555 1_555
H23 C24 1_555 1_555
H24 C24 1_555 1_555
C4 C11 1_555 1_555
C5 C11 1_555 1_555
C6 C9 1_555 1_555
C8 C10 1_555 1_555
C9 C12 1_555 1_555
C13 C20 1_555 1_555
C15 C22 1_555 1_555
C17 C22 1_555 1_555
C21 C23 1_555 1_555

#END
