
#######################################################################
#
#                 Cambridge Crystallographic Data Centre
#                                CCDC 
#
#######################################################################
#
# If this CIF has been generated from an entry in the Cambridge 
# Structural Database, then it will include bibliographic, chemical, 
# crystal, experimental, refinement or atomic coordinate data resulting 
# from the CCDC's data processing and validation procedures.
#
#######################################################################

data_HINCIS01
_chemical_formula_moiety         'C20 H14 N2 O3'
_chemical_name_systematic        
2-Amino-4-(4-methylphenyl)-5-oxo-4H,5H-pyrano[3,2-c]chromene-3-carbonitrile
_symmetry_cell_setting           monoclinic
_symmetry_space_group_name_H-M   'P 21/c'
_symmetry_Int_Tables_number      14
_space_group_name_Hall           '-P 2ybc'
loop_
_symmetry_equiv_pos_site_id
_symmetry_equiv_pos_as_xyz
1 x,y,z
2 -x,1/2+y,1/2-z
3 -x,-y,-z
4 x,1/2-y,1/2+z
_cell_length_a                   9.1330(7)
_cell_length_b                   13.1343(9)
_cell_length_c                   13.1945(8)
_cell_angle_alpha                90
_cell_angle_beta                 91.746(5)
_cell_angle_gamma                90
_cell_volume                     1582.02
_exptl_crystal_colour            white
_exptl_crystal_description       block
_cell_formula_units_Z            4
loop_
_atom_site_label
_atom_site_type_symbol
_atom_site_fract_x
_atom_site_fract_y
_atom_site_fract_z
O1 O 0.95912(19) 0.34254(14) 0.06463(10)
C1 C 1.0319(3) 0.3172(2) 0.15435(16)
C2 C 1.0107(3) 0.36800(19) 0.24096(16)
C3 C 0.9003(3) 0.45323(19) 0.25179(15)
H1 H 0.9526 0.5138 0.2768
C4 C 0.8346(3) 0.47711(19) 0.14827(15)
C5 C 0.7365(3) 0.5638(2) 0.13938(16)
O2 O 0.70659(19) 0.62074(14) 0.20765(12)
O3 O 0.67044(19) 0.58296(14) 0.04581(11)
C6 C 0.6995(3) 0.5246(2) -0.03812(16)
C7 C 0.7964(3) 0.4448(2) -0.03294(16)
C8 C 0.8641(3) 0.42284(19) 0.06508(16)
C9 C 0.7858(3) 0.42476(19) 0.32863(15)
C10 C 0.6766(3) 0.3553(2) 0.30593(17)
H2 H 0.6676 0.3290 0.2406
C11 C 0.5797(3) 0.3238(2) 0.37860(19)
H3 H 0.5068 0.2770 0.3614
C12 C 0.5908(3) 0.3617(2) 0.47681(18)
C13 C 0.4866(3) 0.3261(3) 0.5567(2)
H4 H 0.5097 0.3600 0.6197
H5 H 0.4964 0.2539 0.5658
H6 H 0.3878 0.3419 0.5354
H7 H 1.134(3) 0.215(2) 0.068(2)
H8 H 1.179(4) 0.208(2) 0.194(2)
C14 C 0.6984(3) 0.4320(2) 0.49770(18)
H9 H 0.7062 0.4600 0.5624
C15 C 0.7958(3) 0.4628(2) 0.42539(17)
H10 H 0.8687 0.5097 0.4426
C16 C 0.6258(3) 0.5496(2) -0.12776(18)
H11 H 0.5596 0.6034 -0.1302
C17 C 0.6522(3) 0.4937(2) -0.21284(18)
H12 H 0.6028 0.5096 -0.2735
C18 C 0.7512(3) 0.4137(2) -0.21009(17)
H13 H 0.7696 0.3774 -0.2689
C19 C 0.8221(3) 0.3882(2) -0.12055(16)
H14 H 0.8869 0.3336 -0.1180
C20 C 1.0895(3) 0.3392(2) 0.33068(16)
N1 N 1.1460(3) 0.3188(2) 0.40682(15)
N2 N 1.1199(3) 0.23808(19) 0.13691(17)
loop_
_geom_bond_atom_site_label_1
_geom_bond_atom_site_label_2
_geom_bond_site_symmetry_1
_geom_bond_site_symmetry_2
O1 C1 1_555 1_555
C1 C2 1_555 1_555
C2 C3 1_555 1_555
C3 H1 1_555 1_555
C4 C3 1_555 1_555
C5 C4 1_555 1_555
O2 C5 1_555 1_555
O3 C5 1_555 1_555
C6 O3 1_555 1_555
C7 C6 1_555 1_555
C8 O1 1_555 1_555
C9 C3 1_555 1_555
C10 C9 1_555 1_555
H2 C10 1_555 1_555
C11 C10 1_555 1_555
H3 C11 1_555 1_555
C12 C11 1_555 1_555
C13 C12 1_555 1_555
H4 C13 1_555 1_555
H5 C13 1_555 1_555
H6 C13 1_555 1_555
H7 N2 1_555 1_555
H8 N2 1_555 1_555
C14 C12 1_555 1_555
H9 C14 1_555 1_555
C15 C9 1_555 1_555
H10 C15 1_555 1_555
C16 C6 1_555 1_555
H11 C16 1_555 1_555
C17 C16 1_555 1_555
H12 C17 1_555 1_555
C18 C17 1_555 1_555
H13 C18 1_555 1_555
C19 C7 1_555 1_555
H14 C19 1_555 1_555
C20 C2 1_555 1_555
N1 C20 1_555 1_555
N2 C1 1_555 1_555
C4 C8 1_555 1_555
C7 C8 1_555 1_555
C14 C15 1_555 1_555
C18 C19 1_555 1_555

#END
