
#######################################################################
#
#                 Cambridge Crystallographic Data Centre
#                                CCDC 
#
#######################################################################
#
# If this CIF has been generated from an entry in the Cambridge 
# Structural Database, then it will include bibliographic, chemical, 
# crystal, experimental, refinement or atomic coordinate data resulting 
# from the CCDC's data processing and validation procedures.
#
#######################################################################

data_HINDIR
_chemical_formula_moiety         'C11 H10 N2 O3,0.5(C2 H6 O1 S1)'
_chemical_name_systematic        
'5,8-Dimethyl-6-nitro-4-quinolone dimethylsulfoxide solvate'
_symmetry_cell_setting           triclinic
_symmetry_space_group_name_H-M   'P -1'
_symmetry_Int_Tables_number      2
_space_group_name_Hall           '-P 1'
loop_
_symmetry_equiv_pos_site_id
_symmetry_equiv_pos_as_xyz
1 x,y,z
2 -x,-y,-z
_cell_length_a                   7.338(1)
_cell_length_b                   10.407(1)
_cell_length_c                   16.063(1)
_cell_angle_alpha                101.40(1)
_cell_angle_beta                 93.65(1)
_cell_angle_gamma                104.09(1)
_cell_volume                     1158.21
_exptl_crystal_colour            yellow
_exptl_crystal_description       'elongated plate'
_chemical_melting_point          274-300deg.C.(dec.)
_cell_formula_units_Z            4
_exptl_crystal_recrystallization_method ethanol
loop_
_atom_site_label
_atom_site_type_symbol
_atom_site_fract_x
_atom_site_fract_y
_atom_site_fract_z
O1 O -0.4542(7) -0.0145(4) -0.1926(2)
O2 O -0.2018(8) -0.4636(4) -0.0357(3)
O3 O -0.4834(8) -0.4885(4) -0.0961(3)
N1 N -0.1973(8) 0.1423(5) 0.0506(3)
N2 N -0.3308(9) -0.4185(5) -0.0586(3)
C1 C -0.2407(10) 0.2232(6) 0.0005(4)
C2 C -0.3207(9) 0.1740(6) -0.0803(4)
C3 C -0.3708(9) 0.0332(6) -0.1185(3)
C4 C -0.3175(9) -0.0561(6) -0.0634(3)
C5 C -0.2353(9) 0.0041(6) 0.0206(3)
C6 C -0.1801(9) -0.0712(6) 0.0783(3)
C7 C -0.2171(10) -0.2095(6) 0.0476(4)
C8 C -0.2986(9) -0.2685(5) -0.0348(3)
C9 C -0.3534(9) -0.2002(6) -0.0943(3)
C10 C -0.0933(11) -0.0047(7) 0.1685(4)
C11 C -0.4291(11) -0.2699(7) -0.1855(4)
H1 H -0.1497(76) 0.1896(49) 0.0981(32)
H2 H -0.1972(81) 0.3065(57) 0.0264(32)
H3 H -0.3626(90) 0.2219(59) -0.1131(36)
H4 H -0.1483(94) -0.2763(62) 0.0784(38)
H5 H -0.0335(92) -0.0782(60) 0.1912(36)
H6 H 0.034(11) 0.0710(68) 0.1699(40)
H7 H -0.163(11) 0.0301(69) 0.1960(42)
H8 H -0.5633(98) -0.2890(60) -0.1965(37)
H9 H -0.4360(92) -0.3570(64) -0.2047(36)
H10 H -0.3677(96) -0.2234(62) -0.2356(40)
O4 O 0.1465(8) -0.1771(4) 0.3954(3)
O5 O 0.3565(8) 0.3484(4) 0.3783(3)
O6 O 0.2708(8) 0.4639(4) 0.4891(3)
N3 N 0.3758(8) -0.0198(5) 0.6423(3)
N4 N 0.3111(9) 0.3623(5) 0.4510(3)
C12 C 0.3182(10) -0.1555(6) 0.6108(4)
C13 C 0.2372(10) -0.2104(6) 0.5309(4)
C14 C 0.2092(9) -0.1248(6) 0.4709(4)
C15 C 0.2648(9) 0.0214(6) 0.5068(3)
C16 C 0.3505(9) 0.0708(6) 0.5929(3)
C17 C 0.4108(9) 0.2101(6) 0.6320(3)
C18 C 0.3891(10) 0.2997(6) 0.5823(4)
C19 C 0.3127(10) 0.2534(6) 0.4978(4)
C20 C 0.2422(9) 0.1181(6) 0.4568(3)
C21 C 0.4984(11) 0.2592(7) 0.7231(4)
C22 C 0.1429(11) 0.0758(7) 0.3672(4)
H11 H 0.4257(87) 0.0098(55) 0.6946(37)
H12 H 0.3344(82) -0.2042(54) 0.6468(33)
H13 H 0.2204(86) -0.3141(57) 0.5077(33)
H14 H 0.4472(92) 0.3955(62) 0.6075(37)
H15 H 0.6255(86) 0.2338(50) 0.7249(31)
H16 H 0.5281(87) 0.3748(60) 0.7444(34)
H17 H 0.4072(99) 0.2281(65) 0.7484(40)
H18 H 0.0961(82) 0.1516(55) 0.3524(32)
H19 H 0.029(14) -0.0077(92) 0.3603(55)
H20 H 0.228(12) 0.0407(75) 0.3239(50)
S1 S 0.0472(3) 0.4692(2) 0.2493(1)
O7 O -0.0462(8) 0.3281(4) 0.2000(3)
C23 C -0.0665(12) 0.4897(6) 0.3426(4)
C24 C -0.0472(12) 0.5805(7) 0.1990(4)
H21 H -0.0339 0.4344 0.3794
H22 H -0.0278 0.5834 0.3721
H23 H -0.2009 0.4632 0.3266
H24 H 0.0012 0.5833 0.1450
H25 H -0.1828 0.5496 0.1899
H26 H -0.0098 0.6698 0.2354
loop_
_geom_bond_atom_site_label_1
_geom_bond_atom_site_label_2
_geom_bond_site_symmetry_1
_geom_bond_site_symmetry_2
O1 C3 1_555 1_555
O2 N2 1_555 1_555
O3 N2 1_555 1_555
N1 C1 1_555 1_555
N2 C8 1_555 1_555
C1 C2 1_555 1_555
C2 C3 1_555 1_555
C3 C4 1_555 1_555
C4 C5 1_555 1_555
C5 N1 1_555 1_555
C6 C5 1_555 1_555
C7 C6 1_555 1_555
C8 C7 1_555 1_555
C9 C4 1_555 1_555
C10 C6 1_555 1_555
C11 C9 1_555 1_555
O4 C14 1_555 1_555
O5 N4 1_555 1_555
O6 N4 1_555 1_555
N3 C12 1_555 1_555
N4 C19 1_555 1_555
C12 C13 1_555 1_555
C13 C14 1_555 1_555
C14 C15 1_555 1_555
C15 C16 1_555 1_555
C16 N3 1_555 1_555
C17 C16 1_555 1_555
C18 C17 1_555 1_555
C19 C18 1_555 1_555
C20 C15 1_555 1_555
C21 C17 1_555 1_555
C22 C20 1_555 1_555
S1 O7 1_555 1_555
C23 S1 1_555 1_555
C24 S1 1_555 1_555
H1 N1 1_555 1_555
H2 C1 1_555 1_555
H3 C2 1_555 1_555
H4 C7 1_555 1_555
H5 C10 1_555 1_555
H6 C10 1_555 1_555
H7 C10 1_555 1_555
H8 C11 1_555 1_555
H9 C11 1_555 1_555
H10 C11 1_555 1_555
H11 N3 1_555 1_555
H12 C12 1_555 1_555
H13 C13 1_555 1_555
H14 C18 1_555 1_555
H15 C21 1_555 1_555
H16 C21 1_555 1_555
H17 C21 1_555 1_555
H18 C22 1_555 1_555
H19 C22 1_555 1_555
H20 C22 1_555 1_555
H21 C23 1_555 1_555
H22 C23 1_555 1_555
H23 C23 1_555 1_555
H24 C24 1_555 1_555
H25 C24 1_555 1_555
H26 C24 1_555 1_555
C8 C9 1_555 1_555
C19 C20 1_555 1_555

#END
