
#######################################################################
#
#                 Cambridge Crystallographic Data Centre
#                                CCDC 
#
#######################################################################
#
# If this CIF has been generated from an entry in the Cambridge 
# Structural Database, then it will include bibliographic, chemical, 
# crystal, experimental, refinement or atomic coordinate data resulting 
# from the CCDC's data processing and validation procedures.
#
#######################################################################

data_HINGUJ
_chemical_formula_moiety         'C45 H41 O4 P1 S1'
_chemical_name_systematic        
"(E)-(1-(2-([1,1'-biphenyl]-4-yl)-3-p-tosylprop-1-en-1-yl)-2-(4-methoxyphenyl)-2-methylcyclopropyl)diphenylphosphine oxide"
_symmetry_cell_setting           triclinic
_symmetry_space_group_name_H-M   'P -1'
_symmetry_Int_Tables_number      2
_space_group_name_Hall           '-P 1'
loop_
_symmetry_equiv_pos_site_id
_symmetry_equiv_pos_as_xyz
1 x,y,z
2 -x,-y,-z
_cell_length_a                   10.2440(3)
_cell_length_b                   13.1272(5)
_cell_length_c                   15.4443(5)
_cell_angle_alpha                85.2160(10)
_cell_angle_beta                 77.3190(10)
_cell_angle_gamma                69.9810(10)
_cell_volume                     1903.71
_exptl_crystal_colour            colorless
_exptl_crystal_description       Block
_cell_formula_units_Z            2
loop_
_atom_site_label
_atom_site_type_symbol
_atom_site_fract_x
_atom_site_fract_y
_atom_site_fract_z
C1 C 0.82584(19) 0.47477(14) 0.14560(11)
C2 C 0.7525(2) 0.58792(15) 0.11670(11)
H1 H 0.6558 0.6055 0.1088
H2 H 0.8091 0.6234 0.0748
C3 C 0.77778(18) 0.57088(13) 0.21107(10)
C4 C 0.66088(18) 0.57164(13) 0.28788(10)
H3 H 0.6892 0.5278 0.3355
C5 C 0.52215(18) 0.62514(14) 0.29929(11)
C6 C 0.4260(2) 0.59524(17) 0.37882(13)
H4 H 0.4755 0.5225 0.3976
H5 H 0.3429 0.5930 0.3598
C7 C 0.9821(2) 0.41772(16) 0.10716(14)
H6 H 1.0221 0.3625 0.1479
H7 H 1.0313 0.4694 0.0977
H8 H 0.9917 0.3852 0.0517
C8 C 0.7416(2) 0.39891(15) 0.16128(13)
C9 C 0.6679(3) 0.3902(2) 0.09894(17)
H9 H 0.6691 0.4335 0.0481
C10 C 0.5922(3) 0.3185(2) 0.1099(2)
H10 H 0.5450 0.3133 0.0663
C11 C 0.5875(3) 0.2561(2) 0.1845(3)
C12 C 0.6611(3) 0.26151(18) 0.2461(2)
H11 H 0.6593 0.2176 0.2965
C13 C 0.7388(2) 0.33137(15) 0.23498(15)
H12 H 0.7898 0.3329 0.2775
C14 C 0.4154(4) 0.1896(3) 0.1465(4)
H13 H 0.3507 0.2623 0.1444
H14 H 0.3629 0.1415 0.1691
H15 H 0.4689 0.1678 0.0878
C15 C 1.02555(19) 0.52082(15) 0.29302(13)
C16 C 0.9782(2) 0.47129(18) 0.37051(15)
H16 H 0.8813 0.4882 0.3927
C17 C 1.0735(3) 0.3971(2) 0.41509(18)
H17 H 1.0407 0.3641 0.4669
C18 C 1.2160(3) 0.3724(2) 0.3832(2)
H18 H 1.2802 0.3235 0.4139
C19 C 1.2641(3) 0.4195(2) 0.3060(2)
H19 H 1.3611 0.4021 0.2842
C20 C 1.1702(2) 0.49203(18) 0.26075(16)
H20 H 1.2042 0.5222 0.2077
C21 C 0.82767(19) 0.74294(15) 0.29379(13)
C22 C 0.8217(2) 0.83974(16) 0.24809(15)
H21 H 0.8650 0.8384 0.1884
C23 C 0.7520(3) 0.93777(18) 0.29063(19)
H22 H 0.7451 1.0022 0.2589
C24 C 0.6934(3) 0.9404(2) 0.3789(2)
H23 H 0.6482 1.0066 0.4077
C25 C 0.7010(3) 0.8460(2) 0.42508(17)
H24 H 0.6617 0.8482 0.4855
C26 C 0.7665(2) 0.74733(18) 0.38299(14)
H25 H 0.7695 0.6835 0.4149
C27 C 0.2712(2) 0.8103(2) 0.43645(13)
C28 C 0.1375(3) 0.8310(3) 0.4211(2)
H26 H 0.0948 0.7778 0.4317
C29 C 0.0671(3) 0.9322(3) 0.3895(2)
H27 H -0.0238 0.9460 0.3797
C30 C 0.1255(4) 1.0126(3) 0.37222(18)
C31 C 0.2574(4) 0.9902(2) 0.38751(19)
H28 H 0.2998 1.0436 0.3766
C32 C 0.3310(3) 0.8899(2) 0.41899(17)
H29 H 0.4221 0.8767 0.4283
C33 C 0.0446(4) 1.1213(3) 0.3366(2)
H30 H 0.0538 1.1782 0.3674
H31 H -0.0538 1.1284 0.3453
H32 H 0.0824 1.1264 0.2744
C34 C 0.45105(18) 0.71017(14) 0.23883(11)
C35 C 0.3334(2) 0.70688(18) 0.21068(15)
H33 H 0.3027 0.6477 0.2264
C36 C 0.2606(2) 0.78887(18) 0.16001(14)
H34 H 0.1828 0.7833 0.1415
C37 C 0.42269(19) 0.87987(15) 0.16076(13)
H35 H 0.4561 0.9374 0.1427
C38 C 0.49551(19) 0.79743(14) 0.21121(12)
H36 H 0.5765 0.8008 0.2269
C39 C 0.30070(18) 0.87913(14) 0.13618(11)
C40 C 0.21456(19) 0.97364(14) 0.09053(11)
C41 C 0.0679(2) 1.00849(19) 0.11317(14)
H37 H 0.0230 0.9705 0.1559
C42 C -0.0132(3) 1.0995(2) 0.07286(16)
H38 H -0.1117 1.1220 0.0889
C43 C 0.0505(3) 1.15591(18) 0.01014(17)
H39 H -0.0043 1.2164 -0.0171
C44 C 0.1941(3) 1.12378(19) -0.01271(18)
H40 H 0.2379 1.1629 -0.0550
C45 C 0.2754(2) 1.03302(17) 0.02679(14)
H41 H 0.3738 1.0114 0.0099
O1 O 1.00109(15) 0.64539(11) 0.14416(9)
O2 O 0.5106(2) 0.18548(16) 0.2037(2)
O3 O 0.27069(18) 0.64085(17) 0.53589(10)
O4 O 0.48863(17) 0.68870(16) 0.50016(10)
P1 P 0.91523(5) 0.62074(4) 0.22843(3)
S1 S 0.36733(6) 0.68138(5) 0.47282(3)
loop_
_geom_bond_atom_site_label_1
_geom_bond_atom_site_label_2
_geom_bond_site_symmetry_1
_geom_bond_site_symmetry_2
C1 C2 1_555 1_555
C2 H1 1_555 1_555
H2 C2 1_555 1_555
C3 C1 1_555 1_555
C4 C3 1_555 1_555
H3 C4 1_555 1_555
C5 C4 1_555 1_555
C6 C5 1_555 1_555
H4 C6 1_555 1_555
H5 C6 1_555 1_555
C7 C1 1_555 1_555
H6 C7 1_555 1_555
H7 C7 1_555 1_555
H8 C7 1_555 1_555
C8 C1 1_555 1_555
C9 C8 1_555 1_555
H9 C9 1_555 1_555
C10 C9 1_555 1_555
H10 C10 1_555 1_555
C11 C10 1_555 1_555
C12 C11 1_555 1_555
H11 C12 1_555 1_555
C13 C8 1_555 1_555
H12 C13 1_555 1_555
C14 H13 1_555 1_555
H14 C14 1_555 1_555
H15 C14 1_555 1_555
C15 C16 1_555 1_555
C16 H16 1_555 1_555
C17 C16 1_555 1_555
H17 C17 1_555 1_555
C18 C17 1_555 1_555
H18 C18 1_555 1_555
C19 C18 1_555 1_555
H19 C19 1_555 1_555
C20 C15 1_555 1_555
H20 C20 1_555 1_555
C21 C22 1_555 1_555
C22 H21 1_555 1_555
C23 C22 1_555 1_555
H22 C23 1_555 1_555
C24 C23 1_555 1_555
H23 C24 1_555 1_555
C25 C24 1_555 1_555
H24 C25 1_555 1_555
C26 C21 1_555 1_555
H25 C26 1_555 1_555
C27 C28 1_555 1_555
C28 H26 1_555 1_555
C29 C28 1_555 1_555
H27 C29 1_555 1_555
C30 C29 1_555 1_555
C31 C30 1_555 1_555
H28 C31 1_555 1_555
C32 C27 1_555 1_555
H29 C32 1_555 1_555
C33 C30 1_555 1_555
H30 C33 1_555 1_555
H31 C33 1_555 1_555
H32 C33 1_555 1_555
C34 C5 1_555 1_555
C35 C34 1_555 1_555
H33 C35 1_555 1_555
C36 C35 1_555 1_555
H34 C36 1_555 1_555
C37 H35 1_555 1_555
C38 C34 1_555 1_555
H36 C38 1_555 1_555
C39 C36 1_555 1_555
C40 C39 1_555 1_555
C41 C40 1_555 1_555
H37 C41 1_555 1_555
C42 C41 1_555 1_555
H38 C42 1_555 1_555
C43 C42 1_555 1_555
H39 C43 1_555 1_555
C44 C43 1_555 1_555
H40 C44 1_555 1_555
C45 C40 1_555 1_555
H41 C45 1_555 1_555
O1 P1 1_555 1_555
O2 C11 1_555 1_555
O3 S1 1_555 1_555
O4 S1 1_555 1_555
P1 C3 1_555 1_555
S1 C6 1_555 1_555
C2 C3 1_555 1_555
C12 C13 1_555 1_555
C14 O2 1_555 1_555
C15 P1 1_555 1_555
C19 C20 1_555 1_555
C21 P1 1_555 1_555
C25 C26 1_555 1_555
C27 S1 1_555 1_555
C31 C32 1_555 1_555
C37 C38 1_555 1_555
C37 C39 1_555 1_555
C44 C45 1_555 1_555

#END
