
#######################################################################
#
#                 Cambridge Crystallographic Data Centre
#                                CCDC 
#
#######################################################################
#
# If this CIF has been generated from an entry in the Cambridge 
# Structural Database, then it will include bibliographic, chemical, 
# crystal, experimental, refinement or atomic coordinate data resulting 
# from the CCDC's data processing and validation procedures.
#
#######################################################################

data_HINHUK
_chemical_formula_moiety         'C19 H13 N3 O5 S1'
_chemical_name_systematic        
'[(3,4-dimethoxyphenyl)(1,1,3-trioxo-1,3-dihydro-2H-1\l^6^,2-benzothiazol-2-yl)methylidene]propanedinitrile'
_symmetry_cell_setting           monoclinic
_symmetry_space_group_name_H-M   'P 21/n'
_symmetry_Int_Tables_number      14
_space_group_name_Hall           '-P 2yn'
loop_
_symmetry_equiv_pos_site_id
_symmetry_equiv_pos_as_xyz
1 x,y,z
2 1/2-x,1/2+y,1/2-z
3 -x,-y,-z
4 1/2+x,1/2-y,1/2+z
_cell_length_a                   12.780(3)
_cell_length_b                   10.634(2)
_cell_length_c                   14.408(3)
_cell_angle_alpha                90
_cell_angle_beta                 113.464(5)
_cell_angle_gamma                90
_cell_volume                     1796.17
_exptl_crystal_colour            'dull greenish yellow'
_exptl_crystal_description       block
_cell_formula_units_Z            4
loop_
_atom_site_label
_atom_site_type_symbol
_atom_site_fract_x
_atom_site_fract_y
_atom_site_fract_z
S1 S 0.64554(3) 0.48434(4) 0.80888(3)
O1 O 0.89793(11) 0.58567(13) 0.48609(9)
O2 O 0.97180(10) 0.62072(12) 0.67770(9)
O3 O 0.59070(11) 0.83344(11) 0.81807(9)
O4 O 0.75363(12) 0.43948(13) 0.81800(11)
O5 O 0.54629(13) 0.41449(12) 0.74887(10)
N1 N 0.62349(12) 0.63633(12) 0.76632(10)
N2 N 0.33962(13) 0.68749(16) 0.70878(12)
C1 C 0.78057(14) 0.63905(15) 0.67219(12)
H1 H 0.8075 0.6535 0.7430
C2 C 0.85718(14) 0.62024(15) 0.62819(12)
C3 C 0.39940(14) 0.69484(17) 0.66745(12)
C4 C 0.66252(14) 0.63703(15) 0.61289(12)
C5 C 0.58397(14) 0.66006(15) 0.66084(12)
C6 C 0.64456(14) 0.52739(16) 0.92599(13)
C7 C 0.62342(15) 0.61345(16) 0.50898(12)
H2 H 0.5438 0.6094 0.4689
C8 C 0.61134(14) 0.72414(16) 0.83621(12)
C9 C 0.81637(15) 0.60007(15) 0.52226(13)
C10 C 0.70027(15) 0.59599(16) 0.46450(12)
H3 H 0.6731 0.5811 0.3938
C11 C 0.62411(14) 0.65512(16) 0.92970(12)
C12 C 0.47353(15) 0.70014(16) 0.61471(12)
N3 N 0.37482(16) 0.7895(2) 0.43432(14)
C13 C 0.86158(16) 0.57283(19) 0.37848(13)
H4 H 0.8168 0.6468 0.3447
H5 H 0.8146 0.4971 0.3555
H6 H 0.9286 0.5658 0.3618
C14 C 0.42210(16) 0.7490(2) 0.51426(14)
C15 C 0.65888(17) 0.4469(2) 1.00554(14)
H7 H 0.6746 0.3600 1.0025
C16 C 0.61380(15) 0.70702(19) 1.01375(13)
H8 H 0.5992 0.7942 1.0167
C17 C 1.01617(16) 0.6113(2) 0.78599(14)
H9 H 0.9796 0.5408 0.8052
H10 H 1.0005 0.6895 0.8141
H11 H 1.0987 0.5973 0.8126
C18 C 0.62567(17) 0.6268(2) 1.09383(14)
H12 H 0.6176 0.6596 1.1519
C19 C 0.64915(18) 0.4996(2) 1.09032(15)
H13 H 0.6587 0.4477 1.1468
loop_
_geom_bond_atom_site_label_1
_geom_bond_atom_site_label_2
_geom_bond_site_symmetry_1
_geom_bond_site_symmetry_2
S1 O4 1_555 1_555
O1 C9 1_555 1_555
O2 C2 1_555 1_555
O3 C8 1_555 1_555
O5 S1 1_555 1_555
N1 S1 1_555 1_555
N2 C3 1_555 1_555
C1 H1 1_555 1_555
C2 C1 1_555 1_555
C3 C12 1_555 1_555
C4 C1 1_555 1_555
C5 N1 1_555 1_555
C6 S1 1_555 1_555
C7 C4 1_555 1_555
H2 C7 1_555 1_555
C8 N1 1_555 1_555
C9 C2 1_555 1_555
C10 C7 1_555 1_555
H3 C10 1_555 1_555
C11 C6 1_555 1_555
C12 C5 1_555 1_555
N3 C14 1_555 1_555
C13 O1 1_555 1_555
H4 C13 1_555 1_555
H5 C13 1_555 1_555
H6 C13 1_555 1_555
C14 C12 1_555 1_555
C15 C6 1_555 1_555
H7 C15 1_555 1_555
C16 C11 1_555 1_555
H8 C16 1_555 1_555
C17 O2 1_555 1_555
H9 C17 1_555 1_555
H10 C17 1_555 1_555
H11 C17 1_555 1_555
C18 C16 1_555 1_555
H12 C18 1_555 1_555
C19 C15 1_555 1_555
H13 C19 1_555 1_555
C4 C5 1_555 1_555
C8 C11 1_555 1_555
C9 C10 1_555 1_555
C18 C19 1_555 1_555

#END
