
#######################################################################
#
#                 Cambridge Crystallographic Data Centre
#                                CCDC 
#
#######################################################################
#
# If this CIF has been generated from an entry in the Cambridge 
# Structural Database, then it will include bibliographic, chemical, 
# crystal, experimental, refinement or atomic coordinate data resulting 
# from the CCDC's data processing and validation procedures.
#
#######################################################################

data_HINKOG
_chemical_formula_moiety         'C12 H9 I1 S1'
_chemical_name_systematic        '2-Iodophenyl phenyl sulfide'
_symmetry_cell_setting           monoclinic
_symmetry_space_group_name_H-M   'P 21/c'
_symmetry_Int_Tables_number      14
_space_group_name_Hall           '-P 2ybc'
loop_
_symmetry_equiv_pos_site_id
_symmetry_equiv_pos_as_xyz
1 x,y,z
2 -x,1/2+y,1/2-z
3 -x,-y,-z
4 x,1/2-y,1/2+z
_cell_length_a                   8.2612(17)
_cell_length_b                   7.5905(15)
_cell_length_c                   18.540(4)
_cell_angle_alpha                90
_cell_angle_beta                 97.43(3)
_cell_angle_gamma                90
_cell_volume                     1152.82
_exptl_crystal_colour            colorless
_exptl_crystal_description       plate
_cell_formula_units_Z            4
loop_
_atom_site_label
_atom_site_type_symbol
_atom_site_fract_x
_atom_site_fract_y
_atom_site_fract_z
I1 I 0.12248(4) 0.17920(5) 0.24345(2)
S1 S 0.13258(16) -0.13536(19) 0.11792(8)
C1 C 0.4703(7) 0.2029(7) 0.2135(3)
H1 H 0.4743 0.2885 0.2496
C2 C 0.6068(7) 0.1674(7) 0.1807(4)
H2 H 0.7038 0.2276 0.1949
C3 C 0.5990(6) 0.0423(7) 0.1267(3)
H3 H 0.6911 0.0191 0.1043
C4 C 0.4566(6) -0.0496(7) 0.1054(3)
H4 H 0.4531 -0.1330 0.0685
C5 C 0.3176(5) -0.0173(6) 0.1393(2)
C6 C 0.3273(6) 0.1115(6) 0.1927(3)
C7 C 0.1251(6) -0.2936(7) -0.0149(3)
H5 H 0.0615 -0.1981 -0.0326
C8 C 0.1590(7) -0.4260(8) -0.0612(3)
H6 H 0.1174 -0.4202 -0.1102
C9 C 0.2536(7) -0.5662(8) -0.0357(3)
H7 H 0.2775 -0.6544 -0.0675
C10 C 0.3134(7) -0.5768(7) 0.0369(3)
H8 H 0.3774 -0.6724 0.0541
C11 C 0.2787(7) -0.4457(7) 0.0842(3)
H9 H 0.3175 -0.4538 0.1335
C12 C 0.1857(6) -0.3026(6) 0.0580(3)
loop_
_geom_bond_atom_site_label_1
_geom_bond_atom_site_label_2
_geom_bond_site_symmetry_1
_geom_bond_site_symmetry_2
I1 C6 1_555 1_555
S1 C5 1_555 1_555
C1 H1 1_555 1_555
C2 C1 1_555 1_555
H2 C2 1_555 1_555
C3 C2 1_555 1_555
H3 C3 1_555 1_555
C4 C3 1_555 1_555
H4 C4 1_555 1_555
C5 C4 1_555 1_555
C6 C1 1_555 1_555
C7 H5 1_555 1_555
C8 C7 1_555 1_555
H6 C8 1_555 1_555
C9 C8 1_555 1_555
H7 C9 1_555 1_555
C10 C9 1_555 1_555
H8 C10 1_555 1_555
C11 C10 1_555 1_555
H9 C11 1_555 1_555
C12 S1 1_555 1_555
C5 C6 1_555 1_555
C7 C12 1_555 1_555
C11 C12 1_555 1_555

#END
