
#######################################################################
#
#                 Cambridge Crystallographic Data Centre
#                                CCDC 
#
#######################################################################
#
# If this CIF has been generated from an entry in the Cambridge 
# Structural Database, then it will include bibliographic, chemical, 
# crystal, experimental, refinement or atomic coordinate data resulting 
# from the CCDC's data processing and validation procedures.
#
#######################################################################

data_HINKAT
_chemical_formula_moiety         'C22 H17 N1 O1 S1'
_chemical_name_systematic        
(S)-3-(3-phenylprop-2-yn-1-yl)-3-(thiophen-2-ylmethyl)indolin-2-one
_symmetry_cell_setting           orthorhombic
_symmetry_space_group_name_H-M   'P 21 21 21'
_symmetry_Int_Tables_number      19
_space_group_name_Hall           'P 2ac 2ab'
loop_
_symmetry_equiv_pos_site_id
_symmetry_equiv_pos_as_xyz
1 x,y,z
2 1/2-x,-y,1/2+z
3 -x,1/2+y,1/2-z
4 1/2+x,1/2-y,-z
_cell_length_a                   8.4520(3)
_cell_length_b                   10.2434(4)
_cell_length_c                   21.4521(10)
_cell_angle_alpha                90
_cell_angle_beta                 90
_cell_angle_gamma                90
_cell_volume                     1857.26
_exptl_crystal_colour            colorless
_exptl_crystal_description       plate
_cell_formula_units_Z            4
_exptl_crystal_recrystallization_method 'Re-crystallisation from solvent'
loop_
_atom_site_label
_atom_site_type_symbol
_atom_site_fract_x
_atom_site_fract_y
_atom_site_fract_z
O1 O 0.7403(4) 0.6824(3) 0.48065(18)
N1 N 0.5096(4) 0.6421(3) 0.53328(16)
H1 H 0.4621 0.7146 0.5257
C1 C 0.2692(8) 0.4115(7) 0.3136(3)
H2 H 0.3428 0.3611 0.2922
C2 C 0.1278(11) 0.4484(10) 0.2847(3)
H3 H 0.1078 0.4227 0.2439
C3 C 0.0191(10) 0.5216(8) 0.3160(4)
H4 H -0.0731 0.5476 0.2959
C4 C 0.0437(7) 0.5568(8) 0.3759(4)
H5 H -0.0337 0.6028 0.3974
C5 C 0.1844(6) 0.5242(6) 0.4051(3)
H6 H 0.2024 0.5520 0.4458
C6 C 0.2995(6) 0.4506(5) 0.3747(2)
C7 C 0.4435(6) 0.4194(5) 0.4060(2)
C8 C 0.5631(6) 0.3968(5) 0.4345(2)
C9 C 0.7038(5) 0.3852(5) 0.4732(2)
H7 H 0.7959 0.4104 0.4491
H8 H 0.7171 0.2948 0.4856
C10 C 0.6930(4) 0.4715(4) 0.5319(2)
C11 C 0.5508(4) 0.4375(3) 0.57110(18)
C12 C 0.5136(5) 0.3283(4) 0.6046(2)
H9 H 0.5830 0.2579 0.6061
C13 C 0.3703(6) 0.3240(5) 0.6365(2)
H10 H 0.3448 0.2507 0.6600
C14 C 0.2666(5) 0.4261(6) 0.6337(2)
H11 H 0.1708 0.4208 0.6549
C15 C 0.3024(4) 0.5378(5) 0.5997(2)
H12 H 0.2321 0.6075 0.5976
C16 C 0.4444(4) 0.5413(4) 0.56945(18)
C17 C 0.6550(4) 0.6124(4) 0.51188(19)
C18 C 0.8523(4) 0.4656(5) 0.5675(2)
H13 H 0.8746 0.3752 0.5777
H14 H 0.9355 0.4958 0.5399
C19 C 0.8583(4) 0.5440(5) 0.6260(2)
C20 C 0.8506(8) 0.6104(11) 0.7334(4)
H15 H 0.8365 0.5873 0.7752
C21 C 0.8834(11) 0.7150(9) 0.6991(5)
H16 H 0.9080 0.8018 0.7081
S1 S 0.8230(3) 0.4776(3) 0.69539(10)
C22 C 0.8940(4) 0.6930(3) 0.62960(18)
C23? C 0.8230(3) 0.4776(3) 0.69539(10)
S2? S 0.8940(4) 0.6930(3) 0.62960(18)
loop_
_geom_bond_atom_site_label_1
_geom_bond_atom_site_label_2
_geom_bond_site_symmetry_1
_geom_bond_site_symmetry_2
O1 C17 1_555 1_555
N1 H1 1_555 1_555
C1 H2 1_555 1_555
C2 C1 1_555 1_555
H3 C2 1_555 1_555
C3 C2 1_555 1_555
H4 C3 1_555 1_555
C4 C3 1_555 1_555
H5 C4 1_555 1_555
C5 C4 1_555 1_555
H6 C5 1_555 1_555
C6 C1 1_555 1_555
C7 C6 1_555 1_555
C8 C7 1_555 1_555
C9 C8 1_555 1_555
H7 C9 1_555 1_555
H8 C9 1_555 1_555
C10 C9 1_555 1_555
C11 C10 1_555 1_555
C12 C11 1_555 1_555
H9 C12 1_555 1_555
C13 C12 1_555 1_555
H10 C13 1_555 1_555
C14 C13 1_555 1_555
H11 C14 1_555 1_555
C15 C14 1_555 1_555
H12 C15 1_555 1_555
C16 N1 1_555 1_555
C17 N1 1_555 1_555
C18 C10 1_555 1_555
H13 C18 1_555 1_555
H14 C18 1_555 1_555
C19 C18 1_555 1_555
C20 H15 1_555 1_555
C21 C20 1_555 1_555
H16 C21 1_555 1_555
S1 C19 1_555 1_555
C22 C19 1_555 1_555
C5 C6 1_555 1_555
C10 C17 1_555 1_555
C11 C16 1_555 1_555
C15 C16 1_555 1_555
C20 S1 1_555 1_555
C21 C22 1_555 1_555

#END
