
#######################################################################
#
#                 Cambridge Crystallographic Data Centre
#                                CCDC 
#
#######################################################################
#
# If this CIF has been generated from an entry in the Cambridge 
# Structural Database, then it will include bibliographic, chemical, 
# crystal, experimental, refinement or atomic coordinate data resulting 
# from the CCDC's data processing and validation procedures.
#
#######################################################################

data_HINLUO
_chemical_formula_moiety         'C18 H14 O1'
_chemical_name_systematic        (4-methyl-1-naphthyl)(phenyl)methanone
_symmetry_cell_setting           monoclinic
_symmetry_space_group_name_H-M   'C 2/c'
_symmetry_Int_Tables_number      15
_space_group_name_Hall           '-C 2yn'
loop_
_symmetry_equiv_pos_site_id
_symmetry_equiv_pos_as_xyz
1 x,y,z
2 -x,y,1/2-z
3 1/2+x,1/2+y,z
4 1/2-x,1/2+y,1/2-z
5 -x,-y,-z
6 x,-y,1/2+z
7 1/2-x,1/2-y,-z
8 1/2+x,1/2-y,1/2+z
_cell_length_a                   21.679(6)
_cell_length_b                   8.287(2)
_cell_length_c                   15.398(5)
_cell_angle_alpha                90
_cell_angle_beta                 106.663(5)
_cell_angle_gamma                90
_cell_volume                     2650.15
_exptl_crystal_colour            white
_exptl_crystal_description       block
_cell_formula_units_Z            8
loop_
_atom_site_label
_atom_site_type_symbol
_atom_site_fract_x
_atom_site_fract_y
_atom_site_fract_z
C1 C 0.34660(6) 0.40108(15) 0.19660(9)
C2 C 0.28890(6) 0.32838(15) 0.20420(9)
C3 C 0.34654(7) 0.47779(16) 0.11395(10)
C4 C 0.40803(7) 0.54177(17) 0.10082(10)
C5 C 0.40199(7) 0.39635(18) 0.27144(10)
H1 H 0.4397 0.4444 0.2669
C6 C 0.42302(6) 0.71592(16) 0.11384(9)
C7 C 0.23223(7) 0.33572(18) 0.13025(10)
C8 C 0.29099(7) 0.4852(2) 0.04539(11)
H2 H 0.2904 0.5384 -0.0080
C9 C 0.29124(8) 0.25034(19) 0.28711(11)
H3 H 0.2545 0.1998 0.2935
O1 O 0.44452(6) 0.44959(14) 0.07940(11)
C10 C 0.47913(7) 0.7746(2) 0.09939(11)
H4 H 0.5070 0.7051 0.0818
C11 C 0.38251(7) 0.82124(18) 0.14034(10)
H5 H 0.3447 0.7828 0.1500
C12 C 0.40156(8) 0.3230(2) 0.35024(11)
H6 H 0.4385 0.3230 0.3994
C13 C 0.23430(7) 0.4137(2) 0.05391(11)
H7 H 0.1970 0.4202 0.0056
C14 C 0.45252(10) 1.0395(2) 0.13749(14)
H8 H 0.4625 1.1488 0.1450
C15 C 0.39752(9) 0.9828(2) 0.15263(13)
H9 H 0.3702 1.0528 0.1712
C16 C 0.34588(9) 0.2479(2) 0.35724(12)
H10 H 0.3461 0.1953 0.4107
C17 C 0.17021(8) 0.2591(3) 0.13548(13)
H11 H 0.1373 0.2760 0.0793
H12 H 0.1572 0.3071 0.1841
H13 H 0.1767 0.1454 0.1463
C18 C 0.49328(9) 0.9364(2) 0.11120(14)
H14 H 0.5308 0.9761 0.1013
loop_
_geom_bond_atom_site_label_1
_geom_bond_atom_site_label_2
_geom_bond_site_symmetry_1
_geom_bond_site_symmetry_2
C1 C2 1_555 1_555
C2 C7 1_555 1_555
C3 C1 1_555 1_555
C4 C3 1_555 1_555
C5 C1 1_555 1_555
H1 C5 1_555 1_555
C6 C4 1_555 1_555
C7 C13 1_555 1_555
C8 C3 1_555 1_555
H2 C8 1_555 1_555
C9 C2 1_555 1_555
H3 C9 1_555 1_555
O1 C4 1_555 1_555
C10 C6 1_555 1_555
H4 C10 1_555 1_555
C11 C6 1_555 1_555
H5 C11 1_555 1_555
C12 C5 1_555 1_555
H6 C12 1_555 1_555
C13 C8 1_555 1_555
H7 C13 1_555 1_555
C14 H8 1_555 1_555
C15 C11 1_555 1_555
H9 C15 1_555 1_555
C16 C9 1_555 1_555
H10 C16 1_555 1_555
C17 C7 1_555 1_555
H11 C17 1_555 1_555
H12 C17 1_555 1_555
H13 C17 1_555 1_555
C18 C10 1_555 1_555
H14 C18 1_555 1_555
C12 C16 1_555 1_555
C14 C15 1_555 1_555
C14 C18 1_555 1_555

#END
