
#######################################################################
#
#                 Cambridge Crystallographic Data Centre
#                                CCDC 
#
#######################################################################
#
# If this CIF has been generated from an entry in the Cambridge 
# Structural Database, then it will include bibliographic, chemical, 
# crystal, experimental, refinement or atomic coordinate data resulting 
# from the CCDC's data processing and validation procedures.
#
#######################################################################

data_HINMUP
_chemical_formula_moiety         'C18 H13 Cl1 O1'
_chemical_name_systematic        
(4-chlorophenyl)(1-methyl-2-naphthyl)methanone
_symmetry_cell_setting           orthorhombic
_symmetry_space_group_name_H-M   'P b c a'
_symmetry_Int_Tables_number      61
_space_group_name_Hall           '-P 2ac 2ab'
loop_
_symmetry_equiv_pos_site_id
_symmetry_equiv_pos_as_xyz
1 x,y,z
2 1/2-x,-y,1/2+z
3 -x,1/2+y,1/2-z
4 1/2+x,1/2-y,-z
5 -x,-y,-z
6 1/2+x,y,1/2-z
7 x,1/2-y,1/2+z
8 1/2-x,1/2+y,z
_cell_length_a                   16.0549(14)
_cell_length_b                   6.3429(6)
_cell_length_c                   27.394(3)
_cell_angle_alpha                90
_cell_angle_beta                 90
_cell_angle_gamma                90
_cell_volume                     2789.66
_exptl_crystal_colour            white
_exptl_crystal_description       block
_cell_formula_units_Z            8
loop_
_atom_site_label
_atom_site_type_symbol
_atom_site_fract_x
_atom_site_fract_y
_atom_site_fract_z
Cl1 Cl 0.32687(6) 0.21142(15) 0.57989(3)
C1 C 0.36638(12) -0.2785(3) 0.27421(8)
C2 C 0.41298(13) -0.2495(4) 0.35823(8)
C3 C 0.40996(13) -0.0899(4) 0.26312(8)
C4 C 0.36832(13) -0.3567(3) 0.32384(8)
C5 C 0.42166(15) -0.3306(4) 0.40954(8)
C6 C 0.39720(13) -0.1909(4) 0.45118(8)
O1 O 0.44977(14) -0.5061(3) 0.41761(7)
C7 C 0.45657(15) -0.0588(4) 0.34612(9)
H1 H 0.4865 0.0128 0.3700
C8 C 0.32437(14) -0.3823(4) 0.23650(9)
H2 H 0.2952 -0.5056 0.2431
C9 C 0.41604(15) -0.2536(4) 0.49847(9)
H3 H 0.4437 -0.3804 0.5036
C10 C 0.31824(16) -0.5460(4) 0.33652(10)
H4 H 0.3255 -0.5782 0.3705
H5 H 0.3364 -0.6635 0.3172
H6 H 0.2605 -0.5186 0.3301
C11 C 0.35444(14) -0.0042(4) 0.44466(9)
H7 H 0.3402 0.0385 0.4133
C12 C 0.32579(16) -0.3053(5) 0.19054(11)
H8 H 0.2981 -0.3786 0.1660
C13 C 0.45413(15) 0.0164(4) 0.30008(10)
H9 H 0.4821 0.1407 0.2926
C14 C 0.33241(15) 0.1204(4) 0.48400(9)
H10 H 0.3039 0.2464 0.4793
C15 C 0.40877(15) -0.0117(4) 0.21423(9)
H11 H 0.4362 0.1131 0.2065
C16 C 0.35330(16) 0.0550(4) 0.53004(9)
C17 C 0.36707(17) -0.1213(5) 0.17883(9)
H12 H 0.3665 -0.0718 0.1469
C18 C 0.39443(17) -0.1314(5) 0.53781(9)
H13 H 0.4075 -0.1744 0.5693
loop_
_geom_bond_atom_site_label_1
_geom_bond_atom_site_label_2
_geom_bond_site_symmetry_1
_geom_bond_site_symmetry_2
Cl1 C16 1_555 1_555
C1 C3 1_555 1_555
C2 C4 1_555 1_555
C3 C13 1_555 1_555
C4 C1 1_555 1_555
C5 C2 1_555 1_555
C6 C5 1_555 1_555
O1 C5 1_555 1_555
C7 C2 1_555 1_555
H1 C7 1_555 1_555
C8 C1 1_555 1_555
H2 C8 1_555 1_555
C9 C6 1_555 1_555
H3 C9 1_555 1_555
C10 C4 1_555 1_555
H4 C10 1_555 1_555
H5 C10 1_555 1_555
H6 C10 1_555 1_555
C11 C6 1_555 1_555
H7 C11 1_555 1_555
C12 C8 1_555 1_555
H8 C12 1_555 1_555
C13 C7 1_555 1_555
H9 C13 1_555 1_555
C14 C11 1_555 1_555
H10 C14 1_555 1_555
C15 C3 1_555 1_555
H11 C15 1_555 1_555
C16 C14 1_555 1_555
C17 C12 1_555 1_555
H12 C17 1_555 1_555
C18 C9 1_555 1_555
H13 C18 1_555 1_555
C15 C17 1_555 1_555
C16 C18 1_555 1_555

#END
