
#######################################################################
#
#                 Cambridge Crystallographic Data Centre
#                                CCDC 
#
#######################################################################
#
# If this CIF has been generated from an entry in the Cambridge 
# Structural Database, then it will include bibliographic, chemical, 
# crystal, experimental, refinement or atomic coordinate data resulting 
# from the CCDC's data processing and validation procedures.
#
#######################################################################

data_HINQAW
_chemical_formula_moiety         'C13 H18 O3 Te1'
_chemical_name_systematic        
(2R-(2\a,3a\a,6\a,7a\b))-Spiro(3a,4,5,6,7,7a-tetrahydro-8,8-dimethyl-3a,6-methano-3H-1,2-benzoxatellurole-2,2'\l^4^-5H-1,2-oxatellurol-5'-one)
_symmetry_cell_setting           orthorhombic
_symmetry_space_group_name_H-M   'P 21 21 21'
_symmetry_Int_Tables_number      19
_space_group_name_Hall           'P 2ac 2ab'
loop_
_symmetry_equiv_pos_site_id
_symmetry_equiv_pos_as_xyz
1 x,y,z
2 1/2-x,-y,1/2+z
3 1/2+x,1/2-y,-z
4 -x,1/2+y,1/2-z
_cell_length_a                   11.8(1)
_cell_length_b                   32.9(1)
_cell_length_c                   7.2(1)
_cell_angle_alpha                90
_cell_angle_beta                 90
_cell_angle_gamma                90
_cell_volume                     2795.18
_exptl_crystal_colour            colorless
_exptl_crystal_description       prismatic
_chemical_melting_point          '146-147 deg.C'
_cell_formula_units_Z            8
_exptl_crystal_recrystallization_method hexane/dichloromethane
loop_
_atom_site_label
_atom_site_type_symbol
_atom_site_fract_x
_atom_site_fract_y
_atom_site_fract_z
Te1 Te -0.6917(1) 0.06112(4) 0.3453(2)
O3 O -0.776(1) 0.0329(4) -0.214(2)
O4 O -0.791(1) 0.0556(4) 0.080(2)
O6 O -0.570(1) 0.0760(4) 0.536(2)
C2 C -0.605(2) 0.0372(6) -0.023(3)
C4 C -0.662(2) 0.1643(6) 0.590(3)
C7 C -0.733(2) 0.0412(6) -0.059(3)
C10 C -0.565(2) 0.0445(6) 0.148(3)
C14 C -0.523(2) 0.1149(6) 0.487(3)
C15 C -0.541(2) 0.1766(7) 0.659(4)
C16 C -0.545(2) 0.1801(7) 0.317(3)
C17 C -0.696(2) 0.1240(5) 0.280(3)
C21 C -0.477(2) 0.1371(7) 0.668(4)
C22 C -0.744(2) 0.1996(6) 0.550(4)
C23 C -0.493(2) 0.2010(7) 0.495(5)
C24 C -0.727(2) 0.1362(7) 0.723(3)
C26 C -0.613(2) 0.1447(5) 0.406(3)
H1 H -0.5557 0.0307 -0.1235
H3 H -0.4869 0.0408 0.1787
H7 H -0.4610 0.1117 0.4026
H8 H -0.5439 0.1918 0.7730
H12 H -0.7069 0.2186 0.4634
H13 H -0.7602 0.2141 0.6598
H14 H -0.8108 0.1903 0.4929
H15 H -0.7930 0.1271 0.6697
H16 H -0.7416 0.1510 0.8355
H17 H -0.6780 0.1136 0.7551
H25 H -0.4873 0.1692 0.2372
H26 H -0.5926 0.1975 0.2499
H27 H -0.7696 0.1344 0.3000
H28 H -0.6735 0.1280 0.1552
H33 H -0.3983 0.1401 0.6720
H34 H -0.4993 0.1213 0.7809
H35 H -0.4117 0.1990 0.4909
H36 H -0.5141 0.2286 0.4975
Te2 Te -0.1479(1) 0.08516(4) 0.2814(2)
O1 O -0.285(1) 0.0425(4) 0.226(2)
O2 O -0.015(1) 0.1227(3) 0.253(2)
O5 O -0.309(2) -0.0235(5) 0.148(3)
C1 C -0.010(2) 0.1409(6) 0.069(3)
C3 C -0.129(2) 0.1478(5) -0.018(3)
C5 C -0.055(2) 0.0386(6) 0.170(4)
C6 C -0.248(2) 0.0064(7) 0.170(3)
C8 C -0.054(2) 0.2088(6) -0.012(3)
C9 C -0.164(2) 0.1894(6) 0.058(3)
C11 C -0.207(2) 0.1124(6) 0.020(3)
C12 C -0.108(2) 0.1570(7) -0.227(3)
C13 C -0.124(2) 0.0052(6) 0.136(3)
C18 C 0.037(2) 0.1848(6) 0.080(3)
C19 C -0.056(2) 0.1989(7) -0.220(4)
C20 C -0.181(2) 0.1908(7) 0.278(3)
C25 C -0.274(2) 0.2057(7) -0.029(4)
H2 H 0.0229 0.0384 0.1434
H4 H -0.0889 -0.0198 0.0912
H5 H 0.0356 0.1250 -0.0125
H6 H -0.0501 0.2374 0.0140
H9 H -0.1987 0.2166 0.3176
H10 H -0.1166 0.1800 0.3382
H11 H -0.2455 0.1726 0.3094
H18 H -0.2688 0.2051 -0.1636
H19 H -0.2897 0.2320 0.0104
H20 H -0.3372 0.1880 0.0035
H21 H -0.2848 0.1213 0.0294
H22 H -0.2039 0.0930 -0.0811
H23 H -0.1805 0.1552 -0.2938
H24 H -0.0596 0.1366 -0.2804
H29 H 0.1086 0.1860 0.0196
H30 H 0.0476 0.1916 0.2092
H31 H 0.0150 0.1997 -0.2723
H32 H -0.1060 0.2183 -0.2835
loop_
_geom_bond_atom_site_label_1
_geom_bond_atom_site_label_2
_geom_bond_site_symmetry_1
_geom_bond_site_symmetry_2
Te1 O4 1_555 1_555
Te2 O1 1_555 1_555
O1 C6 1_555 1_555
O2 Te2 1_555 1_555
O3 C7 1_555 1_555
O4 C7 1_555 1_555
O5 C6 1_555 1_555
O6 Te1 1_555 1_555
C1 O2 1_555 1_555
C2 C7 1_555 1_555
C3 C1 1_555 1_555
C4 C15 1_555 1_555
C5 Te2 1_555 1_555
C6 C13 1_555 1_555
C8 C9 1_555 1_555
C9 C3 1_555 1_555
C10 Te1 1_555 1_555
C11 Te2 1_555 1_555
C12 C3 1_555 1_555
C13 C5 1_555 1_555
C14 O6 1_555 1_555
C15 C21 1_555 1_555
C16 C23 1_555 1_555
C17 Te1 1_555 1_555
C18 C1 1_555 1_555
C19 C8 1_555 1_555
C20 C9 1_555 1_555
C21 C14 1_555 1_555
C22 C4 1_555 1_555
C23 C15 1_555 1_555
C24 C4 1_555 1_555
C25 C9 1_555 1_555
C26 C4 1_555 1_555
H1 C2 1_555 1_555
H2 C5 1_555 1_555
H3 C10 1_555 1_555
H4 C13 1_555 1_555
H5 C1 1_555 1_555
H6 C8 1_555 1_555
H7 C14 1_555 1_555
H8 C15 1_555 1_555
H9 C20 1_555 1_555
H10 C20 1_555 1_555
H11 C20 1_555 1_555
H12 C22 1_555 1_555
H13 C22 1_555 1_555
H14 C22 1_555 1_555
H15 C24 1_555 1_555
H16 C24 1_555 1_555
H17 C24 1_555 1_555
H18 C25 1_555 1_555
H19 C25 1_555 1_555
H20 C25 1_555 1_555
H21 C11 1_555 1_555
H22 C11 1_555 1_555
H23 C12 1_555 1_555
H24 C12 1_555 1_555
H25 C16 1_555 1_555
H26 C16 1_555 1_555
H27 C17 1_555 1_555
H28 C17 1_555 1_555
H29 C18 1_555 1_555
H30 C18 1_555 1_555
H31 C19 1_555 1_555
H32 C19 1_555 1_555
H33 C21 1_555 1_555
H34 C21 1_555 1_555
H35 C23 1_555 1_555
H36 C23 1_555 1_555
C2 C10 1_555 1_555
C3 C11 1_555 1_555
C8 C18 1_555 1_555
C12 C19 1_555 1_555
C14 C26 1_555 1_555
C16 C26 1_555 1_555
C17 C26 1_555 1_555

#END
