
#######################################################################
#
#                 Cambridge Crystallographic Data Centre
#                                CCDC 
#
#######################################################################
#
# If this CIF has been generated from an entry in the Cambridge 
# Structural Database, then it will include bibliographic, chemical, 
# crystal, experimental, refinement or atomic coordinate data resulting 
# from the CCDC's data processing and validation procedures.
#
#######################################################################

data_HINQAZ
_chemical_formula_moiety         'C18 H18 N2 O3'
_chemical_name_systematic        
5a,6,6-trimethyl-1-nitro-5a,6-dihydro-12H-indolo[2,1-b][1,3]benzoxazine
_symmetry_cell_setting           monoclinic
_symmetry_space_group_name_H-M   'P 21/n'
_symmetry_Int_Tables_number      14
_space_group_name_Hall           '-P 2yn'
loop_
_symmetry_equiv_pos_site_id
_symmetry_equiv_pos_as_xyz
1 x,y,z
2 1/2-x,1/2+y,1/2-z
3 -x,-y,-z
4 1/2+x,1/2-y,1/2+z
_cell_length_a                   8.2502(3)
_cell_length_b                   17.5045(6)
_cell_length_c                   11.1549(4)
_cell_angle_alpha                90
_cell_angle_beta                 105.9330(10)
_cell_angle_gamma                90
_cell_volume                     1549.05
_exptl_crystal_colour            yellow
_exptl_crystal_description       Block
_cell_formula_units_Z            4
loop_
_atom_site_label
_atom_site_type_symbol
_atom_site_fract_x
_atom_site_fract_y
_atom_site_fract_z
O1 O 0.6617(2) -0.07607(7) 0.89791(18)
O2 O 0.69253(17) -0.01281(6) 1.06561(12)
O3 O 0.91399(10) 0.24227(4) 0.94230(7)
N1 N 0.71081(16) -0.02014(6) 0.96206(13)
N2 N 0.74557(12) 0.22280(6) 1.08126(9)
C1 C 0.79384(15) 0.04095(7) 0.91034(11)
C2 C 0.85227(18) 0.02052(7) 0.81017(13)
H1 H 0.8387 -0.0291 0.7790
C3 C 0.93150(19) 0.07539(8) 0.75714(13)
H2 H 0.9722 0.0628 0.6897
C4 C 0.95033(16) 0.14865(7) 0.80399(11)
H3 H 1.0032 0.1854 0.7677
C5 C 0.89081(13) 0.16806(6) 0.90525(10)
C6 C 0.80848(13) 0.11444(6) 0.96181(10)
C7 C 0.74213(16) 0.13996(7) 1.06926(11)
H4 H 0.6273 0.1220 1.0558
H5 H 0.8103 0.1175 1.1461
C8 C 0.89564(14) 0.26021(7) 1.06672(10)
C9 C 1.05575(17) 0.23498(9) 1.16204(13)
H6 H 1.0424 0.2408 1.2444
H7 H 1.1484 0.2658 1.1540
H8 H 1.0778 0.1823 1.1481
C10 C 0.85031(15) 0.34651(7) 1.06205(12)
C11 C 0.94009(19) 0.39441(8) 0.98530(17)
H9 H 1.0596 0.3920 1.0223
H10 H 0.9033 0.4465 0.9836
H11 H 0.9138 0.3749 0.9018
C12 C 0.8857(2) 0.37911(9) 1.19533(15)
H12 H 1.0051 0.3804 1.2333
H13 H 0.8330 0.3473 1.2439
H14 H 0.8410 0.4300 1.1917
C13 C 0.66108(14) 0.34227(6) 1.00579(10)
C14 C 0.60665(14) 0.26816(6) 1.02050(10)
C15 C 0.43671(16) 0.24945(8) 0.98233(12)
H15 H 0.4000 0.2003 0.9929
C16 C 0.32292(16) 0.30655(9) 0.92779(14)
H16 H 0.2086 0.2950 0.9010
C17 C 0.37536(17) 0.37979(8) 0.91244(13)
H17 H 0.2969 0.4169 0.8755
C18 C 0.54645(17) 0.39812(7) 0.95237(12)
H18 H 0.5826 0.4475 0.9430
loop_
_geom_bond_atom_site_label_1
_geom_bond_atom_site_label_2
_geom_bond_site_symmetry_1
_geom_bond_site_symmetry_2
O1 N1 1_555 1_555
O2 N1 1_555 1_555
O3 C5 1_555 1_555
N1 C1 1_555 1_555
N2 C7 1_555 1_555
C1 C2 1_555 1_555
C2 H1 1_555 1_555
C3 C2 1_555 1_555
H2 C3 1_555 1_555
C4 C3 1_555 1_555
H3 C4 1_555 1_555
C5 C4 1_555 1_555
C6 C1 1_555 1_555
C7 C6 1_555 1_555
H4 C7 1_555 1_555
H5 C7 1_555 1_555
C8 O3 1_555 1_555
C9 C8 1_555 1_555
H6 C9 1_555 1_555
H7 C9 1_555 1_555
H8 C9 1_555 1_555
C10 C8 1_555 1_555
C11 C10 1_555 1_555
H9 C11 1_555 1_555
H10 C11 1_555 1_555
H11 C11 1_555 1_555
C12 C10 1_555 1_555
H12 C12 1_555 1_555
H13 C12 1_555 1_555
H14 C12 1_555 1_555
C13 C10 1_555 1_555
C14 N2 1_555 1_555
C15 C14 1_555 1_555
H15 C15 1_555 1_555
C16 C15 1_555 1_555
H16 C16 1_555 1_555
C17 C16 1_555 1_555
H17 C17 1_555 1_555
C18 C13 1_555 1_555
H18 C18 1_555 1_555
N2 C8 1_555 1_555
C5 C6 1_555 1_555
C13 C14 1_555 1_555
C17 C18 1_555 1_555

#END
