
#######################################################################
#
#                 Cambridge Crystallographic Data Centre
#                                CCDC 
#
#######################################################################
#
# If this CIF has been generated from an entry in the Cambridge 
# Structural Database, then it will include bibliographic, chemical, 
# crystal, experimental, refinement or atomic coordinate data resulting 
# from the CCDC's data processing and validation procedures.
#
#######################################################################

data_HINRUR
_chemical_formula_moiety         'C12 H16 Br1 N1 O3'
_chemical_name_systematic        
't-Butyl (Z)-1-bromo-1-(1-hydroxycyclopropyl)-2-cyanocyclopropane-2 carboxylate'
_symmetry_cell_setting           orthorhombic
_symmetry_space_group_name_H-M   'P c a 21'
_symmetry_Int_Tables_number      29
_space_group_name_Hall           'P 2c -2ac'
loop_
_symmetry_equiv_pos_site_id
_symmetry_equiv_pos_as_xyz
1 x,y,z
2 -x,-y,1/2+z
3 1/2+x,-y,z
4 1/2-x,y,1/2+z
_cell_length_a                   12.0366(2)
_cell_length_b                   10.6170(2)
_cell_length_c                   10.7646(2)
_cell_angle_alpha                90
_cell_angle_beta                 90
_cell_angle_gamma                90
_cell_volume                     1375.64
_exptl_crystal_colour            'light yellow'
_exptl_crystal_description       plate
_chemical_melting_point          147-149deg.C
_cell_formula_units_Z            4
_exptl_crystal_recrystallization_method 'hexane/diethyl ether'
loop_
_atom_site_label
_atom_site_type_symbol
_atom_site_fract_x
_atom_site_fract_y
_atom_site_fract_z
Br1 Br 1.07788(2) 0.12023(2) 0.01703(3)
O1 O 0.9783(2) 0.3587(2) 0.2948(2)
O2 O 1.1072(2) 0.3919(2) 0.1438(2)
O3 O 1.0048(2) -0.0647(2) 0.2414(2)
N1 N 1.0806(2) 0.1555(2) 0.5053(3)
C1 C 1.1365(2) 0.0986(2) 0.1833(2)
C2 C 1.1205(2) 0.2105(2) 0.2748(2)
C3 C 1.2337(2) 0.1754(3) 0.2210(3)
C4 C 1.1174(2) -0.0333(2) 0.2275(2)
C5 C 1.1960(3) -0.1334(3) 0.1832(3)
C6 C 1.1942(3) -0.0955(3) 0.3188(3)
C7 C 1.0973(2) 0.1791(2) 0.4035(2)
C8 C 1.0688(2) 0.3318(3) 0.2286(3)
C9 C 0.9099(2) 0.4726(3) 0.2651(2)
C10 C 0.9799(3) 0.5899(3) 0.2860(3)
C11 C 0.8174(3) 0.4625(4) 0.3603(3)
C12 C 0.8658(3) 0.4620(4) 0.1336(3)
H1 H 0.9825(33) -0.0820(36) 0.1831(40)
H2 H 1.2586(20) 0.2291(23) 0.1647(23)
H3 H 1.2855(23) 0.1415(23) 0.2757(29)
H4 H 1.1597(25) -0.2187(29) 0.1552(26)
H5 H 1.2596(23) -0.1071(24) 0.1369(27)
H6 H 1.2637(26) -0.0559(28) 0.3461(29)
H7 H 1.1551(24) -0.1492(26) 0.3782(29)
H8 H 0.9365(28) 0.6537(39) 0.2835(35)
H9 H 1.0091(28) 0.5954(30) 0.3694(34)
H10 H 1.0325(32) 0.5865(34) 0.2293(35)
H11 H 0.7699(28) 0.5281(32) 0.3382(30)
H12 H 0.7698(30) 0.3828(31) 0.3461(33)
H13 H 0.8412(31) 0.4564(38) 0.4218(37)
H14 H 0.8403(25) 0.3852(30) 0.1239(28)
H15 H 0.8204(26) 0.5153(29) 0.1192(29)
H16 H 0.9164(26) 0.4796(32) 0.0757(31)
loop_
_geom_bond_atom_site_label_1
_geom_bond_atom_site_label_2
_geom_bond_site_symmetry_1
_geom_bond_site_symmetry_2
Br1 C1 1_555 1_555
O1 C8 1_555 1_555
O2 C8 1_555 1_555
O3 C4 1_555 1_555
N1 C7 1_555 1_555
C1 C2 1_555 1_555
C2 C3 1_555 1_555
C3 C1 1_555 1_555
C4 C1 1_555 1_555
C5 C4 1_555 1_555
C6 C4 1_555 1_555
C7 C2 1_555 1_555
C8 C2 1_555 1_555
C9 O1 1_555 1_555
C10 C9 1_555 1_555
C11 C9 1_555 1_555
C12 C9 1_555 1_555
H1 O3 1_555 1_555
H2 C3 1_555 1_555
H3 C3 1_555 1_555
H4 C5 1_555 1_555
H5 C5 1_555 1_555
H6 C6 1_555 1_555
H7 C6 1_555 1_555
H8 C10 1_555 1_555
H9 C10 1_555 1_555
H10 C10 1_555 1_555
H11 C11 1_555 1_555
H12 C11 1_555 1_555
H13 C11 1_555 1_555
H14 C12 1_555 1_555
H15 C12 1_555 1_555
H16 C12 1_555 1_555
C5 C6 1_555 1_555

#END
