
#######################################################################
#
#                 Cambridge Crystallographic Data Centre
#                                CCDC 
#
#######################################################################
#
# If this CIF has been generated from an entry in the Cambridge 
# Structural Database, then it will include bibliographic, chemical, 
# crystal, experimental, refinement or atomic coordinate data resulting 
# from the CCDC's data processing and validation procedures.
#
#######################################################################

data_HINTUV
_chemical_compound_source        
'cultures of endophytic fungus Aspergillus nidulans MA-143'
_chemical_name_common            'Aniduquinolone A methanol solvate'
_chemical_formula_moiety         'C26 H29 N1 O5,C1 H4 O1'
_chemical_name_systematic        
'4,5-Dihydroxy-3-methoxy-6-(2-(2-methyl-5-(prop-1-en-2-yl)tetrahydrofuran-2-yl)vinyl)-4-phenyl-3,4-dihydroquinolin-2(1H)-one methanol solvate'
_symmetry_cell_setting           monoclinic
_symmetry_space_group_name_H-M   'P 21'
_symmetry_Int_Tables_number      4
_space_group_name_Hall           'P 2yb'
loop_
_symmetry_equiv_pos_site_id
_symmetry_equiv_pos_as_xyz
1 x,y,z
2 -x,1/2+y,-z
_cell_length_a                   8.3638(8)
_cell_length_b                   13.8405(12)
_cell_length_c                   11.1316(11)
_cell_angle_alpha                90
_cell_angle_beta                 94.7550(10)
_cell_angle_gamma                90
_cell_volume                     1284.15
_exptl_crystal_colour            colorless
_exptl_crystal_description       flaky
_chemical_melting_point          '125-127 deg.C'
_cell_formula_units_Z            2
loop_
_atom_site_label
_atom_site_type_symbol
_atom_site_fract_x
_atom_site_fract_y
_atom_site_fract_z
N1 N 0.8576(3) 0.31557(18) 0.7289(2)
H1 H 0.8806 0.2588 0.7042
O1 O 1.0242(3) 0.29517(17) 0.8973(2)
O2 O 1.0076(3) 0.50895(17) 0.7802(2)
O3 O 0.7302(2) 0.58918(15) 0.84659(18)
H2 H 0.8200 0.6129 0.8458
O4 O 0.4995(2) 0.58955(14) 0.67232(18)
H3 H 0.5590 0.6113 0.7281
O5 O 0.0956(2) 0.62622(14) 0.35841(17)
C1 C 0.9351(4) 0.3468(2) 0.8322(3)
C2 C 0.9151(3) 0.4546(2) 0.8582(3)
H4 H 0.9509 0.4685 0.9425
C3 C 0.7400(3) 0.4868(2) 0.8309(3)
C4 C 0.6833(3) 0.4563(2) 0.7031(3)
C5 C 0.5618(3) 0.5053(2) 0.6329(3)
C6 C 0.4979(4) 0.4690(2) 0.5219(3)
C7 C 0.5594(4) 0.3822(2) 0.4825(3)
H5 H 0.5176 0.3567 0.4092
C8 C 0.6798(4) 0.3326(2) 0.5483(3)
H6 H 0.7195 0.2752 0.5191
C9 C 0.7408(3) 0.3692(2) 0.6578(3)
C10 C 0.6378(3) 0.4396(2) 0.9240(3)
C11 C 0.6356(4) 0.4813(3) 1.0377(3)
H7 H 0.6918 0.5381 1.0557
C12 C 0.5491(5) 0.4376(3) 1.1242(3)
H8 H 0.5490 0.4652 1.2003
C13 C 0.4641(5) 0.3546(3) 1.0989(4)
H9 H 0.4055 0.3266 1.1573
C14 C 0.4652(4) 0.3129(3) 0.9879(4)
H10 H 0.4092 0.2558 0.9709
C15 C 0.5509(4) 0.3563(3) 0.9003(3)
H11 H 0.5494 0.3284 0.8242
C16 C 0.3655(3) 0.5207(2) 0.4539(3)
H12 H 0.3444 0.5829 0.4797
C17 C 0.2743(4) 0.4886(2) 0.3612(3)
H13 H 0.2998 0.4280 0.3321
C18 C 0.1330(4) 0.5390(3) 0.2964(3)
C19 C -0.0216(5) 0.4794(3) 0.3077(5)
H14 H -0.1060 0.4989 0.2475
H15 H -0.0015 0.4109 0.2993
C20 C -0.0652(5) 0.5032(3) 0.4327(5)
H16 H -0.1797 0.4964 0.4387
H17 H -0.0085 0.4616 0.4921
C21 C -0.0137(4) 0.6059(3) 0.4495(3)
H18 H 0.0456 0.6119 0.5288
C22 C -0.1462(4) 0.6789(3) 0.4417(4)
C23 C -0.2533(5) 0.6867(4) 0.3297(4)
H19 H -0.3326 0.7356 0.3394
H20 H -0.3056 0.6258 0.3131
H21 H -0.1914 0.7036 0.2640
C24 C -0.1677(7) 0.7311(4) 0.5369(5)
H22 H -0.2525 0.7746 0.5355
H23 H -0.0983 0.7246 0.6062
C25 C 0.147(4) 0.555(2) 0.1679(16)
H24 H 0.0546 0.5900 0.1340
H25 H 0.1541 0.4944 0.1276
H26 H 0.2420 0.5926 0.1577
C26 C 1.1764(4) 0.4886(3) 0.7952(4)
H27 H 1.2137 0.4945 0.8788
H28 H 1.2330 0.5337 0.7486
H29 H 1.1955 0.4241 0.7682
O6 O 1.0382(4) 0.2330(2) 0.1365(3)
H33 H 1.0589 0.2680 0.0805
C28 C 0.8756(6) 0.2382(4) 0.1518(4)
H34 H 0.8589 0.2279 0.2352
H35 H 0.8195 0.1894 0.1036
H36 H 0.8357 0.3008 0.1274
C27? C 0.208(5) 0.588(3) 0.177(3)
H30? H 0.1287 0.6285 0.1346
H31? H 0.2391 0.5379 0.1237
H32? H 0.3006 0.6264 0.2024
loop_
_geom_bond_atom_site_label_1
_geom_bond_atom_site_label_2
_geom_bond_site_symmetry_1
_geom_bond_site_symmetry_2
N1 H1 1_555 1_555
O1 C1 1_555 1_555
O2 C2 1_555 1_555
O3 H2 1_555 1_555
O4 H3 1_555 1_555
O5 C18 1_555 1_555
C1 N1 1_555 1_555
C2 C1 1_555 1_555
H4 C2 1_555 1_555
C3 O3 1_555 1_555
C4 C3 1_555 1_555
C5 O4 1_555 1_555
C6 C5 1_555 1_555
C7 C6 1_555 1_555
H5 C7 1_555 1_555
C8 C7 1_555 1_555
H6 C8 1_555 1_555
C9 N1 1_555 1_555
C10 C3 1_555 1_555
C11 C10 1_555 1_555
H7 C11 1_555 1_555
C12 C11 1_555 1_555
H8 C12 1_555 1_555
C13 C12 1_555 1_555
H9 C13 1_555 1_555
C14 C13 1_555 1_555
H10 C14 1_555 1_555
C15 C10 1_555 1_555
H11 C15 1_555 1_555
C16 C6 1_555 1_555
H12 C16 1_555 1_555
C17 C16 1_555 1_555
H13 C17 1_555 1_555
C18 C17 1_555 1_555
C19 C18 1_555 1_555
H14 C19 1_555 1_555
H15 C19 1_555 1_555
C20 C19 1_555 1_555
H16 C20 1_555 1_555
H17 C20 1_555 1_555
C21 O5 1_555 1_555
H18 C21 1_555 1_555
C22 C21 1_555 1_555
C23 C22 1_555 1_555
H19 C23 1_555 1_555
H20 C23 1_555 1_555
H21 C23 1_555 1_555
C24 C22 1_555 1_555
H22 C24 1_555 1_555
H23 C24 1_555 1_555
C25 C18 1_555 1_555
H24 C25 1_555 1_555
H25 C25 1_555 1_555
H26 C25 1_555 1_555
C26 O2 1_555 1_555
H27 C26 1_555 1_555
H28 C26 1_555 1_555
H29 C26 1_555 1_555
O6 H33 1_555 1_555
C28 O6 1_555 1_555
H34 C28 1_555 1_555
H35 C28 1_555 1_555
H36 C28 1_555 1_555
C2 C3 1_555 1_555
C4 C5 1_555 1_555
C4 C9 1_555 1_555
C8 C9 1_555 1_555
C14 C15 1_555 1_555
C20 C21 1_555 1_555

#END
