
#######################################################################
#
#                 Cambridge Crystallographic Data Centre
#                                CCDC 
#
#######################################################################
#
# If this CIF has been generated from an entry in the Cambridge 
# Structural Database, then it will include bibliographic, chemical, 
# crystal, experimental, refinement or atomic coordinate data resulting 
# from the CCDC's data processing and validation procedures.
#
#######################################################################

data_HIPCOB
_chemical_formula_moiety         'C38 H40 Cl2 N4 O4'
_chemical_name_systematic        
3,8-dibenzyl-5,6-bis(5-chloro-2-hydroxyphenyl)tetradecahydro-1,4,7,10-benzotetra-azacyclododecine-2,9-dione
_symmetry_cell_setting           monoclinic
_symmetry_space_group_name_H-M   'P 21'
_symmetry_Int_Tables_number      4
_space_group_name_Hall           'P 2yb'
loop_
_symmetry_equiv_pos_site_id
_symmetry_equiv_pos_as_xyz
1 x,y,z
2 -x,1/2+y,-z
_cell_length_a                   15.809(3)
_cell_length_b                   37.886(8)
_cell_length_c                   26.539(5)
_cell_angle_alpha                90
_cell_angle_beta                 92.29(3)
_cell_angle_gamma                90
_cell_volume                     15882.6
_exptl_crystal_colour            colorless
_exptl_crystal_description       block
_cell_formula_units_Z            16
loop_
_atom_site_label
_atom_site_type_symbol
_atom_site_fract_x
_atom_site_fract_y
_atom_site_fract_z
Cl1 Cl 0.8829(3) 0.27756(11) 0.84505(10)
Cl2 Cl 1.13901(18) 0.25573(11) 0.70533(11)
O1 O 0.6501(4) 0.23165(14) 0.5730(2)
O2 O 0.8103(5) 0.20316(17) 0.6279(3)
H1 H 0.7807 0.2192 0.6143
O3 O 0.8425(6) 0.36268(17) 0.6615(3)
H2 H 0.8789 0.3563 0.6412
O4 O 0.7483(4) 0.35431(15) 0.5507(2)
N1 N 0.5936(4) 0.28655(16) 0.5627(2)
H3 H 0.5771 0.3058 0.5781
N2 N 0.7180(4) 0.26194(18) 0.6671(2)
H4 H 0.7176 0.2589 0.7000
N3 N 0.8825(4) 0.31032(17) 0.5963(2)
H5 H 0.9376 0.3081 0.6014
N4 N 0.7294(4) 0.30630(18) 0.5001(2)
H6 H 0.7539 0.2876 0.4874
C1 C 0.6403(5) 0.3134(2) 0.4859(3)
H7 H 0.6247 0.3369 0.4997
C2 C 0.6286(6) 0.3146(2) 0.4291(3)
H8 H 0.6476 0.2920 0.4147
H9 H 0.6640 0.3337 0.4157
C3 C 0.5349(6) 0.3211(3) 0.4126(4)
H10 H 0.5166 0.3444 0.4249
H11 H 0.5286 0.3210 0.3753
C4 C 0.4800(7) 0.2921(2) 0.4343(3)
H12 H 0.4959 0.2691 0.4200
H13 H 0.4199 0.2967 0.4247
C5 C 0.4909(6) 0.2907(2) 0.4917(4)
H14 H 0.4700 0.3130 0.5062
H15 H 0.4565 0.2711 0.5047
C6 C 0.5834(5) 0.28535(19) 0.5087(3)
H16 H 0.6019 0.2616 0.4969
C7 C 0.6263(5) 0.26031(19) 0.5912(3)
C8 C 0.6298(5) 0.2672(2) 0.6478(3)
H17 H 0.6104 0.2918 0.6551
C9 C 0.5732(6) 0.2402(3) 0.6725(3)
H18 H 0.5962 0.2163 0.6667
H19 H 0.5751 0.2444 0.7093
C10 C 0.4831(3) 0.24115(17) 0.6535(2)
C11 C 0.4304(4) 0.26822(17) 0.6686(3)
H20 H 0.4517 0.2859 0.6910
C12 C 0.3466(4) 0.26935(17) 0.6508(4)
H21 H 0.3105 0.2879 0.6610
C13 C 0.3154(3) 0.2434(2) 0.6180(3)
H22 H 0.2581 0.2442 0.6058
C14 C 0.3681(4) 0.2163(2) 0.6029(3)
H23 H 0.3469 0.1986 0.5805
C15 C 0.4520(4) 0.21521(16) 0.6207(3)
H24 H 0.4880 0.1967 0.6104
C16 C 0.7748(5) 0.29113(19) 0.6567(3)
H25 H 0.7398 0.3102 0.6403
C17 C 0.8216(4) 0.30749(12) 0.70361(15)
C18 C 0.8488(4) 0.34237(12) 0.70330(16)
C19 C 0.8873(4) 0.35701(11) 0.7464(2)
H26 H 0.9059 0.3808 0.7462
C20 C 0.8985(5) 0.33678(15) 0.78988(17)
H27 H 0.9247 0.3468 0.8194
C21 C 0.8712(4) 0.30190(15) 0.79019(15)
C22 C 0.8328(4) 0.28725(11) 0.74706(19)
H28 H 0.8141 0.2634 0.7473
C23 C 0.8414(5) 0.2791(2) 0.6176(3)
H29 H 0.8101 0.2666 0.5894
C24 C 0.9045(3) 0.25245(13) 0.6430(2)
C25 C 0.8854(3) 0.21667(14) 0.6448(2)
C26 C 0.9446(4) 0.19295(11) 0.6651(3)
H30 H 0.9315 0.1685 0.6664
C27 C 1.0229(4) 0.20500(16) 0.6835(2)
H31 H 1.0633 0.1888 0.6973
C28 C 1.0420(3) 0.24078(17) 0.6817(2)
C29 C 0.9828(3) 0.26450(12) 0.6614(2)
H32 H 0.9959 0.2890 0.6602
C30 C 0.8652(5) 0.3163(2) 0.5417(3)
H33 H 0.8769 0.2942 0.5226
C31 C 0.9267(6) 0.3468(3) 0.5245(4)
H34 H 0.9073 0.3545 0.4903
H35 H 0.9200 0.3671 0.5474
C32 C 1.0153(5) 0.3387(3) 0.5233(4)
C33 C 1.0652(6) 0.3364(3) 0.5675(3)
H36 H 1.0425 0.3428 0.5988
C34 C 1.1485(6) 0.3249(3) 0.5658(4)
H37 H 1.1827 0.3233 0.5960
C35 C 1.1818(5) 0.3155(3) 0.5200(5)
H38 H 1.2387 0.3076 0.5189
C36 C 1.1318(7) 0.3178(3) 0.4758(4)
H39 H 1.1546 0.3114 0.4445
C37 C 1.0486(6) 0.3293(3) 0.4775(3)
H40 H 1.0144 0.3309 0.4473
C38 C 0.7749(5) 0.3273(2) 0.5318(3)
Cl3 Cl 0.7565(3) 0.39570(15) 0.86946(14)
Cl4 Cl 0.4422(2) 0.43310(9) 0.86458(9)
O5 O 0.6501(4) 0.47627(14) 0.5956(2)
O6 O 0.6002(4) 0.49997(14) 0.6924(2)
H41 H 0.6322 0.4852 0.6792
O7 O 0.5603(6) 0.33773(17) 0.6972(3)
H42 H 0.5408 0.3543 0.6792
O8 O 0.5346(4) 0.36397(14) 0.5783(2)
N5 N 0.6772(4) 0.42737(17) 0.5496(2)
H43 H 0.7033 0.4068 0.5495
N6 N 0.7003(4) 0.4343(2) 0.6800(3)
H44 H 0.7377 0.4314 0.7051
N7 N 0.4790(4) 0.39803(15) 0.6719(2)
H45 H 0.4416 0.3999 0.6954
N8 N 0.4975(4) 0.41725(16) 0.5443(2)
H46 H 0.4667 0.4363 0.5486
C39 C 0.5473(5) 0.4156(2) 0.4992(3)
H47 H 0.5645 0.3904 0.4944
C40 C 0.4923(6) 0.4265(2) 0.4527(3)
H48 H 0.4697 0.4506 0.4577
H49 H 0.4437 0.4101 0.4484
C41 C 0.5447(7) 0.4259(3) 0.4048(4)
H50 H 0.5590 0.4011 0.3966
H51 H 0.5104 0.4356 0.3761
C42 C 0.6263(7) 0.4473(3) 0.4119(3)
H52 H 0.6603 0.4446 0.3816
H53 H 0.6119 0.4725 0.4154
C43 C 0.6787(6) 0.4353(3) 0.4582(3)
H54 H 0.6980 0.4108 0.4533
H55 H 0.7293 0.4505 0.4626
C44 C 0.6273(5) 0.4373(2) 0.5054(3)
H56 H 0.6100 0.4624 0.5097
C45 C 0.6864(4) 0.44746(19) 0.5907(3)
C46 C 0.7444(4) 0.4333(2) 0.6329(3)
H57 H 0.7627 0.4087 0.6253
C47 C 0.8224(5) 0.4582(3) 0.6393(3)
H58 H 0.8018 0.4827 0.6424
H59 H 0.8534 0.4521 0.6713
C48 C 0.8831(4) 0.45681(17) 0.5976(2)
C49 C 0.9528(4) 0.43462(19) 0.6038(3)
H60 H 0.9598 0.4207 0.6335
C50 C 1.0122(4) 0.4328(2) 0.5667(3)
H61 H 1.0598 0.4177 0.5710
C51 C 1.0020(5) 0.4532(2) 0.5233(3)
H62 H 1.0426 0.4520 0.4980
C52 C 0.9323(5) 0.4754(2) 0.5171(2)
H63 H 0.9253 0.4893 0.4875
C53 C 0.8729(4) 0.47719(18) 0.5542(3)
H64 H 0.8253 0.4924 0.5500
C54 C 0.6336(5) 0.4069(2) 0.6837(3)
H65 H 0.6373 0.3904 0.6544
C55 C 0.6419(4) 0.38510(14) 0.73349(18)
C56 C 0.6098(4) 0.35097(14) 0.7349(2)
C57 C 0.6233(5) 0.33037(13) 0.7778(3)
H66 H 0.6014 0.3070 0.7788
C58 C 0.6688(5) 0.34391(19) 0.8193(2)
H67 H 0.6780 0.3298 0.8487
C59 C 0.7009(4) 0.37804(19) 0.8179(2)
C60 C 0.6874(4) 0.39864(14) 0.7750(2)
H68 H 0.7094 0.4220 0.7741
C61 C 0.5445(5) 0.42607(19) 0.6804(3)
H69 H 0.5428 0.4422 0.6505
C62 C 0.5334(3) 0.44823(11) 0.72789(14)
C63 C 0.5663(3) 0.48221(12) 0.73126(15)
C64 C 0.5612(4) 0.50121(10) 0.77584(19)
H70 H 0.5837 0.5244 0.7781
C65 C 0.5232(4) 0.48623(13) 0.81705(15)
H71 H 0.5197 0.4992 0.8475
C66 C 0.4903(4) 0.45225(14) 0.81369(15)
C67 C 0.4954(4) 0.43325(10) 0.76911(17)
H72 H 0.4730 0.4100 0.7668
C68 C 0.4333(5) 0.39950(18) 0.6219(3)
H73 H 0.4070 0.4233 0.6166
C69 C 0.3644(6) 0.3707(2) 0.6199(4)
H74 H 0.3387 0.3701 0.5853
H75 H 0.3924 0.3476 0.6260
C70 C 0.2944(5) 0.3741(3) 0.6560(3)
C71 C 0.3010(6) 0.3536(3) 0.6995(4)
H76 H 0.3502 0.3398 0.7063
C72 C 0.2356(7) 0.3534(3) 0.7329(4)
H77 H 0.2401 0.3394 0.7626
C73 C 0.1636(6) 0.3737(3) 0.7230(4)
H78 H 0.1189 0.3736 0.7458
C74 C 0.1570(6) 0.3942(3) 0.6795(5)
H79 H 0.1079 0.4081 0.6727
C75 C 0.2225(7) 0.3944(3) 0.6461(4)
H80 H 0.2180 0.4084 0.6164
C76 C 0.4953(5) 0.39166(17) 0.5798(3)
Cl5 Cl 0.1920(3) 0.51230(11) 0.85895(13)
Cl6 Cl -0.0502(3) 0.53298(12) 0.6858(2)
O9 O 0.4375(3) 0.60710(15) 0.6285(2)
O10 O 0.2603(5) 0.61716(18) 0.6836(3)
H81 H 0.3076 0.6074 0.6883
O11 O 0.3402(5) 0.46051(18) 0.6748(3)
H82 H 0.3193 0.4716 0.6498
O12 O 0.4098(4) 0.48357(14) 0.5744(3)
N9 N 0.5347(4) 0.56237(18) 0.6271(3)
H83 H 0.5588 0.5454 0.6451
N10 N 0.3746(5) 0.5681(2) 0.7130(3)
H84 H 0.3684 0.5661 0.7457
N11 N 0.2571(4) 0.51538(17) 0.6125(3)
H85 H 0.2025 0.5109 0.6112
N12 N 0.4262(4) 0.53933(17) 0.5448(3)
H86 H 0.4000 0.5590 0.5361
C77 C 0.5191(5) 0.5378(2) 0.5416(4)
H87 H 0.5391 0.5142 0.5540
C78 C 0.5464(6) 0.5426(2) 0.4878(4)
H88 H 0.5228 0.5232 0.4667
H89 H 0.5228 0.5651 0.4743
C79 C 0.6406(6) 0.5431(2) 0.4842(4)
H90 H 0.6634 0.5197 0.4939
H91 H 0.6546 0.5475 0.4487
C80 C 0.6827(6) 0.5704(3) 0.5167(5)
H92 H 0.6675 0.5942 0.5038
H93 H 0.7449 0.5677 0.5156
C81 C 0.6553(5) 0.5669(2) 0.5723(4)
H94 H 0.6791 0.5448 0.5870
H95 H 0.6786 0.5869 0.5923
C82 C 0.5593(6) 0.5664(2) 0.5755(4)
H96 H 0.5375 0.5897 0.5630
C83 C 0.4769(5) 0.5830(2) 0.6499(3)
C84 C 0.4656(5) 0.5746(2) 0.7044(3)
H97 H 0.4996 0.5532 0.7142
C85 C 0.4934(6) 0.6057(3) 0.7370(4)
H98 H 0.4931 0.5985 0.7728
H99 H 0.4516 0.6250 0.7320
C86 C 0.5827(3) 0.62032(16) 0.7259(3)
C87 C 0.6519(4) 0.59810(13) 0.7211(3)
H100 H 0.6455 0.5733 0.7250
C88 C 0.7306(4) 0.61213(17) 0.7106(3)
H101 H 0.7779 0.5969 0.7074
C89 C 0.7400(4) 0.64836(19) 0.7049(3)
H102 H 0.7937 0.6579 0.6977
C90 C 0.6708(5) 0.67058(13) 0.7096(3)
H103 H 0.6772 0.6953 0.7057
C91 C 0.5922(4) 0.65656(15) 0.7201(3)
H104 H 0.5449 0.6717 0.7234
C92 C 0.3407(5) 0.5359(2) 0.6884(3)
H105 H 0.3881 0.5238 0.6715
C93 C 0.3025(4) 0.50974(13) 0.7258(2)
C94 C 0.3098(4) 0.47369(14) 0.71735(19)
C95 C 0.2817(4) 0.44980(11) 0.7527(2)
H106 H 0.2867 0.4252 0.7470
C96 C 0.2463(5) 0.46196(15) 0.7966(2)
H107 H 0.2271 0.4456 0.8208
C97 C 0.2390(5) 0.49802(16) 0.8051(2)
C98 C 0.2671(4) 0.52191(12) 0.7697(2)
H108 H 0.2621 0.5466 0.7754
C99 C 0.2727(5) 0.5463(2) 0.6472(3)
H109 H 0.2981 0.5654 0.6266
C100 C 0.1911(3) 0.56153(13) 0.6679(2)
C101 C 0.1909(3) 0.59682(13) 0.6822(2)
C102 C 0.1168(4) 0.61231(13) 0.6980(3)
H110 H 0.1166 0.6364 0.7078
C103 C 0.0429(3) 0.59251(19) 0.6995(3)
H111 H -0.0077 0.6031 0.7103
C104 C 0.0431(3) 0.55722(18) 0.6852(3)
C105 C 0.1172(4) 0.54173(12) 0.6694(2)
H112 H 0.1174 0.5176 0.6596
C106 C 0.2845(5) 0.51968(19) 0.5616(3)
H113 H 0.2714 0.5441 0.5492
C107 C 0.2382(5) 0.4924(2) 0.5281(4)
H114 H 0.2437 0.4691 0.5449
H115 H 0.1773 0.4986 0.5265
C108 C 0.2661(5) 0.48833(18) 0.4751(2)
C109 C 0.2603(5) 0.45515(16) 0.4528(3)
H116 H 0.2401 0.4357 0.4714
C110 C 0.2842(6) 0.45047(18) 0.4034(3)
H117 H 0.2803 0.4278 0.3882
C111 C 0.3139(6) 0.4790(2) 0.3763(2)
H118 H 0.3302 0.4758 0.3425
C112 C 0.3196(6) 0.5121(2) 0.3985(3)
H119 H 0.3399 0.5316 0.3799
C113 C 0.2958(5) 0.51683(16) 0.4479(3)
H120 H 0.2997 0.5395 0.4631
C114 C 0.3807(5) 0.5126(2) 0.5603(3)
Cl7 Cl -0.1540(3) 0.6198(2) 0.6013(3)
Cl8 Cl -0.1484(3) 0.65844(18) 0.4197(2)
O13 O 0.2856(5) 0.72437(18) 0.5558(3)
O14 O 0.1300(8) 0.7401(2) 0.5129(4)
H121 H 0.1511 0.7275 0.5363
O15 O 0.1599(6) 0.5759(2) 0.5116(5)
H122 H 0.1991 0.5893 0.5036
O16 O 0.3395(5) 0.60601(15) 0.5010(2)
N13 N 0.3649(6) 0.6801(2) 0.5908(3)
H123 H 0.3648 0.6619 0.6114
N14 N 0.1461(7) 0.6784(3) 0.5841(4)
H124 H 0.1044 0.6738 0.6041
N15 N 0.1824(6) 0.6355(2) 0.4583(3)
H125 H 0.1442 0.6345 0.4333
N16 N 0.3869(5) 0.66235(17) 0.4867(2)
H126 H 0.3795 0.6818 0.4690
C115 C 0.4585(7) 0.6609(2) 0.5248(3)
H127 H 0.4613 0.6369 0.5402
C116 C 0.5399(7) 0.6686(3) 0.4997(4)
H128 H 0.5349 0.6914 0.4815
H129 H 0.5504 0.6499 0.4746
C117 C 0.6153(8) 0.6703(3) 0.5382(5)
H130 H 0.6254 0.6467 0.5532
H131 H 0.6670 0.6774 0.5209
C118 C 0.5980(8) 0.6964(3) 0.5794(4)
H132 H 0.6454 0.6958 0.6049
H133 H 0.5956 0.7205 0.5648
C119 C 0.5196(8) 0.6892(3) 0.6037(4)
H134 H 0.5100 0.7077 0.6293
H135 H 0.5242 0.6662 0.6214
C120 C 0.4440(7) 0.6883(2) 0.5658(3)
H136 H 0.4382 0.7120 0.5496
C121 C 0.2963(7) 0.6978(3) 0.5844(3)
C122 C 0.2219(8) 0.6849(3) 0.6150(4)
H137 H 0.2386 0.6629 0.6336
C123 C 0.1999(9) 0.7145(4) 0.6536(5)
H138 H 0.1505 0.7069 0.6727
H139 H 0.1840 0.7363 0.6350
C124 C 0.2773(4) 0.72281(19) 0.6923(3)
C125 C 0.3175(5) 0.69716(15) 0.7221(3)
H140 H 0.3027 0.6730 0.7177
C126 C 0.3793(5) 0.70684(19) 0.7582(3)
H141 H 0.4068 0.6893 0.7785
C127 C 0.4009(5) 0.7422(2) 0.7645(3)
H142 H 0.4431 0.7488 0.7892
C128 C 0.3607(5) 0.76783(16) 0.7348(3)
H143 H 0.3754 0.7920 0.7391
C129 C 0.2989(5) 0.75814(17) 0.6987(3)
H144 H 0.2714 0.7757 0.6783
C130 C 0.1538(8) 0.6488(3) 0.5489(4)
H145 H 0.2086 0.6365 0.5570
C131 C 0.0806(4) 0.62094(19) 0.5518(3)
C132 C 0.0909(4) 0.5866(2) 0.5347(4)
C133 C 0.0256(6) 0.56230(18) 0.5383(4)
H146 H 0.0326 0.5388 0.5266
C134 C -0.0501(5) 0.5723(2) 0.5590(4)
H147 H -0.0948 0.5557 0.5615
C135 C -0.0604(4) 0.6067(3) 0.5761(3)
C136 C 0.0049(5) 0.63098(19) 0.5725(3)
H148 H -0.0021 0.6545 0.5842
C137 C 0.1582(7) 0.6648(3) 0.4949(4)
H149 H 0.2052 0.6825 0.4959
C138 C 0.0782(4) 0.6842(2) 0.4815(3)
C139 C 0.0690(5) 0.7203(2) 0.4893(3)
C140 C -0.0065(6) 0.73694(17) 0.4750(3)
H150 H -0.0127 0.7616 0.4803
C141 C -0.0728(4) 0.7176(2) 0.4530(3)
H151 H -0.1244 0.7290 0.4432
C142 C -0.0636(5) 0.6815(2) 0.4452(3)
C143 C 0.0119(6) 0.66482(17) 0.4595(3)
H152 H 0.0182 0.6402 0.4542
C144 C 0.2679(7) 0.6427(3) 0.4371(3)
H153 H 0.2719 0.6675 0.4248
C145 C 0.2767(9) 0.6158(3) 0.3933(4)
H154 H 0.2734 0.5916 0.4069
H155 H 0.2288 0.6191 0.3685
C146 C 0.3548(5) 0.6200(2) 0.3683(3)
C147 C 0.3613(6) 0.6417(3) 0.3265(4)
H156 H 0.3123 0.6530 0.3123
C148 C 0.4395(8) 0.6470(3) 0.3055(4)
H157 H 0.4439 0.6618 0.2769
C149 C 0.5111(6) 0.6304(3) 0.3264(4)
H158 H 0.5646 0.6340 0.3121
C150 C 0.5046(6) 0.6087(3) 0.3682(4)
H159 H 0.5536 0.5974 0.3825
C151 C 0.4264(7) 0.6035(2) 0.3892(3)
H160 H 0.4220 0.5886 0.4178
C152 C 0.3331(7) 0.6354(2) 0.4779(3)
Cl9 Cl 1.36436(17) 0.36992(8) 0.34597(11)
Cl10 Cl 1.0723(2) 0.40707(8) 0.40167(9)
O17 O 1.0682(4) 0.41399(15) 0.0998(2)
O18 O 1.0730(5) 0.44940(17) 0.1870(3)
H161 H 1.0992 0.4338 0.1715
O19 O 1.0970(5) 0.28826(16) 0.2405(3)
H162 H 1.0551 0.3011 0.2329
O20 O 0.9787(5) 0.30000(17) 0.1385(2)
N17 N 1.0733(5) 0.36121(19) 0.0603(2)
H163 H 1.1025 0.3416 0.0571
N18 N 1.1914(5) 0.3824(2) 0.1718(3)
H164 H 1.2438 0.3804 0.1840
N19 N 0.9942(4) 0.3451(2) 0.2266(2)
H165 H 0.9801 0.3491 0.2578
N20 N 0.9142(4) 0.34794(18) 0.1039(2)
H166 H 0.8852 0.3671 0.1104
C153 C 0.9292(7) 0.3401(2) 0.0514(3)
H167 H 0.9510 0.3154 0.0494
C154 C 0.8461(8) 0.3423(3) 0.0196(4)
H168 H 0.8056 0.3247 0.0321
H169 H 0.8209 0.3660 0.0233
C155 C 0.8603(9) 0.3353(3) -0.0357(4)
H170 H 0.8795 0.3106 -0.0400
H171 H 0.8062 0.3382 -0.0554
C156 C 0.9253(8) 0.3601(3) -0.0556(3)
H172 H 0.9044 0.3846 -0.0539
H173 H 0.9350 0.3545 -0.0914
C157 C 1.0083(8) 0.3566(3) -0.0247(3)
H174 H 1.0504 0.3732 -0.0378
H175 H 1.0307 0.3324 -0.0281
C158 C 0.9954(6) 0.3646(2) 0.0311(3)
H176 H 0.9748 0.3894 0.0340
C159 C 1.1041(5) 0.3855(2) 0.0915(3)
C160 C 1.1918(5) 0.3779(2) 0.1164(3)
H177 H 1.2095 0.3533 0.1082
C161 C 1.2554(6) 0.4037(3) 0.0970(4)
H178 H 1.3118 0.3981 0.1124
H179 H 1.2401 0.4278 0.1082
C162 C 1.2617(5) 0.4040(2) 0.03903(19)
C163 C 1.3196(4) 0.3821(2) 0.0164(3)
H180 H 1.3550 0.3670 0.0365
C164 C 1.3258(5) 0.3824(2) -0.0357(3)
H181 H 1.3655 0.3674 -0.0512
C165 C 1.2741(6) 0.4045(3) -0.0652(2)
H182 H 1.2783 0.4047 -0.1008
C166 C 1.2161(5) 0.4264(3) -0.0425(3)
H183 H 1.1807 0.4415 -0.0626
C167 C 1.2099(5) 0.4261(2) 0.0096(3)
H184 H 1.1703 0.4411 0.0251
C168 C 1.1387(5) 0.3566(2) 0.1976(3)
H185 H 1.1262 0.3366 0.1737
C169 C 1.1828(3) 0.34140(12) 0.24504(15)
C170 C 1.1596(3) 0.30828(12) 0.26228(19)
C171 C 1.1987(4) 0.29441(11) 0.3058(2)
H186 H 1.1828 0.2718 0.3175
C172 C 1.2610(3) 0.31367(14) 0.33200(17)
H187 H 1.2877 0.3042 0.3617
C173 C 1.2842(3) 0.34679(13) 0.31476(17)
C174 C 1.2451(3) 0.36065(10) 0.27128(17)
H188 H 1.2610 0.3833 0.2595
C175 C 1.0517(5) 0.3741(2) 0.2110(3)
H189 H 1.0265 0.3853 0.1798
C176 C 1.0651(4) 0.40254(12) 0.25082(17)
C177 C 1.0769(4) 0.43751(14) 0.23691(16)
C178 C 1.0886(5) 0.46335(11) 0.2737(2)
H190 H 1.0966 0.4872 0.2642
C179 C 1.0885(5) 0.45421(13) 0.3244(2)
H191 H 1.0965 0.4719 0.3496
C180 C 1.0767(4) 0.41923(15) 0.33835(15)
C181 C 1.0650(4) 0.39340(11) 0.30154(19)
H192 H 1.0569 0.3695 0.3110
C182 C 0.9161(5) 0.3422(2) 0.1944(3)
H193 H 0.8869 0.3655 0.1911
C183 C 0.8582(6) 0.3145(3) 0.2189(4)
H194 H 0.8016 0.3154 0.2015
H195 H 0.8818 0.2907 0.2131
C184 C 0.8473(6) 0.3193(3) 0.2755(3)
C185 C 0.8982(6) 0.3026(2) 0.3123(4)
H196 H 0.9386 0.2855 0.3028
C186 C 0.8901(7) 0.3110(3) 0.3628(3)
H197 H 0.9248 0.2997 0.3879
C187 C 0.8310(8) 0.3360(3) 0.3767(3)
H198 H 0.8254 0.3418 0.4112
C188 C 0.7801(7) 0.3527(3) 0.3399(4)
H199 H 0.7398 0.3698 0.3494
C189 C 0.7883(6) 0.3443(3) 0.2894(4)
H200 H 0.7535 0.3557 0.2643
C190 C 0.9407(5) 0.3285(2) 0.1427(3)
Cl11 Cl 0.3102(2) 0.63403(14) 0.0037(3)
Cl12 Cl 0.4171(2) 0.60114(10) 0.17857(14)
O21 O 0.7814(3) 0.54908(16) -0.0047(2)
O22 O 0.6737(4) 0.52747(16) 0.0662(3)
H201 H 0.7071 0.5342 0.0443
O23 O 0.6453(5) 0.69339(18) 0.0418(4)
H202 H 0.6812 0.6802 0.0564
O24 O 0.8301(4) 0.66900(14) 0.0316(2)
N21 N 0.8297(5) 0.5942(2) -0.0505(3)
H203 H 0.8144 0.6121 -0.0700
N22 N 0.6184(5) 0.5883(2) -0.0194(3)
H204 H 0.5692 0.5920 -0.0352
N23 N 0.7108(4) 0.63656(17) 0.0957(3)
H205 H 0.6857 0.6361 0.1247
N24 N 0.9026(4) 0.61784(17) 0.0457(3)
H206 H 0.9117 0.6004 0.0671
C191 C 0.9512(5) 0.6184(2) -0.0007(3)
H207 H 0.9419 0.6418 -0.0175
C192 C 1.0460(6) 0.6140(3) 0.0109(4)
H208 H 1.0559 0.5916 0.0297
H209 H 1.0664 0.6336 0.0328
C193 C 1.0965(7) 0.6134(3) -0.0370(4)
H210 H 1.0900 0.6363 -0.0548
H211 H 1.1574 0.6100 -0.0280
C194 C 1.0659(6) 0.5841(3) -0.0711(4)
H212 H 1.0759 0.5611 -0.0542
H213 H 1.0978 0.5844 -0.1025
C195 C 0.9709(6) 0.5886(3) -0.0842(4)
H214 H 0.9618 0.6108 -0.1034
H215 H 0.9510 0.5688 -0.1058
C196 C 0.9201(5) 0.5896(2) -0.0372(3)
H216 H 0.9273 0.5664 -0.0197
C197 C 0.7683(5) 0.5722(3) -0.0345(3)
C198 C 0.6801(5) 0.5807(3) -0.0569(3)
H217 H 0.6844 0.6017 -0.0794
C199 C 0.6511(6) 0.5485(3) -0.0895(4)
H218 H 0.6397 0.5285 -0.0668
H219 H 0.5971 0.5546 -0.1077
C200 C 0.7126(5) 0.5368(2) -0.1271(3)
C201 C 0.7446(6) 0.55972(18) -0.1625(3)
H220 H 0.7275 0.5838 -0.1630
C202 C 0.8014(6) 0.5475(2) -0.1971(3)
H221 H 0.8232 0.5632 -0.2213
C203 C 0.8263(6) 0.5123(2) -0.1963(3)
H222 H 0.8651 0.5039 -0.2200
C204 C 0.7943(7) 0.48934(19) -0.1609(3)
H223 H 0.8114 0.4653 -0.1604
C205 C 0.7375(6) 0.5016(2) -0.1263(3)
H224 H 0.7157 0.4859 -0.1021
C206 C 0.6374(5) 0.6193(2) 0.0132(3)
H225 H 0.6811 0.6336 -0.0038
C207 C 0.5603(3) 0.64321(15) 0.0190(3)
C208 C 0.5698(3) 0.67883(15) 0.0305(3)
C209 C 0.4989(4) 0.70027(13) 0.0337(4)
H226 H 0.5054 0.7246 0.0415
C210 C 0.4184(3) 0.68609(18) 0.0254(4)
H227 H 0.3699 0.7007 0.0276
C211 C 0.4089(3) 0.65047(19) 0.0140(4)
C212 C 0.4798(4) 0.62904(14) 0.0108(3)
H228 H 0.4733 0.6047 0.0030
C213 C 0.6786(5) 0.6062(2) 0.0643(3)
H229 H 0.7279 0.5909 0.0566
C214 C 0.6135(3) 0.58316(12) 0.0925(2)
C215 C 0.6160(3) 0.54652(12) 0.0904(2)
C216 C 0.5566(4) 0.52665(10) 0.1152(2)
H230 H 0.5583 0.5016 0.1137
C217 C 0.4946(3) 0.54343(14) 0.1422(2)
H231 H 0.4540 0.5299 0.1592
C218 C 0.4921(3) 0.58007(14) 0.1444(2)
C219 C 0.5515(3) 0.59994(10) 0.1195(2)
H232 H 0.5498 0.6250 0.1210
C220 C 0.8012(6) 0.6357(2) 0.1056(3)
H233 H 0.8188 0.6125 0.1206
C221 C 0.8263(7) 0.6669(3) 0.1426(4)
H234 H 0.8886 0.6672 0.1479
H235 H 0.8092 0.6895 0.1266
C222 C 0.7867(5) 0.6643(2) 0.1929(2)
C223 C 0.7158(5) 0.6842(2) 0.2035(3)
H236 H 0.6884 0.6979 0.1777
C224 C 0.6850(5) 0.6841(2) 0.2519(3)
H237 H 0.6365 0.6977 0.2591
C225 C 0.7251(6) 0.6641(3) 0.2896(2)
H238 H 0.7041 0.6640 0.3226
C226 C 0.7961(6) 0.6441(2) 0.2790(2)
H239 H 0.8235 0.6304 0.3048
C227 C 0.8269(5) 0.6442(2) 0.2307(3)
H240 H 0.8753 0.6306 0.2234
C228 C 0.8460(5) 0.6422(2) 0.0571(3)
Cl13 Cl 0.8292(3) 0.52296(12) 0.41133(13)
Cl14 Cl 0.5166(2) 0.50638(9) 0.31661(13)
O25 O 0.9120(5) 0.5565(2) 0.1116(3)
O26 O 0.7571(4) 0.56961(16) 0.1799(2)
H241 H 0.8062 0.5611 0.1816
O27 O 0.8644(5) 0.42079(17) 0.2478(3)
H242 H 0.8164 0.4114 0.2446
O28 O 0.8446(5) 0.41760(19) 0.1203(3)
N25 N 0.9645(5) 0.5025(3) 0.1066(4)
H243 H 0.9909 0.4853 0.1230
N26 N 0.8943(5) 0.5304(2) 0.2163(3)
H244 H 0.9066 0.5381 0.2470
N27 N 0.7384(5) 0.45721(19) 0.1876(3)
H245 H 0.7125 0.4471 0.2125
N28 N 0.8128(6) 0.4652(2) 0.0723(4)
H246 H 0.7748 0.4814 0.0642
C229 C 0.8913(8) 0.4643(3) 0.0463(5)
H247 H 0.9258 0.4438 0.0591
C230 C 0.8710(10) 0.4592(3) -0.0113(5)
H248 H 0.8378 0.4373 -0.0167
H249 H 0.8363 0.4792 -0.0242
C231 C 0.9515(10) 0.4570(4) -0.0401(6)
H250 H 0.9861 0.4368 -0.0275
H251 H 0.9373 0.4531 -0.0763
C232 C 1.0016(9) 0.4907(3) -0.0336(5)
H252 H 0.9682 0.5108 -0.0475
H253 H 1.0546 0.4890 -0.0521
C233 C 1.0227(9) 0.4967(3) 0.0229(5)
H254 H 1.0522 0.5196 0.0276
H255 H 1.0610 0.4778 0.0358
C234 C 0.9415(8) 0.4968(3) 0.0531(5)
H256 H 0.9056 0.5171 0.0412
C235 C 0.9483(6) 0.5320(3) 0.1320(5)
C236 C 0.9724(7) 0.5320(3) 0.1871(5)
H257 H 1.0100 0.5114 0.1957
C237 C 1.0180(9) 0.5686(4) 0.2037(6)
H258 H 1.0700 0.5712 0.1845
H259 H 0.9797 0.5883 0.1941
C238 C 1.0428(7) 0.5719(3) 0.2622(3)
C239 C 0.9871(6) 0.5861(3) 0.2959(4)
H260 H 0.9359 0.5969 0.2838
C240 C 1.0063(7) 0.5847(3) 0.3475(4)
H261 H 0.9682 0.5944 0.3705
C241 C 1.0811(8) 0.5690(4) 0.3652(3)
H262 H 1.0942 0.5680 0.4005
C242 C 1.1368(7) 0.5548(4) 0.3315(5)
H263 H 1.1880 0.5440 0.3437
C243 C 1.1177(7) 0.5562(3) 0.2800(4)
H264 H 1.1557 0.5465 0.2569
C244 C 0.8550(6) 0.4941(2) 0.2202(3)
H265 H 0.8910 0.4773 0.2016
C245 C 0.8522(4) 0.48140(14) 0.27393(16)
C246 C 0.8635(4) 0.44576(12) 0.28466(18)
C247 C 0.8662(4) 0.43419(12) 0.3344(2)
H266 H 0.8739 0.4098 0.3417
C248 C 0.8577(4) 0.45826(17) 0.37341(16)
H267 H 0.8596 0.4504 0.4074
C249 C 0.8465(4) 0.49390(15) 0.36267(18)
C250 C 0.8437(4) 0.50547(11) 0.3129(2)
H268 H 0.8360 0.5298 0.3056
C251 C 0.7666(6) 0.4944(2) 0.1938(4)
H269 H 0.7727 0.5045 0.1593
C252 C 0.7045(3) 0.51799(12) 0.2213(2)
C253 C 0.7026(3) 0.55400(13) 0.2113(2)
C254 C 0.6427(4) 0.57530(10) 0.2333(2)
H270 H 0.6414 0.5999 0.2265
C255 C 0.5848(4) 0.56059(14) 0.2653(2)
H271 H 0.5438 0.5751 0.2803
C256 C 0.5867(4) 0.52457(15) 0.2753(2)
C257 C 0.6465(4) 0.50327(10) 0.2533(2)
H272 H 0.6478 0.4787 0.2601
C258 C 0.7152(6) 0.4466(2) 0.1362(4)
H273 H 0.6801 0.4655 0.1193
C259 C 0.6648(7) 0.4121(3) 0.1370(4)
H274 H 0.7015 0.3931 0.1511
H275 H 0.6474 0.4055 0.1020
C260 C 0.5847(5) 0.4154(2) 0.1689(4)
C261 C 0.5858(6) 0.4049(2) 0.2191(4)
H276 H 0.6350 0.3940 0.2339
C262 C 0.5150(7) 0.4101(3) 0.2476(3)
H277 H 0.5157 0.4029 0.2818
C263 C 0.4430(6) 0.4259(3) 0.2259(5)
H278 H 0.3946 0.4295 0.2453
C264 C 0.4419(6) 0.4365(3) 0.1757(5)
H279 H 0.3927 0.4473 0.1608
C265 C 0.5127(7) 0.4313(3) 0.1472(3)
H280 H 0.5120 0.4385 0.1129
C266 C 0.7970(6) 0.4418(2) 0.1084(4)
Cl15 Cl 0.56475(15) 0.76694(7) -0.30535(8)
Cl16 Cl 0.3834(2) 0.70973(12) -0.10776(19)
O29 O 0.8871(4) 0.68047(15) -0.0995(2)
O30 O 0.7286(6) 0.65414(19) -0.1230(3)
H281 H 0.7766 0.6621 -0.1158
O31 O 0.6708(4) 0.81526(16) -0.1033(2)
H282 H 0.6771 0.7964 -0.0869
O32 O 0.8576(3) 0.79034(14) -0.0389(2)
N29 N 0.9720(5) 0.72863(18) -0.0962(2)
H283 H 0.9848 0.7486 -0.1111
N30 N 0.7854(5) 0.7223(2) -0.1698(3)
H284 H 0.7677 0.7014 -0.1617
N31 N 0.6909(5) 0.75428(18) -0.0507(3)
H285 H 0.6391 0.7503 -0.0412
N32 N 0.8944(5) 0.73816(16) -0.0023(2)
H286 H 0.8749 0.7189 0.0116
C267 C 0.9849(5) 0.7408(2) -0.0062(3)
H287 H 0.9992 0.7661 -0.0124
C268 C 1.0306(6) 0.7293(3) 0.0438(3)
H288 H 1.0130 0.7450 0.0713
H289 H 1.0132 0.7050 0.0520
C269 C 1.1258(6) 0.7307(2) 0.0409(4)
H290 H 1.1519 0.7199 0.0717
H291 H 1.1442 0.7556 0.0397
C270 C 1.1582(6) 0.7110(3) -0.0061(4)
H292 H 1.2199 0.7149 -0.0082
H293 H 1.1488 0.6853 -0.0021
C271 C 1.1147(6) 0.7231(3) -0.0537(4)
H294 H 1.1340 0.7089 -0.0823
H295 H 1.1290 0.7481 -0.0600
C272 C 1.0164(6) 0.71914(19) -0.0497(3)
H296 H 1.0040 0.6938 -0.0427
C273 C 0.9122(6) 0.7080(2) -0.1174(3)
C274 C 0.8765(6) 0.7215(2) -0.1691(3)
H297 H 0.8987 0.7457 -0.1755
C275 C 0.9053(6) 0.6961(3) -0.2106(3)
H298 H 0.8754 0.6733 -0.2073
H299 H 0.8892 0.7061 -0.2440
C276 C 0.9988(3) 0.68959(17) -0.2078(2)
C277 C 1.0551(4) 0.71640(14) -0.2187(3)
H300 H 1.0346 0.7381 -0.2324
C278 C 1.1415(4) 0.71149(16) -0.2097(3)
H301 H 1.1801 0.7298 -0.2172
C279 C 1.1716(3) 0.6798(2) -0.1897(3)
H302 H 1.2306 0.6764 -0.1835
C280 C 1.1152(4) 0.65296(16) -0.1787(3)
H303 H 1.1357 0.6313 -0.1650
C281 C 1.0288(4) 0.65787(15) -0.1877(3)
H304 H 0.9902 0.6395 -0.1802
C282 C 0.7438(5) 0.7483(2) -0.1369(3)
H305 H 0.7884 0.7652 -0.1243
C283 C 0.6738(3) 0.77034(12) -0.16676(16)
C284 C 0.6488(3) 0.80318(12) -0.14936(14)
C285 C 0.5974(4) 0.82475(11) -0.17988(19)
H306 H 0.5803 0.8472 -0.1680
C286 C 0.5710(3) 0.81348(14) -0.22780(18)
H307 H 0.5358 0.8282 -0.2487
C287 C 0.5960(3) 0.78063(14) -0.24520(14)
C288 C 0.6474(3) 0.75906(11) -0.21468(17)
H308 H 0.6644 0.7366 -0.2266
C289 C 0.7108(6) 0.7280(2) -0.0898(3)
H309 H 0.7580 0.7128 -0.0760
C290 C 0.6368(4) 0.70398(14) -0.1047(2)
C291 C 0.6517(4) 0.66967(15) -0.1206(3)
C292 C 0.5840(5) 0.64755(13) -0.1334(3)
H310 H 0.5941 0.6241 -0.1442
C293 C 0.5015(4) 0.65975(18) -0.1301(3)
H311 H 0.4552 0.6446 -0.1388
C294 C 0.4866(3) 0.69406(19) -0.1142(3)
C295 C 0.5543(4) 0.71618(14) -0.1015(3)
H312 H 0.5442 0.7396 -0.0906
C296 C 0.7469(5) 0.7548(2) -0.0055(3)
H313 H 0.7441 0.7313 0.0115
C297 C 0.7154(6) 0.7831(2) 0.0306(3)
H314 H 0.6572 0.7769 0.0399
H315 H 0.7128 0.8060 0.0127
C298 C 0.7713(4) 0.78728(16) 0.07925(18)
C299 C 0.7711(5) 0.76115(15) 0.1160(2)
H316 H 0.7356 0.7411 0.1115
C300 C 0.8228(5) 0.76441(16) 0.1594(2)
H317 H 0.8226 0.7465 0.1845
C301 C 0.8747(5) 0.79380(19) 0.1660(2)
H318 H 0.9100 0.7960 0.1956
C302 C 0.8749(5) 0.81993(17) 0.1292(3)
H319 H 0.9103 0.8400 0.1337
C303 C 0.8232(5) 0.81667(15) 0.0859(2)
H320 H 0.8233 0.8345 0.0607
C304 C 0.8380(6) 0.7621(2) -0.0177(3)
loop_
_geom_bond_atom_site_label_1
_geom_bond_atom_site_label_2
_geom_bond_site_symmetry_1
_geom_bond_site_symmetry_2
Cl1 C21 1_555 1_555
Cl2 C28 1_555 1_555
O1 C7 1_555 1_555
O2 H1 1_555 1_555
O3 H2 1_555 1_555
O4 C38 1_555 1_555
N1 H3 1_555 1_555
N2 H4 1_555 1_555
N3 H5 1_555 1_555
N4 H6 1_555 1_555
C1 N4 1_555 1_555
H7 C1 1_555 1_555
C2 C1 1_555 1_555
H8 C2 1_555 1_555
H9 C2 1_555 1_555
C3 C2 1_555 1_555
H10 C3 1_555 1_555
H11 C3 1_555 1_555
C4 C3 1_555 1_555
H12 C4 1_555 1_555
H13 C4 1_555 1_555
C5 C4 1_555 1_555
H14 C5 1_555 1_555
H15 C5 1_555 1_555
C6 N1 1_555 1_555
H16 C6 1_555 1_555
C7 N1 1_555 1_555
C8 N2 1_555 1_555
H17 C8 1_555 1_555
C9 C8 1_555 1_555
H18 C9 1_555 1_555
H19 C9 1_555 1_555
C10 C9 1_555 1_555
C11 C10 1_555 1_555
H20 C11 1_555 1_555
C12 C11 1_555 1_555
H21 C12 1_555 1_555
C13 C12 1_555 1_555
H22 C13 1_555 1_555
C14 C13 1_555 1_555
H23 C14 1_555 1_555
C15 C10 1_555 1_555
H24 C15 1_555 1_555
C16 N2 1_555 1_555
H25 C16 1_555 1_555
C17 C16 1_555 1_555
C18 O3 1_555 1_555
C19 C18 1_555 1_555
H26 C19 1_555 1_555
C20 C19 1_555 1_555
H27 C20 1_555 1_555
C21 C20 1_555 1_555
C22 C17 1_555 1_555
H28 C22 1_555 1_555
C23 N3 1_555 1_555
H29 C23 1_555 1_555
C24 C23 1_555 1_555
C25 O2 1_555 1_555
C26 C25 1_555 1_555
H30 C26 1_555 1_555
C27 C26 1_555 1_555
H31 C27 1_555 1_555
C28 C27 1_555 1_555
C29 C24 1_555 1_555
H32 C29 1_555 1_555
C30 N3 1_555 1_555
H33 C30 1_555 1_555
C31 C30 1_555 1_555
H34 C31 1_555 1_555
H35 C31 1_555 1_555
C32 C31 1_555 1_555
C33 C32 1_555 1_555
H36 C33 1_555 1_555
C34 C33 1_555 1_555
H37 C34 1_555 1_555
C35 C34 1_555 1_555
H38 C35 1_555 1_555
C36 C35 1_555 1_555
H39 C36 1_555 1_555
C37 C32 1_555 1_555
H40 C37 1_555 1_555
C38 N4 1_555 1_555
Cl3 C59 1_555 1_555
Cl4 C66 1_555 1_555
O5 C45 1_555 1_555
O6 H41 1_555 1_555
O7 H42 1_555 1_555
O8 C76 1_555 1_555
N5 H43 1_555 1_555
N6 H44 1_555 1_555
N7 H45 1_555 1_555
N8 H46 1_555 1_555
C39 N8 1_555 1_555
H47 C39 1_555 1_555
C40 C39 1_555 1_555
H48 C40 1_555 1_555
H49 C40 1_555 1_555
C41 C40 1_555 1_555
H50 C41 1_555 1_555
H51 C41 1_555 1_555
C42 C41 1_555 1_555
H52 C42 1_555 1_555
H53 C42 1_555 1_555
C43 C42 1_555 1_555
H54 C43 1_555 1_555
H55 C43 1_555 1_555
C44 N5 1_555 1_555
H56 C44 1_555 1_555
C45 N5 1_555 1_555
C46 N6 1_555 1_555
H57 C46 1_555 1_555
C47 C46 1_555 1_555
H58 C47 1_555 1_555
H59 C47 1_555 1_555
C48 C47 1_555 1_555
C49 C48 1_555 1_555
H60 C49 1_555 1_555
C50 C49 1_555 1_555
H61 C50 1_555 1_555
C51 C50 1_555 1_555
H62 C51 1_555 1_555
C52 C51 1_555 1_555
H63 C52 1_555 1_555
C53 C48 1_555 1_555
H64 C53 1_555 1_555
C54 N6 1_555 1_555
H65 C54 1_555 1_555
C55 C54 1_555 1_555
C56 O7 1_555 1_555
C57 C56 1_555 1_555
H66 C57 1_555 1_555
C58 C57 1_555 1_555
H67 C58 1_555 1_555
C59 C58 1_555 1_555
C60 C55 1_555 1_555
H68 C60 1_555 1_555
C61 N7 1_555 1_555
H69 C61 1_555 1_555
C62 C61 1_555 1_555
C63 O6 1_555 1_555
C64 C63 1_555 1_555
H70 C64 1_555 1_555
C65 C64 1_555 1_555
H71 C65 1_555 1_555
C66 C65 1_555 1_555
C67 C62 1_555 1_555
H72 C67 1_555 1_555
C68 N7 1_555 1_555
H73 C68 1_555 1_555
C69 C68 1_555 1_555
H74 C69 1_555 1_555
H75 C69 1_555 1_555
C70 C69 1_555 1_555
C71 C70 1_555 1_555
H76 C71 1_555 1_555
C72 C71 1_555 1_555
H77 C72 1_555 1_555
C73 C72 1_555 1_555
H78 C73 1_555 1_555
C74 C73 1_555 1_555
H79 C74 1_555 1_555
C75 C70 1_555 1_555
H80 C75 1_555 1_555
C76 N8 1_555 1_555
Cl5 C97 1_555 1_555
Cl6 C104 1_555 1_555
O9 C83 1_555 1_555
O10 H81 1_555 1_555
O11 H82 1_555 1_555
O12 C114 1_555 1_555
N9 H83 1_555 1_555
N10 H84 1_555 1_555
N11 H85 1_555 1_555
N12 H86 1_555 1_555
C77 N12 1_555 1_555
H87 C77 1_555 1_555
C78 C77 1_555 1_555
H88 C78 1_555 1_555
H89 C78 1_555 1_555
C79 C78 1_555 1_555
H90 C79 1_555 1_555
H91 C79 1_555 1_555
C80 C79 1_555 1_555
H92 C80 1_555 1_555
H93 C80 1_555 1_555
C81 C80 1_555 1_555
H94 C81 1_555 1_555
H95 C81 1_555 1_555
C82 N9 1_555 1_555
H96 C82 1_555 1_555
C83 N9 1_555 1_555
C84 N10 1_555 1_555
H97 C84 1_555 1_555
C85 C84 1_555 1_555
H98 C85 1_555 1_555
H99 C85 1_555 1_555
C86 C85 1_555 1_555
C87 C86 1_555 1_555
H100 C87 1_555 1_555
C88 C87 1_555 1_555
H101 C88 1_555 1_555
C89 C88 1_555 1_555
H102 C89 1_555 1_555
C90 C89 1_555 1_555
H103 C90 1_555 1_555
C91 C86 1_555 1_555
H104 C91 1_555 1_555
C92 N10 1_555 1_555
H105 C92 1_555 1_555
C93 C92 1_555 1_555
C94 O11 1_555 1_555
C95 C94 1_555 1_555
H106 C95 1_555 1_555
C96 C95 1_555 1_555
H107 C96 1_555 1_555
C97 C96 1_555 1_555
C98 C93 1_555 1_555
H108 C98 1_555 1_555
C99 N11 1_555 1_555
H109 C99 1_555 1_555
C100 C99 1_555 1_555
C101 O10 1_555 1_555
C102 C101 1_555 1_555
H110 C102 1_555 1_555
C103 C102 1_555 1_555
H111 C103 1_555 1_555
C104 C103 1_555 1_555
C105 C100 1_555 1_555
H112 C105 1_555 1_555
C106 N11 1_555 1_555
H113 C106 1_555 1_555
C107 C106 1_555 1_555
H114 C107 1_555 1_555
H115 C107 1_555 1_555
C108 C107 1_555 1_555
C109 C108 1_555 1_555
H116 C109 1_555 1_555
C110 C109 1_555 1_555
H117 C110 1_555 1_555
C111 C110 1_555 1_555
H118 C111 1_555 1_555
C112 C111 1_555 1_555
H119 C112 1_555 1_555
C113 C108 1_555 1_555
H120 C113 1_555 1_555
C114 N12 1_555 1_555
Cl7 C135 1_555 1_555
Cl8 C142 1_555 1_555
O13 C121 1_555 1_555
O14 H121 1_555 1_555
O15 H122 1_555 1_555
O16 C152 1_555 1_555
N13 H123 1_555 1_555
N14 H124 1_555 1_555
N15 H125 1_555 1_555
N16 H126 1_555 1_555
C115 N16 1_555 1_555
H127 C115 1_555 1_555
C116 C115 1_555 1_555
H128 C116 1_555 1_555
H129 C116 1_555 1_555
C117 C116 1_555 1_555
H130 C117 1_555 1_555
H131 C117 1_555 1_555
C118 C117 1_555 1_555
H132 C118 1_555 1_555
H133 C118 1_555 1_555
C119 C118 1_555 1_555
H134 C119 1_555 1_555
H135 C119 1_555 1_555
C120 N13 1_555 1_555
H136 C120 1_555 1_555
C121 N13 1_555 1_555
C122 N14 1_555 1_555
H137 C122 1_555 1_555
C123 C122 1_555 1_555
H138 C123 1_555 1_555
H139 C123 1_555 1_555
C124 C123 1_555 1_555
C125 C124 1_555 1_555
H140 C125 1_555 1_555
C126 C125 1_555 1_555
H141 C126 1_555 1_555
C127 C126 1_555 1_555
H142 C127 1_555 1_555
C128 C127 1_555 1_555
H143 C128 1_555 1_555
C129 C124 1_555 1_555
H144 C129 1_555 1_555
C130 N14 1_555 1_555
H145 C130 1_555 1_555
C131 C130 1_555 1_555
C132 O15 1_555 1_555
C133 C132 1_555 1_555
H146 C133 1_555 1_555
C134 C133 1_555 1_555
H147 C134 1_555 1_555
C135 C134 1_555 1_555
C136 C131 1_555 1_555
H148 C136 1_555 1_555
C137 N15 1_555 1_555
H149 C137 1_555 1_555
C138 C137 1_555 1_555
C139 O14 1_555 1_555
C140 C139 1_555 1_555
H150 C140 1_555 1_555
C141 C140 1_555 1_555
H151 C141 1_555 1_555
C142 C141 1_555 1_555
C143 C138 1_555 1_555
H152 C143 1_555 1_555
C144 N15 1_555 1_555
H153 C144 1_555 1_555
C145 C144 1_555 1_555
H154 C145 1_555 1_555
H155 C145 1_555 1_555
C146 C145 1_555 1_555
C147 C146 1_555 1_555
H156 C147 1_555 1_555
C148 C147 1_555 1_555
H157 C148 1_555 1_555
C149 C148 1_555 1_555
H158 C149 1_555 1_555
C150 C149 1_555 1_555
H159 C150 1_555 1_555
C151 C146 1_555 1_555
H160 C151 1_555 1_555
C152 N16 1_555 1_555
Cl9 C173 1_555 1_555
Cl10 C180 1_555 1_555
O17 C159 1_555 1_555
O18 H161 1_555 1_555
O19 H162 1_555 1_555
O20 C190 1_555 1_555
N17 H163 1_555 1_555
N18 H164 1_555 1_555
N19 H165 1_555 1_555
N20 H166 1_555 1_555
C153 N20 1_555 1_555
H167 C153 1_555 1_555
C154 C153 1_555 1_555
H168 C154 1_555 1_555
H169 C154 1_555 1_555
C155 C154 1_555 1_555
H170 C155 1_555 1_555
H171 C155 1_555 1_555
C156 C155 1_555 1_555
H172 C156 1_555 1_555
H173 C156 1_555 1_555
C157 C156 1_555 1_555
H174 C157 1_555 1_555
H175 C157 1_555 1_555
C158 N17 1_555 1_555
H176 C158 1_555 1_555
C159 N17 1_555 1_555
C160 N18 1_555 1_555
H177 C160 1_555 1_555
C161 C160 1_555 1_555
H178 C161 1_555 1_555
H179 C161 1_555 1_555
C162 C161 1_555 1_555
C163 C162 1_555 1_555
H180 C163 1_555 1_555
C164 C163 1_555 1_555
H181 C164 1_555 1_555
C165 C164 1_555 1_555
H182 C165 1_555 1_555
C166 C165 1_555 1_555
H183 C166 1_555 1_555
C167 C162 1_555 1_555
H184 C167 1_555 1_555
C168 N18 1_555 1_555
H185 C168 1_555 1_555
C169 C168 1_555 1_555
C170 O19 1_555 1_555
C171 C170 1_555 1_555
H186 C171 1_555 1_555
C172 C171 1_555 1_555
H187 C172 1_555 1_555
C173 C172 1_555 1_555
C174 C169 1_555 1_555
H188 C174 1_555 1_555
C175 N19 1_555 1_555
H189 C175 1_555 1_555
C176 C175 1_555 1_555
C177 O18 1_555 1_555
C178 C177 1_555 1_555
H190 C178 1_555 1_555
C179 C178 1_555 1_555
H191 C179 1_555 1_555
C180 C179 1_555 1_555
C181 C176 1_555 1_555
H192 C181 1_555 1_555
C182 N19 1_555 1_555
H193 C182 1_555 1_555
C183 C182 1_555 1_555
H194 C183 1_555 1_555
H195 C183 1_555 1_555
C184 C183 1_555 1_555
C185 C184 1_555 1_555
H196 C185 1_555 1_555
C186 C185 1_555 1_555
H197 C186 1_555 1_555
C187 C186 1_555 1_555
H198 C187 1_555 1_555
C188 C187 1_555 1_555
H199 C188 1_555 1_555
C189 C184 1_555 1_555
H200 C189 1_555 1_555
C190 N20 1_555 1_555
Cl11 C211 1_555 1_555
Cl12 C218 1_555 1_555
O21 C197 1_555 1_555
O22 H201 1_555 1_555
O23 H202 1_555 1_555
O24 C228 1_555 1_555
N21 H203 1_555 1_555
N22 H204 1_555 1_555
N23 H205 1_555 1_555
N24 H206 1_555 1_555
C191 N24 1_555 1_555
H207 C191 1_555 1_555
C192 C191 1_555 1_555
H208 C192 1_555 1_555
H209 C192 1_555 1_555
C193 C192 1_555 1_555
H210 C193 1_555 1_555
H211 C193 1_555 1_555
C194 C193 1_555 1_555
H212 C194 1_555 1_555
H213 C194 1_555 1_555
C195 C194 1_555 1_555
H214 C195 1_555 1_555
H215 C195 1_555 1_555
C196 N21 1_555 1_555
H216 C196 1_555 1_555
C197 N21 1_555 1_555
C198 N22 1_555 1_555
H217 C198 1_555 1_555
C199 C198 1_555 1_555
H218 C199 1_555 1_555
H219 C199 1_555 1_555
C200 C199 1_555 1_555
C201 C200 1_555 1_555
H220 C201 1_555 1_555
C202 C201 1_555 1_555
H221 C202 1_555 1_555
C203 C202 1_555 1_555
H222 C203 1_555 1_555
C204 C203 1_555 1_555
H223 C204 1_555 1_555
C205 C200 1_555 1_555
H224 C205 1_555 1_555
C206 N22 1_555 1_555
H225 C206 1_555 1_555
C207 C206 1_555 1_555
C208 O23 1_555 1_555
C209 C208 1_555 1_555
H226 C209 1_555 1_555
C210 C209 1_555 1_555
H227 C210 1_555 1_555
C211 C210 1_555 1_555
C212 C207 1_555 1_555
H228 C212 1_555 1_555
C213 N23 1_555 1_555
H229 C213 1_555 1_555
C214 C213 1_555 1_555
C215 O22 1_555 1_555
C216 C215 1_555 1_555
H230 C216 1_555 1_555
C217 C216 1_555 1_555
H231 C217 1_555 1_555
C218 C217 1_555 1_555
C219 C214 1_555 1_555
H232 C219 1_555 1_555
C220 N23 1_555 1_555
H233 C220 1_555 1_555
C221 C220 1_555 1_555
H234 C221 1_555 1_555
H235 C221 1_555 1_555
C222 C221 1_555 1_555
C223 C222 1_555 1_555
H236 C223 1_555 1_555
C224 C223 1_555 1_555
H237 C224 1_555 1_555
C225 C224 1_555 1_555
H238 C225 1_555 1_555
C226 C225 1_555 1_555
H239 C226 1_555 1_555
C227 C222 1_555 1_555
H240 C227 1_555 1_555
C228 N24 1_555 1_555
Cl13 C249 1_555 1_555
Cl14 C256 1_555 1_555
O25 C235 1_555 1_555
O26 H241 1_555 1_555
O27 H242 1_555 1_555
O28 C266 1_555 1_555
N25 H243 1_555 1_555
N26 H244 1_555 1_555
N27 H245 1_555 1_555
N28 H246 1_555 1_555
C229 N28 1_555 1_555
H247 C229 1_555 1_555
C230 C229 1_555 1_555
H248 C230 1_555 1_555
H249 C230 1_555 1_555
C231 C230 1_555 1_555
H250 C231 1_555 1_555
H251 C231 1_555 1_555
C232 C231 1_555 1_555
H252 C232 1_555 1_555
H253 C232 1_555 1_555
C233 C232 1_555 1_555
H254 C233 1_555 1_555
H255 C233 1_555 1_555
C234 N25 1_555 1_555
H256 C234 1_555 1_555
C235 N25 1_555 1_555
C236 N26 1_555 1_555
H257 C236 1_555 1_555
C237 C236 1_555 1_555
H258 C237 1_555 1_555
H259 C237 1_555 1_555
C238 C237 1_555 1_555
C239 C238 1_555 1_555
H260 C239 1_555 1_555
C240 C239 1_555 1_555
H261 C240 1_555 1_555
C241 C240 1_555 1_555
H262 C241 1_555 1_555
C242 C241 1_555 1_555
H263 C242 1_555 1_555
C243 C238 1_555 1_555
H264 C243 1_555 1_555
C244 N26 1_555 1_555
H265 C244 1_555 1_555
C245 C244 1_555 1_555
C246 O27 1_555 1_555
C247 C246 1_555 1_555
H266 C247 1_555 1_555
C248 C247 1_555 1_555
H267 C248 1_555 1_555
C249 C248 1_555 1_555
C250 C245 1_555 1_555
H268 C250 1_555 1_555
C251 N27 1_555 1_555
H269 C251 1_555 1_555
C252 C251 1_555 1_555
C253 O26 1_555 1_555
C254 C253 1_555 1_555
H270 C254 1_555 1_555
C255 C254 1_555 1_555
H271 C255 1_555 1_555
C256 C255 1_555 1_555
C257 C252 1_555 1_555
H272 C257 1_555 1_555
C258 N27 1_555 1_555
H273 C258 1_555 1_555
C259 C258 1_555 1_555
H274 C259 1_555 1_555
H275 C259 1_555 1_555
C260 C259 1_555 1_555
C261 C260 1_555 1_555
H276 C261 1_555 1_555
C262 C261 1_555 1_555
H277 C262 1_555 1_555
C263 C262 1_555 1_555
H278 C263 1_555 1_555
C264 C263 1_555 1_555
H279 C264 1_555 1_555
C265 C260 1_555 1_555
H280 C265 1_555 1_555
C266 N28 1_555 1_555
Cl15 C287 1_555 1_555
Cl16 C294 1_555 1_555
O29 C273 1_555 1_555
O30 H281 1_555 1_555
O31 H282 1_555 1_555
O32 C304 1_555 1_555
N29 H283 1_555 1_555
N30 H284 1_555 1_555
N31 H285 1_555 1_555
N32 H286 1_555 1_555
C267 N32 1_555 1_555
H287 C267 1_555 1_555
C268 C267 1_555 1_555
H288 C268 1_555 1_555
H289 C268 1_555 1_555
C269 C268 1_555 1_555
H290 C269 1_555 1_555
H291 C269 1_555 1_555
C270 C269 1_555 1_555
H292 C270 1_555 1_555
H293 C270 1_555 1_555
C271 C270 1_555 1_555
H294 C271 1_555 1_555
H295 C271 1_555 1_555
C272 N29 1_555 1_555
H296 C272 1_555 1_555
C273 N29 1_555 1_555
C274 N30 1_555 1_555
H297 C274 1_555 1_555
C275 C274 1_555 1_555
H298 C275 1_555 1_555
H299 C275 1_555 1_555
C276 C275 1_555 1_555
C277 C276 1_555 1_555
H300 C277 1_555 1_555
C278 C277 1_555 1_555
H301 C278 1_555 1_555
C279 C278 1_555 1_555
H302 C279 1_555 1_555
C280 C279 1_555 1_555
H303 C280 1_555 1_555
C281 C276 1_555 1_555
H304 C281 1_555 1_555
C282 N30 1_555 1_555
H305 C282 1_555 1_555
C283 C282 1_555 1_555
C284 O31 1_555 1_555
C285 C284 1_555 1_555
H306 C285 1_555 1_555
C286 C285 1_555 1_555
H307 C286 1_555 1_555
C287 C286 1_555 1_555
C288 C283 1_555 1_555
H308 C288 1_555 1_555
C289 N31 1_555 1_555
H309 C289 1_555 1_555
C290 C289 1_555 1_555
C291 O30 1_555 1_555
C292 C291 1_555 1_555
H310 C292 1_555 1_555
C293 C292 1_555 1_555
H311 C293 1_555 1_555
C294 C293 1_555 1_555
C295 C290 1_555 1_555
H312 C295 1_555 1_555
C296 N31 1_555 1_555
H313 C296 1_555 1_555
C297 C296 1_555 1_555
H314 C297 1_555 1_555
H315 C297 1_555 1_555
C298 C297 1_555 1_555
C299 C298 1_555 1_555
H316 C299 1_555 1_555
C300 C299 1_555 1_555
H317 C300 1_555 1_555
C301 C300 1_555 1_555
H318 C301 1_555 1_555
C302 C301 1_555 1_555
H319 C302 1_555 1_555
C303 C298 1_555 1_555
H320 C303 1_555 1_555
C304 N32 1_555 1_555
C1 C6 1_555 1_555
C5 C6 1_555 1_555
C7 C8 1_555 1_555
C14 C15 1_555 1_555
C16 C23 1_555 1_555
C17 C18 1_555 1_555
C21 C22 1_555 1_555
C24 C25 1_555 1_555
C28 C29 1_555 1_555
C30 C38 1_555 1_555
C36 C37 1_555 1_555
C39 C44 1_555 1_555
C43 C44 1_555 1_555
C45 C46 1_555 1_555
C52 C53 1_555 1_555
C54 C61 1_555 1_555
C55 C56 1_555 1_555
C59 C60 1_555 1_555
C62 C63 1_555 1_555
C66 C67 1_555 1_555
C68 C76 1_555 1_555
C74 C75 1_555 1_555
C77 C82 1_555 1_555
C81 C82 1_555 1_555
C83 C84 1_555 1_555
C90 C91 1_555 1_555
C92 C99 1_555 1_555
C93 C94 1_555 1_555
C97 C98 1_555 1_555
C100 C101 1_555 1_555
C104 C105 1_555 1_555
C106 C114 1_555 1_555
C112 C113 1_555 1_555
C115 C120 1_555 1_555
C119 C120 1_555 1_555
C121 C122 1_555 1_555
C128 C129 1_555 1_555
C130 C137 1_555 1_555
C131 C132 1_555 1_555
C135 C136 1_555 1_555
C138 C139 1_555 1_555
C142 C143 1_555 1_555
C144 C152 1_555 1_555
C150 C151 1_555 1_555
C153 C158 1_555 1_555
C157 C158 1_555 1_555
C159 C160 1_555 1_555
C166 C167 1_555 1_555
C168 C175 1_555 1_555
C169 C170 1_555 1_555
C173 C174 1_555 1_555
C176 C177 1_555 1_555
C180 C181 1_555 1_555
C182 C190 1_555 1_555
C188 C189 1_555 1_555
C191 C196 1_555 1_555
C195 C196 1_555 1_555
C197 C198 1_555 1_555
C204 C205 1_555 1_555
C206 C213 1_555 1_555
C207 C208 1_555 1_555
C211 C212 1_555 1_555
C214 C215 1_555 1_555
C218 C219 1_555 1_555
C220 C228 1_555 1_555
C226 C227 1_555 1_555
C229 C234 1_555 1_555
C233 C234 1_555 1_555
C235 C236 1_555 1_555
C242 C243 1_555 1_555
C244 C251 1_555 1_555
C245 C246 1_555 1_555
C249 C250 1_555 1_555
C252 C253 1_555 1_555
C256 C257 1_555 1_555
C258 C266 1_555 1_555
C264 C265 1_555 1_555
C267 C272 1_555 1_555
C271 C272 1_555 1_555
C273 C274 1_555 1_555
C280 C281 1_555 1_555
C282 C289 1_555 1_555
C283 C284 1_555 1_555
C287 C288 1_555 1_555
C290 C291 1_555 1_555
C294 C295 1_555 1_555
C296 C304 1_555 1_555
C302 C303 1_555 1_555

#END
