
#######################################################################
#
#                 Cambridge Crystallographic Data Centre
#                                CCDC 
#
#######################################################################
#
# If this CIF has been generated from an entry in the Cambridge 
# Structural Database, then it will include bibliographic, chemical, 
# crystal, experimental, refinement or atomic coordinate data resulting 
# from the CCDC's data processing and validation procedures.
#
#######################################################################

data_HIPFIX
_chemical_formula_moiety         'H18 Mg1 N6 2+,4(H4 B1 1-),2(Li1 1+)'
_chemical_name_systematic        
'hexa(ammine)-magnesium di-lithium tetrakis(tetrahydroborate)'
_symmetry_cell_setting           tetragonal
_symmetry_space_group_name_H-M   'P 43 21 2'
_symmetry_Int_Tables_number      96
_space_group_name_Hall           'P 4nw 2abw'
loop_
_symmetry_equiv_pos_site_id
_symmetry_equiv_pos_as_xyz
1 x,y,z
2 1/2-y,1/2+x,3/4+z
3 -x,-y,1/2+z
4 1/2+y,1/2-x,1/4+z
5 1/2+x,1/2-y,1/4-z
6 1/2-x,1/2+y,3/4-z
7 y,x,-z
8 -y,-x,1/2-z
_cell_length_a                   10.7656
_cell_length_b                   10.7656
_cell_length_c                   13.8430
_cell_angle_alpha                90
_cell_angle_beta                 90
_cell_angle_gamma                90
_cell_volume                     1604.38
_exptl_crystal_colour            white
_cell_formula_units_Z            4
_chemical_properties_physical    
'Air-sensitive, Moisture-sensitive, Heat-sensitive, Oxygen-sensitive'
loop_
_atom_site_label
_atom_site_type_symbol
_atom_site_fract_x
_atom_site_fract_y
_atom_site_fract_z
Mg1 Mg 0.0020 0.9980 0.7500
N1 N 0.1180 0.8910 0.8618
H1 H 0.1890 0.8400 0.8327
H2 H 0.1620 0.9510 0.9087
H3 H 0.0680 0.8300 0.9040
N2 N -0.0810 1.1020 0.8637
H4 H -0.1400 1.0510 0.9065
H5 H -0.1350 1.1730 0.8363
H6 H -0.0190 1.1460 0.9100
N3 N -0.1350 0.8370 0.7640
H7 H -0.2240 0.8680 0.7540
H8 H -0.1240 0.7640 0.7170
H9 H -0.1340 0.7980 0.8320
N1G N 0.1090 0.8820 0.6382
H1G H 0.1600 0.8110 0.6673
H2G H 0.0490 0.8380 0.5913
H3G H 0.1700 0.9320 0.5960
N2G N -0.1020 1.0810 0.6363
H4G H -0.0510 1.1400 0.5935
H5G H -0.1730 1.1350 0.6637
H6G H -0.1460 1.0190 0.5900
N3G N 0.1630 1.1350 0.7360
H7G H 0.1320 1.2240 0.7460
H8G H 0.2360 1.1240 0.7830
H9G H 0.2020 1.1340 0.6680
H10 H 0.1286 0.6040 0.6730
H11 H 0.1221 0.4490 0.7550
H12 H 0.1088 0.6210 0.8150
B1 B 0.1564 0.5580 0.7510
H13 H 0.2693 0.5650 0.7590
Li1 Li 0.0020 0.4950 0.6300
H14 H -0.1402 0.3870 0.8250
H15 H -0.1274 0.3760 0.6810
H16 H -0.1195 0.5440 0.7460
H17 H -0.2789 0.4480 0.7430
B2 B -0.1659 0.4390 0.7490
loop_
_geom_bond_atom_site_label_1
_geom_bond_atom_site_label_2
_geom_bond_site_symmetry_1
_geom_bond_site_symmetry_2
Mg1 N1 1_555 1_555
N1 H1 1_555 1_555
H2 N1 1_555 1_555
H3 N1 1_555 1_555
N2 Mg1 1_555 1_555
H4 N2 1_555 1_555
H5 N2 1_555 1_555
H6 N2 1_555 1_555
N3 Mg1 1_555 1_555
H7 N3 1_555 1_555
H8 N3 1_555 1_555
H9 N3 1_555 1_555
H10 B1 1_555 1_555
H11 B1 1_555 1_555
H12 B1 1_555 1_555
B1 H13 1_555 1_555
H14 B2 1_555 1_555
H15 B2 1_555 1_555
H16 B2 1_555 1_555
H17 B2 1_555 1_555
N1G Mg1 1_555 1_555
H1G N1G 1_555 1_555
H2G N1G 1_555 1_555
H3G N1G 1_555 1_555
N2G Mg1 1_555 1_555
H4G N2G 1_555 1_555
H5G N2G 1_555 1_555
H6G N2G 1_555 1_555
N3G Mg1 1_555 1_555
H7G N3G 1_555 1_555
H8G N3G 1_555 1_555
H9G N3G 1_555 1_555

#END
