
#######################################################################
#
#                 Cambridge Crystallographic Data Centre
#                                CCDC 
#
#######################################################################
#
# If this CIF has been generated from an entry in the Cambridge 
# Structural Database, then it will include bibliographic, chemical, 
# crystal, experimental, refinement or atomic coordinate data resulting 
# from the CCDC's data processing and validation procedures.
#
#######################################################################

data_HIPGIZ
_chemical_formula_moiety         'C38 H26 N4 O2 S2'
_chemical_name_systematic        
2,2'-disulfanediylbis[6-(4-methoxyphenyl)-4-phenylpyridine-3-carbonitrile]
_symmetry_cell_setting           triclinic
_symmetry_space_group_name_H-M   'P -1'
_symmetry_Int_Tables_number      2
_space_group_name_Hall           '-P 1'
loop_
_symmetry_equiv_pos_site_id
_symmetry_equiv_pos_as_xyz
1 x,y,z
2 -x,-y,-z
_cell_length_a                   8.2601(17)
_cell_length_b                   14.024(3)
_cell_length_c                   14.100(3)
_cell_angle_alpha                100.11(3)
_cell_angle_beta                 97.76(3)
_cell_angle_gamma                101.36(3)
_cell_volume                     1551.95
_exptl_crystal_colour            colorless
_exptl_crystal_description       prism
_cell_formula_units_Z            2
loop_
_atom_site_label
_atom_site_type_symbol
_atom_site_fract_x
_atom_site_fract_y
_atom_site_fract_z
S1 S -0.02252(6) 0.68585(3) 0.20313(3)
S2 S 0.04401(6) 0.78200(3) 0.33509(3)
C1 C 0.0000(2) 0.57069(14) 0.23779(12)
N1 N 0.0882(2) 0.57475(12) 0.32489(10)
C2 C 0.0947(2) 0.48814(14) 0.35373(12)
C3 C 0.0127(2) 0.39629(14) 0.29342(12)
H1 H 0.0149 0.3369 0.3168
C4 C -0.0724(2) 0.39066(14) 0.19918(12)
C5 C -0.0788(2) 0.48161(14) 0.17040(12)
C6 C 0.1976(2) 0.49702(13) 0.45116(12)
C7 C 0.1776(2) 0.42005(14) 0.50299(12)
H2 H 0.0936 0.3610 0.4765
C8 C 0.2797(2) 0.42901(14) 0.59323(12)
H3 H 0.2655 0.3762 0.6275
C9 C 0.4024(3) 0.51580(14) 0.63257(12)
O1 O 0.51091(19) 0.53213(10) 0.71949(9)
C10 C 0.4217(3) 0.59426(14) 0.58253(13)
H4 H 0.5035 0.6541 0.6099
C11 C 0.3207(3) 0.58388(14) 0.49293(13)
H5 H 0.3352 0.6369 0.4589
C12 C 0.5100(3) 0.44984(15) 0.76727(14)
H6 H 0.5337 0.3942 0.7229
H7 H 0.3997 0.4293 0.7851
H8 H 0.5961 0.4698 0.8265
C13 C -0.1493(2) 0.29167(14) 0.13390(13)
C14 C -0.1245(3) 0.27045(14) 0.03723(13)
H9 H -0.0633 0.3211 0.0107
C15 C -0.1887(3) 0.17533(15) -0.02104(13)
H10 H -0.1706 0.1615 -0.0867
C16 C -0.2790(3) 0.10096(15) 0.01725(14)
H11 H -0.3222 0.0361 -0.0220
C17 C -0.3060(3) 0.12192(15) 0.11360(14)
H12 H -0.3684 0.0713 0.1396
C18 C -0.2423(3) 0.21623(14) 0.17175(13)
H13 H -0.2614 0.2299 0.2372
C19 C -0.1658(3) 0.48674(14) 0.07604(13)
N2 N -0.2314(2) 0.49554(13) 0.00134(12)
C20 C 0.2686(3) 0.80615(13) 0.35585(12)
N3 N 0.3452(2) 0.79941(11) 0.27915(10)
C21 C 0.5155(3) 0.82279(13) 0.29486(12)
C22 C 0.6113(3) 0.85306(13) 0.39000(12)
H14 H 0.7303 0.8697 0.3986
C23 C 0.5317(3) 0.85876(13) 0.47202(13)
C24 C 0.3547(3) 0.83345(13) 0.45398(12)
C25 C 0.5907(2) 0.81511(13) 0.20486(12)
C26 C 0.7368(3) 0.88153(14) 0.19751(13)
H15 H 0.7959 0.9308 0.2531
C27 C 0.7961(3) 0.87591(14) 0.10952(13)
H16 H 0.8938 0.9222 0.1047
C28 C 0.7115(3) 0.80170(14) 0.02755(13)
O2 O 0.77722(18) 0.80350(10) -0.05596(9)
C29 C 0.5687(3) 0.73284(14) 0.03486(13)
H17 H 0.5139 0.6808 -0.0193
C30 C 0.5080(3) 0.74152(14) 0.12232(13)
H18 H 0.4081 0.6966 0.1265
C31 C 0.7052(3) 0.72159(15) -0.13729(13)
H19 H 0.7689 0.7274 -0.1906
H20 H 0.5883 0.7227 -0.1600
H21 H 0.7095 0.6588 -0.1166
C32 C 0.6308(2) 0.88639(13) 0.57367(12)
C33 C 0.5772(3) 0.94495(14) 0.64858(13)
H22 H 0.4784 0.9687 0.6343
C34 C 0.6669(3) 0.96905(14) 0.74426(13)
H23 H 0.6297 1.0095 0.7944
C35 C 0.8103(3) 0.93391(14) 0.76588(13)
H24 H 0.8689 0.9477 0.8313
C36 C 0.8678(3) 0.87845(15) 0.69142(14)
H25 H 0.9684 0.8566 0.7058
C37 C 0.7792(3) 0.85438(15) 0.59559(14)
H26 H 0.8196 0.8163 0.5452
C38 C 0.2562(3) 0.82628(14) 0.53061(13)
N4 N 0.1716(2) 0.81642(15) 0.58861(12)
loop_
_geom_bond_atom_site_label_1
_geom_bond_atom_site_label_2
_geom_bond_site_symmetry_1
_geom_bond_site_symmetry_2
S1 S2 1_555 1_555
S2 C20 1_555 1_555
C1 S1 1_555 1_555
N1 C1 1_555 1_555
C2 N1 1_555 1_555
C3 C2 1_555 1_555
H1 C3 1_555 1_555
C4 C3 1_555 1_555
C5 C1 1_555 1_555
C6 C2 1_555 1_555
C7 C6 1_555 1_555
H2 C7 1_555 1_555
C8 C7 1_555 1_555
H3 C8 1_555 1_555
C9 C8 1_555 1_555
O1 C9 1_555 1_555
C10 C9 1_555 1_555
H4 C10 1_555 1_555
C11 C6 1_555 1_555
H5 C11 1_555 1_555
C12 O1 1_555 1_555
H6 C12 1_555 1_555
H7 C12 1_555 1_555
H8 C12 1_555 1_555
C13 C4 1_555 1_555
C14 C13 1_555 1_555
H9 C14 1_555 1_555
C15 C14 1_555 1_555
H10 C15 1_555 1_555
C16 C15 1_555 1_555
H11 C16 1_555 1_555
C17 C16 1_555 1_555
H12 C17 1_555 1_555
C18 C13 1_555 1_555
H13 C18 1_555 1_555
C19 C5 1_555 1_555
N2 C19 1_555 1_555
C20 N3 1_555 1_555
N3 C21 1_555 1_555
C21 C22 1_555 1_555
C22 H14 1_555 1_555
C23 C22 1_555 1_555
C24 C20 1_555 1_555
C25 C21 1_555 1_555
C26 C25 1_555 1_555
H15 C26 1_555 1_555
C27 C26 1_555 1_555
H16 C27 1_555 1_555
C28 C27 1_555 1_555
O2 C28 1_555 1_555
C29 C28 1_555 1_555
H17 C29 1_555 1_555
C30 C25 1_555 1_555
H18 C30 1_555 1_555
C31 O2 1_555 1_555
H19 C31 1_555 1_555
H20 C31 1_555 1_555
H21 C31 1_555 1_555
C32 C23 1_555 1_555
C33 C32 1_555 1_555
H22 C33 1_555 1_555
C34 C33 1_555 1_555
H23 C34 1_555 1_555
C35 C34 1_555 1_555
H24 C35 1_555 1_555
C36 C35 1_555 1_555
H25 C36 1_555 1_555
C37 C32 1_555 1_555
H26 C37 1_555 1_555
C38 C24 1_555 1_555
N4 C38 1_555 1_555
C4 C5 1_555 1_555
C10 C11 1_555 1_555
C17 C18 1_555 1_555
C23 C24 1_555 1_555
C29 C30 1_555 1_555
C36 C37 1_555 1_555

#END
