
#######################################################################
#
#                 Cambridge Crystallographic Data Centre
#                                CCDC 
#
#######################################################################
#
# If this CIF has been generated from an entry in the Cambridge 
# Structural Database, then it will include bibliographic, chemical, 
# crystal, experimental, refinement or atomic coordinate data resulting 
# from the CCDC's data processing and validation procedures.
#
#######################################################################

data_HIPGEU
_chemical_formula_moiety         'C21 H26 N2 O3 S1'
_chemical_name_systematic        
N,N-Diethyl-3-(4-methoxyphenyl)-N'-((4-methylphenyl)sulfonyl)prop-2-enimidamide
_symmetry_cell_setting           triclinic
_symmetry_space_group_name_H-M   'P -1'
_symmetry_Int_Tables_number      2
_space_group_name_Hall           '-P 1'
loop_
_symmetry_equiv_pos_site_id
_symmetry_equiv_pos_as_xyz
1 x,y,z
2 -x,-y,-z
_cell_length_a                   9.0234(13)
_cell_length_b                   9.3284(13)
_cell_length_c                   12.4285(18)
_cell_angle_alpha                76.805(2)
_cell_angle_beta                 86.796(2)
_cell_angle_gamma                74.132(2)
_cell_volume                     979.7
_exptl_crystal_colour            colorless
_exptl_crystal_description       block
_cell_formula_units_Z            2
loop_
_atom_site_label
_atom_site_type_symbol
_atom_site_fract_x
_atom_site_fract_y
_atom_site_fract_z
S1 S 1.01770(3) 0.12680(3) 0.27068(2)
O1 O 0.37532(10) 0.33144(10) -0.22648(7)
O2 O 1.02840(10) 0.20543(9) 0.15721(7)
O3 O 0.87625(10) 0.18058(10) 0.32747(8)
N1 N 1.09692(11) -0.28413(10) 0.24171(8)
N2 N 1.06241(11) -0.05640(10) 0.28983(8)
C1 C 1.16871(12) 0.14982(11) 0.34459(9)
C2 C 0.67284(12) 0.10777(12) 0.04157(9)
C3 C 1.02511(12) -0.13397(12) 0.22376(9)
C4 C 0.78167(13) 0.03650(12) 0.13303(10)
H1 H 0.7573 0.0690 0.1988
C5 C 0.67322(13) 0.04694(12) -0.05223(10)
H2 H 0.7430 -0.0459 -0.0560
C6 C 0.57239(13) 0.12232(13) -0.13810(9)
H3 H 0.5729 0.0792 -0.1986
C7 C 0.56465(13) 0.24670(13) 0.04402(10)
H4 H 0.5599 0.2872 0.1063
C8 C 1.16025(14) 0.13069(13) 0.45912(10)
H5 H 1.0772 0.1028 0.4973
C9 C 1.27711(15) 0.15374(14) 0.51540(10)
H6 H 1.2710 0.1417 0.5917
C10 C 0.46833(12) 0.26403(12) -0.13546(9)
C11 C 1.41080(14) 0.21006(13) 0.34607(10)
H7 H 1.4954 0.2348 0.3081
C12 C 1.40348(14) 0.19455(13) 0.46045(10)
C13 C 0.91427(12) -0.07217(12) 0.13069(9)
H8 H 0.9374 -0.1104 0.0671
C14 C 0.46396(13) 0.32620(13) -0.04345(10)
H9 H 0.3947 0.4196 -0.0405
C15 C 1.29393(14) 0.18928(12) 0.28788(9)
H10 H 1.2996 0.2017 0.2115
C16 C 1.52769(16) 0.22200(16) 0.52182(12)
H11 H 1.4873 0.3129 0.5496
H12 H 1.6116 0.2343 0.4728
H13 H 1.5638 0.1364 0.5824
C17 C 0.30233(14) 0.49168(14) -0.24164(11)
H14 H 0.2339 0.5094 -0.1812
H15 H 0.2448 0.5272 -0.3097
H16 H 0.3793 0.5459 -0.2442
C18 C 1.22371(13) -0.35354(13) 0.32217(10)
H17 H 1.2768 -0.2775 0.3264
H18 H 1.2968 -0.4360 0.2964
C19 C 1.17027(17) -0.41554(16) 0.43627(11)
H19 H 1.1045 -0.3331 0.4649
H20 H 1.2580 -0.4648 0.4842
H21 H 1.1143 -0.4882 0.4323
C20 C 1.04560(13) -0.39043(13) 0.19116(10)
H22 H 0.9401 -0.3437 0.1656
H23 H 1.0468 -0.4823 0.2470
C21 C 1.14456(16) -0.43439(15) 0.09484(11)
H24 H 1.1280 -0.3479 0.0334
H25 H 1.1171 -0.5167 0.0738
H26 H 1.2512 -0.4664 0.1164
loop_
_geom_bond_atom_site_label_1
_geom_bond_atom_site_label_2
_geom_bond_site_symmetry_1
_geom_bond_site_symmetry_2
S1 O2 1_555 1_555
O1 C10 1_555 1_555
O3 S1 1_555 1_555
N1 C3 1_555 1_555
N2 S1 1_555 1_555
C1 S1 1_555 1_555
C2 C4 1_555 1_555
C3 N2 1_555 1_555
C4 H1 1_555 1_555
C5 C2 1_555 1_555
H2 C5 1_555 1_555
C6 C5 1_555 1_555
H3 C6 1_555 1_555
C7 C2 1_555 1_555
H4 C7 1_555 1_555
C8 C1 1_555 1_555
H5 C8 1_555 1_555
C9 C8 1_555 1_555
H6 C9 1_555 1_555
C10 C6 1_555 1_555
C11 H7 1_555 1_555
C12 C9 1_555 1_555
C13 C3 1_555 1_555
H8 C13 1_555 1_555
C14 C7 1_555 1_555
H9 C14 1_555 1_555
C15 C1 1_555 1_555
H10 C15 1_555 1_555
C16 C12 1_555 1_555
H11 C16 1_555 1_555
H12 C16 1_555 1_555
H13 C16 1_555 1_555
C17 O1 1_555 1_555
H14 C17 1_555 1_555
H15 C17 1_555 1_555
H16 C17 1_555 1_555
C18 N1 1_555 1_555
H17 C18 1_555 1_555
H18 C18 1_555 1_555
C19 C18 1_555 1_555
H19 C19 1_555 1_555
H20 C19 1_555 1_555
H21 C19 1_555 1_555
C20 N1 1_555 1_555
H22 C20 1_555 1_555
H23 C20 1_555 1_555
C21 C20 1_555 1_555
H24 C21 1_555 1_555
H25 C21 1_555 1_555
H26 C21 1_555 1_555
C4 C13 1_555 1_555
C10 C14 1_555 1_555
C11 C12 1_555 1_555
C11 C15 1_555 1_555

#END
