
#######################################################################
#
#                 Cambridge Crystallographic Data Centre
#                                CCDC 
#
#######################################################################
#
# If this CIF has been generated from an entry in the Cambridge 
# Structural Database, then it will include bibliographic, chemical, 
# crystal, experimental, refinement or atomic coordinate data resulting 
# from the CCDC's data processing and validation procedures.
#
#######################################################################

data_HIPGAR
_chemical_formula_moiety         'C27 H20 N2 O2 S1'
_chemical_name_systematic        
'benzyl 3-amino-4,6-diphenylthieno[2,3-b]pyridine-2-carboxylate'
_symmetry_cell_setting           triclinic
_symmetry_space_group_name_H-M   'P -1'
_symmetry_Int_Tables_number      2
_space_group_name_Hall           '-P 1'
loop_
_symmetry_equiv_pos_site_id
_symmetry_equiv_pos_as_xyz
1 x,y,z
2 -x,-y,-z
_cell_length_a                   8.6690(11)
_cell_length_b                   11.8751(13)
_cell_length_c                   12.1222(14)
_cell_angle_alpha                68.60(3)
_cell_angle_beta                 81.42(3)
_cell_angle_gamma                71.28(3)
_cell_volume                     1099.69
_exptl_crystal_colour            'light yellow'
_exptl_crystal_description       prism
_cell_formula_units_Z            2
loop_
_atom_site_label
_atom_site_type_symbol
_atom_site_fract_x
_atom_site_fract_y
_atom_site_fract_z
S1 S 0.49952(13) 0.42143(11) 0.17025(9)
C1 C 0.6511(5) 0.2753(4) 0.2164(4)
C2 C 0.6572(5) 0.2168(4) 0.3389(4)
N1 N 0.7623(5) 0.1008(4) 0.3955(3)
H1 H 0.838(6) 0.069(5) 0.346(5)
H2 H 0.777(6) 0.080(5) 0.477(5)
C3 C 0.5336(5) 0.2928(4) 0.4005(4)
C4 C 0.4956(5) 0.2730(4) 0.5232(3)
C5 C 0.3748(5) 0.3690(4) 0.5532(4)
H3 H 0.3495 0.3601 0.6344
C6 C 0.2895(5) 0.4794(4) 0.4646(4)
N2 N 0.3219(4) 0.4989(4) 0.3472(3)
C7 C 0.4425(5) 0.4066(4) 0.3191(4)
C8 C 0.7579(6) 0.2218(5) 0.1311(4)
O1 O 0.8576(4) 0.1153(3) 0.1577(3)
O2 O 0.7359(4) 0.3022(3) 0.0170(2)
C9 C 0.8378(5) 0.2553(5) -0.0740(4)
H4 H 0.7891 0.3065 -0.1522
H5 H 0.8392 0.1669 -0.0571
C10 C 1.0126(5) 0.2606(4) -0.0801(4)
C11 C 1.0463(6) 0.3642(5) -0.0700(4)
H6 H 0.9591 0.4310 -0.0563
C12 C 1.2064(6) 0.3706(5) -0.0799(4)
H7 H 1.2273 0.4411 -0.0723
C13 C 1.3354(6) 0.2733(5) -0.1010(4)
H8 H 1.4443 0.2771 -0.1070
C14 C 1.3034(6) 0.1702(5) -0.1132(4)
H9 H 1.3905 0.1048 -0.1292
C15 C 1.1433(6) 0.1633(5) -0.1018(4)
H10 H 1.1227 0.0923 -0.1087
C16 C 0.5761(5) 0.1529(4) 0.6196(4)
C17 C 0.6908(5) 0.1518(5) 0.6906(4)
H11 H 0.7152 0.2277 0.6799
C18 C 0.7691(6) 0.0395(5) 0.7770(4)
H12 H 0.8498 0.0389 0.8225
C19 C 0.7303(5) -0.0717(5) 0.7972(4)
H13 H 0.7842 -0.1477 0.8563
C20 C 0.6117(5) -0.0711(5) 0.7301(4)
H14 H 0.5825 -0.1461 0.7451
C21 C 0.5361(5) 0.0405(4) 0.6409(4)
H15 H 0.4573 0.0404 0.5943
C22 C 0.1529(5) 0.5799(4) 0.4960(4)
C23 C 0.0377(5) 0.6638(5) 0.4101(4)
H16 H 0.0453 0.6545 0.3347
C24 C -0.0881(5) 0.7607(5) 0.4357(4)
H17 H -0.1639 0.8182 0.3770
C25 C -0.1022(6) 0.7729(5) 0.5474(4)
H18 H -0.1876 0.8388 0.5644
C26 C 0.0087(6) 0.6888(5) 0.6340(4)
H19 H -0.0022 0.6961 0.7105
C27 C 0.1362(6) 0.5933(5) 0.6078(4)
H20 H 0.2126 0.5369 0.6666
loop_
_geom_bond_atom_site_label_1
_geom_bond_atom_site_label_2
_geom_bond_site_symmetry_1
_geom_bond_site_symmetry_2
S1 C1 1_555 1_555
C1 C2 1_555 1_555
C2 N1 1_555 1_555
N1 H1 1_555 1_555
H2 N1 1_555 1_555
C3 C2 1_555 1_555
C4 C3 1_555 1_555
C5 C4 1_555 1_555
H3 C5 1_555 1_555
C6 C5 1_555 1_555
N2 C6 1_555 1_555
C7 S1 1_555 1_555
C8 C1 1_555 1_555
O1 C8 1_555 1_555
O2 C8 1_555 1_555
C9 O2 1_555 1_555
H4 C9 1_555 1_555
H5 C9 1_555 1_555
C10 C9 1_555 1_555
C11 C10 1_555 1_555
H6 C11 1_555 1_555
C12 C11 1_555 1_555
H7 C12 1_555 1_555
C13 C12 1_555 1_555
H8 C13 1_555 1_555
C14 C13 1_555 1_555
H9 C14 1_555 1_555
C15 C10 1_555 1_555
H10 C15 1_555 1_555
C16 C4 1_555 1_555
C17 C16 1_555 1_555
H11 C17 1_555 1_555
C18 C17 1_555 1_555
H12 C18 1_555 1_555
C19 C18 1_555 1_555
H13 C19 1_555 1_555
C20 C19 1_555 1_555
H14 C20 1_555 1_555
C21 C16 1_555 1_555
H15 C21 1_555 1_555
C22 C6 1_555 1_555
C23 C22 1_555 1_555
H16 C23 1_555 1_555
C24 C23 1_555 1_555
H17 C24 1_555 1_555
C25 C24 1_555 1_555
H18 C25 1_555 1_555
C26 C25 1_555 1_555
H19 C26 1_555 1_555
C27 C22 1_555 1_555
H20 C27 1_555 1_555
C3 C7 1_555 1_555
N2 C7 1_555 1_555
C14 C15 1_555 1_555
C20 C21 1_555 1_555
C26 C27 1_555 1_555

#END
