
#######################################################################
#
#                 Cambridge Crystallographic Data Centre
#                                CCDC 
#
#######################################################################
#
# If this CIF has been generated from an entry in the Cambridge 
# Structural Database, then it will include bibliographic, chemical, 
# crystal, experimental, refinement or atomic coordinate data resulting 
# from the CCDC's data processing and validation procedures.
#
#######################################################################

data_HIPGUK
_chemical_formula_moiety         'C29 H32 N2 O4 S1'
_chemical_name_systematic        
N,N-Dibenzyl-3-(2,2-dimethyl-1,3-dioxolan-4-yl)-N'-((4-methylphenyl)sulfonyl)prop-2-enimidamide
_symmetry_cell_setting           monoclinic
_symmetry_space_group_name_H-M   'P 21'
_symmetry_Int_Tables_number      4
_space_group_name_Hall           'P 2yb'
loop_
_symmetry_equiv_pos_site_id
_symmetry_equiv_pos_as_xyz
1 x,y,z
2 -x,1/2+y,-z
_cell_length_a                   9.7934(18)
_cell_length_b                   11.215(2)
_cell_length_c                   12.187(2)
_cell_angle_alpha                90
_cell_angle_beta                 96.377(4)
_cell_angle_gamma                90
_cell_volume                     1330.25
_exptl_crystal_colour            colorless
_exptl_crystal_description       block
_cell_formula_units_Z            2
loop_
_atom_site_label
_atom_site_type_symbol
_atom_site_fract_x
_atom_site_fract_y
_atom_site_fract_z
S1 S 0.46453(5) 0.24817(6) 0.06680(5)
O1 O 0.85306(19) 0.4276(2) -0.24483(17)
O2 O 0.34961(18) 0.1772(2) 0.09323(18)
O3 O 0.44977(18) 0.3033(2) -0.03961(15)
O4 O 0.6529(2) 0.4508(4) -0.3526(2)
N1 N 0.5964(2) 0.1608(2) 0.09004(18)
N2 N 0.8178(2) 0.1077(2) 0.07913(18)
C1 C 0.8586(5) 0.4461(6) -0.4386(4)
H1 H 0.8618 0.3605 -0.4380
H2 H 0.9503 0.4772 -0.4351
H3 H 0.8062 0.4728 -0.5054
C2 C 0.7924(3) 0.4891(4) -0.3415(3)
C3 C 0.7490(2) 0.4194(3) -0.1711(2)
H4 H 0.7588 0.4855 -0.1183
C4 C 0.7585(2) 0.3043(3) -0.1111(2)
H5 H 0.7768 0.2352 -0.1490
C5 C 0.7416(2) 0.2972(3) -0.0051(2)
H6 H 0.7465 0.3678 0.0351
C6 C 0.7157(3) 0.1865(3) 0.0546(2)
C7 C 0.4905(2) 0.3606(2) 0.1675(2)
C8 C 0.4988(3) 0.3305(3) 0.2792(2)
H7 H 0.4951 0.2511 0.3008
C9 C 0.5127(3) 0.4201(3) 0.3570(2)
H8 H 0.5194 0.4002 0.4315
C10 C 0.5168(3) 0.5396(3) 0.3269(2)
C11 C 0.5293(4) 0.6381(4) 0.4117(3)
H9 H 0.5146 0.6060 0.4825
H10 H 0.4618 0.6984 0.3909
H11 H 0.6195 0.6724 0.4158
C12 C 0.4986(2) 0.4782(3) 0.1361(2)
H12 H 0.4963 0.4978 0.0618
C13 C 0.5102(2) 0.5665(3) 0.2151(2)
H13 H 0.5137 0.6458 0.1932
C14 C 0.9567(2) 0.1238(3) 0.0458(2)
H14 H 1.0233 0.0931 0.1037
H15 H 0.9741 0.2084 0.0384
C15 C 0.9773(2) 0.0626(3) -0.0611(2)
C16 C 1.0962(3) 0.0853(4) -0.1108(3)
H16 H 1.1615 0.1383 -0.0780
C17 C 1.1173(3) 0.0294(5) -0.2084(3)
H17 H 1.1966 0.0461 -0.2411
C18 C 1.0237(3) -0.0501(4) -0.2580(3)
H18 H 1.0396 -0.0878 -0.3234
C19 C 0.9062(3) -0.0736(4) -0.2101(3)
H19 H 0.8415 -0.1267 -0.2435
C20 C 0.8838(3) -0.0187(3) -0.1126(2)
H20 H 0.8044 -0.0363 -0.0804
C21 C 0.7926(3) -0.0021(3) 0.1382(2)
H21 H 0.8640 -0.0591 0.1264
H22 H 0.7057 -0.0355 0.1065
C22 C 0.7886(3) 0.0123(3) 0.2604(2)
C23 C 0.7994(4) 0.1196(4) 0.3142(3)
H23 H 0.8111 0.1890 0.2746
C24 C 0.7930(5) 0.1262(5) 0.4276(3)
H24 H 0.8008 0.1997 0.4630
C25 C 0.7755(4) 0.0253(6) 0.4873(3)
H25 H 0.7718 0.0302 0.5631
C26 C 0.7636(4) -0.0807(6) 0.4363(4)
H26 H 0.7512 -0.1494 0.4768
C27 C 0.7696(4) -0.0880(4) 0.3231(3)
H27 H 0.7607 -0.1620 0.2887
C28 C 0.6135(3) 0.4330(3) -0.2476(2)
H28 H 0.5578 0.3617 -0.2458
H29 H 0.5613 0.5006 -0.2254
C29 C 0.8056(3) 0.6208(4) -0.3264(3)
H30 H 0.7622 0.6604 -0.3909
H31 H 0.9011 0.6421 -0.3155
H32 H 0.7619 0.6446 -0.2632
loop_
_geom_bond_atom_site_label_1
_geom_bond_atom_site_label_2
_geom_bond_site_symmetry_1
_geom_bond_site_symmetry_2
S1 O2 1_555 1_555
O1 C2 1_555 1_555
O3 S1 1_555 1_555
O4 C2 1_555 1_555
N1 S1 1_555 1_555
N2 C6 1_555 1_555
C1 H1 1_555 1_555
H2 C1 1_555 1_555
H3 C1 1_555 1_555
C2 C1 1_555 1_555
C3 O1 1_555 1_555
H4 C3 1_555 1_555
C4 C3 1_555 1_555
H5 C4 1_555 1_555
C5 C4 1_555 1_555
H6 C5 1_555 1_555
C6 N1 1_555 1_555
C7 S1 1_555 1_555
C8 C7 1_555 1_555
H7 C8 1_555 1_555
C9 C8 1_555 1_555
H8 C9 1_555 1_555
C10 C9 1_555 1_555
C11 C10 1_555 1_555
H9 C11 1_555 1_555
H10 C11 1_555 1_555
H11 C11 1_555 1_555
C12 C7 1_555 1_555
H12 C12 1_555 1_555
C13 C10 1_555 1_555
H13 C13 1_555 1_555
C14 N2 1_555 1_555
H14 C14 1_555 1_555
H15 C14 1_555 1_555
C15 C14 1_555 1_555
C16 C15 1_555 1_555
H16 C16 1_555 1_555
C17 C16 1_555 1_555
H17 C17 1_555 1_555
C18 C17 1_555 1_555
H18 C18 1_555 1_555
C19 C18 1_555 1_555
H19 C19 1_555 1_555
C20 C15 1_555 1_555
H20 C20 1_555 1_555
C21 N2 1_555 1_555
H21 C21 1_555 1_555
H22 C21 1_555 1_555
C22 C21 1_555 1_555
C23 C22 1_555 1_555
H23 C23 1_555 1_555
C24 C23 1_555 1_555
H24 C24 1_555 1_555
C25 C24 1_555 1_555
H25 C25 1_555 1_555
C26 C25 1_555 1_555
H26 C26 1_555 1_555
C27 C22 1_555 1_555
H27 C27 1_555 1_555
C28 O4 1_555 1_555
H28 C28 1_555 1_555
H29 C28 1_555 1_555
C29 C2 1_555 1_555
H30 C29 1_555 1_555
H31 C29 1_555 1_555
H32 C29 1_555 1_555
C3 C28 1_555 1_555
C5 C6 1_555 1_555
C12 C13 1_555 1_555
C19 C20 1_555 1_555
C26 C27 1_555 1_555

#END
