
#######################################################################
#
#                 Cambridge Crystallographic Data Centre
#                                CCDC 
#
#######################################################################
#
# If this CIF has been generated from an entry in the Cambridge 
# Structural Database, then it will include bibliographic, chemical, 
# crystal, experimental, refinement or atomic coordinate data resulting 
# from the CCDC's data processing and validation procedures.
#
#######################################################################

data_HIPHAR
_chemical_formula_moiety         'C30 H55 N3 S2 Si2'
_chemical_name_systematic        
4-Hexyl-2,6-bis(triisopropylsilyl)-4H-[1,3]thiazolo[5',4':4,5]pyrrolo[2,3-d][1,3]thiazole
_symmetry_cell_setting           triclinic
_symmetry_space_group_name_H-M   'P -1'
_symmetry_Int_Tables_number      2
_space_group_name_Hall           '-P 1'
loop_
_symmetry_equiv_pos_site_id
_symmetry_equiv_pos_as_xyz
1 x,y,z
2 -x,-y,-z
_cell_length_a                   7.985(5)
_cell_length_b                   11.898(7)
_cell_length_c                   20.220(11)
_cell_angle_alpha                73.605(12)
_cell_angle_beta                 78.698(12)
_cell_angle_gamma                74.512(12)
_cell_volume                     1760.8
_exptl_crystal_colour            colorless
_exptl_crystal_description       plate
_cell_formula_units_Z            2
loop_
_atom_site_label
_atom_site_type_symbol
_atom_site_fract_x
_atom_site_fract_y
_atom_site_fract_z
Si1 Si 0.65559(7) 0.79309(5) 0.40271(3)
N1 N 1.5012(2) 0.54696(16) 0.19792(9)
Si2 Si 1.77346(7) 0.34180(5) 0.18526(3)
N2 N 0.9569(2) 0.76526(15) 0.30214(9)
S1 S 0.95284(8) 0.55673(5) 0.38880(3)
N3 N 1.2365(2) 0.69720(15) 0.23015(9)
S2 S 1.43237(8) 0.36609(5) 0.29856(3)
C1 C 1.5646(3) 0.4314(2) 0.22445(11)
C2 C 1.2844(3) 0.50204(18) 0.29327(11)
C3 C 1.1264(3) 0.56590(18) 0.32378(10)
C4 C 1.3472(3) 0.58431(18) 0.23667(11)
C5 C 0.8618(3) 0.71167(18) 0.35731(11)
C6 C 1.1016(3) 0.68334(18) 0.28423(10)
C7 C 0.5582(3) 0.9238(2) 0.33325(11)
H1 H 0.6500 0.9687 0.3125
C8 C 0.7230(3) 0.8496(2) 0.46984(11)
H2 H 0.6157 0.8905 0.4942
C9 C 1.7136(3) 0.2794(2) 0.11899(13)
H3 H 1.8229 0.2371 0.0965
C10 C 1.2570(3) 0.80428(19) 0.17529(11)
H4 H 1.3804 0.8053 0.1639
H5 H 1.1970 0.8749 0.1924
C11 C 0.4027(4) 1.0121(3) 0.36223(16)
H6 H 0.3591 1.0769 0.3247
H7 H 0.4403 1.0436 0.3942
H8 H 0.3114 0.9710 0.3860
C12 C 1.1860(3) 0.8111(2) 0.11009(12)
H9 H 1.2316 0.8707 0.0724
H10 H 1.2294 0.7341 0.0982
C13 C 1.9147(3) 0.4519(2) 0.14102(14)
H11 H 1.8441 0.5148 0.1082
C14 C 0.5105(4) 0.8878(3) 0.27366(14)
H12 H 0.4628 0.9589 0.2403
H13 H 0.4251 0.8396 0.2916
H14 H 0.6137 0.8426 0.2517
C15 C 0.9908(3) 0.8424(2) 0.11513(13)
H15 H 0.9482 0.9241 0.1205
H16 H 0.9441 0.7896 0.1566
C16 C 0.8362(4) 0.9415(3) 0.43656(16)
H17 H 0.8664 0.9686 0.4722
H18 H 0.7720 1.0089 0.4055
H19 H 0.9413 0.9049 0.4111
C17 C 1.5990(4) 0.1878(3) 0.15257(17)
H20 H 1.5730 0.1580 0.1172
H21 H 1.4917 0.2260 0.1761
H22 H 1.6606 0.1222 0.1854
C18 C 0.9201(4) 0.8325(3) 0.05248(16)
H23 H 0.9625 0.8880 0.0114
H24 H 0.9676 0.7519 0.0458
C19 C 0.6582(5) 0.8426(4) -0.0025(2)
H25 H 0.5325 0.8600 0.0054
H26 H 0.7021 0.7614 -0.0071
H27 H 0.6962 0.8970 -0.0444
C20 C 0.7274(4) 0.8576(4) 0.0582(2)
H28 H 0.6801 0.9394 0.0629
H29 H 0.6845 0.8044 0.1004
C21 C 1.9555(5) 0.5162(3) 0.1889(2)
H30 H 2.0260 0.5719 0.1625
H31 H 2.0182 0.4584 0.2246
H32 H 1.8481 0.5591 0.2098
C22 C 1.6233(4) 0.3793(3) 0.06186(15)
H33 H 1.5962 0.3442 0.0291
H34 H 1.7002 0.4322 0.0384
H35 H 1.5170 0.4241 0.0824
C23 C 2.0782(5) 0.3996(4) 0.0965(3)
H36 H 2.1441 0.4601 0.0748
H37 H 2.0444 0.3731 0.0615
H38 H 2.1491 0.3326 0.1254
C24 C 1.8635(3) 0.2137(2) 0.25805(12)
H39 H 1.7664 0.1746 0.2808
C25 C 0.5183(3) 0.6797(2) 0.44797(12)
H40 H 0.5971 0.6122 0.4752
C26 C 0.8175(4) 0.7475(3) 0.52439(13)
H41 H 0.8481 0.7804 0.5574
H42 H 0.9220 0.7041 0.5020
H43 H 0.7417 0.6939 0.5480
C27 C 1.9211(4) 0.2517(3) 0.31519(14)
H44 H 1.9638 0.1815 0.3501
H45 H 1.8229 0.3028 0.3359
H46 H 2.0125 0.2945 0.2952
C28 C 2.0099(4) 0.1163(3) 0.23173(17)
H47 H 2.0498 0.0532 0.2707
H48 H 2.1058 0.1512 0.2060
H49 H 1.9653 0.0838 0.2022
C29 C 0.3686(4) 0.7233(3) 0.50128(17)
H50 H 0.3060 0.6611 0.5233
H51 H 0.2902 0.7936 0.4783
H52 H 0.4157 0.7428 0.5358
C30 C 0.4546(5) 0.6257(3) 0.39955(17)
H53 H 0.3882 0.5681 0.4268
H54 H 0.5538 0.5867 0.3724
H55 H 0.3819 0.6886 0.3692
loop_
_geom_bond_atom_site_label_1
_geom_bond_atom_site_label_2
_geom_bond_site_symmetry_1
_geom_bond_site_symmetry_2
Si1 C5 1_555 1_555
N1 C1 1_555 1_555
Si2 C1 1_555 1_555
N2 C5 1_555 1_555
S1 C3 1_555 1_555
N3 C4 1_555 1_555
S2 C1 1_555 1_555
C2 S2 1_555 1_555
C3 C2 1_555 1_555
C4 N1 1_555 1_555
C5 S1 1_555 1_555
C6 N2 1_555 1_555
C7 Si1 1_555 1_555
H1 C7 1_555 1_555
C8 Si1 1_555 1_555
H2 C8 1_555 1_555
C9 Si2 1_555 1_555
H3 C9 1_555 1_555
C10 N3 1_555 1_555
H4 C10 1_555 1_555
H5 C10 1_555 1_555
C11 C7 1_555 1_555
H6 C11 1_555 1_555
H7 C11 1_555 1_555
H8 C11 1_555 1_555
C12 C10 1_555 1_555
H9 C12 1_555 1_555
H10 C12 1_555 1_555
C13 Si2 1_555 1_555
H11 C13 1_555 1_555
C14 C7 1_555 1_555
H12 C14 1_555 1_555
H13 C14 1_555 1_555
H14 C14 1_555 1_555
C15 C12 1_555 1_555
H15 C15 1_555 1_555
H16 C15 1_555 1_555
C16 C8 1_555 1_555
H17 C16 1_555 1_555
H18 C16 1_555 1_555
H19 C16 1_555 1_555
C17 C9 1_555 1_555
H20 C17 1_555 1_555
H21 C17 1_555 1_555
H22 C17 1_555 1_555
C18 C15 1_555 1_555
H23 C18 1_555 1_555
H24 C18 1_555 1_555
C19 H25 1_555 1_555
H26 C19 1_555 1_555
H27 C19 1_555 1_555
C20 C18 1_555 1_555
H28 C20 1_555 1_555
H29 C20 1_555 1_555
C21 C13 1_555 1_555
H30 C21 1_555 1_555
H31 C21 1_555 1_555
H32 C21 1_555 1_555
C22 C9 1_555 1_555
H33 C22 1_555 1_555
H34 C22 1_555 1_555
H35 C22 1_555 1_555
C23 C13 1_555 1_555
H36 C23 1_555 1_555
H37 C23 1_555 1_555
H38 C23 1_555 1_555
C24 Si2 1_555 1_555
H39 C24 1_555 1_555
C25 Si1 1_555 1_555
H40 C25 1_555 1_555
C26 C8 1_555 1_555
H41 C26 1_555 1_555
H42 C26 1_555 1_555
H43 C26 1_555 1_555
C27 C24 1_555 1_555
H44 C27 1_555 1_555
H45 C27 1_555 1_555
H46 C27 1_555 1_555
C28 C24 1_555 1_555
H47 C28 1_555 1_555
H48 C28 1_555 1_555
H49 C28 1_555 1_555
C29 C25 1_555 1_555
H50 C29 1_555 1_555
H51 C29 1_555 1_555
H52 C29 1_555 1_555
C30 C25 1_555 1_555
H53 C30 1_555 1_555
H54 C30 1_555 1_555
H55 C30 1_555 1_555
N3 C6 1_555 1_555
C2 C4 1_555 1_555
C3 C6 1_555 1_555
C19 C20 1_555 1_555

#END
