
#######################################################################
#
#                 Cambridge Crystallographic Data Centre
#                                CCDC 
#
#######################################################################
#
# If this CIF has been generated from an entry in the Cambridge 
# Structural Database, then it will include bibliographic, chemical, 
# crystal, experimental, refinement or atomic coordinate data resulting 
# from the CCDC's data processing and validation procedures.
#
#######################################################################

data_HIPHEV
_chemical_formula_moiety         'C12 H13 Br2 N3 S2'
_chemical_name_systematic        
2,6-Dibromo-4-hexyl-4H-[1,3]thiazolo[5',4':4,5]pyrrolo[2,3-d][1,3]thiazole
_symmetry_cell_setting           monoclinic
_symmetry_space_group_name_H-M   'P 21/n'
_symmetry_Int_Tables_number      14
_space_group_name_Hall           '-P 2yn'
loop_
_symmetry_equiv_pos_site_id
_symmetry_equiv_pos_as_xyz
1 x,y,z
2 1/2-x,1/2+y,1/2-z
3 -x,-y,-z
4 1/2+x,1/2-y,1/2+z
_cell_length_a                   8.3182(6)
_cell_length_b                   19.0237(12)
_cell_length_c                   10.5572(7)
_cell_angle_alpha                90
_cell_angle_beta                 108.0300(10)
_cell_angle_gamma                90
_cell_volume                     1588.57
_exptl_crystal_colour            colorless
_exptl_crystal_description       prism
_cell_formula_units_Z            4
loop_
_atom_site_label
_atom_site_type_symbol
_atom_site_fract_x
_atom_site_fract_y
_atom_site_fract_z
Br1 Br 0.12701(4) 0.138911(14) 0.16797(3)
S1 S 0.08442(8) 0.39029(3) -0.34751(6)
Br2 Br 0.27509(4) 0.516400(15) -0.42312(3)
C1 C 0.1716(3) 0.34764(11) -0.19770(19)
S2 S 0.02257(7) 0.22636(3) -0.09292(5)
N1 N 0.4000(2) 0.34914(10) -0.01161(16)
C2 C 0.1711(3) 0.20991(11) 0.0609(2)
C3 C 0.3226(3) 0.38084(11) -0.13155(19)
N2 N 0.3070(2) 0.24802(10) 0.09760(16)
C4 C 0.2581(3) 0.44638(11) -0.3030(2)
C5 C 0.2939(3) 0.29537(11) -0.00278(19)
C6 C 0.1523(3) 0.29291(11) -0.1145(2)
N3 N 0.3730(2) 0.43690(9) -0.19007(17)
C7 C 0.5635(3) 0.36692(12) 0.0839(2)
H1 H 0.5513 0.3706 0.1722
H2 H 0.5997 0.4123 0.0610
C8 C 0.6970(3) 0.31270(14) 0.0862(3)
H3 H 0.7106 0.3098 -0.0016
H4 H 0.6592 0.2671 0.1068
C9 C 0.8661(4) 0.32940(17) 0.1869(3)
H5 H 0.8499 0.3399 0.2721
H6 H 0.9389 0.2885 0.1986
C10 C 0.9520(4) 0.39151(19) 0.1441(4)
H7 H 0.8840 0.4332 0.1419
H8 H 0.9544 0.3831 0.0541
C11 C 1.1279(5) 0.4060(2) 0.2308(5)
H9 H 1.1964 0.3643 0.2345
H10 H 1.1261 0.4160 0.3204
C12 C 1.2077(5) 0.4666(3) 0.1822(6)
H11 H 1.3199 0.4739 0.2416
H12 H 1.1414 0.5082 0.1796
H13 H 1.2129 0.4565 0.0945
loop_
_geom_bond_atom_site_label_1
_geom_bond_atom_site_label_2
_geom_bond_site_symmetry_1
_geom_bond_site_symmetry_2
Br1 C2 1_555 1_555
S1 C1 1_555 1_555
Br2 C4 1_555 1_555
C1 C3 1_555 1_555
S2 C2 1_555 1_555
N1 C3 1_555 1_555
C2 N2 1_555 1_555
C3 N3 1_555 1_555
N2 C5 1_555 1_555
C4 S1 1_555 1_555
C5 N1 1_555 1_555
C6 C1 1_555 1_555
N3 C4 1_555 1_555
C7 N1 1_555 1_555
H1 C7 1_555 1_555
H2 C7 1_555 1_555
C8 C7 1_555 1_555
H3 C8 1_555 1_555
H4 C8 1_555 1_555
C9 C8 1_555 1_555
H5 C9 1_555 1_555
H6 C9 1_555 1_555
C10 C9 1_555 1_555
H7 C10 1_555 1_555
H8 C10 1_555 1_555
C11 C10 1_555 1_555
H9 C11 1_555 1_555
H10 C11 1_555 1_555
C12 C11 1_555 1_555
H11 C12 1_555 1_555
H12 C12 1_555 1_555
H13 C12 1_555 1_555
S2 C6 1_555 1_555
C5 C6 1_555 1_555

#END
