
#######################################################################
#
#                 Cambridge Crystallographic Data Centre
#                                CCDC 
#
#######################################################################
#
# If this CIF has been generated from an entry in the Cambridge 
# Structural Database, then it will include bibliographic, chemical, 
# crystal, experimental, refinement or atomic coordinate data resulting 
# from the CCDC's data processing and validation procedures.
#
#######################################################################

data_HIPPIH
_chemical_formula_moiety         'C28 H35 Br1 O6 Si1,0.5(C1 H2 Cl2)'
_chemical_name_systematic        
'4-(Benzyloxy)-6-bromo-1-((t-butyl(dimethyl)silyl)oxy)-5,8-dimethoxy-1,2,3,4-tetrahydro-9H-xanthen-9-one dichloromethane solvate'
_symmetry_cell_setting           monoclinic
_symmetry_space_group_name_H-M   'I 2'
_symmetry_Int_Tables_number      5
_space_group_name_Hall           'I 2y'
loop_
_symmetry_equiv_pos_site_id
_symmetry_equiv_pos_as_xyz
1 x,y,z
2 -x,y,-z
3 1/2+x,1/2+y,1/2+z
4 1/2-x,1/2+y,1/2-z
_cell_length_a                   18.8597(8)
_cell_length_b                   7.6584(6)
_cell_length_c                   22.2200(10)
_cell_angle_alpha                90
_cell_angle_beta                 109.079(2)
_cell_angle_gamma                90
_cell_volume                     3033.06
_exptl_crystal_colour            colorless
_exptl_crystal_description       prisms
_cell_formula_units_Z            4
loop_
_atom_site_label
_atom_site_type_symbol
_atom_site_fract_x
_atom_site_fract_y
_atom_site_fract_z
Br1 Br 0.909610(14) 1.11459(5) 1.019980(11)
Si1 Si 0.37935(4) 0.98724(10) 0.71887(3)
O1 O 0.71654(9) 0.8454(2) 0.82320(7)
O2 O 0.85514(9) 0.9387(2) 0.88971(8)
O3 O 0.62148(10) 1.0519(2) 0.98457(8)
O4 O 0.53243(9) 0.8991(3) 0.87782(8)
O5 O 0.46904(8) 0.9556(2) 0.72935(7)
O6 O 0.70122(9) 0.8544(2) 0.69783(8)
C1 C 0.72513(13) 0.9160(3) 0.88162(10)
C2 C 0.79933(13) 0.9608(3) 0.91591(10)
C3 C 0.81103(14) 1.0401(3) 0.97383(11)
C4 C 0.75354(14) 1.0725(3) 0.99880(11)
H1 H 0.7641 1.1270 1.0392
C5 C 0.68092(14) 1.0248(3) 0.96432(10)
C6 C 0.66498(13) 0.9438(3) 0.90360(10)
C7 C 0.58898(14) 0.8941(3) 0.86216(11)
C8 C 0.58444(13) 0.8354(3) 0.79799(11)
C9 C 0.50827(13) 0.7952(3) 0.75126(11)
H2 H 0.4793 0.7249 0.7732
C10 C 0.51410(13) 0.6918(3) 0.69433(11)
H3 H 0.5291 0.5700 0.7075
H4 H 0.4645 0.6889 0.6605
C11 C 0.57143(13) 0.7743(4) 0.66838(11)
H5 H 0.5702 0.7155 0.6284
H6 H 0.5596 0.8993 0.6591
C12 C 0.64877(13) 0.7555(3) 0.71779(10)
H7 H 0.6637 0.6297 0.7208
C13 C 0.64639(12) 0.8152(3) 0.78170(10)
C14 C 0.88997(16) 0.7696(4) 0.90113(15)
H8 H 0.8533 0.6804 0.8793
H9 H 0.9079 0.7459 0.9470
H10 H 0.9324 0.7672 0.8849
C15 C 0.63495(16) 1.1418(5) 1.04367(12)
H11 H 0.6577 1.2557 1.0416
H12 H 0.6690 1.0726 1.0782
H13 H 0.5873 1.1586 1.0517
C16 C 0.36658(17) 1.0690(5) 0.79278(15)
H14 H 0.3862 1.1883 0.8011
H15 H 0.3937 0.9934 0.8284
H16 H 0.3131 1.0688 0.7880
C17 C 0.32508(16) 0.7786(4) 0.69563(18)
H17 H 0.3412 0.6956 0.7311
H18 H 0.3343 0.7288 0.6582
H19 H 0.2714 0.8026 0.6855
C18 C 0.34763(14) 1.1481(4) 0.65199(13)
C19 C 0.3982(2) 1.3101(4) 0.66792(19)
H20 H 0.3828 1.3919 0.6321
H21 H 0.4504 1.2752 0.6759
H22 H 0.3936 1.3668 0.7060
C20 C 0.3550(3) 1.0700(5) 0.59068(15)
H23 H 0.3387 1.1561 0.5563
H24 H 0.3236 0.9654 0.5789
H25 H 0.4075 1.0388 0.5977
C21 C 0.26644(19) 1.2032(6) 0.6403(2)
H26 H 0.2338 1.1003 0.6294
H27 H 0.2512 1.2872 0.6051
H28 H 0.2622 1.2575 0.6789
C22 C 0.77575(13) 0.7849(3) 0.71770(11)
H29 H 0.7735 0.6558 0.7171
H30 H 0.8028 0.8227 0.7619
C23 C 0.81736(14) 0.8460(3) 0.67470(12)
C24 C 0.78281(15) 0.9294(3) 0.61728(12)
H31 H 0.7303 0.9510 0.6037
C25 C 0.82518(18) 0.9819(4) 0.57918(13)
H32 H 0.8015 1.0401 0.5400
C26 C 0.90129(18) 0.9493(4) 0.59845(16)
H33 H 0.9300 0.9853 0.5726
C27 C 0.93544(18) 0.8649(4) 0.65492(17)
H34 H 0.9877 0.8408 0.6676
C28 C 0.89483(15) 0.8147(4) 0.69343(14)
H35 H 0.9194 0.7586 0.7329
Cl1 Cl 0.42813(4) 0.63729(17) 0.94901(4)
C29 C 0.5000 0.7656(6) 1.0000
H36 H 0.4794 0.8393 1.0250
Cl1A Cl 0.57187(4) 0.63729(17) 1.05099(4)
H36A H 0.5206 0.8393 0.9750
loop_
_geom_bond_atom_site_label_1
_geom_bond_atom_site_label_2
_geom_bond_site_symmetry_1
_geom_bond_site_symmetry_2
Br1 C3 1_555 1_555
Si1 O5 1_555 1_555
O1 C1 1_555 1_555
O2 C2 1_555 1_555
O3 C5 1_555 1_555
O4 C7 1_555 1_555
O5 C9 1_555 1_555
O6 C12 1_555 1_555
C1 C2 1_555 1_555
C2 C3 1_555 1_555
C3 C4 1_555 1_555
C4 H1 1_555 1_555
C5 C4 1_555 1_555
C6 C1 1_555 1_555
C7 C6 1_555 1_555
C8 C7 1_555 1_555
C9 C8 1_555 1_555
H2 C9 1_555 1_555
C10 C9 1_555 1_555
H3 C10 1_555 1_555
H4 C10 1_555 1_555
C11 C10 1_555 1_555
H5 C11 1_555 1_555
H6 C11 1_555 1_555
C12 C11 1_555 1_555
H7 C12 1_555 1_555
C13 O1 1_555 1_555
C14 O2 1_555 1_555
H8 C14 1_555 1_555
H9 C14 1_555 1_555
H10 C14 1_555 1_555
C15 O3 1_555 1_555
H11 C15 1_555 1_555
H12 C15 1_555 1_555
H13 C15 1_555 1_555
C16 Si1 1_555 1_555
H14 C16 1_555 1_555
H15 C16 1_555 1_555
H16 C16 1_555 1_555
C17 Si1 1_555 1_555
H17 C17 1_555 1_555
H18 C17 1_555 1_555
H19 C17 1_555 1_555
C18 Si1 1_555 1_555
C19 C18 1_555 1_555
H20 C19 1_555 1_555
H21 C19 1_555 1_555
H22 C19 1_555 1_555
C20 C18 1_555 1_555
H23 C20 1_555 1_555
H24 C20 1_555 1_555
H25 C20 1_555 1_555
C21 C18 1_555 1_555
H26 C21 1_555 1_555
H27 C21 1_555 1_555
H28 C21 1_555 1_555
C22 O6 1_555 1_555
H29 C22 1_555 1_555
H30 C22 1_555 1_555
C23 C22 1_555 1_555
C24 C23 1_555 1_555
H31 C24 1_555 1_555
C25 C24 1_555 1_555
H32 C25 1_555 1_555
C26 C25 1_555 1_555
H33 C26 1_555 1_555
C27 C26 1_555 1_555
H34 C27 1_555 1_555
C28 C23 1_555 1_555
H35 C28 1_555 1_555
Cl1 C29 1_555 1_555
C29 H36 1_555 1_555
Cl1A C29 1_555 1_555
H36A C29 1_555 1_555
C5 C6 1_555 1_555
C8 C13 1_555 1_555
C12 C13 1_555 1_555
C27 C28 1_555 1_555

#END
