
#######################################################################
#
#                 Cambridge Crystallographic Data Centre
#                                CCDC 
#
#######################################################################
#
# If this CIF has been generated from an entry in the Cambridge 
# Structural Database, then it will include bibliographic, chemical, 
# crystal, experimental, refinement or atomic coordinate data resulting 
# from the CCDC's data processing and validation procedures.
#
#######################################################################

data_HIPSUX
_chemical_formula_moiety         'C8 H16 B10'
_chemical_name_systematic        9-phenyl-1,2-dicarba-closo-dodecaborane(11)
_symmetry_cell_setting           monoclinic
_symmetry_space_group_name_H-M   'P 21/n'
_symmetry_Int_Tables_number      14
_space_group_name_Hall           '-P 2yn'
loop_
_symmetry_equiv_pos_site_id
_symmetry_equiv_pos_as_xyz
1 x,y,z
2 1/2-x,1/2+y,1/2-z
3 -x,-y,-z
4 1/2+x,1/2-y,1/2+z
_cell_length_a                   6.7382(5)
_cell_length_b                   13.5359(9)
_cell_length_c                   14.4823(9)
_cell_angle_alpha                90
_cell_angle_beta                 95.384(4)
_cell_angle_gamma                90
_cell_volume                     1315.07
_exptl_crystal_colour            colorless
_exptl_crystal_description       block
_cell_formula_units_Z            4
loop_
_atom_site_label
_atom_site_type_symbol
_atom_site_fract_x
_atom_site_fract_y
_atom_site_fract_z
C1 C 0.1356(3) -0.12272(15) 0.32565(15)
H1 H 0.1101 -0.1951 0.3570
C2 C 0.1954(3) -0.11430(15) 0.21981(14)
H2 H 0.2119 -0.1805 0.1771
C3 C 0.1240(3) 0.17117(13) 0.41232(12)
C4 C -0.0556(3) 0.22089(16) 0.41534(16)
H3 H -0.1666 0.1997 0.3775
C5 C -0.0735(4) 0.30116(18) 0.47316(18)
H4 H -0.1958 0.3328 0.4740
C6 C 0.0877(5) 0.33406(18) 0.52896(17)
H5 H 0.0756 0.3883 0.5675
C7 C 0.2665(5) 0.28700(18) 0.52794(17)
H6 H 0.3766 0.3090 0.5659
C8 C 0.2839(4) 0.20648(16) 0.47041(15)
H7 H 0.4067 0.1750 0.4707
B1 B -0.0400(4) -0.0821(2) 0.24253(19)
H8 H -0.1763 -0.1226 0.2180
B2 B -0.0079(4) -0.02713(17) 0.35332(17)
H9 H -0.1249 -0.0312 0.4013
B3 B 0.2472(4) -0.03422(17) 0.39372(17)
H10 H 0.2958 -0.0429 0.4679
B4 B 0.3737(4) -0.09328(19) 0.30808(18)
H11 H 0.5036 -0.1412 0.3257
B5 B 0.0955(4) -0.01293(19) 0.16717(18)
H12 H 0.0464 -0.0074 0.0927
B6 B -0.0325(4) 0.04697(19) 0.25269(17)
H13 H -0.1654 0.0927 0.2344
B7 B 0.1460(3) 0.07900(15) 0.34772(15)
B8 B 0.3837(4) 0.03537(18) 0.31898(19)
H14 H 0.5223 0.0737 0.3441
B9 B 0.3528(4) -0.01958(19) 0.20799(19)
H15 H 0.4705 -0.0180 0.1603
B10 B 0.2105(4) 0.08611(18) 0.23123(17)
H16 H 0.2360 0.1578 0.1987
loop_
_geom_bond_atom_site_label_1
_geom_bond_atom_site_label_2
_geom_bond_site_symmetry_1
_geom_bond_site_symmetry_2
C1 H1 1_555 1_555
C2 C1 1_555 1_555
H2 C2 1_555 1_555
C3 C4 1_555 1_555
C4 H3 1_555 1_555
C5 C4 1_555 1_555
H4 C5 1_555 1_555
C6 C5 1_555 1_555
H5 C6 1_555 1_555
C7 C6 1_555 1_555
H6 C7 1_555 1_555
C8 C3 1_555 1_555
H7 C8 1_555 1_555
B1 C1 1_555 1_555
H8 B1 1_555 1_555
B2 C1 1_555 1_555
H9 B2 1_555 1_555
B3 C1 1_555 1_555
H10 B3 1_555 1_555
B4 C1 1_555 1_555
H11 B4 1_555 1_555
B5 C2 1_555 1_555
H12 B5 1_555 1_555
B6 B1 1_555 1_555
H13 B6 1_555 1_555
B7 C3 1_555 1_555
B8 B3 1_555 1_555
H14 B8 1_555 1_555
B9 C2 1_555 1_555
H15 B9 1_555 1_555
B10 B5 1_555 1_555
H16 B10 1_555 1_555
C2 B1 1_555 1_555
C2 B4 1_555 1_555
C7 C8 1_555 1_555
B1 B2 1_555 1_555
B1 B5 1_555 1_555
B2 B3 1_555 1_555
B2 B6 1_555 1_555
B2 B7 1_555 1_555
B3 B4 1_555 1_555
B3 B7 1_555 1_555
B4 B8 1_555 1_555
B4 B9 1_555 1_555
B5 B6 1_555 1_555
B5 B9 1_555 1_555
B6 B7 1_555 1_555
B6 B10 1_555 1_555
B7 B8 1_555 1_555
B7 B10 1_555 1_555
B8 B9 1_555 1_555
B8 B10 1_555 1_555
B9 B10 1_555 1_555

#END
