
#######################################################################
#
#                 Cambridge Crystallographic Data Centre
#                                CCDC 
#
#######################################################################
#
# If this CIF has been generated from an entry in the Cambridge 
# Structural Database, then it will include bibliographic, chemical, 
# crystal, experimental, refinement or atomic coordinate data resulting 
# from the CCDC's data processing and validation procedures.
#
#######################################################################

data_HIPVAG
_chemical_formula_moiety         'C4 H12 N1 1+,N5 1-'
_chemical_name_systematic        'tetramethylammonium pentazolide'
_symmetry_cell_setting           monoclinic
_symmetry_space_group_name_H-M   'P 21/m'
_symmetry_Int_Tables_number      11
_space_group_name_Hall           '-P 2yb'
loop_
_symmetry_equiv_pos_site_id
_symmetry_equiv_pos_as_xyz
1 x,y,z
2 -x,1/2+y,-z
3 -x,-y,-z
4 x,1/2-y,z
_cell_length_a                   5.786(2)
_cell_length_b                   8.571(3)
_cell_length_c                   7.867(3)
_cell_angle_alpha                90
_cell_angle_beta                 99.590(8)
_cell_angle_gamma                90
_cell_volume                     384.687
_exptl_crystal_colour            colorless
_exptl_crystal_description       block
_cell_formula_units_Z            2
loop_
_atom_site_label
_atom_site_type_symbol
_atom_site_fract_x
_atom_site_fract_y
_atom_site_fract_z
C1 C 0.1254(3) 0.7500 0.0991(2)
H1 H 0.2244 0.6569 0.1027
H2 H 0.0099 0.7500 -0.0073
C2 C -0.1498(2) 0.60780(16) 0.24697(18)
H3 H -0.0520 0.5142 0.2499
H4 H -0.2662 0.6080 0.1411
H5 H -0.2302 0.6081 0.3472
C3 C 0.1788(3) 0.7500 0.4123(2)
H6 H 0.2828 0.8402 0.4120
H7 H 0.0988 0.7500 0.5126
N1 N 0.0012(2) 0.7500 0.25116(19)
H1C H 0.2244 0.8431 0.1027
C2C C -0.1498(2) 0.89220(16) 0.24697(18)
H3C H -0.0520 0.9858 0.2499
H4C H -0.2662 0.8920 0.1411
H5C H -0.2302 0.8919 0.3472
H6C H 0.2828 0.6598 0.4120
N2 N -0.5016(6) 0.6739(4) -0.1753(4)
N3 N -0.2741(10) 0.7500 -0.3423(8)
N4 N -0.3617(7) 0.6255(7) -0.2778(5)
N2C N -0.5016(6) 0.8261(4) -0.1753(4)
N4C N -0.3617(7) 0.8745(7) -0.2778(5)
H8? H 0.2233 0.6564 0.1021
N5? N -0.2883(10) 0.6742(6) -0.3337(8)
N6? N -0.4242(12) 0.6285(9) -0.2271(9)
N7? N -0.5063(15) 0.7500 -0.1603(12)
H9? H 0.2713 0.6538 0.4182
loop_
_geom_bond_atom_site_label_1
_geom_bond_atom_site_label_2
_geom_bond_site_symmetry_1
_geom_bond_site_symmetry_2
C1 H1 1_555 1_555
H2 C1 1_555 1_555
C2 H3 1_555 1_555
H4 C2 1_555 1_555
H5 C2 1_555 1_555
C3 H6 1_555 1_555
H7 C3 1_555 1_555
N1 C1 1_555 1_555
N2 N4 1_555 1_555
N3 N4 1_555 1_555
H1C C1 1_555 1_555
C2C N1 1_555 1_555
H3C C2C 1_555 1_555
H4C C2C 1_555 1_555
H5C C2C 1_555 1_555
H6C C3 1_555 1_555
N2C N2 1_555 1_555
N4C N3 1_555 1_555
C2 N1 1_555 1_555
C3 N1 1_555 1_555
N2C N4C 1_555 1_555

#END
