
#######################################################################
#
#                 Cambridge Crystallographic Data Centre
#                                CCDC 
#
#######################################################################
#
# If this CIF has been generated from an entry in the Cambridge 
# Structural Database, then it will include bibliographic, chemical, 
# crystal, experimental, refinement or atomic coordinate data resulting 
# from the CCDC's data processing and validation procedures.
#
#######################################################################

data_HIPVOU
_chemical_formula_moiety         'H4 N1 O1 1+,N5 1-'
_chemical_name_systematic        'hydroxyammonium pentazolide'
_symmetry_cell_setting           monoclinic
_symmetry_space_group_name_H-M   'P 21/c'
_symmetry_Int_Tables_number      14
_space_group_name_Hall           '-P 2ybc'
loop_
_symmetry_equiv_pos_site_id
_symmetry_equiv_pos_as_xyz
1 x,y,z
2 -x,1/2+y,1/2-z
3 -x,-y,-z
4 x,1/2-y,1/2+z
_cell_length_a                   3.7489(3)
_cell_length_b                   14.7612(14)
_cell_length_c                   7.6841(7)
_cell_angle_alpha                90
_cell_angle_beta                 96.265(2)
_cell_angle_gamma                90
_cell_volume                     422.685
_exptl_crystal_colour            colorless
_exptl_crystal_description       block
_cell_formula_units_Z            4
loop_
_atom_site_label
_atom_site_type_symbol
_atom_site_fract_x
_atom_site_fract_y
_atom_site_fract_z
N1 N 0.3351(2) 0.36706(6) 0.69562(10)
N2 N 0.5179(2) 0.43160(5) 0.78402(10)
N3 N 0.6403(2) 0.39795(5) 0.93851(11)
N4 N 0.5327(2) 0.31294(6) 0.94532(10)
N5 N 0.3444(2) 0.29400(5) 0.79528(11)
N6 N 0.1321(2) 0.39261(5) 0.25535(10)
H1 H 0.3094 0.4348 0.2725
H2 H 0.0019 0.4023 0.1500
H3 H 0.2311 0.3363 0.2567
O1 O -0.09488(19) 0.39940(5) 0.39021(9)
H4 H 0.0229 0.3877 0.4869
loop_
_geom_bond_atom_site_label_1
_geom_bond_atom_site_label_2
_geom_bond_site_symmetry_1
_geom_bond_site_symmetry_2
N1 N2 1_555 1_555
N2 N3 1_555 1_555
N3 N4 1_555 1_555
N4 N5 1_555 1_555
N5 N1 1_555 1_555
N6 H1 1_555 1_555
H2 N6 1_555 1_555
H3 N6 1_555 1_555
O1 N6 1_555 1_555
H4 O1 1_555 1_555

#END
