
#######################################################################
#
#                 Cambridge Crystallographic Data Centre
#                                CCDC 
#
#######################################################################
#
# If this CIF has been generated from an entry in the Cambridge 
# Structural Database, then it will include bibliographic, chemical, 
# crystal, experimental, refinement or atomic coordinate data resulting 
# from the CCDC's data processing and validation procedures.
#
#######################################################################

data_HIPVIM
_chemical_formula_moiety         'C12 H24 K1 O6 1+,Br3 1-'
_chemical_name_systematic        '18-Crown-6-potassium tribromide'
_symmetry_cell_setting           monoclinic
_symmetry_space_group_name_H-M   'P 21/n'
_symmetry_Int_Tables_number      14
_space_group_name_Hall           '-P 2yn'
loop_
_symmetry_equiv_pos_site_id
_symmetry_equiv_pos_as_xyz
1 x,y,z
2 1/2-x,1/2+y,1/2-z
3 -x,-y,-z
4 1/2+x,1/2-y,1/2+z
_cell_length_a                   8.955(5)
_cell_length_b                   8.054(5)
_cell_length_c                   14.082(8)
_cell_angle_alpha                90
_cell_angle_beta                 104.805(10)
_cell_angle_gamma                90
_cell_volume                     981.926
_exptl_crystal_colour            orange
_exptl_crystal_description       block
_chemical_melting_point          '195-197 deg.C'
_cell_formula_units_Z            2
_exptl_crystal_recrystallization_method acetonitrile
loop_
_atom_site_label
_atom_site_type_symbol
_atom_site_fract_x
_atom_site_fract_y
_atom_site_fract_z
Br1 Br 0.22011(5) 0.16699(6) -0.03540(3)
Br2 Br 0.0000 0.0000 0.0000
Br1B Br -0.22011(5) -0.16699(6) 0.03540(3)
K1 K 0.0000 0.5000 0.0000
O1 O 0.0389(4) 0.5565(4) -0.1906(2)
O2 O 0.2863(4) 0.6035(4) -0.0230(2)
O3 O 0.2218(4) 0.6151(4) 0.1617(2)
C1 C 0.1971(6) 0.5662(6) -0.1937(3)
H1 H 0.2039 0.6088 -0.2584
H2 H 0.2445 0.4543 -0.1843
C2 C 0.2805(6) 0.6789(6) -0.1147(4)
H3 H 0.3864 0.6991 -0.1212
H4 H 0.2261 0.7868 -0.1196
C3 C 0.3790(5) 0.6939(6) 0.0580(4)
H5 H 0.3391 0.8085 0.0580
H6 H 0.4867 0.6999 0.0523
C4 C 0.3744(5) 0.6078(7) 0.1515(4)
H7 H 0.4070 0.4907 0.1496
H8 H 0.4458 0.6630 0.2081
C5 C 0.2107(6) 0.5577(6) 0.2554(3)
H9 H 0.2733 0.6294 0.3078
H10 H 0.2508 0.4429 0.2665
C6 C -0.0468(6) 0.4380(6) -0.2588(3)
H11 H -0.0388 0.4646 -0.3259
H12 H -0.0040 0.3255 -0.2416
O1B O -0.0389(4) 0.4435(4) 0.1906(2)
O2B O -0.2863(4) 0.3965(4) 0.0230(2)
O3B O -0.2218(4) 0.3849(4) -0.1617(2)
C1B C -0.1971(6) 0.4338(6) 0.1937(3)
H1B H -0.2039 0.3912 0.2584
H2B H -0.2445 0.5457 0.1843
C2B C -0.2805(6) 0.3211(6) 0.1147(4)
H3B H -0.3864 0.3009 0.1212
H4B H -0.2261 0.2132 0.1196
C3B C -0.3790(5) 0.3061(6) -0.0580(4)
H5B H -0.3391 0.1915 -0.0580
H6B H -0.4867 0.3001 -0.0523
C4B C -0.3744(5) 0.3922(7) -0.1515(4)
H7B H -0.4070 0.5093 -0.1496
H8B H -0.4458 0.3370 -0.2081
C5B C -0.2107(6) 0.4423(6) -0.2554(3)
H9B H -0.2733 0.3706 -0.3078
H10B H -0.2508 0.5571 -0.2665
C6B C 0.0468(6) 0.5620(6) 0.2588(3)
H11B H 0.0388 0.5354 0.3259
H12B H 0.0040 0.6745 0.2416
loop_
_geom_bond_atom_site_label_1
_geom_bond_atom_site_label_2
_geom_bond_site_symmetry_1
_geom_bond_site_symmetry_2
Br1 Br2 1_555 1_555
Br2 Br1B 1_555 1_555
K1 O1 1_555 1_555
O1 C1 1_555 1_555
O2 K1 1_555 1_555
O3 K1 1_555 1_555
C1 H1 1_555 1_555
H2 C1 1_555 1_555
C2 O2 1_555 1_555
H3 C2 1_555 1_555
H4 C2 1_555 1_555
C3 O2 1_555 1_555
H5 C3 1_555 1_555
H6 C3 1_555 1_555
C4 O3 1_555 1_555
H7 C4 1_555 1_555
H8 C4 1_555 1_555
C5 O3 1_555 1_555
H9 C5 1_555 1_555
H10 C5 1_555 1_555
C6 O1 1_555 1_555
H11 C6 1_555 1_555
H12 C6 1_555 1_555
O1B K1 1_555 1_555
O2B K1 1_555 1_555
O3B K1 1_555 1_555
C1B O1B 1_555 1_555
H1B C1B 1_555 1_555
H2B C1B 1_555 1_555
C2B O2B 1_555 1_555
H3B C2B 1_555 1_555
H4B C2B 1_555 1_555
C3B O2B 1_555 1_555
H5B C3B 1_555 1_555
H6B C3B 1_555 1_555
C4B O3B 1_555 1_555
H7B C4B 1_555 1_555
H8B C4B 1_555 1_555
C5B C6 1_555 1_555
H9B C5B 1_555 1_555
H10B C5B 1_555 1_555
C6B C5 1_555 1_555
H11B C6B 1_555 1_555
H12B C6B 1_555 1_555
C1 C2 1_555 1_555
C3 C4 1_555 1_555
O1B C6B 1_555 1_555
O3B C5B 1_555 1_555
C1B C2B 1_555 1_555
C3B C4B 1_555 1_555

#END
