
#######################################################################
#
#                 Cambridge Crystallographic Data Centre
#                                CCDC 
#
#######################################################################
#
# If this CIF has been generated from an entry in the Cambridge 
# Structural Database, then it will include bibliographic, chemical, 
# crystal, experimental, refinement or atomic coordinate data resulting 
# from the CCDC's data processing and validation procedures.
#
#######################################################################

data_HIQNED
_chemical_name_common            diazabacteriochlorin
_chemical_formula_moiety         'C36 H36 N6'
_chemical_name_systematic        
7,17-bis(2,4,6-trimethylphenyl)-2,12,21,22,23,24-hexaazapentacyclo[16.2.1.1^3,6^.1^8,11^.1^13,16^]tetracosa-1(21),2,4,6,8(23),11,13,15,17-nonaene
_symmetry_cell_setting           monoclinic
_symmetry_space_group_name_H-M   'P 21/c'
_symmetry_Int_Tables_number      14
_space_group_name_Hall           '-P 2ybc'
loop_
_symmetry_equiv_pos_site_id
_symmetry_equiv_pos_as_xyz
1 x,y,z
2 -x,1/2+y,1/2-z
3 -x,-y,-z
4 x,1/2-y,1/2+z
_cell_length_a                   13.0765(6)
_cell_length_b                   13.7569(6)
_cell_length_c                   8.1842(4)
_cell_angle_alpha                90
_cell_angle_beta                 101.4200(10)
_cell_angle_gamma                90
_cell_volume                     1443.13
_exptl_crystal_colour            'metallic green blue'
_exptl_crystal_description       prism
_cell_formula_units_Z            2
loop_
_atom_site_label
_atom_site_type_symbol
_atom_site_fract_x
_atom_site_fract_y
_atom_site_fract_z
C1 C 0.30183(10) 0.54354(10) 0.70606(16)
C2 C 0.30216(10) 0.45334(10) 0.62838(16)
C3 C 0.22179(11) 0.37618(10) 0.64005(19)
H1 H 0.2289 0.3521 0.7557
H2 H 0.1501 0.4012 0.6011
C4 C 0.24721(11) 0.29753(11) 0.52605(19)
H3 H 0.2573 0.2341 0.5842
H4 H 0.1912 0.2911 0.4257
C5 C 0.34707(10) 0.33251(10) 0.48096(17)
C6 C 0.48832(11) 0.29810(10) 0.35234(17)
C7 C 0.54644(11) 0.23472(11) 0.26757(18)
H5 H 0.5298 0.1689 0.2391
C8 C 0.63037(11) 0.28476(10) 0.23417(18)
H6 H 0.6813 0.2603 0.1766
C9 C 0.62765(10) 0.38056(10) 0.30150(16)
C10 C 0.22109(10) 0.56272(10) 0.80897(17)
C11 C 0.24365(11) 0.54181(10) 0.98034(17)
C12 C 0.17021(11) 0.56504(10) 1.07608(18)
H7 H 0.186 0.5522 1.1924
C13 C 0.07420(11) 0.60659(10) 1.00656(18)
C14 C 0.05283(11) 0.62394(10) 0.83620(18)
H8 H -0.0128 0.6509 0.7864
C15 C 0.12433(11) 0.60313(10) 0.73584(17)
C16 C 0.09875(12) 0.62423(12) 0.55141(18)
H9 H 0.0278 0.6504 0.5213
H10 H 0.1035 0.5641 0.4892
H11 H 0.1484 0.6719 0.5239
C17 C -0.00368(12) 0.63196(11) 1.11228(19)
H12 H -0.0671 0.6577 1.0413
H13 H 0.0262 0.6811 1.1947
H14 H -0.0209 0.5736 1.1699
C18 C 0.34629(11) 0.49565(12) 1.06009(19)
H15 H 0.3485 0.4865 1.1795
H16 H 0.4038 0.5381 1.0447
H17 H 0.3531 0.4325 1.0078
N1 N 0.39894(9) 0.27431(8) 0.39705(15)
N2 N 0.37285(8) 0.42371(8) 0.53773(14)
N3 N 0.54162(8) 0.38477(8) 0.37415(14)
H18 H 0.5233 0.4356 0.427
C1B C 0.69817(10) 0.45646(10) 0.29394(16)
C2B C 0.69784(10) 0.54666(10) 0.37162(16)
C3B C 0.77821(11) 0.62382(10) 0.35995(19)
H1B H 0.7711 0.6479 0.2443
H2B H 0.8499 0.5988 0.3989
C4B C 0.75279(11) 0.70247(11) 0.47395(19)
H3B H 0.7427 0.7659 0.4158
H4B H 0.8088 0.7089 0.5743
C5B C 0.65293(10) 0.66749(10) 0.51904(17)
C6B C 0.51168(11) 0.70190(10) 0.64766(17)
C7B C 0.45356(11) 0.76528(11) 0.73243(18)
H5B H 0.4702 0.8311 0.7609
C8B C 0.36963(11) 0.71524(10) 0.76583(18)
H6B H 0.3187 0.7397 0.8234
C9B C 0.37235(10) 0.61944(10) 0.69850(16)
C10B C 0.77891(10) 0.43728(10) 0.19103(17)
C11B C 0.75635(11) 0.45819(10) 0.01966(17)
C12B C 0.82979(11) 0.43496(10) -0.07608(18)
H7B H 0.814 0.4478 -0.1924
C13B C 0.92580(11) 0.39341(10) -0.00656(18)
C14B C 0.94717(11) 0.37606(10) 0.16380(18)
H8B H 1.0128 0.3491 0.2136
C15B C 0.87567(11) 0.39687(10) 0.26416(17)
C16B C 0.90125(12) 0.37577(12) 0.44859(18)
H9B H 0.9722 0.3496 0.4787
H10B H 0.8965 0.4359 0.5108
H11B H 0.8516 0.3281 0.4761
C17B C 1.00368(12) 0.36804(11) -0.11228(19)
H12B H 1.0671 0.3423 -0.0413
H13B H 0.9738 0.3189 -0.1947
H14B H 1.0209 0.4264 -0.1699
C18B C 0.65371(11) 0.50435(12) -0.06009(19)
H15B H 0.6515 0.5135 -0.1795
H16B H 0.5962 0.4619 -0.0447
H17B H 0.6469 0.5675 -0.0078
N1B N 0.60106(9) 0.72569(8) 0.60295(15)
N2B N 0.62715(8) 0.57629(8) 0.46227(14)
N3B N 0.45838(8) 0.61523(8) 0.62585(14)
H18B H 0.4767 0.5644 0.573
loop_
_geom_bond_atom_site_label_1
_geom_bond_atom_site_label_2
_geom_bond_site_symmetry_1
_geom_bond_site_symmetry_2
C1 C2 1_555 1_555
C2 C3 1_555 1_555
C3 H1 1_555 1_555
H2 C3 1_555 1_555
C4 C3 1_555 1_555
H3 C4 1_555 1_555
H4 C4 1_555 1_555
C5 C4 1_555 1_555
C6 C7 1_555 1_555
C7 H5 1_555 1_555
C8 C7 1_555 1_555
H6 C8 1_555 1_555
C9 C8 1_555 1_555
C10 C1 1_555 1_555
C11 C10 1_555 1_555
C12 C11 1_555 1_555
H7 C12 1_555 1_555
C13 C12 1_555 1_555
C14 C13 1_555 1_555
H8 C14 1_555 1_555
C15 C10 1_555 1_555
C16 C15 1_555 1_555
H9 C16 1_555 1_555
H10 C16 1_555 1_555
H11 C16 1_555 1_555
C17 C13 1_555 1_555
H12 C17 1_555 1_555
H13 C17 1_555 1_555
H14 C17 1_555 1_555
C18 C11 1_555 1_555
H15 C18 1_555 1_555
H16 C18 1_555 1_555
H17 C18 1_555 1_555
N1 C5 1_555 1_555
N2 C2 1_555 1_555
N3 C6 1_555 1_555
H18 N3 1_555 1_555
C1B C9 1_555 1_555
C2B C1B 1_555 1_555
C3B C2B 1_555 1_555
H1B C3B 1_555 1_555
H2B C3B 1_555 1_555
C4B C3B 1_555 1_555
H3B C4B 1_555 1_555
H4B C4B 1_555 1_555
C5B C4B 1_555 1_555
C6B C7B 1_555 1_555
C7B H5B 1_555 1_555
C8B C7B 1_555 1_555
H6B C8B 1_555 1_555
C9B C1 1_555 1_555
C10B C1B 1_555 1_555
C11B C10B 1_555 1_555
C12B C11B 1_555 1_555
H7B C12B 1_555 1_555
C13B C12B 1_555 1_555
C14B C13B 1_555 1_555
H8B C14B 1_555 1_555
C15B C10B 1_555 1_555
C16B C15B 1_555 1_555
H9B C16B 1_555 1_555
H10B C16B 1_555 1_555
H11B C16B 1_555 1_555
C17B C13B 1_555 1_555
H12B C17B 1_555 1_555
H13B C17B 1_555 1_555
H14B C17B 1_555 1_555
C18B C11B 1_555 1_555
H15B C18B 1_555 1_555
H16B C18B 1_555 1_555
H17B C18B 1_555 1_555
N1B C5B 1_555 1_555
N2B C2B 1_555 1_555
N3B C6B 1_555 1_555
H18B N3B 1_555 1_555
C5 N2 1_555 1_555
C6 N1 1_555 1_555
C9 N3 1_555 1_555
C14 C15 1_555 1_555
C5B N2B 1_555 1_555
C6B N1B 1_555 1_555
C8B C9B 1_555 1_555
C9B N3B 1_555 1_555
C14B C15B 1_555 1_555

#END
