
#######################################################################
#
#                 Cambridge Crystallographic Data Centre
#                                CCDC 
#
#######################################################################
#
# If this CIF has been generated from an entry in the Cambridge 
# Structural Database, then it will include bibliographic, chemical, 
# crystal, experimental, refinement or atomic coordinate data resulting 
# from the CCDC's data processing and validation procedures.
#
#######################################################################

data_HIQQAB
_chemical_name_common            Febuxostat
_chemical_formula_moiety         'C16 H16 N2 O3 S1'
_chemical_name_systematic        
'2-(3-Cyano-4-isobutoxyphenyl)-4-methyl-1,3-thiazole-5-carboxylic acid'
_chemical_properties_biological  'Treatment for gout and hyperuricemia.'
_symmetry_cell_setting           monoclinic
_symmetry_space_group_name_H-M   'P 21/c'
_symmetry_Int_Tables_number      14
_space_group_name_Hall           '-P 2ybc'
loop_
_symmetry_equiv_pos_site_id
_symmetry_equiv_pos_as_xyz
1 x,y,z
2 -x,1/2+y,1/2-z
3 -x,-y,-z
4 x,1/2-y,1/2+z
_cell_length_a                   4.6756(4)
_cell_length_b                   17.6317(15)
_cell_length_c                   19.4992(15)
_cell_angle_alpha                90
_cell_angle_beta                 94.523(8)
_cell_angle_gamma                90
_cell_volume                     1602.48
_exptl_crystal_colour            colorless
_exptl_crystal_description       block
_chemical_melting_point          '473 K'
_cell_formula_units_Z            4
_exptl_crystal_recrystallization_method acetonitrile
loop_
_atom_site_label
_atom_site_type_symbol
_atom_site_fract_x
_atom_site_fract_y
_atom_site_fract_z
S1 S 0.07168(13) 0.38981(3) 0.48760(3)
O1 O -0.3680(4) 0.38392(10) 0.36948(9)
O2 O -0.4756(4) 0.26168(11) 0.38087(10)
C1 C 0.4648(5) 0.36208(13) 0.60024(10)
O3 O 1.0860(3) 0.43163(9) 0.75017(8)
C2 C 0.6137(5) 0.31124(13) 0.64360(11)
H1 H 0.5739 0.2597 0.6397
N1 N 1.1064(5) 0.24125(14) 0.77116(12)
N2 N 0.1699(4) 0.26163(11) 0.54605(9)
C3 C 0.2466(5) 0.33310(14) 0.54887(10)
C4 C 0.7357(5) 0.46440(14) 0.65630(12)
H2 H 0.7763 0.5160 0.6597
C5 C 0.8827(5) 0.41375(13) 0.69991(11)
C6 C 0.8222(5) 0.33649(13) 0.69295(11)
C7 C 1.1517(5) 0.51011(13) 0.76266(12)
H3 H 0.9793 0.5375 0.7722
H4 H 1.2278 0.5325 0.7225
C8 C 0.9784(5) 0.28334(15) 0.73668(13)
C9 C 0.5292(5) 0.43872(13) 0.60781(11)
H5 H 0.4297 0.4736 0.5792
C10 C -0.0378(5) 0.24927(14) 0.49366(11)
C11 C -0.3291(5) 0.32383(16) 0.39805(11)
C12 C -0.1179(5) 0.31220(13) 0.45660(11)
C13 C 1.3692(5) 0.51504(15) 0.82316(13)
H6 H 1.5423 0.4881 0.8117
C14 C -0.1529(6) 0.17050(15) 0.48435(14)
H7 H -0.3435 0.1684 0.4993
H8 H -0.0315 0.1359 0.5112
H9 H -0.1575 0.1567 0.4367
C15 C 1.4458(7) 0.59854(16) 0.83479(16)
H10 H 1.5178 0.6191 0.7939
H11 H 1.5900 0.6029 0.8724
H12 H 1.2776 0.6261 0.8453
C16 C 1.2641(7) 0.47924(19) 0.88652(14)
H13 H 1.0874 0.5028 0.8969
H14 H 1.4051 0.4861 0.9246
H15 H 1.2328 0.4260 0.8786
H16 H -0.581(6) 0.2688(17) 0.3461(15)
loop_
_geom_bond_atom_site_label_1
_geom_bond_atom_site_label_2
_geom_bond_site_symmetry_1
_geom_bond_site_symmetry_2
S1 C3 1_555 1_555
O1 C11 1_555 1_555
O2 C11 1_555 1_555
C1 C2 1_555 1_555
O3 C5 1_555 1_555
C2 H1 1_555 1_555
N1 C8 1_555 1_555
N2 C3 1_555 1_555
C3 C1 1_555 1_555
C4 H2 1_555 1_555
C5 C4 1_555 1_555
C6 C2 1_555 1_555
C7 O3 1_555 1_555
H3 C7 1_555 1_555
H4 C7 1_555 1_555
C8 C6 1_555 1_555
C9 C1 1_555 1_555
H5 C9 1_555 1_555
C10 N2 1_555 1_555
C11 C12 1_555 1_555
C12 S1 1_555 1_555
C13 C7 1_555 1_555
H6 C13 1_555 1_555
C14 C10 1_555 1_555
H7 C14 1_555 1_555
H8 C14 1_555 1_555
H9 C14 1_555 1_555
C15 C13 1_555 1_555
H10 C15 1_555 1_555
H11 C15 1_555 1_555
H12 C15 1_555 1_555
C16 C13 1_555 1_555
H13 C16 1_555 1_555
H14 C16 1_555 1_555
H15 C16 1_555 1_555
H16 O2 1_555 1_555
C4 C9 1_555 1_555
C5 C6 1_555 1_555
C10 C12 1_555 1_555

#END
