
#######################################################################
#
#                 Cambridge Crystallographic Data Centre
#                                CCDC 
#
#######################################################################
#
# If this CIF has been generated from an entry in the Cambridge 
# Structural Database, then it will include bibliographic, chemical, 
# crystal, experimental, refinement or atomic coordinate data resulting 
# from the CCDC's data processing and validation procedures.
#
#######################################################################

data_HIQREG
_chemical_name_common            
'(20S,22R)-19,27-Diacetyloxy-5beta,6beta-epoxy-1-oxowitha-2,24-dienolide ethyl acetate solvate'
_chemical_formula_moiety         'C32 H42 O8,C4 H8 O2'
_chemical_name_systematic        
'1,26-Dioxo-5,6:22,26-diepoxyergosta-2,24-diene-19,27-diyl diacetate ethyl acetate solvate'
_symmetry_cell_setting           monoclinic
_symmetry_space_group_name_H-M   'P 21'
_symmetry_Int_Tables_number      4
_space_group_name_Hall           'P 2yb'
loop_
_symmetry_equiv_pos_site_id
_symmetry_equiv_pos_as_xyz
1 x,y,z
2 -x,1/2+y,-z
_cell_length_a                   11.9047(4)
_cell_length_b                   12.2331(4)
_cell_length_c                   12.3943(4)
_cell_angle_alpha                90
_cell_angle_beta                 108.5560(10)
_cell_angle_gamma                90
_cell_volume                     1711.16
_exptl_crystal_colour            colorless
_exptl_crystal_description       Rectangular
_chemical_melting_point          '445-447 K'
_cell_formula_units_Z            2
loop_
_atom_site_label
_atom_site_type_symbol
_atom_site_fract_x
_atom_site_fract_y
_atom_site_fract_z
O1 O -0.06242(15) 0.53979(15) 0.37117(14)
O2 O 0.23947(13) 0.38094(17) -0.32823(13)
O3 O 0.31423(16) 0.37740(19) -0.46949(15)
O4 O -0.25170(16) 0.21530(18) 0.18514(14)
O5 O 0.55307(16) 0.24365(19) -0.39635(17)
O6 O 0.7285(3) 0.2937(3) -0.4046(3)
O7 O -0.30830(15) 0.44329(19) 0.26686(14)
O8 O -0.4619(3) 0.4872(6) 0.1225(3)
C1 C -0.1698(2) 0.2557(2) 0.2602(2)
C2 C -0.1070(2) 0.1944(3) 0.3639(2)
H1 H -0.111(3) 0.117(4) 0.357(3)
C3 C -0.0703(2) 0.2471(3) 0.4626(2)
H2 H -0.037(3) 0.205(4) 0.537(3)
C4 C -0.0815(2) 0.3674(2) 0.46941(19)
H3 H -0.157(3) 0.386(3) 0.474(2)
H4 H -0.028(3) 0.399(3) 0.537(3)
C5 C -0.0621(2) 0.4220(2) 0.36743(19)
C6 C 0.0488(2) 0.4832(2) 0.38621(19)
H5 H 0.102(2) 0.483(3) 0.465(2)
C7 C 0.1064(2) 0.4989(2) 0.29667(19)
H6 H 0.172(2) 0.451(3) 0.314(2)
H7 H 0.138(2) 0.575(3) 0.301(2)
C8 C 0.02819(19) 0.4703(2) 0.17580(18)
H8 H -0.020(2) 0.535(2) 0.141(2)
C9 C -0.04397(19) 0.3653(2) 0.17407(18)
H9 H 0.012(3) 0.310(3) 0.208(2)
C10 C -0.12840(19) 0.3734(2) 0.24899(18)
C11 C -0.1090(2) 0.3302(2) 0.05039(19)
H10 H -0.174(2) 0.387(3) 0.012(2)
H11 H -0.149(3) 0.267(3) 0.051(3)
C12 C -0.0241(2) 0.3137(2) -0.01934(19)
H12 H -0.074(2) 0.287(2) -0.097(2)
H13 H 0.034(2) 0.253(3) 0.020(2)
C13 C 0.04654(18) 0.4171(2) -0.02222(18)
C14 C 0.10826(18) 0.4511(2) 0.10310(18)
H14 H 0.152(2) 0.384(3) 0.137(2)
C15 C 0.1945(2) 0.5414(2) 0.09519(19)
H15 H 0.152(2) 0.611(3) 0.083(2)
H16 H 0.258(2) 0.552(3) 0.167(2)
C16 C 0.2353(2) 0.5036(2) -0.00603(19)
H17 H 0.321(2) 0.484(2) 0.024(2)
H18 H 0.225(3) 0.574(3) -0.065(3)
C17 C 0.15978(19) 0.4026(2) -0.05851(18)
H19 H 0.203(2) 0.337(3) -0.015(2)
C18 C -0.0339(2) 0.5065(2) -0.09289(19)
H20 H -0.075(2) 0.477(3) -0.167(2)
H21 H -0.089(3) 0.533(3) -0.064(3)
H22 H 0.013(2) 0.571(3) -0.100(2)
C19 C 0.14301(19) 0.3854(2) -0.18576(18)
H23 H 0.098(2) 0.446(2) -0.228(2)
C20 C 0.0755(2) 0.2796(2) -0.2320(2)
H24 H 0.094(2) 0.224(3) -0.177(3)
H25 H -0.012(3) 0.300(3) -0.257(2)
H26 H 0.092(2) 0.257(3) -0.295(2)
C21 C 0.26410(19) 0.3865(2) -0.20420(18)
H27 H 0.304(2) 0.457(3) -0.183(2)
C22 C 0.3476(2) 0.2954(3) -0.14742(19)
H28 H 0.313(3) 0.225(3) -0.168(3)
H29 H 0.371(2) 0.309(3) -0.065(3)
C23 C 0.4564(2) 0.2961(2) -0.1842(2)
C24 C 0.4485(2) 0.3346(2) -0.2868(2)
C25 C 0.3316(2) 0.3665(2) -0.3681(2)
C26 C 0.5501(2) 0.3433(3) -0.3333(3)
H30 H 0.537(2) 0.413(3) -0.393(2)
H31 H 0.633(3) 0.348(3) -0.270(3)
C27 C 0.6464(2) 0.2323(3) -0.4322(2)
C28 C 0.6370(3) 0.1335(3) -0.5046(3)
H32 H 0.559(4) 0.123(4) -0.564(4)
H33 H 0.653(4) 0.061(5) -0.460(4)
H34 H 0.694(3) 0.133(3) -0.542(3)
C29 C -0.2371(2) 0.4426(3) 0.1909(2)
H35 H -0.213(2) 0.524(3) 0.180(2)
H36 H -0.282(3) 0.415(3) 0.120(3)
C30 C -0.4216(3) 0.4649(4) 0.2197(3)
C31 C -0.4872(3) 0.4623(4) 0.3052(3)
H37 H -0.4386 0.4253 0.3745
H38 H -0.5619 0.4225 0.2732
H39 H -0.5039 0.5372 0.3237
C32 C 0.5670(3) 0.2498(4) -0.1011(3)
H40 H 0.634(4) 0.258(4) -0.127(3)
H41 H 0.590(3) 0.297(4) -0.028(3)
H42 H 0.549(3) 0.172(3) -0.088(3)
O9 O 0.3569(2) 0.1196(2) 0.2773(2)
O10 O 0.3407(5) 0.2552(4) 0.1567(4)
C33 C 0.4623(4) 0.1057(4) 0.1478(4)
H43 H 0.5255 0.1565 0.1467
H44 H 0.4238 0.0775 0.0708
H45 H 0.4961 0.0447 0.1992
C34 C 0.3749(4) 0.1627(3) 0.1875(3)
C35 C 0.2725(3) 0.1716(3) 0.3219(3)
H46 H 0.1951 0.1785 0.2612
H47 H 0.3005 0.2459 0.3495
C36 C 0.2593(3) 0.1054(4) 0.4160(4)
H48 H 0.1994 0.1385 0.4447
H49 H 0.3352 0.1021 0.4775
H50 H 0.2344 0.0312 0.3888
loop_
_geom_bond_atom_site_label_1
_geom_bond_atom_site_label_2
_geom_bond_site_symmetry_1
_geom_bond_site_symmetry_2
O1 C5 1_555 1_555
O2 C21 1_555 1_555
O3 C25 1_555 1_555
O4 C1 1_555 1_555
O5 C26 1_555 1_555
O6 C27 1_555 1_555
O7 C29 1_555 1_555
O8 C30 1_555 1_555
C1 C2 1_555 1_555
C2 H1 1_555 1_555
C3 C2 1_555 1_555
H2 C3 1_555 1_555
C4 C3 1_555 1_555
H3 C4 1_555 1_555
H4 C4 1_555 1_555
C5 C4 1_555 1_555
C6 O1 1_555 1_555
H5 C6 1_555 1_555
C7 C6 1_555 1_555
H6 C7 1_555 1_555
H7 C7 1_555 1_555
C8 C7 1_555 1_555
H8 C8 1_555 1_555
C9 C8 1_555 1_555
H9 C9 1_555 1_555
C10 C1 1_555 1_555
C11 C9 1_555 1_555
H10 C11 1_555 1_555
H11 C11 1_555 1_555
C12 C11 1_555 1_555
H12 C12 1_555 1_555
H13 C12 1_555 1_555
C13 C12 1_555 1_555
C14 C8 1_555 1_555
H14 C14 1_555 1_555
C15 C14 1_555 1_555
H15 C15 1_555 1_555
H16 C15 1_555 1_555
C16 C15 1_555 1_555
H17 C16 1_555 1_555
H18 C16 1_555 1_555
C17 C13 1_555 1_555
H19 C17 1_555 1_555
C18 C13 1_555 1_555
H20 C18 1_555 1_555
H21 C18 1_555 1_555
H22 C18 1_555 1_555
C19 C17 1_555 1_555
H23 C19 1_555 1_555
C20 C19 1_555 1_555
H24 C20 1_555 1_555
H25 C20 1_555 1_555
H26 C20 1_555 1_555
C21 C19 1_555 1_555
H27 C21 1_555 1_555
C22 C21 1_555 1_555
H28 C22 1_555 1_555
H29 C22 1_555 1_555
C23 C22 1_555 1_555
C24 C23 1_555 1_555
C25 O2 1_555 1_555
C26 C24 1_555 1_555
H30 C26 1_555 1_555
H31 C26 1_555 1_555
C27 O5 1_555 1_555
C28 C27 1_555 1_555
H32 C28 1_555 1_555
H33 C28 1_555 1_555
H34 C28 1_555 1_555
C29 C10 1_555 1_555
H35 C29 1_555 1_555
H36 C29 1_555 1_555
C30 O7 1_555 1_555
C31 C30 1_555 1_555
H37 C31 1_555 1_555
H38 C31 1_555 1_555
H39 C31 1_555 1_555
C32 C23 1_555 1_555
H40 C32 1_555 1_555
H41 C32 1_555 1_555
H42 C32 1_555 1_555
O9 C34 1_555 1_555
O10 C34 1_555 1_555
C33 H43 1_555 1_555
H44 C33 1_555 1_555
H45 C33 1_555 1_555
C34 C33 1_555 1_555
C35 O9 1_555 1_555
H46 C35 1_555 1_555
H47 C35 1_555 1_555
C36 C35 1_555 1_555
H48 C36 1_555 1_555
H49 C36 1_555 1_555
H50 C36 1_555 1_555
C5 C6 1_555 1_555
C5 C10 1_555 1_555
C9 C10 1_555 1_555
C13 C14 1_555 1_555
C16 C17 1_555 1_555
C24 C25 1_555 1_555

#END
