
#######################################################################
#
#                 Cambridge Crystallographic Data Centre
#                                CCDC 
#
#######################################################################
#
# If this CIF has been generated from an entry in the Cambridge 
# Structural Database, then it will include bibliographic, chemical, 
# crystal, experimental, refinement or atomic coordinate data resulting 
# from the CCDC's data processing and validation procedures.
#
#######################################################################

data_HIQROO
_chemical_formula_moiety         'C6 H16 N4 O2 2+,2(Cl1 O4 1-)'
_chemical_name_systematic        "N,N'-bis(2-Ammonioethyl)oxamide diperchlorate"
_symmetry_cell_setting           monoclinic
_symmetry_space_group_name_H-M   'P 21/n'
_symmetry_Int_Tables_number      14
_space_group_name_Hall           '-P 2yn'
loop_
_symmetry_equiv_pos_site_id
_symmetry_equiv_pos_as_xyz
1 x,y,z
2 1/2-x,1/2+y,1/2-z
3 -x,-y,-z
4 1/2+x,1/2-y,1/2+z
_cell_length_a                   8.517(2)
_cell_length_b                   7.731(2)
_cell_length_c                   10.830(2)
_cell_angle_alpha                90
_cell_angle_beta                 90.38(3)
_cell_angle_gamma                90
_cell_volume                     713.085
_exptl_crystal_colour            yellow
_exptl_crystal_description       prismatic
_cell_formula_units_Z            2
loop_
_atom_site_label
_atom_site_type_symbol
_atom_site_fract_x
_atom_site_fract_y
_atom_site_fract_z
N1 N 1.5561(4) 0.1902(5) 0.8475(3)
N2 N 1.5337(4) 0.3026(4) 0.5808(3)
O1 O 1.3053(3) 0.4315(3) 0.5225(3)
C1 C 1.4500(4) 0.4273(4) 0.5278(3)
C2 C 1.4623(5) 0.1489(5) 0.6325(4)
C3 C 1.4170(4) 0.1668(5) 0.7658(4)
H1 H 1.3711(49) 0.1270(50) 0.5789(36)
H2 H 1.5323(43) 0.0501(53) 0.6230(33)
H3 H 1.3589(48) 0.2645(58) 0.7779(35)
H4 H 1.3666(47) 0.0724(52) 0.8012(36)
H5 H 1.6260(51) 0.3105(53) 0.5798(37)
H6 H 1.6217(49) 0.1126(54) 0.8351(38)
H7 H 1.5307(47) 0.2055(53) 0.9208(41)
H8 H 1.6048(50) 0.2845(58) 0.8280(37)
C1B C 1.5500(4) 0.5727(4) 0.4722(3)
N2B N 1.4663(4) 0.6974(4) 0.4192(3)
C2B C 1.5377(5) 0.8511(5) 0.3675(4)
C3B C 1.5830(4) 0.8332(5) 0.2342(4)
N1B N 1.4439(4) 0.8098(5) 0.1525(3)
H6B H 1.3783(49) 0.8874(54) 0.1649(38)
H7B H 1.4693(47) 0.7945(53) 0.0792(41)
H8B H 1.3952(50) 0.7155(58) 0.1720(37)
H3B H 1.6411(48) 0.7355(58) 0.2221(35)
H4B H 1.6334(47) 0.9276(52) 0.1988(36)
H1B H 1.6289(49) 0.8730(50) 0.4211(36)
H2B H 1.4677(43) 0.9499(53) 0.3770(33)
H5B H 1.3740(51) 0.6895(53) 0.4202(37)
O1B O 1.6947(3) 0.5685(3) 0.4775(3)
Cl1 Cl 0.95264(10) 0.16596(11) 0.67513(8)
O2 O 0.9986(6) 0.2437(5) 0.7882(3)
O3 O 1.0796(3) 0.0718(4) 0.6250(4)
O4 O 0.9055(4) 0.2994(4) 0.5900(3)
O5 O 0.8226(3) 0.0492(4) 0.6943(3)
loop_
_geom_bond_atom_site_label_1
_geom_bond_atom_site_label_2
_geom_bond_site_symmetry_1
_geom_bond_site_symmetry_2
N1 C3 1_555 1_555
N2 C1 1_555 1_555
O1 C1 1_555 1_555
C1 C1B 1_555 1_555
C2 N2 1_555 1_555
C3 C2 1_555 1_555
Cl1 O2 1_555 1_555
O3 Cl1 1_555 1_555
O4 Cl1 1_555 1_555
O5 Cl1 1_555 1_555
H1 C2 1_555 1_555
H2 C2 1_555 1_555
H3 C3 1_555 1_555
H4 C3 1_555 1_555
H5 N2 1_555 1_555
H6 N1 1_555 1_555
H7 N1 1_555 1_555
H8 N1 1_555 1_555
C1B N2B 1_555 1_555
N2B C2B 1_555 1_555
C2B C3B 1_555 1_555
C3B N1B 1_555 1_555
N1B H6B 1_555 1_555
H7B N1B 1_555 1_555
H8B N1B 1_555 1_555
H3B C3B 1_555 1_555
H4B C3B 1_555 1_555
H1B C2B 1_555 1_555
H2B C2B 1_555 1_555
H5B N2B 1_555 1_555
O1B C1B 1_555 1_555

#END
