
#######################################################################
#
#                 Cambridge Crystallographic Data Centre
#                                CCDC 
#
#######################################################################
#
# If this CIF has been generated from an entry in the Cambridge 
# Structural Database, then it will include bibliographic, chemical, 
# crystal, experimental, refinement or atomic coordinate data resulting 
# from the CCDC's data processing and validation procedures.
#
#######################################################################

data_HIQSAE
_chemical_formula_moiety         'C42 H38 P2'
_chemical_name_systematic        
(5,6,7,8,9,10-hexahydrodibenzo[a,c][10]annulene-1,14-diyl)bis(diphenylphosphine)
_symmetry_cell_setting           monoclinic
_symmetry_space_group_name_H-M   'C 2'
_symmetry_Int_Tables_number      5
_space_group_name_Hall           'C 2y'
loop_
_symmetry_equiv_pos_site_id
_symmetry_equiv_pos_as_xyz
1 x,y,z
2 -x,y,-z
3 1/2+x,1/2+y,z
4 1/2-x,1/2+y,-z
_cell_length_a                   20.3682(2)
_cell_length_b                   10.54400(10)
_cell_length_c                   15.6750(2)
_cell_angle_alpha                90
_cell_angle_beta                 99.9320(10)
_cell_angle_gamma                90
_cell_volume                     3315.95
_exptl_crystal_colour            colorless
_exptl_crystal_description       block
_cell_formula_units_Z            4
loop_
_atom_site_label
_atom_site_type_symbol
_atom_site_fract_x
_atom_site_fract_y
_atom_site_fract_z
P1 P 0.63471(2) 0.27871(5) 0.20267(3)
P2 P 0.74072(2) 0.54950(5) 0.29016(3)
C1 C 0.55207(10) 0.2129(2) 0.20855(13)
C2 C 0.60567(10) 0.4305(2) 0.05151(13)
H1 H 0.6114 0.3571 0.0207
C3 C 0.74496(9) 0.7238(2) 0.29208(13)
C4 C 0.51853(10) 0.8485(2) 0.16235(14)
H2 H 0.5202 0.9285 0.1932
H3 H 0.5134 0.8674 0.1010
C5 C 0.49728(11) 0.2223(2) 0.14194(13)
H4 H 0.5022 0.2593 0.0895
C6 C 0.80738(10) 0.5047(2) 0.37972(13)
C7 C 0.43113(10) 0.6088(2) 0.28719(14)
H5 H 0.3873 0.6001 0.2520
H6 H 0.4262 0.5991 0.3473
C8 C 0.61084(9) 0.42561(19) 0.14113(13)
C9 C 0.60346(10) 0.52388(19) 0.28404(12)
C10 C 0.58462(9) 0.7781(2) 0.19050(12)
H7 H 0.6208 0.8327 0.1804
H8 H 0.5904 0.7620 0.2523
C11 C 0.59202(10) 0.5445(2) 0.00799(12)
H9 H 0.5877 0.5472 -0.0520
C12 C 0.54513(10) 0.5024(2) 0.31819(13)
C13 C 0.54389(10) 0.1580(2) 0.28661(13)
H10 H 0.5801 0.1520 0.3316
C14 C 0.66933(10) 0.4991(2) 0.42773(13)
H11 H 0.7104 0.4989 0.4644
C15 C 0.43555(10) 0.1766(2) 0.15346(14)
H12 H 0.3992 0.1831 0.1087
C16 C 0.66511(10) 0.1838(2) 0.11930(13)
C17 C 0.47587(10) 0.5016(2) 0.26371(13)
H13 H 0.4548 0.4208 0.2711
H14 H 0.4798 0.5095 0.2031
C18 C 0.58488(10) 0.6544(2) 0.05397(13)
H15 H 0.5767 0.7306 0.0242
C19 C 0.66598(10) 0.52341(19) 0.33939(13)
C20 C 0.45769(10) 0.7740(2) 0.17887(14)
H16 H 0.4552 0.6955 0.1462
H17 H 0.4180 0.8228 0.1570
C21 C 0.55057(11) 0.4774(2) 0.40662(14)
H18 H 0.5122 0.4617 0.4295
C22 C 0.60100(9) 0.5367(2) 0.18757(12)
C23 C 0.63445(11) 0.0772(2) 0.07896(14)
H19 H 0.5939 0.0501 0.0922
C24 C 0.61182(12) 0.4755(2) 0.46091(14)
H20 H 0.6143 0.4584 0.5196
C25 C 0.76787(10) 0.7841(2) 0.22370(14)
H21 H 0.7810 0.7361 0.1799
C26 C 0.45743(11) 0.7421(2) 0.27440(15)
H22 H 0.5025 0.7493 0.3064
H23 H 0.4300 0.8035 0.2981
C27 C 0.42764(10) 0.1213(2) 0.23147(14)
H24 H 0.3862 0.0907 0.2390
C28 C 0.72659(11) 0.2220(2) 0.09893(15)
H25 H 0.7486 0.2914 0.1271
C29 C 0.72364(12) 0.0512(3) -0.00270(15)
H26 H 0.7428 0.0076 -0.0438
C30 C 0.58970(9) 0.6533(2) 0.14415(13)
C31 C 0.90320(11) 0.5471(3) 0.49029(14)
H27 H 0.9326 0.6050 0.5210
C32 C 0.81622(12) 0.3746(3) 0.39706(15)
H28 H 0.7876 0.3161 0.3656
C33 C 0.85122(10) 0.5901(2) 0.42685(13)
H29 H 0.8460 0.6765 0.4161
C34 C 0.75469(12) 0.1576(3) 0.03762(17)
H30 H 0.7947 0.1858 0.0233
C35 C 0.48195(11) 0.1119(2) 0.29815(14)
H31 H 0.4770 0.0748 0.3505
C36 C 0.72472(10) 0.7973(2) 0.35652(14)
H32 H 0.7094 0.7582 0.4025
C37 C 0.75108(11) 0.9880(2) 0.28502(16)
H33 H 0.7535 1.0760 0.2831
C38 C 0.86750(13) 0.3329(3) 0.46095(16)
H34 H 0.8726 0.2466 0.4725
C39 C 0.91121(12) 0.4188(3) 0.50771(15)
H35 H 0.9456 0.3904 0.5504
C40 C 0.72731(11) 0.9288(2) 0.35251(15)
H36 H 0.7130 0.9773 0.3953
C41 C 0.77115(12) 0.9158(2) 0.22066(16)
H37 H 0.7869 0.9553 0.1751
C42 C 0.66384(12) 0.0100(2) 0.01868(15)
H38 H 0.6433 -0.0625 -0.0072
loop_
_geom_bond_atom_site_label_1
_geom_bond_atom_site_label_2
_geom_bond_site_symmetry_1
_geom_bond_site_symmetry_2
P1 C1 1_555 1_555
P2 C3 1_555 1_555
C1 C5 1_555 1_555
C2 H1 1_555 1_555
C3 C25 1_555 1_555
C4 H2 1_555 1_555
H3 C4 1_555 1_555
C5 H4 1_555 1_555
C6 P2 1_555 1_555
C7 H5 1_555 1_555
H6 C7 1_555 1_555
C8 P1 1_555 1_555
C9 C12 1_555 1_555
C10 C4 1_555 1_555
H7 C10 1_555 1_555
H8 C10 1_555 1_555
C11 C2 1_555 1_555
H9 C11 1_555 1_555
C12 C17 1_555 1_555
C13 C1 1_555 1_555
H10 C13 1_555 1_555
C14 H11 1_555 1_555
C15 C5 1_555 1_555
H12 C15 1_555 1_555
C16 P1 1_555 1_555
C17 C7 1_555 1_555
H13 C17 1_555 1_555
H14 C17 1_555 1_555
C18 C11 1_555 1_555
H15 C18 1_555 1_555
C19 P2 1_555 1_555
C20 C4 1_555 1_555
H16 C20 1_555 1_555
H17 C20 1_555 1_555
C21 C12 1_555 1_555
H18 C21 1_555 1_555
C22 C8 1_555 1_555
C23 C16 1_555 1_555
H19 C23 1_555 1_555
C24 C14 1_555 1_555
H20 C24 1_555 1_555
C25 H21 1_555 1_555
C26 C7 1_555 1_555
H22 C26 1_555 1_555
H23 C26 1_555 1_555
C27 C15 1_555 1_555
H24 C27 1_555 1_555
C28 C16 1_555 1_555
H25 C28 1_555 1_555
C29 H26 1_555 1_555
C30 C10 1_555 1_555
C31 H27 1_555 1_555
C32 C6 1_555 1_555
H28 C32 1_555 1_555
C33 C6 1_555 1_555
H29 C33 1_555 1_555
C34 C28 1_555 1_555
H30 C34 1_555 1_555
C35 C13 1_555 1_555
H31 C35 1_555 1_555
C36 C3 1_555 1_555
H32 C36 1_555 1_555
C37 H33 1_555 1_555
C38 C32 1_555 1_555
H34 C38 1_555 1_555
C39 C31 1_555 1_555
H35 C39 1_555 1_555
C40 C36 1_555 1_555
H36 C40 1_555 1_555
C41 C25 1_555 1_555
H37 C41 1_555 1_555
C42 C23 1_555 1_555
H38 C42 1_555 1_555
C2 C8 1_555 1_555
C9 C19 1_555 1_555
C9 C22 1_555 1_555
C14 C19 1_555 1_555
C18 C30 1_555 1_555
C20 C26 1_555 1_555
C21 C24 1_555 1_555
C22 C30 1_555 1_555
C27 C35 1_555 1_555
C29 C34 1_555 1_555
C29 C42 1_555 1_555
C31 C33 1_555 1_555
C37 C40 1_555 1_555
C37 C41 1_555 1_555
C38 C39 1_555 1_555

#END
