
#######################################################################
#
#                 Cambridge Crystallographic Data Centre
#                                CCDC 
#
#######################################################################
#
# If this CIF has been generated from an entry in the Cambridge 
# Structural Database, then it will include bibliographic, chemical, 
# crystal, experimental, refinement or atomic coordinate data resulting 
# from the CCDC's data processing and validation procedures.
#
#######################################################################

data_HIQTAF
_chemical_name_common            'Candesartan cilexetil acetone solvate'
_chemical_formula_moiety         'C33 H34 N6 O6,C3 H6 O1'
_chemical_name_systematic        
"1-{[(cyclohexyloxy)carbonyl]oxy}ethyl 2-ethoxy-1-{[2'-(1H-tetrazol-5-yl)[1,1'-biphenyl]-4-yl]methyl}-1H-benzimidazole-7-carboxylate acetone solvate"
_symmetry_cell_setting           monoclinic
_symmetry_space_group_name_H-M   'P 21/c'
_symmetry_Int_Tables_number      14
_space_group_name_Hall           '-P 2ybc'
loop_
_symmetry_equiv_pos_site_id
_symmetry_equiv_pos_as_xyz
1 x,y,z
2 -x,1/2+y,1/2-z
3 -x,-y,-z
4 x,1/2-y,1/2+z
_cell_length_a                   13.973(3)
_cell_length_b                   11.390(2)
_cell_length_c                   21.299(4)
_cell_angle_alpha                90
_cell_angle_beta                 90.061(11)
_cell_angle_gamma                90
_cell_volume                     3389.79
_exptl_crystal_colour            colorless
_exptl_crystal_description       prism
_cell_formula_units_Z            4
_exptl_crystal_recrystallization_method Water/acetone
loop_
_atom_site_label
_atom_site_type_symbol
_atom_site_fract_x
_atom_site_fract_y
_atom_site_fract_z
N1 N 0.43575(17) -0.7204(2) 0.18339(11)
H1 H 0.462668 -0.782941 0.166760
N2 N 0.34455(18) -0.6861(2) 0.17440(12)
N3 N 0.3336(2) -0.5902(2) 0.20694(12)
N4 N 0.41703(19) -0.5617(2) 0.23700(12)
C1 C 0.4789(2) -0.6435(2) 0.22196(13)
C2 C 0.5790(2) -0.6505(2) 0.24379(13)
C3 C 0.6049(2) -0.7423(3) 0.28428(14)
H2 H 0.559589 -0.801401 0.294526
C4 C 0.6962(2) -0.7471(3) 0.30935(15)
H3 H 0.713608 -0.809535 0.336671
C5 C 0.7615(2) -0.6614(3) 0.29461(14)
H4 H 0.823739 -0.663811 0.312596
C6 C 0.7375(2) -0.5715(3) 0.25370(14)
H5 H 0.783944 -0.513661 0.243457
C7 C 0.6459(2) -0.5643(2) 0.22721(13)
C8 C 0.6226(2) -0.4687(2) 0.18210(14)
C9 C 0.6558(2) -0.3549(2) 0.19284(14)
H6 H 0.691021 -0.338203 0.229949
C10 C 0.6380(2) -0.2659(3) 0.15004(14)
H7 H 0.661807 -0.189233 0.158073
C11 C 0.5858(2) -0.2870(2) 0.09542(14)
C12 C 0.5523(2) -0.3997(2) 0.08472(14)
H8 H 0.515930 -0.415702 0.047985
C13 C 0.5711(2) -0.4894(3) 0.12682(13)
H9 H 0.548601 -0.566394 0.118037
C14 C 0.5692(2) -0.1907(2) 0.04721(14)
H10 H 0.631637 -0.154659 0.036607
H11 H 0.543382 -0.226713 0.008439
N5 N 0.50357(17) -0.0977(2) 0.06774(11)
C15 C 0.5354(2) 0.0014(2) 0.09789(13)
N6 N 0.46809(18) 0.0771(2) 0.11156(11)
C16 C 0.4045(2) -0.0847(2) 0.06114(13)
C17 C 0.3300(2) -0.1540(2) 0.03749(14)
C18 C 0.2378(2) -0.1075(3) 0.04068(14)
H12 H 0.185827 -0.153177 0.025458
C19 C 0.2191(2) 0.0028(3) 0.06521(15)
H13 H 0.155611 0.032650 0.064813
C20 C 0.2928(2) 0.0699(3) 0.09039(15)
H14 H 0.280171 0.144609 0.108448
C21 C 0.3839(2) 0.0260(2) 0.08856(13)
O1 O 0.62762(14) 0.00929(16) 0.10917(9)
C22 C 0.6584(2) 0.1088(2) 0.14707(14)
H15 H 0.618388 0.115454 0.185235
H16 H 0.652692 0.182620 0.122796
C23 C 0.7604(2) 0.0870(3) 0.16451(16)
H17 H 0.764796 0.014348 0.189024
H18 H 0.784288 0.152792 0.189642
H19 H 0.798902 0.079371 0.126314
C24 C 0.3422(2) -0.2724(3) 0.01098(14)
O2 O 0.40782(16) -0.30611(17) -0.02146(10)
O3 O 0.26905(15) -0.34368(17) 0.02886(10)
C25 C 0.2617(2) -0.4557(3) -0.00189(15)
H20 H 0.310385 -0.463348 -0.036001
C26 C 0.2734(3) -0.5504(3) 0.04598(17)
H21 H 0.338550 -0.547811 0.063044
H22 H 0.262179 -0.626939 0.026321
H23 H 0.227258 -0.538506 0.079999
O4 O 0.16686(16) -0.46213(17) -0.02667(10)
C27 C 0.1522(2) -0.3938(3) -0.07735(15)
O5 O 0.21243(16) -0.33237(19) -0.10031(11)
O6 O 0.06313(15) -0.40696(19) -0.09615(11)
C28 C 0.0342(2) -0.3366(3) -0.15036(15)
H24 H 0.092227 -0.321308 -0.176575
C29 C -0.0061(3) -0.2207(3) -0.13005(17)
H25 H 0.042369 -0.177358 -0.105333
H26 H -0.062619 -0.233922 -0.102919
C30 C -0.0353(3) -0.1482(3) -0.18708(18)
H27 H -0.066419 -0.074711 -0.172995
H28 H 0.022477 -0.126841 -0.211446
C31 C -0.1037(3) -0.2166(3) -0.22862(19)
H29 H -0.165313 -0.226367 -0.206318
H30 H -0.116212 -0.170893 -0.267302
C32 C -0.0660(3) -0.3354(3) -0.24644(18)
H31 H -0.010429 -0.325825 -0.274778
H32 H -0.116163 -0.379109 -0.269529
C33 C -0.0356(3) -0.4062(3) -0.18893(18)
H33 H -0.092493 -0.425430 -0.163273
H34 H -0.005538 -0.480708 -0.202466
O7 O 1.0015(2) 0.8970(3) 0.0898(2)
C34 C 0.9637(3) 0.8047(3) 0.07922(19)
C35 C 0.8602(3) 0.7975(4) 0.0652(2)
H35 H 0.832575 0.876635 0.065491
H36 H 0.828502 0.749266 0.097090
H37 H 0.850893 0.762027 0.023737
C36 C 1.0183(3) 0.6937(4) 0.0825(3)
H38 H 1.086706 0.711162 0.086186
H39 H 1.006808 0.647731 0.044328
H40 H 0.997460 0.648492 0.119205
loop_
_geom_bond_atom_site_label_1
_geom_bond_atom_site_label_2
_geom_bond_site_symmetry_1
_geom_bond_site_symmetry_2
N1 H1 1_555 1_555
N2 N1 1_555 1_555
N3 N2 1_555 1_555
N4 N3 1_555 1_555
C1 N1 1_555 1_555
C2 C1 1_555 1_555
C3 C2 1_555 1_555
H2 C3 1_555 1_555
C4 C3 1_555 1_555
H3 C4 1_555 1_555
C5 C4 1_555 1_555
H4 C5 1_555 1_555
C6 C5 1_555 1_555
H5 C6 1_555 1_555
C7 C2 1_555 1_555
C8 C7 1_555 1_555
C9 C8 1_555 1_555
H6 C9 1_555 1_555
C10 C9 1_555 1_555
H7 C10 1_555 1_555
C11 C10 1_555 1_555
C12 C11 1_555 1_555
H8 C12 1_555 1_555
C13 C8 1_555 1_555
H9 C13 1_555 1_555
C14 C11 1_555 1_555
H10 C14 1_555 1_555
H11 C14 1_555 1_555
N5 C14 1_555 1_555
C15 N5 1_555 1_555
N6 C15 1_555 1_555
C16 N5 1_555 1_555
C17 C16 1_555 1_555
C18 C17 1_555 1_555
H12 C18 1_555 1_555
C19 C18 1_555 1_555
H13 C19 1_555 1_555
C20 C19 1_555 1_555
H14 C20 1_555 1_555
C21 N6 1_555 1_555
O1 C15 1_555 1_555
C22 O1 1_555 1_555
H15 C22 1_555 1_555
H16 C22 1_555 1_555
C23 C22 1_555 1_555
H17 C23 1_555 1_555
H18 C23 1_555 1_555
H19 C23 1_555 1_555
C24 C17 1_555 1_555
O2 C24 1_555 1_555
O3 C24 1_555 1_555
C25 O3 1_555 1_555
H20 C25 1_555 1_555
C26 C25 1_555 1_555
H21 C26 1_555 1_555
H22 C26 1_555 1_555
H23 C26 1_555 1_555
O4 C25 1_555 1_555
C27 O4 1_555 1_555
O5 C27 1_555 1_555
O6 C27 1_555 1_555
C28 O6 1_555 1_555
H24 C28 1_555 1_555
C29 C28 1_555 1_555
H25 C29 1_555 1_555
H26 C29 1_555 1_555
C30 C29 1_555 1_555
H27 C30 1_555 1_555
H28 C30 1_555 1_555
C31 C30 1_555 1_555
H29 C31 1_555 1_555
H30 C31 1_555 1_555
C32 C31 1_555 1_555
H31 C32 1_555 1_555
H32 C32 1_555 1_555
C33 C28 1_555 1_555
H33 C33 1_555 1_555
H34 C33 1_555 1_555
O7 C34 1_555 1_555
C34 C35 1_555 1_555
C35 H35 1_555 1_555
H36 C35 1_555 1_555
H37 C35 1_555 1_555
C36 C34 1_555 1_555
H38 C36 1_555 1_555
H39 C36 1_555 1_555
H40 C36 1_555 1_555
N4 C1 1_555 1_555
C6 C7 1_555 1_555
C12 C13 1_555 1_555
C16 C21 1_555 1_555
C20 C21 1_555 1_555
C32 C33 1_555 1_555

#END
