
#######################################################################
#
#                 Cambridge Crystallographic Data Centre
#                                CCDC 
#
#######################################################################
#
# If this CIF has been generated from an entry in the Cambridge 
# Structural Database, then it will include bibliographic, chemical, 
# crystal, experimental, refinement or atomic coordinate data resulting 
# from the CCDC's data processing and validation procedures.
#
#######################################################################

data_HIQWEL
_chemical_formula_moiety         'C22 H22 F1 N1 O4'
_chemical_name_systematic        
1'-Ethyl-2-(2-fluorophenyl)-5',6'-dimethoxy-3H-spiro[cyclopentane-1,3'-indole]-2',3(1'H)-dione
_symmetry_cell_setting           monoclinic
_symmetry_space_group_name_H-M   'P 21/c'
_symmetry_Int_Tables_number      14
_space_group_name_Hall           '-P 2ybc'
loop_
_symmetry_equiv_pos_site_id
_symmetry_equiv_pos_as_xyz
1 x,y,z
2 -x,1/2+y,1/2-z
3 -x,-y,-z
4 x,1/2-y,1/2+z
_cell_length_a                   11.084(2)
_cell_length_b                   8.7738(18)
_cell_length_c                   20.563(4)
_cell_angle_alpha                90
_cell_angle_beta                 104.30(3)
_cell_angle_gamma                90
_cell_volume                     1937.77
_cell_formula_units_Z            4
loop_
_atom_site_label
_atom_site_type_symbol
_atom_site_fract_x
_atom_site_fract_y
_atom_site_fract_z
C1 C 0.4672(2) 0.4852(3) 0.14118(13)
C2 C 0.5827(3) 0.6631(3) 0.09473(14)
C3 C 0.4796(3) 0.6880(4) 0.04100(15)
C4 C 0.2605(3) 0.4102(4) 0.09885(14)
C5 C 0.1356(2) 0.6013(4) 0.15565(15)
C6 C 0.3639(3) 0.5091(3) 0.08852(14)
C7 C 0.3687(3) 0.6093(4) 0.03760(14)
H1 H 0.2997 0.6241 0.0018
C8 C 0.3177(3) 0.3344(4) 0.16566(15)
C9 C 0.5791(2) 0.5605(3) 0.14491(14)
H2 H 0.6488 0.5424 0.1799
C10 C 0.1430(3) 0.7564(4) 0.14871(16)
C11 C 0.1372(2) 0.4955(4) 0.09817(15)
H3 H 0.1214 0.5607 0.0583
C12 C 0.5227(3) 0.3266(4) 0.24858(15)
H4 H 0.6051 0.3156 0.2409
H5 H 0.4956 0.2264 0.2590
C13 C 0.0388(3) 0.3734(4) 0.08224(16)
C14 C 0.7946(3) 0.7252(5) 0.14389(17)
H6 H 0.7788 0.7437 0.1871
H7 H 0.8584 0.7931 0.1373
H8 H 0.8214 0.6217 0.1417
C15 C 0.1227(3) 0.5505(4) 0.21728(16)
H9 H 0.1155 0.4465 0.2243
C16 C 0.1203(3) 0.6504(5) 0.26822(18)
H10 H 0.1129 0.6131 0.3094
C17 C 0.0891(3) 0.2379(4) 0.05259(17)
H11 H 0.0966 0.1506 0.0823
H12 H 0.0346 0.2112 0.0095
C18 C 0.1288(3) 0.8040(5) 0.2592(2)
H13 H 0.1263 0.8709 0.2940
C19 C 0.3899(4) 0.8378(5) -0.0549(2)
H14 H 0.3582 0.7517 -0.0827
H15 H 0.4125 0.9170 -0.0819
H16 H 0.3270 0.8749 -0.0341
O1 O 0.2661(2) 0.2443(3) 0.19564(11)
O2 O 0.6846(2) 0.7501(3) 0.09337(11)
O3 O 0.4956(2) 0.7934(3) -0.00488(12)
O4 O -0.0642(2) 0.3831(3) 0.09135(13)
N1 N 0.4387(2) 0.3799(3) 0.18711(12)
F1 F 0.1565(2) 0.8145(2) 0.08927(10)
C20 C 0.1409(3) 0.8591(4) 0.1987(2)
H17 H 0.1475 0.9631 0.1918
C21 C 0.5318(3) 0.4277(4) 0.30833(18)
H18 H 0.5770 0.5185 0.3032
H19 H 0.5747 0.3748 0.3482
H20 H 0.4497 0.4547 0.3118
C22 C 0.2143(3) 0.2857(4) 0.04460(17)
H21 H 0.2078 0.3266 0.0000
H22 H 0.2712 0.1999 0.0516
loop_
_geom_bond_atom_site_label_1
_geom_bond_atom_site_label_2
_geom_bond_site_symmetry_1
_geom_bond_site_symmetry_2
C1 C6 1_555 1_555
C2 C3 1_555 1_555
C3 C7 1_555 1_555
C4 C6 1_555 1_555
C5 C10 1_555 1_555
C6 C7 1_555 1_555
C7 H1 1_555 1_555
C8 C4 1_555 1_555
C9 C1 1_555 1_555
H2 C9 1_555 1_555
C10 F1 1_555 1_555
C11 C4 1_555 1_555
H3 C11 1_555 1_555
C12 H4 1_555 1_555
H5 C12 1_555 1_555
C13 C11 1_555 1_555
C14 H6 1_555 1_555
H7 C14 1_555 1_555
H8 C14 1_555 1_555
C15 C5 1_555 1_555
H9 C15 1_555 1_555
C16 C15 1_555 1_555
H10 C16 1_555 1_555
C17 C13 1_555 1_555
H11 C17 1_555 1_555
H12 C17 1_555 1_555
C18 C16 1_555 1_555
H13 C18 1_555 1_555
C19 H14 1_555 1_555
H15 C19 1_555 1_555
H16 C19 1_555 1_555
O1 C8 1_555 1_555
O2 C2 1_555 1_555
O3 C3 1_555 1_555
O4 C13 1_555 1_555
N1 C1 1_555 1_555
C20 C10 1_555 1_555
H17 C20 1_555 1_555
C21 C12 1_555 1_555
H18 C21 1_555 1_555
H19 C21 1_555 1_555
H20 C21 1_555 1_555
C22 C4 1_555 1_555
H21 C22 1_555 1_555
H22 C22 1_555 1_555
C2 C9 1_555 1_555
C5 C11 1_555 1_555
C8 N1 1_555 1_555
C12 N1 1_555 1_555
C14 O2 1_555 1_555
C17 C22 1_555 1_555
C18 C20 1_555 1_555
C19 O3 1_555 1_555

#END
