
#######################################################################
#
#                 Cambridge Crystallographic Data Centre
#                                CCDC 
#
#######################################################################
#
# If this CIF has been generated from an entry in the Cambridge 
# Structural Database, then it will include bibliographic, chemical, 
# crystal, experimental, refinement or atomic coordinate data resulting 
# from the CCDC's data processing and validation procedures.
#
#######################################################################

data_HIQWEJ
_chemical_formula_moiety         'C10 H8 N2'
_chemical_name_systematic        4,4'-Bipyridyl
_symmetry_cell_setting           triclinic
_symmetry_space_group_name_H-M   'P -1'
_symmetry_Int_Tables_number      2
_space_group_name_Hall           '-P 1'
loop_
_symmetry_equiv_pos_site_id
_symmetry_equiv_pos_as_xyz
1 x,y,z
2 -x,-y,-z
_cell_length_a                   8.778(2)
_cell_length_b                   8.7810(10)
_cell_length_c                   10.998(2)
_cell_angle_alpha                85.520(10)
_cell_angle_beta                 85.42(2)
_cell_angle_gamma                78.570(10)
_cell_volume                     826.571
_exptl_crystal_colour            colorless
_exptl_crystal_description       'irregular block'
_cell_formula_units_Z            4
loop_
_atom_site_label
_atom_site_type_symbol
_atom_site_fract_x
_atom_site_fract_y
_atom_site_fract_z
N1 N -0.2606(3) 0.5020(2) 0.61128(17)
C1 C -0.0910(2) 0.3203(2) 0.42766(18)
C2 C -0.0667(3) 0.2844(3) 0.5501(2)
H1 H 0.014(3) 0.193(3) 0.577(2)
C3 C -0.1536(3) 0.3765(3) 0.6366(2)
H2 H -0.139(3) 0.354(3) 0.722(3)
C4 C -0.2811(3) 0.5372(3) 0.4932(2)
H3 H -0.362(3) 0.633(3) 0.473(2)
C5 C -0.2011(3) 0.4516(3) 0.4001(2)
H4 H -0.222(3) 0.485(3) 0.316(2)
N2 N 0.1459(2) 0.0208(2) 0.15100(17)
C6 C -0.0053(2) 0.2205(2) 0.33048(17)
C7 C -0.0598(3) 0.2287(2) 0.2150(2)
H5 H -0.152(3) 0.303(3) 0.194(2)
C8 C 0.0182(3) 0.1278(3) 0.1298(2)
H6 H -0.019(3) 0.130(3) 0.046(2)
C9 C 0.1994(3) 0.0169(3) 0.2613(2)
H7 H 0.299(3) -0.061(3) 0.279(2)
C10 C 0.1300(3) 0.1124(2) 0.3529(2)
H8 H 0.171(3) 0.104(3) 0.427(2)
N3 N 0.2906(3) 0.0450(2) 0.63934(18)
C11 C 0.4413(2) -0.1482(2) 0.82701(18)
C12 C 0.4616(3) -0.1895(3) 0.70670(19)
H9 H 0.532(3) -0.284(3) 0.684(2)
C13 C 0.3845(3) -0.0910(3) 0.6178(2)
H10 H 0.397(3) -0.118(3) 0.533(2)
C14 C 0.2721(3) 0.0823(3) 0.7551(2)
H11 H 0.207(3) 0.178(3) 0.769(2)
C15 C 0.3420(3) -0.0085(2) 0.8512(2)
H12 H 0.322(3) 0.029(3) 0.934(2)
N4 N 0.6802(3) -0.4420(2) 1.11020(18)
C16 C 0.5233(3) -0.2506(2) 0.92493(18)
C17 C 0.4549(3) -0.2634(3) 1.0428(2)
H13 H 0.354(3) -0.209(3) 1.062(2)
C18 C 0.5363(3) -0.3600(3) 1.1301(2)
H14 H 0.488(3) -0.370(3) 1.217(2)
C19 C 0.7447(3) -0.4279(3) 0.9970(2)
H15 H 0.850(3) -0.488(2) 0.981(2)
C20 C 0.6723(3) -0.3367(2) 0.9021(2)
H16 H 0.725(3) -0.330(3) 0.821(2)
loop_
_geom_bond_atom_site_label_1
_geom_bond_atom_site_label_2
_geom_bond_site_symmetry_1
_geom_bond_site_symmetry_2
N1 C3 1_555 1_555
C1 C2 1_555 1_555
C2 H1 1_555 1_555
C3 C2 1_555 1_555
H2 C3 1_555 1_555
C4 N1 1_555 1_555
H3 C4 1_555 1_555
C5 C1 1_555 1_555
H4 C5 1_555 1_555
N2 C8 1_555 1_555
C6 C1 1_555 1_555
C7 C6 1_555 1_555
H5 C7 1_555 1_555
C8 C7 1_555 1_555
H6 C8 1_555 1_555
C9 N2 1_555 1_555
H7 C9 1_555 1_555
C10 C6 1_555 1_555
H8 C10 1_555 1_555
N3 C13 1_555 1_555
C11 C12 1_555 1_555
C12 H9 1_555 1_555
C13 C12 1_555 1_555
H10 C13 1_555 1_555
C14 N3 1_555 1_555
H11 C14 1_555 1_555
C15 C11 1_555 1_555
H12 C15 1_555 1_555
N4 C18 1_555 1_555
C16 C11 1_555 1_555
C17 C16 1_555 1_555
H13 C17 1_555 1_555
C18 C17 1_555 1_555
H14 C18 1_555 1_555
C19 N4 1_555 1_555
H15 C19 1_555 1_555
C20 C16 1_555 1_555
H16 C20 1_555 1_555
C4 C5 1_555 1_555
C9 C10 1_555 1_555
C14 C15 1_555 1_555
C19 C20 1_555 1_555

#END
