
#######################################################################
#
#                 Cambridge Crystallographic Data Centre
#                                CCDC 
#
#######################################################################
#
# If this CIF has been generated from an entry in the Cambridge 
# Structural Database, then it will include bibliographic, chemical, 
# crystal, experimental, refinement or atomic coordinate data resulting 
# from the CCDC's data processing and validation procedures.
#
#######################################################################

data_HIQYUE
_chemical_formula_moiety         'C14 H9 Br5 N2'
_chemical_name_systematic        
(1E)-[3-(tribromomethyl)phenyl][3-(dibromomethyl)phenyl]-diazene
_symmetry_cell_setting           triclinic
_symmetry_space_group_name_H-M   'P -1'
_symmetry_Int_Tables_number      2
_space_group_name_Hall           '-P 1'
loop_
_symmetry_equiv_pos_site_id
_symmetry_equiv_pos_as_xyz
1 x,y,z
2 -x,-y,-z
_cell_length_a                   7.0161(11)
_cell_length_b                   8.5634(13)
_cell_length_c                   14.897(2)
_cell_angle_alpha                103.257(2)
_cell_angle_beta                 102.974(2)
_cell_angle_gamma                91.703(2)
_cell_volume                     845.829
_exptl_crystal_colour            orange
_exptl_crystal_description       block
_chemical_melting_point          '415-416 K'
_cell_formula_units_Z            2
loop_
_atom_site_label
_atom_site_type_symbol
_atom_site_fract_x
_atom_site_fract_y
_atom_site_fract_z
Br1 Br 0.90836(8) 1.08792(7) 0.36771(5)
Br2 Br 0.46223(8) 1.07967(7) 0.37101(5)
N1 N 0.7664(6) 0.6292(6) 0.5351(3)
N2 N 0.7756(6) 0.4901(6) 0.5496(3)
C1 C 0.7187(7) 0.6301(7) 0.4368(4)
C2 C 0.6536(7) 0.9644(6) 0.3090(4)
C3 C 0.6279(8) 0.6584(7) 0.2506(4)
H1 H 0.595699 0.667201 0.186613
C4 C 0.7064(7) 0.7811(7) 0.4171(4)
H2 H 0.729007 0.874865 0.467909
C5 C 0.6409(8) 0.5070(7) 0.2697(4)
H3 H 0.619070 0.413565 0.218693
C6 C 0.8868(8) 0.3130(8) 0.7556(4)
H4 H 0.901178 0.208546 0.766690
C7 C 0.9118(8) 0.4452(7) 0.8309(4)
H5 H 0.944967 0.431907 0.893937
C8 C 0.6853(8) 0.4911(7) 0.3621(4)
H6 H 0.693124 0.387486 0.374978
C9 C 0.8212(7) 0.4838(7) 0.6464(4)
C10 C 0.8889(8) 0.5986(7) 0.8152(4)
C11 C 0.8450(7) 0.6200(7) 0.7228(4)
H7 H 0.831452 0.724552 0.711806
C12 C 0.8403(8) 0.3321(7) 0.6629(4)
H8 H 0.821753 0.240510 0.610947
C13 C 0.6612(7) 0.7963(7) 0.3236(4)
Br3 Br 0.58568(11) 0.97768(9) 0.17782(4)
C14 C 0.9060(9) 0.7456(8) 0.8944(4)
H9 H 0.878219 0.840293 0.866313
Br4 Br 0.71615(10) 0.72607(10) 0.97006(5)
Br5 Br 1.16852(11) 0.78735(12) 0.98005(6)
C15? C 0.942(6) 0.735(2) 0.9006(16)
H10? H 0.851659 0.724703 0.942383
Br6? Br 0.910(3) 0.930(2) 0.8670(14)
Br7? Br 1.209(3) 0.711(3) 0.9683(15)
loop_
_geom_bond_atom_site_label_1
_geom_bond_atom_site_label_2
_geom_bond_site_symmetry_1
_geom_bond_site_symmetry_2
Br1 C2 1_555 1_555
Br2 C2 1_555 1_555
N1 N2 1_555 1_555
N2 C9 1_555 1_555
C1 N1 1_555 1_555
C2 C13 1_555 1_555
C3 H1 1_555 1_555
C4 C1 1_555 1_555
H2 C4 1_555 1_555
C5 C3 1_555 1_555
H3 C5 1_555 1_555
C6 H4 1_555 1_555
C7 C6 1_555 1_555
H5 C7 1_555 1_555
C8 C1 1_555 1_555
H6 C8 1_555 1_555
C9 C11 1_555 1_555
C10 C7 1_555 1_555
C11 C10 1_555 1_555
H7 C11 1_555 1_555
C12 C6 1_555 1_555
H8 C12 1_555 1_555
C13 C3 1_555 1_555
Br3 C2 1_555 1_555
C14 C10 1_555 1_555
H9 C14 1_555 1_555
Br4 C14 1_555 1_555
Br5 C14 1_555 1_555
C4 C13 1_555 1_555
C5 C8 1_555 1_555
C9 C12 1_555 1_555

#END
