
#######################################################################
#
#                 Cambridge Crystallographic Data Centre
#                                CCDC 
#
#######################################################################
#
# If this CIF has been generated from an entry in the Cambridge 
# Structural Database, then it will include bibliographic, chemical, 
# crystal, experimental, refinement or atomic coordinate data resulting 
# from the CCDC's data processing and validation procedures.
#
#######################################################################

data_HIQYAK
_chemical_formula_moiety         'C14 H11 Br3 N2'
_chemical_name_systematic        
(1E)-[4-(dibromomethyl)phenyl][4-(bromomethyl)phenyl]-diazene
_symmetry_cell_setting           monoclinic
_symmetry_space_group_name_H-M   'P 21/c'
_symmetry_Int_Tables_number      14
_space_group_name_Hall           '-P 2ybc'
loop_
_symmetry_equiv_pos_site_id
_symmetry_equiv_pos_as_xyz
1 x,y,z
2 -x,1/2+y,1/2-z
3 -x,-y,-z
4 x,1/2-y,1/2+z
_cell_length_a                   8.5380(10)
_cell_length_b                   5.2830(10)
_cell_length_c                   32.801(4)
_cell_angle_alpha                90
_cell_angle_beta                 99.692(5)
_cell_angle_gamma                90
_cell_volume                     1458.41
_exptl_crystal_colour            orange
_exptl_crystal_description       plate
_chemical_melting_point          '419-421 K'
_cell_formula_units_Z            4
loop_
_atom_site_label
_atom_site_type_symbol
_atom_site_fract_x
_atom_site_fract_y
_atom_site_fract_z
Br1 Br 0.61597(4) 1.05498(6) 0.95232(2)
Br2 Br 0.92730(4) 0.72243(7) 0.95898(2)
Br3 Br 0.67770(4) 1.00291(6) 0.54184(2)
N1 N 0.6931(4) 0.7036(6) 0.75752(9)
N2 N 0.8014(4) 0.8208(6) 0.74401(8)
C1 C 0.6963(4) 0.7378(6) 0.80072(9)
C2 C 0.7807(4) 0.9300(7) 0.82415(10)
H1 H 0.837587 1.052512 0.811275
C3 C 0.7804(4) 0.9398(6) 0.86638(10)
H2 H 0.836770 1.070822 0.882433
C4 C 0.6985(4) 0.7599(6) 0.88542(9)
C5 C 0.6105(4) 0.5728(6) 0.86189(10)
H3 H 0.552169 0.452275 0.874761
C6 C 0.6084(4) 0.5639(7) 0.81934(10)
H4 H 0.547020 0.438890 0.803044
C7 C 0.7088(4) 0.7544(6) 0.93152(10)
H5 H 0.648722 0.603256 0.938825
C8 C 0.8005(4) 0.7837(6) 0.70107(10)
C9 C 0.7182(4) 0.5901(7) 0.67781(10)
H6 H 0.658565 0.471034 0.690584
C10 C 0.7239(4) 0.5723(6) 0.63590(10)
H7 H 0.668797 0.439258 0.620078
C11 C 0.8103(4) 0.7486(6) 0.61663(10)
C12 C 0.8945(4) 0.9373(7) 0.64037(10)
H8 H 0.955100 1.055490 0.627698
C13 C 0.8909(4) 0.9551(7) 0.68238(10)
H9 H 0.949921 1.083574 0.698432
C14 C 0.8106(4) 0.7318(6) 0.57118(10)
H10 H 0.768991 0.564811 0.560795
H11 H 0.920742 0.747939 0.565756
loop_
_geom_bond_atom_site_label_1
_geom_bond_atom_site_label_2
_geom_bond_site_symmetry_1
_geom_bond_site_symmetry_2
Br1 C7 1_555 1_555
Br2 C7 1_555 1_555
Br3 C14 1_555 1_555
N1 N2 1_555 1_555
N2 C8 1_555 1_555
C1 N1 1_555 1_555
C2 C1 1_555 1_555
H1 C2 1_555 1_555
C3 C2 1_555 1_555
H2 C3 1_555 1_555
C4 C3 1_555 1_555
C5 C4 1_555 1_555
H3 C5 1_555 1_555
C6 C1 1_555 1_555
H4 C6 1_555 1_555
C7 C4 1_555 1_555
H5 C7 1_555 1_555
C8 C9 1_555 1_555
C9 H6 1_555 1_555
C10 C9 1_555 1_555
H7 C10 1_555 1_555
C11 C10 1_555 1_555
C12 C11 1_555 1_555
H8 C12 1_555 1_555
C13 C8 1_555 1_555
H9 C13 1_555 1_555
C14 C11 1_555 1_555
H10 C14 1_555 1_555
H11 C14 1_555 1_555
C5 C6 1_555 1_555
C12 C13 1_555 1_555

#END
