
#######################################################################
#
#                 Cambridge Crystallographic Data Centre
#                                CCDC 
#
#######################################################################
#
# If this CIF has been generated from an entry in the Cambridge 
# Structural Database, then it will include bibliographic, chemical, 
# crystal, experimental, refinement or atomic coordinate data resulting 
# from the CCDC's data processing and validation procedures.
#
#######################################################################

data_HIQZIS
_chemical_formula_moiety         'C3 H6 N5 O1 1+,C1 H2 N5 O2 1-,H2 O1'
_chemical_name_systematic        
'4-Amino-6-oxo-5,6-dihydro-1,3,5-triazin-2(1H)-iminium 5-nitro-3,4-dihydrotetrazol-2-ide monohydrate'
_symmetry_cell_setting           monoclinic
_symmetry_space_group_name_H-M   'P c'
_symmetry_Int_Tables_number      7
_space_group_name_Hall           'P -2yc'
loop_
_symmetry_equiv_pos_site_id
_symmetry_equiv_pos_as_xyz
1 x,y,z
2 x,-y,1/2+z
_cell_length_a                   5.0852(15)
_cell_length_b                   5.0386(13)
_cell_length_c                   20.640(6)
_cell_angle_alpha                90
_cell_angle_beta                 92.936(4)
_cell_angle_gamma                90
_cell_volume                     528.15
_exptl_crystal_colour            colorless
_cell_formula_units_Z            2
loop_
_atom_site_label
_atom_site_type_symbol
_atom_site_fract_x
_atom_site_fract_y
_atom_site_fract_z
C1 C 0.1616(3) 0.2717(3) 0.49023(8)
O1 O -0.1026(2) 0.3372(3) 0.39848(6)
O2 O -0.1846(2) 0.0028(3) 0.46069(6)
N1 N 0.3202(2) 0.4710(3) 0.47813(6)
N2 N 0.4920(2) 0.4704(3) 0.52942(7)
N3 N 0.4330(3) 0.2758(3) 0.56975(7)
N4 N 0.2208(2) 0.1447(3) 0.54521(6)
N5 N -0.0576(3) 0.1983(3) 0.44669(7)
C2 C 1.2596(3) 0.5355(3) 0.74671(7)
C3 C 0.8990(3) 0.2324(3) 0.72944(7)
C4 C 0.9982(3) 0.5833(3) 0.65515(7)
N6 N 1.4579(2) 0.6115(3) 0.78624(6)
N7 N 0.8487(2) 0.3707(3) 0.67247(6)
N8 N 1.2072(2) 0.6657(2) 0.69219(6)
N9 N 1.1137(2) 0.3227(3) 0.76551(6)
O3 O 0.7639(2) 0.0482(2) 0.74591(5)
N10 N 0.9343(3) 0.7072(3) 0.60089(6)
H1 H 1.494(3) 0.520(4) 0.8221(9)
H2 H 0.807(4) 0.656(4) 0.5755(9)
H3 H 1.155(3) 0.231(4) 0.7995(9)
H4 H 1.036(4) 0.836(4) 0.5872(9)
H5 H 0.713(4) 0.318(3) 0.6494(9)
H6 H 1.558(4) 0.747(4) 0.7751(9)
O4 O 1.3483(3) 0.1534(3) 0.88032(6)
H7 H 1.497(6) 0.078(5) 0.8851(14)
H8 H 1.328(5) 0.269(5) 0.9138(14)
loop_
_geom_bond_atom_site_label_1
_geom_bond_atom_site_label_2
_geom_bond_site_symmetry_1
_geom_bond_site_symmetry_2
C1 N1 1_555 1_555
O1 N5 1_555 1_555
O2 N5 1_555 1_555
N1 N2 1_555 1_555
N2 N3 1_555 1_555
N3 N4 1_555 1_555
N4 C1 1_555 1_555
N5 C1 1_555 1_555
C2 N6 1_555 1_555
C3 N7 1_555 1_555
C4 N7 1_555 1_555
N6 H1 1_555 1_555
N7 H5 1_555 1_555
N8 C2 1_555 1_555
N9 C2 1_555 1_555
O3 C3 1_555 1_555
N10 C4 1_555 1_555
H2 N10 1_555 1_555
H3 N9 1_555 1_555
H4 N10 1_555 1_555
H6 N6 1_555 1_555
O4 H7 1_555 1_555
H8 O4 1_555 1_555
C3 N9 1_555 1_555
C4 N8 1_555 1_555

#END
