
#######################################################################
#
#                 Cambridge Crystallographic Data Centre
#                                CCDC 
#
#######################################################################
#
# If this CIF has been generated from an entry in the Cambridge 
# Structural Database, then it will include bibliographic, chemical, 
# crystal, experimental, refinement or atomic coordinate data resulting 
# from the CCDC's data processing and validation procedures.
#
#######################################################################

data_HIQZOY
_chemical_formula_moiety         
'C3 H6 N5 O1 1+,0.33(C3 H3 N3 O3),Cl1 O4 1-,0.067(H2 O1)'
_chemical_name_systematic        
'4-amino-6-oxo-5,6-dihydro-1,3,5-triazin-2(1H)-iminium perchlorate - 1,3,5-triazinane-2,4,6-trione hydrate'
_symmetry_cell_setting           monoclinic
_symmetry_space_group_name_H-M   'C c'
_symmetry_Int_Tables_number      9
_space_group_name_Hall           'C -2yc'
loop_
_symmetry_equiv_pos_site_id
_symmetry_equiv_pos_as_xyz
1 x,y,z
2 x,-y,1/2+z
3 1/2+x,1/2+y,z
4 1/2+x,1/2-y,1/2+z
_cell_length_a                   16.608(4)
_cell_length_b                   15.532(4)
_cell_length_c                   11.597(3)
_cell_angle_alpha                90
_cell_angle_beta                 96.369(3)
_cell_angle_gamma                90
_cell_volume                     2973.05
_exptl_crystal_colour            colorless
_exptl_crystal_description       Chunk
_cell_formula_units_Z            12
loop_
_atom_site_label
_atom_site_type_symbol
_atom_site_fract_x
_atom_site_fract_y
_atom_site_fract_z
Cl1 Cl 0.81124(3) 0.08125(3) 0.19773(4)
O1 O 0.83748(11) 0.03091(12) 0.10451(15)
O2 O 0.79733(11) 0.02629(11) 0.29314(15)
O3 O 0.73521(11) 0.12287(11) 0.15478(15)
O4 O 0.87026(11) 0.14555(11) 0.23546(15)
Cl2 Cl 0.92521(3) 0.35992(3) 0.40117(5)
O5 O 0.97454(11) 0.43555(11) 0.41145(17)
O6 O 0.97042(13) 0.28826(12) 0.36370(18)
O7 O 0.90188(16) 0.33731(17) 0.5131(2)
O8 O 0.85548(17) 0.37717(15) 0.3224(3)
O9 O 0.92237(10) 0.89764(9) 0.39775(13)
O10 O 1.08270(10) 0.82628(10) 0.72826(12)
O11 O 0.97740(11) 0.61657(10) 0.48311(14)
N1 N 0.99903(11) 0.86360(11) 0.56721(15)
N2 N 1.02929(12) 0.72036(11) 0.60780(15)
N3 N 0.94687(11) 0.75669(10) 0.44112(15)
C1 C 0.95416(12) 0.84303(12) 0.46533(16)
C2 C 1.03914(13) 0.80467(12) 0.64041(16)
C3 C 0.98341(13) 0.69287(12) 0.50930(17)
H1 H 1.0028(17) 0.919(2) 0.583(3)
H2 H 1.050(2) 0.681(2) 0.661(3)
H3 H 0.9157(14) 0.7413(19) 0.3833(17)
O12 O 0.66488(10) 0.63039(11) -0.00936(14)
N4 N 0.73778(11) 0.73903(12) 0.08361(15)
N5 N 0.83671(11) 0.70870(10) 0.24107(14)
N6 N 0.76063(11) 0.59840(12) 0.13982(16)
N7 N 0.80847(12) 0.84799(11) 0.18477(17)
H4 H 0.8450 0.8665 0.2400
H5 H 0.7809 0.8851 0.1386
N8 N 0.86447(12) 0.56537(12) 0.27973(16)
H6 H 0.9040 0.5804 0.3328
H7 H 0.8540 0.5106 0.2661
C4 C 0.71786(12) 0.65446(14) 0.06514(17)
C5 C 0.79509(12) 0.76516(12) 0.17133(16)
C6 C 0.82118(13) 0.62475(13) 0.22095(18)
H8 H 0.7166(18) 0.771(2) 0.031(3)
H9 H 0.749(2) 0.542(2) 0.138(3)
O13 O 0.55449(11) 0.20691(10) 0.20685(17)
N9 N 0.49450(13) 0.31211(12) 0.09199(17)
N10 N 0.51953(11) 0.45873(11) 0.13505(15)
N11 N 0.57946(11) 0.34739(11) 0.25523(15)
N12 N 0.44330(13) 0.41742(12) -0.03417(16)
H10 H 0.4357 0.4718 -0.0538
H11 H 0.4219 0.3764 -0.0802
N13 N 0.60071(12) 0.49025(11) 0.30288(16)
H12 H 0.5930 0.5455 0.2888
H13 H 0.6315 0.4735 0.3656
C7 C 0.54430(13) 0.28382(13) 0.18635(19)
C8 C 0.48674(13) 0.39736(13) 0.06430(18)
C9 C 0.56633(12) 0.43283(12) 0.23047(17)
H14 H 0.4736(17) 0.2798(17) 0.0402(19)
H15 H 0.6175(18) 0.3271(19) 0.307(3)
O14 O 0.68040(10) 0.09341(10) 0.49649(13)
N14 N 0.67393(11) -0.04727(11) 0.44015(15)
N15 N 0.60684(11) -0.08705(10) 0.25795(14)
N16 N 0.61300(11) 0.05760(10) 0.32142(14)
H16 H 0.5995(16) 0.1087(8) 0.307(2)
N17 N 0.66569(12) -0.18921(12) 0.38413(16)
H17 H 0.6501 -0.2299 0.3337
H18 H 0.6930 -0.2027 0.4511
N18 N 0.54312(12) 0.02021(11) 0.14627(15)
H19 H 0.5259 -0.0183 0.0935
H20 H 0.5305 0.0748 0.1353
C10 C 0.65797(13) 0.03894(12) 0.42416(17)
C11 C 0.64814(13) -0.10770(12) 0.35922(16)
C12 C 0.58769(12) -0.00394(12) 0.24151(17)
H21 H 0.6957(19) -0.066(2) 0.508(3)
O15 O 0.72263(12) 0.25504(12) 0.32758(16)
H22 H 0.7638(13) 0.2904(16) 0.327(3)
H23 H 0.7210(18) 0.2213(16) 0.2669(18)
Cl3 Cl 0.72845(14) 0.38260(18) 0.0306(3)
O16 O 0.73269(19) 0.42053(17) 0.1454(2)
O17 O 0.74809(19) 0.44603(19) -0.0501(2)
O18 O 0.64664(15) 0.35347(18) -0.0026(3)
O19 O 0.78247(19) 0.3107(2) 0.0300(3)
Cl4? Cl 0.7473(7) 0.3725(8) 0.0341(12)
O20? O 0.7107(9) 0.4283(8) 0.1147(10)
O21? O 0.8262(7) 0.4092(11) 0.0365(9)
O22? O 0.7061(7) 0.3823(7) -0.0798(9)
O23? O 0.7500(15) 0.2891(8) 0.0743(11)
loop_
_geom_bond_atom_site_label_1
_geom_bond_atom_site_label_2
_geom_bond_site_symmetry_1
_geom_bond_site_symmetry_2
Cl1 O1 1_555 1_555
O2 Cl1 1_555 1_555
O3 Cl1 1_555 1_555
O4 Cl1 1_555 1_555
Cl2 O5 1_555 1_555
O6 Cl2 1_555 1_555
O7 Cl2 1_555 1_555
O8 Cl2 1_555 1_555
O9 C1 1_555 1_555
O10 C2 1_555 1_555
O11 C3 1_555 1_555
N1 C1 1_555 1_555
N2 C2 1_555 1_555
N3 C1 1_555 1_555
C2 N1 1_555 1_555
C3 N2 1_555 1_555
H1 N1 1_555 1_555
H2 N2 1_555 1_555
H3 N3 1_555 1_555
O12 C4 1_555 1_555
N4 C4 1_555 1_555
N5 C5 1_555 1_555
N6 C4 1_555 1_555
N7 H4 1_555 1_555
H5 N7 1_555 1_555
N8 H6 1_555 1_555
H7 N8 1_555 1_555
C5 N4 1_555 1_555
C6 N5 1_555 1_555
H8 N4 1_555 1_555
H9 N6 1_555 1_555
O13 C7 1_555 1_555
N9 C7 1_555 1_555
N10 C8 1_555 1_555
N11 C7 1_555 1_555
N12 H10 1_555 1_555
H11 N12 1_555 1_555
N13 H12 1_555 1_555
H13 N13 1_555 1_555
C8 N9 1_555 1_555
C9 N10 1_555 1_555
H14 N9 1_555 1_555
H15 N11 1_555 1_555
O14 C10 1_555 1_555
N14 C10 1_555 1_555
N15 C11 1_555 1_555
N16 H16 1_555 1_555
N17 H17 1_555 1_555
H18 N17 1_555 1_555
N18 H19 1_555 1_555
H20 N18 1_555 1_555
C10 N16 1_555 1_555
C11 N14 1_555 1_555
C12 N15 1_555 1_555
H21 N14 1_555 1_555
O15 H22 1_555 1_555
H23 O15 1_555 1_555
Cl3 O16 1_555 1_555
O17 Cl3 1_555 1_555
O18 Cl3 1_555 1_555
O19 Cl3 1_555 1_555
N3 C3 1_555 1_555
N6 C6 1_555 1_555
N7 C5 1_555 1_555
N8 C6 1_555 1_555
N11 C9 1_555 1_555
N12 C8 1_555 1_555
N13 C9 1_555 1_555
N16 C12 1_555 1_555
N17 C11 1_555 1_555
N18 C12 1_555 1_555

#END
