
#######################################################################
#
#                 Cambridge Crystallographic Data Centre
#                                CCDC 
#
#######################################################################
#
# If this CIF has been generated from an entry in the Cambridge 
# Structural Database, then it will include bibliographic, chemical, 
# crystal, experimental, refinement or atomic coordinate data resulting 
# from the CCDC's data processing and validation procedures.
#
#######################################################################

data_HIRBAN
_chemical_formula_moiety         'C3 H6 N5 O1 1+,0.5(O4 S1 2-),H2 O1'
_chemical_name_systematic        
'4-Amino-6-oxo-5,6-dihydro-1,3,5-triazin-2(1H)-iminium hemisulfate monohydrate'
_symmetry_cell_setting           monoclinic
_symmetry_space_group_name_H-M   'P 21/c'
_symmetry_Int_Tables_number      14
_space_group_name_Hall           '-P 2ybc'
loop_
_symmetry_equiv_pos_site_id
_symmetry_equiv_pos_as_xyz
1 x,y,z
2 -x,1/2+y,1/2-z
3 -x,-y,-z
4 x,1/2-y,1/2+z
_cell_length_a                   10.454(3)
_cell_length_b                   6.4001(16)
_cell_length_c                   21.877(6)
_cell_angle_alpha                90
_cell_angle_beta                 97.204(4)
_cell_angle_gamma                90
_cell_volume                     1452.16
_exptl_crystal_colour            colorless
_exptl_crystal_description       Chunk
_cell_formula_units_Z            8
loop_
_atom_site_label
_atom_site_type_symbol
_atom_site_fract_x
_atom_site_fract_y
_atom_site_fract_z
S1 S -0.10720(3) -0.31615(6) 0.646148(17)
O1 O -0.00953(11) -0.31766(18) 0.60269(5)
O2 O -0.05601(11) -0.42983(19) 0.70289(5)
O3 O -0.13451(11) -0.09621(18) 0.66216(5)
O4 O -0.22575(11) -0.41806(19) 0.61730(5)
O5 O -0.10976(11) 0.15590(19) 0.52964(5)
N1 N 0.03271(13) 0.1949(2) 0.61601(6)
N2 N 0.23771(13) 0.3453(2) 0.61018(6)
N3 N 0.08737(13) 0.2973(2) 0.52125(6)
N4 N 0.17884(14) 0.2512(2) 0.70279(6)
N5 N 0.29261(14) 0.4219(2) 0.51464(7)
C1 C -0.00366(15) 0.2130(2) 0.55399(7)
C2 C 0.14995(15) 0.2655(2) 0.64269(7)
C3 C 0.20648(15) 0.3544(2) 0.54934(7)
H1 H -0.016(2) 0.120(3) 0.6358(10)
H2 H 0.065(2) 0.296(3) 0.4795(10)
H3 H 0.256(2) 0.294(3) 0.7151(10)
H4 H 0.125(2) 0.204(4) 0.7277(12)
H5 H 0.270(2) 0.420(3) 0.4746(11)
H6 H 0.373(2) 0.444(3) 0.5355(10)
O6 O 0.55707(11) 0.8711(2) 0.75614(5)
N6 N 0.59874(13) 0.9623(2) 0.65997(6)
N7 N 0.43479(12) 0.9449(2) 0.57538(6)
N8 N 0.39387(13) 0.8674(2) 0.67700(6)
N9 N 0.64156(14) 1.0329(2) 0.56146(7)
N10 N 0.23411(13) 0.8402(2) 0.59525(7)
C4 C 0.51894(15) 0.8986(3) 0.70181(7)
C5 C 0.55716(15) 0.9802(2) 0.59841(7)
C6 C 0.35527(15) 0.8843(2) 0.61508(7)
H7 H 0.682(3) 0.974(4) 0.6713(12)
H8 H 0.341(2) 0.824(3) 0.7017(11)
H9 H 0.722(2) 1.058(4) 0.5775(10)
H10 H 0.614(2) 1.047(3) 0.5196(11)
H11 H 0.211(2) 0.843(3) 0.5566(11)
H12 H 0.181(2) 0.788(3) 0.6222(10)
O7 O 0.19798(12) 0.7472(2) 0.74499(6)
H13 H 0.171(2) 0.840(3) 0.7675(11)
H14 H 0.1358(17) 0.664(3) 0.7361(11)
O8 O -0.48493(12) -0.5246(2) 0.61002(6)
H15 H -0.4041(9) -0.515(4) 0.6197(10)
H16 H -0.516(2) -0.570(4) 0.6406(9)
loop_
_geom_bond_atom_site_label_1
_geom_bond_atom_site_label_2
_geom_bond_site_symmetry_1
_geom_bond_site_symmetry_2
S1 O1 1_555 1_555
O2 S1 1_555 1_555
O3 S1 1_555 1_555
O4 S1 1_555 1_555
O5 C1 1_555 1_555
N1 C1 1_555 1_555
N2 C2 1_555 1_555
N3 C1 1_555 1_555
N4 C2 1_555 1_555
N5 C3 1_555 1_555
C2 N1 1_555 1_555
C3 N2 1_555 1_555
H1 N1 1_555 1_555
H2 N3 1_555 1_555
H3 N4 1_555 1_555
H4 N4 1_555 1_555
H5 N5 1_555 1_555
H6 N5 1_555 1_555
O6 C4 1_555 1_555
N6 C4 1_555 1_555
N7 C5 1_555 1_555
N8 C4 1_555 1_555
N9 C5 1_555 1_555
N10 C6 1_555 1_555
C5 N6 1_555 1_555
C6 N7 1_555 1_555
H7 N6 1_555 1_555
H8 N8 1_555 1_555
H9 N9 1_555 1_555
H10 N9 1_555 1_555
H11 N10 1_555 1_555
H12 N10 1_555 1_555
O7 H13 1_555 1_555
H14 O7 1_555 1_555
O8 H15 1_555 1_555
H16 O8 1_555 1_555
N3 C3 1_555 1_555
N8 C6 1_555 1_555

#END
