
#######################################################################
#
#                 Cambridge Crystallographic Data Centre
#                                CCDC 
#
#######################################################################
#
# If this CIF has been generated from an entry in the Cambridge 
# Structural Database, then it will include bibliographic, chemical, 
# crystal, experimental, refinement or atomic coordinate data resulting 
# from the CCDC's data processing and validation procedures.
#
#######################################################################

data_HIRCOD
_chemical_formula_moiety         'C19 H23 I2 N1 O2 S1'
_chemical_name_systematic        
N-[2-(1,3-diiodotricyclo[3.3.1.1^3,7^]decan-2-ylidene)ethyl]-4-methylbenzene-1-sulfonamide
_symmetry_cell_setting           monoclinic
_symmetry_space_group_name_H-M   'P 21/n'
_symmetry_Int_Tables_number      14
_space_group_name_Hall           '-P 2yn'
loop_
_symmetry_equiv_pos_site_id
_symmetry_equiv_pos_as_xyz
1 x,y,z
2 1/2-x,1/2+y,1/2-z
3 -x,-y,-z
4 1/2+x,1/2-y,1/2+z
_cell_length_a                   11.0053(2)
_cell_length_b                   6.18540(10)
_cell_length_c                   29.1965(4)
_cell_angle_alpha                90
_cell_angle_beta                 95.4070(10)
_cell_angle_gamma                90
_cell_volume                     1978.63
_exptl_crystal_colour            yellow
_exptl_crystal_description       Plate
_cell_formula_units_Z            4
loop_
_atom_site_label
_atom_site_type_symbol
_atom_site_fract_x
_atom_site_fract_y
_atom_site_fract_z
O1 O 0.1593(3) 1.0053(5) 0.24535(11)
N1 N 0.1731(3) 0.7308(5) 0.30584(11)
H1 H 0.2308 0.6745 0.2950
C1 C -0.0164(3) 0.7226(6) 0.23821(13)
S1 S 0.08226(8) 0.88852(15) 0.27400(3)
I1 I 0.51124(3) 0.38636(5) 0.39886(2)
I2 I -0.06312(2) 0.37109(5) 0.40738(2)
O2 O 0.0094(3) 1.0088(5) 0.30322(11)
C2 C 0.0288(4) 0.5334(7) 0.22022(15)
H2 H 0.1118 0.4936 0.2274
C3 C -0.0483(4) 0.4038(7) 0.19181(16)
H3 H -0.0182 0.2737 0.1798
C4 C -0.1702(4) 0.4630(7) 0.18062(14)
C5 C -0.2131(4) 0.6551(7) 0.19826(15)
H4 H -0.2952 0.6984 0.1903
C6 C -0.1366(3) 0.7835(6) 0.22736(13)
H5 H -0.1668 0.9126 0.2398
C7 C -0.2528(5) 0.3210(8) 0.14951(18)
H6 H -0.3372 0.3718 0.1494
H7 H -0.2472 0.1716 0.1607
H8 H -0.2278 0.3272 0.1182
C8 C 0.1188(4) 0.5738(6) 0.33603(13)
H9 H 0.0743 0.4601 0.3174
H10 H 0.0608 0.6472 0.3548
C9 C 0.2219(4) 0.4761(6) 0.36654(13)
H11 H 0.3001 0.5067 0.3569
C10 C 0.2260(4) 0.3545(6) 0.40468(13)
C11 C 0.1228(4) 0.2625(6) 0.43030(14)
C12 C 0.1398(4) 0.3224(7) 0.48163(14)
H12 H 0.1408 0.4816 0.4851
H13 H 0.0707 0.2650 0.4974
C13 C 0.2593(4) 0.2281(7) 0.50359(13)
H14 H 0.2700 0.2662 0.5370
C14 C 0.3646(4) 0.3244(7) 0.47901(14)
H15 H 0.3654 0.4836 0.4824
H16 H 0.4435 0.2674 0.4931
C15 C 0.3480(4) 0.2648(6) 0.42824(13)
C16 C 0.1210(4) 0.0152(7) 0.42447(16)
H17 H 0.0521 -0.0475 0.4395
H18 H 0.1106 -0.0228 0.3914
C17 C 0.2582(5) -0.0186(7) 0.49792(15)
H19 H 0.3358 -0.0800 0.5122
H20 H 0.1904 -0.0814 0.5135
C18 C 0.2425(5) -0.0751(7) 0.44671(17)
H21 H 0.2420 -0.2359 0.4433
C19 C 0.3476(4) 0.0176(7) 0.42222(16)
H22 H 0.3369 -0.0198 0.3891
H23 H 0.4262 -0.0437 0.4356
loop_
_geom_bond_atom_site_label_1
_geom_bond_atom_site_label_2
_geom_bond_site_symmetry_1
_geom_bond_site_symmetry_2
O1 S1 1_555 1_555
N1 H1 1_555 1_555
C1 S1 1_555 1_555
S1 N1 1_555 1_555
I1 C15 1_555 1_555
I2 C11 1_555 1_555
O2 S1 1_555 1_555
C2 C1 1_555 1_555
H2 C2 1_555 1_555
C3 C2 1_555 1_555
H3 C3 1_555 1_555
C4 C3 1_555 1_555
C5 C4 1_555 1_555
H4 C5 1_555 1_555
C6 C1 1_555 1_555
H5 C6 1_555 1_555
C7 C4 1_555 1_555
H6 C7 1_555 1_555
H7 C7 1_555 1_555
H8 C7 1_555 1_555
C8 N1 1_555 1_555
H9 C8 1_555 1_555
H10 C8 1_555 1_555
C9 C8 1_555 1_555
H11 C9 1_555 1_555
C10 C9 1_555 1_555
C11 C10 1_555 1_555
C12 C11 1_555 1_555
H12 C12 1_555 1_555
H13 C12 1_555 1_555
C13 C12 1_555 1_555
H14 C13 1_555 1_555
C14 C13 1_555 1_555
H15 C14 1_555 1_555
H16 C14 1_555 1_555
C15 C10 1_555 1_555
C16 C11 1_555 1_555
H17 C16 1_555 1_555
H18 C16 1_555 1_555
C17 C13 1_555 1_555
H19 C17 1_555 1_555
H20 C17 1_555 1_555
C18 C16 1_555 1_555
H21 C18 1_555 1_555
C19 C15 1_555 1_555
H22 C19 1_555 1_555
H23 C19 1_555 1_555
C5 C6 1_555 1_555
C14 C15 1_555 1_555
C17 C18 1_555 1_555
C18 C19 1_555 1_555

#END
