
#######################################################################
#
#                 Cambridge Crystallographic Data Centre
#                                CCDC 
#
#######################################################################
#
# If this CIF has been generated from an entry in the Cambridge 
# Structural Database, then it will include bibliographic, chemical, 
# crystal, experimental, refinement or atomic coordinate data resulting 
# from the CCDC's data processing and validation procedures.
#
#######################################################################

data_HIRCUJ
_chemical_formula_moiety         'C14 H23 N1 O2 S1'
_chemical_name_systematic        
1-(methylsulfonyl)spiro[pyrrolidine-2,2'-tricyclo[3.3.1.1^3,7^]decane]
_symmetry_cell_setting           monoclinic
_symmetry_space_group_name_H-M   'P 21/c'
_symmetry_Int_Tables_number      14
_space_group_name_Hall           '-P 2ybc'
loop_
_symmetry_equiv_pos_site_id
_symmetry_equiv_pos_as_xyz
1 x,y,z
2 -x,1/2+y,1/2-z
3 -x,-y,-z
4 x,1/2-y,1/2+z
_cell_length_a                   16.7403(2)
_cell_length_b                   7.45020(8)
_cell_length_c                   10.88900(14)
_cell_angle_alpha                90
_cell_angle_beta                 107.3720(14)
_cell_angle_gamma                90
_cell_volume                     1296.11
_exptl_crystal_colour            colorless
_exptl_crystal_description       Block
_cell_formula_units_Z            4
loop_
_atom_site_label
_atom_site_type_symbol
_atom_site_fract_x
_atom_site_fract_y
_atom_site_fract_z
C1 C 0.63955(6) 0.49698(12) 0.29325(8)
H1 H 0.6747 0.4560 0.2399
H2 H 0.5881 0.5527 0.2363
C2 C 0.61730(6) 0.33766(12) 0.36777(9)
H3 H 0.5559 0.3275 0.3498
H4 H 0.6389 0.2237 0.3433
C3 C 0.65963(5) 0.38003(11) 0.51080(8)
H5 H 0.6830 0.2699 0.5590
H6 H 0.6193 0.4347 0.5503
C4 C 0.72985(5) 0.51365(11) 0.51011(8)
C5 C 0.80333(5) 0.41282(12) 0.47965(8)
H7 H 0.7814 0.3471 0.3963
C6 C 0.84281(6) 0.27727(12) 0.58767(10)
H8 H 0.8003 0.1880 0.5936
H9 H 0.8891 0.2126 0.5678
C7 C 0.87626(6) 0.37630(13) 0.71627(9)
H10 H 0.8998 0.2877 0.7868
C8 C 0.80482(6) 0.48212(13) 0.74438(8)
H11 H 0.8265 0.5462 0.8274
H12 H 0.7607 0.3979 0.7517
C9 C 0.76708(5) 0.61873(11) 0.63610(8)
H13 H 0.7219 0.6888 0.6570
C10 C 0.87165(6) 0.54415(13) 0.46986(9)
H14 H 0.9166 0.4778 0.4473
H15 H 0.8477 0.6328 0.4010
C11 C 0.90834(5) 0.64168(13) 0.59825(9)
H16 H 0.9531 0.7265 0.5912
C12 C 0.94514(6) 0.50689(14) 0.70705(9)
H17 H 0.9915 0.4396 0.6894
H18 H 0.9677 0.5715 0.7896
C13 C 0.83721(5) 0.74729(12) 0.62622(8)
H19 H 0.8142 0.8354 0.5565
H20 H 0.8592 0.8141 0.7080
C14 C 0.54036(6) 0.74336(13) 0.44286(9)
H21 H 0.5026 0.8463 0.4338
H22 H 0.5579 0.7028 0.5326
H23 H 0.5112 0.6456 0.3871
N1 N 0.68651(4) 0.62846(9) 0.39265(7)
O1 O 0.59902(4) 0.87236(9) 0.26698(6)
O2 O 0.67668(4) 0.92971(9) 0.49408(6)
S1 S 0.62976(2) 0.80754(3) 0.39773(2)
loop_
_geom_bond_atom_site_label_1
_geom_bond_atom_site_label_2
_geom_bond_site_symmetry_1
_geom_bond_site_symmetry_2
C1 H1 1_555 1_555
H2 C1 1_555 1_555
C2 C1 1_555 1_555
H3 C2 1_555 1_555
H4 C2 1_555 1_555
C3 C2 1_555 1_555
H5 C3 1_555 1_555
H6 C3 1_555 1_555
C4 C3 1_555 1_555
C5 C4 1_555 1_555
H7 C5 1_555 1_555
C6 C5 1_555 1_555
H8 C6 1_555 1_555
H9 C6 1_555 1_555
C7 C6 1_555 1_555
H10 C7 1_555 1_555
C8 C7 1_555 1_555
H11 C8 1_555 1_555
H12 C8 1_555 1_555
C9 C4 1_555 1_555
H13 C9 1_555 1_555
C10 C5 1_555 1_555
H14 C10 1_555 1_555
H15 C10 1_555 1_555
C11 C10 1_555 1_555
H16 C11 1_555 1_555
C12 C7 1_555 1_555
H17 C12 1_555 1_555
H18 C12 1_555 1_555
C13 C9 1_555 1_555
H19 C13 1_555 1_555
H20 C13 1_555 1_555
C14 H21 1_555 1_555
H22 C14 1_555 1_555
H23 C14 1_555 1_555
N1 C1 1_555 1_555
O1 S1 1_555 1_555
O2 S1 1_555 1_555
S1 C14 1_555 1_555
C4 N1 1_555 1_555
C8 C9 1_555 1_555
C11 C12 1_555 1_555
C11 C13 1_555 1_555
N1 S1 1_555 1_555

#END
