
#######################################################################
#
#                 Cambridge Crystallographic Data Centre
#                                CCDC 
#
#######################################################################
#
# If this CIF has been generated from an entry in the Cambridge 
# Structural Database, then it will include bibliographic, chemical, 
# crystal, experimental, refinement or atomic coordinate data resulting 
# from the CCDC's data processing and validation procedures.
#
#######################################################################

data_HIRCIV
_chemical_formula_moiety         'C26 H19 Br1 N2 O2'
_chemical_name_systematic        
4-Bromo-2-((2-(2-hydroxybenzylideneamino)phenylimino)(phenyl)methyl)phenol
_symmetry_cell_setting           triclinic
_symmetry_space_group_name_H-M   'P -1'
_symmetry_Int_Tables_number      2
_space_group_name_Hall           '-P 1'
loop_
_symmetry_equiv_pos_site_id
_symmetry_equiv_pos_as_xyz
1 x,y,z
2 -x,-y,-z
_cell_length_a                   9.1682(18)
_cell_length_b                   9.7011(19)
_cell_length_c                   12.986(3)
_cell_angle_alpha                90.87(3)
_cell_angle_beta                 108.79(3)
_cell_angle_gamma                94.09(3)
_cell_volume                     1089.77
_exptl_crystal_colour            colorless
_exptl_crystal_description       block
_cell_formula_units_Z            2
_exptl_crystal_recrystallization_method 'ethanol/ethyl acetate'
loop_
_atom_site_label
_atom_site_type_symbol
_atom_site_fract_x
_atom_site_fract_y
_atom_site_fract_z
Br1 Br 0.10044(3) 0.19363(3) 0.02361(3)
O1 O -0.4811(3) 0.3545(2) 0.0968(2)
O2 O -0.2232(3) 0.3849(3) 0.4416(2)
N1 N -0.4694(3) 0.2214(2) 0.41956(17)
N2 N -0.4777(3) 0.1461(2) 0.21221(16)
C1 C -0.3534(3) 0.3110(3) 0.0812(2)
C2 C -0.2881(3) 0.3884(3) 0.0147(2)
H1 H -0.3349 0.4655 -0.0183
C3 C -0.1559(3) 0.3518(3) -0.0024(2)
H2 H -0.1128 0.4043 -0.0462
C4 C -0.0870(3) 0.2371(3) 0.0456(2)
C5 C -0.1511(3) 0.1557(3) 0.10858(19)
H3 H -0.1042 0.0773 0.1389
C6 C -0.2872(3) 0.1906(2) 0.12716(18)
C7 C -0.3600(3) 0.1023(3) 0.19163(18)
C8 C -0.2987(3) -0.0321(3) 0.2296(2)
C9 C -0.3297(4) -0.1462(3) 0.1588(3)
H4 H -0.3842 -0.1378 0.0855
C10 C -0.2800(5) -0.2733(4) 0.1967(4)
H5 H -0.3017 -0.3502 0.1491
C11 C -0.1981(5) -0.2849(4) 0.3055(4)
H6 H -0.1650 -0.3700 0.3312
C12 C -0.1656(4) -0.1727(4) 0.3750(3)
H7 H -0.1094 -0.1811 0.4480
C13 C -0.2157(3) -0.0453(3) 0.3376(2)
H8 H -0.1932 0.0312 0.3857
C14 C -0.2425(4) 0.4371(3) 0.5333(2)
C15 C -0.1351(4) 0.5408(3) 0.5954(3)
H9 H -0.0526 0.5739 0.5733
C16 C -0.1522(4) 0.5937(3) 0.6893(3)
H10 H -0.0805 0.6626 0.7304
C17 C -0.2734(4) 0.5464(4) 0.7236(3)
H11 H -0.2829 0.5829 0.7875
C18 C -0.3795(4) 0.4459(3) 0.6633(2)
H12 H -0.4617 0.4147 0.6864
C19 C -0.3663(3) 0.3888(3) 0.5670(2)
C20 C -0.4790(3) 0.2801(3) 0.5055(2)
H13 H -0.5612 0.2521 0.5296
C21 C -0.5766(3) 0.1108(3) 0.3638(2)
C22 C -0.6821(3) 0.0394(3) 0.4052(2)
H14 H -0.6867 0.0666 0.4730
C23 C -0.7793(3) -0.0705(3) 0.3476(3)
H15 H -0.8508 -0.1147 0.3756
C24 C -0.7710(3) -0.1143(3) 0.2498(2)
H16 H -0.8352 -0.1896 0.2118
C25 C -0.6669(3) -0.0467(3) 0.2071(2)
H17 H -0.6617 -0.0770 0.1401
C26 C -0.5700(3) 0.0657(3) 0.2628(2)
H18 H -0.500(4) 0.301(3) 0.139(3)
H19 H -0.290(4) 0.323(4) 0.415(3)
loop_
_geom_bond_atom_site_label_1
_geom_bond_atom_site_label_2
_geom_bond_site_symmetry_1
_geom_bond_site_symmetry_2
Br1 C4 1_555 1_555
O1 C1 1_555 1_555
O2 C14 1_555 1_555
N1 C20 1_555 1_555
N2 C7 1_555 1_555
C1 C2 1_555 1_555
C2 H1 1_555 1_555
C3 C2 1_555 1_555
H2 C3 1_555 1_555
C4 C3 1_555 1_555
C5 C4 1_555 1_555
H3 C5 1_555 1_555
C6 C1 1_555 1_555
C7 C6 1_555 1_555
C8 C7 1_555 1_555
C9 C8 1_555 1_555
H4 C9 1_555 1_555
C10 C9 1_555 1_555
H5 C10 1_555 1_555
C11 C10 1_555 1_555
H6 C11 1_555 1_555
C12 C11 1_555 1_555
H7 C12 1_555 1_555
C13 C8 1_555 1_555
H8 C13 1_555 1_555
C14 C15 1_555 1_555
C15 H9 1_555 1_555
C16 C15 1_555 1_555
H10 C16 1_555 1_555
C17 C16 1_555 1_555
H11 C17 1_555 1_555
C18 C17 1_555 1_555
H12 C18 1_555 1_555
C19 C14 1_555 1_555
C20 C19 1_555 1_555
H13 C20 1_555 1_555
C21 N1 1_555 1_555
C22 C21 1_555 1_555
H14 C22 1_555 1_555
C23 C22 1_555 1_555
H15 C23 1_555 1_555
C24 C23 1_555 1_555
H16 C24 1_555 1_555
C25 C24 1_555 1_555
H17 C25 1_555 1_555
C26 N2 1_555 1_555
H18 O1 1_555 1_555
H19 O2 1_555 1_555
C5 C6 1_555 1_555
C12 C13 1_555 1_555
C18 C19 1_555 1_555
C21 C26 1_555 1_555
C25 C26 1_555 1_555

#END
