
#######################################################################
#
#                 Cambridge Crystallographic Data Centre
#                                CCDC 
#
#######################################################################
#
# If this CIF has been generated from an entry in the Cambridge 
# Structural Database, then it will include bibliographic, chemical, 
# crystal, experimental, refinement or atomic coordinate data resulting 
# from the CCDC's data processing and validation procedures.
#
#######################################################################

data_HIRDOE
_chemical_formula_moiety         'C19 H24 Cl1 N1 O2 S1'
_chemical_name_systematic        
3-chloro-1-[(4-methylphenyl)sulfonyl]spiro[azetidine-2,2'-tricyclo[3.3.1.1^3,7^]decane]
_symmetry_cell_setting           triclinic
_symmetry_space_group_name_H-M   'P -1'
_symmetry_Int_Tables_number      2
_space_group_name_Hall           '-P 1'
loop_
_symmetry_equiv_pos_site_id
_symmetry_equiv_pos_as_xyz
1 x,y,z
2 -x,-y,-z
_cell_length_a                   12.24825(13)
_cell_length_b                   16.86662(18)
_cell_length_c                   17.04271(17)
_cell_angle_alpha                89.3167(8)
_cell_angle_beta                 87.5127(8)
_cell_angle_gamma                87.9184(9)
_cell_volume                     3514.97
_exptl_crystal_colour            colorless
_exptl_crystal_description       block
_cell_formula_units_Z            8
loop_
_atom_site_label
_atom_site_type_symbol
_atom_site_fract_x
_atom_site_fract_y
_atom_site_fract_z
C1 C 0.34165(10) 0.87218(6) 0.27400(6)
H1 H 0.4065 0.8436 0.2915
H2 H 0.2780 0.8397 0.2799
C2 C 0.32432(9) 0.95475(6) 0.30937(6)
H3 H 0.2553 0.9610 0.3403
C3 C 0.33174(9) 1.13364(6) 0.25314(6)
H4 H 0.3349 1.1207 0.3086
H5 H 0.3729 1.1810 0.2429
C4 C 0.38347(8) 1.06416(6) 0.20415(6)
H6 H 0.4600 1.0548 0.2172
C5 C 0.31803(8) 0.99062(6) 0.22478(6)
C6 C 0.21223(9) 1.14969(6) 0.23221(6)
H7 H 0.1808 1.1939 0.2635
C7 C 0.20540(10) 1.17013(6) 0.14449(7)
H8 H 0.1296 1.1791 0.1315
H9 H 0.2440 1.2183 0.1324
C8 C 0.25680(10) 1.10121(6) 0.09600(6)
H10 H 0.2532 1.1141 0.0399
C9 C 0.19475(9) 1.02521(6) 0.11452(6)
H11 H 0.2279 0.9816 0.0843
H12 H 0.1194 1.0326 0.0999
C10 C 0.19823(8) 1.00534(6) 0.20270(6)
H13 H 0.1569 0.9576 0.2144
C11 C 0.37649(9) 1.08689(6) 0.11685(6)
H14 H 0.4166 1.1346 0.1060
H15 H 0.4095 1.0446 0.0847
C12 C 0.14798(9) 1.07504(6) 0.25071(6)
H16 H 0.0722 1.0843 0.2378
H17 H 0.1501 1.0625 0.3063
C13 C 0.57661(8) 0.91241(6) 0.15050(6)
C14 C 0.62445(9) 0.96742(6) 0.09967(6)
H18 H 0.5880 0.9861 0.0561
C15 C 0.72743(9) 0.99418(7) 0.11469(7)
H19 H 0.7597 1.0308 0.0806
C16 C 0.73271(9) 0.91250(7) 0.23107(7)
H20 H 0.7683 0.8947 0.2754
C17 C 0.78316(9) 0.96703(7) 0.18010(7)
C18 C 0.89567(10) 0.99440(8) 0.19463(8)
H21 H 0.9018 1.0037 0.2497
H22 H 0.9082 1.0426 0.1657
H23 H 0.9490 0.9543 0.1778
C19 C 0.63050(9) 0.88465(7) 0.21658(6)
H24 H 0.5981 0.8479 0.2505
S1 S 0.44803(2) 0.87543(2) 0.13093(2)
Cl1 Cl 0.44064(2) 0.98153(2) 0.36250(2)
O1 O 0.42052(7) 0.90389(5) 0.05422(4)
N1 N 0.35628(7) 0.90886(5) 0.19442(5)
O2 O 0.45344(7) 0.79119(5) 0.14603(5)
C20 C 1.14009(10) 0.72055(7) 0.37150(6)
H25 H 1.2073 0.7147 0.3395
H26 H 1.0781 0.7039 0.3431
O3 O 1.03951(7) 0.85024(5) 0.29046(5)
Cl2 Cl 1.02901(3) 0.62677(2) 0.47876(2)
N2 N 1.12339(7) 0.80018(5) 0.40747(5)
S2 S 1.03711(2) 0.86555(2) 0.37347(2)
C21 C 1.14716(9) 0.68288(6) 0.45329(6)
H27 H 1.2158 0.6522 0.4598
O4 O 1.06457(7) 0.94265(5) 0.40003(5)
C22 C 1.14911(8) 0.76767(6) 0.48897(5)
C23 C 1.26679(8) 0.78855(6) 0.50684(6)
H28 H 1.3155 0.7774 0.4609
C24 C 1.30400(10) 0.73808(7) 0.57713(7)
H29 H 1.3033 0.6822 0.5643
H30 H 1.3781 0.7506 0.5890
C25 C 1.22711(11) 0.75511(7) 0.64847(6)
H31 H 1.2500 0.7220 0.6929
C26 C 1.23327(12) 0.84302(7) 0.66996(7)
H32 H 1.1867 0.8544 0.7162
H33 H 1.3077 0.8549 0.6815
C27 C 1.19558(10) 0.89438(7) 0.60043(6)
H34 H 1.1988 0.9506 0.6137
C28 C 1.07828(10) 0.87542(7) 0.58233(6)
H35 H 1.0538 0.9091 0.5396
H36 H 1.0304 0.8861 0.6281
C29 C 1.07186(9) 0.78771(6) 0.55945(6)
H37 H 0.9966 0.7757 0.5477
C30 C 1.26964(9) 0.87702(7) 0.52727(6)
H38 H 1.3440 0.8907 0.5371
H39 H 1.2449 0.9091 0.4834
C31 C 1.11021(11) 0.73615(7) 0.62919(6)
H40 H 1.0617 0.7461 0.6748
H41 H 1.1071 0.6805 0.6161
C32 C 0.90407(8) 0.84762(6) 0.41160(6)
C33 C 0.85094(9) 0.78090(7) 0.38697(7)
H42 H 0.8854 0.7463 0.3509
C34 C 0.74613(10) 0.76697(7) 0.41701(7)
H43 H 0.7110 0.7221 0.4015
C35 C 0.69263(9) 0.81906(7) 0.47006(7)
C36 C 0.74670(9) 0.88564(7) 0.49341(7)
H44 H 0.7117 0.9208 0.5287
C37 C 0.85230(9) 0.90022(6) 0.46465(7)
H45 H 0.8878 0.9446 0.4807
C38 C 0.57779(10) 0.80483(9) 0.50049(8)
H46 H 0.5639 0.8324 0.5491
H47 H 0.5692 0.7490 0.5091
H48 H 0.5270 0.8240 0.4627
C39 C 0.36050(9) 0.63058(6) 0.22683(6)
H49 H 0.4238 0.6598 0.2089
H50 H 0.2938 0.6628 0.2223
N3 N 0.37170(7) 0.59286(5) 0.30554(5)
O5 O 0.45357(7) 0.71035(5) 0.35304(5)
Cl3 Cl 0.47791(2) 0.52434(2) 0.13248(2)
S3 S 0.45376(2) 0.62612(2) 0.36857(2)
C40 C 0.35565(9) 0.54867(6) 0.19008(6)
H51 H 0.2892 0.5423 0.1611
O6 O 0.42024(7) 0.59815(5) 0.44564(4)
C41 C 0.34817(8) 0.51088(6) 0.27421(5)
C42 C 0.22899(8) 0.49180(6) 0.29770(6)
H52 H 0.1810 0.5383 0.2878
C43 C 0.19485(9) 0.42172(7) 0.24861(7)
H53 H 0.1198 0.4092 0.2626
H54 H 0.1995 0.4358 0.1932
C44 C 0.27040(10) 0.34950(6) 0.26413(7)
H55 H 0.2496 0.3052 0.2320
C45 C 0.25893(10) 0.32593(7) 0.35135(7)
H56 H 0.1837 0.3136 0.3650
H57 H 0.3049 0.2792 0.3615
C46 C 0.29347(10) 0.39522(6) 0.40122(6)
H58 H 0.2866 0.3807 0.4570
C47 C 0.41236(9) 0.41455(6) 0.37939(6)
H59 H 0.4596 0.3683 0.3887
H60 H 0.4349 0.4572 0.4121
C48 C 0.42386(8) 0.43956(6) 0.29243(6)
H61 H 0.4999 0.4520 0.2787
C49 C 0.22063(9) 0.46921(6) 0.38541(6)
H62 H 0.2434 0.5130 0.4165
H63 H 0.1453 0.4587 0.4008
C50 C 0.38891(9) 0.36991(6) 0.24247(6)
H64 H 0.3956 0.3842 0.1872
H65 H 0.4368 0.3239 0.2513
C51 C 0.58807(8) 0.58780(6) 0.34860(6)
C52 C 0.64519(9) 0.61227(7) 0.28043(7)
H66 H 0.6129 0.6483 0.2459
C53 C 0.75072(10) 0.58217(7) 0.26485(7)
H67 H 0.7886 0.5976 0.2190
C54 C 0.80117(9) 0.52906(7) 0.31688(7)
C55 C 0.74278(9) 0.50641(7) 0.38519(7)
H68 H 0.7755 0.4715 0.4205
C56 C 0.63641(9) 0.53523(7) 0.40117(6)
H69 H 0.5980 0.5194 0.4466
C57 C 0.91603(10) 0.49734(9) 0.30010(9)
H70 H 0.9321 0.4546 0.3359
H71 H 0.9664 0.5389 0.3065
H72 H 0.9229 0.4783 0.2472
C58 C 1.15251(10) 0.77807(7) 0.12301(6)
H73 H 1.2148 0.7844 0.1553
H74 H 1.0853 0.7964 0.1502
O7 O 1.09800(7) 0.55550(5) 0.10048(5)
S4 S 1.06210(2) 0.63354(2) 0.12573(2)
Cl4 Cl 1.04834(2) 0.86799(2) 0.01113(2)
N4 N 1.14688(7) 0.69730(5) 0.08973(5)
C59 C 1.16797(9) 0.81252(6) 0.03994(6)
H75 H 1.2348 0.8425 0.0329
O8 O 1.05468(7) 0.65027(5) 0.20844(5)
C60 C 1.18181(8) 0.72638(6) 0.00741(5)
C61 C 1.30356(8) 0.70315(6) -0.00782(6)
H76 H 1.3445 0.7156 0.0383
C62 C 1.34863(9) 0.74949(7) -0.07948(6)
H77 H 1.3420 0.8060 -0.0694
H78 H 1.4254 0.7353 -0.0892
C63 C 1.28455(9) 0.72995(7) -0.15145(6)
H79 H 1.3124 0.7603 -0.1970
C64 C 1.29874(10) 0.64076(7) -0.16817(6)
H80 H 1.2599 0.6280 -0.2145
H81 H 1.3756 0.6267 -0.1779
C65 C 1.25345(10) 0.59374(7) -0.09720(6)
H82 H 1.2621 0.5368 -0.1076
C66 C 1.13189(9) 0.61606(6) -0.08228(6)
H83 H 1.1026 0.5849 -0.0386
H84 H 1.0919 0.6042 -0.1284
C67 C 1.11716(8) 0.70488(6) -0.06361(6)
H85 H 1.0395 0.7190 -0.0539
C68 C 1.16336(9) 0.75242(7) -0.13501(6)
H86 H 1.1224 0.7414 -0.1809
H87 H 1.1552 0.8088 -0.1245
C69 C 1.31515(9) 0.61365(7) -0.02395(6)
H88 H 1.3919 0.5982 -0.0319
H89 H 1.2858 0.5842 0.0209
C70 C 0.93147(8) 0.65258(6) 0.08854(6)
C71 C 0.88995(9) 0.60037(6) 0.03590(7)
H90 H 0.9312 0.5557 0.0196
C72 C 0.78636(9) 0.61541(7) 0.00769(7)
H91 H 0.7584 0.5803 -0.0273
C73 C 0.72383(9) 0.68235(7) 0.03103(6)
C74 C 0.76696(10) 0.73425(7) 0.08380(7)
H92 H 0.7261 0.7793 0.0996
C75 C 0.61128(10) 0.69765(9) 0.00101(8)
H93 H 0.6000 0.7534 -0.0092
H94 H 0.5576 0.6805 0.0397
H95 H 0.6044 0.6688 -0.0466
C76 C 0.86992(9) 0.71976(7) 0.11311(7)
H96 H 0.8976 0.7544 0.1487
loop_
_geom_bond_atom_site_label_1
_geom_bond_atom_site_label_2
_geom_bond_site_symmetry_1
_geom_bond_site_symmetry_2
C1 H1 1_555 1_555
H2 C1 1_555 1_555
C2 C1 1_555 1_555
H3 C2 1_555 1_555
C3 H4 1_555 1_555
H5 C3 1_555 1_555
C4 C3 1_555 1_555
H6 C4 1_555 1_555
C5 C2 1_555 1_555
C6 C3 1_555 1_555
H7 C6 1_555 1_555
C7 C6 1_555 1_555
H8 C7 1_555 1_555
H9 C7 1_555 1_555
C8 C7 1_555 1_555
H10 C8 1_555 1_555
C9 C8 1_555 1_555
H11 C9 1_555 1_555
H12 C9 1_555 1_555
C10 C5 1_555 1_555
H13 C10 1_555 1_555
C11 C4 1_555 1_555
H14 C11 1_555 1_555
H15 C11 1_555 1_555
C12 C6 1_555 1_555
H16 C12 1_555 1_555
H17 C12 1_555 1_555
C13 C14 1_555 1_555
C14 H18 1_555 1_555
C15 C14 1_555 1_555
H19 C15 1_555 1_555
C16 H20 1_555 1_555
C17 C15 1_555 1_555
C18 C17 1_555 1_555
H21 C18 1_555 1_555
H22 C18 1_555 1_555
H23 C18 1_555 1_555
C19 C13 1_555 1_555
H24 C19 1_555 1_555
S1 C13 1_555 1_555
Cl1 C2 1_555 1_555
O1 S1 1_555 1_555
N1 C1 1_555 1_555
O2 S1 1_555 1_555
C20 H25 1_555 1_555
H26 C20 1_555 1_555
O3 S2 1_555 1_555
Cl2 C21 1_555 1_555
N2 C20 1_555 1_555
S2 N2 1_555 1_555
C21 C20 1_555 1_555
H27 C21 1_555 1_555
O4 S2 1_555 1_555
C22 N2 1_555 1_555
C23 C22 1_555 1_555
H28 C23 1_555 1_555
C24 C23 1_555 1_555
H29 C24 1_555 1_555
H30 C24 1_555 1_555
C25 C24 1_555 1_555
H31 C25 1_555 1_555
C26 C25 1_555 1_555
H32 C26 1_555 1_555
H33 C26 1_555 1_555
C27 C26 1_555 1_555
H34 C27 1_555 1_555
C28 C27 1_555 1_555
H35 C28 1_555 1_555
H36 C28 1_555 1_555
C29 C22 1_555 1_555
H37 C29 1_555 1_555
C30 C23 1_555 1_555
H38 C30 1_555 1_555
H39 C30 1_555 1_555
C31 C25 1_555 1_555
H40 C31 1_555 1_555
H41 C31 1_555 1_555
C32 S2 1_555 1_555
C33 C32 1_555 1_555
H42 C33 1_555 1_555
C34 C33 1_555 1_555
H43 C34 1_555 1_555
C35 C34 1_555 1_555
C36 C35 1_555 1_555
H44 C36 1_555 1_555
C37 C32 1_555 1_555
H45 C37 1_555 1_555
C38 C35 1_555 1_555
H46 C38 1_555 1_555
H47 C38 1_555 1_555
H48 C38 1_555 1_555
C39 H49 1_555 1_555
H50 C39 1_555 1_555
N3 C39 1_555 1_555
O5 S3 1_555 1_555
Cl3 C40 1_555 1_555
S3 N3 1_555 1_555
C40 C39 1_555 1_555
H51 C40 1_555 1_555
O6 S3 1_555 1_555
C41 N3 1_555 1_555
C42 C41 1_555 1_555
H52 C42 1_555 1_555
C43 C42 1_555 1_555
H53 C43 1_555 1_555
H54 C43 1_555 1_555
C44 C43 1_555 1_555
H55 C44 1_555 1_555
C45 C44 1_555 1_555
H56 C45 1_555 1_555
H57 C45 1_555 1_555
C46 C45 1_555 1_555
H58 C46 1_555 1_555
C47 C46 1_555 1_555
H59 C47 1_555 1_555
H60 C47 1_555 1_555
C48 C41 1_555 1_555
H61 C48 1_555 1_555
C49 C42 1_555 1_555
H62 C49 1_555 1_555
H63 C49 1_555 1_555
C50 C44 1_555 1_555
H64 C50 1_555 1_555
H65 C50 1_555 1_555
C51 S3 1_555 1_555
C52 C51 1_555 1_555
H66 C52 1_555 1_555
C53 C52 1_555 1_555
H67 C53 1_555 1_555
C54 C53 1_555 1_555
C55 C54 1_555 1_555
H68 C55 1_555 1_555
C56 C51 1_555 1_555
H69 C56 1_555 1_555
C57 C54 1_555 1_555
H70 C57 1_555 1_555
H71 C57 1_555 1_555
H72 C57 1_555 1_555
C58 H73 1_555 1_555
H74 C58 1_555 1_555
O7 S4 1_555 1_555
S4 N4 1_555 1_555
Cl4 C59 1_555 1_555
N4 C58 1_555 1_555
C59 C58 1_555 1_555
H75 C59 1_555 1_555
O8 S4 1_555 1_555
C60 N4 1_555 1_555
C61 C60 1_555 1_555
H76 C61 1_555 1_555
C62 C61 1_555 1_555
H77 C62 1_555 1_555
H78 C62 1_555 1_555
C63 C62 1_555 1_555
H79 C63 1_555 1_555
C64 C63 1_555 1_555
H80 C64 1_555 1_555
H81 C64 1_555 1_555
C65 C64 1_555 1_555
H82 C65 1_555 1_555
C66 C65 1_555 1_555
H83 C66 1_555 1_555
H84 C66 1_555 1_555
C67 C60 1_555 1_555
H85 C67 1_555 1_555
C68 C63 1_555 1_555
H86 C68 1_555 1_555
H87 C68 1_555 1_555
C69 C61 1_555 1_555
H88 C69 1_555 1_555
H89 C69 1_555 1_555
C70 S4 1_555 1_555
C71 C70 1_555 1_555
H90 C71 1_555 1_555
C72 C71 1_555 1_555
H91 C72 1_555 1_555
C73 C72 1_555 1_555
C74 C73 1_555 1_555
H92 C74 1_555 1_555
C75 C73 1_555 1_555
H93 C75 1_555 1_555
H94 C75 1_555 1_555
H95 C75 1_555 1_555
C76 C70 1_555 1_555
H96 C76 1_555 1_555
C4 C5 1_555 1_555
C5 N1 1_555 1_555
C8 C11 1_555 1_555
C9 C10 1_555 1_555
C10 C12 1_555 1_555
C16 C17 1_555 1_555
C16 C19 1_555 1_555
S1 N1 1_555 1_555
C21 C22 1_555 1_555
C27 C30 1_555 1_555
C28 C29 1_555 1_555
C29 C31 1_555 1_555
C36 C37 1_555 1_555
C40 C41 1_555 1_555
C46 C49 1_555 1_555
C47 C48 1_555 1_555
C48 C50 1_555 1_555
C55 C56 1_555 1_555
C59 C60 1_555 1_555
C65 C69 1_555 1_555
C66 C67 1_555 1_555
C67 C68 1_555 1_555
C74 C76 1_555 1_555

#END
