
#######################################################################
#
#                 Cambridge Crystallographic Data Centre
#                                CCDC 
#
#######################################################################
#
# If this CIF has been generated from an entry in the Cambridge 
# Structural Database, then it will include bibliographic, chemical, 
# crystal, experimental, refinement or atomic coordinate data resulting 
# from the CCDC's data processing and validation procedures.
#
#######################################################################

data_HIRDIY
_chemical_formula_moiety         'C19 H22 I3 N1 O2 S1'
_chemical_name_systematic        
1-[(4-methylphenyl)sulfonyl]-2-(1,2,3-triiodotricyclo[3.3.1.1^3,7^]decan-2-yl)aziridine
_symmetry_cell_setting           monoclinic
_symmetry_space_group_name_H-M   'P 21/c'
_symmetry_Int_Tables_number      14
_space_group_name_Hall           '-P 2ybc'
loop_
_symmetry_equiv_pos_site_id
_symmetry_equiv_pos_as_xyz
1 x,y,z
2 -x,1/2+y,1/2-z
3 -x,-y,-z
4 x,1/2-y,1/2+z
_cell_length_a                   16.74294(13)
_cell_length_b                   7.69626(5)
_cell_length_c                   17.13630(13)
_cell_angle_alpha                90
_cell_angle_beta                 107.5359(8)
_cell_angle_gamma                90
_cell_volume                     2105.53
_exptl_crystal_colour            colorless
_exptl_crystal_description       block
_cell_formula_units_Z            4
loop_
_atom_site_label
_atom_site_type_symbol
_atom_site_fract_x
_atom_site_fract_y
_atom_site_fract_z
I1 I 0.80550(2) 0.37534(2) 0.41751(2)
I2 I 0.79210(2) 0.42289(2) 0.19404(2)
I3 I 0.79137(2) 0.89137(2) 0.12702(2)
S1 S 0.62882(18) 0.9008(4) 0.34733(16)
O1 O 0.5773(3) 0.9517(7) 0.2679(3)
O2 O 0.6919(3) 1.0176(6) 0.3932(3)
N1 N 0.67760(14) 0.7125(3) 0.33713(14)
C1 C 0.56235(16) 0.8309(3) 0.40096(17)
C2 C 0.48362(17) 0.7587(4) 0.36497(17)
H1 H 0.4622 0.7484 0.3084
C3 C 0.43779(17) 0.7026(4) 0.41544(19)
H2 H 0.3849 0.6548 0.3922
C4 C 0.46928(18) 0.7164(3) 0.50035(18)
C5 C 0.54840(19) 0.7888(4) 0.53442(18)
H3 H 0.5700 0.7987 0.5910
C6 C 0.59564(17) 0.8465(4) 0.48543(18)
H4 H 0.6485 0.8946 0.5086
C7 C 0.4184(2) 0.6549(4) 0.5543(2)
H5 H 0.4538 0.6473 0.6099
H6 H 0.3952 0.5426 0.5363
H7 H 0.3738 0.7358 0.5510
C8 C 0.94062(15) 0.7438(3) 0.25459(16)
H8 H 0.9682 0.8402 0.2368
H9 H 0.9380 0.6472 0.2176
C9 C 0.64117(17) 0.5854(4) 0.27170(17)
H10 H 0.5857 0.6092 0.2349
H11 H 0.6533 0.4634 0.2840
C10 C 0.71113(16) 0.6987(3) 0.26603(16)
H12 H 0.6926 0.7938 0.2266
C11 C 0.80275(15) 0.6461(3) 0.27894(15)
C12 C 0.85741(15) 0.5950(3) 0.36763(15)
C13 C 0.86465(16) 0.7503(3) 0.42660(15)
H13 H 0.8093 0.7861 0.4273
H14 H 0.8967 0.7166 0.4817
C14 C 0.90833(17) 0.9011(3) 0.39743(16)
H15 H 0.9121 1.0006 0.4341
C15 C 0.99673(16) 0.8463(4) 0.39941(17)
H16 H 1.0289 0.8142 0.4547
H17 H 1.0250 0.9422 0.3821
C16 C 0.99040(15) 0.6911(4) 0.34179(16)
H18 H 1.0468 0.6548 0.3428
C17 C 0.85204(15) 0.7970(3) 0.25283(15)
C18 C 0.85711(16) 0.9536(3) 0.31019(16)
H19 H 0.8837 1.0509 0.2919
H20 H 0.8012 0.9887 0.3093
C19 C 0.94597(15) 0.5395(3) 0.36963(16)
H21 H 0.9429 0.4407 0.3337
H22 H 0.9775 0.5050 0.4247
S2? S 0.61660(18) 0.8882(4) 0.32982(16)
O3? O 0.5600(3) 0.9170(7) 0.2499(3)
O4? O 0.6750(3) 1.0223(6) 0.3665(3)
loop_
_geom_bond_atom_site_label_1
_geom_bond_atom_site_label_2
_geom_bond_site_symmetry_1
_geom_bond_site_symmetry_2
I1 C12 1_555 1_555
I2 C11 1_555 1_555
I3 C17 1_555 1_555
S1 O1 1_555 1_555
O2 S1 1_555 1_555
N1 S1 1_555 1_555
C1 S1 1_555 1_555
C2 C1 1_555 1_555
H1 C2 1_555 1_555
C3 C2 1_555 1_555
H2 C3 1_555 1_555
C4 C3 1_555 1_555
C5 C4 1_555 1_555
H3 C5 1_555 1_555
C6 C1 1_555 1_555
H4 C6 1_555 1_555
C7 C4 1_555 1_555
H5 C7 1_555 1_555
H6 C7 1_555 1_555
H7 C7 1_555 1_555
C8 H8 1_555 1_555
H9 C8 1_555 1_555
C9 N1 1_555 1_555
H10 C9 1_555 1_555
H11 C9 1_555 1_555
C10 N1 1_555 1_555
H12 C10 1_555 1_555
C11 C10 1_555 1_555
C12 C11 1_555 1_555
C13 C12 1_555 1_555
H13 C13 1_555 1_555
H14 C13 1_555 1_555
C14 C13 1_555 1_555
H15 C14 1_555 1_555
C15 C14 1_555 1_555
H16 C15 1_555 1_555
H17 C15 1_555 1_555
C16 C8 1_555 1_555
H18 C16 1_555 1_555
C17 C8 1_555 1_555
C18 C14 1_555 1_555
H19 C18 1_555 1_555
H20 C18 1_555 1_555
C19 C12 1_555 1_555
H21 C19 1_555 1_555
H22 C19 1_555 1_555
C5 C6 1_555 1_555
C9 C10 1_555 1_555
C11 C17 1_555 1_555
C15 C16 1_555 1_555
C16 C19 1_555 1_555
C17 C18 1_555 1_555

#END
