
#######################################################################
#
#                 Cambridge Crystallographic Data Centre
#                                CCDC 
#
#######################################################################
#
# If this CIF has been generated from an entry in the Cambridge 
# Structural Database, then it will include bibliographic, chemical, 
# crystal, experimental, refinement or atomic coordinate data resulting 
# from the CCDC's data processing and validation procedures.
#
#######################################################################

data_HIRFEW
_chemical_formula_moiety         'C14 H18 Br3 N1 O2 S1,C2 H3 N1'
_chemical_name_systematic        
'N-[2-(6,6,8-tribromo-6,7,8,9-tetrahydro-5H-benzo[7]annulen-7-yl)ethyl]methanesulfonamide acetonitrile solvate'
_symmetry_cell_setting           orthorhombic
_symmetry_space_group_name_H-M   'P 21 21 21'
_symmetry_Int_Tables_number      19
_space_group_name_Hall           'P 2ac 2ab'
loop_
_symmetry_equiv_pos_site_id
_symmetry_equiv_pos_as_xyz
1 x,y,z
2 1/2-x,-y,1/2+z
3 -x,1/2+y,1/2-z
4 1/2+x,1/2-y,-z
_cell_length_a                   6.84205(16)
_cell_length_b                   9.9441(3)
_cell_length_c                   30.5368(8)
_cell_angle_alpha                90
_cell_angle_beta                 90
_cell_angle_gamma                90
_cell_volume                     2077.66
_exptl_crystal_colour            colorless
_exptl_crystal_description       block
_cell_formula_units_Z            4
loop_
_atom_site_label
_atom_site_type_symbol
_atom_site_fract_x
_atom_site_fract_y
_atom_site_fract_z
Br1 Br 0.5070(2) 0.61796(15) 0.67574(5)
N1 N 0.0389(16) 0.3729(13) 0.7315(4)
H1 H -0.0298 0.4457 0.7229
S1 S -0.0786(5) 0.2907(3) 0.76836(10)
O1 O -0.2786(12) 0.3272(10) 0.7646(3)
C1 C 0.5065(16) 0.3375(13) 0.6633(4)
H2 H 0.5777 0.3394 0.6911
Br2 Br 0.4755(2) 0.05828(15) 0.68225(6)
O2 O -0.0265(15) 0.1551(10) 0.7620(5)
C2 C 0.5729(17) 0.4629(12) 0.6387(4)
H3 H 0.4998 0.4694 0.6112
C3 C 0.7903(19) 0.4738(16) 0.6289(4)
H4 H 0.8196 0.5669 0.6220
H5 H 0.8619 0.4508 0.6553
C4 C 0.8652(17) 0.3879(16) 0.5923(5)
C5 C 0.946(2) 0.454(2) 0.5549(5)
H6 H 0.9511 0.5472 0.5531
C6 C 1.016(2) 0.3723(16) 0.5209(4)
H7 H 1.0703 0.4129 0.4963
C7 C 1.009(2) 0.2415(15) 0.5228(4)
H8 H 1.0593 0.1914 0.4997
C8 C 0.930(2) 0.1772(16) 0.5572(5)
H9 H 0.9259 0.0837 0.5572
C9 C 0.8531(17) 0.2471(16) 0.5929(4)
C10 C 0.7730(18) 0.1819(15) 0.6327(4)
H10 H 0.8470 0.2139 0.6578
H11 H 0.7960 0.0859 0.6304
C11 C 0.5598(19) 0.2029(14) 0.6422(4)
C12 C 0.2834(16) 0.3426(14) 0.6762(4)
H12 H 0.2235 0.4192 0.6618
H13 H 0.2199 0.2621 0.6652
C13 C 0.2472(19) 0.3529(15) 0.7236(4)
H14 H 0.2907 0.2713 0.7380
H15 H 0.3206 0.4278 0.7355
C14 C 0.001(2) 0.345(2) 0.8197(4)
H16 H -0.0449 0.2840 0.8418
H17 H -0.0493 0.4334 0.8254
H18 H 0.1414 0.3475 0.8202
Br3 Br 0.4013(3) 0.1721(3) 0.59097(6)
H19? H 0.4869 0.1941 0.6148
Br4? Br 0.4230(3) 0.4909(3) 0.58436(7)
N2? N 0.718(5) -0.179(4) 0.5634(13)
C15? C 0.877(5) -0.180(3) 0.5457(11)
C16? C 1.069(6) -0.176(5) 0.5239(17)
H20? H 1.1669 -0.2073 0.5439
H21? H 1.0854 -0.0814 0.5190
H22? H 1.0810 -0.2231 0.4966
N3? N 0.8316 -0.1990 0.5702
C17? C 1.0001 -0.1913 0.5645
C18? C 1.2079 -0.1791 0.5566
H23? H 1.2359 -0.0861 0.5622
H24? H 1.2387 -0.1999 0.5267
H25? H 1.2853 -0.2344 0.5757
N4? N 0.4335 -0.2386 0.5373
C19? C 0.5582 -0.1977 0.5596
C20? C 0.7134 -0.1476 0.5872
H26? H 0.6697 -0.1514 0.6171
H27? H 0.7258 -0.0554 0.5783
H28? H 0.8379 -0.1915 0.5847
loop_
_geom_bond_atom_site_label_1
_geom_bond_atom_site_label_2
_geom_bond_site_symmetry_1
_geom_bond_site_symmetry_2
Br1 C2 1_555 1_555
N1 H1 1_555 1_555
S1 N1 1_555 1_555
O1 S1 1_555 1_555
C1 H2 1_555 1_555
Br2 C11 1_555 1_555
O2 S1 1_555 1_555
C2 C1 1_555 1_555
H3 C2 1_555 1_555
C3 C2 1_555 1_555
H4 C3 1_555 1_555
H5 C3 1_555 1_555
C4 C3 1_555 1_555
C5 C4 1_555 1_555
H6 C5 1_555 1_555
C6 C5 1_555 1_555
H7 C6 1_555 1_555
C7 C6 1_555 1_555
H8 C7 1_555 1_555
C8 C7 1_555 1_555
H9 C8 1_555 1_555
C9 C4 1_555 1_555
C10 C9 1_555 1_555
H10 C10 1_555 1_555
H11 C10 1_555 1_555
C11 C1 1_555 1_555
C12 C1 1_555 1_555
H12 C12 1_555 1_555
H13 C12 1_555 1_555
C13 N1 1_555 1_555
H14 C13 1_555 1_555
H15 C13 1_555 1_555
C14 S1 1_555 1_555
H16 C14 1_555 1_555
H17 C14 1_555 1_555
H18 C14 1_555 1_555
Br3 C11 1_555 1_555
C8 C9 1_555 1_555
C10 C11 1_555 1_555
C12 C13 1_555 1_555

#END
