
#######################################################################
#
#                 Cambridge Crystallographic Data Centre
#                                CCDC 
#
#######################################################################
#
# If this CIF has been generated from an entry in the Cambridge 
# Structural Database, then it will include bibliographic, chemical, 
# crystal, experimental, refinement or atomic coordinate data resulting 
# from the CCDC's data processing and validation procedures.
#
#######################################################################

data_HIRFAS
_chemical_formula_moiety         'C19 H19 Br2 N1 O2 S1'
_chemical_name_systematic        
4,5-dibromo-1-[(4-methylphenyl)sulfonyl]-2,3,3a,4,5,9b-hexahydro-1H-benzo[g]indole
_symmetry_cell_setting           orthorhombic
_symmetry_space_group_name_H-M   'P 21 21 21'
_symmetry_Int_Tables_number      19
_space_group_name_Hall           'P 2ac 2ab'
loop_
_symmetry_equiv_pos_site_id
_symmetry_equiv_pos_as_xyz
1 x,y,z
2 1/2-x,-y,1/2+z
3 -x,1/2+y,1/2-z
4 1/2+x,1/2-y,-z
_cell_length_a                   9.4674(4)
_cell_length_b                   10.0979(4)
_cell_length_c                   19.6421(8)
_cell_angle_alpha                90
_cell_angle_beta                 90
_cell_angle_gamma                90
_cell_volume                     1877.8
_exptl_crystal_colour            colorless
_exptl_crystal_description       block
_cell_formula_units_Z            4
loop_
_atom_site_label
_atom_site_type_symbol
_atom_site_fract_x
_atom_site_fract_y
_atom_site_fract_z
Br1 Br 0.21869(4) 0.26111(3) 1.12651(2)
Br2 Br -0.04404(4) -0.10505(3) 1.07736(2)
C1 C 0.0423(4) 0.0705(3) 1.06012(15)
H1 H -0.0219 0.1413 1.0777
C2 C 0.1790(3) 0.0727(3) 1.10030(15)
H2 H 0.1636 0.0211 1.1431
C3 C 0.3048(3) 0.0153(3) 1.06484(14)
C4 C 0.4279(3) -0.0056(3) 1.10276(16)
H3 H 0.4276 0.0135 1.1501
C5 C 0.5498(3) -0.0532(3) 1.07292(16)
H4 H 0.6323 -0.0674 1.0995
C6 C 0.5505(4) -0.0804(3) 1.00331(16)
H5 H 0.6340 -0.1122 0.9821
C7 C 0.4291(3) -0.0608(3) 0.96511(16)
H6 H 0.4306 -0.0788 0.9177
C8 C 0.3046(3) -0.0150(3) 0.99521(14)
C9 C 0.1698(3) -0.0063(3) 0.95308(14)
H7 H 0.1284 -0.0966 0.9471
C10 C 0.1473(4) 0.1941(3) 0.88407(17)
H8 H 0.0632 0.2033 0.8545
H9 H 0.2220 0.2549 0.8677
C11 C 0.1102(4) 0.2222(3) 0.95851(16)
H10 H 0.0344 0.2894 0.9622
H11 H 0.1939 0.2529 0.9843
C12 C 0.0598(3) 0.0867(3) 0.98374(15)
H12 H -0.0331 0.0673 0.9617
C13 C -0.4464(4) -0.1181(5) 0.7608(2)
H13 H -0.4930 -0.1618 0.7993
H14 H -0.4519 -0.1753 0.7205
H15 H -0.4936 -0.0338 0.7512
C14 C -0.0077(3) -0.0540(3) 0.80362(14)
C15 C -0.0801(4) 0.0357(3) 0.76228(14)
H16 H -0.0324 0.1094 0.7429
C16 C -0.2229(4) 0.0154(4) 0.74992(15)
H17 H -0.2729 0.0761 0.7219
C17 C -0.2944(4) -0.0929(4) 0.77806(15)
C18 C -0.2206(4) -0.1783(4) 0.82107(17)
H18 H -0.2687 -0.2503 0.8419
C19 C -0.0780(4) -0.1596(3) 0.83388(16)
H19 H -0.0286 -0.2185 0.8631
N1 N 0.1985(3) 0.0543(3) 0.88538(12)
O1 O 0.2317(3) -0.1638(2) 0.83230(11)
O2 O 0.2301(3) 0.0409(3) 0.76168(11)
S1 S 0.17538(8) -0.03549(8) 0.81721(4)
loop_
_geom_bond_atom_site_label_1
_geom_bond_atom_site_label_2
_geom_bond_site_symmetry_1
_geom_bond_site_symmetry_2
Br1 C2 1_555 1_555
Br2 C1 1_555 1_555
C1 H1 1_555 1_555
C2 C1 1_555 1_555
H2 C2 1_555 1_555
C3 C2 1_555 1_555
C4 C3 1_555 1_555
H3 C4 1_555 1_555
C5 C4 1_555 1_555
H4 C5 1_555 1_555
C6 C5 1_555 1_555
H5 C6 1_555 1_555
C7 C6 1_555 1_555
H6 C7 1_555 1_555
C8 C3 1_555 1_555
C9 C8 1_555 1_555
H7 C9 1_555 1_555
C10 H8 1_555 1_555
H9 C10 1_555 1_555
C11 C10 1_555 1_555
H10 C11 1_555 1_555
H11 C11 1_555 1_555
C12 C1 1_555 1_555
H12 C12 1_555 1_555
C13 H13 1_555 1_555
H14 C13 1_555 1_555
H15 C13 1_555 1_555
C14 C15 1_555 1_555
C15 H16 1_555 1_555
C16 C15 1_555 1_555
H17 C16 1_555 1_555
C17 C13 1_555 1_555
C18 C17 1_555 1_555
H18 C18 1_555 1_555
C19 C14 1_555 1_555
H19 C19 1_555 1_555
N1 C9 1_555 1_555
O1 S1 1_555 1_555
O2 S1 1_555 1_555
S1 C14 1_555 1_555
C7 C8 1_555 1_555
C9 C12 1_555 1_555
C10 N1 1_555 1_555
C11 C12 1_555 1_555
C16 C17 1_555 1_555
C18 C19 1_555 1_555
N1 S1 1_555 1_555

#END
