
#######################################################################
#
#                 Cambridge Crystallographic Data Centre
#                                CCDC 
#
#######################################################################
#
# If this CIF has been generated from an entry in the Cambridge 
# Structural Database, then it will include bibliographic, chemical, 
# crystal, experimental, refinement or atomic coordinate data resulting 
# from the CCDC's data processing and validation procedures.
#
#######################################################################

data_HIRFIA
_chemical_formula_moiety         
'0.97(C21 H26 Br1 N1 O2 S1),0.03(C21 H25 Br1 Cl1 N1 O2 S1)'
_chemical_name_systematic        
'3-bromo-1-{[4-(chloromethyl)phenyl]sulfonyl}-2,5,5-trimethyl-2-phenylpiperidine 3-bromo-2,5,5-trimethyl-1-[(4-methylphenyl)sulfonyl]-2-phenylpiperidine'
_symmetry_cell_setting           monoclinic
_symmetry_space_group_name_H-M   'P 21/c'
_symmetry_Int_Tables_number      14
_space_group_name_Hall           '-P 2ybc'
loop_
_symmetry_equiv_pos_site_id
_symmetry_equiv_pos_as_xyz
1 x,y,z
2 -x,1/2+y,1/2-z
3 -x,-y,-z
4 x,1/2-y,1/2+z
_cell_length_a                   12.6378(3)
_cell_length_b                   6.40927(15)
_cell_length_c                   24.6143(6)
_cell_angle_alpha                90
_cell_angle_beta                 98.827(2)
_cell_angle_gamma                90
_cell_volume                     1970.12
_exptl_crystal_colour            colorless
_exptl_crystal_description       Block
_cell_formula_units_Z            4
loop_
_atom_site_label
_atom_site_type_symbol
_atom_site_fract_x
_atom_site_fract_y
_atom_site_fract_z
Br1 Br 0.79086(2) 0.16566(2) 0.72313(2)
C1 C 0.81179(6) -0.03826(11) 0.82971(3)
C2 C 0.69167(6) -0.00053(13) 0.82966(3)
C3 C 0.65860(7) 0.17912(14) 0.85457(4)
H1 H 0.7106 0.2729 0.8727
C4 C 0.55001(8) 0.2218(2) 0.85302(4)
H2 H 0.5284 0.3443 0.8700
C5 C 0.47325(8) 0.0852(2) 0.82661(5)
H3 H 0.3993 0.1137 0.8258
C6 C 0.50506(8) -0.0920(2) 0.80158(4)
H4 H 0.4528 -0.1851 0.7833
C7 C 0.61401(7) -0.13507(16) 0.80299(4)
H5 H 0.6352 -0.2572 0.7856
C8 C 0.85536(6) 0.15376(12) 0.80123(3)
H6 H 0.8317 0.2816 0.8193
C9 C 0.97618(7) 0.16600(12) 0.80520(3)
H7 H 0.9959 0.2931 0.7862
H8 H 1.0026 0.0432 0.7869
C10 C 1.02840(6) 0.17188(11) 0.86569(3)
C11 C 0.99028(6) -0.01784(12) 0.89469(3)
H9 H 1.0186 -0.1459 0.8796
H10 H 1.0195 -0.0106 0.9343
C12 C 1.00198(7) 0.37545(13) 0.89343(3)
H11 H 0.9242 0.3880 0.8915
H12 H 1.0290 0.4941 0.8745
H13 H 1.0358 0.3744 0.9320
C13 C 1.15057(7) 0.15436(14) 0.86919(4)
H14 H 1.1773 0.2731 0.8502
H15 H 1.1683 0.0242 0.8517
H16 H 1.1840 0.1546 0.9079
C14 C 0.75971(6) 0.00394(13) 0.97457(3)
C15 C 0.66906(7) -0.06469(14) 0.99507(3)
H17 H 0.6390 -0.1975 0.9849
C16 C 0.62305(7) 0.06376(15) 1.03060(4)
H18 H 0.5626 0.0159 1.0457
C17 C 0.66450(7) 0.26222(15) 1.04441(3)
C18 C 0.75576(7) 0.32712(13) 1.02345(4)
H19 H 0.7848 0.4614 1.0327
C19 C 0.80481(7) 0.19856(13) 0.98924(3)
H20 H 0.8680 0.2425 0.9760
C20 C 0.61036(8) 0.40448(18) 1.08051(4)
H21 H 0.5752 0.3204 1.1058
H22 H 0.6639 0.4954 1.1016
C21 C 0.83570(7) -0.24356(12) 0.80195(3)
H23 H 0.9133 -0.2605 0.8042
H24 H 0.8025 -0.2409 0.7633
H25 H 0.8066 -0.3605 0.8206
N1 N 0.87121(5) -0.03145(10) 0.88809(3)
O1 O 0.74764(6) -0.32234(9) 0.91110(3)
O2 O 0.91683(5) -0.24881(10) 0.97266(2)
S1 S 0.82523(2) -0.17310(3) 0.93582(2)
Cl1 Cl 0.5020(6) 0.5289(11) 1.0416(3)
H26? H 0.5568 0.4900 1.0576
loop_
_geom_bond_atom_site_label_1
_geom_bond_atom_site_label_2
_geom_bond_site_symmetry_1
_geom_bond_site_symmetry_2
Br1 C8 1_555 1_555
C1 C2 1_555 1_555
C2 C3 1_555 1_555
C3 H1 1_555 1_555
C4 C3 1_555 1_555
H2 C4 1_555 1_555
C5 C4 1_555 1_555
H3 C5 1_555 1_555
C6 C5 1_555 1_555
H4 C6 1_555 1_555
C7 C2 1_555 1_555
H5 C7 1_555 1_555
C8 C1 1_555 1_555
H6 C8 1_555 1_555
C9 C8 1_555 1_555
H7 C9 1_555 1_555
H8 C9 1_555 1_555
C10 C9 1_555 1_555
C11 C10 1_555 1_555
H9 C11 1_555 1_555
H10 C11 1_555 1_555
C12 C10 1_555 1_555
H11 C12 1_555 1_555
H12 C12 1_555 1_555
H13 C12 1_555 1_555
C13 C10 1_555 1_555
H14 C13 1_555 1_555
H15 C13 1_555 1_555
H16 C13 1_555 1_555
C14 C15 1_555 1_555
C15 H17 1_555 1_555
C16 C15 1_555 1_555
H18 C16 1_555 1_555
C17 C16 1_555 1_555
C18 C17 1_555 1_555
H19 C18 1_555 1_555
C19 C14 1_555 1_555
H20 C19 1_555 1_555
C20 C17 1_555 1_555
H21 C20 1_555 1_555
H22 C20 1_555 1_555
C21 C1 1_555 1_555
H23 C21 1_555 1_555
H24 C21 1_555 1_555
H25 C21 1_555 1_555
N1 C1 1_555 1_555
O1 S1 1_555 1_555
O2 S1 1_555 1_555
S1 C14 1_555 1_555
Cl1 C20 1_555 1_555
C6 C7 1_555 1_555
C11 N1 1_555 1_555
C18 C19 1_555 1_555
N1 S1 1_555 1_555

#END
