
#######################################################################
#
#                 Cambridge Crystallographic Data Centre
#                                CCDC 
#
#######################################################################
#
# If this CIF has been generated from an entry in the Cambridge 
# Structural Database, then it will include bibliographic, chemical, 
# crystal, experimental, refinement or atomic coordinate data resulting 
# from the CCDC's data processing and validation procedures.
#
#######################################################################

data_HIRHAU
_chemical_formula_moiety         'C33 H26 Cl1 N1 O2 S1'
_chemical_name_systematic        
4-(4-chlorophenyl)-1-[(4-methylphenyl)sulfonyl]-6,7-diphenyl-2,3-dihydro-1H-indole
_symmetry_cell_setting           monoclinic
_symmetry_space_group_name_H-M   'P 21/n'
_symmetry_Int_Tables_number      14
_space_group_name_Hall           '-P 2yn'
loop_
_symmetry_equiv_pos_site_id
_symmetry_equiv_pos_as_xyz
1 x,y,z
2 1/2-x,1/2+y,1/2-z
3 -x,-y,-z
4 1/2+x,1/2-y,1/2+z
_cell_length_a                   10.2302(8)
_cell_length_b                   24.9417(18)
_cell_length_c                   10.5320(7)
_cell_angle_alpha                90
_cell_angle_beta                 94.660(6)
_cell_angle_gamma                90
_cell_volume                     2678.45
_exptl_crystal_colour            colorless
_exptl_crystal_description       block
_cell_formula_units_Z            4
loop_
_atom_site_label
_atom_site_type_symbol
_atom_site_fract_x
_atom_site_fract_y
_atom_site_fract_z
Cl1 Cl 0.51138(6) 0.56181(3) -0.23178(5)
S1 S 0.81896(7) 0.72446(2) 0.62862(6)
O1 O 0.8368(2) 0.69278(8) 0.74096(15)
O2 O 0.87526(19) 0.77681(7) 0.6245(2)
N1 N 0.88250(18) 0.68963(7) 0.51380(17)
C1 C 0.71406(19) 0.58629(8) 0.31701(19)
C2 C 0.7267(2) 0.54168(9) 0.39688(19)
H1 H 0.688719 0.509614 0.367817
C3 C 0.79284(19) 0.54247(8) 0.51767(18)
C4 C 0.85387(19) 0.59055(9) 0.56402(18)
C5 C 0.83174(19) 0.63579(8) 0.48685(19)
C6 C 0.76495(19) 0.63442(9) 0.36593(19)
C7 C 0.7704(2) 0.68861(9) 0.3031(2)
H2 H 0.687488 0.707419 0.304384
H3 H 0.793087 0.685477 0.215766
C8 C 0.8790(3) 0.71678(10) 0.3868(2)
H4 H 0.962638 0.713116 0.350436
H5 H 0.859410 0.754624 0.394871
C9 C 0.65926(19) 0.58068(8) 0.18228(19)
C10 C 0.6944(2) 0.53687(9) 0.1107(2)
H6 H 0.750603 0.511216 0.148946
C11 C 0.6485(2) 0.53025(9) -0.0149(2)
H7 H 0.672289 0.500404 -0.060710
C12 C 0.5664(2) 0.56901(9) -0.07149(19)
C13 C 0.5280(2) 0.61297(9) -0.0038(2)
H8 H 0.471695 0.638453 -0.042586
C14 C 0.5745(2) 0.61852(9) 0.1227(2)
H9 H 0.548896 0.647982 0.168793
C15 C 0.7996(2) 0.49077(9) 0.58961(18)
C16 C 0.9159(2) 0.46914(9) 0.6460(2)
H10 H 0.994177 0.487670 0.640846
C17 C 0.9168(3) 0.42078(11) 0.7093(2)
H11 H 0.995436 0.407223 0.746725
C18 C 0.8024(3) 0.39228(11) 0.7177(2)
H12 H 0.803323 0.359808 0.761179
C19 C 0.6870(3) 0.41244(11) 0.6611(3)
H13 H 0.609519 0.393242 0.665263
C20 C 0.6852(2) 0.46102(10) 0.5979(2)
H14 H 0.606219 0.474130 0.560187
C21 C 0.9433(2) 0.59163(8) 0.68300(19)
C22 C 1.0735(2) 0.60618(10) 0.6773(2)
H15 H 1.103376 0.616505 0.599939
C23 C 1.1591(2) 0.60549(11) 0.7856(3)
H16 H 1.246075 0.615559 0.780688
C24 C 1.1164(3) 0.58992(10) 0.9011(2)
H17 H 1.174420 0.589304 0.973767
C25 C 0.9884(3) 0.57545(10) 0.9077(2)
H18 H 0.959271 0.564869 0.985225
C26 C 0.9019(2) 0.57641(10) 0.8000(2)
H19 H 0.814822 0.566745 0.805928
C27 C 0.6491(2) 0.73000(9) 0.5903(2)
C28 C 0.5691(3) 0.68731(10) 0.6159(3)
H20 H 0.604975 0.656433 0.654004
C29 C 0.4363(3) 0.69079(11) 0.5846(3)
H21 H 0.383182 0.661851 0.601854
C30 C 0.3791(3) 0.73626(11) 0.5280(2)
C31 C 0.4607(3) 0.77890(10) 0.5055(2)
H22 H 0.424623 0.810256 0.469963
C32 C 0.5942(3) 0.77581(9) 0.5347(2)
H23 H 0.647516 0.804605 0.516930
C33 C 0.2333(3) 0.73891(13) 0.4932(3)
H24 H 0.208729 0.775133 0.471585
H25 H 0.187445 0.727309 0.564268
H26 H 0.210874 0.715981 0.421473
loop_
_geom_bond_atom_site_label_1
_geom_bond_atom_site_label_2
_geom_bond_site_symmetry_1
_geom_bond_site_symmetry_2
Cl1 C12 1_555 1_555
S1 O1 1_555 1_555
O2 S1 1_555 1_555
N1 S1 1_555 1_555
C1 C2 1_555 1_555
C2 H1 1_555 1_555
C3 C2 1_555 1_555
C4 C3 1_555 1_555
C5 N1 1_555 1_555
C6 C1 1_555 1_555
C7 C6 1_555 1_555
H2 C7 1_555 1_555
H3 C7 1_555 1_555
C8 N1 1_555 1_555
H4 C8 1_555 1_555
H5 C8 1_555 1_555
C9 C1 1_555 1_555
C10 C9 1_555 1_555
H6 C10 1_555 1_555
C11 C10 1_555 1_555
H7 C11 1_555 1_555
C12 C11 1_555 1_555
C13 C12 1_555 1_555
H8 C13 1_555 1_555
C14 C9 1_555 1_555
H9 C14 1_555 1_555
C15 C3 1_555 1_555
C16 C15 1_555 1_555
H10 C16 1_555 1_555
C17 C16 1_555 1_555
H11 C17 1_555 1_555
C18 C17 1_555 1_555
H12 C18 1_555 1_555
C19 C18 1_555 1_555
H13 C19 1_555 1_555
C20 C15 1_555 1_555
H14 C20 1_555 1_555
C21 C4 1_555 1_555
C22 C21 1_555 1_555
H15 C22 1_555 1_555
C23 C22 1_555 1_555
H16 C23 1_555 1_555
C24 C23 1_555 1_555
H17 C24 1_555 1_555
C25 C24 1_555 1_555
H18 C25 1_555 1_555
C26 C21 1_555 1_555
H19 C26 1_555 1_555
C27 S1 1_555 1_555
C28 C27 1_555 1_555
H20 C28 1_555 1_555
C29 C28 1_555 1_555
H21 C29 1_555 1_555
C30 C29 1_555 1_555
C31 C30 1_555 1_555
H22 C31 1_555 1_555
C32 C27 1_555 1_555
H23 C32 1_555 1_555
C33 C30 1_555 1_555
H24 C33 1_555 1_555
H25 C33 1_555 1_555
H26 C33 1_555 1_555
C4 C5 1_555 1_555
C5 C6 1_555 1_555
C7 C8 1_555 1_555
C13 C14 1_555 1_555
C19 C20 1_555 1_555
C25 C26 1_555 1_555
C31 C32 1_555 1_555

#END
