
#######################################################################
#
#                 Cambridge Crystallographic Data Centre
#                                CCDC 
#
#######################################################################
#
# If this CIF has been generated from an entry in the Cambridge 
# Structural Database, then it will include bibliographic, chemical, 
# crystal, experimental, refinement or atomic coordinate data resulting 
# from the CCDC's data processing and validation procedures.
#
#######################################################################

data_HIRJID
_chemical_formula_moiety         'C20 H31 F1 N2 O8'
_chemical_name_systematic        
'Methyl 1-(bis(t-butoxycarbonyl)amino)-2-fluoro-2-(morpholin-4-ylcarbonyl)cyclopropanecarboxylate'
_symmetry_cell_setting           monoclinic
_symmetry_space_group_name_H-M   'C c'
_symmetry_Int_Tables_number      9
_space_group_name_Hall           'C -2yc'
loop_
_symmetry_equiv_pos_site_id
_symmetry_equiv_pos_as_xyz
1 x,y,z
2 x,-y,1/2+z
3 1/2+x,1/2+y,z
4 1/2+x,1/2-y,1/2+z
_cell_length_a                   14.6950(19)
_cell_length_b                   13.9093(17)
_cell_length_c                   11.6610(15)
_cell_angle_alpha                90
_cell_angle_beta                 92.520(2)
_cell_angle_gamma                90
_cell_volume                     2381.17
_exptl_crystal_colour            colorless
_exptl_crystal_description       prism
_cell_formula_units_Z            4
loop_
_atom_site_label
_atom_site_type_symbol
_atom_site_fract_x
_atom_site_fract_y
_atom_site_fract_z
C1 C 0.3841(4) 0.5444(3) 0.7542(4)
H1 H 0.3975 0.5184 0.8303
H2 H 0.4415 0.5575 0.7194
C2 C 0.3353(5) 0.6314(4) 0.7642(4)
H3 H 0.3736 0.678 0.805
H4 H 0.2823 0.6201 0.809
C3 C 0.2487(4) 0.6008(3) 0.5970(4)
H5 H 0.2266 0.627 0.5239
H6 H 0.1962 0.589 0.6428
C4 C 0.2938(3) 0.5110(2) 0.5774(3)
H7 H 0.3414 0.5206 0.5234
H8 H 0.2504 0.4652 0.5442
C5 C 0.3260(2) 0.3843(2) 0.7270(3)
C6 C 0.2927(2) 0.3046(2) 0.6470(3)
C7 C 0.3008(3) 0.2043(2) 0.6870(3)
H9 H 0.3245 0.1935 0.7649
H10 H 0.3185 0.1562 0.632
C8 C 0.2071(2) 0.2470(2) 0.6715(3)
C9 C 0.1502(3) 0.2145(2) 0.5683(3)
C10 C 0.0009(4) 0.2094(3) 0.4845(4)
H11 H 0.0181 0.243 0.4169
H12 H -0.0599 0.2275 0.5025
H13 H 0.0032 0.1414 0.4711
C11 C 0.10948(19) 0.35415(18) 0.7724(2)
C12 C -0.0166(2) 0.4350(2) 0.8598(3)
C13 C -0.0732(4) 0.4438(4) 0.7489(5)
H14 H -0.0368 0.471 0.6908
H15 H -0.1246 0.4847 0.7606
H16 H -0.0942 0.3813 0.725
C14 C 0.0345(4) 0.5239(3) 0.8916(6)
H17 H 0.0778 0.5101 0.9535
H18 H -0.0072 0.5723 0.9154
H19 H 0.0661 0.5466 0.8265
C15 C -0.0742(4) 0.4019(4) 0.9558(5)
H20 H -0.1041 0.3428 0.9342
H21 H -0.119 0.45 0.9706
H22 H -0.0361 0.3917 1.0237
C16 C 0.1470(2) 0.18701(18) 0.8457(3)
C17 C 0.1211(3) 0.1379(2) 1.0414(3)
C18 C 0.2090(4) 0.0847(4) 1.0609(5)
H23 H 0.2229 0.0504 0.9925
H24 H 0.2034 0.04 1.123
H25 H 0.2569 0.1295 1.0799
C19 C 0.0437(3) 0.0722(4) 1.0066(4)
H26 H -0.0091 0.1098 0.9851
H27 H 0.0303 0.0311 1.0699
H28 H 0.0605 0.0336 0.9426
C20 C 0.0974(5) 0.1973(4) 1.1441(4)
H29 H 0.1479 0.238 1.1662
H30 H 0.0842 0.1554 1.2067
H31 H 0.045 0.2361 1.1248
F1 F 0.30862(15) 0.31977(14) 0.53385(16)
N1 N 0.3336(2) 0.47293(19) 0.6853(2)
N2 N 0.15957(16) 0.26813(15) 0.77334(19)
O1 O 0.3062(3) 0.67038(18) 0.6544(3)
O2 O 0.3485(2) 0.3627(2) 0.8256(2)
O3 O 0.1805(3) 0.1757(2) 0.4867(3)
O4 O 0.06328(18) 0.23421(18) 0.5799(2)
O5 O 0.12429(17) 0.41638(15) 0.7052(2)
O6 O 0.04672(15) 0.35355(14) 0.84845(19)
O7 O 0.1545(2) 0.10813(15) 0.8087(2)
O8 O 0.13243(16) 0.21234(13) 0.95100(18)
loop_
_geom_bond_atom_site_label_1
_geom_bond_atom_site_label_2
_geom_bond_site_symmetry_1
_geom_bond_site_symmetry_2
C1 H1 1_555 1_555
H2 C1 1_555 1_555
C2 C1 1_555 1_555
H3 C2 1_555 1_555
H4 C2 1_555 1_555
C3 H5 1_555 1_555
H6 C3 1_555 1_555
C4 C3 1_555 1_555
H7 C4 1_555 1_555
H8 C4 1_555 1_555
C5 C6 1_555 1_555
C6 C7 1_555 1_555
C7 H9 1_555 1_555
H10 C7 1_555 1_555
C8 C6 1_555 1_555
C9 C8 1_555 1_555
C10 H11 1_555 1_555
H12 C10 1_555 1_555
H13 C10 1_555 1_555
C11 N2 1_555 1_555
C12 C13 1_555 1_555
C13 H14 1_555 1_555
H15 C13 1_555 1_555
H16 C13 1_555 1_555
C14 C12 1_555 1_555
H17 C14 1_555 1_555
H18 C14 1_555 1_555
H19 C14 1_555 1_555
C15 C12 1_555 1_555
H20 C15 1_555 1_555
H21 C15 1_555 1_555
H22 C15 1_555 1_555
C16 N2 1_555 1_555
C17 C18 1_555 1_555
C18 H23 1_555 1_555
H24 C18 1_555 1_555
H25 C18 1_555 1_555
C19 C17 1_555 1_555
H26 C19 1_555 1_555
H27 C19 1_555 1_555
H28 C19 1_555 1_555
C20 C17 1_555 1_555
H29 C20 1_555 1_555
H30 C20 1_555 1_555
H31 C20 1_555 1_555
F1 C6 1_555 1_555
N1 C1 1_555 1_555
N2 C8 1_555 1_555
O1 C2 1_555 1_555
O2 C5 1_555 1_555
O3 C9 1_555 1_555
O4 C9 1_555 1_555
O5 C11 1_555 1_555
O6 C11 1_555 1_555
O7 C16 1_555 1_555
O8 C16 1_555 1_555
C3 O1 1_555 1_555
C4 N1 1_555 1_555
C5 N1 1_555 1_555
C7 C8 1_555 1_555
C10 O4 1_555 1_555
C12 O6 1_555 1_555
C17 O8 1_555 1_555

#END
