
#######################################################################
#
#                 Cambridge Crystallographic Data Centre
#                                CCDC 
#
#######################################################################
#
# If this CIF has been generated from an entry in the Cambridge 
# Structural Database, then it will include bibliographic, chemical, 
# crystal, experimental, refinement or atomic coordinate data resulting 
# from the CCDC's data processing and validation procedures.
#
#######################################################################

data_HIRJAW
_chemical_formula_moiety         'C15 H26 O3'
_chemical_name_systematic        
4a,8-dimethyl-2-isopropyl-1,2,3,4,4a,5,6,7-octahydronaphthalene-1,2,7-triol
_symmetry_cell_setting           monoclinic
_symmetry_space_group_name_H-M   'P 21'
_symmetry_Int_Tables_number      4
_space_group_name_Hall           'P 2yb'
loop_
_symmetry_equiv_pos_site_id
_symmetry_equiv_pos_as_xyz
1 x,y,z
2 -x,1/2+y,-z
_cell_length_a                   10.0560(4)
_cell_length_b                   8.2456(4)
_cell_length_c                   17.0806(8)
_cell_angle_alpha                90
_cell_angle_beta                 90.025(2)
_cell_angle_gamma                90
_cell_volume                     1416.28
_exptl_crystal_colour            colorless
_exptl_crystal_description       block
_cell_formula_units_Z            4
loop_
_atom_site_label
_atom_site_type_symbol
_atom_site_fract_x
_atom_site_fract_y
_atom_site_fract_z
O1 O 0.2800(8) 0.3939(13) 0.9504(5)
H1 H 0.2451 0.4661 0.9246
C1 C 0.3711(10) 0.1414(11) 0.8309(8)
H2 H 0.2769 0.1669 0.8328
H3 H 0.3799 0.0252 0.8238
O2 O 0.6148(5) 0.4979(8) 0.6806(4)
H4 H 0.6511 0.4239 0.7045
C2 C 0.4343(11) 0.1892(14) 0.9066(7)
H5 H 0.5291 0.1674 0.9043
H6 H 0.3970 0.1250 0.9488
C3 C 0.4475(11) 0.6510(11) 0.8717(6)
H7 H 0.3872 0.6754 0.9136
H8 H 0.4238 0.7132 0.8263
H9 H 0.5365 0.6781 0.8874
C4 C 0.5707(11) 0.1489(10) 0.7408(8)
H10 H 0.5576 0.0345 0.7335
H11 H 0.6310 0.1665 0.7836
H12 H 0.6071 0.1950 0.6939
C5 C 0.3161(10) 0.6013(15) 0.5073(6)
H13 H 0.3400 0.6746 0.4660
H14 H 0.2301 0.6300 0.5274
H15 H 0.3136 0.4925 0.4874
C6 C 0.4371(12) 0.7878(12) 0.5969(7)
H16 H 0.4382 0.8554 0.5512
H17 H 0.5198 0.7991 0.6246
H18 H 0.3651 0.8199 0.6304
C7 C 0.4186(8) 0.6122(10) 0.5727(5)
H19 H 0.5035 0.5751 0.5510
C8 C 0.4355(8) 0.2305(8) 0.7593(6)
O3 O 0.2623(5) 0.5494(7) 0.6774(4)
H20 H 0.2006 0.5102 0.6523
C9 C 0.4119(9) 0.3678(13) 0.9232(6)
H21 H 0.4733 0.4004 0.9648
C10 C 0.4399(7) 0.4715(9) 0.8526(5)
C11 C 0.4540(6) 0.4097(8) 0.7794(4)
C12 C 0.4860(7) 0.5218(8) 0.7105(4)
H22 H 0.4799 0.6340 0.7291
C13 C 0.3858(7) 0.5005(8) 0.6434(5)
C14 C 0.3419(9) 0.2157(9) 0.6894(6)
H23 H 0.3403 0.1034 0.6724
H24 H 0.2527 0.2441 0.7061
C15 C 0.3790(9) 0.3209(10) 0.6203(6)
H25 H 0.3136 0.3070 0.5791
H26 H 0.4647 0.2869 0.6001
O4 O 1.1151(5) 0.5055(8) 0.8195(4)
H27 H 1.1680 0.5109 0.7831
O5 O 0.7614(5) 0.4509(7) 0.8219(4)
H28 H 0.7028 0.4533 0.8552
O6 O 0.7798(7) 0.6056(14) 0.5488(5)
H29 H 0.7287 0.5997 0.5861
C16 C 0.9834(7) 0.4803(8) 0.7892(4)
H30 H 0.9772 0.3679 0.7710
C17 C 0.9545(6) 0.5912(8) 0.7202(5)
C18 C 0.9393(7) 0.5286(9) 0.6479(5)
C19 C 0.8787(9) 0.6796(10) 0.8795(6)
H31 H 0.8125 0.6929 0.9203
H32 H 0.9638 0.7145 0.9004
C20 C 0.9434(10) 0.3499(12) 0.6279(6)
H33 H 0.8903 0.3302 0.5822
H34 H 0.9090 0.2882 0.6711
H35 H 1.0336 0.3180 0.6178
C21 C 0.9116(9) 0.6342(13) 0.5767(6)
H36 H 0.9736 0.6017 0.5353
C22 C 0.8871(7) 0.5013(8) 0.8568(5)
C23 C 0.8420(9) 0.7853(9) 0.8097(7)
H37 H 0.7528 0.7567 0.7929
H38 H 0.8398 0.8975 0.8268
C24 C 0.9346(8) 0.7725(8) 0.7396(6)
C25 C 0.9189(8) 0.3908(10) 0.9270(5)
H39 H 1.0044 0.4261 0.9486
C26 C 1.0691(10) 0.8517(11) 0.7585(7)
H40 H 1.0561 0.9650 0.7689
H41 H 1.1279 0.8391 0.7147
H42 H 1.1072 0.8005 0.8037
C27 C 0.9361(10) 0.8127(14) 0.5943(7)
H43 H 1.0311 0.8329 0.5967
H44 H 0.8994 0.8784 0.5525
C28 C 0.8160(10) 0.4012(16) 0.9931(6)
H45 H 0.8373 0.3231 1.0329
H46 H 0.7291 0.3787 0.9725
H47 H 0.8172 0.5081 1.0153
C29 C 0.9344(11) 0.2115(12) 0.9020(6)
H48 H 0.9495 0.1456 0.9475
H49 H 1.0085 0.2014 0.8669
H50 H 0.8548 0.1761 0.8761
C30 C 0.8731(10) 0.8598(12) 0.6707(8)
H51 H 0.7788 0.8352 0.6687
H52 H 0.8825 0.9758 0.6781
loop_
_geom_bond_atom_site_label_1
_geom_bond_atom_site_label_2
_geom_bond_site_symmetry_1
_geom_bond_site_symmetry_2
O1 H1 1_555 1_555
C1 H2 1_555 1_555
H3 C1 1_555 1_555
O2 H4 1_555 1_555
C2 C1 1_555 1_555
H5 C2 1_555 1_555
H6 C2 1_555 1_555
C3 H7 1_555 1_555
H8 C3 1_555 1_555
H9 C3 1_555 1_555
C4 H10 1_555 1_555
H11 C4 1_555 1_555
H12 C4 1_555 1_555
C5 H13 1_555 1_555
H14 C5 1_555 1_555
H15 C5 1_555 1_555
C6 H16 1_555 1_555
H17 C6 1_555 1_555
H18 C6 1_555 1_555
C7 C5 1_555 1_555
H19 C7 1_555 1_555
C8 C1 1_555 1_555
O3 H20 1_555 1_555
C9 O1 1_555 1_555
H21 C9 1_555 1_555
C10 C3 1_555 1_555
C11 C8 1_555 1_555
C12 O2 1_555 1_555
H22 C12 1_555 1_555
C13 C7 1_555 1_555
C14 C8 1_555 1_555
H23 C14 1_555 1_555
H24 C14 1_555 1_555
C15 C13 1_555 1_555
H25 C15 1_555 1_555
H26 C15 1_555 1_555
O4 H27 1_555 1_555
O5 H28 1_555 1_555
O6 H29 1_555 1_555
C16 O4 1_555 1_555
H30 C16 1_555 1_555
C17 C16 1_555 1_555
C18 C17 1_555 1_555
C19 H31 1_555 1_555
H32 C19 1_555 1_555
C20 C18 1_555 1_555
H33 C20 1_555 1_555
H34 C20 1_555 1_555
H35 C20 1_555 1_555
C21 O6 1_555 1_555
H36 C21 1_555 1_555
C22 O5 1_555 1_555
C23 C19 1_555 1_555
H37 C23 1_555 1_555
H38 C23 1_555 1_555
C24 C17 1_555 1_555
C25 C22 1_555 1_555
H39 C25 1_555 1_555
C26 C24 1_555 1_555
H40 C26 1_555 1_555
H41 C26 1_555 1_555
H42 C26 1_555 1_555
C27 C21 1_555 1_555
H43 C27 1_555 1_555
H44 C27 1_555 1_555
C28 C25 1_555 1_555
H45 C28 1_555 1_555
H46 C28 1_555 1_555
H47 C28 1_555 1_555
C29 C25 1_555 1_555
H48 C29 1_555 1_555
H49 C29 1_555 1_555
H50 C29 1_555 1_555
C30 C24 1_555 1_555
H51 C30 1_555 1_555
H52 C30 1_555 1_555
C2 C9 1_555 1_555
C4 C8 1_555 1_555
C6 C7 1_555 1_555
O3 C13 1_555 1_555
C9 C10 1_555 1_555
C10 C11 1_555 1_555
C11 C12 1_555 1_555
C12 C13 1_555 1_555
C14 C15 1_555 1_555
C16 C22 1_555 1_555
C18 C21 1_555 1_555
C19 C22 1_555 1_555
C23 C24 1_555 1_555
C27 C30 1_555 1_555

#END
