
#######################################################################
#
#                 Cambridge Crystallographic Data Centre
#                                CCDC 
#
#######################################################################
#
# If this CIF has been generated from an entry in the Cambridge 
# Structural Database, then it will include bibliographic, chemical, 
# crystal, experimental, refinement or atomic coordinate data resulting 
# from the CCDC's data processing and validation procedures.
#
#######################################################################

data_HIRKIE
_chemical_formula_moiety         'C60 H42 N6 O12,0.75(C1 H2 Cl2)'
_chemical_name_systematic        
"(-)-\D-Cyclo-tris(N,N'-(cyclohexane-1,4-diyl)benzo(lmn)(3,8)phenanthroline-1,3,6,8(2H,7H)-tetrone) dichloromethane solvate"
_symmetry_cell_setting           cubic
_symmetry_space_group_name_H-M   'I 21 3'
_symmetry_Int_Tables_number      199
_space_group_name_Hall           'I 2b 2c 3'
loop_
_symmetry_equiv_pos_site_id
_symmetry_equiv_pos_as_xyz
1 x,y,z
2 1/2-x,-y,1/2+z
3 -x,1/2+y,1/2-z
4 1/2+x,1/2-y,-z
5 z,x,y
6 1/2+z,1/2-x,-y
7 1/2-z,-x,1/2+y
8 -z,1/2+x,1/2-y
9 y,z,x
10 -y,1/2+z,1/2-x
11 1/2+y,1/2-z,-x
12 1/2-y,-z,1/2+x
13 1/2+x,1/2+y,1/2+z
14 -x,1/2-y,z
15 1/2-x,y,-z
16 x,-y,1/2-z
17 1/2+z,1/2+x,1/2+y
18 z,-x,1/2-y
19 -z,1/2-x,y
20 1/2-z,x,-y
21 1/2+y,1/2+z,1/2+x
22 1/2-y,z,-x
23 y,-z,1/2-x
24 -y,1/2-z,x
_cell_length_a                   29.5082(9)
_cell_length_b                   29.5082(9)
_cell_length_c                   29.5082(9)
_cell_angle_alpha                90
_cell_angle_beta                 90
_cell_angle_gamma                90
_cell_volume                     25693.8
_exptl_crystal_colour            colorless
_exptl_crystal_description       block
_cell_formula_units_Z            16
_exptl_crystal_recrystallization_method methanol/dichloromethane
loop_
_atom_site_label
_atom_site_type_symbol
_atom_site_fract_x
_atom_site_fract_y
_atom_site_fract_z
O1 O -0.02026(11) 0.46588(10) 0.29394(10)
O2 O 0.08204(10) 0.38594(8) 0.37598(10)
O3 O 0.06862(11) 0.66758(9) 0.37993(11)
O4 O 0.15607(10) 0.58860(9) 0.47883(11)
N1 N 0.02468(12) 0.42443(11) 0.34204(11)
N2 N 0.10698(11) 0.62857(10) 0.43481(11)
C1 C 0.00761(15) 0.46552(14) 0.32325(14)
C2 C 0.02659(16) 0.50782(14) 0.34276(14)
C3 C 0.06049(14) 0.50622(13) 0.37608(14)
C4 C 0.07921(14) 0.46409(12) 0.39174(14)
C5 C 0.06291(14) 0.42180(13) 0.36949(13)
C6 C 0.01098(17) 0.54881(15) 0.32728(14)
H1 H -0.0118 0.5494 0.3045
C7 C 0.02759(17) 0.58918(15) 0.34403(14)
H2 H 0.0165 0.6172 0.3327
C8 C 0.06133(14) 0.58866(13) 0.37828(13)
C9 C 0.07716(13) 0.54694(12) 0.39539(12)
C10 C 0.11058(14) 0.54517(13) 0.43040(15)
C11 C 0.12685(15) 0.50436(14) 0.44355(14)
H3 H 0.1488 0.5030 0.4670
C12 C 0.11198(14) 0.46391(13) 0.42330(15)
H4 H 0.1253 0.4360 0.4321
C13 C 0.07907(14) 0.63204(12) 0.39706(14)
C14 C 0.12682(14) 0.58847(14) 0.44965(15)
C15 C 0.12289(14) 0.67293(13) 0.45414(14)
H5 H 0.1022 0.6967 0.4418
C16 C 0.11947(12) 0.67601(13) 0.50618(15)
H6 H 0.1444 0.6569 0.5190
C17 C 0.12824(14) 0.72439(15) 0.52085(16)
H7 H 0.1268 0.7266 0.5543
H8 H 0.1048 0.7446 0.5079
C18 C 0.17562(16) 0.73904(15) 0.50410(17)
H9 H 0.1811 0.7709 0.5130
H10 H 0.1990 0.7200 0.5189
C19 C 0.17997(15) 0.73465(14) 0.45355(18)
H11 H 0.2110 0.7433 0.4441
H12 H 0.1583 0.7553 0.4385
C20 C 0.17040(14) 0.68586(14) 0.43912(15)
H13 H 0.1730 0.6831 0.4058
H14 H 0.1928 0.6652 0.4531
O1E O -0.20606(10) 0.52026(11) 0.53412(10)
O2E O -0.12402(10) 0.41796(10) 0.61406(8)
O3E O -0.12007(11) 0.43138(11) 0.33242(9)
O4E O -0.02117(11) 0.34393(10) 0.41140(9)
N1E N -0.15796(11) 0.47532(12) 0.57557(11)
N2E N -0.06519(11) 0.39302(11) 0.37143(10)
C1E C -0.17675(14) 0.49239(15) 0.53448(14)
C2E C -0.15724(14) 0.47341(16) 0.49218(14)
C3E C -0.12392(14) 0.43951(14) 0.49378(13)
C4E C -0.10826(14) 0.42079(14) 0.53591(12)
C5E C -0.13051(13) 0.43709(14) 0.57820(13)
C6E C -0.17272(14) 0.48902(17) 0.45119(15)
H1E H -0.1955 0.5118 0.4506
C7E C -0.15597(14) 0.47241(17) 0.41082(15)
H2E H -0.1673 0.4835 0.3828
C8E C -0.12172(13) 0.43867(14) 0.41134(13)
C9E C -0.10461(12) 0.42284(13) 0.45306(12)
C10E C -0.06960(15) 0.38942(14) 0.45483(13)
C11E C -0.05645(14) 0.37315(15) 0.49564(14)
H3E H -0.0330 0.3512 0.4970
C12E C -0.07670(15) 0.38802(14) 0.53609(13)
H4E H -0.0679 0.3747 0.5640
C13E C -0.10294(14) 0.42093(14) 0.36796(12)
C14E C -0.05035(15) 0.37318(14) 0.41153(14)
C15E C -0.04586(14) 0.37711(14) 0.32707(13)
H5E H -0.0582 0.3978 0.3033
C16E C 0.00618(15) 0.38053(12) 0.32399(13)
H6E H 0.0190 0.3556 0.3431
C17E C 0.02085(16) 0.37176(14) 0.27561(15)
H7E H 0.0543 0.3732 0.2734
H8E H 0.0079 0.3952 0.2554
C18E C 0.00410(17) 0.32438(16) 0.26096(15)
H9E H 0.0130 0.3189 0.2291
H10E H 0.0189 0.3010 0.2800
C19E C -0.04645(18) 0.32003(15) 0.26535(14)
H11E H -0.0559 0.2890 0.2567
H12E H -0.0615 0.3417 0.2447
C20E C -0.06088(15) 0.32960(14) 0.31414(14)
H13E H -0.0942 0.3270 0.3169
H14E H -0.0469 0.3072 0.3348
O1K O 0.03412(10) 0.70606(10) 0.47974(11)
O2K O 0.11406(8) 0.62402(10) 0.58204(10)
O3K O -0.16758(9) 0.62007(11) 0.56862(11)
O4K O -0.08860(9) 0.52117(11) 0.65607(10)
N1K N 0.07557(11) 0.65796(11) 0.52468(12)
N2K N -0.12857(10) 0.56519(11) 0.60698(11)
C1K C 0.03448(14) 0.67675(14) 0.50761(15)
C2K C -0.00782(14) 0.65724(14) 0.52659(16)
C3K C -0.00622(13) 0.62392(14) 0.56049(14)
C4K C 0.03591(12) 0.60826(14) 0.57921(14)
C5K C 0.07820(13) 0.63051(13) 0.56291(14)
C6K C -0.04881(15) 0.67272(14) 0.51098(17)
H1K H -0.0494 0.6955 0.4882
C7K C -0.08918(15) 0.65597(14) 0.52759(17)
H2K H -0.1172 0.6673 0.5165
C8K C -0.08866(13) 0.62172(13) 0.56133(14)
C9K C -0.04694(12) 0.60461(12) 0.57716(13)
C10K C -0.04517(13) 0.56960(15) 0.61058(14)
C11K C -0.00436(14) 0.55645(14) 0.62685(15)
H3K H -0.0030 0.5330 0.6488
C12K C 0.03609(13) 0.57670(15) 0.61198(14)
H4K H 0.0640 0.5679 0.6253
C13K C -0.13204(12) 0.60294(14) 0.57907(14)
C14K C -0.08847(14) 0.55035(15) 0.62682(14)
C15K C -0.17293(13) 0.54586(14) 0.62289(14)
H5K H -0.1967 0.5582 0.6022
C16K C -0.17601(13) 0.49382(15) 0.61947(12)
H6K H -0.1569 0.4810 0.6444
C17K C -0.22439(15) 0.47915(16) 0.62824(14)
H7K H -0.2266 0.4457 0.6268
H8K H -0.2446 0.4921 0.6048
C18K C -0.23904(15) 0.49590(17) 0.67562(16)
H9K H -0.2709 0.4870 0.6811
H10K H -0.2200 0.4811 0.6990
C19K C -0.23465(14) 0.54645(18) 0.67997(15)
H11K H -0.2433 0.5559 0.7110
H12K H -0.2553 0.5615 0.6583
C20K C -0.18586(14) 0.56088(15) 0.67040(14)
H13K H -0.1831 0.5942 0.6730
H14K H -0.1652 0.5469 0.6928
O5 O 0.08420(11) 0.73251(10) 0.17246(9)
O6 O 0.17243(13) 0.65296(12) 0.07557(10)
O7 O 0.17569(9) 0.61003(9) 0.35466(9)
O8 O 0.2788(2) 0.5481(2) 0.25833(13)
N3 N 0.13648(11) 0.70140(11) 0.12409(10)
N4 N 0.22913(12) 0.57982(12) 0.30786(11)
C21 C 0.11644(14) 0.70738(13) 0.16614(14)
C22 C 0.13626(14) 0.68166(14) 0.20571(13)
C23 C 0.17154(14) 0.65078(15) 0.19726(14)
C24 C 0.18703(14) 0.64250(14) 0.15280(13)
C25 C 0.16443(15) 0.66509(15) 0.11383(13)
C26 C 0.12091(13) 0.68920(13) 0.24935(14)
H15 H 0.0976 0.7107 0.2548
C27 C 0.13970(13) 0.66521(14) 0.28529(14)
H16 H 0.1291 0.6705 0.3152
C28 C 0.17357(13) 0.63384(15) 0.27794(14)
C29 C 0.19082(14) 0.62751(14) 0.23404(13)
C30 C 0.22709(17) 0.59844(16) 0.22589(14)
C31 C 0.24231(17) 0.59031(16) 0.18282(16)
H17 H 0.2664 0.5696 0.1779
C32 C 0.22223(15) 0.61266(15) 0.14598(13)
H18 H 0.2330 0.6072 0.1161
C33 C 0.19214(13) 0.60804(12) 0.31660(12)
C34 C 0.2477(2) 0.5732(2) 0.26452(16)
C35 C 0.25124(15) 0.55541(14) 0.34604(14)
H19 H 0.2777 0.5389 0.3328
C36 C 0.27070(13) 0.58726(14) 0.38287(12)
H20 H 0.2443 0.6019 0.3983
C37 C 0.29607(15) 0.55969(15) 0.41894(15)
H21 H 0.3075 0.5802 0.4429
H22 H 0.3223 0.5441 0.4050
C38 C 0.26376(15) 0.52459(13) 0.43967(14)
H23 H 0.2802 0.5062 0.4624
H24 H 0.2386 0.5403 0.4552
C39 C 0.24461(16) 0.49346(13) 0.40275(15)
H25 H 0.2697 0.4758 0.3891
H26 H 0.2231 0.4718 0.4166
C40 C 0.22073(15) 0.51980(15) 0.36624(15)
H27 H 0.1935 0.5345 0.3792
H28 H 0.2107 0.4988 0.3421
O5F O 0.32754(9) 0.91580(11) 0.23251(10)
O6F O 0.42443(10) 0.82757(13) 0.15296(12)
O7F O 0.14534(9) 0.82431(9) 0.11003(9)
O8F O 0.24167(13) 0.7212(2) 0.0481(2)
N3F N 0.37591(10) 0.86352(11) 0.20140(11)
N4F N 0.19214(11) 0.77087(12) 0.07982(12)
C21F C 0.33386(14) 0.88356(14) 0.20738(13)
C22F C 0.29429(13) 0.86374(14) 0.18166(14)
C23F C 0.30274(14) 0.82846(14) 0.15078(15)
C24F C 0.34720(13) 0.81297(14) 0.14250(14)
C25F C 0.38617(13) 0.83557(15) 0.16509(15)
C26F C 0.25065(14) 0.87909(13) 0.18920(13)
H15F H 0.2452 0.9024 0.2107
C27F C 0.21471(14) 0.86030(13) 0.16521(14)
H16F H 0.1848 0.8709 0.1705
C28F C 0.22206(14) 0.82643(13) 0.13384(15)
C29F C 0.26596(13) 0.80918(14) 0.12751(14)
C30F C 0.27411(14) 0.77291(17) 0.09844(16)
C31F C 0.31718(16) 0.75769(17) 0.09031(16)
H17F H 0.3221 0.7336 0.0696
C32F C 0.35402(13) 0.77777(15) 0.11266(15)
H18F H 0.3839 0.7670 0.1072
C33F C 0.18340(12) 0.80786(13) 0.10804(12)
C34F C 0.23548(16) 0.7523(2) 0.0732(2)
C35F C 0.15396(14) 0.74876(15) 0.05541(14)
H19F H 0.1672 0.7223 0.0389
C36F C 0.11713(12) 0.72930(13) 0.08726(14)
H20F H 0.1017 0.7557 0.1019
C37F C 0.08106(15) 0.70393(15) 0.05969(15)
H21F H 0.0571 0.6925 0.0802
H22F H 0.0950 0.6777 0.0441
C38F C 0.06033(14) 0.73624(15) 0.02459(13)
H23F H 0.0376 0.7198 0.0062
H24F H 0.0448 0.7614 0.0403
C39F C 0.09725(15) 0.75539(16) -0.00654(13)
H25F H 0.1109 0.7303 -0.0242
H26F H 0.0834 0.7769 -0.0282
C40F C 0.13376(15) 0.77927(15) 0.01980(15)
H27F H 0.1208 0.8065 0.0345
H28F H 0.1579 0.7893 -0.0012
O5I O 0.26749(10) 0.67246(9) 0.41580(11)
O6I O 0.34704(12) 0.57557(10) 0.32757(13)
O7I O 0.38997(9) 0.85466(9) 0.32431(9)
O8I O 0.4519(2) 0.75833(13) 0.2212(2)
N3I N 0.29860(11) 0.62409(10) 0.36352(11)
N4I N 0.42018(12) 0.80786(11) 0.27087(12)
C21I C 0.29262(13) 0.66614(14) 0.38356(14)
C22I C 0.31834(14) 0.70571(13) 0.36374(14)
C23I C 0.34922(15) 0.69726(14) 0.32846(14)
C24I C 0.35750(14) 0.65280(13) 0.31297(14)
C25I C 0.33491(15) 0.61383(13) 0.33557(15)
C26I C 0.31080(13) 0.74935(14) 0.37909(13)
H15I H 0.2893 0.7548 0.4024
C27I C 0.33479(14) 0.78529(14) 0.36030(13)
H16I H 0.3295 0.8152 0.3709
C28I C 0.36616(15) 0.77794(14) 0.32643(13)
C29I C 0.37249(14) 0.73404(13) 0.30918(14)
C30I C 0.40156(16) 0.72589(14) 0.27291(17)
C31I C 0.40969(16) 0.68282(16) 0.25769(17)
H17I H 0.4304 0.6779 0.2336
C32I C 0.38734(15) 0.64598(13) 0.27777(15)
H18I H 0.3928 0.6161 0.2670
C33I C 0.39196(12) 0.81660(12) 0.30786(13)
C34I C 0.4268(2) 0.76452(16) 0.2523(2)
C35I C 0.44459(14) 0.84604(14) 0.24876(15)
H19I H 0.4611 0.8328 0.2223
C36I C 0.41274(14) 0.88287(12) 0.22930(13)
H20I H 0.3981 0.8983 0.2557
C37I C 0.44031(15) 0.91894(15) 0.20393(15)
H21I H 0.4198 0.9429 0.1925
H22I H 0.4559 0.9050 0.1777
C38I C 0.47541(13) 0.93967(14) 0.23624(15)
H23I H 0.4938 0.9624 0.2198
H24I H 0.4597 0.9552 0.2614
C39I C 0.50654(13) 0.90275(15) 0.25539(16)
H25I H 0.5242 0.8891 0.2303
H26I H 0.5282 0.9166 0.2769
C40I C 0.48020(15) 0.86624(15) 0.27927(15)
H27I H 0.4655 0.8792 0.3065
H28I H 0.5012 0.8421 0.2893
Cl1 Cl -0.04344(14) 0.70777(17) 0.36528(19)
C41 C 0.0000 0.7500 0.3853(2)
H29 H -0.0151 0.7768 0.3988
Cl1M Cl 0.04344(14) 0.79223(17) 0.36528(19)
H29M H 0.0151 0.7232 0.3988
Cl2? Cl 0.03094(15) 0.76565(12) 0.33826(11)
H30? H 0.0200 0.7362 0.4084
loop_
_geom_bond_atom_site_label_1
_geom_bond_atom_site_label_2
_geom_bond_site_symmetry_1
_geom_bond_site_symmetry_2
O1 C1 1_555 1_555
O2 C5 1_555 1_555
O3 C13 1_555 1_555
O4 C14 1_555 1_555
N1 C1 1_555 1_555
N2 C13 1_555 1_555
C1 C2 1_555 1_555
C2 C3 1_555 1_555
C3 C4 1_555 1_555
C4 C5 1_555 1_555
C5 N1 1_555 1_555
C6 C2 1_555 1_555
H1 C6 1_555 1_555
C7 C6 1_555 1_555
H2 C7 1_555 1_555
C8 C7 1_555 1_555
C9 C3 1_555 1_555
C10 C9 1_555 1_555
C11 C10 1_555 1_555
H3 C11 1_555 1_555
C12 C4 1_555 1_555
H4 C12 1_555 1_555
C13 C8 1_555 1_555
C14 N2 1_555 1_555
C15 N2 1_555 1_555
H5 C15 1_555 1_555
C16 C15 1_555 1_555
H6 C16 1_555 1_555
C17 C16 1_555 1_555
H7 C17 1_555 1_555
H8 C17 1_555 1_555
C18 C17 1_555 1_555
H9 C18 1_555 1_555
H10 C18 1_555 1_555
C19 C18 1_555 1_555
H11 C19 1_555 1_555
H12 C19 1_555 1_555
C20 C15 1_555 1_555
H13 C20 1_555 1_555
H14 C20 1_555 1_555
O5 C21 1_555 1_555
O6 C25 1_555 1_555
O7 C33 1_555 1_555
O8 C34 1_555 1_555
N3 C21 1_555 1_555
N4 C33 1_555 1_555
C21 C22 1_555 1_555
C22 C23 1_555 1_555
C23 C24 1_555 1_555
C24 C25 1_555 1_555
C25 N3 1_555 1_555
C26 C22 1_555 1_555
H15 C26 1_555 1_555
C27 C26 1_555 1_555
H16 C27 1_555 1_555
C28 C27 1_555 1_555
C29 C23 1_555 1_555
C30 C29 1_555 1_555
C31 C30 1_555 1_555
H17 C31 1_555 1_555
C32 C24 1_555 1_555
H18 C32 1_555 1_555
C33 C28 1_555 1_555
C34 N4 1_555 1_555
C35 N4 1_555 1_555
H19 C35 1_555 1_555
C36 C35 1_555 1_555
H20 C36 1_555 1_555
C37 C36 1_555 1_555
H21 C37 1_555 1_555
H22 C37 1_555 1_555
C38 C37 1_555 1_555
H23 C38 1_555 1_555
H24 C38 1_555 1_555
C39 C38 1_555 1_555
H25 C39 1_555 1_555
H26 C39 1_555 1_555
C40 C35 1_555 1_555
H27 C40 1_555 1_555
H28 C40 1_555 1_555
Cl1 C41 1_555 1_555
C41 H29 1_555 1_555
O1E C1E 1_555 1_555
O2E C5E 1_555 1_555
O3E C13E 1_555 1_555
O4E C14E 1_555 1_555
N1E C1E 1_555 1_555
N2E C13E 1_555 1_555
C1E C2E 1_555 1_555
C2E C3E 1_555 1_555
C3E C4E 1_555 1_555
C4E C5E 1_555 1_555
C5E N1E 1_555 1_555
C6E C2E 1_555 1_555
H1E C6E 1_555 1_555
C7E C6E 1_555 1_555
H2E C7E 1_555 1_555
C8E C7E 1_555 1_555
C9E C3E 1_555 1_555
C10E C9E 1_555 1_555
C11E C10E 1_555 1_555
H3E C11E 1_555 1_555
C12E C4E 1_555 1_555
H4E C12E 1_555 1_555
C13E C8E 1_555 1_555
C14E N2E 1_555 1_555
C15E N2E 1_555 1_555
H5E C15E 1_555 1_555
C16E N1 1_555 1_555
H6E C16E 1_555 1_555
C17E C16E 1_555 1_555
H7E C17E 1_555 1_555
H8E C17E 1_555 1_555
C18E C17E 1_555 1_555
H9E C18E 1_555 1_555
H10E C18E 1_555 1_555
C19E C18E 1_555 1_555
H11E C19E 1_555 1_555
H12E C19E 1_555 1_555
C20E C15E 1_555 1_555
H13E C20E 1_555 1_555
H14E C20E 1_555 1_555
O1K C1K 1_555 1_555
O2K C5K 1_555 1_555
O3K C13K 1_555 1_555
O4K C14K 1_555 1_555
N1K C16 1_555 1_555
N2K C13K 1_555 1_555
C1K N1K 1_555 1_555
C2K C1K 1_555 1_555
C3K C2K 1_555 1_555
C4K C3K 1_555 1_555
C5K N1K 1_555 1_555
C6K C2K 1_555 1_555
H1K C6K 1_555 1_555
C7K C6K 1_555 1_555
H2K C7K 1_555 1_555
C8K C7K 1_555 1_555
C9K C3K 1_555 1_555
C10K C9K 1_555 1_555
C11K C10K 1_555 1_555
H3K C11K 1_555 1_555
C12K C4K 1_555 1_555
H4K C12K 1_555 1_555
C13K C8K 1_555 1_555
C14K N2K 1_555 1_555
C15K N2K 1_555 1_555
H5K C15K 1_555 1_555
C16K N1E 1_555 1_555
H6K C16K 1_555 1_555
C17K C16K 1_555 1_555
H7K C17K 1_555 1_555
H8K C17K 1_555 1_555
C18K C17K 1_555 1_555
H9K C18K 1_555 1_555
H10K C18K 1_555 1_555
C19K C18K 1_555 1_555
H11K C19K 1_555 1_555
H12K C19K 1_555 1_555
C20K C15K 1_555 1_555
H13K C20K 1_555 1_555
H14K C20K 1_555 1_555
O5F C21F 1_555 1_555
O6F C25F 1_555 1_555
O7F C33F 1_555 1_555
O8F C34F 1_555 1_555
N3F C21F 1_555 1_555
N4F C33F 1_555 1_555
C21F C22F 1_555 1_555
C22F C23F 1_555 1_555
C23F C24F 1_555 1_555
C24F C25F 1_555 1_555
C25F N3F 1_555 1_555
C26F C22F 1_555 1_555
H15F C26F 1_555 1_555
C27F C26F 1_555 1_555
H16F C27F 1_555 1_555
C28F C27F 1_555 1_555
C29F C23F 1_555 1_555
C30F C29F 1_555 1_555
C31F C30F 1_555 1_555
H17F C31F 1_555 1_555
C32F C24F 1_555 1_555
H18F C32F 1_555 1_555
C33F C28F 1_555 1_555
C34F N4F 1_555 1_555
C35F N4F 1_555 1_555
H19F C35F 1_555 1_555
C36F N3 1_555 1_555
H20F C36F 1_555 1_555
C37F C36F 1_555 1_555
H21F C37F 1_555 1_555
H22F C37F 1_555 1_555
C38F C37F 1_555 1_555
H23F C38F 1_555 1_555
H24F C38F 1_555 1_555
C39F C38F 1_555 1_555
H25F C39F 1_555 1_555
H26F C39F 1_555 1_555
C40F C35F 1_555 1_555
H27F C40F 1_555 1_555
H28F C40F 1_555 1_555
O5I C21I 1_555 1_555
O6I C25I 1_555 1_555
O7I C33I 1_555 1_555
O8I C34I 1_555 1_555
N3I C36 1_555 1_555
N4I C33I 1_555 1_555
C21I N3I 1_555 1_555
C22I C21I 1_555 1_555
C23I C22I 1_555 1_555
C24I C23I 1_555 1_555
C25I N3I 1_555 1_555
C26I C22I 1_555 1_555
H15I C26I 1_555 1_555
C27I C26I 1_555 1_555
H16I C27I 1_555 1_555
C28I C27I 1_555 1_555
C29I C23I 1_555 1_555
C30I C29I 1_555 1_555
C31I C30I 1_555 1_555
H17I C31I 1_555 1_555
C32I C24I 1_555 1_555
H18I C32I 1_555 1_555
C33I C28I 1_555 1_555
C34I N4I 1_555 1_555
C35I N4I 1_555 1_555
H19I C35I 1_555 1_555
C36I N3F 1_555 1_555
H20I C36I 1_555 1_555
C37I C36I 1_555 1_555
H21I C37I 1_555 1_555
H22I C37I 1_555 1_555
C38I C37I 1_555 1_555
H23I C38I 1_555 1_555
H24I C38I 1_555 1_555
C39I C38I 1_555 1_555
H25I C39I 1_555 1_555
H26I C39I 1_555 1_555
C40I C35I 1_555 1_555
H27I C40I 1_555 1_555
H28I C40I 1_555 1_555
Cl1M C41 1_555 1_555
H29M C41 1_555 1_555
C8 C9 1_555 1_555
C10 C14 1_555 1_555
C11 C12 1_555 1_555
C19 C20 1_555 1_555
C28 C29 1_555 1_555
C30 C34 1_555 1_555
C31 C32 1_555 1_555
C39 C40 1_555 1_555
C8E C9E 1_555 1_555
C10E C14E 1_555 1_555
C11E C12E 1_555 1_555
C15E C16E 1_555 1_555
C19E C20E 1_555 1_555
C4K C5K 1_555 1_555
C8K C9K 1_555 1_555
C10K C14K 1_555 1_555
C11K C12K 1_555 1_555
C15K C16K 1_555 1_555
C19K C20K 1_555 1_555
C28F C29F 1_555 1_555
C30F C34F 1_555 1_555
C31F C32F 1_555 1_555
C35F C36F 1_555 1_555
C39F C40F 1_555 1_555
C24I C25I 1_555 1_555
C28I C29I 1_555 1_555
C30I C34I 1_555 1_555
C31I C32I 1_555 1_555
C35I C36I 1_555 1_555
C39I C40I 1_555 1_555

#END
