
#######################################################################
#
#                 Cambridge Crystallographic Data Centre
#                                CCDC 
#
#######################################################################
#
# If this CIF has been generated from an entry in the Cambridge 
# Structural Database, then it will include bibliographic, chemical, 
# crystal, experimental, refinement or atomic coordinate data resulting 
# from the CCDC's data processing and validation procedures.
#
#######################################################################

data_HIRKUQ
_chemical_formula_moiety         
'C60 H42 N6 O12,C2 H4 Br2,2(I3 1-),2(C16 H36 N1 1+)'
_chemical_name_systematic        
"(-)-\D-Cyclo-tris(N,N'-(cyclohexane-1,4-diyl)benzo(lmn)(3,8)phenanthroline-1,3,6,8(2H,7H)-tetrone) bis(tetra-n-butylammonium tri-iodide) 1,2-dibromoethane solvate"
_symmetry_cell_setting           rhombohedral
_symmetry_space_group_name_H-M   'R 3'
_symmetry_Int_Tables_number      146
_space_group_name_Hall           'R 3'
loop_
_symmetry_equiv_pos_site_id
_symmetry_equiv_pos_as_xyz
1 x,y,z
2 -y,x-y,z
3 -x+y,-x,z
4 2/3+x,1/3+y,1/3+z
5 2/3-y,1/3+x-y,1/3+z
6 2/3-x+y,1/3-x,1/3+z
7 1/3+x,2/3+y,2/3+z
8 1/3-y,2/3+x-y,2/3+z
9 1/3-x+y,2/3-x,2/3+z
_cell_length_a                   32.0367(4)
_cell_length_b                   32.0367(4)
_cell_length_c                   25.5838(4)
_cell_angle_alpha                90
_cell_angle_beta                 90
_cell_angle_gamma                120
_cell_volume                     22740
_exptl_crystal_colour            red
_exptl_crystal_description       needle
_cell_formula_units_Z            9
loop_
_atom_site_label
_atom_site_type_symbol
_atom_site_fract_x
_atom_site_fract_y
_atom_site_fract_z
I3 I 0.2511(3) -0.0302(3) 0.7365(3)
I4 I 0.1844(5) -0.0174(5) 0.7987(6)
I5 I 0.1297(4) -0.00467(19) 0.8840(7)
O1 O 0.4735(4) 0.3253(5) 0.9323(5)
O2 O 0.2630(4) 0.2885(4) 0.8091(4)
O3 O 0.3459(4) 0.4398(4) 0.7378(4)
O4 O 0.5492(4) 0.4833(5) 0.8834(4)
O5 O 0.3050(4) 0.3797(4) 0.6359(4)
O6 O 0.5000(4) 0.3769(4) 0.5163(4)
O7 O 0.4325(4) 0.2170(4) 0.5529(4)
O8 O 0.2566(4) 0.2308(4) 0.7055(4)
O9 O 0.5141(5) 0.2307(4) 0.6369(4)
O10 O 0.5685(6) 0.3351(6) 0.8850(5)
O11 O 0.6336(5) 0.4845(5) 0.8123(5)
O12 O 0.5904(4) 0.3794(4) 0.5628(4)
N1 N 0.5136(5) 0.4034(5) 0.9043(5)
N2 N 0.3043(4) 0.3622(4) 0.7690(5)
N3 N 0.2823(4) 0.3062(4) 0.6759(5)
N4 N 0.4689(5) 0.2987(4) 0.5386(5)
N5 N 0.5488(5) 0.3047(5) 0.5997(5)
N6 N 0.5968(5) 0.4101(6) 0.8503(5)
C1 C 0.4726(6) 0.3567(7) 0.9073(7)
C2 C 0.4301(6) 0.3473(6) 0.8765(6)
C3 C 0.3885(6) 0.3043(6) 0.8777(6)
H1 H 0.3880 0.2783 0.8960
C4 C 0.3466(6) 0.2967(6) 0.8533(6)
H2 H 0.3179 0.2664 0.8560
C5 C 0.3468(5) 0.3336(6) 0.8249(6)
C6 C 0.3012(5) 0.3261(6) 0.8012(6)
C7 C 0.3460(5) 0.4082(6) 0.7633(6)
C8 C 0.3898(5) 0.4162(6) 0.7936(6)
C9 C 0.4310(6) 0.4594(6) 0.7894(6)
H3 H 0.4319 0.4837 0.7674
C10 C 0.4726(6) 0.4682(6) 0.8178(6)
H4 H 0.5011 0.4989 0.8158
C11 C 0.4719(6) 0.4315(6) 0.8491(6)
C12 C 0.5143(6) 0.4422(7) 0.8783(6)
C13 C 0.4305(5) 0.3864(6) 0.8490(6)
C14 C 0.3893(5) 0.3788(6) 0.8226(6)
C15 C 0.2609(5) 0.3528(6) 0.7382(6)
H5 H 0.2716 0.3805 0.7136
C16 C 0.2214(5) 0.3517(7) 0.7707(6)
H6 H 0.2341 0.3821 0.7907
H7 H 0.2094 0.3247 0.7959
C17 C 0.1800(7) 0.3453(8) 0.7350(9)
H8 H 0.1539 0.3442 0.7568
H9 H 0.1919 0.3737 0.7116
C18 C 0.1604(6) 0.3017(7) 0.7032(8)
H10 H 0.1343 0.2996 0.6805
H11 H 0.1466 0.2730 0.7261
C19 C 0.2012(6) 0.3032(7) 0.6689(7)
H12 H 0.1882 0.2735 0.6475
H13 H 0.2141 0.3312 0.6450
C20 C 0.2418(5) 0.3071(6) 0.7040(6)
H14 H 0.2272 0.2788 0.7282
C21 C 0.3129(5) 0.3466(6) 0.6435(6)
C22 C 0.3544(6) 0.3456(6) 0.6207(6)
C23 C 0.3919(6) 0.3865(6) 0.5959(6)
H15 H 0.3920 0.4162 0.5972
C24 C 0.4281(6) 0.3841(6) 0.5700(6)
H16 H 0.4525 0.4117 0.5526
C25 C 0.4293(6) 0.3430(6) 0.5692(6)
C26 C 0.4690(5) 0.3411(6) 0.5387(6)
C27 C 0.4330(6) 0.2551(6) 0.5601(6)
C28 C 0.3967(6) 0.2586(5) 0.5920(5)
C29 C 0.3624(6) 0.2182(6) 0.6178(6)
H17 H 0.3627 0.1888 0.6149
C30 C 0.3257(6) 0.2202(6) 0.6494(6)
H18 H 0.3042 0.1937 0.6705
C31 C 0.3232(6) 0.2625(6) 0.6479(6)
C32 C 0.2836(6) 0.2640(6) 0.6791(6)
C33 C 0.3567(5) 0.3021(6) 0.6229(6)
C34 C 0.3957(5) 0.3023(5) 0.5937(5)
C35 C 0.5100(6) 0.2978(6) 0.5098(6)
H19 H 0.5333 0.3317 0.4994
C36 C 0.4955(6) 0.2679(6) 0.4597(6)
H20 H 0.4774 0.2783 0.4368
H21 H 0.4740 0.2335 0.4684
C37 C 0.5400(8) 0.2740(8) 0.4309(7)
H22 H 0.5299 0.2535 0.3992
H23 H 0.5602 0.3079 0.4197
C38 C 0.5697(7) 0.2600(6) 0.4659(6)
H24 H 0.5997 0.2671 0.4475
H25 H 0.5512 0.2248 0.4726
C39 C 0.5828(7) 0.2871(7) 0.5189(7)
H26 H 0.5991 0.2745 0.5415
H27 H 0.6056 0.3218 0.5128
C40 C 0.5379(7) 0.2811(6) 0.5466(6)
H28 H 0.5163 0.2458 0.5526
C41 C 0.5330(6) 0.2729(7) 0.6420(6)
C42 C 0.5445(7) 0.2957(7) 0.6970(7)
C43 C 0.5294(8) 0.2670(7) 0.7400(7)
H29 H 0.5109 0.2329 0.7365
C44 C 0.5411(9) 0.2876(8) 0.7876(8)
H30 H 0.5334 0.2679 0.8179
C45 C 0.5644(8) 0.3375(8) 0.7928(7)
C46 C 0.5770(8) 0.3610(9) 0.8463(7)
C47 C 0.6125(6) 0.4416(8) 0.8076(7)
C48 C 0.6025(6) 0.4186(7) 0.7540(6)
C49 C 0.6167(6) 0.4463(7) 0.7093(7)
H31 H 0.6328 0.4804 0.7120
C50 C 0.6077(6) 0.4244(6) 0.6593(6)
H32 H 0.6190 0.4443 0.6292
C51 C 0.5836(5) 0.3767(5) 0.6535(6)
C52 C 0.5746(5) 0.3551(6) 0.6027(6)
C53 C 0.5677(6) 0.3468(6) 0.6994(6)
C54 C 0.5762(6) 0.3669(6) 0.7488(6)
C55 C 0.6033(6) 0.4325(9) 0.8998(7)
H33 H 0.6131 0.4670 0.8932
C56 C 0.6455(7) 0.4323(11) 0.9326(8)
H34 H 0.6363 0.3990 0.9428
H35 H 0.6754 0.4459 0.9116
C57 C 0.6538(8) 0.4640(12) 0.9828(8)
H36 H 0.6817 0.4673 1.0029
H37 H 0.6606 0.4967 0.9726
C58 C 0.6073(7) 0.4386(11) 1.0165(7)
H38 H 0.6126 0.4555 1.0504
H39 H 0.5988 0.4049 1.0235
C59 C 0.5639(7) 0.4397(9) 0.9849(7)
H40 H 0.5339 0.4248 1.0058
H41 H 0.5726 0.4733 0.9764
C60 C 0.5573(6) 0.4106(8) 0.9346(6)
H42 H 0.5507 0.3779 0.9456
N7 N 0.3237(6) 0.4943(5) 0.5502(7)
C61 C 0.2879(7) 0.4443(6) 0.5298(8)
H43 H 0.3061 0.4324 0.5095
H44 H 0.2738 0.4227 0.5603
C62 C 0.2470(7) 0.4393(6) 0.4960(9)
H45 H 0.2601 0.4591 0.4641
H46 H 0.2282 0.4511 0.5153
C63 C 0.2144(7) 0.3870(6) 0.4809(8)
H47 H 0.2340 0.3748 0.4638
H48 H 0.2002 0.3677 0.5130
C64 C 0.1748(8) 0.3799(10) 0.4451(9)
H49 H 0.1635 0.3498 0.4255
H50 H 0.1867 0.4070 0.4206
H51 H 0.1481 0.3781 0.4655
C65 C 0.3378(9) 0.5316(8) 0.5080(9)
H52 H 0.3087 0.5322 0.4962
H53 H 0.3605 0.5636 0.5228
C66 C 0.3609(10) 0.5229(7) 0.4620(8)
H54 H 0.3941 0.5305 0.4701
H55 H 0.3420 0.4891 0.4500
C67 C 0.3607(12) 0.5566(9) 0.4222(9)
H56 H 0.3819 0.5899 0.4347
H57 H 0.3276 0.5515 0.4200
C68 C 0.3762(13) 0.5526(9) 0.3685(10)
H58 H 0.3793 0.5793 0.3470
H59 H 0.3522 0.5219 0.3528
H60 H 0.4074 0.5538 0.3702
C69 C 0.3663(7) 0.4913(6) 0.5723(9)
H61 H 0.3540 0.4642 0.5975
H62 H 0.3823 0.4841 0.5435
C70 C 0.4024(9) 0.5359(8) 0.5990(13)
H63 H 0.3857 0.5460 0.6242
H64 H 0.4185 0.5618 0.5727
C71 C 0.4398(9) 0.5298(9) 0.6273(13)
H65 H 0.4567 0.5205 0.6014
H66 H 0.4230 0.5024 0.6518
C72 C 0.4773(9) 0.5720(11) 0.6577(14)
H67 H 0.4881 0.6016 0.6375
H68 H 0.5048 0.5674 0.6646
H69 H 0.4636 0.5745 0.6910
C73 C 0.3016(8) 0.5119(8) 0.5912(8)
H70 H 0.3256 0.5456 0.6001
H71 H 0.2736 0.5122 0.5752
C74 C 0.2854(8) 0.4839(8) 0.6405(7)
H72 H 0.3110 0.4780 0.6539
H73 H 0.2563 0.4523 0.6338
C75 C 0.2741(10) 0.5109(9) 0.6806(9)
H74 H 0.3035 0.5425 0.6866
H75 H 0.2492 0.5174 0.6660
C76 C 0.2571(9) 0.4868(9) 0.7310(10)
H76 H 0.2256 0.4576 0.7265
H77 H 0.2541 0.5085 0.7556
H78 H 0.2802 0.4779 0.7447
N8 N 0.6632(6) 0.6246(6) 0.8831(7)
C77 C 0.6404(8) 0.6304(7) 0.8341(9)
H79 H 0.6300 0.6543 0.8414
H80 H 0.6655 0.6444 0.8067
C78 C 0.5983(8) 0.5863(7) 0.8123(8)
H81 H 0.5718 0.5736 0.8383
H82 H 0.6076 0.5614 0.8070
C79 C 0.5798(10) 0.5945(10) 0.7611(9)
H83 H 0.5479 0.5663 0.7533
H84 H 0.5757 0.6231 0.7644
C80 C 0.6132(12) 0.6022(16) 0.7175(12)
H85 H 0.5980 0.6026 0.6844
H86 H 0.6206 0.5760 0.7170
H87 H 0.6430 0.6331 0.7222
C81 C 0.6260(7) 0.5995(8) 0.9279(9)
H88 H 0.6039 0.5660 0.9163
H89 H 0.6441 0.5974 0.9582
C82 C 0.5955(9) 0.6186(11) 0.9478(10)
H90 H 0.5740 0.6178 0.9195
H91 H 0.6163 0.6526 0.9585
C83 C 0.5654(8) 0.5897(11) 0.9936(9)
H92 H 0.5482 0.5550 0.9850
H93 H 0.5864 0.5949 1.0243
C84 C 0.5304(12) 0.6055(16) 1.0060(16)
H94 H 0.5098 0.6003 0.9755
H95 H 0.5477 0.6399 1.0150
H96 H 0.5104 0.5869 1.0357
C85 C 0.6990(8) 0.6735(8) 0.9003(10)
H97 H 0.6814 0.6914 0.9050
H98 H 0.7213 0.6889 0.8706
C86 C 0.7294(10) 0.6832(9) 0.9475(11)
H99 H 0.7459 0.6640 0.9465
H100 H 0.7093 0.6744 0.9795
C87 C 0.7657(11) 0.7362(9) 0.9475(18)
H101 H 0.7616 0.7523 0.9165
H102 H 0.7630 0.7520 0.9795
C88 C 0.8123(15) 0.737(2) 0.946(3)
H103 H 0.8381 0.7699 0.9375
H104 H 0.8111 0.7149 0.9188
H105 H 0.8186 0.7274 0.9798
C89 C 0.6842(8) 0.5939(8) 0.8737(8)
H106 H 0.6575 0.5623 0.8622
H107 H 0.6949 0.5886 0.9081
C90 C 0.7244(10) 0.6070(11) 0.8370(11)
H108 H 0.7499 0.6405 0.8448
H109 H 0.7126 0.6069 0.8012
C91 C 0.7475(12) 0.5759(12) 0.8366(12)
H110 H 0.7720 0.5873 0.8085
H111 H 0.7226 0.5424 0.8281
C92 C 0.7714(12) 0.5758(13) 0.8879(13)
H112 H 0.8036 0.6044 0.8896
H113 H 0.7740 0.5467 0.8901
H114 H 0.7518 0.5764 0.9171
Br1 Br 0.56510(11) 0.55023(11) 0.54066(13)
Br2 Br 0.6574(2) 0.53475(17) 0.4775(3)
C93 C 0.6009(11) 0.4890(10) 0.5160(13)
H115 H 0.5920 0.4563 0.5101
C94 C 0.5735(10) 0.4946(10) 0.5477(12)
H116 H 0.5856 0.4953 0.5834
H117 H 0.5411 0.4655 0.5453
I1 I 0.46671(7) 0.37241(8) 0.71352(6)
I2 I 0.41899(9) 0.27387(9) 0.75022(7)
I6? I 0.4949(3) 0.4307(4) 0.6911(2)
I7? I 0.4459(3) 0.3321(4) 0.7289(2)
I8? I 0.4005(3) 0.2338(5) 0.7662(3)
I9? I 0.2500(4) -0.0201(5) 0.7408(5)
I10? I 0.1823(5) -0.0179(5) 0.8097(6)
I11? I 0.1103(4) -0.0013(2) 0.8531(5)
Br3? Br 0.6635(2) 0.5293(2) 0.5425(3)
H118? H 0.5919 0.4690 0.4858
I12? I 0.51321(8) 0.46994(10) 0.67747(7)
loop_
_geom_bond_atom_site_label_1
_geom_bond_atom_site_label_2
_geom_bond_site_symmetry_1
_geom_bond_site_symmetry_2
I1 I2 1_555 1_555
I3 I4 1_555 1_555
I4 I5 1_555 1_555
O1 C1 1_555 1_555
O2 C6 1_555 1_555
O3 C7 1_555 1_555
O4 C12 1_555 1_555
O5 C21 1_555 1_555
O6 C26 1_555 1_555
O7 C27 1_555 1_555
O8 C32 1_555 1_555
O9 C41 1_555 1_555
O10 C46 1_555 1_555
O11 C47 1_555 1_555
O12 C52 1_555 1_555
N1 C1 1_555 1_555
N2 C6 1_555 1_555
N3 C20 1_555 1_555
N4 C26 1_555 1_555
N5 C40 1_555 1_555
N6 C46 1_555 1_555
C1 C2 1_555 1_555
C2 C3 1_555 1_555
C3 H1 1_555 1_555
C4 C3 1_555 1_555
H2 C4 1_555 1_555
C5 C4 1_555 1_555
C6 C5 1_555 1_555
C7 N2 1_555 1_555
C8 C7 1_555 1_555
C9 C8 1_555 1_555
H3 C9 1_555 1_555
C10 C9 1_555 1_555
H4 C10 1_555 1_555
C11 C10 1_555 1_555
C12 N1 1_555 1_555
C13 C2 1_555 1_555
C14 C5 1_555 1_555
C15 N2 1_555 1_555
H5 C15 1_555 1_555
C16 C15 1_555 1_555
H6 C16 1_555 1_555
H7 C16 1_555 1_555
C17 C16 1_555 1_555
H8 C17 1_555 1_555
H9 C17 1_555 1_555
C18 C17 1_555 1_555
H10 C18 1_555 1_555
H11 C18 1_555 1_555
C19 C18 1_555 1_555
H12 C19 1_555 1_555
H13 C19 1_555 1_555
C20 C15 1_555 1_555
H14 C20 1_555 1_555
C21 N3 1_555 1_555
C22 C21 1_555 1_555
C23 C22 1_555 1_555
H15 C23 1_555 1_555
C24 C23 1_555 1_555
H16 C24 1_555 1_555
C25 C24 1_555 1_555
C26 C25 1_555 1_555
C27 N4 1_555 1_555
C28 C27 1_555 1_555
C29 C28 1_555 1_555
H17 C29 1_555 1_555
C30 C29 1_555 1_555
H18 C30 1_555 1_555
C31 C30 1_555 1_555
C32 N3 1_555 1_555
C33 C22 1_555 1_555
C34 C25 1_555 1_555
C35 N4 1_555 1_555
H19 C35 1_555 1_555
C36 C35 1_555 1_555
H20 C36 1_555 1_555
H21 C36 1_555 1_555
C37 C36 1_555 1_555
H22 C37 1_555 1_555
H23 C37 1_555 1_555
C38 C37 1_555 1_555
H24 C38 1_555 1_555
H25 C38 1_555 1_555
C39 C38 1_555 1_555
H26 C39 1_555 1_555
H27 C39 1_555 1_555
C40 C35 1_555 1_555
H28 C40 1_555 1_555
C41 N5 1_555 1_555
C42 C41 1_555 1_555
C43 C42 1_555 1_555
H29 C43 1_555 1_555
C44 C43 1_555 1_555
H30 C44 1_555 1_555
C45 C44 1_555 1_555
C46 C45 1_555 1_555
C47 N6 1_555 1_555
C48 C47 1_555 1_555
C49 C48 1_555 1_555
H31 C49 1_555 1_555
C50 C49 1_555 1_555
H32 C50 1_555 1_555
C51 C50 1_555 1_555
C52 N5 1_555 1_555
C53 C42 1_555 1_555
C54 C45 1_555 1_555
C55 N6 1_555 1_555
H33 C55 1_555 1_555
C56 C55 1_555 1_555
H34 C56 1_555 1_555
H35 C56 1_555 1_555
C57 C56 1_555 1_555
H36 C57 1_555 1_555
H37 C57 1_555 1_555
C58 C57 1_555 1_555
H38 C58 1_555 1_555
H39 C58 1_555 1_555
C59 C58 1_555 1_555
H40 C59 1_555 1_555
H41 C59 1_555 1_555
C60 N1 1_555 1_555
H42 C60 1_555 1_555
N7 C61 1_555 1_555
C61 H43 1_555 1_555
H44 C61 1_555 1_555
C62 C61 1_555 1_555
H45 C62 1_555 1_555
H46 C62 1_555 1_555
C63 C62 1_555 1_555
H47 C63 1_555 1_555
H48 C63 1_555 1_555
C64 C63 1_555 1_555
H49 C64 1_555 1_555
H50 C64 1_555 1_555
H51 C64 1_555 1_555
C65 N7 1_555 1_555
H52 C65 1_555 1_555
H53 C65 1_555 1_555
C66 C65 1_555 1_555
H54 C66 1_555 1_555
H55 C66 1_555 1_555
C67 C66 1_555 1_555
H56 C67 1_555 1_555
H57 C67 1_555 1_555
C68 C67 1_555 1_555
H58 C68 1_555 1_555
H59 C68 1_555 1_555
H60 C68 1_555 1_555
C69 N7 1_555 1_555
H61 C69 1_555 1_555
H62 C69 1_555 1_555
C70 C69 1_555 1_555
H63 C70 1_555 1_555
H64 C70 1_555 1_555
C71 C70 1_555 1_555
H65 C71 1_555 1_555
H66 C71 1_555 1_555
C72 C71 1_555 1_555
H67 C72 1_555 1_555
H68 C72 1_555 1_555
H69 C72 1_555 1_555
C73 N7 1_555 1_555
H70 C73 1_555 1_555
H71 C73 1_555 1_555
C74 C73 1_555 1_555
H72 C74 1_555 1_555
H73 C74 1_555 1_555
C75 C74 1_555 1_555
H74 C75 1_555 1_555
H75 C75 1_555 1_555
C76 C75 1_555 1_555
H76 C76 1_555 1_555
H77 C76 1_555 1_555
H78 C76 1_555 1_555
N8 C77 1_555 1_555
C77 H79 1_555 1_555
H80 C77 1_555 1_555
C78 C77 1_555 1_555
H81 C78 1_555 1_555
H82 C78 1_555 1_555
C79 C78 1_555 1_555
H83 C79 1_555 1_555
H84 C79 1_555 1_555
C80 C79 1_555 1_555
H85 C80 1_555 1_555
H86 C80 1_555 1_555
H87 C80 1_555 1_555
C81 N8 1_555 1_555
H88 C81 1_555 1_555
H89 C81 1_555 1_555
C82 C81 1_555 1_555
H90 C82 1_555 1_555
H91 C82 1_555 1_555
C83 C82 1_555 1_555
H92 C83 1_555 1_555
H93 C83 1_555 1_555
C84 C83 1_555 1_555
H94 C84 1_555 1_555
H95 C84 1_555 1_555
H96 C84 1_555 1_555
C85 N8 1_555 1_555
H97 C85 1_555 1_555
H98 C85 1_555 1_555
C86 C85 1_555 1_555
H99 C86 1_555 1_555
H100 C86 1_555 1_555
C87 C86 1_555 1_555
H101 C87 1_555 1_555
H102 C87 1_555 1_555
C88 C87 1_555 1_555
H103 C88 1_555 1_555
H104 C88 1_555 1_555
H105 C88 1_555 1_555
C89 N8 1_555 1_555
H106 C89 1_555 1_555
H107 C89 1_555 1_555
C90 C89 1_555 1_555
H108 C90 1_555 1_555
H109 C90 1_555 1_555
C91 C90 1_555 1_555
H110 C91 1_555 1_555
H111 C91 1_555 1_555
C92 C91 1_555 1_555
H112 C92 1_555 1_555
H113 C92 1_555 1_555
H114 C92 1_555 1_555
Br1 C94 1_555 1_555
Br2 C93 1_555 1_555
C93 H115 1_555 1_555
C94 C93 1_555 1_555
H116 C94 1_555 1_555
H117 C94 1_555 1_555
C8 C14 1_555 1_555
C11 C12 1_555 1_555
C11 C13 1_555 1_555
C13 C14 1_555 1_555
C19 C20 1_555 1_555
C28 C34 1_555 1_555
C31 C32 1_555 1_555
C31 C33 1_555 1_555
C33 C34 1_555 1_555
C39 C40 1_555 1_555
C48 C54 1_555 1_555
C51 C52 1_555 1_555
C51 C53 1_555 1_555
C53 C54 1_555 1_555
C55 C60 1_555 1_555
C59 C60 1_555 1_555

#END
