
#######################################################################
#
#                 Cambridge Crystallographic Data Centre
#                                CCDC 
#
#######################################################################
#
# If this CIF has been generated from an entry in the Cambridge 
# Structural Database, then it will include bibliographic, chemical, 
# crystal, experimental, refinement or atomic coordinate data resulting 
# from the CCDC's data processing and validation procedures.
#
#######################################################################

data_HIRKEZ
_chemical_formula_moiety         'C11 H13 N3 O3'
_chemical_name_systematic        '(E)-4-(Nicotinoylhydrazono)pentanoic acid'
_symmetry_cell_setting           triclinic
_symmetry_space_group_name_H-M   'P -1'
_symmetry_Int_Tables_number      2
_space_group_name_Hall           '-P 1'
loop_
_symmetry_equiv_pos_site_id
_symmetry_equiv_pos_as_xyz
1 x,y,z
2 -x,-y,-z
_cell_length_a                   7.0290(3)
_cell_length_b                   7.0968(2)
_cell_length_c                   12.1706(4)
_cell_angle_alpha                85.419(2)
_cell_angle_beta                 75.096(2)
_cell_angle_gamma                84.064(2)
_cell_volume                     582.644
_exptl_crystal_colour            colorless
_exptl_crystal_description       plate
_cell_formula_units_Z            2
_exptl_crystal_recrystallization_method methanol/water
loop_
_atom_site_label
_atom_site_type_symbol
_atom_site_fract_x
_atom_site_fract_y
_atom_site_fract_z
N1 N 0.3679(2) 0.0659(2) 0.26413(12)
N2 N 0.4224(2) -0.0185(2) 0.36022(13)
N3 N -0.0020(2) -0.3318(2) 0.26439(14)
O1 O 0.0342(2) 0.2835(2) -0.04831(13)
O2 O 0.3513(2) 0.3254(2) -0.12117(12)
O3 O 0.34167(19) -0.1862(2) 0.52647(11)
C1 C 0.7050(3) 0.1727(4) 0.20292(19)
C2 C 0.4995(3) 0.1553(3) 0.19311(15)
C3 C 0.4487(3) 0.2466(4) 0.08767(18)
C4 C 0.2433(3) 0.2259(4) 0.07626(18)
C5 C 0.2189(3) 0.2841(3) -0.04111(16)
C6 C 0.3087(2) -0.1382(2) 0.43323(14)
C7 C 0.1418(2) -0.2157(2) 0.40016(14)
C8 C -0.0256(3) -0.2502(2) 0.48646(16)
C9 C -0.1819(3) -0.3223(3) 0.45892(18)
C10 C -0.1651(3) -0.3590(3) 0.34801(19)
C11 C 0.1486(3) -0.2621(3) 0.29097(16)
H1 H -0.030(3) -0.219(3) 0.5665(17)
H2 H 0.468(3) 0.385(4) 0.0853(19)
H3 H 0.508(3) 0.031(3) 0.3871(18)
H4 H 0.266(3) -0.243(3) 0.2277(18)
H5 H -0.275(3) -0.408(3) 0.3253(19)
H6 H 0.214(4) 0.095(4) 0.091(2)
H7 H 0.548(4) 0.197(3) 0.022(2)
H8 H -0.296(3) -0.348(3) 0.5191(18)
H9 H 0.142(4) 0.303(4) 0.129(2)
H10 H 0.029(4) 0.322(4) -0.125(2)
H11 H 0.786(3) 0.213(3) 0.1317(12)
H12 H 0.760(4) 0.054(2) 0.230(2)
H13 H 0.699(5) 0.264(3) 0.2583(17)
loop_
_geom_bond_atom_site_label_1
_geom_bond_atom_site_label_2
_geom_bond_site_symmetry_1
_geom_bond_site_symmetry_2
N1 N2 1_555 1_555
N2 C6 1_555 1_555
N3 C10 1_555 1_555
O1 C5 1_555 1_555
O2 C5 1_555 1_555
O3 C6 1_555 1_555
C1 C2 1_555 1_555
C2 N1 1_555 1_555
C3 C2 1_555 1_555
C4 C3 1_555 1_555
C5 C4 1_555 1_555
C6 C7 1_555 1_555
C7 C8 1_555 1_555
C8 C9 1_555 1_555
C9 C10 1_555 1_555
C10 H5 1_555 1_555
C11 N3 1_555 1_555
H1 C8 1_555 1_555
H2 C3 1_555 1_555
H3 N2 1_555 1_555
H4 C11 1_555 1_555
H6 C4 1_555 1_555
H7 C3 1_555 1_555
H8 C9 1_555 1_555
H9 C4 1_555 1_555
H10 O1 1_555 1_555
H11 C1 1_555 1_555
H12 C1 1_555 1_555
H13 C1 1_555 1_555
C7 C11 1_555 1_555

#END
