
#######################################################################
#
#                 Cambridge Crystallographic Data Centre
#                                CCDC 
#
#######################################################################
#
# If this CIF has been generated from an entry in the Cambridge 
# Structural Database, then it will include bibliographic, chemical, 
# crystal, experimental, refinement or atomic coordinate data resulting 
# from the CCDC's data processing and validation procedures.
#
#######################################################################

data_HIRLAX
_chemical_formula_moiety         'C60 H42 N6 O12,1.5(H2 O1)'
_chemical_name_systematic        
"(+)-\D-Cyclo-tris(N,N'-(cyclohexane-1,4-diyl)benzo(lmn)(3,8)phenanthroline-1,3,6,8(2H,7H)-tetrone) sesquihydrate"
_symmetry_cell_setting           cubic
_symmetry_space_group_name_H-M   'I 21 3'
_symmetry_Int_Tables_number      199
_space_group_name_Hall           'I 2b 2c 3'
loop_
_symmetry_equiv_pos_site_id
_symmetry_equiv_pos_as_xyz
1 x,y,z
2 z,x,y
3 y,z,x
4 -y,1/2-z,x
5 z,-x,1/2-y
6 1/2-y,z,-x
7 -z,1/2-x,y
8 1/2-z,x,-y
9 y,-z,1/2-x
10 -x,1/2-y,z
11 x,-y,1/2-z
12 1/2-x,y,-z
13 1/2+x,1/2+y,1/2+z
14 1/2+z,1/2+x,1/2+y
15 1/2+y,1/2+z,1/2+x
16 1/2-y,-z,1/2+x
17 1/2+z,1/2-x,-y
18 -y,1/2+z,1/2-x
19 1/2-z,-x,1/2+y
20 -z,1/2+x,1/2-y
21 1/2+y,1/2-z,-x
22 1/2-x,-y,1/2+z
23 1/2+x,1/2-y,-z
24 -x,1/2+y,1/2-z
_cell_length_a                   29.5156(12)
_cell_length_b                   29.5156
_cell_length_c                   29.5156
_cell_angle_alpha                90
_cell_angle_beta                 90
_cell_angle_gamma                90
_cell_volume                     25713.1
_exptl_crystal_colour            colorless
_exptl_crystal_description       block
_cell_formula_units_Z            8
loop_
_atom_site_label
_atom_site_type_symbol
_atom_site_fract_x
_atom_site_fract_y
_atom_site_fract_z
O1 O 0.0480(3) 0.7405(2) 0.2785(4)
O2 O 0.15436(18) 0.92423(14) 0.1719(2)
O3 O 0.23455(18) 0.82701(16) 0.08580(17)
O4 O 0.11146(15) 0.64598(16) 0.17583(16)
N1 N 0.08085(19) 0.69264(18) 0.2295(2)
N2 N 0.20175(19) 0.87600(17) 0.1364(2)
C1 C 0.0699(3) 0.7351(3) 0.2450(3)
C2 C 0.0968(2) 0.7737(2) 0.2251(3)
C3 C 0.0908(3) 0.8178(2) 0.2404(3)
H1 H 0.0711 0.8231 0.2653
C4 C 0.1129(2) 0.8550(2) 0.2205(3)
H2 H 0.1070 0.8850 0.2305
C5 C 0.1437(2) 0.8467(2) 0.1854(3)
C6 C 0.1651(3) 0.8857(2) 0.1644(2)
C7 C 0.2074(3) 0.8329(2) 0.1180(3)
C8 C 0.1834(2) 0.7939(3) 0.1357(2)
C9 C 0.1924(2) 0.75138(19) 0.1227(2)
H3 H 0.2165 0.7457 0.1020
C10 C 0.1654(2) 0.7136(2) 0.1402(2)
H4 H 0.1692 0.6841 0.1280
C11 C 0.13543(19) 0.7204(2) 0.1733(2)
C12 C 0.10982(18) 0.6825(2) 0.19226(19)
C13 C 0.1517(2) 0.8036(2) 0.1721(2)
C14 C 0.1286(2) 0.7656(2) 0.1903(2)
C15 C 0.05459(19) 0.6538(2) 0.2506(2)
H5 H 0.0381 0.6661 0.2775
C16 C 0.0877(2) 0.6171(2) 0.2681(2)
H6 H 0.1023 0.6019 0.2416
C17 C 0.0606(2) 0.5817(2) 0.2948(3)
H7 H 0.0453 0.5962 0.3209
H8 H 0.0810 0.5578 0.3064
C18 C 0.0252(2) 0.5609(2) 0.2628(3)
H9 H 0.0408 0.5455 0.2374
H10 H 0.0071 0.5381 0.2794
C19 C -0.0050(2) 0.5964(2) 0.2448(2)
H11 H -0.0221 0.6102 0.2702
H12 H -0.0273 0.5823 0.2240
C20 C 0.0201(2) 0.6326(2) 0.2201(3)
H13 H -0.0015 0.6560 0.2095
H14 H 0.0353 0.6194 0.1933
O1Q O 0.2595(2) 0.7785(4) 0.4520(3)
O2Q O 0.07577(14) 0.6719(2) 0.34564(18)
O3Q O 0.17299(16) 0.58580(17) 0.26545(18)
O4Q O 0.35402(16) 0.67583(16) 0.38854(15)
N1Q N 0.30736(18) 0.7295(2) 0.41915(19)
N2Q N 0.12400(17) 0.6364(2) 0.29825(19)
C1Q C 0.2649(3) 0.7450(3) 0.4301(3)
C2Q C 0.2263(2) 0.7251(3) 0.4032(2)
C3Q C 0.1822(2) 0.7404(3) 0.4092(3)
H1Q H 0.1769 0.7653 0.4289
C4Q C 0.1450(2) 0.7205(3) 0.3871(2)
H2Q H 0.1150 0.7305 0.3930
C5Q C 0.1533(2) 0.6854(3) 0.3563(2)
C6Q C 0.1143(2) 0.6644(2) 0.3349(3)
C7Q C 0.1671(2) 0.6180(3) 0.2926(3)
C8Q C 0.2061(3) 0.6357(2) 0.3166(2)
C9Q C 0.24862(19) 0.6227(2) 0.3076(2)
H3Q H 0.2543 0.6020 0.2835
C10Q C 0.2864(2) 0.6402(2) 0.3346(2)
H4Q H 0.3159 0.6280 0.3308
C11Q C 0.2796(2) 0.6733(2) 0.36457(19)
C12Q C 0.3175(2) 0.69226(19) 0.39018(18)
C13Q C 0.1964(2) 0.6721(2) 0.3483(2)
C14Q C 0.2344(2) 0.6903(2) 0.3714(2)
C15Q C 0.3462(2) 0.7506(2) 0.44541(19)
H5Q H 0.3339 0.7775 0.4619
C16Q C 0.3829(2) 0.7681(2) 0.4123(2)
H6Q H 0.3981 0.7416 0.3977
C17Q C 0.4183(2) 0.7948(3) 0.4394(2)
H7Q H 0.4038 0.8209 0.4547
H8Q H 0.4422 0.8064 0.4190
C18Q C 0.4391(2) 0.7628(3) 0.4748(2)
H9Q H 0.4545 0.7374 0.4592
H10Q H 0.4619 0.7794 0.4929
C19Q C 0.4036(2) 0.7448(2) 0.5050(2)
H11Q H 0.3898 0.7702 0.5221
H12Q H 0.4177 0.7240 0.5273
C20Q C 0.3674(2) 0.7201(3) 0.4799(2)
H13Q H 0.3440 0.7095 0.5015
H14Q H 0.3806 0.6933 0.4647
O1R O 0.2215(4) 0.9520(3) 0.2405(2)
O2R O 0.3281(2) 0.84564(18) 0.42423(14)
O3R O 0.41420(17) 0.76545(18) 0.32701(16)
O4R O 0.32417(16) 0.88854(15) 0.14598(16)
N1R N 0.2705(2) 0.91915(19) 0.19264(18)
N2R N 0.3636(2) 0.79825(19) 0.37600(17)
C1R C 0.2550(3) 0.9301(3) 0.2351(3)
C2R C 0.2749(3) 0.9032(2) 0.2737(2)
C3R C 0.2596(3) 0.9092(3) 0.3178(2)
H1R H 0.2347 0.9289 0.3231
C4R C 0.2795(3) 0.8871(2) 0.3550(2)
H2R H 0.2695 0.8930 0.3850
C5R C 0.3146(3) 0.8563(2) 0.3467(2)
C6R C 0.3356(2) 0.8349(3) 0.3857(2)
C7R C 0.3820(3) 0.7926(3) 0.3329(2)
C8R C 0.3643(2) 0.8166(2) 0.2939(3)
C9R C 0.3773(2) 0.8076(2) 0.25138(19)
H3R H 0.3980 0.7835 0.2457
C10R C 0.3598(2) 0.8346(2) 0.2136(2)
H4R H 0.3720 0.8308 0.1841
C11R C 0.3267(2) 0.86457(19) 0.2204(2)
C12R C 0.30774(19) 0.89018(18) 0.1825(2)
C13R C 0.3279(2) 0.8483(2) 0.3036(2)
C14R C 0.3097(2) 0.8714(2) 0.2656(2)
C15R C 0.2494(2) 0.94541(19) 0.1538(2)
H5R H 0.2225 0.9619 0.1661
C16R C 0.2319(2) 0.9123(2) 0.1171(2)
H6R H 0.2584 0.8977 0.1019
C17R C 0.2052(3) 0.9394(2) 0.0817(2)
H7R H 0.1791 0.9547 0.0962
H8R H 0.1936 0.9190 0.0578
C18R C 0.2372(3) 0.9748(2) 0.0609(2)
H9R H 0.2626 0.9592 0.0455
H10R H 0.2206 0.9929 0.0381
C19R C 0.2552(2) 1.0050(2) 0.0964(2)
H11R H 0.2298 1.0221 0.1102
H12R H 0.2760 1.0273 0.0823
C20R C 0.2799(3) 0.9799(2) 0.1326(2)
H13R H 0.2905 1.0015 0.1560
H14R H 0.3067 0.9647 0.1194
O5 O 0.03826(12) 0.77905(16) 0.12137(16)
H15 H 0.0360 0.7800 0.1508
H16 H 0.0458 0.7518 0.1130
O6 O -0.11365(14) 0.62208(15) 0.08205(17)
O7 O 0.08846(14) 0.51836(19) 0.15531(17)
O8 O 0.16817(15) 0.61912(18) 0.06949(18)
O9 O -0.03348(17) 0.70721(16) -0.02042(19)
N3 N -0.07535(17) 0.65894(16) 0.0249(2)
N4 N 0.12934(15) 0.56459(18) 0.10688(17)
C21 C -0.0781(2) 0.6307(2) 0.0627(2)
C22 C -0.0354(2) 0.6087(3) 0.0801(3)
C23 C -0.0354(2) 0.5756(2) 0.1120(2)
H17 H -0.0634 0.5669 0.1252
C24 C 0.0042(2) 0.5537(3) 0.1264(2)
H18 H 0.0030 0.5288 0.1467
C25 C 0.0455(2) 0.5696(2) 0.1100(2)
C26 C 0.08888(18) 0.5505(2) 0.1258(2)
C27 C 0.1315(2) 0.6022(2) 0.0783(2)
C28 C 0.0897(2) 0.6220(2) 0.0616(3)
C29 C 0.0886(3) 0.6549(2) 0.0286(3)
H19 H 0.1164 0.6653 0.0161
C30 C 0.0480(2) 0.6737(2) 0.0128(3)
H20 H 0.0485 0.6970 -0.0094
C31 C 0.0073(2) 0.6581(2) 0.0298(3)
C32 C -0.0351(3) 0.6766(2) 0.0105(3)
C33 C 0.0061(2) 0.6249(2) 0.0609(2)
C34 C 0.04749(19) 0.6049(2) 0.0768(2)
C35 C -0.1196(2) 0.6764(2) 0.0064(2)
H21 H -0.1441 0.6568 0.0192
C36 C -0.1284(2) 0.7238(2) 0.0231(3)
H22 H -0.1056 0.7447 0.0102
H23 H -0.1259 0.7247 0.0565
C37 C -0.1776(3) 0.7390(3) 0.0081(3)
H24 H -0.2008 0.7193 0.0223
H25 H -0.1834 0.7707 0.0174
C38 C -0.1796(3) 0.7347(2) -0.0443(3)
H26 H -0.2103 0.7427 -0.0551
H27 H -0.1578 0.7562 -0.0582
C39 C -0.1680(3) 0.6860(2) -0.0592(3)
H28 H -0.1901 0.6647 -0.0458
H29 H -0.1703 0.6837 -0.0926
C40 C -0.1235(2) 0.6739(2) -0.0453(2)
H30 H -0.1029 0.6978 -0.0576
O6S O -0.08205(17) 0.38635(14) -0.12208(15)
O7S O -0.15531(17) 0.58846(14) -0.01836(19)
O8S O -0.06949(18) 0.66817(15) -0.11912(18)
O9S O 0.02042(19) 0.46652(17) -0.20721(16)
N3S N -0.0249(2) 0.42465(17) -0.15894(16)
N4S N -0.10688(17) 0.62934(15) -0.06459(18)
C21S C -0.0627(2) 0.4219(2) -0.1307(2)
C22S C -0.0801(3) 0.4646(2) -0.1087(3)
C23S C -0.1120(2) 0.4646(2) -0.0756(2)
H17S H -0.1252 0.4366 -0.0669
C24S C -0.1264(2) 0.5042(2) -0.0537(3)
H18S H -0.1467 0.5030 -0.0288
C25S C -0.1100(2) 0.5455(2) -0.0696(2)
C26S C -0.1258(2) 0.58888(18) -0.0505(2)
C27S C -0.0783(2) 0.6315(2) -0.1022(2)
C28S C -0.0616(3) 0.5897(2) -0.1220(2)
C29S C -0.0286(3) 0.5886(3) -0.1549(2)
H19S H -0.0161 0.6164 -0.1653
C30S C -0.0128(3) 0.5480(2) -0.1737(2)
H20S H 0.0094 0.5485 -0.1970
C31S C -0.0298(3) 0.5073(2) -0.1581(2)
C32S C -0.0105(3) 0.4649(3) -0.1766(2)
C33S C -0.0609(2) 0.5061(2) -0.1249(2)
C34S C -0.0768(2) 0.54749(19) -0.1049(2)
C35S C -0.0064(2) 0.3804(2) -0.1764(2)
H21S H -0.0192 0.3559 -0.1568
C36S C -0.0231(3) 0.3716(2) -0.2238(2)
H22S H -0.0102 0.3944 -0.2447
H23S H -0.0565 0.3741 -0.2247
C37S C -0.0081(3) 0.3224(3) -0.2390(3)
H24S H -0.0223 0.2992 -0.2193
H25S H -0.0174 0.3166 -0.2707
C38S C 0.0443(3) 0.3204(3) -0.2347(2)
H26S H 0.0551 0.2897 -0.2427
H27S H 0.0582 0.3422 -0.2562
C39S C 0.0592(3) 0.3320(3) -0.1860(2)
H28S H 0.0458 0.3099 -0.1647
H29S H 0.0926 0.3297 -0.1837
C40S C 0.0453(2) 0.3765(2) -0.1739(2)
H30S H 0.0576 0.3971 -0.1978
O6T O 0.12208(15) 0.41795(17) 0.11365(14)
O7T O 0.01836(19) 0.34469(17) -0.08846(14)
O8T O 0.11912(18) 0.43051(18) -0.16817(15)
O9T O 0.20721(16) 0.52042(19) 0.03348(17)
N3T N 0.15894(16) 0.4751(2) 0.07535(17)
N4T N 0.06459(18) 0.39312(17) -0.12934(15)
C21T C 0.1307(2) 0.4373(2) 0.0781(2)
C22T C 0.1087(3) 0.4199(3) 0.0354(2)
C23T C 0.0756(2) 0.3880(2) 0.0354(2)
H17T H 0.0669 0.3748 0.0634
C24T C 0.0537(3) 0.3736(2) -0.0042(2)
H18T H 0.0288 0.3533 -0.0030
C25T C 0.0696(2) 0.3900(2) -0.0455(2)
C26T C 0.0505(2) 0.3742(2) -0.08888(18)
C27T C 0.1022(2) 0.4217(2) -0.1315(2)
C28T C 0.1220(2) 0.4384(3) -0.0897(2)
C29T C 0.1549(2) 0.4714(3) -0.0886(3)
H19T H 0.1653 0.4839 -0.1164
C30T C 0.1737(2) 0.4872(3) -0.0480(2)
H20T H 0.1970 0.5094 -0.0485
C31T C 0.1581(2) 0.4702(3) -0.0073(2)
C32T C 0.1766(2) 0.4895(3) 0.0351(3)
C33T C 0.1249(2) 0.4391(2) -0.0061(2)
C34T C 0.1049(2) 0.4232(2) -0.04749(19)
C35T C 0.1764(2) 0.4936(2) 0.1196(2)
H21T H 0.1568 0.4808 0.1441
C36T C 0.2238(2) 0.4769(3) 0.1284(2)
H22T H 0.2447 0.4898 0.1056
H23T H 0.2247 0.4435 0.1259
C37T C 0.2390(3) 0.4919(3) 0.1776(3)
H24T H 0.2193 0.4777 0.2008
H25T H 0.2707 0.4826 0.1834
C38T C 0.2347(2) 0.5443(3) 0.1796(3)
H26T H 0.2427 0.5551 0.2103
H27T H 0.2562 0.5582 0.1578
C39T C 0.1860(2) 0.5592(3) 0.1680(3)
H28T H 0.1647 0.5458 0.1901
H29T H 0.1837 0.5926 0.1703
C40T C 0.1739(2) 0.5453(2) 0.1235(2)
H30T H 0.1978 0.5576 0.1029
loop_
_geom_bond_atom_site_label_1
_geom_bond_atom_site_label_2
_geom_bond_site_symmetry_1
_geom_bond_site_symmetry_2
O1 C1 1_555 1_555
O2 C6 1_555 1_555
O3 C7 1_555 1_555
O4 C12 1_555 1_555
N1 C1 1_555 1_555
N2 C6 1_555 1_555
C1 C2 1_555 1_555
C2 C3 1_555 1_555
C3 H1 1_555 1_555
C4 C3 1_555 1_555
H2 C4 1_555 1_555
C5 C4 1_555 1_555
C6 C5 1_555 1_555
C7 N2 1_555 1_555
C8 C7 1_555 1_555
C9 C8 1_555 1_555
H3 C9 1_555 1_555
C10 C9 1_555 1_555
H4 C10 1_555 1_555
C11 C10 1_555 1_555
C12 N1 1_555 1_555
C13 C5 1_555 1_555
C14 C2 1_555 1_555
C15 N1 1_555 1_555
H5 C15 1_555 1_555
C16 C15 1_555 1_555
H6 C16 1_555 1_555
C17 C16 1_555 1_555
H7 C17 1_555 1_555
H8 C17 1_555 1_555
C18 C17 1_555 1_555
H9 C18 1_555 1_555
H10 C18 1_555 1_555
C19 C18 1_555 1_555
H11 C19 1_555 1_555
H12 C19 1_555 1_555
C20 C15 1_555 1_555
H13 C20 1_555 1_555
H14 C20 1_555 1_555
O5 H15 1_555 1_555
H16 O5 1_555 1_555
O6 C21 1_555 1_555
O7 C26 1_555 1_555
O8 C27 1_555 1_555
O9 C32 1_555 1_555
N3 C21 1_555 1_555
N4 C26 1_555 1_555
C21 C22 1_555 1_555
C22 C23 1_555 1_555
C23 H17 1_555 1_555
C24 C23 1_555 1_555
H18 C24 1_555 1_555
C25 C24 1_555 1_555
C26 C25 1_555 1_555
C27 N4 1_555 1_555
C28 C27 1_555 1_555
C29 C28 1_555 1_555
H19 C29 1_555 1_555
C30 C29 1_555 1_555
H20 C30 1_555 1_555
C31 C30 1_555 1_555
C32 N3 1_555 1_555
C33 C22 1_555 1_555
C34 C25 1_555 1_555
C35 N3 1_555 1_555
H21 C35 1_555 1_555
C36 C35 1_555 1_555
H22 C36 1_555 1_555
H23 C36 1_555 1_555
C37 C36 1_555 1_555
H24 C37 1_555 1_555
H25 C37 1_555 1_555
C38 C37 1_555 1_555
H26 C38 1_555 1_555
H27 C38 1_555 1_555
C39 C38 1_555 1_555
H28 C39 1_555 1_555
H29 C39 1_555 1_555
C40 C35 1_555 1_555
H30 C40 1_555 1_555
O1Q C1Q 1_555 1_555
O2Q C6Q 1_555 1_555
O3Q C7Q 1_555 1_555
O4Q C12Q 1_555 1_555
N1Q C1Q 1_555 1_555
N2Q C16 1_555 1_555
C1Q C2Q 1_555 1_555
C2Q C3Q 1_555 1_555
C3Q H1Q 1_555 1_555
C4Q C3Q 1_555 1_555
H2Q C4Q 1_555 1_555
C5Q C4Q 1_555 1_555
C6Q N2Q 1_555 1_555
C7Q N2Q 1_555 1_555
C8Q C7Q 1_555 1_555
C9Q C8Q 1_555 1_555
H3Q C9Q 1_555 1_555
C10Q C9Q 1_555 1_555
H4Q C10Q 1_555 1_555
C11Q C10Q 1_555 1_555
C12Q N1Q 1_555 1_555
C13Q C5Q 1_555 1_555
C14Q C2Q 1_555 1_555
C15Q N1Q 1_555 1_555
H5Q C15Q 1_555 1_555
C16Q C15Q 1_555 1_555
H6Q C16Q 1_555 1_555
C17Q C16Q 1_555 1_555
H7Q C17Q 1_555 1_555
H8Q C17Q 1_555 1_555
C18Q C17Q 1_555 1_555
H9Q C18Q 1_555 1_555
H10Q C18Q 1_555 1_555
C19Q C18Q 1_555 1_555
H11Q C19Q 1_555 1_555
H12Q C19Q 1_555 1_555
C20Q C15Q 1_555 1_555
H13Q C20Q 1_555 1_555
H14Q C20Q 1_555 1_555
O1R C1R 1_555 1_555
O2R C6R 1_555 1_555
O3R C7R 1_555 1_555
O4R C12R 1_555 1_555
N1R C1R 1_555 1_555
N2R C16Q 1_555 1_555
C1R C2R 1_555 1_555
C2R C3R 1_555 1_555
C3R H1R 1_555 1_555
C4R C3R 1_555 1_555
H2R C4R 1_555 1_555
C5R C4R 1_555 1_555
C6R N2R 1_555 1_555
C7R N2R 1_555 1_555
C8R C7R 1_555 1_555
C9R C8R 1_555 1_555
H3R C9R 1_555 1_555
C10R C9R 1_555 1_555
H4R C10R 1_555 1_555
C11R C10R 1_555 1_555
C12R N1R 1_555 1_555
C13R C5R 1_555 1_555
C14R C2R 1_555 1_555
C15R N1R 1_555 1_555
H5R C15R 1_555 1_555
C16R N2 1_555 1_555
H6R C16R 1_555 1_555
C17R C16R 1_555 1_555
H7R C17R 1_555 1_555
H8R C17R 1_555 1_555
C18R C17R 1_555 1_555
H9R C18R 1_555 1_555
H10R C18R 1_555 1_555
C19R C18R 1_555 1_555
H11R C19R 1_555 1_555
H12R C19R 1_555 1_555
C20R C15R 1_555 1_555
H13R C20R 1_555 1_555
H14R C20R 1_555 1_555
O6S C21S 1_555 1_555
O7S C26S 1_555 1_555
O8S C27S 1_555 1_555
O9S C32S 1_555 1_555
N3S C21S 1_555 1_555
N4S C40 1_555 1_555
C21S C22S 1_555 1_555
C22S C23S 1_555 1_555
C23S H17S 1_555 1_555
C24S C23S 1_555 1_555
H18S C24S 1_555 1_555
C25S C24S 1_555 1_555
C26S N4S 1_555 1_555
C27S N4S 1_555 1_555
C28S C27S 1_555 1_555
C29S C28S 1_555 1_555
H19S C29S 1_555 1_555
C30S C29S 1_555 1_555
H20S C30S 1_555 1_555
C31S C30S 1_555 1_555
C32S N3S 1_555 1_555
C33S C22S 1_555 1_555
C34S C25S 1_555 1_555
C35S N3S 1_555 1_555
H21S C35S 1_555 1_555
C36S C35S 1_555 1_555
H22S C36S 1_555 1_555
H23S C36S 1_555 1_555
C37S C36S 1_555 1_555
H24S C37S 1_555 1_555
H25S C37S 1_555 1_555
C38S C37S 1_555 1_555
H26S C38S 1_555 1_555
H27S C38S 1_555 1_555
C39S C38S 1_555 1_555
H28S C39S 1_555 1_555
H29S C39S 1_555 1_555
C40S C35S 1_555 1_555
H30S C40S 1_555 1_555
O6T C21T 1_555 1_555
O7T C26T 1_555 1_555
O8T C27T 1_555 1_555
O9T C32T 1_555 1_555
N3T C21T 1_555 1_555
N4T C40S 1_555 1_555
C21T C22T 1_555 1_555
C22T C23T 1_555 1_555
C23T H17T 1_555 1_555
C24T C23T 1_555 1_555
H18T C24T 1_555 1_555
C25T C24T 1_555 1_555
C26T N4T 1_555 1_555
C27T N4T 1_555 1_555
C28T C27T 1_555 1_555
C29T C28T 1_555 1_555
H19T C29T 1_555 1_555
C30T C29T 1_555 1_555
H20T C30T 1_555 1_555
C31T C30T 1_555 1_555
C32T N3T 1_555 1_555
C33T C22T 1_555 1_555
C34T C25T 1_555 1_555
C35T N3T 1_555 1_555
H21T C35T 1_555 1_555
C36T C35T 1_555 1_555
H22T C36T 1_555 1_555
H23T C36T 1_555 1_555
C37T C36T 1_555 1_555
H24T C37T 1_555 1_555
H25T C37T 1_555 1_555
C38T C37T 1_555 1_555
H26T C38T 1_555 1_555
H27T C38T 1_555 1_555
C39T C38T 1_555 1_555
H28T C39T 1_555 1_555
H29T C39T 1_555 1_555
C40T N4 1_555 1_555
H30T C40T 1_555 1_555
C8 C13 1_555 1_555
C11 C12 1_555 1_555
C11 C14 1_555 1_555
C13 C14 1_555 1_555
C19 C20 1_555 1_555
C28 C34 1_555 1_555
C31 C32 1_555 1_555
C31 C33 1_555 1_555
C33 C34 1_555 1_555
C39 C40 1_555 1_555
C5Q C6Q 1_555 1_555
C8Q C13Q 1_555 1_555
C11Q C12Q 1_555 1_555
C11Q C14Q 1_555 1_555
C13Q C14Q 1_555 1_555
C19Q C20Q 1_555 1_555
C5R C6R 1_555 1_555
C8R C13R 1_555 1_555
C11R C12R 1_555 1_555
C11R C14R 1_555 1_555
C13R C14R 1_555 1_555
C15R C16R 1_555 1_555
C19R C20R 1_555 1_555
C25S C26S 1_555 1_555
C28S C34S 1_555 1_555
C31S C32S 1_555 1_555
C31S C33S 1_555 1_555
C33S C34S 1_555 1_555
C39S C40S 1_555 1_555
C25T C26T 1_555 1_555
C28T C34T 1_555 1_555
C31T C32T 1_555 1_555
C31T C33T 1_555 1_555
C33T C34T 1_555 1_555
C35T C40T 1_555 1_555
C39T C40T 1_555 1_555

#END
