
#######################################################################
#
#                 Cambridge Crystallographic Data Centre
#                                CCDC 
#
#######################################################################
#
# If this CIF has been generated from an entry in the Cambridge 
# Structural Database, then it will include bibliographic, chemical, 
# crystal, experimental, refinement or atomic coordinate data resulting 
# from the CCDC's data processing and validation procedures.
#
#######################################################################

data_HIRLEB
_chemical_formula_moiety         
'C60 H42 N6 O12,C2 H4 Br2,2(I3 1-),2(C16 H36 N1 1+)'
_chemical_name_systematic        
"(+)-\D-Cyclo-tris(N,N'-(cyclohexane-1,4-diyl)benzo(lmn)(3,8)phenanthroline-1,3,6,8(2H,7H)-tetrone) bis(tetra-n-butylammonium tri-iodide) 1,2-dibromoethane solvate"
_symmetry_cell_setting           rhombohedral
_symmetry_space_group_name_H-M   'R 3'
_symmetry_Int_Tables_number      146
_space_group_name_Hall           'R 3'
loop_
_symmetry_equiv_pos_site_id
_symmetry_equiv_pos_as_xyz
1 x,y,z
2 -y,x-y,z
3 -x+y,-x,z
4 2/3+x,1/3+y,1/3+z
5 2/3-y,1/3+x-y,1/3+z
6 2/3-x+y,1/3-x,1/3+z
7 1/3+x,2/3+y,2/3+z
8 1/3-y,2/3+x-y,2/3+z
9 1/3-x+y,2/3-x,2/3+z
_cell_length_a                   32.0402(9)
_cell_length_b                   32.0402(9)
_cell_length_c                   25.6102(9)
_cell_angle_alpha                90
_cell_angle_beta                 90
_cell_angle_gamma                120
_cell_volume                     22768.5
_exptl_crystal_colour            orange
_exptl_crystal_description       needle
_cell_formula_units_Z            9
loop_
_atom_site_label
_atom_site_type_symbol
_atom_site_fract_x
_atom_site_fract_y
_atom_site_fract_z
I1 I -0.51423(17) -0.4707(2) -0.67723(15)
I2 I -0.46748(13) -0.37325(16) -0.71306(12)
I3 I -0.41968(18) -0.27473(18) -0.74984(15)
I7 I -0.2498(4) 0.0278(4) -0.7373(3)
I8 I -0.1836(5) 0.0171(4) -0.8016(5)
I9 I -0.1142(5) 0.0015(3) -0.8532(10)
O1 O -0.4737(9) -0.3254(10) -0.9308(10)
O2 O -0.2638(7) -0.2897(8) -0.8094(7)
O3 O -0.3467(8) -0.4400(8) -0.7361(9)
O4 O -0.5497(8) -0.4823(9) -0.8840(9)
O5 O -0.3051(7) -0.3795(7) -0.6369(8)
O6 O -0.5005(8) -0.3774(8) -0.5154(9)
O7 O -0.4314(8) -0.2162(7) -0.5532(8)
O8 O -0.2554(8) -0.2312(8) -0.7044(9)
O9 O -0.5141(9) -0.2279(8) -0.6371(9)
O10 O -0.5698(13) -0.3370(11) -0.8849(10)
O11 O -0.6334(9) -0.4841(9) -0.8111(10)
O12 O -0.5893(8) -0.3782(8) -0.5630(9)
N1 N -0.5134(9) -0.4024(10) -0.9041(10)
N2 N -0.3051(8) -0.3633(9) -0.7670(9)
N3 N -0.2815(9) -0.3057(9) -0.6767(10)
N4 N -0.4698(10) -0.2973(9) -0.5372(10)
N5 N -0.5484(10) -0.3026(9) -0.5988(10)
N6 N -0.5971(10) -0.4098(11) -0.8486(11)
C1 C -0.4735(11) -0.3572(13) -0.9076(13)
C2 C -0.4307(12) -0.3485(13) -0.8762(13)
C3 C -0.3892(11) -0.3030(12) -0.8774(12)
H1 H -0.3892 -0.2765 -0.8941
C4 C -0.3466(11) -0.2977(11) -0.8527(11)
H2 H -0.3174 -0.2678 -0.8554
C5 C -0.3468(10) -0.3351(10) -0.8247(10)
C6 C -0.3017(10) -0.3262(11) -0.8015(11)
C7 C -0.3469(11) -0.4091(12) -0.7633(11)
C8 C -0.3888(10) -0.4162(10) -0.7936(10)
C9 C -0.4320(11) -0.4605(11) -0.7895(11)
H3 H -0.4329 -0.4854 -0.7685
C10 C -0.4732(11) -0.4684(11) -0.8156(11)
H4 H -0.5022 -0.4984 -0.8120
C11 C -0.4723(12) -0.4328(13) -0.8468(13)
C12 C -0.5131(11) -0.4425(13) -0.8807(12)
C13 C -0.4316(10) -0.3878(10) -0.8480(10)
C14 C -0.3887(10) -0.3787(11) -0.8204(11)
C15 C -0.2627(11) -0.3535(12) -0.7374(12)
H5 H -0.2733 -0.3806 -0.7119
C16 C -0.2209(11) -0.3530(13) -0.7699(14)
H6 H -0.2336 -0.3837 -0.7894
H7 H -0.2087 -0.3264 -0.7957
C17 C -0.1803(12) -0.3464(13) -0.7351(15)
H8 H -0.1540 -0.3446 -0.7572
H9 H -0.1919 -0.3753 -0.7126
C18 C -0.1595(13) -0.3017(15) -0.7003(16)
H10 H -0.1437 -0.2722 -0.7220
H11 H -0.1351 -0.3014 -0.6763
C19 C -0.2011(11) -0.3034(12) -0.6691(13)
H12 H -0.1887 -0.2738 -0.6479
H13 H -0.2142 -0.3312 -0.6449
C20 C -0.2429(11) -0.3080(12) -0.7052(12)
H14 H -0.2285 -0.2802 -0.7300
C21 C -0.3135(11) -0.3475(11) -0.6458(11)
C22 C -0.3552(10) -0.3437(10) -0.6196(10)
C23 C -0.3922(10) -0.3858(11) -0.5941(11)
H15 H -0.3908 -0.4147 -0.5945
C24 C -0.4279(11) -0.3850(11) -0.5702(11)
H16 H -0.4527 -0.4134 -0.5543
C25 C -0.4294(11) -0.3438(11) -0.5682(12)
C26 C -0.4689(11) -0.3417(11) -0.5373(13)
C27 C -0.4317(11) -0.2537(11) -0.5606(11)
C28 C -0.3961(12) -0.2585(11) -0.5908(13)
C29 C -0.3634(12) -0.2188(12) -0.6198(13)
H17 H -0.3651 -0.1901 -0.6204
C30 C -0.3266(12) -0.2224(11) -0.6494(12)
H18 H -0.3051 -0.1963 -0.6709
C31 C -0.3224(12) -0.2629(11) -0.6466(12)
C32 C -0.2851(11) -0.2648(11) -0.6773(11)
C33 C -0.3562(11) -0.3027(11) -0.6208(12)
C34 C -0.3966(11) -0.3024(11) -0.5927(11)
C35 C -0.5092(12) -0.2975(12) -0.5120(12)
H19 H -0.5320 -0.3318 -0.5024
C36 C -0.4965(13) -0.2677(13) -0.4597(12)
H20 H -0.4791 -0.2783 -0.4361
H21 H -0.4749 -0.2332 -0.4676
C37 C -0.5399(14) -0.2738(15) -0.4331(13)
H22 H -0.5300 -0.2543 -0.4007
H23 H -0.5601 -0.3080 -0.4228
C38 C -0.5697(14) -0.2594(14) -0.4653(13)
H24 H -0.5515 -0.2244 -0.4725
H25 H -0.5996 -0.2669 -0.4463
C39 C -0.5825(12) -0.2886(12) -0.5180(12)
H26 H -0.6032 -0.3233 -0.5101
H27 H -0.6013 -0.2786 -0.5402
C40 C -0.5379(12) -0.2814(12) -0.5489(12)
H28 H -0.5170 -0.2459 -0.5543
C41 C -0.5348(13) -0.2736(12) -0.6402(13)
C42 C -0.5435(13) -0.2942(12) -0.6949(13)
C43 C -0.5322(19) -0.2708(15) -0.7356(15)
H29 H -0.5128 -0.2368 -0.7323
C44 C -0.545(2) -0.2886(16) -0.7856(16)
H30 H -0.5407 -0.2680 -0.8143
C45 C -0.5634(15) -0.3366(14) -0.7923(14)
C46 C -0.5752(14) -0.3592(15) -0.8451(15)
C47 C -0.6136(12) -0.4401(14) -0.8065(13)
C48 C -0.6022(11) -0.4192(12) -0.7523(13)
C49 C -0.6143(11) -0.4433(11) -0.7097(12)
H31 H -0.6286 -0.4772 -0.7135
C50 C -0.6097(12) -0.4277(12) -0.6619(13)
H32 H -0.6226 -0.4492 -0.6332
C51 C -0.5833(11) -0.3748(11) -0.6546(12)
C52 C -0.5745(10) -0.3553(11) -0.6006(12)
C53 C -0.5693(12) -0.3467(11) -0.6992(13)
C54 C -0.5762(11) -0.3655(12) -0.7476(12)
C55 C -0.6028(12) -0.4326(15) -0.9000(13)
H33 H -0.6111 -0.4667 -0.8937
C56 C -0.6462(14) -0.434(2) -0.9337(15)
H34 H -0.6757 -0.4479 -0.9120
H35 H -0.6377 -0.4008 -0.9432
C57 C -0.6556(14) -0.462(2) -0.9800(15)
H36 H -0.6804 -0.4601 -1.0011
H37 H -0.6681 -0.4963 -0.9706
C58 C -0.6075(13) -0.4429(17) -1.0135(14)
H38 H -0.6141 -0.4658 -1.0425
H39 H -0.5999 -0.4117 -1.0293
C59 C -0.5633(12) -0.4359(16) -0.9851(14)
H40 H -0.5670 -0.4678 -0.9768
H41 H -0.5348 -0.4185 -1.0080
C60 C -0.5553(12) -0.4081(15) -0.9358(13)
H42 H -0.5488 -0.3752 -0.9455
N7 N -0.3235(12) -0.4943(10) -0.5488(15)
C61 C -0.2905(14) -0.4482(13) -0.5292(18)
H43 H -0.3094 -0.4373 -0.5085
H44 H -0.2776 -0.4263 -0.5596
C62 C -0.2480(11) -0.4395(10) -0.4963(15)
H45 H -0.2605 -0.4596 -0.4646
H46 H -0.2293 -0.4512 -0.5161
C63 C -0.2138(17) -0.3886(12) -0.479(2)
H47 H -0.1994 -0.3695 -0.5114
H48 H -0.2335 -0.3761 -0.4633
C64 C -0.1730(16) -0.377(2) -0.442(2)
H49 H -0.1547 -0.3420 -0.4365
H50 H -0.1517 -0.3874 -0.4577
H51 H -0.1859 -0.3935 -0.4092
C65 C -0.344(2) -0.5340(17) -0.5044(19)
H52 H -0.3692 -0.5646 -0.5199
H53 H -0.3175 -0.5393 -0.4927
C66 C -0.365(2) -0.5234(14) -0.4577(16)
H54 H -0.3986 -0.5321 -0.4636
H55 H -0.3456 -0.4889 -0.4479
C67 C -0.361(2) -0.5551(17) -0.4168(18)
H56 H -0.3775 -0.5889 -0.4292
H57 H -0.3265 -0.5449 -0.4109
C68 C -0.383(3) -0.552(2) -0.367(2)
H58 H -0.4045 -0.5386 -0.3736
H59 H -0.3578 -0.5305 -0.3423
H60 H -0.4019 -0.5839 -0.3512
C69 C -0.3665(14) -0.4909(13) -0.5735(18)
H61 H -0.3819 -0.4815 -0.5459
H62 H -0.3536 -0.4651 -0.6002
C70 C -0.4041(18) -0.5370(14) -0.598(3)
H63 H -0.3887 -0.5480 -0.6242
H64 H -0.4196 -0.5623 -0.5713
C71 C -0.4413(16) -0.5290(16) -0.625(2)
H65 H -0.4248 -0.5016 -0.6490
H66 H -0.4576 -0.5199 -0.5977
C72 C -0.4786(17) -0.5719(17) -0.654(2)
H67 H -0.4786 -0.6010 -0.6421
H68 H -0.4713 -0.5673 -0.6914
H69 H -0.5105 -0.5755 -0.6479
C73 C -0.3025(16) -0.5124(15) -0.5927(16)
H70 H -0.2750 -0.5144 -0.5777
H71 H -0.3275 -0.5456 -0.6022
C74 C -0.2856(17) -0.4837(15) -0.6417(15)
H72 H -0.2554 -0.4530 -0.6350
H73 H -0.3102 -0.4761 -0.6544
C75 C -0.2769(19) -0.5124(18) -0.6820(16)
H74 H -0.2522 -0.5197 -0.6689
H75 H -0.3071 -0.5434 -0.6876
C76 C -0.260(2) -0.4867(18) -0.7331(19)
H76 H -0.2272 -0.4602 -0.7298
H77 H -0.2813 -0.4736 -0.7429
H78 H -0.2622 -0.5092 -0.7600
N8 N -0.6634(12) -0.6257(12) -0.8839(14)
C77 C -0.6431(16) -0.6303(15) -0.831(2)
H79 H -0.6696 -0.6423 -0.8055
H80 H -0.6340 -0.6555 -0.8352
C78 C -0.6007(18) -0.5865(14) -0.8087(19)
H81 H -0.6108 -0.5629 -0.7988
H82 H -0.5754 -0.5713 -0.8357
C79 C -0.5799(19) -0.598(2) -0.761(2)
H83 H -0.5461 -0.5719 -0.7559
H84 H -0.5808 -0.6287 -0.7661
C80 C -0.613(2) -0.600(3) -0.713(3)
H85 H -0.6089 -0.6187 -0.6842
H86 H -0.6467 -0.6165 -0.7233
H87 H -0.6029 -0.5677 -0.7004
C81 C -0.6270(14) -0.5999(17) -0.9278(19)
H88 H -0.6453 -0.6003 -0.9592
H89 H -0.6065 -0.5657 -0.9174
C82 C -0.5943(16) -0.619(2) -0.943(2)
H90 H -0.6137 -0.6538 -0.9493
H91 H -0.5715 -0.6130 -0.9145
C83 C -0.566(2) -0.594(3) -0.992(2)
H92 H -0.5906 -0.6017 -1.0199
H93 H -0.5507 -0.5593 -0.9857
C84 C -0.5285(19) -0.602(3) -1.016(3)
H94 H -0.5159 -0.5826 -1.0477
H95 H -0.5425 -0.6365 -1.0257
H96 H -0.5022 -0.5936 -0.9913
C85 C -0.6995(15) -0.6731(16) -0.8992(17)
H97 H -0.7219 -0.6871 -0.8693
H98 H -0.6832 -0.6922 -0.9032
C86 C -0.7299(17) -0.6822(17) -0.9467(19)
H99 H -0.7086 -0.6741 -0.9776
H100 H -0.7421 -0.6593 -0.9461
C87 C -0.7722(19) -0.7318(18) -0.955(4)
H101 H -0.7692 -0.7449 -0.9889
H102 H -0.7734 -0.7537 -0.9269
C88 C -0.817(2) -0.728(3) -0.954(4)
H103 H -0.8448 -0.7599 -0.9466
H104 H -0.8212 -0.7169 -0.9882
H105 H -0.8140 -0.7052 -0.9270
C89 C -0.6848(14) -0.5930(15) -0.8756(18)
H106 H -0.6595 -0.5628 -0.8594
H107 H -0.6915 -0.5844 -0.9105
C90 C -0.7293(19) -0.6105(18) -0.844(3)
H108 H -0.7236 -0.6196 -0.8086
H109 H -0.7557 -0.6398 -0.8603
C91 C -0.745(2) -0.5734(18) -0.838(2)
H110 H -0.7179 -0.5424 -0.8253
H111 H -0.7723 -0.5846 -0.8138
C92 C -0.759(3) -0.568(3) -0.893(2)
H112 H -0.7301 -0.5475 -0.9131
H113 H -0.7800 -0.5543 -0.8915
H114 H -0.7764 -0.6002 -0.9093
Br1 Br -0.5648(2) -0.5503(2) -0.5405(3)
Br2 Br -0.6569(5) -0.5344(3) -0.4770(6)
C93 C -0.568(2) -0.496(2) -0.552(3)
H115 H -0.5347 -0.4675 -0.5511
H116 H -0.5807 -0.4972 -0.5878
C94 C -0.602(2) -0.488(2) -0.508(2)
H117 H -0.6117 -0.4662 -0.5254
H118 H -0.5804 -0.4694 -0.4795
I4? I -0.4944(5) -0.4279(9) -0.6917(5)
I5? I -0.4446(5) -0.3294(8) -0.7287(4)
I6? I -0.4004(8) -0.2341(13) -0.7660(7)
I10? I -0.2487(11) 0.0199(13) -0.7444(15)
I11? I -0.1806(11) 0.0177(11) -0.8122(14)
I12? I -0.1287(7) 0.0040(5) -0.8926(13)
Br3? Br -0.6640(5) -0.5293(5) -0.5436(7)
H119? H -0.5947 -0.4542 -0.5060
H120? H -0.6008 -0.5003 -0.4734
loop_
_geom_bond_atom_site_label_1
_geom_bond_atom_site_label_2
_geom_bond_site_symmetry_1
_geom_bond_site_symmetry_2
I1 I2 1_555 1_555
I2 I3 1_555 1_555
I7 I8 1_555 1_555
I8 I9 1_555 1_555
O1 C1 1_555 1_555
O2 C6 1_555 1_555
O3 C7 1_555 1_555
O4 C12 1_555 1_555
O5 C21 1_555 1_555
O6 C26 1_555 1_555
O7 C27 1_555 1_555
O8 C32 1_555 1_555
O9 C41 1_555 1_555
O10 C46 1_555 1_555
O11 C47 1_555 1_555
O12 C52 1_555 1_555
N1 C1 1_555 1_555
N2 C6 1_555 1_555
N3 C20 1_555 1_555
N4 C26 1_555 1_555
N5 C40 1_555 1_555
N6 C46 1_555 1_555
C1 C2 1_555 1_555
C2 C3 1_555 1_555
C3 H1 1_555 1_555
C4 C3 1_555 1_555
H2 C4 1_555 1_555
C5 C4 1_555 1_555
C6 C5 1_555 1_555
C7 N2 1_555 1_555
C8 C7 1_555 1_555
C9 C8 1_555 1_555
H3 C9 1_555 1_555
C10 C9 1_555 1_555
H4 C10 1_555 1_555
C11 C10 1_555 1_555
C12 N1 1_555 1_555
C13 C2 1_555 1_555
C14 C5 1_555 1_555
C15 N2 1_555 1_555
H5 C15 1_555 1_555
C16 C15 1_555 1_555
H6 C16 1_555 1_555
H7 C16 1_555 1_555
C17 C16 1_555 1_555
H8 C17 1_555 1_555
H9 C17 1_555 1_555
C18 C17 1_555 1_555
H10 C18 1_555 1_555
H11 C18 1_555 1_555
C19 C18 1_555 1_555
H12 C19 1_555 1_555
H13 C19 1_555 1_555
C20 C15 1_555 1_555
H14 C20 1_555 1_555
C21 N3 1_555 1_555
C22 C21 1_555 1_555
C23 C22 1_555 1_555
H15 C23 1_555 1_555
C24 C23 1_555 1_555
H16 C24 1_555 1_555
C25 C24 1_555 1_555
C26 C25 1_555 1_555
C27 N4 1_555 1_555
C28 C27 1_555 1_555
C29 C28 1_555 1_555
H17 C29 1_555 1_555
C30 C29 1_555 1_555
H18 C30 1_555 1_555
C31 C30 1_555 1_555
C32 N3 1_555 1_555
C33 C22 1_555 1_555
C34 C25 1_555 1_555
C35 N4 1_555 1_555
H19 C35 1_555 1_555
C36 C35 1_555 1_555
H20 C36 1_555 1_555
H21 C36 1_555 1_555
C37 C36 1_555 1_555
H22 C37 1_555 1_555
H23 C37 1_555 1_555
C38 C37 1_555 1_555
H24 C38 1_555 1_555
H25 C38 1_555 1_555
C39 C38 1_555 1_555
H26 C39 1_555 1_555
H27 C39 1_555 1_555
C40 C35 1_555 1_555
H28 C40 1_555 1_555
C41 N5 1_555 1_555
C42 C41 1_555 1_555
C43 C42 1_555 1_555
H29 C43 1_555 1_555
C44 C43 1_555 1_555
H30 C44 1_555 1_555
C45 C44 1_555 1_555
C46 C45 1_555 1_555
C47 N6 1_555 1_555
C48 C47 1_555 1_555
C49 C48 1_555 1_555
H31 C49 1_555 1_555
C50 C49 1_555 1_555
H32 C50 1_555 1_555
C51 C50 1_555 1_555
C52 N5 1_555 1_555
C53 C42 1_555 1_555
C54 C45 1_555 1_555
C55 N6 1_555 1_555
H33 C55 1_555 1_555
C56 C55 1_555 1_555
H34 C56 1_555 1_555
H35 C56 1_555 1_555
C57 C56 1_555 1_555
H36 C57 1_555 1_555
H37 C57 1_555 1_555
C58 C57 1_555 1_555
H38 C58 1_555 1_555
H39 C58 1_555 1_555
C59 C58 1_555 1_555
H40 C59 1_555 1_555
H41 C59 1_555 1_555
C60 N1 1_555 1_555
H42 C60 1_555 1_555
N7 C61 1_555 1_555
C61 H43 1_555 1_555
H44 C61 1_555 1_555
C62 C61 1_555 1_555
H45 C62 1_555 1_555
H46 C62 1_555 1_555
C63 C62 1_555 1_555
H47 C63 1_555 1_555
H48 C63 1_555 1_555
C64 C63 1_555 1_555
H49 C64 1_555 1_555
H50 C64 1_555 1_555
H51 C64 1_555 1_555
C65 N7 1_555 1_555
H52 C65 1_555 1_555
H53 C65 1_555 1_555
C66 C65 1_555 1_555
H54 C66 1_555 1_555
H55 C66 1_555 1_555
C67 C66 1_555 1_555
H56 C67 1_555 1_555
H57 C67 1_555 1_555
C68 C67 1_555 1_555
H58 C68 1_555 1_555
H59 C68 1_555 1_555
H60 C68 1_555 1_555
C69 N7 1_555 1_555
H61 C69 1_555 1_555
H62 C69 1_555 1_555
C70 C69 1_555 1_555
H63 C70 1_555 1_555
H64 C70 1_555 1_555
C71 C70 1_555 1_555
H65 C71 1_555 1_555
H66 C71 1_555 1_555
C72 C71 1_555 1_555
H67 C72 1_555 1_555
H68 C72 1_555 1_555
H69 C72 1_555 1_555
C73 N7 1_555 1_555
H70 C73 1_555 1_555
H71 C73 1_555 1_555
C74 C73 1_555 1_555
H72 C74 1_555 1_555
H73 C74 1_555 1_555
C75 C74 1_555 1_555
H74 C75 1_555 1_555
H75 C75 1_555 1_555
C76 C75 1_555 1_555
H76 C76 1_555 1_555
H77 C76 1_555 1_555
H78 C76 1_555 1_555
N8 C77 1_555 1_555
C77 H79 1_555 1_555
H80 C77 1_555 1_555
C78 C77 1_555 1_555
H81 C78 1_555 1_555
H82 C78 1_555 1_555
C79 C78 1_555 1_555
H83 C79 1_555 1_555
H84 C79 1_555 1_555
C80 C79 1_555 1_555
H85 C80 1_555 1_555
H86 C80 1_555 1_555
H87 C80 1_555 1_555
C81 N8 1_555 1_555
H88 C81 1_555 1_555
H89 C81 1_555 1_555
C82 C81 1_555 1_555
H90 C82 1_555 1_555
H91 C82 1_555 1_555
C83 C82 1_555 1_555
H92 C83 1_555 1_555
H93 C83 1_555 1_555
C84 C83 1_555 1_555
H94 C84 1_555 1_555
H95 C84 1_555 1_555
H96 C84 1_555 1_555
C85 N8 1_555 1_555
H97 C85 1_555 1_555
H98 C85 1_555 1_555
C86 C85 1_555 1_555
H99 C86 1_555 1_555
H100 C86 1_555 1_555
C87 C86 1_555 1_555
H101 C87 1_555 1_555
H102 C87 1_555 1_555
C88 C87 1_555 1_555
H103 C88 1_555 1_555
H104 C88 1_555 1_555
H105 C88 1_555 1_555
C89 N8 1_555 1_555
H106 C89 1_555 1_555
H107 C89 1_555 1_555
C90 C89 1_555 1_555
H108 C90 1_555 1_555
H109 C90 1_555 1_555
C91 C90 1_555 1_555
H110 C91 1_555 1_555
H111 C91 1_555 1_555
C92 C91 1_555 1_555
H112 C92 1_555 1_555
H113 C92 1_555 1_555
H114 C92 1_555 1_555
Br1 C93 1_555 1_555
Br2 C94 1_555 1_555
C93 H115 1_555 1_555
H116 C93 1_555 1_555
C94 C93 1_555 1_555
H117 C94 1_555 1_555
H118 C94 1_555 1_555
C8 C14 1_555 1_555
C11 C12 1_555 1_555
C11 C13 1_555 1_555
C13 C14 1_555 1_555
C19 C20 1_555 1_555
C28 C34 1_555 1_555
C31 C32 1_555 1_555
C31 C33 1_555 1_555
C33 C34 1_555 1_555
C39 C40 1_555 1_555
C48 C54 1_555 1_555
C51 C52 1_555 1_555
C51 C53 1_555 1_555
C53 C54 1_555 1_555
C55 C60 1_555 1_555
C59 C60 1_555 1_555

#END
