
#######################################################################
#
#                 Cambridge Crystallographic Data Centre
#                                CCDC 
#
#######################################################################
#
# If this CIF has been generated from an entry in the Cambridge 
# Structural Database, then it will include bibliographic, chemical, 
# crystal, experimental, refinement or atomic coordinate data resulting 
# from the CCDC's data processing and validation procedures.
#
#######################################################################

data_HIRLUQ
_chemical_formula_moiety         'C18 H14 N4,H2 O1'
_chemical_name_systematic        
"N,N'-bis(4-pyridylmethylene)benzene-1,4-diamine monohydrate"
_symmetry_cell_setting           triclinic
_symmetry_space_group_name_H-M   'P -1'
_symmetry_Int_Tables_number      2
_space_group_name_Hall           '-P 1'
loop_
_symmetry_equiv_pos_site_id
_symmetry_equiv_pos_as_xyz
1 x,y,z
2 -x,-y,-z
_cell_length_a                   8.4780(12)
_cell_length_b                   9.2472(15)
_cell_length_c                   11.291(2)
_cell_angle_alpha                109.914(3)
_cell_angle_beta                 94.884(2)
_cell_angle_gamma                102.663(3)
_cell_volume                     799.599
_exptl_crystal_colour            yellow
_exptl_crystal_description       block
_cell_formula_units_Z            2
loop_
_atom_site_label
_atom_site_type_symbol
_atom_site_fract_x
_atom_site_fract_y
_atom_site_fract_z
N1 N -0.1455(3) 0.2126(3) 1.0021(2)
N2 N 0.4300(3) 0.2611(3) 0.7853(2)
N3 N -0.5784(4) 0.2933(4) 1.2834(3)
N4 N 0.8932(3) 0.1819(4) 0.5373(3)
C1 C 0.0031(4) 0.2242(4) 0.9535(3)
C2 C 0.1255(4) 0.3655(4) 0.9904(3)
H3 H 0.1141 0.4557 1.0545
C3 C 0.2647(4) 0.3757(4) 0.9339(3)
H4 H 0.3436 0.4725 0.9577
C4 C 0.2851(4) 0.2389(4) 0.8409(3)
C5 C 0.1640(4) 0.0977(4) 0.8052(3)
H5 H 0.1769 0.0060 0.7437
C6 C 0.0243(4) 0.0905(4) 0.8594(3)
H6 H -0.0569 -0.0053 0.8325
C7 C -0.1438(4) 0.2861(4) 1.1190(3)
H7 H -0.0436 0.3433 1.1726
C8 C -0.5868(5) 0.2162(5) 1.1575(4)
H8 H -0.6894 0.1632 1.1064
C9 C -0.4478(4) 0.2128(4) 1.1010(3)
H9 H -0.4587 0.1614 1.0131
C10 C -0.2960(4) 0.2842(4) 1.1736(3)
C11 C -0.2877(5) 0.3637(5) 1.3026(4)
H10 H -0.1865 0.4173 1.3558
C12 C -0.4301(6) 0.3629(5) 1.3517(4)
H11 H -0.4213 0.4152 1.4394
C13 C 0.4910(4) 0.1473(4) 0.7382(3)
H12 H 0.4452 0.0505 0.7457
C14 C 0.8149(5) 0.0460(5) 0.5445(4)
H13 H 0.8495 -0.0444 0.5036
C15 C 0.6844(4) 0.0294(4) 0.6091(3)
H14 H 0.6332 -0.0700 0.6099
C16 C 0.6313(4) 0.1596(4) 0.6715(3)
C17 C 0.7126(4) 0.3042(4) 0.6648(3)
H15 H 0.6804 0.3963 0.7050
C18 C 0.8414(4) 0.3094(4) 0.5978(4)
H16 H 0.8949 0.4069 0.5948
O1 O 0.8862(3) 0.6807(3) 0.6144(2)
H1 H 0.7989 0.7064 0.6338
H2 H 0.9292 0.7337 0.5714
loop_
_geom_bond_atom_site_label_1
_geom_bond_atom_site_label_2
_geom_bond_site_symmetry_1
_geom_bond_site_symmetry_2
N1 C1 1_555 1_555
N2 C4 1_555 1_555
N3 C8 1_555 1_555
N4 C14 1_555 1_555
O1 H1 1_555 1_555
H2 O1 1_555 1_555
C1 C2 1_555 1_555
C2 H3 1_555 1_555
C3 C2 1_555 1_555
H4 C3 1_555 1_555
C4 C3 1_555 1_555
C5 C4 1_555 1_555
H5 C5 1_555 1_555
C6 C1 1_555 1_555
H6 C6 1_555 1_555
C7 N1 1_555 1_555
H7 C7 1_555 1_555
C8 H8 1_555 1_555
C9 C8 1_555 1_555
H9 C9 1_555 1_555
C10 C7 1_555 1_555
C11 C10 1_555 1_555
H10 C11 1_555 1_555
C12 N3 1_555 1_555
H11 C12 1_555 1_555
C13 N2 1_555 1_555
H12 C13 1_555 1_555
C14 H13 1_555 1_555
C15 C14 1_555 1_555
H14 C15 1_555 1_555
C16 C13 1_555 1_555
C17 C16 1_555 1_555
H15 C17 1_555 1_555
C18 N4 1_555 1_555
H16 C18 1_555 1_555
C5 C6 1_555 1_555
C9 C10 1_555 1_555
C11 C12 1_555 1_555
C15 C16 1_555 1_555
C17 C18 1_555 1_555

#END
