
#######################################################################
#
#                 Cambridge Crystallographic Data Centre
#                                CCDC 
#
#######################################################################
#
# If this CIF has been generated from an entry in the Cambridge 
# Structural Database, then it will include bibliographic, chemical, 
# crystal, experimental, refinement or atomic coordinate data resulting 
# from the CCDC's data processing and validation procedures.
#
#######################################################################

data_HIRPEF
_chemical_formula_moiety         'C30 H34 N2 O2 Si2'
_chemical_name_systematic        
2,5-bis(Methyl(4-((trimethylsilyl)ethynyl)phenyl)amino)-1,4-benzoquinone
_symmetry_cell_setting           monoclinic
_symmetry_space_group_name_H-M   'P 21/c'
_symmetry_Int_Tables_number      14
_space_group_name_Hall           '-P 2ybc'
loop_
_symmetry_equiv_pos_site_id
_symmetry_equiv_pos_as_xyz
1 x,y,z
2 -x,1/2+y,1/2-z
3 -x,-y,-z
4 x,1/2-y,1/2+z
_cell_length_a                   12.4957(5)
_cell_length_b                   22.4434(8)
_cell_length_c                   11.2136(4)
_cell_angle_alpha                90
_cell_angle_beta                 113.2100(10)
_cell_angle_gamma                90
_cell_volume                     2890.29
_exptl_crystal_colour            colorless
_exptl_crystal_description       prism
_cell_formula_units_Z            4
loop_
_atom_site_label
_atom_site_type_symbol
_atom_site_fract_x
_atom_site_fract_y
_atom_site_fract_z
C1 C 0.5661(3) -0.14060(15) 0.6891(3)
H1 H 0.5084 -0.1095 0.6802
H2 H 0.5465 -0.1766 0.7258
H3 H 0.566 -0.1498 0.6036
C2 C 0.7597(2) -0.16378(11) 0.8539(2)
C3 C 0.8602(2) -0.17865(12) 0.8370(3)
H4 H 0.8774 -0.1596 0.7709
C4 C 0.9362(2) -0.22099(12) 0.9154(3)
H5 H 1.0052 -0.2306 0.9032
C5 C 0.9117(3) -0.24969(13) 1.0124(3)
C6 C 0.8077(2) -0.23621(13) 1.0259(3)
H6 H 0.7886 -0.2564 1.0894
C7 C 0.7326(2) -0.19376(12) 0.9476(3)
H7 H 0.6622 -0.1849 0.9575
C8 C 0.9920(3) -0.29354(13) 1.0966(3)
C9 C 1.0561(3) -0.33080(13) 1.1623(3)
C10 C 1.0746(4) -0.46218(18) 1.1651(4)
H8 H 1.1141 -0.4974 1.2147
H9 H 1.0781 -0.463 1.0793
H10 H 0.9931 -0.4622 1.155
C11 C 1.1559(3) -0.39429(17) 1.4200(3)
H11 H 1.1922 -0.3573 1.4637
H12 H 1.2026 -0.4284 1.4668
H13 H 1.0772 -0.3975 1.4187
C12 C 1.2958(3) -0.38691(16) 1.2542(3)
H14 H 1.3249 -0.3463 1.2796
H15 H 1.2931 -0.3954 1.1673
H16 H 1.3479 -0.4154 1.3163
C13 C 0.9646(3) 0.12269(14) 0.7737(3)
H17 H 0.972 0.1328 0.8616
H18 H 0.9851 0.1575 0.7341
H19 H 1.0173 0.0897 0.7778
C14 C 0.7667(2) 0.15277(11) 0.6361(2)
C15 C 0.6771(2) 0.16757(12) 0.6744(3)
H20 H 0.6666 0.1455 0.7413
C16 C 0.6030(2) 0.21445(12) 0.6153(3)
H21 H 0.5415 0.2243 0.6413
C17 C 0.6186(3) 0.24750(14) 0.5170(3)
C18 C 0.7111(2) 0.23351(12) 0.4827(3)
H22 H 0.724 0.2564 0.4183
C19 C 0.7846(2) 0.18651(12) 0.5415(3)
H23 H 0.8474 0.1772 0.5172
C20 C 0.5399(3) 0.29620(13) 0.4510(3)
C21 C 0.4790(3) 0.33573(13) 0.3962(3)
C22 C 0.2528(4) 0.3744(2) 0.1856(5)
H24 H 0.2711 0.3497 0.124
H25 H 0.2056 0.4085 0.1398
H26 H 0.2091 0.3506 0.2246
C23 C 0.3593(4) 0.44528(16) 0.4371(4)
H27 H 0.3268 0.484 0.4002
H28 H 0.4319 0.4513 0.5133
H29 H 0.3034 0.4239 0.4626
C24 C 0.4748(4) 0.44541(17) 0.2447(4)
H30 H 0.4885 0.4218 0.1785
H31 H 0.5497 0.4563 0.3135
H32 H 0.4318 0.4816 0.205
C25 C 0.8258(2) -0.03866(12) 0.8525(2)
C26 C 0.7186(2) -0.06544(12) 0.7496(2)
C27 C 0.6581(2) -0.03206(12) 0.6432(3)
H33 H 0.5873 -0.0476 0.5813
C28 C 0.6962(2) 0.02576(12) 0.6199(2)
C29 C 0.8071(2) 0.05099(11) 0.7210(2)
C30 C 0.8689(2) 0.01719(12) 0.8253(2)
H34 H 0.9434 0.0307 0.8829
N1 N 0.68171(18) -0.11963(10) 0.7750(2)
N2 N 0.84511(19) 0.10504(9) 0.6958(2)
O1 O 0.86987(16) -0.06174(9) 0.96059(17)
O2 O 0.64475(17) 0.05259(9) 0.51747(18)
Si1 Si 0.38947(7) 0.40123(4) 0.31435(8)
Si2 Si 1.14774(7) -0.39373(4) 1.25288(8)
loop_
_geom_bond_atom_site_label_1
_geom_bond_atom_site_label_2
_geom_bond_site_symmetry_1
_geom_bond_site_symmetry_2
C1 H1 1_555 1_555
H2 C1 1_555 1_555
H3 C1 1_555 1_555
C2 C3 1_555 1_555
C3 H4 1_555 1_555
C4 C3 1_555 1_555
H5 C4 1_555 1_555
C5 C4 1_555 1_555
C6 C5 1_555 1_555
H6 C6 1_555 1_555
C7 C2 1_555 1_555
H7 C7 1_555 1_555
C8 C5 1_555 1_555
C9 C8 1_555 1_555
C10 H8 1_555 1_555
H9 C10 1_555 1_555
H10 C10 1_555 1_555
C11 H11 1_555 1_555
H12 C11 1_555 1_555
H13 C11 1_555 1_555
C12 H14 1_555 1_555
H15 C12 1_555 1_555
H16 C12 1_555 1_555
C13 H17 1_555 1_555
H18 C13 1_555 1_555
H19 C13 1_555 1_555
C14 C15 1_555 1_555
C15 H20 1_555 1_555
C16 C15 1_555 1_555
H21 C16 1_555 1_555
C17 C16 1_555 1_555
C18 C17 1_555 1_555
H22 C18 1_555 1_555
C19 C14 1_555 1_555
H23 C19 1_555 1_555
C20 C17 1_555 1_555
C21 C20 1_555 1_555
C22 H24 1_555 1_555
H25 C22 1_555 1_555
H26 C22 1_555 1_555
C23 H27 1_555 1_555
H28 C23 1_555 1_555
H29 C23 1_555 1_555
C24 H30 1_555 1_555
H31 C24 1_555 1_555
H32 C24 1_555 1_555
C25 C26 1_555 1_555
C26 C27 1_555 1_555
C27 H33 1_555 1_555
C28 C27 1_555 1_555
C29 C28 1_555 1_555
C30 C25 1_555 1_555
H34 C30 1_555 1_555
N1 C1 1_555 1_555
N2 C13 1_555 1_555
O1 C25 1_555 1_555
O2 C28 1_555 1_555
Si1 C21 1_555 1_555
Si2 C9 1_555 1_555
C2 N1 1_555 1_555
C6 C7 1_555 1_555
C10 Si2 1_555 1_555
C11 Si2 1_555 1_555
C12 Si2 1_555 1_555
C14 N2 1_555 1_555
C18 C19 1_555 1_555
C22 Si1 1_555 1_555
C23 Si1 1_555 1_555
C24 Si1 1_555 1_555
C26 N1 1_555 1_555
C29 C30 1_555 1_555
C29 N2 1_555 1_555

#END
