
#######################################################################
#
#                 Cambridge Crystallographic Data Centre
#                                CCDC 
#
#######################################################################
#
# If this CIF has been generated from an entry in the Cambridge 
# Structural Database, then it will include bibliographic, chemical, 
# crystal, experimental, refinement or atomic coordinate data resulting 
# from the CCDC's data processing and validation procedures.
#
#######################################################################

data_HIRQOP
_chemical_name_common            Julolidine-1,6-dione
_chemical_formula_moiety         'C12 H11 N1 O2'
_chemical_name_systematic        
2,3,5,6-Tetrahydro-1H,7H-pyrido(3,2,1-ij)quinoline-1,7-dione
_symmetry_cell_setting           orthorhombic
_symmetry_space_group_name_H-M   'P n m a'
_symmetry_Int_Tables_number      62
_space_group_name_Hall           '-P 2ac 2n'
loop_
_symmetry_equiv_pos_site_id
_symmetry_equiv_pos_as_xyz
1 x,y,z
2 1/2-x,-y,1/2+z
3 1/2+x,1/2-y,1/2-z
4 -x,1/2+y,-z
5 -x,-y,-z
6 1/2+x,y,1/2-z
7 1/2-x,1/2+y,1/2+z
8 x,1/2-y,z
_cell_length_a                   10.069(2)
_cell_length_b                   14.081(3)
_cell_length_c                   6.9452(14)
_cell_angle_alpha                90
_cell_angle_beta                 90
_cell_angle_gamma                90
_cell_volume                     984.701
_exptl_crystal_colour            colorless
_exptl_crystal_description       block
_cell_formula_units_Z            4
_exptl_crystal_recrystallization_method methanol/water
_exptl_crystal_preparation       fluorescent
loop_
_atom_site_label
_atom_site_type_symbol
_atom_site_fract_x
_atom_site_fract_y
_atom_site_fract_z
C1 C 0.2702(3) 0.2500 1.2858(4)
H1 H 0.2326 0.2500 1.4080
C2 C 0.2983(2) 0.16584(14) 1.1947(3)
H2 H 0.2760 0.1089 1.2545
C3 C 0.35918(18) 0.16362(13) 1.0158(2)
C4 C 0.3938(2) 0.2500 0.9238(3)
C5 C 0.37694(18) 0.07268(15) 0.9155(3)
C6 C 0.4347(2) 0.07766(16) 0.7178(3)
H3 H 0.3633 0.0809 0.6242
H4 H 0.4852 0.0203 0.6928
C7 C 0.5239(2) 0.16269(14) 0.6933(3)
H5 H 0.6025 0.1548 0.7725
H6 H 0.5521 0.1670 0.5601
O1 O 0.34091(15) -0.00237(11) 0.9865(2)
N1 N 0.4561(2) 0.2500 0.7476(3)
C2G C 0.2983(2) 0.33416(14) 1.1947(3)
H2G H 0.2760 0.3911 1.2545
C3G C 0.35918(18) 0.33638(13) 1.0158(2)
C5G C 0.37694(18) 0.42732(15) 0.9155(3)
C6G C 0.4347(2) 0.42234(16) 0.7178(3)
H3G H 0.3633 0.4191 0.6242
H4G H 0.4852 0.4797 0.6928
C7G C 0.5239(2) 0.33731(14) 0.6933(3)
H5G H 0.6025 0.3452 0.7725
H6G H 0.5521 0.3330 0.5601
O1G O 0.34091(15) 0.50237(11) 0.9865(2)
loop_
_geom_bond_atom_site_label_1
_geom_bond_atom_site_label_2
_geom_bond_site_symmetry_1
_geom_bond_site_symmetry_2
C1 H1 1_555 1_555
C2 C1 1_555 1_555
H2 C2 1_555 1_555
C3 C2 1_555 1_555
C4 C3 1_555 1_555
C5 C3 1_555 1_555
C6 C5 1_555 1_555
H3 C6 1_555 1_555
H4 C6 1_555 1_555
C7 C6 1_555 1_555
H5 C7 1_555 1_555
H6 C7 1_555 1_555
O1 C5 1_555 1_555
N1 C4 1_555 1_555
C2G C1 1_555 1_555
H2G C2G 1_555 1_555
C3G C4 1_555 1_555
C5G C3G 1_555 1_555
C6G C5G 1_555 1_555
H3G C6G 1_555 1_555
H4G C6G 1_555 1_555
C7G N1 1_555 1_555
H5G C7G 1_555 1_555
H6G C7G 1_555 1_555
O1G C5G 1_555 1_555
C7 N1 1_555 1_555
C2G C3G 1_555 1_555
C6G C7G 1_555 1_555

#END
