
#######################################################################
#
#                 Cambridge Crystallographic Data Centre
#                                CCDC 
#
#######################################################################
#
# If this CIF has been generated from an entry in the Cambridge 
# Structural Database, then it will include bibliographic, chemical, 
# crystal, experimental, refinement or atomic coordinate data resulting 
# from the CCDC's data processing and validation procedures.
#
#######################################################################

data_HIRQIJ
_chemical_formula_moiety         'C14 H9 Br1 N2 O2'
_chemical_name_systematic        
2-(3-(4-Bromophenyl)-1,2,4-oxadiazol-5-yl)phenol
_symmetry_cell_setting           monoclinic
_symmetry_space_group_name_H-M   'P 21'
_symmetry_Int_Tables_number      4
_space_group_name_Hall           'P 2yb'
loop_
_symmetry_equiv_pos_site_id
_symmetry_equiv_pos_as_xyz
1 x,y,z
2 -x,1/2+y,-z
_cell_length_a                   6.3950(13)
_cell_length_b                   5.0790(10)
_cell_length_c                   19.625(4)
_cell_angle_alpha                90
_cell_angle_beta                 98.65(3)
_cell_angle_gamma                90
_cell_volume                     630.174
_exptl_crystal_colour            colorless
_exptl_crystal_description       block
_chemical_melting_point          '431 K'
_cell_formula_units_Z            2
_exptl_crystal_recrystallization_method ethanol
loop_
_atom_site_label
_atom_site_type_symbol
_atom_site_fract_x
_atom_site_fract_y
_atom_site_fract_z
Br1 Br 0.90540(15) 1.0994(3) 0.05102(5)
N1 N 0.3401(11) 0.2222(17) 0.2187(4)
N2 N 0.6748(9) 0.134(2) 0.2756(3)
O1 O 0.3297(9) 0.0163(13) 0.2682(3)
O2 O 0.9421(10) -0.1051(16) 0.3737(4)
H1 H 0.9028 -0.0021 0.3421
C1 C 0.7898(13) 0.8640(18) 0.1054(4)
C2 C 0.9179(14) 0.750(2) 0.1593(4)
H2 H 1.0587 0.8009 0.1702
C3 C 0.8340(12) 0.554(2) 0.1981(4)
H3 H 0.9214 0.4755 0.2347
C4 C 0.6330(13) 0.4778(19) 0.1838(4)
C5 C 0.4992(12) 0.600(4) 0.1278(4)
H4 H 0.3560 0.5602 0.1175
C6 C 0.5969(14) 0.787(2) 0.0884(4)
H5 H 0.5182 0.8557 0.0487
C7 C 0.5431(15) 0.2755(19) 0.2250(4)
C8 C 0.5339(14) -0.021(2) 0.2972(4)
C9 C 0.5753(15) -0.2226(19) 0.3509(4)
C10 C 0.7744(13) -0.2542(19) 0.3866(5)
C11 C 0.8120(15) -0.445(2) 0.4368(5)
H6 H 0.9477 -0.4610 0.4613
C12 C 0.6581(18) -0.610(3) 0.4521(5)
H7 H 0.6902 -0.7389 0.4857
C13 C 0.442(2) -0.585(2) 0.4156(5)
H8 H 0.3330 -0.6938 0.4248
C14 C 0.4125(12) -0.391(3) 0.3672(4)
H9 H 0.2769 -0.3672 0.3433
loop_
_geom_bond_atom_site_label_1
_geom_bond_atom_site_label_2
_geom_bond_site_symmetry_1
_geom_bond_site_symmetry_2
Br1 C1 1_555 1_555
N1 O1 1_555 1_555
N2 C7 1_555 1_555
O1 C8 1_555 1_555
O2 H1 1_555 1_555
C1 C2 1_555 1_555
C2 H2 1_555 1_555
C3 C2 1_555 1_555
H3 C3 1_555 1_555
C4 C3 1_555 1_555
C5 C4 1_555 1_555
H4 C5 1_555 1_555
C6 C1 1_555 1_555
H5 C6 1_555 1_555
C7 N1 1_555 1_555
C8 N2 1_555 1_555
C9 C8 1_555 1_555
C10 O2 1_555 1_555
C11 C10 1_555 1_555
H6 C11 1_555 1_555
C12 C11 1_555 1_555
H7 C12 1_555 1_555
C13 C12 1_555 1_555
H8 C13 1_555 1_555
C14 C9 1_555 1_555
H9 C14 1_555 1_555
C4 C7 1_555 1_555
C5 C6 1_555 1_555
C9 C10 1_555 1_555
C13 C14 1_555 1_555

#END
