
#######################################################################
#
#                 Cambridge Crystallographic Data Centre
#                                CCDC 
#
#######################################################################
#
# If this CIF has been generated from an entry in the Cambridge 
# Structural Database, then it will include bibliographic, chemical, 
# crystal, experimental, refinement or atomic coordinate data resulting 
# from the CCDC's data processing and validation procedures.
#
#######################################################################

data_HIRSOR
_chemical_formula_moiety         'C25 H29 N1 O4 S1'
_chemical_name_systematic        
(-)-(1S,4S,6R,8R)-(11,11-Dimethyl-5-(p-tolylsulfonyl)-3-oxa-5-azatricyclo(6.2.1.0^1,6^)undec-4-yl)(phenyl)methanone
_symmetry_cell_setting           orthorhombic
_symmetry_space_group_name_H-M   'P 21 21 21'
_symmetry_Int_Tables_number      19
_space_group_name_Hall           'P 2ac 2ab'
loop_
_symmetry_equiv_pos_site_id
_symmetry_equiv_pos_as_xyz
1 x,y,z
2 1/2-x,-y,1/2+z
3 1/2+x,1/2-y,-z
4 -x,1/2+y,1/2-z
_cell_length_a                   6.60966(14)
_cell_length_b                   17.0902(4)
_cell_length_c                   20.1206(5)
_cell_angle_alpha                90
_cell_angle_beta                 90
_cell_angle_gamma                90
_cell_volume                     2272.83
_exptl_crystal_colour            colorless
_exptl_crystal_description       block
_chemical_melting_point          '454-455 K'
_cell_formula_units_Z            4
_exptl_crystal_recrystallization_method ethanol
loop_
_atom_site_label
_atom_site_type_symbol
_atom_site_fract_x
_atom_site_fract_y
_atom_site_fract_z
C1 C 0.3134(2) 0.13409(7) 0.58801(7)
C2 C 0.1345(3) 0.16292(9) 0.54875(8)
H1 H 0.0518 0.1962 0.5768
H2 H 0.1820 0.1941 0.5116
O1 O 0.01302(16) 0.09940(7) 0.52405(5)
C3 C 0.1182(2) 0.04754(9) 0.48239(7)
H3 H 0.0258 0.0050 0.4703
N1 N 0.29237(18) 0.01282(7) 0.51794(6)
C4 C 0.4313(2) 0.06731(8) 0.55322(7)
H4 H 0.5270 0.0898 0.5213
C5 C 0.5506(2) 0.02914(9) 0.61142(7)
H5 H 0.5003 -0.0230 0.6210
H6 H 0.6939 0.0262 0.6014
C6 C 0.5103(2) 0.08473(9) 0.66919(7)
H7 H 0.5457 0.0634 0.7129
C7 C 0.6132(3) 0.16320(10) 0.65297(10)
H8 H 0.7499 0.1552 0.6367
H9 H 0.6176 0.1969 0.6917
C8 C 0.4763(3) 0.19802(9) 0.59837(9)
H10 H 0.5519 0.2072 0.5578
H11 H 0.4157 0.2468 0.6129
C9 C 0.2829(2) 0.10415(9) 0.66079(7)
C10 C 0.2079(3) 0.16776(12) 0.70935(9)
H12 H 0.2919 0.2133 0.7054
H13 H 0.2145 0.1482 0.7540
H14 H 0.0706 0.1813 0.6988
C11 C 0.1443(3) 0.03318(10) 0.66924(8)
H15 H 0.1869 -0.0078 0.6397
H16 H 0.0076 0.0478 0.6590
H17 H 0.1514 0.0149 0.7143
C12 C 0.1826(2) 0.09002(9) 0.41743(7)
C13 C 0.0379(3) 0.09349(8) 0.36117(7)
C14 C -0.1601(3) 0.06745(11) 0.36551(8)
H18 H -0.2083 0.0472 0.4054
C15 C -0.2870(3) 0.07141(13) 0.31061(9)
H19 H -0.4197 0.0538 0.3137
C16 C -0.2153(4) 0.10165(12) 0.25144(9)
H20 H -0.3003 0.1042 0.2147
C17 C -0.0204(4) 0.12783(11) 0.24656(8)
H21 H 0.0263 0.1483 0.2066
C18 C 0.1077(3) 0.12409(9) 0.30086(7)
H22 H 0.2402 0.1419 0.2973
O2 O 0.3472(2) 0.12121(10) 0.41429(7)
S1 S 0.39491(7) -0.06417(2) 0.482955(18)
C19 C 0.3513(2) -0.14272(8) 0.53849(7)
C20 C 0.5074(3) -0.19357(10) 0.55215(8)
H23 H 0.6358 -0.1845 0.5349
C21 C 0.4719(3) -0.25846(10) 0.59190(9)
H24 H 0.5774 -0.2929 0.6009
C22 C 0.2833(4) -0.27289(9) 0.61827(8)
C23 C 0.1281(3) -0.22108(11) 0.60438(9)
H25 H 0.0001 -0.2299 0.6221
C24 C 0.1608(3) -0.15594(10) 0.56425(9)
H26 H 0.0553 -0.1217 0.5549
C25 C 0.2471(5) -0.34462(12) 0.66090(10)
H27 H 0.3207 -0.3882 0.6429
H28 H 0.1053 -0.3566 0.6614
H29 H 0.2926 -0.3345 0.7054
O3 O 0.6094(2) -0.05411(7) 0.47826(6)
O4 O 0.2807(2) -0.07975(7) 0.42374(6)
loop_
_geom_bond_atom_site_label_1
_geom_bond_atom_site_label_2
_geom_bond_site_symmetry_1
_geom_bond_site_symmetry_2
C1 C2 1_555 1_555
C2 H1 1_555 1_555
H2 C2 1_555 1_555
O1 C2 1_555 1_555
C3 O1 1_555 1_555
H3 C3 1_555 1_555
N1 C3 1_555 1_555
C4 C1 1_555 1_555
H4 C4 1_555 1_555
C5 C4 1_555 1_555
H5 C5 1_555 1_555
H6 C5 1_555 1_555
C6 C5 1_555 1_555
H7 C6 1_555 1_555
C7 C6 1_555 1_555
H8 C7 1_555 1_555
H9 C7 1_555 1_555
C8 C1 1_555 1_555
H10 C8 1_555 1_555
H11 C8 1_555 1_555
C9 C1 1_555 1_555
C10 C9 1_555 1_555
H12 C10 1_555 1_555
H13 C10 1_555 1_555
H14 C10 1_555 1_555
C11 C9 1_555 1_555
H15 C11 1_555 1_555
H16 C11 1_555 1_555
H17 C11 1_555 1_555
C12 C3 1_555 1_555
C13 C12 1_555 1_555
C14 C13 1_555 1_555
H18 C14 1_555 1_555
C15 C14 1_555 1_555
H19 C15 1_555 1_555
C16 C15 1_555 1_555
H20 C16 1_555 1_555
C17 C16 1_555 1_555
H21 C17 1_555 1_555
C18 C13 1_555 1_555
H22 C18 1_555 1_555
O2 C12 1_555 1_555
S1 N1 1_555 1_555
C19 S1 1_555 1_555
C20 C19 1_555 1_555
H23 C20 1_555 1_555
C21 C20 1_555 1_555
H24 C21 1_555 1_555
C22 C21 1_555 1_555
C23 C22 1_555 1_555
H25 C23 1_555 1_555
C24 C19 1_555 1_555
H26 C24 1_555 1_555
C25 C22 1_555 1_555
H27 C25 1_555 1_555
H28 C25 1_555 1_555
H29 C25 1_555 1_555
O3 S1 1_555 1_555
O4 S1 1_555 1_555
N1 C4 1_555 1_555
C6 C9 1_555 1_555
C7 C8 1_555 1_555
C17 C18 1_555 1_555
C23 C24 1_555 1_555

#END
