
#######################################################################
#
#                 Cambridge Crystallographic Data Centre
#                                CCDC 
#
#######################################################################
#
# If this CIF has been generated from an entry in the Cambridge 
# Structural Database, then it will include bibliographic, chemical, 
# crystal, experimental, refinement or atomic coordinate data resulting 
# from the CCDC's data processing and validation procedures.
#
#######################################################################

data_HIRTIM
_chemical_formula_moiety         'C20 H15 Cl4 N3 O1'
_chemical_name_systematic        
1,5-bis(2,6-Dichlorophenyl)-3-((1H-1,2,4-triazol-1-yl)methyl)penta-1,4-dien-3-ol
_symmetry_cell_setting           monoclinic
_symmetry_space_group_name_H-M   'P 21/c'
_symmetry_Int_Tables_number      14
_space_group_name_Hall           '-P 2ybc'
loop_
_symmetry_equiv_pos_site_id
_symmetry_equiv_pos_as_xyz
1 x,y,z
2 -x,1/2+y,1/2-z
3 -x,-y,-z
4 x,1/2-y,1/2+z
_cell_length_a                   8.3413(17)
_cell_length_b                   10.652(2)
_cell_length_c                   22.229(4)
_cell_angle_alpha                90
_cell_angle_beta                 94.32(3)
_cell_angle_gamma                90
_cell_volume                     1969.47
_exptl_crystal_colour            colorless
_exptl_crystal_description       block
_cell_formula_units_Z            4
_exptl_crystal_recrystallization_method methanol
loop_
_atom_site_label
_atom_site_type_symbol
_atom_site_fract_x
_atom_site_fract_y
_atom_site_fract_z
Cl1 Cl 0.43666(7) 0.42402(6) 0.34867(3)
Cl2 Cl 0.33568(7) 0.22308(5) 0.23550(3)
Cl3 Cl 0.85225(8) 0.35813(5) 0.54500(3)
Cl4 Cl 0.23987(7) -0.25254(6) 0.31663(3)
O1 O 0.64236(17) -0.00926(13) 0.42224(7)
N1 N 0.98450(18) 0.03373(14) 0.38889(7)
C1 C 0.2879(2) -0.01739(17) 0.27484(8)
C2 C 0.6561(2) 0.39721(17) 0.44453(8)
N2 N 1.0809(2) 0.13526(15) 0.38301(8)
C3 C 0.8402(2) 0.01560(19) 0.34845(9)
H1 H 0.8277 -0.0752 0.3397
H2 H 0.8554 0.0587 0.3098
C4 C 0.6840(2) 0.06435(16) 0.37317(8)
C5 C 0.5554(2) 0.05100(18) 0.32121(8)
H3 H 0.5765 0.0882 0.2838
C6 C 0.0685(2) -0.1425(2) 0.22533(9)
H4 H 0.0088 -0.2185 0.2234
N3 N 1.1824(2) 0.00913(18) 0.45797(8)
C7 C 0.4179(2) -0.00754(18) 0.32389(8)
H5 H 0.3998 -0.0477 0.3609
C8 C 0.6932(2) 0.20331(16) 0.38717(8)
H6 H 0.7318 0.2559 0.3569
C9 C 0.1950(2) -0.12640(19) 0.26875(8)
C10 C 0.7604(3) 0.58210(19) 0.50010(9)
H7 H 0.8260 0.6162 0.5329
C11 C 0.5691(2) 0.48093(18) 0.40644(9)
C12 C 0.7486(2) 0.45377(18) 0.49228(8)
C13 C 0.1171(2) 0.0629(2) 0.18888(9)
H8 H 0.0916 0.1289 0.1610
C14 C 1.1960(2) 0.1150(2) 0.42536(9)
H9 H 1.2836 0.1714 0.4327
C15 C 0.2413(2) 0.07738(18) 0.23329(9)
C16 C 0.6534(2) 0.25908(17) 0.43680(8)
H10 H 0.6215 0.2085 0.4690
C17 C 1.0475(2) -0.0394(2) 0.43300(9)
H11 H 1.0018 -0.1163 0.4450
C18 C 0.5793(3) 0.60988(19) 0.41337(9)
H12 H 0.5191 0.6636 0.3860
C19 C 0.0304(2) -0.0475(2) 0.18522(9)
H13 H -0.0554 -0.0576 0.1550
C20 C 0.6762(3) 0.65986(19) 0.45980(10)
H14 H 0.6852 0.7484 0.4641
H15 H 0.686(3) 0.006(2) 0.4516(11)
loop_
_geom_bond_atom_site_label_1
_geom_bond_atom_site_label_2
_geom_bond_site_symmetry_1
_geom_bond_site_symmetry_2
Cl1 C11 1_555 1_555
Cl2 C15 1_555 1_555
Cl3 C12 1_555 1_555
Cl4 C9 1_555 1_555
O1 C4 1_555 1_555
N1 N2 1_555 1_555
C1 C7 1_555 1_555
C2 C11 1_555 1_555
N2 C14 1_555 1_555
C3 N1 1_555 1_555
H1 C3 1_555 1_555
H2 C3 1_555 1_555
C4 C3 1_555 1_555
C5 C4 1_555 1_555
H3 C5 1_555 1_555
C6 H4 1_555 1_555
N3 C14 1_555 1_555
C7 C5 1_555 1_555
H5 C7 1_555 1_555
C8 C4 1_555 1_555
H6 C8 1_555 1_555
C9 C1 1_555 1_555
C10 H7 1_555 1_555
C11 C18 1_555 1_555
C12 C2 1_555 1_555
C13 H8 1_555 1_555
C14 H9 1_555 1_555
C15 C1 1_555 1_555
C16 C2 1_555 1_555
H10 C16 1_555 1_555
C17 N1 1_555 1_555
H11 C17 1_555 1_555
C18 H12 1_555 1_555
C19 C6 1_555 1_555
H13 C19 1_555 1_555
C20 C10 1_555 1_555
H14 C20 1_555 1_555
H15 O1 1_555 1_555
C6 C9 1_555 1_555
N3 C17 1_555 1_555
C8 C16 1_555 1_555
C10 C12 1_555 1_555
C13 C15 1_555 1_555
C13 C19 1_555 1_555
C18 C20 1_555 1_555

#END
