
#######################################################################
#
#                 Cambridge Crystallographic Data Centre
#                                CCDC 
#
#######################################################################
#
# If this CIF has been generated from an entry in the Cambridge 
# Structural Database, then it will include bibliographic, chemical, 
# crystal, experimental, refinement or atomic coordinate data resulting 
# from the CCDC's data processing and validation procedures.
#
#######################################################################

data_HIRTUY
_chemical_formula_moiety         'C20 H14 F8 N2 O2'
_chemical_name_systematic        
1,5-bis(2,3,4,5-Tetrafluorobenzoyl)-1,5-diazacyclooctane
_symmetry_cell_setting           orthorhombic
_symmetry_space_group_name_H-M   'P b c n'
_symmetry_Int_Tables_number      60
_space_group_name_Hall           '-P 2n 2ab'
loop_
_symmetry_equiv_pos_site_id
_symmetry_equiv_pos_as_xyz
1 x,y,z
2 1/2-x,1/2-y,1/2+z
3 -x,y,1/2-z
4 1/2+x,1/2-y,-z
5 -x,-y,-z
6 1/2+x,1/2+y,1/2-z
7 x,-y,1/2+z
8 1/2-x,1/2+y,z
_cell_length_a                   14.8085(11)
_cell_length_b                   20.5518(16)
_cell_length_c                   12.7062(10)
_cell_angle_alpha                90
_cell_angle_beta                 90
_cell_angle_gamma                90
_cell_volume                     3867.02
_exptl_crystal_colour            colorless
_exptl_crystal_description       block
_cell_formula_units_Z            8
_exptl_crystal_recrystallization_method ethanol
loop_
_atom_site_label
_atom_site_type_symbol
_atom_site_fract_x
_atom_site_fract_y
_atom_site_fract_z
F1 F 1.03822(13) 0.40699(9) -0.15578(13)
F2 F 1.12461(12) 0.50629(8) -0.06219(14)
F3 F 1.16418(12) 0.49973(7) 0.14554(15)
F4 F 1.11569(13) 0.39500(7) 0.25721(11)
F5 F 0.74987(11) 0.08897(8) 0.18853(14)
F6 F 0.81750(14) -0.03319(8) 0.18206(17)
F7 F 0.99332(15) -0.05255(8) 0.13222(13)
F8 F 1.10061(12) 0.04879(10) 0.08864(14)
N1 N 0.90720(12) 0.29461(9) -0.09016(14)
N2 N 0.80349(12) 0.22324(9) 0.06928(14)
O1 O 1.03989(12) 0.24206(10) -0.06866(16)
O2 O 0.87133(16) 0.23209(9) 0.22774(15)
C1 C 1.05645(15) 0.40272(13) -0.05361(18)
C2 C 1.10072(16) 0.45372(12) -0.0062(2)
C3 C 1.12042(16) 0.45057(11) 0.0988(2)
C4 C 1.09579(16) 0.39645(12) 0.15442(18)
C5 C 1.05293(15) 0.34503(11) 0.10727(17)
H1 H 1.0381 0.3083 0.1463
C6 C 1.03189(13) 0.34806(11) 0.00162(17)
C7 C 0.99237(15) 0.29038(12) -0.05516(17)
C8 C 0.87319(18) 0.24394(13) -0.16115(18)
H2 H 0.9187 0.2352 -0.2142
H3 H 0.8200 0.2604 -0.1970
C9 C 0.84910(18) 0.18079(13) -0.10705(19)
H4 H 0.8286 0.1504 -0.1604
H5 H 0.9038 0.1629 -0.0766
C10 C 0.77848(16) 0.18371(12) -0.02210(18)
H6 H 0.7233 0.2011 -0.0520
H7 H 0.7658 0.1398 0.0016
C11 C 0.76174(17) 0.28843(13) 0.0803(2)
H8 H 0.7957 0.3128 0.1324
H9 H 0.7009 0.2829 0.1072
C12 C 0.75687(16) 0.32815(13) -0.0184(2)
H10 H 0.7219 0.3670 -0.0037
H11 H 0.7241 0.3033 -0.0709
C13 C 0.84638(16) 0.34870(12) -0.0655(2)
H12 H 0.8348 0.3731 -0.1294
H13 H 0.8765 0.3777 -0.0165
C14 C 0.85343(15) 0.20073(11) 0.14872(17)
C15 C 0.89052(15) 0.13281(11) 0.13940(16)
C16 C 0.83737(17) 0.07971(12) 0.16267(18)
C17 C 0.8707(2) 0.01773(13) 0.1597(2)
C18 C 0.9594(2) 0.00780(13) 0.13399(18)
C19 C 1.01321(18) 0.06046(14) 0.11227(18)
C20 C 0.98093(16) 0.12265(13) 0.11452(17)
H14 H 1.0187 0.1576 0.0997
loop_
_geom_bond_atom_site_label_1
_geom_bond_atom_site_label_2
_geom_bond_site_symmetry_1
_geom_bond_site_symmetry_2
F1 C1 1_555 1_555
F2 C2 1_555 1_555
F3 C3 1_555 1_555
F4 C4 1_555 1_555
F5 C16 1_555 1_555
F6 C17 1_555 1_555
F7 C18 1_555 1_555
F8 C19 1_555 1_555
N1 C7 1_555 1_555
N2 C10 1_555 1_555
O1 C7 1_555 1_555
O2 C14 1_555 1_555
C1 C2 1_555 1_555
C2 C3 1_555 1_555
C3 C4 1_555 1_555
C4 C5 1_555 1_555
C5 H1 1_555 1_555
C6 C1 1_555 1_555
C7 C6 1_555 1_555
C8 N1 1_555 1_555
H2 C8 1_555 1_555
H3 C8 1_555 1_555
C9 C8 1_555 1_555
H4 C9 1_555 1_555
H5 C9 1_555 1_555
C10 C9 1_555 1_555
H6 C10 1_555 1_555
H7 C10 1_555 1_555
C11 N2 1_555 1_555
H8 C11 1_555 1_555
H9 C11 1_555 1_555
C12 C11 1_555 1_555
H10 C12 1_555 1_555
H11 C12 1_555 1_555
C13 N1 1_555 1_555
H12 C13 1_555 1_555
H13 C13 1_555 1_555
C14 N2 1_555 1_555
C15 C14 1_555 1_555
C16 C15 1_555 1_555
C17 C16 1_555 1_555
C18 C17 1_555 1_555
C19 C18 1_555 1_555
C20 C15 1_555 1_555
H14 C20 1_555 1_555
C5 C6 1_555 1_555
C12 C13 1_555 1_555
C19 C20 1_555 1_555

#END
