
#######################################################################
#
#                 Cambridge Crystallographic Data Centre
#                                CCDC 
#
#######################################################################
#
# If this CIF has been generated from an entry in the Cambridge 
# Structural Database, then it will include bibliographic, chemical, 
# crystal, experimental, refinement or atomic coordinate data resulting 
# from the CCDC's data processing and validation procedures.
#
#######################################################################

data_HIRVIO
_chemical_formula_moiety         'C14 H14 N2 O1 S1'
_chemical_name_systematic        2-(2-Pyridylsulfanyl)-N-(p-tolyl)acetamide
_symmetry_cell_setting           orthorhombic
_symmetry_space_group_name_H-M   'P b c a'
_symmetry_Int_Tables_number      61
_space_group_name_Hall           '-P 2ac 2ab'
loop_
_symmetry_equiv_pos_site_id
_symmetry_equiv_pos_as_xyz
1 x,y,z
2 1/2-x,-y,1/2+z
3 -x,1/2+y,1/2-z
4 1/2+x,1/2-y,-z
5 -x,-y,-z
6 1/2+x,y,1/2-z
7 x,1/2-y,1/2+z
8 1/2-x,1/2+y,z
_cell_length_a                   9.348(2)
_cell_length_b                   12.361(3)
_cell_length_c                   23.184(6)
_cell_angle_alpha                90
_cell_angle_beta                 90
_cell_angle_gamma                90
_cell_volume                     2678.93
_exptl_crystal_colour            colorless
_exptl_crystal_description       plate
_chemical_melting_point          '403 K'
_cell_formula_units_Z            8
_exptl_crystal_recrystallization_method chloroform/acetone
loop_
_atom_site_label
_atom_site_type_symbol
_atom_site_fract_x
_atom_site_fract_y
_atom_site_fract_z
S1 S 0.15494(7) 0.53279(5) 0.32262(3)
O1 O 0.09884(17) 0.36599(16) 0.22875(8)
N1 N 0.1009(3) 0.4497(2) 0.42221(10)
N2 N 0.3332(2) 0.33742(17) 0.20810(9)
C1 C 0.1150(4) 0.3798(3) 0.46624(14)
H1 H 0.0559 0.3888 0.4981
C2 C 0.2108(4) 0.2963(3) 0.46715(14)
H2 H 0.2156 0.2494 0.4984
C3 C 0.3000(4) 0.2838(3) 0.42029(13)
H3 H 0.3672 0.2283 0.4198
C4 C 0.2894(3) 0.3536(2) 0.37423(12)
H4 H 0.3489 0.3464 0.3423
C5 C 0.1877(3) 0.4347(2) 0.37679(11)
C6 C 0.2722(3) 0.4933(2) 0.26470(11)
H5 H 0.2788 0.5525 0.2374
H6 H 0.3671 0.4811 0.2803
C7 C 0.2246(2) 0.39226(19) 0.23277(10)
C8 C 0.3274(2) 0.24390(19) 0.17239(10)
C9 C 0.4569(3) 0.1969(2) 0.15700(12)
H7 H 0.5421 0.2262 0.1705
C10 C 0.4597(3) 0.1067(2) 0.12164(13)
H8 H 0.5475 0.0775 0.1110
C11 C 0.3352(3) 0.0589(2) 0.10166(12)
C12 C 0.2078(3) 0.1059(2) 0.11785(11)
H9 H 0.1227 0.0754 0.1049
C13 C 0.2016(3) 0.1970(2) 0.15273(11)
H10 H 0.1137 0.2265 0.1629
C14 C 0.3383(3) -0.0406(2) 0.06350(15)
H11 H 0.2519 -0.0813 0.0689
H12 H 0.4191 -0.0846 0.0735
H13 H 0.3458 -0.0188 0.0239
H14 H 0.420(3) 0.3602(19) 0.2169(10)
loop_
_geom_bond_atom_site_label_1
_geom_bond_atom_site_label_2
_geom_bond_site_symmetry_1
_geom_bond_site_symmetry_2
S1 C5 1_555 1_555
O1 C7 1_555 1_555
N1 C1 1_555 1_555
N2 C7 1_555 1_555
C1 H1 1_555 1_555
C2 C1 1_555 1_555
H2 C2 1_555 1_555
C3 C2 1_555 1_555
H3 C3 1_555 1_555
C4 C3 1_555 1_555
H4 C4 1_555 1_555
C5 N1 1_555 1_555
C6 S1 1_555 1_555
H5 C6 1_555 1_555
H6 C6 1_555 1_555
C7 C6 1_555 1_555
C8 N2 1_555 1_555
C9 C8 1_555 1_555
H7 C9 1_555 1_555
C10 C9 1_555 1_555
H8 C10 1_555 1_555
C11 C10 1_555 1_555
C12 C11 1_555 1_555
H9 C12 1_555 1_555
C13 C8 1_555 1_555
H10 C13 1_555 1_555
C14 C11 1_555 1_555
H11 C14 1_555 1_555
H12 C14 1_555 1_555
H13 C14 1_555 1_555
H14 N2 1_555 1_555
C4 C5 1_555 1_555
C12 C13 1_555 1_555

#END
