
#######################################################################
#
#                 Cambridge Crystallographic Data Centre
#                                CCDC 
#
#######################################################################
#
# If this CIF has been generated from an entry in the Cambridge 
# Structural Database, then it will include bibliographic, chemical, 
# crystal, experimental, refinement or atomic coordinate data resulting 
# from the CCDC's data processing and validation procedures.
#
#######################################################################

data_HIRWAH
_chemical_formula_moiety         'C15 H17 N3 O5'
_chemical_name_systematic        
'Methyl N-(2-((4,6-dimethoxypyrimidin-2-yl)(hydroxy)methyl)phenyl)carbamate'
_symmetry_cell_setting           triclinic
_symmetry_space_group_name_H-M   'P -1'
_symmetry_Int_Tables_number      2
_space_group_name_Hall           '-P 1'
loop_
_symmetry_equiv_pos_site_id
_symmetry_equiv_pos_as_xyz
1 x,y,z
2 -x,-y,-z
_cell_length_a                   7.894(2)
_cell_length_b                   9.302(2)
_cell_length_c                   11.697(3)
_cell_angle_alpha                111.518(4)
_cell_angle_beta                 98.887(4)
_cell_angle_gamma                100.230(4)
_cell_volume                     763.381
_exptl_crystal_colour            colorless
_exptl_crystal_description       block
_cell_formula_units_Z            2
_exptl_crystal_recrystallization_method dichloromethane
loop_
_atom_site_label
_atom_site_type_symbol
_atom_site_fract_x
_atom_site_fract_y
_atom_site_fract_z
O1 O 1.3432(2) 0.29230(18) 0.54228(15)
O2 O 1.1760(2) 0.42049(18) 0.46153(15)
O3 O 0.6181(3) -0.1852(3) 0.26033(19)
H1 H 0.632(4) -0.196(4) 0.3268(17)
O5 O 0.6414(3) -0.2561(2) -0.17285(15)
O6 O 0.8081(3) 0.2944(2) 0.09025(15)
N1 N 1.1052(3) 0.1588(2) 0.37305(18)
H3 H 1.017(3) 0.177(3) 0.329(2)
N2 N 0.7001(2) -0.1685(2) 0.04352(17)
N3 N 0.7866(3) 0.1109(2) 0.17055(16)
C1 C 1.1024(3) -0.0018(3) 0.35143(19)
C2 C 1.2571(3) -0.0466(3) 0.3780(2)
H4 H 1.3658 0.0289 0.4089
C3 C 1.2498(4) -0.2038(3) 0.3586(2)
H5 H 1.3536 -0.2329 0.3783
C4 C 1.0900(4) -0.3174(3) 0.3104(2)
H6 H 1.0853 -0.4227 0.2983
C5 C 0.9383(3) -0.2735(3) 0.2805(2)
H7 H 0.8312 -0.3513 0.2449
C6 C 0.9393(3) -0.1169(3) 0.30152(19)
C7 C 1.2198(3) 0.2899(3) 0.4654(2)
C8 C 1.2710(4) 0.5698(3) 0.5647(2)
H8 H 1.2637 0.5621 0.6436
H9 H 1.2198 0.6535 0.5583
H10 H 1.3931 0.5933 0.5613
C9 C 0.7669(3) -0.0706(3) 0.2735(2)
C10 C 0.7478(3) -0.0409(3) 0.1541(2)
C11 C 0.6872(3) -0.1352(3) -0.0576(2)
C12 C 0.7191(3) 0.0175(3) -0.0535(2)
H11 H 0.7068 0.0371 -0.1264
C13 C 0.7701(3) 0.1383(3) 0.0652(2)
C14 C 0.6185(5) -0.4148(3) -0.1773(3)
H12 H 0.7297 -0.4267 -0.1404
H13 H 0.5775 -0.4911 -0.2637
H14 H 0.5329 -0.4327 -0.1307
C15 C 0.7919(5) 0.3374(3) -0.0168(3)
H15 H 0.8728 0.2971 -0.0661
H16 H 0.8192 0.4516 0.0126
H17 H 0.6727 0.2920 -0.0682
O4? O 0.7255(12) 0.0317(10) 0.3606(7)
H2? H 0.789(11) 0.060(12) 0.4314(19)
loop_
_geom_bond_atom_site_label_1
_geom_bond_atom_site_label_2
_geom_bond_site_symmetry_1
_geom_bond_site_symmetry_2
O1 C7 1_555 1_555
O2 C7 1_555 1_555
O3 H1 1_555 1_555
O5 C11 1_555 1_555
O6 C13 1_555 1_555
N1 H3 1_555 1_555
N2 C10 1_555 1_555
N3 C10 1_555 1_555
C1 N1 1_555 1_555
C2 C1 1_555 1_555
H4 C2 1_555 1_555
C3 C2 1_555 1_555
H5 C3 1_555 1_555
C4 C3 1_555 1_555
H6 C4 1_555 1_555
C5 C4 1_555 1_555
H7 C5 1_555 1_555
C6 C1 1_555 1_555
C7 N1 1_555 1_555
C8 O2 1_555 1_555
H8 C8 1_555 1_555
H9 C8 1_555 1_555
H10 C8 1_555 1_555
C9 O3 1_555 1_555
C10 C9 1_555 1_555
C11 N2 1_555 1_555
C12 C11 1_555 1_555
H11 C12 1_555 1_555
C13 N3 1_555 1_555
C14 O5 1_555 1_555
H12 C14 1_555 1_555
H13 C14 1_555 1_555
H14 C14 1_555 1_555
C15 O6 1_555 1_555
H15 C15 1_555 1_555
H16 C15 1_555 1_555
H17 C15 1_555 1_555
C5 C6 1_555 1_555
C6 C9 1_555 1_555
C12 C13 1_555 1_555

#END
