
#######################################################################
#
#                 Cambridge Crystallographic Data Centre
#                                CCDC 
#
#######################################################################
#
# If this CIF has been generated from an entry in the Cambridge 
# Structural Database, then it will include bibliographic, chemical, 
# crystal, experimental, refinement or atomic coordinate data resulting 
# from the CCDC's data processing and validation procedures.
#
#######################################################################

data_HIRWAJ
_chemical_formula_moiety         'C88 H70 F6 O2,1.333(C1 H2 Cl2)'
_chemical_name_systematic        
"1,1'-{6,14-bis[10-(3,5-di-t-butylphenyl)anthracen-9-yl]diazuleno[2,1-a:2',1'-g]-s-indacene-8,16-diyl}bis(trifluoroethan-1-one) dichloromethane unknown solvate"
_symmetry_cell_setting           triclinic
_symmetry_space_group_name_H-M   'P -1'
_symmetry_Int_Tables_number      2
_space_group_name_Hall           '-P 1'
loop_
_symmetry_equiv_pos_site_id
_symmetry_equiv_pos_as_xyz
1 x,y,z
2 -x,-y,-z
_cell_length_a                   13.4801(2)
_cell_length_b                   21.1737(4)
_cell_length_c                   21.3106(4)
_cell_angle_alpha                100.2800(10)
_cell_angle_beta                 100.8280(10)
_cell_angle_gamma                107.7870(10)
_cell_volume                     5504.82
_exptl_crystal_colour            red
_exptl_crystal_description       Block
_cell_formula_units_Z            3
loop_
_atom_site_label
_atom_site_type_symbol
_atom_site_fract_x
_atom_site_fract_y
_atom_site_fract_z
C1 C 0.4497(3) 0.08920(16) 0.00507(15)
C2 C 0.3403(3) 0.05462(17) -0.00453(17)
H1 H 0.3072 0.0187 -0.0438
C3 C 0.2718(3) 0.06464(19) 0.03468(18)
H2 H 0.1992 0.0341 0.0183
C4 C 0.2931(3) 0.11219(18) 0.09388(17)
H3 H 0.2330 0.1102 0.1117
C5 C 0.3904(3) 0.16236(17) 0.13061(16)
H4 H 0.3882 0.1899 0.1704
C6 C 0.4902(3) 0.17750(16) 0.11693(16)
H5 H 0.5472 0.2140 0.1488
C7 C 0.5189(2) 0.14661(15) 0.06275(15)
C8 C 0.6244(3) 0.16421(15) 0.05459(15)
C9 C 0.7328(2) 0.20995(15) 0.08832(15)
C10 C 0.8004(3) 0.19318(15) 0.05102(15)
C11 C 0.9145(3) 0.22255(15) 0.06349(15)
H6 H 0.9556 0.2592 0.1012
C12 C 0.9634(3) 0.19683(15) 0.01999(15)
C13 C 1.0745(3) 0.21135(15) 0.01541(15)
C14 C 1.1827(3) 0.25408(16) 0.04692(16)
C15 C 1.2484(3) 0.23771(16) 0.00511(16)
C16 C 1.3591(3) 0.26550(18) 0.01487(18)
H7 H 1.3968 0.3000 0.0547
C17 C 1.4233(3) 0.25000(19) -0.0257(2)
H8 H 1.4982 0.2757 -0.0085
C18 C 1.3973(3) 0.20422(19) -0.08590(18)
H9 H 1.4561 0.2023 -0.1037
C19 C 1.2963(3) 0.1606(2) -0.12386(18)
H10 H 1.2940 0.1346 -0.1657
C20 C 1.1986(3) 0.15014(19) -0.10861(17)
H11 H 1.1381 0.1163 -0.1406
C21 C 1.1760(3) 0.18224(16) -0.05282(16)
C22 C 1.0721(3) 0.16764(16) -0.04374(15)
C23 C 0.9634(2) 0.12418(15) -0.07754(14)
C24 C 0.8976(2) 0.14151(15) -0.03947(15)
C25 C 0.7848(3) 0.11205(15) -0.05149(14)
H12 H 0.7439 0.0756 -0.0894
C26 C 0.7353(3) 0.13677(15) -0.00761(15)
C27 C 0.6247(3) 0.12020(15) -0.00376(15)
C28 C 0.5182(3) 0.07505(16) -0.03596(15)
C29 C 1.2085(3) 0.30114(17) 0.11133(17)
C30 C 1.3224(3) 0.35294(18) 0.14610(18)
C31 C 0.7642(2) 0.26633(15) 0.14877(15)
C32 C 0.7354(2) 0.32412(15) 0.14373(15)
C33 C 0.6849(3) 0.33178(16) 0.08205(16)
H13 H 0.6712 0.2973 0.0430
C34 C 0.6559(3) 0.38734(17) 0.07779(16)
H14 H 0.6210 0.3907 0.0361
C35 C 0.6771(3) 0.44002(16) 0.13488(17)
H15 H 0.6564 0.4786 0.1315
C36 C 0.7272(3) 0.43549(16) 0.19458(16)
H16 H 0.7429 0.4718 0.2324
C37 C 0.7569(2) 0.37739(15) 0.20186(16)
C38 C 0.8038(2) 0.37103(15) 0.26395(15)
C39 C 0.8360(2) 0.31462(15) 0.26920(15)
C40 C 0.8848(3) 0.30690(17) 0.33121(16)
H17 H 0.8970 0.3412 0.3701
C41 C 0.9147(3) 0.25173(18) 0.33643(17)
H18 H 0.9469 0.2477 0.3785
C42 C 0.8975(3) 0.20013(18) 0.27851(18)
H19 H 0.9196 0.1621 0.2820
C43 C 0.8499(3) 0.20473(17) 0.21831(16)
H20 H 0.8380 0.1693 0.1804
C44 C 0.8171(2) 0.26167(15) 0.21055(15)
C45 C 0.8120(3) 0.42394(16) 0.32362(15)
C46 C 0.9029(3) 0.48138(17) 0.35140(16)
H21 H 0.9658 0.4853 0.3360
C47 C 0.9044(3) 0.53429(18) 0.40210(17)
C48 C 0.8117(3) 0.52543(18) 0.42425(17)
H22 H 0.8121 0.5603 0.4593
C49 C 0.7185(3) 0.46810(18) 0.39762(18)
C50 C 0.7197(3) 0.41711(17) 0.34641(17)
H23 H 0.6571 0.3774 0.3269
C51 C 1.0056(4) 0.5985(2) 0.4304(2)
C52 C 1.0949(5) 0.5805(3) 0.4658(4)
H24 H 1.0755 0.5636 0.5034
H25 H 1.1607 0.6212 0.4818
H26 H 1.1075 0.5447 0.4357
C53 C 1.0340(7) 0.6287(3) 0.3730(4)
H27 H 1.0896 0.6744 0.3906
H28 H 0.9694 0.6322 0.3461
H29 H 1.0610 0.5988 0.3458
C54 C 0.9875(5) 0.6539(2) 0.4789(3)
H30 H 0.9689 0.6363 0.5163
H31 H 0.9285 0.6663 0.4566
H32 H 1.0536 0.6944 0.4949
C55 C 0.6197(4) 0.4603(2) 0.4254(2)
C56 C 0.6002(5) 0.5290(3) 0.4387(4)
H33 H 0.5849 0.5420 0.3970
H34 H 0.6647 0.5645 0.4694
H35 H 0.5387 0.5240 0.4581
C57 C 0.6410(4) 0.4397(2) 0.4903(2)
H36 H 0.5785 0.4348 0.5088
H37 H 0.7050 0.4750 0.5216
H38 H 0.6530 0.3959 0.4822
C58 C 0.5173(4) 0.4059(3) 0.3782(3)
H39 H 0.5044 0.4177 0.3357
H40 H 0.4558 0.4041 0.3971
H41 H 0.5261 0.3611 0.3716
C59 C 0.9205(2) 0.07076(15) -0.14093(15)
C60 C 0.8605(2) 0.08335(16) -0.19569(15)
C61 C 0.8574(3) 0.15011(16) -0.19623(16)
H42 H 0.8960 0.1871 -0.1584
C62 C 0.8000(3) 0.16144(18) -0.24995(18)
H43 H 0.8002 0.2064 -0.2498
C63 C 0.7401(3) 0.10691(19) -0.30595(19)
H44 H 0.6993 0.1153 -0.3430
C64 C 0.7402(3) 0.04214(18) -0.30752(17)
H45 H 0.6986 0.0060 -0.3456
C65 C 0.8008(2) 0.02772(16) -0.25359(15)
C66 C 0.8062(2) -0.03806(16) -0.25525(15)
C67 C 0.8753(2) -0.04845(15) -0.20298(14)
C68 C 0.8873(3) -0.11363(16) -0.20396(16)
H46 H 0.8489 -0.1509 -0.2416
C69 C 0.9525(3) -0.12327(17) -0.15218(16)
H47 H 0.9605 -0.1666 -0.1545
C70 C 1.0085(3) -0.06887(17) -0.09479(16)
H48 H 1.0537 -0.0760 -0.0588
C71 C 0.9979(3) -0.00647(16) -0.09110(15)
H49 H 1.0346 0.0292 -0.0519
C72 C 0.9329(2) 0.00664(15) -0.14461(15)
C73 C 0.7315(3) -0.09734(16) -0.31031(15)
C74 C 0.6219(3) -0.11696(16) -0.31351(15)
H50 H 0.5979 -0.0917 -0.2819
C75 C 0.5464(3) -0.17311(16) -0.36221(15)
C76 C 0.5845(3) -0.20972(17) -0.40713(16)
H51 H 0.5343 -0.2486 -0.4401
C77 C 0.6935(3) -0.19137(16) -0.40545(16)
C78 C 0.7664(3) -0.13459(16) -0.35653(15)
H52 H 0.8411 -0.1211 -0.3547
C79 C 0.4262(3) -0.19152(17) -0.36239(16)
C80 C 0.4118(3) -0.2070(2) -0.29625(18)
H53 H 0.4554 -0.1665 -0.2601
H54 H 0.4352 -0.2455 -0.2903
H55 H 0.3357 -0.2189 -0.2962
C81 C 0.3911(3) -0.13069(19) -0.37005(19)
H56 H 0.3996 -0.1203 -0.4121
H57 H 0.4358 -0.0907 -0.3336
H58 H 0.3152 -0.1421 -0.3693
C82 C 0.3526(3) -0.25340(19) -0.41855(19)
H59 H 0.2773 -0.2616 -0.4178
H60 H 0.3706 -0.2939 -0.4130
H61 H 0.3626 -0.2444 -0.4609
C83 C 0.7358(3) -0.23378(18) -0.45330(18)
C84 C 0.8169(5) -0.1872(2) -0.4816(3)
H62 H 0.8822 -0.1598 -0.4464
H63 H 0.7851 -0.1567 -0.5005
H64 H 0.8354 -0.2153 -0.5162
C85 C 0.7866(4) -0.2754(3) -0.4155(2)
H65 H 0.7325 -0.3052 -0.3985
H66 H 0.8469 -0.2444 -0.3785
H67 H 0.8132 -0.3035 -0.4450
C86 C 0.6455(4) -0.2834(2) -0.51219(19)
H68 H 0.6760 -0.3082 -0.5420
H69 H 0.6091 -0.2577 -0.5359
H70 H 0.5933 -0.3162 -0.4965
F1 F 1.3219(2) 0.39515(13) 0.19983(12)
F2 F 1.39174(19) 0.32170(13) 0.16520(12)
F3 F 1.36462(18) 0.39147(10) 0.10755(11)
O1 O 1.1420(2) 0.30193(15) 0.14268(14)
C87 C 0.4953(4) 0.02678(19) -0.09931(18)
C88 C 0.3869(5) -0.0086(3) -0.1465(3)
O2 O 0.5710(3) 0.0170(2) -0.12208(17)
F4 F 0.3277(2) 0.02967(14) -0.15390(13)
F5 F 0.3284(3) -0.06082(15) -0.12209(18)
F6 F 0.3895(3) -0.0402(2) -0.20470(18)
C91 C 0.1097(3) 0.43474(19) 1.02092(17)
C92 C 0.0004(3) 0.4040(2) 1.01505(19)
H71 H -0.0358 0.3633 0.9807
C93 C -0.0639(3) 0.4248(3) 1.0527(2)
H72 H -0.1371 0.3952 1.0408
C94 C -0.0378(3) 0.4812(3) 1.1043(2)
H73 H -0.0957 0.4853 1.1221
C95 C 0.0618(3) 0.5333(3) 1.1341(2)
H74 H 0.0626 0.5683 1.1691
C96 C 0.1604(3) 0.5404(2) 1.11899(19)
H75 H 0.2200 0.5789 1.1461
C97 C 0.1835(3) 0.49843(19) 1.06938(17)
C98 C 0.2849(3) 0.51038(17) 1.05574(16)
C99 C 0.6055(3) 0.44364(16) 0.91738(15)
C100 C 0.5440(2) 0.46695(16) 0.95613(15)
C101 C 0.4320(2) 0.43898(16) 0.94991(15)
H76 H 0.3884 0.3982 0.9169
C102 C 0.3867(2) 0.47128(16) 0.99202(15)
C103 C 0.2779(2) 0.45842(16) 1.00048(15)
C104 C 0.1702(3) 0.41132(17) 0.97815(16)
C105 C 0.1181(3) 0.35003(17) 0.92361(17)
C106 C 0.1598(3) 0.34227(18) 0.86085(18)
C107 C 0.5592(2) 0.38432(16) 0.85864(15)
C108 C 0.5863(3) 0.32452(17) 0.85705(15)
C109 C 0.6674(3) 0.32110(19) 0.90901(16)
H77 H 0.7037 0.3595 0.9459
C110 C 0.6935(3) 0.2631(2) 0.90624(17)
H78 H 0.7489 0.2623 0.9406
C111 C 0.6389(3) 0.2045(2) 0.85282(18)
H79 H 0.6575 0.1646 0.8516
C112 C 0.5602(3) 0.20530(19) 0.80333(16)
H80 H 0.5237 0.1654 0.7680
C113 C 0.5303(3) 0.26482(17) 0.80289(15)
C114 C 0.4460(3) 0.26498(16) 0.75285(15)
C115 C 0.4240(2) 0.32568(17) 0.75200(15)
C116 C 0.3452(3) 0.32921(19) 0.69829(16)
H81 H 0.3023 0.2888 0.6647
C117 C 0.3311(3) 0.3894(2) 0.69471(17)
H82 H 0.2789 0.3909 0.6588
C118 C 0.3944(3) 0.45011(19) 0.74456(18)
H83 H 0.3865 0.4924 0.7405
C119 C 0.4659(3) 0.44885(17) 0.79788(16)
H84 H 0.5053 0.4898 0.8315
C120 C 0.4830(3) 0.38618(16) 0.80414(15)
C121 C 0.3773(3) 0.20076(17) 0.70150(15)
C122 C 0.4179(3) 0.17141(17) 0.65319(16)
H85 H 0.4901 0.1935 0.6519
C123 C 0.3546(3) 0.11047(19) 0.60688(17)
C124 C 0.2499(4) 0.0793(2) 0.6101(2)
H86 H 0.2067 0.0370 0.5793
C125 C 0.2053(4) 0.1077(2) 0.6568(2)
C126 C 0.2714(3) 0.1694(2) 0.70219(18)
H87 H 0.2429 0.1903 0.7342
C127 C 0.4025(4) 0.0751(2) 0.55773(18)
C128 C 0.5026(6) 0.1273(3) 0.5461(3)
H88 H 0.5568 0.1506 0.5884
H89 H 0.4810 0.1612 0.5268
H90 H 0.5333 0.1030 0.5160
C129 C 0.4414(5) 0.0255(3) 0.5889(2)
H91 H 0.3799 -0.0093 0.5957
H92 H 0.4937 0.0503 0.6315
H93 H 0.4757 0.0032 0.5597
C130 C 0.3220(6) 0.0396(4) 0.4917(3)
H94 H 0.3575 0.0212 0.4606
H95 H 0.2937 0.0725 0.4748
H96 H 0.2626 0.0021 0.4968
C131 C 0.0897(4) 0.0708(3) 0.6598(3)
C132 C 0.0452(4) 0.1216(4) 0.6986(3)
H97 H -0.0321 0.0989 0.6934
H98 H 0.0566 0.1623 0.6811
H99 H 0.0833 0.1353 0.7455
C133 C 0.0913(6) 0.0155(5) 0.6984(4)
H100 H 0.1187 -0.0174 0.6756
H101 H 0.0180 -0.0085 0.7009
H102 H 0.1383 0.0375 0.7431
C134 C 0.0138(5) 0.0365(4) 0.5922(3)
H103 H 0.0400 0.0037 0.5682
H104 H 0.0101 0.0712 0.5679
H105 H -0.0582 0.0123 0.5966
F10 F 0.0780(2) 0.30904(14) 0.80794(11)
F11 F 0.21346(17) 0.40217(10) 0.85057(10)
F12 F 0.22605(19) 0.30613(11) 0.86404(13)
O4 O 0.0373(2) 0.30215(13) 0.92096(14)
C91A C 0.8903(3) 0.56526(19) 0.97908(17)
C92A C 0.9996(3) 0.5960(2) 0.98495(19)
H71A H 1.0358 0.6367 1.0193
C93A C 1.0639(3) 0.5752(3) 0.9473(2)
H72A H 1.1371 0.6048 0.9592
C94A C 1.0378(3) 0.5188(3) 0.8957(2)
H73A H 1.0957 0.5147 0.8779
C95A C 0.9382(3) 0.4667(3) 0.8659(2)
H74A H 0.9374 0.4317 0.8309
C96A C 0.8396(3) 0.4596(2) 0.88101(19)
H75A H 0.7800 0.4211 0.8539
C97A C 0.8165(3) 0.50157(19) 0.93062(17)
C98A C 0.7151(3) 0.48962(17) 0.94426(16)
C99A C 0.3945(3) 0.55636(16) 1.08262(15)
C100A C 0.4560(2) 0.53305(16) 1.04387(15)
C101A C 0.5680(2) 0.56102(16) 1.05009(15)
H76A H 0.6116 0.6018 1.0831
C102A C 0.6133(2) 0.52872(16) 1.00798(15)
C103A C 0.7221(2) 0.54158(16) 0.99952(15)
C104A C 0.8298(3) 0.58868(17) 1.02185(16)
C105A C 0.8819(3) 0.64997(17) 1.07639(17)
C106A C 0.8402(3) 0.65773(18) 1.13915(18)
C107A C 0.4408(2) 0.61568(16) 1.14136(15)
C108A C 0.4137(3) 0.67548(17) 1.14295(15)
C109A C 0.3326(3) 0.67890(19) 1.09099(16)
H77A H 0.2963 0.6405 1.0541
C110A C 0.3065(3) 0.7369(2) 1.09376(17)
H78A H 0.2511 0.7377 1.0594
C111A C 0.3611(3) 0.7955(2) 1.14718(18)
H79A H 0.3425 0.8354 1.1484
C112A C 0.4398(3) 0.79470(19) 1.19667(16)
H80A H 0.4763 0.8346 1.2320
C113A C 0.4697(3) 0.73518(17) 1.19711(15)
C114A C 0.5540(3) 0.73502(16) 1.24715(15)
C115A C 0.5760(2) 0.67432(17) 1.24800(15)
C116A C 0.6548(3) 0.67079(19) 1.30171(16)
H81A H 0.6977 0.7112 1.3353
C117A C 0.6689(3) 0.6106(2) 1.30529(17)
H82A H 0.7211 0.6091 1.3412
C118A C 0.6056(3) 0.54989(19) 1.25544(18)
H83A H 0.6135 0.5076 1.2595
C119A C 0.5341(3) 0.55115(17) 1.20212(16)
H84A H 0.4947 0.5102 1.1685
C120A C 0.5170(3) 0.61382(16) 1.19586(15)
C121A C 0.6227(3) 0.79924(17) 1.29850(15)
C122A C 0.5821(3) 0.82859(17) 1.34681(16)
H85A H 0.5099 0.8065 1.3481
C123A C 0.6454(3) 0.88953(19) 1.39312(17)
C124A C 0.7501(4) 0.9207(2) 1.3899(2)
H86A H 0.7933 0.9630 1.4207
C125A C 0.7947(4) 0.8923(2) 1.3432(2)
C126A C 0.7286(3) 0.8306(2) 1.29781(18)
H87A H 0.7571 0.8097 1.2658
C127A C 0.5975(4) 0.9249(2) 1.44227(18)
C128A C 0.4974(6) 0.8727(3) 1.4539(3)
H88A H 0.4432 0.8494 1.4116
H89A H 0.5190 0.8388 1.4732
H90A H 0.4667 0.8970 1.4840
C129A C 0.5586(5) 0.9745(3) 1.4111(2)
H91A H 0.6201 1.0093 1.4043
H92A H 0.5063 0.9497 1.3685
H93A H 0.5243 0.9968 1.4403
C130A C 0.6780(6) 0.9604(4) 1.5083(3)
H94A H 0.6425 0.9788 1.5394
H95A H 0.7063 0.9275 1.5252
H96A H 0.7374 0.9979 1.5032
C131A C 0.9103(4) 0.9292(3) 1.3402(3)
C132A C 0.9548(4) 0.8784(4) 1.3014(3)
H97A H 1.0321 0.9011 1.3066
H98A H 0.9434 0.8377 1.3189
H99A H 0.9167 0.8647 1.2545
C133A C 0.9087(6) 0.9845(5) 1.3016(4)
H100A H 0.8813 1.0174 1.3244
H101A H 0.9820 1.0085 1.2991
H102A H 0.8617 0.9625 1.2569
C134A C 0.9862(5) 0.9635(4) 1.4078(3)
H103A H 0.9600 0.9963 1.4318
H104A H 0.9899 0.9288 1.4321
H105A H 1.0582 0.9877 1.4034
F10A F 0.9220(2) 0.69096(14) 1.19206(11)
F11A F 0.78654(17) 0.59783(10) 1.14943(10)
F12A F 0.77395(19) 0.69387(11) 1.13596(13)
O4A O 0.9627(2) 0.69785(13) 1.07904(14)
Cl1 Cl 0.92552(12) 0.57384(8) 0.77315(7)
Cl2 Cl 0.8065(2) 0.57006(10) 0.64406(9)
C135 C 0.8774(4) 0.6216(2) 0.7229(2)
H106 H 0.8296 0.6413 0.7432
H107 H 0.9390 0.6600 0.7198
Cl3 Cl 0.2560(3) 0.67369(15) 0.27785(16)
Cl4 Cl 0.3902(4) 0.6410(4) 0.3721(3)
C136 C 0.3198(7) 0.6270(10) 0.3080(6)
H108 H 0.2629 0.5824 0.3027
H109 H 0.3626 0.6182 0.2767
C89? C 0.372(3) -0.0274(15) -0.1397(14)
C90? C 0.5077(18) 0.0124(9) -0.1530(10)
O3? O 0.3762(14) -0.0364(9) -0.1022(8)
F7? F 0.5759(9) -0.0219(6) -0.1510(7)
F8? F 0.5616(8) 0.0748(6) -0.1582(5)
F9? F 0.4310(13) -0.0178(10) -0.2088(9)
loop_
_geom_bond_atom_site_label_1
_geom_bond_atom_site_label_2
_geom_bond_site_symmetry_1
_geom_bond_site_symmetry_2
C1 C2 1_555 1_555
C2 H1 1_555 1_555
C3 C2 1_555 1_555
H2 C3 1_555 1_555
C4 C3 1_555 1_555
H3 C4 1_555 1_555
C5 C4 1_555 1_555
H4 C5 1_555 1_555
C6 C5 1_555 1_555
H5 C6 1_555 1_555
C7 C1 1_555 1_555
C8 C7 1_555 1_555
C9 C8 1_555 1_555
C10 C9 1_555 1_555
C11 C10 1_555 1_555
H6 C11 1_555 1_555
C12 C11 1_555 1_555
C13 C12 1_555 1_555
C14 C13 1_555 1_555
C15 C14 1_555 1_555
C16 C15 1_555 1_555
H7 C16 1_555 1_555
C17 C16 1_555 1_555
H8 C17 1_555 1_555
C18 C17 1_555 1_555
H9 C18 1_555 1_555
C19 C18 1_555 1_555
H10 C19 1_555 1_555
C20 C19 1_555 1_555
H11 C20 1_555 1_555
C21 C15 1_555 1_555
C22 C13 1_555 1_555
C23 C22 1_555 1_555
C24 C12 1_555 1_555
C25 C24 1_555 1_555
H12 C25 1_555 1_555
C26 C10 1_555 1_555
C27 C8 1_555 1_555
C28 C1 1_555 1_555
C29 C14 1_555 1_555
C30 C29 1_555 1_555
C31 C9 1_555 1_555
C32 C31 1_555 1_555
C33 C32 1_555 1_555
H13 C33 1_555 1_555
C34 C33 1_555 1_555
H14 C34 1_555 1_555
C35 C34 1_555 1_555
H15 C35 1_555 1_555
C36 C35 1_555 1_555
H16 C36 1_555 1_555
C37 C32 1_555 1_555
C38 C37 1_555 1_555
C39 C38 1_555 1_555
C40 C39 1_555 1_555
H17 C40 1_555 1_555
C41 C40 1_555 1_555
H18 C41 1_555 1_555
C42 C41 1_555 1_555
H19 C42 1_555 1_555
C43 C42 1_555 1_555
H20 C43 1_555 1_555
C44 C31 1_555 1_555
C45 C38 1_555 1_555
C46 C45 1_555 1_555
H21 C46 1_555 1_555
C47 C46 1_555 1_555
C48 C47 1_555 1_555
H22 C48 1_555 1_555
C49 C48 1_555 1_555
C50 C45 1_555 1_555
H23 C50 1_555 1_555
C51 C47 1_555 1_555
C52 C51 1_555 1_555
H24 C52 1_555 1_555
H25 C52 1_555 1_555
H26 C52 1_555 1_555
C53 C51 1_555 1_555
H27 C53 1_555 1_555
H28 C53 1_555 1_555
H29 C53 1_555 1_555
C54 C51 1_555 1_555
H30 C54 1_555 1_555
H31 C54 1_555 1_555
H32 C54 1_555 1_555
C55 C49 1_555 1_555
C56 C55 1_555 1_555
H33 C56 1_555 1_555
H34 C56 1_555 1_555
H35 C56 1_555 1_555
C57 C55 1_555 1_555
H36 C57 1_555 1_555
H37 C57 1_555 1_555
H38 C57 1_555 1_555
C58 C55 1_555 1_555
H39 C58 1_555 1_555
H40 C58 1_555 1_555
H41 C58 1_555 1_555
C59 C23 1_555 1_555
C60 C59 1_555 1_555
C61 C60 1_555 1_555
H42 C61 1_555 1_555
C62 C61 1_555 1_555
H43 C62 1_555 1_555
C63 C62 1_555 1_555
H44 C63 1_555 1_555
C64 C63 1_555 1_555
H45 C64 1_555 1_555
C65 C60 1_555 1_555
C66 C65 1_555 1_555
C67 C66 1_555 1_555
C68 C67 1_555 1_555
H46 C68 1_555 1_555
C69 C68 1_555 1_555
H47 C69 1_555 1_555
C70 C69 1_555 1_555
H48 C70 1_555 1_555
C71 C70 1_555 1_555
H49 C71 1_555 1_555
C72 C59 1_555 1_555
C73 C66 1_555 1_555
C74 C73 1_555 1_555
H50 C74 1_555 1_555
C75 C74 1_555 1_555
C76 C75 1_555 1_555
H51 C76 1_555 1_555
C77 C76 1_555 1_555
C78 C73 1_555 1_555
H52 C78 1_555 1_555
C79 C75 1_555 1_555
C80 C79 1_555 1_555
H53 C80 1_555 1_555
H54 C80 1_555 1_555
H55 C80 1_555 1_555
C81 C79 1_555 1_555
H56 C81 1_555 1_555
H57 C81 1_555 1_555
H58 C81 1_555 1_555
C82 C79 1_555 1_555
H59 C82 1_555 1_555
H60 C82 1_555 1_555
H61 C82 1_555 1_555
C83 C77 1_555 1_555
C84 C83 1_555 1_555
H62 C84 1_555 1_555
H63 C84 1_555 1_555
H64 C84 1_555 1_555
C85 C83 1_555 1_555
H65 C85 1_555 1_555
H66 C85 1_555 1_555
H67 C85 1_555 1_555
C86 C83 1_555 1_555
H68 C86 1_555 1_555
H69 C86 1_555 1_555
H70 C86 1_555 1_555
F1 C30 1_555 1_555
F2 C30 1_555 1_555
F3 C30 1_555 1_555
O1 C29 1_555 1_555
C87 C28 1_555 1_555
C88 C87 1_555 1_555
O2 C87 1_555 1_555
F4 C88 1_555 1_555
F5 C88 1_555 1_555
F6 C88 1_555 1_555
C91 C92 1_555 1_555
C92 H71 1_555 1_555
C93 C92 1_555 1_555
H72 C93 1_555 1_555
C94 C93 1_555 1_555
H73 C94 1_555 1_555
C95 C94 1_555 1_555
H74 C95 1_555 1_555
C96 C95 1_555 1_555
H75 C96 1_555 1_555
C97 C91 1_555 1_555
C98 C97 1_555 1_555
C99 C100 1_555 1_555
C100 C101 1_555 1_555
C101 H76 1_555 1_555
C102 C101 1_555 1_555
C103 C98 1_555 1_555
C104 C91 1_555 1_555
C105 C104 1_555 1_555
C106 C105 1_555 1_555
C107 C99 1_555 1_555
C108 C107 1_555 1_555
C109 C108 1_555 1_555
H77 C109 1_555 1_555
C110 C109 1_555 1_555
H78 C110 1_555 1_555
C111 C110 1_555 1_555
H79 C111 1_555 1_555
C112 C111 1_555 1_555
H80 C112 1_555 1_555
C113 C108 1_555 1_555
C114 C113 1_555 1_555
C115 C114 1_555 1_555
C116 C115 1_555 1_555
H81 C116 1_555 1_555
C117 C116 1_555 1_555
H82 C117 1_555 1_555
C118 C117 1_555 1_555
H83 C118 1_555 1_555
C119 C118 1_555 1_555
H84 C119 1_555 1_555
C120 C107 1_555 1_555
C121 C114 1_555 1_555
C122 C121 1_555 1_555
H85 C122 1_555 1_555
C123 C122 1_555 1_555
C124 C123 1_555 1_555
H86 C124 1_555 1_555
C125 C124 1_555 1_555
C126 C121 1_555 1_555
H87 C126 1_555 1_555
C127 C123 1_555 1_555
C128 C127 1_555 1_555
H88 C128 1_555 1_555
H89 C128 1_555 1_555
H90 C128 1_555 1_555
C129 C127 1_555 1_555
H91 C129 1_555 1_555
H92 C129 1_555 1_555
H93 C129 1_555 1_555
C130 C127 1_555 1_555
H94 C130 1_555 1_555
H95 C130 1_555 1_555
H96 C130 1_555 1_555
C131 C125 1_555 1_555
C132 C131 1_555 1_555
H97 C132 1_555 1_555
H98 C132 1_555 1_555
H99 C132 1_555 1_555
C133 C131 1_555 1_555
H100 C133 1_555 1_555
H101 C133 1_555 1_555
H102 C133 1_555 1_555
C134 C131 1_555 1_555
H103 C134 1_555 1_555
H104 C134 1_555 1_555
H105 C134 1_555 1_555
F10 C106 1_555 1_555
F11 C106 1_555 1_555
F12 C106 1_555 1_555
O4 C105 1_555 1_555
Cl1 C135 1_555 1_555
Cl2 C135 1_555 1_555
C135 H106 1_555 1_555
H107 C135 1_555 1_555
Cl3 C136 1_555 1_555
Cl4 C136 1_555 1_555
C136 H108 1_555 1_555
H109 C136 1_555 1_555
C91A C92A 1_555 1_555
C92A H71A 1_555 1_555
C93A C92A 1_555 1_555
H72A C93A 1_555 1_555
C94A C93A 1_555 1_555
H73A C94A 1_555 1_555
C95A C94A 1_555 1_555
H74A C95A 1_555 1_555
C96A C95A 1_555 1_555
H75A C96A 1_555 1_555
C97A C91A 1_555 1_555
C98A C99 1_555 1_555
C99A C98 1_555 1_555
C100A C102 1_555 1_555
C101A C100A 1_555 1_555
H76A C101A 1_555 1_555
C102A C100 1_555 1_555
C103A C98A 1_555 1_555
C104A C91A 1_555 1_555
C105A C104A 1_555 1_555
C106A C105A 1_555 1_555
C107A C99A 1_555 1_555
C108A C107A 1_555 1_555
C109A C108A 1_555 1_555
H77A C109A 1_555 1_555
C110A C109A 1_555 1_555
H78A C110A 1_555 1_555
C111A C110A 1_555 1_555
H79A C111A 1_555 1_555
C112A C111A 1_555 1_555
H80A C112A 1_555 1_555
C113A C108A 1_555 1_555
C114A C113A 1_555 1_555
C115A C114A 1_555 1_555
C116A C115A 1_555 1_555
H81A C116A 1_555 1_555
C117A C116A 1_555 1_555
H82A C117A 1_555 1_555
C118A C117A 1_555 1_555
H83A C118A 1_555 1_555
C119A C118A 1_555 1_555
H84A C119A 1_555 1_555
C120A C107A 1_555 1_555
C121A C114A 1_555 1_555
C122A C121A 1_555 1_555
H85A C122A 1_555 1_555
C123A C122A 1_555 1_555
C124A C123A 1_555 1_555
H86A C124A 1_555 1_555
C125A C124A 1_555 1_555
C126A C121A 1_555 1_555
H87A C126A 1_555 1_555
C127A C123A 1_555 1_555
C128A C127A 1_555 1_555
H88A C128A 1_555 1_555
H89A C128A 1_555 1_555
H90A C128A 1_555 1_555
C129A C127A 1_555 1_555
H91A C129A 1_555 1_555
H92A C129A 1_555 1_555
H93A C129A 1_555 1_555
C130A C127A 1_555 1_555
H94A C130A 1_555 1_555
H95A C130A 1_555 1_555
H96A C130A 1_555 1_555
C131A C125A 1_555 1_555
C132A C131A 1_555 1_555
H97A C132A 1_555 1_555
H98A C132A 1_555 1_555
H99A C132A 1_555 1_555
C133A C131A 1_555 1_555
H100A C133A 1_555 1_555
H101A C133A 1_555 1_555
H102A C133A 1_555 1_555
C134A C131A 1_555 1_555
H103A C134A 1_555 1_555
H104A C134A 1_555 1_555
H105A C134A 1_555 1_555
F10A C106A 1_555 1_555
F11A C106A 1_555 1_555
F12A C106A 1_555 1_555
O4A C105A 1_555 1_555
C6 C7 1_555 1_555
C20 C21 1_555 1_555
C21 C22 1_555 1_555
C23 C24 1_555 1_555
C25 C26 1_555 1_555
C26 C27 1_555 1_555
C27 C28 1_555 1_555
C36 C37 1_555 1_555
C39 C44 1_555 1_555
C43 C44 1_555 1_555
C49 C50 1_555 1_555
C64 C65 1_555 1_555
C67 C72 1_555 1_555
C71 C72 1_555 1_555
C77 C78 1_555 1_555
C96 C97 1_555 1_555
C102 C103 1_555 1_555
C103 C104 1_555 1_555
C112 C113 1_555 1_555
C115 C120 1_555 1_555
C119 C120 1_555 1_555
C125 C126 1_555 1_555
C96A C97A 1_555 1_555
C97A C98A 1_555 1_555
C99A C100A 1_555 1_555
C101A C102A 1_555 1_555
C102A C103A 1_555 1_555
C103A C104A 1_555 1_555
C112A C113A 1_555 1_555
C115A C120A 1_555 1_555
C119A C120A 1_555 1_555
C125A C126A 1_555 1_555

#END
