
#######################################################################
#
#                 Cambridge Crystallographic Data Centre
#                                CCDC 
#
#######################################################################
#
# If this CIF has been generated from an entry in the Cambridge 
# Structural Database, then it will include bibliographic, chemical, 
# crystal, experimental, refinement or atomic coordinate data resulting 
# from the CCDC's data processing and validation procedures.
#
#######################################################################

data_HIRXAI
_chemical_formula_moiety         'C12 H12 N2 S2'
_chemical_name_systematic        
N,N'-bis(2-Thienylmethylene)ethane-1,2-diamine
_symmetry_cell_setting           monoclinic
_symmetry_space_group_name_H-M   'P 21'
_symmetry_Int_Tables_number      4
_space_group_name_Hall           'P 2yb'
loop_
_symmetry_equiv_pos_site_id
_symmetry_equiv_pos_as_xyz
1 x,y,z
2 -x,1/2+y,-z
_cell_length_a                   6.4822(8)
_cell_length_b                   7.4181(10)
_cell_length_c                   13.1433(15)
_cell_angle_alpha                90
_cell_angle_beta                 101.425(2)
_cell_angle_gamma                90
_cell_volume                     619.48
_exptl_crystal_colour            yellow
_exptl_crystal_description       Block
_cell_formula_units_Z            2
loop_
_atom_site_label
_atom_site_type_symbol
_atom_site_fract_x
_atom_site_fract_y
_atom_site_fract_z
S1 S 0.08972(17) 0.55346(16) 0.29575(9)
S2 S 0.98557(19) 0.38242(15) 0.95907(9)
N1 N 0.3457(6) 0.4695(4) 0.5119(3)
N2 N 0.7400(6) 0.5301(5) 0.7551(3)
C1 C 0.1512(8) 0.4405(6) 0.4996(3)
H1 H 0.0983 0.3942 0.5550
C2 C 0.0056(7) 0.4765(5) 0.4024(3)
C3 C -0.2071(7) 0.4550(6) 0.3820(4)
H2 H -0.2828 0.4144 0.4307
C4 C -0.3001(8) 0.5010(7) 0.2791(4)
H3 H -0.4439 0.4944 0.2524
C5 C -0.1594(7) 0.5547(8) 0.2245(4)
H4 H -0.1935 0.5891 0.1552
C6 C 0.9347(7) 0.5520(7) 0.7699(3)
H5 H 0.9913 0.6062 0.7177
C7 C 1.0773(7) 0.4971(5) 0.8644(3)
C8 C 1.2899(7) 0.5175(7) 0.8889(3)
H6 H 1.3693 0.5765 0.8474
C9 C 1.3748(8) 0.4369(7) 0.9864(4)
H7 H 1.5177 0.4373 1.0156
C10 C 1.2317(8) 0.3615(7) 1.0316(4)
H8 H 1.2623 0.3037 1.0956
C11 C 0.4766(7) 0.4224(6) 0.6113(3)
H9 H 0.5646 0.3200 0.6027
H10 H 0.3880 0.3884 0.6596
C12 C 0.6137(7) 0.5800(6) 0.6546(3)
H11 H 0.7049 0.6127 0.6073
H12 H 0.5264 0.6833 0.6625
loop_
_geom_bond_atom_site_label_1
_geom_bond_atom_site_label_2
_geom_bond_site_symmetry_1
_geom_bond_site_symmetry_2
S1 C2 1_555 1_555
S2 C7 1_555 1_555
N1 C1 1_555 1_555
N2 C6 1_555 1_555
C1 H1 1_555 1_555
C2 C1 1_555 1_555
C3 C2 1_555 1_555
H2 C3 1_555 1_555
C4 C3 1_555 1_555
H3 C4 1_555 1_555
C5 S1 1_555 1_555
H4 C5 1_555 1_555
C6 H5 1_555 1_555
C7 C6 1_555 1_555
C8 C7 1_555 1_555
H6 C8 1_555 1_555
C9 C8 1_555 1_555
H7 C9 1_555 1_555
C10 S2 1_555 1_555
H8 C10 1_555 1_555
C11 N1 1_555 1_555
H9 C11 1_555 1_555
H10 C11 1_555 1_555
C12 N2 1_555 1_555
H11 C12 1_555 1_555
H12 C12 1_555 1_555
C4 C5 1_555 1_555
C9 C10 1_555 1_555
C11 C12 1_555 1_555

#END
