
#######################################################################
#
#                 Cambridge Crystallographic Data Centre
#                                CCDC 
#
#######################################################################
#
# If this CIF has been generated from an entry in the Cambridge 
# Structural Database, then it will include bibliographic, chemical, 
# crystal, experimental, refinement or atomic coordinate data resulting 
# from the CCDC's data processing and validation procedures.
#
#######################################################################

data_HIRZUE
_chemical_formula_moiety         'C8 H10 N2 O2'
_chemical_name_systematic        '4-Methoxybenzamide oxime'
_symmetry_cell_setting           monoclinic
_symmetry_space_group_name_H-M   'P 21/c'
_symmetry_Int_Tables_number      14
_space_group_name_Hall           '-P 2ybc'
loop_
_symmetry_equiv_pos_site_id
_symmetry_equiv_pos_as_xyz
1 x,y,z
2 -x,1/2+y,1/2-z
3 -x,-y,-z
4 x,1/2-y,1/2+z
_cell_length_a                   14.924(3)
_cell_length_b                   5.0820(10)
_cell_length_c                   10.784(2)
_cell_angle_alpha                90
_cell_angle_beta                 98.32(3)
_cell_angle_gamma                90
_cell_volume                     809.291
_exptl_crystal_colour            colorless
_exptl_crystal_description       block
_chemical_melting_point          '390 K'
_cell_formula_units_Z            4
_exptl_crystal_recrystallization_method 'ethyl acetate'
loop_
_atom_site_label
_atom_site_type_symbol
_atom_site_fract_x
_atom_site_fract_y
_atom_site_fract_z
O1 O 0.09171(17) 1.0551(6) 0.6300(2)
N1 N 0.39977(19) 1.0978(6) 1.1139(2)
H1 H 0.4421 1.0689 1.1754
H2 H 0.3695 1.2422 1.1106
C1 C 0.0286(3) 1.2658(10) 0.6303(4)
H3 H -0.0166 1.2530 0.5576
H4 H 0.0599 1.4307 0.6291
H5 H 0.0001 1.2556 0.7045
O2 O 0.49656(15) 0.6850(5) 1.1236(2)
H6 H 0.5230 0.5436 1.1234
N2 N 0.42404(17) 0.6930(6) 1.0210(2)
C2 C 0.1603(2) 1.0373(7) 0.7280(3)
C3 C 0.1666(2) 1.1836(8) 0.8375(3)
H7 H 0.1225 1.3079 0.8476
C4 C 0.2388(2) 1.1439(8) 0.9315(3)
H8 H 0.2429 1.2456 1.0039
C5 C 0.3045(2) 0.9588(6) 0.9215(3)
C6 C 0.2972(2) 0.8165(8) 0.8104(3)
H9 H 0.3419 0.6947 0.7994
C7 C 0.2257(3) 0.8512(8) 0.7167(3)
H10 H 0.2214 0.7482 0.6448
C8 C 0.3808(2) 0.9153(7) 1.0217(3)
loop_
_geom_bond_atom_site_label_1
_geom_bond_atom_site_label_2
_geom_bond_site_symmetry_1
_geom_bond_site_symmetry_2
O1 C1 1_555 1_555
N1 H1 1_555 1_555
H2 N1 1_555 1_555
C1 H3 1_555 1_555
H4 C1 1_555 1_555
H5 C1 1_555 1_555
O2 H6 1_555 1_555
N2 O2 1_555 1_555
C2 O1 1_555 1_555
C3 C2 1_555 1_555
H7 C3 1_555 1_555
C4 C3 1_555 1_555
H8 C4 1_555 1_555
C5 C4 1_555 1_555
C6 C5 1_555 1_555
H9 C6 1_555 1_555
C7 C2 1_555 1_555
H10 C7 1_555 1_555
C8 N1 1_555 1_555
N2 C8 1_555 1_555
C5 C8 1_555 1_555
C6 C7 1_555 1_555

#END
