
#######################################################################
#
#                 Cambridge Crystallographic Data Centre
#                                CCDC 
#
#######################################################################
#
# If this CIF has been generated from an entry in the Cambridge 
# Structural Database, then it will include bibliographic, chemical, 
# crystal, experimental, refinement or atomic coordinate data resulting 
# from the CCDC's data processing and validation procedures.
#
#######################################################################

data_HISBER
_chemical_formula_moiety         'C13 H12 N4 O2 S2'
_chemical_name_systematic        
3-(3-Methoxyphenyl)-5-((5-methyl-1,3,4-thiadiazol-2-yl)sulfanylmethyl)-1,2,4-oxadiazole
_symmetry_cell_setting           triclinic
_symmetry_space_group_name_H-M   'P -1'
_symmetry_Int_Tables_number      2
_space_group_name_Hall           '-P 1'
loop_
_symmetry_equiv_pos_site_id
_symmetry_equiv_pos_as_xyz
1 x,y,z
2 -x,-y,-z
_cell_length_a                   6.1390(10)
_cell_length_b                   9.890(2)
_cell_length_c                   12.658(3)
_cell_angle_alpha                72.45(3)
_cell_angle_beta                 85.91(3)
_cell_angle_gamma                77.12(3)
_cell_volume                     714.311
_exptl_crystal_colour            colorless
_exptl_crystal_description       block
_cell_formula_units_Z            2
_exptl_crystal_recrystallization_method ethanol
loop_
_atom_site_label
_atom_site_type_symbol
_atom_site_fract_x
_atom_site_fract_y
_atom_site_fract_z
S1 S 0.10119(14) 0.96648(9) 0.81705(7)
O1 O -0.0772(3) 0.5239(2) 0.82199(18)
N1 N -0.1954(4) 0.8596(3) 0.9446(2)
C1 C -0.3048(6) 1.1241(4) 0.8789(3)
H1 H -0.4264 1.1101 0.9302
H2 H -0.3623 1.1662 0.8049
H3 H -0.2248 1.1878 0.8960
S2 S 0.37028(13) 0.66652(9) 0.84080(7)
O2 O 0.3255(4) 0.1410(3) 0.4522(2)
N2 N -0.0301(4) 0.7422(3) 0.9376(2)
C2 C -0.1523(5) 0.9826(3) 0.8873(2)
N3 N 0.1928(4) 0.3948(2) 0.74697(19)
C3 C 0.1342(5) 0.7819(3) 0.8740(2)
N4 N -0.1791(4) 0.4826(3) 0.7427(2)
C4 C 0.2916(5) 0.4923(3) 0.8934(2)
H4 H 0.4258 0.4161 0.9054
H5 H 0.2177 0.4863 0.9646
C5 C 0.1416(4) 0.4666(3) 0.8184(2)
C6 C -0.0109(4) 0.4076(3) 0.7011(2)
C7 C -0.0365(4) 0.3450(3) 0.6138(2)
C8 C -0.2466(5) 0.3615(3) 0.5687(3)
H6 H -0.3742 0.4107 0.5963
C9 C -0.2626(5) 0.3047(4) 0.4837(3)
H7 H -0.4018 0.3172 0.4533
C10 C -0.0764(5) 0.2296(3) 0.4427(3)
H8 H -0.0903 0.1914 0.3854
C11 C 0.1300(5) 0.2115(3) 0.4868(2)
C12 C 0.1486(5) 0.2702(3) 0.5724(2)
H9 H 0.2884 0.2584 0.6019
C13 C 0.3205(6) 0.0859(4) 0.3617(3)
H10 H 0.4692 0.0399 0.3462
H11 H 0.2624 0.1640 0.2977
H12 H 0.2266 0.0163 0.3798
loop_
_geom_bond_atom_site_label_1
_geom_bond_atom_site_label_2
_geom_bond_site_symmetry_1
_geom_bond_site_symmetry_2
S1 C2 1_555 1_555
O1 N4 1_555 1_555
N1 N2 1_555 1_555
C1 H1 1_555 1_555
H2 C1 1_555 1_555
H3 C1 1_555 1_555
S2 C3 1_555 1_555
O2 C11 1_555 1_555
N2 C3 1_555 1_555
C2 N1 1_555 1_555
N3 C5 1_555 1_555
C3 S1 1_555 1_555
N4 C6 1_555 1_555
C4 S2 1_555 1_555
H4 C4 1_555 1_555
H5 C4 1_555 1_555
C5 O1 1_555 1_555
C6 N3 1_555 1_555
C7 C6 1_555 1_555
C8 C7 1_555 1_555
H6 C8 1_555 1_555
C9 C8 1_555 1_555
H7 C9 1_555 1_555
C10 C9 1_555 1_555
H8 C10 1_555 1_555
C11 C10 1_555 1_555
C12 C7 1_555 1_555
H9 C12 1_555 1_555
C13 O2 1_555 1_555
H10 C13 1_555 1_555
H11 C13 1_555 1_555
H12 C13 1_555 1_555
C1 C2 1_555 1_555
C4 C5 1_555 1_555
C11 C12 1_555 1_555

#END
