
#######################################################################
#
#                 Cambridge Crystallographic Data Centre
#                                CCDC 
#
#######################################################################
#
# If this CIF has been generated from an entry in the Cambridge 
# Structural Database, then it will include bibliographic, chemical, 
# crystal, experimental, refinement or atomic coordinate data resulting 
# from the CCDC's data processing and validation procedures.
#
#######################################################################

data_HISBUH
_chemical_formula_moiety         'C21 H14 O6 S1'
_chemical_name_systematic        
3-(4-Hydroxyphenyl)-7-(phenylsulfonyl)-4H-chromen-4-one
_symmetry_cell_setting           monoclinic
_symmetry_space_group_name_H-M   'P 21/n'
_symmetry_Int_Tables_number      14
_space_group_name_Hall           '-P 2yn'
loop_
_symmetry_equiv_pos_site_id
_symmetry_equiv_pos_as_xyz
1 x,y,z
2 1/2-x,1/2+y,1/2-z
3 -x,-y,-z
4 1/2+x,1/2-y,1/2+z
_cell_length_a                   6.1408(3)
_cell_length_b                   13.0272(7)
_cell_length_c                   22.7381(12)
_cell_angle_alpha                90
_cell_angle_beta                 91.8910(10)
_cell_angle_gamma                90
_cell_volume                     1818
_exptl_crystal_colour            yellow
_exptl_crystal_description       block
_chemical_melting_point          '268-270 deg.C'
_cell_formula_units_Z            4
_exptl_crystal_recrystallization_method dichloromethane/acetone
loop_
_atom_site_label
_atom_site_type_symbol
_atom_site_fract_x
_atom_site_fract_y
_atom_site_fract_z
C1 C 0.0869(4) -0.33515(15) 0.72589(9)
C2 C 0.2690(4) -0.27307(17) 0.73315(10)
H1 H 0.3878 -0.2821 0.7093
C3 C 0.2735(4) -0.19784(16) 0.77581(9)
H2 H 0.3967 -0.1568 0.7806
C4 C 0.0992(3) -0.18196(14) 0.81162(8)
C5 C -0.0829(4) -0.24414(15) 0.80349(9)
H3 H -0.2026 -0.2345 0.8269
C6 C -0.0885(4) -0.32037(15) 0.76103(9)
H4 H -0.2113 -0.3617 0.7562
C7 C 0.2899(4) -0.09870(16) 0.89349(10)
H5 H 0.3915 -0.1509 0.8892
C8 C 0.1129(3) -0.10184(14) 0.85800(8)
C9 C -0.0542(4) -0.02307(15) 0.86390(8)
C10 C -0.0039(4) 0.05562(15) 0.90851(8)
C11 C -0.1410(4) 0.13926(17) 0.91859(11)
H6 H -0.2717 0.1451 0.8970
C12 C -0.0862(4) 0.21275(19) 0.95980(10)
H7 H -0.1767 0.2689 0.9654
C13 C 0.1040(4) 0.20204(16) 0.99268(9)
C14 C 0.2446(4) 0.12272(16) 0.98480(9)
H8 H 0.3737 0.1171 1.0071
C15 C 0.1870(4) 0.05051(15) 0.94200(9)
C16 C 0.3035(4) 0.43441(15) 1.08865(9)
C17 C 0.1139(5) 0.48937(19) 1.09136(11)
H9 H 0.0034 0.4812 1.0628
C18 C 0.0902(6) 0.5571(2) 1.13742(13)
H10 H -0.0386 0.5941 1.1402
C19 C 0.2521(8) 0.5704(2) 1.17862(14)
H11 H 0.2352 0.6175 1.2088
C20 C 0.4413(6) 0.5145(3) 1.17591(12)
H12 H 0.5511 0.5233 1.2046
C21 C 0.4693(5) 0.4449(2) 1.13051(11)
H13 H 0.5965 0.4064 1.1284
O1 O 0.5432(3) 0.30065(15) 1.03724(8)
O2 O 0.3030(3) 0.40496(13) 0.97484(7)
O3 O 0.1485(3) 0.27485(12) 1.03782(6)
O4 O 0.3361(3) -0.02712(11) 0.93507(7)
O5 O -0.2233(3) -0.02273(12) 0.83326(7)
O6 O 0.0906(3) -0.40877(12) 0.68330(7)
H14 H -0.0266 -0.4389 0.6817
S1 S 0.34440(10) 0.35395(4) 1.02870(2)
loop_
_geom_bond_atom_site_label_1
_geom_bond_atom_site_label_2
_geom_bond_site_symmetry_1
_geom_bond_site_symmetry_2
C1 C2 1_555 1_555
C2 H1 1_555 1_555
C3 C2 1_555 1_555
H2 C3 1_555 1_555
C4 C3 1_555 1_555
C5 C4 1_555 1_555
H3 C5 1_555 1_555
C6 C1 1_555 1_555
H4 C6 1_555 1_555
C7 H5 1_555 1_555
C8 C4 1_555 1_555
C9 C8 1_555 1_555
C10 C9 1_555 1_555
C11 C10 1_555 1_555
H6 C11 1_555 1_555
C12 C11 1_555 1_555
H7 C12 1_555 1_555
C13 C12 1_555 1_555
C14 C13 1_555 1_555
H8 C14 1_555 1_555
C15 C10 1_555 1_555
C16 C17 1_555 1_555
C17 H9 1_555 1_555
C18 C17 1_555 1_555
H10 C18 1_555 1_555
C19 C18 1_555 1_555
H11 C19 1_555 1_555
C20 C19 1_555 1_555
H12 C20 1_555 1_555
C21 C16 1_555 1_555
H13 C21 1_555 1_555
O1 S1 1_555 1_555
O2 S1 1_555 1_555
O3 C13 1_555 1_555
O4 C7 1_555 1_555
O5 C9 1_555 1_555
O6 C1 1_555 1_555
H14 O6 1_555 1_555
S1 C16 1_555 1_555
C5 C6 1_555 1_555
C7 C8 1_555 1_555
C14 C15 1_555 1_555
C15 O4 1_555 1_555
C20 C21 1_555 1_555
O3 S1 1_555 1_555

#END
