
#######################################################################
#
#                 Cambridge Crystallographic Data Centre
#                                CCDC 
#
#######################################################################
#
# If this CIF has been generated from an entry in the Cambridge 
# Structural Database, then it will include bibliographic, chemical, 
# crystal, experimental, refinement or atomic coordinate data resulting 
# from the CCDC's data processing and validation procedures.
#
#######################################################################

data_HISBOB
_chemical_formula_moiety         'C10 H8 O4'
_chemical_name_systematic        6,7-Dihydroxy-4-methylcoumarin
_symmetry_cell_setting           triclinic
_symmetry_space_group_name_H-M   'P -1'
_symmetry_Int_Tables_number      2
_space_group_name_Hall           '-P 1'
loop_
_symmetry_equiv_pos_site_id
_symmetry_equiv_pos_as_xyz
1 x,y,z
2 -x,-y,-z
_cell_length_a                   6.839(2)
_cell_length_b                   7.143(3)
_cell_length_c                   9.549(3)
_cell_angle_alpha                68.233(3)
_cell_angle_beta                 85.262(3)
_cell_angle_gamma                69.443(3)
_cell_volume                     405.023
_exptl_crystal_colour            colorless
_exptl_crystal_description       prism
_chemical_melting_point          '555 K'
_cell_formula_units_Z            2
_exptl_crystal_recrystallization_method ethanol
loop_
_atom_site_label
_atom_site_type_symbol
_atom_site_fract_x
_atom_site_fract_y
_atom_site_fract_z
O1 O 0.3392(5) 0.2706(4) 0.3419(3)
O2 O 0.3742(5) 0.3077(5) 0.1047(3)
O3 O 0.2139(6) 0.5590(5) 0.8112(3)
H1 H 0.2451 0.4563 0.8916
O4 O 0.3620(5) 0.1277(5) 0.8662(3)
H2 H 0.4299 0.0067 0.8680
C1 C 0.3200(7) 0.4023(7) 0.1939(4)
C2 C 0.2386(7) 0.6265(7) 0.1609(5)
H3 H 0.2153 0.7185 0.0602
C3 C 0.1929(7) 0.7131(7) 0.2691(5)
C4 C 0.2277(6) 0.5693(6) 0.4254(4)
C5 C 0.1990(7) 0.6340(6) 0.5502(4)
H4 H 0.1499 0.7798 0.5341
C6 C 0.2419(7) 0.4867(7) 0.6950(4)
C7 C 0.3178(7) 0.2672(7) 0.7203(4)
C8 C 0.3444(7) 0.1995(7) 0.6007(4)
H5 H 0.3898 0.0538 0.6168
C9 C 0.3021(6) 0.3523(6) 0.4558(4)
C10 C 0.1105(8) 0.9506(7) 0.2279(5)
H6 H 0.1870 0.9891 0.2861
H7 H -0.0349 0.9960 0.2486
H8 H 0.1263 1.0196 0.1223
loop_
_geom_bond_atom_site_label_1
_geom_bond_atom_site_label_2
_geom_bond_site_symmetry_1
_geom_bond_site_symmetry_2
O1 C1 1_555 1_555
O2 C1 1_555 1_555
O3 H1 1_555 1_555
O4 H2 1_555 1_555
C1 C2 1_555 1_555
C2 H3 1_555 1_555
C3 C2 1_555 1_555
C4 C3 1_555 1_555
C5 C4 1_555 1_555
H4 C5 1_555 1_555
C6 O3 1_555 1_555
C7 O4 1_555 1_555
C8 C7 1_555 1_555
H5 C8 1_555 1_555
C9 O1 1_555 1_555
C10 C3 1_555 1_555
H6 C10 1_555 1_555
H7 C10 1_555 1_555
H8 C10 1_555 1_555
C4 C9 1_555 1_555
C5 C6 1_555 1_555
C6 C7 1_555 1_555
C8 C9 1_555 1_555

#END
