
#######################################################################
#
#                 Cambridge Crystallographic Data Centre
#                                CCDC 
#
#######################################################################
#
# If this CIF has been generated from an entry in the Cambridge 
# Structural Database, then it will include bibliographic, chemical, 
# crystal, experimental, refinement or atomic coordinate data resulting 
# from the CCDC's data processing and validation procedures.
#
#######################################################################

data_HISCAO
_chemical_formula_moiety         'C11 H17 N1 O6'
_chemical_name_systematic        
((1-Carboxycyclohexyl)(carboxymethyl)ammonio)acetate
_symmetry_cell_setting           orthorhombic
_symmetry_space_group_name_H-M   'P b c a'
_symmetry_Int_Tables_number      61
_space_group_name_Hall           '-P 2ac 2ab'
loop_
_symmetry_equiv_pos_site_id
_symmetry_equiv_pos_as_xyz
1 x,y,z
2 1/2-x,-y,1/2+z
3 1/2+x,1/2-y,-z
4 -x,1/2+y,1/2-z
5 -x,-y,-z
6 1/2+x,y,1/2-z
7 1/2-x,1/2+y,z
8 x,1/2-y,1/2+z
_cell_length_a                   11.752(4)
_cell_length_b                   8.172(5)
_cell_length_c                   23.524(3)
_cell_angle_alpha                90
_cell_angle_beta                 90
_cell_angle_gamma                90
_cell_volume                     2259.18
_exptl_crystal_colour            colorless
_exptl_crystal_description       block
_cell_formula_units_Z            8
_exptl_crystal_recrystallization_method aqueous
loop_
_atom_site_label
_atom_site_type_symbol
_atom_site_fract_x
_atom_site_fract_y
_atom_site_fract_z
C1 C 0.95310(13) 0.08729(17) 0.13706(6)
C2 C 1.03046(14) 0.08146(19) 0.18937(6)
H1 H 1.0585 0.1909 0.1970
H2 H 1.0956 0.0128 0.1809
C3 C 0.97149(16) 0.0158(2) 0.24294(7)
H3 H 0.9572 -0.1003 0.2382
H4 H 1.0221 0.0291 0.2752
C4 C 0.86068(16) 0.1014(2) 0.25536(7)
H5 H 0.8244 0.0511 0.2880
H6 H 0.8751 0.2154 0.2643
C5 C 0.78311(15) 0.0902(2) 0.20458(8)
H7 H 0.7125 0.1470 0.2128
H8 H 0.7651 -0.0238 0.1974
C6 C 0.83729(14) 0.1643(2) 0.15166(7)
H9 H 0.8474 0.2809 0.1575
H10 H 0.7861 0.1499 0.1197
C7 C 1.12467(13) 0.1299(2) 0.07254(7)
H11 H 1.1356 0.0210 0.0880
H12 H 1.1244 0.1217 0.0314
C8 C 0.93952(15) 0.25861(19) 0.04386(6)
H13 H 0.8717 0.1915 0.0411
H14 H 0.9817 0.2474 0.0086
C9 C 1.22038(15) 0.2396(2) 0.09137(7)
C10 C 0.90488(14) 0.4370(2) 0.05165(7)
C11 C 0.93530(13) -0.07878(18) 0.10762(7)
N1 N 1.01217(11) 0.19803(14) 0.09273(5)
H15 H 1.0331(15) 0.2880(17) 0.1114(7)
O1 O 0.94777(14) -0.20441(14) 0.14028(5)
H16 H 0.9369 -0.2883 0.1219
O2 O 0.91378(17) -0.08999(16) 0.05870(6)
O3 O 0.93773(11) 0.50724(13) 0.09639(5)
O4 O 0.84846(11) 0.49857(14) 0.01155(6)
O5 O 1.20469(11) 0.34997(15) 0.12491(5)
O6 O 1.32020(10) 0.20820(15) 0.07025(6)
H17 H 1.3158 0.1293 0.0488
loop_
_geom_bond_atom_site_label_1
_geom_bond_atom_site_label_2
_geom_bond_site_symmetry_1
_geom_bond_site_symmetry_2
C1 C2 1_555 1_555
C2 H1 1_555 1_555
H2 C2 1_555 1_555
C3 C2 1_555 1_555
H3 C3 1_555 1_555
H4 C3 1_555 1_555
C4 C3 1_555 1_555
H5 C4 1_555 1_555
H6 C4 1_555 1_555
C5 C4 1_555 1_555
H7 C5 1_555 1_555
H8 C5 1_555 1_555
C6 C1 1_555 1_555
H9 C6 1_555 1_555
H10 C6 1_555 1_555
C7 H11 1_555 1_555
H12 C7 1_555 1_555
C8 H13 1_555 1_555
H14 C8 1_555 1_555
C9 C7 1_555 1_555
C10 C8 1_555 1_555
C11 C1 1_555 1_555
N1 C1 1_555 1_555
H15 N1 1_555 1_555
O1 C11 1_555 1_555
H16 O1 1_555 1_555
O2 C11 1_555 1_555
O3 C10 1_555 1_555
O4 C10 1_555 1_555
O5 C9 1_555 1_555
O6 C9 1_555 1_555
H17 O6 1_555 1_555
C5 C6 1_555 1_555
C7 N1 1_555 1_555
C8 N1 1_555 1_555

#END
