
#######################################################################
#
#                 Cambridge Crystallographic Data Centre
#                                CCDC 
#
#######################################################################
#
# If this CIF has been generated from an entry in the Cambridge 
# Structural Database, then it will include bibliographic, chemical, 
# crystal, experimental, refinement or atomic coordinate data resulting 
# from the CCDC's data processing and validation procedures.
#
#######################################################################

data_HISCUI
_chemical_formula_moiety         'C24 H22 N4 O6,2(H2 O1)'
_chemical_name_systematic        
"N^2^,N^2'^-bis(2-Hydroxy-3-methoxybenzylidene)terephthalohydrazide dihydrate"
_symmetry_cell_setting           monoclinic
_symmetry_space_group_name_H-M   'P 21/c'
_symmetry_Int_Tables_number      14
_space_group_name_Hall           '-P 2ybc'
loop_
_symmetry_equiv_pos_site_id
_symmetry_equiv_pos_as_xyz
1 x,y,z
2 -x,1/2+y,1/2-z
3 -x,-y,-z
4 x,1/2-y,1/2+z
_cell_length_a                   7.2854(12)
_cell_length_b                   25.711(2)
_cell_length_c                   6.4780(11)
_cell_angle_alpha                90
_cell_angle_beta                 102.613(2)
_cell_angle_gamma                90
_cell_volume                     1184.14
_exptl_crystal_colour            colorless
_exptl_crystal_description       block
_cell_formula_units_Z            2
_exptl_crystal_recrystallization_method ethanol
loop_
_atom_site_label
_atom_site_type_symbol
_atom_site_fract_x
_atom_site_fract_y
_atom_site_fract_z
N1 N -0.0134(4) 0.57438(9) -0.0098(4)
H1 H -0.1305 0.5725 -0.0711
N2 N 0.0440(4) 0.60098(9) 0.1775(4)
O1 O 0.2850(3) 0.55158(9) -0.0035(4)
O2 O 0.3017(3) 0.63702(8) 0.4869(4)
H2 H 0.2621 0.6214 0.3757
O3 O 0.3871(3) 0.68755(8) 0.8377(4)
C1 C 0.1207(5) 0.55120(12) -0.0950(5)
C2 C 0.0522(5) 0.52507(11) -0.3037(5)
C3 C 0.1867(5) 0.50515(12) -0.4035(6)
H5 H 0.3134 0.5085 -0.3394
C4 C -0.1356(5) 0.51962(12) -0.4032(5)
H6 H -0.2283 0.5328 -0.3390
C5 C -0.0843(5) 0.62087(12) 0.2609(5)
H7 H -0.2104 0.6168 0.1955
C6 C -0.0321(5) 0.64951(12) 0.4562(5)
C7 C 0.1552(5) 0.65613(11) 0.5602(5)
C8 C 0.1981(5) 0.68380(11) 0.7509(5)
C9 C 0.0568(5) 0.70477(12) 0.8354(6)
H8 H 0.0861 0.7234 0.9614
C10 C -0.1276(5) 0.69803(13) 0.7330(6)
H9 H -0.2226 0.7122 0.7908
C11 C -0.1739(5) 0.67075(12) 0.5469(6)
H10 H -0.2996 0.6663 0.4804
C12 C 0.4402(6) 0.71070(15) 1.0399(6)
H11 H 0.3977 0.7461 1.0325
H12 H 0.5747 0.7098 1.0860
H13 H 0.3844 0.6918 1.1385
N1B N 0.0134(4) 0.42562(9) -0.9902(4)
H1B H 0.1305 0.4275 -0.9289
N2B N -0.0440(4) 0.39902(9) -1.1775(4)
O1B O -0.2850(3) 0.44842(9) -0.9965(4)
O2B O -0.3017(3) 0.36298(8) -1.4869(4)
H2B H -0.2621 0.3786 -1.3757
O3B O -0.3871(3) 0.31245(8) -1.8377(4)
C1B C -0.1207(5) 0.44880(12) -0.9050(5)
C2B C -0.0522(5) 0.47493(11) -0.6963(5)
C3B C -0.1867(5) 0.49485(12) -0.5965(6)
H5B H -0.3134 0.4915 -0.6606
C4B C 0.1356(5) 0.48038(12) -0.5968(5)
H6B H 0.2283 0.4672 -0.6610
C5B C 0.0843(5) 0.37913(12) -1.2609(5)
H7B H 0.2104 0.3832 -1.1955
C6B C 0.0321(5) 0.35049(12) -1.4562(5)
C7B C -0.1552(5) 0.34387(11) -1.5602(5)
C8B C -0.1981(5) 0.31620(11) -1.7509(5)
C9B C -0.0568(5) 0.29523(12) -1.8354(6)
H8B H -0.0861 0.2766 -1.9614
C10B C 0.1276(5) 0.30197(13) -1.7330(6)
H9B H 0.2226 0.2878 -1.7908
C11B C 0.1739(5) 0.32925(12) -1.5469(6)
H10B H 0.2996 0.3337 -1.4804
C12B C -0.4402(6) 0.28930(15) -2.0399(6)
H11B H -0.3977 0.2539 -2.0325
H12B H -0.5747 0.2902 -2.0860
H13B H -0.3844 0.3082 -2.1385
O4 O 0.5917(3) 0.58503(9) 0.8496(4)
H3 H 0.5422 0.6126 0.7893
H4 H 0.5073 0.5706 0.9022
loop_
_geom_bond_atom_site_label_1
_geom_bond_atom_site_label_2
_geom_bond_site_symmetry_1
_geom_bond_site_symmetry_2
N1 H1 1_555 1_555
N2 N1 1_555 1_555
O1 C1 1_555 1_555
O2 H2 1_555 1_555
O3 C8 1_555 1_555
O4 H3 1_555 1_555
H4 O4 1_555 1_555
C1 N1 1_555 1_555
C2 C1 1_555 1_555
C3 C2 1_555 1_555
H5 C3 1_555 1_555
C4 C2 1_555 1_555
H6 C4 1_555 1_555
C5 N2 1_555 1_555
H7 C5 1_555 1_555
C6 C5 1_555 1_555
C7 O2 1_555 1_555
C8 C7 1_555 1_555
C9 C8 1_555 1_555
H8 C9 1_555 1_555
C10 C9 1_555 1_555
H9 C10 1_555 1_555
C11 C6 1_555 1_555
H10 C11 1_555 1_555
C12 O3 1_555 1_555
H11 C12 1_555 1_555
H12 C12 1_555 1_555
H13 C12 1_555 1_555
N1B H1B 1_555 1_555
N2B N1B 1_555 1_555
O1B C1B 1_555 1_555
O2B H2B 1_555 1_555
O3B C8B 1_555 1_555
C1B N1B 1_555 1_555
C2B C1B 1_555 1_555
C3B C4 1_555 1_555
H5B C3B 1_555 1_555
C4B C3 1_555 1_555
H6B C4B 1_555 1_555
C5B N2B 1_555 1_555
H7B C5B 1_555 1_555
C6B C5B 1_555 1_555
C7B O2B 1_555 1_555
C8B C7B 1_555 1_555
C9B C8B 1_555 1_555
H8B C9B 1_555 1_555
C10B C9B 1_555 1_555
H9B C10B 1_555 1_555
C11B C6B 1_555 1_555
H10B C11B 1_555 1_555
C12B O3B 1_555 1_555
H11B C12B 1_555 1_555
H12B C12B 1_555 1_555
H13B C12B 1_555 1_555
C6 C7 1_555 1_555
C10 C11 1_555 1_555
C2B C3B 1_555 1_555
C2B C4B 1_555 1_555
C6B C7B 1_555 1_555
C10B C11B 1_555 1_555

#END
