
#######################################################################
#
#                 Cambridge Crystallographic Data Centre
#                                CCDC 
#
#######################################################################
#
# If this CIF has been generated from an entry in the Cambridge 
# Structural Database, then it will include bibliographic, chemical, 
# crystal, experimental, refinement or atomic coordinate data resulting 
# from the CCDC's data processing and validation procedures.
#
#######################################################################

data_HISDUJ
_chemical_formula_moiety         'C33 H30 Cl2 N2 O2'
_chemical_name_systematic        
(2E)-3-(2-Chlorophenyl)-1-(1'-(2-chlorophenyl)indoline-3-spiro-3'-perhydropyrrolo(1,2-a)indol-2'-yl)prop-2-en-1-one
_symmetry_cell_setting           monoclinic
_symmetry_space_group_name_H-M   'C 2/c'
_symmetry_Int_Tables_number      15
_space_group_name_Hall           '-C 2yn'
loop_
_symmetry_equiv_pos_site_id
_symmetry_equiv_pos_as_xyz
1 x,y,z
2 1/2+x,1/2+y,z
3 -x,y,1/2-z
4 1/2-x,1/2+y,1/2-z
5 -x,-y,-z
6 1/2-x,1/2-y,-z
7 x,-y,1/2+z
8 1/2+x,1/2-y,1/2+z
_cell_length_a                   24.8293(16)
_cell_length_b                   9.6387(6)
_cell_length_c                   24.0094(17)
_cell_angle_alpha                90
_cell_angle_beta                 100.912(3)
_cell_angle_gamma                90
_cell_volume                     5642.09
_exptl_crystal_colour            colorless
_exptl_crystal_description       block
_cell_formula_units_Z            8
_exptl_crystal_recrystallization_method chloroform/ethanol
loop_
_atom_site_label
_atom_site_type_symbol
_atom_site_fract_x
_atom_site_fract_y
_atom_site_fract_z
Cl1 Cl 0.08524(3) 0.95549(7) 0.15832(3)
Cl2 Cl 0.40447(3) 1.11218(10) 0.05770(4)
O1 O 0.22538(6) 0.81919(14) 0.23356(6)
O2 O 0.30791(6) 0.82469(18) 0.06638(6)
N1 N 0.33152(6) 0.96102(12) 0.24171(5)
C1 C 0.31207(6) 0.85115(15) 0.20058(6)
C2 C 0.28838(7) 0.93942(16) 0.14758(6)
H1 H 0.2558(7) 0.9847(18) 0.1567(7)
C3 C 0.33421(7) 1.04669(15) 0.14776(7)
H2 H 0.3649(7) 1.0012(19) 0.1358(7)
C4 C 0.34852(7) 1.08439(15) 0.21083(7)
H3 H 0.3254(7) 1.1636(18) 0.2160(7)
C5 C 0.40806(8) 1.1131(2) 0.23944(8)
H4 H 0.4345(8) 1.054(2) 0.2238(8)
H5 H 0.4189(9) 1.213(2) 0.2369(9)
C6 C 0.40712(8) 1.06498(19) 0.29989(8)
H6 H 0.3823(8) 1.128(2) 0.3149(8)
C7 C 0.45964(10) 1.0451(3) 0.34284(10)
H7 H 0.4788(11) 1.133(3) 0.3502(12)
H8 H 0.4822(9) 0.977(2) 0.3284(9)
C8 C 0.44547(12) 0.9898(3) 0.39755(10)
H9 H 0.4801(13) 0.973(3) 0.4237(13)
H10 H 0.4235(12) 1.061(3) 0.4127(12)
C9 C 0.41086(13) 0.8586(3) 0.38859(11)
H11 H 0.4327(10) 0.783(3) 0.3784(10)
H12 H 0.4016(11) 0.824(3) 0.4235(13)
C10 C 0.35993(11) 0.8740(3) 0.34230(9)
H13 H 0.3420(11) 0.784(3) 0.3330(11)
H14 H 0.3351(11) 0.942(3) 0.3543(11)
C11 C 0.37641(7) 0.92858(17) 0.28916(7)
H15 H 0.4018(8) 0.861(2) 0.2767(8)
C12 C 0.35180(7) 0.73744(16) 0.19144(7)
C13 C 0.40243(8) 0.74020(19) 0.17579(9)
H16 H 0.4169(8) 0.823(2) 0.1667(9)
C14 C 0.43018(10) 0.6167(2) 0.17180(10)
H17 H 0.4648(11) 0.619(2) 0.1589(10)
C15 C 0.40719(11) 0.4924(2) 0.18328(11)
H18 H 0.4268(11) 0.410(3) 0.1833(11)
C16 C 0.35686(10) 0.4872(2) 0.19983(10)
H19 H 0.3410(10) 0.406(3) 0.2082(11)
C17 C 0.32983(8) 0.61061(16) 0.20366(7)
N2 N 0.27867(7) 0.63167(15) 0.21980(7)
H20 H 0.2591(9) 0.568(2) 0.2314(9)
C18 C 0.26575(7) 0.76780(16) 0.22028(7)
C19 C 0.27287(7) 0.85917(18) 0.09258(7)
C20 C 0.21529(8) 0.8265(2) 0.06962(8)
H21 H 0.2098(8) 0.770(2) 0.0357(9)
C21 C 0.17201(8) 0.8731(2) 0.08916(8)
H22 H 0.1781(8) 0.923(2) 0.1225(10)
C22 C 0.11472(8) 0.8535(2) 0.06237(8)
C23 C 0.10014(10) 0.8012(3) 0.00719(10)
H23 H 0.1293(11) 0.769(3) -0.0099(11)
C24 C 0.04625(10) 0.7835(3) -0.01841(11)
H24 H 0.0361(11) 0.749(3) -0.0580(12)
C25 C 0.00531(11) 0.8181(3) 0.00991(11)
H25 H -0.0299(13) 0.807(3) -0.0057(13)
C26 C 0.01747(9) 0.8710(3) 0.06405(11)
H26 H -0.0107(10) 0.894(2) 0.0856(10)
C27 C 0.07196(8) 0.8891(2) 0.08982(9)
C28 C 0.31806(7) 1.16913(17) 0.10870(7)
C29 C 0.27304(10) 1.2499(2) 0.11304(10)
H27 H 0.2548(10) 1.227(3) 0.1423(11)
C30 C 0.25854(14) 1.3647(3) 0.07904(13)
H28 H 0.2294(12) 1.415(3) 0.0855(12)
C31 C 0.28963(14) 1.4019(3) 0.04007(13)
H29 H 0.2787(14) 1.478(4) 0.0178(15)
C32 C 0.33413(13) 1.3252(3) 0.03449(12)
H30 H 0.3565(13) 1.349(3) 0.0109(14)
C33 C 0.34795(9) 1.2089(2) 0.06815(9)
loop_
_geom_bond_atom_site_label_1
_geom_bond_atom_site_label_2
_geom_bond_site_symmetry_1
_geom_bond_site_symmetry_2
Cl1 C27 1_555 1_555
Cl2 C33 1_555 1_555
O1 C18 1_555 1_555
O2 C19 1_555 1_555
N1 C1 1_555 1_555
C1 C2 1_555 1_555
C2 H1 1_555 1_555
C3 C2 1_555 1_555
H2 C3 1_555 1_555
C4 N1 1_555 1_555
H3 C4 1_555 1_555
C5 C4 1_555 1_555
H4 C5 1_555 1_555
H5 C5 1_555 1_555
C6 C5 1_555 1_555
H6 C6 1_555 1_555
C7 C6 1_555 1_555
H7 C7 1_555 1_555
H8 C7 1_555 1_555
C8 C7 1_555 1_555
H9 C8 1_555 1_555
H10 C8 1_555 1_555
C9 C8 1_555 1_555
H11 C9 1_555 1_555
H12 C9 1_555 1_555
C10 C9 1_555 1_555
H13 C10 1_555 1_555
H14 C10 1_555 1_555
C11 N1 1_555 1_555
H15 C11 1_555 1_555
C12 C1 1_555 1_555
C13 C12 1_555 1_555
H16 C13 1_555 1_555
C14 C13 1_555 1_555
H17 C14 1_555 1_555
C15 C14 1_555 1_555
H18 C15 1_555 1_555
C16 C15 1_555 1_555
H19 C16 1_555 1_555
C17 C12 1_555 1_555
N2 C17 1_555 1_555
H20 N2 1_555 1_555
C18 C1 1_555 1_555
C19 C2 1_555 1_555
C20 C19 1_555 1_555
H21 C20 1_555 1_555
C21 C20 1_555 1_555
H22 C21 1_555 1_555
C22 C21 1_555 1_555
C23 C22 1_555 1_555
H23 C23 1_555 1_555
C24 C23 1_555 1_555
H24 C24 1_555 1_555
C25 C24 1_555 1_555
H25 C25 1_555 1_555
C26 C25 1_555 1_555
H26 C26 1_555 1_555
C27 C22 1_555 1_555
C28 C3 1_555 1_555
C29 C28 1_555 1_555
H27 C29 1_555 1_555
C30 C29 1_555 1_555
H28 C30 1_555 1_555
C31 C30 1_555 1_555
H29 C31 1_555 1_555
C32 C31 1_555 1_555
H30 C32 1_555 1_555
C33 C28 1_555 1_555
C3 C4 1_555 1_555
C6 C11 1_555 1_555
C10 C11 1_555 1_555
C16 C17 1_555 1_555
N2 C18 1_555 1_555
C26 C27 1_555 1_555
C32 C33 1_555 1_555

#END
