
#######################################################################
#
#                 Cambridge Crystallographic Data Centre
#                                CCDC 
#
#######################################################################
#
# If this CIF has been generated from an entry in the Cambridge 
# Structural Database, then it will include bibliographic, chemical, 
# crystal, experimental, refinement or atomic coordinate data resulting 
# from the CCDC's data processing and validation procedures.
#
#######################################################################

data_HISDET
_chemical_formula_moiety         'C15 H16 N2 O1'
_chemical_name_systematic        2-(4-(Dimethylamino)benzylideneimino)phenol
_symmetry_cell_setting           monoclinic
_symmetry_space_group_name_H-M   'P 21/n'
_symmetry_Int_Tables_number      14
_space_group_name_Hall           '-P 2yn'
loop_
_symmetry_equiv_pos_site_id
_symmetry_equiv_pos_as_xyz
1 x,y,z
2 1/2-x,1/2+y,1/2-z
3 -x,-y,-z
4 1/2+x,1/2-y,1/2+z
_cell_length_a                   6.3549(17)
_cell_length_b                   9.598(3)
_cell_length_c                   21.211(6)
_cell_angle_alpha                90
_cell_angle_beta                 96.765(4)
_cell_angle_gamma                90
_cell_volume                     1284.74
_exptl_crystal_colour            yellow
_exptl_crystal_description       block
_cell_formula_units_Z            4
loop_
_atom_site_label
_atom_site_type_symbol
_atom_site_fract_x
_atom_site_fract_y
_atom_site_fract_z
N1 N 0.9004(3) 1.00454(18) 0.12707(8)
N2 N 1.1112(3) 0.5763(2) -0.09216(9)
O1 O 0.5504(2) 1.1421(2) 0.14064(8)
H1 H 0.5841 1.0870 0.1141
C1 C 0.9087(3) 1.0960(2) 0.17941(10)
C2 C 0.7186(4) 1.1638(2) 0.18561(10)
C3 C 0.7002(4) 1.2532(3) 0.23541(12)
H2 H 0.5718 1.2972 0.2391
C4 C 0.8718(5) 1.2771(3) 0.27941(12)
H3 H 0.8601 1.3381 0.3129
C5 C 1.0610(4) 1.2116(3) 0.27443(12)
H4 H 1.1770 1.2281 0.3045
C6 C 1.0791(4) 1.1213(2) 0.22487(11)
H5 H 1.2075 1.0769 0.2219
C7 C 1.0693(4) 0.9545(2) 0.10922(10)
H6 H 1.1979 0.9823 0.1311
C8 C 1.0753(3) 0.8578(2) 0.05760(9)
C9 C 0.8952(3) 0.8138(2) 0.01932(10)
H7 H 0.7637 0.8478 0.0271
C10 C 0.9054(4) 0.7219(2) -0.02952(11)
H8 H 0.7810 0.6951 -0.0541
C11 C 1.0993(3) 0.6671(2) -0.04338(9)
C12 C 1.2811(4) 0.7123(2) -0.00509(11)
H9 H 1.4132 0.6791 -0.0127
C13 C 1.2672(3) 0.8047(3) 0.04335(10)
H10 H 1.3911 0.8331 0.0677
C14 C 1.3081(4) 0.5123(3) -0.10345(12)
H11 H 1.2847 0.4527 -0.1399
H12 H 1.3624 0.4583 -0.0670
H13 H 1.4087 0.5833 -0.1109
C15 C 0.9224(4) 0.5312(3) -0.13154(12)
H14 H 0.9609 0.4685 -0.1636
H15 H 0.8510 0.6107 -0.1515
H16 H 0.8300 0.4844 -0.1058
loop_
_geom_bond_atom_site_label_1
_geom_bond_atom_site_label_2
_geom_bond_site_symmetry_1
_geom_bond_site_symmetry_2
N1 C1 1_555 1_555
N2 C11 1_555 1_555
O1 H1 1_555 1_555
C1 C2 1_555 1_555
C2 O1 1_555 1_555
C3 C2 1_555 1_555
H2 C3 1_555 1_555
C4 C3 1_555 1_555
H3 C4 1_555 1_555
C5 C4 1_555 1_555
H4 C5 1_555 1_555
C6 C1 1_555 1_555
H5 C6 1_555 1_555
C7 N1 1_555 1_555
H6 C7 1_555 1_555
C8 C7 1_555 1_555
C9 C8 1_555 1_555
H7 C9 1_555 1_555
C10 C9 1_555 1_555
H8 C10 1_555 1_555
C11 C10 1_555 1_555
C12 C11 1_555 1_555
H9 C12 1_555 1_555
C13 C8 1_555 1_555
H10 C13 1_555 1_555
C14 N2 1_555 1_555
H11 C14 1_555 1_555
H12 C14 1_555 1_555
H13 C14 1_555 1_555
C15 N2 1_555 1_555
H14 C15 1_555 1_555
H15 C15 1_555 1_555
H16 C15 1_555 1_555
C5 C6 1_555 1_555
C12 C13 1_555 1_555

#END
