
#######################################################################
#
#                 Cambridge Crystallographic Data Centre
#                                CCDC 
#
#######################################################################
#
# If this CIF has been generated from an entry in the Cambridge 
# Structural Database, then it will include bibliographic, chemical, 
# crystal, experimental, refinement or atomic coordinate data resulting 
# from the CCDC's data processing and validation procedures.
#
#######################################################################

data_HISFUL
_chemical_formula_moiety         'C17 H15 N3 O1'
_chemical_name_systematic        4-(4-Methoxyphenyl)-6-phenylpyrimidin-2-amine
_symmetry_cell_setting           monoclinic
_symmetry_space_group_name_H-M   'P 21/c'
_symmetry_Int_Tables_number      14
_space_group_name_Hall           '-P 2ybc'
loop_
_symmetry_equiv_pos_site_id
_symmetry_equiv_pos_as_xyz
1 x,y,z
2 -x,1/2+y,1/2-z
3 -x,-y,-z
4 x,1/2-y,1/2+z
_cell_length_a                   12.590(3)
_cell_length_b                   6.9590(14)
_cell_length_c                   16.320(3)
_cell_angle_alpha                90
_cell_angle_beta                 96.61(3)
_cell_angle_gamma                90
_cell_volume                     1420.35
_exptl_crystal_colour            yellow
_exptl_crystal_description       block
_chemical_melting_point          '156 deg.C'
_cell_formula_units_Z            4
_exptl_crystal_recrystallization_method ethanol
loop_
_atom_site_label
_atom_site_type_symbol
_atom_site_fract_x
_atom_site_fract_y
_atom_site_fract_z
O1 O 0.24387(10) -0.00893(18) 0.60359(8)
N1 N 0.15472(10) 0.95596(17) 0.29535(7)
N2 N 0.09537(10) 0.66067(17) 0.35172(7)
N3 N -0.00988(10) 0.82471(18) 0.25208(8)
H1 H -0.0218 0.9191 0.2183
H2 H -0.0575 0.7368 0.2543
C1 C 0.15845(16) -0.1366(3) 0.61267(12)
H3 H 0.1842 -0.2423 0.6473
H4 H 0.1298 -0.1843 0.5595
H5 H 0.1035 -0.0699 0.6374
C2 C 0.22320(14) 0.1531(2) 0.55656(9)
C3 C 0.31007(15) 0.2681(3) 0.54745(11)
H6 H 0.3768 0.2367 0.5747
C4 C 0.29889(14) 0.4287(2) 0.49845(11)
H7 H 0.3584 0.5048 0.4930
C5 C 0.20075(12) 0.4801(2) 0.45685(9)
C6 C 0.11446(14) 0.3651(2) 0.46848(10)
H8 H 0.0474 0.3974 0.4422
C7 C 0.12464(14) 0.2034(2) 0.51802(11)
H9 H 0.0649 0.1292 0.5251
C8 C 0.18777(12) 0.6494(2) 0.40153(9)
C9 C 0.26531(13) 0.7888(2) 0.39975(10)
H10 H 0.3288 0.7812 0.4349
C10 C 0.24733(12) 0.9407(2) 0.34480(9)
C11 C 0.08306(12) 0.8146(2) 0.30137(9)
C12 C 0.32930(12) 1.0912(2) 0.33710(9)
C13 C 0.43102(14) 1.0775(3) 0.37899(11)
H11 H 0.4484 0.9718 0.4127
C14 C 0.50694(15) 1.2166(3) 0.37190(12)
H12 H 0.5748 1.2038 0.4006
C15 C 0.48324(16) 1.3748(3) 0.32253(12)
H13 H 0.5343 1.4696 0.3180
C16 C 0.38334(15) 1.3903(3) 0.28016(12)
H14 H 0.3664 1.4964 0.2465
C17 C 0.30746(14) 1.2500(3) 0.28692(11)
H15 H 0.2402 1.2624 0.2571
loop_
_geom_bond_atom_site_label_1
_geom_bond_atom_site_label_2
_geom_bond_site_symmetry_1
_geom_bond_site_symmetry_2
O1 C1 1_555 1_555
N1 C10 1_555 1_555
N2 C8 1_555 1_555
N3 H1 1_555 1_555
H2 N3 1_555 1_555
C1 H3 1_555 1_555
H4 C1 1_555 1_555
H5 C1 1_555 1_555
C2 O1 1_555 1_555
C3 C2 1_555 1_555
H6 C3 1_555 1_555
C4 C3 1_555 1_555
H7 C4 1_555 1_555
C5 C4 1_555 1_555
C6 C5 1_555 1_555
H8 C6 1_555 1_555
C7 C2 1_555 1_555
H9 C7 1_555 1_555
C8 C5 1_555 1_555
C9 C8 1_555 1_555
H10 C9 1_555 1_555
C10 C9 1_555 1_555
C11 N1 1_555 1_555
C12 C10 1_555 1_555
C13 C12 1_555 1_555
H11 C13 1_555 1_555
C14 C13 1_555 1_555
H12 C14 1_555 1_555
C15 C14 1_555 1_555
H13 C15 1_555 1_555
C16 C15 1_555 1_555
H14 C16 1_555 1_555
C17 C12 1_555 1_555
H15 C17 1_555 1_555
N2 C11 1_555 1_555
N3 C11 1_555 1_555
C6 C7 1_555 1_555
C16 C17 1_555 1_555

#END
