
#######################################################################
#
#                 Cambridge Crystallographic Data Centre
#                                CCDC 
#
#######################################################################
#
# If this CIF has been generated from an entry in the Cambridge 
# Structural Database, then it will include bibliographic, chemical, 
# crystal, experimental, refinement or atomic coordinate data resulting 
# from the CCDC's data processing and validation procedures.
#
#######################################################################

data_HISHUN
_chemical_formula_moiety         'C20 H30 N2 O4 S1'
_chemical_name_systematic        
N'-(3,3,7,7-Tetramethyl-1,5-dioxaspiro(5,5)undecane-8-ylidene)-p-toluenesulfonohydrazide
_symmetry_cell_setting           triclinic
_symmetry_space_group_name_H-M   'P -1'
_symmetry_Int_Tables_number      2
_space_group_name_Hall           '-P 1'
loop_
_symmetry_equiv_pos_site_id
_symmetry_equiv_pos_as_xyz
1 x,y,z
2 -x,-y,-z
_cell_length_a                   7.437(2)
_cell_length_b                   10.045(3)
_cell_length_c                   14.299(4)
_cell_angle_alpha                98.397(4)
_cell_angle_beta                 92.789(4)
_cell_angle_gamma                98.676(3)
_cell_volume                     1041.93
_exptl_crystal_colour            colorless
_exptl_crystal_description       block
_chemical_melting_point          '415.65-416.55 K'
_cell_formula_units_Z            2
_exptl_crystal_recrystallization_method methanol/water
loop_
_atom_site_label
_atom_site_type_symbol
_atom_site_fract_x
_atom_site_fract_y
_atom_site_fract_z
S1 S 0.74930(4) 0.94640(3) 0.92474(2)
O1 O 0.35368(11) 0.85518(8) 0.53518(6)
O2 O 0.26324(12) 0.62269(8) 0.48085(6)
O3 O 0.72649(13) 1.04073(9) 1.00690(6)
N1 N 0.55776(14) 0.93342(10) 0.85828(7)
H1 H 0.4704 0.9770 0.8746
N2 N 0.55154(13) 0.84407(10) 0.77244(7)
O4 O 0.89725(12) 0.97570(9) 0.86819(6)
C1 C 0.21772(18) 0.84174(16) 0.75584(10)
H2 H 0.2414 0.9270 0.7994
H3 H 0.1582 0.7725 0.7897
C2 C 0.7747(2) 0.67650(14) 0.89064(11)
H4 H 0.7918 0.6892 0.8284
C3 C 0.39561(16) 0.69706(12) 0.63791(8)
C4 C 0.26753(16) 0.72936(11) 0.55853(8)
C5 C 0.75496(17) 0.78523(12) 0.95861(9)
C6 C 0.07722(17) 0.74173(14) 0.59111(9)
H5 H 0.0001 0.7590 0.5390
H6 H 0.0232 0.6568 0.6104
C7 C 0.39707(16) 0.80343(12) 0.72640(8)
C8 C 0.7486(2) 0.52802(15) 1.00909(13)
C9 C 0.58742(17) 0.69355(15) 0.60413(10)
H7 H 0.6332 0.7793 0.5850
H8 H 0.5826 0.6217 0.5514
H9 H 0.6667 0.6775 0.6549
C10 C 0.2712(2) 0.89224(13) 0.45192(10)
H10 H 0.3388 0.9773 0.4392
H11 H 0.1475 0.9065 0.4631
C11 C 0.1801(2) 0.64865(13) 0.39464(9)
H12 H 0.0516 0.6510 0.4020
H13 H 0.1896 0.5745 0.3443
C12 C 0.08827(17) 0.85731(16) 0.67373(10)
H14 H -0.0325 0.8601 0.6959
H15 H 0.1291 0.9431 0.6520
C13 C 0.3242(2) 0.55659(14) 0.66514(11)
H16 H 0.2039 0.5565 0.6866
H17 H 0.4042 0.5385 0.7149
H18 H 0.3202 0.4873 0.6108
C14 C 0.2679(2) 0.78305(14) 0.36608(10)
C15 C 0.4619(3) 0.77578(19) 0.33833(13)
H19 H 0.4594 0.7063 0.2843
H20 H 0.5328 0.7543 0.3904
H21 H 0.5156 0.8622 0.3229
C16 C 0.7365(2) 0.76697(16) 1.05132(11)
H22 H 0.7257 0.8404 1.0974
C17 C 0.7342(3) 0.63871(18) 1.07526(13)
H23 H 0.7226 0.6269 1.1381
C18 C 0.7688(2) 0.54881(16) 0.91645(14)
H24 H 0.7786 0.4751 0.8705
C19 C 0.1499(3) 0.8148(2) 0.28468(12)
H25 H 0.0279 0.8166 0.3034
H26 H 0.1481 0.7458 0.2304
H27 H 0.1993 0.9020 0.2689
C20 C 0.7411(3) 0.38686(18) 1.03574(18)
H28 H 0.7254 0.3910 1.1023
H29 H 0.8527 0.3536 1.0216
H30 H 0.6405 0.3265 1.0003
loop_
_geom_bond_atom_site_label_1
_geom_bond_atom_site_label_2
_geom_bond_site_symmetry_1
_geom_bond_site_symmetry_2
S1 O3 1_555 1_555
O1 C4 1_555 1_555
O2 C4 1_555 1_555
N1 S1 1_555 1_555
H1 N1 1_555 1_555
N2 N1 1_555 1_555
O4 S1 1_555 1_555
C1 H2 1_555 1_555
H3 C1 1_555 1_555
C2 H4 1_555 1_555
C3 C4 1_555 1_555
C4 C6 1_555 1_555
C5 S1 1_555 1_555
C6 H5 1_555 1_555
H6 C6 1_555 1_555
C7 N2 1_555 1_555
C8 C17 1_555 1_555
C9 C3 1_555 1_555
H7 C9 1_555 1_555
H8 C9 1_555 1_555
H9 C9 1_555 1_555
C10 O1 1_555 1_555
H10 C10 1_555 1_555
H11 C10 1_555 1_555
C11 O2 1_555 1_555
H12 C11 1_555 1_555
H13 C11 1_555 1_555
C12 C1 1_555 1_555
H14 C12 1_555 1_555
H15 C12 1_555 1_555
C13 C3 1_555 1_555
H16 C13 1_555 1_555
H17 C13 1_555 1_555
H18 C13 1_555 1_555
C14 C10 1_555 1_555
C15 C14 1_555 1_555
H19 C15 1_555 1_555
H20 C15 1_555 1_555
H21 C15 1_555 1_555
C16 C5 1_555 1_555
H22 C16 1_555 1_555
C17 C16 1_555 1_555
H23 C17 1_555 1_555
C18 C2 1_555 1_555
H24 C18 1_555 1_555
C19 C14 1_555 1_555
H25 C19 1_555 1_555
H26 C19 1_555 1_555
H27 C19 1_555 1_555
C20 C8 1_555 1_555
H28 C20 1_555 1_555
H29 C20 1_555 1_555
H30 C20 1_555 1_555
C1 C7 1_555 1_555
C2 C5 1_555 1_555
C3 C7 1_555 1_555
C6 C12 1_555 1_555
C8 C18 1_555 1_555
C11 C14 1_555 1_555

#END
