
#######################################################################
#
#                 Cambridge Crystallographic Data Centre
#                                CCDC 
#
#######################################################################
#
# If this CIF has been generated from an entry in the Cambridge 
# Structural Database, then it will include bibliographic, chemical, 
# crystal, experimental, refinement or atomic coordinate data resulting 
# from the CCDC's data processing and validation procedures.
#
#######################################################################

data_HISJAV
_chemical_formula_moiety         'C13 H12 N4 O1 S2'
_chemical_name_systematic        
2-Methyl-5-((3-(4-methylphenyl)-1,2,4-oxadiazol-5-yl)methylsulfanyl)-1,3,4-thiadiazole
_symmetry_cell_setting           monoclinic
_symmetry_space_group_name_H-M   'P 21/c'
_symmetry_Int_Tables_number      14
_space_group_name_Hall           '-P 2ybc'
loop_
_symmetry_equiv_pos_site_id
_symmetry_equiv_pos_as_xyz
1 x,y,z
2 -x,1/2+y,1/2-z
3 -x,-y,-z
4 x,1/2-y,1/2+z
_cell_length_a                   16.751(3)
_cell_length_b                   10.686(2)
_cell_length_c                   8.0940(16)
_cell_angle_alpha                90
_cell_angle_beta                 97.12(3)
_cell_angle_gamma                90
_cell_volume                     1437.66
_exptl_crystal_colour            colorless
_exptl_crystal_description       block
_cell_formula_units_Z            4
loop_
_atom_site_label
_atom_site_type_symbol
_atom_site_fract_x
_atom_site_fract_y
_atom_site_fract_z
S1 S 0.38091(8) 0.27665(13) 0.02659(18)
S2 S 0.54227(9) 0.27974(13) 0.2425(2)
O1 O 0.2715(3) -0.0502(4) 0.0223(6)
N1 N 0.2244(4) -0.0948(5) 0.1441(8)
C1 C 0.0502(5) -0.0087(8) 0.8173(10)
H1 H 0.0358 -0.0933 0.8408
H2 H 0.0025 0.0420 0.8016
H3 H 0.0862 0.0234 0.9089
N2 N 0.2485(3) 0.1100(4) 0.1756(6)
C2 C 0.0910(4) -0.0061(9) 0.6610(9)
N3 N 0.4642(3) 0.0792(4) 0.1651(6)
C3 C 0.1020(4) -0.1118(9) 0.5731(11)
H4 H 0.0819 -0.1870 0.6084
N4 N 0.5348(3) 0.0428(4) 0.2610(6)
C4 C 0.1418(4) -0.1121(6) 0.4343(8)
H5 H 0.1498 -0.1867 0.3795
C5 C 0.1703(3) 0.0013(6) 0.3761(7)
C6 C 0.1591(3) 0.1093(6) 0.4617(8)
H6 H 0.1781 0.1850 0.4255
C7 C 0.1197(4) 0.1055(8) 0.6020(9)
H7 H 0.1122 0.1795 0.6585
C8 C 0.2138(3) 0.0047(5) 0.2277(8)
C9 C 0.2828(3) 0.0735(5) 0.0515(7)
C10 C 0.3277(3) 0.1415(5) -0.0646(7)
H8 H 0.2904 0.1684 -0.1593
H9 H 0.3661 0.0849 -0.1054
C11 C 0.4594(3) 0.1977(5) 0.1446(7)
C12 C 0.5812(3) 0.1350(5) 0.3068(8)
C13 C 0.6623(4) 0.1207(6) 0.4094(10)
H10 H 0.6741 0.0334 0.4266
H11 H 0.6615 0.1611 0.5151
H12 H 0.7029 0.1584 0.3517
loop_
_geom_bond_atom_site_label_1
_geom_bond_atom_site_label_2
_geom_bond_site_symmetry_1
_geom_bond_site_symmetry_2
S1 C10 1_555 1_555
S2 C11 1_555 1_555
O1 N1 1_555 1_555
N1 C8 1_555 1_555
C1 H1 1_555 1_555
H2 C1 1_555 1_555
H3 C1 1_555 1_555
N2 C8 1_555 1_555
C2 C1 1_555 1_555
N3 N4 1_555 1_555
C3 C2 1_555 1_555
H4 C3 1_555 1_555
N4 C12 1_555 1_555
C4 C3 1_555 1_555
H5 C4 1_555 1_555
C5 C4 1_555 1_555
C6 C5 1_555 1_555
H6 C6 1_555 1_555
C7 C2 1_555 1_555
H7 C7 1_555 1_555
C8 C5 1_555 1_555
C9 O1 1_555 1_555
C10 C9 1_555 1_555
H8 C10 1_555 1_555
H9 C10 1_555 1_555
C11 S1 1_555 1_555
C12 S2 1_555 1_555
C13 C12 1_555 1_555
H10 C13 1_555 1_555
H11 C13 1_555 1_555
H12 C13 1_555 1_555
N2 C9 1_555 1_555
N3 C11 1_555 1_555
C6 C7 1_555 1_555

#END
