
#######################################################################
#
#                 Cambridge Crystallographic Data Centre
#                                CCDC 
#
#######################################################################
#
# If this CIF has been generated from an entry in the Cambridge 
# Structural Database, then it will include bibliographic, chemical, 
# crystal, experimental, refinement or atomic coordinate data resulting 
# from the CCDC's data processing and validation procedures.
#
#######################################################################

data_HISLEC
_chemical_formula_moiety         'C16 H8 O8 2-,2(C13 H10 N1 1+)'
_chemical_name_systematic        
"bis(acridinium) 2',6'-dicarboxybiphenyl-2,6-dicarboxylate"
_symmetry_cell_setting           monoclinic
_symmetry_space_group_name_H-M   'C 2/c'
_symmetry_Int_Tables_number      15
_space_group_name_Hall           '-C 2yn'
loop_
_symmetry_equiv_pos_site_id
_symmetry_equiv_pos_as_xyz
1 x,y,z
2 -x,y,1/2-z
3 1/2+x,1/2+y,z
4 1/2-x,1/2+y,1/2-z
5 -x,-y,-z
6 x,-y,1/2+z
7 1/2-x,1/2-y,-z
8 1/2+x,1/2-y,1/2+z
_cell_length_a                   12.0026(15)
_cell_length_b                   11.4343(14)
_cell_length_c                   23.723(3)
_cell_angle_alpha                90
_cell_angle_beta                 93.908(4)
_cell_angle_gamma                90
_cell_volume                     3248.21
_exptl_crystal_colour            'light yellow'
_exptl_crystal_description       block
_cell_formula_units_Z            4
loop_
_atom_site_label
_atom_site_type_symbol
_atom_site_fract_x
_atom_site_fract_y
_atom_site_fract_z
O1 O 0.35457(18) 0.0429(2) 0.61811(8)
O2 O 0.27548(17) 0.12958(18) 0.68824(9)
C1 C 0.5000 0.0697(3) 0.7500
C2 C 0.4309(2) 0.0068(2) 0.71062(10)
C3 C 0.4331(3) -0.1139(2) 0.71046(12)
H1 H 0.3890 -0.1549 0.6834
C4 C 0.5000 -0.1741(4) 0.7500
H2 H 0.5000 -0.2554 0.7500
C5 C 0.3494(2) 0.0652(3) 0.66905(12)
O3 O 0.73344(17) 0.14177(19) 0.70746(10)
H3 H 0.727(2) 0.135(2) 0.7519(14)
O4 O 0.6560(2) 0.2296(3) 0.63285(10)
C6 C 0.5000 0.2015(3) 0.7500
C7 C 0.5737(2) 0.2645(2) 0.71832(11)
C8 C 0.5723(3) 0.3857(3) 0.71838(14)
H4 H 0.6210 0.4266 0.6967
C9 C 0.5000 0.4462(4) 0.7500
H5 H 0.5000 0.5276 0.7500
C10 C 0.6569(2) 0.2080(3) 0.68267(13)
O1A O 0.64543(18) 0.0429(2) 0.88189(8)
O2A O 0.72452(17) 0.12958(18) 0.81176(9)
C2A C 0.5691(2) 0.0068(2) 0.78938(10)
C3A C 0.5669(3) -0.1139(2) 0.78954(12)
H1A H 0.6110 -0.1549 0.8166
C5A C 0.6506(2) 0.0652(3) 0.83095(12)
O3A O 0.26656(17) 0.14177(19) 0.79254(10)
H3A H 0.273(2) 0.135(2) 0.7481(14)
O4A O 0.3440(2) 0.2296(3) 0.86715(10)
C7A C 0.4263(2) 0.2645(2) 0.78168(11)
C8A C 0.4277(3) 0.3857(3) 0.78162(14)
H4A H 0.3790 0.4266 0.8033
C10A C 0.3431(2) 0.2080(3) 0.81733(13)
N1 N 0.2026(2) 0.1017(2) 0.53535(10)
H6 H 0.256(2) 0.079(2) 0.5676(12)
C11 C 0.3548(3) 0.0676(3) 0.47672(14)
H7 H 0.4024 0.0489 0.5080
C12 C 0.3915(3) 0.0644(3) 0.42353(15)
H8 H 0.4648 0.0423 0.4188
C13 C 0.3219(3) 0.0935(3) 0.37611(14)
H9 H 0.3496 0.0903 0.3405
C14 C 0.2153(3) 0.1260(3) 0.38120(13)
H10 H 0.1702 0.1461 0.3492
C15 C 0.2428(2) 0.1000(3) 0.48315(12)
C16 C 0.1713(3) 0.1298(2) 0.43525(12)
C17 C 0.0613(3) 0.1586(3) 0.44339(13)
H11 H 0.0139 0.1804 0.4125
C18 C 0.0208(2) 0.1556(2) 0.49666(13)
C19 C 0.0949(2) 0.1270(2) 0.54372(11)
C20 C 0.0553(3) 0.1229(3) 0.59850(12)
H12 H 0.1039 0.1052 0.6295
C21 C -0.0538(3) 0.1448(3) 0.60548(14)
H13 H -0.0798 0.1408 0.6415
C22 C -0.1285(3) 0.1734(3) 0.55920(16)
H14 H -0.2031 0.1885 0.5649
C23 C -0.0925(3) 0.1791(3) 0.50667(16)
H15 H -0.1426 0.1986 0.4765
loop_
_geom_bond_atom_site_label_1
_geom_bond_atom_site_label_2
_geom_bond_site_symmetry_1
_geom_bond_site_symmetry_2
O1 C5 1_555 1_555
O2 C5 1_555 1_555
C1 C2 1_555 1_555
C2 C3 1_555 1_555
C3 H1 1_555 1_555
C4 C3 1_555 1_555
H2 C4 1_555 1_555
C5 C2 1_555 1_555
O3 H3 1_555 1_555
O4 C10 1_555 1_555
C6 C1 1_555 1_555
C7 C6 1_555 1_555
C8 C7 1_555 1_555
H4 C8 1_555 1_555
C9 C8 1_555 1_555
H5 C9 1_555 1_555
C10 O3 1_555 1_555
N1 H6 1_555 1_555
C11 H7 1_555 1_555
C12 C11 1_555 1_555
H8 C12 1_555 1_555
C13 C12 1_555 1_555
H9 C13 1_555 1_555
C14 C13 1_555 1_555
H10 C14 1_555 1_555
C15 N1 1_555 1_555
C16 C14 1_555 1_555
C17 C16 1_555 1_555
H11 C17 1_555 1_555
C18 C17 1_555 1_555
C19 N1 1_555 1_555
C20 C19 1_555 1_555
H12 C20 1_555 1_555
C21 C20 1_555 1_555
H13 C21 1_555 1_555
C22 C21 1_555 1_555
H14 C22 1_555 1_555
C23 C18 1_555 1_555
H15 C23 1_555 1_555
O1A C5A 1_555 1_555
O2A C5A 1_555 1_555
C2A C1 1_555 1_555
C3A C4 1_555 1_555
H1A C3A 1_555 1_555
C5A C2A 1_555 1_555
O3A H3A 1_555 1_555
O4A C10A 1_555 1_555
C7A C6 1_555 1_555
C8A C9 1_555 1_555
H4A C8A 1_555 1_555
C10A O3A 1_555 1_555
C7 C10 1_555 1_555
C11 C15 1_555 1_555
C15 C16 1_555 1_555
C18 C19 1_555 1_555
C22 C23 1_555 1_555
C2A C3A 1_555 1_555
C7A C8A 1_555 1_555
C7A C10A 1_555 1_555

#END
