
#######################################################################
#
#                 Cambridge Crystallographic Data Centre
#                                CCDC 
#
#######################################################################
#
# If this CIF has been generated from an entry in the Cambridge 
# Structural Database, then it will include bibliographic, chemical, 
# crystal, experimental, refinement or atomic coordinate data resulting 
# from the CCDC's data processing and validation procedures.
#
#######################################################################

data_HISMAZ
_chemical_formula_moiety         'C4 H12 N1 O3 1+,C7 H5 O3 1-,0.25(H2 O1)'
_chemical_name_systematic        
'1,3-Dihydroxy-2-(hydroxymethyl)propan-2-aminium 2-hydroxybenzoate hydrate'
_symmetry_cell_setting           orthorhombic
_symmetry_space_group_name_H-M   'P 21 21 2'
_symmetry_Int_Tables_number      18
_space_group_name_Hall           'P 2 2ab'
loop_
_symmetry_equiv_pos_site_id
_symmetry_equiv_pos_as_xyz
1 x,y,z
2 -x,-y,z
3 1/2-x,1/2+y,-z
4 1/2+x,1/2-y,-z
_cell_length_a                   14.020(3)
_cell_length_b                   20.749(4)
_cell_length_c                   8.6520(17)
_cell_angle_alpha                90
_cell_angle_beta                 90
_cell_angle_gamma                90
_cell_volume                     2516.88
_exptl_crystal_colour            colorless
_exptl_crystal_description       club
_cell_formula_units_Z            8
loop_
_atom_site_label
_atom_site_type_symbol
_atom_site_fract_x
_atom_site_fract_y
_atom_site_fract_z
C1 C 0.63629(13) 0.33272(9) 0.4212(2)
C2 C 0.60054(15) 0.27766(10) 0.3199(2)
H1 H 0.6413 0.2403 0.3340
H2 H 0.5364 0.2659 0.3512
C3 C 0.74453(13) 0.33834(10) 0.4208(2)
H3 H 0.7666 0.3429 0.3151
H4 H 0.7630 0.3768 0.4770
C4 C 0.59390(14) 0.39769(10) 0.3758(3)
H5 H 0.6132 0.4301 0.4502
H6 H 0.6181 0.4103 0.2752
N1 N 0.60447(11) 0.31650(8) 0.58256(17)
H7 H 0.6197 0.2758 0.6039
H8 H 0.5416 0.3215 0.5898
H9 H 0.6333 0.3426 0.6495
O1 O 0.49370(10) 0.39437(9) 0.37056(19)
H10 H 0.4754 0.4017 0.2823
O2 O 0.78943(11) 0.28384(7) 0.48894(16)
H11 H 0.7970 0.2903 0.5816
O3 O 0.60023(11) 0.29563(8) 0.16151(15)
H12 H 0.6356 0.2716 0.1129
C5 C 0.87881(14) 0.18020(9) 0.0540(2)
C6 C 0.91043(16) 0.22978(10) 0.1740(2)
H13 H 0.9748 0.2440 0.1509
H14 H 0.8687 0.2670 0.1696
C7 C 0.77214(14) 0.16684(10) 0.0602(3)
H15 H 0.7577 0.1293 -0.0023
H16 H 0.7537 0.1575 0.1659
C8 C 0.93757(16) 0.11826(10) 0.0703(3)
H17 H 1.0038 0.1293 0.0890
H18 H 0.9146 0.0938 0.1583
N2 N 0.90049(11) 0.20840(8) -0.10157(17)
H19 H 0.8759 0.2479 -0.1076
H20 H 0.8751 0.1837 -0.1748
H21 H 0.9634 0.2104 -0.1146
O4 O 0.90771(11) 0.20264(8) 0.32513(15)
H22 H 0.8719 0.2240 0.3799
O5 O 0.71874(11) 0.22050(8) 0.00491(17)
H23 H 0.7017 0.2137 -0.0843
O6 O 0.93092(12) 0.07999(7) -0.06493(18)
H24 H 0.9016 0.0468 -0.0454
C9 C 0.27740(15) 0.13007(9) 1.1554(2)
C10 C 0.26095(15) 0.04879(9) 0.9406(2)
C11 C 0.31547(14) 0.09554(9) 1.0178(2)
C12 C 0.40659(15) 0.10902(10) 0.9608(2)
H25 H 0.4448 0.1387 1.0126
C13 C 0.29633(18) 0.01849(11) 0.8097(3)
H26 H 0.2599 -0.0126 0.7595
C14 C 0.44131(18) 0.07933(12) 0.8293(3)
H27 H 0.5016 0.0894 0.7918
C15 C 0.38501(18) 0.03434(12) 0.7543(3)
H28 H 0.4076 0.0146 0.6651
O7 O 0.17234(11) 0.03224(8) 0.98985(19)
H29 H 0.1588 0.0533 1.0670
O8 O 0.19555(11) 0.11298(8) 1.20280(18)
O9 O 0.32669(11) 0.17334(7) 1.21845(17)
C16 C 0.17107(15) 0.38358(9) 0.4853(2)
C17 C 0.22801(15) 0.42681(10) 0.5680(3)
C18 C 0.19032(19) 0.45963(12) 0.6942(3)
H30 H 0.2283 0.4885 0.7488
C19 C 0.07591(16) 0.37648(11) 0.5310(3)
H31 H 0.0362 0.3493 0.4747
C20 C 0.21015(16) 0.34596(10) 0.3525(2)
C21 C 0.03953(19) 0.40852(13) 0.6567(3)
H32 H -0.0236 0.4025 0.6863
C22 C 0.0981(2) 0.44992(14) 0.7386(3)
H33 H 0.0743 0.4713 0.8248
O10 O 0.15664(11) 0.30664(7) 0.28251(17)
O11 O 0.29607(11) 0.35569(8) 0.31722(18)
O12 O 0.32071(12) 0.43798(8) 0.5343(2)
H34 H 0.3370 0.4150 0.4618
O13 O 1.0000 0.0000 0.3200(4)
H35 H 0.9522 0.0185 0.3751
H35A H 1.0478 -0.0185 0.3751
loop_
_geom_bond_atom_site_label_1
_geom_bond_atom_site_label_2
_geom_bond_site_symmetry_1
_geom_bond_site_symmetry_2
C1 C2 1_555 1_555
C2 H1 1_555 1_555
H2 C2 1_555 1_555
C3 C1 1_555 1_555
H3 C3 1_555 1_555
H4 C3 1_555 1_555
C4 C1 1_555 1_555
H5 C4 1_555 1_555
H6 C4 1_555 1_555
N1 C1 1_555 1_555
H7 N1 1_555 1_555
H8 N1 1_555 1_555
H9 N1 1_555 1_555
O1 C4 1_555 1_555
H10 O1 1_555 1_555
O2 C3 1_555 1_555
H11 O2 1_555 1_555
O3 C2 1_555 1_555
H12 O3 1_555 1_555
C5 C6 1_555 1_555
C6 H13 1_555 1_555
H14 C6 1_555 1_555
C7 C5 1_555 1_555
H15 C7 1_555 1_555
H16 C7 1_555 1_555
C8 C5 1_555 1_555
H17 C8 1_555 1_555
H18 C8 1_555 1_555
N2 C5 1_555 1_555
H19 N2 1_555 1_555
H20 N2 1_555 1_555
H21 N2 1_555 1_555
O4 C6 1_555 1_555
H22 O4 1_555 1_555
O5 C7 1_555 1_555
H23 O5 1_555 1_555
O6 C8 1_555 1_555
H24 O6 1_555 1_555
C9 C11 1_555 1_555
C10 C11 1_555 1_555
C11 C12 1_555 1_555
C12 H25 1_555 1_555
C13 C10 1_555 1_555
H26 C13 1_555 1_555
C14 C12 1_555 1_555
H27 C14 1_555 1_555
C15 C13 1_555 1_555
H28 C15 1_555 1_555
O7 C10 1_555 1_555
H29 O7 1_555 1_555
O8 C9 1_555 1_555
O9 C9 1_555 1_555
C16 C17 1_555 1_555
C17 C18 1_555 1_555
C18 H30 1_555 1_555
C19 C16 1_555 1_555
H31 C19 1_555 1_555
C20 C16 1_555 1_555
C21 C19 1_555 1_555
H32 C21 1_555 1_555
C22 C18 1_555 1_555
H33 C22 1_555 1_555
O10 C20 1_555 1_555
O11 C20 1_555 1_555
O12 C17 1_555 1_555
H34 O12 1_555 1_555
O13 H35 1_555 1_555
H35A O13 1_555 1_555
C14 C15 1_555 1_555
C21 C22 1_555 1_555

#END
