
#######################################################################
#
#                 Cambridge Crystallographic Data Centre
#                                CCDC 
#
#######################################################################
#
# If this CIF has been generated from an entry in the Cambridge 
# Structural Database, then it will include bibliographic, chemical, 
# crystal, experimental, refinement or atomic coordinate data resulting 
# from the CCDC's data processing and validation procedures.
#
#######################################################################

data_HISQIL
_chemical_formula_moiety         'C16 H8 O8 2-,2(C6 H13 N2 1+),2(H2 O1)'
_chemical_name_systematic        
"bis(4-Aza-1-azoniabicyclo[2.2.2]octane) dicarboxybiphenyl-2,2'-dicarboxylate dihydrate"
_symmetry_cell_setting           monoclinic
_symmetry_space_group_name_H-M   'P 21'
_symmetry_Int_Tables_number      4
_space_group_name_Hall           'P 2yb'
loop_
_symmetry_equiv_pos_site_id
_symmetry_equiv_pos_as_xyz
1 x,y,z
2 -x,1/2+y,-z
_cell_length_a                   10.7264(8)
_cell_length_b                   12.0799(9)
_cell_length_c                   10.8773(9)
_cell_angle_alpha                90
_cell_angle_beta                 95.949(2)
_cell_angle_gamma                90
_cell_volume                     1401.82
_exptl_crystal_colour            colorless
_exptl_crystal_description       block
_cell_formula_units_Z            2
loop_
_atom_site_label
_atom_site_type_symbol
_atom_site_fract_x
_atom_site_fract_y
_atom_site_fract_z
O1 O -0.4605(2) 0.6759(2) -0.7159(2)
O2 O -0.5093(2) 0.5868(2) -0.5503(2)
O3 O 0.0370(2) 0.5669(2) -0.39776(19)
H1 H 0.022(4) 0.578(4) -0.460(3)
O4 O 0.0069(3) 0.6480(3) -0.2242(2)
O5 O -0.03406(18) 0.55850(17) -0.62401(17)
O6 O -0.15582(19) 0.46368(19) -0.76314(17)
O7 O -0.3279(3) 0.5320(3) -0.1729(2)
O8 O -0.4657(2) 0.5878(2) -0.3260(2)
H2 H -0.475(3) 0.589(3) -0.432(3)
C1 C -0.2340(2) 0.6391(2) -0.4676(2)
C2 C -0.3288(3) 0.7042(2) -0.5314(2)
C3 C -0.3219(3) 0.8189(3) -0.5242(3)
H3 H -0.3835 0.8612 -0.5684
C4 C -0.2271(3) 0.8705(3) -0.4539(3)
H4 H -0.2252 0.9474 -0.4496
C5 C -0.1338(3) 0.8092(3) -0.3891(3)
H5 H -0.0701 0.8445 -0.3393
C6 C -0.1354(2) 0.6941(2) -0.3986(2)
C7 C -0.4395(3) 0.6520(3) -0.6055(3)
C8 C -0.0252(3) 0.6330(3) -0.3322(3)
C9 C -0.2434(2) 0.5149(2) -0.4656(2)
C10 C -0.1943(2) 0.4473(2) -0.5535(2)
C11 C -0.2076(2) 0.3321(2) -0.5468(3)
H6 H -0.1766 0.2874 -0.6063
C12 C -0.2659(3) 0.2846(2) -0.4533(3)
H7 H -0.2726 0.2079 -0.4485
C13 C -0.3140(3) 0.3499(2) -0.3674(3)
H8 H -0.3529 0.3175 -0.3038
C14 C -0.3052(2) 0.4645(2) -0.3743(2)
C15 C -0.1242(2) 0.4945(2) -0.6548(2)
C16 C -0.3676(3) 0.5322(3) -0.2813(3)
N1 N -0.6174(2) 0.8791(2) -1.1590(2)
H9 H -0.6909 0.8975 -1.1939
N2 N -0.4055(2) 0.83634(19) -1.0471(2)
C17 C -0.6273(3) 0.7798(3) -1.0794(4)
H10 H -0.6677 0.7196 -1.1275
H11 H -0.6770 0.7969 -1.0122
C18 C -0.4939(3) 0.7459(3) -1.0278(3)
H12 H -0.4918 0.7300 -0.9402
H13 H -0.4694 0.6795 -1.0692
C19 C -0.4534(3) 0.9412(3) -1.0027(3)
H14 H -0.3909 0.9987 -1.0072
H15 H -0.4692 0.9333 -0.9169
C20 C -0.5745(3) 0.9751(3) -1.0802(3)
H16 H -0.6380 0.9950 -1.0267
H17 H -0.5595 1.0385 -1.1313
C21 C -0.5264(3) 0.8580(3) -1.2517(3)
H18 H -0.5276 0.9190 -1.3098
H19 H -0.5486 0.7907 -1.2973
C22 C -0.3964(3) 0.8467(3) -1.1812(3)
H20 H -0.3549 0.7818 -1.2103
H21 H -0.3463 0.9111 -1.1967
N3 N -1.1625(2) 0.8033(2) -0.9387(2)
H22 H -1.2316 0.8084 -0.9663
N4 N -0.9344(2) 0.7691(2) -0.8680(2)
C23 C -1.1391(4) 0.8225(5) -0.8048(3)
H23 H -1.1893 0.7720 -0.7612
H24 H -1.1624 0.8976 -0.7856
C24 C -1.0001(3) 0.8040(3) -0.7639(3)
H25 H -0.9633 0.8720 -0.7296
H26 H -0.9910 0.7477 -0.7000
C25 C -0.9471(3) 0.8549(3) -0.9622(4)
H27 H -0.9037 0.8322 -1.0320
H28 H -0.9085 0.9226 -0.9289
C26 C -1.0845(4) 0.8764(4) -1.0057(5)
H29 H -1.1050 0.9531 -0.9905
H30 H -1.1000 0.8626 -1.0938
C27 C -1.1311(3) 0.6879(3) -0.9644(4)
H31 H -1.1456 0.6737 -1.0525
H32 H -1.1840 0.6384 -0.9226
C28 C -0.9942(3) 0.6669(3) -0.9195(3)
H33 H -0.9884 0.6097 -0.8566
H34 H -0.9505 0.6411 -0.9878
O9 O -0.7096(3) 0.6226(3) -0.8423(3)
H35 H -0.785(3) 0.677(3) -0.832(3)
H36 H -0.652(3) 0.636(3) -0.796(3)
O10 O -1.2850(5) 0.0639(6) -0.7578(5)
loop_
_geom_bond_atom_site_label_1
_geom_bond_atom_site_label_2
_geom_bond_site_symmetry_1
_geom_bond_site_symmetry_2
O1 C7 1_555 1_555
O2 C7 1_555 1_555
O3 H1 1_555 1_555
O4 C8 1_555 1_555
O5 C15 1_555 1_555
O6 C15 1_555 1_555
O7 C16 1_555 1_555
O8 H2 1_555 1_555
C1 C2 1_555 1_555
C2 C3 1_555 1_555
C3 H3 1_555 1_555
C4 C3 1_555 1_555
H4 C4 1_555 1_555
C5 C4 1_555 1_555
H5 C5 1_555 1_555
C6 C1 1_555 1_555
C7 C2 1_555 1_555
C8 O3 1_555 1_555
C9 C1 1_555 1_555
C10 C9 1_555 1_555
C11 C10 1_555 1_555
H6 C11 1_555 1_555
C12 C11 1_555 1_555
H7 C12 1_555 1_555
C13 C12 1_555 1_555
H8 C13 1_555 1_555
C14 C9 1_555 1_555
C15 C10 1_555 1_555
C16 O8 1_555 1_555
N1 H9 1_555 1_555
N2 C18 1_555 1_555
C17 N1 1_555 1_555
H10 C17 1_555 1_555
H11 C17 1_555 1_555
C18 C17 1_555 1_555
H12 C18 1_555 1_555
H13 C18 1_555 1_555
C19 N2 1_555 1_555
H14 C19 1_555 1_555
H15 C19 1_555 1_555
C20 N1 1_555 1_555
H16 C20 1_555 1_555
H17 C20 1_555 1_555
C21 N1 1_555 1_555
H18 C21 1_555 1_555
H19 C21 1_555 1_555
C22 N2 1_555 1_555
H20 C22 1_555 1_555
H21 C22 1_555 1_555
N3 H22 1_555 1_555
N4 C24 1_555 1_555
C23 N3 1_555 1_555
H23 C23 1_555 1_555
H24 C23 1_555 1_555
C24 C23 1_555 1_555
H25 C24 1_555 1_555
H26 C24 1_555 1_555
C25 N4 1_555 1_555
H27 C25 1_555 1_555
H28 C25 1_555 1_555
C26 N3 1_555 1_555
H29 C26 1_555 1_555
H30 C26 1_555 1_555
C27 N3 1_555 1_555
H31 C27 1_555 1_555
H32 C27 1_555 1_555
C28 N4 1_555 1_555
H33 C28 1_555 1_555
H34 C28 1_555 1_555
O9 H35 1_555 1_555
H36 O9 1_555 1_555
C5 C6 1_555 1_555
C6 C8 1_555 1_555
C13 C14 1_555 1_555
C14 C16 1_555 1_555
C19 C20 1_555 1_555
C21 C22 1_555 1_555
C25 C26 1_555 1_555
C27 C28 1_555 1_555

#END
