
#######################################################################
#
#                 Cambridge Crystallographic Data Centre
#                                CCDC 
#
#######################################################################
#
# If this CIF has been generated from an entry in the Cambridge 
# Structural Database, then it will include bibliographic, chemical, 
# crystal, experimental, refinement or atomic coordinate data resulting 
# from the CCDC's data processing and validation procedures.
#
#######################################################################

data_HISRUY
_chemical_formula_moiety         'C16 H10 O8,C6 H12 N2 O2'
_chemical_name_systematic        
"biphenyl-2,2',6,6'-tetracarboxylic acid 1,4-diazabicyclo[2.2.2]octane 1,4-dioxide"
_symmetry_cell_setting           monoclinic
_symmetry_space_group_name_H-M   'C 2/c'
_symmetry_Int_Tables_number      15
_space_group_name_Hall           '-C 2yn'
loop_
_symmetry_equiv_pos_site_id
_symmetry_equiv_pos_as_xyz
1 x,y,z
2 -x,y,1/2-z
3 1/2+x,1/2+y,z
4 1/2-x,1/2+y,1/2-z
5 -x,-y,-z
6 x,-y,1/2+z
7 1/2-x,1/2-y,-z
8 1/2+x,1/2-y,1/2+z
_cell_length_a                   9.0201(10)
_cell_length_b                   19.393(2)
_cell_length_c                   12.3734(14)
_cell_angle_alpha                90
_cell_angle_beta                 95.672(3)
_cell_angle_gamma                90
_cell_volume                     2153.84
_exptl_crystal_colour            colorless
_exptl_crystal_description       block
_cell_formula_units_Z            4
loop_
_atom_site_label
_atom_site_type_symbol
_atom_site_fract_x
_atom_site_fract_y
_atom_site_fract_z
O1 O -0.1029(3) 0.45545(13) 0.64034(19)
H1 H -0.209(4) 0.4819(15) 0.610(2)
O2 O -0.1587(3) 0.39007(14) 0.5010(3)
O3 O 0.1020(3) 0.21683(13) 0.8824(2)
O4 O 0.3415(3) 0.21579(14) 0.8665(2)
H2 H 0.337(3) 0.1856(18) 0.926(3)
C1 C 0.0633(3) 0.32288(12) 0.7150(2)
C2 C 0.0537(3) 0.36134(12) 0.6188(2)
C3 C 0.1934(3) 0.28332(12) 0.7413(2)
C4 C 0.1680(3) 0.35990(16) 0.5522(2)
H3 H 0.1595 0.3854 0.4882
C5 C -0.0802(3) 0.40385(12) 0.5831(2)
C6 C 0.2941(4) 0.32121(17) 0.5791(3)
H4 H 0.3704 0.3206 0.5338
C7 C 0.3064(3) 0.28365(15) 0.6732(3)
H5 H 0.3921 0.2579 0.6918
C8 C 0.2052(3) 0.23647(14) 0.8373(3)
O1A O 0.1029(3) 0.45545(13) 0.85966(19)
H1A H 0.209(4) 0.4819(15) 0.890(2)
O2A O 0.1587(3) 0.39007(14) 0.9990(3)
O3A O -0.1020(3) 0.21683(13) 0.6176(2)
O4A O -0.3415(3) 0.21579(14) 0.6335(2)
H2A H -0.337(3) 0.1856(18) 0.574(3)
C1A C -0.0633(3) 0.32288(12) 0.7850(2)
C2A C -0.0537(3) 0.36134(12) 0.8812(2)
C3A C -0.1934(3) 0.28332(12) 0.7587(2)
C4A C -0.1680(3) 0.35990(16) 0.9478(2)
H3A H -0.1595 0.3854 1.0118
C5A C 0.0802(3) 0.40385(12) 0.9169(2)
C6A C -0.2941(4) 0.32121(17) 0.9209(3)
H4A H -0.3704 0.3206 0.9662
C7A C -0.3064(3) 0.28365(15) 0.8268(3)
H5A H -0.3921 0.2579 0.8082
C8A C -0.2052(3) 0.23647(14) 0.6627(3)
N1 N -0.4142(3) 0.52245(11) 0.67528(19)
O5 O -0.3242(3) 0.52449(12) 0.59095(18)
C9 C -0.5798(7) 0.5418(3) 0.6311(4)
H6 H -0.5840 0.5757 0.5732
H7 H -0.6386 0.5017 0.6077
C10 C -0.3743(9) 0.5731(4) 0.7586(6)
H8 H -0.4269 0.6160 0.7418
H9 H -0.2681 0.5821 0.7642
C11 C -0.4492(6) 0.4519(2) 0.7044(6)
H10 H -0.3579 0.4274 0.7277
H11 H -0.4980 0.4284 0.6415
N1A N -0.5858(3) 0.52245(11) 0.82472(19)
O5A O -0.6758(3) 0.52449(12) 0.90905(18)
C9A C -0.4202(7) 0.5418(3) 0.8689(4)
H6A H -0.4160 0.5757 0.9268
H7A H -0.3614 0.5017 0.8923
C10A C -0.6257(9) 0.5731(4) 0.7414(6)
H8A H -0.5731 0.6160 0.7582
H9A H -0.7319 0.5821 0.7358
C11A C -0.5508(6) 0.4519(2) 0.7956(6)
H10A H -0.6421 0.4274 0.7723
H11A H -0.5020 0.4284 0.8585
C12? C -0.3148(7) 0.5419(3) 0.7791(5)
H12? H -0.2409 0.5767 0.7670
H13? H -0.2681 0.5024 0.8165
C13? C -0.5194(8) 0.5777(4) 0.6521(6)
H14? H -0.5439 0.5840 0.5746
H15? H -0.4833 0.6208 0.6846
loop_
_geom_bond_atom_site_label_1
_geom_bond_atom_site_label_2
_geom_bond_site_symmetry_1
_geom_bond_site_symmetry_2
O1 H1 1_555 1_555
O2 C5 1_555 1_555
O3 C8 1_555 1_555
O4 H2 1_555 1_555
C1 C2 1_555 1_555
C2 C4 1_555 1_555
C3 C1 1_555 1_555
C4 H3 1_555 1_555
C5 O1 1_555 1_555
C6 C4 1_555 1_555
H4 C6 1_555 1_555
C7 C3 1_555 1_555
H5 C7 1_555 1_555
C8 O4 1_555 1_555
N1 O5 1_555 1_555
C9 N1 1_555 1_555
H6 C9 1_555 1_555
H7 C9 1_555 1_555
C10 N1 1_555 1_555
H8 C10 1_555 1_555
H9 C10 1_555 1_555
C11 N1 1_555 1_555
H10 C11 1_555 1_555
H11 C11 1_555 1_555
O1A H1A 1_555 1_555
O2A C5A 1_555 1_555
O3A C8A 1_555 1_555
O4A H2A 1_555 1_555
C1A C1 1_555 1_555
C2A C1A 1_555 1_555
C3A C1A 1_555 1_555
C4A C2A 1_555 1_555
H3A C4A 1_555 1_555
C5A O1A 1_555 1_555
C6A C4A 1_555 1_555
H4A C6A 1_555 1_555
C7A C3A 1_555 1_555
H5A C7A 1_555 1_555
C8A O4A 1_555 1_555
N1A O5A 1_555 1_555
C9A C10 1_555 1_555
H6A C9A 1_555 1_555
H7A C9A 1_555 1_555
C10A C9 1_555 1_555
H8A C10A 1_555 1_555
H9A C10A 1_555 1_555
C11A C11 1_555 1_555
H10A C11A 1_555 1_555
H11A C11A 1_555 1_555
C2 C5 1_555 1_555
C3 C8 1_555 1_555
C6 C7 1_555 1_555
C2A C5A 1_555 1_555
C3A C8A 1_555 1_555
C6A C7A 1_555 1_555
N1A C9A 1_555 1_555
N1A C10A 1_555 1_555
N1A C11A 1_555 1_555

#END
