
#######################################################################
#
#                 Cambridge Crystallographic Data Centre
#                                CCDC 
#
#######################################################################
#
# If this CIF has been generated from an entry in the Cambridge 
# Structural Database, then it will include bibliographic, chemical, 
# crystal, experimental, refinement or atomic coordinate data resulting 
# from the CCDC's data processing and validation procedures.
#
#######################################################################

data_HISROS
_chemical_formula_moiety         'C16 H10 O8,C10 H8 N2 O2'
_chemical_name_systematic        
"Biphenyl-2,2',6,6'-tetracarboxylic acid 4,4'-bipyridine 1,1'-dioxide"
_symmetry_cell_setting           monoclinic
_symmetry_space_group_name_H-M   'P 21/c'
_symmetry_Int_Tables_number      14
_space_group_name_Hall           '-P 2ybc'
loop_
_symmetry_equiv_pos_site_id
_symmetry_equiv_pos_as_xyz
1 x,y,z
2 -x,1/2+y,1/2-z
3 -x,-y,-z
4 x,1/2-y,1/2+z
_cell_length_a                   31.797(9)
_cell_length_b                   7.950(2)
_cell_length_c                   18.717(6)
_cell_angle_alpha                90
_cell_angle_beta                 102.685(10)
_cell_angle_gamma                90
_cell_volume                     4615.91
_exptl_crystal_colour            colorless
_exptl_crystal_description       block
_cell_formula_units_Z            8
loop_
_atom_site_label
_atom_site_type_symbol
_atom_site_fract_x
_atom_site_fract_y
_atom_site_fract_z
O1 O 0.01073(15) 0.4595(6) 0.3659(3)
O2 O -0.25622(15) -0.0567(7) 0.1110(3)
N1 N -0.21762(19) 0.0040(7) 0.1487(4)
N2 N -0.02584(18) 0.3859(8) 0.3308(3)
C1 C -0.2153(2) 0.0692(10) 0.2139(4)
H1 H -0.2393 0.0674 0.2346
C2 C -0.1773(2) 0.1405(9) 0.2517(4)
H2 H -0.1758 0.1870 0.2978
C3 C -0.1407(2) 0.1432(8) 0.2208(4)
C4 C -0.1448(2) 0.0650(9) 0.1555(4)
H3 H -0.1208 0.0579 0.1349
C5 C -0.1837(2) -0.0058(8) 0.1172(4)
H4 H -0.1859 -0.0573 0.0719
C6 C -0.0243(2) 0.2743(10) 0.2780(4)
H5 H 0.0017 0.2549 0.2643
C7 C -0.0611(2) 0.1866(9) 0.2432(4)
H6 H -0.0592 0.1020 0.2097
C8 C -0.1015(2) 0.2274(9) 0.2592(3)
C9 C -0.1015(2) 0.3456(8) 0.3129(4)
H7 H -0.1275 0.3733 0.3253
C10 C -0.0636(2) 0.4254(9) 0.3493(4)
H8 H -0.0643 0.5043 0.3857
O3 O 0.50273(15) 0.6081(7) 0.3539(3)
N3 N 0.46542(19) 0.5234(7) 0.3283(4)
C11 C 0.4563(2) 0.4736(11) 0.2592(4)
H9 H 0.4754 0.4962 0.2293
C12 C 0.4185(2) 0.3880(10) 0.2316(4)
H10 H 0.4121 0.3549 0.1827
C13 C 0.3903(2) 0.3513(8) 0.2749(4)
C14 C 0.4017(2) 0.4011(9) 0.3461(4)
H11 H 0.3834 0.3760 0.3771
C15 C 0.4397(3) 0.4884(9) 0.3741(4)
H12 H 0.4469 0.5212 0.4230
N4 N 0.2756(2) 0.0786(8) 0.1923(4)
O4 O 0.23976(16) -0.0137(6) 0.1673(3)
C16 C 0.2797(3) 0.1677(12) 0.2513(5)
H13 H 0.2572 0.1692 0.2757
C17 C 0.3165(3) 0.2613(11) 0.2796(4)
H14 H 0.3185 0.3243 0.3221
C18 C 0.3502(2) 0.2593(8) 0.2436(4)
C19 C 0.3437(2) 0.1720(9) 0.1812(4)
H15 H 0.3655 0.1721 0.1551
C20 C 0.3065(3) 0.0809(9) 0.1526(4)
H16 H 0.3029 0.0240 0.1082
O5 O 0.3084(2) 0.7706(11) 0.8164(4)
O6 O 0.31957(17) 0.8370(8) 0.9324(3)
O7 O 0.4335(4) 0.3801(19) 1.0795(4)
O8 O 0.47279(18) 0.2796(7) 1.0227(3)
C21 C 0.3868(2) 0.5778(8) 0.9600(3)
C22 C 0.3688(2) 0.6590(8) 0.8947(4)
C23 C 0.3876(3) 0.6443(10) 0.8354(4)
H17 H 0.3742 0.6947 0.7914
C24 C 0.4247(3) 0.5591(11) 0.8390(4)
H18 H 0.4385 0.5602 0.7999
C25 C 0.4419(2) 0.4703(9) 0.9022(4)
H19 H 0.4664 0.4048 0.9044
C26 C 0.4231(2) 0.4773(8) 0.9624(3)
C27 C 0.3292(3) 0.7605(12) 0.8792(5)
C28 C 0.4434(3) 0.3744(12) 1.0284(4)
O9 O 0.3339(3) 0.2938(13) 0.9429(5)
O10 O 0.27879(19) 0.2994(9) 0.9813(3)
O11 O 0.43577(19) 0.8439(8) 1.0279(3)
O12 O 0.43222(18) 0.9117(8) 1.1386(3)
C29 C 0.3667(2) 0.5932(9) 1.0242(3)
C30 C 0.3307(2) 0.4990(9) 1.0311(4)
C31 C 0.3105(2) 0.5245(9) 1.0872(4)
H20 H 0.2863 0.4608 1.0897
C32 C 0.3248(3) 0.6393(10) 1.1382(4)
H21 H 0.3103 0.6568 1.1757
C33 C 0.3608(2) 0.7322(10) 1.1361(4)
H22 H 0.3713 0.8081 1.1735
C34 C 0.3820(2) 0.7149(9) 1.0788(3)
C35 C 0.3140(3) 0.3589(12) 0.9786(4)
C36 C 0.4198(3) 0.8244(11) 1.0780(4)
O13 O 0.1824(2) 0.2704(10) 0.5398(4)
O14 O 0.17264(18) 0.3214(7) 0.6463(3)
O15 O 0.0776(2) -0.2383(11) 0.4146(4)
O16 O 0.02880(19) -0.3033(7) 0.4678(3)
C37 C 0.1122(2) 0.0212(8) 0.5197(3)
C38 C 0.1231(2) 0.1326(8) 0.5763(3)
C39 C 0.0975(2) 0.1575(9) 0.6250(3)
H23 H 0.1064 0.2317 0.6638
C40 C 0.0586(3) 0.0747(9) 0.6178(4)
H24 H 0.0402 0.0979 0.6489
C41 C 0.0479(2) -0.0435(9) 0.5629(4)
H25 H 0.0225 -0.1045 0.5585
C42 C 0.0741(2) -0.0732(8) 0.5144(3)
C43 C 0.1626(2) 0.2378(11) 0.5882(5)
C44 C 0.0612(2) -0.2052(10) 0.4612(4)
O17 O 0.07769(17) 0.2114(8) 0.3036(3)
O18 O 0.07420(16) 0.2542(7) 0.4178(3)
O19 O 0.22553(18) -0.2816(9) 0.5562(4)
O20 O 0.16278(19) -0.2535(8) 0.5793(3)
C45 C 0.1396(2) -0.0019(8) 0.4629(3)
C46 C 0.1313(2) 0.0826(9) 0.3965(4)
C47 C 0.1585(3) 0.0716(10) 0.3489(4)
H26 H 0.1511 0.1238 0.3034
C48 C 0.1967(3) -0.0165(10) 0.3682(5)
H27 H 0.2165 -0.0154 0.3382
C49 C 0.2049(2) -0.1040(10) 0.4313(4)
H28 H 0.2297 -0.1693 0.4431
C50 C 0.1773(2) -0.0994(9) 0.4789(3)
C51 C 0.0915(2) 0.1916(10) 0.3693(4)
C52 C 0.1870(2) -0.2102(10) 0.5424(4)
loop_
_geom_bond_atom_site_label_1
_geom_bond_atom_site_label_2
_geom_bond_site_symmetry_1
_geom_bond_site_symmetry_2
O1 N2 1_555 1_555
O2 N1 1_555 1_555
N1 C1 1_555 1_555
N2 C6 1_555 1_555
C1 H1 1_555 1_555
C2 C1 1_555 1_555
H2 C2 1_555 1_555
C3 C2 1_555 1_555
C4 C3 1_555 1_555
H3 C4 1_555 1_555
C5 N1 1_555 1_555
H4 C5 1_555 1_555
C6 H5 1_555 1_555
C7 C6 1_555 1_555
H6 C7 1_555 1_555
C8 C3 1_555 1_555
C9 C8 1_555 1_555
H7 C9 1_555 1_555
C10 N2 1_555 1_555
H8 C10 1_555 1_555
O3 N3 1_555 1_555
N3 C11 1_555 1_555
C11 H9 1_555 1_555
C12 C11 1_555 1_555
H10 C12 1_555 1_555
C13 C12 1_555 1_555
C14 C13 1_555 1_555
H11 C14 1_555 1_555
C15 N3 1_555 1_555
H12 C15 1_555 1_555
N4 O4 1_555 1_555
C16 N4 1_555 1_555
H13 C16 1_555 1_555
C17 C16 1_555 1_555
H14 C17 1_555 1_555
C18 C13 1_555 1_555
C19 C18 1_555 1_555
H15 C19 1_555 1_555
C20 N4 1_555 1_555
H16 C20 1_555 1_555
O5 C27 1_555 1_555
O6 C27 1_555 1_555
O7 C28 1_555 1_555
O8 C28 1_555 1_555
C21 C22 1_555 1_555
C22 C23 1_555 1_555
C23 H17 1_555 1_555
C24 C23 1_555 1_555
H18 C24 1_555 1_555
C25 C24 1_555 1_555
H19 C25 1_555 1_555
C26 C21 1_555 1_555
C27 C22 1_555 1_555
C28 C26 1_555 1_555
O9 C35 1_555 1_555
O10 C35 1_555 1_555
O11 C36 1_555 1_555
O12 C36 1_555 1_555
C29 C21 1_555 1_555
C30 C29 1_555 1_555
C31 C30 1_555 1_555
H20 C31 1_555 1_555
C32 C31 1_555 1_555
H21 C32 1_555 1_555
C33 C32 1_555 1_555
H22 C33 1_555 1_555
C34 C29 1_555 1_555
C35 C30 1_555 1_555
C36 C34 1_555 1_555
O13 C43 1_555 1_555
O14 C43 1_555 1_555
O15 C44 1_555 1_555
O16 C44 1_555 1_555
C37 C38 1_555 1_555
C38 C39 1_555 1_555
C39 H23 1_555 1_555
C40 C39 1_555 1_555
H24 C40 1_555 1_555
C41 C40 1_555 1_555
H25 C41 1_555 1_555
C42 C37 1_555 1_555
C43 C38 1_555 1_555
C44 C42 1_555 1_555
O17 C51 1_555 1_555
O18 C51 1_555 1_555
O19 C52 1_555 1_555
O20 C52 1_555 1_555
C45 C37 1_555 1_555
C46 C45 1_555 1_555
C47 C46 1_555 1_555
H26 C47 1_555 1_555
C48 C47 1_555 1_555
H27 C48 1_555 1_555
C49 C48 1_555 1_555
H28 C49 1_555 1_555
C50 C45 1_555 1_555
C51 C46 1_555 1_555
C52 C50 1_555 1_555
C4 C5 1_555 1_555
C7 C8 1_555 1_555
C9 C10 1_555 1_555
C14 C15 1_555 1_555
C17 C18 1_555 1_555
C19 C20 1_555 1_555
C25 C26 1_555 1_555
C33 C34 1_555 1_555
C41 C42 1_555 1_555
C49 C50 1_555 1_555

#END
