
#######################################################################
#
#                 Cambridge Crystallographic Data Centre
#                                CCDC 
#
#######################################################################
#
# If this CIF has been generated from an entry in the Cambridge 
# Structural Database, then it will include bibliographic, chemical, 
# crystal, experimental, refinement or atomic coordinate data resulting 
# from the CCDC's data processing and validation procedures.
#
#######################################################################

data_HISSAD
_chemical_formula_moiety         'C19 H24 O2'
_chemical_name_systematic        
1,1-bis(2-Hydroxy-5-methylphenyl)-2,2-dimethylpropane
_symmetry_cell_setting           triclinic
_symmetry_space_group_name_H-M   'P -1'
_symmetry_Int_Tables_number      2
_space_group_name_Hall           '-P 1'
loop_
_symmetry_equiv_pos_site_id
_symmetry_equiv_pos_as_xyz
1 x,y,z
2 -x,-y,-z
_cell_length_a                   7.993(1)
_cell_length_b                   8.566(1)
_cell_length_c                   12.85(1)
_cell_angle_alpha                93.60(1)
_cell_angle_beta                 98.92(1)
_cell_angle_gamma                107.54(1)
_cell_volume                     823.142
_exptl_crystal_colour            colorless
_exptl_crystal_description       block
_cell_formula_units_Z            2
_exptl_crystal_recrystallization_method chloroform/n-hexane
loop_
_atom_site_label
_atom_site_type_symbol
_atom_site_fract_x
_atom_site_fract_y
_atom_site_fract_z
O1 O 0.11604(16) 0.60879(14) 0.88314(8)
O2 O 0.09962(14) 0.30579(14) 0.98997(8)
C1 C 0.26169(16) 0.36364(16) 0.81183(10)
C2 C 0.42677(18) 0.30214(18) 0.80515(11)
C3 C 0.4067(2) 0.17942(19) 0.70930(12)
C4 C 0.5921(2) 0.4524(2) 0.80852(15)
C5 C 0.4545(2) 0.2161(3) 0.90473(14)
C6 C 0.15503(18) 0.60667(17) 0.78213(11)
C7 C 0.22787(16) 0.49127(15) 0.74162(10)
C8 C 0.25824(17) 0.50150(16) 0.63815(10)
C9 C 0.22277(19) 0.61889(17) 0.57614(12)
C10 C 0.1528(2) 0.73077(19) 0.62064(14)
C11 C 0.1187(2) 0.72521(19) 0.72223(14)
C12 C 0.2592(2) 0.6231(2) 0.46477(13)
C13 C 0.01335(18) 0.19767(17) 0.89968(10)
C14 C 0.08715(16) 0.22536(15) 0.80850(10)
C15 C -0.00849(17) 0.12633(16) 0.71531(11)
C16 C -0.16629(19) -0.00136(17) 0.71147(12)
C17 C -0.2289(2) -0.02965(18) 0.80545(14)
C18 C -0.1411(2) 0.06904(19) 0.89868(13)
C19 C -0.2663(3) -0.1048(2) 0.60843(15)
H1 H 0.1219 0.5241 0.9077
H2 H 0.0344 0.2935 1.0342
H3 H 0.2882 0.4205 0.8839
H4 H 0.3858 0.2286 0.6455
H5 H 0.3077 0.0824 0.7097
H6 H 0.5139 0.1499 0.7123
H7 H 0.6021 0.5315 0.8674
H8 H 0.5808 0.5016 0.7438
H9 H 0.6968 0.4182 0.8165
H10 H 0.4686 0.2908 0.9667
H11 H 0.5594 0.1831 0.9069
H12 H 0.3526 0.1207 0.9028
H13 H 0.3049 0.4254 0.6089
H14 H 0.1283 0.8112 0.5812
H15 H 0.0711 0.8012 0.7507
H16 H 0.3265 0.5502 0.4524
H17 H 0.3262 0.7334 0.4555
H18 H 0.1482 0.5886 0.4154
H22 H 0.0351 0.1465 0.6528
H23 H -0.3319 -0.1167 0.8056
H24 H -0.1857 0.0492 0.9609
H25 H -0.1893 -0.0896 0.5570
H26 H -0.3684 -0.0717 0.5829
H27 H -0.3049 -0.2188 0.6198
H19? H 0.2074 0.6979 0.4298
H20? H 0.2077 0.5147 0.4267
H21? H 0.3857 0.6595 0.4668
H28? H -0.3858 -0.1638 0.6162
H29? H -0.2067 -0.1818 0.5902
H30? H -0.2702 -0.0346 0.5533
loop_
_geom_bond_atom_site_label_1
_geom_bond_atom_site_label_2
_geom_bond_site_symmetry_1
_geom_bond_site_symmetry_2
O1 C6 1_555 1_555
O2 C13 1_555 1_555
C1 C2 1_555 1_555
C2 C3 1_555 1_555
C3 H4 1_555 1_555
C4 C2 1_555 1_555
C5 C2 1_555 1_555
C6 C7 1_555 1_555
C7 C1 1_555 1_555
C8 C7 1_555 1_555
C9 C8 1_555 1_555
C10 C9 1_555 1_555
C11 C6 1_555 1_555
C12 C9 1_555 1_555
C13 C14 1_555 1_555
C14 C1 1_555 1_555
C15 C14 1_555 1_555
C16 C15 1_555 1_555
C17 C16 1_555 1_555
C18 C13 1_555 1_555
C19 C16 1_555 1_555
H1 O1 1_555 1_555
H2 O2 1_555 1_555
H3 C1 1_555 1_555
H5 C3 1_555 1_555
H6 C3 1_555 1_555
H7 C4 1_555 1_555
H8 C4 1_555 1_555
H9 C4 1_555 1_555
H10 C5 1_555 1_555
H11 C5 1_555 1_555
H12 C5 1_555 1_555
H13 C8 1_555 1_555
H14 C10 1_555 1_555
H15 C11 1_555 1_555
H16 C12 1_555 1_555
H17 C12 1_555 1_555
H18 C12 1_555 1_555
H22 C15 1_555 1_555
H23 C17 1_555 1_555
H24 C18 1_555 1_555
H25 C19 1_555 1_555
H26 C19 1_555 1_555
H27 C19 1_555 1_555
C10 C11 1_555 1_555
C17 C18 1_555 1_555

#END
