
#######################################################################
#
#                 Cambridge Crystallographic Data Centre
#                                CCDC 
#
#######################################################################
#
# If this CIF has been generated from an entry in the Cambridge 
# Structural Database, then it will include bibliographic, chemical, 
# crystal, experimental, refinement or atomic coordinate data resulting 
# from the CCDC's data processing and validation procedures.
#
#######################################################################

data_HISTCM13
_chemical_formula_moiety         'C6 H10 N3 O2 1+,Cl1 1-,H2 O1'
_chemical_name_systematic        'L-Histidine hydrochloride monohydrate'
_symmetry_cell_setting           orthorhombic
_symmetry_space_group_name_H-M   'P 21 21 21'
_symmetry_Int_Tables_number      19
_space_group_name_Hall           'P 2ac 2ab'
loop_
_symmetry_equiv_pos_site_id
_symmetry_equiv_pos_as_xyz
1 x,y,z
2 1/2-x,-y,1/2+z
3 1/2+x,1/2-y,-z
4 -x,1/2+y,1/2-z
_cell_length_a                   6.8517(13)
_cell_length_b                   8.9265(17)
_cell_length_c                   15.297(3)
_cell_angle_alpha                90
_cell_angle_beta                 90
_cell_angle_gamma                90
_cell_volume                     935.591
_exptl_crystal_colour            colorless
_cell_formula_units_Z            4
loop_
_atom_site_label
_atom_site_type_symbol
_atom_site_fract_x
_atom_site_fract_y
_atom_site_fract_z
O1 O 0.2893(6) 0.0671(4) 0.0342(2)
O2 O 0.3562(6) -0.0129(5) 0.1709(3)
N1 N -0.1371(8) -0.3245(5) 0.0803(3)
N2 N -0.3119(7) -0.1436(5) 0.1341(3)
N3 N -0.0335(6) 0.2142(5) 0.0796(3)
C1 C -0.1193(8) -0.1110(6) 0.1508(3)
C2 C -0.0121(8) -0.2245(6) 0.1182(4)
C3 C -0.3162(8) -0.2744(6) 0.0913(4)
C4 C -0.0610(7) 0.0261(6) 0.2004(3)
C5 C 0.0732(8) 0.1333(6) 0.1511(3)
C6 C 0.2561(8) 0.0565(5) 0.1139(4)
Cl1 Cl 0.2804(23) 0.4771(1) 0.0744(1)
O3 O 0.3430(7) -0.1507(5) 0.3309(3)
loop_
_geom_bond_atom_site_label_1
_geom_bond_atom_site_label_2
_geom_bond_site_symmetry_1
_geom_bond_site_symmetry_2
O1 C6 1_555 1_555
O2 C6 1_555 1_555
N1 C2 1_555 1_555
N2 C1 1_555 1_555
N3 C5 1_555 1_555
C1 C2 1_555 1_555
C3 N1 1_555 1_555
C4 C1 1_555 1_555
C5 C4 1_555 1_555
C6 C5 1_555 1_555
N2 C3 1_555 1_555

#END
