
#######################################################################
#
#                 Cambridge Crystallographic Data Centre
#                                CCDC 
#
#######################################################################
#
# If this CIF has been generated from an entry in the Cambridge 
# Structural Database, then it will include bibliographic, chemical, 
# crystal, experimental, refinement or atomic coordinate data resulting 
# from the CCDC's data processing and validation procedures.
#
#######################################################################

data_HISWUE01
_chemical_formula_moiety         'C20 H19 N5 1+,F6 P1 1-'
_chemical_name_systematic        
'6-(1-methylpyridin-1-ium-2-yl)-2,4-diphenyl-3,4-dihydro-1,2,4,5-tetrazin-1(2H)-yl radical hexafluorophosphate'
_symmetry_cell_setting           triclinic
_symmetry_space_group_name_H-M   'P -1'
_symmetry_Int_Tables_number      2
_space_group_name_Hall           '-P 1'
loop_
_symmetry_equiv_pos_site_id
_symmetry_equiv_pos_as_xyz
1 x,y,z
2 -x,-y,-z
_cell_length_a                   10.685(13)
_cell_length_b                   11.537(14)
_cell_length_c                   15.79(2)
_cell_angle_alpha                93.72(3)
_cell_angle_beta                 101.565(14)
_cell_angle_gamma                92.84(3)
_cell_volume                     1899.04
_exptl_crystal_colour            black
_cell_formula_units_Z            4
_exptl_crystal_recrystallization_method acetonitrile
_exptl_crystal_preparation       'Magnetic properties'
loop_
_atom_site_label
_atom_site_type_symbol
_atom_site_fract_x
_atom_site_fract_y
_atom_site_fract_z
C1 C -1.0968(3) 0.0810(2) 0.9196(2)
C2 C -1.0594(3) -0.0219(3) 0.8842(2)
H1 H -0.9764 -0.0249 0.8714
C3 C -1.1434(3) -0.1204(2) 0.8676(2)
H2 H -1.1179 -0.1907 0.8434
C4 C -1.2648(3) -0.1160(2) 0.8864(2)
H3 H -1.3222 -0.1833 0.8750
C5 C -1.3022(3) -0.0131(3) 0.9218(2)
H4 H -1.3852 -0.0101 0.9347
C6 C -1.2182(3) 0.0854(2) 0.9384(2)
H5 H -1.2438 0.1557 0.9626
C7 C -0.9264(3) 0.4206(3) 1.09920(18)
C8 C -1.0410(3) 0.4516(3) 1.1203(2)
H6 H -1.1201 0.4203 1.0857
C9 C -1.0400(3) 0.5284(3) 1.1920(2)
H7 H -1.1183 0.5496 1.2065
C10 C -0.9242(3) 0.5743(3) 1.24265(19)
H8 H -0.9235 0.6267 1.2917
C11 C -0.8095(3) 0.5433(3) 1.2215(2)
H9 H -0.7304 0.5746 1.2561
C12 C -0.8106(3) 0.4665(3) 1.1498(2)
H10 H -0.7322 0.4453 1.1354
N1 N -0.9042(4) 0.1757(4) 0.9044(3)
N2 N -0.8185(4) 0.3460(4) 0.9962(3)
N3 N -1.0089(4) 0.1776(4) 0.9384(3)
N4 N -0.9258(4) 0.3462(4) 1.0268(3)
C13 C -0.6317(5) 0.3794(5) 0.9060(4)
H11 H -0.6628 0.4455 0.9322
C14 C -0.8169(5) 0.2622(4) 0.9335(3)
N5 N -0.6534(5) 0.1812(4) 0.8593(3)
C15 C -0.7009(5) 0.2743(5) 0.8988(3)
C16 C -0.7128(5) 0.0641(5) 0.8499(4)
H12 H -0.6561 0.0098 0.8290
H13 H -0.7946 0.0609 0.8083
H14 H -0.7279 0.0424 0.9062
C17 C -0.5443(5) 0.1957(5) 0.8287(4)
H15 H -0.5140 0.1310 0.8003
C18 C -1.0430(5) 0.2863(4) 0.9762(4)
H16 H -1.1046 0.2711 1.0139
H17 H -1.0831 0.3348 0.9300
C19 C -0.4779(6) 0.2992(5) 0.8376(4)
H18 H -0.4011 0.3073 0.8163
C20 C -0.5217(6) 0.3926(5) 0.8776(4)
H19 H -0.4751 0.4661 0.8852
C21 C -0.6636(3) 0.4766(3) 0.4271(2)
H20 H -0.7231 0.4756 0.4645
C22 C -0.5889(3) 0.5777(2) 0.4238(2)
C23 C -0.5019(3) 0.5792(2) 0.3692(2)
H21 H -0.4508 0.6483 0.3669
C24 C -0.4895(3) 0.4796(3) 0.3178(2)
H22 H -0.4300 0.4806 0.2805
C25 C -0.5642(3) 0.3785(2) 0.3212(2)
H23 H -0.5558 0.3104 0.2861
C26 C -0.6513(3) 0.3770(2) 0.3758(2)
H24 H -0.7023 0.3079 0.3780
C27 C -0.4077(3) 0.9270(2) 0.5944(2)
C28 C -0.3970(3) 0.9805(3) 0.6772(2)
H25 H -0.4576 0.9602 0.7112
C29 C -0.2977(3) 1.0637(3) 0.71029(17)
H26 H -0.2904 1.1003 0.7669
C30 C -0.2090(3) 1.0934(3) 0.6606(2)
H27 H -0.1411 1.1502 0.6832
C31 C -0.2196(3) 1.0399(3) 0.5778(2)
H28 H -0.1590 1.0602 0.5439
C32 C -0.3190(3) 0.9567(3) 0.54472(16)
H29 H -0.3262 0.9201 0.4881
N6 N -0.6005(4) 0.6762(4) 0.4766(3)
N7 N -0.8963(4) 0.6925(4) 0.6182(3)
N8 N -0.7043(4) 0.6772(4) 0.5123(3)
C33 C -0.8167(5) 0.7813(4) 0.6086(3)
C34 C -0.8443(5) 0.8931(5) 0.6342(3)
H30 H -0.7876 0.9573 0.6295
N9 N -0.6105(4) 0.8496(4) 0.6000(3)
N10 N -0.5094(4) 0.8452(4) 0.5622(3)
C35 C -0.8719(5) 0.5710(4) 0.5990(4)
H31 H -0.8866 0.5538 0.5361
H32 H -0.9297 0.5200 0.6231
H33 H -0.7830 0.5576 0.6249
C36 C -0.7034(5) 0.7665(5) 0.5705(3)
C37 C -0.5196(5) 0.7815(4) 0.4785(3)
H34 H -0.5573 0.8297 0.4315
H35 H -0.4336 0.7615 0.4701
C38 C -1.0040(5) 0.7101(5) 0.6489(4)
H36 H -1.0592 0.6452 0.6546
C39 C -1.0343(6) 0.8195(5) 0.6718(4)
H37 H -1.1115 0.8312 0.6914
C40 C -0.9526(5) 0.9119(5) 0.6664(4)
H38 H -0.9703 0.9884 0.6845
P1 P -0.84423(14) 0.24155(12) 0.61599(9)
F1 F -0.9706(3) 0.3100(3) 0.5883(2)
F2 F -0.7889(3) 0.2911(3) 0.53821(19)
F3 F -0.7771(3) 0.3500(2) 0.67867(19)
F4 F -0.7169(3) 0.1727(2) 0.64332(19)
F5 F -0.8991(3) 0.1928(2) 0.6937(2)
F6 F -0.9101(3) 0.1323(2) 0.55335(19)
P2 P -0.63192(14) 0.73897(12) 0.87841(10)
F7 F -0.5915(3) 0.8103(3) 0.8048(2)
F8 F -0.5632(3) 0.8384(3) 0.9501(2)
F9 F -0.7002(3) 0.6387(3) 0.8075(2)
F10 F -0.5008(3) 0.6742(3) 0.8898(2)
F11 F -0.7636(3) 0.8024(3) 0.8679(2)
F12 F -0.6721(3) 0.6683(3) 0.9538(2)
loop_
_geom_bond_atom_site_label_1
_geom_bond_atom_site_label_2
_geom_bond_site_symmetry_1
_geom_bond_site_symmetry_2
C1 C2 1_555 1_555
C2 H1 1_555 1_555
C3 C2 1_555 1_555
H2 C3 1_555 1_555
C4 C3 1_555 1_555
H3 C4 1_555 1_555
C5 C4 1_555 1_555
H4 C5 1_555 1_555
C6 C1 1_555 1_555
H5 C6 1_555 1_555
C7 C8 1_555 1_555
C8 H6 1_555 1_555
C9 C8 1_555 1_555
H7 C9 1_555 1_555
C10 C9 1_555 1_555
H8 C10 1_555 1_555
C11 C10 1_555 1_555
H9 C11 1_555 1_555
C12 C7 1_555 1_555
H10 C12 1_555 1_555
N1 N3 1_555 1_555
N2 N4 1_555 1_555
N3 C1 1_555 1_555
N4 C7 1_555 1_555
C13 H11 1_555 1_555
C14 N1 1_555 1_555
N5 C15 1_555 1_555
C15 C13 1_555 1_555
C16 N5 1_555 1_555
H12 C16 1_555 1_555
H13 C16 1_555 1_555
H14 C16 1_555 1_555
C17 N5 1_555 1_555
H15 C17 1_555 1_555
C18 N3 1_555 1_555
H16 C18 1_555 1_555
H17 C18 1_555 1_555
C19 C17 1_555 1_555
H18 C19 1_555 1_555
C20 C13 1_555 1_555
H19 C20 1_555 1_555
C21 H20 1_555 1_555
C22 C21 1_555 1_555
C23 C22 1_555 1_555
H21 C23 1_555 1_555
C24 C23 1_555 1_555
H22 C24 1_555 1_555
C25 C24 1_555 1_555
H23 C25 1_555 1_555
C26 C21 1_555 1_555
H24 C26 1_555 1_555
C27 C28 1_555 1_555
C28 H25 1_555 1_555
C29 C28 1_555 1_555
H26 C29 1_555 1_555
C30 C29 1_555 1_555
H27 C30 1_555 1_555
C31 C30 1_555 1_555
H28 C31 1_555 1_555
C32 C27 1_555 1_555
H29 C32 1_555 1_555
N6 C22 1_555 1_555
N7 C33 1_555 1_555
N8 N6 1_555 1_555
C33 C34 1_555 1_555
C34 H30 1_555 1_555
N9 N10 1_555 1_555
N10 C27 1_555 1_555
C35 N7 1_555 1_555
H31 C35 1_555 1_555
H32 C35 1_555 1_555
H33 C35 1_555 1_555
C36 N8 1_555 1_555
C37 N6 1_555 1_555
H34 C37 1_555 1_555
H35 C37 1_555 1_555
C38 N7 1_555 1_555
H36 C38 1_555 1_555
C39 C38 1_555 1_555
H37 C39 1_555 1_555
C40 C34 1_555 1_555
H38 C40 1_555 1_555
P1 F1 1_555 1_555
F2 P1 1_555 1_555
F3 P1 1_555 1_555
F4 P1 1_555 1_555
F5 P1 1_555 1_555
F6 P1 1_555 1_555
P2 F7 1_555 1_555
F8 P2 1_555 1_555
F9 P2 1_555 1_555
F10 P2 1_555 1_555
F11 P2 1_555 1_555
F12 P2 1_555 1_555
C5 C6 1_555 1_555
C11 C12 1_555 1_555
N2 C14 1_555 1_555
N4 C18 1_555 1_555
C14 C15 1_555 1_555
C19 C20 1_555 1_555
C25 C26 1_555 1_555
C31 C32 1_555 1_555
C33 C36 1_555 1_555
N9 C36 1_555 1_555
N10 C37 1_555 1_555
C39 C40 1_555 1_555

#END
