
#######################################################################
#
#                 Cambridge Crystallographic Data Centre
#                                CCDC 
#
#######################################################################
#
# If this CIF has been generated from an entry in the Cambridge 
# Structural Database, then it will include bibliographic, chemical, 
# crystal, experimental, refinement or atomic coordinate data resulting 
# from the CCDC's data processing and validation procedures.
#
#######################################################################

data_HISZIU
_chemical_formula_moiety         'C16 H22 N1 O3,C6 F4 I2'
_chemical_name_systematic        
'1-Oxy-2,2,6,6-tetramethylpiperidin-4-yl benzoate 1,2,4,5-tetrafluoro-3,6-diiodobenzene'
_symmetry_cell_setting           orthorhombic
_symmetry_space_group_name_H-M   'P c a 21'
_symmetry_Int_Tables_number      29
_space_group_name_Hall           'P 2c -2ac'
loop_
_symmetry_equiv_pos_site_id
_symmetry_equiv_pos_as_xyz
1 x,y,z
2 -x,-y,1/2+z
3 1/2-x,y,1/2+z
4 1/2+x,-y,z
_cell_length_a                   20.4065(14)
_cell_length_b                   6.3085(4)
_cell_length_c                   19.1306(14)
_cell_angle_alpha                90
_cell_angle_beta                 90
_cell_angle_gamma                90
_cell_volume                     2462.77
_exptl_crystal_colour            orange
_exptl_crystal_description       prism
_cell_formula_units_Z            4
loop_
_atom_site_label
_atom_site_type_symbol
_atom_site_fract_x
_atom_site_fract_y
_atom_site_fract_z
C1 C 0.57782(18) 1.0541(6) 0.21083(19)
C2 C 0.62955(19) 0.9614(6) 0.2449(3)
C3 C 0.6622(2) 0.7907(7) 0.2163(2)
C4 C 0.64296(18) 0.7016(6) 0.1541(2)
C5 C 0.5897(2) 0.7912(6) 0.1218(2)
C6 C 0.5582(2) 0.9643(6) 0.1492(2)
F1 F 0.65067(15) 1.0381(5) 0.30665(16)
F2 F 0.71213(13) 0.7053(5) 0.2524(2)
F3 F 0.56682(15) 0.7102(4) 0.06153(14)
F4 F 0.50715(14) 1.0464(4) 0.11361(16)
I1 I 0.533344(12) 1.32734(3) 0.249703(16)
I2 I 0.690446(12) 0.44102(4) 0.110313(15)
C7 C 0.1827(2) 1.3947(7) 0.4448(2)
H1 H 0.2068 1.3951 0.4036
C8 C 0.1377(3) 1.5565(8) 0.4580(3)
H2 H 0.1321 1.6646 0.4255
C9 C 0.1021(2) 1.5572(8) 0.5180(3)
H3 H 0.0732 1.6676 0.5271
C10 C 0.1089(2) 1.3966(9) 0.5645(3)
H4 H 0.0831 1.3937 0.6045
C11 C 0.1539(2) 1.2378(8) 0.5526(2)
H5 H 0.1591 1.1307 0.5855
C12 C 0.19140(17) 1.2350(6) 0.4925(2)
C13 C 0.24122(19) 1.0667(6) 0.4827(2)
C14 C 0.31768(18) 0.9185(6) 0.4008(2)
H6 H 0.3044 0.7785 0.4179
C15 C 0.38423(19) 0.9787(6) 0.4293(2)
H7 H 0.3824 0.9757 0.4799
H8 H 0.3940 1.1230 0.4152
C16 C 0.43990(19) 0.8350(6) 0.4050(2)
C17 C 0.4371(2) 0.6195(7) 0.4421(3)
H9 H 0.3938 0.5614 0.4379
H10 H 0.4476 0.6376 0.4907
H11 H 0.4681 0.5246 0.4210
C18 C 0.5052(2) 0.9398(7) 0.4200(2)
H12 H 0.5401 0.8476 0.4055
H13 H 0.5089 0.9670 0.4692
H14 H 0.5080 1.0710 0.3948
C19 C 0.3706(2) 0.7732(6) 0.2904(2)
C20 C 0.3816(3) 0.8374(9) 0.2147(3)
H15 H 0.3986 0.9792 0.2130
H16 H 0.3408 0.8315 0.1899
H17 H 0.4123 0.7420 0.1934
C21 C 0.3487(2) 0.5411(7) 0.2942(3)
H18 H 0.3833 0.4514 0.2774
H19 H 0.3104 0.5216 0.2658
H20 H 0.3387 0.5050 0.3418
C22 C 0.3196(2) 0.9220(7) 0.3225(2)
H21 H 0.3287 1.0656 0.3072
H22 H 0.2766 0.8833 0.3049
N1 N 0.43365(15) 0.7991(5) 0.32831(16)
O1 O 0.25392(16) 0.9343(5) 0.52561(17)
O2 O 0.26925(14) 1.0782(5) 0.41960(15)
O3 O 0.48463(15) 0.7256(5) 0.29745(17)
loop_
_geom_bond_atom_site_label_1
_geom_bond_atom_site_label_2
_geom_bond_site_symmetry_1
_geom_bond_site_symmetry_2
C1 C2 1_555 1_555
C2 C3 1_555 1_555
C3 C4 1_555 1_555
C4 C5 1_555 1_555
C5 C6 1_555 1_555
C6 C1 1_555 1_555
F1 C2 1_555 1_555
F2 C3 1_555 1_555
F3 C5 1_555 1_555
F4 C6 1_555 1_555
I1 C1 1_555 1_555
I2 C4 1_555 1_555
C7 H1 1_555 1_555
C8 C7 1_555 1_555
H2 C8 1_555 1_555
C9 C8 1_555 1_555
H3 C9 1_555 1_555
C10 C9 1_555 1_555
H4 C10 1_555 1_555
C11 C10 1_555 1_555
H5 C11 1_555 1_555
C12 C7 1_555 1_555
C13 C12 1_555 1_555
C14 H6 1_555 1_555
C15 C14 1_555 1_555
H7 C15 1_555 1_555
H8 C15 1_555 1_555
C16 C15 1_555 1_555
C17 C16 1_555 1_555
H9 C17 1_555 1_555
H10 C17 1_555 1_555
H11 C17 1_555 1_555
C18 C16 1_555 1_555
H12 C18 1_555 1_555
H13 C18 1_555 1_555
H14 C18 1_555 1_555
C19 C20 1_555 1_555
C20 H15 1_555 1_555
H16 C20 1_555 1_555
H17 C20 1_555 1_555
C21 C19 1_555 1_555
H18 C21 1_555 1_555
H19 C21 1_555 1_555
H20 C21 1_555 1_555
C22 C14 1_555 1_555
H21 C22 1_555 1_555
H22 C22 1_555 1_555
N1 C16 1_555 1_555
O1 C13 1_555 1_555
O2 C13 1_555 1_555
O3 N1 1_555 1_555
C11 C12 1_555 1_555
C14 O2 1_555 1_555
C19 C22 1_555 1_555
C19 N1 1_555 1_555

#END
