
#######################################################################
#
#                 Cambridge Crystallographic Data Centre
#                                CCDC 
#
#######################################################################
#
# If this CIF has been generated from an entry in the Cambridge 
# Structural Database, then it will include bibliographic, chemical, 
# crystal, experimental, refinement or atomic coordinate data resulting 
# from the CCDC's data processing and validation procedures.
#
#######################################################################

data_HISZEQ
_chemical_formula_moiety         'C16 H22 N1 O3,2(C6 F4 I2)'
_chemical_name_systematic        
'1-Oxy-2,2,6,6-tetramethylpiperidin-4-yl benzoate bis(1,2,3,4-tetrafluoro-5,6-diiodobenzene)'
_symmetry_cell_setting           triclinic
_symmetry_space_group_name_H-M   'P -1'
_symmetry_Int_Tables_number      2
_space_group_name_Hall           '-P 1'
loop_
_symmetry_equiv_pos_site_id
_symmetry_equiv_pos_as_xyz
1 x,y,z
2 -x,-y,-z
_cell_length_a                   9.8175(6)
_cell_length_b                   13.4664(8)
_cell_length_c                   14.4858(8)
_cell_angle_alpha                113.2950(10)
_cell_angle_beta                 95.7880(10)
_cell_angle_gamma                105.2320(10)
_cell_volume                     1651.29
_exptl_crystal_colour            orange
_exptl_crystal_description       prism
_cell_formula_units_Z            2
loop_
_atom_site_label
_atom_site_type_symbol
_atom_site_fract_x
_atom_site_fract_y
_atom_site_fract_z
C1 C 0.7889(4) 0.3522(4) 0.2016(3)
C2 C 0.8240(5) 0.4356(4) 0.1663(3)
C3 C 0.7202(6) 0.4348(4) 0.0938(4)
C4 C 0.5854(5) 0.3537(5) 0.0557(3)
C5 C 0.5515(5) 0.2713(4) 0.0901(3)
C6 C 0.6529(5) 0.2710(4) 0.1615(3)
F1 F 0.7497(4) 0.5132(3) 0.0567(3)
F2 F 0.4853(4) 0.3547(3) -0.0143(2)
F3 F 0.4185(3) 0.1909(3) 0.0534(2)
F4 F 0.6129(3) 0.1860(2) 0.1911(2)
I1 I 0.92900(4) 0.34534(3) 0.31449(2)
I2 I 1.02853(4) 0.55852(3) 0.21264(3)
C7 C 0.3768(4) 0.4781(3) 0.5990(3)
C8 C 0.4957(4) 0.5055(3) 0.6777(3)
C9 C 0.6010(4) 0.6110(4) 0.7169(3)
C10 C 0.5942(4) 0.6902(4) 0.6812(4)
C11 C 0.4796(5) 0.6631(4) 0.6022(3)
C12 C 0.3737(4) 0.5585(4) 0.5631(3)
F5 F 0.7157(3) 0.6404(2) 0.7923(2)
F6 F 0.6963(3) 0.7938(2) 0.7228(2)
F7 F 0.4733(3) 0.7386(2) 0.5655(2)
F8 F 0.2647(3) 0.5345(2) 0.4850(2)
I3 I 0.20505(3) 0.32298(2) 0.53574(2)
I4 I 0.52821(3) 0.39303(3) 0.73695(3)
C13 C 0.7439(4) 0.0775(4) 0.9455(3)
H1 H 0.6532 0.0215 0.9245
C14 C 0.8556(5) 0.0769(4) 1.0105(3)
H2 H 0.8404 0.0196 1.0325
C15 C 0.9894(5) 0.1600(4) 1.0430(3)
H3 H 1.0637 0.1594 1.0878
C16 C 1.0140(4) 0.2442(4) 1.0096(3)
H4 H 1.1049 0.3001 1.0312
C17 C 0.9021(4) 0.2452(4) 0.9433(3)
H5 H 0.9180 0.3017 0.9202
C18 C 0.7671(4) 0.1618(3) 0.9118(3)
C19 C 0.6513(4) 0.1661(3) 0.8400(3)
C20 C 0.4004(4) 0.0791(3) 0.7522(3)
H6 H 0.4150 0.1484 0.7417
C21 C 0.2653(4) 0.0532(4) 0.7916(3)
H7 H 0.2748 0.1172 0.8568
H8 H 0.2556 -0.0137 0.8042
C22 C 0.1287(4) 0.0310(3) 0.7158(3)
C23 C -0.0049(4) -0.0246(4) 0.7462(3)
H9 H -0.0910 -0.0357 0.7003
H10 H -0.0044 0.0242 0.8158
H11 H -0.0031 -0.0974 0.7416
C24 C 0.1188(4) 0.1419(3) 0.7133(3)
H12 H 0.2083 0.1821 0.7036
H13 H 0.1012 0.1894 0.7774
H14 H 0.0406 0.1234 0.6574
C25 C 0.2613(4) -0.0504(3) 0.5671(3)
C26 C 0.2315(5) -0.1699(4) 0.4809(3)
H15 H 0.2070 -0.2254 0.5077
H16 H 0.3165 -0.1732 0.4541
H17 H 0.1522 -0.1862 0.4266
C27 C 0.2890(4) 0.0371(4) 0.5229(3)
H18 H 0.2011 0.0250 0.4782
H19 H 0.3626 0.0282 0.4844
H20 H 0.3208 0.1131 0.5784
C28 C 0.3889(4) -0.0221(4) 0.6530(3)
H21 H 0.3789 -0.0885 0.6664
H22 H 0.4780 -0.0062 0.6299
N1 N 0.1292(3) -0.0514(3) 0.6101(2)
O1 O 0.6699(3) 0.2276(3) 0.7977(3)
O2 O 0.5220(3) 0.0941(2) 0.8293(2)
O3 O 0.0070(3) -0.1001(2) 0.5436(2)
loop_
_geom_bond_atom_site_label_1
_geom_bond_atom_site_label_2
_geom_bond_site_symmetry_1
_geom_bond_site_symmetry_2
C1 C2 1_555 1_555
C2 C3 1_555 1_555
C3 C4 1_555 1_555
C4 C5 1_555 1_555
C5 C6 1_555 1_555
C6 C1 1_555 1_555
F1 C3 1_555 1_555
F2 C4 1_555 1_555
F3 C5 1_555 1_555
F4 C6 1_555 1_555
I1 C1 1_555 1_555
I2 C2 1_555 1_555
C7 C8 1_555 1_555
C8 C9 1_555 1_555
C9 C10 1_555 1_555
C10 C11 1_555 1_555
C11 C12 1_555 1_555
C12 C7 1_555 1_555
F5 C9 1_555 1_555
F6 C10 1_555 1_555
F7 C11 1_555 1_555
F8 C12 1_555 1_555
I3 C7 1_555 1_555
I4 C8 1_555 1_555
C13 H1 1_555 1_555
C14 C13 1_555 1_555
H2 C14 1_555 1_555
C15 C14 1_555 1_555
H3 C15 1_555 1_555
C16 C15 1_555 1_555
H4 C16 1_555 1_555
C17 C16 1_555 1_555
H5 C17 1_555 1_555
C18 C13 1_555 1_555
C19 C18 1_555 1_555
C20 H6 1_555 1_555
C21 C20 1_555 1_555
H7 C21 1_555 1_555
H8 C21 1_555 1_555
C22 C21 1_555 1_555
C23 C22 1_555 1_555
H9 C23 1_555 1_555
H10 C23 1_555 1_555
H11 C23 1_555 1_555
C24 C22 1_555 1_555
H12 C24 1_555 1_555
H13 C24 1_555 1_555
H14 C24 1_555 1_555
C25 C26 1_555 1_555
C26 H15 1_555 1_555
H16 C26 1_555 1_555
H17 C26 1_555 1_555
C27 C25 1_555 1_555
H18 C27 1_555 1_555
H19 C27 1_555 1_555
H20 C27 1_555 1_555
C28 C20 1_555 1_555
H21 C28 1_555 1_555
H22 C28 1_555 1_555
N1 C22 1_555 1_555
O1 C19 1_555 1_555
O2 C19 1_555 1_555
O3 N1 1_555 1_555
C17 C18 1_555 1_555
C20 O2 1_555 1_555
C25 C28 1_555 1_555
C25 N1 1_555 1_555

#END
