
#######################################################################
#
#                 Cambridge Crystallographic Data Centre
#                                CCDC 
#
#######################################################################
#
# If this CIF has been generated from an entry in the Cambridge 
# Structural Database, then it will include bibliographic, chemical, 
# crystal, experimental, refinement or atomic coordinate data resulting 
# from the CCDC's data processing and validation procedures.
#
#######################################################################

data_HITDUL
_chemical_formula_moiety         'C20 H20 N2 O1,H2 O1'
_chemical_name_systematic        
'10-Methoxy-13b-methyl-7,8,13,13b-tetrahydro-5H-benzo[1,2]indolizino[8,7-b]indole monohydrate'
_symmetry_cell_setting           monoclinic
_symmetry_space_group_name_H-M   'P 21/n'
_symmetry_Int_Tables_number      14
_space_group_name_Hall           '-P 2yn'
loop_
_symmetry_equiv_pos_site_id
_symmetry_equiv_pos_as_xyz
1 x,y,z
2 1/2-x,1/2+y,1/2-z
3 -x,-y,-z
4 1/2+x,1/2-y,1/2+z
_cell_length_a                   6.999(5)
_cell_length_b                   11.729(9)
_cell_length_c                   21.182(16)
_cell_angle_alpha                90
_cell_angle_beta                 96.41(3)
_cell_angle_gamma                90
_cell_volume                     1727.99
_exptl_crystal_colour            white
_cell_formula_units_Z            4
_exptl_crystal_recrystallization_method dichloromethane/methanol
loop_
_atom_site_label
_atom_site_type_symbol
_atom_site_fract_x
_atom_site_fract_y
_atom_site_fract_z
O1 O 0.9623(3) 0.56802(19) 0.20699(11)
H1 H 0.947(4) 0.636(3) 0.2264(13)
H2 H 0.862(6) 0.550(4) 0.1831(18)
O2 O 0.6735(3) 0.74281(16) -0.02117(9)
N1 N 0.3307(3) 0.52703(16) 0.16703(9)
H3 H 0.2338 0.5436 0.1869
N2 N 0.6045(3) 0.27083(16) 0.23549(9)
C1 C 0.8500(4) 0.6966(3) -0.03772(14)
H4 H 0.9393 0.6889 -0.0001
H5 H 0.9028 0.7467 -0.0671
H6 H 0.8265 0.6231 -0.0570
C2 C 0.5877(4) 0.6843(2) 0.02497(12)
C3 C 0.6550(4) 0.5832(2) 0.05165(11)
H7 H 0.7629 0.5480 0.0385
C4 C 0.5566(3) 0.5344(2) 0.09924(11)
C5 C 0.5864(3) 0.43340(19) 0.13752(11)
C6 C 0.4489(3) 0.4328(2) 0.17829(11)
C7 C 0.4317(3) 0.34714(19) 0.23049(11)
C8 C 0.4547(4) 0.40332(19) 0.29521(11)
C9 C 0.3189(4) 0.4609(2) 0.32603(12)
H8 H 0.1938 0.4700 0.3067
C10 C 0.3731(5) 0.5046(2) 0.38595(14)
H9 H 0.2837 0.5430 0.4074
C11 C 0.5592(5) 0.4915(3) 0.41409(14)
H10 H 0.5942 0.5222 0.4542
C12 C 0.3945(3) 0.5894(2) 0.11872(11)
C13 C 0.7289(3) 0.33915(19) 0.13449(12)
H11 H 0.8563 0.3654 0.1509
H12 H 0.7321 0.3153 0.0908
C14 C 0.6697(4) 0.2386(2) 0.17440(12)
H13 H 0.5671 0.1970 0.1498
H14 H 0.7783 0.1873 0.1825
C15 C 0.7550(3) 0.3234(2) 0.28074(12)
H15 H 0.8366 0.3737 0.2591
H16 H 0.8341 0.2659 0.3038
C16 C 0.6403(4) 0.3888(2) 0.32405(12)
C17 C 0.2470(3) 0.2765(2) 0.21847(13)
H17 H 0.2487 0.2338 0.1799
H18 H 0.1377 0.3264 0.2147
H19 H 0.2390 0.2250 0.2533
C18 C 0.6944(5) 0.4335(3) 0.38384(13)
H20 H 0.8194 0.4247 0.4032
C19 C 0.3250(4) 0.6910(2) 0.08995(12)
H21 H 0.2160 0.7265 0.1020
C20 C 0.4234(4) 0.7364(2) 0.04332(12)
H22 H 0.3794 0.8036 0.0235
loop_
_geom_bond_atom_site_label_1
_geom_bond_atom_site_label_2
_geom_bond_site_symmetry_1
_geom_bond_site_symmetry_2
O1 H1 1_555 1_555
H2 O1 1_555 1_555
O2 C1 1_555 1_555
N1 H3 1_555 1_555
N2 C7 1_555 1_555
C1 H4 1_555 1_555
H5 C1 1_555 1_555
H6 C1 1_555 1_555
C2 O2 1_555 1_555
C3 C2 1_555 1_555
H7 C3 1_555 1_555
C4 C3 1_555 1_555
C5 C4 1_555 1_555
C6 N1 1_555 1_555
C7 C6 1_555 1_555
C8 C7 1_555 1_555
C9 C8 1_555 1_555
H8 C9 1_555 1_555
C10 C9 1_555 1_555
H9 C10 1_555 1_555
C11 C10 1_555 1_555
H10 C11 1_555 1_555
C12 N1 1_555 1_555
C13 C5 1_555 1_555
H11 C13 1_555 1_555
H12 C13 1_555 1_555
C14 N2 1_555 1_555
H13 C14 1_555 1_555
H14 C14 1_555 1_555
C15 N2 1_555 1_555
H15 C15 1_555 1_555
H16 C15 1_555 1_555
C16 C8 1_555 1_555
C17 C7 1_555 1_555
H17 C17 1_555 1_555
H18 C17 1_555 1_555
H19 C17 1_555 1_555
C18 C11 1_555 1_555
H20 C18 1_555 1_555
C19 C12 1_555 1_555
H21 C19 1_555 1_555
C20 C2 1_555 1_555
H22 C20 1_555 1_555
C4 C12 1_555 1_555
C5 C6 1_555 1_555
C13 C14 1_555 1_555
C15 C16 1_555 1_555
C16 C18 1_555 1_555
C19 C20 1_555 1_555

#END
