
#######################################################################
#
#                 Cambridge Crystallographic Data Centre
#                                CCDC 
#
#######################################################################
#
# If this CIF has been generated from an entry in the Cambridge 
# Structural Database, then it will include bibliographic, chemical, 
# crystal, experimental, refinement or atomic coordinate data resulting 
# from the CCDC's data processing and validation procedures.
#
#######################################################################

data_HITJEB
_chemical_formula_moiety         'C21 H20 N2 O2'
_chemical_name_systematic        
11-Methoxy-14b-methyl-8,9,14,14b-tetrahydroindolo[2',3':3,4]pyrido[2,1-a]isoquinolin-6(5H)-one
_symmetry_cell_setting           monoclinic
_symmetry_space_group_name_H-M   'P 21/n'
_symmetry_Int_Tables_number      14
_space_group_name_Hall           '-P 2yn'
loop_
_symmetry_equiv_pos_site_id
_symmetry_equiv_pos_as_xyz
1 x,y,z
2 1/2-x,1/2+y,1/2-z
3 -x,-y,-z
4 1/2+x,1/2-y,1/2+z
_cell_length_a                   11.3759(3)
_cell_length_b                   13.0992(4)
_cell_length_c                   11.4895(3)
_cell_angle_alpha                90
_cell_angle_beta                 92.1790(10)
_cell_angle_gamma                90
_cell_volume                     1710.87
_exptl_crystal_colour            colorless
_exptl_crystal_description       block
_cell_formula_units_Z            4
loop_
_atom_site_label
_atom_site_type_symbol
_atom_site_fract_x
_atom_site_fract_y
_atom_site_fract_z
O1 O 0.12510(10) 0.18979(8) 0.92899(8)
O2 O 0.35140(9) 0.37898(7) 0.14785(9)
N1 N 0.18864(9) 0.06175(7) 0.48095(8)
H1 H 0.1714 0.0062 0.4442
N2 N 0.30124(9) 0.26365(7) 0.28423(9)
C1 C 0.56423(12) -0.02724(11) 0.20861(13)
H2 H 0.6270 -0.0667 0.1851
C2 C 0.52457(11) 0.05377(11) 0.14093(12)
H3 H 0.5617 0.0693 0.0724
C3 C 0.42964(10) 0.11224(9) 0.17442(10)
C4 C 0.37318(10) 0.08829(8) 0.27615(10)
C5 C 0.26813(10) 0.15474(8) 0.30753(10)
C6 C 0.23983(10) 0.14701(8) 0.43404(10)
C7 C 0.25365(10) 0.22092(9) 0.51712(10)
C8 C 0.20857(10) 0.18055(9) 0.62217(10)
C9 C 0.19435(11) 0.22091(9) 0.73425(11)
H4 H 0.2183 0.2871 0.7526
C10 C 0.14395(11) 0.15962(10) 0.81606(10)
C11 C 0.12787(16) 0.29566(12) 0.95184(13)
H5 H 0.2057 0.3213 0.9408
H6 H 0.1066 0.3078 1.0307
H7 H 0.0732 0.3299 0.8995
C12 C 0.16994(10) 0.08059(9) 0.59660(10)
C13 C 0.29744(12) 0.32488(9) 0.48650(11)
H8 H 0.3825 0.3275 0.4959
H9 H 0.2643 0.3759 0.5369
C14 C 0.25955(14) 0.34509(9) 0.36087(12)
H10 H 0.1744 0.3490 0.3541
H11 H 0.2911 0.4102 0.3366
C15 C 0.51065(12) -0.04939(10) 0.31090(13)
H12 H 0.5386 -0.1028 0.3575
C16 C 0.41527(11) 0.00753(9) 0.34485(11)
H13 H 0.3791 -0.0082 0.4139
C17 C 0.39082(12) 0.20499(10) 0.10638(11)
H14 H 0.3293 0.1853 0.0500
H15 H 0.4567 0.2303 0.0636
C18 C 0.34555(11) 0.28988(9) 0.18108(11)
C19 C 0.15766(11) 0.12634(10) 0.23234(11)
H16 H 0.1324 0.0588 0.2523
H17 H 0.1760 0.1283 0.1515
H18 H 0.0959 0.1742 0.2465
C20 C 0.12123(11) 0.01873(10) 0.68069(11)
H19 H 0.0976 -0.0477 0.6635
C21 C 0.10915(11) 0.05921(10) 0.79015(11)
H20 H 0.0773 0.0192 0.8480
loop_
_geom_bond_atom_site_label_1
_geom_bond_atom_site_label_2
_geom_bond_site_symmetry_1
_geom_bond_site_symmetry_2
O1 C10 1_555 1_555
O2 C18 1_555 1_555
N1 H1 1_555 1_555
N2 C5 1_555 1_555
C1 H2 1_555 1_555
C2 C1 1_555 1_555
H3 C2 1_555 1_555
C3 C2 1_555 1_555
C4 C3 1_555 1_555
C5 C4 1_555 1_555
C6 N1 1_555 1_555
C7 C6 1_555 1_555
C8 C7 1_555 1_555
C9 C8 1_555 1_555
H4 C9 1_555 1_555
C10 C9 1_555 1_555
C11 O1 1_555 1_555
H5 C11 1_555 1_555
H6 C11 1_555 1_555
H7 C11 1_555 1_555
C12 N1 1_555 1_555
C13 C7 1_555 1_555
H8 C13 1_555 1_555
H9 C13 1_555 1_555
C14 N2 1_555 1_555
H10 C14 1_555 1_555
H11 C14 1_555 1_555
C15 C1 1_555 1_555
H12 C15 1_555 1_555
C16 C4 1_555 1_555
H13 C16 1_555 1_555
C17 C3 1_555 1_555
H14 C17 1_555 1_555
H15 C17 1_555 1_555
C18 N2 1_555 1_555
C19 C5 1_555 1_555
H16 C19 1_555 1_555
H17 C19 1_555 1_555
H18 C19 1_555 1_555
C20 C12 1_555 1_555
H19 C20 1_555 1_555
C21 C10 1_555 1_555
H20 C21 1_555 1_555
C5 C6 1_555 1_555
C8 C12 1_555 1_555
C13 C14 1_555 1_555
C15 C16 1_555 1_555
C17 C18 1_555 1_555
C20 C21 1_555 1_555

#END
