
#######################################################################
#
#                 Cambridge Crystallographic Data Centre
#                                CCDC 
#
#######################################################################
#
# If this CIF has been generated from an entry in the Cambridge 
# Structural Database, then it will include bibliographic, chemical, 
# crystal, experimental, refinement or atomic coordinate data resulting 
# from the CCDC's data processing and validation procedures.
#
#######################################################################

data_HITNIH
_chemical_formula_moiety         'C42 H54 N4 O8'
_chemical_name_systematic        
1,8-bis(4,10-Diethyl-13-methyl-3,5,9,11-tetraoxo-4,10-diaza-tetracyclo(5.5.2.0^2,6^,0^8,12^)tetradec-13-enyl)octane
_symmetry_cell_setting           orthorhombic
_symmetry_space_group_name_H-M   'P b c a'
_symmetry_Int_Tables_number      61
_space_group_name_Hall           '-P 2ac 2ab'
loop_
_symmetry_equiv_pos_site_id
_symmetry_equiv_pos_as_xyz
1 x,y,z
2 1/2-x,-y,1/2+z
3 1/2+x,1/2-y,-z
4 -x,1/2+y,1/2-z
5 -x,-y,-z
6 1/2+x,y,1/2-z
7 1/2-x,1/2+y,z
8 x,1/2-y,1/2+z
_cell_length_a                   7.773(1)
_cell_length_b                   19.511(3)
_cell_length_c                   26.554(2)
_cell_angle_alpha                90
_cell_angle_beta                 90
_cell_angle_gamma                90
_cell_volume                     4027.15
_exptl_crystal_colour            colorless
_cell_formula_units_Z            4
loop_
_atom_site_label
_atom_site_type_symbol
_atom_site_fract_x
_atom_site_fract_y
_atom_site_fract_z
O1 O 0.3829(3) 0.7437(2) 0.0486(1)
O2 O -0.0836(4) 0.9804(1) 0.1033(1)
O3 O -0.4668(3) 0.8287(2) 0.1679(1)
O4 O 0.0110(4) 0.6087(2) 0.1340(1)
N1 N 0.2267(4) 0.6674(2) 0.0944(1)
N2 N -0.2889(4) 0.9151(2) 0.1425(1)
C1 C 0.2473(5) 0.7260(2) 0.0665(1)
C2 C 0.0752(5) 0.7618(2) 0.0627(1)
C3 C 0.0695(4) 0.8328(2) 0.0906(1)
C4 C -0.1172(4) 0.8594(2) 0.0820(1)
C5 C -0.1543(5) 0.9257(2) 0.1086(2)
C6 C -0.3511(5) 0.8488(2) 0.1415(2)
C7 C -0.2491(5) 0.8086(2) 0.1038(1)
C8 C -0.1540(5) 0.7486(2) 0.1286(1)
C9 C -0.0522(5) 0.7123(2) 0.0870(2)
C10 C 0.0589(6) 0.6563(2) 0.1087(2)
C11 C -0.0274(4) 0.7770(2) 0.1663(1)
C12 C 0.0859(4) 0.8186(2) 0.1459(1)
C13 C 0.3681(7) 0.6223(2) 0.1105(2)
C14 C 0.4247(7) 0.6372(3) 0.1629(2)
C15 C -0.3516(6) 0.9684(2) 0.1763(2)
C16 C -0.2580(9) 0.9682(3) 0.2255(2)
C17 C -0.0352(5) 0.7548(3) 0.2199(2)
C18 C 0.2061(5) 0.8832(2) 0.0714(1)
C19 C 0.1915(5) 0.9039(2) 0.0161(2)
C20 C 0.3384(6) 0.9490(3) -0.0022(2)
C21 C 0.369(1) 1.0082(4) 0.0158(4)
C22 C 0.501(1) 0.9446(5) 0.0109(3)
H1 H 0.0498 0.7721 0.0285
H2 H -0.1261 0.8649 0.0465
H3 H -0.3223 0.7896 0.0787
H4 H -0.2320 0.7183 0.1448
H5 H -0.1343 0.6951 0.0637
H6 H 0.1747 0.8388 0.1654
H7 H 0.4629 0.6286 0.0884
H8 H 0.3302 0.5761 0.1087
H9 H 0.5157 0.6071 0.1718
H10 H 0.4635 0.6833 0.1650
H11 H 0.3308 0.6307 0.1853
H12 H -0.4705 0.9609 0.1824
H13 H -0.3361 1.0117 0.1606
H14 H -0.3023 1.0035 0.2464
H15 H -0.2732 0.9251 0.2416
H16 H -0.1389 0.9759 0.2197
H17 H -0.1300 0.7246 0.2244
H18 H 0.0682 0.7317 0.2285
H19 H -0.0490 0.7937 0.2409
H20 H 0.3156 0.8627 0.0761
H21 H 0.1983 0.9237 0.0911
H22 H 0.0867 0.9282 0.0115
H23 H 0.1897 0.8634 -0.0038
H24 H 0.3198 0.9555 -0.0372
H25 H 0.4405 0.9231 0.0027
H26 H 0.3052 0.9944 0.0064
H27 H 0.3383 0.9441 -0.0377
H28 H 0.4096 1.0016 0.0491
H29 H 0.2625 1.0320 0.0165
H30 H 0.5361 0.8987 0.0049
H31 H 0.5070 0.9542 0.0459
C21D C 0.631(1) 0.9918(4) -0.0158(4)
C20D C 0.6616(6) 1.0510(3) 0.0022(2)
C19D C 0.8085(5) 1.0961(2) -0.0161(2)
C18D C 0.7939(5) 1.1168(2) -0.0714(1)
C3D C 0.9305(4) 1.1672(2) -0.0906(1)
C2D C 0.9248(5) 1.2382(2) -0.0627(1)
C1D C 0.7527(5) 1.2740(2) -0.0665(1)
O1D O 0.6171(3) 1.2563(2) -0.0486(1)
N1D N 0.7733(4) 1.3326(2) -0.0944(1)
C10D C 0.9411(6) 1.3437(2) -0.1087(2)
O4D O 0.9890(4) 1.3913(2) -0.1340(1)
C9D C 1.0522(5) 1.2877(2) -0.0870(2)
H1D H 0.9502 1.2279 -0.0285
C8D C 1.1540(5) 1.2514(2) -0.1286(1)
C7D C 1.2491(5) 1.1914(2) -0.1038(1)
C4D C 1.1172(4) 1.1406(2) -0.0820(1)
C12D C 0.9141(4) 1.1814(2) -0.1459(1)
C11D C 1.0274(4) 1.2230(2) -0.1663(1)
H4D H 1.2320 1.2817 -0.1448
C17D C 1.0352(5) 1.2452(3) -0.2199(2)
H17D H 1.1300 1.2754 -0.2244
H18D H 0.9318 1.2683 -0.2285
H19D H 1.0490 1.2063 -0.2409
H6D H 0.8253 1.1612 -0.1654
C5D C 1.1543(5) 1.0743(2) -0.1086(2)
O2D O 1.0836(4) 1.0196(1) -0.1033(1)
N2D N 1.2889(4) 1.0849(2) -0.1425(1)
C6D C 1.3511(5) 1.1512(2) -0.1415(2)
O3D O 1.4668(3) 1.1713(2) -0.1679(1)
H3D H 1.3223 1.2104 -0.0787
C15D C 1.3516(6) 1.0316(2) -0.1763(2)
C16D C 1.2580(9) 1.0318(3) -0.2255(2)
H14D H 1.3023 0.9965 -0.2464
H15D H 1.2732 1.0749 -0.2416
H16D H 1.1389 1.0241 -0.2197
H12D H 1.4705 1.0391 -0.1824
H13D H 1.3361 0.9883 -0.1606
H2D H 1.1261 1.1351 -0.0465
H5D H 1.1343 1.3049 -0.0637
C13D C 0.6319(7) 1.3777(2) -0.1105(2)
C14D C 0.5753(7) 1.3628(3) -0.1629(2)
H9D H 0.4843 1.3929 -0.1718
H10D H 0.5365 1.3167 -0.1650
H11D H 0.6692 1.3693 -0.1853
H7D H 0.5371 1.3714 -0.0884
H8D H 0.6698 1.4239 -0.1087
H20D H 0.6844 1.1373 -0.0761
H21D H 0.8017 1.0763 -0.0911
H22D H 0.9133 1.0718 -0.0115
H23D H 0.8103 1.1366 0.0038
C22D C 0.499(1) 1.0554(5) -0.0109(3)
H26D H 0.6948 1.0056 -0.0064
H24D H 0.6802 1.0445 0.0372
H27D H 0.6617 1.0559 0.0377
H25D H 0.5595 1.0769 -0.0027
H30D H 0.4639 1.1013 -0.0049
H31D H 0.4930 1.0458 -0.0459
H29D H 0.7375 0.9680 -0.0165
H28D H 0.5904 0.9984 -0.0491
loop_
_geom_bond_atom_site_label_1
_geom_bond_atom_site_label_2
_geom_bond_site_symmetry_1
_geom_bond_site_symmetry_2
O1 C1 1_555 1_555
O2 C5 1_555 1_555
O3 C6 1_555 1_555
O4 C10 1_555 1_555
N1 C1 1_555 1_555
N2 C5 1_555 1_555
C1 C2 1_555 1_555
C2 C3 1_555 1_555
C3 C4 1_555 1_555
C4 C5 1_555 1_555
C6 N2 1_555 1_555
C7 C4 1_555 1_555
C8 C7 1_555 1_555
C9 C2 1_555 1_555
C10 N1 1_555 1_555
C11 C8 1_555 1_555
C12 C3 1_555 1_555
C13 N1 1_555 1_555
C14 C13 1_555 1_555
C15 N2 1_555 1_555
C16 C15 1_555 1_555
C17 C11 1_555 1_555
C18 C3 1_555 1_555
C19 C18 1_555 1_555
C20 C19 1_555 1_555
C21 C20 1_555 1_555
C22 C20 1_555 1_555
H1 C2 1_555 1_555
H2 C4 1_555 1_555
H3 C7 1_555 1_555
H4 C8 1_555 1_555
H5 C9 1_555 1_555
H6 C12 1_555 1_555
H7 C13 1_555 1_555
H8 C13 1_555 1_555
H9 C14 1_555 1_555
H10 C14 1_555 1_555
H11 C14 1_555 1_555
H12 C15 1_555 1_555
H13 C15 1_555 1_555
H14 C16 1_555 1_555
H15 C16 1_555 1_555
H16 C16 1_555 1_555
H17 C17 1_555 1_555
H18 C17 1_555 1_555
H19 C17 1_555 1_555
H20 C18 1_555 1_555
H21 C18 1_555 1_555
H22 C19 1_555 1_555
H23 C19 1_555 1_555
H24 C20 1_555 1_555
H25 C20 1_555 1_555
H26 C20 1_555 1_555
H27 C20 1_555 1_555
H28 C21 1_555 1_555
H29 C21 1_555 1_555
H30 C22 1_555 1_555
H31 C22 1_555 1_555
C21D C22 1_555 1_555
C20D C21D 1_555 1_555
C19D C20D 1_555 1_555
C18D C19D 1_555 1_555
C3D C18D 1_555 1_555
C2D C3D 1_555 1_555
C1D C2D 1_555 1_555
O1D C1D 1_555 1_555
N1D C1D 1_555 1_555
C10D N1D 1_555 1_555
O4D C10D 1_555 1_555
C9D C2D 1_555 1_555
H1D C2D 1_555 1_555
C8D C9D 1_555 1_555
C7D C8D 1_555 1_555
C4D C3D 1_555 1_555
C12D C3D 1_555 1_555
C11D C8D 1_555 1_555
H4D C8D 1_555 1_555
C17D C11D 1_555 1_555
H17D C17D 1_555 1_555
H18D C17D 1_555 1_555
H19D C17D 1_555 1_555
H6D C12D 1_555 1_555
C5D C4D 1_555 1_555
O2D C5D 1_555 1_555
N2D C5D 1_555 1_555
C6D C7D 1_555 1_555
O3D C6D 1_555 1_555
H3D C7D 1_555 1_555
C15D N2D 1_555 1_555
C16D C15D 1_555 1_555
H14D C16D 1_555 1_555
H15D C16D 1_555 1_555
H16D C16D 1_555 1_555
H12D C15D 1_555 1_555
H13D C15D 1_555 1_555
H2D C4D 1_555 1_555
H5D C9D 1_555 1_555
C13D N1D 1_555 1_555
C14D C13D 1_555 1_555
H9D C14D 1_555 1_555
H10D C14D 1_555 1_555
H11D C14D 1_555 1_555
H7D C13D 1_555 1_555
H8D C13D 1_555 1_555
H20D C18D 1_555 1_555
H21D C18D 1_555 1_555
H22D C19D 1_555 1_555
H23D C19D 1_555 1_555
C22D C21 1_555 1_555
H26D C21D 1_555 1_555
H24D C20D 1_555 1_555
H27D C20D 1_555 1_555
H25D C20D 1_555 1_555
H30D C22D 1_555 1_555
H31D C22D 1_555 1_555
H29D C21D 1_555 1_555
H28D C21D 1_555 1_555
C6 C7 1_555 1_555
C8 C9 1_555 1_555
C9 C10 1_555 1_555
C11 C12 1_555 1_555
C21 C22 1_555 1_555
C21 H26 1_555 1_555
C22 H25 1_555 1_555
H24 H27 1_555 1_555
H26 H29 1_555 1_555
C21D C22D 1_555 1_555
C20D C22D 1_555 1_555
C20D H26D 1_555 1_555
C10D C9D 1_555 1_555
C7D C4D 1_555 1_555
C12D C11D 1_555 1_555
N2D C6D 1_555 1_555
C22D H25D 1_555 1_555
H26D H29D 1_555 1_555
H24D H27D 1_555 1_555

#END
