
#######################################################################
#
#                 Cambridge Crystallographic Data Centre
#                                CCDC 
#
#######################################################################
#
# If this CIF has been generated from an entry in the Cambridge 
# Structural Database, then it will include bibliographic, chemical, 
# crystal, experimental, refinement or atomic coordinate data resulting 
# from the CCDC's data processing and validation procedures.
#
#######################################################################

data_HITVEM
_chemical_name_common            
bis(N-n-Cetylpyrrolo(3,4-d))tetrathiafulvalene
_chemical_formula_moiety         'C42 H70 N2 S4'
_chemical_name_systematic        
bis(N-n-Hexadecylpyrrolo(3,4-d))tetrathiafulvalene
_symmetry_cell_setting           triclinic
_symmetry_space_group_name_H-M   'P -1'
_symmetry_Int_Tables_number      2
_space_group_name_Hall           '-P 1'
loop_
_symmetry_equiv_pos_site_id
_symmetry_equiv_pos_as_xyz
1 x,y,z
2 -x,-y,-z
_cell_length_a                   5.394(3)
_cell_length_b                   7.502(3)
_cell_length_c                   26.920(2)
_cell_angle_alpha                92.34(2)
_cell_angle_beta                 94.06(2)
_cell_angle_gamma                103.68(2)
_cell_volume                     1053.92
_exptl_crystal_colour            yellow
_exptl_crystal_description       platelet
_chemical_melting_point          '120.0-121.0 deg.C'
_cell_formula_units_Z            1
_exptl_crystal_recrystallization_method hexane
loop_
_atom_site_label
_atom_site_type_symbol
_atom_site_fract_x
_atom_site_fract_y
_atom_site_fract_z
S1 S 0.28083(14) 0.57442(9) 0.56518(3)
S2 S 0.10003(14) 0.23137(9) 0.49728(2)
N1 N 0.6552(5) 0.1938(3) 0.59746(8)
C1 C 0.0812(5) 0.4598(3) 0.51286(9)
C2 C 0.4337(5) 0.3960(4) 0.57488(9)
C3 C 0.6260(6) 0.3698(4) 0.60813(10)
C4 C 0.4889(6) 0.1117(4) 0.55820(10)
C5 C 0.3479(5) 0.2343(3) 0.54325(9)
C6 C 0.8589(6) 0.1168(4) 0.62035(10)
C7 C 0.7739(6) -0.0251(4) 0.65825(10)
C8 C 0.9896(6) -0.1180(4) 0.67215(10)
C9 C 0.9294(6) -0.2639(4) 0.71065(10)
C10 C 1.1375(6) -0.3696(4) 0.71817(10)
C11 C 1.0734(6) -0.5264(4) 0.75302(10)
C12 C 1.2836(6) -0.6295(4) 0.76077(10)
C13 C 1.2204(6) -0.7859(4) 0.79590(11)
C14 C 1.4313(6) -0.8880(4) 0.80446(11)
C15 C 1.3690(6) -1.0416(4) 0.84039(11)
C16 C 1.5794(6) -1.1435(4) 0.84908(11)
C17 C 1.5183(6) -1.2977(4) 0.88497(11)
C18 C 1.7320(6) -1.3980(4) 0.89332(11)
C19 C 1.6724(7) -1.5524(4) 0.92898(11)
C20 C 1.8825(7) -1.6558(5) 0.93578(12)
C21 C 1.8248(10) -1.8115(6) 0.97097(15)
H1 H 0.7182 0.4560 0.6342
H2 H 0.4716 -0.0102 0.5437
H3 H 0.9320 0.0598 0.5945
H4 H 0.9895 0.2147 0.6366
H5 H 0.7281 0.0334 0.6872
H6 H 0.6253 -0.1151 0.6441
H7 H 1.0309 -0.1742 0.6424
H8 H 1.1352 -0.0246 0.6852
H9 H 0.9088 -0.2056 0.7417
H10 H 0.7708 -0.3493 0.6995
H11 H 1.1675 -0.4191 0.6865
H12 H 1.2924 -0.2855 0.7318
H13 H 1.0433 -0.4775 0.7847
H14 H 0.9201 -0.6114 0.7394
H15 H 1.3119 -0.6819 0.7292
H16 H 1.4376 -0.5460 0.7739
H17 H 1.1911 -0.7339 0.8272
H18 H 1.0694 -0.8704 0.7824
H19 H 1.4599 -0.9407 0.7733
H20 H 1.5845 -0.8020 0.8175
H21 H 1.3398 -0.9872 0.8718
H22 H 1.2148 -1.1258 0.8276
H23 H 1.6100 -1.1950 0.8178
H24 H 1.7325 -1.0583 0.8625
H25 H 1.4826 -1.2484 0.9159
H26 H 1.3658 -1.3861 0.8710
H27 H 1.7655 -1.4493 0.8624
H28 H 1.8838 -1.3105 0.9070
H29 H 1.6486 -1.4991 0.9608
H30 H 1.5176 -1.6356 0.9166
H31 H 1.9111 -1.7057 0.9039
H32 H 2.0408 -1.5702 0.9485
H33 H 1.8067 -1.7612 1.0030
H34 H 1.6756 -1.8965 0.9585
H35 H 1.9660 -1.8691 0.9732
S1A S -0.28083(14) 0.42558(9) 0.43482(3)
S2A S -0.10003(14) 0.76863(9) 0.50272(2)
N1A N -0.6552(5) 0.8062(3) 0.40254(8)
C1A C -0.0812(5) 0.5402(3) 0.48714(9)
C2A C -0.4337(5) 0.6040(4) 0.42512(9)
C3A C -0.6260(6) 0.6302(4) 0.39187(10)
C4A C -0.4889(6) 0.8883(4) 0.44180(10)
C5A C -0.3479(5) 0.7657(3) 0.45675(9)
C6A C -0.8589(6) 0.8832(4) 0.37965(10)
C7A C -0.7739(6) 1.0251(4) 0.34175(10)
C8A C -0.9896(6) 1.1180(4) 0.32785(10)
C9A C -0.9294(6) 1.2639(4) 0.28935(10)
C10A C -1.1375(6) 1.3696(4) 0.28183(10)
C11A C -1.0734(6) 1.5264(4) 0.24698(10)
C12A C -1.2836(6) 1.6295(4) 0.23923(10)
C13A C -1.2204(6) 1.7859(4) 0.20410(11)
C14A C -1.4313(6) 1.8880(4) 0.19554(11)
C15A C -1.3690(6) 2.0416(4) 0.15961(11)
C16A C -1.5794(6) 2.1435(4) 0.15092(11)
C17A C -1.5183(6) 2.2977(4) 0.11503(11)
C18A C -1.7320(6) 2.3980(4) 0.10668(11)
C19A C -1.6724(7) 2.5524(4) 0.07102(11)
C20A C -1.8825(7) 2.6558(5) 0.06422(12)
C21A C -1.8248(10) 2.8115(6) 0.02903(15)
H1A H -0.7182 0.5440 0.3658
H2A H -0.4716 1.0102 0.4563
H3A H -0.9320 0.9402 0.4055
H4A H -0.9895 0.7853 0.3634
H5A H -0.7281 0.9666 0.3128
H6A H -0.6253 1.1151 0.3559
H7A H -1.0309 1.1742 0.3576
H8A H -1.1352 1.0246 0.3148
H9A H -0.9088 1.2056 0.2583
H10A H -0.7708 1.3493 0.3005
H11A H -1.1675 1.4191 0.3135
H12A H -1.2924 1.2855 0.2682
H13A H -1.0433 1.4775 0.2153
H14A H -0.9201 1.6114 0.2606
H15A H -1.3119 1.6819 0.2708
H16A H -1.4376 1.5460 0.2261
H17A H -1.1911 1.7339 0.1728
H18A H -1.0694 1.8704 0.2176
H19A H -1.4599 1.9407 0.2267
H20A H -1.5845 1.8020 0.1825
H21A H -1.3398 1.9872 0.1282
H22A H -1.2148 2.1258 0.1724
H23A H -1.6100 2.1950 0.1822
H24A H -1.7325 2.0583 0.1375
H25A H -1.4826 2.2484 0.0841
H26A H -1.3658 2.3861 0.1290
H27A H -1.7655 2.4493 0.1376
H28A H -1.8838 2.3105 0.0930
H29A H -1.6486 2.4991 0.0392
H30A H -1.5176 2.6356 0.0834
H31A H -1.9111 2.7057 0.0961
H32A H -2.0408 2.5702 0.0515
H33A H -1.8067 2.7612 -0.0030
H34A H -1.6756 2.8965 0.0415
H35A H -1.9660 2.8691 0.0268
loop_
_geom_bond_atom_site_label_1
_geom_bond_atom_site_label_2
_geom_bond_site_symmetry_1
_geom_bond_site_symmetry_2
S1 C1 1_555 1_555
S2 C1 1_555 1_555
N1 C3 1_555 1_555
C1 C1A 1_555 1_555
C2 S1 1_555 1_555
C3 C2 1_555 1_555
C4 N1 1_555 1_555
C5 S2 1_555 1_555
C6 N1 1_555 1_555
C7 C6 1_555 1_555
C8 C7 1_555 1_555
C9 C8 1_555 1_555
C10 C9 1_555 1_555
C11 C10 1_555 1_555
C12 C11 1_555 1_555
C13 C12 1_555 1_555
C14 C13 1_555 1_555
C15 C14 1_555 1_555
C16 C15 1_555 1_555
C17 C16 1_555 1_555
C18 C17 1_555 1_555
C19 C18 1_555 1_555
C20 C19 1_555 1_555
C21 C20 1_555 1_555
H1 C3 1_555 1_555
H2 C4 1_555 1_555
H3 C6 1_555 1_555
H4 C6 1_555 1_555
H5 C7 1_555 1_555
H6 C7 1_555 1_555
H7 C8 1_555 1_555
H8 C8 1_555 1_555
H9 C9 1_555 1_555
H10 C9 1_555 1_555
H11 C10 1_555 1_555
H12 C10 1_555 1_555
H13 C11 1_555 1_555
H14 C11 1_555 1_555
H15 C12 1_555 1_555
H16 C12 1_555 1_555
H17 C13 1_555 1_555
H18 C13 1_555 1_555
H19 C14 1_555 1_555
H20 C14 1_555 1_555
H21 C15 1_555 1_555
H22 C15 1_555 1_555
H23 C16 1_555 1_555
H24 C16 1_555 1_555
H25 C17 1_555 1_555
H26 C17 1_555 1_555
H27 C18 1_555 1_555
H28 C18 1_555 1_555
H29 C19 1_555 1_555
H30 C19 1_555 1_555
H31 C20 1_555 1_555
H32 C20 1_555 1_555
H33 C21 1_555 1_555
H34 C21 1_555 1_555
H35 C21 1_555 1_555
S1A C1A 1_555 1_555
S2A C1A 1_555 1_555
N1A C3A 1_555 1_555
C2A S1A 1_555 1_555
C3A C2A 1_555 1_555
C4A N1A 1_555 1_555
C5A S2A 1_555 1_555
C6A N1A 1_555 1_555
C7A C6A 1_555 1_555
C8A C7A 1_555 1_555
C9A C8A 1_555 1_555
C10A C9A 1_555 1_555
C11A C10A 1_555 1_555
C12A C11A 1_555 1_555
C13A C12A 1_555 1_555
C14A C13A 1_555 1_555
C15A C14A 1_555 1_555
C16A C15A 1_555 1_555
C17A C16A 1_555 1_555
C18A C17A 1_555 1_555
C19A C18A 1_555 1_555
C20A C19A 1_555 1_555
C21A C20A 1_555 1_555
H1A C3A 1_555 1_555
H2A C4A 1_555 1_555
H3A C6A 1_555 1_555
H4A C6A 1_555 1_555
H5A C7A 1_555 1_555
H6A C7A 1_555 1_555
H7A C8A 1_555 1_555
H8A C8A 1_555 1_555
H9A C9A 1_555 1_555
H10A C9A 1_555 1_555
H11A C10A 1_555 1_555
H12A C10A 1_555 1_555
H13A C11A 1_555 1_555
H14A C11A 1_555 1_555
H15A C12A 1_555 1_555
H16A C12A 1_555 1_555
H17A C13A 1_555 1_555
H18A C13A 1_555 1_555
H19A C14A 1_555 1_555
H20A C14A 1_555 1_555
H21A C15A 1_555 1_555
H22A C15A 1_555 1_555
H23A C16A 1_555 1_555
H24A C16A 1_555 1_555
H25A C17A 1_555 1_555
H26A C17A 1_555 1_555
H27A C18A 1_555 1_555
H28A C18A 1_555 1_555
H29A C19A 1_555 1_555
H30A C19A 1_555 1_555
H31A C20A 1_555 1_555
H32A C20A 1_555 1_555
H33A C21A 1_555 1_555
H34A C21A 1_555 1_555
H35A C21A 1_555 1_555
C2 C5 1_555 1_555
C4 C5 1_555 1_555
C2A C5A 1_555 1_555
C4A C5A 1_555 1_555

#END
