
#######################################################################
#
#                 Cambridge Crystallographic Data Centre
#                                CCDC 
#
#######################################################################
#
# If this CIF has been generated from an entry in the Cambridge 
# Structural Database, then it will include bibliographic, chemical, 
# crystal, experimental, refinement or atomic coordinate data resulting 
# from the CCDC's data processing and validation procedures.
#
#######################################################################

data_HITWAJ
_chemical_formula_moiety         'C17 H13 N5 O2'
_chemical_name_systematic        2,6-bis(4-Pyridylcarbonylamino)pyridine
_symmetry_cell_setting           orthorhombic
_symmetry_space_group_name_H-M   'P 21 21 21'
_symmetry_Int_Tables_number      19
_space_group_name_Hall           'P 2ac 2ab'
loop_
_symmetry_equiv_pos_site_id
_symmetry_equiv_pos_as_xyz
1 x,y,z
2 1/2-x,-y,1/2+z
3 1/2+x,1/2-y,-z
4 -x,1/2+y,1/2-z
_cell_length_a                   17.1841(9)
_cell_length_b                   12.4648(7)
_cell_length_c                   6.7661(4)
_cell_angle_alpha                90
_cell_angle_beta                 90
_cell_angle_gamma                90
_cell_volume                     1449.27
_exptl_crystal_colour            colorless
_exptl_crystal_description       block
_cell_formula_units_Z            4
_exptl_crystal_preparation       fluorescent
loop_
_atom_site_label
_atom_site_type_symbol
_atom_site_fract_x
_atom_site_fract_y
_atom_site_fract_z
O1 O 0.15274(12) -0.29808(18) 0.7785(4)
O2 O 0.43724(12) 0.20313(17) 0.7550(4)
N1 N -0.13425(15) -0.2420(2) 0.7230(4)
N2 N 0.14580(14) -0.1159(2) 0.7828(4)
H1 H 0.1121 -0.0628 0.7809
N3 N 0.23375(13) 0.0208(2) 0.7882(4)
N4 N 0.30699(14) 0.17326(19) 0.7887(4)
H2 H 0.2617 0.2060 0.7972
N5 N 0.33362(15) 0.5784(2) 0.7453(5)
C1 C -0.00545(18) -0.3099(3) 0.6710(5)
H3 H 0.0268 -0.3657 0.6217
C2 C -0.08551(19) -0.3170(3) 0.6555(5)
H4 H -0.1070 -0.3786 0.5934
C3 C -0.10239(19) -0.1568(3) 0.8084(5)
H5 H -0.1361 -0.1025 0.8569
C4 C -0.02230(19) -0.1421(3) 0.8314(5)
H6 H -0.0023 -0.0799 0.8948
C5 C 0.02704(16) -0.2203(2) 0.7593(5)
C6 C 0.11473(17) -0.2163(2) 0.7751(5)
C7 C 0.22488(16) -0.0854(2) 0.7932(5)
C8 C 0.28645(17) -0.1578(2) 0.8069(5)
H7 H 0.2782 -0.2332 0.8093
C9 C 0.35970(18) -0.1141(2) 0.8167(5)
H8 H 0.4033 -0.1605 0.8285
C10 C 0.37202(17) -0.0046(2) 0.8099(5)
H9 H 0.4229 0.0251 0.8144
C11 C 0.30606(17) 0.0602(2) 0.7960(4)
C12 C 0.37103(17) 0.2369(2) 0.7697(4)
C13 C 0.35512(16) 0.3561(2) 0.7647(4)
C14 C 0.29059(18) 0.4038(2) 0.8497(5)
H10 H 0.2530 0.3620 0.9181
C15 C 0.28189(18) 0.5141(3) 0.8328(5)
H11 H 0.2364 0.5458 0.8869
C16 C 0.39721(19) 0.5316(3) 0.6711(5)
H12 H 0.4356 0.5761 0.6117
C17 C 0.41034(18) 0.4220(3) 0.6758(5)
H13 H 0.4562 0.3924 0.6195
loop_
_geom_bond_atom_site_label_1
_geom_bond_atom_site_label_2
_geom_bond_site_symmetry_1
_geom_bond_site_symmetry_2
O1 C6 1_555 1_555
O2 C12 1_555 1_555
N1 C2 1_555 1_555
N2 H1 1_555 1_555
N3 C7 1_555 1_555
N4 H2 1_555 1_555
N5 C15 1_555 1_555
C1 H3 1_555 1_555
C2 C1 1_555 1_555
H4 C2 1_555 1_555
C3 N1 1_555 1_555
H5 C3 1_555 1_555
C4 C3 1_555 1_555
H6 C4 1_555 1_555
C5 C1 1_555 1_555
C6 N2 1_555 1_555
C7 N2 1_555 1_555
C8 C7 1_555 1_555
H7 C8 1_555 1_555
C9 C8 1_555 1_555
H8 C9 1_555 1_555
C10 C9 1_555 1_555
H9 C10 1_555 1_555
C11 N3 1_555 1_555
C12 N4 1_555 1_555
C13 C12 1_555 1_555
C14 C13 1_555 1_555
H10 C14 1_555 1_555
C15 C14 1_555 1_555
H11 C15 1_555 1_555
C16 N5 1_555 1_555
H12 C16 1_555 1_555
C17 C13 1_555 1_555
H13 C17 1_555 1_555
N4 C11 1_555 1_555
C4 C5 1_555 1_555
C5 C6 1_555 1_555
C10 C11 1_555 1_555
C16 C17 1_555 1_555

#END
