
#######################################################################
#
#                 Cambridge Crystallographic Data Centre
#                                CCDC 
#
#######################################################################
#
# If this CIF has been generated from an entry in the Cambridge 
# Structural Database, then it will include bibliographic, chemical, 
# crystal, experimental, refinement or atomic coordinate data resulting 
# from the CCDC's data processing and validation procedures.
#
#######################################################################

data_HITWIR
_chemical_formula_moiety         'C17 H15 N5 O2 2+,2(N1 O3 1-),C1 H4 O1'
_chemical_name_systematic        
'2,6-bis(4-Pyridylcarbonylamino)pyridine bis(nitric acid) methanol solvate'
_symmetry_cell_setting           triclinic
_symmetry_space_group_name_H-M   'P -1'
_symmetry_Int_Tables_number      2
_space_group_name_Hall           '-P 1'
loop_
_symmetry_equiv_pos_site_id
_symmetry_equiv_pos_as_xyz
1 x,y,z
2 -x,-y,-z
_cell_length_a                   8.9200(18)
_cell_length_b                   11.111(2)
_cell_length_c                   11.748(2)
_cell_angle_alpha                110.96(3)
_cell_angle_beta                 100.17(3)
_cell_angle_gamma                94.53(3)
_cell_volume                     1057.34
_exptl_crystal_colour            yellow
_exptl_crystal_description       block
_cell_formula_units_Z            2
_exptl_crystal_preparation       fluorescent
loop_
_atom_site_label
_atom_site_type_symbol
_atom_site_fract_x
_atom_site_fract_y
_atom_site_fract_z
O1 O 0.9630(4) 0.9106(4) 1.0964(4)
O2 O 0.1653(4) 0.8967(4) 0.6680(4)
N1 N 1.0167(4) 0.6586(4) 1.3652(4)
H1 H 1.0509 0.6217 1.4155
N2 N 0.7123(4) 0.8150(4) 1.0558(4)
H2 H 0.6522 0.7661 1.0768
N3 N 0.4911(4) 0.8174(4) 0.9255(4)
N4 N 0.2523(4) 0.8073(3) 0.8094(4)
H3 H 0.2231 0.7577 0.8458
N5 N -0.3215(4) 0.6583(4) 0.6666(4)
H4 H -0.4152 0.6208 0.6502
C1 C 1.0486(5) 0.8267(5) 1.2908(5)
H5 H 1.1065 0.9023 1.2952
C2 C 1.0999(5) 0.7666(6) 1.3703(5)
H6 H 1.1931 0.8011 1.4283
C3 C 0.8827(5) 0.6066(5) 1.2845(5)
H7 H 0.8263 0.5328 1.2849
C4 C 0.8254(5) 0.6616(5) 1.1991(5)
H8 H 0.7330 0.6235 1.1409
C5 C 0.9092(5) 0.7744(5) 1.2029(5)
C6 C 0.8638(5) 0.8396(5) 1.1142(5)
C7 C 0.6423(5) 0.8606(4) 0.9644(5)
C8 C 0.7208(5) 0.9419(4) 0.9197(5)
H9 H 0.8261 0.9710 0.9493
C9 C 0.6366(5) 0.9769(4) 0.8306(5)
H10 H 0.6857 1.0301 0.7983
C10 C 0.4784(5) 0.9343(4) 0.7875(5)
H11 H 0.4206 0.9581 0.7271
C11 C 0.4115(5) 0.8554(4) 0.8383(5)
C12 C 0.1410(5) 0.8326(4) 0.7291(5)
C13 C -0.0228(5) 0.7694(4) 0.7140(5)
C14 C -0.0661(5) 0.6975(5) 0.7793(5)
H12 H 0.0062 0.6859 0.8404
C15 C -0.2192(5) 0.6423(5) 0.7530(5)
H13 H -0.2498 0.5934 0.7971
C16 C -0.2846(5) 0.7313(4) 0.6029(5)
H14 H -0.3604 0.7432 0.5442
C17 C -0.1337(5) 0.7885(5) 0.6248(5)
H15 H -0.1066 0.8388 0.5809
O3 O 0.6458(4) 0.3541(3) 1.4977(4)
O4 O 0.6209(4) 0.4491(3) 1.3650(3)
O5 O 0.8488(3) 0.4444(3) 1.4624(3)
N6 N 0.7044(4) 0.4144(3) 1.4414(4)
O10 O 0.4789(4) 0.7055(6) 0.1515(6)
C18 C 0.4550(10) 0.6381(18) 0.2163(14)
H16 H 0.5520 0.6270 0.2589
H17 H 0.3974 0.5542 0.1624
H18 H 0.3978 0.6823 0.2766
O6? O 0.7144(9) 0.9054(7) 0.4344(7)
O7? O 0.4284(9) 0.9318(16) 0.4095(12)
O8? O 1.1916(7) 0.6465(5) 0.9797(5)
N7? N 0.5704(12) 0.9363(11) 0.4556(11)
N8? N 1.0755(9) 0.5575(8) 1.0017(8)
O9? O 1.0843(9) 0.4854(7) 1.0653(6)
loop_
_geom_bond_atom_site_label_1
_geom_bond_atom_site_label_2
_geom_bond_site_symmetry_1
_geom_bond_site_symmetry_2
O1 C6 1_555 1_555
O2 C12 1_555 1_555
O3 N6 1_555 1_555
O4 N6 1_555 1_555
O5 N6 1_555 1_555
N1 H1 1_555 1_555
N2 H2 1_555 1_555
N3 C7 1_555 1_555
N4 H3 1_555 1_555
N5 H4 1_555 1_555
C1 H5 1_555 1_555
C2 N1 1_555 1_555
H6 C2 1_555 1_555
C3 N1 1_555 1_555
H7 C3 1_555 1_555
C4 C3 1_555 1_555
H8 C4 1_555 1_555
C5 C1 1_555 1_555
C6 N2 1_555 1_555
C7 N2 1_555 1_555
C8 C7 1_555 1_555
H9 C8 1_555 1_555
C9 C8 1_555 1_555
H10 C9 1_555 1_555
C10 C9 1_555 1_555
H11 C10 1_555 1_555
C11 N3 1_555 1_555
C12 N4 1_555 1_555
C13 C12 1_555 1_555
C14 C13 1_555 1_555
H12 C14 1_555 1_555
C15 N5 1_555 1_555
H13 C15 1_555 1_555
C16 N5 1_555 1_555
H14 C16 1_555 1_555
C17 C13 1_555 1_555
H15 C17 1_555 1_555
O10 C18 1_555 1_555
C18 H16 1_555 1_555
H17 C18 1_555 1_555
H18 C18 1_555 1_555
N4 C11 1_555 1_555
C1 C2 1_555 1_555
C4 C5 1_555 1_555
C5 C6 1_555 1_555
C10 C11 1_555 1_555
C14 C15 1_555 1_555
C16 C17 1_555 1_555

#END
