
#######################################################################
#
#                 Cambridge Crystallographic Data Centre
#                                CCDC 
#
#######################################################################
#
# If this CIF has been generated from an entry in the Cambridge 
# Structural Database, then it will include bibliographic, chemical, 
# crystal, experimental, refinement or atomic coordinate data resulting 
# from the CCDC's data processing and validation procedures.
#
#######################################################################

data_HITYIT
_chemical_formula_moiety         'C9 H8 Cl1 N1 O4'
_chemical_name_systematic        'Ethyl 4-chloro-3-nitrobenzoate'
_symmetry_cell_setting           monoclinic
_symmetry_space_group_name_H-M   'C 2/c'
_symmetry_Int_Tables_number      15
_space_group_name_Hall           '-C 2yn'
loop_
_symmetry_equiv_pos_site_id
_symmetry_equiv_pos_as_xyz
1 x,y,z
2 1/2+x,1/2+y,z
3 -x,y,1/2-z
4 1/2-x,1/2+y,1/2-z
5 -x,-y,-z
6 1/2-x,1/2-y,-z
7 x,-y,1/2+z
8 1/2+x,1/2-y,1/2+z
_cell_length_a                   12.930(3)
_cell_length_b                   7.4820(15)
_cell_length_c                   20.945(4)
_cell_angle_alpha                90
_cell_angle_beta                 92.11(3)
_cell_angle_gamma                90
_cell_volume                     2024.89
_exptl_crystal_colour            colorless
_exptl_crystal_description       block
_cell_formula_units_Z            8
_exptl_crystal_recrystallization_method methanol
loop_
_atom_site_label
_atom_site_type_symbol
_atom_site_fract_x
_atom_site_fract_y
_atom_site_fract_z
Cl1 Cl 1.15365(6) 0.38995(10) 0.39251(4)
O1 O 0.91716(14) 0.1218(3) 0.65000(8)
O2 O 0.78374(14) 0.0870(3) 0.58085(9)
O3 O 0.9430(2) 0.3802(4) 0.33433(11)
O4 O 0.87451(19) 0.1219(3) 0.35272(10)
N1 N 0.92750(19) 0.2507(4) 0.36829(10)
C1 C 0.8393(3) 0.2219(5) 0.74482(16)
H1 H 0.7999 0.1862 0.7807
H2 H 0.8023 0.3127 0.7210
H3 H 0.9051 0.2681 0.7598
C2 C 0.8556(3) 0.0672(5) 0.70361(13)
H4 H 0.8912 -0.0264 0.7277
H5 H 0.7894 0.0207 0.6879
C3 C 0.87120(18) 0.1287(3) 0.59279(11)
C4 C 0.94310(16) 0.1938(3) 0.54379(10)
C5 C 0.90841(17) 0.1923(3) 0.48080(10)
H6 H 0.8426 0.1492 0.4700
C6 C 0.97087(18) 0.2546(3) 0.43393(11)
C7 C 1.06993(18) 0.3170(3) 0.44914(11)
C8 C 1.10485(18) 0.3167(3) 0.51210(12)
H7 H 1.1711 0.3576 0.5229
C9 C 1.04200(17) 0.2561(3) 0.55916(11)
H8 H 1.0660 0.2569 0.6016
loop_
_geom_bond_atom_site_label_1
_geom_bond_atom_site_label_2
_geom_bond_site_symmetry_1
_geom_bond_site_symmetry_2
Cl1 C7 1_555 1_555
O1 C2 1_555 1_555
O2 C3 1_555 1_555
O3 N1 1_555 1_555
O4 N1 1_555 1_555
N1 C6 1_555 1_555
C1 H1 1_555 1_555
H2 C1 1_555 1_555
H3 C1 1_555 1_555
C2 C1 1_555 1_555
H4 C2 1_555 1_555
H5 C2 1_555 1_555
C3 O1 1_555 1_555
C4 C3 1_555 1_555
C5 C4 1_555 1_555
H6 C5 1_555 1_555
C6 C5 1_555 1_555
C7 C6 1_555 1_555
C8 C7 1_555 1_555
H7 C8 1_555 1_555
C9 C4 1_555 1_555
H8 C9 1_555 1_555
C8 C9 1_555 1_555

#END
