
#######################################################################
#
#                 Cambridge Crystallographic Data Centre
#                                CCDC 
#
#######################################################################
#
# If this CIF has been generated from an entry in the Cambridge 
# Structural Database, then it will include bibliographic, chemical, 
# crystal, experimental, refinement or atomic coordinate data resulting 
# from the CCDC's data processing and validation procedures.
#
#######################################################################

data_HITZUG
_chemical_formula_moiety         'C27 H30 O6'
_chemical_name_systematic        
"(2S,4'R,5'R)-(E)-t-Butyl 2-acetyl-2-(2-oxo-5-phenyl-1,3-dioxolan-4-ylmethyl)-5-phenylpent-4-enoate"
_symmetry_cell_setting           orthorhombic
_symmetry_space_group_name_H-M   'P 21 21 21'
_symmetry_Int_Tables_number      19
_space_group_name_Hall           'P 2ac 2ab'
loop_
_symmetry_equiv_pos_site_id
_symmetry_equiv_pos_as_xyz
1 x,y,z
2 1/2-x,-y,1/2+z
3 -x,1/2+y,1/2-z
4 1/2+x,1/2-y,-z
_cell_length_a                   6.4707(2)
_cell_length_b                   7.7258(4)
_cell_length_c                   49.803(3)
_cell_angle_alpha                90
_cell_angle_beta                 90
_cell_angle_gamma                90
_cell_volume                     2489.72
_exptl_crystal_colour            colorless
_exptl_crystal_description       plate
_chemical_melting_point          '449-450 K'
_cell_formula_units_Z            4
loop_
_atom_site_label
_atom_site_type_symbol
_atom_site_fract_x
_atom_site_fract_y
_atom_site_fract_z
O1 O 0.5651(9) 0.7809(10) 0.79920(11)
O2 O 0.7465(8) 0.5341(8) 0.80759(10)
O3 O 0.4141(8) 0.4621(9) 0.84707(10)
O4 O 0.3075(9) 0.3331(8) 0.88419(13)
O5 O 0.1713(12) 0.2537(12) 0.84465(15)
O6 O 1.1049(8) 0.7479(10) 0.85656(13)
C1 C 0.6727(11) 0.6903(13) 0.81319(16)
C2 C 0.7525(10) 0.7483(12) 0.84096(14)
C3 C 0.7220(10) 0.6075(11) 0.86277(15)
H1 H 0.7955 0.5014 0.8570
H2 H 0.7876 0.6480 0.8796
C4 C 0.5051(11) 0.5618(12) 0.86863(14)
H3 H 0.4234 0.6704 0.8712
C5 C 0.4734(13) 0.4430(12) 0.89308(14)
H4 H 0.6005 0.3717 0.8960
C6 C 0.2887(15) 0.3408(16) 0.8573(2)
C7 C 0.4154(9) 0.5309(9) 0.91885(9)
C8 C 0.2322(8) 0.6241(9) 0.92076(11)
H5 H 0.1450 0.6355 0.9055
C9 C 0.1766(10) 0.7005(9) 0.94498(15)
H6 H 0.0515 0.7642 0.9463
C10 C 0.3042(13) 0.6837(9) 0.96728(11)
H7 H 0.2662 0.7360 0.9838
C11 C 0.4874(12) 0.5905(10) 0.96537(9)
H8 H 0.5746 0.5791 0.9806
C12 C 0.5429(9) 0.5141(9) 0.94116(12)
H9 H 0.6681 0.4504 0.9399
C13 C 0.9897(13) 0.7829(13) 0.83825(17)
C14 C 1.0678(12) 0.8710(13) 0.81315(16)
H10 H 1.2177 0.8868 0.8144
H11 H 1.0007 0.9840 0.8113
H12 H 1.0356 0.7992 0.7975
C15 C 0.6514(11) 0.9228(11) 0.84840(15)
H13 H 0.6708 1.0055 0.8334
H14 H 0.5011 0.9055 0.8509
C16 C 0.7411(16) 0.9975(13) 0.8733(2)
H15 H 0.8774 1.0426 0.8722
C17 C 0.6501(16) 1.0065(14) 0.8962(2)
H16 H 0.5094 0.9719 0.8971
C18 C 0.7538(12) 1.0696(10) 0.92249(10)
C19 C 0.6353(9) 1.0352(9) 0.94515(13)
H17 H 0.5048 0.9801 0.9434
C20 C 0.7078(11) 1.0815(10) 0.97042(10)
H18 H 0.6268 1.0580 0.9859
C21 C 0.8987(12) 1.1622(10) 0.97304(13)
H19 H 0.9483 1.1938 0.9903
C22 C 1.0172(9) 1.1966(9) 0.95038(19)
H20 H 1.1478 1.2517 0.9522
C23 C 0.9448(11) 1.1503(10) 0.92511(15)
H21 H 1.0258 1.1738 0.9096
C24 C 0.6977(13) 0.4463(15) 0.78174(16)
C25 C 0.4660(18) 0.445(2) 0.7773(2)
H22 H 0.4169 0.5632 0.7745
H23 H 0.3977 0.3952 0.7932
H24 H 0.4335 0.3742 0.7615
C26 C 0.796(2) 0.2715(13) 0.7865(2)
H25 H 0.7212 0.2104 0.8007
H26 H 0.9407 0.2874 0.7919
H27 H 0.7911 0.2034 0.7699
C27 C 0.8136(17) 0.5420(17) 0.75951(19)
H28 H 0.7483 0.6547 0.7564
H29 H 0.8090 0.4736 0.7430
H30 H 0.9577 0.5593 0.7649
loop_
_geom_bond_atom_site_label_1
_geom_bond_atom_site_label_2
_geom_bond_site_symmetry_1
_geom_bond_site_symmetry_2
O1 C1 1_555 1_555
O2 C1 1_555 1_555
O3 C4 1_555 1_555
O4 C5 1_555 1_555
O5 C6 1_555 1_555
O6 C13 1_555 1_555
C1 C2 1_555 1_555
C2 C3 1_555 1_555
C3 H1 1_555 1_555
H2 C3 1_555 1_555
C4 C3 1_555 1_555
H3 C4 1_555 1_555
C5 C4 1_555 1_555
H4 C5 1_555 1_555
C6 O3 1_555 1_555
C7 C5 1_555 1_555
C8 C7 1_555 1_555
H5 C8 1_555 1_555
C9 C8 1_555 1_555
H6 C9 1_555 1_555
C10 C9 1_555 1_555
H7 C10 1_555 1_555
C11 C10 1_555 1_555
H8 C11 1_555 1_555
C12 C7 1_555 1_555
H9 C12 1_555 1_555
C13 C2 1_555 1_555
C14 C13 1_555 1_555
H10 C14 1_555 1_555
H11 C14 1_555 1_555
H12 C14 1_555 1_555
C15 C2 1_555 1_555
H13 C15 1_555 1_555
H14 C15 1_555 1_555
C16 C15 1_555 1_555
H15 C16 1_555 1_555
C17 C16 1_555 1_555
H16 C17 1_555 1_555
C18 C17 1_555 1_555
C19 C18 1_555 1_555
H17 C19 1_555 1_555
C20 C19 1_555 1_555
H18 C20 1_555 1_555
C21 C20 1_555 1_555
H19 C21 1_555 1_555
C22 C21 1_555 1_555
H20 C22 1_555 1_555
C23 C18 1_555 1_555
H21 C23 1_555 1_555
C24 O2 1_555 1_555
C25 C24 1_555 1_555
H22 C25 1_555 1_555
H23 C25 1_555 1_555
H24 C25 1_555 1_555
C26 C24 1_555 1_555
H25 C26 1_555 1_555
H26 C26 1_555 1_555
H27 C26 1_555 1_555
C27 C24 1_555 1_555
H28 C27 1_555 1_555
H29 C27 1_555 1_555
H30 C27 1_555 1_555
O4 C6 1_555 1_555
C11 C12 1_555 1_555
C22 C23 1_555 1_555

#END
