
#######################################################################
#
#                 Cambridge Crystallographic Data Centre
#                                CCDC 
#
#######################################################################
#
# If this CIF has been generated from an entry in the Cambridge 
# Structural Database, then it will include bibliographic, chemical, 
# crystal, experimental, refinement or atomic coordinate data resulting 
# from the CCDC's data processing and validation procedures.
#
#######################################################################

data_HITZEQ
_chemical_formula_moiety         'C16 H17 F1 N2 O4,H2 O1'
_chemical_name_systematic        
'Ethyl 7-amino-1-cyclopropyl-6-fluoro-8-methoxy-4-oxo-1,4-dihydroquinoline-3-carboxylate monohydrate'
_symmetry_cell_setting           monoclinic
_symmetry_space_group_name_H-M   'P 21/n'
_symmetry_Int_Tables_number      14
_space_group_name_Hall           '-P 2yn'
loop_
_symmetry_equiv_pos_site_id
_symmetry_equiv_pos_as_xyz
1 x,y,z
2 1/2-x,1/2+y,1/2-z
3 -x,-y,-z
4 1/2+x,1/2-y,1/2+z
_cell_length_a                   10.096(4)
_cell_length_b                   14.699(5)
_cell_length_c                   11.028(6)
_cell_angle_alpha                90
_cell_angle_beta                 94.26(4)
_cell_angle_gamma                90
_cell_volume                     1632.05
_exptl_crystal_colour            yellow
_exptl_crystal_description       Block
_cell_formula_units_Z            4
loop_
_atom_site_label
_atom_site_type_symbol
_atom_site_fract_x
_atom_site_fract_y
_atom_site_fract_z
F1 F 0.51891(13) 0.59935(11) 1.01305(12)
O1 O 0.07128(14) 0.68291(10) 1.03507(12)
O2 O 0.33328(14) 0.56826(12) 0.58213(13)
O3 O -0.04405(16) 0.62649(11) 0.41364(13)
O4 O 0.16963(18) 0.62837(18) 0.37733(15)
N1 N 0.3174(3) 0.65375(16) 1.14712(18)
H1 H 0.385(3) 0.6210(17) 1.184(2)
H2 H 0.248(3) 0.6504(18) 1.186(2)
N2 N 0.01966(16) 0.64366(12) 0.77689(13)
C1 C 0.3794(2) 0.59542(15) 0.83243(19)
H3 H 0.4507 0.5774 0.7894
C2 C 0.3970(2) 0.61005(15) 0.95442(19)
C3 C 0.2938(2) 0.63708(14) 1.02489(17)
C4 C 0.1693(2) 0.65127(13) 0.96495(17)
C5 C 0.1457(2) 0.63418(13) 0.83915(17)
C6 C 0.2533(2) 0.60753(13) 0.77155(17)
C7 C 0.0710(3) 0.78037(18) 1.0445(3)
H4 H 0.1564 0.8008 1.0778
H5 H 0.0041 0.7990 1.0968
H6 H 0.0523 0.8064 0.9653
C8 C 0.2389(2) 0.59719(14) 0.63888(17)
C9 C 0.1107(2) 0.62227(14) 0.58234(17)
C10 C 0.0092(2) 0.64129(14) 0.65419(17)
H7 H -0.0738 0.6536 0.6152
C11 C -0.1031(2) 0.65083(17) 0.83913(18)
H8 H -0.1233 0.7109 0.8716
C12 C -0.2192(2) 0.5947(2) 0.7935(2)
H9 H -0.2086 0.5554 0.7242
H10 H -0.3070 0.6208 0.7971
C13 C -0.1436(2) 0.5712(2) 0.9108(2)
H11 H -0.1857 0.5830 0.9854
H12 H -0.0873 0.5177 0.9126
C14 C 0.0853(2) 0.62535(17) 0.44863(19)
C15 C -0.0802(3) 0.6314(2) 0.28436(19)
H13 H -0.0528 0.5763 0.2449
H14 H -0.0360 0.6826 0.2493
C16 C -0.2257(2) 0.64228(17) 0.2653(2)
H15 H -0.2687 0.5904 0.2979
H16 H -0.2506 0.6471 0.1798
H17 H -0.2523 0.6964 0.3058
O5 O 0.5509(2) 0.44950(16) 0.65115(16)
H18 H 0.606(3) 0.446(2) 0.598(3)
H19 H 0.486(3) 0.488(2) 0.621(3)
loop_
_geom_bond_atom_site_label_1
_geom_bond_atom_site_label_2
_geom_bond_site_symmetry_1
_geom_bond_site_symmetry_2
F1 C2 1_555 1_555
O1 C4 1_555 1_555
O2 C8 1_555 1_555
O3 C14 1_555 1_555
O4 C14 1_555 1_555
N1 H1 1_555 1_555
H2 N1 1_555 1_555
N2 C5 1_555 1_555
C1 H3 1_555 1_555
C2 C1 1_555 1_555
C3 N1 1_555 1_555
C4 C3 1_555 1_555
C5 C4 1_555 1_555
C6 C1 1_555 1_555
C7 O1 1_555 1_555
H4 C7 1_555 1_555
H5 C7 1_555 1_555
H6 C7 1_555 1_555
C8 C6 1_555 1_555
C9 C8 1_555 1_555
C10 N2 1_555 1_555
H7 C10 1_555 1_555
C11 N2 1_555 1_555
H8 C11 1_555 1_555
C12 C11 1_555 1_555
H9 C12 1_555 1_555
H10 C12 1_555 1_555
C13 C11 1_555 1_555
H11 C13 1_555 1_555
H12 C13 1_555 1_555
C14 C9 1_555 1_555
C15 O3 1_555 1_555
H13 C15 1_555 1_555
H14 C15 1_555 1_555
C16 C15 1_555 1_555
H15 C16 1_555 1_555
H16 C16 1_555 1_555
H17 C16 1_555 1_555
O5 H18 1_555 1_555
H19 O5 1_555 1_555
C2 C3 1_555 1_555
C5 C6 1_555 1_555
C9 C10 1_555 1_555
C12 C13 1_555 1_555

#END
