
#######################################################################
#
#                 Cambridge Crystallographic Data Centre
#                                CCDC 
#
#######################################################################
#
# If this CIF has been generated from an entry in the Cambridge 
# Structural Database, then it will include bibliographic, chemical, 
# crystal, experimental, refinement or atomic coordinate data resulting 
# from the CCDC's data processing and validation procedures.
#
#######################################################################

data_HIVBIY
_chemical_formula_moiety         'C9 H11 N1 O2'
_chemical_name_systematic        N-Hydroxy-N-(o-tolyl)acetamide
_symmetry_cell_setting           monoclinic
_symmetry_space_group_name_H-M   'P 21/c'
_symmetry_Int_Tables_number      14
_space_group_name_Hall           '-P 2ybc'
loop_
_symmetry_equiv_pos_site_id
_symmetry_equiv_pos_as_xyz
1 x,y,z
2 -x,1/2+y,1/2-z
3 -x,-y,-z
4 x,1/2-y,1/2+z
_cell_length_a                   7.7890(16)
_cell_length_b                   7.1570(14)
_cell_length_c                   15.613(3)
_cell_angle_alpha                90
_cell_angle_beta                 96.86(3)
_cell_angle_gamma                90
_cell_volume                     864.129
_exptl_crystal_colour            colorless
_exptl_crystal_description       block
_chemical_melting_point          '350 K'
_cell_formula_units_Z            4
_exptl_crystal_recrystallization_method 'petroleum ether'
loop_
_atom_site_label
_atom_site_type_symbol
_atom_site_fract_x
_atom_site_fract_y
_atom_site_fract_z
N1 N 0.7518(4) 0.1297(4) 0.08788(17)
O1 O 0.8117(3) -0.0536(3) 0.08895(15)
H1 H 0.8888 -0.0624 0.0577
O2 O 0.9365(3) 0.2046(3) -0.00399(16)
C1 C 0.8476(4) 0.1834(6) 0.2703(2)
H2 H 0.8527 0.2003 0.3316
H3 H 0.9065 0.2848 0.2461
H4 H 0.9022 0.0675 0.2585
C2 C 0.6626(4) 0.1799(4) 0.23108(19)
C3 C 0.5278(5) 0.2025(5) 0.2806(2)
H5 H 0.5533 0.2200 0.3398
C4 C 0.3579(5) 0.1999(5) 0.2453(2)
H6 H 0.2706 0.2150 0.2805
C5 C 0.3164(4) 0.1750(5) 0.1577(2)
H7 H 0.2013 0.1721 0.1337
C6 C 0.4465(4) 0.1545(5) 0.1062(2)
H8 H 0.4194 0.1392 0.0470
C7 C 0.6189(4) 0.1567(4) 0.14250(18)
C8 C 0.8214(4) 0.2543(5) 0.03929(18)
C9 C 0.7578(5) 0.4524(5) 0.0400(3)
H9 H 0.8186 0.5270 0.0023
H10 H 0.7779 0.5013 0.0975
H11 H 0.6362 0.4555 0.0205
loop_
_geom_bond_atom_site_label_1
_geom_bond_atom_site_label_2
_geom_bond_site_symmetry_1
_geom_bond_site_symmetry_2
N1 O1 1_555 1_555
O1 H1 1_555 1_555
O2 C8 1_555 1_555
C1 H2 1_555 1_555
H3 C1 1_555 1_555
H4 C1 1_555 1_555
C2 C1 1_555 1_555
C3 C2 1_555 1_555
H5 C3 1_555 1_555
C4 C3 1_555 1_555
H6 C4 1_555 1_555
C5 C4 1_555 1_555
H7 C5 1_555 1_555
C6 C5 1_555 1_555
H8 C6 1_555 1_555
C7 N1 1_555 1_555
C8 N1 1_555 1_555
C9 C8 1_555 1_555
H9 C9 1_555 1_555
H10 C9 1_555 1_555
H11 C9 1_555 1_555
C2 C7 1_555 1_555
C6 C7 1_555 1_555

#END
