
#######################################################################
#
#                 Cambridge Crystallographic Data Centre
#                                CCDC 
#
#######################################################################
#
# If this CIF has been generated from an entry in the Cambridge 
# Structural Database, then it will include bibliographic, chemical, 
# crystal, experimental, refinement or atomic coordinate data resulting 
# from the CCDC's data processing and validation procedures.
#
#######################################################################

data_HIVDOH
_chemical_formula_moiety         'C15 H20 F1 N1 O2 S1'
_chemical_name_systematic        
3-Fluoro-1-((4-methylphenyl)sulfonyl)octahydro-1H-indole
_symmetry_cell_setting           monoclinic
_symmetry_space_group_name_H-M   'P 21/c'
_symmetry_Int_Tables_number      14
_space_group_name_Hall           '-P 2ybc'
loop_
_symmetry_equiv_pos_site_id
_symmetry_equiv_pos_as_xyz
1 x,y,z
2 -x,1/2+y,1/2-z
3 -x,-y,-z
4 x,1/2-y,1/2+z
_cell_length_a                   17.462(4)
_cell_length_b                   6.3470(13)
_cell_length_c                   13.727(3)
_cell_angle_alpha                90
_cell_angle_beta                 110.83(3)
_cell_angle_gamma                90
_cell_volume                     1421.94
_cell_formula_units_Z            4
loop_
_atom_site_label
_atom_site_type_symbol
_atom_site_fract_x
_atom_site_fract_y
_atom_site_fract_z
S1 S 0.21467(2) 0.75850(5) 0.13510(3)
F1 F 0.47754(5) 0.50215(13) 0.30269(6)
O1 O 0.23500(7) 0.92582(15) 0.07839(8)
O2 O 0.17104(6) 0.80130(17) 0.20390(8)
N1 N 0.30120(7) 0.65047(18) 0.20583(8)
C1 C 0.15966(8) 0.5670(2) 0.04440(10)
C2 C 0.11063(9) 0.4233(2) 0.07112(11)
H1 H 0.1028 0.4351 0.1359
C3 C 0.07344(10) 0.2632(3) 0.00292(12)
H2 H 0.0401 0.1647 0.0216
C4 C 0.08362(9) 0.2423(2) -0.09289(11)
C5 C 0.13160(8) 0.3901(2) -0.11912(10)
H3 H 0.1387 0.3798 -0.1844
C6 C 0.16925(8) 0.5522(2) -0.05164(10)
H4 H 0.2015 0.6529 -0.0709
C7 C 0.04355(11) 0.0646(3) -0.16571(13)
H5 H 0.0741 -0.0661 -0.1405
H6 H 0.0434 0.0966 -0.2356
H7 H -0.0130 0.0474 -0.1685
C8 C 0.30170(8) 0.4781(2) 0.27973(10)
H8 H 0.2444 0.4283 0.2657
C9 C 0.33962(9) 0.5544(2) 0.39244(10)
H9 H 0.3902 0.6347 0.4012
H10 H 0.3008 0.6499 0.4083
C10 C 0.36001(9) 0.3694(2) 0.46850(10)
H11 H 0.3840 0.4228 0.5408
H12 H 0.3092 0.2917 0.4617
C11 C 0.42044(9) 0.2212(2) 0.44635(10)
H13 H 0.4334 0.1027 0.4965
H14 H 0.4720 0.2978 0.4557
C12 C 0.38490(9) 0.1351(2) 0.33537(10)
H15 H 0.3403 0.0351 0.3311
H16 H 0.4282 0.0553 0.3204
C13 C 0.35113(8) 0.3039(2) 0.25139(10)
H17 H 0.3127 0.2310 0.1884
C14 C 0.41151(8) 0.4251(2) 0.21622(10)
H18 H 0.4320 0.3357 0.1706
C15 C 0.36233(8) 0.6097(2) 0.15586(10)
H19 H 0.3978 0.7342 0.1616
H20 H 0.3350 0.5736 0.0813
loop_
_geom_bond_atom_site_label_1
_geom_bond_atom_site_label_2
_geom_bond_site_symmetry_1
_geom_bond_site_symmetry_2
S1 O1 1_555 1_555
F1 C14 1_555 1_555
O2 S1 1_555 1_555
N1 S1 1_555 1_555
C1 S1 1_555 1_555
C2 C1 1_555 1_555
H1 C2 1_555 1_555
C3 C2 1_555 1_555
H2 C3 1_555 1_555
C4 C3 1_555 1_555
C5 C4 1_555 1_555
H3 C5 1_555 1_555
C6 C1 1_555 1_555
H4 C6 1_555 1_555
C7 C4 1_555 1_555
H5 C7 1_555 1_555
H6 C7 1_555 1_555
H7 C7 1_555 1_555
C8 N1 1_555 1_555
H8 C8 1_555 1_555
C9 C8 1_555 1_555
H9 C9 1_555 1_555
H10 C9 1_555 1_555
C10 C9 1_555 1_555
H11 C10 1_555 1_555
H12 C10 1_555 1_555
C11 C10 1_555 1_555
H13 C11 1_555 1_555
H14 C11 1_555 1_555
C12 C11 1_555 1_555
H15 C12 1_555 1_555
H16 C12 1_555 1_555
C13 C8 1_555 1_555
H17 C13 1_555 1_555
C14 C13 1_555 1_555
H18 C14 1_555 1_555
C15 N1 1_555 1_555
H19 C15 1_555 1_555
H20 C15 1_555 1_555
C5 C6 1_555 1_555
C12 C13 1_555 1_555
C14 C15 1_555 1_555

#END
