
#######################################################################
#
#                 Cambridge Crystallographic Data Centre
#                                CCDC 
#
#######################################################################
#
# If this CIF has been generated from an entry in the Cambridge 
# Structural Database, then it will include bibliographic, chemical, 
# crystal, experimental, refinement or atomic coordinate data resulting 
# from the CCDC's data processing and validation procedures.
#
#######################################################################

data_HIVFEZ
_chemical_formula_moiety         'C15 H22 F1 N1 O2 S1'
_chemical_name_systematic        
trans-2-t-Butyl-4-fluoro-1-((4-methylphenyl)sulfonyl)pyrrolidine
_symmetry_cell_setting           monoclinic
_symmetry_space_group_name_H-M   'P 21/n'
_symmetry_Int_Tables_number      14
_space_group_name_Hall           '-P 2yn'
loop_
_symmetry_equiv_pos_site_id
_symmetry_equiv_pos_as_xyz
1 x,y,z
2 1/2-x,1/2+y,1/2-z
3 -x,-y,-z
4 1/2+x,1/2-y,1/2+z
_cell_length_a                   6.2800(8)
_cell_length_b                   19.188(2)
_cell_length_c                   12.9030(15)
_cell_angle_alpha                90
_cell_angle_beta                 96.840(5)
_cell_angle_gamma                90
_cell_volume                     1543.75
_exptl_crystal_colour            colorless
_exptl_crystal_description       prism
_cell_formula_units_Z            4
loop_
_atom_site_label
_atom_site_type_symbol
_atom_site_fract_x
_atom_site_fract_y
_atom_site_fract_z
S1 S 0.41115(6) 0.76354(2) 0.33723(3)
F1 F 0.30269(17) 0.86196(6) 0.57822(10)
C1 C 0.0991(5) 0.75761(13) 0.55837(19)
H1 H -0.0078 0.7941 0.5358
H2 H 0.0428 0.7291 0.6129
C2 C 0.3091(4) 0.79094(11) 0.60170(18)
H3 H 0.3391 0.7832 0.6787
O1 O 0.63983(16) 0.76147(6) 0.33645(8)
O2 O 0.27360(17) 0.72977(5) 0.25594(8)
N1 N 0.36325(18) 0.72835(6) 0.44708(9)
C3 C 0.1373(2) 0.71132(7) 0.46482(11)
H4 H 0.0427 0.7263 0.4050
C4 C 0.4784(2) 0.75662(8) 0.54480(11)
H5 H 0.5479 0.7198 0.5864
H6 H 0.5847 0.7899 0.5297
C5 C 0.1047(2) 0.63220(8) 0.48075(12)
C6 C 0.1476(3) 0.59333(9) 0.38168(14)
H7 H 0.0488 0.6101 0.3224
H8 H 0.1257 0.5433 0.3910
H9 H 0.2957 0.6017 0.3682
C7 C -0.1292(2) 0.61990(9) 0.49890(14)
H10 H -0.1581 0.5697 0.4992
H11 H -0.2246 0.6421 0.4429
H12 H -0.1543 0.6400 0.5662
C8 C 0.2536(3) 0.60352(9) 0.57353(14)
H13 H 0.2183 0.5546 0.5848
H14 H 0.2349 0.6306 0.6362
H15 H 0.4028 0.6071 0.5589
C9 C 0.3375(2) 0.85227(8) 0.33790(11)
C10 C 0.1228(2) 0.87110(8) 0.31558(12)
H16 H 0.0166 0.8368 0.2959
C11 C 0.0663(2) 0.94046(8) 0.32249(13)
H17 H -0.0799 0.9535 0.3067
C12 C 0.2193(3) 0.99192(8) 0.35214(13)
C13 C 0.4336(3) 0.97188(9) 0.37150(13)
H18 H 0.5407 1.0062 0.3894
C14 C 0.4927(2) 0.90266(8) 0.36499(12)
H19 H 0.6392 0.8897 0.3791
C15 C 0.1518(3) 1.06610(9) 0.36549(15)
H20 H 0.2732 1.0972 0.3587
H21 H 0.1048 1.0720 0.4347
H22 H 0.0333 1.0776 0.3117
H23? H 0.0459 0.7248 0.4031
loop_
_geom_bond_atom_site_label_1
_geom_bond_atom_site_label_2
_geom_bond_site_symmetry_1
_geom_bond_site_symmetry_2
S1 O1 1_555 1_555
F1 C2 1_555 1_555
C1 H1 1_555 1_555
H2 C1 1_555 1_555
C2 C1 1_555 1_555
H3 C2 1_555 1_555
O2 S1 1_555 1_555
N1 S1 1_555 1_555
C3 C1 1_555 1_555
H4 C3 1_555 1_555
C4 C2 1_555 1_555
H5 C4 1_555 1_555
H6 C4 1_555 1_555
C5 C3 1_555 1_555
C6 C5 1_555 1_555
H7 C6 1_555 1_555
H8 C6 1_555 1_555
H9 C6 1_555 1_555
C7 C5 1_555 1_555
H10 C7 1_555 1_555
H11 C7 1_555 1_555
H12 C7 1_555 1_555
C8 C5 1_555 1_555
H13 C8 1_555 1_555
H14 C8 1_555 1_555
H15 C8 1_555 1_555
C9 S1 1_555 1_555
C10 C9 1_555 1_555
H16 C10 1_555 1_555
C11 C10 1_555 1_555
H17 C11 1_555 1_555
C12 C11 1_555 1_555
C13 C12 1_555 1_555
H18 C13 1_555 1_555
C14 C9 1_555 1_555
H19 C14 1_555 1_555
C15 C12 1_555 1_555
H20 C15 1_555 1_555
H21 C15 1_555 1_555
H22 C15 1_555 1_555
N1 C3 1_555 1_555
N1 C4 1_555 1_555
C13 C14 1_555 1_555

#END
