
#######################################################################
#
#                 Cambridge Crystallographic Data Centre
#                                CCDC 
#
#######################################################################
#
# If this CIF has been generated from an entry in the Cambridge 
# Structural Database, then it will include bibliographic, chemical, 
# crystal, experimental, refinement or atomic coordinate data resulting 
# from the CCDC's data processing and validation procedures.
#
#######################################################################

data_HIVLIJ
_chemical_formula_moiety         'C22 H23 N1 O2 S1'
_chemical_name_systematic        
't-Butyl ((2-naphthylsulfanyl)(phenyl)methyl)carbamate'
_symmetry_cell_setting           orthorhombic
_symmetry_space_group_name_H-M   'P 21 21 21'
_symmetry_Int_Tables_number      19
_space_group_name_Hall           'P 2ac 2ab'
loop_
_symmetry_equiv_pos_site_id
_symmetry_equiv_pos_as_xyz
1 x,y,z
2 1/2-x,-y,1/2+z
3 -x,1/2+y,1/2-z
4 1/2+x,1/2-y,-z
_cell_length_a                   5.3645(4)
_cell_length_b                   19.0869(14)
_cell_length_c                   19.4095(15)
_cell_angle_alpha                90
_cell_angle_beta                 90
_cell_angle_gamma                90
_cell_volume                     1987.37
_exptl_crystal_colour            colorless
_exptl_crystal_description       prismatic
_cell_formula_units_Z            4
loop_
_atom_site_label
_atom_site_type_symbol
_atom_site_fract_x
_atom_site_fract_y
_atom_site_fract_z
S1 S 0.37746(10) 0.80545(2) 0.24041(2)
N1 N 0.2573(3) 0.68819(7) 0.31323(7)
O1 O -0.1494(2) 0.65695(6) 0.29982(7)
O2 O 0.1669(2) 0.57817(5) 0.28997(7)
C1 C 0.2114(4) 0.76252(8) 0.31256(8)
H1 H 0.0321 0.7701 0.3063
C2 C 0.2924(4) 0.80018(8) 0.37746(8)
C3 C 0.1498(5) 0.85450(10) 0.40254(12)
H2 H 0.0077 0.8686 0.3788
C4 C 0.2175(7) 0.88835(13) 0.46329(14)
H3 H 0.1213 0.9252 0.4798
C5 C 0.4239(7) 0.86762(13) 0.49847(13)
H4 H 0.4662 0.8897 0.5396
C6 C 0.5696(6) 0.81456(13) 0.47384(12)
H5 H 0.7113 0.8008 0.4979
C7 C 0.5055(4) 0.78130(10) 0.41289(10)
H6 H 0.6070 0.7459 0.3957
C8 C 0.2528(4) 0.75655(9) 0.16983(8)
C9 C 0.3684(4) 0.69656(9) 0.14896(8)
H7 H 0.5124 0.6818 0.1714
C10 C 0.2730(4) 0.65643(9) 0.09380(9)
C11 C 0.3851(5) 0.59316(11) 0.07140(10)
H8 H 0.5270 0.5767 0.0937
C12 C 0.2885(5) 0.55606(13) 0.01785(11)
H9 H 0.3646 0.5146 0.0039
C13 C 0.0768(6) 0.57976(15) -0.01615(11)
H10 H 0.0128 0.5541 -0.0529
C14 C -0.0372(5) 0.63974(13) 0.00360(11)
H11 H -0.1786 0.6547 -0.0199
C15 C 0.0549(4) 0.68024(10) 0.05947(9)
C16 C -0.0577(4) 0.74279(11) 0.08236(11)
H12 H -0.1995 0.7592 0.0600
C17 C 0.0364(4) 0.77955(10) 0.13633(10)
H13 H -0.0431 0.8202 0.1511
C18 C 0.0698(3) 0.64228(8) 0.30027(9)
C19 C 0.0042(3) 0.51766(8) 0.27423(9)
C20 C -0.1567(4) 0.50123(10) 0.33638(10)
H14 H -0.0536 0.4981 0.3767
H15 H -0.2407 0.4574 0.3293
H16 H -0.2776 0.5378 0.3425
C21 C 0.1908(4) 0.45925(9) 0.26154(14)
H17 H 0.2948 0.4713 0.2231
H18 H 0.1032 0.4165 0.2517
H19 H 0.2922 0.4530 0.3018
C22 C -0.1486(4) 0.53134(10) 0.21031(10)
H20 H -0.2706 0.5668 0.2199
H21 H -0.2314 0.4890 0.1966
H22 H -0.0412 0.5469 0.1738
H23 H 0.412(4) 0.6739(10) 0.3078(10)
loop_
_geom_bond_atom_site_label_1
_geom_bond_atom_site_label_2
_geom_bond_site_symmetry_1
_geom_bond_site_symmetry_2
S1 C1 1_555 1_555
N1 C1 1_555 1_555
O1 C18 1_555 1_555
O2 C18 1_555 1_555
C1 H1 1_555 1_555
C2 C1 1_555 1_555
C3 C2 1_555 1_555
H2 C3 1_555 1_555
C4 C3 1_555 1_555
H3 C4 1_555 1_555
C5 C4 1_555 1_555
H4 C5 1_555 1_555
C6 C5 1_555 1_555
H5 C6 1_555 1_555
C7 C2 1_555 1_555
H6 C7 1_555 1_555
C8 S1 1_555 1_555
C9 C8 1_555 1_555
H7 C9 1_555 1_555
C10 C9 1_555 1_555
C11 C10 1_555 1_555
H8 C11 1_555 1_555
C12 C11 1_555 1_555
H9 C12 1_555 1_555
C13 C12 1_555 1_555
H10 C13 1_555 1_555
C14 C13 1_555 1_555
H11 C14 1_555 1_555
C15 C10 1_555 1_555
C16 C15 1_555 1_555
H12 C16 1_555 1_555
C17 C8 1_555 1_555
H13 C17 1_555 1_555
C18 N1 1_555 1_555
C19 O2 1_555 1_555
C20 C19 1_555 1_555
H14 C20 1_555 1_555
H15 C20 1_555 1_555
H16 C20 1_555 1_555
C21 C19 1_555 1_555
H17 C21 1_555 1_555
H18 C21 1_555 1_555
H19 C21 1_555 1_555
C22 C19 1_555 1_555
H20 C22 1_555 1_555
H21 C22 1_555 1_555
H22 C22 1_555 1_555
H23 N1 1_555 1_555
C6 C7 1_555 1_555
C14 C15 1_555 1_555
C16 C17 1_555 1_555

#END
