
#######################################################################
#
#                 Cambridge Crystallographic Data Centre
#                                CCDC 
#
#######################################################################
#
# If this CIF has been generated from an entry in the Cambridge 
# Structural Database, then it will include bibliographic, chemical, 
# crystal, experimental, refinement or atomic coordinate data resulting 
# from the CCDC's data processing and validation procedures.
#
#######################################################################

data_HIVLAZ
_chemical_formula_moiety         'C18 H24 N4 P2 S2'
_chemical_name_systematic        
'1,2-Diphenylethane-1,2-dione bis((dimethylthiophosphoryl) hydrazone)'
_symmetry_cell_setting           triclinic
_symmetry_space_group_name_H-M   'P -1'
_symmetry_Int_Tables_number      2
_space_group_name_Hall           '-P 1'
loop_
_symmetry_equiv_pos_site_id
_symmetry_equiv_pos_as_xyz
1 x,y,z
2 -x,-y,-z
_cell_length_a                   9.588(1)
_cell_length_b                   11.402(1)
_cell_length_c                   11.620(1)
_cell_angle_alpha                69.43(1)
_cell_angle_beta                 87.11(1)
_cell_angle_gamma                69.74(1)
_cell_volume                     1112.07
_exptl_crystal_colour            yellow
_chemical_melting_point          164-167deg.C
_cell_formula_units_Z            2
loop_
_atom_site_label
_atom_site_type_symbol
_atom_site_fract_x
_atom_site_fract_y
_atom_site_fract_z
P1 P 0.69368(5) 0.70560(5) 0.35561(4)
P2 P 0.23889(5) 0.84935(5) 0.58372(4)
S1 S 0.61337(7) 0.89428(5) 0.25709(5)
S2 S 0.13232(6) 0.76538(5) 0.51888(5)
N1 N 0.7176(2) 0.5633(2) 0.59346(14)
N2 N 0.6933(2) 0.6879(2) 0.5054(2)
H1 H 0.6627(25) 0.7567(25) 0.5242(21)
N3 N 0.4993(2) 0.7602(2) 0.71320(14)
N4 N 0.4029(2) 0.7301(2) 0.6535(2)
H2 H 0.4361(25) 0.6630(24) 0.6323(21)
C1 C 0.6925(2) 0.5554(2) 0.7057(2)
C2 C 0.6348(2) 0.6770(2) 0.7423(2)
C3 C 0.5894(4) 0.6085(3) 0.3401(3)
H3 H 0.5928(33) 0.6144(30) 0.2601(30)
H4 H 0.4876(42) 0.6536(36) 0.3596(32)
H5 H 0.6348(32) 0.5170(32) 0.3920(28)
C4 C 0.8820(3) 0.6182(3) 0.3352(3)
H6 H 0.8865(35) 0.6259(32) 0.2517(33)
H7 H 0.9209(35) 0.5232(35) 0.3883(31)
H8 H 0.9391(48) 0.6617(42) 0.3517(39)
C5 C 0.1500(2) 0.9142(2) 0.6980(2)
H9 H 0.0591(29) 0.9876(26) 0.6646(23)
H10 H 0.2132(28) 0.9449(24) 0.7294(23)
H11 H 0.1243(27) 0.8475(27) 0.7615(25)
C6 C 0.2823(3) 0.9844(2) 0.4719(2)
H12 H 0.1896(29) 1.0566(26) 0.4407(23)
H13 H 0.3299(27) 0.9552(24) 0.4111(23)
H14 H 0.3465(30) 1.0111(26) 0.5146(24)
C7 C 0.7129(2) 0.4223(2) 0.7996(2)
C8 C 0.7776(2) 0.3057(2) 0.7727(2)
H15 H 0.8095(23) 0.3092(20) 0.6981(21)
C9 C 0.7859(2) 0.1828(2) 0.8584(2)
H16 H 0.8294(26) 0.1089(25) 0.8393(21)
C10 C 0.7303(3) 0.1739(2) 0.9725(2)
H17 H 0.7339(26) 0.0956(26) 1.0266(23)
C11 C 0.6673(2) 0.2882(2) 1.0007(2)
H18 H 0.6284(26) 0.2845(23) 1.0799(23)
C12 C 0.6587(2) 0.4119(2) 0.9153(2)
H19 H 0.6167(24) 0.4900(23) 0.9345(20)
C13 C 0.7366(2) 0.7009(2) 0.8163(2)
C14 C 0.8900(2) 0.6386(2) 0.8197(2)
H20 H 0.9279(26) 0.5834(24) 0.7719(22)
C15 C 0.9859(3) 0.6573(2) 0.8916(2)
H21 H 1.0884(32) 0.6136(26) 0.8904(24)
C16 C 0.9301(3) 0.7379(2) 0.9601(2)
H22 H 0.9995(27) 0.7506(23) 1.0087(22)
C17 C 0.7785(3) 0.8007(2) 0.9568(2)
H23 H 0.7389(27) 0.8568(24) 1.0035(23)
C18 C 0.6809(2) 0.7830(2) 0.8854(2)
H24 H 0.5794(27) 0.8275(23) 0.8824(20)
loop_
_geom_bond_atom_site_label_1
_geom_bond_atom_site_label_2
_geom_bond_site_symmetry_1
_geom_bond_site_symmetry_2
P1 S1 1_555 1_555
P2 S2 1_555 1_555
N1 N2 1_555 1_555
N2 P1 1_555 1_555
H1 N2 1_555 1_555
N3 N4 1_555 1_555
N4 P2 1_555 1_555
H2 N4 1_555 1_555
C1 N1 1_555 1_555
C2 N3 1_555 1_555
C3 P1 1_555 1_555
H3 C3 1_555 1_555
H4 C3 1_555 1_555
H5 C3 1_555 1_555
C4 P1 1_555 1_555
H6 C4 1_555 1_555
H7 C4 1_555 1_555
H8 C4 1_555 1_555
C5 P2 1_555 1_555
H9 C5 1_555 1_555
H10 C5 1_555 1_555
H11 C5 1_555 1_555
C6 P2 1_555 1_555
H12 C6 1_555 1_555
H13 C6 1_555 1_555
H14 C6 1_555 1_555
C7 C1 1_555 1_555
C8 C7 1_555 1_555
H15 C8 1_555 1_555
C9 C8 1_555 1_555
H16 C9 1_555 1_555
C10 C9 1_555 1_555
H17 C10 1_555 1_555
C11 C10 1_555 1_555
H18 C11 1_555 1_555
C12 C7 1_555 1_555
H19 C12 1_555 1_555
C13 C2 1_555 1_555
C14 C13 1_555 1_555
H20 C14 1_555 1_555
C15 C14 1_555 1_555
H21 C15 1_555 1_555
C16 C15 1_555 1_555
H22 C16 1_555 1_555
C17 C16 1_555 1_555
H23 C17 1_555 1_555
C18 C13 1_555 1_555
H24 C18 1_555 1_555
C1 C2 1_555 1_555
C11 C12 1_555 1_555
C17 C18 1_555 1_555

#END
