
#######################################################################
#
#                 Cambridge Crystallographic Data Centre
#                                CCDC 
#
#######################################################################
#
# If this CIF has been generated from an entry in the Cambridge 
# Structural Database, then it will include bibliographic, chemical, 
# crystal, experimental, refinement or atomic coordinate data resulting 
# from the CCDC's data processing and validation procedures.
#
#######################################################################

data_HIVQIN
_chemical_compound_source        
'leaves and bark of Cipadessa cinerascens (PELL.) HAND-MAZZ (Meliaceae)'
_chemical_formula_moiety         'C33 H40 O13'
_chemical_name_systematic        'Cipadesin D'
_symmetry_cell_setting           monoclinic
_symmetry_space_group_name_H-M   'P 21'
_symmetry_Int_Tables_number      4
_space_group_name_Hall           'P 2yb'
loop_
_symmetry_equiv_pos_site_id
_symmetry_equiv_pos_as_xyz
1 x,y,z
2 -x,1/2+y,-z
_cell_length_a                   10.770(4)
_cell_length_b                   11.174(3)
_cell_length_c                   13.377(4)
_cell_angle_alpha                90
_cell_angle_beta                 90.89(2)
_cell_angle_gamma                90
_cell_volume                     1609.65
_chemical_melting_point          208.1-209.0deg.C
_cell_formula_units_Z            2
_exptl_crystal_recrystallization_method methanol
loop_
_atom_site_label
_atom_site_type_symbol
_atom_site_fract_x
_atom_site_fract_y
_atom_site_fract_z
O1 O 0.73910(17) 0.40055(19) 0.17999(13)
O2 O 0.5295(2) 0.5322(2) 0.05759(14)
O3 O 0.2623(2) 0.7153(3) 0.2148(2)
O4 O 0.92080(19) 0.4393(2) 0.05172(14)
O5 O 1.1208(2) 0.4819(3) 0.01626(17)
O6 O 0.85546(18) 0.6156(2) 0.18727(15)
O7 O 0.9451(3) 0.7138(3) 0.0622(2)
O8 O 0.7959(2) 0.5031(3) 0.62641(15)
O9 O 0.7242(3) 0.5918(3) 0.48757(19)
O10 O 0.7831(2) 0.1919(3) 0.43148(18)
O11 O 0.6133(3) 0.4874(4) -0.08430(18)
O12 O 0.4511(2) 0.3695(2) 0.37053(15)
O13 O 0.5746(3) 0.3723(4) 0.50618(19)
C1 C 0.8553(3) 0.3443(3) 0.1987(2)
H1 H 0.8569 0.2670 0.1641
C2 C 0.9531(3) 0.4250(3) 0.15554(19)
H2 H 1.0333 0.3839 0.1603
C3 C 0.9655(3) 0.5458(3) 0.2071(2)
H3 H 1.0370 0.5880 0.1795
C4 C 0.9841(3) 0.5345(3) 0.3203(2)
C5 C 0.8827(3) 0.4504(3) 0.36352(19)
H4 H 0.8035 0.4894 0.3471
C6 C 0.8884(3) 0.4453(4) 0.4784(2)
H5 H 0.8772 0.3630 0.4995
H6 H 0.9703 0.4707 0.5010
C7 C 0.7927(3) 0.5220(3) 0.5282(2)
C8 C 0.6318(3) 0.2514(3) 0.3139(2)
H7 H 0.5825 0.1925 0.3502
C9 C 0.7636(3) 0.2539(3) 0.3591(2)
C10 C 0.8746(3) 0.3237(3) 0.3124(2)
C11 C 0.6401(3) 0.2123(3) 0.2048(2)
C12 C 0.5601(3) 0.3716(3) 0.3109(2)
H8 H 0.6149 0.4364 0.3337
C13 C 0.5238(3) 0.3915(3) 0.1987(2)
C14 C 0.6335(3) 0.3283(3) 0.1490(2)
C15 C 0.6243(3) 0.3316(4) 0.0359(2)
H9 H 0.7029 0.3067 0.0082
H10 H 0.5611 0.2756 0.0133
C16 C 0.5923(3) 0.4551(4) -0.0018(2)
C17 C 0.5308(3) 0.5226(3) 0.1673(2)
H11 H 0.6105 0.5543 0.1918
C18 C 0.3993(3) 0.3347(3) 0.1700(2)
H12 H 0.3774 0.3563 0.1026
H13 H 0.3364 0.3628 0.2144
H14 H 0.4057 0.2492 0.1751
C19 C 0.9879(3) 0.2420(4) 0.3296(3)
H15 H 0.9645 0.1604 0.3170
H16 H 1.0169 0.2498 0.3975
H17 H 1.0528 0.2647 0.2850
C20 C 0.4318(3) 0.6038(3) 0.2032(2)
C21 C 0.3237(3) 0.6331(3) 0.1604(2)
H18 H 0.2941 0.6011 0.1005
C22 C 0.4393(3) 0.6733(4) 0.2922(3)
H19 H 0.5040 0.6733 0.3390
C23 C 0.3361(4) 0.7381(4) 0.2955(3)
H20 H 0.3172 0.7917 0.3462
C24 C 1.1185(3) 0.4925(4) 0.3429(3)
H21 H 1.1219 0.4541 0.4071
H22 H 1.1732 0.5603 0.3433
H23 H 1.1438 0.4370 0.2924
C25 C 0.9712(4) 0.6600(4) 0.3648(3)
H24 H 0.8869 0.6868 0.3567
H25 H 1.0256 0.7141 0.3310
H26 H 0.9929 0.6578 0.4347
C26 C 0.6475(4) 0.1026(4) 0.1701(3)
H27 H 0.6493 0.0893 0.1016
H28 H 0.6510 0.0382 0.2142
C27 C 1.0156(4) 0.4697(4) -0.0108(2)
C28 C 0.9663(4) 0.4886(5) -0.1143(3)
H29 H 1.0282 0.4661 -0.1616
H30 H 0.9453 0.5715 -0.1234
H31 H 0.8934 0.4404 -0.1247
C29 C 0.8587(3) 0.6980(3) 0.1153(3)
C30 C 0.7412(4) 0.7645(4) 0.1076(4)
H32 H 0.6826 0.7197 0.0677
H33 H 0.7556 0.8407 0.0767
H34 H 0.7085 0.7764 0.1732
C31 C 0.7047(4) 0.5695(5) 0.6833(3)
H35 H 0.6229 0.5409 0.6666
H36 H 0.7105 0.6530 0.6673
H37 H 0.7206 0.5583 0.7535
C32 C 0.4711(4) 0.3756(4) 0.4702(3)
C33 C 0.3548(4) 0.3866(5) 0.5282(3)
H38 H 0.3729 0.3735 0.5978
H39 H 0.2958 0.3281 0.5050
H40 H 0.3207 0.4653 0.5191
loop_
_geom_bond_atom_site_label_1
_geom_bond_atom_site_label_2
_geom_bond_site_symmetry_1
_geom_bond_site_symmetry_2
O1 C1 1_555 1_555
O2 C16 1_555 1_555
O3 C21 1_555 1_555
O4 C2 1_555 1_555
O5 C27 1_555 1_555
O6 C3 1_555 1_555
O7 C29 1_555 1_555
O8 C7 1_555 1_555
O9 C7 1_555 1_555
O10 C9 1_555 1_555
O11 C16 1_555 1_555
O12 C12 1_555 1_555
O13 C32 1_555 1_555
C1 H1 1_555 1_555
C2 C1 1_555 1_555
H2 C2 1_555 1_555
C3 C2 1_555 1_555
H3 C3 1_555 1_555
C4 C3 1_555 1_555
C5 C4 1_555 1_555
H4 C5 1_555 1_555
C6 C5 1_555 1_555
H5 C6 1_555 1_555
H6 C6 1_555 1_555
C7 C6 1_555 1_555
C8 H7 1_555 1_555
C9 C8 1_555 1_555
C10 C1 1_555 1_555
C11 C8 1_555 1_555
C12 C8 1_555 1_555
H8 C12 1_555 1_555
C13 C12 1_555 1_555
C14 O1 1_555 1_555
C15 C14 1_555 1_555
H9 C15 1_555 1_555
H10 C15 1_555 1_555
C16 C15 1_555 1_555
C17 O2 1_555 1_555
H11 C17 1_555 1_555
C18 C13 1_555 1_555
H12 C18 1_555 1_555
H13 C18 1_555 1_555
H14 C18 1_555 1_555
C19 C10 1_555 1_555
H15 C19 1_555 1_555
H16 C19 1_555 1_555
H17 C19 1_555 1_555
C20 C17 1_555 1_555
C21 C20 1_555 1_555
H18 C21 1_555 1_555
C22 C20 1_555 1_555
H19 C22 1_555 1_555
C23 O3 1_555 1_555
H20 C23 1_555 1_555
C24 C4 1_555 1_555
H21 C24 1_555 1_555
H22 C24 1_555 1_555
H23 C24 1_555 1_555
C25 C4 1_555 1_555
H24 C25 1_555 1_555
H25 C25 1_555 1_555
H26 C25 1_555 1_555
C26 C11 1_555 1_555
H27 C26 1_555 1_555
H28 C26 1_555 1_555
C27 O4 1_555 1_555
C28 C27 1_555 1_555
H29 C28 1_555 1_555
H30 C28 1_555 1_555
H31 C28 1_555 1_555
C29 O6 1_555 1_555
C30 C29 1_555 1_555
H32 C30 1_555 1_555
H33 C30 1_555 1_555
H34 C30 1_555 1_555
C31 O8 1_555 1_555
H35 C31 1_555 1_555
H36 C31 1_555 1_555
H37 C31 1_555 1_555
C32 O12 1_555 1_555
C33 C32 1_555 1_555
H38 C33 1_555 1_555
H39 C33 1_555 1_555
H40 C33 1_555 1_555
C5 C10 1_555 1_555
C9 C10 1_555 1_555
C11 C14 1_555 1_555
C13 C14 1_555 1_555
C13 C17 1_555 1_555
C22 C23 1_555 1_555

#END
