
#######################################################################
#
#                 Cambridge Crystallographic Data Centre
#                                CCDC 
#
#######################################################################
#
# If this CIF has been generated from an entry in the Cambridge 
# Structural Database, then it will include bibliographic, chemical, 
# crystal, experimental, refinement or atomic coordinate data resulting 
# from the CCDC's data processing and validation procedures.
#
#######################################################################

data_HIVQOT
_chemical_compound_source        'roots of Daphne giraldii (Thymelaeaceae)'
_chemical_formula_moiety         'C30 H22 O10,C3 H6 O1,2(H2 O1)'
_chemical_name_systematic        
"rel-(2R,2''S,3''R)-daphnogirin A rel-(2'R,2''R,3''S)-daphnogirin B acetone solvate dihydrate"
_symmetry_cell_setting           triclinic
_symmetry_space_group_name_H-M   'P 1'
_symmetry_Int_Tables_number      1
_space_group_name_Hall           'P 1'
loop_
_symmetry_equiv_pos_site_id
_symmetry_equiv_pos_as_xyz
1 x,y,z
_cell_length_a                   10.109(2)
_cell_length_b                   10.604(2)
_cell_length_c                   14.478(3)
_cell_angle_alpha                91.85(3)
_cell_angle_beta                 99.65(3)
_cell_angle_gamma                93.18(3)
_cell_volume                     1526.3
_exptl_crystal_colour            yellow
_exptl_crystal_description       column
_cell_formula_units_Z            2
loop_
_atom_site_label
_atom_site_type_symbol
_atom_site_fract_x
_atom_site_fract_y
_atom_site_fract_z
O1 O 0.7060(6) 0.6667(6) 0.2939(4)
O2 O 0.3207(8) 0.3830(7) 0.3060(5)
H1 H 0.3541 0.3545 0.3560
O3 O 0.5606(7) 0.3723(6) 0.0448(4)
O4 O 0.5555(6) 0.5520(5) -0.0329(4)
O5 O 0.8462(6) 0.4597(7) 0.1379(5)
H2 H 0.8376 0.4286 0.1879
O6 O 0.8913(7) 0.7083(7) 0.1371(5)
O7 O 0.8378(7) 0.9250(6) 0.0703(5)
O8 O 0.4425(8) 0.9472(8) -0.1499(6)
O9 O 1.0557(7) 1.1507(7) 0.4692(5)
H3 H 1.0369 1.1888 0.5149
O10 O 0.9536(9) 0.2313(8) -0.2328(6)
H4 H 0.9691 0.2814 -0.2722
C1 C 0.7105(9) 0.7039(8) 0.3906(5)
H5 H 0.7584 0.6400 0.4282
C2 C 0.5776(10) 0.7067(10) 0.4166(6)
H6 H 0.5308 0.7744 0.3844
H7 H 0.5879 0.7264 0.4834
C3 C 0.4922(9) 0.5857(9) 0.3941(6)
H8 H 0.5141 0.5284 0.4445
H9 H 0.3983 0.6033 0.3898
C4 C 0.5131(9) 0.5253(9) 0.3058(7)
C5 C 0.4218(9) 0.4246(9) 0.2587(6)
C6 C 0.4297(9) 0.3733(9) 0.1733(5)
H10 H 0.3673 0.3101 0.1449
C7 C 0.5366(9) 0.4188(9) 0.1282(7)
C8 C 0.6264(10) 0.5158(10) 0.1712(6)
C9 C 0.6145(8) 0.5686(9) 0.2575(7)
C10 C 0.7968(10) 0.8243(9) 0.4071(6)
C11 C 0.7776(11) 0.9222(10) 0.4717(7)
H11 H 0.7022 0.9149 0.5006
C12 C 0.8639(10) 1.0267(11) 0.4937(7)
H12 H 0.8490 1.0872 0.5382
C13 C 0.9721(12) 1.0406(10) 0.4493(7)
C14 C 0.9944(12) 0.9489(11) 0.3809(7)
H13 H 1.0673 0.9599 0.3498
C15 C 0.9056(11) 0.8414(11) 0.3608(8)
H14 H 0.9197 0.7811 0.3160
C16 C 0.6506(9) 0.4634(9) 0.0148(6)
C17 C 0.7340(9) 0.5319(9) 0.1068(5)
C18 C 0.7818(9) 0.6633(9) 0.0902(6)
C19 C 0.7002(9) 0.7321(8) 0.0250(6)
C20 C 0.7307(11) 0.8651(9) 0.0174(6)
C21 C 0.6390(12) 0.9352(10) -0.0429(7)
H15 H 0.6551 1.0219 -0.0468
C22 C 0.5285(10) 0.8754(8) -0.0942(6)
C23 C 0.5002(11) 0.7426(9) -0.0908(6)
H16 H 0.4248 0.7018 -0.1276
C24 C 0.5901(11) 0.6768(8) -0.0298(6)
C25 C 0.7266(10) 0.4040(9) -0.0541(6)
C26 C 0.7492(12) 0.4630(9) -0.1332(7)
H17 H 0.7128 0.5400 -0.1477
C27 C 0.8292(12) 0.4056(11) -0.1933(7)
H18 H 0.8504 0.4462 -0.2454
C28 C 0.8734(11) 0.2889(10) -0.1717(7)
C29 C 0.8481(10) 0.2311(10) -0.0992(7)
H19 H 0.8764 0.1502 -0.0882
C30 C 0.7784(11) 0.2907(11) -0.0378(7)
H20 H 0.7667 0.2512 0.0169
O11 O 0.4824(6) 1.0567(7) 0.3299(4)
O12 O 0.8639(7) 1.3307(7) 0.3095(5)
H21 H 0.9193 1.3789 0.3432
O13 O 0.6283(6) 1.3557(6) 0.5736(4)
O14 O 0.6338(7) 1.1763(6) 0.6515(4)
O15 O 0.3411(7) 1.2660(7) 0.4843(4)
H22 H 0.3457 1.2947 0.4330
O16 O 0.2972(7) 1.0165(6) 0.4796(4)
O17 O 0.3486(9) 0.7966(7) 0.5532(6)
H23 H 0.3061 0.8465 0.5197
O18 O 0.7476(9) 0.7761(7) 0.7688(5)
H24 H 0.8120 0.8182 0.7989
O19 O 0.1279(7) 0.5736(7) 0.1453(5)
H25 H 0.0507 0.5960 0.1395
O20 O 0.2393(9) 1.4920(9) 0.8527(7)
C31 C 0.5206(9) 0.9758(9) 0.2554(5)
H26 H 0.5992 0.9306 0.2820
C32 C 0.5594(11) 1.0611(10) 0.1785(6)
H27 H 0.5777 1.0091 0.1263
H28 H 0.4853 1.1124 0.1556
C33 C 0.6834(11) 1.1462(11) 0.2181(7)
H29 H 0.6908 1.2160 0.1772
H30 H 0.7629 1.0986 0.2197
C34 C 0.6776(9) 1.1996(9) 0.3189(5)
C35 C 0.7646(11) 1.2911(10) 0.3588(7)
C36 C 0.7574(11) 1.3507(10) 0.4505(7)
H31 H 0.8190 1.4141 0.4796
C37 C 0.6547(9) 1.3054(9) 0.4876(5)
C38 C 0.5618(8) 1.2090(8) 0.4518(5)
C39 C 0.5711(10) 1.1522(8) 0.3624(6)
C40 C 0.4044(10) 0.8789(10) 0.2189(7)
C41 C 0.4189(10) 0.7943(11) 0.1504(7)
H32 H 0.4911 0.8050 0.1186
C42 C 0.3278(11) 0.6923(8) 0.1272(7)
H33 H 0.3413 0.6334 0.0812
C43 C 0.2155(7) 0.6751(9) 0.1712(6)
C44 C 0.1976(11) 0.7624(11) 0.2381(8)
H34 H 0.1220 0.7549 0.2668
C45 C 0.2907(10) 0.8613(11) 0.2631(8)
H35 H 0.2789 0.9186 0.3106
C46 C 0.5420(9) 1.2569(8) 0.6073(6)
C47 C 0.4572(10) 1.1970(9) 0.5146(7)
C48 C 0.4049(9) 1.0595(8) 0.5266(6)
C49 C 0.4864(10) 0.9868(9) 0.5955(6)
C50 C 0.4614(9) 0.8573(9) 0.6023(7)
C51 C 0.5456(11) 0.7875(9) 0.6613(7)
H36 H 0.5268 0.7016 0.6672
C52 C 0.6661(11) 0.8537(10) 0.7145(6)
C53 C 0.6924(9) 0.9778(9) 0.7119(6)
H37 H 0.7690 1.0168 0.7486
C54 C 0.6059(8) 1.0467(8) 0.6550(5)
C55 C 0.4639(10) 1.3186(9) 0.6753(6)
C56 C 0.4390(11) 1.2572(10) 0.7552(7)
H38 H 0.4719 1.1782 0.7675
C57 C 0.3660(13) 1.3126(9) 0.8161(7)
H39 H 0.3522 1.2702 0.8692
C58 C 0.3124(11) 1.4291(11) 0.8011(7)
C59 C 0.3350(11) 1.4962(11) 0.7154(8)
H40 H 0.2969 1.5725 0.7011
C60 C 0.4160(10) 1.4403(8) 0.6571(7)
H41 H 0.4381 1.4835 0.6063
O21 O 0.2353(8) 0.8079(8) -0.2450(6)
C61 C 0.1406(15) 0.9960(14) -0.3049(8)
H42 H 0.2183 1.0354 -0.2649
H43 H 0.0607 1.0246 -0.2854
H44 H 0.1418 1.0182 -0.3685
C62 C 0.1420(13) 0.8515(12) -0.2983(8)
C63 C 0.0340(18) 0.769(2) -0.3526(11)
H45 H 0.0518 0.6822 -0.3413
H46 H 0.0294 0.7833 -0.4182
H47 H -0.0500 0.7869 -0.3340
O22 O 0.9640(11) 0.9066(12) 0.8656(7)
C64 C 1.0465(16) 0.7309(17) 0.9293(11)
H48 H 0.9738 0.6897 0.8856
H49 H 1.0352 0.7122 0.9920
H50 H 1.1302 0.7010 0.9173
C65 C 1.0468(15) 0.8626(15) 0.9188(9)
C66 C 1.1609(15) 0.9485(15) 0.9815(13)
H51 H 1.1527 1.0349 0.9647
H52 H 1.2470 0.9219 0.9719
H53 H 1.1529 0.9412 1.0463
O23 O 1.0784(10) 1.4915(11) 0.3815(9)
O24 O 0.1398(12) 1.3855(11) 1.0036(8)
O25 O 0.9494(10) 0.6615(10) 0.3821(6)
loop_
_geom_bond_atom_site_label_1
_geom_bond_atom_site_label_2
_geom_bond_site_symmetry_1
_geom_bond_site_symmetry_2
O1 C1 1_555 1_555
O2 H1 1_555 1_555
O3 C7 1_555 1_555
O4 C16 1_555 1_555
O5 H2 1_555 1_555
O6 C18 1_555 1_555
O7 C20 1_555 1_555
O8 C22 1_555 1_555
O9 H3 1_555 1_555
O10 H4 1_555 1_555
C1 H5 1_555 1_555
C2 C1 1_555 1_555
H6 C2 1_555 1_555
H7 C2 1_555 1_555
C3 C2 1_555 1_555
H8 C3 1_555 1_555
H9 C3 1_555 1_555
C4 C3 1_555 1_555
C5 O2 1_555 1_555
C6 C5 1_555 1_555
H10 C6 1_555 1_555
C7 C6 1_555 1_555
C8 C7 1_555 1_555
C9 O1 1_555 1_555
C10 C1 1_555 1_555
C11 C10 1_555 1_555
H11 C11 1_555 1_555
C12 C11 1_555 1_555
H12 C12 1_555 1_555
C13 O9 1_555 1_555
C14 C13 1_555 1_555
H13 C14 1_555 1_555
C15 C10 1_555 1_555
H14 C15 1_555 1_555
C16 O3 1_555 1_555
C17 O5 1_555 1_555
C18 C17 1_555 1_555
C19 C18 1_555 1_555
C20 C19 1_555 1_555
C21 C20 1_555 1_555
H15 C21 1_555 1_555
C22 C21 1_555 1_555
C23 C22 1_555 1_555
H16 C23 1_555 1_555
C24 O4 1_555 1_555
C25 C16 1_555 1_555
C26 C25 1_555 1_555
H17 C26 1_555 1_555
C27 C26 1_555 1_555
H18 C27 1_555 1_555
C28 O10 1_555 1_555
C29 C28 1_555 1_555
H19 C29 1_555 1_555
C30 C25 1_555 1_555
H20 C30 1_555 1_555
O11 C31 1_555 1_555
O12 H21 1_555 1_555
O13 C37 1_555 1_555
O14 C46 1_555 1_555
O15 H22 1_555 1_555
O16 C48 1_555 1_555
O17 H23 1_555 1_555
O18 H24 1_555 1_555
O19 H25 1_555 1_555
O20 C58 1_555 1_555
C31 H26 1_555 1_555
C32 C31 1_555 1_555
H27 C32 1_555 1_555
H28 C32 1_555 1_555
C33 C32 1_555 1_555
H29 C33 1_555 1_555
H30 C33 1_555 1_555
C34 C33 1_555 1_555
C35 O12 1_555 1_555
C36 C35 1_555 1_555
H31 C36 1_555 1_555
C37 C36 1_555 1_555
C38 C37 1_555 1_555
C39 O11 1_555 1_555
C40 C31 1_555 1_555
C41 C40 1_555 1_555
H32 C41 1_555 1_555
C42 C41 1_555 1_555
H33 C42 1_555 1_555
C43 O19 1_555 1_555
C44 C43 1_555 1_555
H34 C44 1_555 1_555
C45 C40 1_555 1_555
H35 C45 1_555 1_555
C46 O13 1_555 1_555
C47 O15 1_555 1_555
C48 C47 1_555 1_555
C49 C48 1_555 1_555
C50 O17 1_555 1_555
C51 C50 1_555 1_555
H36 C51 1_555 1_555
C52 O18 1_555 1_555
C53 C52 1_555 1_555
H37 C53 1_555 1_555
C54 O14 1_555 1_555
C55 C46 1_555 1_555
C56 C55 1_555 1_555
H38 C56 1_555 1_555
C57 C56 1_555 1_555
H39 C57 1_555 1_555
C58 C57 1_555 1_555
C59 C58 1_555 1_555
H40 C59 1_555 1_555
C60 C55 1_555 1_555
H41 C60 1_555 1_555
O21 C62 1_555 1_555
C61 H42 1_555 1_555
H43 C61 1_555 1_555
H44 C61 1_555 1_555
C62 C61 1_555 1_555
C63 C62 1_555 1_555
H45 C63 1_555 1_555
H46 C63 1_555 1_555
H47 C63 1_555 1_555
O22 C65 1_555 1_555
C64 H48 1_555 1_555
H49 C64 1_555 1_555
H50 C64 1_555 1_555
C65 C64 1_555 1_555
C66 C65 1_555 1_555
H51 C66 1_555 1_555
H52 C66 1_555 1_555
H53 C66 1_555 1_555
C4 C5 1_555 1_555
C4 C9 1_555 1_555
C8 C9 1_555 1_555
C8 C17 1_555 1_555
C12 C13 1_555 1_555
C14 C15 1_555 1_555
C16 C17 1_555 1_555
C19 C24 1_555 1_555
C23 C24 1_555 1_555
C27 C28 1_555 1_555
C29 C30 1_555 1_555
C34 C35 1_555 1_555
C34 C39 1_555 1_555
C38 C39 1_555 1_555
C38 C47 1_555 1_555
C42 C43 1_555 1_555
C44 C45 1_555 1_555
C46 C47 1_555 1_555
C49 C50 1_555 1_555
C49 C54 1_555 1_555
C51 C52 1_555 1_555
C53 C54 1_555 1_555
C59 C60 1_555 1_555

#END
