
#######################################################################
#
#                 Cambridge Crystallographic Data Centre
#                                CCDC 
#
#######################################################################
#
# If this CIF has been generated from an entry in the Cambridge 
# Structural Database, then it will include bibliographic, chemical, 
# crystal, experimental, refinement or atomic coordinate data resulting 
# from the CCDC's data processing and validation procedures.
#
#######################################################################

data_HIVQIO
_chemical_formula_moiety         'C16 H24 Mg1 N2 O8'
_chemical_name_systematic        
bis(isonicotinato)-tetrakis(methanol)-magnesium
_symmetry_cell_setting           triclinic
_symmetry_space_group_name_H-M   'P -1'
_symmetry_Int_Tables_number      2
_space_group_name_Hall           '-P 1'
loop_
_symmetry_equiv_pos_site_id
_symmetry_equiv_pos_as_xyz
1 x,y,z
2 -x,-y,-z
_cell_length_a                   7.699(3)
_cell_length_b                   7.897(3)
_cell_length_c                   9.378(3)
_cell_angle_alpha                84.34(3)
_cell_angle_beta                 72.67(3)
_cell_angle_gamma                64.01(4)
_cell_volume                     488.908
_exptl_crystal_colour            colorless
_exptl_crystal_description       block
_cell_formula_units_Z            1
loop_
_atom_site_label
_atom_site_type_symbol
_atom_site_fract_x
_atom_site_fract_y
_atom_site_fract_z
Mg1 Mg 0.0000 0.0000 0.0000
C1 C 0.3586(4) -0.2172(4) -0.2567(3)
C2 C 0.5478(4) -0.2184(4) -0.3666(3)
C3 C 0.6534(4) -0.3439(4) -0.4870(3)
H1 H 0.6148 -0.4362 -0.5004
C4 C 0.8181(5) -0.3296(5) -0.5875(3)
H2 H 0.8890 -0.4149 -0.6688
C5 C 0.7815(5) -0.0877(5) -0.4572(3)
H3 H 0.8268 -0.0002 -0.4444
C6 C 0.6145(4) -0.0892(4) -0.3517(3)
H4 H 0.5477 -0.0030 -0.2709
C7 C 0.3136(5) -0.2976(5) 0.1533(4)
H5 H 0.3332 -0.3341 0.2501
H6 H 0.4188 -0.2643 0.0943
H7 H 0.3172 -0.4008 0.1044
C8 C 0.1871(5) 0.2692(5) 0.0366(4)
H8 H 0.1441 0.3965 0.0690
H9 H 0.2678 0.2494 -0.0658
H10 H 0.2654 0.1836 0.0978
N1 N 0.8811(4) -0.2039(4) -0.5758(3)
O1 O 0.2725(3) -0.0939(3) -0.1527(2)
O2 O 0.3024(4) -0.3329(3) -0.2775(3)
O3 O 0.1270(3) -0.1427(3) 0.1692(2)
H11 H 0.044(7) -0.172(6) 0.247(6)
O4 O 0.0204(3) 0.2377(3) 0.0494(3)
H12 H -0.071(6) 0.286(5) 0.136(5)
C1A C -0.3586(4) 0.2172(4) 0.2567(3)
C2A C -0.5478(4) 0.2184(4) 0.3666(3)
C3A C -0.6534(4) 0.3439(4) 0.4870(3)
H1A H -0.6148 0.4362 0.5004
C4A C -0.8181(5) 0.3296(5) 0.5875(3)
H2A H -0.8890 0.4149 0.6688
C5A C -0.7815(5) 0.0877(5) 0.4572(3)
H3A H -0.8268 0.0002 0.4444
C6A C -0.6145(4) 0.0892(4) 0.3517(3)
H4A H -0.5477 0.0030 0.2709
C7A C -0.3136(5) 0.2976(5) -0.1533(4)
H5A H -0.3332 0.3341 -0.2501
H6A H -0.4188 0.2643 -0.0943
H7A H -0.3172 0.4008 -0.1044
C8A C -0.1871(5) -0.2692(5) -0.0366(4)
H8A H -0.1441 -0.3965 -0.0690
H9A H -0.2678 -0.2494 0.0658
H10A H -0.2654 -0.1836 -0.0978
N1A N -0.8811(4) 0.2039(4) 0.5758(3)
O1A O -0.2725(3) 0.0939(3) 0.1527(2)
O2A O -0.3024(4) 0.3329(3) 0.2775(3)
O3A O -0.1270(3) 0.1427(3) -0.1692(2)
H11A H -0.044(7) 0.172(6) -0.247(6)
O4A O -0.0204(3) -0.2377(3) -0.0494(3)
H12A H 0.071(6) -0.286(5) -0.136(5)
loop_
_geom_bond_atom_site_label_1
_geom_bond_atom_site_label_2
_geom_bond_site_symmetry_1
_geom_bond_site_symmetry_2
Mg1 O1 1_555 1_555
C1 C2 1_555 1_555
C2 C3 1_555 1_555
C3 H1 1_555 1_555
C4 C3 1_555 1_555
H2 C4 1_555 1_555
C5 H3 1_555 1_555
C6 C2 1_555 1_555
H4 C6 1_555 1_555
C7 H5 1_555 1_555
H6 C7 1_555 1_555
H7 C7 1_555 1_555
C8 H8 1_555 1_555
H9 C8 1_555 1_555
H10 C8 1_555 1_555
N1 C4 1_555 1_555
O1 C1 1_555 1_555
O2 C1 1_555 1_555
O3 Mg1 1_555 1_555
H11 O3 1_555 1_555
O4 Mg1 1_555 1_555
H12 O4 1_555 1_555
C1A C2A 1_555 1_555
C2A C3A 1_555 1_555
C3A H1A 1_555 1_555
C4A C3A 1_555 1_555
H2A C4A 1_555 1_555
C5A H3A 1_555 1_555
C6A C2A 1_555 1_555
H4A C6A 1_555 1_555
C7A H5A 1_555 1_555
H6A C7A 1_555 1_555
H7A C7A 1_555 1_555
C8A H8A 1_555 1_555
H9A C8A 1_555 1_555
H10A C8A 1_555 1_555
N1A C4A 1_555 1_555
O1A Mg1 1_555 1_555
O2A C1A 1_555 1_555
O3A Mg1 1_555 1_555
H11A O3A 1_555 1_555
O4A Mg1 1_555 1_555
H12A O4A 1_555 1_555
C5 C6 1_555 1_555
C5 N1 1_555 1_555
C7 O3 1_555 1_555
C8 O4 1_555 1_555
C1A O1A 1_555 1_555
C5A C6A 1_555 1_555
C5A N1A 1_555 1_555
C7A O3A 1_555 1_555
C8A O4A 1_555 1_555

#END
