
#######################################################################
#
#                 Cambridge Crystallographic Data Centre
#                                CCDC 
#
#######################################################################
#
# If this CIF has been generated from an entry in the Cambridge 
# Structural Database, then it will include bibliographic, chemical, 
# crystal, experimental, refinement or atomic coordinate data resulting 
# from the CCDC's data processing and validation procedures.
#
#######################################################################

data_HIVTAH
_chemical_formula_moiety         'C18 H24 O9'
_chemical_name_systematic        
"(3aR*,4S*,5R*,8aR*)-Dimethyl spiro((1',3'-dioxolane)-2',8-(5-formyloxymethyldecahydro-3-oxo-azulene-3a,4-dicarboxylate))"
_symmetry_cell_setting           monoclinic
_symmetry_space_group_name_H-M   'P 21/c'
_symmetry_Int_Tables_number      14
_space_group_name_Hall           '-P 2ybc'
loop_
_symmetry_equiv_pos_site_id
_symmetry_equiv_pos_as_xyz
1 x,y,z
2 -x,1/2+y,1/2-z
3 -x,-y,-z
4 x,1/2-y,1/2+z
_cell_length_a                   7.922
_cell_length_b                   10.090(1)
_cell_length_c                   23.353(1)
_cell_angle_alpha                90
_cell_angle_beta                 95.16
_cell_angle_gamma                90
_cell_volume                     1859.11
_exptl_crystal_colour            colorless
_exptl_crystal_description       prism
_cell_formula_units_Z            4
loop_
_atom_site_label
_atom_site_type_symbol
_atom_site_fract_x
_atom_site_fract_y
_atom_site_fract_z
C1 C 0.47461(30) 0.53220(24) 0.28407(11)
H1 H 0.43519(30) 0.45760(24) 0.26111(11)
H2 H 0.59592(30) 0.53713(24) 0.28543(11)
C2 C 0.39592(31) 0.65960(25) 0.25886(9)
H3 H 0.29596(31) 0.64068(25) 0.23384(9)
H4 H 0.47538(31) 0.70736(25) 0.23797(9)
C3 C 0.35141(23) 0.73916(20) 0.30954(8)
O1 O 0.27333(19) 0.84162(15) 0.30839(6)
C4 C 0.29413(21) 0.70468(15) 0.41277(7)
H5 H 0.17895(21) 0.69583(15) 0.39657(7)
C5 C 0.29579(23) 0.60890(17) 0.46511(8)
H6 H 0.41203(23) 0.58207(17) 0.47228(8)
C6 C 0.17051(26) 0.49473(18) 0.45069(8)
H7 H 0.06571(26) 0.53399(18) 0.43531(8)
H8 H 0.15332(26) 0.44894(18) 0.48573(8)
C7 C 0.22004(28) 0.39288(18) 0.40725(9)
H9 H 0.13246(28) 0.32697(18) 0.40275(9)
H10 H 0.32353(28) 0.35268(18) 0.42328(9)
C8 C 0.24926(25) 0.44174(18) 0.34714(9)
C9 C 0.41598(24) 0.51848(18) 0.34515(9)
H11 H 0.49221(24) 0.46544(18) 0.36987(9)
C10 C 0.41035(21) 0.66508(16) 0.36594(8)
O2 O 0.11254(17) 0.51957(14) 0.32244(6)
C11 C -0.00323(38) 0.43249(31) 0.29216(15)
H12 H -0.10445(38) 0.42427(31) 0.31161(15)
H13 H -0.03143(38) 0.46695(31) 0.25419(15)
C12 C 0.08313(36) 0.30238(28) 0.28961(12)
H14 H 0.07964(36) 0.27101(28) 0.25071(12)
H15 H 0.03176(36) 0.23796(28) 0.31282(12)
O3 O 0.25424(21) 0.32911(15) 0.31075(8)
C13 C 0.32816(23) 0.84885(17) 0.42943(8)
O4 O 0.46351(18) 0.90316(14) 0.43115(7)
O5 O 0.18543(17) 0.90925(13) 0.44188(7)
C14 C 0.20407(34) 1.04788(21) 0.45660(14)
H16 H 0.09606(34) 1.08267(21) 0.46480(14)
H17 H 0.24481(34) 1.09623(21) 0.42522(14)
H18 H 0.28325(34) 1.05663(21) 0.49000(14)
C15 C 0.23840(26) 0.67171(20) 0.51947(8)
H19 H 0.22239(26) 0.60415(20) 0.54741(8)
H20 H 0.13336(26) 0.71749(20) 0.51001(8)
O6 O 0.36521(18) 0.76516(15) 0.54277(6)
C16 C 0.32875(32) 0.82821(23) 0.58955(10)
H21 H 0.41246(32) 0.88770(23) 0.60725(10)
O7 O 0.20048(25) 0.81577(20) 0.61242(8)
C17 C 0.59568(22) 0.69987(19) 0.38472(9)
O8 O 0.67548(18) 0.65016(17) 0.42536(7)
O9 O 0.66147(17) 0.78526(14) 0.34909(6)
C18 C 0.83181(27) 0.82877(27) 0.36594(12)
H22 H 0.86831(27) 0.89007(27) 0.33814(12)
H23 H 0.90489(27) 0.75270(27) 0.36808(12)
H24 H 0.83644(27) 0.87091(27) 0.40291(12)
loop_
_geom_bond_atom_site_label_1
_geom_bond_atom_site_label_2
_geom_bond_site_symmetry_1
_geom_bond_site_symmetry_2
C1 H1 1_555 1_555
H2 C1 1_555 1_555
C2 C1 1_555 1_555
H3 C2 1_555 1_555
H4 C2 1_555 1_555
C3 C2 1_555 1_555
O1 C3 1_555 1_555
C4 H5 1_555 1_555
C5 C4 1_555 1_555
H6 C5 1_555 1_555
C6 C5 1_555 1_555
H7 C6 1_555 1_555
H8 C6 1_555 1_555
C7 C6 1_555 1_555
H9 C7 1_555 1_555
H10 C7 1_555 1_555
C8 C7 1_555 1_555
C9 C1 1_555 1_555
H11 C9 1_555 1_555
C10 C3 1_555 1_555
O2 C8 1_555 1_555
C11 O2 1_555 1_555
H12 C11 1_555 1_555
H13 C11 1_555 1_555
C12 C11 1_555 1_555
H14 C12 1_555 1_555
H15 C12 1_555 1_555
O3 C8 1_555 1_555
C13 C4 1_555 1_555
O4 C13 1_555 1_555
O5 C13 1_555 1_555
C14 O5 1_555 1_555
H16 C14 1_555 1_555
H17 C14 1_555 1_555
H18 C14 1_555 1_555
C15 C5 1_555 1_555
H19 C15 1_555 1_555
H20 C15 1_555 1_555
O6 C15 1_555 1_555
C16 O6 1_555 1_555
H21 C16 1_555 1_555
O7 C16 1_555 1_555
C17 C10 1_555 1_555
O8 C17 1_555 1_555
O9 C17 1_555 1_555
C18 O9 1_555 1_555
H22 C18 1_555 1_555
H23 C18 1_555 1_555
H24 C18 1_555 1_555
C4 C10 1_555 1_555
C8 C9 1_555 1_555
C9 C10 1_555 1_555
C12 O3 1_555 1_555

#END
