
#######################################################################
#
#                 Cambridge Crystallographic Data Centre
#                                CCDC 
#
#######################################################################
#
# If this CIF has been generated from an entry in the Cambridge 
# Structural Database, then it will include bibliographic, chemical, 
# crystal, experimental, refinement or atomic coordinate data resulting 
# from the CCDC's data processing and validation procedures.
#
#######################################################################

data_HIVTEL
_chemical_formula_moiety         'C14 H18 O4'
_chemical_name_systematic        
(3aR*,6aS*,9aS*,9bR*)-Decahydro-8,8-dimethyl-6,9-dioxo-azuleno(4,5-c)furan-1(3H)-one
_symmetry_cell_setting           orthorhombic
_symmetry_space_group_name_H-M   'P b c a'
_symmetry_Int_Tables_number      61
_space_group_name_Hall           '-P 2ac 2ab'
loop_
_symmetry_equiv_pos_site_id
_symmetry_equiv_pos_as_xyz
1 x,y,z
2 1/2-x,-y,1/2+z
3 1/2+x,1/2-y,-z
4 -x,1/2+y,1/2-z
5 -x,-y,-z
6 1/2+x,y,1/2-z
7 1/2-x,1/2+y,z
8 x,1/2-y,1/2+z
_cell_length_a                   6.790
_cell_length_b                   17.422(1)
_cell_length_c                   21.497(1)
_cell_angle_alpha                90
_cell_angle_beta                 90
_cell_angle_gamma                90
_cell_volume                     2543
_exptl_crystal_colour            colorless
_exptl_crystal_description       prism
_cell_formula_units_Z            8
loop_
_atom_site_label
_atom_site_type_symbol
_atom_site_fract_x
_atom_site_fract_y
_atom_site_fract_z
O1 O 0.81047(24) 0.44497(9) 0.98684(7)
C1 C 0.73839(33) 0.50203(12) 0.96514(10)
O2 O 0.67614(25) 0.56055(9) 1.00113(7)
C2 C 0.60533(39) 0.62314(13) 0.96235(11)
H1 H 0.46429(39) 0.62222(13) 0.95932(11)
H2 H 0.64691(39) 0.67166(13) 0.97895(11)
C3 C 0.90382(34) 0.64668(12) 0.89463(10)
H3 H 0.88893(34) 0.70071(12) 0.90202(10)
H4 H 0.98310(34) 0.62454(12) 0.92696(10)
C4 C 1.01524(40) 0.63562(13) 0.83376(11)
H5 H 1.10367(40) 0.67805(13) 0.82810(11)
H6 H 0.91856(40) 0.63576(13) 0.80118(11)
C5 C 1.13337(36) 0.56298(13) 0.82776(10)
O3 O 1.29106(28) 0.56340(11) 0.80029(9)
C6 C 1.13786(36) 0.41671(13) 0.82430(12)
H7 H 1.26876(36) 0.40578(13) 0.83867(12)
H8 H 1.13911(36) 0.42274(13) 0.77991(12)
C7 C 0.99823(35) 0.35134(12) 0.84253(10)
C8 C 0.80206(34) 0.39228(12) 0.85274(10)
O4 O 0.64542(25) 0.36089(9) 0.85980(8)
C9 C 0.83204(32) 0.47910(12) 0.85133(10)
H9 H 0.78937(32) 0.50506(12) 0.81432(10)
C10 C 0.69968(33) 0.52110(12) 0.89741(10)
H10 H 0.57770(33) 0.50209(12) 0.88090(10)
C11 C 0.69958(34) 0.60947(12) 0.89836(11)
H11 H 0.63531(34) 0.63099(12) 0.86261(11)
C12 C 1.05588(31) 0.48902(12) 0.85547(10)
H12 H 1.09870(31) 0.49406(12) 0.89783(10)
C13 C 1.05995(39) 0.31487(15) 0.90433(11)
H13 H 1.18350(39) 0.28916(15) 0.89821(11)
H14 H 0.96255(39) 0.27837(15) 0.91747(11)
H15 H 1.07480(39) 0.35375(15) 0.93562(11)
C14 C 0.97775(40) 0.28898(14) 0.79329(11)
H16 H 0.93679(40) 0.31120(14) 0.75453(11)
H17 H 0.88158(40) 0.25213(14) 0.80670(11)
H18 H 1.10254(40) 0.26396(14) 0.78786(11)
loop_
_geom_bond_atom_site_label_1
_geom_bond_atom_site_label_2
_geom_bond_site_symmetry_1
_geom_bond_site_symmetry_2
O1 C1 1_555 1_555
C1 O2 1_555 1_555
O2 C2 1_555 1_555
C2 H1 1_555 1_555
H2 C2 1_555 1_555
C3 H3 1_555 1_555
H4 C3 1_555 1_555
C4 C3 1_555 1_555
H5 C4 1_555 1_555
H6 C4 1_555 1_555
C5 C4 1_555 1_555
O3 C5 1_555 1_555
C6 H7 1_555 1_555
H8 C6 1_555 1_555
C7 C6 1_555 1_555
C8 C7 1_555 1_555
O4 C8 1_555 1_555
C9 C8 1_555 1_555
H9 C9 1_555 1_555
C10 C1 1_555 1_555
H10 C10 1_555 1_555
C11 C2 1_555 1_555
H11 C11 1_555 1_555
C12 C5 1_555 1_555
H12 C12 1_555 1_555
C13 C7 1_555 1_555
H13 C13 1_555 1_555
H14 C13 1_555 1_555
H15 C13 1_555 1_555
C14 C7 1_555 1_555
H16 C14 1_555 1_555
H17 C14 1_555 1_555
H18 C14 1_555 1_555
C3 C11 1_555 1_555
C6 C12 1_555 1_555
C9 C10 1_555 1_555
C9 C12 1_555 1_555
C10 C11 1_555 1_555

#END
