
#######################################################################
#
#                 Cambridge Crystallographic Data Centre
#                                CCDC 
#
#######################################################################
#
# If this CIF has been generated from an entry in the Cambridge 
# Structural Database, then it will include bibliographic, chemical, 
# crystal, experimental, refinement or atomic coordinate data resulting 
# from the CCDC's data processing and validation procedures.
#
#######################################################################

data_HIVWOA
_chemical_formula_moiety         'C29 H21 N1'
_chemical_name_systematic        2,3,4,6-tetraphenylpyridine
_symmetry_cell_setting           triclinic
_symmetry_space_group_name_H-M   'P -1'
_symmetry_Int_Tables_number      2
_space_group_name_Hall           '-P 1'
loop_
_symmetry_equiv_pos_site_id
_symmetry_equiv_pos_as_xyz
1 x,y,z
2 -x,-y,-z
_cell_length_a                   10.4662(4)
_cell_length_b                   12.0700(4)
_cell_length_c                   17.9603(8)
_cell_angle_alpha                86.884(3)
_cell_angle_beta                 74.944(4)
_cell_angle_gamma                78.309(3)
_cell_volume                     2145.53
_exptl_crystal_colour            white
_cell_formula_units_Z            4
loop_
_atom_site_label
_atom_site_type_symbol
_atom_site_fract_x
_atom_site_fract_y
_atom_site_fract_z
N1 N 0.73408(14) -0.09164(11) 0.44970(8)
C1 C 0.78957(15) 0.10106(12) 0.50128(9)
C2 C 0.72638(14) 0.02729(12) 0.55539(8)
C3 C 0.82423(15) 0.07562(12) 0.42435(8)
H1 H 0.8686 0.1229 0.3887
C4 C 0.64410(16) -0.15909(12) 0.57793(9)
C5 C 0.81806(17) 0.20870(13) 0.52377(9)
C6 C 0.79407(15) -0.01882(12) 0.39951(8)
C7 C 0.55178(17) 0.06701(13) 0.68019(10)
H2 H 0.4868 0.0578 0.6555
C8 C 0.68559(15) 0.05435(12) 0.63918(8)
C9 C 0.70284(15) -0.07069(12) 0.52669(9)
C10 C 0.82518(16) -0.04292(13) 0.31589(9)
C11 C 0.8069(2) 0.04388(16) 0.26354(10)
H3 H 0.7773 0.1183 0.2806
C12 C 0.53706(19) -0.19802(15) 0.56360(12)
H4 H 0.5017 -0.1677 0.5228
C13 C 0.8708(2) -0.15196(15) 0.28826(10)
H5 H 0.8846 -0.2114 0.3223
C14 C 0.8964(2) -0.17398(19) 0.21039(12)
H6 H 0.9272 -0.2480 0.1926
C15 C 0.8325(2) 0.0201(2) 0.18582(11)
H7 H 0.8194 0.0788 0.1512
C16 C 0.6962(2) -0.20665(15) 0.63823(10)
H8 H 0.7681 -0.1817 0.6487
C17 C 0.78048(19) 0.06854(14) 0.67769(10)
H9 H 0.8708 0.0602 0.6510
C18 C 0.6419(2) -0.29124(16) 0.68320(11)
H10 H 0.6781 -0.3235 0.7233
C19 C 0.4824(2) -0.28059(17) 0.60877(14)
H11 H 0.4097 -0.3050 0.5988
C20 C 0.9498(2) 0.22268(16) 0.51032(11)
H12 H 1.0201 0.1641 0.4884
C21 C 0.7439(3) 0.39769(16) 0.57279(10)
H13 H 0.6743 0.4576 0.5932
C22 C 0.7147(2) 0.29657(15) 0.55511(10)
H14 H 0.6255 0.2882 0.5644
C23 C 0.5145(2) 0.09330(16) 0.75798(11)
H15 H 0.4244 0.1017 0.7852
C24 C 0.7418(2) 0.09488(16) 0.75510(11)
H16 H 0.8061 0.1044 0.7802
C25 C 0.5343(2) -0.32734(16) 0.66850(13)
H17 H 0.4969 -0.3833 0.6990
C26 C 0.8767(2) -0.0882(2) 0.15967(11)
H18 H 0.8934 -0.1034 0.1074
C27 C 0.8761(3) 0.40921(19) 0.56015(12)
H19 H 0.8956 0.4765 0.5729
C28 C 0.6092(3) 0.10703(16) 0.79516(11)
H20 H 0.5834 0.1245 0.8474
C29 C 0.9781(3) 0.3224(2) 0.52908(14)
H21 H 1.0672 0.3305 0.5205
N2 N 0.72741(14) 0.39345(12) 0.13470(8)
C30 C 0.77268(15) 0.56278(13) 0.02602(9)
C31 C 0.74759(15) 0.46065(13) 0.00400(8)
C32 C 0.74233(17) 0.44254(12) -0.07651(9)
C33 C 0.72720(15) 0.37623(13) 0.06054(8)
C34 C 0.70795(16) 0.26189(13) 0.04373(9)
C35 C 0.62628(19) 0.41939(14) -0.09058(10)
H22 H 0.5515 0.4159 -0.0497
C36 C 0.74984(16) 0.49300(14) 0.15424(9)
C37 C 0.77333(16) 0.57603(13) 0.10140(8)
H23 H 0.7901 0.6431 0.1165
C38 C 0.80398(16) 0.65531(13) -0.02983(9)
C39 C 0.74998(18) 0.50930(15) 0.23566(9)
C40 C 0.79146(19) 0.19860(14) -0.01909(10)
H24 H 0.8590 0.2291 -0.0531
C41 C 0.8103(2) 0.42384(17) 0.27649(11)
H25 H 0.8514 0.3541 0.2534
C42 C 0.9173(2) 0.69834(15) -0.03404(13)
H26 H 0.9707 0.6716 -0.0003
C43 C 0.6210(3) 0.40154(18) -0.16474(13)
H27 H 0.5426 0.3866 -0.1738
C44 C 0.7755(2) 0.09124(16) -0.03167(12)
H28 H 0.8334 0.0498 -0.0736
C45 C 0.7242(2) 0.69982(16) -0.07889(11)
H29 H 0.6450 0.6742 -0.0759
C46 C 0.60868(19) 0.21387(16) 0.09323(11)
H30 H 0.5526 0.2536 0.1364
C47 C 0.8534(2) 0.44783(15) -0.13846(9)
H31 H 0.9317 0.4639 -0.1300
C48 C 0.6763(2) 0.04507(17) 0.01642(14)
H32 H 0.6655 -0.0271 0.0071
C49 C 0.8760(2) 0.82118(15) -0.13668(13)
H33 H 0.9016 0.8756 -0.1732
C50 C 0.7610(2) 0.78205(16) -0.13245(11)
H34 H 0.7071 0.8106 -0.1656
C51 C 0.8095(3) 0.4423(2) 0.35257(13)
H35 H 0.8516 0.3849 0.3798
C52 C 0.5927(2) 0.10587(18) 0.07850(15)
H36 H 0.5244 0.0748 0.1113
C53 C 0.6881(2) 0.61192(18) 0.27235(11)
H37 H 0.6469 0.6705 0.2455
C54 C 0.6869(3) 0.6281(2) 0.34785(12)
H38 H 0.6443 0.6971 0.3717
C55 C 0.9537(2) 0.78006(18) -0.08699(16)
H39 H 1.0314 0.8075 -0.0891
C56 C 0.7314(3) 0.4057(2) -0.22527(13)
H40 H 0.7280 0.3926 -0.2752
C57 C 0.8468(3) 0.42919(18) -0.21228(11)
H41 H 0.9210 0.4325 -0.2536
C58 C 0.7476(3) 0.5439(2) 0.38761(13)
H42 H 0.7471 0.5552 0.4385
loop_
_geom_bond_atom_site_label_1
_geom_bond_atom_site_label_2
_geom_bond_site_symmetry_1
_geom_bond_site_symmetry_2
N1 C6 1_555 1_555
C1 C2 1_555 1_555
C2 C8 1_555 1_555
C3 C1 1_555 1_555
H1 C3 1_555 1_555
C4 C9 1_555 1_555
C5 C1 1_555 1_555
C6 C3 1_555 1_555
C7 H2 1_555 1_555
C8 C7 1_555 1_555
C9 N1 1_555 1_555
C10 C6 1_555 1_555
C11 C10 1_555 1_555
H3 C11 1_555 1_555
C12 C4 1_555 1_555
H4 C12 1_555 1_555
C13 C10 1_555 1_555
H5 C13 1_555 1_555
C14 C13 1_555 1_555
H6 C14 1_555 1_555
C15 C11 1_555 1_555
H7 C15 1_555 1_555
C16 C4 1_555 1_555
H8 C16 1_555 1_555
C17 C8 1_555 1_555
H9 C17 1_555 1_555
C18 C16 1_555 1_555
H10 C18 1_555 1_555
C19 C12 1_555 1_555
H11 C19 1_555 1_555
C20 C5 1_555 1_555
H12 C20 1_555 1_555
C21 H13 1_555 1_555
C22 C5 1_555 1_555
H14 C22 1_555 1_555
C23 C7 1_555 1_555
H15 C23 1_555 1_555
C24 C17 1_555 1_555
H16 C24 1_555 1_555
C25 C18 1_555 1_555
H17 C25 1_555 1_555
C26 C14 1_555 1_555
H18 C26 1_555 1_555
C27 C21 1_555 1_555
H19 C27 1_555 1_555
C28 C23 1_555 1_555
H20 C28 1_555 1_555
C29 C20 1_555 1_555
H21 C29 1_555 1_555
N2 C33 1_555 1_555
C30 C31 1_555 1_555
C31 C32 1_555 1_555
C32 C35 1_555 1_555
C33 C31 1_555 1_555
C34 C33 1_555 1_555
C35 H22 1_555 1_555
C36 N2 1_555 1_555
C37 C30 1_555 1_555
H23 C37 1_555 1_555
C38 C30 1_555 1_555
C39 C36 1_555 1_555
C40 C34 1_555 1_555
H24 C40 1_555 1_555
C41 C39 1_555 1_555
H25 C41 1_555 1_555
C42 C38 1_555 1_555
H26 C42 1_555 1_555
C43 C35 1_555 1_555
H27 C43 1_555 1_555
C44 C40 1_555 1_555
H28 C44 1_555 1_555
C45 C38 1_555 1_555
H29 C45 1_555 1_555
C46 C34 1_555 1_555
H30 C46 1_555 1_555
C47 C32 1_555 1_555
H31 C47 1_555 1_555
C48 C44 1_555 1_555
H32 C48 1_555 1_555
C49 H33 1_555 1_555
C50 C45 1_555 1_555
H34 C50 1_555 1_555
C51 C41 1_555 1_555
H35 C51 1_555 1_555
C52 C46 1_555 1_555
H36 C52 1_555 1_555
C53 C39 1_555 1_555
H37 C53 1_555 1_555
C54 C53 1_555 1_555
H38 C54 1_555 1_555
C55 C42 1_555 1_555
H39 C55 1_555 1_555
C56 C43 1_555 1_555
H40 C56 1_555 1_555
C57 C47 1_555 1_555
H41 C57 1_555 1_555
C58 C51 1_555 1_555
H42 C58 1_555 1_555
C2 C9 1_555 1_555
C15 C26 1_555 1_555
C19 C25 1_555 1_555
C21 C22 1_555 1_555
C24 C28 1_555 1_555
C27 C29 1_555 1_555
C36 C37 1_555 1_555
C48 C52 1_555 1_555
C49 C50 1_555 1_555
C49 C55 1_555 1_555
C54 C58 1_555 1_555
C56 C57 1_555 1_555

#END
