
#######################################################################
#
#                 Cambridge Crystallographic Data Centre
#                                CCDC 
#
#######################################################################
#
# If this CIF has been generated from an entry in the Cambridge 
# Structural Database, then it will include bibliographic, chemical, 
# crystal, experimental, refinement or atomic coordinate data resulting 
# from the CCDC's data processing and validation procedures.
#
#######################################################################

data_HIVXIU
_chemical_compound_source        'Aspergillus variecolor B-17'
_chemical_formula_moiety         'C39 H35 N3 O7,C1 H4 O1,H2 O1'
_chemical_name_systematic        'Variecolortide A methanol solvate monohydrate'
_chemical_properties_biological  'weak cytotoxic and antioxidant activities'
_symmetry_cell_setting           triclinic
_symmetry_space_group_name_H-M   'P -1'
_symmetry_Int_Tables_number      2
_space_group_name_Hall           '-P 1'
loop_
_symmetry_equiv_pos_site_id
_symmetry_equiv_pos_as_xyz
1 x,y,z
2 -x,-y,-z
_cell_length_a                   10.095(12)
_cell_length_b                   12.676(15)
_cell_length_c                   14.898(19)
_cell_angle_alpha                70.64(2)
_cell_angle_beta                 87.14(2)
_cell_angle_gamma                83.84(2)
_cell_volume                     1788.02
_exptl_crystal_colour            yellow
_chemical_melting_point          '182 deg.C (dec.)'
_cell_formula_units_Z            2
loop_
_atom_site_label
_atom_site_type_symbol
_atom_site_fract_x
_atom_site_fract_y
_atom_site_fract_z
N1 N 0.4406(4) 0.7016(4) 0.6401(3)
H1 H 0.3622 0.6942 0.6242
N2 N 0.7015(4) 0.7302(4) 0.6510(3)
H2 H 0.7781 0.7522 0.6295
N3 N 0.1779(5) 0.3771(4) 0.7459(3)
H3 H 0.1250 0.3293 0.7433
O1 O 0.9248(4) 1.0391(3) 0.9033(3)
O2 O 0.5722(3) 0.7645(3) 0.7765(3)
O3 O 0.8715(4) 0.8550(3) 1.0360(3)
H4 H 0.9056 0.9143 1.0141
O4 O 0.9594(4) 1.2295(3) 0.7831(3)
H5 H 0.9638 1.1789 0.8346
O5 O 0.7907(4) 1.3113(3) 0.4743(3)
H6 H 0.8245 1.3697 0.4667
O6 O 0.3943(4) 0.8890(3) 0.5989(3)
O7 O 0.7634(4) 0.5514(4) 0.6575(3)
C1 C 0.7199(5) 0.8854(4) 0.8076(4)
C2 C 0.6554(5) 0.7873(4) 0.8376(4)
C3 C 0.6668(5) 0.7138(4) 0.9282(4)
C4 C 0.7398(5) 0.7401(5) 0.9930(4)
H10 H 0.7469 0.6909 1.0552
C5 C 0.8022(6) 0.8383(5) 0.9670(4)
C6 C 0.7934(5) 0.9104(4) 0.8750(4)
C7 C 0.8563(6) 1.0173(5) 0.8436(4)
C8 C 0.8364(5) 1.0933(4) 0.7495(4)
C9 C 0.8898(6) 1.1988(5) 0.7217(4)
C10 C 0.8734(6) 1.2717(5) 0.6320(4)
H11 H 0.9068 1.3414 0.6152
C11 C 0.8070(5) 1.2434(5) 0.5647(4)
C12 C 0.7516(5) 1.1412(4) 0.5900(4)
H12 H 0.7055 1.1234 0.5453
C13 C 0.7651(5) 1.0666(4) 0.6811(4)
C14 C 0.7074(5) 0.9576(4) 0.7097(4)
C15 C 0.6475(5) 0.9211(4) 0.6480(4)
H13 H 0.6346 0.9686 0.5857
C16 C 0.6013(5) 0.8059(4) 0.6776(4)
C17 C 0.4700(6) 0.8047(5) 0.6337(4)
C18 C 0.5311(5) 0.6051(5) 0.6716(4)
C19 C 0.6743(6) 0.6248(5) 0.6600(4)
C20 C 0.4940(6) 0.5011(5) 0.7044(4)
H14 H 0.5616 0.4427 0.7140
C21 C 0.3071(6) 0.3803(5) 0.7111(4)
C22 C 0.3590(5) 0.4695(4) 0.7268(4)
C23 C 0.2566(6) 0.5212(5) 0.7754(4)
C24 C 0.2507(6) 0.6068(5) 0.8160(4)
H15 H 0.3245 0.6461 0.8127
C25 C 0.1350(7) 0.6324(6) 0.8608(5)
C26 C 0.0244(7) 0.5693(6) 0.8676(5)
H16 H -0.0535 0.5877 0.8974
C27 C 0.0285(6) 0.4827(6) 0.8320(5)
H17 H -0.0437 0.4406 0.8388
C28 C 0.1450(6) 0.4600(5) 0.7850(4)
C29 C 0.5981(6) 0.6070(5) 0.9578(5)
H18 H 0.6165 0.5654 1.0233
H19 H 0.6304 0.5624 0.9189
H20 H 0.5037 0.6255 0.9500
C30 C 0.3639(6) 0.2954(5) 0.6648(5)
C31 C 0.2553(8) 0.2537(8) 0.6254(7)
C32 C 0.2296(10) 0.1593(9) 0.6311(9)
H22 H 0.2842 0.0966 0.6659
H23 H 0.1554 0.1503 0.6007
C33 C 0.4510(8) 0.3486(6) 0.5783(5)
H24 H 0.5250 0.3770 0.5979
H25 H 0.3993 0.4092 0.5331
H26 H 0.4834 0.2932 0.5495
C34 C 0.4503(8) 0.2031(6) 0.7394(6)
H27 H 0.5195 0.2361 0.7596
H28 H 0.4895 0.1483 0.7117
H29 H 0.3956 0.1673 0.7932
C35 C 0.1253(8) 0.7285(8) 0.9029(7)
H30 H 0.1384 0.7972 0.8511
H31 H 0.0349 0.7365 0.9267
C36 C 0.2113(12) 0.7215(13) 0.9756(12)
H32 H 0.2061 0.6615 1.0318
C37 C 0.301(2) 0.7946(17) 0.9711(13)
C38 C 0.305(2) 0.9025(15) 0.8999(13)
H33 H 0.3805 0.9372 0.9103
H34 H 0.2249 0.9488 0.9033
H35 H 0.3136 0.8939 0.8381
C39 C 0.365(2) 0.7811(17) 1.0638(13)
H36 H 0.4280 0.8360 1.0534
H37 H 0.4110 0.7072 1.0883
H38 H 0.2981 0.7917 1.1087
O8 O -0.0198(4) 0.4546(3) 1.4253(3)
H7 H 0.0566 0.4118 1.4329
H8 H -0.0172 0.4745 1.4763
O9 O 1.0256(6) 0.2254(6) 1.3479(7)
H9 H 1.0814 0.2272 1.3057
C45 C 0.9645(9) 0.1285(8) 1.3704(7)
H48 H 0.9819 0.0841 1.4355
H49 H 0.9985 0.0868 1.3296
H50 H 0.8701 0.1467 1.3619
H21? H 0.1950 0.3107 0.5892
C40? C 0.1253(8) 0.7285(8) 0.9029(7)
H39? H 0.0461 0.7776 0.8770
H40? H 0.1091 0.6954 0.9708
C41? C 0.2336(16) 0.8000(17) 0.8914(15)
H41? H 0.2704 0.8336 0.8315
C42? C 0.279(3) 0.817(2) 0.9683(16)
C43? C 0.381(2) 0.9040(18) 0.9372(17)
H42? H 0.4099 0.9188 0.9919
H43? H 0.3406 0.9722 0.8931
H44? H 0.4564 0.8756 0.9072
C44? C 0.310(3) 0.7383(19) 1.0645(15)
H45? H 0.3369 0.7793 1.1033
H46? H 0.3815 0.6833 1.0605
H47? H 0.2328 0.7013 1.0923
loop_
_geom_bond_atom_site_label_1
_geom_bond_atom_site_label_2
_geom_bond_site_symmetry_1
_geom_bond_site_symmetry_2
N1 H1 1_555 1_555
N2 H2 1_555 1_555
N3 H3 1_555 1_555
O1 C7 1_555 1_555
O2 C2 1_555 1_555
O3 H4 1_555 1_555
O4 H5 1_555 1_555
O5 H6 1_555 1_555
O6 C17 1_555 1_555
O7 C19 1_555 1_555
O8 H7 1_555 1_555
H8 O8 1_555 1_555
O9 H9 1_555 1_555
C1 C2 1_555 1_555
C2 C3 1_555 1_555
C3 C4 1_555 1_555
C4 H10 1_555 1_555
C5 O3 1_555 1_555
C6 C1 1_555 1_555
C7 C6 1_555 1_555
C8 C7 1_555 1_555
C9 O4 1_555 1_555
C10 C9 1_555 1_555
H11 C10 1_555 1_555
C11 O5 1_555 1_555
C12 C11 1_555 1_555
H12 C12 1_555 1_555
C13 C8 1_555 1_555
C14 C1 1_555 1_555
C15 C14 1_555 1_555
H13 C15 1_555 1_555
C16 N2 1_555 1_555
C17 N1 1_555 1_555
C18 N1 1_555 1_555
C19 N2 1_555 1_555
C20 C18 1_555 1_555
H14 C20 1_555 1_555
C21 N3 1_555 1_555
C22 C20 1_555 1_555
C23 C22 1_555 1_555
C24 C23 1_555 1_555
H15 C24 1_555 1_555
C25 C24 1_555 1_555
C26 C25 1_555 1_555
H16 C26 1_555 1_555
C27 C26 1_555 1_555
H17 C27 1_555 1_555
C28 N3 1_555 1_555
C29 C3 1_555 1_555
H18 C29 1_555 1_555
H19 C29 1_555 1_555
H20 C29 1_555 1_555
C30 C21 1_555 1_555
C31 C30 1_555 1_555
C32 C31 1_555 1_555
H22 C32 1_555 1_555
H23 C32 1_555 1_555
C33 C30 1_555 1_555
H24 C33 1_555 1_555
H25 C33 1_555 1_555
H26 C33 1_555 1_555
C34 C30 1_555 1_555
H27 C34 1_555 1_555
H28 C34 1_555 1_555
H29 C34 1_555 1_555
C35 C25 1_555 1_555
H30 C35 1_555 1_555
H31 C35 1_555 1_555
C36 C35 1_555 1_555
H32 C36 1_555 1_555
C37 C36 1_555 1_555
C38 C37 1_555 1_555
H33 C38 1_555 1_555
H34 C38 1_555 1_555
H35 C38 1_555 1_555
C39 C37 1_555 1_555
H36 C39 1_555 1_555
H37 C39 1_555 1_555
H38 C39 1_555 1_555
C45 O9 1_555 1_555
H48 C45 1_555 1_555
H49 C45 1_555 1_555
H50 C45 1_555 1_555
O2 C16 1_555 1_555
C4 C5 1_555 1_555
C5 C6 1_555 1_555
C8 C9 1_555 1_555
C10 C11 1_555 1_555
C12 C13 1_555 1_555
C13 C14 1_555 1_555
C15 C16 1_555 1_555
C16 C17 1_555 1_555
C18 C19 1_555 1_555
C21 C22 1_555 1_555
C23 C28 1_555 1_555
C27 C28 1_555 1_555

#END
