
#######################################################################
#
#                 Cambridge Crystallographic Data Centre
#                                CCDC 
#
#######################################################################
#
# If this CIF has been generated from an entry in the Cambridge 
# Structural Database, then it will include bibliographic, chemical, 
# crystal, experimental, refinement or atomic coordinate data resulting 
# from the CCDC's data processing and validation procedures.
#
#######################################################################

data_HIVYUI
_chemical_formula_moiety         'C11 H9 F3 N2 O1'
_chemical_name_systematic        
2,2,2-trifluoro-N-hydroxy-1-(1-methyl-1H-indol-3-yl)ethanimine
_symmetry_cell_setting           monoclinic
_symmetry_space_group_name_H-M   'P 21/c'
_symmetry_Int_Tables_number      14
_space_group_name_Hall           '-P 2ybc'
loop_
_symmetry_equiv_pos_site_id
_symmetry_equiv_pos_as_xyz
1 x,y,z
2 -x,1/2+y,1/2-z
3 -x,-y,-z
4 x,1/2-y,1/2+z
_cell_length_a                   7.8552(8)
_cell_length_b                   5.5784(6)
_cell_length_c                   24.405(3)
_cell_angle_alpha                90
_cell_angle_beta                 93.577(2)
_cell_angle_gamma                90
_cell_volume                     1067.33
_exptl_crystal_colour            colorless
_exptl_crystal_description       block
_cell_formula_units_Z            4
loop_
_atom_site_label
_atom_site_type_symbol
_atom_site_fract_x
_atom_site_fract_y
_atom_site_fract_z
F1 F 0.5748(2) -0.0086(4) 0.43034(9)
F2 F 0.6051(2) -0.3152(4) 0.37946(9)
F3 F 0.6131(3) -0.3528(5) 0.46664(10)
O1 O 1.1012(3) -0.2867(4) 0.46878(9)
H1 H 1.1417 -0.3858 0.4907
N1 N 1.1071(3) 0.2920(4) 0.36875(9)
N2 N 0.9260(3) -0.3139(4) 0.46319(9)
C1 C 0.9631(3) 0.3180(4) 0.33409(10)
C2 C 0.9341(4) 0.4774(5) 0.29100(12)
H2 H 1.0158 0.5903 0.2827
C3 C 0.7810(4) 0.4631(6) 0.26100(13)
H3 H 0.7576 0.5681 0.2319
C4 C 0.6606(4) 0.2927(5) 0.27381(13)
H4 H 0.5582 0.2844 0.2526
C5 C 0.6885(4) 0.1372(5) 0.31669(11)
H5 H 0.6056 0.0253 0.3245
C6 C 0.8417(3) 0.1471(5) 0.34874(10)
C7 C 0.9203(3) 0.0172(5) 0.39526(10)
C8 C 1.0812(3) 0.1129(5) 0.40431(11)
H6 H 1.1614 0.0607 0.4314
C9 C 1.2627(4) 0.4335(6) 0.36685(13)
H7 H 1.3432 0.3830 0.3958
H8 H 1.2364 0.6000 0.3715
H9 H 1.3109 0.4105 0.3320
C10 C 0.8503(4) -0.1702(5) 0.42879(11)
C11 C 0.6615(4) -0.2117(7) 0.42671(14)
loop_
_geom_bond_atom_site_label_1
_geom_bond_atom_site_label_2
_geom_bond_site_symmetry_1
_geom_bond_site_symmetry_2
F1 C11 1_555 1_555
F2 C11 1_555 1_555
F3 C11 1_555 1_555
O1 H1 1_555 1_555
N1 C1 1_555 1_555
N2 O1 1_555 1_555
C1 C2 1_555 1_555
C2 H2 1_555 1_555
C3 C2 1_555 1_555
H3 C3 1_555 1_555
C4 C3 1_555 1_555
H4 C4 1_555 1_555
C5 C4 1_555 1_555
H5 C5 1_555 1_555
C6 C1 1_555 1_555
C7 C6 1_555 1_555
C8 N1 1_555 1_555
H6 C8 1_555 1_555
C9 N1 1_555 1_555
H7 C9 1_555 1_555
H8 C9 1_555 1_555
H9 C9 1_555 1_555
C10 N2 1_555 1_555
C11 C10 1_555 1_555
C5 C6 1_555 1_555
C7 C8 1_555 1_555
C7 C10 1_555 1_555

#END
