
#######################################################################
#
#                 Cambridge Crystallographic Data Centre
#                                CCDC 
#
#######################################################################
#
# If this CIF has been generated from an entry in the Cambridge 
# Structural Database, then it will include bibliographic, chemical, 
# crystal, experimental, refinement or atomic coordinate data resulting 
# from the CCDC's data processing and validation procedures.
#
#######################################################################

data_HIWREL
_chemical_formula_moiety         'C39 H40 Br1 N1 O5 S1'
_chemical_name_systematic        
'4-(4-Bromophenyl)-2-(4,9-diethyl-2-methyl-3-methylene-8-oxo-9-phenyl-6-(1-phenylpropylidene)-7-oxa-1-thia-4-azaspiro(4.4)non-2-yl)-4-oxobut-2-enoic acid ethyl ester'
_symmetry_cell_setting           monoclinic
_symmetry_space_group_name_H-M   'P 21/n'
_symmetry_Int_Tables_number      14
_space_group_name_Hall           '-P 2yn'
loop_
_symmetry_equiv_pos_site_id
_symmetry_equiv_pos_as_xyz
1 x,y,z
2 1/2-x,1/2+y,1/2-z
3 -x,-y,-z
4 1/2+x,1/2-y,1/2+z
_cell_length_a                   19.704(4)
_cell_length_b                   7.8030(16)
_cell_length_c                   23.704(5)
_cell_angle_alpha                90.00
_cell_angle_beta                 107.08(3)
_cell_angle_gamma                90.00
_cell_volume                     3483.76
_exptl_crystal_colour            white
_chemical_melting_point          '188-190 deg.C'
_cell_formula_units_Z            4
loop_
_atom_site_label
_atom_site_type_symbol
_atom_site_fract_x
_atom_site_fract_y
_atom_site_fract_z
Br1 Br 0.77559(2) 1.30872(5) -0.05804(2)
S1 S 0.57171(4) 0.99401(10) 0.27814(4)
N1 N 0.54248(12) 1.3117(3) 0.29236(11)
O1 O 0.52388(14) 1.3981(4) 0.08444(12)
O2 O 0.64512(16) 0.8691(4) 0.19350(13)
O3 O 0.58778(16) 1.0069(3) 0.11119(12)
O4 O 0.41704(11) 1.1922(3) 0.40660(10)
O5 O 0.39737(10) 1.1444(3) 0.31100(9)
C1 C 0.60681(18) 1.3854(4) 0.00815(15)
H1 H 0.5604 1.4253 -0.0062
C2 C 0.64871(19) 1.3773(4) -0.02905(16)
H2 H 0.6310 1.4123 -0.0681
C3 C 0.71742(19) 1.3169(4) -0.00779(16)
C4 C 0.74363(17) 1.2655(4) 0.04978(16)
H3 H 0.7897 1.2234 0.0637
C5 C 0.70175(16) 1.2759(4) 0.08719(15)
H4 H 0.7201 1.2430 0.1264
C6 C 0.63236(16) 1.3352(4) 0.06669(14)
C7 C 0.58457(19) 1.3479(4) 0.10402(16)
C8 C 0.60947(16) 1.3145(5) 0.16893(15)
H5 H 0.6187 1.4125 0.1923
C9 C 0.62058(16) 1.1683(4) 0.19866(15)
C10 C 0.6200(2) 0.9994(5) 0.16862(18)
C11 C 0.5860(4) 0.8495(6) 0.0774(2)
H6 H 0.6118 0.7610 0.1039
H7 H 0.5371 0.8120 0.0620
C12 C 0.6128(4) 0.8641(8) 0.0338(4)
H8 H 0.6104 0.7555 0.0143
H9 H 0.6615 0.8997 0.0486
H10 H 0.5864 0.9478 0.0064
C13 C 0.61223(16) 1.3188(4) 0.29105(14)
C14 C 0.63350(16) 1.1562(4) 0.26549(15)
C15 C 0.6539(2) 1.4553(5) 0.30476(17)
H11 H 0.6368 1.5562 0.3163
H12 H 0.7004 1.4500 0.3028
C16 C 0.71063(16) 1.1031(5) 0.29692(17)
H13 H 0.7425 1.1882 0.2900
H14 H 0.7204 0.9947 0.2818
H15 H 0.7171 1.0933 0.3385
C17 C 0.50467(18) 1.4682(4) 0.29957(16)
H16 H 0.5358 1.5388 0.3300
H17 H 0.4639 1.4375 0.3125
C18 C 0.4799(2) 1.5702(5) 0.24324(17)
H18 H 0.4554 1.6709 0.2499
H19 H 0.4484 1.5015 0.2132
H20 H 0.5202 1.6032 0.2307
C19 C 0.51532(15) 1.1453(4) 0.30268(13)
C20 C 0.51559(15) 1.1075(4) 0.36870(13)
C21 C 0.51625(17) 0.9095(4) 0.37918(14)
H21 H 0.4792 0.8579 0.3473
H22 H 0.5613 0.8643 0.3772
C22 C 0.5055(2) 0.8544(4) 0.43732(15)
H23 H 0.5067 0.7316 0.4399
H24 H 0.4603 0.8951 0.4394
H25 H 0.5426 0.9017 0.4694
C23 C 0.44070(16) 1.1570(4) 0.36708(14)
C24 C 0.43559(15) 1.1327(4) 0.26947(14)
C25 C 0.39882(16) 1.1305(4) 0.21328(14)
C26 C 0.43170(17) 1.1325(5) 0.16354(15)
H26 H 0.4826 1.1488 0.1796
H27 H 0.4128 1.2287 0.1378
C27 C 0.4177(2) 0.9689(6) 0.12786(19)
H28 H 0.4394 0.9761 0.0966
H29 H 0.3674 0.9532 0.1114
H30 H 0.4373 0.8736 0.1530
C28 C 0.56232(19) 1.3443(4) 0.44385(15)
H31 H 0.5166 1.3883 0.4357
C29 C 0.6179(2) 1.4258(5) 0.48472(17)
H32 H 0.6092 1.5229 0.5042
C30 C 0.6854(2) 1.3643(5) 0.49649(18)
H33 H 0.7227 1.4202 0.5236
C31 C 0.6982(2) 1.2212(5) 0.46856(18)
H34 H 0.7443 1.1791 0.4765
C32 C 0.64280(17) 1.1381(4) 0.42825(16)
H35 H 0.6520 1.0395 0.4097
C33 C 0.57410(16) 1.1985(4) 0.41505(13)
C34 C 0.28211(19) 0.9961(5) 0.20982(17)
H36 H 0.3065 0.9051 0.2321
C35 C 0.2085(2) 0.9958(6) 0.1914(2)
H37 H 0.1838 0.9045 0.2013
C36 C 0.1723(2) 1.1286(6) 0.15909(19)
H38 H 0.1229 1.1276 0.1465
C37 C 0.2080(2) 1.2615(6) 0.14527(19)
H39 H 0.1831 1.3534 0.1239
C38 C 0.28122(19) 1.2622(5) 0.16259(17)
H40 H 0.3052 1.3534 0.1519
C39 C 0.31926(16) 1.1296(4) 0.19542(14)
loop_
_geom_bond_atom_site_label_1
_geom_bond_atom_site_label_2
_geom_bond_site_symmetry_1
_geom_bond_site_symmetry_2
Br1 C3 1_555 1_555
S1 C14 1_555 1_555
N1 C13 1_555 1_555
O1 C7 1_555 1_555
O2 C10 1_555 1_555
O3 C10 1_555 1_555
O4 C23 1_555 1_555
O5 C23 1_555 1_555
C1 H1 1_555 1_555
C2 C1 1_555 1_555
H2 C2 1_555 1_555
C3 C2 1_555 1_555
C4 C3 1_555 1_555
H3 C4 1_555 1_555
C5 C4 1_555 1_555
H4 C5 1_555 1_555
C6 C1 1_555 1_555
C7 C6 1_555 1_555
C8 C7 1_555 1_555
H5 C8 1_555 1_555
C9 C8 1_555 1_555
C10 C9 1_555 1_555
C11 O3 1_555 1_555
H6 C11 1_555 1_555
H7 C11 1_555 1_555
C12 C11 1_555 1_555
H8 C12 1_555 1_555
H9 C12 1_555 1_555
H10 C12 1_555 1_555
C13 C14 1_555 1_555
C14 C9 1_555 1_555
C15 C13 1_555 1_555
H11 C15 1_555 1_555
H12 C15 1_555 1_555
C16 C14 1_555 1_555
H13 C16 1_555 1_555
H14 C16 1_555 1_555
H15 C16 1_555 1_555
C17 N1 1_555 1_555
H16 C17 1_555 1_555
H17 C17 1_555 1_555
C18 C17 1_555 1_555
H18 C18 1_555 1_555
H19 C18 1_555 1_555
H20 C18 1_555 1_555
C19 S1 1_555 1_555
C20 C19 1_555 1_555
C21 C20 1_555 1_555
H21 C21 1_555 1_555
H22 C21 1_555 1_555
C22 C21 1_555 1_555
H23 C22 1_555 1_555
H24 C22 1_555 1_555
H25 C22 1_555 1_555
C23 C20 1_555 1_555
C24 O5 1_555 1_555
C25 C24 1_555 1_555
C26 C25 1_555 1_555
H26 C26 1_555 1_555
H27 C26 1_555 1_555
C27 C26 1_555 1_555
H28 C27 1_555 1_555
H29 C27 1_555 1_555
H30 C27 1_555 1_555
C28 H31 1_555 1_555
C29 C28 1_555 1_555
H32 C29 1_555 1_555
C30 C29 1_555 1_555
H33 C30 1_555 1_555
C31 C30 1_555 1_555
H34 C31 1_555 1_555
C32 C31 1_555 1_555
H35 C32 1_555 1_555
C33 C20 1_555 1_555
C34 H36 1_555 1_555
C35 C34 1_555 1_555
H37 C35 1_555 1_555
C36 C35 1_555 1_555
H38 C36 1_555 1_555
C37 C36 1_555 1_555
H39 C37 1_555 1_555
C38 C37 1_555 1_555
H40 C38 1_555 1_555
C39 C25 1_555 1_555
N1 C19 1_555 1_555
C5 C6 1_555 1_555
C19 C24 1_555 1_555
C28 C33 1_555 1_555
C32 C33 1_555 1_555
C34 C39 1_555 1_555
C38 C39 1_555 1_555

#END
