
#######################################################################
#
#                 Cambridge Crystallographic Data Centre
#                                CCDC 
#
#######################################################################
#
# If this CIF has been generated from an entry in the Cambridge 
# Structural Database, then it will include bibliographic, chemical, 
# crystal, experimental, refinement or atomic coordinate data resulting 
# from the CCDC's data processing and validation procedures.
#
#######################################################################

data_HIWRIP
_chemical_formula_moiety         'C22 H20 N2 O4 S2'
_chemical_name_systematic        
'2,3-bis(3-Methyl-3H-benzothiazol-2-ylidene)succinic acid dimethyl ester'
_symmetry_cell_setting           monoclinic
_symmetry_space_group_name_H-M   'P 21/n'
_symmetry_Int_Tables_number      14
_space_group_name_Hall           '-P 2yn'
loop_
_symmetry_equiv_pos_site_id
_symmetry_equiv_pos_as_xyz
1 x,y,z
2 1/2-x,1/2+y,1/2-z
3 -x,-y,-z
4 1/2+x,1/2-y,1/2+z
_cell_length_a                   12.279(3)
_cell_length_b                   12.718(3)
_cell_length_c                   14.379(3)
_cell_angle_alpha                90.00
_cell_angle_beta                 114.19(3)
_cell_angle_gamma                90.00
_cell_volume                     2048.31
_exptl_crystal_colour            white
_chemical_melting_point          '154-156 deg.C'
_cell_formula_units_Z            4
loop_
_atom_site_label
_atom_site_type_symbol
_atom_site_fract_x
_atom_site_fract_y
_atom_site_fract_z
S1 S 0.33178(4) 0.70118(4) 0.15583(4)
S2 S -0.23496(4) 0.78443(4) 0.12854(4)
O1 O 0.26844(12) 0.62871(13) 0.29016(11)
O2 O 0.08426(12) 0.61682(11) 0.28470(10)
O3 O -0.20345(12) 0.67624(13) -0.01020(11)
O4 O -0.03087(12) 0.63085(12) -0.01738(11)
N1 N 0.15799(15) 0.80963(13) 0.02878(12)
N2 N -0.03293(13) 0.86713(12) 0.24091(12)
C1 C 0.2421(3) 0.86323(19) -0.09541(18)
H1 H 0.1751 0.9015 -0.1365
C2 C 0.3398(3) 0.8556(2) -0.1194(2)
H2 H 0.3380 0.8887 -0.1777
C3 C 0.4394(3) 0.8000(2) -0.0591(2)
H3 H 0.5039 0.7960 -0.0770
C4 C 0.4452(2) 0.75039(19) 0.0273(2)
H4 H 0.5130 0.7130 0.0684
C5 C 0.34741(18) 0.75722(16) 0.05184(16)
C6 C 0.2463(2) 0.81259(16) -0.00876(15)
C7 C 0.18398(15) 0.74815(14) 0.11365(13)
C8 C 0.0508(2) 0.8734(2) -0.0205(2)
H5 H -0.0013 0.8630 0.0135
H6 H 0.0105 0.8528 -0.0907
H7 H 0.0726 0.9462 -0.0167
C9 C 0.11059(15) 0.72101(14) 0.16101(14)
C10 C 0.16345(17) 0.65399(15) 0.24991(14)
C11 C 0.1330(2) 0.5431(2) 0.36791(17)
H8 H 0.0712 0.5207 0.3881
H9 H 0.1958 0.5763 0.4246
H10 H 0.1644 0.4832 0.3464
C12 C -0.3171(2) 0.8952(2) 0.25701(19)
H11 H -0.3938 0.8684 0.2230
C13 C -0.2905(3) 0.9635(2) 0.3380(2)
H12 H -0.3499 0.9825 0.3591
C14 C -0.1776(2) 1.00381(19) 0.38787(18)
H13 H -0.1621 1.0505 0.4416
C15 C -0.0867(2) 0.97629(17) 0.35960(15)
H14 H -0.0104 1.0039 0.3935
C16 C -0.11209(17) 0.90626(15) 0.27922(14)
C17 C -0.22670(18) 0.86768(16) 0.22763(16)
C18 C 0.08729(18) 0.91030(19) 0.27584(18)
H15 H 0.1299 0.8748 0.2420
H16 H 0.1284 0.9005 0.3482
H17 H 0.0827 0.9840 0.2603
C19 C -0.08021(16) 0.79551(14) 0.16344(13)
C20 C -0.02105(16) 0.73813(15) 0.11704(14)
C21 C -0.09481(17) 0.68048(16) 0.02642(14)
C22 C -0.0991(2) 0.5791(2) -0.11221(17)
H18 H -0.0459 0.5465 -0.1373
H19 H -0.1480 0.6297 -0.1610
H20 H -0.1489 0.5264 -0.1018
loop_
_geom_bond_atom_site_label_1
_geom_bond_atom_site_label_2
_geom_bond_site_symmetry_1
_geom_bond_site_symmetry_2
S1 C5 1_555 1_555
S2 C17 1_555 1_555
O1 C10 1_555 1_555
O2 C10 1_555 1_555
O3 C21 1_555 1_555
O4 C21 1_555 1_555
N1 C6 1_555 1_555
N2 C16 1_555 1_555
C1 H1 1_555 1_555
C2 C1 1_555 1_555
H2 C2 1_555 1_555
C3 C2 1_555 1_555
H3 C3 1_555 1_555
C4 C3 1_555 1_555
H4 C4 1_555 1_555
C5 C4 1_555 1_555
C6 C1 1_555 1_555
C7 S1 1_555 1_555
C8 N1 1_555 1_555
H5 C8 1_555 1_555
H6 C8 1_555 1_555
H7 C8 1_555 1_555
C9 C7 1_555 1_555
C10 C9 1_555 1_555
C11 O2 1_555 1_555
H8 C11 1_555 1_555
H9 C11 1_555 1_555
H10 C11 1_555 1_555
C12 H11 1_555 1_555
C13 C12 1_555 1_555
H12 C13 1_555 1_555
C14 C13 1_555 1_555
H13 C14 1_555 1_555
C15 C14 1_555 1_555
H14 C15 1_555 1_555
C16 C15 1_555 1_555
C17 C12 1_555 1_555
C18 N2 1_555 1_555
H15 C18 1_555 1_555
H16 C18 1_555 1_555
H17 C18 1_555 1_555
C19 S2 1_555 1_555
C20 C9 1_555 1_555
C21 C20 1_555 1_555
C22 O4 1_555 1_555
H18 C22 1_555 1_555
H19 C22 1_555 1_555
H20 C22 1_555 1_555
N1 C7 1_555 1_555
N2 C19 1_555 1_555
C5 C6 1_555 1_555
C16 C17 1_555 1_555
C19 C20 1_555 1_555

#END
