
#######################################################################
#
#                 Cambridge Crystallographic Data Centre
#                                CCDC 
#
#######################################################################
#
# If this CIF has been generated from an entry in the Cambridge 
# Structural Database, then it will include bibliographic, chemical, 
# crystal, experimental, refinement or atomic coordinate data resulting 
# from the CCDC's data processing and validation procedures.
#
#######################################################################

data_HIWVIT
_chemical_formula_moiety         'C17 H19 N1 O5 S1'
_chemical_name_systematic        
4-(p-Toluenesulfonyl)-3,5,5a,7,8,9a-hexahydro-6H-2,9-dioxa-9b-azacyclopenta(a)naphthalen-1-one
_symmetry_cell_setting           monoclinic
_symmetry_space_group_name_H-M   'P 21/c'
_symmetry_Int_Tables_number      14
_space_group_name_Hall           '-P 2ybc'
loop_
_symmetry_equiv_pos_site_id
_symmetry_equiv_pos_as_xyz
1 x,y,z
2 -x,1/2+y,1/2-z
3 -x,-y,-z
4 x,1/2-y,1/2+z
_cell_length_a                   10.577(2)
_cell_length_b                   7.682(2)
_cell_length_c                   20.917(2)
_cell_angle_alpha                90
_cell_angle_beta                 101.26(1)
_cell_angle_gamma                90
_cell_volume                     1666.84
_exptl_crystal_colour            colorless
_exptl_crystal_description       prismatic
_chemical_melting_point          '199.5-200.0 deg.C'
_cell_formula_units_Z            4
loop_
_atom_site_label
_atom_site_type_symbol
_atom_site_fract_x
_atom_site_fract_y
_atom_site_fract_z
S1 S 0.3500(1) 0.2235(2) 0.69527(6)
O1 O 0.5040(4) -0.1819(5) 0.5626(2)
O2 O 0.6851(4) -0.1270(5) 0.5247(2)
O3 O 0.8081(3) 0.1423(5) 0.6537(2)
O4 O 0.3893(3) 0.2686(4) 0.7628(1)
O5 O 0.2732(3) 0.0681(4) 0.6786(2)
N1 N 0.6105(4) 0.0595(5) 0.5956(2)
C1 C 0.7092(5) 0.1929(8) 0.6015(2)
C2 C 0.6522(5) 0.3698(7) 0.6132(2)
C3 C 0.5772(5) 0.3593(7) 0.6691(3)
C4 C 0.4838(4) 0.2092(6) 0.6600(2)
C5 C 0.5045(5) 0.0714(6) 0.6244(2)
C6 C 0.4319(6) -0.0945(7) 0.6052(3)
C7 C 0.6089(6) -0.0874(8) 0.5580(3)
C8 C 0.7605(7) 0.5055(9) 0.6264(3)
C9 C 0.8720(7) 0.443(1) 0.6774(4)
C10 C 0.9139(6) 0.264(1) 0.6617(4)
C11 C 0.2639(4) 0.4027(6) 0.6554(2)
C12 C 0.2351(5) 0.5412(7) 0.6915(3)
C13 C 0.1640(5) 0.6783(7) 0.6598(3)
C14 C 0.1225(5) 0.6805(7) 0.5933(3)
C15 C 0.1549(5) 0.5404(8) 0.5583(3)
C16 C 0.2253(5) 0.4009(7) 0.5889(2)
C17 C 0.0436(8) 0.8303(10) 0.5592(4)
H1 H 0.740(4) 0.184(5) 0.560(2)
H2 H 0.592(4) 0.395(6) 0.571(2)
H3 H 0.529(4) 0.467(6) 0.674(2)
H4 H 0.637(4) 0.349(5) 0.710(2)
H5 H 0.431(3) -0.161(5) 0.642(2)
H6 H 0.343(4) -0.072(6) 0.580(2)
H7 H 0.788(4) 0.526(6) 0.581(2)
H8 H 0.721(4) 0.616(6) 0.637(2)
H9 H 0.844(4) 0.442(6) 0.719(2)
H10 H 0.949(5) 0.528(7) 0.680(2)
H11 H 0.947(4) 0.262(6) 0.623(2)
H12 H 0.978(5) 0.215(8) 0.698(2)
H13 H 0.266(4) 0.539(6) 0.740(2)
H14 H 0.136(4) 0.771(6) 0.683(2)
H15 H 0.124(4) 0.542(6) 0.511(2)
H16 H 0.245(4) 0.310(6) 0.564(2)
H17 H -0.023(7) 0.84(1) 0.583(4)
H18 H 0.029(7) 0.816(9) 0.515(3)
H19 H 0.079(6) 0.937(8) 0.574(3)
loop_
_geom_bond_atom_site_label_1
_geom_bond_atom_site_label_2
_geom_bond_site_symmetry_1
_geom_bond_site_symmetry_2
S1 O4 1_555 1_555
O1 C6 1_555 1_555
O2 C7 1_555 1_555
O3 C1 1_555 1_555
O5 S1 1_555 1_555
N1 C1 1_555 1_555
C1 C2 1_555 1_555
C2 C3 1_555 1_555
C3 C4 1_555 1_555
C4 S1 1_555 1_555
C5 N1 1_555 1_555
C6 C5 1_555 1_555
C7 O1 1_555 1_555
C8 C2 1_555 1_555
C9 C8 1_555 1_555
C10 O3 1_555 1_555
C11 S1 1_555 1_555
C12 C11 1_555 1_555
C13 C12 1_555 1_555
C14 C13 1_555 1_555
C15 C14 1_555 1_555
C16 C11 1_555 1_555
C17 C14 1_555 1_555
H1 C1 1_555 1_555
H2 C2 1_555 1_555
H3 C3 1_555 1_555
H4 C3 1_555 1_555
H5 C6 1_555 1_555
H6 C6 1_555 1_555
H7 C8 1_555 1_555
H8 C8 1_555 1_555
H9 C9 1_555 1_555
H10 C9 1_555 1_555
H11 C10 1_555 1_555
H12 C10 1_555 1_555
H13 C12 1_555 1_555
H14 C13 1_555 1_555
H15 C15 1_555 1_555
H16 C16 1_555 1_555
H17 C17 1_555 1_555
H18 C17 1_555 1_555
H19 C17 1_555 1_555
N1 C7 1_555 1_555
C4 C5 1_555 1_555
C9 C10 1_555 1_555
C15 C16 1_555 1_555

#END
