
#######################################################################
#
#                 Cambridge Crystallographic Data Centre
#                                CCDC 
#
#######################################################################
#
# If this CIF has been generated from an entry in the Cambridge 
# Structural Database, then it will include bibliographic, chemical, 
# crystal, experimental, refinement or atomic coordinate data resulting 
# from the CCDC's data processing and validation procedures.
#
#######################################################################

data_HIWVEP
_chemical_formula_moiety         'C15 H19 N1 O5 S1'
_chemical_name_systematic        
(E)-4-(2-Methoxyethylidene)-5,5-dimethyl-3-(p-toluenesulfonyl)oxazolidin-2-one
_symmetry_cell_setting           monoclinic
_symmetry_space_group_name_H-M   'C c'
_symmetry_Int_Tables_number      9
_space_group_name_Hall           'C -2yc'
loop_
_symmetry_equiv_pos_site_id
_symmetry_equiv_pos_as_xyz
1 x,y,z
2 x,-y,1/2+z
3 1/2+x,1/2+y,z
4 1/2+x,1/2-y,1/2+z
_cell_length_a                   11.908(2)
_cell_length_b                   21.757(2)
_cell_length_c                   6.341(1)
_cell_angle_alpha                90
_cell_angle_beta                 105.97(1)
_cell_angle_gamma                90
_cell_volume                     1579.44
_exptl_crystal_colour            colorless
_exptl_crystal_description       prismatic
_chemical_melting_point          '102.3-103.1 deg.C'
_cell_formula_units_Z            4
loop_
_atom_site_label
_atom_site_type_symbol
_atom_site_fract_x
_atom_site_fract_y
_atom_site_fract_z
S1 S 0.825(2) 0.10234(3) 0.538(3)
O1 O 0.766(2) 0.26288(8) 0.721(4)
O2 O 0.909(2) 0.23283(10) 0.580(4)
O3 O 0.452(2) 0.07802(10) 0.864(4)
O4 O 0.747(2) 0.05361(9) 0.542(3)
O5 O 0.854(2) 0.1172(1) 0.341(4)
N1 N 0.763(2) 0.16598(9) 0.613(4)
C1 C 0.822(2) 0.2221(1) 0.632(3)
C2 C 0.664(2) 0.1698(1) 0.697(4)
C3 C 0.667(2) 0.2356(1) 0.784(4)
C4 C 0.584(2) 0.1279(1) 0.690(4)
C5 C 0.477(2) 0.1341(2) 0.771(4)
C6 C 0.536(2) 0.0627(3) 1.063(4)
C7 C 0.698(2) 0.2387(2) 1.032(4)
C8 C 0.560(2) 0.2728(2) 0.674(4)
C9 C 0.954(2) 0.0919(1) 0.750(3)
C10 C 1.061(2) 0.1080(1) 0.717(4)
C11 C 1.161(2) 0.0975(1) 0.884(4)
C12 C 1.157(2) 0.0713(1) 1.080(4)
C13 C 1.049(2) 0.0557(1) 1.108(4)
C14 C 0.947(2) 0.0658(1) 0.944(4)
C15 C 1.267(2) 0.0613(2) 1.263(4)
H1 H 0.588(3) 0.091(1) 0.611(6)
H2 H 0.403(4) 0.143(1) 0.646(7)
H3 H 0.488(3) 0.165(1) 0.886(6)
H4 H 0.507(5) 0.026(2) 1.130(8)
H5 H 0.621(4) 0.057(2) 1.037(8)
H6 H 0.533(5) 0.097(2) 1.142(9)
H7 H 0.632(3) 0.225(1) 1.088(6)
H8 H 0.767(4) 0.215(2) 1.093(6)
H9 H 0.721(5) 0.281(2) 1.085(9)
H10 H 0.578(3) 0.318(2) 0.730(6)
H11 H 0.551(3) 0.269(1) 0.532(7)
H12 H 0.491(4) 0.259(2) 0.730(7)
H13 H 1.065(3) 0.126(1) 0.575(6)
H14 H 1.246(4) 0.106(2) 0.865(7)
H15 H 1.046(3) 0.042(1) 1.243(6)
H16 H 0.878(3) 0.055(1) 0.957(6)
H17 H 1.2549 0.0405 1.3945
H18 H 1.3257 0.0340 1.2235
H19 H 1.3102 0.0981 1.3193
loop_
_geom_bond_atom_site_label_1
_geom_bond_atom_site_label_2
_geom_bond_site_symmetry_1
_geom_bond_site_symmetry_2
S1 O4 1_555 1_555
O1 C1 1_555 1_555
O2 C1 1_555 1_555
O3 C5 1_555 1_555
O5 S1 1_555 1_555
N1 S1 1_555 1_555
C1 N1 1_555 1_555
C2 N1 1_555 1_555
C3 O1 1_555 1_555
C4 C2 1_555 1_555
C5 C4 1_555 1_555
C6 O3 1_555 1_555
C7 C3 1_555 1_555
C8 C3 1_555 1_555
C9 S1 1_555 1_555
C10 C9 1_555 1_555
C11 C10 1_555 1_555
C12 C11 1_555 1_555
C13 C12 1_555 1_555
C14 C9 1_555 1_555
C15 C12 1_555 1_555
H1 C4 1_555 1_555
H2 C5 1_555 1_555
H3 C5 1_555 1_555
H4 C6 1_555 1_555
H5 C6 1_555 1_555
H6 C6 1_555 1_555
H7 C7 1_555 1_555
H8 C7 1_555 1_555
H9 C7 1_555 1_555
H10 C8 1_555 1_555
H11 C8 1_555 1_555
H12 C8 1_555 1_555
H13 C10 1_555 1_555
H14 C11 1_555 1_555
H15 C13 1_555 1_555
H16 C14 1_555 1_555
H17 C15 1_555 1_555
H18 C15 1_555 1_555
H19 C15 1_555 1_555
C2 C3 1_555 1_555
C13 C14 1_555 1_555

#END
