
#######################################################################
#
#                 Cambridge Crystallographic Data Centre
#                                CCDC 
#
#######################################################################
#
# If this CIF has been generated from an entry in the Cambridge 
# Structural Database, then it will include bibliographic, chemical, 
# crystal, experimental, refinement or atomic coordinate data resulting 
# from the CCDC's data processing and validation procedures.
#
#######################################################################

data_HIWVUF
_chemical_formula_moiety         'C20 H27 N1 O5 S1 Si1'
_chemical_name_systematic        
4-(p-Toluenesulfonyl)-8a-(trimethylsiloxy)-5,5a,6,7,8,8a-hexahydro-3H-2-oxa-8b-aza-as-indacen-1-one
_symmetry_cell_setting           triclinic
_symmetry_space_group_name_H-M   'P -1'
_symmetry_Int_Tables_number      2
_space_group_name_Hall           '-P 1'
loop_
_symmetry_equiv_pos_site_id
_symmetry_equiv_pos_as_xyz
1 x,y,z
2 -x,-y,-z
_cell_length_a                   6.9738(5)
_cell_length_b                   11.252(2)
_cell_length_c                   14.801(1)
_cell_angle_alpha                70.369(3)
_cell_angle_beta                 78.041(1)
_cell_angle_gamma                85.392(2)
_cell_volume                     1070.1
_exptl_crystal_description       prism
_chemical_melting_point          '162.0-162.1 deg.C'
_cell_formula_units_Z            2
loop_
_atom_site_label
_atom_site_type_symbol
_atom_site_fract_x
_atom_site_fract_y
_atom_site_fract_z
S1 S 0.76842(7) 0.66063(5) 0.56305(3)
Si1 Si 0.62472(8) 0.24344(6) 1.03272(4)
O1 O 0.6825(2) 0.3205(2) 0.9141(1)
O2 O 0.6697(2) 0.2293(2) 0.6665(1)
O3 O 0.7289(3) 0.1019(2) 0.8107(2)
O4 O 0.7026(2) 0.6122(2) 0.4962(1)
O5 O 0.9541(2) 0.7229(2) 0.5323(1)
N1 N 0.7886(2) 0.3170(2) 0.7571(1)
C1 C 0.8524(3) 0.3291(2) 0.8422(1)
C2 C 1.0200(3) 0.2360(2) 0.8704(2)
C3 C 1.2003(4) 0.2946(3) 0.7957(2)
C4 C 1.1569(3) 0.4358(2) 0.7550(2)
C5 C 0.9527(3) 0.4574(2) 0.8101(1)
C6 C 0.8366(3) 0.5671(2) 0.7537(2)
C7 C 0.7787(3) 0.5378(2) 0.6708(1)
C8 C 0.7531(2) 0.4184(2) 0.6778(1)
C9 C 0.6870(3) 0.3610(2) 0.6114(2)
C10 C 0.7294(3) 0.2046(2) 0.7516(2)
C11 C 0.3549(4) 0.2530(3) 1.0598(2)
C12 C 0.7311(5) 0.3259(3) 1.0993(2)
C13 C 0.7027(5) 0.0762(3) 1.0653(2)
C14 C 0.5915(3) 0.7680(2) 0.5944(1)
C15 C 0.3983(3) 0.7576(2) 0.5896(2)
C16 C 0.2620(3) 0.8435(2) 0.6130(2)
C17 C 0.3133(3) 0.9387(2) 0.6423(2)
C18 C 0.5066(4) 0.9479(2) 0.6469(2)
C19 C 0.6464(3) 0.8639(2) 0.6222(2)
C20 C 0.1604(5) 1.0299(3) 0.6693(2)
H1 H 1.0366 0.2258 0.9341
H2 H 0.9941 0.1558 0.8664
H3 H 1.3126 0.2808 0.8246
H4 H 1.2251 0.2592 0.7433
H5 H 1.2543 0.4824 0.7648
H6 H 1.1587 0.4600 0.6862
H7 H 0.9689 0.4731 0.8680
H8 H 0.7219 0.5822 0.7962
H9 H 0.9152 0.6412 0.7280
H10 H 0.7801 0.3754 0.5517
H11 H 0.5633 0.3968 0.5957
H12 H 0.3116 0.3385 1.0436
H13 H 0.3008 0.2133 1.0226
H14 H 0.3062 0.2106 1.1276
H15 H 0.7021 0.2836 1.1676
H16 H 0.8735 0.3279 1.0789
H17 H 0.6856 0.4107 1.0852
H18 H 0.6646 0.0347 1.1339
H19 H 0.6403 0.0339 1.0323
H20 H 0.8402 0.0689 1.0464
H21 H 0.3597 0.6916 0.5703
H22 H 0.1277 0.8366 0.6094
H23 H 0.5456 1.0137 0.6670
H24 H 0.7799 0.8720 0.6252
H25 H 0.1950 1.1153 0.6281
H26 H 0.0360 1.0122 0.6631
H27 H 0.1567 1.0266 0.7358
loop_
_geom_bond_atom_site_label_1
_geom_bond_atom_site_label_2
_geom_bond_site_symmetry_1
_geom_bond_site_symmetry_2
S1 O4 1_555 1_555
Si1 O1 1_555 1_555
O1 C1 1_555 1_555
O2 C9 1_555 1_555
O3 C10 1_555 1_555
O5 S1 1_555 1_555
N1 C1 1_555 1_555
C1 C2 1_555 1_555
C2 C3 1_555 1_555
C3 C4 1_555 1_555
C4 C5 1_555 1_555
C5 C1 1_555 1_555
C6 C5 1_555 1_555
C7 S1 1_555 1_555
C8 N1 1_555 1_555
C9 C8 1_555 1_555
C10 O2 1_555 1_555
C11 Si1 1_555 1_555
C12 Si1 1_555 1_555
C13 Si1 1_555 1_555
C14 S1 1_555 1_555
C15 C14 1_555 1_555
C16 C15 1_555 1_555
C17 C16 1_555 1_555
C18 C17 1_555 1_555
C19 C14 1_555 1_555
C20 C17 1_555 1_555
H1 C2 1_555 1_555
H2 C2 1_555 1_555
H3 C3 1_555 1_555
H4 C3 1_555 1_555
H5 C4 1_555 1_555
H6 C4 1_555 1_555
H7 C5 1_555 1_555
H8 C6 1_555 1_555
H9 C6 1_555 1_555
H10 C9 1_555 1_555
H11 C9 1_555 1_555
H12 C11 1_555 1_555
H13 C11 1_555 1_555
H14 C11 1_555 1_555
H15 C12 1_555 1_555
H16 C12 1_555 1_555
H17 C12 1_555 1_555
H18 C13 1_555 1_555
H19 C13 1_555 1_555
H20 C13 1_555 1_555
H21 C15 1_555 1_555
H22 C16 1_555 1_555
H23 C18 1_555 1_555
H24 C19 1_555 1_555
H25 C20 1_555 1_555
H26 C20 1_555 1_555
H27 C20 1_555 1_555
N1 C10 1_555 1_555
C6 C7 1_555 1_555
C7 C8 1_555 1_555
C18 C19 1_555 1_555

#END
