
#######################################################################
#
#                 Cambridge Crystallographic Data Centre
#                                CCDC 
#
#######################################################################
#
# If this CIF has been generated from an entry in the Cambridge 
# Structural Database, then it will include bibliographic, chemical, 
# crystal, experimental, refinement or atomic coordinate data resulting 
# from the CCDC's data processing and validation procedures.
#
#######################################################################

data_HIWWAM
_chemical_formula_moiety         'C28 H43 N1 O6 S1 Si1'
_chemical_name_systematic        
3,3-Dimethyl-4-(p-toluenesulfonyl)-9a-(triisopropylsiloxy)-3,5,5a,7,8,9a-hexahydro-6H-2,9-dioxa-9b-azacyclopenta(a)naphthalen-1-one
_symmetry_cell_setting           orthorhombic
_symmetry_space_group_name_H-M   'P c a 21'
_symmetry_Int_Tables_number      29
_space_group_name_Hall           'P 2c -2ac'
loop_
_symmetry_equiv_pos_site_id
_symmetry_equiv_pos_as_xyz
1 x,y,z
2 -x,-y,1/2+z
3 1/2-x,y,1/2+z
4 1/2+x,-y,z
_cell_length_a                   18.362(2)
_cell_length_b                   19.827(2)
_cell_length_c                   8.2295(5)
_cell_angle_alpha                90
_cell_angle_beta                 90
_cell_angle_gamma                90
_cell_volume                     2996.06
_exptl_crystal_description       prism
_chemical_melting_point          '110.5-110.9 deg.C'
_cell_formula_units_Z            4
loop_
_atom_site_label
_atom_site_type_symbol
_atom_site_fract_x
_atom_site_fract_y
_atom_site_fract_z
S1 S 0.90876(4) 0.40149(4) 0.024(1)
Si1 Si 1.07688(5) 0.14605(5) 0.247(1)
O1 O 0.8574(2) 0.2714(1) 0.503(1)
O2 O 0.9156(1) 0.1113(1) 0.201(1)
O3 O 0.8779(2) 0.1610(1) 0.507(1)
O4 O 1.0056(1) 0.1876(1) 0.175(1)
O5 O 0.8791(1) 0.4455(1) 0.146(1)
O6 O 0.8791(1) 0.4055(1) -0.136(1)
N1 N 0.8942(1) 0.2256(1) 0.273(1)
C1 C 0.8773(2) 0.2134(2) 0.435(1)
C2 C 0.8637(2) 0.3285(2) 0.389(1)
C3 C 0.8895(2) 0.2939(1) 0.235(1)
C4 C 0.9047(2) 0.3160(2) 0.084(1)
C5 C 0.9267(2) 0.2684(2) -0.049(1)
C6 C 0.9072(2) 0.1960(2) -0.012(1)
C7 C 0.8267(2) 0.1789(2) -0.035(1)
C8 C 0.8125(2) 0.1066(2) 0.011(1)
C9 C 0.8399(2) 0.0921(2) 0.179(1)
C10 C 0.9311(2) 0.1776(2) 0.161(1)
C11 C 0.9177(2) 0.3766(2) 0.463(1)
C12 C 0.7880(2) 0.3570(2) 0.378(1)
C13 C 1.1527(2) 0.2027(3) 0.178(1)
C14 C 1.1506(4) 0.2718(3) 0.244(2)
C15 C 1.1553(4) 0.2113(5) -0.007(2)
C16 C 1.0684(3) 0.1380(3) 0.473(1)
C17 C 1.0550(4) 0.2031(3) 0.566(1)
C18 C 1.1334(4) 0.1012(4) 0.547(2)
C19 C 1.0858(3) 0.0604(3) 0.153(1)
C20 C 1.1662(4) 0.0368(4) 0.131(2)
C21 C 1.0404(4) 0.0047(3) 0.232(2)
C22 C 1.0031(2) 0.4173(2) 0.008(1)
C23 C 1.0397(2) 0.3994(2) -0.132(1)
C24 C 1.1145(2) 0.4094(2) -0.140(1)
C25 C 1.1526(2) 0.4373(2) -0.015(1)
C26 C 1.1152(2) 0.4555(2) 0.122(1)
C27 C 1.0404(2) 0.4462(2) 0.136(1)
C28 C 1.2339(2) 0.4484(3) -0.026(1)
H1 H 0.9777 0.2718 -0.0616
H2 H 0.9024 0.2816 -0.1436
H3 H 0.9343 0.1682 -0.0821
H4 H 0.7981 0.2079 0.0350
H5 H 0.8134 0.1858 -0.1425
H6 H 0.7613 0.0981 0.0104
H7 H 0.8364 0.0777 -0.0604
H8 H 0.8348 0.0455 0.2033
H9 H 0.8107 0.1170 0.2577
H10 H 0.9245 0.4152 0.3962
H11 H 0.9007 0.3918 0.5682
H12 H 0.9640 0.3553 0.4796
H13 H 0.7855 0.3938 0.3041
H14 H 0.7699 0.3708 0.4808
H15 H 0.7541 0.3225 0.3368
H16 H 1.1976 0.1816 0.2128
H17 H 1.1503 0.2694 0.3687
H18 H 1.1085 0.2954 0.2172
H19 H 1.1930 0.2970 0.2202
H20 H 1.1120 0.2328 -0.0419
H21 H 1.1964 0.2345 -0.0384
H22 H 1.1560 0.1662 -0.0556
H23 H 1.0263 0.1105 0.4916
H24 H 1.0971 0.2319 0.5566
H25 H 1.0147 0.2274 0.5168
H26 H 1.0447 0.1951 0.6749
H27 H 1.1229 0.0906 0.6592
H28 H 1.1754 0.1277 0.5416
H29 H 1.1412 0.0593 0.4913
H30 H 1.0666 0.0639 0.0409
H31 H 1.1933 0.0714 0.0758
H32 H 1.1865 0.0312 0.2368
H33 H 1.1685 -0.0034 0.0725
H34 H 1.0415 -0.0363 0.1829
H35 H 1.0595 -0.0014 0.3468
H36 H 0.9906 0.0196 0.2500
H37 H 1.0138 0.3808 -0.2226
H38 H 1.1390 0.3947 -0.2365
H39 H 1.1403 0.4762 0.2108
H40 H 1.0140 0.4591 0.2337
H41 H 1.2572 0.4239 0.0590
H42 H 1.2515 0.4327 -0.1279
H43 H 1.2442 0.4949 -0.0146
C29? C 1.054(1) 0.0466(9) -0.007(3)
H44? H 1.0046 0.0303 0.0058
H45? H 1.0528 0.0863 -0.0705
H46? H 1.0812 0.0127 -0.0617
loop_
_geom_bond_atom_site_label_1
_geom_bond_atom_site_label_2
_geom_bond_site_symmetry_1
_geom_bond_site_symmetry_2
S1 O5 1_555 1_555
Si1 O4 1_555 1_555
O1 C1 1_555 1_555
O2 C9 1_555 1_555
O3 C1 1_555 1_555
O4 C10 1_555 1_555
O6 S1 1_555 1_555
N1 C1 1_555 1_555
C2 O1 1_555 1_555
C3 N1 1_555 1_555
C4 S1 1_555 1_555
C5 C4 1_555 1_555
C6 C5 1_555 1_555
C7 C6 1_555 1_555
C8 C7 1_555 1_555
C9 C8 1_555 1_555
C10 O2 1_555 1_555
C11 C2 1_555 1_555
C12 C2 1_555 1_555
C13 Si1 1_555 1_555
C14 C13 1_555 1_555
C15 C13 1_555 1_555
C16 Si1 1_555 1_555
C17 C16 1_555 1_555
C18 C16 1_555 1_555
C19 Si1 1_555 1_555
C20 C19 1_555 1_555
C21 C19 1_555 1_555
C22 S1 1_555 1_555
C23 C22 1_555 1_555
C24 C23 1_555 1_555
C25 C24 1_555 1_555
C26 C25 1_555 1_555
C27 C22 1_555 1_555
C28 C25 1_555 1_555
H1 C5 1_555 1_555
H2 C5 1_555 1_555
H3 C6 1_555 1_555
H4 C7 1_555 1_555
H5 C7 1_555 1_555
H6 C8 1_555 1_555
H7 C8 1_555 1_555
H8 C9 1_555 1_555
H9 C9 1_555 1_555
H10 C11 1_555 1_555
H11 C11 1_555 1_555
H12 C11 1_555 1_555
H13 C12 1_555 1_555
H14 C12 1_555 1_555
H15 C12 1_555 1_555
H16 C13 1_555 1_555
H17 C14 1_555 1_555
H18 C14 1_555 1_555
H19 C14 1_555 1_555
H20 C15 1_555 1_555
H21 C15 1_555 1_555
H22 C15 1_555 1_555
H23 C16 1_555 1_555
H24 C17 1_555 1_555
H25 C17 1_555 1_555
H26 C17 1_555 1_555
H27 C18 1_555 1_555
H28 C18 1_555 1_555
H29 C18 1_555 1_555
H30 C19 1_555 1_555
H31 C20 1_555 1_555
H32 C20 1_555 1_555
H33 C20 1_555 1_555
H34 C21 1_555 1_555
H35 C21 1_555 1_555
H36 C21 1_555 1_555
H37 C23 1_555 1_555
H38 C24 1_555 1_555
H39 C26 1_555 1_555
H40 C27 1_555 1_555
H41 C28 1_555 1_555
H42 C28 1_555 1_555
H43 C28 1_555 1_555
N1 C10 1_555 1_555
C2 C3 1_555 1_555
C3 C4 1_555 1_555
C6 C10 1_555 1_555
C26 C27 1_555 1_555

#END
