
#######################################################################
#
#                 Cambridge Crystallographic Data Centre
#                                CCDC 
#
#######################################################################
#
# If this CIF has been generated from an entry in the Cambridge 
# Structural Database, then it will include bibliographic, chemical, 
# crystal, experimental, refinement or atomic coordinate data resulting 
# from the CCDC's data processing and validation procedures.
#
#######################################################################

data_HIWWOA
_chemical_formula_moiety         'C11 H15 N1 O5 S1'
_chemical_name_systematic        
4-(Methanesulfonyl)-3,5,5a,7,8,9a-hexahydro-6H-2,9-dioxa-9b-azacyclopenta(a)naphthalen-1-one
_symmetry_cell_setting           triclinic
_symmetry_space_group_name_H-M   'P -1'
_symmetry_Int_Tables_number      2
_space_group_name_Hall           '-P 1'
loop_
_symmetry_equiv_pos_site_id
_symmetry_equiv_pos_as_xyz
1 x,y,z
2 -x,-y,-z
_cell_length_a                   9.4153(8)
_cell_length_b                   9.986(1)
_cell_length_c                   13.637(3)
_cell_angle_alpha                75.118(4)
_cell_angle_beta                 88.887(2)
_cell_angle_gamma                86.703(3)
_cell_volume                     1237.09
_exptl_crystal_description       block
_chemical_melting_point          '201.5-202.0 deg.C'
_cell_formula_units_Z            4
loop_
_atom_site_label
_atom_site_type_symbol
_atom_site_fract_x
_atom_site_fract_y
_atom_site_fract_z
S1 S 1.4632(1) 0.5461(1) 0.2883(1)
O1 O 1.5527(4) 0.0688(4) 0.2047(3)
O2 O 1.6053(4) 0.1157(3) 0.5001(2)
O3 O 1.3705(4) 0.6099(4) 0.2054(3)
O4 O 1.4072(4) 0.5217(4) 0.3891(3)
O5 O 1.7128(4) -0.0495(4) 0.4349(3)
N1 N 1.6225(4) 0.1583(4) 0.3335(3)
C1 C 1.5322(5) 0.3908(5) 0.2688(4)
C2 C 1.5674(6) 0.3824(5) 0.1619(4)
C3 C 1.6895(5) 0.2756(5) 0.1612(4)
C4 C 1.7176(6) 0.2519(6) 0.0563(4)
C5 C 1.6081(7) 0.1649(7) 0.0277(4)
C6 C 1.5914(7) 0.0349(7) 0.1111(5)
C7 C 1.6627(5) 0.1373(5) 0.2359(4)
C8 C 1.6526(5) 0.0619(5) 0.4241(4)
C9 C 1.5440(5) 0.2554(5) 0.4595(4)
C10 C 1.5619(5) 0.2818(5) 0.3468(4)
C11 C 1.6088(7) 0.6498(6) 0.2793(5)
H1 H 1.5904 0.4726 0.1200
H2 H 1.4842 0.3565 0.1308
H3 H 1.7745 0.3108 0.1829
H4 H 1.7182 0.3417 0.0063
H5 H 1.8109 0.2079 0.0534
H6 H 1.6316 0.1425 -0.0346
H7 H 1.5167 0.2172 0.0185
H8 H 1.6807 -0.0204 0.1200
H9 H 1.5210 -0.0216 0.0944
H10 H 1.7490 0.0779 0.2428
H11 H 1.4449 0.2633 0.4783
H12 H 1.5923 0.3222 0.4850
H13 H 1.6580 0.6566 0.2163
H14 H 1.6740 0.6116 0.3334
H15 H 1.5779 0.7416 0.2829
S2 S 0.9824(1) 0.3376(1) 0.3811(1)
O6 O 1.0298(4) 0.0395(4) 0.1344(3)
O7 O 1.1467(5) 0.4461(5) 0.0470(3)
O8 O 0.9476(4) 0.4772(4) 0.3224(3)
O9 O 0.8705(4) 0.2592(4) 0.4358(3)
O10 O 1.2255(5) 0.2786(5) -0.0269(3)
N2 N 1.1495(4) 0.2300(4) 0.1407(3)
C12 C 1.0601(5) 0.2415(5) 0.3023(3)
C13 C 1.0788(5) 0.0864(5) 0.3415(4)
C14 C 1.1856(5) 0.0236(5) 0.2781(4)
C15 C 1.1838(7) -0.1339(6) 0.3038(5)
C16 C 1.0510(8) -0.1797(6) 0.2617(5)
C17 C 1.0334(7) -0.1087(7) 0.1511(5)
C18 C 1.1587(6) 0.0801(6) 0.1661(4)
C19 C 1.1786(6) 0.3143(7) 0.0457(5)
C20 C 1.0878(7) 0.4538(6) 0.1447(4)
C21 C 1.0952(5) 0.3051(5) 0.2066(4)
C22 C 1.1133(6) 0.3444(6) 0.4684(4)
H16 H 1.1086 0.0644 0.4112
H17 H 0.9882 0.0468 0.3402
H18 H 1.2802 0.0487 0.2924
H19 H 1.1886 -0.1713 0.3768
H20 H 1.2675 -0.1723 0.2760
H21 H 0.9680 -0.1576 0.2990
H22 H 1.0554 -0.2800 0.2722
H23 H 0.9465 -0.1351 0.1256
H24 H 1.1107 -0.1389 0.1133
H25 H 1.2365 0.0526 0.1278
H26 H 0.9900 0.4912 0.1395
H27 H 1.1401 0.5110 0.1766
H28 H 1.1921 0.3938 0.4353
H29 H 1.0768 0.3864 0.5191
H30 H 1.1497 0.2509 0.5020
loop_
_geom_bond_atom_site_label_1
_geom_bond_atom_site_label_2
_geom_bond_site_symmetry_1
_geom_bond_site_symmetry_2
S1 O3 1_555 1_555
S2 O8 1_555 1_555
O1 C6 1_555 1_555
O2 C8 1_555 1_555
O4 S1 1_555 1_555
O5 C8 1_555 1_555
O6 C17 1_555 1_555
O7 C19 1_555 1_555
O9 S2 1_555 1_555
O10 C19 1_555 1_555
N1 C7 1_555 1_555
N2 C18 1_555 1_555
C1 S1 1_555 1_555
C2 C1 1_555 1_555
C3 C2 1_555 1_555
C4 C3 1_555 1_555
C5 C4 1_555 1_555
C6 C5 1_555 1_555
C7 O1 1_555 1_555
C8 N1 1_555 1_555
C9 O2 1_555 1_555
C10 N1 1_555 1_555
C11 S1 1_555 1_555
C12 S2 1_555 1_555
C13 C12 1_555 1_555
C14 C13 1_555 1_555
C15 C14 1_555 1_555
C16 C15 1_555 1_555
C17 C16 1_555 1_555
C18 O6 1_555 1_555
C19 N2 1_555 1_555
C20 O7 1_555 1_555
C21 N2 1_555 1_555
C22 S2 1_555 1_555
H1 C2 1_555 1_555
H2 C2 1_555 1_555
H3 C3 1_555 1_555
H4 C4 1_555 1_555
H5 C4 1_555 1_555
H6 C5 1_555 1_555
H7 C5 1_555 1_555
H8 C6 1_555 1_555
H9 C6 1_555 1_555
H10 C7 1_555 1_555
H11 C9 1_555 1_555
H12 C9 1_555 1_555
H13 C11 1_555 1_555
H14 C11 1_555 1_555
H15 C11 1_555 1_555
H16 C13 1_555 1_555
H17 C13 1_555 1_555
H18 C14 1_555 1_555
H19 C15 1_555 1_555
H20 C15 1_555 1_555
H21 C16 1_555 1_555
H22 C16 1_555 1_555
H23 C17 1_555 1_555
H24 C17 1_555 1_555
H25 C18 1_555 1_555
H26 C20 1_555 1_555
H27 C20 1_555 1_555
H28 C22 1_555 1_555
H29 C22 1_555 1_555
H30 C22 1_555 1_555
C1 C10 1_555 1_555
C3 C7 1_555 1_555
C9 C10 1_555 1_555
C12 C21 1_555 1_555
C14 C18 1_555 1_555
C20 C21 1_555 1_555

#END
