
#######################################################################
#
#                 Cambridge Crystallographic Data Centre
#                                CCDC 
#
#######################################################################
#
# If this CIF has been generated from an entry in the Cambridge 
# Structural Database, then it will include bibliographic, chemical, 
# crystal, experimental, refinement or atomic coordinate data resulting 
# from the CCDC's data processing and validation procedures.
#
#######################################################################

data_HIWYAP
_chemical_formula_moiety         'C19 H17 N3 O3 S1'
_chemical_name_systematic        
1,4'-Dimethyl-4'-nitro-3'-phenyl-5'-thioxospiro[indole-3,2'-pyrrolidin]-2(1H)-one
_symmetry_cell_setting           trigonal
_symmetry_space_group_name_H-M   'P 32'
_symmetry_Int_Tables_number      145
_space_group_name_Hall           'P 32'
loop_
_symmetry_equiv_pos_site_id
_symmetry_equiv_pos_as_xyz
1 x,y,z
2 -y,x-y,2/3+z
3 -x+y,-x,1/3+z
_cell_length_a                   11.027(3)
_cell_length_b                   11.027(3)
_cell_length_c                   12.738(3)
_cell_angle_alpha                90
_cell_angle_beta                 90
_cell_angle_gamma                120
_cell_volume                     1341.36
_chemical_melting_point          '204-207 deg.C'
_cell_formula_units_Z            3
loop_
_atom_site_label
_atom_site_type_symbol
_atom_site_fract_x
_atom_site_fract_y
_atom_site_fract_z
C1 C 0.87594(16) 0.66303(14) 0.40875(13)
C2 C 0.89520(17) 0.74100(15) 0.50013(15)
C3 C 0.8828(2) 0.85980(19) 0.4988(2)
H1 H 0.8987 0.9131 0.5591
C4 C 0.8463(3) 0.8971(2) 0.4060(2)
H2 H 0.8391 0.9776 0.4036
C5 C 0.8201(2) 0.8176(2) 0.3165(2)
H3 H 0.7928 0.8435 0.2554
C6 C 0.83419(18) 0.69861(18) 0.31645(16)
H4 H 0.8161 0.6446 0.2562
C7 C 0.88905(15) 0.53701(14) 0.43711(12)
C8 C 0.90660(17) 0.55166(16) 0.55981(13)
C9 C 0.9316(3) 0.7250(3) 0.69405(18)
H5 H 0.8493 0.7281 0.7139
H6 H 1.0121 0.8169 0.7000
H7 H 0.9426 0.6616 0.7395
C10 C 1.00560(16) 0.51010(14) 0.39478(11)
H8 H 1.0178 0.4545 0.4494
C11 C 0.93353(16) 0.40676(14) 0.30271(12)
C12 C 0.77932(16) 0.33327(14) 0.33106(12)
C13 C 1.15242(16) 0.62679(15) 0.36977(12)
C14 C 1.26086(19) 0.5999(2) 0.38916(16)
H9 H 1.2418 0.5179 0.4236
C15 C 1.3975(2) 0.6938(3) 0.3579(2)
H10 H 1.4682 0.6728 0.3701
C16 C 1.42806(19) 0.8156(2) 0.30973(19)
H11 H 1.5195 0.8782 0.2893
C17 C 1.3224(2) 0.84667(19) 0.29095(19)
H12 H 1.3429 0.9303 0.2583
C18 C 1.18579(18) 0.75217(17) 0.32119(17)
H13 H 1.1155 0.7735 0.3086
C19 C 0.9608(2) 0.46932(19) 0.19386(13)
H14 H 0.9049 0.3977 0.1439
H15 H 1.0581 0.5083 0.1769
H16 H 0.9367 0.5417 0.1916
N1 N 0.91768(17) 0.67689(14) 0.58617(12)
N2 N 0.76334(14) 0.40631(13) 0.40714(11)
N3 N 0.97908(18) 0.29612(16) 0.30679(13)
O1 O 0.91237(16) 0.46838(15) 0.61767(10)
O2 O 1.0266(3) 0.2740(3) 0.22968(16)
O3 O 0.9635(2) 0.23596(16) 0.39036(15)
S1 S 0.65434(5) 0.19101(4) 0.27387(3)
H17 H 0.6812(19) 0.391(3) 0.422(2)
loop_
_geom_bond_atom_site_label_1
_geom_bond_atom_site_label_2
_geom_bond_site_symmetry_1
_geom_bond_site_symmetry_2
C1 C2 1_555 1_555
C2 C3 1_555 1_555
C3 H1 1_555 1_555
C4 C3 1_555 1_555
H2 C4 1_555 1_555
C5 C4 1_555 1_555
H3 C5 1_555 1_555
C6 C1 1_555 1_555
H4 C6 1_555 1_555
C7 C1 1_555 1_555
C8 C7 1_555 1_555
C9 H5 1_555 1_555
H6 C9 1_555 1_555
H7 C9 1_555 1_555
C10 C7 1_555 1_555
H8 C10 1_555 1_555
C11 C10 1_555 1_555
C12 C11 1_555 1_555
C13 C10 1_555 1_555
C14 C13 1_555 1_555
H9 C14 1_555 1_555
C15 C14 1_555 1_555
H10 C15 1_555 1_555
C16 C15 1_555 1_555
H11 C16 1_555 1_555
C17 C16 1_555 1_555
H12 C17 1_555 1_555
C18 C13 1_555 1_555
H13 C18 1_555 1_555
C19 C11 1_555 1_555
H14 C19 1_555 1_555
H15 C19 1_555 1_555
H16 C19 1_555 1_555
N1 C2 1_555 1_555
N2 C7 1_555 1_555
N3 C11 1_555 1_555
O1 C8 1_555 1_555
O2 N3 1_555 1_555
O3 N3 1_555 1_555
S1 C12 1_555 1_555
H17 N2 1_555 1_555
C5 C6 1_555 1_555
C8 N1 1_555 1_555
C9 N1 1_555 1_555
C12 N2 1_555 1_555
C17 C18 1_555 1_555

#END
