
#######################################################################
#
#                 Cambridge Crystallographic Data Centre
#                                CCDC 
#
#######################################################################
#
# If this CIF has been generated from an entry in the Cambridge 
# Structural Database, then it will include bibliographic, chemical, 
# crystal, experimental, refinement or atomic coordinate data resulting 
# from the CCDC's data processing and validation procedures.
#
#######################################################################

data_HIXFIF
_chemical_formula_moiety         'C21 H14 F1 N1 O2 S1'
_chemical_name_systematic        
(4-fluorophenyl)(2-(5-methoxypyridin-2-yl)-1-benzothiophen-3-yl)methanone
_symmetry_cell_setting           monoclinic
_symmetry_space_group_name_H-M   'P 21/c'
_symmetry_Int_Tables_number      14
_space_group_name_Hall           '-P 2ybc'
loop_
_symmetry_equiv_pos_site_id
_symmetry_equiv_pos_as_xyz
1 x,y,z
2 -x,1/2+y,1/2-z
3 -x,-y,-z
4 x,1/2-y,1/2+z
_cell_length_a                   7.4524(2)
_cell_length_b                   20.7601(5)
_cell_length_c                   11.0229(2)
_cell_angle_alpha                90
_cell_angle_beta                 101.500(1)
_cell_angle_gamma                90
_cell_volume                     1671.15
_exptl_crystal_colour            'pale yellow'
_exptl_crystal_description       prism
_cell_formula_units_Z            4
loop_
_atom_site_label
_atom_site_type_symbol
_atom_site_fract_x
_atom_site_fract_y
_atom_site_fract_z
C1 C 0.27799(15) 0.51974(5) 0.04754(10)
C2 C 0.31757(15) 0.56816(6) 0.13200(10)
C3 C 0.27430(16) 0.63085(6) 0.07909(11)
C4 C 0.29796(19) 0.69129(6) 0.13634(12)
H1 H 0.3477 0.6947 0.2224
C5 C 0.2482(2) 0.74590(6) 0.06645(14)
H2 H 0.2635 0.7870 0.1051
C6 C 0.1757(2) 0.74169(7) -0.06063(14)
H3 H 0.1426 0.7800 -0.1070
C7 C 0.15161(18) 0.68284(6) -0.11939(12)
H4 H 0.1024 0.6800 -0.2056
C8 C 0.20140(16) 0.62743(6) -0.04888(11)
C9 C 0.29535(15) 0.45025(5) 0.06911(10)
C10 C 0.32764(18) 0.36838(6) 0.21048(12)
H5 H 0.3433 0.3545 0.2941
C11 C 0.31526(17) 0.32153(6) 0.11835(13)
C12 C 0.29430(18) 0.34113(6) -0.00316(13)
H6 H 0.2870 0.3106 -0.0682
C13 C 0.28421(17) 0.40658(6) -0.02770(11)
H7 H 0.2697 0.4216 -0.1105
C14 C 0.29463(15) 0.56680(5) 0.36037(10)
C15 C 0.37802(16) 0.57022(5) 0.48561(11)
H8 H 0.5076 0.5680 0.5095
C16 C 0.27268(17) 0.57685(6) 0.57489(11)
H9 H 0.3279 0.5790 0.6603
C17 C 0.08564(17) 0.58024(6) 0.53654(11)
C18 C -0.00220(17) 0.57569(6) 0.41454(12)
H10 H -0.1320 0.5770 0.3918
C19 C 0.10485(16) 0.56907(6) 0.32602(11)
H11 H 0.0481 0.5660 0.2410
C20 C 0.40933(16) 0.56108(5) 0.26551(10)
C21 C 0.3149(2) 0.21079(7) 0.06614(19)
H12 H 0.1973 0.2140 0.0078
H13 H 0.3253 0.1683 0.1055
H14 H 0.4150 0.2167 0.0215
F1 F -0.01846(11) 0.58832(4) 0.62309(7)
N1 N 0.31882(14) 0.43111(5) 0.18802(9)
O1 O 0.32499(15) 0.25935(5) 0.15853(11)
O2 O 0.57492(12) 0.55652(4) 0.29346(8)
S1 S 0.18647(4) 0.548449(14) -0.10023(3)
loop_
_geom_bond_atom_site_label_1
_geom_bond_atom_site_label_2
_geom_bond_site_symmetry_1
_geom_bond_site_symmetry_2
C1 C2 1_555 1_555
C2 C3 1_555 1_555
C3 C4 1_555 1_555
C4 H1 1_555 1_555
C5 C4 1_555 1_555
H2 C5 1_555 1_555
C6 C5 1_555 1_555
H3 C6 1_555 1_555
C7 C6 1_555 1_555
H4 C7 1_555 1_555
C8 C3 1_555 1_555
C9 C1 1_555 1_555
C10 H5 1_555 1_555
C11 C10 1_555 1_555
C12 C11 1_555 1_555
H6 C12 1_555 1_555
C13 C9 1_555 1_555
H7 C13 1_555 1_555
C14 C15 1_555 1_555
C15 H8 1_555 1_555
C16 C15 1_555 1_555
H9 C16 1_555 1_555
C17 C16 1_555 1_555
C18 C17 1_555 1_555
H10 C18 1_555 1_555
C19 C14 1_555 1_555
H11 C19 1_555 1_555
C20 C2 1_555 1_555
C21 H12 1_555 1_555
H13 C21 1_555 1_555
H14 C21 1_555 1_555
F1 C17 1_555 1_555
N1 C9 1_555 1_555
O1 C11 1_555 1_555
O2 C20 1_555 1_555
S1 C1 1_555 1_555
C7 C8 1_555 1_555
C8 S1 1_555 1_555
C10 N1 1_555 1_555
C12 C13 1_555 1_555
C14 C20 1_555 1_555
C18 C19 1_555 1_555
C21 O1 1_555 1_555

#END
