
#######################################################################
#
#                 Cambridge Crystallographic Data Centre
#                                CCDC 
#
#######################################################################
#
# If this CIF has been generated from an entry in the Cambridge 
# Structural Database, then it will include bibliographic, chemical, 
# crystal, experimental, refinement or atomic coordinate data resulting 
# from the CCDC's data processing and validation procedures.
#
#######################################################################

data_HIXJAB
_chemical_formula_moiety         'C23 H23 N1 O2 S1'
_chemical_name_systematic        
3-Benzyl-4-(2-cyclopropylidenevinyl)-1-((4-methylphenyl)sulfonyl)-2,5-dihydro-1H-pyrrole
_symmetry_cell_setting           triclinic
_symmetry_space_group_name_H-M   'P -1'
_symmetry_Int_Tables_number      2
_space_group_name_Hall           '-P 1'
loop_
_symmetry_equiv_pos_site_id
_symmetry_equiv_pos_as_xyz
1 x,y,z
2 -x,-y,-z
_cell_length_a                   9.3238(14)
_cell_length_b                   10.5831(15)
_cell_length_c                   10.8368(16)
_cell_angle_alpha                83.278(3)
_cell_angle_beta                 69.864(3)
_cell_angle_gamma                86.360(3)
_cell_volume                     996.749
_exptl_crystal_colour            colorless
_exptl_crystal_description       prism
_cell_formula_units_Z            2
loop_
_atom_site_label
_atom_site_type_symbol
_atom_site_fract_x
_atom_site_fract_y
_atom_site_fract_z
S1 S 0.62117(7) 0.65013(5) 0.74133(5)
O1 O 0.48650(18) 0.57977(16) 0.81536(17)
O2 O 0.6557(2) 0.68773(17) 0.60362(16)
N1 N 0.6057(2) 0.77955(16) 0.81122(16)
C1 C 0.7272(3) 0.8742(2) 0.7556(2)
H1 H 0.7004 0.9403 0.6968
H2 H 0.8238 0.8342 0.7077
C2 C 0.7350(2) 0.92673(19) 0.8751(2)
C3 C 0.6342(2) 0.87297(19) 0.9860(2)
C4 C 0.5460(2) 0.7730(2) 0.9575(2)
H3 H 0.5655 0.6895 0.9970
H4 H 0.4371 0.7922 0.9900
C5 C 0.6007(3) 0.9015(2) 1.1219(2)
H5 H 0.6487 0.9698 1.1366
C6 C 0.5066(3) 0.8354(2) 1.2241(2)
C7 C 0.4166(3) 0.7676(2) 1.3219(2)
C8 C 0.3976(3) 0.6592(2) 1.4246(2)
H6 H 0.4296 0.6694 1.4990
H7 H 0.4120 0.5741 1.3969
C9 C 0.2601(3) 0.7382(3) 1.4117(2)
H8 H 0.1926 0.7000 1.3763
H9 H 0.2103 0.7954 1.4784
C10 C 0.8467(3) 1.0290(2) 0.8605(2)
H10 H 0.8387 1.0497 0.9475
H11 H 0.8196 1.1051 0.8132
C11 C 1.0110(3) 0.9894(2) 0.7870(2)
C12 C 1.0704(3) 0.8740(2) 0.8228(3)
H12 H 1.0088 0.8197 0.8918
C13 C 1.2213(3) 0.8375(3) 0.7571(3)
H13 H 1.2594 0.7590 0.7820
C14 C 1.3132(3) 0.9166(3) 0.6565(3)
H14 H 1.4140 0.8923 0.6127
C15 C 1.2562(3) 1.0322(3) 0.6202(3)
H15 H 1.3189 1.0867 0.5521
C16 C 1.1061(3) 1.0681(3) 0.6843(2)
H16 H 1.0685 1.1463 0.6582
C17 C 0.7804(2) 0.56244(19) 0.7601(2)
C18 C 0.7662(3) 0.4838(2) 0.8744(2)
H17 H 0.6711 0.4731 0.9401
C19 C 0.8922(3) 0.4218(3) 0.8903(3)
H18 H 0.8810 0.3686 0.9676
C20 C 1.0370(3) 0.4351(2) 0.7952(3)
C21 C 1.0483(3) 0.5115(3) 0.6818(3)
H19 H 1.1432 0.5209 0.6157
C22 C 0.9226(3) 0.5751(2) 0.6627(2)
H20 H 0.9334 0.6265 0.5845
C23 C 1.1776(4) 0.3673(3) 0.8126(4)
H21 H 1.2541 0.3599 0.7276
H22 H 1.1512 0.2839 0.8577
H23 H 1.2167 0.4150 0.8637
loop_
_geom_bond_atom_site_label_1
_geom_bond_atom_site_label_2
_geom_bond_site_symmetry_1
_geom_bond_site_symmetry_2
S1 O1 1_555 1_555
O2 S1 1_555 1_555
N1 S1 1_555 1_555
C1 N1 1_555 1_555
H1 C1 1_555 1_555
H2 C1 1_555 1_555
C2 C1 1_555 1_555
C3 C2 1_555 1_555
C4 N1 1_555 1_555
H3 C4 1_555 1_555
H4 C4 1_555 1_555
C5 C3 1_555 1_555
H5 C5 1_555 1_555
C6 C5 1_555 1_555
C7 C6 1_555 1_555
C8 C7 1_555 1_555
H6 C8 1_555 1_555
H7 C8 1_555 1_555
C9 C7 1_555 1_555
H8 C9 1_555 1_555
H9 C9 1_555 1_555
C10 C2 1_555 1_555
H10 C10 1_555 1_555
H11 C10 1_555 1_555
C11 C10 1_555 1_555
C12 C11 1_555 1_555
H12 C12 1_555 1_555
C13 C12 1_555 1_555
H13 C13 1_555 1_555
C14 C13 1_555 1_555
H14 C14 1_555 1_555
C15 C14 1_555 1_555
H15 C15 1_555 1_555
C16 C11 1_555 1_555
H16 C16 1_555 1_555
C17 S1 1_555 1_555
C18 C17 1_555 1_555
H17 C18 1_555 1_555
C19 C18 1_555 1_555
H18 C19 1_555 1_555
C20 C19 1_555 1_555
C21 C20 1_555 1_555
H19 C21 1_555 1_555
C22 C17 1_555 1_555
H20 C22 1_555 1_555
C23 C20 1_555 1_555
H21 C23 1_555 1_555
H22 C23 1_555 1_555
H23 C23 1_555 1_555
C3 C4 1_555 1_555
C8 C9 1_555 1_555
C15 C16 1_555 1_555
C21 C22 1_555 1_555

#END
