
#######################################################################
#
#                 Cambridge Crystallographic Data Centre
#                                CCDC 
#
#######################################################################
#
# If this CIF has been generated from an entry in the Cambridge 
# Structural Database, then it will include bibliographic, chemical, 
# crystal, experimental, refinement or atomic coordinate data resulting 
# from the CCDC's data processing and validation procedures.
#
#######################################################################

data_HIXNUX
_chemical_formula_moiety         'C8 H20 N2 O2 S1'
_chemical_name_systematic        N,N'-bis(Isobutyl)sulfamide
_symmetry_cell_setting           monoclinic
_symmetry_space_group_name_H-M   'C 2/c'
_symmetry_Int_Tables_number      15
_space_group_name_Hall           '-C 2yn'
loop_
_symmetry_equiv_pos_site_id
_symmetry_equiv_pos_as_xyz
1 x,y,z
2 1/2+x,1/2+y,z
3 x,-y,1/2+z
4 1/2+x,1/2-y,1/2+z
5 -x,-y,-z
6 1/2-x,1/2-y,-z
7 -x,y,1/2-z
8 1/2-x,1/2+y,1/2-z
_cell_length_a                   8.5456(10)
_cell_length_b                   6.2065(7)
_cell_length_c                   22.984(3)
_cell_angle_alpha                90
_cell_angle_beta                 96.790(10)
_cell_angle_gamma                90
_cell_volume                     1210.48
_exptl_crystal_description       plate
_cell_formula_units_Z            4
loop_
_atom_site_label
_atom_site_type_symbol
_atom_site_fract_x
_atom_site_fract_y
_atom_site_fract_z
S1 S 0.5000 0.0454(3) 0.7500
O1 O 0.6198(4) 0.1604(7) 0.7254(2)
N1 N 0.4078(6) -0.1011(8) 0.6989(2)
C1 C 0.4908(8) -0.2680(10) 0.6715(2)
C2 C 0.4162(11) -0.3200(12) 0.6108(3)
C3 C 0.4377(14) -0.1395(14) 0.5694(3)
C4 C 0.4588(19) -0.5307(17) 0.5906(4)
H1 H 0.4935 -0.3971 0.6953
H2 H 0.5987 -0.2222 0.6697
H3 H 0.334(7) -0.142(10) 0.712(2)
H4 H 0.3027 -0.3269 0.6134
H5 H 0.5462 -0.1326 0.5625
H6 H 0.4082 -0.0060 0.5862
H7 H 0.3726 -0.1639 0.5331
H8 H 0.4385 -0.6375 0.6190
H9 H 0.5688 -0.5321 0.5856
H10 H 0.3975 -0.5621 0.5539
O1F O 0.3802(4) 0.1604(7) 0.7746(2)
N1F N 0.5922(6) -0.1011(8) 0.8011(2)
C1F C 0.5092(8) -0.2680(10) 0.8285(2)
C2F C 0.5838(11) -0.3200(12) 0.8892(3)
C3F C 0.5623(14) -0.1395(14) 0.9306(3)
H5F H 0.4538 -0.1326 0.9375
H6F H 0.5918 -0.0060 0.9138
H7F H 0.6274 -0.1639 0.9669
C4F C 0.5412(19) -0.5307(17) 0.9094(4)
H8F H 0.5615 -0.6375 0.8810
H9F H 0.4312 -0.5321 0.9144
H10F H 0.6025 -0.5621 0.9461
H4F H 0.6973 -0.3269 0.8866
H1F H 0.5065 -0.3971 0.8047
H2F H 0.4013 -0.2222 0.8303
H3F H 0.666(7) -0.142(10) 0.788(2)
loop_
_geom_bond_atom_site_label_1
_geom_bond_atom_site_label_2
_geom_bond_site_symmetry_1
_geom_bond_site_symmetry_2
S1 O1 1_555 1_555
N1 S1 1_555 1_555
C1 N1 1_555 1_555
C2 C1 1_555 1_555
C3 C2 1_555 1_555
C4 C2 1_555 1_555
H1 C1 1_555 1_555
H2 C1 1_555 1_555
H3 N1 1_555 1_555
H4 C2 1_555 1_555
H5 C3 1_555 1_555
H6 C3 1_555 1_555
H7 C3 1_555 1_555
H8 C4 1_555 1_555
H9 C4 1_555 1_555
H10 C4 1_555 1_555
O1F S1 1_555 1_555
N1F S1 1_555 1_555
C1F N1F 1_555 1_555
C2F C1F 1_555 1_555
C3F C2F 1_555 1_555
H5F C3F 1_555 1_555
H6F C3F 1_555 1_555
H7F C3F 1_555 1_555
C4F C2F 1_555 1_555
H8F C4F 1_555 1_555
H9F C4F 1_555 1_555
H10F C4F 1_555 1_555
H4F C2F 1_555 1_555
H1F C1F 1_555 1_555
H2F C1F 1_555 1_555
H3F N1F 1_555 1_555

#END
