
#######################################################################
#
#                 Cambridge Crystallographic Data Centre
#                                CCDC 
#
#######################################################################
#
# If this CIF has been generated from an entry in the Cambridge 
# Structural Database, then it will include bibliographic, chemical, 
# crystal, experimental, refinement or atomic coordinate data resulting 
# from the CCDC's data processing and validation procedures.
#
#######################################################################

data_HIXNOS
_chemical_formula_moiety         'C29 H23 Cl1 N4 S2'
_chemical_name_systematic        
"1, 1'-((4-Chlorophenyl)methylene)bis(3-(ethylthio)indolizine-2-carbonitrile)"
_symmetry_cell_setting           monoclinic
_symmetry_space_group_name_H-M   'P 21/n'
_symmetry_Int_Tables_number      14
_space_group_name_Hall           '-P 2yn'
loop_
_symmetry_equiv_pos_site_id
_symmetry_equiv_pos_as_xyz
1 x,y,z
2 1/2-x,1/2+y,1/2-z
3 -x,-y,-z
4 1/2+x,1/2-y,1/2+z
_cell_length_a                   15.109(3)
_cell_length_b                   11.0197(18)
_cell_length_c                   16.741(3)
_cell_angle_alpha                90
_cell_angle_beta                 109.287(2)
_cell_angle_gamma                90
_cell_volume                     2630.88
_exptl_crystal_colour            yellow
_chemical_melting_point          130deg.C(dec.)
_cell_formula_units_Z            4
loop_
_atom_site_label
_atom_site_type_symbol
_atom_site_fract_x
_atom_site_fract_y
_atom_site_fract_z
S1 S 0.84914(7) 0.57278(9) 0.03575(8)
S2 S 1.27920(6) 0.47664(9) 0.46228(6)
Cl1 Cl 0.78553(7) -0.21697(9) 0.23782(7)
C1 C 0.6988(4) 0.4742(6) 0.0660(4)
H1 H 0.6319 0.4658 0.0474
H2 H 0.7178 0.5355 0.1091
H3 H 0.7275 0.3983 0.0886
C2 C 0.7271(3) 0.5078(5) -0.0025(3)
H4 H 0.6839 0.5677 -0.0366
H5 H 0.7256 0.4374 -0.0377
C3 C 0.9118(2) 0.4418(3) 0.0726(2)
C4 C 0.9505(2) 0.3963(3) 0.1550(2)
C5 C 0.99562(19) 0.2850(2) 0.15231(17)
C6 C 0.9846(2) 0.2639(3) 0.06816(18)
C7 C 1.0137(2) 0.1692(3) 0.0249(2)
H6 H 1.0480 0.1041 0.0551
C8 C 0.9916(3) 0.1737(4) -0.0602(2)
H7 H 1.0116 0.1122 -0.0882
C9 C 0.9394(3) 0.2696(4) -0.1058(2)
H8 H 0.9242 0.2704 -0.1644
C10 C 0.9102(2) 0.3610(4) -0.0683(2)
H9 H 0.8753 0.4243 -0.1002
C11 C 0.9436(2) 0.4581(3) 0.2267(2)
C12 C 1.2111(2) 0.3733(3) 0.2672(2)
C13 C 1.1645(2) 0.3387(3) 0.32483(18)
C14 C 1.08647(19) 0.2603(3) 0.30696(17)
C15 C 1.0592(2) 0.2617(3) 0.37899(17)
C16 C 0.9875(2) 0.2083(3) 0.4042(2)
H10 H 0.9452 0.1554 0.3676
C17 C 0.9794(3) 0.2328(4) 0.4803(2)
H11 H 0.9315 0.1969 0.4954
C18 C 1.0422(3) 0.3117(4) 0.5372(2)
H12 H 1.0350 0.3291 0.5891
C19 C 1.1123(3) 0.3618(3) 0.5169(2)
H13 H 1.1549 0.4127 0.5551
C20 C 1.1866(2) 0.3852(3) 0.40519(19)
C21 C 1.2231(3) 0.6219(4) 0.4578(3)
H14 H 1.1771 0.6153 0.4865
H15 H 1.2699 0.6803 0.4888
C22 C 1.1768(4) 0.6686(4) 0.3731(4)
H16 H 1.1519 0.7478 0.3767
H17 H 1.1267 0.6150 0.3432
H18 H 1.2213 0.6739 0.3434
C23 C 1.04202(19) 0.1968(2) 0.22277(16)
H19 H 1.0937 0.1596 0.2083
C24 C 0.97647(19) 0.0933(2) 0.22643(16)
C25 C 0.8798(2) 0.1078(3) 0.20076(18)
H20 H 0.8536 0.1824 0.1796
C26 C 0.8220(2) 0.0137(3) 0.20614(19)
H21 H 0.7576 0.0255 0.1901
C27 C 0.8598(2) -0.0971(3) 0.2351(2)
C28 C 0.9547(3) -0.1150(3) 0.2609(2)
H22 H 0.9800 -0.1905 0.2808
C29 C 1.0124(2) -0.0197(3) 0.25706(19)
H23 H 1.0770 -0.0315 0.2755
N1 N 0.93306(17) 0.3599(2) 0.02007(15)
N2 N 1.12186(17) 0.3380(2) 0.43855(15)
N3 N 0.9373(3) 0.5091(3) 0.2841(2)
N4 N 1.2480(2) 0.4043(3) 0.2212(2)
loop_
_geom_bond_atom_site_label_1
_geom_bond_atom_site_label_2
_geom_bond_site_symmetry_1
_geom_bond_site_symmetry_2
S1 C2 1_555 1_555
S2 C20 1_555 1_555
Cl1 C27 1_555 1_555
C1 H1 1_555 1_555
H2 C1 1_555 1_555
H3 C1 1_555 1_555
C2 C1 1_555 1_555
H4 C2 1_555 1_555
H5 C2 1_555 1_555
C3 S1 1_555 1_555
C4 C3 1_555 1_555
C5 C4 1_555 1_555
C6 C5 1_555 1_555
C7 C6 1_555 1_555
H6 C7 1_555 1_555
C8 C7 1_555 1_555
H7 C8 1_555 1_555
C9 C8 1_555 1_555
H8 C9 1_555 1_555
C10 C9 1_555 1_555
H9 C10 1_555 1_555
C11 C4 1_555 1_555
C12 C13 1_555 1_555
C13 C14 1_555 1_555
C14 C15 1_555 1_555
C15 C16 1_555 1_555
C16 H10 1_555 1_555
C17 C16 1_555 1_555
H11 C17 1_555 1_555
C18 C17 1_555 1_555
H12 C18 1_555 1_555
C19 C18 1_555 1_555
H13 C19 1_555 1_555
C20 C13 1_555 1_555
C21 S2 1_555 1_555
H14 C21 1_555 1_555
H15 C21 1_555 1_555
C22 C21 1_555 1_555
H16 C22 1_555 1_555
H17 C22 1_555 1_555
H18 C22 1_555 1_555
C23 C5 1_555 1_555
H19 C23 1_555 1_555
C24 C23 1_555 1_555
C25 C24 1_555 1_555
H20 C25 1_555 1_555
C26 C25 1_555 1_555
H21 C26 1_555 1_555
C27 C26 1_555 1_555
C28 C27 1_555 1_555
H22 C28 1_555 1_555
C29 C24 1_555 1_555
H23 C29 1_555 1_555
N1 C3 1_555 1_555
N2 C15 1_555 1_555
N3 C11 1_555 1_555
N4 C12 1_555 1_555
C6 N1 1_555 1_555
C10 N1 1_555 1_555
C14 C23 1_555 1_555
C19 N2 1_555 1_555
C20 N2 1_555 1_555
C28 C29 1_555 1_555

#END
