
#######################################################################
#
#                 Cambridge Crystallographic Data Centre
#                                CCDC 
#
#######################################################################
#
# If this CIF has been generated from an entry in the Cambridge 
# Structural Database, then it will include bibliographic, chemical, 
# crystal, experimental, refinement or atomic coordinate data resulting 
# from the CCDC's data processing and validation procedures.
#
#######################################################################

data_HIXPIN
_chemical_formula_moiety         'C16 H20 N2 O4 S1'
_chemical_name_systematic        N,N'-bis(4-Methoxybenzyl)sulfamide
_symmetry_cell_setting           monoclinic
_symmetry_space_group_name_H-M   'P 21'
_symmetry_Int_Tables_number      4
_space_group_name_Hall           'P 2yb'
loop_
_symmetry_equiv_pos_site_id
_symmetry_equiv_pos_as_xyz
1 x,y,z
2 -x,1/2+y,-z
_cell_length_a                   8.3061(5)
_cell_length_b                   5.8295(3)
_cell_length_c                   17.403(1)
_cell_angle_alpha                90
_cell_angle_beta                 90.841(1)
_cell_angle_gamma                90
_cell_volume                     842.57
_cell_formula_units_Z            2
loop_
_atom_site_label
_atom_site_type_symbol
_atom_site_fract_x
_atom_site_fract_y
_atom_site_fract_z
C1 C 0.1282(29) -0.1906(36) 0.0557(8)
O1 O 0.0697(9) 0.0135(16) 0.0916(3)
C2 C 0.1240(10) 0.0439(20) 0.1667(4)
C3 C 0.0702(10) 0.2451(16) 0.2020(4)
C4 C 0.1171(9) 0.2903(14) 0.2753(4)
C5 C 0.2135(7) 0.1445(12) 0.3177(3)
C6 C 0.2607(10) -0.0578(14) 0.2828(4)
C7 C 0.2200(11) -0.1051(15) 0.2065(4)
C8 C 0.2725(9) 0.1927(13) 0.3976(4)
N1 N 0.1765(5) 0.3670(10) 0.4348(3)
S1 S 0.2581(1) 0.5309(3) 0.4993(1)
O2 O 0.4008(5) 0.6250(8) 0.4677(3)
O3 O 0.1303(5) 0.6816(8) 0.5239(3)
N2 N 0.3151(6) 0.3925(12) 0.5755(3)
C9 C 0.1954(8) 0.2460(15) 0.6143(4)
C10 C 0.2596(8) 0.1769(13) 0.6923(4)
C11 C 0.2367(13) 0.3057(19) 0.7547(6)
C12 C 0.2963(13) 0.2493(17) 0.8259(5)
C13 C 0.3828(9) 0.0542(18) 0.8354(4)
C14 C 0.4079(11) -0.0881(16) 0.7723(4)
C15 C 0.3422(10) -0.0269(13) 0.7038(4)
O4 O 0.4393(9) 0.0122(16) 0.9088(3)
C16 C 0.5399(24) -0.1816(31) 0.9202(8)
H1 H 0.1255(94) -0.184(15) 0.0247(46)
H2 H 0.007(24) -0.223(48) 0.051(11)
H3 H 0.257(22) -0.198(55) 0.034(12)
H4 H 0.0199(77) 0.342(14) 0.1751(36)
H5 H 0.0933(61) 0.393(11) 0.2925(28)
H6 H 0.3286(97) -0.162(18) 0.3004(44)
H7 H 0.2503(80) -0.228(15) 0.1871(37)
H8 H 0.2453(89) 0.070(16) 0.4279(41)
H9 H 0.3706(79) 0.240(13) 0.3977(33)
H10 H 0.0997(80) 0.340(14) 0.4516(36)
H11 H 0.3661(51) 0.3287(84) 0.5639(24)
H12 H 0.1076(96) 0.334(16) 0.6186(41)
H13 H 0.194(11) 0.113(18) 0.5801(48)
H14 H 0.2094(80) 0.395(14) 0.7549(38)
H15 H 0.279(13) 0.344(23) 0.8575(56)
H16 H 0.443(11) -0.209(21) 0.7843(51)
H17 H 0.3495(53) -0.0922(94) 0.6693(27)
H18 H 0.591(12) -0.174(21) 0.9706(61)
H19 H 0.538(13) -0.319(19) 0.8944(54)
H20 H 0.4584(87) -0.239(17) 0.9191(46)
loop_
_geom_bond_atom_site_label_1
_geom_bond_atom_site_label_2
_geom_bond_site_symmetry_1
_geom_bond_site_symmetry_2
C1 O1 1_555 1_555
O1 C2 1_555 1_555
C2 C3 1_555 1_555
C3 C4 1_555 1_555
C4 C5 1_555 1_555
C5 C6 1_555 1_555
C6 C7 1_555 1_555
C7 C2 1_555 1_555
C8 C5 1_555 1_555
N1 C8 1_555 1_555
S1 N1 1_555 1_555
O2 S1 1_555 1_555
O3 S1 1_555 1_555
N2 S1 1_555 1_555
C9 N2 1_555 1_555
C10 C9 1_555 1_555
C11 C10 1_555 1_555
C12 C11 1_555 1_555
C13 C12 1_555 1_555
C14 C13 1_555 1_555
C15 C10 1_555 1_555
O4 C13 1_555 1_555
C16 O4 1_555 1_555
H1 C1 1_555 1_555
H2 C1 1_555 1_555
H3 C1 1_555 1_555
H4 C3 1_555 1_555
H5 C4 1_555 1_555
H6 C6 1_555 1_555
H7 C7 1_555 1_555
H8 C8 1_555 1_555
H9 C8 1_555 1_555
H10 N1 1_555 1_555
H11 N2 1_555 1_555
H12 C9 1_555 1_555
H13 C9 1_555 1_555
H14 C11 1_555 1_555
H15 C12 1_555 1_555
H16 C14 1_555 1_555
H17 C15 1_555 1_555
H18 C16 1_555 1_555
H19 C16 1_555 1_555
H20 C16 1_555 1_555
C14 C15 1_555 1_555

#END
