
#######################################################################
#
#                 Cambridge Crystallographic Data Centre
#                                CCDC 
#
#######################################################################
#
# If this CIF has been generated from an entry in the Cambridge 
# Structural Database, then it will include bibliographic, chemical, 
# crystal, experimental, refinement or atomic coordinate data resulting 
# from the CCDC's data processing and validation procedures.
#
#######################################################################

data_HIXPOT
_chemical_formula_moiety         'C16 H20 N2 O2 S1'
_chemical_name_systematic        N,N'-bis(1-Phenylethyl)sulfamide
_symmetry_cell_setting           monoclinic
_symmetry_space_group_name_H-M   'P 21'
_symmetry_Int_Tables_number      4
_space_group_name_Hall           'P 2yb'
loop_
_symmetry_equiv_pos_site_id
_symmetry_equiv_pos_as_xyz
1 x,y,z
2 -x,1/2+y,-z
_cell_length_a                   8.264(5)
_cell_length_b                   6.676(5)
_cell_length_c                   14.899(5)
_cell_angle_alpha                90
_cell_angle_beta                 105.617(5)
_cell_angle_gamma                90
_cell_volume                     791.639
_cell_formula_units_Z            2
loop_
_atom_site_label
_atom_site_type_symbol
_atom_site_fract_x
_atom_site_fract_y
_atom_site_fract_z
C1 C 1.4034(3) 0.8125(4) 0.7380(2)
C2 C 1.3028(3) 0.6690(6) 0.7632(2)
C3 C 1.3388(4) 0.5998(6) 0.8541(2)
C4 C 1.4773(4) 0.6657(8) 0.9195(2)
C5 C 1.5808(4) 0.8005(5) 0.8957(2)
C6 C 1.5452(3) 0.8744(4) 0.8054(2)
C7 C 1.3657(2) 0.9024(3) 0.6408(1)
C8 C 1.3335(3) 1.1261(4) 0.6417(2)
N1 N 1.2233(2) 0.8010(3) 0.5764(1)
S1 S 1.2498(1) 0.6564(1) 0.4953(1)
O1 O 1.4007(2) 0.5462(2) 0.5339(1)
O2 O 1.0927(2) 0.5560(3) 0.4600(1)
N2 N 1.2848(2) 0.7802(3) 0.4097(1)
C9 C 1.1490(2) 0.8940(3) 0.3446(2)
C10 C 1.1846(3) 1.1177(4) 0.3529(2)
C11 C 1.1238(3) 0.8133(4) 0.2465(2)
C12 C 1.2158(3) 0.8790(5) 0.1880(2)
C13 C 1.1891(4) 0.8013(6) 0.0987(2)
C14 C 1.0727(4) 0.6572(7) 0.0672(2)
C15 C 0.9842(5) 0.5860(7) 0.1250(2)
C16 C 1.0112(4) 0.6609(6) 0.2145(2)
H1 H 1.2102(3) 0.6186(6) 0.7188(2)
H2 H 1.2676(4) 0.5074(6) 0.8706(2)
H3 H 1.5008(4) 0.6182(8) 0.9804(2)
H4 H 1.6764(4) 0.8439(5) 0.9402(2)
H5 H 1.6176(3) 0.9666(4) 0.7899(2)
H6 H 1.4648(2) 0.8820(3) 0.6176(1)
H7 H 1.3100(3) 1.1775(4) 0.5793(2)
H8 H 1.4311(3) 1.1917(4) 0.6801(2)
H9 H 1.2391(3) 1.1506(4) 0.6661(2)
H10 H 1.1237(2) 0.8193(3) 0.5823(1)
H11 H 1.3840(2) 0.7803(3) 0.4017(1)
H12 H 1.0450(2) 0.8700(3) 0.3626(2)
H13 H 1.1995(3) 1.1590(4) 0.4164(2)
H14 H 1.0918(3) 1.1892(4) 0.3132(2)
H15 H 1.2849(3) 1.1460(4) 0.3345(2)
H16 H 1.2973(3) 0.9772(5) 0.2085(2)
H17 H 1.2522(4) 0.8490(6) 0.0601(2)
H18 H 1.0535(4) 0.6076(7) 0.0069(2)
H19 H 0.9046(5) 0.4859(7) 0.1043(2)
H20 H 0.9520(4) 0.6070(6) 0.2537(2)
loop_
_geom_bond_atom_site_label_1
_geom_bond_atom_site_label_2
_geom_bond_site_symmetry_1
_geom_bond_site_symmetry_2
C1 C2 1_555 1_555
C2 C3 1_555 1_555
C3 C4 1_555 1_555
C4 C5 1_555 1_555
C5 C6 1_555 1_555
C6 C1 1_555 1_555
C7 C1 1_555 1_555
C8 C7 1_555 1_555
N1 C7 1_555 1_555
S1 N1 1_555 1_555
O1 S1 1_555 1_555
O2 S1 1_555 1_555
N2 S1 1_555 1_555
C9 N2 1_555 1_555
C10 C9 1_555 1_555
C11 C9 1_555 1_555
C12 C11 1_555 1_555
C13 C12 1_555 1_555
C14 C13 1_555 1_555
C15 C14 1_555 1_555
C16 C11 1_555 1_555
H1 C2 1_555 1_555
H2 C3 1_555 1_555
H3 C4 1_555 1_555
H4 C5 1_555 1_555
H5 C6 1_555 1_555
H6 C7 1_555 1_555
H7 C8 1_555 1_555
H8 C8 1_555 1_555
H9 C8 1_555 1_555
H10 N1 1_555 1_555
H11 N2 1_555 1_555
H12 C9 1_555 1_555
H13 C10 1_555 1_555
H14 C10 1_555 1_555
H15 C10 1_555 1_555
H16 C12 1_555 1_555
H17 C13 1_555 1_555
H18 C14 1_555 1_555
H19 C15 1_555 1_555
H20 C16 1_555 1_555
C15 C16 1_555 1_555

#END
