
#######################################################################
#
#                 Cambridge Crystallographic Data Centre
#                                CCDC 
#
#######################################################################
#
# If this CIF has been generated from an entry in the Cambridge 
# Structural Database, then it will include bibliographic, chemical, 
# crystal, experimental, refinement or atomic coordinate data resulting 
# from the CCDC's data processing and validation procedures.
#
#######################################################################

data_HIYCEY
_chemical_formula_moiety         'C13 H16 Cl3 N5 O4 S1,C2 H6 O1'
_chemical_name_systematic        
"Trichloroethyl (amino((5-oxo-2,3,10,10a-tetrahydro-1H,5H-dipyrrolo(1,2-a:1',2'-d)pyrazin-10-yl)amino)methylidene)sulfamate ethanol solvate"
_symmetry_cell_setting           triclinic
_symmetry_space_group_name_H-M   'P 1'
_symmetry_Int_Tables_number      1
_space_group_name_Hall           'P 1'
loop_
_symmetry_equiv_pos_site_id
_symmetry_equiv_pos_as_xyz
1 x,y,z
_cell_length_a                   8.882(2)
_cell_length_b                   9.292(3)
_cell_length_c                   13.381(4)
_cell_angle_alpha                84.022(17)
_cell_angle_beta                 72.580(16)
_cell_angle_gamma                89.049(15)
_cell_volume                     1047.85
_exptl_crystal_colour            colorless
_exptl_crystal_description       plate
_cell_formula_units_Z            2
loop_
_atom_site_label
_atom_site_type_symbol
_atom_site_fract_x
_atom_site_fract_y
_atom_site_fract_z
Cl1 Cl 0.3404(3) 0.8004(3) 0.6260(3)
Cl2 Cl 0.4087(4) 0.6296(4) 0.4512(3)
Cl3 Cl 0.1114(3) 0.5923(4) 0.6145(3)
S1 S 0.6425(3) 0.4020(3) 0.6605(2)
O1 O -0.1695(9) 0.3424(11) 1.0595(7)
O2 O 0.6339(9) 0.2941(9) 0.5939(7)
O3 O 0.7925(8) 0.4604(9) 0.6496(6)
O4 O 0.5434(8) 0.5414(9) 0.6297(7)
N1 N 0.0496(11) 0.2226(13) 1.0695(8)
N2 N 0.2363(11) 0.4568(12) 0.9681(8)
N3 N 0.4738(10) 0.3174(11) 0.9550(8)
H1 H 0.4996 0.3030 1.0122
N4 N 0.7343(11) 0.3591(11) 0.8641(8)
H2 H 0.7550 0.3497 0.9232
H3 H 0.8092 0.3772 0.8062
N5 N 0.5385(10) 0.3541(11) 0.7748(7)
C1 C 0.3123(13) 0.3106(14) 0.9605(10)
H4 H 0.3031 0.2713 0.8974
C2 C 0.2168(13) 0.2148(15) 1.0576(10)
H5 H 0.2365 0.2461 1.1204
C3 C 0.2500(15) 0.0504(15) 1.0538(11)
H6 H 0.2697 0.0220 0.9833
H7 H 0.3376 0.0216 1.0803
C4 C 0.0980(16) -0.0077(17) 1.1253(11)
H8 H 0.0970 -0.0058 1.1979
H9 H 0.0841 -0.1073 1.1138
C5 C -0.0313(15) 0.0799(16) 1.1058(11)
H10 H -0.0689 0.0441 1.0519
H11 H -0.1188 0.0836 1.1695
C6 C -0.0265(13) 0.3384(16) 1.0474(10)
C7 C 0.0796(14) 0.4704(16) 1.0015(11)
C8 C 0.0423(15) 0.6090(16) 0.9816(11)
H12 H -0.0586 0.6469 0.9961
C9 C 0.1879(15) 0.6871(17) 0.9339(12)
H13 H 0.2003 0.7861 0.9137
C10 C 0.3058(15) 0.5870(15) 0.9238(11)
H14 H 0.4132 0.6050 0.8924
C11 C 0.5890(13) 0.3459(13) 0.8622(9)
C12 C 0.3806(13) 0.5118(14) 0.6442(11)
H15 H 0.3695 0.4205 0.6178
H16 H 0.3228 0.5042 0.7187
C13 C 0.3182(13) 0.6243(14) 0.5898(11)
Cl4 Cl 0.6795(4) -0.1090(5) 0.9676(4)
Cl5 Cl 0.6550(5) 0.0142(4) 0.7673(5)
Cl6 Cl 0.7400(4) -0.2838(4) 0.7921(4)
S2 S 1.1071(3) 0.1503(3) 0.7619(2)
O5 O 0.6185(9) 0.2025(10) 0.3628(7)
O6 O 1.0820(9) 0.2836(9) 0.8095(7)
O7 O 1.2392(8) 0.0716(10) 0.7709(6)
O8 O 0.9525(9) 0.0579(10) 0.8270(8)
N6 N 0.8513(11) 0.3091(12) 0.3524(8)
N7 N 0.9396(11) 0.0688(11) 0.4570(8)
N8 N 1.1666(10) 0.1945(10) 0.4669(8)
H17 H 1.2417 0.2001 0.4085
N9 N 1.3576(10) 0.1606(11) 0.5534(8)
H18 H 1.3856 0.1488 0.6099
H19 H 1.4280 0.1655 0.4928
N10 N 1.0867(9) 0.1651(10) 0.6502(8)
C14 C 1.0149(13) 0.2091(13) 0.4627(10)
H20 H 0.9520 0.2506 0.5262
C15 C 1.0060(14) 0.3086(14) 0.3677(10)
H21 H 1.0842 0.2791 0.3046
C16 C 1.0328(14) 0.4721(14) 0.3761(11)
H22 H 0.9822 0.4969 0.4470
H23 H 1.1444 0.4959 0.3566
C17 C 0.9567(15) 0.5497(15) 0.2986(11)
H24 H 1.0248 0.5513 0.2267
H25 H 0.9291 0.6480 0.3145
C18 C 0.8045(15) 0.4511(15) 0.3184(11)
H26 H 0.7162 0.4854 0.3725
H27 H 0.7751 0.4497 0.2543
C19 C 0.7505(13) 0.1947(14) 0.3745(10)
C20 C 0.8086(14) 0.0670(15) 0.4242(11)
C21 C 0.7563(15) -0.0754(15) 0.4421(11)
H28 H 0.6717 -0.1110 0.4241
C22 C 0.8518(15) -0.1564(16) 0.4916(11)
H29 H 0.8396 -0.2542 0.5159
C23 C 0.9657(15) -0.0660(15) 0.4979(11)
H30 H 1.0480 -0.0917 0.5256
C24 C 1.2066(12) 0.1713(13) 0.5597(10)
C25 C 0.9339(15) -0.0727(17) 0.7920(13)
H31 H 0.9910 -0.1472 0.8214
H32 H 0.9753 -0.0660 0.7158
C26 C 0.7539(16) -0.1117(16) 0.8279(14)
O9 O 0.5268(10) 0.3242(14) 0.1527(8)
H33 H 0.6221 0.3167 0.1533
C27 C 0.512(2) 0.571(3) 0.1451(19)
H34 H 0.4614 0.6506 0.1821
H35 H 0.4877 0.5733 0.0797
H36 H 0.6240 0.5796 0.1313
C30 C 0.4549(18) 0.435(2) 0.2091(16)
H43 H 0.4806 0.4315 0.2748
H44 H 0.3412 0.4272 0.2251
O10 O 0.3487(13) 1.0993(14) 0.2753(9)
H37 H 0.4302 1.1468 0.2371
C28 C 0.393(2) 0.957(2) 0.3069(15)
H38 H 0.3120 0.8882 0.3065
H39 H 0.3984 0.9531 0.3784
C29 C 0.549(2) 0.913(3) 0.2366(17)
H40 H 0.5729 0.8169 0.2614
H41 H 0.6297 0.9791 0.2376
H42 H 0.5432 0.9134 0.1660
loop_
_geom_bond_atom_site_label_1
_geom_bond_atom_site_label_2
_geom_bond_site_symmetry_1
_geom_bond_site_symmetry_2
Cl1 C13 1_555 1_555
Cl2 C13 1_555 1_555
Cl3 C13 1_555 1_555
S1 O2 1_555 1_555
O1 C6 1_555 1_555
O3 S1 1_555 1_555
O4 S1 1_555 1_555
N1 C2 1_555 1_555
N2 C1 1_555 1_555
N3 H1 1_555 1_555
N4 H2 1_555 1_555
H3 N4 1_555 1_555
N5 S1 1_555 1_555
C1 N3 1_555 1_555
H4 C1 1_555 1_555
C2 C1 1_555 1_555
H5 C2 1_555 1_555
C3 C2 1_555 1_555
H6 C3 1_555 1_555
H7 C3 1_555 1_555
C4 C3 1_555 1_555
H8 C4 1_555 1_555
H9 C4 1_555 1_555
C5 N1 1_555 1_555
H10 C5 1_555 1_555
H11 C5 1_555 1_555
C6 N1 1_555 1_555
C7 N2 1_555 1_555
C8 C7 1_555 1_555
H12 C8 1_555 1_555
C9 C8 1_555 1_555
H13 C9 1_555 1_555
C10 N2 1_555 1_555
H14 C10 1_555 1_555
C11 N3 1_555 1_555
C12 O4 1_555 1_555
H15 C12 1_555 1_555
H16 C12 1_555 1_555
C13 C12 1_555 1_555
Cl4 C26 1_555 1_555
Cl5 C26 1_555 1_555
Cl6 C26 1_555 1_555
S2 O6 1_555 1_555
O5 C19 1_555 1_555
O7 S2 1_555 1_555
O8 S2 1_555 1_555
N6 C15 1_555 1_555
N7 C14 1_555 1_555
N8 H17 1_555 1_555
N9 H18 1_555 1_555
H19 N9 1_555 1_555
N10 S2 1_555 1_555
C14 N8 1_555 1_555
H20 C14 1_555 1_555
C15 C14 1_555 1_555
H21 C15 1_555 1_555
C16 C15 1_555 1_555
H22 C16 1_555 1_555
H23 C16 1_555 1_555
C17 C16 1_555 1_555
H24 C17 1_555 1_555
H25 C17 1_555 1_555
C18 N6 1_555 1_555
H26 C18 1_555 1_555
H27 C18 1_555 1_555
C19 N6 1_555 1_555
C20 N7 1_555 1_555
C21 C20 1_555 1_555
H28 C21 1_555 1_555
C22 C21 1_555 1_555
H29 C22 1_555 1_555
C23 N7 1_555 1_555
H30 C23 1_555 1_555
C24 N8 1_555 1_555
C25 O8 1_555 1_555
H31 C25 1_555 1_555
H32 C25 1_555 1_555
C26 C25 1_555 1_555
O9 H33 1_555 1_555
C27 H34 1_555 1_555
H35 C27 1_555 1_555
H36 C27 1_555 1_555
O10 H37 1_555 1_555
C28 O10 1_555 1_555
H38 C28 1_555 1_555
H39 C28 1_555 1_555
C29 C28 1_555 1_555
H40 C29 1_555 1_555
H41 C29 1_555 1_555
H42 C29 1_555 1_555
C30 O9 1_555 1_555
H43 C30 1_555 1_555
H44 C30 1_555 1_555
N4 C11 1_555 1_555
N5 C11 1_555 1_555
C4 C5 1_555 1_555
C6 C7 1_555 1_555
C9 C10 1_555 1_555
N9 C24 1_555 1_555
N10 C24 1_555 1_555
C17 C18 1_555 1_555
C19 C20 1_555 1_555
C22 C23 1_555 1_555
C27 C30 1_555 1_555

#END
