
#######################################################################
#
#                 Cambridge Crystallographic Data Centre
#                                CCDC 
#
#######################################################################
#
# If this CIF has been generated from an entry in the Cambridge 
# Structural Database, then it will include bibliographic, chemical, 
# crystal, experimental, refinement or atomic coordinate data resulting 
# from the CCDC's data processing and validation procedures.
#
#######################################################################

data_HIYDIE
_chemical_formula_moiety         '2(C1 H4 N5 1+),C2 O4 2-'
_chemical_name_systematic        'bis(5-Amino-1H-tetrazol-4-ium) oxalate'
_symmetry_cell_setting           monoclinic
_symmetry_space_group_name_H-M   'P 21/c'
_symmetry_Int_Tables_number      14
_space_group_name_Hall           '-P 2ybc'
loop_
_symmetry_equiv_pos_site_id
_symmetry_equiv_pos_as_xyz
1 x,y,z
2 -x,1/2+y,1/2-z
3 -x,-y,-z
4 x,1/2-y,1/2+z
_cell_length_a                   3.6377(10)
_cell_length_b                   11.723(3)
_cell_length_c                   12.387(3)
_cell_angle_alpha                90
_cell_angle_beta                 97.696(5)
_cell_angle_gamma                90
_cell_volume                     523.483
_exptl_crystal_colour            colorless
_exptl_crystal_description       block
_cell_formula_units_Z            2
loop_
_atom_site_label
_atom_site_type_symbol
_atom_site_fract_x
_atom_site_fract_y
_atom_site_fract_z
N1 N 0.1567(8) 0.8707(3) 0.2268(3)
N2 N -0.0262(9) 0.8439(3) 0.3809(3)
N3 N -0.0392(8) 0.7432(2) 0.3260(2)
H1 H -0.1094 0.6789 0.3499
N4 N 0.0889(9) 0.9209(3) 0.3217(3)
N5 N 0.1103(10) 0.6832(3) 0.1535(3)
H2 H 0.0578 0.6128 0.1639
H3 H 0.1864 0.7036 0.0936
C1 C 0.0738(9) 0.7599(3) 0.2296(3)
H4 H 0.184(17) 0.913(5) 0.153(4)
O1 O 0.7046(7) 0.55597(19) 0.39212(19)
O2 O 0.5030(7) 0.64443(19) 0.53212(19)
C2 C 0.5573(9) 0.5593(3) 0.4803(3)
O1B O 0.2954(7) 0.44403(19) 0.60788(19)
O2B O 0.4970(7) 0.35557(19) 0.46788(19)
C2B C 0.4427(9) 0.4407(3) 0.5197(3)
loop_
_geom_bond_atom_site_label_1
_geom_bond_atom_site_label_2
_geom_bond_site_symmetry_1
_geom_bond_site_symmetry_2
N1 N4 1_555 1_555
N2 N3 1_555 1_555
N3 H1 1_555 1_555
N4 N2 1_555 1_555
N5 H2 1_555 1_555
H3 N5 1_555 1_555
C1 N1 1_555 1_555
H4 N1 1_555 1_555
O1 C2 1_555 1_555
O2 C2 1_555 1_555
C2 C2B 1_555 1_555
O1B C2B 1_555 1_555
O2B C2B 1_555 1_555
N3 C1 1_555 1_555
N5 C1 1_555 1_555

#END
