
#######################################################################
#
#                 Cambridge Crystallographic Data Centre
#                                CCDC 
#
#######################################################################
#
# If this CIF has been generated from an entry in the Cambridge 
# Structural Database, then it will include bibliographic, chemical, 
# crystal, experimental, refinement or atomic coordinate data resulting 
# from the CCDC's data processing and validation procedures.
#
#######################################################################

data_HIYDEA
_chemical_formula_moiety         'C3 H7 N6 1+,C3 H3 N4 O2 1-,H2 O1'
_chemical_name_systematic        
'2,4,6-Triamino-1,3,5-triazin-1-ium 1H-tetrazol-1-ylacetate monohydrate'
_symmetry_cell_setting           triclinic
_symmetry_space_group_name_H-M   'P -1'
_symmetry_Int_Tables_number      2
_space_group_name_Hall           '-P 1'
loop_
_symmetry_equiv_pos_site_id
_symmetry_equiv_pos_as_xyz
1 x,y,z
2 -x,-y,-z
_cell_length_a                   5.1633(11)
_cell_length_b                   9.5569(19)
_cell_length_c                   12.229(3)
_cell_angle_alpha                87.326(3)
_cell_angle_beta                 83.816(3)
_cell_angle_gamma                76.459(3)
_cell_volume                     583.11
_exptl_crystal_description       block
_cell_formula_units_Z            2
loop_
_atom_site_label
_atom_site_type_symbol
_atom_site_fract_x
_atom_site_fract_y
_atom_site_fract_z
N1 N 0.4377(6) 0.3196(3) 0.4735(2)
N2 N 0.6736(6) 0.2921(4) 0.3175(3)
N3 N 0.4719(7) 0.4118(3) 0.3151(3)
N4 N 0.6442(8) 0.2363(4) 0.4172(3)
C1 C 0.3309(7) 0.4282(3) 0.4078(3)
H1 H 0.1817 0.5020 0.4262
C2 C 0.3216(9) 0.3015(4) 0.5856(3)
C3 C 0.1774(7) 0.1797(4) 0.5985(3)
O1 O 0.1852(6) 0.1035(3) 0.5196(2)
O2 O 0.0640(5) 0.1664(3) 0.69331(19)
H2 H 0.461(8) 0.277(4) 0.628(3)
H3 H 0.191(8) 0.382(4) 0.603(4)
N5 N 0.3319(5) 0.3600(3) -0.0198(2)
N6 N 0.7154(5) 0.1618(3) -0.0229(2)
N7 N 0.3670(5) 0.1812(3) 0.1188(2)
H4 H 0.3000 0.1466 0.1786
C4 C 0.6090(6) 0.1128(4) 0.0707(3)
C5 C 0.5699(7) 0.2856(3) -0.0639(3)
C6 C 0.2296(6) 0.3048(3) 0.0724(3)
N8 N 0.6754(6) 0.3370(3) -0.1566(2)
H5 H 0.5911 0.4157 -0.1861
H6 H 0.8281 0.2918 -0.1870
N9 N 0.7372(6) -0.0046(3) 0.1196(2)
H7 H 0.8914 -0.0505 0.0909
H8 H 0.6668 -0.0355 0.1801
N10 N -0.0007(6) 0.3686(3) 0.1217(2)
H9 H -0.0900 0.4478 0.0948
H10 H -0.0639 0.3315 0.1811
O3 O 0.2652(6) 0.0256(3) 0.3024(2)
H11 H 0.251(8) 0.055(4) 0.376(4)
H12 H 0.140(11) -0.026(5) 0.317(4)
loop_
_geom_bond_atom_site_label_1
_geom_bond_atom_site_label_2
_geom_bond_site_symmetry_1
_geom_bond_site_symmetry_2
N1 N4 1_555 1_555
N2 N3 1_555 1_555
N3 C1 1_555 1_555
N4 N2 1_555 1_555
C1 N1 1_555 1_555
H1 C1 1_555 1_555
C2 N1 1_555 1_555
C3 C2 1_555 1_555
O1 C3 1_555 1_555
O2 C3 1_555 1_555
H2 C2 1_555 1_555
H3 C2 1_555 1_555
N5 C5 1_555 1_555
N6 C4 1_555 1_555
N7 H4 1_555 1_555
C4 N7 1_555 1_555
C5 N6 1_555 1_555
C6 N5 1_555 1_555
N8 C5 1_555 1_555
H5 N8 1_555 1_555
H6 N8 1_555 1_555
N9 C4 1_555 1_555
H7 N9 1_555 1_555
H8 N9 1_555 1_555
N10 C6 1_555 1_555
H9 N10 1_555 1_555
H10 N10 1_555 1_555
O3 H11 1_555 1_555
H12 O3 1_555 1_555
N7 C6 1_555 1_555

#END
