
#######################################################################
#
#                 Cambridge Crystallographic Data Centre
#                                CCDC 
#
#######################################################################
#
# If this CIF has been generated from an entry in the Cambridge 
# Structural Database, then it will include bibliographic, chemical, 
# crystal, experimental, refinement or atomic coordinate data resulting 
# from the CCDC's data processing and validation procedures.
#
#######################################################################

data_HIYFAW
_chemical_formula_moiety         'C19 H15 N5 O1'
_chemical_name_systematic        
4-(p-Methoxyphenyl)-3,5-bis(2-pyridyl)-4H-1,2,4-triazole
_symmetry_cell_setting           monoclinic
_symmetry_space_group_name_H-M   'P 21/c'
_symmetry_Int_Tables_number      14
_space_group_name_Hall           '-P 2ybc'
loop_
_symmetry_equiv_pos_site_id
_symmetry_equiv_pos_as_xyz
1 x,y,z
2 -x,1/2+y,1/2-z
3 -x,-y,-z
4 x,1/2-y,1/2+z
_cell_length_a                   11.5436(4)
_cell_length_b                   18.2820(6)
_cell_length_c                   8.2935(3)
_cell_angle_alpha                90
_cell_angle_beta                 107.141(1)
_cell_angle_gamma                90
_cell_volume                     1672.52
_exptl_crystal_colour            colorless
_exptl_crystal_description       plate
_cell_formula_units_Z            4
_exptl_crystal_recrystallization_method acetone
loop_
_atom_site_label
_atom_site_type_symbol
_atom_site_fract_x
_atom_site_fract_y
_atom_site_fract_z
O1 O 0.71993(9) 0.66926(9) 0.74893(18)
N1 N 0.23209(8) 0.65661(5) 0.71508(14)
N2 N 0.05808(10) 0.60161(7) 0.69305(17)
N3 N 0.03938(10) 0.67646(7) 0.68962(17)
N4 N 0.33529(10) 0.50901(6) 0.84284(15)
N5 N 0.24555(11) 0.81409(6) 0.63824(16)
C1 C 0.17326(11) 0.59117(7) 0.70890(17)
C2 C 0.14392(10) 0.70843(7) 0.70312(17)
C3 C 0.23130(11) 0.51863(7) 0.71911(17)
C4 C 0.38825(15) 0.44356(8) 0.8516(2)
C5 C 0.34158(16) 0.38704(9) 0.7408(2)
C6 C 0.23474(16) 0.39774(9) 0.6151(2)
C7 C 0.17814(13) 0.46466(8) 0.6038(2)
C8 C 0.15775(11) 0.78835(7) 0.69820(17)
C9 C 0.07761(14) 0.83327(9) 0.7489(2)
C10 C 0.08792(17) 0.90788(10) 0.7342(3)
C11 C 0.17786(18) 0.93517(10) 0.6744(2)
C12 C 0.25431(16) 0.88669(9) 0.6287(2)
C13 C 0.35842(10) 0.66457(6) 0.72576(16)
C14 C 0.43754(10) 0.69963(7) 0.86042(17)
C15 C 0.56013(11) 0.70294(7) 0.87120(18)
C16 C 0.60146(11) 0.66946(8) 0.74956(19)
C17 C 0.52065(13) 0.63441(9) 0.6145(2)
C18 C 0.39874(12) 0.63256(8) 0.60121(18)
C19 C 0.81194(14) 0.68051(15) 0.9013(3)
H1 H 0.4645(14) 0.4366(8) 0.942(2)
H2 H 0.3838(16) 0.3432(10) 0.753(2)
H3 H 0.1993(16) 0.3602(10) 0.535(3)
H4 H 0.1055(15) 0.4738(9) 0.517(2)
H5 H 0.0167(16) 0.8116(10) 0.794(2)
H6 H 0.0327(17) 0.9402(11) 0.768(2)
H7 H 0.1901(16) 0.9860(11) 0.662(2)
H8 H 0.3226(17) 0.9045(10) 0.586(3)
H9 H 0.4071(13) 0.7224(8) 0.947(2)
H10 H 0.6155(14) 0.7295(8) 0.964(2)
H11 H 0.5511(15) 0.6092(10) 0.529(2)
H12 H 0.3403(14) 0.6070(9) 0.507(2)
H13 H 0.799(3) 0.6449(15) 0.986(4)
H14 H 0.808(2) 0.7321(15) 0.942(4)
H15 H 0.888(2) 0.6707(11) 0.878(3)
loop_
_geom_bond_atom_site_label_1
_geom_bond_atom_site_label_2
_geom_bond_site_symmetry_1
_geom_bond_site_symmetry_2
O1 C16 1_555 1_555
N1 C1 1_555 1_555
N2 N3 1_555 1_555
N3 C2 1_555 1_555
N4 C3 1_555 1_555
N5 C8 1_555 1_555
C1 N2 1_555 1_555
C2 N1 1_555 1_555
C3 C1 1_555 1_555
C4 N4 1_555 1_555
C5 C4 1_555 1_555
C6 C5 1_555 1_555
C7 C3 1_555 1_555
C8 C2 1_555 1_555
C9 C8 1_555 1_555
C10 C9 1_555 1_555
C11 C10 1_555 1_555
C12 N5 1_555 1_555
C13 N1 1_555 1_555
C14 C13 1_555 1_555
C15 C14 1_555 1_555
C16 C15 1_555 1_555
C17 C16 1_555 1_555
C18 C13 1_555 1_555
C19 O1 1_555 1_555
H1 C4 1_555 1_555
H2 C5 1_555 1_555
H3 C6 1_555 1_555
H4 C7 1_555 1_555
H5 C9 1_555 1_555
H6 C10 1_555 1_555
H7 C11 1_555 1_555
H8 C12 1_555 1_555
H9 C14 1_555 1_555
H10 C15 1_555 1_555
H11 C17 1_555 1_555
H12 C18 1_555 1_555
H13 C19 1_555 1_555
H14 C19 1_555 1_555
H15 C19 1_555 1_555
C6 C7 1_555 1_555
C11 C12 1_555 1_555
C17 C18 1_555 1_555

#END
