
#######################################################################
#
#                 Cambridge Crystallographic Data Centre
#                                CCDC 
#
#######################################################################
#
# If this CIF has been generated from an entry in the Cambridge 
# Structural Database, then it will include bibliographic, chemical, 
# crystal, experimental, refinement or atomic coordinate data resulting 
# from the CCDC's data processing and validation procedures.
#
#######################################################################

data_HIYFAY
_chemical_formula_moiety         'C22 H17 N1 O1'
_chemical_name_systematic        6-(4-Methoxyphenyl)-2-phenylquinoline
_symmetry_cell_setting           orthorhombic
_symmetry_space_group_name_H-M   'P n a 21'
_symmetry_Int_Tables_number      33
_space_group_name_Hall           'P 2c -2n'
loop_
_symmetry_equiv_pos_site_id
_symmetry_equiv_pos_as_xyz
1 x,y,z
2 -x,-y,1/2+z
3 1/2+x,1/2-y,z
4 1/2-x,1/2+y,1/2+z
_cell_length_a                   6.3212(16)
_cell_length_b                   7.4318(19)
_cell_length_c                   33.967(9)
_cell_angle_alpha                90
_cell_angle_beta                 90
_cell_angle_gamma                90
_cell_volume                     1595.7
_exptl_crystal_colour            yellow
_exptl_crystal_description       block
_cell_formula_units_Z            4
loop_
_atom_site_label
_atom_site_type_symbol
_atom_site_fract_x
_atom_site_fract_y
_atom_site_fract_z
N1 N 0.5606(5) 1.0325(4) -0.01542(12)
O1 O -0.0309(6) 1.0082(4) 0.25376(11)
C1 C -0.2165(8) 0.9061(8) 0.26411(17)
H1 H -0.3360 0.9510 0.2497
H2 H -0.2428 0.9176 0.2918
H3 H -0.1944 0.7817 0.2577
C2 C 0.0411(7) 0.9993(6) 0.21545(14)
C3 C -0.0552(7) 0.9026(6) 0.18614(16)
H4 H -0.1768 0.8363 0.1914
C4 C 0.2124(7) 1.0025(6) 0.13921(14)
C5 C 0.3056(7) 1.0975(6) 0.17023(13)
H5 H 0.4280 1.1633 0.1654
C6 C 0.2221(7) 1.0970(6) 0.20764(14)
H6 H 0.2873 1.1623 0.2276
C7 C 0.0308(7) 0.9046(6) 0.14849(14)
H7 H -0.0352 0.8384 0.1288
C8 C 0.1810(7) 0.9582(5) 0.06657(14)
H8 H 0.0432 0.9184 0.0706
C9 C 0.4431(8) 0.9882(6) -0.04640(15)
C10 C 0.1383(6) 0.9265(5) -0.00622(14)
H9 H -0.0026 0.8925 -0.0037
C11 C 0.2278(7) 0.9363(6) -0.04235(14)
H10 H 0.1482 0.9091 -0.0646
C12 C 0.2594(7) 0.9679(6) 0.02774(14)
C13 C 0.4715(8) 1.0253(7) 0.02090(13)
C14 C 0.3008(7) 1.0055(6) 0.09875(15)
C15 C 0.5131(7) 1.0625(6) 0.09105(14)
H11 H 0.5992 1.0935 0.1122
C16 C 0.5934(7) 1.0730(5) 0.05418(15)
H12 H 0.7317 1.1125 0.0507
C17 C 0.4617(7) 0.9051(6) -0.11781(14)
H13 H 0.3378 0.8391 -0.1148
C18 C 0.5450(7) 0.9932(6) -0.08566(14)
C19 C 0.5575(8) 0.9123(7) -0.15437(15)
H14 H 0.4967 0.8530 -0.1757
C20 C 0.8317(8) 1.0931(7) -0.12725(16)
H15 H 0.9579 1.1560 -0.1302
C21 C 0.7369(7) 1.0874(6) -0.09083(14)
H16 H 0.7993 1.1458 -0.0696
C22 C 0.7452(8) 1.0081(7) -0.15938(16)
H17 H 0.8103 1.0145 -0.1839
loop_
_geom_bond_atom_site_label_1
_geom_bond_atom_site_label_2
_geom_bond_site_symmetry_1
_geom_bond_site_symmetry_2
N1 C9 1_555 1_555
O1 C1 1_555 1_555
C1 H1 1_555 1_555
H2 C1 1_555 1_555
H3 C1 1_555 1_555
C2 O1 1_555 1_555
C3 C2 1_555 1_555
H4 C3 1_555 1_555
C4 C5 1_555 1_555
C5 H5 1_555 1_555
C6 C2 1_555 1_555
H6 C6 1_555 1_555
C7 C3 1_555 1_555
H7 C7 1_555 1_555
C8 H8 1_555 1_555
C9 C11 1_555 1_555
C10 H9 1_555 1_555
C11 C10 1_555 1_555
H10 C11 1_555 1_555
C12 C8 1_555 1_555
C13 N1 1_555 1_555
C14 C4 1_555 1_555
C15 C14 1_555 1_555
H11 C15 1_555 1_555
C16 C13 1_555 1_555
H12 C16 1_555 1_555
C17 H13 1_555 1_555
C18 C9 1_555 1_555
C19 C17 1_555 1_555
H14 C19 1_555 1_555
C20 H15 1_555 1_555
C21 C18 1_555 1_555
H16 C21 1_555 1_555
C22 C19 1_555 1_555
H17 C22 1_555 1_555
C4 C7 1_555 1_555
C5 C6 1_555 1_555
C8 C14 1_555 1_555
C10 C12 1_555 1_555
C12 C13 1_555 1_555
C15 C16 1_555 1_555
C17 C18 1_555 1_555
C20 C21 1_555 1_555
C20 C22 1_555 1_555

#END
