
#######################################################################
#
#                 Cambridge Crystallographic Data Centre
#                                CCDC 
#
#######################################################################
#
# If this CIF has been generated from an entry in the Cambridge 
# Structural Database, then it will include bibliographic, chemical, 
# crystal, experimental, refinement or atomic coordinate data resulting 
# from the CCDC's data processing and validation procedures.
#
#######################################################################

data_HIYKIJ
_chemical_formula_moiety         'C33 H36 O6'
_chemical_name_systematic        
'Tribenzyl cis,cis-1,3,5-trimethylcyclohexane-1,3,5-tricarboxylate'
_symmetry_cell_setting           monoclinic
_symmetry_space_group_name_H-M   'P 21/c'
_symmetry_Int_Tables_number      14
_space_group_name_Hall           '-P 2ybc'
loop_
_symmetry_equiv_pos_site_id
_symmetry_equiv_pos_as_xyz
1 x,y,z
2 -x,1/2+y,1/2-z
3 -x,-y,-z
4 x,1/2-y,1/2+z
_cell_length_a                   14.5445(5)
_cell_length_b                   9.6680(2)
_cell_length_c                   19.8101(7)
_cell_angle_alpha                90
_cell_angle_beta                 90.186(1)
_cell_angle_gamma                90
_cell_volume                     2785.61
_exptl_crystal_colour            colorless
_exptl_crystal_description       platelet
_cell_formula_units_Z            4
_exptl_crystal_recrystallization_method toluene
loop_
_atom_site_label
_atom_site_type_symbol
_atom_site_fract_x
_atom_site_fract_y
_atom_site_fract_z
O1 O 0.19676(8) 0.42304(13) 0.57479(6)
O2 O 0.13594(7) 0.26194(12) 0.64306(6)
O3 O 0.41333(8) 0.43808(13) 0.55115(6)
O4 O 0.32492(8) 0.50549(12) 0.46397(6)
O5 O 0.33300(8) 0.27032(13) 0.67324(6)
O6 O 0.48102(7) 0.23537(12) 0.64384(6)
C1 C 0.20332(11) 0.1799(2) 0.54192(8)
C2 C 0.24605(11) 0.2267(2) 0.47479(8)
H1 H 0.21180 0.3065 0.45887
H2 H 0.23691 0.1533 0.44209
C3 C 0.34948(11) 0.2652(2) 0.47483(8)
C4 C 0.40482(11) 0.1551(2) 0.51356(8)
H3 H 0.46683 0.1900 0.51965
H4 H 0.40896 0.0736 0.48517
C5 C 0.36901(11) 0.1093(2) 0.58302(8)
C6 C 0.26611(10) 0.0749(2) 0.57827(8)
H5 H 0.24312 0.0628 0.62380
H6 H 0.25994 -0.0134 0.55544
C7 C 0.11184(11) 0.1057(2) 0.52547(9)
H7 H 0.12371 0.0275 0.49697
H8 H 0.07124 0.1686 0.50263
H9 H 0.08374 0.0750 0.56661
C8 C 0.18072(11) 0.3029(2) 0.58718(8)
C9 C 0.12293(12) 0.3662(2) 0.69468(8)
H10 H 0.07702 0.4329 0.68040
H11 H 0.18011 0.4147 0.70338
C10 C 0.09161(11) 0.2917(2) 0.75695(9)
C11 C 0.01462(12) 0.3364(2) 0.79237(9)
H12 H -0.01872 0.4123 0.77703
C12 C -0.01249(13) 0.2677(2) 0.85069(10)
H13 H -0.06349 0.2984 0.87461
C13 C 0.03631(15) 0.1537(2) 0.87316(10)
H14 H 0.01768 0.1073 0.91188
C14 C 0.11268(15) 0.1089(2) 0.83813(9)
H15 H 0.14525 0.0319 0.85311
C15 C 0.14062(13) 0.1784(2) 0.78086(9)
H16 H 0.19285 0.1490 0.75801
C16 C 0.38271(12) 0.2663(2) 0.40095(8)
H17 H 0.37309 0.1767 0.38128
H18 H 0.44700 0.2886 0.39974
H19 H 0.34872 0.3343 0.37586
C17 C 0.36663(11) 0.4094(2) 0.50279(8)
C18 C 0.32911(12) 0.6471(2) 0.48811(9)
H20 H 0.38982 0.6856 0.48072
H21 H 0.31563 0.6509 0.53600
C19 C 0.25835(12) 0.7259(2) 0.44866(9)
C20 C 0.16693(13) 0.6850(2) 0.45224(10)
H22 H 0.14969 0.6145 0.48151
C21 C 0.1015(2) 0.7493(3) 0.41224(13)
H23 H 0.0406 0.7203 0.41389
C22 C 0.1260(2) 0.8559(3) 0.37011(12)
H24 H 0.0817 0.8988 0.34346
C23 C 0.2159(2) 0.8992(2) 0.36725(10)
H25 H 0.2321 0.9724 0.33925
C24 C 0.28295(14) 0.8337(2) 0.40622(9)
H26 H 0.34393 0.8622 0.40378
C25 C 0.41990(11) -0.0242(2) 0.60382(8)
H27 H 0.40906 -0.0947 0.57061
H28 H 0.39763 -0.0550 0.64685
H29 H 0.48466 -0.0060 0.60695
C26 C 0.38923(11) 0.2155(2) 0.63760(8)
C27 C 0.51169(12) 0.3476(2) 0.68709(9)
H30 H 0.46211 0.3760 0.71663
H31 H 0.52950 0.4264 0.65979
C28 C 0.59217(11) 0.2990(2) 0.72834(8)
C29 C 0.58382(12) 0.1831(2) 0.76962(9)
H32 H 0.52848 0.1349 0.77073
C30 C 0.65679(12) 0.1386(2) 0.80897(9)
H33 H 0.65063 0.0608 0.83619
C31 C 0.73928(12) 0.2109(2) 0.80762(9)
H34 H 0.78844 0.1816 0.83415
C32 C 0.74847(11) 0.3261(2) 0.76692(9)
H35 H 0.80374 0.3744 0.76624
C33 C 0.67536(11) 0.3698(2) 0.72704(8)
H36 H 0.68207 0.4468 0.69935
loop_
_geom_bond_atom_site_label_1
_geom_bond_atom_site_label_2
_geom_bond_site_symmetry_1
_geom_bond_site_symmetry_2
O1 C8 1_555 1_555
O2 C8 1_555 1_555
O3 C17 1_555 1_555
O4 C17 1_555 1_555
O5 C26 1_555 1_555
O6 C26 1_555 1_555
C1 C2 1_555 1_555
C2 H1 1_555 1_555
H2 C2 1_555 1_555
C3 C2 1_555 1_555
C4 C3 1_555 1_555
H3 C4 1_555 1_555
H4 C4 1_555 1_555
C5 C4 1_555 1_555
C6 C1 1_555 1_555
H5 C6 1_555 1_555
H6 C6 1_555 1_555
C7 C1 1_555 1_555
H7 C7 1_555 1_555
H8 C7 1_555 1_555
H9 C7 1_555 1_555
C8 C1 1_555 1_555
C9 O2 1_555 1_555
H10 C9 1_555 1_555
H11 C9 1_555 1_555
C10 C9 1_555 1_555
C11 C10 1_555 1_555
H12 C11 1_555 1_555
C12 C11 1_555 1_555
H13 C12 1_555 1_555
C13 C12 1_555 1_555
H14 C13 1_555 1_555
C14 C13 1_555 1_555
H15 C14 1_555 1_555
C15 C10 1_555 1_555
H16 C15 1_555 1_555
C16 C3 1_555 1_555
H17 C16 1_555 1_555
H18 C16 1_555 1_555
H19 C16 1_555 1_555
C17 C3 1_555 1_555
C18 O4 1_555 1_555
H20 C18 1_555 1_555
H21 C18 1_555 1_555
C19 C18 1_555 1_555
C20 C19 1_555 1_555
H22 C20 1_555 1_555
C21 C20 1_555 1_555
H23 C21 1_555 1_555
C22 C21 1_555 1_555
H24 C22 1_555 1_555
C23 C22 1_555 1_555
H25 C23 1_555 1_555
C24 C19 1_555 1_555
H26 C24 1_555 1_555
C25 C5 1_555 1_555
H27 C25 1_555 1_555
H28 C25 1_555 1_555
H29 C25 1_555 1_555
C26 C5 1_555 1_555
C27 O6 1_555 1_555
H30 C27 1_555 1_555
H31 C27 1_555 1_555
C28 C27 1_555 1_555
C29 C28 1_555 1_555
H32 C29 1_555 1_555
C30 C29 1_555 1_555
H33 C30 1_555 1_555
C31 C30 1_555 1_555
H34 C31 1_555 1_555
C32 C31 1_555 1_555
H35 C32 1_555 1_555
C33 C28 1_555 1_555
H36 C33 1_555 1_555
C5 C6 1_555 1_555
C14 C15 1_555 1_555
C23 C24 1_555 1_555
C32 C33 1_555 1_555

#END
