
#######################################################################
#
#                 Cambridge Crystallographic Data Centre
#                                CCDC 
#
#######################################################################
#
# If this CIF has been generated from an entry in the Cambridge 
# Structural Database, then it will include bibliographic, chemical, 
# crystal, experimental, refinement or atomic coordinate data resulting 
# from the CCDC's data processing and validation procedures.
#
#######################################################################

data_HIYLEG
_chemical_formula_moiety         'C17 H13 N1 O2'
_chemical_name_systematic        
(E)-3-(Benzoylmethylene)-N-methylisoindolin-1-one
_symmetry_cell_setting           orthorhombic
_symmetry_space_group_name_H-M   'P 21 21 21'
_symmetry_Int_Tables_number      19
_space_group_name_Hall           'P 2ac 2ab'
loop_
_symmetry_equiv_pos_site_id
_symmetry_equiv_pos_as_xyz
1 x,y,z
2 1/2-x,-y,1/2+z
3 1/2+x,1/2-y,-z
4 -x,1/2+y,1/2-z
_cell_length_a                   9.033(1)
_cell_length_b                   11.081(1)
_cell_length_c                   13.447(1)
_cell_angle_alpha                90
_cell_angle_beta                 90
_cell_angle_gamma                90
_cell_volume                     1345.97
_exptl_crystal_colour            colorless
_exptl_crystal_description       prism
_chemical_melting_point          388K
_cell_formula_units_Z            4
_exptl_crystal_recrystallization_method ethanol
loop_
_atom_site_label
_atom_site_type_symbol
_atom_site_fract_x
_atom_site_fract_y
_atom_site_fract_z
N1 N 0.8185(3) 0.4661(2) 0.0478(2)
O1 O 0.7320(2) 0.2710(2) 0.0511(2)
O2 O 0.6846(2) 0.8405(2) 0.0662(2)
C1 C 0.6175(3) 0.5638(2) 0.1120(2)
C2 C 0.5139(3) 0.6413(3) 0.1542(2)
H1 H 0.5325 0.7237 0.1589
C3 C 0.3830(4) 0.5931(4) 0.1890(3)
H2 H 0.3133 0.6442 0.2176
C4 C 0.3525(4) 0.4720(4) 0.1827(3)
H3 H 0.2623 0.4426 0.2057
C5 C 0.4545(4) 0.3943(3) 0.1427(2)
H4 H 0.4348 0.3121 0.1382
C6 C 0.5865(3) 0.4408(3) 0.1095(2)
C7 C 0.7148(3) 0.3778(3) 0.0665(2)
C8 C 0.9635(4) 0.4395(3) 0.0069(3)
H5 H 1.0386 0.4659 0.0525
H6 H 0.9753 0.4809 -0.0553
H7 H 0.9727 0.3541 -0.0036
C9 C 0.7673(3) 0.5817(2) 0.0724(2)
C10 C 0.8538(3) 0.6790(3) 0.0597(2)
H8 H 0.9496 0.6652 0.0370
C11 C 0.8118(3) 0.8056(3) 0.0784(2)
C12 C 0.9272(3) 0.8909(3) 0.1127(2)
C13 C 1.0634(3) 0.8529(3) 0.1459(2)
H9 H 1.0851 0.7709 0.1466
C14 C 1.1676(4) 0.9339(3) 0.1780(3)
H10 H 1.2594 0.9069 0.2000
C15 C 1.1362(4) 1.0549(3) 0.1776(3)
H11 H 1.2066 1.1103 0.1992
C16 C 1.0003(4) 1.0941(3) 0.1452(2)
H12 H 0.9785 1.1761 0.1456
C17 C 0.8970(3) 1.0135(2) 0.1122(2)
H13 H 0.8059 1.0411 0.0894
loop_
_geom_bond_atom_site_label_1
_geom_bond_atom_site_label_2
_geom_bond_site_symmetry_1
_geom_bond_site_symmetry_2
N1 C7 1_555 1_555
O1 C7 1_555 1_555
O2 C11 1_555 1_555
C1 C2 1_555 1_555
C2 H1 1_555 1_555
C3 C2 1_555 1_555
H2 C3 1_555 1_555
C4 C3 1_555 1_555
H3 C4 1_555 1_555
C5 C4 1_555 1_555
H4 C5 1_555 1_555
C6 C1 1_555 1_555
C7 C6 1_555 1_555
C8 N1 1_555 1_555
H5 C8 1_555 1_555
H6 C8 1_555 1_555
H7 C8 1_555 1_555
C9 N1 1_555 1_555
C10 C9 1_555 1_555
H8 C10 1_555 1_555
C11 C10 1_555 1_555
C12 C11 1_555 1_555
C13 C12 1_555 1_555
H9 C13 1_555 1_555
C14 C13 1_555 1_555
H10 C14 1_555 1_555
C15 C14 1_555 1_555
H11 C15 1_555 1_555
C16 C15 1_555 1_555
H12 C16 1_555 1_555
C17 C12 1_555 1_555
H13 C17 1_555 1_555
C1 C9 1_555 1_555
C5 C6 1_555 1_555
C16 C17 1_555 1_555

#END
