
#######################################################################
#
#                 Cambridge Crystallographic Data Centre
#                                CCDC 
#
#######################################################################
#
# If this CIF has been generated from an entry in the Cambridge 
# Structural Database, then it will include bibliographic, chemical, 
# crystal, experimental, refinement or atomic coordinate data resulting 
# from the CCDC's data processing and validation procedures.
#
#######################################################################

data_HIYXIW
_chemical_formula_moiety         'C18 H43 B8 Br1 Si2'
_chemical_name_systematic        
nido-1-Bromo-2,6-di-n-butyl-4,12-bis(trimethylsilyl)-2,4,6,12-tetracarbadodecaborane
_symmetry_cell_setting           monoclinic
_symmetry_space_group_name_H-M   'P 21/m'
_symmetry_Int_Tables_number      11
_space_group_name_Hall           '-P 2yb'
loop_
_symmetry_equiv_pos_site_id
_symmetry_equiv_pos_as_xyz
1 x,y,z
2 -x,1/2+y,-z
3 -x,-y,-z
4 x,1/2-y,z
_cell_length_a                   9.8390(10)
_cell_length_b                   13.9250(10)
_cell_length_c                   10.7090(10)
_cell_angle_alpha                90
_cell_angle_beta                 108.190(10)
_cell_angle_gamma                90
_cell_volume                     1393.9
_exptl_crystal_colour            colorless
_chemical_melting_point          75-76deg.C
_cell_formula_units_Z            2
_exptl_crystal_recrystallization_method hexane
loop_
_atom_site_label
_atom_site_type_symbol
_atom_site_fract_x
_atom_site_fract_y
_atom_site_fract_z
Br1 Br 0.4800(1) 0.2500 0.9790(1)
Si1 Si 0.8709(2) 0.2500 0.6864(1)
Si2 Si 1.2127(1) 0.2500 1.2568(1)
C1 C 0.8845(5) 0.2500 0.8659(5)
B1 B 0.8377(4) 0.1497(3) 0.9221(4)
C2 C 0.7704(3) 0.1574(2) 1.0465(3)
B2 B 0.6842(6) 0.2500 1.0185(5)
B3 B 1.0179(4) 0.1871(3) 0.9729(4)
B4 B 0.9488(4) 0.1439(3) 1.0906(4)
B5 B 0.8703(6) 0.2500 1.1538(5)
C3 C 1.0359(5) 0.2500 1.1180(4)
C4 C 0.7059(4) 0.0672(3) 1.0858(3)
C5 C 0.7110(4) 0.0643(2) 1.2296(3)
C6 C 0.6369(4) -0.0229(2) 1.2622(3)
C7 C 0.6472(5) -0.0286(3) 1.4070(4)
C8 C 0.6762(7) 0.2500 0.5927(6)
C9 C 0.9561(5) 0.1407(3) 0.6439(4)
C10 C 1.1716(6) 0.2500 1.4139(5)
C11 C 1.3167(4) 0.1412(3) 1.2461(4)
H1 H 0.7961 0.0767 0.8476
H2 H 1.1140 0.1532 0.9511
H3 H 0.9926 0.0834 1.1595
H4 H 0.8824 0.2500 1.2584
H5 H 0.7576 0.0126 1.0695
H6 H 0.6077 0.0630 1.0321
H7 H 0.6651 0.1210 1.2482
H8 H 0.8092 0.0636 1.2839
H9 H 0.5377 -0.0205 1.2110
H10 H 0.6798 -0.0795 1.2397
H11 H 0.5985 -0.0850 1.4220
H12 H 0.6039 0.0274 1.4307
H13 H 0.7460 -0.0316 1.4594
H14 H 0.6616 0.2500 0.5010
H15 H 0.6312 0.3065 0.6158
H16 H 1.0563 0.1406 0.6923
H17 H 0.9440 0.1407 0.5514
H18 H 0.9119 0.0845 0.6659
H19 H 1.2587 0.2500 1.4875
H20 H 1.1166 0.3063 1.4204
H21 H 1.3377 0.1416 1.1644
H22 H 1.2619 0.0850 1.2505
H23 H 1.4045 0.1407 1.3178
H15C H 0.6312 0.1935 0.6158
C9C C 0.9561(5) 0.3593(3) 0.6439(4)
H16C H 1.0563 0.3594 0.6923
H17C H 0.9440 0.3593 0.5514
H18C H 0.9119 0.4155 0.6659
B1C B 0.8377(4) 0.3503(3) 0.9221(4)
C2C C 0.7704(3) 0.3426(2) 1.0465(3)
B3C B 1.0179(4) 0.3129(3) 0.9729(4)
B4C B 0.9488(4) 0.3561(3) 1.0906(4)
H20C H 1.1166 0.1937 1.4204
C11C C 1.3167(4) 0.3588(3) 1.2461(4)
H21C H 1.3377 0.3584 1.1644
H22C H 1.2619 0.4150 1.2505
H23C H 1.4045 0.3593 1.3178
H2C H 1.1140 0.3468 0.9511
H3C H 0.9926 0.4166 1.1595
C4C C 0.7059(4) 0.4328(3) 1.0858(3)
C5C C 0.7110(4) 0.4357(2) 1.2296(3)
C6C C 0.6369(4) 0.5229(2) 1.2622(3)
C7C C 0.6472(5) 0.5286(3) 1.4070(4)
H11C H 0.5985 0.5850 1.4220
H12C H 0.6039 0.4726 1.4307
H13C H 0.7460 0.5316 1.4594
H9C H 0.5377 0.5205 1.2110
H10C H 0.6798 0.5795 1.2397
H7C H 0.6651 0.3790 1.2482
H8C H 0.8092 0.4364 1.2839
H5C H 0.7576 0.4874 1.0695
H6C H 0.6077 0.4370 1.0321
H1C H 0.7961 0.4233 0.8476
loop_
_geom_bond_atom_site_label_1
_geom_bond_atom_site_label_2
_geom_bond_site_symmetry_1
_geom_bond_site_symmetry_2
Br1 B2 1_555 1_555
Si1 C1 1_555 1_555
Si2 C3 1_555 1_555
C1 B1 1_555 1_555
B1 C2 1_555 1_555
C2 B2 1_555 1_555
B2 B5 1_555 1_555
B3 C1 1_555 1_555
B4 B1 1_555 1_555
B5 C2 1_555 1_555
C3 B3 1_555 1_555
C4 C2 1_555 1_555
C5 C4 1_555 1_555
C6 C5 1_555 1_555
C7 C6 1_555 1_555
C8 Si1 1_555 1_555
C9 Si1 1_555 1_555
C10 Si2 1_555 1_555
C11 Si2 1_555 1_555
H1 B1 1_555 1_555
H2 B3 1_555 1_555
H3 B4 1_555 1_555
H4 B5 1_555 1_555
H5 C4 1_555 1_555
H6 C4 1_555 1_555
H7 C5 1_555 1_555
H8 C5 1_555 1_555
H9 C6 1_555 1_555
H10 C6 1_555 1_555
H11 C7 1_555 1_555
H12 C7 1_555 1_555
H13 C7 1_555 1_555
H14 C8 1_555 1_555
H15 C8 1_555 1_555
H16 C9 1_555 1_555
H17 C9 1_555 1_555
H18 C9 1_555 1_555
H19 C10 1_555 1_555
H20 C10 1_555 1_555
H21 C11 1_555 1_555
H22 C11 1_555 1_555
H23 C11 1_555 1_555
H15C C8 1_555 1_555
C9C Si1 1_555 1_555
H16C C9C 1_555 1_555
H17C C9C 1_555 1_555
H18C C9C 1_555 1_555
B1C C1 1_555 1_555
C2C B2 1_555 1_555
B3C C1 1_555 1_555
B4C B5 1_555 1_555
H20C C10 1_555 1_555
C11C Si2 1_555 1_555
H21C C11C 1_555 1_555
H22C C11C 1_555 1_555
H23C C11C 1_555 1_555
H2C B3C 1_555 1_555
H3C B4C 1_555 1_555
C4C C2C 1_555 1_555
C5C C4C 1_555 1_555
C6C C5C 1_555 1_555
C7C C6C 1_555 1_555
H11C C7C 1_555 1_555
H12C C7C 1_555 1_555
H13C C7C 1_555 1_555
H9C C6C 1_555 1_555
H10C C6C 1_555 1_555
H7C C5C 1_555 1_555
H8C C5C 1_555 1_555
H5C C4C 1_555 1_555
H6C C4C 1_555 1_555
H1C B1C 1_555 1_555
B1 B3 1_555 1_555
C2 B4 1_555 1_555
B3 B4 1_555 1_555
B3 B3C 1_555 1_555
B4 B5 1_555 1_555
B4 C3 1_555 1_555
B5 C3 1_555 1_555
B5 C2C 1_555 1_555
C3 B3C 1_555 1_555
C3 B4C 1_555 1_555
B1C C2C 1_555 1_555
B1C B4C 1_555 1_555
B1C B3C 1_555 1_555
C2C B4C 1_555 1_555
B3C B4C 1_555 1_555

#END
