
#######################################################################
#
#                 Cambridge Crystallographic Data Centre
#                                CCDC 
#
#######################################################################
#
# If this CIF has been generated from an entry in the Cambridge 
# Structural Database, then it will include bibliographic, chemical, 
# crystal, experimental, refinement or atomic coordinate data resulting 
# from the CCDC's data processing and validation procedures.
#
#######################################################################

data_HIYXAO
_chemical_formula_moiety         'C18 H44 B8 Si2'
_chemical_name_systematic        
nido-1,4-bis(Trimethylsilyl)-2,3-di-n-butyl-1,2,3,4-tetracarbadodecaborane
_symmetry_cell_setting           monoclinic
_symmetry_space_group_name_H-M   'P 21/m'
_symmetry_Int_Tables_number      11
_space_group_name_Hall           '-P 2yb'
loop_
_symmetry_equiv_pos_site_id
_symmetry_equiv_pos_as_xyz
1 x,y,z
2 -x,1/2+y,-z
3 -x,-y,-z
4 x,1/2-y,z
_cell_length_a                   8.385(10)
_cell_length_b                   14.213(2)
_cell_length_c                   11.422(2)
_cell_angle_alpha                90
_cell_angle_beta                 103.150(10)
_cell_angle_gamma                90
_cell_volume                     1325.53
_exptl_crystal_colour            colorless
_chemical_melting_point          55-56deg.C
_cell_formula_units_Z            2
loop_
_atom_site_label
_atom_site_type_symbol
_atom_site_fract_x
_atom_site_fract_y
_atom_site_fract_z
Si1 Si 0.7501(1) 0.2500 0.2657(1)
Si2 Si 1.2107(2) 0.2500 0.8731(1)
C1 C 0.9121(5) 0.2500 0.4112(3)
C2 C 0.9045(7) 0.2114(4) 0.5335(5)
C3 C 0.9755(7) 0.2155(4) 0.6264(5)
C4 C 1.1357(5) 0.2500 0.7042(3)
B1 B 1.1475(4) 0.1538(3) 0.6183(3)
B2 B 1.0278(4) 0.1540(3) 0.4629(3)
B3 B 1.1005(6) 0.2500 0.3865(4)
B4 B 1.2383(4) 0.1866(3) 0.4981(3)
B5 B 1.2897(6) 0.2500 0.6340(4)
C5 C 0.7596(7) 0.1546(4) 0.5518(5)
C7 C 0.7704(6) 0.0925(3) 0.6363(5)
C8 C 0.6342(4) 0.0470(2) 0.6817(3)
C9 C 0.6952(5) -0.0117(3) 0.7926(3)
C10 C 0.7782(4) 0.1420(3) 0.1799(3)
C11 C 0.5413(5) 0.2500 0.2938(4)
C12 C 1.3360(7) 0.1444(4) 0.9174(3)
C13 C 1.0455(8) 0.2500 0.9530(5)
H1 H 1.1627(31) 0.0811(20) 0.6609(22)
H2 H 0.9904(31) 0.0836(22) 0.4272(21)
H3 H 1.1067(46) 0.2500 0.2932(35)
H4 H 1.3323(33) 0.1430(20) 0.4752(22)
H5 H 1.4066(52) 0.2500 0.6830(34)
H6 H 0.6761 0.1982 0.5615
H7 H 0.7187 0.1219 0.4775
H10 H 0.8477 0.0431 0.6301
H13 H 0.8409 0.1217 0.7062
H14 H 0.5641 0.0955 0.7003
H15 H 0.5729 0.0073 0.6195
H16 H 0.6036 -0.0390 0.8177
H17 H 0.7560 0.0273 0.8558
H18 H 0.7648 -0.0608 0.7751
H19 H 0.8864 0.1417 0.1652
H20 H 0.6987 0.1414 0.1047
H21 H 0.7638 0.0874 0.2258
H22 H 0.4608 0.2500 0.2174
H23 H 0.5242 0.1948 0.3378
H24 H 1.4237 0.1432 0.8761
H25 H 1.2692 0.0893 0.8966
H26 H 1.3806 0.1454 1.0026
H27 H 1.0848 0.2500 1.0357
H28 H 0.9757 0.3052 0.9278
C2C C 0.9045(7) 0.2886(4) 0.5335(5)
C3C C 0.9755(7) 0.2845(4) 0.6264(5)
C12C C 1.3360(7) 0.3556(4) 0.9174(3)
H24C H 1.4237 0.3568 0.8761
H25C H 1.2692 0.4107 0.8966
H26C H 1.3806 0.3546 1.0026
H28C H 0.9757 0.1948 0.9278
B1C B 1.1475(4) 0.3462(3) 0.6183(3)
B2C B 1.0278(4) 0.3460(3) 0.4629(3)
C5C C 0.7596(7) 0.3454(4) 0.5518(5)
C7C C 0.7704(6) 0.4075(3) 0.6363(5)
C8C C 0.6342(4) 0.4530(2) 0.6817(3)
C9C C 0.6952(5) 0.5117(3) 0.7926(3)
H16C H 0.6036 0.5390 0.8177
H17C H 0.7560 0.4727 0.8558
H18C H 0.7648 0.5608 0.7751
H14C H 0.5641 0.4045 0.7003
H15C H 0.5729 0.4927 0.6195
H10C H 0.8477 0.4569 0.6301
H13C H 0.8409 0.3783 0.7062
H6C H 0.6761 0.3018 0.5615
H7C H 0.7187 0.3781 0.4775
B4C B 1.2383(4) 0.3134(3) 0.4981(3)
H1C H 1.1627(31) 0.4189(20) 0.6609(22)
H4C H 1.3323(33) 0.3570(20) 0.4752(22)
H2C H 0.9904(31) 0.4164(22) 0.4272(21)
C10C C 0.7782(4) 0.3580(3) 0.1799(3)
H19C H 0.8864 0.3583 0.1652
H20C H 0.6987 0.3586 0.1047
H21C H 0.7638 0.4126 0.2258
H23C H 0.5242 0.3052 0.3378
C6? C 0.8592(7) 0.1596(5) 0.6886(5)
H8? H 0.7850 0.2043 0.7102
H9? H 0.9247 0.1352 0.7624
H11? H 0.7261 0.1137 0.5565
H12? H 0.8352 0.0419 0.6148
loop_
_geom_bond_atom_site_label_1
_geom_bond_atom_site_label_2
_geom_bond_site_symmetry_1
_geom_bond_site_symmetry_2
Si1 C1 1_555 1_555
Si2 C4 1_555 1_555
C1 C2 1_555 1_555
C2 C3 1_555 1_555
C3 C4 1_555 1_555
C4 B1 1_555 1_555
B1 C3 1_555 1_555
B2 C1 1_555 1_555
B3 C1 1_555 1_555
B4 B1 1_555 1_555
B5 C4 1_555 1_555
C5 C2 1_555 1_555
C7 C5 1_555 1_555
C8 C7 1_555 1_555
C9 C8 1_555 1_555
C10 Si1 1_555 1_555
C11 Si1 1_555 1_555
C12 Si2 1_555 1_555
C13 Si2 1_555 1_555
H1 B1 1_555 1_555
H2 B2 1_555 1_555
H3 B3 1_555 1_555
H4 B4 1_555 1_555
H5 B5 1_555 1_555
H6 C5 1_555 1_555
H7 C5 1_555 1_555
H10 C7 1_555 1_555
H13 C7 1_555 1_555
H14 C8 1_555 1_555
H15 C8 1_555 1_555
H16 C9 1_555 1_555
H17 C9 1_555 1_555
H18 C9 1_555 1_555
H19 C10 1_555 1_555
H20 C10 1_555 1_555
H21 C10 1_555 1_555
H22 C11 1_555 1_555
H23 C11 1_555 1_555
H24 C12 1_555 1_555
H25 C12 1_555 1_555
H26 C12 1_555 1_555
H27 C13 1_555 1_555
H28 C13 1_555 1_555
C2C C1 1_555 1_555
C3C C2 1_555 1_555
C12C Si2 1_555 1_555
H24C C12C 1_555 1_555
H25C C12C 1_555 1_555
H26C C12C 1_555 1_555
H28C C13 1_555 1_555
B1C C4 1_555 1_555
B2C C1 1_555 1_555
C5C C2C 1_555 1_555
C7C C5C 1_555 1_555
C8C C7C 1_555 1_555
C9C C8C 1_555 1_555
H16C C9C 1_555 1_555
H17C C9C 1_555 1_555
H18C C9C 1_555 1_555
H14C C8C 1_555 1_555
H15C C8C 1_555 1_555
H10C C7C 1_555 1_555
H13C C7C 1_555 1_555
H6C C5C 1_555 1_555
H7C C5C 1_555 1_555
B4C B3 1_555 1_555
H1C B1C 1_555 1_555
H4C B4C 1_555 1_555
H2C B2C 1_555 1_555
C10C Si1 1_555 1_555
H19C C10C 1_555 1_555
H20C C10C 1_555 1_555
H21C C10C 1_555 1_555
H23C C11 1_555 1_555
C2 C2C 1_555 1_555
C2 B2 1_555 1_555
C3 C2C 1_555 1_555
C3 C3C 1_555 1_555
C4 C3C 1_555 1_555
B1 B5 1_555 1_555
B1 B2 1_555 1_555
B2 B3 1_555 1_555
B2 B4 1_555 1_555
B3 B4 1_555 1_555
B3 B2C 1_555 1_555
B4 B5 1_555 1_555
B4 B4C 1_555 1_555
B5 B1C 1_555 1_555
B5 B4C 1_555 1_555
C2C C3C 1_555 1_555
C2C B2C 1_555 1_555
C3C B1C 1_555 1_555
B1C B4C 1_555 1_555
B1C B2C 1_555 1_555
B2C B4C 1_555 1_555

#END
