
#######################################################################
#
#                 Cambridge Crystallographic Data Centre
#                                CCDC 
#
#######################################################################
#
# If this CIF has been generated from an entry in the Cambridge 
# Structural Database, then it will include bibliographic, chemical, 
# crystal, experimental, refinement or atomic coordinate data resulting 
# from the CCDC's data processing and validation procedures.
#
#######################################################################

data_HIZFAY
_chemical_formula_moiety         'C13 H5 N1'
_chemical_name_systematic        2,5-bis(Buta-1,3-diynyl)pyridine
_symmetry_cell_setting           monoclinic
_symmetry_space_group_name_H-M   'P 21/c'
_symmetry_Int_Tables_number      14
_space_group_name_Hall           '-P 2ybc'
loop_
_symmetry_equiv_pos_site_id
_symmetry_equiv_pos_as_xyz
1 x,y,z
2 -x,1/2+y,1/2-z
3 -x,-y,-z
4 x,1/2-y,1/2+z
_cell_length_a                   3.7926(8)
_cell_length_b                   20.217(4)
_cell_length_c                   12.385(3)
_cell_angle_alpha                90
_cell_angle_beta                 94.91(1)
_cell_angle_gamma                90
_cell_volume                     946.135
_exptl_crystal_colour            brown
_exptl_crystal_description       needle
_cell_formula_units_Z            4
_exptl_crystal_recrystallization_method dichloromethane/ether
loop_
_atom_site_label
_atom_site_type_symbol
_atom_site_fract_x
_atom_site_fract_y
_atom_site_fract_z
N1 N 0.1952(12) 0.28856(19) 0.3529(3)
C1 C 0.0662(13) 0.2846(2) 0.4520(4)
C2 C 0.0128(14) 0.3396(2) 0.5141(4)
H1 H -0.0734 0.3349 0.5835
C3 C 0.0882(13) 0.4006(2) 0.4759(4)
H2 H 0.0472 0.4388 0.5177
C4 C 0.2179(14) 0.4069(2) 0.3765(4)
C5 C 0.2618(14) 0.3491(3) 0.3167(4)
H3 H 0.3426 0.3533 0.2465
C6 C -0.0108(14) 0.2187(3) 0.4889(4)
C7 C -0.0807(14) 0.1649(3) 0.5209(4)
C8 C -0.1581(14) 0.1021(3) 0.5552(4)
C9 C -0.2205(15) 0.0482(3) 0.5844(4)
H4 H -0.2682 0.0048 0.6088
C10 C 0.3037(14) 0.4702(3) 0.3345(4)
C11 C 0.3785(15) 0.5237(3) 0.2995(4)
C12 C 0.4683(14) 0.5844(3) 0.2597(4)
C13 C 0.5503(16) 0.6373(3) 0.2263(4)
H5 H 0.6140 0.6793 0.1997
loop_
_geom_bond_atom_site_label_1
_geom_bond_atom_site_label_2
_geom_bond_site_symmetry_1
_geom_bond_site_symmetry_2
N1 C1 1_555 1_555
C1 C2 1_555 1_555
C2 H1 1_555 1_555
C3 C2 1_555 1_555
H2 C3 1_555 1_555
C4 C3 1_555 1_555
C5 N1 1_555 1_555
H3 C5 1_555 1_555
C6 C1 1_555 1_555
C7 C6 1_555 1_555
C8 C7 1_555 1_555
C9 C8 1_555 1_555
H4 C9 1_555 1_555
C10 C4 1_555 1_555
C11 C10 1_555 1_555
C12 C11 1_555 1_555
C13 C12 1_555 1_555
H5 C13 1_555 1_555
C4 C5 1_555 1_555

#END
