
#######################################################################
#
#                 Cambridge Crystallographic Data Centre
#                                CCDC 
#
#######################################################################
#
# If this CIF has been generated from an entry in the Cambridge 
# Structural Database, then it will include bibliographic, chemical, 
# crystal, experimental, refinement or atomic coordinate data resulting 
# from the CCDC's data processing and validation procedures.
#
#######################################################################

data_HIZFEC
_chemical_formula_moiety         'C19 H16 O3'
_chemical_name_systematic        
6-(4-(Buta-1,3-diynyl)-2,5-dimethoxyphenyl)-2-methylhexa-3,5-diyn-2-ol
_symmetry_cell_setting           monoclinic
_symmetry_space_group_name_H-M   'C 2/c'
_symmetry_Int_Tables_number      15
_space_group_name_Hall           '-C 2yn'
loop_
_symmetry_equiv_pos_site_id
_symmetry_equiv_pos_as_xyz
1 x,y,z
2 1/2+x,1/2+y,z
3 -x,y,1/2-z
4 1/2-x,1/2+y,1/2-z
5 -x,-y,-z
6 1/2-x,1/2-y,-z
7 x,-y,1/2+z
8 1/2+x,1/2-y,1/2+z
_cell_length_a                   17.555(2)
_cell_length_b                   9.126(1)
_cell_length_c                   19.831(2)
_cell_angle_alpha                90
_cell_angle_beta                 101.46(1)
_cell_angle_gamma                90
_cell_volume                     3113.72
_exptl_crystal_colour            'light yellow'
_exptl_crystal_description       needle
_cell_formula_units_Z            8
_exptl_crystal_recrystallization_method deuterochloroform
loop_
_atom_site_label
_atom_site_type_symbol
_atom_site_fract_x
_atom_site_fract_y
_atom_site_fract_z
O1 O 0.54645(7) 0.12119(13) 0.66339(6)
O2 O 0.56449(7) 0.72214(12) 0.69650(6)
O3 O 0.29417(8) 0.96900(15) 0.35288(6)
H1 H 0.3426(14) 0.960(3) 0.3433(13)
C1 C 0.54961(10) 0.27113(18) 0.66831(9)
C2 C 0.60210(10) 0.32724(19) 0.72527(8)
C3 C 0.60872(10) 0.47853(19) 0.73555(9)
H2 H 0.6435(9) 0.5166(19) 0.7734(8)
C4 C 0.56421(10) 0.57336(18) 0.69006(9)
C5 C 0.51356(9) 0.51782(19) 0.63158(8)
C6 C 0.50663(10) 0.36596(19) 0.62143(9)
H3 H 0.4719(9) 0.3333(17) 0.5810(8)
C7 C 0.64883(10) 0.22746(19) 0.77142(8)
C8 C 0.68722(10) 0.13751(19) 0.80756(9)
C9 C 0.72902(10) 0.0301(2) 0.84769(9)
C10 C 0.76438(13) -0.0650(2) 0.88060(10)
H4 H 0.7914(13) -0.140(2) 0.9060(11)
C11 C 0.46935(10) 0.61755(19) 0.58347(9)
C12 C 0.43212(10) 0.70450(19) 0.54496(9)
C13 C 0.38798(10) 0.80742(19) 0.50276(9)
C14 C 0.35040(10) 0.8979(2) 0.46763(9)
C15 C 0.30573(10) 1.0128(2) 0.42369(9)
C16 C 0.22474(12) 1.0270(3) 0.43865(12)
H5 H 0.1978(11) 0.930(2) 0.4277(9)
H6 H 0.2288(11) 1.061(2) 0.4869(10)
H7 H 0.1966(12) 1.103(2) 0.4076(11)
C17 C 0.34988(13) 1.1577(2) 0.43529(12)
H8 H 0.4001(12) 1.148(2) 0.4217(10)
H9 H 0.3544(11) 1.189(2) 0.4852(11)
H10 H 0.3228(11) 1.232(2) 0.4056(10)
C18 C 0.48364(12) 0.0582(2) 0.61467(11)
H11 H 0.4868(9) -0.053(2) 0.6243(8)
H12 H 0.4325(11) 0.099(2) 0.6222(9)
H13 H 0.4923(11) 0.077(2) 0.5659(10)
C19 C 0.61525(13) 0.7831(2) 0.75556(10)
H14 H 0.6707(11) 0.761(2) 0.7549(9)
H15 H 0.6009(11) 0.743(2) 0.7996(10)
H16 H 0.6048(10) 0.886(2) 0.7531(9)
loop_
_geom_bond_atom_site_label_1
_geom_bond_atom_site_label_2
_geom_bond_site_symmetry_1
_geom_bond_site_symmetry_2
O1 C1 1_555 1_555
O2 C4 1_555 1_555
O3 H1 1_555 1_555
C1 C2 1_555 1_555
C2 C3 1_555 1_555
C3 H2 1_555 1_555
C4 C3 1_555 1_555
C5 C4 1_555 1_555
C6 C1 1_555 1_555
H3 C6 1_555 1_555
C7 C2 1_555 1_555
C8 C7 1_555 1_555
C9 C8 1_555 1_555
C10 C9 1_555 1_555
H4 C10 1_555 1_555
C11 C5 1_555 1_555
C12 C11 1_555 1_555
C13 C12 1_555 1_555
C14 C13 1_555 1_555
C15 O3 1_555 1_555
C16 C15 1_555 1_555
H5 C16 1_555 1_555
H6 C16 1_555 1_555
H7 C16 1_555 1_555
C17 C15 1_555 1_555
H8 C17 1_555 1_555
H9 C17 1_555 1_555
H10 C17 1_555 1_555
C18 O1 1_555 1_555
H11 C18 1_555 1_555
H12 C18 1_555 1_555
H13 C18 1_555 1_555
C19 O2 1_555 1_555
H14 C19 1_555 1_555
H15 C19 1_555 1_555
H16 C19 1_555 1_555
C5 C6 1_555 1_555
C14 C15 1_555 1_555

#END
