
#######################################################################
#
#                 Cambridge Crystallographic Data Centre
#                                CCDC 
#
#######################################################################
#
# If this CIF has been generated from an entry in the Cambridge 
# Structural Database, then it will include bibliographic, chemical, 
# crystal, experimental, refinement or atomic coordinate data resulting 
# from the CCDC's data processing and validation procedures.
#
#######################################################################

data_HIZGOO
_chemical_formula_moiety         'C11 H9 Cl3 O1'
_chemical_name_systematic        
5-Chloro-4-(2,4-dichlorophenyl)pent-3-en-2-one
_symmetry_cell_setting           monoclinic
_symmetry_space_group_name_H-M   'P 21/n'
_symmetry_Int_Tables_number      14
_space_group_name_Hall           '-P 2yn'
loop_
_symmetry_equiv_pos_site_id
_symmetry_equiv_pos_as_xyz
1 x,y,z
2 1/2-x,1/2+y,1/2-z
3 -x,-y,-z
4 1/2+x,1/2-y,1/2+z
_cell_length_a                   10.463(3)
_cell_length_b                   12.044(4)
_cell_length_c                   10.740(4)
_cell_angle_alpha                90
_cell_angle_beta                 118.36(2)
_cell_angle_gamma                90
_cell_volume                     1190.98
_exptl_crystal_colour            colorless
_exptl_crystal_description       block
_cell_formula_units_Z            4
loop_
_atom_site_label
_atom_site_type_symbol
_atom_site_fract_x
_atom_site_fract_y
_atom_site_fract_z
Cl1 Cl 0.27342(8) 0.03409(7) 0.67732(7)
Cl2 Cl -0.14776(8) -0.05636(7) 0.71792(8)
Cl3 Cl 0.56887(8) -0.26937(6) 1.07602(9)
C1 C 0.2989(3) -0.0372(2) 0.8285(2)
C2 C 0.2131(2) -0.0125(2) 0.8911(2)
C3 C -0.0095(3) 0.2452(2) 0.8830(3)
C4 C 0.0928(3) 0.0709(2) 0.8347(2)
C5 C 0.1007(2) 0.1580(2) 0.9141(2)
H1 H 0.1859 0.1648 0.9995
C6 C 0.4317(3) -0.1713(2) 1.0042(3)
C7 C 0.4079(3) -0.1150(2) 0.8836(3)
H2 H 0.4646 -0.1294 0.8401
C8 C -0.0361(3) 0.0448(2) 0.6938(2)
H3 H -0.0033 0.0162 0.6294
H4 H -0.0918 0.1118 0.6531
C9 C 0.2420(3) -0.0706(2) 1.0130(3)
H5 H 0.1868 -0.0554 1.0580
O1 O -0.1202(2) 0.25347(19) 0.7720(2)
C10 C 0.3494(3) -0.1502(2) 1.0704(3)
H6 H 0.3657 -0.1886 1.1518
C11 C 0.0231(4) 0.3253(3) 1.0002(4)
H7 H -0.0536 0.3791 0.9701
H8 H 0.1132 0.3623 1.0247
H9 H 0.0306 0.2860 1.0811
loop_
_geom_bond_atom_site_label_1
_geom_bond_atom_site_label_2
_geom_bond_site_symmetry_1
_geom_bond_site_symmetry_2
Cl1 C1 1_555 1_555
Cl2 C8 1_555 1_555
Cl3 C6 1_555 1_555
C1 C2 1_555 1_555
C2 C4 1_555 1_555
C3 C5 1_555 1_555
C4 C5 1_555 1_555
C5 H1 1_555 1_555
C6 C7 1_555 1_555
C7 C1 1_555 1_555
H2 C7 1_555 1_555
C8 C4 1_555 1_555
H3 C8 1_555 1_555
H4 C8 1_555 1_555
C9 C2 1_555 1_555
H5 C9 1_555 1_555
O1 C3 1_555 1_555
C10 C6 1_555 1_555
H6 C10 1_555 1_555
C11 C3 1_555 1_555
H7 C11 1_555 1_555
H8 C11 1_555 1_555
H9 C11 1_555 1_555
C9 C10 1_555 1_555

#END
