
#######################################################################
#
#                 Cambridge Crystallographic Data Centre
#                                CCDC 
#
#######################################################################
#
# If this CIF has been generated from an entry in the Cambridge 
# Structural Database, then it will include bibliographic, chemical, 
# crystal, experimental, refinement or atomic coordinate data resulting 
# from the CCDC's data processing and validation procedures.
#
#######################################################################

data_HIZHII
_chemical_formula_moiety         'C6 H4 N8 O4'
_chemical_name_systematic        
4,4'-(1,4,2,5-Dioxadiazine-3,6-diyl)bis(1,2,5-oxadiazol-3-amine)
_symmetry_cell_setting           triclinic
_symmetry_space_group_name_H-M   'P -1'
_symmetry_Int_Tables_number      2
_space_group_name_Hall           '-P 1'
loop_
_symmetry_equiv_pos_site_id
_symmetry_equiv_pos_as_xyz
1 x,y,z
2 -x,-y,-z
_cell_length_a                   4.8616(10)
_cell_length_b                   5.237(2)
_cell_length_c                   9.7076(19)
_cell_angle_alpha                102.25(3)
_cell_angle_beta                 93.631(17)
_cell_angle_gamma                101.88(2)
_cell_volume                     234.872
_exptl_crystal_colour            colorless
_chemical_melting_point          '233.4-235.7 deg.C'
_cell_formula_units_Z            1
_exptl_crystal_recrystallization_method acetone
loop_
_atom_site_label
_atom_site_type_symbol
_atom_site_fract_x
_atom_site_fract_y
_atom_site_fract_z
O1 O 0.0125(3) 0.7701(3) 0.36745(15)
O2 O 0.1792(4) 0.2501(3) 0.03234(16)
N1 N -0.4872(4) 0.1774(4) 0.3296(2)
N2 N -0.2241(4) 0.6173(3) 0.41115(18)
N3 N 0.1029(4) 0.6244(3) 0.25294(17)
N4 N -0.2162(4) -0.0471(3) 0.08506(17)
C1 C -0.2743(4) 0.3813(4) 0.3233(2)
C2 C -0.0689(4) 0.3890(4) 0.22401(19)
C3 C -0.0391(4) 0.1761(4) 0.1059(2)
H1 H -0.5950(6) 0.1980(5) 0.4040(3)
H2 H -0.4890(5) 0.0250(5) 0.2760(2)
O1A O -0.0125(3) -0.7701(3) -0.36745(15)
O2A O -0.1792(4) -0.2501(3) -0.03234(16)
N1A N 0.4872(4) -0.1774(4) -0.3296(2)
N2A N 0.2241(4) -0.6173(3) -0.41115(18)
N3A N -0.1029(4) -0.6244(3) -0.25294(17)
N4A N 0.2162(4) 0.0471(3) -0.08506(17)
C1A C 0.2743(4) -0.3813(4) -0.3233(2)
C2A C 0.0689(4) -0.3890(4) -0.22401(19)
C3A C 0.0391(4) -0.1761(4) -0.1059(2)
H1A H 0.5950(6) -0.1980(5) -0.4040(3)
H2A H 0.4890(5) -0.0250(5) -0.2760(2)
loop_
_geom_bond_atom_site_label_1
_geom_bond_atom_site_label_2
_geom_bond_site_symmetry_1
_geom_bond_site_symmetry_2
O1 N2 1_555 1_555
O2 C3 1_555 1_555
N1 C1 1_555 1_555
N2 C1 1_555 1_555
N3 O1 1_555 1_555
N4 C3 1_555 1_555
C1 C2 1_555 1_555
C2 N3 1_555 1_555
C3 C2 1_555 1_555
H1 N1 1_555 1_555
H2 N1 1_555 1_555
O1A N2A 1_555 1_555
O2A N4 1_555 1_555
N1A C1A 1_555 1_555
N2A C1A 1_555 1_555
N3A O1A 1_555 1_555
N4A O2 1_555 1_555
C1A C2A 1_555 1_555
C2A N3A 1_555 1_555
C3A O2A 1_555 1_555
H1A N1A 1_555 1_555
H2A N1A 1_555 1_555
N4A C3A 1_555 1_555
C2A C3A 1_555 1_555

#END
