
#######################################################################
#
#                 Cambridge Crystallographic Data Centre
#                                CCDC 
#
#######################################################################
#
# If this CIF has been generated from an entry in the Cambridge 
# Structural Database, then it will include bibliographic, chemical, 
# crystal, experimental, refinement or atomic coordinate data resulting 
# from the CCDC's data processing and validation procedures.
#
#######################################################################

data_HIZHEE
_chemical_formula_moiety         'C17 H15 N1 O3 S1'
_chemical_name_systematic        N-(p-Toluenesulfonyl)-3-acetylindole
_symmetry_cell_setting           triclinic
_symmetry_space_group_name_H-M   'P -1'
_symmetry_Int_Tables_number      2
_space_group_name_Hall           '-P 1'
loop_
_symmetry_equiv_pos_site_id
_symmetry_equiv_pos_as_xyz
1 x,y,z
2 -x,-y,-z
_cell_length_a                   10.0264(13)
_cell_length_b                   12.5913(16)
_cell_length_c                   14.1621(18)
_cell_angle_alpha                111.933(2)
_cell_angle_beta                 107.593(2)
_cell_angle_gamma                93.675(2)
_cell_volume                     1548.93
_exptl_crystal_colour            grey-yellow
_exptl_crystal_description       needle
_cell_formula_units_Z            4
_exptl_crystal_recrystallization_method 'ethyl acetate/hexane'
loop_
_atom_site_label
_atom_site_type_symbol
_atom_site_fract_x
_atom_site_fract_y
_atom_site_fract_z
S1 S 0.87644(16) 0.83981(11) 0.26231(12)
O1 O 0.9768(5) 0.9392(3) 0.3487(4)
O2 O 0.8511(5) 0.8190(3) 0.1518(3)
O3 O 1.0229(5) 0.3539(3) 0.1976(4)
N1 N 0.9399(4) 0.7235(4) 0.2750(3)
C1 C 0.3141(8) 0.8108(8) 0.3271(9)
H1 H 0.2672 0.8671 0.3068
H2 H 0.3280 0.8283 0.4019
H3 H 0.2563 0.7340 0.2819
C2 C 0.4552(7) 0.8152(6) 0.3127(7)
C3 C 0.4642(7) 0.7558(6) 0.2153(6)
H4 H 0.3820 0.7094 0.1574
C4 C 0.5938(7) 0.7618(5) 0.1985(5)
H5 H 0.5985 0.7194 0.1303
C5 C 0.7143(6) 0.8314(4) 0.2841(5)
C6 C 0.7101(7) 0.8921(5) 0.3860(6)
H6 H 0.7924 0.9385 0.4439
C7 C 0.5785(9) 0.8823(6) 0.4001(7)
H7 H 0.5733 0.9210 0.4688
C8 C 1.0052(5) 0.7107(4) 0.3716(4)
C9 C 1.0482(6) 0.7904(5) 0.4783(5)
H8 H 1.0359 0.8672 0.4965
C10 C 1.1102(7) 0.7513(7) 0.5572(5)
H9 H 1.1384 0.8023 0.6302
C11 C 1.1311(8) 0.6386(7) 0.5299(5)
H10 H 1.1750 0.6156 0.5851
C12 C 1.0891(7) 0.5586(6) 0.4234(5)
H11 H 1.1044 0.4826 0.4062
C13 C 1.0230(6) 0.5947(4) 0.3419(4)
C14 C 0.9680(5) 0.5372(4) 0.2231(4)
C15 C 0.9148(5) 0.6171(4) 0.1876(4)
H12 H 0.8681 0.6027 0.1152
C16 C 0.9640(5) 0.4159(4) 0.1557(4)
C17 C 0.8950(6) 0.3709(5) 0.0359(5)
H13 H 0.9671 0.3629 0.0033
H14 H 0.8393 0.4245 0.0182
H15 H 0.8340 0.2961 0.0086
S2 S 0.39467(17) 0.40805(11) 0.12040(11)
O4 O 0.4875(5) 0.4198(4) 0.0673(3)
O5 O 0.2527(5) 0.4252(3) 0.0847(3)
O6 O 0.2369(6) -0.0609(4) 0.1422(6)
N2 N 0.3784(5) 0.2715(3) 0.1108(4)
C18 C 0.6742(10) 0.7211(7) 0.5966(6)
H16 H 0.6130 0.7745 0.6161
H17 H 0.7649 0.7640 0.6088
H18 H 0.6878 0.6772 0.6403
C19 C 0.6066(8) 0.6389(5) 0.4785(5)
C20 C 0.4591(7) 0.5966(6) 0.4322(5)
H19 H 0.4034 0.6173 0.4756
C21 C 0.3953(7) 0.5248(5) 0.3235(5)
H20 H 0.2972 0.4963 0.2936
C22 C 0.4779(6) 0.4955(4) 0.2594(4)
C23 C 0.6209(6) 0.5352(5) 0.3037(5)
H21 H 0.6765 0.5138 0.2602
C24 C 0.6853(7) 0.6078(6) 0.4139(5)
H22 H 0.7836 0.6353 0.4433
C25 C 0.4860(5) 0.2096(4) 0.1235(4)
C26 C 0.6264(7) 0.2335(5) 0.1231(5)
H23 H 0.6585 0.2996 0.1154
C27 C 0.7131(7) 0.1554(6) 0.1345(5)
H24 H 0.8060 0.1691 0.1357
C28 C 0.6617(7) 0.0553(6) 0.1444(5)
H25 H 0.7217 0.0032 0.1514
C29 C 0.5269(6) 0.0315(5) 0.1441(5)
H26 H 0.4938 -0.0357 0.1500
C30 C 0.4421(5) 0.1112(4) 0.1348(4)
C31 C 0.2955(6) 0.1141(4) 0.1308(4)
C32 C 0.2625(6) 0.2126(4) 0.1175(4)
H27 H 0.1757 0.2363 0.1135
C33 C 0.1986(8) 0.0287(5) 0.1399(5)
C34 C 0.0585(8) 0.0532(6) 0.1480(7)
H28 H -0.0072 -0.0193 0.1210
H29 H 0.0216 0.0959 0.1055
H30 H 0.0705 0.0986 0.2226
loop_
_geom_bond_atom_site_label_1
_geom_bond_atom_site_label_2
_geom_bond_site_symmetry_1
_geom_bond_site_symmetry_2
S1 O1 1_555 1_555
S2 O4 1_555 1_555
O2 S1 1_555 1_555
O3 C16 1_555 1_555
O5 S2 1_555 1_555
O6 C33 1_555 1_555
N1 S1 1_555 1_555
N2 S2 1_555 1_555
C1 H1 1_555 1_555
H2 C1 1_555 1_555
H3 C1 1_555 1_555
C2 C1 1_555 1_555
C3 C2 1_555 1_555
H4 C3 1_555 1_555
C4 C3 1_555 1_555
H5 C4 1_555 1_555
C5 S1 1_555 1_555
C6 C5 1_555 1_555
H6 C6 1_555 1_555
C7 C2 1_555 1_555
H7 C7 1_555 1_555
C8 N1 1_555 1_555
C9 C8 1_555 1_555
H8 C9 1_555 1_555
C10 C9 1_555 1_555
H9 C10 1_555 1_555
C11 C10 1_555 1_555
H10 C11 1_555 1_555
C12 C11 1_555 1_555
H11 C12 1_555 1_555
C13 C8 1_555 1_555
C14 C13 1_555 1_555
C15 N1 1_555 1_555
H12 C15 1_555 1_555
C16 C14 1_555 1_555
C17 C16 1_555 1_555
H13 C17 1_555 1_555
H14 C17 1_555 1_555
H15 C17 1_555 1_555
C18 H16 1_555 1_555
H17 C18 1_555 1_555
H18 C18 1_555 1_555
C19 C18 1_555 1_555
C20 C19 1_555 1_555
H19 C20 1_555 1_555
C21 C20 1_555 1_555
H20 C21 1_555 1_555
C22 S2 1_555 1_555
C23 C22 1_555 1_555
H21 C23 1_555 1_555
C24 C19 1_555 1_555
H22 C24 1_555 1_555
C25 N2 1_555 1_555
C26 C25 1_555 1_555
H23 C26 1_555 1_555
C27 C26 1_555 1_555
H24 C27 1_555 1_555
C28 C27 1_555 1_555
H25 C28 1_555 1_555
C29 C28 1_555 1_555
H26 C29 1_555 1_555
C30 C25 1_555 1_555
C31 C30 1_555 1_555
C32 N2 1_555 1_555
H27 C32 1_555 1_555
C33 C31 1_555 1_555
C34 C33 1_555 1_555
H28 C34 1_555 1_555
H29 C34 1_555 1_555
H30 C34 1_555 1_555
C4 C5 1_555 1_555
C6 C7 1_555 1_555
C12 C13 1_555 1_555
C14 C15 1_555 1_555
C21 C22 1_555 1_555
C23 C24 1_555 1_555
C29 C30 1_555 1_555
C31 C32 1_555 1_555

#END
