
#######################################################################
#
#                 Cambridge Crystallographic Data Centre
#                                CCDC 
#
#######################################################################
#
# If this CIF has been generated from an entry in the Cambridge 
# Structural Database, then it will include bibliographic, chemical, 
# crystal, experimental, refinement or atomic coordinate data resulting 
# from the CCDC's data processing and validation procedures.
#
#######################################################################

data_HIZQEO
_chemical_formula_moiety         'C14 H11 N3 O2'
_chemical_name_systematic        3-(4-methylphenyl)-6-nitro-1H-indazole
_symmetry_cell_setting           orthorhombic
_symmetry_space_group_name_H-M   'P b c a'
_symmetry_Int_Tables_number      61
_space_group_name_Hall           '-P 2ac 2ab'
loop_
_symmetry_equiv_pos_site_id
_symmetry_equiv_pos_as_xyz
1 x,y,z
2 1/2-x,-y,1/2+z
3 1/2+x,1/2-y,-z
4 -x,1/2+y,1/2-z
5 -x,-y,-z
6 1/2+x,y,1/2-z
7 1/2-x,1/2+y,z
8 x,1/2-y,1/2+z
_cell_length_a                   12.2236(12)
_cell_length_b                   9.7043(5)
_cell_length_c                   19.5840(11)
_cell_angle_alpha                90
_cell_angle_beta                 90
_cell_angle_gamma                90
_cell_volume                     2323.08
_exptl_crystal_colour            yellow
_chemical_melting_point          '452-455 K'
_cell_formula_units_Z            8
loop_
_atom_site_label
_atom_site_type_symbol
_atom_site_fract_x
_atom_site_fract_y
_atom_site_fract_z
C1 C 0.74663(10) 0.45800(13) 0.57639(6)
C2 C 0.68513(10) 0.36578(13) 0.53731(7)
H1 H 0.7170 0.3051 0.5064
C3 C 0.57400(11) 0.37130(13) 0.54792(6)
C4 C 0.52243(11) 0.46172(14) 0.59318(7)
H2 H 0.4467 0.4610 0.5976
C5 C 0.58439(10) 0.55135(14) 0.63091(7)
H3 H 0.5512 0.6116 0.6615
C6 C 0.69937(10) 0.55133(13) 0.62293(7)
C7 C 0.79125(10) 0.61971(13) 0.65338(7)
C8 C 0.79472(10) 0.72509(13) 0.70703(7)
C9 C 0.70066(10) 0.79585(14) 0.72682(7)
H4 H 0.6345 0.7764 0.7054
C10 C 0.70401(10) 0.89429(14) 0.77766(7)
H5 H 0.6400 0.9401 0.7897
C11 C 0.80085(10) 0.92640(14) 0.81119(7)
C12 C 0.89527(11) 0.85641(15) 0.79075(7)
H6 H 0.9615 0.8768 0.8119
C13 C 0.89275(11) 0.75784(14) 0.74007(7)
H7 H 0.9569 0.7127 0.7277
C14 C 0.80432(12) 1.03192(15) 0.86721(8)
H8 H 0.7520 1.1033 0.8578
H9 H 0.8763 1.0712 0.8697
H10 H 0.7868 0.9888 0.9100
N1 N 0.88455(9) 0.57198(11) 0.62712(6)
N2 N 0.85675(9) 0.47487(12) 0.58075(6)
N3 N 0.50497(9) 0.27297(12) 0.51130(6)
O1 O 0.54844(8) 0.19239(10) 0.47111(5)
O2 O 0.40597(8) 0.27382(11) 0.52221(5)
H11 H 0.9103(14) 0.4279(18) 0.5591(9)
loop_
_geom_bond_atom_site_label_1
_geom_bond_atom_site_label_2
_geom_bond_site_symmetry_1
_geom_bond_site_symmetry_2
C1 C2 1_555 1_555
C2 H1 1_555 1_555
C3 C2 1_555 1_555
C4 C3 1_555 1_555
H2 C4 1_555 1_555
C5 C4 1_555 1_555
H3 C5 1_555 1_555
C6 C1 1_555 1_555
C7 C6 1_555 1_555
C8 C7 1_555 1_555
C9 C8 1_555 1_555
H4 C9 1_555 1_555
C10 C9 1_555 1_555
H5 C10 1_555 1_555
C11 C10 1_555 1_555
C12 C11 1_555 1_555
H6 C12 1_555 1_555
C13 C8 1_555 1_555
H7 C13 1_555 1_555
C14 C11 1_555 1_555
H8 C14 1_555 1_555
H9 C14 1_555 1_555
H10 C14 1_555 1_555
N1 C7 1_555 1_555
N2 C1 1_555 1_555
N3 C3 1_555 1_555
O1 N3 1_555 1_555
O2 N3 1_555 1_555
H11 N2 1_555 1_555
C5 C6 1_555 1_555
C12 C13 1_555 1_555
N1 N2 1_555 1_555

#END
