
#######################################################################
#
#                 Cambridge Crystallographic Data Centre
#                                CCDC 
#
#######################################################################
#
# If this CIF has been generated from an entry in the Cambridge 
# Structural Database, then it will include bibliographic, chemical, 
# crystal, experimental, refinement or atomic coordinate data resulting 
# from the CCDC's data processing and validation procedures.
#
#######################################################################

data_HIZVUJ
_chemical_formula_moiety         'C14 H12 F1 N1 O2'
_chemical_name_systematic        N-(2-fluorophenyl)-4-methoxybenzamide
_symmetry_cell_setting           monoclinic
_symmetry_space_group_name_H-M   'P 21/c'
_symmetry_Int_Tables_number      14
_space_group_name_Hall           '-P 2ybc'
loop_
_symmetry_equiv_pos_site_id
_symmetry_equiv_pos_as_xyz
1 x,y,z
2 -x,1/2+y,1/2-z
3 -x,-y,-z
4 x,1/2-y,1/2+z
_cell_length_a                   17.7553(6)
_cell_length_b                   4.9562(2)
_cell_length_c                   13.1145(4)
_cell_angle_alpha                90
_cell_angle_beta                 95.520(2)
_cell_angle_gamma                90
_cell_volume                     1148.71
_exptl_crystal_colour            colorless
_exptl_crystal_description       plate
_cell_formula_units_Z            4
loop_
_atom_site_label
_atom_site_type_symbol
_atom_site_fract_x
_atom_site_fract_y
_atom_site_fract_z
F1 F 0.59192(5) 0.6389(2) 0.44330(7)
O1 O 0.94033(6) 0.9331(2) 0.09886(8)
O2 O 0.75618(6) 1.3920(2) 0.44886(8)
N1 N 0.71401(7) 0.9588(3) 0.45146(10)
C1 C 0.92045(10) 0.7281(3) 0.02432(12)
H1 H 0.9209 0.5517 0.0582
H2 H 0.9571 0.7279 -0.0270
H3 H 0.8697 0.7642 -0.0093
C2 C 0.89300(8) 0.9692(3) 0.17419(11)
C3 C 0.82813(9) 0.8181(3) 0.18347(11)
H4 H 0.8140 0.6779 0.1360
C4 C 0.78406(9) 0.8741(3) 0.26284(12)
H5 H 0.7401 0.7692 0.2700
C5 C 0.80329(9) 1.0815(3) 0.33190(12)
C6 C 0.75618(8) 1.1601(3) 0.41542(11)
C7 C 0.66375(8) 0.9826(3) 0.52886(12)
C8 C 0.60222(9) 0.8105(3) 0.52425(12)
C9 C 0.55168(9) 0.8066(3) 0.59739(13)
H6 H 0.5102 0.6845 0.5921
C10 C 0.56252(10) 0.9844(3) 0.67887(13)
H7 H 0.5284 0.9852 0.7304
C11 C 0.86918(9) 1.2297(3) 0.32170(12)
H8 H 0.8832 1.3711 0.3686
C12 C 0.91395(9) 1.1727(3) 0.24416(12)
H9 H 0.9591 1.2723 0.2386
C13 C 0.67389(9) 1.1609(3) 0.61081(12)
H10 H 0.7154 1.2825 0.6161
C14 C 0.62301(9) 1.1606(3) 0.68522(12)
H11 H 0.6300 1.2832 0.7410
H12 H 0.7208(10) 0.793(4) 0.4284(14)
loop_
_geom_bond_atom_site_label_1
_geom_bond_atom_site_label_2
_geom_bond_site_symmetry_1
_geom_bond_site_symmetry_2
F1 C8 1_555 1_555
O1 C1 1_555 1_555
O2 C6 1_555 1_555
N1 C6 1_555 1_555
C1 H1 1_555 1_555
H2 C1 1_555 1_555
H3 C1 1_555 1_555
C2 O1 1_555 1_555
C3 C2 1_555 1_555
H4 C3 1_555 1_555
C4 C3 1_555 1_555
H5 C4 1_555 1_555
C5 C4 1_555 1_555
C6 C5 1_555 1_555
C7 N1 1_555 1_555
C8 C7 1_555 1_555
C9 C8 1_555 1_555
H6 C9 1_555 1_555
C10 C9 1_555 1_555
H7 C10 1_555 1_555
C11 C5 1_555 1_555
H8 C11 1_555 1_555
C12 C2 1_555 1_555
H9 C12 1_555 1_555
C13 C7 1_555 1_555
H10 C13 1_555 1_555
C14 C10 1_555 1_555
H11 C14 1_555 1_555
H12 N1 1_555 1_555
C11 C12 1_555 1_555
C13 C14 1_555 1_555

#END
