
#######################################################################
#
#                 Cambridge Crystallographic Data Centre
#                                CCDC 
#
#######################################################################
#
# If this CIF has been generated from an entry in the Cambridge 
# Structural Database, then it will include bibliographic, chemical, 
# crystal, experimental, refinement or atomic coordinate data resulting 
# from the CCDC's data processing and validation procedures.
#
#######################################################################

data_HIZYUK
_chemical_formula_moiety         'C2 H10 B12 O2'
_chemical_name_systematic        1,12-Dicarbonyldodecaborane
_symmetry_cell_setting           orthorhombic
_symmetry_space_group_name_H-M   'C m c a'
_symmetry_Int_Tables_number      64
_space_group_name_Hall           '-C 2ac 2'
loop_
_symmetry_equiv_pos_site_id
_symmetry_equiv_pos_as_xyz
1 x,y,z
2 -x,1/2-y,1/2+z
3 x,-y,-z
4 -x,1/2+y,1/2-z
5 1/2+x,1/2+y,z
6 1/2-x,-y,1/2+z
7 1/2+x,1/2-y,-z
8 1/2-x,y,1/2-z
9 -x,-y,-z
10 x,1/2+y,1/2-z
11 -x,y,z
12 x,1/2-y,1/2+z
13 1/2-x,1/2-y,-z
14 1/2+x,y,1/2-z
15 1/2-x,1/2+y,z
16 1/2+x,-y,1/2+z
_cell_length_a                   9.2538(3)
_cell_length_b                   10.6482(3)
_cell_length_c                   10.9415(2)
_cell_angle_alpha                90
_cell_angle_beta                 90
_cell_angle_gamma                90
_cell_volume                     1078.14
_exptl_crystal_colour            colorless
_cell_formula_units_Z            4
_exptl_crystal_recrystallization_method sublimation
loop_
_atom_site_label
_atom_site_type_symbol
_atom_site_fract_x
_atom_site_fract_y
_atom_site_fract_z
O1 O 0.00000 0.10906(8) 0.58167(8)
C1 C 0.00000 0.21135(11) 0.55832(10)
B1 B 0.00000 0.35286(12) 0.52810(11)
B2 B 0.00000 0.45859(13) 0.65222(11)
B3 B 0.15940(11) 0.43971(9) 0.55630(8)
B4 B 0.09857(11) 0.40825(9) 0.40043(8)
H1 H 0.000 0.422(2) 0.746(2)
H2 H 0.254(2) 0.396(1) 0.591(1)
H3 H 0.161(1) 0.344(1) 0.341(1)
B3J B -0.15940(11) 0.43971(9) 0.55630(8)
B4B B 0.09857(11) 0.59175(9) 0.59957(8)
B1B B 0.00000 0.64714(12) 0.47190(11)
C1B C 0.00000 0.78865(11) 0.44168(10)
O1B O 0.00000 0.89094(8) 0.41833(8)
B2B B 0.00000 0.54141(13) 0.34778(11)
B3B B 0.15940(11) 0.56029(9) 0.44370(8)
B3H B -0.15940(11) 0.56029(9) 0.44370(8)
B4J B -0.09857(11) 0.40825(9) 0.40043(8)
H1B H 0.000 0.578(2) 0.254(2)
B4H B -0.09857(11) 0.59175(9) 0.59957(8)
H2J H -0.254(2) 0.396(1) 0.591(1)
H2B H 0.254(2) 0.604(1) 0.409(1)
H2H H -0.254(2) 0.604(1) 0.409(1)
H3J H -0.161(1) 0.344(1) 0.341(1)
H3B H 0.161(1) 0.656(1) 0.659(1)
H3H H -0.161(1) 0.656(1) 0.659(1)
loop_
_geom_bond_atom_site_label_1
_geom_bond_atom_site_label_2
_geom_bond_site_symmetry_1
_geom_bond_site_symmetry_2
O1 C1 1_555 1_555
C1 B1 1_555 1_555
B1 B2 1_555 1_555
B2 B3 1_555 1_555
B3 B1 1_555 1_555
B4 B1 1_555 1_555
H1 B2 1_555 1_555
H2 B3 1_555 1_555
H3 B4 1_555 1_555
B3J B1 1_555 1_555
B4B B2 1_555 1_555
B1B B4B 1_555 1_555
C1B B1B 1_555 1_555
O1B C1B 1_555 1_555
B2B B4 1_555 1_555
B3B B3 1_555 1_555
B3H B3J 1_555 1_555
B4J B1 1_555 1_555
H1B B2B 1_555 1_555
B4H B2 1_555 1_555
H2J B3J 1_555 1_555
H2B B3B 1_555 1_555
H2H B3H 1_555 1_555
H3J B4J 1_555 1_555
H3B B4B 1_555 1_555
H3H B4H 1_555 1_555
B2 B3J 1_555 1_555
B3 B4 1_555 1_555
B3 B4B 1_555 1_555
B4 B3B 1_555 1_555
B4 B4J 1_555 1_555
B3J B4J 1_555 1_555
B3J B4H 1_555 1_555
B4B B4H 1_555 1_555
B4B B3B 1_555 1_555
B1B B2B 1_555 1_555
B1B B3H 1_555 1_555
B1B B3B 1_555 1_555
B1B B4H 1_555 1_555
B2B B3B 1_555 1_555
B2B B3H 1_555 1_555
B2B B4J 1_555 1_555
B3H B4H 1_555 1_555
B3H B4J 1_555 1_555

#END
