
#######################################################################
#
#                 Cambridge Crystallographic Data Centre
#                                CCDC 
#
#######################################################################
#
# If this CIF has been generated from an entry in the Cambridge 
# Structural Database, then it will include bibliographic, chemical, 
# crystal, experimental, refinement or atomic coordinate data resulting 
# from the CCDC's data processing and validation procedures.
#
#######################################################################

data_HMNAPQ12
_chemical_formula_moiety         'C11 H8 O3'
_chemical_name_systematic        2-Hydroxy-3-methyl-1,4-naphthoquinone
_symmetry_cell_setting           monoclinic
_symmetry_space_group_name_H-M   'P 21'
_symmetry_Int_Tables_number      4
_space_group_name_Hall           'P 2yb'
loop_
_symmetry_equiv_pos_site_id
_symmetry_equiv_pos_as_xyz
1 x,y,z
2 -x,1/2+y,-z
_cell_length_a                   7.6626(13)
_cell_length_b                   4.8585(8)
_cell_length_c                   11.6463(16)
_cell_angle_alpha                90
_cell_angle_beta                 90.186(12)
_cell_angle_gamma                90
_cell_volume                     433.575
_exptl_crystal_colour            yellow
_exptl_crystal_description       needle
_cell_formula_units_Z            2
loop_
_atom_site_label
_atom_site_type_symbol
_atom_site_fract_x
_atom_site_fract_y
_atom_site_fract_z
C1 C 0.4468(3) 0.1127(6) 0.6851(2)
C2 C 0.1525(3) 0.4724(5) 0.7402(2)
C3 C 0.3034(3) 0.4860(5) 0.8087(2)
O1 O 0.0182(2) 0.2544(4) 0.57967(14)
C4 C 0.1456(3) 0.2773(5) 0.6439(2)
O2 O 0.5919(2) 0.3249(4) 0.83885(14)
O3 O 0.2823(2) -0.0836(4) 0.53602(14)
C5 C 0.4575(3) 0.3086(6) 0.7813(2)
C6 C 0.3099(3) 0.6660(5) 0.9011(2)
H1 H 0.4118 0.6760 0.9476
C7 C 0.2976(3) 0.0975(5) 0.62290(19)
C8 C 0.0190(3) 0.8205(6) 0.8573(2)
H2 H -0.0775 0.9366 0.8737
C9 C 0.0113(3) 0.6402(6) 0.7652(2)
H3 H -0.0911 0.6316 0.7191
C10 C 0.1671(3) 0.8312(6) 0.9253(2)
H4 H 0.1711 0.9528 0.9891
C11 C 0.6023(3) -0.0662(7) 0.6630(2)
H5 H 0.5726 -0.2046 0.6049
H6 H 0.6371 -0.1583 0.7343
H7 H 0.6991 0.0474 0.6352
H8 H 0.179(3) -0.077(6) 0.510(2)
loop_
_geom_bond_atom_site_label_1
_geom_bond_atom_site_label_2
_geom_bond_site_symmetry_1
_geom_bond_site_symmetry_2
C1 C5 1_555 1_555
C2 C3 1_555 1_555
C3 C5 1_555 1_555
O1 C4 1_555 1_555
C4 C2 1_555 1_555
O2 C5 1_555 1_555
O3 C7 1_555 1_555
C6 C3 1_555 1_555
H1 C6 1_555 1_555
C7 C1 1_555 1_555
C8 H2 1_555 1_555
C9 C2 1_555 1_555
H3 C9 1_555 1_555
C10 C6 1_555 1_555
H4 C10 1_555 1_555
C11 C1 1_555 1_555
H5 C11 1_555 1_555
H6 C11 1_555 1_555
H7 C11 1_555 1_555
H8 O3 1_555 1_555
C4 C7 1_555 1_555
C8 C9 1_555 1_555
C8 C10 1_555 1_555

#END
