
#######################################################################
#
#                 Cambridge Crystallographic Data Centre
#                                CCDC 
#
#######################################################################
#
# If this CIF has been generated from an entry in the Cambridge 
# Structural Database, then it will include bibliographic, chemical, 
# crystal, experimental, refinement or atomic coordinate data resulting 
# from the CCDC's data processing and validation procedures.
#
#######################################################################

data_HMPHBF10
_chemical_formula_moiety         'C17 H24 O2'
_chemical_name_systematic        
8,5a-trans-5a,9a-cis-3,8-Dimethyl-5a-isopropyl-5a,6,7,8,9,9a-hexahydro-dibenzofuran-1-ol
_symmetry_cell_setting           orthorhombic
_symmetry_space_group_name_H-M   'P 21 21 21'
_symmetry_Int_Tables_number      19
_space_group_name_Hall           'P 2ac 2ab'
loop_
_symmetry_equiv_pos_site_id
_symmetry_equiv_pos_as_xyz
1 x,y,z
2 1/2+x,1/2-y,-z
3 -x,1/2+y,1/2-z
4 1/2-x,-y,1/2+z
_cell_length_a                   11.521(3)
_cell_length_b                   13.032(9)
_cell_length_c                   9.867(7)
_cell_angle_alpha                90
_cell_angle_beta                 90
_cell_angle_gamma                90
_cell_volume                     1481.45
_cell_formula_units_Z            4
loop_
_atom_site_label
_atom_site_type_symbol
_atom_site_fract_x
_atom_site_fract_y
_atom_site_fract_z
C10 C -0.02210 0.14510 0.29540
C11 C 0.06500 0.18040 0.18530
C12 C -0.01050 0.17530 0.05900
C13 C -0.09700 0.10000 0.08570
C15 C 0.09050 0.29570 -0.10310
C16 C 0.33090 0.00320 0.27130
C17 C -0.10030 0.23720 0.33790
C18 C -0.20940 0.19890 0.41510
C19 C -0.03120 0.31670 0.42270
C2 C -0.17460 0.06930 -0.00910
C3 C -0.16270 0.10910 -0.13920
C4 C -0.07910 0.18380 -0.16860
C5 C -0.00050 0.21380 -0.06970
C6 C 0.17410 0.11210 0.16780
C7 C 0.22410 0.07280 0.29920
C8 C 0.12670 0.01340 0.37580
C9 C 0.02880 0.08620 0.41480
H11 H 0.09510 0.26220 0.19770
H14 H -0.19950 0.13440 -0.34340
H15 H 0.15310 0.27620 -0.16670
H151 H 0.06100 0.36430 -0.11860
H152 H 0.14630 0.34580 -0.01800
H16 H 0.31310 -0.05480 0.23180
H161 H 0.38280 0.04770 0.22710
H162 H 0.35800 -0.00970 0.36910
H17 H -0.13940 0.26140 0.23330
H18 H -0.25880 0.16160 0.35440
H181 H -0.19940 0.16670 0.50680
H182 H -0.26270 0.26130 0.44560
H19 H 0.00050 0.29090 0.51240
H191 H 0.04980 0.35680 0.36770
H192 H -0.07010 0.35820 0.42170
H2 H -0.24610 -0.00230 0.01600
H4 H -0.08000 0.20680 -0.25960
H6 H 0.15360 0.05190 0.10500
H61 H 0.22790 0.16120 0.11310
H7 H 0.23300 0.14710 0.35310
H8 H 0.15160 -0.03220 0.46700
H81 H 0.08780 -0.04270 0.30920
H9 H 0.05130 0.13960 0.47050
H91 H -0.04470 0.04640 0.45560
O1 O -0.09590 0.07110 0.21960
O14 O -0.23690 0.08320 -0.24230
loop_
_geom_bond_atom_site_label_1
_geom_bond_atom_site_label_2
_geom_bond_site_symmetry_1
_geom_bond_site_symmetry_2
C10 C11 1_555 1_555
C11 C12 1_555 1_555
C12 C13 1_555 1_555
C13 C2 1_555 1_555
C15 C5 1_555 1_555
C16 C7 1_555 1_555
C17 C10 1_555 1_555
C18 C17 1_555 1_555
C19 C17 1_555 1_555
C2 C3 1_555 1_555
C3 C4 1_555 1_555
C4 C5 1_555 1_555
C5 C12 1_555 1_555
C6 C11 1_555 1_555
C7 C6 1_555 1_555
C8 C7 1_555 1_555
C9 C10 1_555 1_555
H11 C11 1_555 1_555
H14 O14 1_555 1_555
H15 C15 1_555 1_555
H151 C15 1_555 1_555
H152 C15 1_555 1_555
H16 C16 1_555 1_555
H161 C16 1_555 1_555
H162 C16 1_555 1_555
H17 C17 1_555 1_555
H18 C18 1_555 1_555
H181 C18 1_555 1_555
H182 C18 1_555 1_555
H19 C19 1_555 1_555
H191 C19 1_555 1_555
H192 C19 1_555 1_555
H2 C2 1_555 1_555
H4 C4 1_555 1_555
H6 C6 1_555 1_555
H61 C6 1_555 1_555
H7 C7 1_555 1_555
H8 C8 1_555 1_555
H81 C8 1_555 1_555
H9 C9 1_555 1_555
H91 C9 1_555 1_555
O1 C10 1_555 1_555
O14 C3 1_555 1_555
C13 O1 1_555 1_555
C8 C9 1_555 1_555

#END
