
#######################################################################
#
#                 Cambridge Crystallographic Data Centre
#                                CCDC 
#
#######################################################################
#
# If this CIF has been generated from an entry in the Cambridge 
# Structural Database, then it will include bibliographic, chemical, 
# crystal, experimental, refinement or atomic coordinate data resulting 
# from the CCDC's data processing and validation procedures.
#
#######################################################################

data_HMXXFL
_chemical_compound_source        
'from the bulbs of Hippeastrum ananuca (Amaryllidaceae)'
_chemical_formula_moiety         'C17 H16 O5'
_chemical_name_systematic        
3-Hydroxy-7-methoxy-3',4'-methylene-dioxy-flavan
_symmetry_cell_setting           monoclinic
_symmetry_space_group_name_H-M   'P 21'
_symmetry_Int_Tables_number      4
_space_group_name_Hall           'P 2yb'
loop_
_symmetry_equiv_pos_site_id
_symmetry_equiv_pos_as_xyz
1 x,y,z
2 -x,1/2+y,-z
_cell_length_a                   12.634(2)
_cell_length_b                   11.491(3)
_cell_length_c                   4.881(1)
_cell_angle_alpha                90
_cell_angle_beta                 99.64(1)
_cell_angle_gamma                90
_cell_volume                     698.604
_exptl_crystal_colour            white
_chemical_melting_point          411-412K
_cell_formula_units_Z            2
loop_
_atom_site_label
_atom_site_type_symbol
_atom_site_fract_x
_atom_site_fract_y
_atom_site_fract_z
O1 O 0.90460 0.08770 0.13120
C1 C 0.84190 0.14600 -0.10270
C2 C 0.84180 0.27810 -0.06090
C3 C 0.95610 0.32110 -0.02320
C4 C 1.02570 0.25360 0.20030
C5 C 1.11900 0.29730 0.36030
C6 C 1.18290 0.23400 0.56600
C7 C 1.14960 0.12220 0.62010
C8 C 1.05670 0.07610 0.46920
C9 C 0.99640 0.14080 0.26240
O2 O 0.79250 0.29930 0.17760
O3 O 1.20520 0.05000 0.81730
C10 C 1.29200 0.09800 1.00640
C11 C 0.73280 0.08910 -0.15210
C12 C 0.70830 -0.00210 0.00810
C13 C 0.61040 -0.05280 -0.05560
C14 C 0.53560 -0.01890 -0.27210
C15 C 0.55600 0.07180 -0.43310
C16 C 0.65790 0.12450 -0.37440
O4 O 0.56990 -0.14620 0.07890
C17 C 0.46370 -0.16420 -0.05680
O5 O 0.44470 -0.08580 -0.29140
H1 H 0.87300 0.13900 -0.27400
H2 H 0.79300 0.31500 -0.23000
H3 H 0.97700 0.30700 -0.22600
H4 H 0.96500 0.40600 0.04000
H5 H 1.15100 0.37200 0.33900
H6 H 1.25400 0.26100 0.67700
H7 H 1.04200 0.01200 0.51100
H8 H 0.80400 0.38900 0.23700
H9 H 1.31500 0.04800 1.20200
H10 H 1.27700 0.17900 1.11500
H11 H 1.34700 0.11200 0.91600
H12 H 0.74900 -0.02900 0.12800
H13 H 0.49600 0.12800 -0.58100
H14 H 0.68100 0.18900 -0.50300
H15 H 0.44400 -0.24500 -0.09200
H16 H 0.39100 -0.13800 0.06500
loop_
_geom_bond_atom_site_label_1
_geom_bond_atom_site_label_2
_geom_bond_site_symmetry_1
_geom_bond_site_symmetry_2
O1 C1 1_555 1_555
C1 C2 1_555 1_555
C2 C3 1_555 1_555
C3 C4 1_555 1_555
C4 C5 1_555 1_555
C5 C6 1_555 1_555
C6 C7 1_555 1_555
C7 C8 1_555 1_555
C8 C9 1_555 1_555
C9 O1 1_555 1_555
O2 C2 1_555 1_555
O3 C7 1_555 1_555
C10 O3 1_555 1_555
C11 C1 1_555 1_555
C12 C11 1_555 1_555
C13 C12 1_555 1_555
C14 C13 1_555 1_555
C15 C14 1_555 1_555
C16 C11 1_555 1_555
O4 C13 1_555 1_555
C17 O4 1_555 1_555
O5 C14 1_555 1_555
H1 C1 1_555 1_555
H2 C2 1_555 1_555
H3 C3 1_555 1_555
H4 C3 1_555 1_555
H5 C5 1_555 1_555
H6 C6 1_555 1_555
H7 C8 1_555 1_555
H8 O2 1_555 1_555
H9 C10 1_555 1_555
H10 C10 1_555 1_555
H11 C10 1_555 1_555
H12 C12 1_555 1_555
H13 C15 1_555 1_555
H14 C16 1_555 1_555
H15 C17 1_555 1_555
H16 C17 1_555 1_555
C4 C9 1_555 1_555
C15 C16 1_555 1_555
C17 O5 1_555 1_555

#END
