
#######################################################################
#
#                 Cambridge Crystallographic Data Centre
#                                CCDC 
#
#######################################################################
#
# If this CIF has been generated from an entry in the Cambridge 
# Structural Database, then it will include bibliographic, chemical, 
# crystal, experimental, refinement or atomic coordinate data resulting 
# from the CCDC's data processing and validation procedures.
#
#######################################################################

data_HOBCIL01
_chemical_formula_moiety         'C35 H36 N4 O3'
_chemical_name_systematic        
N-(3',6'-bis(Diethylamino)-3-oxospiro[isoindole-1,9'-xanthen]-2(3H)-yl)benzamide
_symmetry_cell_setting           triclinic
_symmetry_space_group_name_H-M   'P -1'
_symmetry_Int_Tables_number      2
_space_group_name_Hall           '-P 1'
loop_
_symmetry_equiv_pos_site_id
_symmetry_equiv_pos_as_xyz
1 x,y,z
2 -x,-y,-z
_cell_length_a                   10.054(2)
_cell_length_b                   12.460(3)
_cell_length_c                   14.070(4)
_cell_angle_alpha                67.827(3)
_cell_angle_beta                 84.198(4)
_cell_angle_gamma                67.677(4)
_cell_volume                     1508.08
_exptl_crystal_colour            pink
_exptl_crystal_description       block
_cell_formula_units_Z            2
_exptl_crystal_recrystallization_method dichloromethane/methanol
_exptl_crystal_preparation       fluorescent
loop_
_atom_site_label
_atom_site_type_symbol
_atom_site_fract_x
_atom_site_fract_y
_atom_site_fract_z
C1 C 0.5506(5) -0.0731(4) 0.3604(4)
H1 H 0.5522 -0.0897 0.2989
H2 H 0.5646 -0.1483 0.4193
H3 H 0.6262 -0.0439 0.3605
C2 C 0.4115(4) 0.0223(3) 0.3643(3)
H4 H 0.3381 -0.0134 0.3752
H5 H 0.4149 0.0438 0.4232
C3 C 0.4009(4) 0.2378(3) 0.2629(3)
C4 C 0.4772(3) 0.2408(3) 0.3380(2)
H6 H 0.5111 0.1707 0.3978
C5 C 0.5035(3) 0.3453(3) 0.3255(2)
H7 H 0.5547 0.3436 0.3778
C6 C 0.4577(3) 0.4532(2) 0.2388(2)
C7 C 0.3807(4) 0.4496(3) 0.1657(2)
C8 C 0.3521(4) 0.3458(3) 0.1764(3)
H8 H 0.2990 0.3485 0.1246
C9 C 0.4949(3) 0.5658(2) 0.2219(2)
C10 C 0.6537(3) 0.5389(2) 0.2095(2)
C11 C 0.7388(4) 0.5057(3) 0.1336(2)
H9 H 0.6995 0.4987 0.0802
C12 C 0.8824(4) 0.4835(3) 0.1397(3)
H10 H 0.9410 0.4603 0.0897
C13 C 0.9429(4) 0.4944(4) 0.2171(3)
H11 H 1.0406 0.4799 0.2184
C14 C 0.8596(3) 0.5266(3) 0.2923(3)
H12 H 0.8999 0.5330 0.3456
C15 C 0.7139(3) 0.5495(2) 0.2875(2)
C16 C 0.6020(3) 0.5816(2) 0.3587(2)
C17 C 0.2715(3) 0.7273(3) 0.3700(2)
C18 C 0.1397(3) 0.7324(2) 0.4294(2)
C19 C 0.0530(3) 0.6722(3) 0.4222(3)
H13 H 0.0796 0.6235 0.3820
C20 C -0.0722(4) 0.6835(3) 0.4738(3)
H14 H -0.1305 0.6434 0.4678
C21 C -0.1106(4) 0.7534(4) 0.5337(3)
H15 H -0.1944 0.7599 0.5697
C22 C -0.0259(4) 0.8145(4) 0.5409(3)
H16 H -0.0528 0.8626 0.5816
C23 C 0.0991(4) 0.8050(3) 0.4881(3)
H17 H 0.1554 0.8477 0.4924
C24 C 0.4054(3) 0.6756(2) 0.1315(2)
C25 C 0.3982(4) 0.7953(3) 0.1086(2)
H18 H 0.4446 0.8105 0.1533
C26 C 0.3250(4) 0.8935(3) 0.0220(3)
H19 H 0.3222 0.9730 0.0105
C27 C 0.2552(4) 0.8769(3) -0.0489(3)
C28 C 0.2614(4) 0.7573(3) -0.0257(3)
H20 H 0.2160 0.7414 -0.0705
C29 C 0.3334(4) 0.6607(3) 0.0622(2)
C30 C 0.1708(6) 1.1028(4) -0.1593(3)
H21 H 0.2583 1.1016 -0.1348
H22 H 0.1598 1.1479 -0.2331
C31 C 0.0501(7) 1.1647(5) -0.1112(5)
H23 H -0.0367 1.1684 -0.1373
H24 H 0.0451 1.2479 -0.1256
H25 H 0.0607 1.1196 -0.0382
C32 C 0.2676(12) 0.1425(9) 0.2012(7)
H26 H 0.1863 0.2214 0.1820
H27 H 0.2321 0.0751 0.2314
C33 C 0.3520(12) 0.1307(10) 0.1103(11)
H28 H 0.3966 0.1914 0.0869
H29 H 0.2890 0.1446 0.0563
H30 H 0.4248 0.0484 0.1289
C34 C 0.0749(10) 0.9600(9) -0.1920(6)
H31 H 0.0001 1.0409 -0.2253
H32 H 0.0303 0.9056 -0.1439
C35 C 0.1484(9) 0.9061(8) -0.2711(5)
H33 H 0.1653 0.9701 -0.3296
H34 H 0.0882 0.8740 -0.2921
H35 H 0.2385 0.8398 -0.2422
N1 N 0.1822(4) 0.9732(3) -0.1360(3)
N2 N 0.3679(4) 0.1362(3) 0.2736(3)
N3 N 0.4782(2) 0.59389(19) 0.31707(16)
N4 N 0.3508(2) 0.6133(2) 0.36574(17)
H41 H 0.3208 0.5528 0.3938
O1 O 0.3034(2) 0.81857(19) 0.32705(18)
O2 O 0.6131(2) 0.59305(17) 0.44016(14)
O3 O 0.3268(3) 0.5483(2) 0.07527(18)
C36? C 0.1723(18) 0.9504(17) -0.2280(9)
H36? H 0.2528 0.8778 -0.2310
H37? H 0.1666 1.0222 -0.2896
C37? C 0.034(2) 0.928(3) -0.213(2)
H38? H 0.0456 0.8529 -0.1544
H39? H 0.0081 0.9201 -0.2729
H40? H -0.0409 0.9973 -0.2012
C38? C 0.3521(18) 0.1174(16) 0.1786(10)
C39? C 0.1940(16) 0.1800(18) 0.149(2)
H42? H 0.3852 0.0292 0.1908
H43? H 0.4070 0.1549 0.1248
H44? H 0.1423 0.1370 0.2001
H45? H 0.1776 0.1780 0.0837
H46? H 0.1612 0.2651 0.1440
loop_
_geom_bond_atom_site_label_1
_geom_bond_atom_site_label_2
_geom_bond_site_symmetry_1
_geom_bond_site_symmetry_2
C1 H1 1_555 1_555
H2 C1 1_555 1_555
H3 C1 1_555 1_555
C2 C1 1_555 1_555
H4 C2 1_555 1_555
H5 C2 1_555 1_555
C3 C4 1_555 1_555
C4 H6 1_555 1_555
C5 C4 1_555 1_555
H7 C5 1_555 1_555
C6 C5 1_555 1_555
C7 C6 1_555 1_555
C8 C3 1_555 1_555
H8 C8 1_555 1_555
C9 C6 1_555 1_555
C10 C9 1_555 1_555
C11 C10 1_555 1_555
H9 C11 1_555 1_555
C12 C11 1_555 1_555
H10 C12 1_555 1_555
C13 C12 1_555 1_555
H11 C13 1_555 1_555
C14 C13 1_555 1_555
H12 C14 1_555 1_555
C15 C10 1_555 1_555
C16 C15 1_555 1_555
C17 C18 1_555 1_555
C18 C19 1_555 1_555
C19 H13 1_555 1_555
C20 C19 1_555 1_555
H14 C20 1_555 1_555
C21 C20 1_555 1_555
H15 C21 1_555 1_555
C22 C21 1_555 1_555
H16 C22 1_555 1_555
C23 C18 1_555 1_555
H17 C23 1_555 1_555
C24 C9 1_555 1_555
C25 C24 1_555 1_555
H18 C25 1_555 1_555
C26 C25 1_555 1_555
H19 C26 1_555 1_555
C27 C26 1_555 1_555
C28 C27 1_555 1_555
H20 C28 1_555 1_555
C29 C24 1_555 1_555
C30 H21 1_555 1_555
H22 C30 1_555 1_555
C31 C30 1_555 1_555
H23 C31 1_555 1_555
H24 C31 1_555 1_555
H25 C31 1_555 1_555
C32 H26 1_555 1_555
H27 C32 1_555 1_555
C33 C32 1_555 1_555
H28 C33 1_555 1_555
H29 C33 1_555 1_555
H30 C33 1_555 1_555
C34 H31 1_555 1_555
H32 C34 1_555 1_555
C35 C34 1_555 1_555
H33 C35 1_555 1_555
H34 C35 1_555 1_555
H35 C35 1_555 1_555
N1 C27 1_555 1_555
N2 C2 1_555 1_555
N3 C9 1_555 1_555
N4 C17 1_555 1_555
H41 N4 1_555 1_555
O1 C17 1_555 1_555
O2 C16 1_555 1_555
O3 C7 1_555 1_555
C3 N2 1_555 1_555
C7 C8 1_555 1_555
C14 C15 1_555 1_555
C16 N3 1_555 1_555
C22 C23 1_555 1_555
C28 C29 1_555 1_555
C29 O3 1_555 1_555
C30 N1 1_555 1_555
C32 N2 1_555 1_555
C34 N1 1_555 1_555
N3 N4 1_555 1_555

#END
