
#######################################################################
#
#                 Cambridge Crystallographic Data Centre
#                                CCDC 
#
#######################################################################
#
# If this CIF has been generated from an entry in the Cambridge 
# Structural Database, then it will include bibliographic, chemical, 
# crystal, experimental, refinement or atomic coordinate data resulting 
# from the CCDC's data processing and validation procedures.
#
#######################################################################

data_HOBCEI
_chemical_formula_moiety         'C18 H13 N1 O3'
_chemical_name_systematic        
1'-methyl-3-phenyl-5H-spiro[furan-2,3'-indole]-2',5(1'H)-dione
_symmetry_cell_setting           orthorhombic
_symmetry_space_group_name_H-M   'P 21 21 21'
_symmetry_Int_Tables_number      19
_space_group_name_Hall           'P 2ac 2ab'
loop_
_symmetry_equiv_pos_site_id
_symmetry_equiv_pos_as_xyz
1 x,y,z
2 1/2-x,-y,1/2+z
3 -x,1/2+y,1/2-z
4 1/2+x,1/2-y,-z
_cell_length_a                   8.9540(18)
_cell_length_b                   9.4550(19)
_cell_length_c                   17.176(3)
_cell_angle_alpha                90
_cell_angle_beta                 90
_cell_angle_gamma                90
_cell_volume                     1454.12
_cell_formula_units_Z            4
loop_
_atom_site_label
_atom_site_type_symbol
_atom_site_fract_x
_atom_site_fract_y
_atom_site_fract_z
N1 N 0.2340(3) 0.8104(3) 0.08229(14)
O1 O -0.0175(2) 0.7609(2) 0.07536(13)
C1 C 0.1539(3) 0.6061(3) 0.14737(14)
O2 O 0.0771(2) 0.6181(2) 0.22097(10)
C2 C 0.1082(3) 0.7347(3) 0.09702(16)
O3 O -0.0886(3) 0.4913(3) 0.28885(12)
C3 C 0.3593(3) 0.7512(3) 0.11948(18)
C4 C 0.5046(4) 0.7987(4) 0.1198(2)
H1 H 0.5316 0.8814 0.0942
C5 C 0.6091(4) 0.7188(5) 0.1597(2)
H2 H 0.7082 0.7482 0.1601
C6 C 0.5705(4) 0.5977(5) 0.1987(2)
H3 H 0.6429 0.5472 0.2258
C7 C 0.4233(3) 0.5499(4) 0.19798(18)
H4 H 0.3966 0.4673 0.2238
C8 C 0.3196(3) 0.6271(3) 0.15854(15)
C9 C 0.1025(3) 0.4666(3) 0.11437(15)
C10 C 0.0112(3) 0.4080(4) 0.16594(15)
H5 H -0.0321 0.3191 0.1606
C11 C -0.0118(3) 0.5015(4) 0.23185(16)
C12 C 0.1405(3) 0.4155(3) 0.03619(16)
C13 C 0.2522(3) 0.4759(3) -0.00938(15)
H6 H 0.3106 0.5482 0.0111
C14 C 0.2775(3) 0.4303(3) -0.08413(17)
H7 H 0.3517 0.4729 -0.1139
C15 C 0.1936(4) 0.3220(3) -0.11543(18)
H8 H 0.2106 0.2914 -0.1661
C16 C 0.0855(4) 0.2607(4) -0.0710(2)
H9 H 0.0289 0.1871 -0.0915
C17 C 0.0591(4) 0.3064(3) 0.00391(18)
H10 H -0.0151 0.2630 0.0333
C18 C 0.2332(5) 0.9425(4) 0.0390(2)
H11 H 0.1347 0.9598 0.0191
H12 H 0.3025 0.9363 -0.0035
H13 H 0.2619 1.0186 0.0728
loop_
_geom_bond_atom_site_label_1
_geom_bond_atom_site_label_2
_geom_bond_site_symmetry_1
_geom_bond_site_symmetry_2
N1 C2 1_555 1_555
O1 C2 1_555 1_555
C1 O2 1_555 1_555
O2 C11 1_555 1_555
C2 C1 1_555 1_555
O3 C11 1_555 1_555
C3 N1 1_555 1_555
C4 C3 1_555 1_555
H1 C4 1_555 1_555
C5 C4 1_555 1_555
H2 C5 1_555 1_555
C6 C5 1_555 1_555
H3 C6 1_555 1_555
C7 C6 1_555 1_555
H4 C7 1_555 1_555
C8 C1 1_555 1_555
C9 C1 1_555 1_555
C10 C9 1_555 1_555
H5 C10 1_555 1_555
C11 C10 1_555 1_555
C12 C9 1_555 1_555
C13 C12 1_555 1_555
H6 C13 1_555 1_555
C14 C13 1_555 1_555
H7 C14 1_555 1_555
C15 C14 1_555 1_555
H8 C15 1_555 1_555
C16 C15 1_555 1_555
H9 C16 1_555 1_555
C17 C12 1_555 1_555
H10 C17 1_555 1_555
C18 N1 1_555 1_555
H11 C18 1_555 1_555
H12 C18 1_555 1_555
H13 C18 1_555 1_555
C3 C8 1_555 1_555
C7 C8 1_555 1_555
C16 C17 1_555 1_555

#END
