
#######################################################################
#
#                 Cambridge Crystallographic Data Centre
#                                CCDC 
#
#######################################################################
#
# If this CIF has been generated from an entry in the Cambridge 
# Structural Database, then it will include bibliographic, chemical, 
# crystal, experimental, refinement or atomic coordinate data resulting 
# from the CCDC's data processing and validation procedures.
#
#######################################################################

data_HOBMIU
_chemical_formula_moiety         'C10 H8 Se6'
_chemical_name_systematic        
trans-5,5',6,6'-Tetrahydro-\D^2,2'^-biselenolo[2,3-d]-1,3-selenole
_symmetry_cell_setting           monoclinic
_symmetry_space_group_name_H-M   'P 21/n'
_symmetry_Int_Tables_number      14
_space_group_name_Hall           '-P 2yn'
loop_
_symmetry_equiv_pos_site_id
_symmetry_equiv_pos_as_xyz
1 x,y,z
2 1/2-x,1/2+y,1/2-z
3 -x,-y,-z
4 1/2+x,1/2-y,1/2+z
_cell_length_a                   8.390(5)
_cell_length_b                   8.925(5)
_cell_length_c                   18.765(4)
_cell_angle_alpha                90
_cell_angle_beta                 95.96(3)
_cell_angle_gamma                90
_cell_volume                     1397.54
_exptl_crystal_colour            red-orange
_exptl_crystal_description       plate
_chemical_melting_point          205-207deg.C(dec.)
_cell_formula_units_Z            4
_exptl_crystal_recrystallization_method chlorobenzene
loop_
_atom_site_label
_atom_site_type_symbol
_atom_site_fract_x
_atom_site_fract_y
_atom_site_fract_z
Se1 Se 0.4970(3) 0.4728(3) 0.1738(1)
Se2 Se 0.3493(3) 0.2209(3) 0.2707(1)
Se3 Se 0.8174(3) 0.5057(3) 0.2981(1)
Se4 Se 0.6710(3) 0.2508(3) 0.3941(1)
Se5 Se 0.1627(3) 0.4477(3) 0.0619(2)
Se6 Se 1.0342(3) 0.2278(4) 0.4861(2)
C1 C 0.002(3) 0.319(3) 0.092(1)
C2 C 0.043(2) 0.222(2) 0.1624(8)
C3 C 0.288(2) 0.388(2) 0.147(1)
C4 C 0.230(2) 0.294(3) 0.187(1)
C5 C 0.523(2) 0.355(2) 0.258(1)
C6 C 0.645(2) 0.367(2) 0.309(1)
C7 C 0.953(2) 0.416(3) 0.373(1)
C8 C 0.890(2) 0.315(3) 0.415(1)
C9 C 1.143(2) 0.465(2) 0.398(1)
C10 C 1.195(3) 0.368(3) 0.462(2)
loop_
_geom_bond_atom_site_label_1
_geom_bond_atom_site_label_2
_geom_bond_site_symmetry_1
_geom_bond_site_symmetry_2
Se1 C3 1_555 1_555
Se2 C4 1_555 1_555
Se3 C6 1_555 1_555
Se4 C6 1_555 1_555
Se5 C1 1_555 1_555
Se6 C8 1_555 1_555
C1 C2 1_555 1_555
C2 C4 1_555 1_555
C3 Se5 1_555 1_555
C4 C3 1_555 1_555
C5 Se1 1_555 1_555
C6 C5 1_555 1_555
C7 Se3 1_555 1_555
C8 Se4 1_555 1_555
C9 C7 1_555 1_555
C10 Se6 1_555 1_555
Se2 C5 1_555 1_555
C7 C8 1_555 1_555
C9 C10 1_555 1_555

#END
