
#######################################################################
#
#                 Cambridge Crystallographic Data Centre
#                                CCDC 
#
#######################################################################
#
# If this CIF has been generated from an entry in the Cambridge 
# Structural Database, then it will include bibliographic, chemical, 
# crystal, experimental, refinement or atomic coordinate data resulting 
# from the CCDC's data processing and validation procedures.
#
#######################################################################

data_HOBPOF
_chemical_formula_moiety         'C20 H19 N3 O2'
_chemical_name_systematic        
N-(2-(Morpholin-4-yl)-1-naphthyl)pyridine-2-carboxamide
_symmetry_cell_setting           triclinic
_symmetry_space_group_name_H-M   'P -1'
_symmetry_Int_Tables_number      2
_space_group_name_Hall           '-P 1'
loop_
_symmetry_equiv_pos_site_id
_symmetry_equiv_pos_as_xyz
1 x,y,z
2 -x,-y,-z
_cell_length_a                   9.1774(10)
_cell_length_b                   9.9179(11)
_cell_length_c                   18.810(2)
_cell_angle_alpha                89.777(2)
_cell_angle_beta                 88.170(2)
_cell_angle_gamma                88.491(2)
_cell_volume                     1710.62
_exptl_crystal_colour            colorless
_exptl_crystal_description       plate
_cell_formula_units_Z            4
loop_
_atom_site_label
_atom_site_type_symbol
_atom_site_fract_x
_atom_site_fract_y
_atom_site_fract_z
C1 C -0.0183(2) 0.7491(2) 0.43264(11)
C2 C -0.1430(2) 0.75382(19) 0.48624(10)
C3 C -0.1824(2) 0.6386(2) 0.52169(12)
H1 H -0.1330 0.5571 0.5126
C4 C -0.2958(3) 0.6460(3) 0.57068(13)
H2 H -0.3231 0.5699 0.5964
C5 C -0.3684(3) 0.7663(3) 0.58133(13)
H3 H -0.4466 0.7733 0.6139
C6 C -0.3240(3) 0.8770(3) 0.54307(13)
H4 H -0.3754 0.9583 0.5498
C7 C 0.1485(2) 0.89504(19) 0.36477(10)
C8 C 0.2859(2) 0.82516(19) 0.36235(10)
C9 C 0.3324(2) 0.7352(2) 0.41593(12)
H5 H 0.2686 0.7147 0.4536
C10 C 0.4698(3) 0.6775(3) 0.41327(14)
H6 H 0.4983 0.6198 0.4496
C11 C 0.5668(3) 0.7037(3) 0.35741(17)
H7 H 0.6590 0.6623 0.3558
C12 C 0.5272(3) 0.7895(3) 0.30525(15)
H8 H 0.5924 0.8053 0.2675
C13 C 0.3876(2) 0.8567(2) 0.30663(11)
C14 C 0.3496(3) 0.9556(3) 0.25662(12)
H9 H 0.4136 0.9727 0.2185
C15 C 0.2214(3) 1.0270(2) 0.26250(12)
H10 H 0.2009 1.0945 0.2296
C16 C 0.1184(2) 0.9998(2) 0.31818(10)
C17 C -0.0014(3) 1.2229(2) 0.31156(14)
H11 H -0.0063 1.2331 0.2604
H12 H 0.0901 1.2588 0.3264
C18 C -0.1269(3) 1.2979(2) 0.34756(16)
H13 H -0.1192 1.2893 0.3987
H14 H -0.1221 1.3929 0.3355
C19 C -0.2707(3) 1.1082(3) 0.34271(17)
H15 H -0.3622 1.0750 0.3263
H16 H -0.2695 1.0954 0.3938
C20 C -0.1471(3) 1.0274(2) 0.30858(14)
H17 H -0.1539 0.9334 0.3224
H18 H -0.1521 1.0330 0.2572
N1 N 0.04428(19) 0.86909(17) 0.41987(9)
N2 N -0.2103(2) 0.87376(17) 0.49648(9)
N3 N -0.0095(2) 1.08029(16) 0.33119(9)
O1 O 0.02204(18) 0.64298(15) 0.40459(9)
O2 O -0.2632(2) 1.24815(18) 0.32710(10)
H19 H -0.005(2) 0.938(2) 0.4350(10)
C21 C -0.0194(2) 0.24882(19) 0.07398(10)
C22 C -0.1380(2) 0.24340(18) 0.02085(9)
C23 C -0.1743(2) 0.1214(2) -0.00729(11)
H20 H -0.1273 0.0420 0.0068
C24 C -0.2812(3) 0.1194(2) -0.05669(13)
H21 H -0.3047 0.0389 -0.0782
C25 C -0.3528(3) 0.2373(2) -0.07386(12)
H22 H -0.4276 0.2381 -0.1061
C26 C -0.3115(2) 0.3540(2) -0.04244(12)
H23 H -0.3611 0.4337 -0.0539
C27 C 0.1271(2) 0.41331(18) 0.13664(9)
C28 C 0.2651(2) 0.34989(19) 0.14664(10)
C29 C 0.3288(2) 0.2525(2) 0.09950(12)
H24 H 0.2766 0.2233 0.0611
C30 C 0.4667(3) 0.2008(2) 0.10977(14)
H25 H 0.5082 0.1389 0.0776
C31 C 0.5458(3) 0.2407(3) 0.16862(16)
H26 H 0.6374 0.2021 0.1765
C32 C 0.4883(3) 0.3356(3) 0.21389(14)
H27 H 0.5415 0.3613 0.2526
C33 C 0.3502(2) 0.3961(2) 0.20367(11)
C34 C 0.2960(3) 0.5046(2) 0.24543(11)
H28 H 0.3495 0.5330 0.2835
C35 C 0.1677(3) 0.5688(2) 0.23165(11)
H29 H 0.1365 0.6423 0.2593
C36 C 0.0812(2) 0.52566(19) 0.17609(10)
C37 C -0.0487(3) 0.7442(2) 0.16728(13)
H30 H 0.0440 0.7808 0.1517
H31 H -0.0641 0.7636 0.2175
C38 C -0.1695(3) 0.8074(2) 0.12579(13)
H32 H -0.1712 0.9043 0.1328
H33 H -0.1512 0.7902 0.0755
C39 C -0.3049(3) 0.6131(3) 0.13803(17)
H34 H -0.2909 0.5918 0.0879
H35 H -0.3986 0.5790 0.1539
C40 C -0.1866(2) 0.5439(2) 0.17901(13)
H36 H -0.2031 0.5594 0.2295
H37 H -0.1867 0.4475 0.1706
N4 N 0.03610(18) 0.37315(16) 0.08155(8)
N5 N -0.20426(18) 0.36020(16) 0.00367(9)
N6 N -0.04688(18) 0.59804(16) 0.15574(9)
O3 O 0.02187(17) 0.14796(14) 0.10582(8)
O4 O -0.30618(18) 0.75619(16) 0.14679(9)
H38 H -0.012(2) 0.440(2) 0.0620(11)
loop_
_geom_bond_atom_site_label_1
_geom_bond_atom_site_label_2
_geom_bond_site_symmetry_1
_geom_bond_site_symmetry_2
C1 C2 1_555 1_555
C2 C3 1_555 1_555
C3 H1 1_555 1_555
C4 C3 1_555 1_555
H2 C4 1_555 1_555
C5 C4 1_555 1_555
H3 C5 1_555 1_555
C6 C5 1_555 1_555
H4 C6 1_555 1_555
C7 C8 1_555 1_555
C8 C9 1_555 1_555
C9 H5 1_555 1_555
C10 C9 1_555 1_555
H6 C10 1_555 1_555
C11 C10 1_555 1_555
H7 C11 1_555 1_555
C12 C11 1_555 1_555
H8 C12 1_555 1_555
C13 C8 1_555 1_555
C14 C13 1_555 1_555
H9 C14 1_555 1_555
C15 C14 1_555 1_555
H10 C15 1_555 1_555
C16 C7 1_555 1_555
C17 H11 1_555 1_555
H12 C17 1_555 1_555
C18 C17 1_555 1_555
H13 C18 1_555 1_555
H14 C18 1_555 1_555
C19 H15 1_555 1_555
H16 C19 1_555 1_555
C20 C19 1_555 1_555
H17 C20 1_555 1_555
H18 C20 1_555 1_555
N1 C1 1_555 1_555
N2 C2 1_555 1_555
N3 C16 1_555 1_555
O1 C1 1_555 1_555
O2 C18 1_555 1_555
H19 N1 1_555 1_555
C21 C22 1_555 1_555
C22 C23 1_555 1_555
C23 H20 1_555 1_555
C24 C23 1_555 1_555
H21 C24 1_555 1_555
C25 C24 1_555 1_555
H22 C25 1_555 1_555
C26 C25 1_555 1_555
H23 C26 1_555 1_555
C27 C28 1_555 1_555
C28 C29 1_555 1_555
C29 H24 1_555 1_555
C30 C29 1_555 1_555
H25 C30 1_555 1_555
C31 C30 1_555 1_555
H26 C31 1_555 1_555
C32 C31 1_555 1_555
H27 C32 1_555 1_555
C33 C28 1_555 1_555
C34 C33 1_555 1_555
H28 C34 1_555 1_555
C35 C34 1_555 1_555
H29 C35 1_555 1_555
C36 C27 1_555 1_555
C37 H30 1_555 1_555
H31 C37 1_555 1_555
C38 C37 1_555 1_555
H32 C38 1_555 1_555
H33 C38 1_555 1_555
C39 H34 1_555 1_555
H35 C39 1_555 1_555
C40 C39 1_555 1_555
H36 C40 1_555 1_555
H37 C40 1_555 1_555
N4 C21 1_555 1_555
N5 C22 1_555 1_555
N6 C36 1_555 1_555
O3 C21 1_555 1_555
O4 C38 1_555 1_555
H38 N4 1_555 1_555
C6 N2 1_555 1_555
C7 N1 1_555 1_555
C12 C13 1_555 1_555
C15 C16 1_555 1_555
C17 N3 1_555 1_555
C19 O2 1_555 1_555
C20 N3 1_555 1_555
C26 N5 1_555 1_555
C27 N4 1_555 1_555
C32 C33 1_555 1_555
C35 C36 1_555 1_555
C37 N6 1_555 1_555
C39 O4 1_555 1_555
C40 N6 1_555 1_555

#END
