
#######################################################################
#
#                 Cambridge Crystallographic Data Centre
#                                CCDC 
#
#######################################################################
#
# If this CIF has been generated from an entry in the Cambridge 
# Structural Database, then it will include bibliographic, chemical, 
# crystal, experimental, refinement or atomic coordinate data resulting 
# from the CCDC's data processing and validation procedures.
#
#######################################################################

data_HOBPUL
_chemical_formula_moiety         'C15 H16 N4 O2'
_chemical_name_systematic        
N-(2-(Morpholin-4-yl)pyridin-3-yl)pyridine-2-carboxamide
_symmetry_cell_setting           orthorhombic
_symmetry_space_group_name_H-M   'P 21 21 21'
_symmetry_Int_Tables_number      19
_space_group_name_Hall           'P 2ac 2ab'
loop_
_symmetry_equiv_pos_site_id
_symmetry_equiv_pos_as_xyz
1 x,y,z
2 1/2-x,-y,1/2+z
3 -x,1/2+y,1/2-z
4 1/2+x,1/2-y,-z
_cell_length_a                   7.071(3)
_cell_length_b                   11.759(4)
_cell_length_c                   17.021(6)
_cell_angle_alpha                90
_cell_angle_beta                 90
_cell_angle_gamma                90
_cell_volume                     1415.26
_exptl_crystal_colour            colorless
_exptl_crystal_description       block
_cell_formula_units_Z            4
loop_
_atom_site_label
_atom_site_type_symbol
_atom_site_fract_x
_atom_site_fract_y
_atom_site_fract_z
C1 C 0.1706(3) 0.72892(14) 0.33457(10)
C2 C -0.0053(2) 0.66036(13) 0.34810(9)
C3 C -0.1164(3) 0.67864(16) 0.41392(10)
H1 H -0.0847 0.7347 0.4502
C4 C -0.2739(3) 0.61256(18) 0.42457(12)
H2 H -0.3488 0.6214 0.4691
C5 C -0.3196(3) 0.53304(18) 0.36856(14)
H3 H -0.4265 0.4876 0.3741
C6 C -0.2037(3) 0.52213(19) 0.30406(14)
H4 H -0.2366 0.4694 0.2657
C7 C 0.4297(2) 0.74290(13) 0.23697(10)
C8 C 0.5483(2) 0.81842(15) 0.27452(11)
H5 H 0.5232 0.8424 0.3255
C9 C 0.7059(3) 0.85772(15) 0.23444(12)
H6 H 0.7872 0.9099 0.2577
C10 C 0.7397(2) 0.81867(16) 0.16045(12)
H7 H 0.8467 0.8451 0.1344
C11 C 0.4748(2) 0.70817(13) 0.16019(9)
C12 C 0.1810(3) 0.68301(16) 0.09007(12)
H8 H 0.2144 0.7309 0.0458
H9 H 0.1213 0.7303 0.1297
C13 C 0.0462(3) 0.5923(2) 0.06389(14)
H10 H 0.0074 0.5473 0.1089
H11 H -0.0658 0.6274 0.0416
C14 C 0.4388(3) 0.55771(16) 0.06340(11)
H12 H 0.5497 0.5204 0.0849
H13 H 0.4776 0.6029 0.0185
C15 C 0.2953(3) 0.47046(17) 0.03861(13)
H14 H 0.3511 0.4207 -0.0005
H15 H 0.2610 0.4243 0.0837
H16 H 0.214(3) 0.6415(17) 0.2482(12)
N1 N 0.35227(19) 0.63035(11) 0.12270(8)
N2 N 0.6278(2) 0.74444(12) 0.12297(9)
N3 N 0.2676(2) 0.69570(13) 0.27103(9)
N4 N -0.0471(2) 0.58294(13) 0.29358(9)
O1 O 0.2158(2) 0.80700(14) 0.37758(9)
O2 O 0.1311(2) 0.52070(13) 0.00722(8)
loop_
_geom_bond_atom_site_label_1
_geom_bond_atom_site_label_2
_geom_bond_site_symmetry_1
_geom_bond_site_symmetry_2
C1 C2 1_555 1_555
C2 C3 1_555 1_555
C3 H1 1_555 1_555
C4 C3 1_555 1_555
H2 C4 1_555 1_555
C5 C4 1_555 1_555
H3 C5 1_555 1_555
C6 C5 1_555 1_555
H4 C6 1_555 1_555
C7 C8 1_555 1_555
C8 H5 1_555 1_555
C9 C8 1_555 1_555
H6 C9 1_555 1_555
C10 C9 1_555 1_555
H7 C10 1_555 1_555
C11 C7 1_555 1_555
C12 H8 1_555 1_555
H9 C12 1_555 1_555
C13 C12 1_555 1_555
H10 C13 1_555 1_555
H11 C13 1_555 1_555
C14 H12 1_555 1_555
H13 C14 1_555 1_555
C15 C14 1_555 1_555
H14 C15 1_555 1_555
H15 C15 1_555 1_555
H16 N3 1_555 1_555
N1 C11 1_555 1_555
N2 C10 1_555 1_555
N3 C1 1_555 1_555
N4 C2 1_555 1_555
O1 C1 1_555 1_555
O2 C13 1_555 1_555
C6 N4 1_555 1_555
C7 N3 1_555 1_555
C11 N2 1_555 1_555
C12 N1 1_555 1_555
C14 N1 1_555 1_555
C15 O2 1_555 1_555

#END
