
#######################################################################
#
#                 Cambridge Crystallographic Data Centre
#                                CCDC 
#
#######################################################################
#
# If this CIF has been generated from an entry in the Cambridge 
# Structural Database, then it will include bibliographic, chemical, 
# crystal, experimental, refinement or atomic coordinate data resulting 
# from the CCDC's data processing and validation procedures.
#
#######################################################################

data_HOBTID
_chemical_formula_moiety         'C68 H84 N4 S24,C17 H12 N4 O12,4(C1 H2 Cl2)'
_chemical_name_systematic        
'6,14,22,30-tetrakis(4,5-bis(propylsulfanyl)-1,3-dithiol-2-ylidene)-2,2,10,10,18,18,26,26-octamethyl-5,7,13,15,21,23,29,31-octathia-33,34,35,36-tetraazanonacyclo[25.5.1.1^3,9^.1^11,17^.1^19,25^.0^4,8^.0^12,16^.0^20,24^.0^28,32^]hexatriaconta-1(32),3,8,11,16,19,24,27-octaene propane-1,3-diyl bis(3,5-dinitrobenzoate) dichloromethane solvate'
_symmetry_cell_setting           triclinic
_symmetry_space_group_name_H-M   'P -1'
_symmetry_Int_Tables_number      2
_space_group_name_Hall           '-P 1'
loop_
_symmetry_equiv_pos_site_id
_symmetry_equiv_pos_as_xyz
1 x,y,z
2 -x,-y,-z
_cell_length_a                   16.645(6)
_cell_length_b                   18.555(7)
_cell_length_c                   20.012(6)
_cell_angle_alpha                85.987(2)
_cell_angle_beta                 68.623(2)
_cell_angle_gamma                81.231(3)
_cell_volume                     5687.48
_cell_formula_units_Z            2
_chemical_properties_physical    Light-sensitive
loop_
_atom_site_label
_atom_site_type_symbol
_atom_site_fract_x
_atom_site_fract_y
_atom_site_fract_z
C1 C 0.4213(5) 0.0846(5) 1.0076(5)
H1 H 0.4469 0.0543 1.0389
H2 H 0.3914 0.0549 0.9881
H3 H 0.3795 0.1245 1.0354
C2 C 0.4922(6) 0.1156(5) 0.9471(5)
H4 H 0.5313 0.0754 0.9165
H5 H 0.4660 0.1486 0.9172
C3 C 0.5432(5) 0.1563(5) 0.9745(5)
H6 H 0.5671 0.1229 1.0056
H7 H 0.5030 0.1960 1.0051
C4 C 0.5630(7) 0.0236(6) 0.6384(6)
H8 H 0.5205 0.0033 0.6808
H9 H 0.5986 -0.0159 0.6062
H10 H 0.5322 0.0578 0.6133
C5 C 0.6194(6) 0.0623(5) 0.6610(5)
H11 H 0.6606 0.0848 0.6185
H12 H 0.6536 0.0272 0.6834
C6 C 0.5645(6) 0.1209(5) 0.7143(6)
H13 H 0.5218 0.0992 0.7563
H14 H 0.5324 0.1577 0.6916
C7 C 0.5765(5) 0.2507(5) 0.8591(5)
C8 C 0.5737(5) 0.2366(5) 0.7980(5)
C9 C 0.4795(6) 0.3644(5) 0.8305(5)
C10 C 0.4309(6) 0.4281(4) 0.8273(5)
C11 C 0.3744(6) 0.5454(5) 0.7734(5)
C12 C 0.3723(6) 0.5622(5) 0.8399(5)
C13 C 0.3441(6) 0.6377(5) 0.8505(5)
C14 C 0.3462(5) 0.6084(5) 0.7417(5)
C15 C 0.3284(6) 0.6212(5) 0.6718(5)
C16 C 0.2266(6) 0.6315(6) 0.6921(6)
H15 H 0.1993 0.6684 0.7293
H16 H 0.2047 0.5851 0.7102
H17 H 0.2125 0.6473 0.6495
C17 C 0.3691(7) 0.5571(5) 0.6224(6)
H18 H 0.3552 0.5662 0.5788
H19 H 0.3462 0.5129 0.6467
H20 H 0.4325 0.5506 0.6096
C18 C 0.3599(6) 0.6909(5) 0.6367(5)
C19 C 0.3212(6) 0.7571(5) 0.6206(5)
C20 C 0.3877(6) 0.8025(5) 0.5857(5)
C21 C 0.4691(6) 0.7613(5) 0.5795(6)
C22 C 0.2426(5) 0.8808(4) 0.6005(4)
C23 C 0.1827(5) 0.9382(5) 0.6085(4)
C24 C 0.0973(5) 1.0699(5) 0.6177(5)
C25 C 0.0373(6) 1.0281(5) 0.6503(5)
C26 C -0.1222(6) 1.0250(5) 0.6335(5)
H21 H -0.1021 0.9721 0.6268
H22 H -0.1864 1.0310 0.6575
C27 C -0.1021(7) 1.0595(5) 0.5629(4)
H23 H -0.1261 1.0340 0.5341
H24 H -0.0381 1.0544 0.5382
C28 C -0.1381(8) 1.1381(5) 0.5661(6)
H25 H -0.1990 1.1444 0.5987
H26 H -0.1347 1.1560 0.5181
H27 H -0.1042 1.1656 0.5837
C29 C 0.1463(6) 1.1849(5) 0.5239(4)
H28 H 0.1450 1.2382 0.5161
H29 H 0.2071 1.1632 0.5162
C30 C 0.1159(7) 1.1534(6) 0.4704(4)
H30 H 0.1089 1.1015 0.4821
H31 H 0.0590 1.1804 0.4722
C31 C 0.1827(8) 1.1606(6) 0.3978(4)
H32 H 0.1653 1.1398 0.3623
H33 H 0.2389 1.1345 0.3969
H34 H 0.1880 1.2123 0.3863
C32 C 0.5622(6) 0.7788(6) 0.5499(6)
C33 C 0.5632(5) 0.8601(5) 0.5280(6)
H35 H 0.5353 0.8714 0.4923
H36 H 0.6235 0.8704 0.5074
H37 H 0.5313 0.8902 0.5704
C34 C 0.6152(7) 0.7335(6) 0.4804(6)
H38 H 0.6166 0.6813 0.4924
H39 H 0.6748 0.7455 0.4605
H40 H 0.5872 0.7452 0.4448
C35 C 0.6018(6) 0.7597(5) 0.6065(5)
C36 C 0.6671(6) 0.7076(5) 0.6117(5)
C37 C 0.6747(5) 0.7118(5) 0.6784(5)
C38 C 0.6124(5) 0.7665(5) 0.7172(5)
C39 C 0.7875(5) 0.6015(5) 0.6174(5)
C40 C 0.8396(6) 0.5376(5) 0.6099(6)
C41 C 0.9306(6) 0.4135(5) 0.5630(6)
C42 C 0.9370(6) 0.4174(5) 0.6232(6)
C43 C 1.0847(6) 0.4011(7) 0.6546(8)
H41 H 1.1088 0.4188 0.6044
H42 H 1.0646 0.4439 0.6863
C44 C 1.1536(8) 0.3520(8) 0.6725(11)
H43 H 1.1771 0.3106 0.6391
H44 H 1.1298 0.3325 0.7221
C45 C 1.2245(7) 0.3980(9) 0.6653(10)
H45 H 1.2266 0.4355 0.6279
H46 H 1.2808 0.3668 0.6523
H47 H 1.2117 0.4215 0.7111
C46 C 0.9659(9) 0.3618(6) 0.4194(5)
H48 H 0.9034 0.3762 0.4273
H49 H 0.9969 0.4039 0.3973
C47 C 1.0015(11) 0.2984(7) 0.3700(5)
H50 H 1.0590 0.2766 0.3714
H51 H 0.9619 0.2607 0.3864
C48 C 1.0109(9) 0.3212(9) 0.2953(6)
H52 H 0.9548 0.3458 0.2944
H53 H 1.0295 0.2782 0.2648
H54 H 1.0546 0.3547 0.2773
C49 C 0.5957(6) 0.8006(6) 0.7853(6)
C50 C 0.6140(5) 0.8814(5) 0.7745(5)
H55 H 0.6730 0.8837 0.7398
H56 H 0.6088 0.9008 0.8205
H57 H 0.5717 0.9106 0.7565
C51 C 0.6495(7) 0.7601(5) 0.8285(6)
H58 H 0.6408 0.7086 0.8343
H59 H 0.6305 0.7821 0.8758
H60 H 0.7114 0.7638 0.8027
C52 C 0.4988(6) 0.8042(5) 0.8298(5)
C53 C 0.4299(5) 0.8580(5) 0.8596(5)
C54 C 0.3510(5) 0.8263(5) 0.8986(5)
C55 C 0.3712(6) 0.7516(5) 0.8897(5)
C56 C 0.3066(6) 0.9635(5) 0.9064(5)
C57 C 0.2564(7) 1.0291(5) 0.9132(5)
C58 C 0.1958(6) 1.1685(6) 0.9047(6)
C59 C 0.1250(6) 1.1360(5) 0.9418(5)
C60 C -0.0297(7) 1.1531(6) 1.0638(6)
H61 H -0.0927 1.1706 1.0859
H62 H -0.0174 1.1004 1.0739
C61 C 0.0233(11) 1.1959(11) 1.0806(6)
H63 H 0.0672 1.2112 1.0353
H64 H 0.0550 1.1653 1.1081
C62 C -0.0233(12) 1.2608(10) 1.1220(11)
H65 H 0.0107 1.3015 1.1044
H66 H -0.0321 1.2512 1.1727
H67 H -0.0800 1.2735 1.1165
C63 C 0.2751(7) 1.2883(8) 0.9043(5)
H68 H 0.3330 1.2649 0.8729
H69 H 0.2736 1.3417 0.8965
C64 C 0.2650(12) 1.2706(10) 0.9811(6)
H70 H 0.2315 1.2290 0.9983
H71 H 0.3231 1.2564 0.9847
C65 C 0.220(2) 1.3340(14) 1.0259(8)
H72 H 0.2613 1.3672 1.0231
H73 H 0.1925 1.3179 1.0758
H74 H 0.1744 1.3595 1.0088
C66 C 0.3226(5) 0.6880(4) 0.9151(4)
C67 C 0.2222(7) 0.7156(6) 0.9436(6)
H75 H 0.2077 0.7483 0.9839
H76 H 0.1899 0.6738 0.9597
H77 H 0.2063 0.7419 0.9050
C68 C 0.3455(6) 0.6463(5) 0.9777(5)
H78 H 0.4067 0.6240 0.9597
H79 H 0.3081 0.6081 0.9969
H80 H 0.3363 0.6805 1.0157
N1 N 0.5715(5) 0.7951(4) 0.6701(4)
H81 H 0.5298 0.8325 0.6803
N2 N 0.4615(4) 0.7392(4) 0.8515(4)
H82 H 0.4916 0.6954 0.8420
N3 N 0.3284(4) 0.6620(4) 0.7909(4)
H83 H 0.3087 0.7076 0.7841
N4 N 0.4491(5) 0.6968(4) 0.6135(4)
H84 H 0.4881 0.6622 0.6202
S1 S 0.1920(2) 1.25889(17) 0.8773(2)
S2 S 0.01682(19) 1.17750(16) 0.96878(17)
S3 S 0.14180(17) 1.04022(13) 0.96012(15)
S4 S 0.29748(17) 1.11151(13) 0.87907(16)
S5 S 0.25774(16) 0.88458(13) 0.94266(14)
S6 S 0.41952(16) 0.95356(12) 0.86173(14)
S7 S 0.63189(14) 0.19565(13) 0.90783(14)
S8 S 0.64003(16) 0.16349(13) 0.74221(15)
S9 S 0.51262(16) 0.30078(13) 0.75807(14)
S10 S 0.51204(17) 0.33172(13) 0.90191(14)
S11 S 0.40275(17) 0.45347(13) 0.74968(15)
S12 S 0.39661(16) 0.49055(13) 0.89579(14)
S13 S 0.07656(17) 1.16594(13) 0.61605(15)
S14 S -0.07657(16) 1.05718(14) 0.69427(15)
S15 S 0.20605(15) 1.02781(13) 0.57882(14)
S16 S 0.06987(15) 0.93270(13) 0.65357(14)
S17 S 0.21550(15) 0.79378(12) 0.62999(13)
S18 S 0.35620(15) 0.88798(13) 0.55428(14)
S19 S 0.9790(2) 0.33776(17) 0.50675(19)
S20 S 0.99181(18) 0.35272(15) 0.6659(2)
S21 S 0.88155(19) 0.49890(15) 0.67456(18)
S22 S 0.86977(18) 0.48611(15) 0.53152(19)
S23 S 0.74624(16) 0.64240(14) 0.55266(16)
S24 S 0.75866(16) 0.65271(14) 0.69806(16)
C69 C 1.2611(7) -0.0318(7) 0.7454(6)
C70 C 1.3036(7) 0.0233(7) 0.7193(6)
H85 H 1.3654 0.0164 0.6987
C71 C 1.2582(7) 0.0903(6) 0.7220(6)
C72 C 1.1660(6) 0.1028(6) 0.7558(5)
H86 H 1.1346 0.1504 0.7581
C73 C 1.1248(6) 0.0446(6) 0.7844(5)
C74 C 1.1692(7) -0.0250(6) 0.7808(6)
H87 H 1.1401 -0.0660 0.8008
C75 C 1.0280(6) 0.0519(5) 0.8227(5)
C76 C 0.8956(6) 0.1361(5) 0.8664(5)
H88 H 0.8609 0.1017 0.8574
H89 H 0.8915 0.1300 0.9170
C77 C 0.8610(6) 0.2116(5) 0.8534(5)
H90 H 0.8052 0.2254 0.8933
H91 H 0.9022 0.2442 0.8549
C78 C 0.8459(6) 0.2252(5) 0.7853(5)
H92 H 0.9019 0.2253 0.7446
H93 H 0.8150 0.1869 0.7774
C79 C 0.7677(5) 0.3173(5) 0.7370(6)
C80 C 0.7095(5) 0.3897(5) 0.7470(5)
C81 C 0.6851(6) 0.4186(5) 0.6903(5)
H94 H 0.7030 0.3936 0.6464
C82 C 0.6315(7) 0.4880(6) 0.7014(6)
C83 C 0.6059(7) 0.5243(5) 0.7639(5)
H95 H 0.5686 0.5694 0.7703
C84 C 0.6331(7) 0.4963(5) 0.8161(6)
C85 C 0.6836(7) 0.4255(6) 0.8091(6)
H96 H 0.6988 0.4040 0.8481
N5 N 1.3078(7) -0.1101(7) 0.7465(6)
N6 N 1.3057(8) 0.1535(7) 0.6913(6)
N7 N 0.6052(6) 0.5170(5) 0.6406(5)
N8 N 0.6045(6) 0.5341(5) 0.8840(6)
O1 O 0.5662(5) 0.5976(4) 0.8851(5)
O2 O 0.6220(6) 0.5062(4) 0.9338(5)
O3 O 0.7879(4) 0.2820(4) 0.6819(4)
O4 O 0.7927(4) 0.2965(3) 0.7913(3)
O5 O 0.9895(4) 0.1198(3) 0.8173(3)
O6 O 0.9895(4) 0.0031(4) 0.8550(4)
O7 O 1.3874(6) -0.1154(5) 0.7184(4)
O8 O 1.3860(5) 0.1429(6) 0.6667(5)
O9 O 1.2650(6) -0.1611(6) 0.7734(5)
O10 O 0.5611(5) 0.5786(4) 0.6499(4)
O11 O 0.6292(5) 0.4848(4) 0.5851(5)
O12 O 1.2630(6) 0.2120(6) 0.6893(6)
C86 C 0.6688(5) 0.2734(4) 0.5632(4)
H97 H 0.6837 0.2258 0.5392
H98 H 0.6689 0.2646 0.6126
Cl1 Cl 0.5673(3) 0.3115(3) 0.5674(2)
Cl2 Cl 0.7500(3) 0.3309(2) 0.5151(2)
C87 C 0.8116(7) -0.0607(6) 0.8614(6)
H99 H 0.7876 -0.0818 0.9103
H100 H 0.8654 -0.0410 0.8568
Cl3 Cl 0.8369(2) -0.13033(18) 0.7964(2)
Cl4 Cl 0.73477(16) 0.01069(15) 0.84860(18)
loop_
_geom_bond_atom_site_label_1
_geom_bond_atom_site_label_2
_geom_bond_site_symmetry_1
_geom_bond_site_symmetry_2
C1 H1 1_555 1_555
H2 C1 1_555 1_555
H3 C1 1_555 1_555
C2 C1 1_555 1_555
H4 C2 1_555 1_555
H5 C2 1_555 1_555
C3 C2 1_555 1_555
H6 C3 1_555 1_555
H7 C3 1_555 1_555
C4 H8 1_555 1_555
H9 C4 1_555 1_555
H10 C4 1_555 1_555
C5 C4 1_555 1_555
H11 C5 1_555 1_555
H12 C5 1_555 1_555
C6 C5 1_555 1_555
H13 C6 1_555 1_555
H14 C6 1_555 1_555
C7 C8 1_555 1_555
C8 S8 1_555 1_555
C9 C10 1_555 1_555
C10 S11 1_555 1_555
C11 C12 1_555 1_555
C12 C13 1_555 1_555
C13 C66 1_555 1_555
C14 C11 1_555 1_555
C15 C14 1_555 1_555
C16 C15 1_555 1_555
H15 C16 1_555 1_555
H16 C16 1_555 1_555
H17 C16 1_555 1_555
C17 C15 1_555 1_555
H18 C17 1_555 1_555
H19 C17 1_555 1_555
H20 C17 1_555 1_555
C18 C15 1_555 1_555
C19 C18 1_555 1_555
C20 C19 1_555 1_555
C21 C20 1_555 1_555
C22 C23 1_555 1_555
C23 S15 1_555 1_555
C24 C25 1_555 1_555
C25 S14 1_555 1_555
C26 H21 1_555 1_555
H22 C26 1_555 1_555
C27 C26 1_555 1_555
H23 C27 1_555 1_555
H24 C27 1_555 1_555
C28 C27 1_555 1_555
H25 C28 1_555 1_555
H26 C28 1_555 1_555
H27 C28 1_555 1_555
C29 H28 1_555 1_555
H29 C29 1_555 1_555
C30 C29 1_555 1_555
H30 C30 1_555 1_555
H31 C30 1_555 1_555
C31 C30 1_555 1_555
H32 C31 1_555 1_555
H33 C31 1_555 1_555
H34 C31 1_555 1_555
C32 C21 1_555 1_555
C33 C32 1_555 1_555
H35 C33 1_555 1_555
H36 C33 1_555 1_555
H37 C33 1_555 1_555
C34 C32 1_555 1_555
H38 C34 1_555 1_555
H39 C34 1_555 1_555
H40 C34 1_555 1_555
C35 C32 1_555 1_555
C36 C35 1_555 1_555
C37 C36 1_555 1_555
C38 C37 1_555 1_555
C39 C40 1_555 1_555
C40 S21 1_555 1_555
C41 C42 1_555 1_555
C42 S20 1_555 1_555
C43 H41 1_555 1_555
H42 C43 1_555 1_555
C44 C43 1_555 1_555
H43 C44 1_555 1_555
H44 C44 1_555 1_555
C45 C44 1_555 1_555
H45 C45 1_555 1_555
H46 C45 1_555 1_555
H47 C45 1_555 1_555
C46 H48 1_555 1_555
H49 C46 1_555 1_555
C47 C46 1_555 1_555
H50 C47 1_555 1_555
H51 C47 1_555 1_555
C48 C47 1_555 1_555
H52 C48 1_555 1_555
H53 C48 1_555 1_555
H54 C48 1_555 1_555
C49 C38 1_555 1_555
C50 C49 1_555 1_555
H55 C50 1_555 1_555
H56 C50 1_555 1_555
H57 C50 1_555 1_555
C51 C49 1_555 1_555
H58 C51 1_555 1_555
H59 C51 1_555 1_555
H60 C51 1_555 1_555
C52 C49 1_555 1_555
C53 C52 1_555 1_555
C54 C53 1_555 1_555
C55 C54 1_555 1_555
C56 C57 1_555 1_555
C57 S3 1_555 1_555
C58 C59 1_555 1_555
C59 S2 1_555 1_555
C60 H61 1_555 1_555
H62 C60 1_555 1_555
C61 C60 1_555 1_555
H63 C61 1_555 1_555
H64 C61 1_555 1_555
C62 C61 1_555 1_555
H65 C62 1_555 1_555
H66 C62 1_555 1_555
H67 C62 1_555 1_555
C63 H68 1_555 1_555
H69 C63 1_555 1_555
C64 C63 1_555 1_555
H70 C64 1_555 1_555
H71 C64 1_555 1_555
C65 C64 1_555 1_555
H72 C65 1_555 1_555
H73 C65 1_555 1_555
H74 C65 1_555 1_555
C66 C55 1_555 1_555
C67 C66 1_555 1_555
H75 C67 1_555 1_555
H76 C67 1_555 1_555
H77 C67 1_555 1_555
C68 C66 1_555 1_555
H78 C68 1_555 1_555
H79 C68 1_555 1_555
H80 C68 1_555 1_555
N1 C35 1_555 1_555
H81 N1 1_555 1_555
N2 C52 1_555 1_555
H82 N2 1_555 1_555
N3 C13 1_555 1_555
H83 N3 1_555 1_555
N4 C18 1_555 1_555
H84 N4 1_555 1_555
S1 C58 1_555 1_555
S2 C60 1_555 1_555
S3 C59 1_555 1_555
S4 C57 1_555 1_555
S5 C54 1_555 1_555
S6 C53 1_555 1_555
S7 C3 1_555 1_555
S8 C6 1_555 1_555
S9 C8 1_555 1_555
S10 C7 1_555 1_555
S11 C11 1_555 1_555
S12 C10 1_555 1_555
S13 C24 1_555 1_555
S14 C26 1_555 1_555
S15 C24 1_555 1_555
S16 C23 1_555 1_555
S17 C19 1_555 1_555
S18 C20 1_555 1_555
S19 C41 1_555 1_555
S20 C43 1_555 1_555
S21 C42 1_555 1_555
S22 C40 1_555 1_555
S23 C36 1_555 1_555
S24 C37 1_555 1_555
C69 C70 1_555 1_555
C70 H85 1_555 1_555
C71 C70 1_555 1_555
C72 C71 1_555 1_555
H86 C72 1_555 1_555
C73 C72 1_555 1_555
C74 C69 1_555 1_555
H87 C74 1_555 1_555
C75 C73 1_555 1_555
C76 H88 1_555 1_555
H89 C76 1_555 1_555
C77 C76 1_555 1_555
H90 C77 1_555 1_555
H91 C77 1_555 1_555
C78 C77 1_555 1_555
H92 C78 1_555 1_555
H93 C78 1_555 1_555
C79 C80 1_555 1_555
C80 C81 1_555 1_555
C81 H94 1_555 1_555
C82 C81 1_555 1_555
C83 C82 1_555 1_555
H95 C83 1_555 1_555
C84 C83 1_555 1_555
C85 C80 1_555 1_555
H96 C85 1_555 1_555
N5 C69 1_555 1_555
N6 C71 1_555 1_555
N7 C82 1_555 1_555
N8 C84 1_555 1_555
O1 N8 1_555 1_555
O2 N8 1_555 1_555
O3 C79 1_555 1_555
O4 C78 1_555 1_555
O5 C75 1_555 1_555
O6 C75 1_555 1_555
O7 N5 1_555 1_555
O8 N6 1_555 1_555
O9 N5 1_555 1_555
O10 N7 1_555 1_555
O11 N7 1_555 1_555
O12 N6 1_555 1_555
C86 H97 1_555 1_555
H98 C86 1_555 1_555
Cl1 C86 1_555 1_555
Cl2 C86 1_555 1_555
C87 H99 1_555 1_555
H100 C87 1_555 1_555
Cl3 C87 1_555 1_555
Cl4 C87 1_555 1_555
C7 S7 1_555 1_555
C9 S9 1_555 1_555
C9 S10 1_555 1_555
C12 S12 1_555 1_555
C14 N3 1_555 1_555
C21 N4 1_555 1_555
C22 S17 1_555 1_555
C22 S18 1_555 1_555
C25 S16 1_555 1_555
C29 S13 1_555 1_555
C38 N1 1_555 1_555
C39 S23 1_555 1_555
C39 S24 1_555 1_555
C41 S22 1_555 1_555
C46 S19 1_555 1_555
C55 N2 1_555 1_555
C56 S5 1_555 1_555
C56 S6 1_555 1_555
C58 S4 1_555 1_555
C63 S1 1_555 1_555
C73 C74 1_555 1_555
C76 O5 1_555 1_555
C79 O4 1_555 1_555
C84 C85 1_555 1_555

#END
