
#######################################################################
#
#                 Cambridge Crystallographic Data Centre
#                                CCDC 
#
#######################################################################
#
# If this CIF has been generated from an entry in the Cambridge 
# Structural Database, then it will include bibliographic, chemical, 
# crystal, experimental, refinement or atomic coordinate data resulting 
# from the CCDC's data processing and validation procedures.
#
#######################################################################

data_HOBTAU
_chemical_formula_moiety         'C20 H20 N2'
_chemical_name_systematic        1,2-bis(2-methyl-1H-indol-3-yl)ethane
_symmetry_cell_setting           orthorhombic
_symmetry_space_group_name_H-M   'P b c a'
_symmetry_Int_Tables_number      61
_space_group_name_Hall           '-P 2ac 2ab'
loop_
_symmetry_equiv_pos_site_id
_symmetry_equiv_pos_as_xyz
1 x,y,z
2 1/2-x,-y,1/2+z
3 -x,1/2+y,1/2-z
4 1/2+x,1/2-y,-z
5 -x,-y,-z
6 1/2+x,y,1/2-z
7 x,1/2-y,1/2+z
8 1/2-x,1/2+y,z
_cell_length_a                   12.169(4)
_cell_length_b                   13.469(5)
_cell_length_c                   18.526(7)
_cell_angle_alpha                90
_cell_angle_beta                 90
_cell_angle_gamma                90
_cell_volume                     3036.49
_exptl_crystal_colour            colorless
_exptl_crystal_description       needle
_cell_formula_units_Z            8
_exptl_crystal_recrystallization_method acetone/pentane
loop_
_atom_site_label
_atom_site_type_symbol
_atom_site_fract_x
_atom_site_fract_y
_atom_site_fract_z
N1 N 0.1096(2) 0.4746(2) 0.43544(15)
H1 H 0.0436 0.4535 0.4291
N2 N 0.6451(2) 0.8255(2) 0.35925(16)
H2 H 0.7097 0.8471 0.3697
C1 C 0.1716(3) 0.5257(2) 0.38436(18)
C2 C 0.2718(3) 0.5481(2) 0.41391(18)
C3 C 0.2725(3) 0.5099(3) 0.48590(18)
C4 C 0.3473(3) 0.5117(3) 0.54298(18)
H3 H 0.4146 0.5434 0.5375
C5 C 0.3213(3) 0.4666(3) 0.60754(19)
H4 H 0.3718 0.4673 0.6452
C6 C 0.2200(3) 0.4200(3) 0.61692(19)
H5 H 0.2039 0.3903 0.6610
C7 C 0.1437(3) 0.4171(3) 0.56247(19)
H6 H 0.0765 0.3854 0.5688
C8 C 0.1701(3) 0.4630(2) 0.49772(19)
C9 C 0.5725(3) 0.7831(3) 0.4080(2)
C10 C 0.4780(3) 0.7591(2) 0.37260(18)
C11 C 0.4923(3) 0.7859(2) 0.29884(19)
C12 C 0.4269(3) 0.7784(3) 0.2370(2)
H7 H 0.3564 0.7519 0.2401
C13 C 0.4672(3) 0.8103(3) 0.1715(2)
H8 H 0.4245 0.8037 0.1302
C14 C 0.5724(3) 0.8528(3) 0.1667(2)
H9 H 0.5978 0.8751 0.1222
C15 C 0.6383(3) 0.8622(3) 0.2265(2)
H10 H 0.7077 0.8906 0.2231
C16 C 0.5985(3) 0.8281(3) 0.2916(2)
C17 C 0.1238(3) 0.5493(3) 0.31268(18)
H11 H 0.1770 0.5842 0.2841
H12 H 0.0598 0.5902 0.3189
H13 H 0.1035 0.4889 0.2887
C18 C 0.3653(3) 0.6026(2) 0.37918(18)
H14 H 0.3551 0.6016 0.3273
H15 H 0.4331 0.5676 0.3898
C19 C 0.6070(3) 0.7667(3) 0.48402(19)
H16 H 0.5478 0.7367 0.5104
H17 H 0.6257 0.8292 0.5057
H18 H 0.6698 0.7236 0.4851
C20 C 0.3769(3) 0.7103(2) 0.40388(19)
H19 H 0.3123 0.7473 0.3892
H20 H 0.3811 0.7122 0.4561
loop_
_geom_bond_atom_site_label_1
_geom_bond_atom_site_label_2
_geom_bond_site_symmetry_1
_geom_bond_site_symmetry_2
N1 H1 1_555 1_555
N2 H2 1_555 1_555
C1 N1 1_555 1_555
C2 C1 1_555 1_555
C3 C2 1_555 1_555
C4 C3 1_555 1_555
H3 C4 1_555 1_555
C5 C4 1_555 1_555
H4 C5 1_555 1_555
C6 C5 1_555 1_555
H5 C6 1_555 1_555
C7 C6 1_555 1_555
H6 C7 1_555 1_555
C8 N1 1_555 1_555
C9 N2 1_555 1_555
C10 C9 1_555 1_555
C11 C10 1_555 1_555
C12 C11 1_555 1_555
H7 C12 1_555 1_555
C13 C12 1_555 1_555
H8 C13 1_555 1_555
C14 C13 1_555 1_555
H9 C14 1_555 1_555
C15 C14 1_555 1_555
H10 C15 1_555 1_555
C16 N2 1_555 1_555
C17 C1 1_555 1_555
H11 C17 1_555 1_555
H12 C17 1_555 1_555
H13 C17 1_555 1_555
C18 C2 1_555 1_555
H14 C18 1_555 1_555
H15 C18 1_555 1_555
C19 C9 1_555 1_555
H16 C19 1_555 1_555
H17 C19 1_555 1_555
H18 C19 1_555 1_555
C20 C10 1_555 1_555
H19 C20 1_555 1_555
H20 C20 1_555 1_555
C3 C8 1_555 1_555
C7 C8 1_555 1_555
C11 C16 1_555 1_555
C15 C16 1_555 1_555
C18 C20 1_555 1_555

#END
