
#######################################################################
#
#                 Cambridge Crystallographic Data Centre
#                                CCDC 
#
#######################################################################
#
# If this CIF has been generated from an entry in the Cambridge 
# Structural Database, then it will include bibliographic, chemical, 
# crystal, experimental, refinement or atomic coordinate data resulting 
# from the CCDC's data processing and validation procedures.
#
#######################################################################

data_HOBYUU
_chemical_formula_moiety         'C38 H48 N4 O12 Si2'
_chemical_name_systematic        
'4-Phenyl-1,1-bis(triethylsilyl)hex-1-ene-3,6-diyl bis(3,5-dinitrobenzoate)'
_symmetry_cell_setting           triclinic
_symmetry_space_group_name_H-M   'P -1'
_symmetry_Int_Tables_number      2
_space_group_name_Hall           '-P 1'
loop_
_symmetry_equiv_pos_site_id
_symmetry_equiv_pos_as_xyz
1 x,y,z
2 -x,-y,-z
_cell_length_a                   10.9442(10)
_cell_length_b                   12.2254(12)
_cell_length_c                   17.0170(17)
_cell_angle_alpha                83.291(8)
_cell_angle_beta                 72.695(9)
_cell_angle_gamma                73.531(9)
_cell_volume                     2083.27
_exptl_crystal_colour            colorless
_exptl_crystal_description       block
_cell_formula_units_Z            2
_exptl_crystal_recrystallization_method methanol/tetrahydrofuran
loop_
_atom_site_label
_atom_site_type_symbol
_atom_site_fract_x
_atom_site_fract_y
_atom_site_fract_z
Si1 Si 0.36288(12) 0.44319(10) 0.26772(7)
Si2 Si 0.38760(12) 0.25204(10) 0.42085(7)
O1 O 0.4050(2) 0.0403(2) 0.23939(15)
O2 O 0.4426(3) -0.0902(3) 0.34028(17)
O3 O 0.8982(4) -0.3452(4) 0.2655(3)
O4 O 1.0104(3) -0.3645(3) 0.1386(2)
O5 O 0.7792(4) -0.2272(3) -0.0703(2)
O6 O 0.5732(4) -0.1341(3) -0.03470(19)
O7 O -0.0150(3) 0.0517(2) 0.21507(19)
O8 O -0.0535(3) -0.0820(3) 0.1537(2)
O9 O -0.0942(4) 0.4403(3) 0.1113(3)
O10 O -0.2066(4) 0.4966(3) 0.0241(3)
O11 O -0.3263(4) 0.2232(3) -0.1009(2)
O12 O -0.2645(3) 0.0447(3) -0.0687(2)
N1 N 0.9090(4) -0.3276(4) 0.1927(3)
N2 N 0.6781(4) -0.1811(3) -0.0195(2)
N3 N -0.1496(4) 0.4230(4) 0.0642(3)
N4 N -0.2734(4) 0.1453(4) -0.0615(3)
C1 C 0.3530(3) 0.2986(3) 0.3175(2)
C2 C 0.3156(3) 0.2332(3) 0.2757(2)
H1 H 0.3017 0.2651 0.2257
C3 C 0.2930(4) 0.1169(3) 0.2969(2)
H2 H 0.2926 0.0944 0.3541
C4 C 0.1651(4) 0.1086(3) 0.2807(2)
H3 H 0.1678 0.1387 0.2244
C5 C 0.1578(4) -0.0152(3) 0.2837(3)
H4 H 0.2284 -0.0549 0.2387
H5 H 0.1736 -0.0521 0.3348
C6 C 0.0278(4) -0.0281(4) 0.2781(3)
H6 H 0.0383 -0.1056 0.2643
H7 H -0.0384 -0.0127 0.3308
C7 C 0.0450(4) 0.1846(4) 0.3373(3)
C8 C -0.0120(5) 0.1493(5) 0.4164(3)
H8 H 0.0254 0.0773 0.4362
C9 C -0.1254(6) 0.2204(6) 0.4675(4)
H9 H -0.1634 0.1956 0.5206
C10 C -0.1789(6) 0.3258(6) 0.4381(5)
H10 H -0.2542 0.3726 0.4719
C11 C -0.1258(6) 0.3644(5) 0.3615(4)
H11 H -0.1633 0.4372 0.3430
C12 C -0.0133(5) 0.2930(4) 0.3102(3)
H12 H 0.0229 0.3189 0.2571
C13 C 0.4694(4) -0.0580(4) 0.2694(3)
C14 C 0.5808(4) -0.1228(3) 0.2034(2)
C15 C 0.6884(4) -0.1942(3) 0.2272(2)
H13 H 0.6900 -0.1998 0.2818
C16 C 0.7921(4) -0.2562(3) 0.1682(3)
C17 C 0.7924(4) -0.2524(3) 0.0869(3)
H14 H 0.8638 -0.2947 0.0476
C18 C 0.6827(4) -0.1835(3) 0.0666(2)
C19 C 0.5782(4) -0.1166(3) 0.1221(2)
H15 H 0.5070 -0.0683 0.1056
C20 C -0.0579(4) 0.0156(4) 0.1609(3)
C21 C -0.1086(4) 0.1108(4) 0.1060(3)
C22 C -0.1040(4) 0.2218(4) 0.1113(3)
H16 H -0.0666 0.2397 0.1489
C23 C -0.1566(4) 0.3055(4) 0.0592(3)
C24 C -0.2124(4) 0.2841(4) 0.0023(3)
H17 H -0.2461 0.3415 -0.0324
C25 C -0.2159(4) 0.1727(4) -0.0006(3)
C26 C -0.1651(4) 0.0856(4) 0.0498(2)
H18 H -0.1689 0.0114 0.0461
C27 C 0.5345(5) 0.4600(4) 0.2533(3)
H19 H 0.5520 0.4500 0.3067
H20 H 0.5981 0.3991 0.2193
C28 C 0.5589(6) 0.5724(5) 0.2147(4)
H21 H 0.5427 0.5835 0.1615
H22 H 0.6491 0.5716 0.2087
H23 H 0.5002 0.6334 0.2493
C29 C 0.2266(5) 0.5531(4) 0.3333(3)
H24 H 0.1440 0.5338 0.3398
H25 H 0.2409 0.5457 0.3875
C30 C 0.2078(7) 0.6737(5) 0.3065(4)
H26 H 0.1973 0.6832 0.2519
H27 H 0.2838 0.6981 0.3066
H28 H 0.1300 0.7188 0.3435
C31 C 0.3345(4) 0.4608(4) 0.1624(2)
H29 H 0.2539 0.4393 0.1667
H30 H 0.3198 0.5410 0.1457
C32 C 0.4457(5) 0.3924(4) 0.0945(3)
H31 H 0.4217 0.4074 0.0437
H32 H 0.4596 0.3124 0.1091
H33 H 0.5258 0.4143 0.0880
C33 C 0.5259(5) 0.1209(4) 0.4110(3)
H34 H 0.5553 0.1101 0.4604
H35 H 0.4921 0.0565 0.4086
C34 C 0.6458(5) 0.1185(5) 0.3369(4)
H36 H 0.6201 0.1223 0.2872
H37 H 0.7132 0.0490 0.3392
H38 H 0.6797 0.1825 0.3377
C35 C 0.4363(5) 0.3639(4) 0.4607(3)
H39 H 0.5231 0.3686 0.4262
H40 H 0.3740 0.4369 0.4556
C36 C 0.4413(5) 0.3445(4) 0.5505(3)
H41 H 0.5004 0.2713 0.5570
H42 H 0.3541 0.3469 0.5859
H43 H 0.4727 0.4032 0.5648
C37 C 0.2371(6) 0.2220(6) 0.5008(3)
H44 H 0.2108 0.1629 0.4817
H45 H 0.2602 0.1941 0.5517
C38 C 0.1247(7) 0.3252(8) 0.5170(5)
H46 H 0.0983 0.3504 0.4675
H47 H 0.1512 0.3845 0.5346
H48 H 0.0516 0.3079 0.5593
loop_
_geom_bond_atom_site_label_1
_geom_bond_atom_site_label_2
_geom_bond_site_symmetry_1
_geom_bond_site_symmetry_2
Si1 C1 1_555 1_555
Si2 C1 1_555 1_555
O1 C3 1_555 1_555
O2 C13 1_555 1_555
O3 N1 1_555 1_555
O4 N1 1_555 1_555
O5 N2 1_555 1_555
O6 N2 1_555 1_555
O7 C6 1_555 1_555
O8 C20 1_555 1_555
O9 N3 1_555 1_555
O10 N3 1_555 1_555
O11 N4 1_555 1_555
O12 N4 1_555 1_555
N1 C16 1_555 1_555
N2 C18 1_555 1_555
N3 C23 1_555 1_555
N4 C25 1_555 1_555
C1 C2 1_555 1_555
C2 H1 1_555 1_555
C3 C2 1_555 1_555
H2 C3 1_555 1_555
C4 C3 1_555 1_555
H3 C4 1_555 1_555
C5 C4 1_555 1_555
H4 C5 1_555 1_555
H5 C5 1_555 1_555
C6 C5 1_555 1_555
H6 C6 1_555 1_555
H7 C6 1_555 1_555
C7 C4 1_555 1_555
C8 C7 1_555 1_555
H8 C8 1_555 1_555
C9 C8 1_555 1_555
H9 C9 1_555 1_555
C10 C9 1_555 1_555
H10 C10 1_555 1_555
C11 C10 1_555 1_555
H11 C11 1_555 1_555
C12 C7 1_555 1_555
H12 C12 1_555 1_555
C13 O1 1_555 1_555
C14 C13 1_555 1_555
C15 C14 1_555 1_555
H13 C15 1_555 1_555
C16 C15 1_555 1_555
C17 C16 1_555 1_555
H14 C17 1_555 1_555
C18 C17 1_555 1_555
C19 C14 1_555 1_555
H15 C19 1_555 1_555
C20 O7 1_555 1_555
C21 C20 1_555 1_555
C22 C21 1_555 1_555
H16 C22 1_555 1_555
C23 C22 1_555 1_555
C24 C23 1_555 1_555
H17 C24 1_555 1_555
C25 C24 1_555 1_555
C26 C21 1_555 1_555
H18 C26 1_555 1_555
C27 Si1 1_555 1_555
H19 C27 1_555 1_555
H20 C27 1_555 1_555
C28 C27 1_555 1_555
H21 C28 1_555 1_555
H22 C28 1_555 1_555
H23 C28 1_555 1_555
C29 Si1 1_555 1_555
H24 C29 1_555 1_555
H25 C29 1_555 1_555
C30 C29 1_555 1_555
H26 C30 1_555 1_555
H27 C30 1_555 1_555
H28 C30 1_555 1_555
C31 Si1 1_555 1_555
H29 C31 1_555 1_555
H30 C31 1_555 1_555
C32 C31 1_555 1_555
H31 C32 1_555 1_555
H32 C32 1_555 1_555
H33 C32 1_555 1_555
C33 Si2 1_555 1_555
H34 C33 1_555 1_555
H35 C33 1_555 1_555
C34 C33 1_555 1_555
H36 C34 1_555 1_555
H37 C34 1_555 1_555
H38 C34 1_555 1_555
C35 Si2 1_555 1_555
H39 C35 1_555 1_555
H40 C35 1_555 1_555
C36 C35 1_555 1_555
H41 C36 1_555 1_555
H42 C36 1_555 1_555
H43 C36 1_555 1_555
C37 Si2 1_555 1_555
H44 C37 1_555 1_555
H45 C37 1_555 1_555
C38 C37 1_555 1_555
H46 C38 1_555 1_555
H47 C38 1_555 1_555
H48 C38 1_555 1_555
C11 C12 1_555 1_555
C18 C19 1_555 1_555
C25 C26 1_555 1_555

#END
