
#######################################################################
#
#                 Cambridge Crystallographic Data Centre
#                                CCDC 
#
#######################################################################
#
# If this CIF has been generated from an entry in the Cambridge 
# Structural Database, then it will include bibliographic, chemical, 
# crystal, experimental, refinement or atomic coordinate data resulting 
# from the CCDC's data processing and validation procedures.
#
#######################################################################

data_HOCDEI
_chemical_formula_moiety         'C30 H26 N2 O3'
_chemical_name_systematic        
2'-Benzyl-2',3'-dihydro-2-p-methoxyphenyl-3'-phenyl-spiro(1H-isoindol-1,5'(4'H)-isoxazole)-3-(2H)-one
_symmetry_cell_setting           triclinic
_symmetry_space_group_name_H-M   'P -1'
_symmetry_Int_Tables_number      2
_space_group_name_Hall           '-P 1'
loop_
_symmetry_equiv_pos_site_id
_symmetry_equiv_pos_as_xyz
1 x,y,z
2 -x,-y,-z
_cell_length_a                   10.47(1)
_cell_length_b                   14.614(2)
_cell_length_c                   16.653(3)
_cell_angle_alpha                81.66(2)
_cell_angle_beta                 81.25(3)
_cell_angle_gamma                85.99(3)
_cell_volume                     2488.78
_exptl_crystal_colour            white
_chemical_melting_point          '143-144 deg.C'
_cell_formula_units_Z            4
loop_
_atom_site_label
_atom_site_type_symbol
_atom_site_fract_x
_atom_site_fract_y
_atom_site_fract_z
O1 O 0.0833(4) -0.0705(3) 0.7293(3)
O2 O 0.3995(4) 0.0309(3) 0.3712(2)
O3 O 0.2265(4) -0.2380(3) 0.3828(2)
N1 N 0.3393(5) -0.1172(3) 0.4209(3)
N2 N 0.1803(4) -0.2948(3) 0.4610(3)
C1 C 0.1494(7) -0.0642(6) 0.7959(4)
C2 C 0.1523(6) -0.0761(4) 0.6537(4)
C3 C 0.2845(6) -0.0790(4) 0.6377(4)
C4 C 0.3476(6) -0.0904(4) 0.5592(4)
C5 C 0.2747(5) -0.0989(4) 0.4995(3)
C6 C 0.1429(6) -0.0926(4) 0.5148(3)
C7 C 0.0810(6) -0.0818(5) 0.5920(4)
C8 C 0.3970(6) -0.0511(4) 0.3631(3)
C9 C 0.4564(5) -0.0975(4) 0.2930(3)
C10 C 0.5282(6) -0.0625(5) 0.2202(4)
C11 C 0.5695(7) -0.1228(5) 0.1645(4)
C12 C 0.5444(6) -0.2152(5) 0.1812(4)
C13 C 0.4718(6) -0.2503(4) 0.2540(4)
C14 C 0.4299(5) -0.1893(4) 0.3100(3)
C15 C 0.3500(5) -0.2091(4) 0.3928(3)
C16 C 0.4017(6) -0.2853(4) 0.4547(3)
C17 C 0.2949(5) -0.3535(4) 0.4770(3)
C18 C 0.2799(6) -0.4001(4) 0.5643(4)
C19 C 0.3096(6) -0.4922(4) 0.5844(4)
C20 C 0.3034(7) -0.5312(5) 0.6646(5)
C21 C 0.2664(7) -0.4816(5) 0.7258(4)
C22 C 0.2344(7) -0.3901(5) 0.7071(4)
C23 C 0.2403(6) -0.3485(5) 0.6274(4)
C24 C 0.0743(6) -0.3438(4) 0.4409(3)
C25 C -0.0480(5) -0.2834(4) 0.4359(3)
C26 C -0.1088(6) -0.2769(5) 0.3687(4)
C27 C -0.2212(7) -0.2230(6) 0.3642(4)
C28 C -0.2694(6) -0.1743(5) 0.4250(5)
C29 C -0.2102(6) -0.1785(5) 0.4923(4)
C30 C -0.0986(6) -0.2340(4) 0.4985(4)
loop_
_geom_bond_atom_site_label_1
_geom_bond_atom_site_label_2
_geom_bond_site_symmetry_1
_geom_bond_site_symmetry_2
O1 C1 1_555 1_555
O2 C8 1_555 1_555
O3 N2 1_555 1_555
N1 C5 1_555 1_555
N2 C17 1_555 1_555
C2 O1 1_555 1_555
C3 C2 1_555 1_555
C4 C3 1_555 1_555
C5 C4 1_555 1_555
C6 C5 1_555 1_555
C7 C2 1_555 1_555
C8 N1 1_555 1_555
C9 C8 1_555 1_555
C10 C9 1_555 1_555
C11 C10 1_555 1_555
C12 C11 1_555 1_555
C13 C12 1_555 1_555
C14 C9 1_555 1_555
C15 O3 1_555 1_555
C16 C15 1_555 1_555
C17 C16 1_555 1_555
C18 C17 1_555 1_555
C19 C18 1_555 1_555
C20 C19 1_555 1_555
C21 C20 1_555 1_555
C22 C21 1_555 1_555
C23 C18 1_555 1_555
C24 N2 1_555 1_555
C25 C24 1_555 1_555
C26 C25 1_555 1_555
C27 C26 1_555 1_555
C28 C27 1_555 1_555
C29 C28 1_555 1_555
C30 C25 1_555 1_555
N1 C15 1_555 1_555
C6 C7 1_555 1_555
C13 C14 1_555 1_555
C14 C15 1_555 1_555
C22 C23 1_555 1_555
C29 C30 1_555 1_555

#END
