
#######################################################################
#
#                 Cambridge Crystallographic Data Centre
#                                CCDC 
#
#######################################################################
#
# If this CIF has been generated from an entry in the Cambridge 
# Structural Database, then it will include bibliographic, chemical, 
# crystal, experimental, refinement or atomic coordinate data resulting 
# from the CCDC's data processing and validation procedures.
#
#######################################################################

data_HOCDAE
_chemical_formula_moiety         'C30 H26 N2 O3'
_chemical_name_systematic        
2'-Benzyl-2',3'-dihydro-2-p-methoxyphenyl-3'-phenyl-spiro(1H-isoindol-1,5'(4'H)-isoxazole)-3-(2H)-one
_symmetry_cell_setting           triclinic
_symmetry_space_group_name_H-M   'P -1'
_symmetry_Int_Tables_number      2
_space_group_name_Hall           '-P 1'
loop_
_symmetry_equiv_pos_site_id
_symmetry_equiv_pos_as_xyz
1 x,y,z
2 -x,-y,-z
_cell_length_a                   6.890(4)
_cell_length_b                   9.994(2)
_cell_length_c                   18.763(3)
_cell_angle_alpha                76.08(2)
_cell_angle_beta                 79.87(3)
_cell_angle_gamma                71.55(3)
_cell_volume                     1182.59
_exptl_crystal_colour            white
_chemical_melting_point          '233-235 deg.C'
_cell_formula_units_Z            2
loop_
_atom_site_label
_atom_site_type_symbol
_atom_site_fract_x
_atom_site_fract_y
_atom_site_fract_z
O1 O -0.5062(6) -0.1299(4) 0.4277(2)
O2 O -0.1155(6) 0.3480(4) 0.4640(2)
O3 O 0.1646(6) 0.1957(3) 0.2528(2)
N1 N -0.0700(7) 0.2778(4) 0.3520(2)
N2 N 0.1042(7) 0.1751(4) 0.1842(2)
C1 C -0.412(1) -0.2771(6) 0.4534(3)
C2 C -0.3873(9) -0.0368(5) 0.4123(3)
C3 C -0.1798(9) -0.0763(5) 0.4211(3)
C4 C -0.0790(9) 0.0306(6) 0.4010(3)
C5 C -0.1822(8) 0.1725(5) 0.3740(3)
C6 C -0.3888(9) 0.2094(5) 0.3672(3)
C7 C -0.4950(9) 0.1051(6) 0.3861(3)
C8 C -0.0467(8) 0.3582(5) 0.3989(3)
C9 C 0.0779(8) 0.4498(5) 0.3551(3)
C10 C 0.1507(9) 0.5480(5) 0.3768(3)
C11 C 0.2693(9) 0.6209(5) 0.3242(3)
C12 C 0.319(1) 0.5950(5) 0.2528(3)
C13 C 0.2429(9) 0.4976(5) 0.2314(3)
C14 C 0.1251(8) 0.4270(5) 0.2839(3)
C15 C 0.0176(9) 0.3192(5) 0.2761(3)
C16 C -0.1357(9) 0.3751(5) 0.2183(3)
C17 C -0.1211(9) 0.2416(5) 0.1899(3)
C18 C -0.2022(8) 0.2719(5) 0.1163(3)
C19 C -0.1024(9) 0.3332(6) 0.0523(3)
C20 C -0.178(1) 0.3606(6) -0.0155(3)
C21 C -0.359(1) 0.3312(6) -0.0192(3)
C22 C -0.457(1) 0.2712(6) 0.0441(3)
C23 C -0.3791(9) 0.2388(5) 0.1121(3)
C24 C 0.1521(9) 0.0180(5) 0.1940(3)
C25 C 0.3811(9) -0.0539(5) 0.1818(3)
C26 C 0.473(1) -0.0835(6) 0.1123(3)
C27 C 0.683(1) -0.1463(6) 0.1021(3)
C28 C 0.800(1) -0.1840(6) 0.1598(4)
C29 C 0.714(1) -0.1597(6) 0.2301(3)
C30 C 0.504(1) -0.0933(5) 0.2394(3)
loop_
_geom_bond_atom_site_label_1
_geom_bond_atom_site_label_2
_geom_bond_site_symmetry_1
_geom_bond_site_symmetry_2
O1 C1 1_555 1_555
O2 C8 1_555 1_555
O3 N2 1_555 1_555
N1 C5 1_555 1_555
N2 C17 1_555 1_555
C2 O1 1_555 1_555
C3 C2 1_555 1_555
C4 C3 1_555 1_555
C5 C4 1_555 1_555
C6 C5 1_555 1_555
C7 C2 1_555 1_555
C8 N1 1_555 1_555
C9 C8 1_555 1_555
C10 C9 1_555 1_555
C11 C10 1_555 1_555
C12 C11 1_555 1_555
C13 C12 1_555 1_555
C14 C9 1_555 1_555
C15 O3 1_555 1_555
C16 C15 1_555 1_555
C17 C16 1_555 1_555
C18 C17 1_555 1_555
C19 C18 1_555 1_555
C20 C19 1_555 1_555
C21 C20 1_555 1_555
C22 C21 1_555 1_555
C23 C18 1_555 1_555
C24 N2 1_555 1_555
C25 C24 1_555 1_555
C26 C25 1_555 1_555
C27 C26 1_555 1_555
C28 C27 1_555 1_555
C29 C28 1_555 1_555
C30 C25 1_555 1_555
N1 C15 1_555 1_555
C6 C7 1_555 1_555
C13 C14 1_555 1_555
C14 C15 1_555 1_555
C22 C23 1_555 1_555
C29 C30 1_555 1_555

#END
