
#######################################################################
#
#                 Cambridge Crystallographic Data Centre
#                                CCDC 
#
#######################################################################
#
# If this CIF has been generated from an entry in the Cambridge 
# Structural Database, then it will include bibliographic, chemical, 
# crystal, experimental, refinement or atomic coordinate data resulting 
# from the CCDC's data processing and validation procedures.
#
#######################################################################

data_HOCFAG
_chemical_formula_moiety         'C18 H19 N1 O1 Se1'
_chemical_name_systematic        
'2-(4,4-Dimethyl-2-oxazolinyl)phenyl benzyl selenide'
_symmetry_cell_setting           triclinic
_symmetry_space_group_name_H-M   'P -1'
_symmetry_Int_Tables_number      2
_space_group_name_Hall           '-P 1'
loop_
_symmetry_equiv_pos_site_id
_symmetry_equiv_pos_as_xyz
1 x,y,z
2 -x,-y,-z
_cell_length_a                   8.0699(8)
_cell_length_b                   9.1119(9)
_cell_length_c                   12.2642(12)
_cell_angle_alpha                79.942(5)
_cell_angle_beta                 71.005(5)
_cell_angle_gamma                68.530(6)
_cell_volume                     791.956
_exptl_crystal_colour            colorless
_exptl_crystal_description       'thick plate'
_chemical_melting_point          '158-160 deg.C'
_cell_formula_units_Z            2
_exptl_crystal_recrystallization_method chloroform/hexane
loop_
_atom_site_label
_atom_site_type_symbol
_atom_site_fract_x
_atom_site_fract_y
_atom_site_fract_z
Se1 Se 1.28610(4) 1.24873(3) 0.44373(2)
O1 O 1.6629(3) 1.4006(2) 0.1173(2)
N1 N 1.5116(3) 1.4223(3) 0.3065(2)
C1 C 1.3147(3) 1.2138(3) 0.2881(2)
C2 C 1.4250(3) 1.2819(3) 0.1939(2)
C3 C 1.4380(4) 1.2594(3) 0.0820(2)
H1 H 1.5119(37) 1.3087(32) 0.0234(25)
C4 C 1.3480(4) 1.1695(4) 0.0608(3)
H2 H 1.3641(37) 1.1529(33) -0.0131(26)
C5 C 1.2462(4) 1.0991(4) 0.1518(3)
H3 H 1.1970(38) 1.0351(34) 0.1373(26)
C6 C 1.2289(4) 1.1205(3) 0.2642(3)
H4 H 1.1547(37) 1.0685(31) 0.3264(25)
C7 C 1.5297(3) 1.3721(3) 0.2124(2)
C8 C 1.7631(5) 1.4699(5) 0.1589(3)
H5 H 1.7687(39) 1.5642(37) 0.1172(27)
H6 H 1.8834(48) 1.3962(38) 0.1567(28)
C9 C 1.6494(4) 1.5040(3) 0.2852(2)
C10 C 1.5478(6) 1.6781(4) 0.3000(4)
H7 H 1.4674(39) 1.6963(32) 0.3764(27)
H8 H 1.4741(43) 1.7209(35) 0.2412(28)
H9 H 1.6392(41) 1.7292(35) 0.2863(26)
C11 C 1.7672(6) 1.4326(5) 0.3674(4)
H10 H 1.6919(47) 1.4534(40) 0.4428(32)
H11 H 1.8739(46) 1.4687(37) 0.3476(28)
H12 H 1.8179(46) 1.3163(42) 0.3592(30)
C12 C 1.1297(5) 1.1198(5) 0.5289(3)
H13 H 1.0253(41) 1.1579(34) 0.5037(26)
H14 H 1.1956(40) 1.0201(39) 0.5073(27)
C13 C 1.0844(3) 1.1421(3) 0.6547(2)
C14 C 0.9445(4) 1.2748(4) 0.7049(3)
H15 H 0.8722(38) 1.3465(33) 0.6619(25)
C15 C 0.9064(4) 1.2967(4) 0.8199(3)
H16 H 0.8195(39) 1.3854(35) 0.8479(25)
C16 C 1.0059(4) 1.1884(4) 0.8869(3)
H17 H 0.9781(37) 1.2045(33) 0.9642(26)
C17 C 1.1460(4) 1.0571(4) 0.8386(3)
H18 H 1.2211(36) 0.9786(32) 0.8827(24)
C18 C 1.1848(4) 1.0343(3) 0.7236(3)
H19 H 1.2805(37) 0.9471(33) 0.6878(24)
loop_
_geom_bond_atom_site_label_1
_geom_bond_atom_site_label_2
_geom_bond_site_symmetry_1
_geom_bond_site_symmetry_2
Se1 C1 1_555 1_555
O1 C7 1_555 1_555
N1 C7 1_555 1_555
C1 C2 1_555 1_555
C2 C3 1_555 1_555
C3 H1 1_555 1_555
C4 C3 1_555 1_555
H2 C4 1_555 1_555
C5 C4 1_555 1_555
H3 C5 1_555 1_555
C6 C1 1_555 1_555
H4 C6 1_555 1_555
C7 C2 1_555 1_555
C8 O1 1_555 1_555
H5 C8 1_555 1_555
H6 C8 1_555 1_555
C9 N1 1_555 1_555
C10 C9 1_555 1_555
H7 C10 1_555 1_555
H8 C10 1_555 1_555
H9 C10 1_555 1_555
C11 C9 1_555 1_555
H10 C11 1_555 1_555
H11 C11 1_555 1_555
H12 C11 1_555 1_555
C12 Se1 1_555 1_555
H13 C12 1_555 1_555
H14 C12 1_555 1_555
C13 C12 1_555 1_555
C14 C13 1_555 1_555
H15 C14 1_555 1_555
C15 C14 1_555 1_555
H16 C15 1_555 1_555
C16 C15 1_555 1_555
H17 C16 1_555 1_555
C17 C16 1_555 1_555
H18 C17 1_555 1_555
C18 C13 1_555 1_555
H19 C18 1_555 1_555
C5 C6 1_555 1_555
C8 C9 1_555 1_555
C17 C18 1_555 1_555

#END
