
#######################################################################
#
#                 Cambridge Crystallographic Data Centre
#                                CCDC 
#
#######################################################################
#
# If this CIF has been generated from an entry in the Cambridge 
# Structural Database, then it will include bibliographic, chemical, 
# crystal, experimental, refinement or atomic coordinate data resulting 
# from the CCDC's data processing and validation procedures.
#
#######################################################################

data_HOCFEK
_chemical_formula_moiety         'C30 H32 N2 O2 Se2'
_chemical_name_systematic        
\a,\a'-bis(2-(4,4-Dimethyl-2-oxazolinyl)phenylselanyl)-m-xylene
_symmetry_cell_setting           monoclinic
_symmetry_space_group_name_H-M   'P 21/n'
_symmetry_Int_Tables_number      14
_space_group_name_Hall           '-P 2yn'
loop_
_symmetry_equiv_pos_site_id
_symmetry_equiv_pos_as_xyz
1 x,y,z
2 1/2+x,1/2-y,1/2+z
3 -x,-y,-z
4 1/2-x,1/2+y,1/2-z
_cell_length_a                   15.190(2)
_cell_length_b                   11.397(2)
_cell_length_c                   16.614(2)
_cell_angle_alpha                90
_cell_angle_beta                 95.08(2)
_cell_angle_gamma                90
_cell_volume                     2864.93
_chemical_melting_point          '160-162 deg.C'
_cell_formula_units_Z            4
_exptl_crystal_recrystallization_method chloroform/hexane
loop_
_atom_site_label
_atom_site_type_symbol
_atom_site_fract_x
_atom_site_fract_y
_atom_site_fract_z
Se1 Se 0.08800(4) 0.22213(5) 0.60365(3)
Se2 Se 0.26136(4) 0.63668(5) 0.38421(4)
O1 O 0.1810(3) 0.0475(4) 0.8399(2)
O2 O 0.3399(3) 1.0079(4) 0.4423(3)
N1 N 0.1706(3) 0.0505(4) 0.7038(3)
N2 N 0.2425(4) 0.8785(4) 0.3872(3)
C1 C 0.0686(4) 0.3594(5) 0.4634(3)
C2 C 0.0243(5) 0.3205(5) 0.3917(4)
H1 H -0.0325(5) 0.2898(5) 0.3916(4)
C3 C 0.0644(6) 0.3275(6) 0.3205(4)
H2 H 0.0342(6) 0.3021(6) 0.2725(4)
C4 C 0.1487(5) 0.3716(5) 0.3197(4)
H3 H 0.1753(5) 0.3751(5) 0.2714(4)
C5 C 0.1942(4) 0.4110(5) 0.3906(4)
C6 C 0.1524(4) 0.4043(5) 0.4607(4)
H4 H 0.1821(4) 0.4313(5) 0.5085(4)
C7 C 0.0274(4) 0.3519(5) 0.5424(3)
H5 H -0.0354(4) 0.3361(5) 0.5330(3)
H6 H 0.0355(4) 0.4251(5) 0.5720(3)
C8 C 0.0386(4) 0.2410(5) 0.7053(3)
C9 C -0.0290(4) 0.3190(6) 0.7138(4)
H7 H -0.0525(4) 0.3611(6) 0.6690(4)
C10 C -0.0626(5) 0.3358(7) 0.7869(4)
H8 H -0.1089(5) 0.3883(7) 0.7910(4)
C11 C -0.0288(5) 0.2767(7) 0.8529(5)
H9 H -0.0509(5) 0.2901(7) 0.9025(5)
C12 C 0.0382(5) 0.1967(6) 0.8472(4)
H10 H 0.0606(5) 0.1558(6) 0.8930(4)
C13 C 0.0730(4) 0.1764(5) 0.7737(3)
C14 C 0.1421(4) 0.0902(5) 0.7677(4)
C15 C 0.2523(6) -0.0237(8) 0.8186(4)
H11 H 0.2514(6) -0.0993(8) 0.8454(4)
H12 H 0.3084(6) 0.0142(8) 0.8341(4)
C16 C 0.2388(4) -0.0391(5) 0.7259(4)
C17 C 0.2001(7) -0.1590(6) 0.7046(7)
H13 H 0.1935(35) -0.1681(20) 0.6470(7)
H14 H 0.1434(19) -0.1661(20) 0.7255(30)
H15 H 0.2389(21) -0.2188(6) 0.7280(30)
C18 C 0.3204(5) -0.0126(8) 0.6856(6)
H16 H 0.3067(9) -0.0122(43) 0.6281(6)
H17 H 0.3642(13) -0.0715(25) 0.6999(25)
H18 H 0.3427(18) 0.0629(20) 0.7029(23)
C19 C 0.2853(4) 0.4652(5) 0.3907(4)
H19 H 0.3149(4) 0.4386(5) 0.3446(4)
H20 H 0.3216(4) 0.4457(5) 0.4399(4)
C20 C 0.3795(4) 0.6966(5) 0.3985(3)
C21 C 0.4502(5) 0.6209(7) 0.3967(4)
H21 H 0.4406(5) 0.5411(7) 0.3880(4)
C22 C 0.5353(5) 0.6642(8) 0.4081(4)
H22 H 0.5828(5) 0.6127(8) 0.4080(4)
C23 C 0.5513(5) 0.7827(8) 0.4197(4)
H23 H 0.6089(5) 0.8112(8) 0.4264(4)
C24 C 0.4812(5) 0.8571(7) 0.4210(3)
H24 H 0.4917(5) 0.9369(7) 0.4287(3)
C25 C 0.3952(4) 0.8172(6) 0.4112(3)
C26 C 0.3206(5) 0.8984(5) 0.4113(3)
C27 C 0.2572(5) 1.0721(6) 0.4329(5)
H25 H 0.2603(5) 1.1356(6) 0.3944(5)
H26 H 0.2431(5) 1.1046(6) 0.4842(5)
C28 C 0.1880(4) 0.9815(5) 0.4020(4)
C29 C 0.1353(7) 1.0178(8) 0.3249(6)
H27 H 0.1748(7) 1.0402(36) 0.2857(11)
H28 H 0.0980(23) 1.0830(26) 0.3356(8)
H29 H 0.0994(21) 0.9532(15) 0.3044(14)
C30 C 0.1277(6) 0.9516(10) 0.4663(5)
H30 H 0.1620(7) 0.9212(43) 0.5130(13)
H31 H 0.0856(22) 0.8937(34) 0.4459(12)
H32 H 0.0970(26) 1.0210(13) 0.4810(23)
loop_
_geom_bond_atom_site_label_1
_geom_bond_atom_site_label_2
_geom_bond_site_symmetry_1
_geom_bond_site_symmetry_2
Se1 C7 1_555 1_555
Se2 C19 1_555 1_555
O1 C14 1_555 1_555
O2 C26 1_555 1_555
N1 C14 1_555 1_555
N2 C26 1_555 1_555
C1 C2 1_555 1_555
C2 H1 1_555 1_555
C3 C2 1_555 1_555
H2 C3 1_555 1_555
C4 C3 1_555 1_555
H3 C4 1_555 1_555
C5 C4 1_555 1_555
C6 C1 1_555 1_555
H4 C6 1_555 1_555
C7 C1 1_555 1_555
H5 C7 1_555 1_555
H6 C7 1_555 1_555
C8 Se1 1_555 1_555
C9 C8 1_555 1_555
H7 C9 1_555 1_555
C10 C9 1_555 1_555
H8 C10 1_555 1_555
C11 C10 1_555 1_555
H9 C11 1_555 1_555
C12 C11 1_555 1_555
H10 C12 1_555 1_555
C13 C8 1_555 1_555
C14 C13 1_555 1_555
C15 O1 1_555 1_555
H11 C15 1_555 1_555
H12 C15 1_555 1_555
C16 N1 1_555 1_555
C17 C16 1_555 1_555
H13 C17 1_555 1_555
H14 C17 1_555 1_555
H15 C17 1_555 1_555
C18 C16 1_555 1_555
H16 C18 1_555 1_555
H17 C18 1_555 1_555
H18 C18 1_555 1_555
C19 C5 1_555 1_555
H19 C19 1_555 1_555
H20 C19 1_555 1_555
C20 Se2 1_555 1_555
C21 C20 1_555 1_555
H21 C21 1_555 1_555
C22 C21 1_555 1_555
H22 C22 1_555 1_555
C23 C22 1_555 1_555
H23 C23 1_555 1_555
C24 C23 1_555 1_555
H24 C24 1_555 1_555
C25 C20 1_555 1_555
C26 C25 1_555 1_555
C27 O2 1_555 1_555
H25 C27 1_555 1_555
H26 C27 1_555 1_555
C28 N2 1_555 1_555
C29 C28 1_555 1_555
H27 C29 1_555 1_555
H28 C29 1_555 1_555
H29 C29 1_555 1_555
C30 C28 1_555 1_555
H30 C30 1_555 1_555
H31 C30 1_555 1_555
H32 C30 1_555 1_555
C5 C6 1_555 1_555
C12 C13 1_555 1_555
C15 C16 1_555 1_555
C24 C25 1_555 1_555
C27 C28 1_555 1_555

#END
