
#######################################################################
#
#                 Cambridge Crystallographic Data Centre
#                                CCDC 
#
#######################################################################
#
# If this CIF has been generated from an entry in the Cambridge 
# Structural Database, then it will include bibliographic, chemical, 
# crystal, experimental, refinement or atomic coordinate data resulting 
# from the CCDC's data processing and validation procedures.
#
#######################################################################

data_HOCGIR
_chemical_formula_moiety         'C48 H54 Ca1 N2 O2 P2 Se2'
_chemical_name_systematic        
bis((2,6-dimethylphenyl)(diphenylphosphoroselenoyl)amido)-bis(tetrahydrofuran)-calcium
_symmetry_cell_setting           orthorhombic
_symmetry_space_group_name_H-M   'P b c a'
_symmetry_Int_Tables_number      61
_space_group_name_Hall           '-P 2ac 2ab'
loop_
_symmetry_equiv_pos_site_id
_symmetry_equiv_pos_as_xyz
1 x,y,z
2 1/2-x,-y,1/2+z
3 1/2+x,1/2-y,-z
4 -x,1/2+y,1/2-z
5 -x,-y,-z
6 1/2+x,y,1/2-z
7 1/2-x,1/2+y,z
8 x,1/2-y,1/2+z
_cell_length_a                   17.7165(4)
_cell_length_b                   17.2738(4)
_cell_length_c                   29.6492(12)
_cell_angle_alpha                90
_cell_angle_beta                 90
_cell_angle_gamma                90
_cell_volume                     9073.58
_exptl_crystal_colour            colorless
_exptl_crystal_description       plate
_cell_formula_units_Z            8
loop_
_atom_site_label
_atom_site_type_symbol
_atom_site_fract_x
_atom_site_fract_y
_atom_site_fract_z
Ca1 Ca 0.65947(3) 0.14924(3) 0.102748(17)
Se1 Se 0.543965(15) 0.129879(17) 0.028418(10)
Se2 Se 0.639279(19) 0.323668(17) 0.110030(10)
P1 P 0.64812(4) 0.14341(4) -0.00768(2)
P2 P 0.58336(4) 0.28099(4) 0.16920(2)
O1 O 0.78588(11) 0.14022(11) 0.13045(7)
O2 O 0.63789(12) 0.01395(11) 0.12028(7)
N1 N 0.71492(11) 0.15054(12) 0.02898(7)
N2 N 0.60384(12) 0.19048(12) 0.17389(7)
C1 C 0.63687(14) 0.22730(15) -0.04498(9)
C2 C 0.62791(19) 0.30001(18) -0.02569(10)
H1 H 0.6294 0.3054 0.0055
C3 C 0.6168(2) 0.36441(18) -0.05261(11)
H2 H 0.6115 0.4129 -0.0393
C4 C 0.61374(16) 0.35761(16) -0.09865(10)
H3 H 0.6051 0.4010 -0.1165
C5 C 0.62326(19) 0.28723(18) -0.11801(10)
H4 H 0.6220 0.2826 -0.1493
C6 C 0.63493(17) 0.22162(16) -0.09137(10)
H5 H 0.6414 0.1736 -0.1050
C7 C 0.66566(14) 0.06418(15) -0.04707(8)
C8 C 0.73147(15) 0.06536(15) -0.07331(9)
H6 H 0.7638 0.1077 -0.0718
C9 C 0.74848(16) 0.00410(16) -0.10127(9)
H7 H 0.7922 0.0053 -0.1186
C10 C 0.70057(16) -0.05971(16) -0.10377(9)
H8 H 0.7124 -0.1012 -0.1224
C11 C 0.63531(16) -0.06082(16) -0.07828(9)
H9 H 0.6028 -0.1030 -0.0802
C12 C 0.61771(15) 0.00062(15) -0.04979(9)
H10 H 0.5739 -0.0008 -0.0326
C13 C 0.79243(14) 0.14038(15) 0.01772(9)
C14 C 0.82498(16) 0.06593(16) 0.01976(10)
C15 C 0.90136(18) 0.0578(2) 0.00911(14)
H11 H 0.9235 0.0090 0.0107
C16 C 0.94477(19) 0.1201(2) -0.00375(16)
H12 H 0.9944 0.1128 -0.0130
C17 C 0.91432(18) 0.1931(2) -0.00286(13)
H13 H 0.9447 0.2356 -0.0094
C18 C 0.83822(16) 0.20448(17) 0.00767(10)
C19 C 0.80831(19) 0.28581(17) 0.00865(11)
H14 H 0.8495 0.3214 0.0119
H15 H 0.7744 0.2916 0.0337
H16 H 0.7819 0.2964 -0.0190
C20 C 0.77995(19) -0.00448(16) 0.03253(11)
H17 H 0.7582 -0.0270 0.0059
H18 H 0.7405 0.0101 0.0530
H19 H 0.8124 -0.0416 0.0468
C21 C 0.48164(15) 0.29799(15) 0.16383(9)
C22 C 0.44632(17) 0.27152(18) 0.12461(10)
H20 H 0.4753 0.2516 0.1012
C23 C 0.36852(18) 0.27481(19) 0.12043(12)
H21 H 0.3455 0.2564 0.0944
C24 C 0.32516(18) 0.30501(18) 0.15454(12)
H22 H 0.2729 0.3061 0.1518
C25 C 0.35904(17) 0.3336(2) 0.19273(12)
H23 H 0.3298 0.3551 0.2156
C26 C 0.43719(17) 0.33046(17) 0.19717(10)
H24 H 0.4599 0.3505 0.2229
C27 C 0.60938(15) 0.33623(15) 0.21930(9)
C28 C 0.65946(16) 0.39818(16) 0.21611(11)
H25 H 0.6784 0.4128 0.1881
C29 C 0.6812(2) 0.43806(19) 0.25451(13)
H26 H 0.7157 0.4784 0.2523
C30 C 0.6521(2) 0.4184(2) 0.29593(12)
H27 H 0.6663 0.4458 0.3216
C31 C 0.6016(2) 0.35789(19) 0.29933(10)
H28 H 0.5815 0.3452 0.3273
C32 C 0.58059(18) 0.31564(17) 0.26159(9)
H29 H 0.5476 0.2740 0.2644
C33 C 0.59531(15) 0.14460(14) 0.21347(8)
C34 C 0.53011(16) 0.09893(15) 0.21956(9)
C35 C 0.52586(18) 0.04866(16) 0.25616(10)
H30 H 0.4827 0.0187 0.2602
C36 C 0.58463(19) 0.04237(17) 0.28670(10)
H31 H 0.5813 0.0082 0.3109
C37 C 0.64816(18) 0.08720(16) 0.28088(9)
H32 H 0.6874 0.0834 0.3016
C38 C 0.65511(16) 0.13835(15) 0.24456(9)
C39 C 0.72687(17) 0.18362(18) 0.23945(10)
H33 H 0.7208 0.2337 0.2530
H34 H 0.7384 0.1896 0.2080
H35 H 0.7673 0.1565 0.2541
C40 C 0.46613(17) 0.10191(18) 0.18607(11)
H36 H 0.4349 0.0569 0.1896
H37 H 0.4862 0.1031 0.1560
H38 H 0.4366 0.1476 0.1912
C41 C 0.83417(18) 0.2081(2) 0.13008(12)
H39 H 0.8122 0.2492 0.1481
H40 H 0.8410 0.2268 0.0995
C42 C 0.9085(2) 0.1828(3) 0.14978(18)
H41 H 0.9501 0.2115 0.1367
H42 H 0.9092 0.1894 0.1823
C43 C 0.9116(2) 0.0994(3) 0.13709(17)
H43 H 0.9451 0.0708 0.1569
H44 H 0.9282 0.0929 0.1061
C44 C 0.83076(19) 0.0741(2) 0.14297(12)
H45 H 0.8195 0.0303 0.1236
H46 H 0.8211 0.0595 0.1740
C45 C 0.65677(18) -0.02798(17) 0.16057(11)
H47 H 0.6583 0.0064 0.1864
H48 H 0.7055 -0.0531 0.1575
C46 C 0.5947(3) -0.0873(2) 0.16588(12)
H49 H 0.5555 -0.0687 0.1860
H50 H 0.6144 -0.1358 0.1774
C47 C 0.5650(4) -0.0966(3) 0.11821(14)
H51 H 0.5761 -0.1482 0.1070
H52 H 0.5108 -0.0890 0.1176
C48 C 0.6000(3) -0.0423(2) 0.09233(15)
H53 H 0.5630 -0.0164 0.0735
H54 H 0.6364 -0.0673 0.0727
loop_
_geom_bond_atom_site_label_1
_geom_bond_atom_site_label_2
_geom_bond_site_symmetry_1
_geom_bond_site_symmetry_2
Ca1 Se1 1_555 1_555
Se1 P1 1_555 1_555
Se2 Ca1 1_555 1_555
P1 N1 1_555 1_555
P2 Se2 1_555 1_555
O1 Ca1 1_555 1_555
O2 Ca1 1_555 1_555
N1 Ca1 1_555 1_555
N2 Ca1 1_555 1_555
C1 P1 1_555 1_555
C2 C1 1_555 1_555
H1 C2 1_555 1_555
C3 C2 1_555 1_555
H2 C3 1_555 1_555
C4 C3 1_555 1_555
H3 C4 1_555 1_555
C5 C4 1_555 1_555
H4 C5 1_555 1_555
C6 C1 1_555 1_555
H5 C6 1_555 1_555
C7 P1 1_555 1_555
C8 C7 1_555 1_555
H6 C8 1_555 1_555
C9 C8 1_555 1_555
H7 C9 1_555 1_555
C10 C9 1_555 1_555
H8 C10 1_555 1_555
C11 C10 1_555 1_555
H9 C11 1_555 1_555
C12 C7 1_555 1_555
H10 C12 1_555 1_555
C13 N1 1_555 1_555
C14 C13 1_555 1_555
C15 C14 1_555 1_555
H11 C15 1_555 1_555
C16 C15 1_555 1_555
H12 C16 1_555 1_555
C17 C16 1_555 1_555
H13 C17 1_555 1_555
C18 C13 1_555 1_555
C19 C18 1_555 1_555
H14 C19 1_555 1_555
H15 C19 1_555 1_555
H16 C19 1_555 1_555
C20 C14 1_555 1_555
H17 C20 1_555 1_555
H18 C20 1_555 1_555
H19 C20 1_555 1_555
C21 P2 1_555 1_555
C22 C21 1_555 1_555
H20 C22 1_555 1_555
C23 C22 1_555 1_555
H21 C23 1_555 1_555
C24 C23 1_555 1_555
H22 C24 1_555 1_555
C25 C24 1_555 1_555
H23 C25 1_555 1_555
C26 C21 1_555 1_555
H24 C26 1_555 1_555
C27 P2 1_555 1_555
C28 C27 1_555 1_555
H25 C28 1_555 1_555
C29 C28 1_555 1_555
H26 C29 1_555 1_555
C30 C29 1_555 1_555
H27 C30 1_555 1_555
C31 C30 1_555 1_555
H28 C31 1_555 1_555
C32 C27 1_555 1_555
H29 C32 1_555 1_555
C33 N2 1_555 1_555
C34 C33 1_555 1_555
C35 C34 1_555 1_555
H30 C35 1_555 1_555
C36 C35 1_555 1_555
H31 C36 1_555 1_555
C37 C36 1_555 1_555
H32 C37 1_555 1_555
C38 C33 1_555 1_555
C39 C38 1_555 1_555
H33 C39 1_555 1_555
H34 C39 1_555 1_555
H35 C39 1_555 1_555
C40 C34 1_555 1_555
H36 C40 1_555 1_555
H37 C40 1_555 1_555
H38 C40 1_555 1_555
C41 O1 1_555 1_555
H39 C41 1_555 1_555
H40 C41 1_555 1_555
C42 C41 1_555 1_555
H41 C42 1_555 1_555
H42 C42 1_555 1_555
C43 C42 1_555 1_555
H43 C43 1_555 1_555
H44 C43 1_555 1_555
C44 O1 1_555 1_555
H45 C44 1_555 1_555
H46 C44 1_555 1_555
C45 O2 1_555 1_555
H47 C45 1_555 1_555
H48 C45 1_555 1_555
C46 C45 1_555 1_555
H49 C46 1_555 1_555
H50 C46 1_555 1_555
C47 C46 1_555 1_555
H51 C47 1_555 1_555
H52 C47 1_555 1_555
C48 O2 1_555 1_555
H53 C48 1_555 1_555
H54 C48 1_555 1_555
P2 N2 1_555 1_555
C5 C6 1_555 1_555
C11 C12 1_555 1_555
C17 C18 1_555 1_555
C25 C26 1_555 1_555
C31 C32 1_555 1_555
C37 C38 1_555 1_555
C43 C44 1_555 1_555
C47 C48 1_555 1_555

#END
