
#######################################################################
#
#                 Cambridge Crystallographic Data Centre
#                                CCDC 
#
#######################################################################
#
# If this CIF has been generated from an entry in the Cambridge 
# Structural Database, then it will include bibliographic, chemical, 
# crystal, experimental, refinement or atomic coordinate data resulting 
# from the CCDC's data processing and validation procedures.
#
#######################################################################

data_HOCMUJ
_chemical_formula_moiety         'C31 H24 Cl1 N1'
_chemical_name_systematic        
8-Chloro-2,3-dimethyl-15-phenyl-14,14a-dihydro-9bH-indeno[2,1-c]indolo[1,2-a]quinoline
_symmetry_cell_setting           triclinic
_symmetry_space_group_name_H-M   'P -1'
_symmetry_Int_Tables_number      2
_space_group_name_Hall           '-P 1'
loop_
_symmetry_equiv_pos_site_id
_symmetry_equiv_pos_as_xyz
1 x,y,z
2 -x,-y,-z
_cell_length_a                   9.6185(5)
_cell_length_b                   10.2636(7)
_cell_length_c                   12.3384(9)
_cell_angle_alpha                76.047(6)
_cell_angle_beta                 78.775(5)
_cell_angle_gamma                81.549(5)
_cell_volume                     1153.08
_exptl_crystal_colour            yellow
_exptl_crystal_description       needle
_cell_formula_units_Z            2
loop_
_atom_site_label
_atom_site_type_symbol
_atom_site_fract_x
_atom_site_fract_y
_atom_site_fract_z
Cl1 Cl 0.96387(8) 0.58008(7) 0.75076(6)
N1 N 0.76590(17) 0.90385(16) 1.09847(13)
C1 C 0.75331(19) 0.86392(19) 1.21612(15)
C2 C 0.70067(19) 0.97852(19) 1.26052(16)
C3 C 0.68253(19) 1.09113(19) 1.16622(16)
C4 C 0.72356(19) 1.04291(19) 1.07000(16)
C5 C 0.7870(2) 0.7394(2) 1.28771(17)
H1 H 0.8250 0.6645 1.2577
C6 C 0.7631(2) 0.7291(2) 1.40377(17)
C7 C 0.7063(2) 0.8430(2) 1.45010(16)
C8 C 0.6771(2) 0.9662(2) 1.37783(16)
H2 H 0.6413 1.0417 1.4078
C9 C 0.7999(3) 0.5947(2) 1.4804(2)
H3 H 0.8308 0.5276 1.4360
H4 H 0.7174 0.5689 1.5350
H5 H 0.8750 0.6021 1.5190
C10 C 0.6831(3) 0.8326(2) 1.57587(18)
H6 H 0.6467 0.9193 1.5920
H7 H 0.7719 0.8030 1.6031
H8 H 0.6158 0.7687 1.6128
C11 C 0.6275(2) 1.23012(19) 1.17758(16)
C12 C 0.6849(2) 1.2915(2) 1.24555(19)
H9 H 0.7631 1.2474 1.2783
C13 C 0.6272(3) 1.4171(2) 1.2650(2)
H10 H 0.6659 1.4560 1.3115
C14 C 0.5129(3) 1.4847(2) 1.2158(2)
H11 H 0.4736 1.5687 1.2296
C15 C 0.4573(3) 1.4276(2) 1.1466(2)
H12 H 0.3818 1.4743 1.1115
C16 C 0.5126(2) 1.3007(2) 1.12829(19)
H13 H 0.4722 1.2624 1.0824
C17 C 0.7373(2) 1.11120(19) 0.94792(16)
H14 H 0.7561 1.2044 0.9412
C18 C 0.8642(2) 1.0438(2) 0.87291(17)
H15 H 0.9555 1.0699 0.8800
C19 C 0.8633(2) 0.8907(2) 0.90425(17)
C20 C 0.81189(19) 0.82604(19) 1.01582(16)
C21 C 0.9092(2) 0.8122(2) 0.82417(19)
H16 H 0.9435 0.8530 0.7497
C22 C 0.9044(2) 0.6747(2) 0.85384(19)
C23 C 0.8525(3) 0.6107(2) 0.9615(2)
H17 H 0.8497 0.5177 0.9799
C24 C 0.8042(2) 0.6866(2) 1.04260(19)
H18 H 0.7661 0.6445 1.1157
C25 C 0.6115(2) 1.1165(2) 0.88523(16)
H19 H 0.5695 1.0317 0.9071
H20 H 0.5384 1.1891 0.8994
C26 C 0.6832(2) 1.14225(19) 0.76350(16)
C27 C 0.8277(2) 1.1041(2) 0.75573(17)
C28 C 0.6237(3) 1.1987(2) 0.66635(18)
H21 H 0.5264 1.2248 0.6710
C29 C 0.7129(3) 1.2150(2) 0.56258(19)
H22 H 0.6745 1.2523 0.4969
C30 C 0.8565(3) 1.1774(3) 0.5547(2)
H23 H 0.9144 1.1903 0.4840
C31 C 0.9164(3) 1.1202(3) 0.6513(2)
H24 H 1.0137 1.0933 0.6461
loop_
_geom_bond_atom_site_label_1
_geom_bond_atom_site_label_2
_geom_bond_site_symmetry_1
_geom_bond_site_symmetry_2
Cl1 C22 1_555 1_555
N1 C1 1_555 1_555
C1 C2 1_555 1_555
C2 C3 1_555 1_555
C3 C4 1_555 1_555
C4 N1 1_555 1_555
C5 C1 1_555 1_555
H1 C5 1_555 1_555
C6 C5 1_555 1_555
C7 C6 1_555 1_555
C8 C2 1_555 1_555
H2 C8 1_555 1_555
C9 C6 1_555 1_555
H3 C9 1_555 1_555
H4 C9 1_555 1_555
H5 C9 1_555 1_555
C10 C7 1_555 1_555
H6 C10 1_555 1_555
H7 C10 1_555 1_555
H8 C10 1_555 1_555
C11 C3 1_555 1_555
C12 C11 1_555 1_555
H9 C12 1_555 1_555
C13 C12 1_555 1_555
H10 C13 1_555 1_555
C14 C13 1_555 1_555
H11 C14 1_555 1_555
C15 C14 1_555 1_555
H12 C15 1_555 1_555
C16 C11 1_555 1_555
H13 C16 1_555 1_555
C17 C4 1_555 1_555
H14 C17 1_555 1_555
C18 C17 1_555 1_555
H15 C18 1_555 1_555
C19 C18 1_555 1_555
C20 N1 1_555 1_555
C21 C19 1_555 1_555
H16 C21 1_555 1_555
C22 C21 1_555 1_555
C23 C22 1_555 1_555
H17 C23 1_555 1_555
C24 C20 1_555 1_555
H18 C24 1_555 1_555
C25 C17 1_555 1_555
H19 C25 1_555 1_555
H20 C25 1_555 1_555
C26 C25 1_555 1_555
C27 C18 1_555 1_555
C28 C26 1_555 1_555
H21 C28 1_555 1_555
C29 C28 1_555 1_555
H22 C29 1_555 1_555
C30 C29 1_555 1_555
H23 C30 1_555 1_555
C31 C27 1_555 1_555
H24 C31 1_555 1_555
C7 C8 1_555 1_555
C15 C16 1_555 1_555
C19 C20 1_555 1_555
C23 C24 1_555 1_555
C26 C27 1_555 1_555
C30 C31 1_555 1_555

#END
