
#######################################################################
#
#                 Cambridge Crystallographic Data Centre
#                                CCDC 
#
#######################################################################
#
# If this CIF has been generated from an entry in the Cambridge 
# Structural Database, then it will include bibliographic, chemical, 
# crystal, experimental, refinement or atomic coordinate data resulting 
# from the CCDC's data processing and validation procedures.
#
#######################################################################

data_HOCPOF
_chemical_compound_source        'twigs of Daphniphyllum oldhami'
_chemical_formula_moiety         'C21 H23 N1 O4,C1 H4 O1,0.5(H2 O1)'
_chemical_name_systematic        'Oldhamine A methanol solvate hemihydrate'
_chemical_properties_biological  
'Not active against acute myelogenous leukaemia (HL-60) or human lung cancer (A-549) cell lines'
_symmetry_cell_setting           orthorhombic
_symmetry_space_group_name_H-M   'P 21 21 21'
_symmetry_Int_Tables_number      19
_space_group_name_Hall           'P 2ac 2ab'
loop_
_symmetry_equiv_pos_site_id
_symmetry_equiv_pos_as_xyz
1 x,y,z
2 1/2-x,-y,1/2+z
3 1/2+x,1/2-y,-z
4 -x,1/2+y,1/2-z
_cell_length_a                   9.896(1)
_cell_length_b                   10.445(1)
_cell_length_c                   18.749(1)
_cell_angle_alpha                90
_cell_angle_beta                 90
_cell_angle_gamma                90
_cell_volume                     1937.97
_exptl_crystal_colour            yellow
_exptl_crystal_description       block
_cell_formula_units_Z            4
_exptl_crystal_recrystallization_method chloroform/methanol/water
loop_
_atom_site_label
_atom_site_type_symbol
_atom_site_fract_x
_atom_site_fract_y
_atom_site_fract_z
O1 O 0.2047(4) 0.1599(4) 0.11323(18)
O2 O -0.0140(4) 0.2942(4) 0.45168(18)
O3 O 0.4103(4) 0.2889(4) 0.1921(2)
O4 O 0.4403(3) 0.2365(5) 0.3039(2)
N1 N -0.2172(4) 0.1485(3) 0.1339(2)
H1 H -0.2978 0.1399 0.1110
C1 C 0.1049(5) 0.2145(4) 0.1391(2)
C2 C -0.0122(5) 0.2408(5) 0.0878(2)
H2 H 0.0253 0.2609 0.0407
C3 C -0.1077(6) 0.3475(4) 0.1092(3)
H3 H -0.0590 0.4166 0.1322
H4 H -0.1547 0.3813 0.0678
C4 C -0.2050(5) 0.2864(4) 0.1598(2)
H5 H -0.2931 0.3284 0.1551
C5 C -0.1682(4) 0.2778(4) 0.2391(2)
C6 C -0.2486(4) 0.1569(4) 0.2606(2)
H6 H -0.3451 0.1782 0.2597
C7 C -0.2202(5) 0.0655(4) 0.1997(2)
H7 H -0.1341 0.0228 0.2065
H8 H -0.2907 0.0013 0.1961
C8 C -0.0184(4) 0.2592(4) 0.2571(2)
C9 C 0.0232(4) 0.2567(4) 0.3297(2)
C10 C -0.0585(5) 0.2533(5) 0.3942(2)
C11 C -0.1949(5) 0.1885(5) 0.3937(3)
H9 H -0.2644 0.2538 0.3912
H10 H -0.2063 0.1431 0.4385
C12 C -0.2166(5) 0.0941(4) 0.3325(2)
H11 H -0.2903 0.0372 0.3451
H12 H -0.1358 0.0424 0.3273
C13 C 0.0980(4) 0.2457(4) 0.2141(2)
C14 C 0.2132(4) 0.2388(4) 0.2616(2)
C15 C 0.1660(4) 0.2453(4) 0.3313(2)
C16 C 0.2615(5) 0.2370(5) 0.3930(3)
H13 H 0.2818 0.3220 0.4108
H14 H 0.2214 0.1875 0.4313
C17 C 0.3870(5) 0.1739(6) 0.3673(3)
H15 H 0.4545 0.1762 0.4048
H16 H 0.3679 0.0849 0.3565
C18 C -0.1050(6) 0.1222(5) 0.0805(3)
H17 H -0.0556 0.0445 0.0939
C19 C -0.1643(7) 0.1076(7) 0.0055(3)
H18 H -0.2210 0.0331 0.0039
H19 H -0.0923 0.0985 -0.0285
H20 H -0.2168 0.1820 -0.0061
C20 C -0.2186(5) 0.4040(4) 0.2722(3)
H21 H -0.1631 0.4734 0.2558
H22 H -0.2136 0.3985 0.3232
H23 H -0.3105 0.4187 0.2580
C21 C 0.3561(5) 0.2538(5) 0.2464(3)
O5 O -0.4812(4) 0.1278(4) 0.0866(2)
H24 H -0.5390 0.1679 0.1086
C22 C -0.5398(8) -0.0112(10) 0.0653(5)
H25 H -0.4721 -0.0581 0.0395
H26 H -0.6184 -0.0010 0.0358
H27 H -0.5636 -0.0573 0.1077
O6 O 0.1699(10) 0.0041(10) -0.0054(5)
H28 H 0.1328 -0.0584 0.0160
H29 H 0.1652 0.0555 0.0296
loop_
_geom_bond_atom_site_label_1
_geom_bond_atom_site_label_2
_geom_bond_site_symmetry_1
_geom_bond_site_symmetry_2
O1 C1 1_555 1_555
O2 C10 1_555 1_555
O3 C21 1_555 1_555
O4 C17 1_555 1_555
N1 H1 1_555 1_555
C1 C2 1_555 1_555
C2 H2 1_555 1_555
C3 C2 1_555 1_555
H3 C3 1_555 1_555
H4 C3 1_555 1_555
C4 N1 1_555 1_555
H5 C4 1_555 1_555
C5 C4 1_555 1_555
C6 C5 1_555 1_555
H6 C6 1_555 1_555
C7 N1 1_555 1_555
H7 C7 1_555 1_555
H8 C7 1_555 1_555
C8 C5 1_555 1_555
C9 C8 1_555 1_555
C10 C9 1_555 1_555
C11 C10 1_555 1_555
H9 C11 1_555 1_555
H10 C11 1_555 1_555
C12 C6 1_555 1_555
H11 C12 1_555 1_555
H12 C12 1_555 1_555
C13 C1 1_555 1_555
C14 C13 1_555 1_555
C15 C9 1_555 1_555
C16 C15 1_555 1_555
H13 C16 1_555 1_555
H14 C16 1_555 1_555
C17 C16 1_555 1_555
H15 C17 1_555 1_555
H16 C17 1_555 1_555
C18 N1 1_555 1_555
H17 C18 1_555 1_555
C19 C18 1_555 1_555
H18 C19 1_555 1_555
H19 C19 1_555 1_555
H20 C19 1_555 1_555
C20 C5 1_555 1_555
H21 C20 1_555 1_555
H22 C20 1_555 1_555
H23 C20 1_555 1_555
C21 O4 1_555 1_555
O5 H24 1_555 1_555
C22 O5 1_555 1_555
H25 C22 1_555 1_555
H26 C22 1_555 1_555
H27 C22 1_555 1_555
O6 H28 1_555 1_555
H29 O6 1_555 1_555
C2 C18 1_555 1_555
C3 C4 1_555 1_555
C6 C7 1_555 1_555
C8 C13 1_555 1_555
C11 C12 1_555 1_555
C14 C15 1_555 1_555
C14 C21 1_555 1_555

#END
