
#######################################################################
#
#                 Cambridge Crystallographic Data Centre
#                                CCDC 
#
#######################################################################
#
# If this CIF has been generated from an entry in the Cambridge 
# Structural Database, then it will include bibliographic, chemical, 
# crystal, experimental, refinement or atomic coordinate data resulting 
# from the CCDC's data processing and validation procedures.
#
#######################################################################

data_HOCTOJ
_chemical_formula_moiety         'C16 H16 O2 S1'
_chemical_name_systematic        
1-Methyl-4-(2-phenylcyclopropylsulfonyl)benzene
_symmetry_cell_setting           orthorhombic
_symmetry_space_group_name_H-M   'P 21 21 21'
_symmetry_Int_Tables_number      19
_space_group_name_Hall           'P 2ac 2ab'
loop_
_symmetry_equiv_pos_site_id
_symmetry_equiv_pos_as_xyz
1 x,y,z
2 1/2-x,-y,1/2+z
3 -x,1/2+y,1/2-z
4 1/2+x,1/2-y,-z
_cell_length_a                   7.6379(17)
_cell_length_b                   11.269(3)
_cell_length_c                   15.319(3)
_cell_angle_alpha                90
_cell_angle_beta                 90
_cell_angle_gamma                90
_cell_volume                     1318.53
_exptl_crystal_colour            colorless
_exptl_crystal_description       rod
_cell_formula_units_Z            4
loop_
_atom_site_label
_atom_site_type_symbol
_atom_site_fract_x
_atom_site_fract_y
_atom_site_fract_z
C1 C 1.1335(3) 0.22167(18) 1.13557(12)
H1 H 1.0704 0.2973 1.1385
H2 H 1.2568 0.2345 1.1506
H3 H 1.0816 0.1654 1.1769
C2 C 1.1209(2) 0.17205(15) 1.04417(11)
C3 C 1.0505(2) 0.06039(16) 1.02832(10)
H4 H 1.0089 0.0141 1.0758
C4 C 1.0400(2) 0.01536(16) 0.94411(10)
H5 H 0.9913 -0.0610 0.9339
C5 C 1.1013(2) 0.08317(14) 0.87539(10)
C6 C 1.1705(2) 0.19531(16) 0.88948(11)
H6 H 1.2113 0.2416 0.8418
C7 C 1.1793(2) 0.23884(15) 0.97372(11)
H7 H 1.2260 0.3158 0.9836
C8 C 0.9559(2) 0.09931(16) 0.70578(10)
C9 C 0.7728(3) 0.0542(2) 0.69986(12)
C10 C 0.8958(2) 0.03195(16) 0.62524(10)
C11 C 0.8857(2) 0.09212(14) 0.53911(10)
C12 C 0.8028(2) 0.20066(15) 0.52687(11)
H8 H 0.7487 0.2392 0.5750
C13 C 0.7985(2) 0.25315(16) 0.44518(11)
H9 H 0.7413 0.3273 0.4377
C14 C 0.8766(2) 0.19852(16) 0.37447(11)
H10 H 0.8730 0.2348 0.3185
C15 C 0.9600(2) 0.09102(15) 0.38559(11)
H11 H 1.0138 0.0531 0.3371
C16 C 0.9655(2) 0.03799(15) 0.46721(10)
H12 H 1.0240 -0.0358 0.4744
O1 O 1.27967(15) 0.05044(11) 0.73366(7)
O2 O 1.05713(18) -0.09938(10) 0.77400(8)
S1 S 1.11009(5) 0.02277(3) 0.76918(2)
H13 H 0.936(2) -0.0386(17) 0.6225(11)
H14 H 0.740(3) -0.0156(19) 0.7338(13)
H15 H 0.689(3) 0.1075(17) 0.6931(12)
H16 H 0.975(2) 0.1818(19) 0.7010(11)
loop_
_geom_bond_atom_site_label_1
_geom_bond_atom_site_label_2
_geom_bond_site_symmetry_1
_geom_bond_site_symmetry_2
C1 H1 1_555 1_555
H2 C1 1_555 1_555
H3 C1 1_555 1_555
C2 C1 1_555 1_555
C3 C2 1_555 1_555
H4 C3 1_555 1_555
C4 C3 1_555 1_555
H5 C4 1_555 1_555
C5 C4 1_555 1_555
C6 C5 1_555 1_555
H6 C6 1_555 1_555
C7 C2 1_555 1_555
H7 C7 1_555 1_555
C8 C9 1_555 1_555
C9 C10 1_555 1_555
C10 C8 1_555 1_555
C11 C10 1_555 1_555
C12 C11 1_555 1_555
H8 C12 1_555 1_555
C13 C12 1_555 1_555
H9 C13 1_555 1_555
C14 C13 1_555 1_555
H10 C14 1_555 1_555
C15 C14 1_555 1_555
H11 C15 1_555 1_555
C16 C11 1_555 1_555
H12 C16 1_555 1_555
O1 S1 1_555 1_555
O2 S1 1_555 1_555
S1 C5 1_555 1_555
H13 C10 1_555 1_555
H14 C9 1_555 1_555
H15 C9 1_555 1_555
H16 C8 1_555 1_555
C6 C7 1_555 1_555
C8 S1 1_555 1_555
C15 C16 1_555 1_555

#END
