
#######################################################################
#
#                 Cambridge Crystallographic Data Centre
#                                CCDC 
#
#######################################################################
#
# If this CIF has been generated from an entry in the Cambridge 
# Structural Database, then it will include bibliographic, chemical, 
# crystal, experimental, refinement or atomic coordinate data resulting 
# from the CCDC's data processing and validation procedures.
#
#######################################################################

data_HODFAI
_chemical_formula_moiety         'C14 H15 N1 O1'
_chemical_name_systematic        
7,8,9,10-Tetrahydro-2-methylcyclohepta(b)indol-6(5H)-one
_symmetry_cell_setting           monoclinic
_symmetry_space_group_name_H-M   'P 21/n'
_symmetry_Int_Tables_number      14
_space_group_name_Hall           '-P 2yn'
loop_
_symmetry_equiv_pos_site_id
_symmetry_equiv_pos_as_xyz
1 x,y,z
2 1/2-x,1/2+y,1/2-z
3 -x,-y,-z
4 1/2+x,1/2-y,1/2+z
_cell_length_a                   11.461(3)
_cell_length_b                   6.5062(19)
_cell_length_c                   14.459(4)
_cell_angle_alpha                90
_cell_angle_beta                 92.310(4)
_cell_angle_gamma                90
_cell_volume                     1077.3
_exptl_crystal_colour            colorless
_exptl_crystal_description       plate
_chemical_melting_point          451-453K
_cell_formula_units_Z            4
_exptl_crystal_recrystallization_method ethanol
loop_
_atom_site_label
_atom_site_type_symbol
_atom_site_fract_x
_atom_site_fract_y
_atom_site_fract_z
C1 C 0.13517(16) 0.2801(3) 1.08139(13)
C2 C 0.21105(17) 0.3796(3) 1.15581(13)
H1 H 0.2532 0.2688 1.1901
H2 H 0.1589 0.4463 1.1998
C3 C 0.30146(17) 0.5391(3) 1.12828(14)
H3 H 0.3491 0.5786 1.1841
H4 H 0.3544 0.4750 1.0841
C4 C 0.24910(17) 0.7329(3) 1.08433(13)
H5 H 0.1735 0.7618 1.1125
H6 H 0.3018 0.8500 1.0988
C5 C 0.22933(17) 0.7184(3) 0.97993(13)
H7 H 0.1874 0.8438 0.9586
H8 H 0.3066 0.7194 0.9516
C6 C 0.16294(15) 0.5361(3) 0.94335(13)
C7 C 0.12670(16) 0.3572(3) 0.98660(13)
C8 C 0.06994(16) 0.3237(3) 0.83704(13)
C9 C 0.02351(16) 0.2566(3) 0.75210(13)
H9 H -0.0126 0.1257 0.7455
C10 C 0.03204(16) 0.3877(3) 0.67779(14)
H10 H -0.0003 0.3463 0.6192
C11 C 0.08746(17) 0.5823(3) 0.68576(13)
C12 C 0.13502(16) 0.6455(3) 0.77013(14)
H11 H 0.1734 0.7746 0.7759
C13 C 0.12601(16) 0.5160(3) 0.84787(13)
C14 C 0.09470(18) 0.7160(3) 0.60049(14)
H12 H 0.1211 0.8539 0.6187
H13 H 0.0175 0.7250 0.5691
H14 H 0.1502 0.6555 0.5584
N1 N 0.07063(13) 0.2311(2) 0.92167(10)
H15 H 0.0402 0.1101 0.9332
O1 O 0.07986(11) 0.1233(2) 1.10088(9)
loop_
_geom_bond_atom_site_label_1
_geom_bond_atom_site_label_2
_geom_bond_site_symmetry_1
_geom_bond_site_symmetry_2
C1 C2 1_555 1_555
C2 H1 1_555 1_555
H2 C2 1_555 1_555
C3 C2 1_555 1_555
H3 C3 1_555 1_555
H4 C3 1_555 1_555
C4 C3 1_555 1_555
H5 C4 1_555 1_555
H6 C4 1_555 1_555
C5 C4 1_555 1_555
H7 C5 1_555 1_555
H8 C5 1_555 1_555
C6 C5 1_555 1_555
C7 C1 1_555 1_555
C8 C9 1_555 1_555
C9 H9 1_555 1_555
C10 C9 1_555 1_555
H10 C10 1_555 1_555
C11 C10 1_555 1_555
C12 C11 1_555 1_555
H11 C12 1_555 1_555
C13 C6 1_555 1_555
C14 C11 1_555 1_555
H12 C14 1_555 1_555
H13 C14 1_555 1_555
H14 C14 1_555 1_555
N1 C7 1_555 1_555
H15 N1 1_555 1_555
O1 C1 1_555 1_555
C6 C7 1_555 1_555
C8 C13 1_555 1_555
C8 N1 1_555 1_555
C12 C13 1_555 1_555

#END
