
#######################################################################
#
#                 Cambridge Crystallographic Data Centre
#                                CCDC 
#
#######################################################################
#
# If this CIF has been generated from an entry in the Cambridge 
# Structural Database, then it will include bibliographic, chemical, 
# crystal, experimental, refinement or atomic coordinate data resulting 
# from the CCDC's data processing and validation procedures.
#
#######################################################################

data_HODFOW01
_chemical_name_common            2-(4-Aminophenyl)-1,3-benzoxazole
_chemical_formula_moiety         'C13 H10 N2 O1'
_chemical_name_systematic        4-(1,3-benzoxazol-2-yl)aniline
_symmetry_cell_setting           monoclinic
_symmetry_space_group_name_H-M   'P 21/n'
_symmetry_Int_Tables_number      14
_space_group_name_Hall           '-P 2yn'
loop_
_symmetry_equiv_pos_site_id
_symmetry_equiv_pos_as_xyz
1 x,y,z
2 1/2-x,1/2+y,1/2-z
3 -x,-y,-z
4 1/2+x,1/2-y,1/2+z
_cell_length_a                   4.1442(8)
_cell_length_b                   19.553(4)
_cell_length_c                   12.783(3)
_cell_angle_alpha                90
_cell_angle_beta                 95.317(2)
_cell_angle_gamma                90
_cell_volume                     1031.37
_exptl_crystal_colour            yellow
_exptl_crystal_description       block
_cell_formula_units_Z            4
loop_
_atom_site_label
_atom_site_type_symbol
_atom_site_fract_x
_atom_site_fract_y
_atom_site_fract_z
C1 C 1.0040(3) 0.61760(7) 0.15432(11)
C2 C 0.8408(3) 0.67596(7) 0.10499(10)
C3 C 0.5488(3) 0.79465(7) 0.01590(11)
C4 C 0.6733(3) 0.72102(7) 0.16496(11)
H1 H 0.6585 0.7116 0.2357
C5 C 1.2310(3) 0.54312(7) 0.25954(10)
C6 C 1.2744(4) 0.52182(7) 0.15876(11)
C7 C 0.5297(4) 0.77901(7) 0.12156(11)
H2 H 0.4184 0.8082 0.1631
C8 C 1.3568(4) 0.50442(8) 0.34461(12)
H3 H 1.3322 0.5179 0.4132
C9 C 0.8538(4) 0.69142(7) -0.00083(12)
H4 H 0.9611 0.6618 -0.0427
C10 C 1.4330(4) 0.46285(8) 0.13611(13)
H5 H 1.4560 0.4494 0.0674
C11 C 0.7122(4) 0.74929(8) -0.04473(12)
H6 H 0.7252 0.7584 -0.1156
C12 C 1.5566(4) 0.42467(9) 0.22166(14)
H7 H 1.6670 0.3843 0.2106
C13 C 1.5194(4) 0.44540(8) 0.32374(13)
H8 H 1.6067 0.4186 0.3795
O1 O 1.1289(2) 0.56952(5) 0.09030(7)
N1 N 0.4166(4) 0.85365(7) -0.02642(11)
H9 H 0.4335 0.8632 -0.0913
H10 H 0.3164 0.8812 0.0119
N2 N 1.0570(3) 0.60446(6) 0.25402(8)
loop_
_geom_bond_atom_site_label_1
_geom_bond_atom_site_label_2
_geom_bond_site_symmetry_1
_geom_bond_site_symmetry_2
C1 C2 1_555 1_555
C2 C4 1_555 1_555
C3 C7 1_555 1_555
C4 H1 1_555 1_555
C5 C6 1_555 1_555
C6 C10 1_555 1_555
C7 C4 1_555 1_555
H2 C7 1_555 1_555
C8 C5 1_555 1_555
H3 C8 1_555 1_555
C9 C2 1_555 1_555
H4 C9 1_555 1_555
C10 H5 1_555 1_555
C11 C3 1_555 1_555
H6 C11 1_555 1_555
C12 C10 1_555 1_555
H7 C12 1_555 1_555
C13 C8 1_555 1_555
H8 C13 1_555 1_555
O1 C1 1_555 1_555
N1 C3 1_555 1_555
H9 N1 1_555 1_555
H10 N1 1_555 1_555
N2 C1 1_555 1_555
C5 N2 1_555 1_555
C6 O1 1_555 1_555
C9 C11 1_555 1_555
C12 C13 1_555 1_555

#END
