
#######################################################################
#
#                 Cambridge Crystallographic Data Centre
#                                CCDC 
#
#######################################################################
#
# If this CIF has been generated from an entry in the Cambridge 
# Structural Database, then it will include bibliographic, chemical, 
# crystal, experimental, refinement or atomic coordinate data resulting 
# from the CCDC's data processing and validation procedures.
#
#######################################################################

data_HODHOY
_chemical_formula_moiety         'C17 H11 N3'
_chemical_name_systematic        N-(4,5-Diazafluoren-9-ylidene)aniline
_symmetry_cell_setting           triclinic
_symmetry_space_group_name_H-M   'P -1'
_symmetry_Int_Tables_number      2
_space_group_name_Hall           '-P 1'
loop_
_symmetry_equiv_pos_site_id
_symmetry_equiv_pos_as_xyz
1 x,y,z
2 -x,-y,-z
_cell_length_a                   7.1950(14)
_cell_length_b                   8.5860(17)
_cell_length_c                   11.876(2)
_cell_angle_alpha                80.63(3)
_cell_angle_beta                 74.78(3)
_cell_angle_gamma                66.46(3)
_cell_volume                     647.615
_exptl_crystal_colour            colorless
_exptl_crystal_description       needle
_cell_formula_units_Z            2
loop_
_atom_site_label
_atom_site_type_symbol
_atom_site_fract_x
_atom_site_fract_y
_atom_site_fract_z
N1 N 0.1000(4) 1.2848(3) 0.6315(2)
N2 N 0.3187(4) 0.7234(3) 0.4917(2)
N3 N 0.3994(4) 0.9717(3) 0.2888(2)
C1 C 0.0047(6) 1.2899(6) 0.9516(3)
H1 H 0.0717 1.2935 1.0078
C2 C -0.1937(6) 1.2891(5) 0.9852(3)
H2 H -0.2605 1.2921 1.0638
C3 C -0.2916(6) 1.2841(5) 0.9021(3)
H3 H -0.4257 1.2845 0.9249
C4 C -0.1951(5) 1.2783(4) 0.7855(3)
H4 H -0.2637 1.2753 0.7301
C5 C 0.0048(5) 1.2772(3) 0.7513(2)
C6 C 0.1040(5) 1.2853(4) 0.8350(3)
H5 H 0.2369 1.2877 0.8124
C7 C 0.1686(4) 1.1567(3) 0.5708(2)
C8 C 0.1856(4) 0.9756(3) 0.6012(2)
C9 C 0.1347(4) 0.8860(4) 0.7046(2)
H6 H 0.0739 0.9384 0.7750
C10 C 0.1782(5) 0.7148(4) 0.6987(3)
H7 H 0.1470 0.6498 0.7662
C11 C 0.2673(5) 0.6404(4) 0.5935(3)
H8 H 0.2936 0.5253 0.5929
C12 C 0.2774(4) 0.8874(3) 0.4993(2)
C13 C 0.3186(4) 1.0075(3) 0.4004(2)
C14 C 0.4125(5) 1.1058(4) 0.2161(3)
H9 H 0.4674 1.0878 0.1371
C15 C 0.3502(5) 1.2689(4) 0.2504(3)
H10 H 0.3631 1.3562 0.1951
C16 C 0.2688(4) 1.3018(4) 0.3668(3)
H11 H 0.2265 1.4099 0.3924
C17 C 0.2534(4) 1.1661(3) 0.4432(2)
loop_
_geom_bond_atom_site_label_1
_geom_bond_atom_site_label_2
_geom_bond_site_symmetry_1
_geom_bond_site_symmetry_2
N1 C5 1_555 1_555
N2 C11 1_555 1_555
N3 C13 1_555 1_555
C1 H1 1_555 1_555
C2 C1 1_555 1_555
H2 C2 1_555 1_555
C3 C2 1_555 1_555
H3 C3 1_555 1_555
C4 C3 1_555 1_555
H4 C4 1_555 1_555
C5 C4 1_555 1_555
C6 C1 1_555 1_555
H5 C6 1_555 1_555
C7 N1 1_555 1_555
C8 C7 1_555 1_555
C9 C8 1_555 1_555
H6 C9 1_555 1_555
C10 C9 1_555 1_555
H7 C10 1_555 1_555
C11 C10 1_555 1_555
H8 C11 1_555 1_555
C12 N2 1_555 1_555
C13 C12 1_555 1_555
C14 N3 1_555 1_555
H9 C14 1_555 1_555
C15 C14 1_555 1_555
H10 C15 1_555 1_555
C16 C15 1_555 1_555
H11 C16 1_555 1_555
C17 C7 1_555 1_555
C5 C6 1_555 1_555
C8 C12 1_555 1_555
C13 C17 1_555 1_555
C16 C17 1_555 1_555

#END
