
#######################################################################
#
#                 Cambridge Crystallographic Data Centre
#                                CCDC 
#
#######################################################################
#
# If this CIF has been generated from an entry in the Cambridge 
# Structural Database, then it will include bibliographic, chemical, 
# crystal, experimental, refinement or atomic coordinate data resulting 
# from the CCDC's data processing and validation procedures.
#
#######################################################################

data_HODROI
_chemical_formula_moiety         'C30 H28 N6 O2'
_chemical_name_systematic        
1,1',5,5'-Tetramethyl-2,2'-diphenyl-4,4'-(p-phenylenebis(methylidynenitrilo))di-1H-pyrazol-3(2H)-one
_symmetry_cell_setting           monoclinic
_symmetry_space_group_name_H-M   'P 21/c'
_symmetry_Int_Tables_number      14
_space_group_name_Hall           '-P 2ybc'
loop_
_symmetry_equiv_pos_site_id
_symmetry_equiv_pos_as_xyz
1 x,y,z
2 -x,1/2+y,1/2-z
3 -x,-y,-z
4 x,1/2-y,1/2+z
_cell_length_a                   6.0710(2)
_cell_length_b                   22.2948(7)
_cell_length_c                   9.8712(3)
_cell_angle_alpha                90
_cell_angle_beta                 95.147(2)
_cell_angle_gamma                90
_cell_volume                     1330.7
_exptl_crystal_colour            orange
_exptl_crystal_description       plate
_cell_formula_units_Z            2
_exptl_crystal_recrystallization_method dichloromethane
loop_
_atom_site_label
_atom_site_type_symbol
_atom_site_fract_x
_atom_site_fract_y
_atom_site_fract_z
C1 C 0.5948(3) 0.12138(11) 0.3232(2)
H1 H 0.5482 0.1411 0.2427
C2 C 0.6688(4) 0.06301(13) 0.3206(3)
H2 H 0.6698 0.0429 0.2381
C3 C 0.7412(4) 0.03448(12) 0.4398(3)
H3 H 0.7896 -0.0051 0.4379
C4 C 0.7421(4) 0.06416(13) 0.5613(3)
H4 H 0.7963 0.0450 0.6412
C5 C 0.6645(3) 0.12146(12) 0.5666(2)
H5 H 0.6612 0.1409 0.6497
C6 C 0.5906(3) 0.15034(9) 0.44682(19)
C7 C 0.6508(3) 0.25836(9) 0.4974(2)
C8 C 0.5528(3) 0.31032(10) 0.42959(18)
C9 C 0.3701(3) 0.29191(12) 0.34877(18)
C10 C 0.2076(3) 0.32931(11) 0.2642(2)
H6 H 0.1995 0.3158 0.1715
H7 H 0.2539 0.3705 0.2687
H8 H 0.0647 0.3257 0.2979
C11 C 0.1418(3) 0.19846(11) 0.3421(2)
H9 H 0.0686 0.2041 0.4234
H10 H 0.1695 0.1565 0.3298
H11 H 0.0495 0.2133 0.2653
C12 C 0.8174(3) 0.38190(10) 0.49476(19)
H12 H 0.8988 0.3516 0.5406
C13 C 0.9077(3) 0.44235(9) 0.49658(19)
C14 C 0.7889(3) 0.49096(11) 0.44069(19)
H13 H 0.6462 0.4852 0.4001
C15 C 1.1209(3) 0.45310(10) 0.5553(2)
H14 H 1.2042 0.4212 0.5928
N1 N 0.5147(2) 0.21057(8) 0.45310(15)
N2 N 0.3520(2) 0.23113(9) 0.35380(15)
N3 N 0.6298(2) 0.36906(8) 0.43224(15)
O1 O 0.8196(2) 0.25211(6) 0.57575(15)
C1B C 1.4052(3) 0.87862(11) 0.6768(2)
H1B H 1.4518 0.8589 0.7573
C2B C 1.3312(4) 0.93699(13) 0.6794(3)
H2B H 1.3302 0.9571 0.7619
C3B C 1.2588(4) 0.96552(12) 0.5602(3)
H3B H 1.2104 1.0051 0.5621
C4B C 1.2579(4) 0.93584(13) 0.4387(3)
H4B H 1.2037 0.9550 0.3588
C5B C 1.3355(3) 0.87854(12) 0.4334(2)
H5B H 1.3388 0.8591 0.3503
C6B C 1.4094(3) 0.84966(9) 0.55318(19)
C7B C 1.3492(3) 0.74164(9) 0.5026(2)
C8B C 1.4472(3) 0.68968(10) 0.57041(18)
C9B C 1.6299(3) 0.70809(12) 0.65123(18)
C10B C 1.7924(3) 0.67069(11) 0.7358(2)
H6B H 1.8005 0.6842 0.8285
H7B H 1.7461 0.6295 0.7313
H8B H 1.9353 0.6743 0.7021
C11B C 1.8582(3) 0.80154(11) 0.6579(2)
H9B H 1.9314 0.7959 0.5766
H10B H 1.8305 0.8435 0.6702
H11B H 1.9505 0.7867 0.7347
C12B C 1.1826(3) 0.61810(10) 0.50524(19)
H12B H 1.1012 0.6484 0.4594
C13B C 1.0923(3) 0.55765(9) 0.50342(19)
C14B C 1.2111(3) 0.50904(11) 0.55931(19)
H13B H 1.3538 0.5148 0.5999
C15B C 0.8791(3) 0.54690(10) 0.4447(2)
H14B H 0.7958 0.5788 0.4072
N1B N 1.4853(2) 0.78943(8) 0.54690(15)
N2B N 1.6480(2) 0.76887(9) 0.64620(15)
N3B N 1.3702(2) 0.63094(8) 0.56776(15)
O1B O 1.1804(2) 0.74789(6) 0.42425(15)
loop_
_geom_bond_atom_site_label_1
_geom_bond_atom_site_label_2
_geom_bond_site_symmetry_1
_geom_bond_site_symmetry_2
C1 H1 1_555 1_555
C2 C1 1_555 1_555
H2 C2 1_555 1_555
C3 C2 1_555 1_555
H3 C3 1_555 1_555
C4 C3 1_555 1_555
H4 C4 1_555 1_555
C5 C4 1_555 1_555
H5 C5 1_555 1_555
C6 C1 1_555 1_555
C7 C8 1_555 1_555
C8 C9 1_555 1_555
C9 C10 1_555 1_555
C10 H6 1_555 1_555
H7 C10 1_555 1_555
H8 C10 1_555 1_555
C11 H9 1_555 1_555
H10 C11 1_555 1_555
H11 C11 1_555 1_555
C12 H12 1_555 1_555
C13 C12 1_555 1_555
C14 C13 1_555 1_555
H13 C14 1_555 1_555
C15 C13 1_555 1_555
H14 C15 1_555 1_555
N1 C6 1_555 1_555
N2 C9 1_555 1_555
N3 C8 1_555 1_555
O1 C7 1_555 1_555
C1B H1B 1_555 1_555
C2B C1B 1_555 1_555
H2B C2B 1_555 1_555
C3B C2B 1_555 1_555
H3B C3B 1_555 1_555
C4B C3B 1_555 1_555
H4B C4B 1_555 1_555
C5B C4B 1_555 1_555
H5B C5B 1_555 1_555
C6B C1B 1_555 1_555
C7B C8B 1_555 1_555
C8B C9B 1_555 1_555
C9B C10B 1_555 1_555
C10B H6B 1_555 1_555
H7B C10B 1_555 1_555
H8B C10B 1_555 1_555
C11B H9B 1_555 1_555
H10B C11B 1_555 1_555
H11B C11B 1_555 1_555
C12B H12B 1_555 1_555
C13B C12B 1_555 1_555
C14B C15 1_555 1_555
H13B C14B 1_555 1_555
C15B C14 1_555 1_555
H14B C15B 1_555 1_555
N1B C6B 1_555 1_555
N2B C9B 1_555 1_555
N3B C8B 1_555 1_555
O1B C7B 1_555 1_555
C5 C6 1_555 1_555
C7 N1 1_555 1_555
C11 N2 1_555 1_555
C12 N3 1_555 1_555
N1 N2 1_555 1_555
C5B C6B 1_555 1_555
C7B N1B 1_555 1_555
C11B N2B 1_555 1_555
C12B N3B 1_555 1_555
C13B C14B 1_555 1_555
C13B C15B 1_555 1_555
N1B N2B 1_555 1_555

#END
