
#######################################################################
#
#                 Cambridge Crystallographic Data Centre
#                                CCDC 
#
#######################################################################
#
# If this CIF has been generated from an entry in the Cambridge 
# Structural Database, then it will include bibliographic, chemical, 
# crystal, experimental, refinement or atomic coordinate data resulting 
# from the CCDC's data processing and validation procedures.
#
#######################################################################

data_HODTIE
_chemical_name_common            
'(2S,NS)-N-Allyl-N-benzyl-1-hydroxy-3-(4-hydroxyphenyl)-N-methylpropan-2-aminium bromide'
_chemical_formula_moiety         'C20 H26 N1 O2 1+,Br1 1-'
_chemical_name_systematic        
'[N(S)]-N-Allyl-N-benzyl-N-[(1S)-1-(hydroxymethyl)-2-(4-hydroxyphenyl)ethyl]-N-methylammonium bromide'
_symmetry_cell_setting           orthorhombic
_symmetry_space_group_name_H-M   'P 21 21 21'
_symmetry_Int_Tables_number      19
_space_group_name_Hall           'P 2ac 2ab'
loop_
_symmetry_equiv_pos_site_id
_symmetry_equiv_pos_as_xyz
1 x,y,z
2 1/2-x,-y,1/2+z
3 -x,1/2+y,1/2-z
4 1/2+x,1/2-y,-z
_cell_length_a                   10.3716(10)
_cell_length_b                   12.1566(10)
_cell_length_c                   15.6790(16)
_cell_angle_alpha                90
_cell_angle_beta                 90
_cell_angle_gamma                90
_cell_volume                     1976.86
_chemical_melting_point          '176-177 deg.C'
_cell_formula_units_Z            4
_exptl_crystal_recrystallization_method ethanol
loop_
_atom_site_label
_atom_site_type_symbol
_atom_site_fract_x
_atom_site_fract_y
_atom_site_fract_z
Br1 Br 0.63828(7) 0.06624(5) 0.31732(5)
O1 O 0.6728(4) 0.3120(4) 0.3923(3)
H1 H 0.6764 0.2479 0.3762
O2 O 0.7918(4) 0.8588(4) 0.3897(4)
H2 H 0.7452 0.9091 0.3736
N1 N 0.3651(4) 0.3213(4) 0.4017(3)
C1 C 0.7120(6) 0.5784(6) 0.4504(5)
H3 H 0.7557 0.5151 0.4668
C2 C 0.7823(6) 0.6731(5) 0.4309(5)
H4 H 0.8718 0.6726 0.4334
C3 C 0.7171(6) 0.7673(5) 0.4080(4)
C4 C 0.5853(6) 0.7668(5) 0.4011(4)
H5 H 0.5420 0.8296 0.3830
C5 C 0.5173(6) 0.6733(5) 0.4210(5)
H6 H 0.4278 0.6747 0.4178
C6 C 0.5784(5) 0.5767(5) 0.4459(4)
C7 C 0.5053(7) 0.4747(5) 0.4658(4)
H7 H 0.4282 0.4936 0.4976
H8 H 0.5578 0.4271 0.5013
C8 C 0.4670(5) 0.4131(4) 0.3849(4)
H9 H 0.4261 0.4670 0.3471
C9 C 0.5867(5) 0.3719(5) 0.3389(4)
H10 H 0.5603 0.3251 0.2919
H11 H 0.6322 0.4345 0.3149
C10 C 0.4099(6) 0.2377(5) 0.4638(4)
H12 H 0.3393 0.1905 0.4790
H13 H 0.4419 0.2738 0.5140
H14 H 0.4775 0.1947 0.4386
C11 C 0.2426(6) 0.3716(6) 0.4391(4)
H15 H 0.1774 0.3147 0.4435
H16 H 0.2611 0.3974 0.4964
C12 C 0.1902(7) 0.4635(6) 0.3892(5)
H17 H 0.1973 0.4594 0.3302
C13 C 0.1339(16) 0.5511(10) 0.4216(8)
H18 H 0.1250 0.5581 0.4804
H19 H 0.1030 0.6060 0.3857
C14 C 0.3330(5) 0.2665(5) 0.3165(4)
H20 H 0.3090 0.3235 0.2762
H21 H 0.4106 0.2317 0.2950
C15 C 0.2279(6) 0.1823(6) 0.3179(5)
C16 C 0.2603(7) 0.0727(7) 0.3287(5)
H22 H 0.3459 0.0529 0.3372
C17 C 0.1623(10) -0.0099(9) 0.3266(6)
H23 H 0.1820 -0.0839 0.3346
C18 C 0.0386(10) 0.0242(12) 0.3125(7)
H24 H -0.0263 -0.0285 0.3114
C19 C 0.0055(9) 0.1317(14) 0.3001(7)
H25 H -0.0799 0.1514 0.2902
C20 C 0.1000(6) 0.2092(8) 0.3026(5)
H26 H 0.0781 0.2826 0.2938
C21? C 0.1902(7) 0.4635(6) 0.3892(5)
H27? H 0.2394 0.5064 0.3525
C22? C 0.0657(12) 0.479(5) 0.402(3)
H28? H 0.0212 0.4331 0.4396
H29? H 0.0225 0.5346 0.3736
loop_
_geom_bond_atom_site_label_1
_geom_bond_atom_site_label_2
_geom_bond_site_symmetry_1
_geom_bond_site_symmetry_2
O1 H1 1_555 1_555
O2 H2 1_555 1_555
N1 C8 1_555 1_555
C1 H3 1_555 1_555
C2 C1 1_555 1_555
H4 C2 1_555 1_555
C3 O2 1_555 1_555
C4 C3 1_555 1_555
H5 C4 1_555 1_555
C5 C4 1_555 1_555
H6 C5 1_555 1_555
C6 C1 1_555 1_555
C7 C6 1_555 1_555
H7 C7 1_555 1_555
H8 C7 1_555 1_555
C8 C7 1_555 1_555
H9 C8 1_555 1_555
C9 O1 1_555 1_555
H10 C9 1_555 1_555
H11 C9 1_555 1_555
C10 N1 1_555 1_555
H12 C10 1_555 1_555
H13 C10 1_555 1_555
H14 C10 1_555 1_555
C11 N1 1_555 1_555
H15 C11 1_555 1_555
H16 C11 1_555 1_555
C12 C11 1_555 1_555
H17 C12 1_555 1_555
C13 C12 1_555 1_555
H18 C13 1_555 1_555
H19 C13 1_555 1_555
C14 N1 1_555 1_555
H20 C14 1_555 1_555
H21 C14 1_555 1_555
C15 C14 1_555 1_555
C16 C15 1_555 1_555
H22 C16 1_555 1_555
C17 C16 1_555 1_555
H23 C17 1_555 1_555
C18 C17 1_555 1_555
H24 C18 1_555 1_555
C19 C18 1_555 1_555
H25 C19 1_555 1_555
C20 C15 1_555 1_555
H26 C20 1_555 1_555
C2 C3 1_555 1_555
C5 C6 1_555 1_555
C8 C9 1_555 1_555
C19 C20 1_555 1_555

#END
