
#######################################################################
#
#                 Cambridge Crystallographic Data Centre
#                                CCDC 
#
#######################################################################
#
# If this CIF has been generated from an entry in the Cambridge 
# Structural Database, then it will include bibliographic, chemical, 
# crystal, experimental, refinement or atomic coordinate data resulting 
# from the CCDC's data processing and validation procedures.
#
#######################################################################

data_HODVAY
_chemical_formula_moiety         'C16 H16 N2 O3'
_chemical_name_systematic        
5-Hydroxy-1-(3-hydroxy-2-naphthoyl)-3,5-dimethyl-2-pyrazoline
_symmetry_cell_setting           monoclinic
_symmetry_space_group_name_H-M   'P 21/c'
_symmetry_Int_Tables_number      14
_space_group_name_Hall           '-P 2ybc'
loop_
_symmetry_equiv_pos_site_id
_symmetry_equiv_pos_as_xyz
1 x,y,z
2 -x,1/2+y,1/2-z
3 -x,-y,-z
4 x,1/2-y,1/2+z
_cell_length_a                   12.368(6)
_cell_length_b                   7.428(4)
_cell_length_c                   17.041(9)
_cell_angle_alpha                90
_cell_angle_beta                 109.331(7)
_cell_angle_gamma                90
_cell_volume                     1477.29
_exptl_crystal_colour            yellow
_exptl_crystal_description       block
_chemical_melting_point          '565-567 K'
_cell_formula_units_Z            4
loop_
_atom_site_label
_atom_site_type_symbol
_atom_site_fract_x
_atom_site_fract_y
_atom_site_fract_z
N1 N -0.04409(13) 0.2579(2) 0.17144(9)
N2 N -0.01896(14) 0.2214(2) 0.25641(9)
O1 O -0.00571(12) 0.2318(2) 0.05378(8)
O2 O 0.18062(16) 0.1063(3) 0.04810(10)
O3 O -0.21473(13) 0.1232(2) 0.08080(10)
C1 C 0.03208(16) 0.2371(3) 0.13118(12)
C2 C 0.15775(16) 0.2219(3) 0.17533(11)
C3 C 0.22719(18) 0.1535(3) 0.12955(13)
C4 C 0.3424(2) 0.1304(3) 0.16763(16)
C5 C 0.39653(17) 0.1759(3) 0.25094(15)
C6 C 0.5154(2) 0.1459(4) 0.2932(2)
C7 C 0.5635(2) 0.1925(4) 0.3734(2)
C8 C 0.4998(2) 0.2720(4) 0.41802(19)
C9 C 0.38570(19) 0.3039(3) 0.38018(15)
C10 C 0.33107(16) 0.2551(3) 0.29617(13)
C11 C 0.21175(17) 0.2758(3) 0.25604(13)
C12 C -0.1961(2) 0.4476(4) 0.07486(16)
C13 C -0.17012(16) 0.2795(3) 0.12725(12)
C14 C -0.21404(19) 0.2821(4) 0.20067(13)
C15 C -0.11176(17) 0.2339(3) 0.27321(12)
C16 C -0.1146(3) 0.2023(4) 0.35829(16)
H1 H 0.107(3) 0.151(4) 0.0297(18)
H2 H 0.3856(18) 0.087(3) 0.1342(13)
H3 H 0.557(2) 0.094(4) 0.2588(15)
H4 H 0.646(3) 0.166(4) 0.4014(17)
H5 H 0.537(2) 0.310(3) 0.4749(16)
H6 H 0.3391(17) 0.357(3) 0.4107(12)
H7 H 0.1694(15) 0.326(3) 0.2877(11)
H8 H -0.183(2) 0.118(4) 0.0416(16)
H9 H -0.166(2) 0.441(4) 0.0274(16)
H10 H -0.279(2) 0.468(3) 0.0556(14)
H11 H -0.161(2) 0.557(4) 0.1088(15)
H12 H -0.2756(19) 0.190(3) 0.1921(13)
H13 H -0.2419(16) 0.400(3) 0.2075(12)
H14 H -0.174(2) 0.099(4) 0.3588(16)
H15 H -0.138(2) 0.305(4) 0.3791(15)
H16 H -0.045(3) 0.155(4) 0.3976(17)
loop_
_geom_bond_atom_site_label_1
_geom_bond_atom_site_label_2
_geom_bond_site_symmetry_1
_geom_bond_site_symmetry_2
N1 N2 1_555 1_555
N2 C15 1_555 1_555
O1 C1 1_555 1_555
O2 C3 1_555 1_555
O3 C13 1_555 1_555
C1 N1 1_555 1_555
C2 C1 1_555 1_555
C3 C2 1_555 1_555
C4 C3 1_555 1_555
C5 C4 1_555 1_555
C6 C5 1_555 1_555
C7 C6 1_555 1_555
C8 C7 1_555 1_555
C9 C8 1_555 1_555
C10 C5 1_555 1_555
C11 C2 1_555 1_555
C12 C13 1_555 1_555
C13 N1 1_555 1_555
C14 C13 1_555 1_555
C15 C14 1_555 1_555
C16 C15 1_555 1_555
H1 O2 1_555 1_555
H2 C4 1_555 1_555
H3 C6 1_555 1_555
H4 C7 1_555 1_555
H5 C8 1_555 1_555
H6 C9 1_555 1_555
H7 C11 1_555 1_555
H8 O3 1_555 1_555
H9 C12 1_555 1_555
H10 C12 1_555 1_555
H11 C12 1_555 1_555
H12 C14 1_555 1_555
H13 C14 1_555 1_555
H14 C16 1_555 1_555
H15 C16 1_555 1_555
H16 C16 1_555 1_555
C9 C10 1_555 1_555
C10 C11 1_555 1_555

#END
