
#######################################################################
#
#                 Cambridge Crystallographic Data Centre
#                                CCDC 
#
#######################################################################
#
# If this CIF has been generated from an entry in the Cambridge 
# Structural Database, then it will include bibliographic, chemical, 
# crystal, experimental, refinement or atomic coordinate data resulting 
# from the CCDC's data processing and validation procedures.
#
#######################################################################

data_HODXOO
_chemical_formula_moiety         'C14 H12 Cl1 N1 O1'
_chemical_name_systematic        
(RS)-N-((4-Chlorophenyl)(phenyl)methyl)formamide
_symmetry_cell_setting           monoclinic
_symmetry_space_group_name_H-M   'P 21/c'
_symmetry_Int_Tables_number      14
_space_group_name_Hall           '-P 2ybc'
loop_
_symmetry_equiv_pos_site_id
_symmetry_equiv_pos_as_xyz
1 x,y,z
2 -x,1/2+y,1/2-z
3 -x,-y,-z
4 x,1/2-y,1/2+z
_cell_length_a                   16.830(4)
_cell_length_b                   9.6318(12)
_cell_length_c                   16.683(4)
_cell_angle_alpha                90
_cell_angle_beta                 111.538(12)
_cell_angle_gamma                90
_cell_volume                     2515.53
_exptl_crystal_colour            colorless
_exptl_crystal_description       prism
_chemical_melting_point          '397 K'
_cell_formula_units_Z            8
_exptl_crystal_recrystallization_method 'aqueous ethanol'
loop_
_atom_site_label
_atom_site_type_symbol
_atom_site_fract_x
_atom_site_fract_y
_atom_site_fract_z
Cl1 Cl 0.01712(8) 0.62109(17) 0.23035(11)
C15 C -0.3219(2) 0.6980(3) 0.3572(2)
C16 C -0.3975(3) 0.7165(5) 0.3709(3)
H13 H -0.4486 0.6870 0.3292
C17 C -0.3984(3) 0.7773(5) 0.4448(3)
H14 H -0.4501 0.7885 0.4524
C18 C -0.3243(3) 0.8218(5) 0.5075(3)
H15 H -0.3252 0.8628 0.5576
C19 C -0.2489(3) 0.8050(4) 0.4951(3)
H16 H -0.1982 0.8354 0.5370
C20 C -0.2474(2) 0.7433(4) 0.4207(2)
H17 H -0.1955 0.7322 0.4134
C21 C -0.3933(2) 0.4215(4) 0.1961(3)
H18 H -0.4162 0.3342 0.1977
C22 C -0.3231(2) 0.6294(4) 0.2750(2)
H19 H -0.3616 0.6838 0.2268
C23 C -0.2370(2) 0.6242(4) 0.2647(2)
C24 C -0.1850(3) 0.5092(4) 0.2863(3)
H20 H -0.2026 0.4308 0.3077
C25 C -0.1066(3) 0.5083(5) 0.2765(3)
H21 H -0.0721 0.4298 0.2911
C26 C -0.0805(3) 0.6240(5) 0.2453(3)
C27 C -0.1291(3) 0.7407(5) 0.2256(3)
H22 H -0.1101 0.8198 0.2062
C28 C -0.2075(3) 0.7400(4) 0.2349(2)
H23 H -0.2413 0.8193 0.2208
O2 O -0.39511(18) 0.4638(3) 0.12630(16)
N2 N -0.36098(19) 0.4909(3) 0.26976(19)
H24 H -0.3623 0.4534 0.3160
N1 N 0.38686(18) 0.7588(3) 0.49582(19)
H1 H 0.3933 0.8195 0.4609
O1 O 0.43270(19) 0.6899(3) 0.63510(18)
C1 C 0.1291(3) 0.8461(5) 0.4650(3)
H2 H 0.1094 0.9371 0.4604
C2 C 0.0808(3) 0.7419(5) 0.4757(3)
C3 C 0.1074(3) 0.6102(5) 0.4809(3)
H3 H 0.0732 0.5389 0.4879
C4 C 0.1864(3) 0.5799(5) 0.4758(3)
H4 H 0.2042 0.4880 0.4789
C5 C 0.2386(3) 0.6838(5) 0.4664(3)
C6 C 0.2087(3) 0.8181(5) 0.4607(3)
H5 H 0.2421 0.8908 0.4540
C7 C 0.3235(2) 0.6486(4) 0.4612(2)
H6 H 0.3450 0.5663 0.4972
C8 C 0.4345(2) 0.7687(4) 0.5785(3)
H7 H 0.4728 0.8424 0.5951
C9 C 0.3201(2) 0.6125(4) 0.3711(2)
C10 C 0.3871(3) 0.5419(4) 0.3602(3)
H8 H 0.4330 0.5137 0.4086
C11 C 0.3875(3) 0.5125(4) 0.2798(3)
H9 H 0.4334 0.4654 0.2741
C12 C 0.3200(3) 0.5526(5) 0.2079(3)
H10 H 0.3208 0.5340 0.1535
C13 C 0.2516(3) 0.6198(5) 0.2156(3)
H11 H 0.2057 0.6455 0.1666
C14 C 0.2510(3) 0.6495(4) 0.2969(3)
H12 H 0.2042 0.6944 0.3021
Cl2 Cl -0.01756(10) 0.7788(3) 0.48385(13)
loop_
_geom_bond_atom_site_label_1
_geom_bond_atom_site_label_2
_geom_bond_site_symmetry_1
_geom_bond_site_symmetry_2
Cl1 C26 1_555 1_555
N1 H1 1_555 1_555
O1 C8 1_555 1_555
C1 H2 1_555 1_555
C2 C1 1_555 1_555
C3 C2 1_555 1_555
H3 C3 1_555 1_555
C4 C3 1_555 1_555
H4 C4 1_555 1_555
C5 C4 1_555 1_555
C6 C1 1_555 1_555
H5 C6 1_555 1_555
C7 N1 1_555 1_555
H6 C7 1_555 1_555
C8 N1 1_555 1_555
H7 C8 1_555 1_555
C9 C7 1_555 1_555
C10 C9 1_555 1_555
H8 C10 1_555 1_555
C11 C10 1_555 1_555
H9 C11 1_555 1_555
C12 C11 1_555 1_555
H10 C12 1_555 1_555
C13 C12 1_555 1_555
H11 C13 1_555 1_555
C14 C9 1_555 1_555
H12 C14 1_555 1_555
C15 C16 1_555 1_555
C16 H13 1_555 1_555
C17 C16 1_555 1_555
H14 C17 1_555 1_555
C18 C17 1_555 1_555
H15 C18 1_555 1_555
C19 C18 1_555 1_555
H16 C19 1_555 1_555
C20 C15 1_555 1_555
H17 C20 1_555 1_555
C21 H18 1_555 1_555
C22 C15 1_555 1_555
H19 C22 1_555 1_555
C23 C22 1_555 1_555
C24 C23 1_555 1_555
H20 C24 1_555 1_555
C25 C24 1_555 1_555
H21 C25 1_555 1_555
C26 C25 1_555 1_555
C27 C26 1_555 1_555
H22 C27 1_555 1_555
C28 C23 1_555 1_555
H23 C28 1_555 1_555
Cl2 C2 1_555 1_555
O2 C21 1_555 1_555
N2 C21 1_555 1_555
H24 N2 1_555 1_555
C5 C6 1_555 1_555
C5 C7 1_555 1_555
C13 C14 1_555 1_555
C19 C20 1_555 1_555
C22 N2 1_555 1_555
C27 C28 1_555 1_555

#END
