
#######################################################################
#
#                 Cambridge Crystallographic Data Centre
#                                CCDC 
#
#######################################################################
#
# If this CIF has been generated from an entry in the Cambridge 
# Structural Database, then it will include bibliographic, chemical, 
# crystal, experimental, refinement or atomic coordinate data resulting 
# from the CCDC's data processing and validation procedures.
#
#######################################################################

data_HODYAB
_chemical_formula_moiety         'C29 H27 Cl2 N5 O2'
_chemical_name_systematic        
3,5-bis(1-acetyl-5-(4-chlorophenyl)-4,5-dihydro-1H-pyrazol-3-yl)-2,6-dimethylpyridine
_symmetry_cell_setting           monoclinic
_symmetry_space_group_name_H-M   'P 21'
_symmetry_Int_Tables_number      4
_space_group_name_Hall           'P 2yb'
loop_
_symmetry_equiv_pos_site_id
_symmetry_equiv_pos_as_xyz
1 x,y,z
2 -x,1/2+y,-z
_cell_length_a                   12.345(3)
_cell_length_b                   9.6763(19)
_cell_length_c                   13.268(3)
_cell_angle_alpha                90
_cell_angle_beta                 115.00(3)
_cell_angle_gamma                90
_cell_volume                     1436.42
_exptl_crystal_colour            colorless
_exptl_crystal_description       block
_cell_formula_units_Z            2
_exptl_crystal_recrystallization_method tetrahydrofuran
loop_
_atom_site_label
_atom_site_type_symbol
_atom_site_fract_x
_atom_site_fract_y
_atom_site_fract_z
Cl1 Cl 0.82566(10) 0.19017(14) 0.84787(9)
Cl2 Cl 0.93108(9) -0.23669(14) 0.26803(10)
N1 N 0.3040(2) 0.0470(3) -0.03488(19)
O1 O 0.4646(2) 0.0216(3) -0.19685(16)
N2 N 0.2426(2) 0.4329(3) 0.4064(2)
C1 C 0.3001(3) 0.2513(3) 0.1935(2)
H1 H 0.3772 0.2901 0.2141
C2 C 0.2559(3) 0.1586(3) 0.1053(2)
N3 N 0.3995(2) 0.0474(3) -0.06575(19)
N4 N 0.0772(2) 0.1372(3) 0.1322(2)
C3 C 0.2922(3) 0.3870(3) 0.3447(2)
N5 N 0.3251(2) 0.5240(3) 0.4848(2)
C4 C 0.5046(3) 0.1276(3) 0.0106(2)
H2 H 0.5260 0.1990 -0.0324
C5 C 0.1420(3) 0.1018(3) 0.0771(2)
C6 C 0.2348(3) 0.2885(3) 0.2519(2)
C7 C 0.3333(3) 0.1291(3) 0.0493(2)
C8 C 0.4534(2) 0.1978(3) 0.0844(2)
H3 H 0.5048 0.1814 0.1641
H4 H 0.4447 0.2986 0.0705
C9 C 0.5391(3) 0.4494(3) 0.5838(3)
C10 C 0.6109(2) 0.0369(3) 0.0729(2)
O2 O 0.3715(2) 0.6813(3) 0.6201(2)
C11 C 0.0821(3) -0.0002(4) -0.0160(3)
H5 H 0.0072 -0.0321 -0.0150
H6 H 0.1351 -0.0793 -0.0061
H7 H 0.0650 0.0446 -0.0874
C12 C 0.6086(3) -0.0608(4) 0.1481(3)
H8 H 0.5379 -0.0706 0.1593
C13 C 0.2948(4) 0.6055(4) 0.5529(3)
C14 C 0.4157(3) 0.4450(3) 0.3751(2)
H9 H 0.4160 0.5088 0.3169
H10 H 0.4743 0.3702 0.3860
C15 C 0.5107(3) 0.3598(4) 0.6500(3)
H11 H 0.4298 0.3507 0.6388
C16 C 0.4435(3) 0.5226(4) 0.4848(2)
H12 H 0.4694 0.6193 0.4797
C17 C 0.7154(3) 0.0477(4) 0.0600(3)
H13 H 0.7208 0.1143 0.0097
C18 C 0.5992(3) 0.2823(4) 0.7333(3)
H14 H 0.5787 0.2220 0.7790
C19 C 0.3836(3) 0.0014(3) -0.1681(3)
C20 C 0.7057(3) -0.1451(4) 0.2079(3)
H15 H 0.7016 -0.2112 0.2591
C21 C 0.6579(3) 0.4611(4) 0.6040(3)
H16 H 0.6801 0.5241 0.5611
C22 C 0.8074(3) -0.1310(4) 0.1916(3)
C23 C 0.0396(3) 0.2566(5) 0.2730(3)
H17 H -0.0334 0.2013 0.2372
H18 H 0.0187 0.3549 0.2660
H19 H 0.0800 0.2318 0.3519
C24 C 0.1217(3) 0.2283(3) 0.2175(3)
C25 C 0.7161(3) 0.2940(4) 0.7486(3)
C26 C 0.8133(3) -0.0363(5) 0.1185(3)
H20 H 0.8842 -0.0276 0.1074
C27 C 0.7466(3) 0.3822(5) 0.6863(3)
H21 H 0.8277 0.3908 0.6980
C28 C 0.1685(3) 0.5944(5) 0.5398(3)
H22 H 0.1567 0.6570 0.5924
H23 H 0.1525 0.4992 0.5548
H24 H 0.1136 0.6197 0.4637
C29 C 0.2705(3) -0.0739(4) -0.2390(3)
H25 H 0.2731 -0.1018 -0.3089
H26 H 0.2019 -0.0129 -0.2548
H27 H 0.2629 -0.1561 -0.1994
loop_
_geom_bond_atom_site_label_1
_geom_bond_atom_site_label_2
_geom_bond_site_symmetry_1
_geom_bond_site_symmetry_2
Cl1 C25 1_555 1_555
Cl2 C22 1_555 1_555
N1 N3 1_555 1_555
O1 C19 1_555 1_555
N2 C3 1_555 1_555
C1 H1 1_555 1_555
C2 C1 1_555 1_555
N3 C4 1_555 1_555
N4 C5 1_555 1_555
C3 C6 1_555 1_555
N5 N2 1_555 1_555
C4 H2 1_555 1_555
C5 C2 1_555 1_555
C6 C1 1_555 1_555
C7 N1 1_555 1_555
C8 C4 1_555 1_555
H3 C8 1_555 1_555
H4 C8 1_555 1_555
C9 C15 1_555 1_555
C10 C4 1_555 1_555
O2 C13 1_555 1_555
C11 C5 1_555 1_555
H5 C11 1_555 1_555
H6 C11 1_555 1_555
H7 C11 1_555 1_555
C12 C10 1_555 1_555
H8 C12 1_555 1_555
C13 N5 1_555 1_555
C14 C3 1_555 1_555
H9 C14 1_555 1_555
H10 C14 1_555 1_555
C15 H11 1_555 1_555
C16 N5 1_555 1_555
H12 C16 1_555 1_555
C17 C10 1_555 1_555
H13 C17 1_555 1_555
C18 C15 1_555 1_555
H14 C18 1_555 1_555
C19 N3 1_555 1_555
C20 C12 1_555 1_555
H15 C20 1_555 1_555
C21 C9 1_555 1_555
H16 C21 1_555 1_555
C22 C20 1_555 1_555
C23 H17 1_555 1_555
H18 C23 1_555 1_555
H19 C23 1_555 1_555
C24 N4 1_555 1_555
C25 C18 1_555 1_555
C26 C17 1_555 1_555
H20 C26 1_555 1_555
C27 C21 1_555 1_555
H21 C27 1_555 1_555
C28 C13 1_555 1_555
H22 C28 1_555 1_555
H23 C28 1_555 1_555
H24 C28 1_555 1_555
C29 C19 1_555 1_555
H25 C29 1_555 1_555
H26 C29 1_555 1_555
H27 C29 1_555 1_555
C2 C7 1_555 1_555
C6 C24 1_555 1_555
C7 C8 1_555 1_555
C9 C16 1_555 1_555
C14 C16 1_555 1_555
C22 C26 1_555 1_555
C23 C24 1_555 1_555
C25 C27 1_555 1_555

#END
