
#######################################################################
#
#                 Cambridge Crystallographic Data Centre
#                                CCDC 
#
#######################################################################
#
# If this CIF has been generated from an entry in the Cambridge 
# Structural Database, then it will include bibliographic, chemical, 
# crystal, experimental, refinement or atomic coordinate data resulting 
# from the CCDC's data processing and validation procedures.
#
#######################################################################

data_HODYIK
_chemical_formula_moiety         'C29 H26 Cl3 N1 O6 S1'
_chemical_name_systematic        
'diethyl 2-((2-chlorophenyl)((4-methylphenyl)sulfonyl)carbonoimidoyl)-3-(2,5-dichlorophenyl)cyclopropane-1,1-dicarboxylate'
_symmetry_cell_setting           monoclinic
_symmetry_space_group_name_H-M   'P 21/c'
_symmetry_Int_Tables_number      14
_space_group_name_Hall           '-P 2ybc'
loop_
_symmetry_equiv_pos_site_id
_symmetry_equiv_pos_as_xyz
1 x,y,z
2 -x,1/2+y,1/2-z
3 -x,-y,-z
4 x,1/2-y,1/2+z
_cell_length_a                   14.1500(9)
_cell_length_b                   10.1085(7)
_cell_length_c                   21.2134(14)
_cell_angle_alpha                90
_cell_angle_beta                 100.001(2)
_cell_angle_gamma                90
_cell_volume                     2988.16
_cell_formula_units_Z            4
loop_
_atom_site_label
_atom_site_type_symbol
_atom_site_fract_x
_atom_site_fract_y
_atom_site_fract_z
S1 S 0.40936(4) 0.69780(6) 0.08900(3)
Cl1 Cl 0.19062(6) 0.74243(7) -0.09087(3)
Cl2 Cl -0.18363(6) 0.82514(9) -0.12902(4)
Cl3 Cl -0.04254(6) 0.52835(8) 0.12589(4)
O1 O 0.18500(12) 0.67414(17) 0.20222(8)
O2 O -0.02322(12) 0.96297(17) 0.08424(8)
O3 O 0.43749(12) 0.69930(19) 0.02741(9)
N1 N 0.29278(12) 0.7242(2) 0.08571(9)
C1 C -0.01666(15) 0.6893(2) 0.02877(11)
O4 O 0.22691(12) 0.88715(17) 0.19604(8)
C2 C 0.10745(14) 0.8118(2) 0.11553(10)
C3 C 0.41930(15) 0.5346(2) 0.11784(11)
C4 C 0.08322(15) 0.7072(2) 0.06389(10)
H1 H 0.1201 0.6251 0.0721
C5 C 0.17733(15) 0.7788(2) 0.17574(11)
O5 O 0.45783(12) 0.78405(18) 0.13775(10)
O6 O 0.01538(13) 0.8963(2) 0.18607(9)
C6 C 0.28515(15) 0.8974(2) 0.00252(11)
C7 C 0.24534(15) 0.8097(2) 0.04851(10)
C8 C 0.14197(14) 0.8269(2) 0.05148(11)
H2 H 0.1080 0.8932 0.0223
C9 C 0.37782(17) 0.4963(2) 0.16972(12)
H3 H 0.3389 0.5546 0.1875
C10 C 0.26403(16) 0.8743(2) -0.06251(12)
C11 C -0.08109(17) 0.6094(2) 0.05377(12)
C12 C 0.02631(15) 0.9011(2) 0.12547(11)
C13 C 0.47627(17) 0.4466(3) 0.09128(12)
H4 H 0.5035 0.4715 0.0562
C14 C 0.45243(18) 0.2819(3) 0.16869(12)
C15 C -0.04973(17) 0.7515(2) -0.02883(12)
H5 H -0.0081 0.8035 -0.0476
C16 C 0.39499(18) 0.3710(3) 0.19440(12)
H6 H 0.3674 0.3454 0.2292
C17 C 0.34398(19) 1.0047(3) 0.02465(15)
H7 H 0.3586 1.0233 0.0682
C18 C -0.20665(18) 0.6590(3) -0.03327(14)
H8 H -0.2697 0.6496 -0.0542
C19 C -0.14393(17) 0.7375(2) -0.05875(12)
C20 C 0.30177(19) 0.9527(3) -0.10560(14)
H9 H 0.2878 0.9346 -0.1492
C21 C 0.49256(19) 0.3214(3) 0.11720(13)
H10 H 0.5314 0.2628 0.0995
C22 C 0.3595(2) 1.0566(3) -0.08349(17)
H11 H 0.3849 1.1097 -0.1122
C23 C -0.17548(19) 0.5948(3) 0.02325(14)
H12 H -0.2174 0.5414 0.0411
C24 C 0.3804(2) 1.0832(3) -0.01926(19)
H13 H 0.4194 1.1549 -0.0049
C25 C 0.4702(3) 0.1453(3) 0.19701(16)
H14 H 0.4367 0.1356 0.2324
H15 H 0.5377 0.1332 0.2117
H16 H 0.4475 0.0802 0.1650
C26 C -0.0655(2) 0.9674(4) 0.20450(16)
H17 H -0.0423 1.0352 0.2357
H18 H -0.1029 1.0097 0.1673
C27 C 0.2924(2) 0.8824(3) 0.25694(13)
H19 H 0.3580 0.8752 0.2497
H20 H 0.2783 0.8060 0.2814
C28 C 0.2804(3) 1.0047(4) 0.29245(16)
H21 H 0.3239 1.0040 0.3326
H22 H 0.2156 1.0100 0.3002
H23 H 0.2937 1.0798 0.2677
C29 C -0.1243(3) 0.8740(5) 0.2316(3)
H24 H -0.1787 0.9189 0.2429
H25 H -0.0873 0.8345 0.2691
H26 H -0.1460 0.8063 0.2007
loop_
_geom_bond_atom_site_label_1
_geom_bond_atom_site_label_2
_geom_bond_site_symmetry_1
_geom_bond_site_symmetry_2
S1 O3 1_555 1_555
Cl1 C10 1_555 1_555
Cl2 C19 1_555 1_555
Cl3 C11 1_555 1_555
O1 C5 1_555 1_555
O2 C12 1_555 1_555
N1 S1 1_555 1_555
C1 C4 1_555 1_555
O4 C5 1_555 1_555
C2 C4 1_555 1_555
C3 S1 1_555 1_555
C4 H1 1_555 1_555
C5 C2 1_555 1_555
O5 S1 1_555 1_555
O6 C12 1_555 1_555
C6 C7 1_555 1_555
C7 N1 1_555 1_555
C8 C2 1_555 1_555
H2 C8 1_555 1_555
C9 C3 1_555 1_555
H3 C9 1_555 1_555
C10 C6 1_555 1_555
C11 C1 1_555 1_555
C12 C2 1_555 1_555
C13 C3 1_555 1_555
H4 C13 1_555 1_555
C14 C16 1_555 1_555
C15 C1 1_555 1_555
H5 C15 1_555 1_555
C16 C9 1_555 1_555
H6 C16 1_555 1_555
C17 C6 1_555 1_555
H7 C17 1_555 1_555
C18 H8 1_555 1_555
C19 C15 1_555 1_555
C20 C10 1_555 1_555
H9 C20 1_555 1_555
C21 C13 1_555 1_555
H10 C21 1_555 1_555
C22 C20 1_555 1_555
H11 C22 1_555 1_555
C23 C11 1_555 1_555
H12 C23 1_555 1_555
C24 C17 1_555 1_555
H13 C24 1_555 1_555
C25 C14 1_555 1_555
H14 C25 1_555 1_555
H15 C25 1_555 1_555
H16 C25 1_555 1_555
C26 O6 1_555 1_555
H17 C26 1_555 1_555
H18 C26 1_555 1_555
C27 O4 1_555 1_555
H19 C27 1_555 1_555
H20 C27 1_555 1_555
C28 C27 1_555 1_555
H21 C28 1_555 1_555
H22 C28 1_555 1_555
H23 C28 1_555 1_555
C29 C26 1_555 1_555
H24 C29 1_555 1_555
H25 C29 1_555 1_555
H26 C29 1_555 1_555
C4 C8 1_555 1_555
C7 C8 1_555 1_555
C14 C21 1_555 1_555
C18 C19 1_555 1_555
C18 C23 1_555 1_555
C22 C24 1_555 1_555

#END
