
#######################################################################
#
#                 Cambridge Crystallographic Data Centre
#                                CCDC 
#
#######################################################################
#
# If this CIF has been generated from an entry in the Cambridge 
# Structural Database, then it will include bibliographic, chemical, 
# crystal, experimental, refinement or atomic coordinate data resulting 
# from the CCDC's data processing and validation procedures.
#
#######################################################################

data_HOFDUC
_chemical_name_common            
N-((3,5-Dimethylpyrazol-1-yl)methyl)phthalimide
_chemical_formula_moiety         'C14 H13 N3 O2'
_chemical_name_systematic        
2-((3,5-Dimethylpyrazol-1-yl)methyl)isoindole-1,3-dione
_symmetry_cell_setting           monoclinic
_symmetry_space_group_name_H-M   'P 21/c'
_symmetry_Int_Tables_number      14
_space_group_name_Hall           '-P 2ybc'
loop_
_symmetry_equiv_pos_site_id
_symmetry_equiv_pos_as_xyz
1 x,y,z
2 -x,1/2+y,1/2-z
3 -x,-y,-z
4 x,1/2-y,1/2+z
_cell_length_a                   12.285(2)
_cell_length_b                   8.4576(15)
_cell_length_c                   15.6162(19)
_cell_angle_alpha                90
_cell_angle_beta                 127.566(8)
_cell_angle_gamma                90
_cell_volume                     1286.12
_exptl_crystal_colour            yellow
_exptl_crystal_description       block
_cell_formula_units_Z            4
_exptl_crystal_recrystallization_method 'anhydrous ethanol'
loop_
_atom_site_label
_atom_site_type_symbol
_atom_site_fract_x
_atom_site_fract_y
_atom_site_fract_z
O1 O 0.66997(19) -0.2663(2) -0.13413(14)
O2 O 0.38437(19) -0.1191(2) -0.05358(15)
N1 N 0.50763(19) -0.1704(2) -0.11721(15)
N2 N 0.3078(2) -0.1271(2) -0.30016(15)
N3 N 0.3112(2) -0.2458(2) -0.35815(16)
C1 C 0.1467(3) 0.0376(4) -0.2904(2)
H1 H 0.2309 0.0833 -0.2297
H2 H 0.0965 -0.0058 -0.2672
H3 H 0.0925 0.1178 -0.3439
C2 C 0.1782(3) -0.0900(3) -0.3378(2)
C3 C 0.0937(3) -0.1884(3) -0.4239(2)
H4 H -0.0016 -0.1922 -0.4669
C4 C 0.1783(3) -0.2813(3) -0.4344(2)
C5 C 0.1404(3) -0.4075(4) -0.5153(2)
H5 H 0.2223 -0.4502 -0.5013
H6 H 0.0833 -0.3632 -0.5867
H7 H 0.0914 -0.4901 -0.5099
C6 C 0.4354(2) -0.0637(3) -0.20848(18)
H8 H 0.4176 0.0345 -0.1870
H9 H 0.4937 -0.0397 -0.2292
C7 C 0.6197(2) -0.2631(3) -0.0875(2)
C8 C 0.6612(2) -0.3498(3) 0.01092(18)
C9 C 0.7624(3) -0.4605(3) 0.0711(2)
H10 H 0.8183 -0.4937 0.0531
C10 C 0.7773(3) -0.5210(4) 0.1611(2)
H11 H 0.8446 -0.5966 0.2038
C11 C 0.6954(3) -0.4717(4) 0.1882(2)
H12 H 0.7098 -0.5121 0.2498
C12 C 0.5915(3) -0.3625(3) 0.12510(19)
H13 H 0.5342 -0.3306 0.1420
C13 C 0.5765(2) -0.3033(3) 0.03664(18)
C14 C 0.4762(3) -0.1880(3) -0.04554(19)
loop_
_geom_bond_atom_site_label_1
_geom_bond_atom_site_label_2
_geom_bond_site_symmetry_1
_geom_bond_site_symmetry_2
O1 C7 1_555 1_555
O2 C14 1_555 1_555
N1 C6 1_555 1_555
N2 N3 1_555 1_555
N3 C4 1_555 1_555
C1 H1 1_555 1_555
H2 C1 1_555 1_555
H3 C1 1_555 1_555
C2 N2 1_555 1_555
C3 C2 1_555 1_555
H4 C3 1_555 1_555
C4 C3 1_555 1_555
C5 C4 1_555 1_555
H5 C5 1_555 1_555
H6 C5 1_555 1_555
H7 C5 1_555 1_555
C6 N2 1_555 1_555
H8 C6 1_555 1_555
H9 C6 1_555 1_555
C7 N1 1_555 1_555
C8 C7 1_555 1_555
C9 C8 1_555 1_555
H10 C9 1_555 1_555
C10 C9 1_555 1_555
H11 C10 1_555 1_555
C11 C10 1_555 1_555
H12 C11 1_555 1_555
C12 C11 1_555 1_555
H13 C12 1_555 1_555
C13 C8 1_555 1_555
C14 N1 1_555 1_555
C1 C2 1_555 1_555
C12 C13 1_555 1_555
C13 C14 1_555 1_555

#END
