
#######################################################################
#
#                 Cambridge Crystallographic Data Centre
#                                CCDC 
#
#######################################################################
#
# If this CIF has been generated from an entry in the Cambridge 
# Structural Database, then it will include bibliographic, chemical, 
# crystal, experimental, refinement or atomic coordinate data resulting 
# from the CCDC's data processing and validation procedures.
#
#######################################################################

data_HOFFEO
_chemical_formula_moiety         'C26 H26 N2 O4'
_chemical_name_systematic        
N,N'-Dicyclohexylnaphthalene-1,8:4,5-dicarboximide
_symmetry_cell_setting           monoclinic
_symmetry_space_group_name_H-M   'C 2/m'
_symmetry_Int_Tables_number      12
_space_group_name_Hall           '-C 2y'
loop_
_symmetry_equiv_pos_site_id
_symmetry_equiv_pos_as_xyz
1 x,y,z
2 1/2+x,1/2+y,z
3 -x,y,-z
4 1/2-x,1/2+y,-z
5 -x,-y,-z
6 1/2-x,1/2-y,-z
7 x,-y,z
8 1/2+x,1/2-y,z
_cell_length_a                   8.5410(2)
_cell_length_b                   6.6780(2)
_cell_length_c                   18.4270(9)
_cell_angle_alpha                90
_cell_angle_beta                 102.4790(18)
_cell_angle_gamma                90
_cell_volume                     1026.19
_exptl_crystal_colour            orange
_exptl_crystal_description       Block
_cell_formula_units_Z            2
loop_
_atom_site_label
_atom_site_type_symbol
_atom_site_fract_x
_atom_site_fract_y
_atom_site_fract_z
O1 O 0.2160(3) 0.0000 0.28476(12)
O2 O 0.7630(3) 0.0000 0.33332(13)
N1 N 0.4894(3) 0.0000 0.30625(13)
C1 C 0.6391(4) 0.0000 0.35566(18)
C2 C 0.6418(3) 0.0000 0.43622(17)
C3 C 0.7854(4) 0.0000 0.48703(18)
H1 H 0.8806 0.0000 0.4703
C4 C 0.4979(3) 0.0000 0.46157(16)
C5 C 0.7914(4) 0.0000 0.56361(18)
H2 H 0.8900 0.0000 0.5970
C6 C 0.3486(3) 0.0000 0.41020(17)
C7 C 0.3427(4) 0.0000 0.32968(18)
C8 C 0.4868(4) 0.0000 0.22507(16)
H3 H 0.5991 0.0000 0.2207
C9 C 0.4125(3) 0.1896(4) 0.18665(13)
H4 H 0.4684 0.3060 0.2110
H5 H 0.3010 0.1986 0.1901
C10 C 0.4238(3) 0.1862(5) 0.10529(14)
H6 H 0.3699 0.3031 0.0803
H7 H 0.5356 0.1926 0.1022
C11 C 0.3488(5) 0.0000 0.0665(2)
H8 H 0.3624 0.0000 0.0156
H9 H 0.2348 0.0000 0.0654
O1D O 0.7840(3) 0.0000 0.71524(12)
O2D O 0.2370(3) 0.0000 0.66668(13)
N1D N 0.5106(3) 0.0000 0.69375(13)
C1D C 0.3609(4) 0.0000 0.64434(18)
C2D C 0.3582(3) 0.0000 0.56378(17)
C3D C 0.2146(4) 0.0000 0.51297(18)
H1D H 0.1194 0.0000 0.5297
C4D C 0.5021(3) 0.0000 0.53843(16)
C5D C 0.2086(4) 0.0000 0.43639(18)
H2D H 0.1100 0.0000 0.4030
C6D C 0.6514(3) 0.0000 0.58980(17)
C7D C 0.6573(4) 0.0000 0.67032(18)
C8D C 0.5132(4) 0.0000 0.77493(16)
H3D H 0.4009 0.0000 0.7793
C9D C 0.5875(3) -0.1896(4) 0.81335(13)
C9B C 0.5875(3) 0.1896(4) 0.81335(13)
C9F C 0.4125(3) -0.1896(4) 0.18665(13)
H4D H 0.5316 -0.3060 0.7890
H4B H 0.5316 0.3060 0.7890
H4F H 0.4684 -0.3060 0.2110
H5D H 0.6990 -0.1986 0.8099
H5B H 0.6990 0.1986 0.8099
H5F H 0.3010 -0.1986 0.1901
C10D C 0.5762(3) -0.1862(5) 0.89471(14)
C10B C 0.5762(3) 0.1862(5) 0.89471(14)
C10F C 0.4238(3) -0.1862(5) 0.10529(14)
H6D H 0.6301 -0.3031 0.9197
H6B H 0.6301 0.3031 0.9197
H6F H 0.3699 -0.3031 0.0803
H7D H 0.4644 -0.1926 0.8978
H7B H 0.4644 0.1926 0.8978
H7F H 0.5356 -0.1926 0.1022
C11D C 0.6512(5) 0.0000 0.9335(2)
H8D H 0.6376 0.0000 0.9844
H9D H 0.7652 0.0000 0.9346
loop_
_geom_bond_atom_site_label_1
_geom_bond_atom_site_label_2
_geom_bond_site_symmetry_1
_geom_bond_site_symmetry_2
O1 C7 1_555 1_555
O2 C1 1_555 1_555
N1 C1 1_555 1_555
C1 C2 1_555 1_555
C2 C3 1_555 1_555
C3 H1 1_555 1_555
C4 C2 1_555 1_555
C5 C3 1_555 1_555
H2 C5 1_555 1_555
C6 C4 1_555 1_555
C7 N1 1_555 1_555
C8 N1 1_555 1_555
H3 C8 1_555 1_555
C9 C8 1_555 1_555
H4 C9 1_555 1_555
H5 C9 1_555 1_555
C10 C9 1_555 1_555
H6 C10 1_555 1_555
H7 C10 1_555 1_555
C11 C10 1_555 1_555
H8 C11 1_555 1_555
H9 C11 1_555 1_555
O1D C7D 1_555 1_555
O2D C1D 1_555 1_555
N1D C1D 1_555 1_555
C1D C2D 1_555 1_555
C2D C3D 1_555 1_555
C3D H1D 1_555 1_555
C4D C4 1_555 1_555
C5D C6 1_555 1_555
H2D C5D 1_555 1_555
C6D C5 1_555 1_555
C7D N1D 1_555 1_555
C8D N1D 1_555 1_555
H3D C8D 1_555 1_555
C9D C8D 1_555 1_555
C9B C8D 1_555 1_555
C9F C8 1_555 1_555
H4D C9D 1_555 1_555
H4B C9B 1_555 1_555
H4F C9F 1_555 1_555
H5D C9D 1_555 1_555
H5B C9B 1_555 1_555
H5F C9F 1_555 1_555
C10D C9D 1_555 1_555
C10B C9B 1_555 1_555
C10F C11 1_555 1_555
H6D C10D 1_555 1_555
H6B C10B 1_555 1_555
H6F C10F 1_555 1_555
H7D C10D 1_555 1_555
H7B C10B 1_555 1_555
H7F C10F 1_555 1_555
C11D C10D 1_555 1_555
H8D C11D 1_555 1_555
H9D C11D 1_555 1_555
C6 C7 1_555 1_555
C2D C4D 1_555 1_555
C3D C5D 1_555 1_555
C4D C6D 1_555 1_555
C6D C7D 1_555 1_555
C9F C10F 1_555 1_555
C10B C11D 1_555 1_555

#END
