
#######################################################################
#
#                 Cambridge Crystallographic Data Centre
#                                CCDC 
#
#######################################################################
#
# If this CIF has been generated from an entry in the Cambridge 
# Structural Database, then it will include bibliographic, chemical, 
# crystal, experimental, refinement or atomic coordinate data resulting 
# from the CCDC's data processing and validation procedures.
#
#######################################################################

data_HOFJIW
_chemical_formula_moiety         'C11 H7 O3 1-,C5 H12 N1 1+'
_chemical_name_systematic        'Piperidinium 3-hydroxy-2-naphthoate'
_symmetry_cell_setting           monoclinic
_symmetry_space_group_name_H-M   'P 21/n'
_symmetry_Int_Tables_number      14
_space_group_name_Hall           '-P 2yn'
loop_
_symmetry_equiv_pos_site_id
_symmetry_equiv_pos_as_xyz
1 x,y,z
2 1/2-x,1/2+y,1/2-z
3 -x,-y,-z
4 1/2+x,1/2-y,1/2+z
_cell_length_a                   8.6683(3)
_cell_length_b                   19.4537(5)
_cell_length_c                   9.5932(3)
_cell_angle_alpha                90
_cell_angle_beta                 111.959(2)
_cell_angle_gamma                90
_cell_volume                     1500.34
_exptl_crystal_colour            colorless
_exptl_crystal_description       block
_cell_formula_units_Z            4
_exptl_crystal_recrystallization_method methanol/water
loop_
_atom_site_label
_atom_site_type_symbol
_atom_site_fract_x
_atom_site_fract_y
_atom_site_fract_z
N1 N -0.1726(2) 0.09197(8) 0.39856(18)
H1 H -0.1979 0.0491 0.4346
H2 H -0.0626 0.1054 0.4635
C12 C -0.2927(3) 0.14545(10) 0.4042(2)
H10 H -0.2619 0.1895 0.3749
H11 H -0.2893 0.1495 0.5061
C13 C -0.4652(3) 0.12680(12) 0.3005(3)
H12 H -0.5412 0.1634 0.3004
H13 H -0.5001 0.0853 0.3366
C14 C -0.4732(3) 0.11527(13) 0.1424(3)
H14 H -0.5837 0.0996 0.0798
H15 H -0.4525 0.1583 0.1015
C15 C -0.3471(3) 0.06288(13) 0.1397(2)
H16 H -0.3759 0.0184 0.1690
H17 H -0.3490 0.0589 0.0383
C16 C -0.1763(3) 0.08263(11) 0.2440(3)
H18 H -0.0979 0.0471 0.2439
H19 H -0.1434 0.1251 0.2097
O1 O 0.31760(19) 0.22455(7) 0.73435(18)
H3 H 0.2331 0.2051 0.6786
O2 O 0.24997(18) 0.03674(7) 0.51894(15)
O3 O 0.14101(19) 0.13370(8) 0.56381(18)
C1 C 0.6069(3) 0.20988(10) 0.8318(2)
H4 H 0.6176 0.2530 0.8763
C2 C 0.4523(3) 0.18561(9) 0.7481(2)
C3 C 0.4321(2) 0.12071(9) 0.67629(19)
C4 C 0.5718(3) 0.08253(9) 0.69633(19)
H5 H 0.5597 0.0398 0.6498
C5 C 0.7325(3) 0.10544(10) 0.7844(2)
C6 C 0.8758(3) 0.06627(12) 0.8062(3)
H6 H 0.8654 0.0229 0.7626
C7 C 1.0287(3) 0.09073(16) 0.8897(3)
H7 H 1.1223 0.0642 0.9027
C8 C 1.0468(3) 0.15586(15) 0.9569(3)
H8 H 1.1524 0.1724 1.0137
C9 C 0.9119(3) 0.19463(12) 0.9394(2)
H9 H 0.9256 0.2375 0.9852
C10 C 0.7497(3) 0.17107(10) 0.8523(2)
C11 C 0.2638(3) 0.09412(11) 0.5796(2)
loop_
_geom_bond_atom_site_label_1
_geom_bond_atom_site_label_2
_geom_bond_site_symmetry_1
_geom_bond_site_symmetry_2
N1 H1 1_555 1_555
H2 N1 1_555 1_555
O1 H3 1_555 1_555
O2 C11 1_555 1_555
O3 C11 1_555 1_555
C1 H4 1_555 1_555
C2 O1 1_555 1_555
C3 C2 1_555 1_555
C4 C3 1_555 1_555
H5 C4 1_555 1_555
C5 C4 1_555 1_555
C6 C5 1_555 1_555
H6 C6 1_555 1_555
C7 C6 1_555 1_555
H7 C7 1_555 1_555
C8 C7 1_555 1_555
H8 C8 1_555 1_555
C9 C8 1_555 1_555
H9 C9 1_555 1_555
C10 C1 1_555 1_555
C11 C3 1_555 1_555
C12 N1 1_555 1_555
H10 C12 1_555 1_555
H11 C12 1_555 1_555
C13 C12 1_555 1_555
H12 C13 1_555 1_555
H13 C13 1_555 1_555
C14 C13 1_555 1_555
H14 C14 1_555 1_555
H15 C14 1_555 1_555
C15 C14 1_555 1_555
H16 C15 1_555 1_555
H17 C15 1_555 1_555
C16 N1 1_555 1_555
H18 C16 1_555 1_555
H19 C16 1_555 1_555
C1 C2 1_555 1_555
C5 C10 1_555 1_555
C9 C10 1_555 1_555
C15 C16 1_555 1_555

#END
