
#######################################################################
#
#                 Cambridge Crystallographic Data Centre
#                                CCDC 
#
#######################################################################
#
# If this CIF has been generated from an entry in the Cambridge 
# Structural Database, then it will include bibliographic, chemical, 
# crystal, experimental, refinement or atomic coordinate data resulting 
# from the CCDC's data processing and validation procedures.
#
#######################################################################

data_HOFJOB
_chemical_formula_moiety         'C12 H19 N3 O4'
_chemical_name_systematic        N,N-bis(2-Oxopyrrolidin-1-ylmethyl)glycine
_symmetry_cell_setting           monoclinic
_symmetry_space_group_name_H-M   'P 21/c'
_symmetry_Int_Tables_number      14
_space_group_name_Hall           '-P 2ybc'
loop_
_symmetry_equiv_pos_site_id
_symmetry_equiv_pos_as_xyz
1 x,y,z
2 -x,1/2+y,1/2-z
3 -x,-y,-z
4 x,1/2-y,1/2+z
_cell_length_a                   13.7310(6)
_cell_length_b                   9.1357(5)
_cell_length_c                   10.8227(5)
_cell_angle_alpha                90
_cell_angle_beta                 98.852(4)
_cell_angle_gamma                90
_cell_volume                     1341.45
_exptl_crystal_colour            colorless
_exptl_crystal_description       plate
_chemical_melting_point          144-145deg.C
_cell_formula_units_Z            4
loop_
_atom_site_label
_atom_site_type_symbol
_atom_site_fract_x
_atom_site_fract_y
_atom_site_fract_z
O1 O -0.00045(9) 0.22257(17) -0.09390(14)
O2 O 0.14939(9) 0.25062(15) -0.14576(13)
O3 O 0.49610(10) 0.17338(16) 0.03127(12)
O4 O 0.09350(10) -0.14065(15) -0.21300(13)
N1 N 0.22933(9) 0.05862(15) 0.05572(12)
N2 N 0.38809(9) 0.11883(16) 0.16604(12)
N3 N 0.21399(10) -0.17481(16) -0.04666(13)
C1 C 0.09560(12) 0.20081(19) -0.07886(16)
C2 C 0.12716(12) 0.1048(2) 0.03473(16)
C3 C 0.29932(13) 0.1762(2) 0.09423(19)
C4 C 0.47739(12) 0.11864(19) 0.12778(15)
C5 C 0.54802(14) 0.0371(3) 0.22428(17)
C6 C 0.49608(16) 0.0274(3) 0.33642(18)
C7 C 0.38747(15) 0.0420(3) 0.28367(18)
C8 C 0.25691(12) -0.0301(2) -0.04432(16)
C9 C 0.13888(13) -0.2204(2) -0.13170(17)
C10 C 0.1211(2) -0.3795(3) -0.1128(3)
C11 C 0.1911(2) -0.4214(3) 0.0032(3)
C12 C 0.2517(2) -0.2864(3) 0.0439(3)
H1 H -0.0209(18) 0.275(3) -0.166(2)
H2 H 0.0862(12) 0.017(2) 0.0232(16)
H3 H 0.1100(13) 0.155(2) 0.1062(18)
H4 H 0.2656(15) 0.245(2) 0.1440(19)
H5 H 0.3219(13) 0.229(2) 0.0233(18)
H6 H 0.5588(16) -0.060(3) 0.188(2)
H7 H 0.6112(17) 0.089(2) 0.243(2)
H8 H 0.5069(18) -0.065(3) 0.384(2)
H9 H 0.515(2) 0.120(3) 0.394(3)
H10 H 0.3529(18) -0.051(3) 0.267(2)
H11 H 0.3510(17) 0.098(3) 0.337(2)
H12 H 0.2395(13) 0.017(2) -0.1259(17)
H13 H 0.3287(12) -0.0408(18) -0.0308(15)
H14 H 0.1321(19) -0.432(3) -0.186(3)
H15 H 0.051(2) -0.389(3) -0.105(3)
H16 H 0.2365(17) -0.500(3) -0.012(2)
H17 H 0.1541(19) -0.444(3) 0.063(3)
H18 H 0.322(2) -0.298(3) 0.036(3)
H19 H 0.2462(19) -0.254(3) 0.124(3)
loop_
_geom_bond_atom_site_label_1
_geom_bond_atom_site_label_2
_geom_bond_site_symmetry_1
_geom_bond_site_symmetry_2
O1 C1 1_555 1_555
O2 C1 1_555 1_555
O3 C4 1_555 1_555
O4 C9 1_555 1_555
N1 C2 1_555 1_555
N2 C3 1_555 1_555
N3 C8 1_555 1_555
C1 C2 1_555 1_555
C2 H2 1_555 1_555
C3 N1 1_555 1_555
C4 N2 1_555 1_555
C5 C4 1_555 1_555
C6 C5 1_555 1_555
C7 N2 1_555 1_555
C8 N1 1_555 1_555
C9 N3 1_555 1_555
C10 C9 1_555 1_555
C11 C10 1_555 1_555
C12 N3 1_555 1_555
H1 O1 1_555 1_555
H3 C2 1_555 1_555
H4 C3 1_555 1_555
H5 C3 1_555 1_555
H6 C5 1_555 1_555
H7 C5 1_555 1_555
H8 C6 1_555 1_555
H9 C6 1_555 1_555
H10 C7 1_555 1_555
H11 C7 1_555 1_555
H12 C8 1_555 1_555
H13 C8 1_555 1_555
H14 C10 1_555 1_555
H15 C10 1_555 1_555
H16 C11 1_555 1_555
H17 C11 1_555 1_555
H18 C12 1_555 1_555
H19 C12 1_555 1_555
C6 C7 1_555 1_555
C11 C12 1_555 1_555

#END
