
#######################################################################
#
#                 Cambridge Crystallographic Data Centre
#                                CCDC 
#
#######################################################################
#
# If this CIF has been generated from an entry in the Cambridge 
# Structural Database, then it will include bibliographic, chemical, 
# crystal, experimental, refinement or atomic coordinate data resulting 
# from the CCDC's data processing and validation procedures.
#
#######################################################################

data_HOFJAO
_chemical_name_common            N-(Imidazol-1-ylmethyl)phthalimide
_chemical_formula_moiety         'C12 H9 N3 O2'
_chemical_name_systematic        2-(Imidazol-1-ylmethyl)isoindole-1,3-dione
_symmetry_cell_setting           monoclinic
_symmetry_space_group_name_H-M   'P 21/c'
_symmetry_Int_Tables_number      14
_space_group_name_Hall           '-P 2ybc'
loop_
_symmetry_equiv_pos_site_id
_symmetry_equiv_pos_as_xyz
1 x,y,z
2 -x,1/2+y,1/2-z
3 -x,-y,-z
4 x,1/2-y,1/2+z
_cell_length_a                   7.9905(6)
_cell_length_b                   19.8096(15)
_cell_length_c                   6.9229(5)
_cell_angle_alpha                90
_cell_angle_beta                 105.5540(10)
_cell_angle_gamma                90
_cell_volume                     1055.69
_exptl_crystal_colour            colorless
_exptl_crystal_description       bar
_cell_formula_units_Z            4
_exptl_crystal_recrystallization_method 'anhydrous ethanol'
loop_
_atom_site_label
_atom_site_type_symbol
_atom_site_fract_x
_atom_site_fract_y
_atom_site_fract_z
O1 O 0.38144(13) 0.59386(5) 0.45690(16)
O2 O 0.88708(13) 0.71264(5) 0.64832(19)
N1 N 0.79858(19) 0.51519(6) 0.1175(2)
N2 N 0.80767(14) 0.55831(5) 0.41391(16)
N3 N 0.65627(13) 0.63862(5) 0.56497(15)
C1 C 0.7178(2) 0.52112(7) 0.2578(2)
H1 H 0.6103 0.5018 0.2505
C2 C 0.9506(2) 0.55038(7) 0.1900(3)
H2 H 1.0367 0.5550 0.1234
C3 C 0.95804(18) 0.57721(7) 0.3700(2)
H3 H 1.0472 0.6033 0.4488
C4 C 0.75385(19) 0.57605(6) 0.5912(2)
H4 H 0.8558 0.5806 0.7042
H5 H 0.6827 0.5400 0.6216
C5 C 0.47554(17) 0.64220(6) 0.49665(18)
C6 C 0.43317(15) 0.71539(6) 0.48572(17)
C7 C 0.27516(18) 0.74781(7) 0.4294(2)
H6 H 0.1717 0.7237 0.3900
C8 C 0.2764(2) 0.81774(8) 0.4338(2)
H7 H 0.1715 0.8410 0.3980
C9 C 0.4295(2) 0.85355(7) 0.4899(2)
H8 H 0.4259 0.9005 0.4911
C10 C 0.58863(18) 0.82107(7) 0.54462(18)
H9 H 0.6922 0.8452 0.5817
C11 C 0.58717(16) 0.75136(6) 0.54189(17)
C12 C 0.73314(17) 0.70263(6) 0.59332(19)
loop_
_geom_bond_atom_site_label_1
_geom_bond_atom_site_label_2
_geom_bond_site_symmetry_1
_geom_bond_site_symmetry_2
O1 C5 1_555 1_555
O2 C12 1_555 1_555
N1 C1 1_555 1_555
N2 C1 1_555 1_555
N3 C4 1_555 1_555
C1 H1 1_555 1_555
C2 N1 1_555 1_555
H2 C2 1_555 1_555
C3 N2 1_555 1_555
H3 C3 1_555 1_555
C4 N2 1_555 1_555
H4 C4 1_555 1_555
H5 C4 1_555 1_555
C5 N3 1_555 1_555
C6 C5 1_555 1_555
C7 C6 1_555 1_555
H6 C7 1_555 1_555
C8 C7 1_555 1_555
H7 C8 1_555 1_555
C9 C8 1_555 1_555
H8 C9 1_555 1_555
C10 C9 1_555 1_555
H9 C10 1_555 1_555
C11 C6 1_555 1_555
C12 N3 1_555 1_555
C2 C3 1_555 1_555
C10 C11 1_555 1_555
C11 C12 1_555 1_555

#END
