
#######################################################################
#
#                 Cambridge Crystallographic Data Centre
#                                CCDC 
#
#######################################################################
#
# If this CIF has been generated from an entry in the Cambridge 
# Structural Database, then it will include bibliographic, chemical, 
# crystal, experimental, refinement or atomic coordinate data resulting 
# from the CCDC's data processing and validation procedures.
#
#######################################################################

data_HOFLUJ
_chemical_formula_moiety         'C24 H24 N2 O1'
_chemical_name_systematic        
1-Acetyl-1,2,3,4-tetrahydro-4-methyl-2,4-diphenyl-5H-1,5-benzodiazepine
_symmetry_cell_setting           orthorhombic
_symmetry_space_group_name_H-M   'P n a 21'
_symmetry_Int_Tables_number      33
_space_group_name_Hall           'P 2c -2n'
loop_
_symmetry_equiv_pos_site_id
_symmetry_equiv_pos_as_xyz
1 x,y,z
2 -x,-y,1/2+z
3 1/2-x,1/2+y,1/2+z
4 1/2+x,1/2-y,z
_cell_length_a                   20.9990(10)
_cell_length_b                   14.3970(5)
_cell_length_c                   12.648(4)
_cell_angle_alpha                90
_cell_angle_beta                 90
_cell_angle_gamma                90
_cell_volume                     3823.78
_exptl_crystal_colour            colorless
_exptl_crystal_description       cubic
_cell_formula_units_Z            8
_exptl_crystal_recrystallization_method ethanol
loop_
_atom_site_label
_atom_site_type_symbol
_atom_site_fract_x
_atom_site_fract_y
_atom_site_fract_z
O1 O 0.29266(9) 0.40090(12) 0.18226(17)
N1 N 0.27057(9) 0.51230(12) 0.30250(15)
C1 C 0.20775(10) 0.47036(14) 0.32230(19)
H1 H 0.1962 0.4332 0.2583
C2 C 0.15669(10) 0.54564(14) 0.33587(18)
H2 H 0.1146 0.5147 0.3393
H3 H 0.1638 0.5766 0.4048
C3 C 0.15364(10) 0.62088(15) 0.25007(18)
N2 N 0.21041(10) 0.68285(15) 0.25653(18)
H4 H 0.1981(13) 0.741(2) 0.243(3)
C4 C 0.27617(13) 0.75797(16) 0.3885(2)
H5 H 0.2556 0.8154 0.3741
C5 C 0.32503(13) 0.75557(18) 0.4615(2)
H6 H 0.3379 0.8112 0.4958
C6 C 0.35558(12) 0.67216(18) 0.4852(2)
H7 H 0.3891 0.6702 0.5355
C7 C 0.33602(11) 0.59251(16) 0.4341(2)
H8 H 0.3559 0.5351 0.4508
C8 C 0.25624(10) 0.67834(15) 0.3353(2)
C9 C 0.28796(10) 0.59454(14) 0.35892(18)
C10 C 0.20711(9) 0.40482(14) 0.41622(18)
C11 C 0.19290(11) 0.31127(15) 0.4005(2)
H9 H 0.1877 0.2883 0.3306
C12 C 0.18617(12) 0.25126(17) 0.4854(2)
H10 H 0.1758 0.1879 0.4735
C13 C 0.19451(12) 0.28338(18) 0.5873(2)
H11 H 0.1889 0.2426 0.6456
C14 C 0.21113(11) 0.37580(17) 0.6044(2)
H12 H 0.2183 0.3979 0.6742
C15 C 0.21718(11) 0.43538(16) 0.5185(2)
H13 H 0.2285 0.4984 0.5304
C16 C 0.09477(11) 0.68021(16) 0.2728(2)
C17 C 0.04222(13) 0.6819(2) 0.2062(3)
H14 H 0.0420 0.6455 0.1436
C18 C -0.01005(16) 0.7368(3) 0.2313(4)
H15 H -0.0455 0.7384 0.1846
C19 C -0.0115(2) 0.7880(3) 0.3208(5)
H16 H -0.0477 0.8250 0.3369
C20 C 0.0397(2) 0.7863(3) 0.3884(4)
H17 H 0.0386 0.8215 0.4519
C21 C 0.09265(16) 0.73351(18) 0.3644(2)
H18 H 0.1281 0.7336 0.4110
C22 C 0.15280(13) 0.57810(19) 0.1401(2)
H19 H 0.1173 0.5341 0.1348
H20 H 0.1930 0.5454 0.1275
H21 H 0.1475 0.6272 0.0872
C23 C 0.30877(11) 0.47252(16) 0.2275(2)
C24 C 0.36951(13) 0.52112(19) 0.1992(3)
H22 H 0.4009 0.5114 0.2554
H23 H 0.3613 0.5878 0.1912
H24 H 0.3860 0.4960 0.1326
O2 O 0.50388(9) 0.31192(12) 0.16970(15)
N3 N 0.47017(9) 0.21811(12) 0.30236(15)
C25 C 0.41336(10) 0.27547(14) 0.32417(18)
H25 H 0.4053 0.3154 0.2609
C26 C 0.35567(10) 0.21266(14) 0.33935(17)
H26 H 0.3172 0.2523 0.3427
H27 H 0.3599 0.1813 0.4086
C27 C 0.34460(11) 0.13744(15) 0.25399(19)
N4 N 0.39486(10) 0.06400(14) 0.25815(19)
H28 H 0.3789(15) 0.010(2) 0.246(2)
C28 C 0.45212(16) -0.02553(19) 0.3926(3)
H29 H 0.4278 -0.0793 0.3763
C29 C 0.49870(18) -0.0305(3) 0.4682(3)
H30 H 0.5072 -0.0881 0.5019
C30 C 0.53339(15) 0.0470(3) 0.4960(3)
H31 H 0.5644 0.0436 0.5506
C31 C 0.52250(12) 0.1307(2) 0.4430(2)
H32 H 0.5460 0.1846 0.4619
C32 C 0.43977(12) 0.05809(15) 0.3386(2)
C33 C 0.47800(11) 0.13516(16) 0.3637(2)
C34 C 0.42569(10) 0.33947(15) 0.41870(19)
C35 C 0.38730(12) 0.34248(15) 0.5068(2)
H33 H 0.3501 0.3050 0.5094
C36 C 0.40208(13) 0.39972(16) 0.5924(2)
H34 H 0.3755 0.3999 0.6532
C37 C 0.45503(13) 0.45594(17) 0.5890(2)
H35 H 0.4654 0.4945 0.6475
C38 C 0.49285(13) 0.4559(2) 0.5002(3)
H36 H 0.5288 0.4958 0.4966
C39 C 0.47857(12) 0.39772(19) 0.4156(2)
H37 H 0.5053 0.3978 0.3550
C40 C 0.28045(11) 0.09322(15) 0.2825(2)
C41 C 0.22430(12) 0.11293(17) 0.2271(2)
H38 H 0.2259 0.1528 0.1674
C42 C 0.16649(13) 0.07535(19) 0.2578(2)
H39 H 0.1290 0.0893 0.2188
C43 C 0.16298(13) 0.01765(18) 0.3451(2)
H40 H 0.1233 -0.0082 0.3660
C44 C 0.21756(13) -0.00198(17) 0.4013(2)
H41 H 0.2153 -0.0412 0.4616
C45 C 0.27579(12) 0.03478(16) 0.3709(2)
H42 H 0.3129 0.0202 0.4104
C46 C 0.34532(13) 0.17965(18) 0.1435(2)
H43 H 0.3146 0.2308 0.1401
H44 H 0.3337 0.1320 0.0916
H45 H 0.3881 0.2032 0.1278
C47 C 0.50963(11) 0.23981(17) 0.22083(19)
C48 C 0.56054(12) 0.16963(19) 0.1942(2)
H46 H 0.5414 0.1078 0.1887
H47 H 0.5929 0.1694 0.2500
H48 H 0.5804 0.1862 0.1266
loop_
_geom_bond_atom_site_label_1
_geom_bond_atom_site_label_2
_geom_bond_site_symmetry_1
_geom_bond_site_symmetry_2
O1 C23 1_555 1_555
N1 C1 1_555 1_555
C1 H1 1_555 1_555
C2 C1 1_555 1_555
H2 C2 1_555 1_555
H3 C2 1_555 1_555
C3 C2 1_555 1_555
N2 C3 1_555 1_555
H4 N2 1_555 1_555
C4 H5 1_555 1_555
C5 C4 1_555 1_555
H6 C5 1_555 1_555
C6 C5 1_555 1_555
H7 C6 1_555 1_555
C7 C6 1_555 1_555
H8 C7 1_555 1_555
C8 N2 1_555 1_555
C9 N1 1_555 1_555
C10 C1 1_555 1_555
C11 C10 1_555 1_555
H9 C11 1_555 1_555
C12 C11 1_555 1_555
H10 C12 1_555 1_555
C13 C12 1_555 1_555
H11 C13 1_555 1_555
C14 C13 1_555 1_555
H12 C14 1_555 1_555
C15 C10 1_555 1_555
H13 C15 1_555 1_555
C16 C3 1_555 1_555
C17 C16 1_555 1_555
H14 C17 1_555 1_555
C18 C17 1_555 1_555
H15 C18 1_555 1_555
C19 C18 1_555 1_555
H16 C19 1_555 1_555
C20 C19 1_555 1_555
H17 C20 1_555 1_555
C21 C16 1_555 1_555
H18 C21 1_555 1_555
C22 C3 1_555 1_555
H19 C22 1_555 1_555
H20 C22 1_555 1_555
H21 C22 1_555 1_555
C23 N1 1_555 1_555
C24 C23 1_555 1_555
H22 C24 1_555 1_555
H23 C24 1_555 1_555
H24 C24 1_555 1_555
O2 C47 1_555 1_555
N3 C25 1_555 1_555
C25 H25 1_555 1_555
C26 C25 1_555 1_555
H26 C26 1_555 1_555
H27 C26 1_555 1_555
C27 C26 1_555 1_555
N4 C27 1_555 1_555
H28 N4 1_555 1_555
C28 H29 1_555 1_555
C29 C28 1_555 1_555
H30 C29 1_555 1_555
C30 C29 1_555 1_555
H31 C30 1_555 1_555
C31 C30 1_555 1_555
H32 C31 1_555 1_555
C32 N4 1_555 1_555
C33 N3 1_555 1_555
C34 C25 1_555 1_555
C35 C34 1_555 1_555
H33 C35 1_555 1_555
C36 C35 1_555 1_555
H34 C36 1_555 1_555
C37 C36 1_555 1_555
H35 C37 1_555 1_555
C38 C37 1_555 1_555
H36 C38 1_555 1_555
C39 C34 1_555 1_555
H37 C39 1_555 1_555
C40 C27 1_555 1_555
C41 C40 1_555 1_555
H38 C41 1_555 1_555
C42 C41 1_555 1_555
H39 C42 1_555 1_555
C43 C42 1_555 1_555
H40 C43 1_555 1_555
C44 C43 1_555 1_555
H41 C44 1_555 1_555
C45 C40 1_555 1_555
H42 C45 1_555 1_555
C46 C27 1_555 1_555
H43 C46 1_555 1_555
H44 C46 1_555 1_555
H45 C46 1_555 1_555
C47 N3 1_555 1_555
C48 C47 1_555 1_555
H46 C48 1_555 1_555
H47 C48 1_555 1_555
H48 C48 1_555 1_555
C4 C8 1_555 1_555
C7 C9 1_555 1_555
C8 C9 1_555 1_555
C14 C15 1_555 1_555
C20 C21 1_555 1_555
C28 C32 1_555 1_555
C31 C33 1_555 1_555
C32 C33 1_555 1_555
C38 C39 1_555 1_555
C44 C45 1_555 1_555

#END
