
#######################################################################
#
#                 Cambridge Crystallographic Data Centre
#                                CCDC 
#
#######################################################################
#
# If this CIF has been generated from an entry in the Cambridge 
# Structural Database, then it will include bibliographic, chemical, 
# crystal, experimental, refinement or atomic coordinate data resulting 
# from the CCDC's data processing and validation procedures.
#
#######################################################################

data_HOFLET
_chemical_formula_moiety         'C22 H20 O2'
_chemical_name_systematic        
3,4,5,6-Tetrahydro-2H-naphtho(1,2-b)pyran-2-spiro-2'-1',2',3',4'-tetrahydronaphthalen-1'-one
_symmetry_cell_setting           monoclinic
_symmetry_space_group_name_H-M   'P 21/c'
_symmetry_Int_Tables_number      14
_space_group_name_Hall           '-P 2ybc'
loop_
_symmetry_equiv_pos_site_id
_symmetry_equiv_pos_as_xyz
1 x,y,z
2 -x,1/2+y,1/2-z
3 -x,-y,-z
4 x,1/2-y,1/2+z
_cell_length_a                   8.0204(5)
_cell_length_b                   9.0398(10)
_cell_length_c                   22.5974(15)
_cell_angle_alpha                90
_cell_angle_beta                 96.362(6)
_cell_angle_gamma                90
_cell_volume                     1628.29
_exptl_crystal_colour            colorless
_exptl_crystal_description       block
_chemical_melting_point          383K
_cell_formula_units_Z            4
_exptl_crystal_recrystallization_method 'diethyl ether/methanol'
loop_
_atom_site_label
_atom_site_type_symbol
_atom_site_fract_x
_atom_site_fract_y
_atom_site_fract_z
O1 O 0.93998(10) 0.11672(9) 0.42103(4)
O2 O 1.16039(11) 0.42681(10) 0.41518(4)
C1 C 1.03233(15) 0.05412(13) 0.37926(5)
C2 C 1.20008(15) 0.04942(14) 0.38453(6)
C3 C 1.30536(16) 0.11863(15) 0.43617(6)
H1 H 1.3653 0.2050 0.4219
H2 H 1.3905 0.0463 0.4529
C4 C 1.20117(16) 0.16878(15) 0.48531(6)
H3 H 1.1894 0.0850 0.5128
H4 H 1.2616 0.2492 0.5085
C5 C 1.02731(15) 0.22356(14) 0.46115(5)
C6 C 1.03035(15) 0.36924(14) 0.42649(5)
C7 C 0.86387(15) 0.43971(14) 0.40878(5)
C8 C 0.85145(16) 0.54972(15) 0.36501(6)
H5 H 0.9469 0.5743 0.3456
C9 C 0.70163(17) 0.62292(15) 0.34978(6)
H6 H 0.6934 0.6973 0.3199
C10 C 0.56263(17) 0.58627(15) 0.37882(6)
H7 H 0.4592 0.6363 0.3687
C11 C 0.57413(16) 0.47767(14) 0.42222(6)
H8 H 0.4782 0.4541 0.4416
C12 C 0.72425(15) 0.40204(13) 0.43809(5)
C13 C 0.73457(16) 0.28338(14) 0.48515(6)
H9 H 0.6800 0.1926 0.4679
H10 H 0.6716 0.3162 0.5181
C14 C 0.91406(16) 0.24671(14) 0.51027(5)
H11 H 0.9140 0.1558 0.5347
H12 H 0.9593 0.3284 0.5365
C15 C 1.28560(16) -0.01940(16) 0.33515(6)
H13 H 1.3970 -0.0574 0.3516
H14 H 1.3031 0.0570 0.3051
C16 C 1.18195(17) -0.14569(16) 0.30533(6)
H15 H 1.2316 -0.1773 0.2692
H16 H 1.1850 -0.2311 0.3329
C17 C 1.00200(16) -0.09942(14) 0.28842(6)
C18 C 0.90823(17) -0.14942(16) 0.23703(6)
H17 H 0.9581 -0.2143 0.2110
C19 C 0.74217(18) -0.10581(15) 0.22319(6)
H18 H 0.6798 -0.1394 0.1875
C20 C 0.66797(16) -0.01311(15) 0.26159(6)
H19 H 0.5542 0.0159 0.2524
C21 C 0.75960(15) 0.03747(14) 0.31343(5)
H20 H 0.7080 0.1004 0.3397
C22 C 0.92715(15) -0.00387(13) 0.32699(5)
loop_
_geom_bond_atom_site_label_1
_geom_bond_atom_site_label_2
_geom_bond_site_symmetry_1
_geom_bond_site_symmetry_2
O1 C1 1_555 1_555
O2 C6 1_555 1_555
C1 C2 1_555 1_555
C2 C3 1_555 1_555
C3 H1 1_555 1_555
H2 C3 1_555 1_555
C4 C3 1_555 1_555
H3 C4 1_555 1_555
H4 C4 1_555 1_555
C5 O1 1_555 1_555
C6 C5 1_555 1_555
C7 C6 1_555 1_555
C8 C7 1_555 1_555
H5 C8 1_555 1_555
C9 C8 1_555 1_555
H6 C9 1_555 1_555
C10 C9 1_555 1_555
H7 C10 1_555 1_555
C11 C10 1_555 1_555
H8 C11 1_555 1_555
C12 C7 1_555 1_555
C13 C12 1_555 1_555
H9 C13 1_555 1_555
H10 C13 1_555 1_555
C14 C5 1_555 1_555
H11 C14 1_555 1_555
H12 C14 1_555 1_555
C15 C2 1_555 1_555
H13 C15 1_555 1_555
H14 C15 1_555 1_555
C16 C15 1_555 1_555
H15 C16 1_555 1_555
H16 C16 1_555 1_555
C17 C16 1_555 1_555
C18 C17 1_555 1_555
H17 C18 1_555 1_555
C19 C18 1_555 1_555
H18 C19 1_555 1_555
C20 C19 1_555 1_555
H19 C20 1_555 1_555
C21 C20 1_555 1_555
H20 C21 1_555 1_555
C22 C1 1_555 1_555
C4 C5 1_555 1_555
C11 C12 1_555 1_555
C13 C14 1_555 1_555
C17 C22 1_555 1_555
C21 C22 1_555 1_555

#END
