
#######################################################################
#
#                 Cambridge Crystallographic Data Centre
#                                CCDC 
#
#######################################################################
#
# If this CIF has been generated from an entry in the Cambridge 
# Structural Database, then it will include bibliographic, chemical, 
# crystal, experimental, refinement or atomic coordinate data resulting 
# from the CCDC's data processing and validation procedures.
#
#######################################################################

data_HOFPEY
_chemical_formula_moiety         'C15 H10 N4 O2'
_chemical_name_systematic        
N-(1H-1,2,3-Benzotriazol-1-ylmethyl)phthalimide
_symmetry_cell_setting           triclinic
_symmetry_space_group_name_H-M   'P -1'
_symmetry_Int_Tables_number      2
_space_group_name_Hall           '-P 1'
loop_
_symmetry_equiv_pos_site_id
_symmetry_equiv_pos_as_xyz
1 x,y,z
2 -x,-y,-z
_cell_length_a                   6.9481(11)
_cell_length_b                   8.0041(13)
_cell_length_c                   12.030(2)
_cell_angle_alpha                85.715(3)
_cell_angle_beta                 81.283(3)
_cell_angle_gamma                73.398(3)
_cell_volume                     633.383
_exptl_crystal_colour            colorless
_exptl_crystal_description       block
_cell_formula_units_Z            2
_exptl_crystal_recrystallization_method 'anhydrous acetone'
loop_
_atom_site_label
_atom_site_type_symbol
_atom_site_fract_x
_atom_site_fract_y
_atom_site_fract_z
O1 O 0.2735(2) 0.98906(15) 0.49784(11)
O2 O 0.2515(2) 1.39679(17) 0.74744(10)
N1 N 0.0501(2) 1.05193(18) 0.79484(11)
N2 N -0.0680(3) 0.9651(2) 0.75689(14)
N3 N -0.2433(3) 1.0032(2) 0.81950(15)
N4 N 0.2525(2) 1.16565(17) 0.64463(11)
C1 C -0.2400(3) 1.1155(3) 0.89974(16)
C2 C -0.3877(3) 1.1919(3) 0.9873(2)
H1 H -0.5150 1.1724 0.9984
C3 C -0.3374(4) 1.2959(3) 1.0557(2)
H2 H -0.4333 1.3491 1.1145
C4 C -0.1461(4) 1.3255(3) 1.04057(17)
H3 H -0.1176 1.3961 1.0902
C5 C -0.0002(3) 1.2536(2) 0.95475(15)
H4 H 0.1265 1.2742 0.9437
C6 C -0.0523(3) 1.1476(2) 0.88493(14)
C7 C 0.2508(3) 1.0372(2) 0.73567(15)
H5 H 0.3062 0.9215 0.7056
H6 H 0.3375 1.0507 0.7884
C8 C 0.2638(2) 1.1293(2) 0.53142(14)
C9 C 0.2639(2) 1.2957(2) 0.46837(14)
C10 C 0.2701(3) 1.3351(2) 0.35476(14)
H7 H 0.2770 1.2515 0.3035
C11 C 0.2658(3) 1.5050(2) 0.32021(15)
H8 H 0.2706 1.5361 0.2440
C12 C 0.2547(3) 1.6289(2) 0.39629(16)
H9 H 0.2528 1.7416 0.3703
C13 C 0.2461(3) 1.5891(2) 0.51025(16)
H10 H 0.2360 1.6732 0.5618
C14 C 0.2534(2) 1.4194(2) 0.54433(13)
C15 C 0.2517(2) 1.3373(2) 0.65864(15)
loop_
_geom_bond_atom_site_label_1
_geom_bond_atom_site_label_2
_geom_bond_site_symmetry_1
_geom_bond_site_symmetry_2
O1 C8 1_555 1_555
O2 C15 1_555 1_555
N1 N2 1_555 1_555
N2 N3 1_555 1_555
N3 C1 1_555 1_555
N4 C7 1_555 1_555
C1 C2 1_555 1_555
C2 H1 1_555 1_555
C3 C2 1_555 1_555
H2 C3 1_555 1_555
C4 C3 1_555 1_555
H3 C4 1_555 1_555
C5 C4 1_555 1_555
H4 C5 1_555 1_555
C6 N1 1_555 1_555
C7 N1 1_555 1_555
H5 C7 1_555 1_555
H6 C7 1_555 1_555
C8 N4 1_555 1_555
C9 C8 1_555 1_555
C10 C9 1_555 1_555
H7 C10 1_555 1_555
C11 C10 1_555 1_555
H8 C11 1_555 1_555
C12 C11 1_555 1_555
H9 C12 1_555 1_555
C13 C12 1_555 1_555
H10 C13 1_555 1_555
C14 C9 1_555 1_555
C15 N4 1_555 1_555
C1 C6 1_555 1_555
C5 C6 1_555 1_555
C13 C14 1_555 1_555
C14 C15 1_555 1_555

#END
