
#######################################################################
#
#                 Cambridge Crystallographic Data Centre
#                                CCDC 
#
#######################################################################
#
# If this CIF has been generated from an entry in the Cambridge 
# Structural Database, then it will include bibliographic, chemical, 
# crystal, experimental, refinement or atomic coordinate data resulting 
# from the CCDC's data processing and validation procedures.
#
#######################################################################

data_HOFQAV
_chemical_formula_moiety         'C21 H18 O3 S1'
_chemical_name_systematic        '(E)-1,2-Diphenylvinyl p-toluenesulfonate'
_symmetry_cell_setting           monoclinic
_symmetry_space_group_name_H-M   'P 21/c'
_symmetry_Int_Tables_number      14
_space_group_name_Hall           '-P 2ybc'
loop_
_symmetry_equiv_pos_site_id
_symmetry_equiv_pos_as_xyz
1 x,y,z
2 -x,1/2+y,1/2-z
3 -x,-y,-z
4 x,1/2-y,1/2+z
_cell_length_a                   19.8000(7)
_cell_length_b                   5.8289(2)
_cell_length_c                   15.5228(7)
_cell_angle_alpha                90
_cell_angle_beta                 97.2226(12)
_cell_angle_gamma                90
_cell_volume                     1777.31
_exptl_crystal_colour            colorless
_exptl_crystal_description       plate
_cell_formula_units_Z            4
_exptl_crystal_recrystallization_method ether/pentane
loop_
_atom_site_label
_atom_site_type_symbol
_atom_site_fract_x
_atom_site_fract_y
_atom_site_fract_z
S1 S 0.18392(2) 0.36995(9) 0.40582(3)
O1 O 0.24688(6) 0.5425(2) 0.41891(8)
O2 O 0.20815(6) 0.1464(2) 0.39044(10)
O3 O 0.14984(6) 0.4139(2) 0.47932(9)
C1 C 0.30475(8) 0.5083(2) 0.37345(12)
C2 C 0.36167(9) 0.4467(3) 0.42212(12)
C3 C 0.43026(8) 0.4338(3) 0.39505(12)
C4 C 0.47282(10) 0.2516(3) 0.42163(13)
C5 C 0.53825(10) 0.2424(3) 0.40017(14)
C6 C 0.56265(9) 0.4158(3) 0.35334(13)
C7 C 0.52180(9) 0.5978(3) 0.32689(13)
C8 C 0.45589(9) 0.6074(3) 0.34753(12)
C9 C 0.29281(8) 0.5511(2) 0.27937(12)
C10 C 0.31048(9) 0.3861(3) 0.22233(12)
C11 C 0.29633(10) 0.4197(3) 0.13398(12)
C12 C 0.26427(10) 0.6160(3) 0.10150(12)
C13 C 0.24713(9) 0.7817(3) 0.15732(13)
C14 C 0.26083(8) 0.7515(3) 0.24614(12)
C15 C 0.13442(8) 0.4713(3) 0.31215(12)
C16 C 0.13277(9) 0.3540(3) 0.23505(12)
C17 C 0.09787(9) 0.4460(3) 0.16026(13)
C18 C 0.06416(9) 0.6543(3) 0.16162(13)
C19 C 0.06504(9) 0.7662(3) 0.24064(16)
C20 C 0.09969(9) 0.6786(3) 0.31559(13)
C21 C 0.02903(12) 0.7611(4) 0.07986(17)
H1 H 0.3579 0.4074 0.4794
H2 H 0.4570 0.1340 0.4543
H3 H 0.5659 0.1178 0.4176
H4 H 0.6070 0.4097 0.3395
H5 H 0.5383 0.7155 0.2949
H6 H 0.4284 0.7320 0.3293
H7 H 0.3320 0.2521 0.2436
H8 H 0.3086 0.3082 0.0960
H9 H 0.2543 0.6363 0.0418
H10 H 0.2261 0.9158 0.1353
H11 H 0.2488 0.8644 0.2837
H12 H 0.1550 0.2138 0.2332
H13 H 0.0970 0.3668 0.1081
H14 H 0.0416 0.9038 0.2429
H15 H 0.1000 0.7564 0.3679
H16 H 0.0549 0.7310 0.0327
H17 H 0.0255 0.9238 0.0878
H18 H -0.0157 0.6967 0.0668
loop_
_geom_bond_atom_site_label_1
_geom_bond_atom_site_label_2
_geom_bond_site_symmetry_1
_geom_bond_site_symmetry_2
S1 O1 1_555 1_555
O1 C1 1_555 1_555
O2 S1 1_555 1_555
O3 S1 1_555 1_555
C1 C2 1_555 1_555
C2 C3 1_555 1_555
C3 C4 1_555 1_555
C4 C5 1_555 1_555
C5 C6 1_555 1_555
C6 C7 1_555 1_555
C7 C8 1_555 1_555
C8 C3 1_555 1_555
C9 C1 1_555 1_555
C10 C9 1_555 1_555
C11 C10 1_555 1_555
C12 C11 1_555 1_555
C13 C12 1_555 1_555
C14 C9 1_555 1_555
C15 S1 1_555 1_555
C16 C15 1_555 1_555
C17 C16 1_555 1_555
C18 C17 1_555 1_555
C19 C18 1_555 1_555
C20 C15 1_555 1_555
C21 C18 1_555 1_555
H1 C2 1_555 1_555
H2 C4 1_555 1_555
H3 C5 1_555 1_555
H4 C6 1_555 1_555
H5 C7 1_555 1_555
H6 C8 1_555 1_555
H7 C10 1_555 1_555
H8 C11 1_555 1_555
H9 C12 1_555 1_555
H10 C13 1_555 1_555
H11 C14 1_555 1_555
H12 C16 1_555 1_555
H13 C17 1_555 1_555
H14 C19 1_555 1_555
H15 C20 1_555 1_555
H16 C21 1_555 1_555
H17 C21 1_555 1_555
H18 C21 1_555 1_555
C13 C14 1_555 1_555
C19 C20 1_555 1_555

#END
