
#######################################################################
#
#                 Cambridge Crystallographic Data Centre
#                                CCDC 
#
#######################################################################
#
# If this CIF has been generated from an entry in the Cambridge 
# Structural Database, then it will include bibliographic, chemical, 
# crystal, experimental, refinement or atomic coordinate data resulting 
# from the CCDC's data processing and validation procedures.
#
#######################################################################

data_HOFREA
_chemical_formula_moiety         'C19 H19 N3 O2'
_chemical_name_systematic        
4-((Ethoxyimino)(phenyl)methyl)-5-methyl-2-phenyl-1H-pyrazol-3(2H)-one
_symmetry_cell_setting           monoclinic
_symmetry_space_group_name_H-M   'P 21/c'
_symmetry_Int_Tables_number      14
_space_group_name_Hall           '-P 2ybc'
loop_
_symmetry_equiv_pos_site_id
_symmetry_equiv_pos_as_xyz
1 x,y,z
2 -x,1/2+y,1/2-z
3 -x,-y,-z
4 x,1/2-y,1/2+z
_cell_length_a                   13.0046(15)
_cell_length_b                   11.4657(11)
_cell_length_c                   11.6874(12)
_cell_angle_alpha                90
_cell_angle_beta                 99.4530(10)
_cell_angle_gamma                90
_cell_volume                     1719.01
_exptl_crystal_colour            colorless
_exptl_crystal_description       prismatic
_chemical_melting_point          '444-445 K'
_cell_formula_units_Z            4
_exptl_crystal_recrystallization_method ethanol
loop_
_atom_site_label
_atom_site_type_symbol
_atom_site_fract_x
_atom_site_fract_y
_atom_site_fract_z
N1 N 0.53222(14) 0.34824(17) -0.06367(17)
N2 N 0.84502(13) 0.23475(16) 0.16076(15)
N3 N 0.78882(13) 0.29323(15) 0.23325(15)
H1 H 0.8064 0.2996 0.3072
O1 O 0.49758(11) 0.28139(15) 0.02320(14)
O2 O 0.82634(12) 0.20296(15) -0.03673(13)
C1 C 0.38665(18) 0.2834(2) 0.0039(3)
H2 H 0.3595 0.2505 -0.0715
H3 H 0.3617 0.3630 0.0061
C2 C 0.3515(2) 0.2130(3) 0.0975(3)
H4 H 0.3776 0.1349 0.0954
H5 H 0.2767 0.2113 0.0859
H6 H 0.3774 0.2474 0.1715
C3 C 0.63196(17) 0.35862(19) -0.04638(19)
C4 C 0.70377(15) 0.31546(19) 0.05486(18)
C5 C 0.79385(17) 0.24753(19) 0.04860(19)
C6 C 0.70309(16) 0.33834(19) 0.17079(19)
C7 C 0.62708(17) 0.4013(2) 0.2301(2)
H7 H 0.5735 0.3484 0.2446
H8 H 0.5964 0.4640 0.1817
H9 H 0.6622 0.4323 0.3023
C8 C 0.67571(18) 0.4228(2) -0.1379(2)
C9 C 0.6212(2) 0.4282(2) -0.2505(2)
H10 H 0.5572 0.3908 -0.2688
C10 C 0.6611(3) 0.4881(3) -0.3347(3)
H11 H 0.6238 0.4914 -0.4097
C11 C 0.7555(3) 0.5432(3) -0.3093(3)
H12 H 0.7823 0.5832 -0.3671
C12 C 0.8107(2) 0.5397(2) -0.1988(3)
H13 H 0.8743 0.5782 -0.1811
C13 C 0.77084(19) 0.4782(2) -0.1138(2)
H14 H 0.8089 0.4743 -0.0393
C14 C 0.94564(15) 0.19033(19) 0.20265(19)
C15 C 0.99788(18) 0.2239(2) 0.3093(2)
H15 H 0.9678 0.2775 0.3535
C16 C 1.09499(19) 0.1782(3) 0.3508(2)
H16 H 1.1296 0.2005 0.4235
C17 C 1.1406(2) 0.1007(3) 0.2862(3)
H17 H 1.2063 0.0706 0.3143
C18 C 1.0891(2) 0.0678(2) 0.1801(3)
H18 H 1.1203 0.0153 0.1358
C19 C 0.99121(17) 0.1113(2) 0.1374(2)
H19 H 0.9564 0.0875 0.0652
loop_
_geom_bond_atom_site_label_1
_geom_bond_atom_site_label_2
_geom_bond_site_symmetry_1
_geom_bond_site_symmetry_2
N1 O1 1_555 1_555
N2 N3 1_555 1_555
N3 H1 1_555 1_555
O1 C1 1_555 1_555
O2 C5 1_555 1_555
C1 H2 1_555 1_555
H3 C1 1_555 1_555
C2 C1 1_555 1_555
H4 C2 1_555 1_555
H5 C2 1_555 1_555
H6 C2 1_555 1_555
C3 N1 1_555 1_555
C4 C3 1_555 1_555
C5 N2 1_555 1_555
C6 N3 1_555 1_555
C7 C6 1_555 1_555
H7 C7 1_555 1_555
H8 C7 1_555 1_555
H9 C7 1_555 1_555
C8 C3 1_555 1_555
C9 C8 1_555 1_555
H10 C9 1_555 1_555
C10 C9 1_555 1_555
H11 C10 1_555 1_555
C11 C10 1_555 1_555
H12 C11 1_555 1_555
C12 C11 1_555 1_555
H13 C12 1_555 1_555
C13 C8 1_555 1_555
H14 C13 1_555 1_555
C14 N2 1_555 1_555
C15 C14 1_555 1_555
H15 C15 1_555 1_555
C16 C15 1_555 1_555
H16 C16 1_555 1_555
C17 C16 1_555 1_555
H17 C17 1_555 1_555
C18 C17 1_555 1_555
H18 C18 1_555 1_555
C19 C14 1_555 1_555
H19 C19 1_555 1_555
C4 C5 1_555 1_555
C4 C6 1_555 1_555
C12 C13 1_555 1_555
C18 C19 1_555 1_555

#END
