
#######################################################################
#
#                 Cambridge Crystallographic Data Centre
#                                CCDC 
#
#######################################################################
#
# If this CIF has been generated from an entry in the Cambridge 
# Structural Database, then it will include bibliographic, chemical, 
# crystal, experimental, refinement or atomic coordinate data resulting 
# from the CCDC's data processing and validation procedures.
#
#######################################################################

data_HOFRIE
_chemical_name_common            
"1,1':6,6'-Dimethylenebis(tetrahydroimidazo(4,5-d)imidazole-2,5(1H,3H)-dione) monohydrate"
_chemical_formula_moiety         'C10 H12 N8 O4,H2 O1'
_chemical_name_systematic        
'1,3,5,7,9,11,13,15-Octaazapentacyclo(9.5.1.1^3,9^.0^6,18^.0^14,17^)octadecane-4,8,12,16-tetrone monohydrate'
_symmetry_cell_setting           orthorhombic
_symmetry_space_group_name_H-M   'P m m n'
_symmetry_Int_Tables_number      59
_space_group_name_Hall           '-P 2ab 2a'
loop_
_symmetry_equiv_pos_site_id
_symmetry_equiv_pos_as_xyz
1 x,y,z
2 1/2-x,1/2-y,z
3 -x,1/2+y,-z
4 1/2+x,-y,-z
5 -x,-y,-z
6 1/2+x,1/2+y,-z
7 x,1/2-y,z
8 1/2-x,y,z
_cell_length_a                   10.292(3)
_cell_length_b                   12.286(4)
_cell_length_c                   4.9530(15)
_cell_angle_alpha                90
_cell_angle_beta                 90
_cell_angle_gamma                90
_cell_volume                     626.295
_exptl_crystal_colour            colorless
_exptl_crystal_description       prism
_cell_formula_units_Z            2
loop_
_atom_site_label
_atom_site_type_symbol
_atom_site_fract_x
_atom_site_fract_y
_atom_site_fract_z
O1 O 0.2500 0.7500 0.5795(5)
H1 H 0.3096 0.7500 0.4574
H1G H 0.1904 0.7500 0.4574
C1 C 0.56573(14) 0.59339(12) 0.2017(3)
C2 C 0.7500 0.49067(16) 0.0938(4)
H2 H 0.7500 0.4252 -0.0191
C3 C 0.7500 0.59750(16) -0.0774(4)
H3 H 0.7500 0.5819 -0.2714
C4 C 0.5795(2) 0.7500 -0.1105(4)
H4 H 0.5977 0.7500 -0.3027
H5 H 0.4859 0.7500 -0.0883
N1 N 0.63278(12) 0.50102(10) 0.2503(3)
H6 H 0.6077 0.4527 0.3646
N2 N 0.63117(12) 0.65109(9) 0.0058(2)
O2 O 0.46406(10) 0.62196(9) 0.3073(2)
C1F C 0.56573(14) 0.90661(12) 0.2017(3)
C1A C 0.93427(14) 0.90661(12) 0.2017(3)
C1G C 0.93427(14) 0.59339(12) 0.2017(3)
C2F C 0.7500 1.00933(16) 0.0938(4)
H2F H 0.7500 1.0748 -0.0191
C3F C 0.7500 0.90250(16) -0.0774(4)
H3F H 0.7500 0.9181 -0.2714
C4G C 0.9205(2) 0.7500 -0.1105(4)
H4G H 0.9023 0.7500 -0.3027
H5G H 1.0141 0.7500 -0.0883
N1F N 0.63278(12) 0.99898(10) 0.2503(3)
N1A N 0.86722(12) 0.99898(10) 0.2503(3)
N1G N 0.86722(12) 0.50102(10) 0.2503(3)
H6A H 0.8923 1.0473 0.3646
H6G H 0.8923 0.4527 0.3646
H6F H 0.6077 1.0473 0.3646
N2F N 0.63117(12) 0.84891(9) 0.0058(2)
N2A N 0.86883(12) 0.84891(9) 0.0058(2)
N2G N 0.86883(12) 0.65109(9) 0.0058(2)
O2A O 1.03594(10) 0.87804(9) 0.3073(2)
O2G O 1.03594(10) 0.62196(9) 0.3073(2)
O2F O 0.46406(10) 0.87804(9) 0.3073(2)
loop_
_geom_bond_atom_site_label_1
_geom_bond_atom_site_label_2
_geom_bond_site_symmetry_1
_geom_bond_site_symmetry_2
O1 H1 1_555 1_555
C1 N1 1_555 1_555
C2 H2 1_555 1_555
C3 C2 1_555 1_555
H3 C3 1_555 1_555
C4 H4 1_555 1_555
H5 C4 1_555 1_555
N1 C2 1_555 1_555
H6 N1 1_555 1_555
N2 C1 1_555 1_555
O2 C1 1_555 1_555
H1G O1 1_555 1_555
C1F N1F 1_555 1_555
C1A N1A 1_555 1_555
C1G N1G 1_555 1_555
C2F H2F 1_555 1_555
C3F C2F 1_555 1_555
H3F C3F 1_555 1_555
C4G H4G 1_555 1_555
H5G C4G 1_555 1_555
N1F C2F 1_555 1_555
N1A C2F 1_555 1_555
N1G C2 1_555 1_555
H6A N1A 1_555 1_555
H6G N1G 1_555 1_555
H6F N1F 1_555 1_555
N2F C4 1_555 1_555
N2A C1A 1_555 1_555
N2G C3 1_555 1_555
O2A C1A 1_555 1_555
O2G C1G 1_555 1_555
O2F C1F 1_555 1_555
C3 N2 1_555 1_555
C4 N2 1_555 1_555
C1F N2F 1_555 1_555
C1G N2G 1_555 1_555
C3F N2F 1_555 1_555
C3F N2A 1_555 1_555
C4G N2A 1_555 1_555
C4G N2G 1_555 1_555

#END
