
#######################################################################
#
#                 Cambridge Crystallographic Data Centre
#                                CCDC 
#
#######################################################################
#
# If this CIF has been generated from an entry in the Cambridge 
# Structural Database, then it will include bibliographic, chemical, 
# crystal, experimental, refinement or atomic coordinate data resulting 
# from the CCDC's data processing and validation procedures.
#
#######################################################################

data_HOGBOW
_chemical_formula_moiety         'C12 H10 N2 Se2'
_chemical_name_systematic        
2,5-Diethyl-7,8-diselenabicyclo[4.2.0]octa-1,3,5-triene-3,4-dicarbonitrile
_symmetry_cell_setting           triclinic
_symmetry_space_group_name_H-M   'P 1'
_symmetry_Int_Tables_number      1
_space_group_name_Hall           'P 1'
loop_
_symmetry_equiv_pos_site_id
_symmetry_equiv_pos_as_xyz
1 x,y,z
_cell_length_a                   5.205(3)
_cell_length_b                   6.870(4)
_cell_length_c                   8.803(5)
_cell_angle_alpha                106.190(7)
_cell_angle_beta                 91.612(7)
_cell_angle_gamma                103.098(6)
_cell_volume                     293.026
_exptl_crystal_colour            red
_exptl_crystal_description       platelet
_cell_formula_units_Z            1
loop_
_atom_site_label
_atom_site_type_symbol
_atom_site_fract_x
_atom_site_fract_y
_atom_site_fract_z
Se1 Se 0.99333(5) -0.01178(4) -0.00188(4)
Se2 Se 0.94268(6) 0.11175(5) 0.27290(4)
N1 N 0.3306(10) 0.5718(7) -0.2346(7)
N2 N 0.2401(9) 0.7668(7) 0.2096(6)
C1 C 0.7975(9) 0.1969(7) 0.0159(6)
C2 C 0.7670(9) 0.2672(7) 0.1752(5)
C3 C 0.6266(10) 0.4180(7) 0.2378(6)
C4 C 0.5197(11) 0.4949(8) 0.1233(6)
C5 C 0.5553(9) 0.4245(7) -0.0398(6)
C6 C 0.6969(10) 0.2716(7) -0.1004(6)
C7 C 0.7272(11) 0.1917(7) -0.2728(6)
C8 C 0.4735(17) 0.0409(11) -0.3690(9)
C9 C 0.5994(10) 0.4935(7) 0.4132(7)
C10 C 0.8491(10) 0.6482(7) 0.5056(6)
C11 C 0.4329(11) 0.5084(8) -0.1479(6)
C12 C 0.3661(13) 0.6455(9) 0.1725(7)
H1 H 0.8725 0.1188 -0.2855
H2 H 0.7782 0.3116 -0.3164
H3 H 0.4155 -0.0739 -0.3224
H4 H 0.5093 -0.0157 -0.4792
H5 H 0.3339 0.1161 -0.3666
H6 H 0.5586 0.3719 0.4556
H7 H 0.4491 0.5608 0.4291
H8 H 1.0010 0.5858 0.4843
H9 H 0.8280 0.6827 0.6196
H10 H 0.8793 0.7757 0.4724
loop_
_geom_bond_atom_site_label_1
_geom_bond_atom_site_label_2
_geom_bond_site_symmetry_1
_geom_bond_site_symmetry_2
Se1 Se2 1_555 1_555
Se2 C2 1_555 1_555
N1 C11 1_555 1_555
N2 C12 1_555 1_555
C1 Se1 1_555 1_555
C2 C1 1_555 1_555
C3 C2 1_555 1_555
C4 C3 1_555 1_555
C5 C4 1_555 1_555
C6 C1 1_555 1_555
C7 C6 1_555 1_555
C8 C7 1_555 1_555
C9 C3 1_555 1_555
C10 C9 1_555 1_555
C11 C5 1_555 1_555
C12 C4 1_555 1_555
H1 C7 1_555 1_555
H2 C7 1_555 1_555
H3 C8 1_555 1_555
H4 C8 1_555 1_555
H5 C8 1_555 1_555
H6 C9 1_555 1_555
H7 C9 1_555 1_555
H8 C10 1_555 1_555
H9 C10 1_555 1_555
H10 C10 1_555 1_555
C5 C6 1_555 1_555

#END
