
#######################################################################
#
#                 Cambridge Crystallographic Data Centre
#                                CCDC 
#
#######################################################################
#
# If this CIF has been generated from an entry in the Cambridge 
# Structural Database, then it will include bibliographic, chemical, 
# crystal, experimental, refinement or atomic coordinate data resulting 
# from the CCDC's data processing and validation procedures.
#
#######################################################################

data_HOGFIU01
_chemical_formula_moiety         '2(C6 H6 N2 O1),C4 H6 O4'
_chemical_name_systematic        'bis(pyridine-2-carboxamide) succinic acid'
_symmetry_cell_setting           monoclinic
_symmetry_space_group_name_H-M   'C 2/c'
_symmetry_Int_Tables_number      15
_space_group_name_Hall           '-C 2yn'
loop_
_symmetry_equiv_pos_site_id
_symmetry_equiv_pos_as_xyz
1 x,y,z
2 -x,y,1/2-z
3 1/2+x,1/2+y,z
4 1/2-x,1/2+y,1/2-z
5 -x,-y,-z
6 x,-y,1/2+z
7 1/2-x,1/2-y,-z
8 1/2+x,1/2-y,1/2+z
_cell_length_a                   33.031(7)
_cell_length_b                   5.1365(10)
_cell_length_c                   21.168(4)
_cell_angle_alpha                90
_cell_angle_beta                 106.34(3)
_cell_angle_gamma                90
_cell_volume                     3446.38
_cell_formula_units_Z            8
loop_
_atom_site_label
_atom_site_type_symbol
_atom_site_fract_x
_atom_site_fract_y
_atom_site_fract_z
O1 O 0.10489(4) 0.0576(3) 0.19847(6)
C1 C 0.15671(5) 0.3738(3) 0.24870(8)
C2 C 0.12670(5) 0.1566(3) 0.25049(8)
N1 N 0.17783(5) 0.4746(3) 0.30704(7)
N2 N 0.12449(5) 0.0866(3) 0.30932(7)
H1 H 0.1072 -0.0337 0.3132
H2 H 0.1403 0.1613 0.3439
C3 C 0.16099(6) 0.4614(4) 0.18938(8)
H3 H 0.1461 0.3838 0.1500
C4 C 0.18804(6) 0.6681(4) 0.18972(9)
H4 H 0.1914 0.7335 0.1505
C5 C 0.20961(6) 0.7735(4) 0.24877(9)
H5 H 0.2281 0.9118 0.2505
C6 C 0.20373(6) 0.6725(4) 0.30588(9)
H6 H 0.2186 0.7464 0.3457
O2 O 0.15285(4) 0.4592(3) 0.53361(5)
N3 N 0.06568(5) 0.1463(3) 0.42285(7)
N4 N 0.12112(5) 0.5344(3) 0.42609(7)
H7 H 0.1386 0.6563 0.4242
H8 H 0.1012 0.4937 0.3916
C7 C 0.12482(5) 0.4100(3) 0.48192(8)
C8 C 0.09344(5) 0.1974(3) 0.48133(8)
C9 C 0.09419(5) 0.0669(4) 0.53850(8)
H9 H 0.1139 0.1094 0.5780
C10 C 0.03661(6) -0.1852(4) 0.47613(10)
H10 H 0.0168 -0.3169 0.4727
C11 C 0.03803(6) -0.0436(4) 0.42154(9)
H11 H 0.0186 -0.0828 0.3815
C12 C 0.06496(6) -0.1289(4) 0.53589(10)
H12 H 0.0645 -0.2203 0.5736
O3 O 0.18863(4) 0.9520(3) 0.45340(6)
O4 O 0.20733(4) 0.8418(3) 0.55917(6)
H13 H 0.1888 0.7320 0.5461
C13 C 0.21129(5) 0.9799(3) 0.50893(8)
C14 C 0.24679(5) 1.1729(4) 0.52857(8)
H14 H 0.2727 1.0806 0.5498
H15 H 0.2411 1.2927 0.5605
O3F O 0.31137(4) 1.5480(3) 0.54660(6)
O4F O 0.29267(4) 1.6582(3) 0.44083(6)
H13F H 0.3112 1.7680 0.4539
C13F C 0.28871(5) 1.5201(3) 0.49107(8)
C14F C 0.25321(5) 1.3271(4) 0.47143(8)
H14F H 0.2273 1.4194 0.4502
H15F H 0.2589 1.2073 0.4395
O5 O 0.05362(4) -0.3439(3) 0.18261(6)
H16 H 0.0709 -0.2253 0.1917
O6 O 0.05795(5) -0.3111(3) 0.28860(7)
C15 C 0.01263(5) -0.6357(4) 0.22522(10)
H17 H 0.0279 -0.7988 0.2284
H18 H -0.0065 -0.6240 0.1812
C16 C 0.04344(5) -0.4143(3) 0.23571(9)
O5A O -0.05362(4) -0.3439(3) 0.31739(6)
H16A H -0.0709 -0.2253 0.3083
O6A O -0.05795(5) -0.3111(3) 0.21140(7)
C15A C -0.01263(5) -0.6357(4) 0.27478(10)
H17A H -0.0279 -0.7988 0.2716
H18A H 0.0065 -0.6240 0.3188
C16A C -0.04344(5) -0.4143(3) 0.26429(9)
loop_
_geom_bond_atom_site_label_1
_geom_bond_atom_site_label_2
_geom_bond_site_symmetry_1
_geom_bond_site_symmetry_2
O1 C2 1_555 1_555
C1 C2 1_555 1_555
C2 N2 1_555 1_555
N1 C1 1_555 1_555
N2 H1 1_555 1_555
H2 N2 1_555 1_555
C3 C1 1_555 1_555
H3 C3 1_555 1_555
C4 C3 1_555 1_555
H4 C4 1_555 1_555
C5 C4 1_555 1_555
H5 C5 1_555 1_555
C6 N1 1_555 1_555
H6 C6 1_555 1_555
O2 C7 1_555 1_555
N3 C8 1_555 1_555
N4 H7 1_555 1_555
H8 N4 1_555 1_555
C7 N4 1_555 1_555
C8 C7 1_555 1_555
C9 C8 1_555 1_555
H9 C9 1_555 1_555
C10 H10 1_555 1_555
C11 N3 1_555 1_555
H11 C11 1_555 1_555
C12 C9 1_555 1_555
H12 C12 1_555 1_555
O3 C13 1_555 1_555
O4 H13 1_555 1_555
C13 O4 1_555 1_555
C14 C13 1_555 1_555
H14 C14 1_555 1_555
H15 C14 1_555 1_555
O5 H16 1_555 1_555
O6 C16 1_555 1_555
C15 H17 1_555 1_555
H18 C15 1_555 1_555
C16 O5 1_555 1_555
O3F C13F 1_555 1_555
O4F H13F 1_555 1_555
C13F O4F 1_555 1_555
C14F C14 1_555 1_555
H14F C14F 1_555 1_555
H15F C14F 1_555 1_555
O5A H16A 1_555 1_555
O6A C16A 1_555 1_555
C15A C15 1_555 1_555
H17A C15A 1_555 1_555
H18A C15A 1_555 1_555
C16A O5A 1_555 1_555
C5 C6 1_555 1_555
C10 C11 1_555 1_555
C10 C12 1_555 1_555
C15 C16 1_555 1_555
C13F C14F 1_555 1_555
C15A C16A 1_555 1_555

#END
