
#######################################################################
#
#                 Cambridge Crystallographic Data Centre
#                                CCDC 
#
#######################################################################
#
# If this CIF has been generated from an entry in the Cambridge 
# Structural Database, then it will include bibliographic, chemical, 
# crystal, experimental, refinement or atomic coordinate data resulting 
# from the CCDC's data processing and validation procedures.
#
#######################################################################

data_HOGHIW
_chemical_formula_moiety         'C26 H38 O7 S2 2-,C1 H4 O1,2(H4 N1 1+)'
_chemical_name_systematic        
'Ammonium 7-(hexadecyloxy)naphthalene-1,3-disulfonate methanol solvate'
_symmetry_cell_setting           triclinic
_symmetry_space_group_name_H-M   'P -1'
_symmetry_Int_Tables_number      2
_space_group_name_Hall           '-P 1'
loop_
_symmetry_equiv_pos_site_id
_symmetry_equiv_pos_as_xyz
1 x,y,z
2 -x,-y,-z
_cell_length_a                   6.53547(18)
_cell_length_b                   9.4651(4)
_cell_length_c                   26.1930(10)
_cell_angle_alpha                83.956(3)
_cell_angle_beta                 84.790(3)
_cell_angle_gamma                89.716(3)
_cell_volume                     1604.59
_exptl_crystal_colour            colorless
_exptl_crystal_description       needle
_cell_formula_units_Z            2
loop_
_atom_site_label
_atom_site_type_symbol
_atom_site_fract_x
_atom_site_fract_y
_atom_site_fract_z
S1 S 0.14874(4) 0.57815(3) 0.063257(12)
S2 S 0.68937(5) 0.98768(3) 0.094720(12)
O1 O -0.03505(18) 0.53447(16) 0.09543(5)
O2 O 0.25737(17) 0.45957(11) 0.04206(5)
O3 O 0.11774(17) 0.69189(11) 0.02323(4)
O4 O 0.58973(17) 1.04419(11) 0.04952(4)
O5 O 0.90477(16) 0.95994(12) 0.08174(5)
O6 O 0.65619(19) 1.07493(11) 0.13702(4)
O7 O 1.02950(18) 0.69191(13) 0.25358(5)
C1 C 0.32128(19) 0.64543(14) 0.10342(5)
C2 C 0.41904(19) 0.77685(13) 0.08867(5)
H1 H 0.3798 0.8348 0.0603
C3 C 0.57276(19) 0.82010(13) 0.11603(5)
C4 C 0.64116(19) 0.73197(13) 0.15898(5)
C5 C 0.8087(2) 0.76667(14) 0.18618(5)
H2 H 0.8772 0.8530 0.1776
C6 C 0.8693(2) 0.67219(16) 0.22530(6)
C7 C 0.7658(3) 0.54142(17) 0.23937(6)
H3 H 0.8099 0.4785 0.2658
C8 C 0.6030(3) 0.50707(16) 0.21472(6)
H4 H 0.5345 0.4214 0.2247
C9 C 0.5354(2) 0.60089(14) 0.17354(5)
C10 C 0.3740(2) 0.56089(14) 0.14580(5)
H5 H 0.3029 0.4765 0.1564
C11 C 1.1430(2) 0.82188(17) 0.24233(6)
H6 H 1.0522 0.9023 0.2461
H7 H 1.2065 0.8297 0.2072
C12 C 1.3061(2) 0.82037(19) 0.27997(6)
H8 H 1.3988 0.7417 0.2749
H9 H 1.2411 0.8058 0.3149
C13 C 1.4280(2) 0.95799(19) 0.27307(6)
H10 H 1.3342 1.0364 0.2774
H11 H 1.4940 0.9714 0.2382
C14 C 1.5917(2) 0.96181(19) 0.31097(6)
H12 H 1.5259 0.9478 0.3458
H13 H 1.6862 0.8838 0.3065
C15 C 1.7126(2) 1.09982(19) 0.30426(7)
H14 H 1.6178 1.1778 0.3085
H15 H 1.7785 1.1136 0.2694
C16 C 1.8759(3) 1.10519(19) 0.34201(7)
H16 H 1.8101 1.0916 0.3769
H17 H 1.9708 1.0273 0.3378
C17 C 1.9966(3) 1.24373(19) 0.33508(7)
H18 H 1.9013 1.3214 0.3394
H19 H 2.0614 1.2573 0.3001
C18 C 2.1616(3) 1.25144(19) 0.37231(7)
H20 H 2.0972 1.2405 0.4074
H21 H 2.2563 1.1732 0.3686
C19 C 2.2815(3) 1.3904(2) 0.36338(7)
H22 H 2.1858 1.4685 0.3661
H23 H 2.3483 1.3999 0.3286
C20 C 2.4435(3) 1.4027(2) 0.40095(7)
H24 H 2.3766 1.3937 0.4358
H25 H 2.5388 1.3243 0.3984
C21 C 2.5638(3) 1.5412(2) 0.39179(8)
H26 H 2.6310 1.5499 0.3570
H27 H 2.4682 1.6195 0.3941
C22 C 2.7246(3) 1.5545(2) 0.42923(7)
H28 H 2.6572 1.5469 0.4640
H29 H 2.8193 1.4757 0.4271
C23 C 2.8458(3) 1.6920(2) 0.41974(8)
H30 H 2.7509 1.7707 0.4217
H31 H 2.9135 1.6994 0.3850
C24 C 3.0064(3) 1.7061(2) 0.45720(8)
H32 H 2.9388 1.6984 0.4919
H33 H 3.1016 1.6276 0.4552
C25 C 3.1264(4) 1.8432(3) 0.44777(10)
H34 H 3.1940 1.8508 0.4131
H35 H 3.0311 1.9217 0.4497
C26 C 3.2858(4) 1.8577(3) 0.48491(12)
H36 H 3.2208 1.8499 0.5195
H37 H 3.3522 1.9487 0.4771
H38 H 3.3859 1.7839 0.4818
N1 N -0.34623(19) 0.36324(13) 0.07047(5)
H39 H -0.282(3) 0.3318(19) 0.0414(6)
H40 H -0.359(3) 0.2905(17) 0.0959(6)
H41 H -0.467(2) 0.3995(19) 0.0638(7)
H42 H -0.262(3) 0.4298(17) 0.0807(7)
N2 N -0.18855(18) 0.84449(14) -0.02647(5)
H43 H -0.144(3) 0.8256(19) 0.0036(5)
H44 H -0.199(3) 0.7658(16) -0.0408(7)
H45 H -0.101(2) 0.9022(17) -0.0464(6)
H46 H -0.308(2) 0.8847(19) -0.0235(7)
O8 O 0.2732(4) 1.2123(3) 0.13655(11)
H47 H 0.3504 1.1450 0.1421
C27 C 0.1058(11) 1.2025(12) 0.1743(5)
H48 H 0.1542 1.2081 0.2076
H49 H 0.0361 1.1135 0.1742
H50 H 0.0126 1.2792 0.1670
O9? O 0.3204(11) 1.2280(6) 0.1771(4)
H51? H 0.3965 1.1589 0.1770
C28? C 0.126(2) 1.190(3) 0.1638(11)
H52? H 0.0245 1.2035 0.1917
H53? H 0.1273 1.0926 0.1571
H54? H 0.0941 1.2493 0.1335
loop_
_geom_bond_atom_site_label_1
_geom_bond_atom_site_label_2
_geom_bond_site_symmetry_1
_geom_bond_site_symmetry_2
S1 O1 1_555 1_555
S2 O4 1_555 1_555
O2 S1 1_555 1_555
O3 S1 1_555 1_555
O5 S2 1_555 1_555
O6 S2 1_555 1_555
O7 C6 1_555 1_555
C1 S1 1_555 1_555
C2 C1 1_555 1_555
H1 C2 1_555 1_555
C3 S2 1_555 1_555
C4 C3 1_555 1_555
C5 C4 1_555 1_555
H2 C5 1_555 1_555
C6 C5 1_555 1_555
C7 C6 1_555 1_555
H3 C7 1_555 1_555
C8 C7 1_555 1_555
H4 C8 1_555 1_555
C9 C4 1_555 1_555
C10 C1 1_555 1_555
H5 C10 1_555 1_555
C11 O7 1_555 1_555
H6 C11 1_555 1_555
H7 C11 1_555 1_555
C12 C11 1_555 1_555
H8 C12 1_555 1_555
H9 C12 1_555 1_555
C13 C12 1_555 1_555
H10 C13 1_555 1_555
H11 C13 1_555 1_555
C14 C13 1_555 1_555
H12 C14 1_555 1_555
H13 C14 1_555 1_555
C15 C14 1_555 1_555
H14 C15 1_555 1_555
H15 C15 1_555 1_555
C16 C15 1_555 1_555
H16 C16 1_555 1_555
H17 C16 1_555 1_555
C17 C16 1_555 1_555
H18 C17 1_555 1_555
H19 C17 1_555 1_555
C18 C17 1_555 1_555
H20 C18 1_555 1_555
H21 C18 1_555 1_555
C19 C18 1_555 1_555
H22 C19 1_555 1_555
H23 C19 1_555 1_555
C20 C19 1_555 1_555
H24 C20 1_555 1_555
H25 C20 1_555 1_555
C21 C20 1_555 1_555
H26 C21 1_555 1_555
H27 C21 1_555 1_555
C22 C21 1_555 1_555
H28 C22 1_555 1_555
H29 C22 1_555 1_555
C23 C22 1_555 1_555
H30 C23 1_555 1_555
H31 C23 1_555 1_555
C24 C23 1_555 1_555
H32 C24 1_555 1_555
H33 C24 1_555 1_555
C25 C24 1_555 1_555
H34 C25 1_555 1_555
H35 C25 1_555 1_555
C26 C25 1_555 1_555
H36 C26 1_555 1_555
H37 C26 1_555 1_555
H38 C26 1_555 1_555
N1 H39 1_555 1_555
H40 N1 1_555 1_555
H41 N1 1_555 1_555
H42 N1 1_555 1_555
N2 H43 1_555 1_555
H44 N2 1_555 1_555
H45 N2 1_555 1_555
H46 N2 1_555 1_555
O8 H47 1_555 1_555
C27 O8 1_555 1_555
H48 C27 1_555 1_555
H49 C27 1_555 1_555
H50 C27 1_555 1_555
C2 C3 1_555 1_555
C8 C9 1_555 1_555
C9 C10 1_555 1_555

#END
