
#######################################################################
#
#                 Cambridge Crystallographic Data Centre
#                                CCDC 
#
#######################################################################
#
# If this CIF has been generated from an entry in the Cambridge 
# Structural Database, then it will include bibliographic, chemical, 
# crystal, experimental, refinement or atomic coordinate data resulting 
# from the CCDC's data processing and validation procedures.
#
#######################################################################

data_HOGJAP
_chemical_formula_moiety         'C40 H38 S4 Si1'
_chemical_name_systematic        
1,1-Di-t-butyl-2,5-bis(2,2'-bithiophen-5-yl)-3,4-diphenylsilole
_symmetry_cell_setting           monoclinic
_symmetry_space_group_name_H-M   'P 21/n'
_symmetry_Int_Tables_number      14
_space_group_name_Hall           '-P 2yn'
loop_
_symmetry_equiv_pos_site_id
_symmetry_equiv_pos_as_xyz
1 x,y,z
2 1/2-x,1/2+y,1/2-z
3 -x,-y,-z
4 1/2+x,1/2-y,1/2+z
_cell_length_a                   11.0211(2)
_cell_length_b                   32.6233(7)
_cell_length_c                   20.5267(4)
_cell_angle_alpha                90
_cell_angle_beta                 100.8200(10)
_cell_angle_gamma                90
_cell_volume                     7249.06
_exptl_crystal_colour            red
_exptl_crystal_description       plate
_chemical_melting_point          142-143deg.C
_cell_formula_units_Z            8
_exptl_crystal_recrystallization_method dichloromethane/hexanes
_exptl_crystal_preparation       luminescent
loop_
_atom_site_label
_atom_site_type_symbol
_atom_site_fract_x
_atom_site_fract_y
_atom_site_fract_z
Si1 Si 0.29264(10) 0.12727(3) 0.01460(5)
C1 C 0.1600(4) 0.16349(11) -0.01276(17)
C2 C 0.0590(4) 0.14763(11) 0.00774(17)
C3 C 0.0753(4) 0.10795(11) 0.04357(16)
C4 C 0.1914(4) 0.09188(11) 0.05434(17)
C5 C 0.3433(4) 0.10205(14) -0.05972(19)
C6 C 0.4175(4) 0.15371(13) 0.07729(19)
C7 C -0.0657(2) 0.16726(8) -0.00487(16)
C8 C -0.1332(3) 0.16856(9) -0.06924(14)
H1 H -0.1032 0.1556 -0.1034
C9 C -0.2455(3) 0.18918(11) -0.08259(16)
H2 H -0.2907 0.1901 -0.1257
C10 C -0.2903(2) 0.20851(9) -0.0316(2)
H3 H -0.3654 0.2223 -0.0405
C11 C -0.2228(3) 0.20721(9) 0.03280(19)
H4 H -0.2528 0.2201 0.0669
C12 C -0.1105(3) 0.18659(9) 0.04615(13)
H5 H -0.0653 0.1857 0.0892
C13 C -0.0352(2) 0.08853(7) 0.06259(13)
C14 C -0.1139(3) 0.06525(8) 0.01603(10)
H6 H -0.1004 0.0635 -0.0273
C15 C -0.2128(3) 0.04463(8) 0.03419(15)
H7 H -0.2655 0.0290 0.0030
C16 C -0.2330(2) 0.04729(8) 0.09890(17)
H8 H -0.2992 0.0335 0.1110
C17 C -0.1542(3) 0.07057(9) 0.14546(12)
H9 H -0.1677 0.0724 0.1888
C18 C -0.0553(3) 0.09119(8) 0.12730(12)
H10 H -0.0026 0.1068 0.1585
C19 C 0.2257(5) 0.09339(19) -0.1116(2)
H11 H 0.2479 0.0804 -0.1497
H12 H 0.1839 0.1187 -0.1248
H13 H 0.1720 0.0757 -0.0927
C20 C 0.4087(5) 0.06068(14) -0.0428(2)
H14 H 0.4316 0.0494 -0.0820
H15 H 0.3539 0.0421 -0.0264
H16 H 0.4815 0.0647 -0.0095
C21 C 0.4322(5) 0.12866(15) -0.0902(2)
H17 H 0.4551 0.1145 -0.1271
H18 H 0.5048 0.1341 -0.0574
H19 H 0.3925 0.1541 -0.1051
C22 C 0.4420(4) 0.19709(12) 0.0526(2)
H20 H 0.5050 0.2102 0.0844
H21 H 0.3674 0.2129 0.0471
H22 H 0.4688 0.1951 0.0108
C23 C 0.5422(4) 0.13087(14) 0.0918(2)
H23 H 0.5998 0.1461 0.1237
H24 H 0.5739 0.1282 0.0515
H25 H 0.5305 0.1042 0.1092
C24 C 0.3668(5) 0.15926(15) 0.1416(2)
H26 H 0.4278 0.1725 0.1743
H27 H 0.3474 0.1329 0.1578
H28 H 0.2934 0.1758 0.1327
C25 C 0.1557(3) 0.20462(12) -0.04350(18)
S1 S 0.21895(11) 0.21484(4) -0.11212(5)
C26 C 0.1761(4) 0.26547(12) -0.1141(2)
C27 C 0.1163(4) 0.27365(13) -0.0642(2)
H29 H 0.0856 0.2994 -0.0567
C28 C 0.1049(4) 0.23954(13) -0.0247(2)
H30 H 0.0656 0.2407 0.0116
C29 C 0.2027(4) 0.29352(14) -0.1651(2)
S2 S 0.1636(6) 0.34317(12) -0.1655(3)
C30 C 0.2224(17) 0.3501(4) -0.2362(7)
H31 H 0.2217 0.3759 -0.2557
C31 C 0.2692(17) 0.3179(4) -0.2630(7)
H32 H 0.2999 0.3169 -0.3021
C32 C 0.261(3) 0.2834(8) -0.2153(12)
H33 H 0.2928 0.2574 -0.2200
C37 C 0.2284(4) 0.05369(12) 0.08946(17)
S4 S 0.12907(10) 0.01936(3) 0.11676(5)
C38 C 0.2458(4) -0.01355(12) 0.14958(18)
C39 C 0.3556(4) 0.00094(14) 0.1396(2)
H37 H 0.4298 -0.0128 0.1535
C40 C 0.3474(4) 0.03882(13) 0.1063(2)
H38 H 0.4158 0.0525 0.0964
C41 C 0.2209(5) -0.05065(13) 0.1831(2)
S5 S 0.3326(3) -0.08325(8) 0.21725(17)
C42 C 0.2300(10) -0.1161(3) 0.2407(6)
H39 H 0.2534 -0.1408 0.2620
C43 C 0.1137(10) -0.1037(3) 0.2263(5)
H40 H 0.0455 -0.1180 0.2348
C44 C 0.1112(14) -0.0621(6) 0.1935(11)
H41 H 0.0401 -0.0463 0.1819
Si2 Si 0.21138(10) 0.12191(3) 0.40493(5)
C49 C 0.3745(4) 0.10147(11) 0.42807(18)
C50 C 0.4161(3) 0.11061(10) 0.49383(18)
C51 C 0.3321(4) 0.13479(10) 0.52688(17)
C52 C 0.2174(4) 0.14278(11) 0.49119(17)
C53 C 0.0973(4) 0.07776(12) 0.3871(2)
C54 C 0.2001(4) 0.16542(12) 0.34126(19)
C55 C 0.5341(2) 0.09545(8) 0.53477(11)
C56 C 0.6447(3) 0.11661(6) 0.53885(12)
H45 H 0.6460 0.1418 0.5176
C57 C 0.7535(2) 0.10020(9) 0.57463(15)
H46 H 0.8275 0.1144 0.5774
C58 C 0.7516(2) 0.06262(9) 0.60634(13)
H47 H 0.8243 0.0516 0.6303
C59 C 0.6409(3) 0.04145(7) 0.60226(13)
H48 H 0.6397 0.0163 0.6235
C60 C 0.5322(2) 0.05787(8) 0.56648(13)
H49 H 0.4582 0.0437 0.5637
C61 C 0.3797(2) 0.15059(9) 0.59525(11)
C62 C 0.3810(3) 0.12590(7) 0.65057(15)
H50 H 0.3581 0.0985 0.6452
C63 C 0.4166(3) 0.14218(11) 0.71386(12)
H51 H 0.4175 0.1257 0.7509
C64 C 0.4508(3) 0.18315(12) 0.72182(12)
H52 H 0.4747 0.1940 0.7642
C65 C 0.4495(3) 0.20784(8) 0.66650(18)
H53 H 0.4724 0.2352 0.6718
C66 C 0.4139(3) 0.19156(8) 0.60322(14)
H54 H 0.4130 0.2081 0.5662
C67 C 0.1131(6) 0.05193(15) 0.3259(2)
H55 H 0.0528 0.0304 0.3193
H56 H 0.1945 0.0403 0.3333
H57 H 0.1019 0.0692 0.2874
C68 C -0.0370(5) 0.09156(15) 0.3785(3)
H58 H -0.0904 0.0682 0.3694
H59 H -0.0549 0.1105 0.3423
H60 H -0.0504 0.1047 0.4185
C69 C 0.1217(5) 0.04894(14) 0.4466(2)
H61 H 0.0652 0.0263 0.4390
H62 H 0.1105 0.0635 0.4857
H63 H 0.2050 0.0389 0.4525
C70 C 0.3240(8) 0.1861(3) 0.3504(6)
H64 H 0.3208 0.2081 0.3192
H65 H 0.3854 0.1666 0.3433
H66 H 0.3450 0.1968 0.3947
C71 C 0.1621(9) 0.1509(2) 0.2685(3)
H67 H 0.1583 0.1741 0.2394
H68 H 0.0825 0.1380 0.2625
H69 H 0.2219 0.1317 0.2585
C72 C 0.1048(8) 0.1987(2) 0.3492(3)
H70 H 0.1045 0.2195 0.3160
H71 H 0.1264 0.2109 0.3925
H72 H 0.0242 0.1866 0.3441
C76 C 0.4443(4) 0.07771(11) 0.38749(18)
S7 S 0.57960(10) 0.05120(3) 0.41735(5)
C77 C 0.5930(4) 0.03313(12) 0.34081(19)
C78 C 0.4980(5) 0.04723(16) 0.2952(2)
H82 H 0.4886 0.0410 0.2504
C79 C 0.4152(5) 0.07179(15) 0.3207(2)
H83 H 0.3456 0.0833 0.2943
C80 C 0.6917(4) 0.00499(13) 0.3337(2)
S8 S 0.70822(17) -0.01404(6) 0.25847(7)
C81 C 0.8302(6) -0.04299(18) 0.2909(3)
H84 H 0.8718 -0.0597 0.2657
C82 C 0.8611(6) -0.03953(17) 0.3562(3)
H85 H 0.9272 -0.0531 0.3823
C83 C 0.7755(8) -0.0110(3) 0.3827(5)
H86 H 0.7801 -0.0051 0.4274
C88 C 0.1178(4) 0.16237(11) 0.51800(17)
S10 S 0.12421(10) 0.17148(3) 0.60244(5)
C89 C -0.0217(3) 0.19090(11) 0.5908(2)
C90 C -0.0725(4) 0.19120(14) 0.5260(2)
H90 H -0.1518 0.2009 0.5096
C91 C 0.0059(4) 0.17551(13) 0.4857(2)
H91 H -0.0173 0.1742 0.4398
C92 C -0.0748(4) 0.20434(11) 0.6469(2)
S11 S -0.23020(19) 0.21333(11) 0.64101(15)
C93 C -0.207(2) 0.2241(8) 0.7259(7)
H92 H -0.2706 0.2309 0.7477
C94 C -0.0895(16) 0.2217(6) 0.7566(11)
H93 H -0.0599 0.2257 0.8016
C95 C -0.0188(14) 0.2121(9) 0.7087(8)
H94 H 0.0669 0.2111 0.7201
C33? C 0.2027(4) 0.29352(14) -0.1651(2)
S3? S 0.2626(18) 0.2803(5) -0.2319(6)
C34? C 0.260(4) 0.3307(6) -0.2561(15)
H34? H 0.2945 0.3386 -0.2921
C35? C 0.207(4) 0.3583(8) -0.2224(15)
H35? H 0.1877 0.3856 -0.2330
C36? C 0.187(4) 0.3346(8) -0.1636(18)
H36? H 0.1645 0.3475 -0.1273
C45? C 0.2209(5) -0.05065(13) 0.1831(2)
S6? S 0.0862(13) -0.0703(6) 0.1875(11)
C46? C 0.146(3) -0.1104(8) 0.2358(16)
H42? H 0.0973 -0.1305 0.2503
C47? C 0.268(3) -0.1105(9) 0.2509(19)
H43? H 0.3179 -0.1298 0.2768
C48? C 0.312(3) -0.0731(9) 0.2177(17)
H44? H 0.3949 -0.0665 0.2211
C73? C 0.0672(17) 0.1756(6) 0.3108(10)
H73? H 0.0657 0.1975 0.2794
H74? H 0.0239 0.1839 0.3450
H75? H 0.0280 0.1518 0.2886
C74? C 0.268(2) 0.2027(7) 0.3780(11)
H76? H 0.2655 0.2252 0.3476
H77? H 0.3520 0.1955 0.3954
H78? H 0.2276 0.2106 0.4138
C75? C 0.270(2) 0.1552(6) 0.2846(9)
H79? H 0.2631 0.1778 0.2541
H80? H 0.2355 0.1311 0.2617
H81? H 0.3559 0.1505 0.3029
C84? C 0.6917(4) 0.00499(13) 0.3337(2)
S9? S 0.812(3) -0.0190(12) 0.3803(17)
C85? C 0.873(4) -0.0302(16) 0.312(3)
H87? H 0.9467 -0.0448 0.3157
C86? C 0.812(5) -0.0176(19) 0.254(2)
H88? H 0.8340 -0.0214 0.2123
C87? C 0.702(4) 0.0042(15) 0.2685(13)
H89? H 0.6433 0.0163 0.2355
C96? C -0.0748(4) 0.20434(11) 0.6469(2)
S12? S 0.0197(7) 0.2080(4) 0.7234(4)
C97? C -0.106(3) 0.2264(11) 0.7547(17)
H95? H -0.1005 0.2340 0.7989
C98? C -0.211(3) 0.2288(13) 0.7106(13)
H96? H -0.2864 0.2373 0.7199
C99? C -0.1909(16) 0.2167(8) 0.6483(11)
H97? H -0.2529 0.2171 0.6106
loop_
_geom_bond_atom_site_label_1
_geom_bond_atom_site_label_2
_geom_bond_site_symmetry_1
_geom_bond_site_symmetry_2
Si1 C1 1_555 1_555
C1 C2 1_555 1_555
C2 C3 1_555 1_555
C3 C4 1_555 1_555
C4 Si1 1_555 1_555
C5 Si1 1_555 1_555
C6 Si1 1_555 1_555
C7 C2 1_555 1_555
C8 C7 1_555 1_555
H1 C8 1_555 1_555
C9 C8 1_555 1_555
H2 C9 1_555 1_555
C10 C9 1_555 1_555
H3 C10 1_555 1_555
C11 C10 1_555 1_555
H4 C11 1_555 1_555
C12 C7 1_555 1_555
H5 C12 1_555 1_555
C13 C3 1_555 1_555
C14 C13 1_555 1_555
H6 C14 1_555 1_555
C15 C14 1_555 1_555
H7 C15 1_555 1_555
C16 C15 1_555 1_555
H8 C16 1_555 1_555
C17 C16 1_555 1_555
H9 C17 1_555 1_555
C18 C13 1_555 1_555
H10 C18 1_555 1_555
C19 C5 1_555 1_555
H11 C19 1_555 1_555
H12 C19 1_555 1_555
H13 C19 1_555 1_555
C20 C5 1_555 1_555
H14 C20 1_555 1_555
H15 C20 1_555 1_555
H16 C20 1_555 1_555
C21 C5 1_555 1_555
H17 C21 1_555 1_555
H18 C21 1_555 1_555
H19 C21 1_555 1_555
C22 C6 1_555 1_555
H20 C22 1_555 1_555
H21 C22 1_555 1_555
H22 C22 1_555 1_555
C23 C6 1_555 1_555
H23 C23 1_555 1_555
H24 C23 1_555 1_555
H25 C23 1_555 1_555
C24 C6 1_555 1_555
H26 C24 1_555 1_555
H27 C24 1_555 1_555
H28 C24 1_555 1_555
C25 C1 1_555 1_555
S1 C25 1_555 1_555
C26 S1 1_555 1_555
C27 C26 1_555 1_555
H29 C27 1_555 1_555
C28 C25 1_555 1_555
H30 C28 1_555 1_555
C29 C26 1_555 1_555
S2 C29 1_555 1_555
C30 S2 1_555 1_555
H31 C30 1_555 1_555
C31 C30 1_555 1_555
H32 C31 1_555 1_555
C32 C29 1_555 1_555
H33 C32 1_555 1_555
C37 C4 1_555 1_555
S4 C37 1_555 1_555
C38 S4 1_555 1_555
C39 C38 1_555 1_555
H37 C39 1_555 1_555
C40 C37 1_555 1_555
H38 C40 1_555 1_555
C41 C38 1_555 1_555
S5 C41 1_555 1_555
C42 S5 1_555 1_555
H39 C42 1_555 1_555
C43 C42 1_555 1_555
H40 C43 1_555 1_555
C44 C41 1_555 1_555
H41 C44 1_555 1_555
Si2 C49 1_555 1_555
C49 C50 1_555 1_555
C50 C51 1_555 1_555
C51 C52 1_555 1_555
C52 Si2 1_555 1_555
C53 Si2 1_555 1_555
C54 Si2 1_555 1_555
C55 C50 1_555 1_555
C56 C55 1_555 1_555
H45 C56 1_555 1_555
C57 C56 1_555 1_555
H46 C57 1_555 1_555
C58 C57 1_555 1_555
H47 C58 1_555 1_555
C59 C58 1_555 1_555
H48 C59 1_555 1_555
C60 C55 1_555 1_555
H49 C60 1_555 1_555
C61 C51 1_555 1_555
C62 C61 1_555 1_555
H50 C62 1_555 1_555
C63 C62 1_555 1_555
H51 C63 1_555 1_555
C64 C63 1_555 1_555
H52 C64 1_555 1_555
C65 C64 1_555 1_555
H53 C65 1_555 1_555
C66 C61 1_555 1_555
H54 C66 1_555 1_555
C67 C53 1_555 1_555
H55 C67 1_555 1_555
H56 C67 1_555 1_555
H57 C67 1_555 1_555
C68 C53 1_555 1_555
H58 C68 1_555 1_555
H59 C68 1_555 1_555
H60 C68 1_555 1_555
C69 C53 1_555 1_555
H61 C69 1_555 1_555
H62 C69 1_555 1_555
H63 C69 1_555 1_555
C70 C54 1_555 1_555
H64 C70 1_555 1_555
H65 C70 1_555 1_555
H66 C70 1_555 1_555
C71 C54 1_555 1_555
H67 C71 1_555 1_555
H68 C71 1_555 1_555
H69 C71 1_555 1_555
C72 C54 1_555 1_555
H70 C72 1_555 1_555
H71 C72 1_555 1_555
H72 C72 1_555 1_555
C76 C49 1_555 1_555
S7 C76 1_555 1_555
C77 S7 1_555 1_555
C78 C77 1_555 1_555
H82 C78 1_555 1_555
C79 C76 1_555 1_555
H83 C79 1_555 1_555
C80 C77 1_555 1_555
S8 C80 1_555 1_555
C81 S8 1_555 1_555
H84 C81 1_555 1_555
C82 C81 1_555 1_555
H85 C82 1_555 1_555
C83 C80 1_555 1_555
H86 C83 1_555 1_555
C88 C52 1_555 1_555
S10 C88 1_555 1_555
C89 S10 1_555 1_555
C90 C89 1_555 1_555
H90 C90 1_555 1_555
C91 C88 1_555 1_555
H91 C91 1_555 1_555
C92 C89 1_555 1_555
S11 C92 1_555 1_555
C93 S11 1_555 1_555
H92 C93 1_555 1_555
C94 C93 1_555 1_555
H93 C94 1_555 1_555
C95 C92 1_555 1_555
H94 C95 1_555 1_555
C11 C12 1_555 1_555
C17 C18 1_555 1_555
C27 C28 1_555 1_555
C31 C32 1_555 1_555
C39 C40 1_555 1_555
C43 C44 1_555 1_555
C59 C60 1_555 1_555
C65 C66 1_555 1_555
C78 C79 1_555 1_555
C82 C83 1_555 1_555
C90 C91 1_555 1_555
C94 C95 1_555 1_555

#END
