
#######################################################################
#
#                 Cambridge Crystallographic Data Centre
#                                CCDC 
#
#######################################################################
#
# If this CIF has been generated from an entry in the Cambridge 
# Structural Database, then it will include bibliographic, chemical, 
# crystal, experimental, refinement or atomic coordinate data resulting 
# from the CCDC's data processing and validation procedures.
#
#######################################################################

data_HOGMOH
_chemical_formula_moiety         'C29 H29 N5'
_chemical_name_systematic        
1-benzyl-3-(1-cyclohexyl-1H-tetrazol-5-yl)-2-(4-methylphenyl)-2H-isoindole
_symmetry_cell_setting           monoclinic
_symmetry_space_group_name_H-M   'P 21/n'
_symmetry_Int_Tables_number      14
_space_group_name_Hall           '-P 2yn'
loop_
_symmetry_equiv_pos_site_id
_symmetry_equiv_pos_as_xyz
1 x,y,z
2 1/2-x,1/2+y,1/2-z
3 -x,-y,-z
4 1/2+x,1/2-y,1/2+z
_cell_length_a                   9.9031(3)
_cell_length_b                   17.6485(4)
_cell_length_c                   14.0478(4)
_cell_angle_alpha                90
_cell_angle_beta                 90.081(3)
_cell_angle_gamma                90
_cell_volume                     2455.2
_cell_formula_units_Z            4
loop_
_atom_site_label
_atom_site_type_symbol
_atom_site_fract_x
_atom_site_fract_y
_atom_site_fract_z
C1 C 0.0282(2) 0.47974(13) 0.23786(16)
H1 H 0.0735 0.5260 0.2188
H2 H -0.0636 0.4817 0.2140
C2 C 0.0260(2) 0.47484(13) 0.34466(17)
H3 H -0.0278 0.4315 0.3637
H4 H -0.0164 0.5200 0.3703
C3 C 0.1674(2) 0.46718(11) 0.38588(15)
H5 H 0.1620 0.4611 0.4544
H6 H 0.2187 0.5128 0.3727
C4 C 0.23843(16) 0.39904(9) 0.34246(12)
H7 H 0.1872 0.3536 0.3598
C5 C 0.24276(18) 0.40350(11) 0.23490(13)
H8 H 0.2836 0.3578 0.2096
H9 H 0.2978 0.4463 0.2157
C6 C 0.1004(2) 0.41245(13) 0.19465(14)
H10 H 0.1055 0.4189 0.1262
H11 H 0.0490 0.3668 0.2073
C7 C 0.42665(16) 0.34000(9) 0.44279(10)
C8 C 0.35777(16) 0.27359(8) 0.48095(10)
C9 C 0.33608(15) 0.25426(8) 0.57554(10)
C10 C 0.37015(16) 0.28984(10) 0.66286(11)
H12 H 0.4144 0.3363 0.6636
C11 C 0.33678(17) 0.25453(10) 0.74539(11)
H13 H 0.3603 0.2770 0.8030
C12 C 0.26710(17) 0.18441(10) 0.74616(12)
H14 H 0.2466 0.1617 0.8041
C13 C 0.22960(17) 0.14965(9) 0.66414(11)
H15 H 0.1818 0.1043 0.6656
C14 C 0.26466(15) 0.18380(8) 0.57597(11)
C15 C 0.24490(15) 0.16157(8) 0.48217(10)
C16 C 0.18137(17) 0.09060(9) 0.44507(12)
H16 H 0.1998 0.0500 0.4899
H17 H 0.2250 0.0774 0.3856
C17 C 0.02985(17) 0.09369(8) 0.42797(12)
C18 C -0.05638(19) 0.12769(10) 0.49277(13)
H18 H -0.0208 0.1511 0.5466
C19 C -0.1943(2) 0.12735(12) 0.47853(16)
H19 H -0.2506 0.1507 0.5226
C20 C -0.2493(2) 0.09277(11) 0.39956(17)
H20 H -0.3424 0.0920 0.3906
C21 C -0.1647(2) 0.05945(10) 0.33420(16)
H21 H -0.2007 0.0364 0.2803
C22 C -0.02688(19) 0.06006(9) 0.34808(13)
H22 H 0.0291 0.0375 0.3031
C23 C 0.32566(15) 0.20870(8) 0.32457(10)
C24 C 0.45693(16) 0.20907(9) 0.29103(11)
H23 H 0.5288 0.2164 0.3327
C25 C 0.48033(18) 0.19851(10) 0.19522(12)
H24 H 0.5686 0.1994 0.1728
C26 C 0.37560(18) 0.18665(9) 0.13169(11)
C27 C 0.24510(18) 0.18771(10) 0.16659(11)
H25 H 0.1732 0.1806 0.1249
C28 C 0.21923(16) 0.19908(9) 0.26232(11)
H26 H 0.1308 0.2002 0.2845
C29 C 0.4030(2) 0.17148(12) 0.02745(13)
H27 H 0.3190 0.1648 -0.0056
H28 H 0.4566 0.1264 0.0213
H29 H 0.4510 0.2136 0.0006
N1 N 0.37521(13) 0.39140(7) 0.38232(10)
N2 N 0.46999(16) 0.44499(8) 0.36660(11)
N3 N 0.57416(16) 0.42605(9) 0.41702(12)
N4 N 0.55079(14) 0.36067(9) 0.46531(10)
N5 N 0.30197(12) 0.21667(7) 0.42539(8)
loop_
_geom_bond_atom_site_label_1
_geom_bond_atom_site_label_2
_geom_bond_site_symmetry_1
_geom_bond_site_symmetry_2
C1 H1 1_555 1_555
H2 C1 1_555 1_555
C2 C1 1_555 1_555
H3 C2 1_555 1_555
H4 C2 1_555 1_555
C3 C2 1_555 1_555
H5 C3 1_555 1_555
H6 C3 1_555 1_555
C4 C3 1_555 1_555
H7 C4 1_555 1_555
C5 C4 1_555 1_555
H8 C5 1_555 1_555
H9 C5 1_555 1_555
C6 C1 1_555 1_555
H10 C6 1_555 1_555
H11 C6 1_555 1_555
C7 C8 1_555 1_555
C8 C9 1_555 1_555
C9 C10 1_555 1_555
C10 H12 1_555 1_555
C11 C10 1_555 1_555
H13 C11 1_555 1_555
C12 C11 1_555 1_555
H14 C12 1_555 1_555
C13 C12 1_555 1_555
H15 C13 1_555 1_555
C14 C9 1_555 1_555
C15 C14 1_555 1_555
C16 C15 1_555 1_555
H16 C16 1_555 1_555
H17 C16 1_555 1_555
C17 C16 1_555 1_555
C18 C17 1_555 1_555
H18 C18 1_555 1_555
C19 C18 1_555 1_555
H19 C19 1_555 1_555
C20 C19 1_555 1_555
H20 C20 1_555 1_555
C21 C20 1_555 1_555
H21 C21 1_555 1_555
C22 C17 1_555 1_555
H22 C22 1_555 1_555
C23 C24 1_555 1_555
C24 H23 1_555 1_555
C25 C24 1_555 1_555
H24 C25 1_555 1_555
C26 C25 1_555 1_555
C27 C26 1_555 1_555
H25 C27 1_555 1_555
C28 C23 1_555 1_555
H26 C28 1_555 1_555
C29 C26 1_555 1_555
H27 C29 1_555 1_555
H28 C29 1_555 1_555
H29 C29 1_555 1_555
N1 C4 1_555 1_555
N2 N1 1_555 1_555
N3 N2 1_555 1_555
N4 C7 1_555 1_555
N5 C8 1_555 1_555
C5 C6 1_555 1_555
C7 N1 1_555 1_555
C13 C14 1_555 1_555
C15 N5 1_555 1_555
C21 C22 1_555 1_555
C23 N5 1_555 1_555
C27 C28 1_555 1_555
N3 N4 1_555 1_555

#END
