
#######################################################################
#
#                 Cambridge Crystallographic Data Centre
#                                CCDC 
#
#######################################################################
#
# If this CIF has been generated from an entry in the Cambridge 
# Structural Database, then it will include bibliographic, chemical, 
# crystal, experimental, refinement or atomic coordinate data resulting 
# from the CCDC's data processing and validation procedures.
#
#######################################################################

data_HOGPIE
_chemical_formula_moiety         'C22 H18 F3 N1 O1'
_chemical_name_systematic        
N,N-bis(4-Methylphenyl)-4-(trifluoromethyl)benzamide
_symmetry_cell_setting           monoclinic
_symmetry_space_group_name_H-M   'P 21/c'
_symmetry_Int_Tables_number      14
_space_group_name_Hall           '-P 2ybc'
loop_
_symmetry_equiv_pos_site_id
_symmetry_equiv_pos_as_xyz
1 x,y,z
2 -x,1/2+y,1/2-z
3 -x,-y,-z
4 x,1/2-y,1/2+z
_cell_length_a                   9.398(4)
_cell_length_b                   10.644(4)
_cell_length_c                   18.906(8)
_cell_angle_alpha                90
_cell_angle_beta                 100.921(6)
_cell_angle_gamma                90
_cell_volume                     1856.96
_exptl_crystal_colour            colorless
_exptl_crystal_description       block
_cell_formula_units_Z            4
loop_
_atom_site_label
_atom_site_type_symbol
_atom_site_fract_x
_atom_site_fract_y
_atom_site_fract_z
N1 N 0.49598(17) 0.43058(17) 0.15467(9)
O1 O 0.32366(17) 0.37626(16) 0.06093(9)
F1 F -0.1053(8) 0.7609(6) 0.2329(6)
F2 F 0.0009(7) 0.9053(5) 0.1943(8)
F3 F -0.1595(13) 0.8016(16) 0.1218(6)
C1 C 0.3612(2) 0.43634(19) 0.11520(13)
C2 C 0.2578(2) 0.5274(2) 0.13751(11)
C3 C 0.2965(2) 0.6496(2) 0.15145(12)
H1 H 0.3919 0.6744 0.1530
C4 C 0.1956(2) 0.7361(2) 0.16315(13)
H2 H 0.2221 0.8197 0.1716
C5 C 0.0580(2) 0.7000(2) 0.16235(13)
C6 C 0.0189(3) 0.5787(3) 0.14916(17)
H3 H -0.0762 0.5541 0.1488
C7 C 0.1184(3) 0.4919(2) 0.13628(16)
H4 H 0.0906 0.4089 0.1267
C8 C -0.0512(4) 0.7925(3) 0.1753(2)
C9 C 0.5304(2) 0.46563(19) 0.22846(11)
C10 C 0.6418(2) 0.5477(2) 0.25154(12)
H5 H 0.6922 0.5829 0.2186
C11 C 0.6787(2) 0.5776(2) 0.32231(12)
H6 H 0.7554 0.6327 0.3371
C12 C 0.6066(2) 0.5294(2) 0.37280(12)
C13 C 0.4948(2) 0.4481(2) 0.34835(12)
H7 H 0.4433 0.4139 0.3811
C14 C 0.4571(2) 0.4161(2) 0.27759(12)
H8 H 0.3811 0.3603 0.2627
C15 C 0.6473(3) 0.5635(3) 0.45033(13)
H9 H 0.7468 0.5897 0.4608
H10 H 0.6346 0.4919 0.4794
H11 H 0.5867 0.6310 0.4608
C16 C 0.6064(2) 0.3664(2) 0.12603(12)
C17 C 0.6613(2) 0.4193(2) 0.07160(13)
H12 H 0.6264 0.4962 0.0524
C18 C 0.7689(3) 0.3581(3) 0.04524(13)
H13 H 0.8059 0.3941 0.0077
C19 C 0.8225(2) 0.2460(3) 0.07267(13)
C20 C 0.7658(3) 0.1953(2) 0.12755(14)
H14 H 0.8011 0.1188 0.1473
C21 C 0.6584(2) 0.2543(2) 0.15394(13)
H15 H 0.6206 0.2178 0.1911
C22 C 0.9389(3) 0.1795(3) 0.04322(17)
H16 H 0.9837 0.1177 0.0773
H17 H 1.0104 0.2391 0.0347
H18 H 0.8972 0.1389 -0.0012
F4? F -0.054(3) 0.813(3) 0.2380(9)
F5? F -0.1799(12) 0.7576(12) 0.1511(11)
F6? F -0.044(2) 0.8909(13) 0.1389(17)
loop_
_geom_bond_atom_site_label_1
_geom_bond_atom_site_label_2
_geom_bond_site_symmetry_1
_geom_bond_site_symmetry_2
N1 C1 1_555 1_555
O1 C1 1_555 1_555
F1 C8 1_555 1_555
F2 C8 1_555 1_555
F3 C8 1_555 1_555
C1 C2 1_555 1_555
C2 C3 1_555 1_555
C3 H1 1_555 1_555
C4 C3 1_555 1_555
H2 C4 1_555 1_555
C5 C4 1_555 1_555
C6 C5 1_555 1_555
H3 C6 1_555 1_555
C7 C2 1_555 1_555
H4 C7 1_555 1_555
C8 C5 1_555 1_555
C9 N1 1_555 1_555
C10 C9 1_555 1_555
H5 C10 1_555 1_555
C11 C10 1_555 1_555
H6 C11 1_555 1_555
C12 C11 1_555 1_555
C13 C12 1_555 1_555
H7 C13 1_555 1_555
C14 C9 1_555 1_555
H8 C14 1_555 1_555
C15 C12 1_555 1_555
H9 C15 1_555 1_555
H10 C15 1_555 1_555
H11 C15 1_555 1_555
C16 N1 1_555 1_555
C17 C16 1_555 1_555
H12 C17 1_555 1_555
C18 C17 1_555 1_555
H13 C18 1_555 1_555
C19 C18 1_555 1_555
C20 C19 1_555 1_555
H14 C20 1_555 1_555
C21 C16 1_555 1_555
H15 C21 1_555 1_555
C22 C19 1_555 1_555
H16 C22 1_555 1_555
H17 C22 1_555 1_555
H18 C22 1_555 1_555
C6 C7 1_555 1_555
C13 C14 1_555 1_555
C20 C21 1_555 1_555

#END
