
#######################################################################
#
#                 Cambridge Crystallographic Data Centre
#                                CCDC 
#
#######################################################################
#
# If this CIF has been generated from an entry in the Cambridge 
# Structural Database, then it will include bibliographic, chemical, 
# crystal, experimental, refinement or atomic coordinate data resulting 
# from the CCDC's data processing and validation procedures.
#
#######################################################################

data_HOGROK
_chemical_formula_moiety         'C24 H20 Cl1 N1 O2 S1'
_chemical_name_systematic        
6-Chloro-3-(p-methoxyphenyl)-7-oxo-5-phenyl-2,8-thiazatricyclo(7.4.0.0^5,8^)trideca-1(9),10,12-triene
_chemical_properties_biological  'potential biological activity'
_symmetry_cell_setting           monoclinic
_symmetry_space_group_name_H-M   'P 21/c'
_symmetry_Int_Tables_number      14
_space_group_name_Hall           '-P 2ybc'
loop_
_symmetry_equiv_pos_site_id
_symmetry_equiv_pos_as_xyz
1 x,y,z
2 -x,1/2+y,1/2-z
3 -x,-y,-z
4 x,1/2-y,1/2+z
_cell_length_a                   12.547(3)
_cell_length_b                   10.614(2)
_cell_length_c                   15.881(3)
_cell_angle_alpha                90
_cell_angle_beta                 105.91(3)
_cell_angle_gamma                90
_cell_volume                     2033.92
_exptl_crystal_colour            colorless
_cell_formula_units_Z            4
loop_
_atom_site_label
_atom_site_type_symbol
_atom_site_fract_x
_atom_site_fract_y
_atom_site_fract_z
Cl1 Cl 0.3297(1) 0.7481(1) 0.8878(1)
S1 S 0.1269(1) 0.2162(1) 0.7767(1)
O1 O 0.2356(3) 0.5472(3) 1.0141(2)
O2 O -0.1393(3) 0.2377(3) 0.3744(2)
N1 N 0.2632(3) 0.4346(3) 0.8952(2)
C1 C 0.2354(4) 0.2060(4) 0.8746(3)
C2 C 0.2617(4) 0.0857(4) 0.9084(3)
C3 C 0.3342(4) 0.0672(5) 0.9901(3)
C4 C 0.3845(4) 0.1685(5) 1.0388(3)
C5 C 0.3618(4) 0.2886(4) 1.0053(3)
C6 C 0.2880(4) 0.3083(4) 0.9240(3)
C7 C 0.2591(4) 0.5057(4) 0.8127(3)
C8 C 0.1611(4) 0.4693(4) 0.7368(3)
C9 C 0.1649(4) 0.3342(4) 0.7051(3)
C10 C 0.3680(4) 0.5108(4) 0.7889(3)
C11 C 0.4611(4) 0.4451(5) 0.8339(3)
C12 C 0.5596(4) 0.4539(5) 0.8106(4)
C13 C 0.5662(5) 0.5304(5) 0.7437(4)
C14 C 0.4750(5) 0.5981(5) 0.6978(4)
C15 C 0.3763(4) 0.5883(4) 0.7198(3)
C16 C 0.2328(4) 0.6233(4) 0.8637(3)
C17 C 0.2428(4) 0.5371(4) 0.9407(3)
C18 C 0.0837(3) 0.3095(4) 0.6163(3)
C19 C -0.0130(4) 0.3779(5) 0.5850(3)
C20 C -0.0850(4) 0.3503(5) 0.5049(3)
C21 C -0.0641(4) 0.2540(4) 0.4536(3)
C22 C 0.0318(4) 0.1850(5) 0.4847(3)
C23 C 0.1031(4) 0.2122(4) 0.5644(3)
C24 C -0.1316(4) 0.1271(5) 0.3268(3)
loop_
_geom_bond_atom_site_label_1
_geom_bond_atom_site_label_2
_geom_bond_site_symmetry_1
_geom_bond_site_symmetry_2
Cl1 C16 1_555 1_555
S1 C1 1_555 1_555
O1 C17 1_555 1_555
O2 C21 1_555 1_555
N1 C6 1_555 1_555
C1 C2 1_555 1_555
C2 C3 1_555 1_555
C3 C4 1_555 1_555
C4 C5 1_555 1_555
C5 C6 1_555 1_555
C6 C1 1_555 1_555
C7 N1 1_555 1_555
C8 C7 1_555 1_555
C9 S1 1_555 1_555
C10 C7 1_555 1_555
C11 C10 1_555 1_555
C12 C11 1_555 1_555
C13 C12 1_555 1_555
C14 C13 1_555 1_555
C15 C10 1_555 1_555
C16 C7 1_555 1_555
C17 N1 1_555 1_555
C18 C9 1_555 1_555
C19 C18 1_555 1_555
C20 C19 1_555 1_555
C21 C20 1_555 1_555
C22 C21 1_555 1_555
C23 C18 1_555 1_555
C24 O2 1_555 1_555
C8 C9 1_555 1_555
C14 C15 1_555 1_555
C16 C17 1_555 1_555
C22 C23 1_555 1_555

#END
