
#######################################################################
#
#                 Cambridge Crystallographic Data Centre
#                                CCDC 
#
#######################################################################
#
# If this CIF has been generated from an entry in the Cambridge 
# Structural Database, then it will include bibliographic, chemical, 
# crystal, experimental, refinement or atomic coordinate data resulting 
# from the CCDC's data processing and validation procedures.
#
#######################################################################

data_HOGXUX
_chemical_formula_moiety         'C15 H15 N3 O4'
_chemical_name_systematic        
'ethyl 3-(2-oxo-4-phenyl-1,3-oxazolidin-3-yl)-1H-pyrazole-5-carboxylate'
_symmetry_cell_setting           monoclinic
_symmetry_space_group_name_H-M   'P 21'
_symmetry_Int_Tables_number      4
_space_group_name_Hall           'P 2yb'
loop_
_symmetry_equiv_pos_site_id
_symmetry_equiv_pos_as_xyz
1 x,y,z
2 -x,1/2+y,-z
_cell_length_a                   10.1003(13)
_cell_length_b                   5.9998(8)
_cell_length_c                   11.9080(16)
_cell_angle_alpha                90
_cell_angle_beta                 95.066(2)
_cell_angle_gamma                90
_cell_volume                     718.803
_exptl_crystal_colour            colorless
_exptl_crystal_description       block
_chemical_melting_point          '147-149 deg.C'
_cell_formula_units_Z            2
loop_
_atom_site_label
_atom_site_type_symbol
_atom_site_fract_x
_atom_site_fract_y
_atom_site_fract_z
O1 O 0.26335(13) 0.8137(3) 0.98808(11)
O2 O 0.43124(14) 1.0398(3) 0.95102(11)
O3 O -0.02282(13) 0.1484(3) 0.60109(10)
O4 O 0.01911(12) 0.1024(2) 0.78869(10)
N1 N 0.35254(14) 0.8077(3) 0.81630(12)
N2 N 0.21928(14) 0.7092(3) 0.65108(12)
N3 N 0.13454(14) 0.5414(3) 0.62157(12)
H1 H 0.0911(19) 0.534(4) 0.5497(18)
C1 C 0.33986(17) 0.8790(3) 0.92371(15)
C2 C 0.5135(2) 1.0695(5) 0.86079(19)
H2 H 0.6038 1.0107 0.8821
H3 H 0.5208 1.2297 0.8424
C3 C 0.44789(18) 0.9412(3) 0.75911(16)
H4 H 0.3998 1.0467 0.7047
C4 C 0.54536(16) 0.8025(3) 0.69982(15)
C5 C 0.57930(18) 0.8629(4) 0.59353(15)
H5 H 0.5399 0.9904 0.5570
C6 C 0.67050(19) 0.7372(5) 0.54092(17)
H6 H 0.6936 0.7801 0.4684
C7 C 0.7284(2) 0.5514(5) 0.5917(2)
H7 H 0.7891 0.4642 0.5538
C8 C 0.6973(2) 0.4924(4) 0.6985(2)
H8 H 0.7379 0.3658 0.7350
C9 C 0.6068(2) 0.6185(4) 0.75223(17)
H9 H 0.5866 0.5784 0.8260
C10 C 0.26033(16) 0.6645(3) 0.75832(13)
C11 C 0.20281(17) 0.4707(3) 0.79789(14)
H10 H 0.2167 0.4054 0.8706
C12 C 0.12119(16) 0.3970(3) 0.70637(13)
C13 C 0.03231(16) 0.2032(3) 0.69133(14)
C14 C -0.06969(18) -0.0908(3) 0.78618(15)
H11 H -0.0320 -0.2158 0.7450
H12 H -0.1578 -0.0522 0.7480
C15 C -0.0825(2) -0.1545(4) 0.90627(17)
H13 H -0.1361 -0.2904 0.9085
H14 H -0.1258 -0.0335 0.9444
H15 H 0.0060 -0.1815 0.9445
loop_
_geom_bond_atom_site_label_1
_geom_bond_atom_site_label_2
_geom_bond_site_symmetry_1
_geom_bond_site_symmetry_2
O1 C1 1_555 1_555
O2 C1 1_555 1_555
O3 C13 1_555 1_555
O4 C13 1_555 1_555
N1 C1 1_555 1_555
N2 N3 1_555 1_555
N3 H1 1_555 1_555
C2 O2 1_555 1_555
H2 C2 1_555 1_555
H3 C2 1_555 1_555
C3 N1 1_555 1_555
H4 C3 1_555 1_555
C4 C3 1_555 1_555
C5 C4 1_555 1_555
H5 C5 1_555 1_555
C6 C5 1_555 1_555
H6 C6 1_555 1_555
C7 C6 1_555 1_555
H7 C7 1_555 1_555
C8 C7 1_555 1_555
H8 C8 1_555 1_555
C9 C4 1_555 1_555
H9 C9 1_555 1_555
C10 N1 1_555 1_555
C11 C10 1_555 1_555
H10 C11 1_555 1_555
C12 N3 1_555 1_555
C13 C12 1_555 1_555
C14 O4 1_555 1_555
H11 C14 1_555 1_555
H12 C14 1_555 1_555
C15 C14 1_555 1_555
H13 C15 1_555 1_555
H14 C15 1_555 1_555
H15 C15 1_555 1_555
N2 C10 1_555 1_555
C2 C3 1_555 1_555
C8 C9 1_555 1_555
C11 C12 1_555 1_555

#END
