
#######################################################################
#
#                 Cambridge Crystallographic Data Centre
#                                CCDC 
#
#######################################################################
#
# If this CIF has been generated from an entry in the Cambridge 
# Structural Database, then it will include bibliographic, chemical, 
# crystal, experimental, refinement or atomic coordinate data resulting 
# from the CCDC's data processing and validation procedures.
#
#######################################################################

data_HOGXAE
_chemical_formula_moiety         'C23 H15 N1 O4,0.5(C3 H8 O1)'
_chemical_name_systematic        
'6-Oxo-11-(pyridin-3-yl)-11,12-dihydro-6H-dibenzo[c,h]chromene-12-carboxylic acid isopropanol solvate'
_symmetry_cell_setting           monoclinic
_symmetry_space_group_name_H-M   'P 21/n'
_symmetry_Int_Tables_number      14
_space_group_name_Hall           '-P 2yn'
loop_
_symmetry_equiv_pos_site_id
_symmetry_equiv_pos_as_xyz
1 x,y,z
2 1/2-x,1/2+y,1/2-z
3 -x,-y,-z
4 1/2+x,1/2-y,1/2+z
_cell_length_a                   10.2269(6)
_cell_length_b                   15.8840(9)
_cell_length_c                   12.1416(7)
_cell_angle_alpha                90
_cell_angle_beta                 98.281(1)
_cell_angle_gamma                90
_cell_volume                     1951.77
_exptl_crystal_colour            colorless
_exptl_crystal_description       lath
_cell_formula_units_Z            4
loop_
_atom_site_label
_atom_site_type_symbol
_atom_site_fract_x
_atom_site_fract_y
_atom_site_fract_z
O1 O 0.63253(18) 0.94298(14) -0.04638(17)
O2 O 0.55188(16) 0.89302(12) 0.09899(15)
O3 O 0.40415(19) 0.65297(11) 0.35503(17)
H1 H 0.429(3) 0.5978(9) 0.355(3)
O4 O 0.3163(6) 0.6283(5) 0.1832(6)
N1 N 0.0330(2) 0.99771(13) 0.13904(18)
C1 C 0.2291(2) 0.79461(14) 0.1458(2)
H2 H 0.1920 0.7438 0.1037
C2 C 0.3392(2) 0.82754(14) 0.0870(2)
C3 C 0.3242(2) 0.83316(15) -0.0334(2)
C4 C 0.2122(2) 0.80457(15) -0.1041(2)
H3 H 0.1433 0.7768 -0.0735
C5 C 0.2013(3) 0.81647(16) -0.2176(2)
H4 H 0.1248 0.7969 -0.2642
C6 C 0.3006(3) 0.85678(17) -0.2649(2)
H5 H 0.2913 0.8651 -0.3432
C7 C 0.4129(3) 0.88464(17) -0.1974(2)
H6 H 0.4816 0.9115 -0.2291
C8 C 0.4243(2) 0.87302(15) -0.0830(2)
C9 C 0.5431(2) 0.90590(16) -0.0137(2)
C10 C 0.4497(2) 0.85845(15) 0.1470(2)
C11 C 0.4718(2) 0.86416(15) 0.2684(2)
C12 C 0.5766(2) 0.91101(16) 0.3258(2)
H7 H 0.6378 0.9383 0.2858
C13 C 0.5909(3) 0.91734(16) 0.4407(2)
H8 H 0.6622 0.9486 0.4796
C14 C 0.5011(3) 0.87818(16) 0.4986(2)
H9 H 0.5100 0.8834 0.5773
C15 C 0.3980(3) 0.83132(16) 0.4423(2)
H10 H 0.3366 0.8049 0.4830
C16 C 0.3830(2) 0.82248(15) 0.3272(2)
C17 C 0.2791(2) 0.76552(15) 0.2657(2)
H11 H 0.2014 0.7673 0.3071
C18 C 0.1169(2) 0.85703(14) 0.14444(19)
C19 C 0.1337(2) 0.94314(15) 0.1395(2)
H12 H 0.2197 0.9647 0.1363
C20 C -0.0887(2) 0.96832(16) 0.1431(2)
H13 H -0.1598 1.0071 0.1411
C21 C -0.1139(2) 0.88361(17) 0.1500(2)
H14 H -0.2007 0.8639 0.1540
C22 C -0.0103(2) 0.82787(16) 0.1510(2)
H15 H -0.0258 0.7691 0.1563
C23 C 0.3260(3) 0.67304(16) 0.2673(2)
O5? O 0.2559(6) 0.6234(5) 0.2047(6)
O6? O 0.3807(5) 0.4716(4) 0.0931(5)
H16? H 0.364(9) 0.5214(19) 0.111(7)
C24? C 0.5220(8) 0.3778(6) 0.0166(8)
H17? H 0.5019 0.3374 0.0727
H18? H 0.6141 0.3709 0.0044
H19? H 0.4633 0.3679 -0.0534
C25? C 0.502(6) 0.4632(17) 0.055(3)
H20? H 0.5749 0.4778 0.1167
C26? C 0.503(5) 0.5219(18) -0.035(3)
H21? H 0.4864 0.5788 -0.0085
H22? H 0.4336 0.5067 -0.0957
H23? H 0.5891 0.5204 -0.0609
loop_
_geom_bond_atom_site_label_1
_geom_bond_atom_site_label_2
_geom_bond_site_symmetry_1
_geom_bond_site_symmetry_2
O1 C9 1_555 1_555
O2 C9 1_555 1_555
O3 H1 1_555 1_555
O4 C23 1_555 1_555
N1 C19 1_555 1_555
C1 H2 1_555 1_555
C2 C1 1_555 1_555
C3 C2 1_555 1_555
C4 C3 1_555 1_555
H3 C4 1_555 1_555
C5 C4 1_555 1_555
H4 C5 1_555 1_555
C6 C5 1_555 1_555
H5 C6 1_555 1_555
C7 C6 1_555 1_555
H6 C7 1_555 1_555
C8 C3 1_555 1_555
C9 C8 1_555 1_555
C10 O2 1_555 1_555
C11 C10 1_555 1_555
C12 C11 1_555 1_555
H7 C12 1_555 1_555
C13 C12 1_555 1_555
H8 C13 1_555 1_555
C14 C13 1_555 1_555
H9 C14 1_555 1_555
C15 C14 1_555 1_555
H10 C15 1_555 1_555
C16 C11 1_555 1_555
C17 C1 1_555 1_555
H11 C17 1_555 1_555
C18 C1 1_555 1_555
C19 C18 1_555 1_555
H12 C19 1_555 1_555
C20 N1 1_555 1_555
H13 C20 1_555 1_555
C21 C20 1_555 1_555
H14 C21 1_555 1_555
C22 C18 1_555 1_555
H15 C22 1_555 1_555
C23 O3 1_555 1_555
C2 C10 1_555 1_555
C7 C8 1_555 1_555
C15 C16 1_555 1_555
C16 C17 1_555 1_555
C17 C23 1_555 1_555
C21 C22 1_555 1_555

#END
