
#######################################################################
#
#                 Cambridge Crystallographic Data Centre
#                                CCDC 
#
#######################################################################
#
# If this CIF has been generated from an entry in the Cambridge 
# Structural Database, then it will include bibliographic, chemical, 
# crystal, experimental, refinement or atomic coordinate data resulting 
# from the CCDC's data processing and validation procedures.
#
#######################################################################

data_HOGYAE
_chemical_formula_moiety         'C20 H19 N3 O2'
_chemical_name_systematic        
1,5-dimethyl-4-phenyl-3-(3-phenyl-1,2-oxazol-5-yl)imidazolidin-2-one
_symmetry_cell_setting           orthorhombic
_symmetry_space_group_name_H-M   'P 21 21 21'
_symmetry_Int_Tables_number      19
_space_group_name_Hall           'P 2ac 2ab'
loop_
_symmetry_equiv_pos_site_id
_symmetry_equiv_pos_as_xyz
1 x,y,z
2 1/2-x,-y,1/2+z
3 -x,1/2+y,1/2-z
4 1/2+x,1/2-y,-z
_cell_length_a                   6.4999(12)
_cell_length_b                   11.197(2)
_cell_length_c                   23.119(4)
_cell_angle_alpha                90
_cell_angle_beta                 90
_cell_angle_gamma                90
_cell_volume                     1682.59
_exptl_crystal_colour            colorless
_exptl_crystal_description       Needle
_chemical_melting_point          '196-198 deg.C'
_cell_formula_units_Z            4
loop_
_atom_site_label
_atom_site_type_symbol
_atom_site_fract_x
_atom_site_fract_y
_atom_site_fract_z
O1 O 0.46465(17) 0.38365(10) 0.49328(5)
O2 O -0.02175(15) 0.27613(10) 0.38765(5)
N1 N 0.12865(19) 0.38537(11) 0.45953(5)
N2 N 0.2169(2) 0.51442(12) 0.52729(5)
N3 N 0.0274(2) 0.18874(11) 0.34492(6)
C1 C 0.2902(2) 0.42355(13) 0.49423(6)
C2 C -0.0067(2) 0.52314(14) 0.52413(7)
H1 H -0.0670 0.4731 0.5557
C3 C -0.0542(2) 0.46238(13) 0.46526(7)
H2 H -0.1807 0.4120 0.4687
C4 C 0.3316(3) 0.55971(16) 0.57664(7)
H3 H 0.4725 0.5287 0.5754
H4 H 0.2647 0.5338 0.6125
H5 H 0.3347 0.6472 0.5752
C5 C -0.0854(3) 0.64995(15) 0.53102(7)
H6 H -0.0555 0.6783 0.5702
H7 H -0.2343 0.6515 0.5245
H8 H -0.0172 0.7019 0.5028
C6 C -0.0753(2) 0.54727(13) 0.41438(6)
C7 C -0.2678(3) 0.57239(14) 0.39241(7)
H9 H -0.3856 0.5352 0.4088
C8 C -0.2912(3) 0.65153(15) 0.34654(7)
H10 H -0.4246 0.6688 0.3320
C9 C -0.1215(3) 0.70485(15) 0.32225(7)
H11 H -0.1373 0.7583 0.2906
C10 C 0.0714(3) 0.68066(15) 0.34383(7)
H12 H 0.1888 0.7179 0.3273
C11 C 0.0946(3) 0.60208(14) 0.38962(7)
H13 H 0.2283 0.5855 0.4042
C12 C 0.1523(2) 0.30286(13) 0.41619(7)
C13 C 0.3132(2) 0.23992(12) 0.39539(6)
H14 H 0.4528 0.2425 0.4075
C14 C 0.2247(2) 0.16922(12) 0.35128(6)
C15 C 0.3282(3) 0.08133(13) 0.31325(6)
C16 C 0.2167(3) -0.01279(14) 0.28880(7)
H15 H 0.0756 -0.0231 0.2983
C17 C 0.3116(3) -0.09095(15) 0.25082(7)
H16 H 0.2349 -0.1544 0.2341
C18 C 0.5161(3) -0.07730(15) 0.23715(8)
H17 H 0.5800 -0.1307 0.2107
C19 C 0.6292(3) 0.01467(15) 0.26201(7)
H18 H 0.7709 0.0237 0.2529
C20 C 0.5353(2) 0.09345(14) 0.30021(7)
H19 H 0.6133 0.1558 0.3174
loop_
_geom_bond_atom_site_label_1
_geom_bond_atom_site_label_2
_geom_bond_site_symmetry_1
_geom_bond_site_symmetry_2
O1 C1 1_555 1_555
O2 N3 1_555 1_555
N1 C1 1_555 1_555
N2 C1 1_555 1_555
N3 C14 1_555 1_555
C2 N2 1_555 1_555
H1 C2 1_555 1_555
C3 N1 1_555 1_555
H2 C3 1_555 1_555
C4 N2 1_555 1_555
H3 C4 1_555 1_555
H4 C4 1_555 1_555
H5 C4 1_555 1_555
C5 C2 1_555 1_555
H6 C5 1_555 1_555
H7 C5 1_555 1_555
H8 C5 1_555 1_555
C6 C3 1_555 1_555
C7 C6 1_555 1_555
H9 C7 1_555 1_555
C8 C7 1_555 1_555
H10 C8 1_555 1_555
C9 C8 1_555 1_555
H11 C9 1_555 1_555
C10 C9 1_555 1_555
H12 C10 1_555 1_555
C11 C6 1_555 1_555
H13 C11 1_555 1_555
C12 O2 1_555 1_555
C13 C12 1_555 1_555
H14 C13 1_555 1_555
C14 C13 1_555 1_555
C15 C14 1_555 1_555
C16 C15 1_555 1_555
H15 C16 1_555 1_555
C17 C16 1_555 1_555
H16 C17 1_555 1_555
C18 C17 1_555 1_555
H17 C18 1_555 1_555
C19 C18 1_555 1_555
H18 C19 1_555 1_555
C20 C15 1_555 1_555
H19 C20 1_555 1_555
N1 C12 1_555 1_555
C2 C3 1_555 1_555
C10 C11 1_555 1_555
C19 C20 1_555 1_555

#END
