
#######################################################################
#
#                 Cambridge Crystallographic Data Centre
#                                CCDC 
#
#######################################################################
#
# If this CIF has been generated from an entry in the Cambridge 
# Structural Database, then it will include bibliographic, chemical, 
# crystal, experimental, refinement or atomic coordinate data resulting 
# from the CCDC's data processing and validation procedures.
#
#######################################################################

data_HOGYAD
_chemical_formula_moiety         'C10 H8 O1 S1'
_chemical_name_systematic        4-Phenyl-2-thiophenone
_symmetry_cell_setting           monoclinic
_symmetry_space_group_name_H-M   'P 21/n'
_symmetry_Int_Tables_number      14
_space_group_name_Hall           '-P 2yn'
loop_
_symmetry_equiv_pos_site_id
_symmetry_equiv_pos_as_xyz
1 x,y,z
2 1/2-x,1/2+y,1/2-z
3 -x,-y,-z
4 1/2+x,1/2-y,1/2+z
_cell_length_a                   7.961(1)
_cell_length_b                   6.408(1)
_cell_length_c                   16.413(3)
_cell_angle_alpha                90
_cell_angle_beta                 96.61(1)
_cell_angle_gamma                90
_cell_volume                     831.728
_exptl_crystal_colour            brown
_exptl_crystal_description       plate
_chemical_melting_point          '133-135 deg.C'
_cell_formula_units_Z            4
loop_
_atom_site_label
_atom_site_type_symbol
_atom_site_fract_x
_atom_site_fract_y
_atom_site_fract_z
S1 S 0.6438(1) 0.2090(1) 0.3006(1)
O1 O 0.5188(3) 0.5461(3) 0.3654(1)
C1 C 0.5846(3) 0.3750(4) 0.3792(2)
C2 C 0.6296(3) 0.2781(4) 0.4583(1)
C3 C 0.7056(3) 0.0923(4) 0.4574(1)
C4 C 0.7266(3) 0.0125(4) 0.3733(1)
C5 C 0.7686(3) -0.0324(4) 0.5298(1)
C6 C 0.8342(3) -0.2321(4) 0.5210(2)
C7 C 0.8946(3) -0.3473(4) 0.5895(2)
C8 C 0.8902(3) -0.2691(5) 0.6672(2)
C9 C 0.8234(3) -0.0723(4) 0.6767(2)
C10 C 0.7638(3) 0.0442(4) 0.6094(2)
H1 H 0.6065(3) 0.3426(4) 0.5079(1)
H2 H 0.6641(3) -0.1202(4) 0.3628(1)
H3 H 0.8477(3) -0.0132(4) 0.3683(1)
H4 H 0.8374(3) -0.2891(4) 0.4678(2)
H5 H 0.9398(3) -0.4825(4) 0.5827(2)
H6 H 0.9324(3) -0.3491(5) 0.7138(2)
H7 H 0.8187(3) -0.0175(4) 0.7301(2)
H8 H 0.7185(3) 0.1791(4) 0.6169(2)
loop_
_geom_bond_atom_site_label_1
_geom_bond_atom_site_label_2
_geom_bond_site_symmetry_1
_geom_bond_site_symmetry_2
S1 C1 1_555 1_555
O1 C1 1_555 1_555
C1 C2 1_555 1_555
C2 C3 1_555 1_555
C3 C4 1_555 1_555
C4 S1 1_555 1_555
C5 C3 1_555 1_555
C6 C5 1_555 1_555
C7 C6 1_555 1_555
C8 C7 1_555 1_555
C9 C8 1_555 1_555
C10 C5 1_555 1_555
H1 C2 1_555 1_555
H2 C4 1_555 1_555
H3 C4 1_555 1_555
H4 C6 1_555 1_555
H5 C7 1_555 1_555
H6 C8 1_555 1_555
H7 C9 1_555 1_555
H8 C10 1_555 1_555
C9 C10 1_555 1_555

#END
