
#######################################################################
#
#                 Cambridge Crystallographic Data Centre
#                                CCDC 
#
#######################################################################
#
# If this CIF has been generated from an entry in the Cambridge 
# Structural Database, then it will include bibliographic, chemical, 
# crystal, experimental, refinement or atomic coordinate data resulting 
# from the CCDC's data processing and validation procedures.
#
#######################################################################

data_HOGYIM
_chemical_formula_moiety         'C21 H36 N4 S3,H2 O1'
_chemical_name_systematic        
'tris((2-(4S)-(4-isopropyl-1,3-thiazolinyl))methyl)amine monohydrate'
_symmetry_cell_setting           hexagonal
_symmetry_space_group_name_H-M   'P 63'
_symmetry_Int_Tables_number      173
_space_group_name_Hall           'P 6c'
loop_
_symmetry_equiv_pos_site_id
_symmetry_equiv_pos_as_xyz
1 x,y,z
2 -y,x-y,z
3 -x+y,-x,z
4 -x,-y,1/2+z
5 y,-x+y,1/2+z
6 x-y,x,1/2+z
_cell_length_a                   15.568(2)
_cell_length_b                   15.568(2)
_cell_length_c                   6.3100(13)
_cell_angle_alpha                90
_cell_angle_beta                 90
_cell_angle_gamma                120
_cell_volume                     1324.42
_exptl_crystal_colour            colorless
_exptl_crystal_description       block
_chemical_melting_point          '94-95.5 deg.C'
_cell_formula_units_Z            2
_exptl_crystal_recrystallization_method 'hexane/ethyl acetate'
loop_
_atom_site_label
_atom_site_type_symbol
_atom_site_fract_x
_atom_site_fract_y
_atom_site_fract_z
S1 S 0.82513(6) 0.36362(6) -0.13639(13)
C1 C 1.0632(3) 0.3267(3) 0.3546(6)
H1 H 1.1204 0.3939 0.3647
H2 H 1.0840 0.2784 0.3893
H3 H 1.0118 0.3195 0.4544
C2 C 1.0220(2) 0.3083(3) 0.1301(4)
H4 H 0.9664 0.2382 0.1203
C3 C 0.8437(4) 0.3872(5) 0.1342(7)
N1 N 0.9193(4) 0.3925(7) 0.2179(8)
C5 C 0.9366(2) 0.3561(2) -0.1514(5)
H5 H 0.9210 0.2894 -0.1999
H6 H 0.9838 0.4059 -0.2529
C6 C 0.9822(2) 0.3766(3) 0.0722(5)
H7 H 1.0430 0.4434 0.0597
C7 C 1.1042(3) 0.3212(3) -0.0205(6)
H8 H 1.0782 0.3057 -0.1655
H9 H 1.1282 0.2762 0.0212
H10 H 1.1590 0.3899 -0.0142
N3 N 0.6667 0.3333 0.1875(6)
C8 C 0.7677(3) 0.4007(3) 0.2537(6)
H11 H 0.7739 0.3908 0.4067
H12 H 0.7821 0.4697 0.2340
S1A S 0.63638(6) 0.46151(8) -0.13639(13)
S1B S 0.53849(8) 0.17487(6) -0.13639(13)
C1A C 0.6733(3) 0.7365(4) 0.3546(6)
C1B C 0.2635(4) -0.0632(3) 0.3546(6)
H1A H 0.6061 0.7265 0.3647
H1B H 0.2735 -0.1204 0.3647
H2A H 0.7216 0.8056 0.3893
H2B H 0.1944 -0.0840 0.3893
H3A H 0.6805 0.6923 0.4544
H3B H 0.3077 -0.0118 0.4544
C2A C 0.6917(3) 0.7137(4) 0.1301(4)
C2B C 0.2863(4) -0.0220(2) 0.1301(4)
H4A H 0.7618 0.7282 0.1203
H4B H 0.2718 0.0336 0.1203
C3A C 0.6128(5) 0.4565(6) 0.1342(7)
C3B C 0.5435(6) 0.1563(4) 0.1342(7)
N1A N 0.6075(7) 0.5268(8) 0.2179(8)
N1B N 0.4732(8) 0.0807(4) 0.2179(8)
C5A C 0.6439(2) 0.5805(3) -0.1514(5)
C5B C 0.4195(3) 0.0634(2) -0.1514(5)
H5A H 0.7106 0.6316 -0.1999
H5B H 0.3684 0.0790 -0.1999
H6A H 0.5941 0.5779 -0.2529
H6B H 0.4221 0.0162 -0.2529
C6A C 0.6234(3) 0.6056(4) 0.0722(5)
C6B C 0.3944(4) 0.0178(2) 0.0722(5)
H7A H 0.5566 0.5996 0.0597
H7B H 0.4004 -0.0430 0.0597
C7A C 0.6788(3) 0.7830(4) -0.0205(6)
C7B C 0.2170(4) -0.1042(3) -0.0205(6)
H8A H 0.6943 0.7725 -0.1655
H8B H 0.2275 -0.0782 -0.1655
H9A H 0.7238 0.8520 0.0212
H9B H 0.1480 -0.1282 0.0212
H10A H 0.6101 0.7691 -0.0142
H10B H 0.2309 -0.1590 -0.0142
C8A C 0.5993(3) 0.3670(4) 0.2537(6)
C8B C 0.6330(4) 0.2323(3) 0.2537(6)
H11A H 0.6092 0.3831 0.4067
H11B H 0.6169 0.2261 0.4067
H12A H 0.5303 0.3124 0.2340
H12B H 0.6876 0.2179 0.2340
O1 O 1.0000 0.0000 -0.188(5)
C4? C 0.8192(7) 0.3249(12) 0.1521(11)
N2? N 0.8971(8) 0.3383(16) 0.2348(10)
C9? C 0.7203(6) 0.2836(7) 0.2634(13)
H13? H 0.6800 0.2114 0.2360
H14? H 0.7311 0.2935 0.4182
loop_
_geom_bond_atom_site_label_1
_geom_bond_atom_site_label_2
_geom_bond_site_symmetry_1
_geom_bond_site_symmetry_2
S1 C3 1_555 1_555
C1 H1 1_555 1_555
H2 C1 1_555 1_555
H3 C1 1_555 1_555
C2 C1 1_555 1_555
H4 C2 1_555 1_555
C3 N1 1_555 1_555
N1 C6 1_555 1_555
C5 S1 1_555 1_555
H5 C5 1_555 1_555
H6 C5 1_555 1_555
C6 C2 1_555 1_555
H7 C6 1_555 1_555
C7 C2 1_555 1_555
H8 C7 1_555 1_555
H9 C7 1_555 1_555
H10 C7 1_555 1_555
N3 C8 1_555 1_555
C8 C3 1_555 1_555
H11 C8 1_555 1_555
H12 C8 1_555 1_555
S1A C3A 1_555 1_555
S1B C3B 1_555 1_555
C1A H1A 1_555 1_555
C1B H1B 1_555 1_555
H2A C1A 1_555 1_555
H2B C1B 1_555 1_555
H3A C1A 1_555 1_555
H3B C1B 1_555 1_555
C2A C1A 1_555 1_555
C2B C1B 1_555 1_555
H4A C2A 1_555 1_555
H4B C2B 1_555 1_555
C3A N1A 1_555 1_555
C3B N1B 1_555 1_555
N1A C6A 1_555 1_555
N1B C6B 1_555 1_555
C5A S1A 1_555 1_555
C5B S1B 1_555 1_555
H5A C5A 1_555 1_555
H5B C5B 1_555 1_555
H6A C5A 1_555 1_555
H6B C5B 1_555 1_555
C6A C2A 1_555 1_555
C6B C2B 1_555 1_555
H7A C6A 1_555 1_555
H7B C6B 1_555 1_555
C7A C2A 1_555 1_555
C7B C2B 1_555 1_555
H8A C7A 1_555 1_555
H8B C7B 1_555 1_555
H9A C7A 1_555 1_555
H9B C7B 1_555 1_555
H10A C7A 1_555 1_555
H10B C7B 1_555 1_555
C8A N3 1_555 1_555
C8B N3 1_555 1_555
H11A C8A 1_555 1_555
H11B C8B 1_555 1_555
H12A C8A 1_555 1_555
H12B C8B 1_555 1_555
C5 C6 1_555 1_555
C3A C8A 1_555 1_555
C3B C8B 1_555 1_555
C5A C6A 1_555 1_555
C5B C6B 1_555 1_555

#END
