
#######################################################################
#
#                 Cambridge Crystallographic Data Centre
#                                CCDC 
#
#######################################################################
#
# If this CIF has been generated from an entry in the Cambridge 
# Structural Database, then it will include bibliographic, chemical, 
# crystal, experimental, refinement or atomic coordinate data resulting 
# from the CCDC's data processing and validation procedures.
#
#######################################################################

data_HOGZOT
_chemical_formula_moiety         'C24 H20 N1 O1 P1'
_chemical_name_systematic        N-acetyl-8-diphenylphosphino-1-naphthylamine
_symmetry_cell_setting           monoclinic
_symmetry_space_group_name_H-M   'P 21/c'
_symmetry_Int_Tables_number      14
_space_group_name_Hall           '-P 2ybc'
loop_
_symmetry_equiv_pos_site_id
_symmetry_equiv_pos_as_xyz
1 x,y,z
2 -x,1/2+y,1/2-z
3 -x,-y,-z
4 x,1/2-y,1/2+z
_cell_length_a                   11.9598(5)
_cell_length_b                   16.5811(7)
_cell_length_c                   10.5006(4)
_cell_angle_alpha                90
_cell_angle_beta                 111.236(2)
_cell_angle_gamma                90
_cell_volume                     1940.94
_chemical_melting_point          '92-94 deg.C'
_cell_formula_units_Z            4
loop_
_atom_site_label
_atom_site_type_symbol
_atom_site_fract_x
_atom_site_fract_y
_atom_site_fract_z
P1 P 0.68462(4) 1.01017(3) 0.37247(4)
N1 N 0.52324(12) 0.91665(8) 0.15081(13)
H1 H 0.5044 0.9610 0.1806
O1 O 0.50503(15) 0.78051(9) 0.15372(19)
C1 C 0.59415(14) 0.92272(9) 0.06859(16)
C2 C 0.55811(17) 0.88062(11) -0.05209(18)
H2 H 0.4912 0.8473 -0.0745
C3 C 0.6197(2) 0.88671(13) -0.14184(19)
H3 H 0.5952 0.8567 -0.2221
C4 C 0.7152(2) 0.93658(13) -0.11138(19)
H4 H 0.7546 0.9417 -0.1728
C5 C 0.85673(17) 1.03271(12) 0.04033(19)
H5 H 0.8933 1.0382 -0.0237
C6 C 0.90024(17) 1.07420(11) 0.1589(2)
H6 H 0.9660 1.1081 0.1759
C7 C 0.84578(15) 1.06588(11) 0.25620(18)
H7 H 0.8777 1.0941 0.3380
C8 C 0.74736(14) 1.01776(9) 0.23557(16)
C9 C 0.69699(14) 0.97395(9) 0.10798(15)
C10 C 0.75658(16) 0.98113(11) 0.01190(17)
C11 C 0.48215(15) 0.84691(11) 0.18709(19)
C12 C 0.4068(2) 0.85809(15) 0.2720(2)
H8 H 0.3818 0.8064 0.2931
H9 H 0.3374 0.8897 0.2223
H10 H 0.4526 0.8854 0.3552
C13 C 0.77219(14) 1.08362(10) 0.49906(16)
C14 C 0.73377(17) 1.16359(11) 0.47808(19)
H11 H 0.6698 1.1774 0.3993
C15 C 0.78935(19) 1.22231(12) 0.5725(2)
H12 H 0.7642 1.2756 0.5560
C16 C 0.88220(18) 1.20225(12) 0.6914(2)
H13 H 0.9189 1.2418 0.7558
C17 C 0.92040(17) 1.12340(12) 0.71452(19)
H14 H 0.9830 1.1098 0.7948
C18 C 0.86619(15) 1.06437(11) 0.61910(17)
H15 H 0.8929 1.0113 0.6354
C19 C 0.74573(14) 0.91310(10) 0.44948(15)
C20 C 0.69533(17) 0.87706(11) 0.53528(18)
H16 H 0.6344 0.9035 0.5540
C21 C 0.73420(19) 0.80245(12) 0.5934(2)
H17 H 0.7007 0.7796 0.6522
C22 C 0.82160(19) 0.76247(12) 0.5644(2)
H18 H 0.8463 0.7117 0.6015
C23 C 0.87319(19) 0.79700(13) 0.4803(2)
H19 H 0.9337 0.7698 0.4619
C24 C 0.83593(17) 0.87188(12) 0.4229(2)
H20 H 0.8715 0.8948 0.3661
loop_
_geom_bond_atom_site_label_1
_geom_bond_atom_site_label_2
_geom_bond_site_symmetry_1
_geom_bond_site_symmetry_2
P1 C8 1_555 1_555
N1 H1 1_555 1_555
O1 C11 1_555 1_555
C1 N1 1_555 1_555
C2 C1 1_555 1_555
H2 C2 1_555 1_555
C3 C2 1_555 1_555
H3 C3 1_555 1_555
C4 C3 1_555 1_555
H4 C4 1_555 1_555
C5 H5 1_555 1_555
C6 C5 1_555 1_555
H6 C6 1_555 1_555
C7 C6 1_555 1_555
H7 C7 1_555 1_555
C8 C7 1_555 1_555
C9 C1 1_555 1_555
C10 C4 1_555 1_555
C11 N1 1_555 1_555
C12 C11 1_555 1_555
H8 C12 1_555 1_555
H9 C12 1_555 1_555
H10 C12 1_555 1_555
C13 P1 1_555 1_555
C14 C13 1_555 1_555
H11 C14 1_555 1_555
C15 C14 1_555 1_555
H12 C15 1_555 1_555
C16 C15 1_555 1_555
H13 C16 1_555 1_555
C17 C16 1_555 1_555
H14 C17 1_555 1_555
C18 C13 1_555 1_555
H15 C18 1_555 1_555
C19 P1 1_555 1_555
C20 C19 1_555 1_555
H16 C20 1_555 1_555
C21 C20 1_555 1_555
H17 C21 1_555 1_555
C22 C21 1_555 1_555
H18 C22 1_555 1_555
C23 C22 1_555 1_555
H19 C23 1_555 1_555
C24 C19 1_555 1_555
H20 C24 1_555 1_555
C5 C10 1_555 1_555
C8 C9 1_555 1_555
C9 C10 1_555 1_555
C17 C18 1_555 1_555
C23 C24 1_555 1_555

#END
