
#######################################################################
#
#                 Cambridge Crystallographic Data Centre
#                                CCDC 
#
#######################################################################
#
# If this CIF has been generated from an entry in the Cambridge 
# Structural Database, then it will include bibliographic, chemical, 
# crystal, experimental, refinement or atomic coordinate data resulting 
# from the CCDC's data processing and validation procedures.
#
#######################################################################

data_HOHCUE
_chemical_formula_moiety         'C12 H14 F5 N1 O2 S2'
_chemical_name_systematic        
2-methyl-N-(1,1,1,3,3-pentafluoro-4-oxo-4-(2-thienyl)butan-2-yl)propane-2-sulfinamide
_symmetry_cell_setting           monoclinic
_symmetry_space_group_name_H-M   'P 21'
_symmetry_Int_Tables_number      4
_space_group_name_Hall           'P 2yb'
loop_
_symmetry_equiv_pos_site_id
_symmetry_equiv_pos_as_xyz
1 x,y,z
2 -x,1/2+y,-z
_cell_length_a                   6.2550(18)
_cell_length_b                   18.1500(12)
_cell_length_c                   16.4300(12)
_cell_angle_alpha                90
_cell_angle_beta                 96.804(3)
_cell_angle_gamma                90
_cell_volume                     1852.13
_cell_formula_units_Z            4
loop_
_atom_site_label
_atom_site_type_symbol
_atom_site_fract_x
_atom_site_fract_y
_atom_site_fract_z
C1 C 0.6835(7) 0.5244(3) 0.1294(3)
H1 H 0.6897 0.5230 0.0731
C2 C 0.4981(7) 0.5041(3) 0.1726(3)
H2 H 0.3667 0.4897 0.1448
C3 C 0.5345(7) 0.5083(3) 0.2615(3)
H3 H 0.4315 0.4968 0.2959
C4 C 0.7549(7) 0.5329(3) 0.2903(3)
C5 C 0.8551(7) 0.5468(3) 0.3745(3)
C6 C 0.7494(8) 0.5369(2) 0.4531(3)
C7 C 0.6895(8) 0.6068(3) 0.5027(3)
H4 H 0.8217 0.6354 0.5166
C8 C 0.5915(8) 0.5947(3) 0.5797(3)
C9 C 0.4752(8) 0.7737(3) 0.3341(3)
C10 C 0.5772(8) 0.7385(3) 0.2701(3)
H5 H 0.6568 0.6963 0.2921
H6 H 0.6734 0.7726 0.2486
H7 H 0.4693 0.7230 0.2271
C11 C 0.2135(8) 0.7667(3) 0.3280(3)
H8 H 0.1561 0.7562 0.2724
H9 H 0.1543 0.8122 0.3450
H10 H 0.1762 0.7275 0.3630
C12 C 0.4951(8) 0.8607(3) 0.3284(3)
H11 H 0.6443 0.8743 0.3328
H12 H 0.4295 0.8831 0.3722
H13 H 0.4234 0.8774 0.2768
F1 F 0.8894(4) 0.50007(15) 0.50814(15)
F2 F 0.5685(4) 0.49677(15) 0.43620(15)
F3 F 0.3872(4) 0.57516(16) 0.56477(16)
F4 F 0.5906(4) 0.65689(16) 0.62531(16)
F5 F 0.6882(4) 0.54683(16) 0.63374(16)
N1 N 0.5386(6) 0.6527(2) 0.4404(2)
H14 H 0.4020 0.6439 0.4498
O1 O 1.0470(5) 0.5692(2) 0.39011(19)
O2 O 0.4553(5) 0.78937(18) 0.50122(19)
S1 S 0.89670(18) 0.55267(7) 0.20778(7)
S2 S 0.58043(18) 0.75128(7) 0.44052(7)
C13 C 0.9486(7) 0.3227(3) 0.3835(3)
H15 H 0.9464 0.3208 0.4400
C14 C 1.1370(7) 0.3406(3) 0.3457(3)
H16 H 1.2685 0.3539 0.3744
C15 C 1.0956(7) 0.3354(3) 0.2541(3)
H17 H 1.2025 0.3423 0.2200
C16 C 0.8672(6) 0.3181(2) 0.2224(3)
C17 C 0.7516(7) 0.3087(3) 0.1426(3)
C18 C 0.8702(7) 0.3181(3) 0.0672(3)
C19 C 1.0239(8) 0.2504(3) 0.0565(3)
H18 H 1.1469 0.2532 0.0993
C20 C 1.1086(7) 0.2526(3) -0.0272(3)
C21 C 0.8426(7) 0.0452(3) 0.1501(3)
C22 C 0.7360(7) 0.0914(3) 0.2145(3)
H19 H 0.7822 0.1418 0.2124
H20 H 0.7781 0.0719 0.2683
H21 H 0.5822 0.0891 0.2024
C23 C 0.9733(8) -0.0210(3) 0.1932(3)
H22 H 0.9164 -0.0330 0.2434
H23 H 1.1220 -0.0074 0.2051
H24 H 0.9612 -0.0631 0.1576
C24 C 0.6743(7) 0.0232(3) 0.0742(3)
H25 H 0.6365 -0.0278 0.0783
H26 H 0.7372 0.0310 0.0243
H27 H 0.5475 0.0530 0.0739
F6 F 0.9919(4) 0.38177(15) 0.07147(15)
F7 F 0.7255(4) 0.32852(15) 0.00038(15)
F8 F 1.1822(4) 0.31998(15) -0.04931(14)
F9 F 1.2779(4) 0.20660(15) -0.02807(15)
F10 F 0.9536(4) 0.22863(16) -0.08682(15)
N2 N 0.9048(6) 0.1768(2) 0.0663(2)
H28 H 0.8358 0.1621 0.0179
O3 O 0.5567(5) 0.29794(18) 0.12443(19)
O4 O 1.1451(5) 0.0601(2) 0.0414(2)
S3 S 0.71930(19) 0.30452(7) 0.31142(7)
S4 S 1.07026(18) 0.10398(7) 0.10945(7)
loop_
_geom_bond_atom_site_label_1
_geom_bond_atom_site_label_2
_geom_bond_site_symmetry_1
_geom_bond_site_symmetry_2
C1 H1 1_555 1_555
C2 C1 1_555 1_555
H2 C2 1_555 1_555
C3 C2 1_555 1_555
H3 C3 1_555 1_555
C4 C3 1_555 1_555
C5 C4 1_555 1_555
C6 C5 1_555 1_555
C7 C6 1_555 1_555
H4 C7 1_555 1_555
C8 C7 1_555 1_555
C9 C10 1_555 1_555
C10 H5 1_555 1_555
H6 C10 1_555 1_555
H7 C10 1_555 1_555
C11 C9 1_555 1_555
H8 C11 1_555 1_555
H9 C11 1_555 1_555
H10 C11 1_555 1_555
C12 C9 1_555 1_555
H11 C12 1_555 1_555
H12 C12 1_555 1_555
H13 C12 1_555 1_555
F1 C6 1_555 1_555
F2 C6 1_555 1_555
F3 C8 1_555 1_555
F4 C8 1_555 1_555
F5 C8 1_555 1_555
N1 C7 1_555 1_555
H14 N1 1_555 1_555
O1 C5 1_555 1_555
O2 S2 1_555 1_555
S1 C1 1_555 1_555
S2 C9 1_555 1_555
C13 H15 1_555 1_555
C14 C13 1_555 1_555
H16 C14 1_555 1_555
C15 C14 1_555 1_555
H17 C15 1_555 1_555
C16 C15 1_555 1_555
C17 C16 1_555 1_555
C18 C17 1_555 1_555
C19 C18 1_555 1_555
H18 C19 1_555 1_555
C20 C19 1_555 1_555
C21 C22 1_555 1_555
C22 H19 1_555 1_555
H20 C22 1_555 1_555
H21 C22 1_555 1_555
C23 C21 1_555 1_555
H22 C23 1_555 1_555
H23 C23 1_555 1_555
H24 C23 1_555 1_555
C24 C21 1_555 1_555
H25 C24 1_555 1_555
H26 C24 1_555 1_555
H27 C24 1_555 1_555
F6 C18 1_555 1_555
F7 C18 1_555 1_555
F8 C20 1_555 1_555
F9 C20 1_555 1_555
F10 C20 1_555 1_555
N2 C19 1_555 1_555
H28 N2 1_555 1_555
O3 C17 1_555 1_555
O4 S4 1_555 1_555
S3 C13 1_555 1_555
S4 C21 1_555 1_555
C4 S1 1_555 1_555
N1 S2 1_555 1_555
C16 S3 1_555 1_555
N2 S4 1_555 1_555

#END
