
#######################################################################
#
#                 Cambridge Crystallographic Data Centre
#                                CCDC 
#
#######################################################################
#
# If this CIF has been generated from an entry in the Cambridge 
# Structural Database, then it will include bibliographic, chemical, 
# crystal, experimental, refinement or atomic coordinate data resulting 
# from the CCDC's data processing and validation procedures.
#
#######################################################################

data_HOHHUI
_chemical_compound_source        
'seeds of Alpinia katsumadai Hayata (Zingiberaceae)'
_chemical_name_common            'Sumadain A'
_chemical_formula_moiety         'C30 H34 O4'
_chemical_name_systematic        
1-[3-hydroxy-6,9-dimethyl-6-(4-methylpent-3-en-1-yl)-6a,7,8,9,10,10a-hexahydro-6H-1,9-epoxybenzo[c]chromen-4-yl]-3-phenylprop-2-en-1-one
_chemical_properties_biological  
'The seeds of Alpinia katsumadai Hayata have been used in traditional Chinese medicine as an antiemetic agent and for the treatment of stomach disorders'
_symmetry_cell_setting           monoclinic
_symmetry_space_group_name_H-M   'P 21/c'
_symmetry_Int_Tables_number      14
_space_group_name_Hall           '-P 2ybc'
loop_
_symmetry_equiv_pos_site_id
_symmetry_equiv_pos_as_xyz
1 x,y,z
2 -x,1/2+y,1/2-z
3 -x,-y,-z
4 x,1/2-y,1/2+z
_cell_length_a                   14.1177(14)
_cell_length_b                   12.0014(12)
_cell_length_c                   15.630(2)
_cell_angle_alpha                90
_cell_angle_beta                 111.327(2)
_cell_angle_gamma                90
_cell_volume                     2466.87
_cell_formula_units_Z            4
loop_
_atom_site_label
_atom_site_type_symbol
_atom_site_fract_x
_atom_site_fract_y
_atom_site_fract_z
O1 O 0.6255(2) 1.1740(3) 0.4983(2)
O2 O 0.8014(2) 1.2527(3) 0.5484(2)
H1 H 0.7527 1.2160 0.5156
O3 O 0.88565(18) 1.5429(2) 0.76092(18)
O4 O 0.54445(17) 1.4490(2) 0.62470(18)
C1 C 0.6641(3) 1.3448(3) 0.5770(2)
C2 C 0.7681(3) 1.3357(4) 0.5883(3)
C3 C 0.8416(3) 1.4060(4) 0.6461(3)
H2 H 0.9097 1.3968 0.6540
C4 C 0.8123(3) 1.4900(3) 0.6918(3)
C5 C 0.7102(3) 1.5136(3) 0.6711(2)
C6 C 0.6395(3) 1.4362(3) 0.6222(2)
C7 C 0.5930(3) 1.2583(3) 0.5266(3)
C8 C 0.4834(3) 1.2651(3) 0.5053(2)
H3 H 0.4548 1.3331 0.5113
C9 C 0.4236(3) 1.1763(3) 0.4775(3)
H4 H 0.4565 1.1093 0.4770
C10 C 0.3139(3) 1.1706(3) 0.4480(2)
C11 C 0.2540(3) 1.2604(3) 0.4558(3)
H5 H 0.2853 1.3254 0.4850
C12 C 0.1507(3) 1.2538(4) 0.4211(3)
H6 H 0.1125 1.3142 0.4274
C13 C 0.1015(3) 1.1592(4) 0.3766(3)
H7 H 0.0309 1.1563 0.3517
C14 C 0.1579(3) 1.0699(4) 0.3697(3)
H8 H 0.1256 1.0054 0.3405
C15 C 0.2630(3) 1.0747(3) 0.4059(3)
H9 H 0.3004 1.0124 0.4020
C16 C 0.6753(3) 1.5996(3) 0.7225(2)
H10 H 0.6207 1.6446 0.6795
C17 C 0.7630(3) 1.6738(3) 0.7774(3)
H11 H 0.7441 1.7181 0.8206
H12 H 0.7802 1.7240 0.7366
C18 C 0.8536(3) 1.6010(3) 0.8286(3)
C19 C 0.8222(3) 1.5188(4) 0.8882(3)
H13 H 0.8196 1.5592 0.9411
H14 H 0.8757 1.4635 0.9110
C20 C 0.7213(3) 1.4567(3) 0.8447(3)
H15 H 0.7019 1.4259 0.8934
H16 H 0.7314 1.3948 0.8090
C21 C 0.6338(3) 1.5288(3) 0.7824(3)
H17 H 0.6121 1.5790 0.8213
C22 C 0.5385(3) 1.4659(3) 0.7171(3)
C23 C 0.4417(3) 1.5369(3) 0.6942(3)
H18 H 0.4595 1.6137 0.6877
H19 H 0.3939 1.5130 0.6349
C24 C 0.3889(4) 1.5342(5) 0.7604(4)
H20 H 0.4359 1.5581 0.8200
H21 H 0.3695 1.4579 0.7665
C25 C 0.2958(4) 1.6063(4) 0.7335(4)
H22 H 0.3032 1.6747 0.7632
C26 C 0.2007(4) 1.5832(4) 0.6698(5)
C27 C 0.1697(5) 1.4778(5) 0.6227(6)
H23 H 0.1606 1.4864 0.5591
H24 H 0.1069 1.4543 0.6276
H25 H 0.2212 1.4228 0.6502
C28 C 0.1177(4) 1.6658(5) 0.6549(5)
H26 H 0.1434 1.7290 0.6942
H27 H 0.0634 1.6322 0.6690
H28 H 0.0928 1.6896 0.5920
C29 C 0.9470(3) 1.6666(4) 0.8844(3)
H29 H 1.0008 1.6162 0.9170
H30 H 0.9314 1.7132 0.9274
H31 H 0.9681 1.7122 0.8441
C30 C 0.5234(3) 1.3504(3) 0.7495(3)
H32 H 0.4600 1.3203 0.7089
H33 H 0.5225 1.3550 0.8106
H34 H 0.5781 1.3028 0.7497
loop_
_geom_bond_atom_site_label_1
_geom_bond_atom_site_label_2
_geom_bond_site_symmetry_1
_geom_bond_site_symmetry_2
O1 C7 1_555 1_555
O2 H1 1_555 1_555
O3 C4 1_555 1_555
O4 C6 1_555 1_555
C1 C2 1_555 1_555
C2 O2 1_555 1_555
C3 C2 1_555 1_555
H2 C3 1_555 1_555
C4 C3 1_555 1_555
C5 C4 1_555 1_555
C6 C1 1_555 1_555
C7 C1 1_555 1_555
C8 C7 1_555 1_555
H3 C8 1_555 1_555
C9 C8 1_555 1_555
H4 C9 1_555 1_555
C10 C9 1_555 1_555
C11 C10 1_555 1_555
H5 C11 1_555 1_555
C12 C11 1_555 1_555
H6 C12 1_555 1_555
C13 C12 1_555 1_555
H7 C13 1_555 1_555
C14 C13 1_555 1_555
H8 C14 1_555 1_555
C15 C10 1_555 1_555
H9 C15 1_555 1_555
C16 C5 1_555 1_555
H10 C16 1_555 1_555
C17 C16 1_555 1_555
H11 C17 1_555 1_555
H12 C17 1_555 1_555
C18 O3 1_555 1_555
C19 C18 1_555 1_555
H13 C19 1_555 1_555
H14 C19 1_555 1_555
C20 C19 1_555 1_555
H15 C20 1_555 1_555
H16 C20 1_555 1_555
C21 C16 1_555 1_555
H17 C21 1_555 1_555
C22 O4 1_555 1_555
C23 C22 1_555 1_555
H18 C23 1_555 1_555
H19 C23 1_555 1_555
C24 C23 1_555 1_555
H20 C24 1_555 1_555
H21 C24 1_555 1_555
C25 C24 1_555 1_555
H22 C25 1_555 1_555
C26 C25 1_555 1_555
C27 C26 1_555 1_555
H23 C27 1_555 1_555
H24 C27 1_555 1_555
H25 C27 1_555 1_555
C28 C26 1_555 1_555
H26 C28 1_555 1_555
H27 C28 1_555 1_555
H28 C28 1_555 1_555
C29 C18 1_555 1_555
H29 C29 1_555 1_555
H30 C29 1_555 1_555
H31 C29 1_555 1_555
C30 C22 1_555 1_555
H32 C30 1_555 1_555
H33 C30 1_555 1_555
H34 C30 1_555 1_555
C5 C6 1_555 1_555
C14 C15 1_555 1_555
C17 C18 1_555 1_555
C20 C21 1_555 1_555
C21 C22 1_555 1_555

#END
