
#######################################################################
#
#                 Cambridge Crystallographic Data Centre
#                                CCDC 
#
#######################################################################
#
# If this CIF has been generated from an entry in the Cambridge 
# Structural Database, then it will include bibliographic, chemical, 
# crystal, experimental, refinement or atomic coordinate data resulting 
# from the CCDC's data processing and validation procedures.
#
#######################################################################

data_HOHHUH
_chemical_formula_moiety         'C16 H12 N2 S2'
_chemical_name_systematic        
1-(2-Thienylmethyl)-2-(2-thienyl)benzimidazole
_symmetry_cell_setting           monoclinic
_symmetry_space_group_name_H-M   'P 21/n'
_symmetry_Int_Tables_number      14
_space_group_name_Hall           '-P 2yn'
loop_
_symmetry_equiv_pos_site_id
_symmetry_equiv_pos_as_xyz
1 x,y,z
2 1/2-x,1/2+y,1/2-z
3 -x,-y,-z
4 1/2+x,1/2-y,1/2+z
_cell_length_a                   8.953(3)
_cell_length_b                   9.150(1)
_cell_length_c                   17.436(2)
_cell_angle_alpha                90
_cell_angle_beta                 93.73(2)
_cell_angle_gamma                90
_cell_volume                     1425.33
_exptl_crystal_colour            yellow
_chemical_melting_point          143-144deg.C
_cell_formula_units_Z            4
loop_
_atom_site_label
_atom_site_type_symbol
_atom_site_fract_x
_atom_site_fract_y
_atom_site_fract_z
S1 S 0.7818(2) 0.2118(2) 0.91638(8)
S2 S 0.8117(2) 0.0752(2) 0.52093(9)
N1 N 0.5821(5) 0.1755(4) 0.7067(2)
N2 N 0.5286(5) 0.3086(5) 0.8092(2)
C1 C 0.6277(6) 0.2268(5) 0.7778(3)
C2 C 0.4074(6) 0.3146(6) 0.7538(3)
C3 C 0.4379(5) 0.2341(6) 0.6906(3)
C4 C 0.3402(6) 0.2197(6) 0.6267(3)
C5 C 0.2041(6) 0.2910(7) 0.6294(3)
C6 C 0.1716(6) 0.3728(8) 0.6931(4)
C7 C 0.2725(6) 0.3838(7) 0.7566(3)
C8 C 0.7710(6) 0.1933(5) 0.8178(3)
C9 C 0.9112(5) 0.1521(6) 0.7908(3)
C10 C 1.0176(6) 0.1394(7) 0.8542(4)
C11 C 0.9642(6) 0.1674(7) 0.9229(3)
C12 C 0.6582(6) 0.0784(5) 0.6554(3)
C13 C 0.7359(5) 0.1647(5) 0.5949(2)
C14 C 0.7542(5) 0.3169(5) 0.5904(2)
C15 C 0.8310(6) 0.3490(6) 0.5226(3)
C16 C 0.8682(6) 0.2318(7) 0.4819(3)
H1 H 0.3647 0.1640 0.5832
H2 H 0.1322 0.2838 0.5869
H3 H 0.0782 0.4222 0.6933
H4 H 0.2486 0.4379 0.8007
H5 H 0.9305 0.1357 0.7385
H6 H 1.1190 0.1130 0.8486
H7 H 1.0232 0.1625 0.9701
H8 H 0.7306 0.0224 0.6847
H9 H 0.5866 0.0147 0.6304
H10 H 0.7215 0.3866 0.6261
H11 H 0.8537 0.4462 0.5078
H12 H 0.9206 0.2367 0.4363
loop_
_geom_bond_atom_site_label_1
_geom_bond_atom_site_label_2
_geom_bond_site_symmetry_1
_geom_bond_site_symmetry_2
S1 C8 1_555 1_555
S2 C13 1_555 1_555
N1 C1 1_555 1_555
N2 C1 1_555 1_555
C1 C8 1_555 1_555
C2 N2 1_555 1_555
C3 N1 1_555 1_555
C4 C3 1_555 1_555
C5 C4 1_555 1_555
C6 C5 1_555 1_555
C7 C2 1_555 1_555
C8 C9 1_555 1_555
C9 C10 1_555 1_555
C10 C11 1_555 1_555
C11 S1 1_555 1_555
C12 N1 1_555 1_555
C13 C12 1_555 1_555
C14 C13 1_555 1_555
C15 C14 1_555 1_555
C16 S2 1_555 1_555
H1 C4 1_555 1_555
H2 C5 1_555 1_555
H3 C6 1_555 1_555
H4 C7 1_555 1_555
H5 C9 1_555 1_555
H6 C10 1_555 1_555
H7 C11 1_555 1_555
H8 C12 1_555 1_555
H9 C12 1_555 1_555
H10 C14 1_555 1_555
H11 C15 1_555 1_555
H12 C16 1_555 1_555
C2 C3 1_555 1_555
C6 C7 1_555 1_555
C15 C16 1_555 1_555

#END
