
#######################################################################
#
#                 Cambridge Crystallographic Data Centre
#                                CCDC 
#
#######################################################################
#
# If this CIF has been generated from an entry in the Cambridge 
# Structural Database, then it will include bibliographic, chemical, 
# crystal, experimental, refinement or atomic coordinate data resulting 
# from the CCDC's data processing and validation procedures.
#
#######################################################################

data_HOHPIF
_chemical_formula_moiety         'C96 Cl20'
_chemical_name_systematic        Icosachloro-C96fullerene
_symmetry_cell_setting           triclinic
_symmetry_space_group_name_H-M   'P -1'
_symmetry_Int_Tables_number      2
_space_group_name_Hall           '-P 1'
loop_
_symmetry_equiv_pos_site_id
_symmetry_equiv_pos_as_xyz
1 x,y,z
2 -x,-y,-z
_cell_length_a                   13.0830(10)
_cell_length_b                   14.0180(10)
_cell_length_c                   20.4550(10)
_cell_angle_alpha                80.165(6)
_cell_angle_beta                 87.390(9)
_cell_angle_gamma                62.703(6)
_cell_volume                     3282.35
_exptl_crystal_colour            orange
_exptl_crystal_description       plate
_cell_formula_units_Z            2
loop_
_atom_site_label
_atom_site_type_symbol
_atom_site_fract_x
_atom_site_fract_y
_atom_site_fract_z
Cl1 Cl 0.90209(8) 0.58627(8) 0.13584(5)
Cl2 Cl 1.06662(9) 0.34348(9) 0.07646(6)
Cl3 Cl 1.28506(9) 0.24057(9) -0.00099(6)
Cl4 Cl 1.30941(9) 0.06287(9) 0.11476(6)
Cl5 Cl 1.06851(8) 0.31156(8) 0.43090(5)
Cl6 Cl 0.88956(7) 0.57264(7) 0.31206(5)
Cl7 Cl 1.06952(9) 0.74651(8) 0.01431(5)
Cl8 Cl 1.56040(9) -0.00040(8) 0.06997(6)
Cl9 Cl 1.73394(9) -0.16989(8) 0.32892(6)
Cl10 Cl 1.18510(8) 0.47915(9) 0.53396(5)
Cl11 Cl 1.00581(8) 0.75163(8) 0.40440(5)
Cl12 Cl 1.19408(9) 0.89402(8) 0.08801(6)
Cl13 Cl 1.84504(8) -0.08527(8) 0.15685(6)
Cl14 Cl 1.77465(8) -0.07619(8) 0.47845(5)
Cl15 Cl 1.15412(9) 0.90338(8) 0.30745(6)
Cl16 Cl 1.51028(10) 0.78929(9) 0.10951(8)
Cl17 Cl 1.96762(8) 0.10303(8) 0.13759(5)
Cl18 Cl 1.92303(8) 0.12440(9) 0.46676(6)
Cl19 Cl 1.47527(10) 0.79957(9) 0.32941(7)
Cl20 Cl 2.02185(8) 0.20804(8) 0.29287(6)
C1 C 1.1815(3) 0.3468(3) 0.1803(2)
C2 C 1.2551(3) 0.2523(3) 0.2246(2)
C3 C 1.2549(3) 0.2517(3) 0.2940(2)
C4 C 1.1738(3) 0.3474(3) 0.3184(2)
C5 C 1.1051(3) 0.4418(3) 0.2741(2)
C6 C 1.1086(3) 0.4419(3) 0.2046(2)
C7 C 1.0499(3) 0.5518(3) 0.1563(2)
C8 C 1.1231(3) 0.5499(3) 0.0968(2)
C9 C 1.1937(3) 0.4565(3) 0.0778(2)
C10 C 1.1913(3) 0.3504(3) 0.1048(2)
C11 C 1.3078(3) 0.2632(3) 0.0800(2)
C12 C 1.3668(3) 0.1538(3) 0.1282(2)
C13 C 1.3466(3) 0.1644(3) 0.1990(2)
C14 C 1.4367(3) 0.0859(3) 0.2394(2)
C15 C 1.4451(3) 0.0858(3) 0.3078(2)
C16 C 1.3499(3) 0.1648(3) 0.3367(2)
C17 C 1.3683(3) 0.1822(3) 0.4011(2)
C18 C 1.2903(3) 0.2803(3) 0.4236(2)
C19 C 1.1740(3) 0.3519(3) 0.3918(2)
C20 C 1.1535(3) 0.4616(3) 0.4051(2)
C21 C 1.0920(3) 0.5512(3) 0.3636(2)
C22 C 1.0375(3) 0.5489(3) 0.3007(2)
C23 C 1.0484(3) 0.6384(3) 0.2547(2)
C24 C 1.0564(3) 0.6385(3) 0.1873(2)
C25 C 1.1138(3) 0.6892(3) 0.1503(2)
C26 C 1.1506(3) 0.6451(3) 0.0863(2)
C27 C 1.2773(3) 0.6120(3) 0.0780(2)
C28 C 1.3540(3) 0.5079(3) 0.0635(2)
C29 C 1.3100(3) 0.4325(3) 0.0594(2)
C30 C 1.3780(3) 0.3224(3) 0.0699(2)
C31 C 1.4993(3) 0.2770(3) 0.0806(2)
C32 C 1.5630(3) 0.1667(3) 0.1118(2)
C33 C 1.5044(3) 0.0942(3) 0.1277(2)
C34 C 1.5369(4) 0.0398(3) 0.1990(2)
C35 C 1.6427(4) 0.0012(3) 0.2257(2)
C36 C 1.6636(3) -0.0226(3) 0.3008(2)
C37 C 1.5575(3) 0.0307(3) 0.3400(2)
C38 C 1.5741(3) 0.0540(3) 0.3997(2)
C39 C 1.4792(3) 0.1306(3) 0.4303(2)
C40 C 1.5188(3) 0.1863(3) 0.4673(2)
C41 C 1.4471(3) 0.2953(3) 0.4734(2)
C42 C 1.3287(3) 0.3345(3) 0.4576(2)
C43 C 1.2442(3) 0.4516(3) 0.4529(2)
C44 C 1.2983(3) 0.5251(3) 0.4258(2)
C45 C 1.2317(3) 0.6214(3) 0.3827(2)
C46 C 1.1111(3) 0.6514(3) 0.3591(2)
C47 C 1.0959(3) 0.6911(3) 0.2848(2)
C48 C 1.1547(3) 0.7417(3) 0.2487(2)
C49 C 1.1651(3) 0.7410(3) 0.1799(2)
C50 C 1.2565(3) 0.7618(3) 0.1423(2)
C51 C 1.3226(3) 0.6713(3) 0.1022(2)
C52 C 1.4409(3) 0.6317(3) 0.1114(2)
C53 C 1.5196(3) 0.5298(3) 0.0970(2)
C54 C 1.4752(3) 0.4657(3) 0.0725(2)
C55 C 1.5472(3) 0.3495(3) 0.0770(2)
C56 C 1.6634(3) 0.3066(3) 0.0976(2)
C57 C 1.7270(3) 0.1974(3) 0.1262(2)
C58 C 1.6761(3) 0.1290(3) 0.1370(2)
C59 C 1.7319(3) 0.0278(3) 0.1905(2)
C60 C 1.7783(3) 0.0575(3) 0.2467(2)
C61 C 1.7436(3) 0.0267(3) 0.3078(2)
C62 C 1.7513(3) 0.0677(3) 0.3636(2)
C63 C 1.6855(3) 0.0503(3) 0.4236(2)
C64 C 1.6392(3) 0.1452(3) 0.4602(2)
C65 C 1.6855(3) 0.2147(3) 0.4561(2)
C66 C 1.6129(3) 0.3287(3) 0.4562(2)
C67 C 1.4938(3) 0.3712(3) 0.4641(2)
C68 C 1.4201(3) 0.4853(3) 0.4335(2)
C69 C 1.4723(3) 0.5450(3) 0.3959(2)
C70 C 1.4020(3) 0.6433(3) 0.3546(2)
C71 C 1.2840(3) 0.6811(3) 0.3481(2)
C72 C 1.2331(3) 0.7671(3) 0.2869(2)
C73 C 1.3422(3) 0.7524(3) 0.2512(2)
C74 C 1.3522(3) 0.7492(3) 0.1870(2)
C75 C 1.4680(3) 0.6908(3) 0.1565(2)
C76 C 1.5639(3) 0.6134(3) 0.2057(2)
C77 C 1.6562(3) 0.5213(3) 0.1815(2)
C78 C 1.6354(3) 0.4809(3) 0.1263(2)
C79 C 1.7074(3) 0.3724(3) 0.1207(2)
C80 C 1.8019(3) 0.3026(3) 0.1654(2)
C81 C 1.8282(3) 0.1848(3) 0.1685(2)
C82 C 1.8213(3) 0.1333(3) 0.2391(2)
C83 C 1.8328(3) 0.1742(3) 0.2951(2)
C84 C 1.7978(3) 0.1412(3) 0.3577(2)
C85 C 1.7913(3) 0.1998(3) 0.4162(2)
C86 C 1.7673(3) 0.3157(3) 0.3911(2)
C87 C 1.6625(3) 0.3896(3) 0.4169(2)
C88 C 1.5955(3) 0.4947(3) 0.3832(2)
C89 C 1.6335(3) 0.5288(3) 0.3209(2)
C90 C 1.5536(3) 0.6171(3) 0.2729(2)
C91 C 1.4443(3) 0.6983(3) 0.2997(3)
C92 C 1.7346(3) 0.4526(3) 0.2966(2)
C93 C 1.7457(3) 0.4485(3) 0.2270(2)
C94 C 1.8199(3) 0.3386(3) 0.2188(2)
C95 C 1.8663(3) 0.2665(3) 0.2854(2)
C96 C 1.8028(3) 0.3457(3) 0.3327(2)
loop_
_geom_bond_atom_site_label_1
_geom_bond_atom_site_label_2
_geom_bond_site_symmetry_1
_geom_bond_site_symmetry_2
Cl1 C7 1_555 1_555
Cl2 C10 1_555 1_555
Cl3 C11 1_555 1_555
Cl4 C12 1_555 1_555
Cl5 C19 1_555 1_555
Cl6 C22 1_555 1_555
Cl7 C26 1_555 1_555
Cl8 C33 1_555 1_555
Cl9 C36 1_555 1_555
Cl10 C43 1_555 1_555
Cl11 C46 1_555 1_555
Cl12 C50 1_555 1_555
Cl13 C59 1_555 1_555
Cl14 C63 1_555 1_555
Cl15 C72 1_555 1_555
Cl16 C75 1_555 1_555
Cl17 C81 1_555 1_555
Cl18 C85 1_555 1_555
Cl19 C91 1_555 1_555
Cl20 C95 1_555 1_555
C1 C2 1_555 1_555
C2 C3 1_555 1_555
C3 C4 1_555 1_555
C4 C5 1_555 1_555
C5 C6 1_555 1_555
C6 C1 1_555 1_555
C7 C6 1_555 1_555
C8 C7 1_555 1_555
C9 C8 1_555 1_555
C10 C1 1_555 1_555
C11 C10 1_555 1_555
C12 C11 1_555 1_555
C13 C2 1_555 1_555
C14 C13 1_555 1_555
C15 C14 1_555 1_555
C16 C3 1_555 1_555
C17 C16 1_555 1_555
C18 C17 1_555 1_555
C19 C4 1_555 1_555
C20 C19 1_555 1_555
C21 C20 1_555 1_555
C22 C5 1_555 1_555
C23 C22 1_555 1_555
C24 C7 1_555 1_555
C25 C24 1_555 1_555
C26 C8 1_555 1_555
C27 C26 1_555 1_555
C28 C27 1_555 1_555
C29 C9 1_555 1_555
C30 C11 1_555 1_555
C31 C30 1_555 1_555
C32 C31 1_555 1_555
C33 C12 1_555 1_555
C34 C14 1_555 1_555
C35 C34 1_555 1_555
C36 C35 1_555 1_555
C37 C15 1_555 1_555
C38 C37 1_555 1_555
C39 C17 1_555 1_555
C40 C39 1_555 1_555
C41 C40 1_555 1_555
C42 C18 1_555 1_555
C43 C20 1_555 1_555
C44 C43 1_555 1_555
C45 C44 1_555 1_555
C46 C21 1_555 1_555
C47 C23 1_555 1_555
C48 C47 1_555 1_555
C49 C25 1_555 1_555
C50 C49 1_555 1_555
C51 C27 1_555 1_555
C52 C51 1_555 1_555
C53 C52 1_555 1_555
C54 C28 1_555 1_555
C55 C31 1_555 1_555
C56 C55 1_555 1_555
C57 C56 1_555 1_555
C58 C32 1_555 1_555
C59 C35 1_555 1_555
C60 C59 1_555 1_555
C61 C36 1_555 1_555
C62 C61 1_555 1_555
C63 C38 1_555 1_555
C64 C40 1_555 1_555
C65 C64 1_555 1_555
C66 C65 1_555 1_555
C67 C41 1_555 1_555
C68 C44 1_555 1_555
C69 C68 1_555 1_555
C70 C69 1_555 1_555
C71 C45 1_555 1_555
C72 C48 1_555 1_555
C73 C72 1_555 1_555
C74 C50 1_555 1_555
C75 C52 1_555 1_555
C76 C75 1_555 1_555
C77 C76 1_555 1_555
C78 C53 1_555 1_555
C79 C56 1_555 1_555
C80 C79 1_555 1_555
C81 C57 1_555 1_555
C82 C60 1_555 1_555
C83 C82 1_555 1_555
C84 C62 1_555 1_555
C85 C65 1_555 1_555
C86 C85 1_555 1_555
C87 C66 1_555 1_555
C88 C69 1_555 1_555
C89 C88 1_555 1_555
C90 C76 1_555 1_555
C91 C70 1_555 1_555
C92 C89 1_555 1_555
C93 C77 1_555 1_555
C94 C80 1_555 1_555
C95 C83 1_555 1_555
C96 C86 1_555 1_555
C9 C10 1_555 1_555
C12 C13 1_555 1_555
C15 C16 1_555 1_555
C18 C19 1_555 1_555
C21 C22 1_555 1_555
C23 C24 1_555 1_555
C25 C26 1_555 1_555
C28 C29 1_555 1_555
C29 C30 1_555 1_555
C32 C33 1_555 1_555
C33 C34 1_555 1_555
C36 C37 1_555 1_555
C38 C39 1_555 1_555
C41 C42 1_555 1_555
C42 C43 1_555 1_555
C45 C46 1_555 1_555
C46 C47 1_555 1_555
C48 C49 1_555 1_555
C50 C51 1_555 1_555
C53 C54 1_555 1_555
C54 C55 1_555 1_555
C57 C58 1_555 1_555
C58 C59 1_555 1_555
C60 C61 1_555 1_555
C62 C63 1_555 1_555
C63 C64 1_555 1_555
C66 C67 1_555 1_555
C67 C68 1_555 1_555
C70 C71 1_555 1_555
C71 C72 1_555 1_555
C73 C74 1_555 1_555
C73 C91 1_555 1_555
C74 C75 1_555 1_555
C77 C78 1_555 1_555
C78 C79 1_555 1_555
C80 C81 1_555 1_555
C81 C82 1_555 1_555
C83 C84 1_555 1_555
C84 C85 1_555 1_555
C86 C87 1_555 1_555
C87 C88 1_555 1_555
C89 C90 1_555 1_555
C90 C91 1_555 1_555
C92 C93 1_555 1_555
C92 C96 1_555 1_555
C93 C94 1_555 1_555
C94 C95 1_555 1_555
C95 C96 1_555 1_555

#END
