
#######################################################################
#
#                 Cambridge Crystallographic Data Centre
#                                CCDC 
#
#######################################################################
#
# If this CIF has been generated from an entry in the Cambridge 
# Structural Database, then it will include bibliographic, chemical, 
# crystal, experimental, refinement or atomic coordinate data resulting 
# from the CCDC's data processing and validation procedures.
#
#######################################################################

data_HOHQAY
_chemical_name_common            o-dixanthone
_chemical_formula_moiety         'C20 H10 O4'
_chemical_name_systematic        chromeno[3,2-c]xanthene-5,8-dione
_symmetry_cell_setting           monoclinic
_symmetry_space_group_name_H-M   'P 21/n'
_symmetry_Int_Tables_number      14
_space_group_name_Hall           '-P 2yn'
loop_
_symmetry_equiv_pos_site_id
_symmetry_equiv_pos_as_xyz
1 x,y,z
2 1/2-x,1/2+y,1/2-z
3 -x,-y,-z
4 1/2+x,1/2-y,1/2+z
_cell_length_a                   9.4472(6)
_cell_length_b                   9.5138(5)
_cell_length_c                   16.0049(9)
_cell_angle_alpha                90
_cell_angle_beta                 106.974(7)
_cell_angle_gamma                90
_cell_volume                     1375.84
_exptl_crystal_colour            colorless
_exptl_crystal_description       'thin platelet'
_chemical_melting_point          'above 573 K'
_cell_formula_units_Z            4
loop_
_atom_site_label
_atom_site_type_symbol
_atom_site_fract_x
_atom_site_fract_y
_atom_site_fract_z
C1 C 0.29385(17) -0.04984(16) -0.01829(10)
C2 C 0.20843(18) 0.04687(16) 0.01268(10)
C3 C 0.10038(18) 0.12565(17) -0.04531(10)
C4 C 0.0764(2) 0.10750(18) -0.13587(11)
H1 H 0.0034 0.1594 -0.1753
C5 C 0.1599(2) 0.01415(18) -0.16586(10)
H2 H 0.1437 0.0036 -0.2257
C6 C 0.27011(18) -0.06629(18) -0.10752(10)
C7 C 0.48347(18) -0.21964(16) 0.01763(11)
C8 C 0.58569(18) -0.29014(17) 0.08430(12)
H3 H 0.5941 -0.2705 0.1425
C9 C 0.6748(2) -0.39020(18) 0.06260(13)
H4 H 0.7436 -0.4387 0.1067
C10 C 0.6630(2) -0.41956(19) -0.02480(13)
H5 H 0.7233 -0.4874 -0.0387
C11 C 0.5624(2) -0.34798(18) -0.08975(12)
H6 H 0.5554 -0.3673 -0.1478
C12 C 0.46944(18) -0.24555(17) -0.07025(11)
C13 C 0.16845(18) 0.15584(16) 0.13579(11)
C14 C 0.21330(19) 0.16699(19) 0.22655(11)
H7 H 0.2876 0.1094 0.2604
C15 C 0.1452(2) 0.2651(2) 0.26505(12)
H8 H 0.1741 0.2737 0.3256
C16 C 0.0337(2) 0.3518(2) 0.21480(13)
H9 H -0.0117 0.4175 0.2416
C17 C -0.0084(2) 0.3395(2) 0.12580(13)
H10 H -0.0827 0.3974 0.0923
C18 C 0.05861(18) 0.24092(17) 0.08408(11)
C19 C 0.3631(2) -0.16542(18) -0.13908(11)
C20 C 0.01556(19) 0.23004(18) -0.01162(11)
O1 O 0.39870(13) -0.12075(12) 0.04377(7)
O2 O 0.24236(12) 0.05721(12) 0.10141(7)
O3 O 0.35187(18) -0.17900(18) -0.21678(8)
O4 O -0.08157(16) 0.30266(15) -0.05961(9)
loop_
_geom_bond_atom_site_label_1
_geom_bond_atom_site_label_2
_geom_bond_site_symmetry_1
_geom_bond_site_symmetry_2
C1 C2 1_555 1_555
C2 C3 1_555 1_555
C3 C4 1_555 1_555
C4 H1 1_555 1_555
C5 C4 1_555 1_555
H2 C5 1_555 1_555
C6 C1 1_555 1_555
C7 C8 1_555 1_555
C8 H3 1_555 1_555
C9 C8 1_555 1_555
H4 C9 1_555 1_555
C10 C9 1_555 1_555
H5 C10 1_555 1_555
C11 C10 1_555 1_555
H6 C11 1_555 1_555
C12 C7 1_555 1_555
C13 C14 1_555 1_555
C14 H7 1_555 1_555
C15 C14 1_555 1_555
H8 C15 1_555 1_555
C16 C15 1_555 1_555
H9 C16 1_555 1_555
C17 C16 1_555 1_555
H10 C17 1_555 1_555
C18 C13 1_555 1_555
C19 C6 1_555 1_555
C20 C3 1_555 1_555
O1 C1 1_555 1_555
O2 C2 1_555 1_555
O3 C19 1_555 1_555
O4 C20 1_555 1_555
C5 C6 1_555 1_555
C7 O1 1_555 1_555
C11 C12 1_555 1_555
C12 C19 1_555 1_555
C13 O2 1_555 1_555
C17 C18 1_555 1_555
C18 C20 1_555 1_555

#END
