
#######################################################################
#
#                 Cambridge Crystallographic Data Centre
#                                CCDC 
#
#######################################################################
#
# If this CIF has been generated from an entry in the Cambridge 
# Structural Database, then it will include bibliographic, chemical, 
# crystal, experimental, refinement or atomic coordinate data resulting 
# from the CCDC's data processing and validation procedures.
#
#######################################################################

data_HOHRIF02
_chemical_formula_moiety         'C11 H9 N3 O2'
_chemical_name_systematic        
N'-[(furan-2-yl)methylidene]pyridine-4-carbohydrazide
_symmetry_cell_setting           monoclinic
_symmetry_space_group_name_H-M   'P 21/c'
_symmetry_Int_Tables_number      14
_space_group_name_Hall           '-P 2ybc'
loop_
_symmetry_equiv_pos_site_id
_symmetry_equiv_pos_as_xyz
1 x,y,z
2 -x,1/2+y,1/2-z
3 -x,-y,-z
4 x,1/2-y,1/2+z
_cell_length_a                   10.7170(6)
_cell_length_b                   5.2389(2)
_cell_length_c                   18.1235(9)
_cell_angle_alpha                90
_cell_angle_beta                 94.445(5)
_cell_angle_gamma                90
_cell_volume                     1014.49
_cell_formula_units_Z            4
loop_
_atom_site_label
_atom_site_type_symbol
_atom_site_fract_x
_atom_site_fract_y
_atom_site_fract_z
C1 C 0.9293(2) 0.6507(5) 0.30390(14)
H1 H 0.9961 0.5371 0.3058
C2 C 0.8298(2) 0.6065(4) 0.25223(13)
H2 H 0.8302 0.4663 0.2208
C3 C 0.73012(19) 0.7738(4) 0.24813(11)
C4 C 0.7342(2) 0.9771(4) 0.29640(13)
H3 H 0.6692 1.0950 0.2952
C5 C 0.8379(2) 1.0018(5) 0.34692(13)
H4 H 0.8391 1.1374 0.3801
C6 C 0.6213(2) 0.7198(4) 0.19297(12)
C7 C 0.4270(2) 1.1072(4) 0.07943(12)
H5 H 0.4737 1.2543 0.0898
C8 C 0.3200(2) 1.1224(4) 0.02702(12)
C9 C 0.2731(2) 1.3176(5) -0.01352(14)
H6 H 0.3062 1.4815 -0.0146
C10 C 0.1644(3) 1.2301(6) -0.05444(14)
H7 H 0.1118 1.3243 -0.0873
C11 C 0.1524(3) 0.9888(6) -0.03677(16)
H8 H 0.0882 0.8829 -0.0560
N1 N 0.93503(19) 0.8455(4) 0.35096(11)
N2 N 0.56465(17) 0.9268(3) 0.16272(10)
H9 H 0.5926 1.0764 0.1745
N3 N 0.46090(17) 0.9008(4) 0.11234(10)
O1 O 0.59098(16) 0.5004(3) 0.17760(10)
O2 O 0.24672(17) 0.9142(3) 0.01371(11)
loop_
_geom_bond_atom_site_label_1
_geom_bond_atom_site_label_2
_geom_bond_site_symmetry_1
_geom_bond_site_symmetry_2
C1 H1 1_555 1_555
C2 C1 1_555 1_555
H2 C2 1_555 1_555
C3 C2 1_555 1_555
C4 C3 1_555 1_555
H3 C4 1_555 1_555
C5 C4 1_555 1_555
H4 C5 1_555 1_555
C6 C3 1_555 1_555
C7 H5 1_555 1_555
C8 C7 1_555 1_555
C9 C8 1_555 1_555
H6 C9 1_555 1_555
C10 C9 1_555 1_555
H7 C10 1_555 1_555
C11 C10 1_555 1_555
H8 C11 1_555 1_555
N1 C1 1_555 1_555
N2 C6 1_555 1_555
H9 N2 1_555 1_555
N3 C7 1_555 1_555
O1 C6 1_555 1_555
O2 C8 1_555 1_555
C5 N1 1_555 1_555
C11 O2 1_555 1_555
N2 N3 1_555 1_555

#END
