
#######################################################################
#
#                 Cambridge Crystallographic Data Centre
#                                CCDC 
#
#######################################################################
#
# If this CIF has been generated from an entry in the Cambridge 
# Structural Database, then it will include bibliographic, chemical, 
# crystal, experimental, refinement or atomic coordinate data resulting 
# from the CCDC's data processing and validation procedures.
#
#######################################################################

data_HOHRUT
_chemical_formula_moiety         'C56 H54 B2 S5,0.5(C7 H8)'
_chemical_name_systematic        
"2,2':5',2'':5'',2''':5''',2''''-quinquethiene-5,5''''-diylbis(dimesitylborane) toluene solvate"
_symmetry_cell_setting           monoclinic
_symmetry_space_group_name_H-M   'I 2/a'
_symmetry_Int_Tables_number      15
_space_group_name_Hall           '-I 2ya'
loop_
_symmetry_equiv_pos_site_id
_symmetry_equiv_pos_as_xyz
1 x,y,z
2 1/2-x,y,-z
3 1/2+x,1/2+y,1/2+z
4 -x,1/2+y,1/2-z
5 -x,-y,-z
6 1/2+x,-y,z
7 1/2-x,1/2-y,1/2-z
8 x,1/2-y,1/2+z
_cell_length_a                   23.4872(10)
_cell_length_b                   8.7262(4)
_cell_length_c                   50.1635(19)
_cell_angle_alpha                90
_cell_angle_beta                 98.209(14)
_cell_angle_gamma                90
_cell_volume                     10175.9
_exptl_crystal_colour            orange
_exptl_crystal_description       blade
_cell_formula_units_Z            8
_exptl_crystal_recrystallization_method methanol/toluene
loop_
_atom_site_label
_atom_site_type_symbol
_atom_site_fract_x
_atom_site_fract_y
_atom_site_fract_z
S1 S 0.45248(3) 1.33809(8) 0.352718(14)
S2 S 0.52151(4) 1.18794(9) 0.433741(16)
S3 S 0.53022(4) 0.71796(9) 0.463008(15)
S4 S 0.60094(5) 0.57353(9) 0.543643(17)
S5 S 0.69544(3) 0.16784(9) 0.571263(15)
C1 C 0.46540(12) 1.5329(3) 0.34907(6)
C2 C 0.49158(12) 1.5896(3) 0.37355(6)
H1 H 0.5030 1.6936 0.3761
C3 C 0.49995(12) 1.4807(3) 0.39428(6)
H2 H 0.5169 1.5043 0.4121
C4 C 0.48125(12) 1.3365(3) 0.38616(5)
C5 C 0.48433(12) 1.1953(3) 0.40141(5)
C6 C 0.46208(12) 1.0546(3) 0.39398(6)
H3 H 0.4402 1.0349 0.3769
C7 C 0.47471(12) 0.9415(3) 0.41397(6)
H4 H 0.4616 0.8386 0.4118
C8 C 0.50752(14) 0.9937(3) 0.43675(6)
C9 C 0.5220(3) 0.9167(8) 0.46219(15)
C10 C 0.5360(4) 0.9730(10) 0.48762(17)
H5 H 0.5333 1.0785 0.4920
C11 C 0.5576(4) 0.8632(8) 0.50700(15)
H6 H 0.5710 0.8867 0.5253
C12 C 0.5578(3) 0.7175(8) 0.49680(14)
C13 C 0.58276(13) 0.5719(3) 0.50901(6)
C14 C 0.59136(14) 0.4305(4) 0.49929(6)
H7 H 0.5826 0.4047 0.4808
C15 C 0.61453(14) 0.3247(4) 0.51920(6)
H8 H 0.6236 0.2217 0.5154
C16 C 0.62263(12) 0.3855(3) 0.54440(6)
C17 C 0.64724(12) 0.3179(3) 0.56985(5)
C18 C 0.64060(12) 0.3640(3) 0.59547(6)
H9 H 0.6153 0.4437 0.5991
C19 C 0.67476(13) 0.2820(3) 0.61552(6)
H10 H 0.6751 0.3020 0.6342
C20 C 0.70813(12) 0.1692(3) 0.60623(5)
C21 C 0.47802(12) 1.7795(3) 0.31879(5)
C22 C 0.53781(12) 1.8082(3) 0.32325(5)
C23 C 0.55818(13) 1.9543(3) 0.31837(6)
H11 H 0.5985 1.9722 0.3211
C24 C 0.52154(13) 2.0737(3) 0.30963(6)
C25 C 0.46292(13) 2.0462(3) 0.30588(5)
H12 H 0.4373 2.1278 0.3002
C26 C 0.44057(12) 1.9027(3) 0.31023(5)
C27 C 0.58208(12) 1.6858(3) 0.33200(6)
H13 H 0.5954 1.6959 0.3514
H14 H 0.6148 1.6978 0.3220
H15 H 0.5648 1.5845 0.3283
C28 C 0.54505(14) 2.2300(3) 0.30418(7)
H16 H 0.5662 2.2716 0.3209
H17 H 0.5132 2.2989 0.2975
H18 H 0.5711 2.2209 0.2906
C29 C 0.37594(12) 1.8833(3) 0.30653(6)
H19 H 0.3650 1.7946 0.2949
H20 H 0.3576 1.9757 0.2982
H21 H 0.3633 1.8670 0.3241
C30 C 0.49590(13) 1.5804(3) 0.26769(6)
H22 H 0.4898 1.6915 0.2670
H23 H 0.5061 1.5449 0.2504
H24 H 0.5271 1.5558 0.2822
C31 C 0.41741(12) 1.5252(3) 0.29717(5)
C32 C 0.44140(13) 1.5014(3) 0.27304(6)
C33 C 0.41536(13) 1.4002(3) 0.25360(6)
H25 H 0.4326 1.3837 0.2378
C34 C 0.36521(12) 1.3219(3) 0.25646(6)
C35 C 0.33897(13) 1.3562(3) 0.27885(6)
H26 H 0.3031 1.3099 0.2806
C36 C 0.36376(13) 1.4561(3) 0.29878(6)
C37 C 0.34126(14) 1.2039(4) 0.23622(6)
H27 H 0.3647 1.1107 0.2388
H28 H 0.3419 1.2438 0.2180
H29 H 0.3016 1.1799 0.2386
C38 C 0.32969(14) 1.4971(3) 0.32129(6)
H30 H 0.3539 1.5578 0.3349
H31 H 0.3175 1.4029 0.3295
H32 H 0.2957 1.5568 0.3140
C39 C 0.81023(15) 0.3809(4) 0.63789(6)
H33 H 0.7882 0.4749 0.6395
H34 H 0.7994 0.3370 0.6199
H35 H 0.8514 0.4049 0.6406
C40 C 0.82057(14) 0.2614(4) 0.73589(6)
H36 H 0.8595 0.3044 0.7384
H37 H 0.8193 0.1727 0.7478
H38 H 0.7934 0.3393 0.7403
C41 C 0.77545(12) 0.1182(3) 0.65240(6)
C42 C 0.79748(13) 0.2670(3) 0.65898(6)
C43 C 0.81124(12) 0.3102(3) 0.68575(6)
H39 H 0.8257 0.4105 0.6897
C44 C 0.80443(13) 0.2121(3) 0.70700(6)
C45 C 0.78343(12) 0.0670(3) 0.70040(6)
H40 H 0.7784 -0.0019 0.7145
C46 C 0.76934(12) 0.0179(3) 0.67391(6)
C47 C 0.74578(14) -0.1417(3) 0.66904(6)
H41 H 0.7521 -0.1998 0.6859
H42 H 0.7654 -0.1927 0.6555
H43 H 0.7045 -0.1363 0.6625
C48 C 0.67598(12) -0.1972(3) 0.60230(6)
H44 H 0.6521 -0.1885 0.5847
H45 H 0.6685 -0.1098 0.6136
H46 H 0.6666 -0.2926 0.6110
C49 C 0.87681(14) 0.0371(4) 0.61274(6)
H47 H 0.9161 0.0005 0.6124
H48 H 0.8726 0.0699 0.6310
H49 H 0.8689 0.1238 0.6004
C50 C 0.83800(16) -0.4789(4) 0.56893(7)
H50 H 0.8057 -0.5488 0.5637
H51 H 0.8676 -0.5311 0.5814
H52 H 0.8544 -0.4471 0.5529
C51 C 0.77648(12) -0.0781(3) 0.60818(5)
C52 C 0.73882(12) -0.1985(3) 0.59866(6)
C53 C 0.75986(13) -0.3258(3) 0.58640(6)
H53 H 0.7341 -0.4068 0.5804
C54 C 0.81699(14) -0.3385(4) 0.58251(6)
C55 C 0.85332(13) -0.2185(4) 0.59136(6)
H54 H 0.8924 -0.2239 0.5886
C56 C 0.83487(13) -0.0907(3) 0.60421(6)
B1 B 0.45244(15) 1.6142(4) 0.32152(7)
B2 B 0.75414(15) 0.0669(4) 0.62246(7)
C57 C 0.7342(2) 0.8772(4) 0.49980(11)
C58 C 0.7007(2) 0.9412(6) 0.47748(11)
H55 H 0.6772 0.8773 0.4651
C59 C 0.7016(3) 1.0986(6) 0.47329(11)
H56 H 0.6787 1.1423 0.4580
C60 C 0.7359(3) 1.1920(5) 0.49140(13)
H57 H 0.7365 1.2995 0.4885
C61 C 0.7694(3) 1.1280(6) 0.51370(13)
H58 H 0.7929 1.1919 0.5261
C62 C 0.7686(3) 0.9706(6) 0.51791(11)
H59 H 0.7915 0.9269 0.5332
C63 C 0.7352(4) 0.7018(5) 0.50581(18)
H60 H 0.7061 0.6773 0.5174
H61 H 0.7266 0.6444 0.4888
H62 H 0.7734 0.6720 0.5149
C57A C 0.7658(2) 0.8772(4) 0.50020(11)
C58A C 0.7993(2) 0.9412(6) 0.52252(11)
H55A H 0.8228 0.8773 0.5349
C59A C 0.7984(3) 1.0986(6) 0.52671(11)
H56A H 0.8213 1.1423 0.5420
C60A C 0.7641(3) 1.1920(5) 0.50860(13)
H57A H 0.7635 1.2995 0.5115
C61A C 0.7306(3) 1.1280(6) 0.48630(13)
H58A H 0.7071 1.1919 0.4739
C62A C 0.7314(3) 0.9706(6) 0.48209(11)
H59A H 0.7085 0.9269 0.4668
C63A C 0.7648(4) 0.7018(5) 0.49419(18)
H60A H 0.7939 0.6773 0.4826
H61A H 0.7734 0.6444 0.5112
H62A H 0.7266 0.6720 0.4851
C64? C 0.5407(4) 0.9091(9) 0.45983(16)
C65? C 0.5759(5) 0.9614(9) 0.48047(19)
H63? H 0.5883 1.0652 0.4818
C66? C 0.5970(5) 0.8485(9) 0.49933(17)
H64? H 0.6245 0.8684 0.5147
C67? C 0.5746(3) 0.7067(9) 0.49330(15)
loop_
_geom_bond_atom_site_label_1
_geom_bond_atom_site_label_2
_geom_bond_site_symmetry_1
_geom_bond_site_symmetry_2
S1 C1 1_555 1_555
S2 C5 1_555 1_555
S3 C9 1_555 1_555
S4 C13 1_555 1_555
S5 C17 1_555 1_555
C1 C2 1_555 1_555
C2 H1 1_555 1_555
C3 C2 1_555 1_555
H2 C3 1_555 1_555
C4 S1 1_555 1_555
C5 C4 1_555 1_555
C6 C5 1_555 1_555
H3 C6 1_555 1_555
C7 C6 1_555 1_555
H4 C7 1_555 1_555
C8 S2 1_555 1_555
C9 C8 1_555 1_555
C10 C9 1_555 1_555
H5 C10 1_555 1_555
C11 C10 1_555 1_555
H6 C11 1_555 1_555
C12 S3 1_555 1_555
C13 C12 1_555 1_555
C14 C13 1_555 1_555
H7 C14 1_555 1_555
C15 C14 1_555 1_555
H8 C15 1_555 1_555
C16 S4 1_555 1_555
C17 C16 1_555 1_555
C18 C17 1_555 1_555
H9 C18 1_555 1_555
C19 C18 1_555 1_555
H10 C19 1_555 1_555
C20 S5 1_555 1_555
C21 C22 1_555 1_555
C22 C23 1_555 1_555
C23 H11 1_555 1_555
C24 C23 1_555 1_555
C25 C24 1_555 1_555
H12 C25 1_555 1_555
C26 C21 1_555 1_555
C27 C22 1_555 1_555
H13 C27 1_555 1_555
H14 C27 1_555 1_555
H15 C27 1_555 1_555
C28 C24 1_555 1_555
H16 C28 1_555 1_555
H17 C28 1_555 1_555
H18 C28 1_555 1_555
C29 C26 1_555 1_555
H19 C29 1_555 1_555
H20 C29 1_555 1_555
H21 C29 1_555 1_555
C30 H22 1_555 1_555
H23 C30 1_555 1_555
H24 C30 1_555 1_555
C31 C32 1_555 1_555
C32 C30 1_555 1_555
C33 C32 1_555 1_555
H25 C33 1_555 1_555
C34 C33 1_555 1_555
C35 C34 1_555 1_555
H26 C35 1_555 1_555
C36 C31 1_555 1_555
C37 C34 1_555 1_555
H27 C37 1_555 1_555
H28 C37 1_555 1_555
H29 C37 1_555 1_555
C38 C36 1_555 1_555
H30 C38 1_555 1_555
H31 C38 1_555 1_555
H32 C38 1_555 1_555
C39 H33 1_555 1_555
H34 C39 1_555 1_555
H35 C39 1_555 1_555
C40 H36 1_555 1_555
H37 C40 1_555 1_555
H38 C40 1_555 1_555
C41 C42 1_555 1_555
C42 C39 1_555 1_555
C43 C42 1_555 1_555
H39 C43 1_555 1_555
C44 C40 1_555 1_555
C45 C44 1_555 1_555
H40 C45 1_555 1_555
C46 C41 1_555 1_555
C47 C46 1_555 1_555
H41 C47 1_555 1_555
H42 C47 1_555 1_555
H43 C47 1_555 1_555
C48 H44 1_555 1_555
H45 C48 1_555 1_555
H46 C48 1_555 1_555
C49 H47 1_555 1_555
H48 C49 1_555 1_555
H49 C49 1_555 1_555
C50 H50 1_555 1_555
H51 C50 1_555 1_555
H52 C50 1_555 1_555
C51 C52 1_555 1_555
C52 C48 1_555 1_555
C53 C52 1_555 1_555
H53 C53 1_555 1_555
C54 C50 1_555 1_555
C55 C54 1_555 1_555
H54 C55 1_555 1_555
C56 C49 1_555 1_555
B1 C1 1_555 1_555
B2 C20 1_555 1_555
C57 C58 1_555 1_555
C58 H55 1_555 1_555
C59 C58 1_555 1_555
H56 C59 1_555 1_555
C60 C59 1_555 1_555
H57 C60 1_555 1_555
C61 C60 1_555 1_555
H58 C61 1_555 1_555
C62 C57 1_555 1_555
H59 C62 1_555 1_555
C63 C57 1_555 1_555
H60 C63 1_555 1_555
H61 C63 1_555 1_555
H62 C63 1_555 1_555
C57A C58A 1_555 1_555
C58A H55A 1_555 1_555
C59A C58A 1_555 1_555
H56A C59A 1_555 1_555
C60A C59A 1_555 1_555
H57A C60A 1_555 1_555
C61A C60A 1_555 1_555
H58A C61A 1_555 1_555
C62A C57A 1_555 1_555
H59A C62A 1_555 1_555
C63A C57A 1_555 1_555
H60A C63A 1_555 1_555
H61A C63A 1_555 1_555
H62A C63A 1_555 1_555
C3 C4 1_555 1_555
C7 C8 1_555 1_555
C11 C12 1_555 1_555
C15 C16 1_555 1_555
C19 C20 1_555 1_555
C21 B1 1_555 1_555
C25 C26 1_555 1_555
C31 B1 1_555 1_555
C35 C36 1_555 1_555
C41 B2 1_555 1_555
C43 C44 1_555 1_555
C45 C46 1_555 1_555
C51 C56 1_555 1_555
C51 B2 1_555 1_555
C53 C54 1_555 1_555
C55 C56 1_555 1_555
C61 C62 1_555 1_555
C61A C62A 1_555 1_555

#END
