
#######################################################################
#
#                 Cambridge Crystallographic Data Centre
#                                CCDC 
#
#######################################################################
#
# If this CIF has been generated from an entry in the Cambridge 
# Structural Database, then it will include bibliographic, chemical, 
# crystal, experimental, refinement or atomic coordinate data resulting 
# from the CCDC's data processing and validation procedures.
#
#######################################################################

data_HOHRIH
_chemical_formula_moiety         'C48 H52 B2 S2'
_chemical_name_systematic        
(2,2'-bithiene-5,5'-diyldiethene-2,1-diyl)bis(dimesitylborane)
_symmetry_cell_setting           monoclinic
_symmetry_space_group_name_H-M   'P 21/n'
_symmetry_Int_Tables_number      14
_space_group_name_Hall           '-P 2yn'
loop_
_symmetry_equiv_pos_site_id
_symmetry_equiv_pos_as_xyz
1 x,y,z
2 1/2-x,1/2+y,1/2-z
3 -x,-y,-z
4 1/2+x,1/2-y,1/2+z
_cell_length_a                   7.7765(5)
_cell_length_b                   19.6211(12)
_cell_length_c                   13.4754(9)
_cell_angle_alpha                90
_cell_angle_beta                 95.584(9)
_cell_angle_gamma                90
_cell_volume                     2046.37
_exptl_crystal_colour            yellow
_exptl_crystal_description       trapezoid
_cell_formula_units_Z            2
_exptl_crystal_recrystallization_method hexane
loop_
_atom_site_label
_atom_site_type_symbol
_atom_site_fract_x
_atom_site_fract_y
_atom_site_fract_z
S1 S 0.62292(4) 0.400591(14) 0.52681(2)
C1 C 0.50104(15) 0.46751(6) 0.47456(9)
C2 C 0.41776(17) 0.44891(6) 0.38373(10)
H1 H 0.3451 0.4788 0.3431
C3 C 0.45114(17) 0.38094(7) 0.35713(10)
H2 H 0.4038 0.3606 0.2966
C4 C 0.55893(15) 0.34713(6) 0.42753(9)
C5 C 0.62462(16) 0.27843(6) 0.42359(9)
H3 H 0.5955 0.2533 0.3641
C6 C 0.72424(17) 0.24700(6) 0.49791(9)
H4 H 0.7335 0.2670 0.5624
C7 C 0.76079(15) 0.13441(6) 0.38955(9)
C8 C 0.59574(16) 0.10375(6) 0.37898(9)
C9 C 0.53753(17) 0.06996(6) 0.29083(9)
H5 H 0.4263 0.0495 0.2851
C10 C 0.63823(17) 0.06550(6) 0.21146(9)
C11 C 0.80136(17) 0.09499(6) 0.22238(9)
H6 H 0.8721 0.0921 0.1689
C12 C 0.86443(16) 0.12878(6) 0.30948(9)
C13 C 0.48036(19) 0.10523(8) 0.46305(11)
H7 H 0.4219 0.1495 0.4637
H8 H 0.5505 0.0983 0.5267
H9 H 0.3940 0.0689 0.4532
C14 C 0.57711(19) 0.02890(7) 0.11594(10)
H10 H 0.6471 -0.0121 0.1096
H11 H 0.5890 0.0591 0.0591
H12 H 0.4556 0.0160 0.1171
C15 C 1.04221(18) 0.16084(8) 0.31371(10)
H13 H 1.0318 0.2105 0.3190
H14 H 1.0957 0.1494 0.2529
H15 H 1.1142 0.1434 0.3719
C16 C 0.99268(16) 0.16596(6) 0.55446(9)
C17 C 1.11837(18) 0.21771(6) 0.57422(9)
C18 C 1.26875(17) 0.20470(7) 0.63664(10)
H16 H 1.3515 0.2401 0.6492
C19 C 1.30058(17) 0.14158(7) 0.68090(10)
C20 C 1.17761(17) 0.09071(7) 0.66208(10)
H17 H 1.1977 0.0472 0.6920
C21 C 1.02549(16) 0.10165(6) 0.60038(9)
C22 C 1.1037(2) 0.28795(7) 0.52736(12)
H18 H 1.0394 0.3180 0.5685
H19 H 1.0427 0.2846 0.4604
H20 H 1.2196 0.3066 0.5228
C23 C 1.4655(2) 0.12920(8) 0.74712(13)
H21 H 1.5099 0.0837 0.7340
H22 H 1.4423 0.1324 0.8172
H23 H 1.5516 0.1635 0.7332
C24 C 0.89386(18) 0.04471(7) 0.58950(10)
H24 H 0.7953 0.0564 0.6263
H25 H 0.9468 0.0024 0.6163
H26 H 0.8542 0.0385 0.5188
B1 B 0.82405(18) 0.18002(7) 0.48268(10)
S1B S 0.37708(4) 0.599409(14) 0.47319(2)
C1B C 0.49896(15) 0.53249(6) 0.52544(9)
C2B C 0.58224(17) 0.55109(6) 0.61627(10)
H1B H 0.6549 0.5212 0.6569
C3B C 0.54886(17) 0.61906(7) 0.64287(10)
H2B H 0.5962 0.6394 0.7034
C4B C 0.44107(15) 0.65287(6) 0.57247(9)
C5B C 0.37538(16) 0.72157(6) 0.57641(9)
H3B H 0.4045 0.7467 0.6359
C6B C 0.27576(17) 0.75300(6) 0.50209(9)
H4B H 0.2665 0.7330 0.4376
C7B C 0.23921(15) 0.86559(6) 0.61045(9)
C8B C 0.40426(16) 0.89625(6) 0.62102(9)
C9B C 0.46247(17) 0.93004(6) 0.70917(9)
H5B H 0.5737 0.9505 0.7149
C10B C 0.36177(17) 0.93450(6) 0.78854(9)
C11B C 0.19864(17) 0.90501(6) 0.77762(9)
H6B H 0.1279 0.9079 0.8311
C12B C 0.13557(16) 0.87122(6) 0.69052(9)
C13B C 0.51964(19) 0.89477(8) 0.53695(11)
H7B H 0.5781 0.8505 0.5363
H8B H 0.4495 0.9017 0.4733
H9B H 0.6060 0.9311 0.5468
C14B C 0.42289(19) 0.97110(7) 0.88406(10)
H10B H 0.3529 1.0121 0.8904
H11B H 0.4110 0.9409 0.9409
H12B H 0.5444 0.9840 0.8829
C15B C -0.04221(18) 0.83916(8) 0.68629(10)
H13B H -0.0318 0.7895 0.6810
H14B H -0.0957 0.8506 0.7471
H15B H -0.1142 0.8566 0.6281
C16B C 0.00732(16) 0.83404(6) 0.44554(9)
C17B C -0.11837(18) 0.78229(6) 0.42578(9)
C18B C -0.26875(17) 0.79530(7) 0.36336(10)
H16B H -0.3515 0.7599 0.3508
C19B C -0.30058(17) 0.85842(7) 0.31910(10)
C20B C -0.17761(17) 0.90929(7) 0.33792(10)
H17B H -0.1977 0.9528 0.3080
C21B C -0.02549(16) 0.89835(6) 0.39962(9)
C22B C -0.1037(2) 0.71205(7) 0.47264(12)
H18B H -0.0394 0.6820 0.4315
H19B H -0.0427 0.7154 0.5396
H20B H -0.2196 0.6934 0.4772
C23B C -0.4655(2) 0.87080(8) 0.25288(13)
H21B H -0.5099 0.9163 0.2660
H22B H -0.4423 0.8676 0.1828
H23B H -0.5516 0.8365 0.2668
C24B C 0.10614(18) 0.95529(7) 0.41050(10)
H24B H 0.2047 0.9436 0.3737
H25B H 0.0532 0.9976 0.3837
H26B H 0.1458 0.9615 0.4812
B1B B 0.17595(18) 0.81998(7) 0.51732(10)
loop_
_geom_bond_atom_site_label_1
_geom_bond_atom_site_label_2
_geom_bond_site_symmetry_1
_geom_bond_site_symmetry_2
S1 C1 1_555 1_555
C1 C2 1_555 1_555
C2 H1 1_555 1_555
C3 C2 1_555 1_555
H2 C3 1_555 1_555
C4 S1 1_555 1_555
C5 C4 1_555 1_555
H3 C5 1_555 1_555
C6 C5 1_555 1_555
H4 C6 1_555 1_555
C7 C8 1_555 1_555
C8 C9 1_555 1_555
C9 H5 1_555 1_555
C10 C9 1_555 1_555
C11 C10 1_555 1_555
H6 C11 1_555 1_555
C12 C7 1_555 1_555
C13 C8 1_555 1_555
H7 C13 1_555 1_555
H8 C13 1_555 1_555
H9 C13 1_555 1_555
C14 C10 1_555 1_555
H10 C14 1_555 1_555
H11 C14 1_555 1_555
H12 C14 1_555 1_555
C15 C12 1_555 1_555
H13 C15 1_555 1_555
H14 C15 1_555 1_555
H15 C15 1_555 1_555
C16 C17 1_555 1_555
C17 C18 1_555 1_555
C18 H16 1_555 1_555
C19 C18 1_555 1_555
C20 C19 1_555 1_555
H17 C20 1_555 1_555
C21 C16 1_555 1_555
C22 C17 1_555 1_555
H18 C22 1_555 1_555
H19 C22 1_555 1_555
H20 C22 1_555 1_555
C23 C19 1_555 1_555
H21 C23 1_555 1_555
H22 C23 1_555 1_555
H23 C23 1_555 1_555
C24 C21 1_555 1_555
H24 C24 1_555 1_555
H25 C24 1_555 1_555
H26 C24 1_555 1_555
B1 C6 1_555 1_555
S1B C1B 1_555 1_555
C1B C1 1_555 1_555
C2B C1B 1_555 1_555
H1B C2B 1_555 1_555
C3B C2B 1_555 1_555
H2B C3B 1_555 1_555
C4B S1B 1_555 1_555
C5B C4B 1_555 1_555
H3B C5B 1_555 1_555
C6B C5B 1_555 1_555
H4B C6B 1_555 1_555
C7B C8B 1_555 1_555
C8B C9B 1_555 1_555
C9B H5B 1_555 1_555
C10B C9B 1_555 1_555
C11B C10B 1_555 1_555
H6B C11B 1_555 1_555
C12B C7B 1_555 1_555
C13B C8B 1_555 1_555
H7B C13B 1_555 1_555
H8B C13B 1_555 1_555
H9B C13B 1_555 1_555
C14B C10B 1_555 1_555
H10B C14B 1_555 1_555
H11B C14B 1_555 1_555
H12B C14B 1_555 1_555
C15B C12B 1_555 1_555
H13B C15B 1_555 1_555
H14B C15B 1_555 1_555
H15B C15B 1_555 1_555
C16B C17B 1_555 1_555
C17B C18B 1_555 1_555
C18B H16B 1_555 1_555
C19B C18B 1_555 1_555
C20B C19B 1_555 1_555
H17B C20B 1_555 1_555
C21B C16B 1_555 1_555
C22B C17B 1_555 1_555
H18B C22B 1_555 1_555
H19B C22B 1_555 1_555
H20B C22B 1_555 1_555
C23B C19B 1_555 1_555
H21B C23B 1_555 1_555
H22B C23B 1_555 1_555
H23B C23B 1_555 1_555
C24B C21B 1_555 1_555
H24B C24B 1_555 1_555
H25B C24B 1_555 1_555
H26B C24B 1_555 1_555
B1B C6B 1_555 1_555
C3 C4 1_555 1_555
C7 B1 1_555 1_555
C11 C12 1_555 1_555
C16 B1 1_555 1_555
C20 C21 1_555 1_555
C3B C4B 1_555 1_555
C7B B1B 1_555 1_555
C11B C12B 1_555 1_555
C16B B1B 1_555 1_555
C20B C21B 1_555 1_555

#END
