
#######################################################################
#
#                 Cambridge Crystallographic Data Centre
#                                CCDC 
#
#######################################################################
#
# If this CIF has been generated from an entry in the Cambridge 
# Structural Database, then it will include bibliographic, chemical, 
# crystal, experimental, refinement or atomic coordinate data resulting 
# from the CCDC's data processing and validation procedures.
#
#######################################################################

data_HOHSAA
_chemical_formula_moiety         'C24 H26 B1 Br1 S1'
_chemical_name_systematic        
(E)-(2-(5-bromo-2-thienyl)vinyl)(dimesityl)borane
_symmetry_cell_setting           monoclinic
_symmetry_space_group_name_H-M   'P 21/c'
_symmetry_Int_Tables_number      14
_space_group_name_Hall           '-P 2ybc'
loop_
_symmetry_equiv_pos_site_id
_symmetry_equiv_pos_as_xyz
1 x,y,z
2 -x,1/2+y,1/2-z
3 -x,-y,-z
4 x,1/2-y,1/2+z
_cell_length_a                   9.6593(4)
_cell_length_b                   12.0626(5)
_cell_length_c                   19.2655(7)
_cell_angle_alpha                90
_cell_angle_beta                 103.368(7)
_cell_angle_gamma                90
_cell_volume                     2183.92
_exptl_crystal_colour            colorless
_exptl_crystal_description       tablet
_chemical_melting_point          '404 K'
_cell_formula_units_Z            4
_exptl_crystal_recrystallization_method hexane
loop_
_atom_site_label
_atom_site_type_symbol
_atom_site_fract_x
_atom_site_fract_y
_atom_site_fract_z
Br1 Br 0.17833(3) 0.33420(2) -0.055179(12)
S1 S 0.16414(5) 0.47452(4) 0.07812(3)
C1 C 0.2222(2) 0.46210(18) 0.00079(11)
C2 C 0.2958(3) 0.55108(19) -0.01292(12)
H1 H 0.3355 0.5581 -0.0535
C3 C 0.3064(3) 0.63307(19) 0.04068(12)
H2 H 0.3541 0.7017 0.0396
C4 C 0.2417(2) 0.60448(16) 0.09394(11)
C5 C 0.2400(2) 0.66411(16) 0.15877(11)
H3 H 0.2745 0.7381 0.1620
C6 C 0.1945(2) 0.62520(16) 0.21502(11)
H4 H 0.1463 0.5560 0.2103
C7 C 0.2448(2) 0.81610(16) 0.28633(10)
C8 C 0.1448(2) 0.89049(17) 0.24600(10)
C9 C 0.1762(2) 1.00292(17) 0.24427(11)
H5 H 0.1064 1.0518 0.2179
C10 C 0.3061(2) 1.04554(16) 0.27987(11)
C11 C 0.4053(2) 0.97254(16) 0.31879(11)
H6 H 0.4957 1.0002 0.3430
C12 C 0.3767(2) 0.85988(16) 0.32343(10)
C13 C -0.0014(2) 0.85247(19) 0.20610(14)
H7 H -0.0038 0.7713 0.2040
H8 H -0.0223 0.8826 0.1576
H9 H -0.0728 0.8789 0.2310
C14 C 0.3387(3) 1.16799(17) 0.27758(13)
H10 H 0.2863 1.1992 0.2321
H11 H 0.4411 1.1782 0.2821
H12 H 0.3099 1.2058 0.3170
C15 C 0.4896(2) 0.78695(18) 0.36893(12)
H13 H 0.4603 0.7659 0.4125
H14 H 0.5797 0.8277 0.3815
H15 H 0.5020 0.7200 0.3421
C16 C 0.2213(2) 0.61990(16) 0.35754(10)
C17 C 0.1429(2) 0.65446(16) 0.40707(11)
C18 C 0.1522(2) 0.59630(18) 0.47057(11)
H16 H 0.0970 0.6202 0.5027
C19 C 0.2397(2) 0.50454(18) 0.48821(11)
C20 C 0.3169(2) 0.47041(17) 0.43967(12)
H17 H 0.3777 0.4079 0.4510
C21 C 0.3078(2) 0.52426(16) 0.37491(11)
C22 C 0.0428(2) 0.75224(18) 0.39266(12)
H18 H 0.0944 0.8180 0.3826
H19 H 0.0040 0.7661 0.4345
H20 H -0.0353 0.7359 0.3514
C23 C 0.2508(3) 0.4449(2) 0.55818(13)
H21 H 0.1811 0.3845 0.5517
H22 H 0.2319 0.4971 0.5938
H23 H 0.3468 0.4143 0.5745
C24 C 0.3946(2) 0.47729(17) 0.32541(12)
H24 H 0.3314 0.4372 0.2863
H25 H 0.4666 0.4263 0.3520
H26 H 0.4415 0.5379 0.3059
B1 B 0.2168(2) 0.68693(19) 0.28686(12)
H27? H -0.0621 0.9173 0.1911
H28? H -0.0436 0.8060 0.2375
H29? H 0.0068 0.8096 0.1640
H30? H 0.3254 0.4795 0.5950
H31? H 0.2746 0.3669 0.5528
H32? H 0.1597 0.4497 0.5722
loop_
_geom_bond_atom_site_label_1
_geom_bond_atom_site_label_2
_geom_bond_site_symmetry_1
_geom_bond_site_symmetry_2
Br1 C1 1_555 1_555
S1 C1 1_555 1_555
C1 C2 1_555 1_555
C2 H1 1_555 1_555
C3 C2 1_555 1_555
H2 C3 1_555 1_555
C4 S1 1_555 1_555
C5 C4 1_555 1_555
H3 C5 1_555 1_555
C6 C5 1_555 1_555
H4 C6 1_555 1_555
C7 C8 1_555 1_555
C8 C9 1_555 1_555
C9 H5 1_555 1_555
C10 C9 1_555 1_555
C11 C10 1_555 1_555
H6 C11 1_555 1_555
C12 C7 1_555 1_555
C13 C8 1_555 1_555
H7 C13 1_555 1_555
H8 C13 1_555 1_555
H9 C13 1_555 1_555
C14 C10 1_555 1_555
H10 C14 1_555 1_555
H11 C14 1_555 1_555
H12 C14 1_555 1_555
C15 C12 1_555 1_555
H13 C15 1_555 1_555
H14 C15 1_555 1_555
H15 C15 1_555 1_555
C16 C17 1_555 1_555
C17 C18 1_555 1_555
C18 H16 1_555 1_555
C19 C18 1_555 1_555
C20 C19 1_555 1_555
H17 C20 1_555 1_555
C21 C16 1_555 1_555
C22 C17 1_555 1_555
H18 C22 1_555 1_555
H19 C22 1_555 1_555
H20 C22 1_555 1_555
C23 C19 1_555 1_555
H21 C23 1_555 1_555
H22 C23 1_555 1_555
H23 C23 1_555 1_555
C24 C21 1_555 1_555
H24 C24 1_555 1_555
H25 C24 1_555 1_555
H26 C24 1_555 1_555
B1 C6 1_555 1_555
C3 C4 1_555 1_555
C7 B1 1_555 1_555
C11 C12 1_555 1_555
C16 B1 1_555 1_555
C20 C21 1_555 1_555

#END
