
#######################################################################
#
#                 Cambridge Crystallographic Data Centre
#                                CCDC 
#
#######################################################################
#
# If this CIF has been generated from an entry in the Cambridge 
# Structural Database, then it will include bibliographic, chemical, 
# crystal, experimental, refinement or atomic coordinate data resulting 
# from the CCDC's data processing and validation procedures.
#
#######################################################################

data_HOHYAG
_chemical_name_common            7-epi-Parthenolide
_chemical_formula_moiety         'C15 H20 O3'
_chemical_name_systematic        
1a,5-Dimethyl-8-methylene-2,3,6,7,7a,8,10a,10b-octahydrooxireno[9,10]cyclodeca[1,2-b]furan-9(1aH)-one
_chemical_properties_biological  
'Activity against the cultured acute myeloid leukemia cell line HL-60, rat glioma cell line C6, and human breast cancer cell lines MCF-7 and SUM159.'
_symmetry_cell_setting           orthorhombic
_symmetry_space_group_name_H-M   'P 21 21 21'
_symmetry_Int_Tables_number      19
_space_group_name_Hall           'P 2ac 2ab'
loop_
_symmetry_equiv_pos_site_id
_symmetry_equiv_pos_as_xyz
1 x,y,z
2 1/2+x,1/2-y,-z
3 -x,1/2+y,1/2-z
4 1/2-x,-y,1/2+z
_cell_length_a                   6.1945(19)
_cell_length_b                   10.289(2)
_cell_length_c                   21.907(5)
_cell_angle_alpha                90
_cell_angle_beta                 90
_cell_angle_gamma                90
_cell_volume                     1396.25
_exptl_crystal_colour            colorless
_exptl_crystal_description       prism
_cell_formula_units_Z            4
loop_
_atom_site_label
_atom_site_type_symbol
_atom_site_fract_x
_atom_site_fract_y
_atom_site_fract_z
O1 O 0.5008(3) 0.3330(2) 0.08436(9)
O2 O 0.6104(3) 0.43978(19) 0.20997(7)
O3 O 0.7596(4) 0.4933(3) 0.29962(10)
C1 C 0.2710(5) 0.3554(3) 0.07630(11)
C2 C 0.3979(4) 0.4344(2) 0.11947(10)
H1 H 0.4292 0.5230 0.1057
C3 C 0.3908(4) 0.4176(2) 0.18705(10)
H2 H 0.3510 0.3273 0.1959
C4 C 0.2462(4) 0.5076(2) 0.22604(10)
H3 H 0.1029 0.4689 0.2313
C5 C 0.2252(5) 0.6517(3) 0.20770(13)
H4 H 0.3531 0.6757 0.1848
H5 H 0.2245 0.7035 0.2447
C6 C 0.0256(5) 0.6894(3) 0.16957(14)
H6 H -0.0996 0.6453 0.1862
H7 H 0.0016 0.7822 0.1737
C7 C 0.0430(5) 0.6570(3) 0.10260(14)
C8 C -0.0476(5) 0.5491(3) 0.08097(14)
H8 H -0.1455 0.5079 0.1067
C9 C -0.0104(6) 0.4856(3) 0.01983(14)
H9 H -0.0192 0.5510 -0.0120
H10 H -0.1232 0.4221 0.0125
C10 C 0.2105(5) 0.4182(3) 0.01653(12)
H11 H 0.2070 0.3524 -0.0152
H12 H 0.3197 0.4816 0.0056
C11 C 0.1288(6) 0.2452(3) 0.09695(13)
H13 H 0.1214 0.1806 0.0654
H14 H -0.0136 0.2776 0.1053
H15 H 0.1878 0.2072 0.1333
C12 C 0.3710(5) 0.5014(3) 0.28519(10)
C13 C 0.5990(5) 0.4791(3) 0.26912(12)
C14 C 0.3047(6) 0.5143(4) 0.34228(13)
H16 H 0.4036 0.5093 0.3741
H17 H 0.1593 0.5282 0.3505
C15 C 0.1784(7) 0.7479(4) 0.06534(19)
H18 H 0.1779 0.7202 0.0235
H19 H 0.3237 0.7475 0.0806
H20 H 0.1203 0.8342 0.0681
loop_
_geom_bond_atom_site_label_1
_geom_bond_atom_site_label_2
_geom_bond_site_symmetry_1
_geom_bond_site_symmetry_2
O1 C1 1_555 1_555
O2 C3 1_555 1_555
O3 C13 1_555 1_555
C1 C2 1_555 1_555
C2 O1 1_555 1_555
H1 C2 1_555 1_555
C3 C2 1_555 1_555
H2 C3 1_555 1_555
C4 C3 1_555 1_555
H3 C4 1_555 1_555
C5 C4 1_555 1_555
H4 C5 1_555 1_555
H5 C5 1_555 1_555
C6 C5 1_555 1_555
H6 C6 1_555 1_555
H7 C6 1_555 1_555
C7 C6 1_555 1_555
C8 C7 1_555 1_555
H8 C8 1_555 1_555
C9 C8 1_555 1_555
H9 C9 1_555 1_555
H10 C9 1_555 1_555
C10 C1 1_555 1_555
H11 C10 1_555 1_555
H12 C10 1_555 1_555
C11 C1 1_555 1_555
H13 C11 1_555 1_555
H14 C11 1_555 1_555
H15 C11 1_555 1_555
C12 C4 1_555 1_555
C13 O2 1_555 1_555
C14 C12 1_555 1_555
H16 C14 1_555 1_555
H17 C14 1_555 1_555
C15 C7 1_555 1_555
H18 C15 1_555 1_555
H19 C15 1_555 1_555
H20 C15 1_555 1_555
C9 C10 1_555 1_555
C12 C13 1_555 1_555

#END
