
#######################################################################
#
#                 Cambridge Crystallographic Data Centre
#                                CCDC 
#
#######################################################################
#
# If this CIF has been generated from an entry in the Cambridge 
# Structural Database, then it will include bibliographic, chemical, 
# crystal, experimental, refinement or atomic coordinate data resulting 
# from the CCDC's data processing and validation procedures.
#
#######################################################################

data_HOJGUK
_chemical_formula_moiety         'C26 H25 N1 S1 Se1 2+,2(C1 F3 O3 S1 1-)'
_chemical_name_systematic        
'(Diphenyl-\l^4^-selanyl)((methylimino)(diphenyl)-\l^6^-sulfanyl)methane bis(trifluoromethanesulfonate)'
_symmetry_cell_setting           monoclinic
_symmetry_space_group_name_H-M   'P 21/a'
_symmetry_Int_Tables_number      14
_space_group_name_Hall           '-P 2yab'
loop_
_symmetry_equiv_pos_site_id
_symmetry_equiv_pos_as_xyz
1 x,y,z
2 1/2-x,1/2+y,-z
3 -x,-y,-z
4 1/2+x,1/2-y,z
_cell_length_a                   16.457(5)
_cell_length_b                   11.971(4)
_cell_length_c                   16.620(6)
_cell_angle_alpha                90
_cell_angle_beta                 109.472(13)
_cell_angle_gamma                90
_cell_volume                     3086.98
_exptl_crystal_colour            colorless
_exptl_crystal_description       block
_chemical_melting_point          '476-477 K'
_cell_formula_units_Z            4
_exptl_crystal_recrystallization_method 'methanol/diethyl ether'
loop_
_atom_site_label
_atom_site_type_symbol
_atom_site_fract_x
_atom_site_fract_y
_atom_site_fract_z
C1 C 0.09440(15) 0.2948(2) 0.26155(15)
H1 H 0.0730(18) 0.232(2) 0.2796(19)
H2 H 0.0517(18) 0.347(2) 0.2292(18)
Se1 Se 0.162080(15) 0.23741(2) 0.192758(15)
S1 S 0.17200(3) 0.35737(4) 0.35549(4)
N1 N 0.26101(13) 0.30742(19) 0.38213(15)
C2 C 0.06803(16) 0.1946(2) 0.09132(16)
C3 C -0.01346(17) 0.1694(2) 0.09251(18)
H3 H -0.0268 0.1730 0.1438
C4 C -0.07563(19) 0.1385(3) 0.0153(2)
H4 H -0.1325 0.1212 0.0138
C5 C -0.0553(2) 0.1328(3) -0.05851(19)
H5 H -0.0981 0.1108 -0.1104
C6 C 0.0261(2) 0.1586(3) -0.05774(19)
H6 H 0.0392 0.1554 -0.1092
C7 C 0.08957(19) 0.1895(3) 0.01809(18)
H7 H 0.1463 0.2067 0.0193
C8 C 0.18833(16) 0.3785(2) 0.15050(16)
C9 C 0.27524(17) 0.4028(3) 0.16676(19)
H8 H 0.3192 0.3521 0.1971
C10 C 0.2950(2) 0.5035(3) 0.1370(2)
H9 H 0.3536 0.5225 0.1472
C11 C 0.2315(2) 0.5761(3) 0.0930(2)
H10 H 0.2467 0.6445 0.0728
C12 C 0.1446(2) 0.5512(3) 0.07752(19)
H11 H 0.1010 0.6025 0.0476
C13 C 0.12296(17) 0.4506(2) 0.10644(17)
H12 H 0.0643 0.4315 0.0962
C14 C 0.18049(16) 0.49889(19) 0.32943(16)
C15 C 0.10558(17) 0.5624(2) 0.30303(17)
H13 H 0.0513 0.5300 0.2975
C16 C 0.1124(2) 0.6745(2) 0.28501(19)
H14 H 0.0623 0.7201 0.2663
C17 C 0.1919(2) 0.7192(2) 0.2943(2)
H15 H 0.1964 0.7965 0.2834
C18 C 0.2649(2) 0.6549(3) 0.3191(2)
H16 H 0.3189 0.6874 0.3234
C19 C 0.26071(18) 0.5419(2) 0.33799(18)
H17 H 0.3109 0.4965 0.3560
C20 C 0.11867(16) 0.35990(19) 0.43266(16)
C21 C 0.1655(2) 0.4145(2) 0.50823(17)
H18 H 0.2190 0.4491 0.5138
C22 C 0.1330(2) 0.4172(3) 0.5742(2)
H19 H 0.1636 0.4548 0.6258
C23 C 0.0560(2) 0.3656(3) 0.5655(2)
H20 H 0.0336 0.3677 0.6113
C24 C 0.0107(2) 0.3106(3) 0.4911(2)
H21 H -0.0418 0.2742 0.4868
C25 C 0.04096(17) 0.3078(2) 0.42246(18)
H22 H 0.0095 0.2716 0.3706
C26 C 0.27191(19) 0.1919(3) 0.4161(2)
H23 H 0.2712 0.1924 0.4748
H24 H 0.3271 0.1618 0.4154
H25 H 0.2247 0.1450 0.3806
C27 C 0.06470(19) -0.0429(2) 0.40742(18)
F1 F -0.00485(13) -0.06587(17) 0.42767(12)
F2 F 0.11471(13) -0.13346(16) 0.42454(12)
F3 F 0.10800(13) 0.03919(17) 0.45843(11)
S2 S 0.03497(4) -0.00410(5) 0.29554(4)
O1 O 0.11583(14) 0.02061(19) 0.28406(15)
O2 O -0.01907(13) 0.09302(15) 0.28939(13)
O3 O -0.00908(14) -0.10208(16) 0.25287(13)
C28 C -0.1709(2) 0.5724(3) 0.1604(2)
F4 F -0.23816(15) 0.5876(3) 0.18677(17)
F5 F -0.19530(14) 0.60512(17) 0.07959(14)
F6 F -0.10949(16) 0.64022(18) 0.20647(17)
S3 S -0.13696(4) 0.42715(6) 0.17392(4)
O4 O -0.06531(12) 0.42611(18) 0.14298(15)
O5 O -0.11337(17) 0.4099(2) 0.26415(15)
O6 O -0.21119(14) 0.3669(2) 0.12125(15)
loop_
_geom_bond_atom_site_label_1
_geom_bond_atom_site_label_2
_geom_bond_site_symmetry_1
_geom_bond_site_symmetry_2
C1 H1 1_555 1_555
H2 C1 1_555 1_555
Se1 C1 1_555 1_555
S1 C1 1_555 1_555
N1 S1 1_555 1_555
C2 Se1 1_555 1_555
C3 C2 1_555 1_555
H3 C3 1_555 1_555
C4 C3 1_555 1_555
H4 C4 1_555 1_555
C5 C4 1_555 1_555
H5 C5 1_555 1_555
C6 C5 1_555 1_555
H6 C6 1_555 1_555
C7 C2 1_555 1_555
H7 C7 1_555 1_555
C8 Se1 1_555 1_555
C9 C8 1_555 1_555
H8 C9 1_555 1_555
C10 C9 1_555 1_555
H9 C10 1_555 1_555
C11 C10 1_555 1_555
H10 C11 1_555 1_555
C12 C11 1_555 1_555
H11 C12 1_555 1_555
C13 C8 1_555 1_555
H12 C13 1_555 1_555
C14 S1 1_555 1_555
C15 C14 1_555 1_555
H13 C15 1_555 1_555
C16 C15 1_555 1_555
H14 C16 1_555 1_555
C17 C16 1_555 1_555
H15 C17 1_555 1_555
C18 C17 1_555 1_555
H16 C18 1_555 1_555
C19 C14 1_555 1_555
H17 C19 1_555 1_555
C20 S1 1_555 1_555
C21 C20 1_555 1_555
H18 C21 1_555 1_555
C22 C21 1_555 1_555
H19 C22 1_555 1_555
C23 C22 1_555 1_555
H20 C23 1_555 1_555
C24 C23 1_555 1_555
H21 C24 1_555 1_555
C25 C20 1_555 1_555
H22 C25 1_555 1_555
C26 N1 1_555 1_555
H23 C26 1_555 1_555
H24 C26 1_555 1_555
H25 C26 1_555 1_555
C27 F1 1_555 1_555
F2 C27 1_555 1_555
F3 C27 1_555 1_555
S2 C27 1_555 1_555
O1 S2 1_555 1_555
O2 S2 1_555 1_555
O3 S2 1_555 1_555
C28 F4 1_555 1_555
F5 C28 1_555 1_555
F6 C28 1_555 1_555
S3 C28 1_555 1_555
O4 S3 1_555 1_555
O5 S3 1_555 1_555
O6 S3 1_555 1_555
C6 C7 1_555 1_555
C12 C13 1_555 1_555
C18 C19 1_555 1_555
C24 C25 1_555 1_555

#END
