
#######################################################################
#
#                 Cambridge Crystallographic Data Centre
#                                CCDC 
#
#######################################################################
#
# If this CIF has been generated from an entry in the Cambridge 
# Structural Database, then it will include bibliographic, chemical, 
# crystal, experimental, refinement or atomic coordinate data resulting 
# from the CCDC's data processing and validation procedures.
#
#######################################################################

data_HOJMOK
_chemical_formula_moiety         'C42 H60 O6'
_chemical_name_systematic        
'methyl 5-((9-hydroxy-14-isopropyl-15-methoxy-2,6,6-trimethyl-18-methylene-13,16-dioxopentacyclo[8.6.2.0^1,12^.0^2,7^.0^8,12^]octadec-14-en-17-yl)methyl)-1,4a-dimethyl-6-methylenedecahydronaphthalene-1-carboxylate'
_symmetry_cell_setting           orthorhombic
_symmetry_space_group_name_H-M   'P 21 21 21'
_symmetry_Int_Tables_number      19
_space_group_name_Hall           'P 2ac 2ab'
loop_
_symmetry_equiv_pos_site_id
_symmetry_equiv_pos_as_xyz
1 x,y,z
2 1/2-x,-y,1/2+z
3 -x,1/2+y,1/2-z
4 1/2+x,1/2-y,-z
_cell_length_a                   9.7753(11)
_cell_length_b                   12.6238(15)
_cell_length_c                   30.737(4)
_cell_angle_alpha                90
_cell_angle_beta                 90
_cell_angle_gamma                90
_cell_volume                     3792.99
_exptl_crystal_colour            colorless
_exptl_crystal_description       prismatic
_cell_formula_units_Z            4
loop_
_atom_site_label
_atom_site_type_symbol
_atom_site_fract_x
_atom_site_fract_y
_atom_site_fract_z
O1 O 0.5347(2) -0.06670(16) 0.77285(5)
O2 O 0.5861(2) -0.19159(14) 0.93098(6)
O3 O 0.5562(3) 0.10328(17) 1.01853(5)
O4 O 0.36654(16) 0.16806(13) 0.95919(5)
O5 O 0.7259(2) 0.61101(15) 0.75710(6)
O6 O 0.8553(2) 0.73746(14) 0.78409(6)
C1 C 0.3397(2) -0.04598(16) 0.84702(6)
H1 H 0.3504 0.0102 0.8253
C2 C 0.2223(2) -0.11684(19) 0.82916(7)
C3 C 0.0961(3) -0.0453(2) 0.82610(9)
H2 H 0.1073 0.0001 0.8009
H3 H 0.0173 -0.0901 0.8206
C4 C 0.0630(2) 0.0241(2) 0.86447(9)
H4 H 0.0268 -0.0199 0.8877
H5 H -0.0080 0.0737 0.8561
C5 C 0.1850(2) 0.08599(19) 0.88183(8)
H6 H 0.1597 0.1207 0.9088
H7 H 0.2104 0.1403 0.8610
C6 C 0.30709(19) 0.01307(16) 0.88989(6)
C7 C 0.45042(19) 0.06528(15) 0.90029(6)
C8 C 0.5476(2) -0.03032(16) 0.89243(6)
C9 C 0.4848(2) -0.09112(16) 0.85331(6)
H8 H 0.4806 -0.1672 0.8595
C10 C 0.5868(2) -0.06886(19) 0.81560(7)
H9 H 0.6558 -0.1252 0.8165
C11 C 0.6588(2) 0.03389(19) 0.82988(7)
H10 H 0.7421 0.0470 0.8130
C12 C 0.6908(2) 0.00628(19) 0.87667(7)
H11 H 0.7230 0.0674 0.8928
H12 H 0.7578 -0.0502 0.8787
C13 C 0.5762(2) -0.09575(19) 0.93253(7)
C14 C 0.6069(3) -0.0369(2) 0.97280(7)
C15 C 0.5473(3) 0.0568(2) 0.97915(7)
C16 C 0.4493(2) 0.10331(17) 0.94698(6)
C17 C 0.5610(2) 0.12590(17) 0.82743(6)
C18 C 0.4883(2) 0.16084(15) 0.86894(6)
H13 H 0.4018 0.1935 0.8600
C19 C 0.2547(3) -0.1545(2) 0.78302(8)
H14 H 0.1798 -0.1961 0.7722
H15 H 0.3362 -0.1968 0.7834
H16 H 0.2683 -0.0942 0.7645
C20 C 0.1948(3) -0.2168(2) 0.85610(9)
H17 H 0.1392 -0.1990 0.8808
H18 H 0.2801 -0.2460 0.8659
H19 H 0.1478 -0.2680 0.8385
C21 C 0.2706(2) -0.0613(2) 0.92831(7)
H20 H 0.1793 -0.0878 0.9246
H21 H 0.2762 -0.0227 0.9551
H22 H 0.3336 -0.1196 0.9290
C22 C 0.6971(5) -0.0869(3) 1.00707(11)
H23 H 0.7058 -0.0253 1.0263
C23 C 0.8412(11) -0.0926(9) 0.9925(4)
H24 H 0.8966 -0.1216 1.0153
H25 H 0.8730 -0.0227 0.9854
H26 H 0.8474 -0.1371 0.9672
C24 C 0.6415(12) -0.1590(11) 1.0380(3)
H27 H 0.6028 -0.1201 1.0619
H28 H 0.7127 -0.2046 1.0487
H29 H 0.5716 -0.2009 1.0245
C25 C 0.5688(4) 0.2135(3) 1.02253(11)
H30 H 0.6345 0.2390 1.0018
H31 H 0.5987 0.2308 1.0514
H32 H 0.4818 0.2462 1.0171
C26 C 0.5403(3) 0.17413(19) 0.78982(7)
H33 H 0.5861 0.1512 0.7650
H34 H 0.4800 0.2310 0.7882
C27 C 0.5761(2) 0.25011(16) 0.89014(7)
H35 H 0.5436 0.2625 0.9195
H36 H 0.6703 0.2265 0.8920
C28 C 0.5711(2) 0.35415(15) 0.86480(7)
H37 H 0.5768 0.3340 0.8341
C29 C 0.4382(2) 0.41436(17) 0.86929(8)
C30 C 0.4255(2) 0.50689(19) 0.83914(8)
H38 H 0.3423 0.5455 0.8457
H39 H 0.4194 0.4817 0.8094
C31 C 0.5480(2) 0.58084(17) 0.84350(8)
H40 H 0.5431 0.6355 0.8214
H41 H 0.5460 0.6150 0.8718
C32 C 0.6810(2) 0.51928(17) 0.83851(7)
H42 H 0.6708 0.4815 0.8108
C33 C 0.6961(2) 0.42999(16) 0.87293(7)
C34 C 0.8295(2) 0.37052(18) 0.86406(9)
H43 H 0.8444 0.3196 0.8872
H44 H 0.8202 0.3314 0.8371
C35 C 0.9542(2) 0.4425(2) 0.86084(9)
H45 H 0.9683 0.4781 0.8885
H46 H 1.0347 0.4001 0.8547
C36 C 0.9358(2) 0.52399(19) 0.82544(8)
H47 H 0.9305 0.4880 0.7976
H48 H 1.0156 0.5697 0.8248
C37 C 0.8069(2) 0.59282(17) 0.83133(7)
C38 C 0.7881(2) 0.64620(18) 0.78733(8)
C39 C 0.8498(4) 0.7894(3) 0.74226(9)
H49 H 0.8891 0.7440 0.7205
H50 H 0.9004 0.8545 0.7435
H51 H 0.7563 0.8041 0.7349
C40 C 0.3407(3) 0.3919(2) 0.89762(9)
H52 H 0.2627 0.4339 0.8990
H53 H 0.3501 0.3341 0.9161
C41 C 0.6933(3) 0.4673(2) 0.92079(7)
H54 H 0.6809 0.4072 0.9395
H55 H 0.6192 0.5161 0.9249
H56 H 0.7782 0.5017 0.9277
C42 C 0.8258(3) 0.67502(19) 0.86753(8)
H57 H 0.8960 0.7242 0.8593
H58 H 0.8517 0.6399 0.8940
H59 H 0.7414 0.7125 0.8720
H60 H 0.486(3) -0.007(3) 0.7713(9)
H61? H 0.7378 -0.0327 1.0247
C43? C 0.8145(15) -0.1528(10) 0.9905(6)
H62? H 0.8649 -0.1810 1.0146
H63? H 0.8738 -0.1094 0.9731
H64? H 0.7797 -0.2100 0.9731
C44? C 0.5906(17) -0.1720(16) 1.0284(5)
H65? H 0.6256 -0.1961 1.0559
H66? H 0.5800 -0.2313 1.0092
H67? H 0.5034 -0.1386 1.0328
loop_
_geom_bond_atom_site_label_1
_geom_bond_atom_site_label_2
_geom_bond_site_symmetry_1
_geom_bond_site_symmetry_2
O1 C10 1_555 1_555
O2 C13 1_555 1_555
O3 C15 1_555 1_555
O4 C16 1_555 1_555
O5 C38 1_555 1_555
O6 C38 1_555 1_555
C1 H1 1_555 1_555
C2 C1 1_555 1_555
C3 C2 1_555 1_555
H2 C3 1_555 1_555
H3 C3 1_555 1_555
C4 C3 1_555 1_555
H4 C4 1_555 1_555
H5 C4 1_555 1_555
C5 C4 1_555 1_555
H6 C5 1_555 1_555
H7 C5 1_555 1_555
C6 C1 1_555 1_555
C7 C6 1_555 1_555
C8 C7 1_555 1_555
C9 C1 1_555 1_555
H8 C9 1_555 1_555
C10 C9 1_555 1_555
H9 C10 1_555 1_555
C11 C10 1_555 1_555
H10 C11 1_555 1_555
C12 C8 1_555 1_555
H11 C12 1_555 1_555
H12 C12 1_555 1_555
C13 C8 1_555 1_555
C14 C13 1_555 1_555
C15 C14 1_555 1_555
C16 C7 1_555 1_555
C17 C11 1_555 1_555
C18 C7 1_555 1_555
H13 C18 1_555 1_555
C19 C2 1_555 1_555
H14 C19 1_555 1_555
H15 C19 1_555 1_555
H16 C19 1_555 1_555
C20 C2 1_555 1_555
H17 C20 1_555 1_555
H18 C20 1_555 1_555
H19 C20 1_555 1_555
C21 C6 1_555 1_555
H20 C21 1_555 1_555
H21 C21 1_555 1_555
H22 C21 1_555 1_555
C22 C14 1_555 1_555
H23 C22 1_555 1_555
C23 C22 1_555 1_555
H24 C23 1_555 1_555
H25 C23 1_555 1_555
H26 C23 1_555 1_555
C24 C22 1_555 1_555
H27 C24 1_555 1_555
H28 C24 1_555 1_555
H29 C24 1_555 1_555
C25 O3 1_555 1_555
H30 C25 1_555 1_555
H31 C25 1_555 1_555
H32 C25 1_555 1_555
C26 C17 1_555 1_555
H33 C26 1_555 1_555
H34 C26 1_555 1_555
C27 C18 1_555 1_555
H35 C27 1_555 1_555
H36 C27 1_555 1_555
C28 C27 1_555 1_555
H37 C28 1_555 1_555
C29 C28 1_555 1_555
C30 C29 1_555 1_555
H38 C30 1_555 1_555
H39 C30 1_555 1_555
C31 C30 1_555 1_555
H40 C31 1_555 1_555
H41 C31 1_555 1_555
C32 C31 1_555 1_555
H42 C32 1_555 1_555
C33 C28 1_555 1_555
C34 C33 1_555 1_555
H43 C34 1_555 1_555
H44 C34 1_555 1_555
C35 C34 1_555 1_555
H45 C35 1_555 1_555
H46 C35 1_555 1_555
C36 C35 1_555 1_555
H47 C36 1_555 1_555
H48 C36 1_555 1_555
C37 C32 1_555 1_555
C38 C37 1_555 1_555
C39 O6 1_555 1_555
H49 C39 1_555 1_555
H50 C39 1_555 1_555
H51 C39 1_555 1_555
C40 C29 1_555 1_555
H52 C40 1_555 1_555
H53 C40 1_555 1_555
C41 C33 1_555 1_555
H54 C41 1_555 1_555
H55 C41 1_555 1_555
H56 C41 1_555 1_555
C42 C37 1_555 1_555
H57 C42 1_555 1_555
H58 C42 1_555 1_555
H59 C42 1_555 1_555
H60 O1 1_555 1_555
C5 C6 1_555 1_555
C8 C9 1_555 1_555
C11 C12 1_555 1_555
C15 C16 1_555 1_555
C17 C18 1_555 1_555
C32 C33 1_555 1_555
C36 C37 1_555 1_555

#END
