
#######################################################################
#
#                 Cambridge Crystallographic Data Centre
#                                CCDC 
#
#######################################################################
#
# If this CIF has been generated from an entry in the Cambridge 
# Structural Database, then it will include bibliographic, chemical, 
# crystal, experimental, refinement or atomic coordinate data resulting 
# from the CCDC's data processing and validation procedures.
#
#######################################################################

data_HOJNUQ
_chemical_formula_moiety         'C17 H13 N1 O2 S1'
_chemical_name_systematic        2-(4-(Phenylsulfonyl)phenyl)pyridine
_symmetry_cell_setting           monoclinic
_symmetry_space_group_name_H-M   'P 21/c'
_symmetry_Int_Tables_number      14
_space_group_name_Hall           '-P 2ybc'
loop_
_symmetry_equiv_pos_site_id
_symmetry_equiv_pos_as_xyz
1 x,y,z
2 -x,1/2+y,1/2-z
3 -x,-y,-z
4 x,1/2-y,1/2+z
_cell_length_a                   16.4162(16)
_cell_length_b                   7.7951(7)
_cell_length_c                   11.3297(11)
_cell_angle_alpha                90
_cell_angle_beta                 101.729(2)
_cell_angle_gamma                90
_cell_volume                     1419.54
_exptl_crystal_colour            colorless
_exptl_crystal_description       block
_cell_formula_units_Z            4
loop_
_atom_site_label
_atom_site_type_symbol
_atom_site_fract_x
_atom_site_fract_y
_atom_site_fract_z
C1 C -0.17664(19) 0.4191(5) 0.8364(3)
H1 H -0.2175 0.4827 0.7860
C2 C -0.19800(19) 0.3250(4) 0.9273(3)
H2 H -0.2525 0.3213 0.9384
C3 C -0.1363(2) 0.2373(4) 1.0005(3)
H3 H -0.1488 0.1749 1.0644
C4 C -0.05659(16) 0.2378(3) 0.9832(2)
H4 H -0.0157 0.1737 1.0330
C5 C -0.03785(15) 0.3324(3) 0.8932(2)
C6 C 0.04890(15) 0.3343(3) 0.8740(2)
C7 C 0.11123(17) 0.2387(3) 0.9467(2)
H5 H 0.0979 0.1723 1.0082
C8 C 0.19172(17) 0.2394(3) 0.9302(2)
H6 H 0.2321 0.1737 0.9796
C9 C 0.21232(15) 0.3387(3) 0.8394(2)
C10 C 0.15216(16) 0.4358(3) 0.7659(2)
H7 H 0.1661 0.5031 0.7052
C11 C 0.07131(16) 0.4325(3) 0.7829(2)
H8 H 0.0309 0.4971 0.7325
C12 C 0.36420(14) 0.4992(3) 0.9257(2)
C13 C 0.39570(16) 0.4502(4) 1.0434(2)
H9 H 0.3935 0.3360 1.0664
C14 C 0.43025(18) 0.5721(5) 1.1260(3)
H10 H 0.4517 0.5401 1.2053
C15 C 0.43345(18) 0.7414(4) 1.0925(3)
H11 H 0.4569 0.8232 1.1491
C16 C 0.4020(2) 0.7895(4) 0.9755(3)
H12 H 0.4046 0.9038 0.9530
C17 C 0.36653(17) 0.6694(3) 0.8909(3)
H13 H 0.3446 0.7021 0.8119
N1 N -0.09719(16) 0.4226(4) 0.8172(3)
O1 O 0.31634(13) 0.4113(3) 0.70059(17)
O2 O 0.35353(13) 0.1810(2) 0.8534(2)
S1 S 0.31643(4) 0.34568(8) 0.81915(6)
loop_
_geom_bond_atom_site_label_1
_geom_bond_atom_site_label_2
_geom_bond_site_symmetry_1
_geom_bond_site_symmetry_2
C1 H1 1_555 1_555
C2 C1 1_555 1_555
H2 C2 1_555 1_555
C3 C2 1_555 1_555
H3 C3 1_555 1_555
C4 C3 1_555 1_555
H4 C4 1_555 1_555
C5 C4 1_555 1_555
C6 C5 1_555 1_555
C7 C6 1_555 1_555
H5 C7 1_555 1_555
C8 C7 1_555 1_555
H6 C8 1_555 1_555
C9 C8 1_555 1_555
C10 C9 1_555 1_555
H7 C10 1_555 1_555
C11 C6 1_555 1_555
H8 C11 1_555 1_555
C12 C13 1_555 1_555
C13 H9 1_555 1_555
C14 C13 1_555 1_555
H10 C14 1_555 1_555
C15 C14 1_555 1_555
H11 C15 1_555 1_555
C16 C15 1_555 1_555
H12 C16 1_555 1_555
C17 C12 1_555 1_555
H13 C17 1_555 1_555
N1 C1 1_555 1_555
O1 S1 1_555 1_555
O2 S1 1_555 1_555
S1 C9 1_555 1_555
C5 N1 1_555 1_555
C10 C11 1_555 1_555
C12 S1 1_555 1_555
C16 C17 1_555 1_555

#END
