
#######################################################################
#
#                 Cambridge Crystallographic Data Centre
#                                CCDC 
#
#######################################################################
#
# If this CIF has been generated from an entry in the Cambridge 
# Structural Database, then it will include bibliographic, chemical, 
# crystal, experimental, refinement or atomic coordinate data resulting 
# from the CCDC's data processing and validation procedures.
#
#######################################################################

data_HOJPAY
_chemical_formula_moiety         'C23 H18 N2'
_chemical_name_systematic        N,N-Diphenyl-4-(pyridin-2-yl)aniline
_symmetry_cell_setting           orthorhombic
_symmetry_space_group_name_H-M   'P 21 21 21'
_symmetry_Int_Tables_number      19
_space_group_name_Hall           'P 2ac 2ab'
loop_
_symmetry_equiv_pos_site_id
_symmetry_equiv_pos_as_xyz
1 x,y,z
2 1/2-x,-y,1/2+z
3 -x,1/2+y,1/2-z
4 1/2+x,1/2-y,-z
_cell_length_a                   10.1593(8)
_cell_length_b                   12.7523(10)
_cell_length_c                   13.2754(10)
_cell_angle_alpha                90
_cell_angle_beta                 90
_cell_angle_gamma                90
_cell_volume                     1719.89
_exptl_crystal_colour            colorless
_exptl_crystal_description       pyramid
_cell_formula_units_Z            4
loop_
_atom_site_label
_atom_site_type_symbol
_atom_site_fract_x
_atom_site_fract_y
_atom_site_fract_z
C1 C 0.04834(14) 1.04432(11) 0.20263(9)
C2 C 0.05079(16) 0.95380(12) 0.26121(12)
H1 H 0.0914 0.8936 0.2368
C3 C -0.00669(18) 0.95288(14) 0.35528(13)
H2 H -0.0058 0.8917 0.3934
C4 C -0.06545(19) 1.04179(15) 0.39313(12)
H3 H -0.1043 1.0410 0.4566
C5 C -0.06610(16) 1.13150(14) 0.33634(12)
H4 H -0.1047 1.1919 0.3621
C6 C -0.01045(15) 1.13364(11) 0.24164(12)
H5 H -0.0123 1.1951 0.2039
C7 C 0.16948(13) 1.13554(10) 0.06708(10)
C8 C 0.25195(16) 1.19438(11) 0.12745(11)
H6 H 0.2674 1.1741 0.1937
C9 C 0.31128(18) 1.28302(13) 0.08951(14)
H7 H 0.3655 1.3229 0.1310
C10 C 0.2918(2) 1.31346(13) -0.00806(14)
H8 H 0.3324 1.3735 -0.0329
C11 C 0.21164(19) 1.25457(12) -0.06892(13)
H9 H 0.1990 1.2743 -0.1357
C12 C 0.14961(16) 1.16632(11) -0.03211(11)
H10 H 0.0945 1.1274 -0.0737
C13 C 0.09128(13) 0.95572(10) 0.04111(10)
C14 C 0.19593(13) 0.92066(10) -0.01725(10)
H11 H 0.2754 0.9569 -0.0162
C15 C 0.18299(12) 0.83238(10) -0.07684(9)
H12 H 0.2545 0.8097 -0.1148
C16 C 0.06529(12) 0.77674(9) -0.08122(9)
C17 C -0.03998(13) 0.81414(10) -0.02451(10)
H13 H -0.1203 0.7793 -0.0272
C18 C -0.02769(13) 0.90197(10) 0.03573(11)
H14 H -0.0995 0.9253 0.0730
C19 C 0.05452(13) 0.67801(9) -0.13997(9)
C20 C -0.06468(15) 0.64113(11) -0.17528(11)
H15 H -0.1409 0.6802 -0.1653
C21 C -0.07074(18) 0.54662(13) -0.22522(12)
H16 H -0.1507 0.5205 -0.2483
C22 C 0.04411(19) 0.49161(12) -0.24029(13)
H17 H 0.0434 0.4274 -0.2735
C23 C 0.15916(18) 0.53338(12) -0.20533(11)
H18 H 0.2367 0.4964 -0.2167
N1 N 0.10564(13) 1.04448(8) 0.10492(9)
N2 N 0.16655(12) 0.62497(9) -0.15543(9)
loop_
_geom_bond_atom_site_label_1
_geom_bond_atom_site_label_2
_geom_bond_site_symmetry_1
_geom_bond_site_symmetry_2
C1 C2 1_555 1_555
C2 H1 1_555 1_555
C3 C2 1_555 1_555
H2 C3 1_555 1_555
C4 C3 1_555 1_555
H3 C4 1_555 1_555
C5 C4 1_555 1_555
H4 C5 1_555 1_555
C6 C1 1_555 1_555
H5 C6 1_555 1_555
C7 C8 1_555 1_555
C8 H6 1_555 1_555
C9 C8 1_555 1_555
H7 C9 1_555 1_555
C10 C9 1_555 1_555
H8 C10 1_555 1_555
C11 C10 1_555 1_555
H9 C11 1_555 1_555
C12 C7 1_555 1_555
H10 C12 1_555 1_555
C13 C14 1_555 1_555
C14 H11 1_555 1_555
C15 C14 1_555 1_555
H12 C15 1_555 1_555
C16 C15 1_555 1_555
C17 C16 1_555 1_555
H13 C17 1_555 1_555
C18 C13 1_555 1_555
H14 C18 1_555 1_555
C19 C16 1_555 1_555
C20 C19 1_555 1_555
H15 C20 1_555 1_555
C21 C20 1_555 1_555
H16 C21 1_555 1_555
C22 C21 1_555 1_555
H17 C22 1_555 1_555
C23 C22 1_555 1_555
H18 C23 1_555 1_555
N1 C1 1_555 1_555
N2 C19 1_555 1_555
C5 C6 1_555 1_555
C7 N1 1_555 1_555
C11 C12 1_555 1_555
C13 N1 1_555 1_555
C17 C18 1_555 1_555
C23 N2 1_555 1_555

#END
