
#######################################################################
#
#                 Cambridge Crystallographic Data Centre
#                                CCDC 
#
#######################################################################
#
# If this CIF has been generated from an entry in the Cambridge 
# Structural Database, then it will include bibliographic, chemical, 
# crystal, experimental, refinement or atomic coordinate data resulting 
# from the CCDC's data processing and validation procedures.
#
#######################################################################

data_HOJZUD
_chemical_formula_moiety         'C19 H14 F2 O5'
_chemical_name_systematic        
'ethyl difluoro(7-phenylfuro[2,3-f][1,3]benzodioxol-6-yl)acetate'
_symmetry_cell_setting           triclinic
_symmetry_space_group_name_H-M   'P -1'
_symmetry_Int_Tables_number      2
_space_group_name_Hall           '-P 1'
loop_
_symmetry_equiv_pos_site_id
_symmetry_equiv_pos_as_xyz
1 x,y,z
2 -x,-y,-z
_cell_length_a                   7.4734(12)
_cell_length_b                   7.5100(12)
_cell_length_c                   15.983(3)
_cell_angle_alpha                80.701(2)
_cell_angle_beta                 89.547(2)
_cell_angle_gamma                68.083(2)
_cell_volume                     819.933
_exptl_crystal_colour            colorless
_exptl_crystal_description       prism
_cell_formula_units_Z            2
loop_
_atom_site_label
_atom_site_type_symbol
_atom_site_fract_x
_atom_site_fract_y
_atom_site_fract_z
C1 C -0.2822(3) 0.4048(3) -0.16309(13)
H1 H -0.3275 0.5379 -0.1933
H2 H -0.3359 0.3319 -0.193
C2 C -0.0189(3) 0.2761(3) -0.07689(11)
C3 C 0.1659(3) 0.1958(3) -0.04371(11)
H3 H 0.273 0.1626 -0.0766
C4 C 0.1787(2) 0.1682(2) 0.04431(10)
C5 C 0.0224(2) 0.2149(2) 0.09534(10)
C6 C 0.1026(2) 0.1584(2) 0.18166(10)
C7 C -0.1670(3) 0.2972(3) 0.05860(11)
H4 H -0.2753 0.33 0.0908
C8 C -0.0096(2) 0.1761(2) 0.25863(10)
C9 C -0.1796(3) 0.3252(3) -0.02770(11)
C10 C -0.1311(3) 0.3569(3) 0.27434(11)
H5 H -0.1438 0.4685 0.2358
C11 C -0.2338(3) 0.3722(3) 0.34727(13)
H6 H -0.3142 0.4941 0.3578
C12 C -0.2170(3) 0.2077(4) 0.40408(12)
H7 H -0.2845 0.2184 0.4533
C13 C -0.1002(3) 0.0278(3) 0.38790(12)
H8 H -0.09 -0.0837 0.4259
C14 C 0.0018(3) 0.0119(3) 0.31552(11)
H9 H 0.0794 -0.1107 0.3047
C15 C 0.2965(2) 0.0858(2) 0.17591(10)
C16 C 0.4656(3) 0.0096(3) 0.23772(12)
C17 C 0.4197(2) 0.0294(3) 0.33031(11)
C18 C 0.2836(3) 0.2583(3) 0.42067(12)
H10 H 0.3892 0.192 0.4633
H11 H 0.1784 0.2156 0.4361
C19 C 0.2182(4) 0.4730(4) 0.41524(17)
H12 H 0.3244 0.5129 0.4015
H13 H 0.1721 0.5077 0.4689
H14 H 0.1159 0.5369 0.3719
F1 F 0.58931(16) 0.1010(2) 0.21406(7)
F2 F 0.56836(18) -0.18146(18) 0.23525(8)
O1 O -0.3450(2) 0.4027(3) -0.08061(9)
O2 O -0.0793(2) 0.3218(3) -0.16135(8)
O3 O 0.34856(17) 0.08889(19) 0.09308(7)
O4 O 0.4491(2) -0.1072(2) 0.38553(9)
O5 O 0.34701(17) 0.21445(18) 0.33736(7)
loop_
_geom_bond_atom_site_label_1
_geom_bond_atom_site_label_2
_geom_bond_site_symmetry_1
_geom_bond_site_symmetry_2
C1 H1 1_555 1_555
H2 C1 1_555 1_555
C2 C3 1_555 1_555
C3 H3 1_555 1_555
C4 C3 1_555 1_555
C5 C4 1_555 1_555
C6 C5 1_555 1_555
C7 C5 1_555 1_555
H4 C7 1_555 1_555
C8 C6 1_555 1_555
C9 C2 1_555 1_555
C10 C8 1_555 1_555
H5 C10 1_555 1_555
C11 C10 1_555 1_555
H6 C11 1_555 1_555
C12 C11 1_555 1_555
H7 C12 1_555 1_555
C13 C12 1_555 1_555
H8 C13 1_555 1_555
C14 C8 1_555 1_555
H9 C14 1_555 1_555
C15 C6 1_555 1_555
C16 C15 1_555 1_555
C17 C16 1_555 1_555
C18 H10 1_555 1_555
H11 C18 1_555 1_555
C19 C18 1_555 1_555
H12 C19 1_555 1_555
H13 C19 1_555 1_555
H14 C19 1_555 1_555
F1 C16 1_555 1_555
F2 C16 1_555 1_555
O1 C1 1_555 1_555
O2 C1 1_555 1_555
O3 C4 1_555 1_555
O4 C17 1_555 1_555
O5 C17 1_555 1_555
C2 O2 1_555 1_555
C7 C9 1_555 1_555
C9 O1 1_555 1_555
C13 C14 1_555 1_555
C15 O3 1_555 1_555
C18 O5 1_555 1_555

#END
