
#######################################################################
#
#                 Cambridge Crystallographic Data Centre
#                                CCDC 
#
#######################################################################
#
# If this CIF has been generated from an entry in the Cambridge 
# Structural Database, then it will include bibliographic, chemical, 
# crystal, experimental, refinement or atomic coordinate data resulting 
# from the CCDC's data processing and validation procedures.
#
#######################################################################

data_HOKCIT
_chemical_formula_moiety         'C34 H38 N4 O3,C1 H1 Cl3'
_chemical_name_systematic        
'8-Deethyl-13^1^-deoxo-7-ethyl-8-oxo-phytoporphyrin methyl ester chloroform solvate'
_symmetry_cell_setting           triclinic
_symmetry_space_group_name_H-M   'P -1'
_symmetry_Int_Tables_number      2
_space_group_name_Hall           '-P 1'
loop_
_symmetry_equiv_pos_site_id
_symmetry_equiv_pos_as_xyz
1 x,y,z
2 -x,-y,-z
_cell_length_a                   10.243(3)
_cell_length_b                   10.984(4)
_cell_length_c                   15.435(7)
_cell_angle_alpha                102.28(4)
_cell_angle_beta                 104.83(3)
_cell_angle_gamma                90.88(3)
_cell_volume                     1635.84
_exptl_crystal_colour            red
_exptl_crystal_description       parallelepiped
_cell_formula_units_Z            2
loop_
_atom_site_label
_atom_site_type_symbol
_atom_site_fract_x
_atom_site_fract_y
_atom_site_fract_z
N1 N 0.3069(7) -0.5271(7) -0.0866(5)
H1 H 0.2482(7) -0.5690(7) -0.0690(5)
N2 N 0.1410(7) -0.7720(7) -0.1677(5)
N3 N 0.0318(8) -0.7364(7) -0.0182(5)
H3 H 0.0867(8) -0.6978(7) -0.0409(5)
N4 N 0.1949(7) -0.4929(6) 0.0715(5)
C1 C 0.3712(10) -0.4154(9) -0.0378(6)
C2 C 0.4564(9) -0.3803(8) -0.0911(6)
C3 C 0.5491(11) -0.2607(9) -0.0632(8)
H5 H 0.5420(11) -0.2123(9) -0.0036(8)
H6 H 0.5220(11) -0.2109(9) -0.1097(8)
H7 H 0.6429(11) -0.2819(9) -0.0583(8)
C4 C 0.4411(10) -0.4674(9) -0.1683(7)
C5 C 0.5011(9) -0.4737(9) -0.2500(6)
H8 H 0.5915(9) -0.4277(9) -0.2284(6)
H9 H 0.5128(9) -0.5620(9) -0.2762(6)
C6 C 0.4125(11) -0.4189(11) -0.3235(7)
H10 H 0.4544(11) -0.4245(11) -0.3745(7)
H11 H 0.4018(11) -0.3311(11) -0.2980(7)
H12 H 0.3235(11) -0.4654(11) -0.3459(7)
C7 C 0.3435(9) -0.5669(8) -0.1658(6)
C8 C 0.2993(10) -0.6770(8) -0.2312(6)
H13 H 0.3348(10) -0.6877(8) -0.2833(6)
C9 C 0.2105(10) -0.7739(9) -0.2314(7)
C10 C 0.1781(10) -0.8895(9) -0.3065(7)
C11 C 0.1219(12) -0.8631(10) -0.4045(6)
H14 H 0.1028(12) -0.9423(10) -0.4505(6)
H15 H 0.1893(12) -0.8104(10) -0.4174(6)
H16 H 0.0383(12) -0.8202(10) -0.4069(6)
C12 C 0.2999(11) -0.9727(10) -0.3038(8)
H17 H 0.2696(11) -1.0517(10) -0.3506(8)
H18 H 0.3713(11) -0.9294(10) -0.3214(8)
C13 C 0.3591(12) -1.0030(10) -0.2148(9)
H19 H 0.4347(12) -1.0554(10) -0.2193(9)
H20 H 0.2902(12) -1.0481(10) -0.1974(9)
H21 H 0.3922(12) -0.9257(10) -0.1682(9)
C14 C 0.0657(10) -0.9576(9) -0.2808(7)
C15 C 0.0551(10) -0.8815(8) -0.1930(6)
C16 C -0.0293(9) -0.9147(8) -0.1435(6)
H22 H -0.0837(9) -0.9910(8) -0.1697(6)
C17 C -0.0426(10) -0.8493(8) -0.0609(6)
C18 C -0.1188(10) -0.8787(9) -0.0015(7)
C19 C -0.2196(10) -0.9898(9) -0.0258(7)
H23 H -0.2178(10) -1.0419(9) -0.0854(7)
H24 H -0.3105(10) -0.9610(9) -0.0293(7)
H25 H -0.1961(10) -1.0387(9) 0.0215(7)
C20 C -0.0878(9) -0.7827(8) 0.0751(6)
C21 C -0.1148(11) -0.7379(10) 0.1679(7)
H26 H -0.0841(11) -0.7972(10) 0.2078(7)
H27 H -0.2125(11) -0.7282(10) 0.1615(7)
C22 C -0.0321(9) -0.6107(9) 0.2078(6)
H28 H -0.0929(9) -0.5426(9) 0.2167(6)
H29 H 0.0325(9) -0.6107(9) 0.2677(6)
C23 C 0.0056(10) -0.6954(9) 0.0642(7)
C24 C 0.0437(10) -0.5936(9) 0.1371(6)
C25 C 0.1336(9) -0.4911(8) 0.1412(6)
C26 C 0.1790(10) -0.3761(8) 0.2138(6)
C27 C 0.1395(10) -0.3339(9) 0.3010(6)
H30 H 0.0469(10) -0.3696(9) 0.2937(6)
H31 H 0.1389(10) -0.2418(9) 0.3155(6)
C28 C 0.2403(11) -0.3762(9) 0.3811(6)
H32 H 0.2331(11) -0.4685(9) 0.3701(6)
H33 H 0.3341(11) -0.3488(9) 0.3840(6)
C29 C 0.2091(11) -0.3207(9) 0.4706(7)
C30 C 0.0703(13) -0.3323(11) 0.5680(7)
H34 H 0.0001(13) -0.3885(11) 0.5747(7)
H35 H 0.0336(13) -0.2519(11) 0.5615(7)
H36 H 0.1476(13) -0.3193(11) 0.6226(7)
C31 C 0.2646(9) -0.3104(8) 0.1838(6)
C32 C 0.3421(10) -0.1875(8) 0.2335(7)
H37 H 0.3965(10) -0.1618(8) 0.1958(7)
H38 H 0.4020(10) -0.1964(8) 0.2922(7)
H39 H 0.2785(10) -0.1242(8) 0.2451(7)
C33 C 0.2730(9) -0.3849(8) 0.0957(6)
C34 C 0.3592(9) -0.3496(8) 0.0457(6)
H40 H 0.4139(9) -0.2736(8) 0.0722(6)
O1 O 0.0016(7) -1.0550(6) -0.3245(5)
O2 O 0.2803(17) -0.2444(15) 0.5308(11)
O4 O 0.1140(8) -0.3870(7) 0.4875(5)
C35 C 0.3114(22) 0.1979(19) 0.3939(14)
Cl2 Cl 0.4475(14) 0.1246(13) 0.4028(10)
Cl5 Cl 0.2546(17) 0.2373(15) 0.2807(10)
Cl8 Cl 0.3743(20) 0.3234(17) 0.4932(13)
H2? H 0.1483(7) -0.7119(7) -0.1184(5)
H4? H 0.1852(7) -0.5522(6) 0.0215(5)
O3? O 0.2322(19) -0.2057(17) 0.5052(12)
Cl1? Cl 0.3484(9) 0.0564(7) 0.4399(5)
Cl3? Cl 0.4221(16) 0.0941(13) 0.4314(10)
Cl4? Cl 0.2861(13) 0.2100(11) 0.2868(8)
Cl6? Cl 0.3202(17) 0.1796(15) 0.2935(10)
Cl7? Cl 0.3358(14) 0.3314(9) 0.4792(8)
Cl9? Cl 0.2914(19) 0.3284(16) 0.4610(12)
loop_
_geom_bond_atom_site_label_1
_geom_bond_atom_site_label_2
_geom_bond_site_symmetry_1
_geom_bond_site_symmetry_2
N1 H1 1_555 1_555
N2 C9 1_555 1_555
N3 H3 1_555 1_555
N4 C25 1_555 1_555
C1 N1 1_555 1_555
C2 C1 1_555 1_555
C3 C2 1_555 1_555
H5 C3 1_555 1_555
H6 C3 1_555 1_555
H7 C3 1_555 1_555
C4 C2 1_555 1_555
C5 C4 1_555 1_555
H8 C5 1_555 1_555
H9 C5 1_555 1_555
C6 C5 1_555 1_555
H10 C6 1_555 1_555
H11 C6 1_555 1_555
H12 C6 1_555 1_555
C7 N1 1_555 1_555
C8 C7 1_555 1_555
H13 C8 1_555 1_555
C9 C8 1_555 1_555
C10 C9 1_555 1_555
C11 C10 1_555 1_555
H14 C11 1_555 1_555
H15 C11 1_555 1_555
H16 C11 1_555 1_555
C12 C10 1_555 1_555
H17 C12 1_555 1_555
H18 C12 1_555 1_555
C13 C12 1_555 1_555
H19 C13 1_555 1_555
H20 C13 1_555 1_555
H21 C13 1_555 1_555
C14 C10 1_555 1_555
C15 N2 1_555 1_555
C16 C15 1_555 1_555
H22 C16 1_555 1_555
C17 N3 1_555 1_555
C18 C17 1_555 1_555
C19 C18 1_555 1_555
H23 C19 1_555 1_555
H24 C19 1_555 1_555
H25 C19 1_555 1_555
C20 C18 1_555 1_555
C21 C20 1_555 1_555
H26 C21 1_555 1_555
H27 C21 1_555 1_555
C22 C21 1_555 1_555
H28 C22 1_555 1_555
H29 C22 1_555 1_555
C23 N3 1_555 1_555
C24 C22 1_555 1_555
C25 C24 1_555 1_555
C26 C25 1_555 1_555
C27 C26 1_555 1_555
H30 C27 1_555 1_555
H31 C27 1_555 1_555
C28 C27 1_555 1_555
H32 C28 1_555 1_555
H33 C28 1_555 1_555
C29 C28 1_555 1_555
C30 H34 1_555 1_555
H35 C30 1_555 1_555
H36 C30 1_555 1_555
C31 C26 1_555 1_555
C32 C31 1_555 1_555
H37 C32 1_555 1_555
H38 C32 1_555 1_555
H39 C32 1_555 1_555
C33 N4 1_555 1_555
C34 C1 1_555 1_555
H40 C34 1_555 1_555
O1 C14 1_555 1_555
O2 C29 1_555 1_555
O4 C29 1_555 1_555
C35 Cl2 1_555 1_555
Cl5 C35 1_555 1_555
Cl8 C35 1_555 1_555
C4 C7 1_555 1_555
C14 C15 1_555 1_555
C16 C17 1_555 1_555
C20 C23 1_555 1_555
C23 C24 1_555 1_555
C30 O4 1_555 1_555
C31 C33 1_555 1_555
C33 C34 1_555 1_555

#END
