
#######################################################################
#
#                 Cambridge Crystallographic Data Centre
#                                CCDC 
#
#######################################################################
#
# If this CIF has been generated from an entry in the Cambridge 
# Structural Database, then it will include bibliographic, chemical, 
# crystal, experimental, refinement or atomic coordinate data resulting 
# from the CCDC's data processing and validation procedures.
#
#######################################################################

data_HOKDES
_chemical_formula_moiety         'C26 H23 N1 S1 Se1'
_chemical_name_systematic        
"(diphenyl selenide)(1,1'-(N-methylsulfinimidoyl)dibenzene)carbone"
_symmetry_cell_setting           monoclinic
_symmetry_space_group_name_H-M   'P 21/a'
_symmetry_Int_Tables_number      14
_space_group_name_Hall           '-P 2yab'
loop_
_symmetry_equiv_pos_site_id
_symmetry_equiv_pos_as_xyz
1 x,y,z
2 1/2-x,1/2+y,-z
3 -x,-y,-z
4 1/2+x,1/2-y,z
_cell_length_a                   8.861(3)
_cell_length_b                   24.024(6)
_cell_length_c                   10.795(3)
_cell_angle_alpha                90
_cell_angle_beta                 108.952(11)
_cell_angle_gamma                90
_cell_volume                     2173.43
_exptl_crystal_colour            yellow
_exptl_crystal_description       block
_chemical_melting_point          '368-369 K'
_cell_formula_units_Z            4
_chemical_properties_physical    'Air-sensitive, Moisture-sensitive'
_exptl_crystal_recrystallization_method 'diethyl ether'
loop_
_atom_site_label
_atom_site_type_symbol
_atom_site_fract_x
_atom_site_fract_y
_atom_site_fract_z
Se1 Se 0.47788(4) 0.407108(13) 0.47421(3)
C1 C 0.5460(4) 0.35781(13) 0.3684(3)
S1 S 0.53987(10) 0.39389(3) 0.23636(8)
C2 C 0.7047(4) 0.44119(13) 0.2504(3)
C3 C 0.8470(5) 0.42983(15) 0.3480(4)
H1 H 0.8551 0.3992 0.4055
C4 C 0.9787(5) 0.46401(17) 0.3607(4)
H2 H 1.0774 0.4566 0.4271
C5 C 0.9660(5) 0.50831(16) 0.2776(4)
H3 H 1.0561 0.5312 0.2858
C6 C 0.8217(5) 0.51953(15) 0.1818(4)
H4 H 0.8129 0.5506 0.1254
C7 C 0.6910(4) 0.48611(14) 0.1675(3)
H5 H 0.5924 0.4938 0.1013
C8 C 0.5900(4) 0.34023(13) 0.1388(3)
C9 C 0.7067(5) 0.30031(14) 0.1950(4)
H6 H 0.7613 0.3002 0.2867
C10 C 0.7416(5) 0.26072(15) 0.1145(4)
H7 H 0.8219 0.2336 0.1509
C11 C 0.6593(5) 0.26067(15) -0.0190(4)
H8 H 0.6827 0.2331 -0.0732
C12 C 0.5445(5) 0.29995(15) -0.0735(4)
H9 H 0.4888 0.2995 -0.1649
C13 C 0.5098(4) 0.34053(14) 0.0056(3)
H10 H 0.4316 0.3682 -0.0318
N1 N 0.3995(3) 0.43072(11) 0.1535(3)
C14 C 0.2388(4) 0.40808(16) 0.1339(4)
H11 H 0.2178 0.3774 0.0707
H12 H 0.1592 0.4374 0.1004
H13 H 0.2325 0.3943 0.2176
C15 C 0.6366(4) 0.39883(13) 0.6471(3)
C16 C 0.6410(4) 0.43899(15) 0.7403(4)
H14 H 0.5740 0.4708 0.7183
C17 C 0.7454(5) 0.43162(19) 0.8666(4)
H15 H 0.7512 0.4588 0.9319
C18 C 0.8400(5) 0.3852(2) 0.8971(4)
H16 H 0.9086 0.3797 0.9844
C19 C 0.8366(5) 0.34620(18) 0.8017(4)
H17 H 0.9054 0.3148 0.8232
C20 C 0.7333(4) 0.35280(15) 0.6754(4)
H18 H 0.7294 0.3260 0.6096
C21 C 0.3182(4) 0.36123(13) 0.5162(3)
C22 C 0.2596(4) 0.31455(13) 0.4430(3)
H19 H 0.2983 0.3038 0.3742
C23 C 0.1427(5) 0.28324(15) 0.4712(4)
H20 H 0.1009 0.2509 0.4213
C24 C 0.0875(4) 0.29908(15) 0.5712(4)
H21 H 0.0085 0.2774 0.5907
C25 C 0.1466(5) 0.34638(16) 0.6432(4)
H22 H 0.1075 0.3572 0.7118
C26 C 0.2622(4) 0.37811(15) 0.6163(4)
H23 H 0.3026 0.4108 0.6653
loop_
_geom_bond_atom_site_label_1
_geom_bond_atom_site_label_2
_geom_bond_site_symmetry_1
_geom_bond_site_symmetry_2
Se1 C1 1_555 1_555
C1 S1 1_555 1_555
S1 C2 1_555 1_555
C2 C3 1_555 1_555
C3 H1 1_555 1_555
C4 C3 1_555 1_555
H2 C4 1_555 1_555
C5 C4 1_555 1_555
H3 C5 1_555 1_555
C6 C5 1_555 1_555
H4 C6 1_555 1_555
C7 C2 1_555 1_555
H5 C7 1_555 1_555
C8 S1 1_555 1_555
C9 C8 1_555 1_555
H6 C9 1_555 1_555
C10 C9 1_555 1_555
H7 C10 1_555 1_555
C11 C10 1_555 1_555
H8 C11 1_555 1_555
C12 C11 1_555 1_555
H9 C12 1_555 1_555
C13 C8 1_555 1_555
H10 C13 1_555 1_555
N1 S1 1_555 1_555
C14 N1 1_555 1_555
H11 C14 1_555 1_555
H12 C14 1_555 1_555
H13 C14 1_555 1_555
C15 Se1 1_555 1_555
C16 C15 1_555 1_555
H14 C16 1_555 1_555
C17 C16 1_555 1_555
H15 C17 1_555 1_555
C18 C17 1_555 1_555
H16 C18 1_555 1_555
C19 C18 1_555 1_555
H17 C19 1_555 1_555
C20 C15 1_555 1_555
H18 C20 1_555 1_555
C21 Se1 1_555 1_555
C22 C21 1_555 1_555
H19 C22 1_555 1_555
C23 C22 1_555 1_555
H20 C23 1_555 1_555
C24 C23 1_555 1_555
H21 C24 1_555 1_555
C25 C24 1_555 1_555
H22 C25 1_555 1_555
C26 C21 1_555 1_555
H23 C26 1_555 1_555
C6 C7 1_555 1_555
C12 C13 1_555 1_555
C19 C20 1_555 1_555
C25 C26 1_555 1_555

#END
