
#######################################################################
#
#                 Cambridge Crystallographic Data Centre
#                                CCDC 
#
#######################################################################
#
# If this CIF has been generated from an entry in the Cambridge 
# Structural Database, then it will include bibliographic, chemical, 
# crystal, experimental, refinement or atomic coordinate data resulting 
# from the CCDC's data processing and validation procedures.
#
#######################################################################

data_HOKHOG
_chemical_formula_moiety         'C29 H21 O2 P1'
_chemical_name_systematic        
2-(2-(diphenylphosphoryl)-1-naphthyl)benzaldehyde
_symmetry_cell_setting           orthorhombic
_symmetry_space_group_name_H-M   'P 21 21 21'
_symmetry_Int_Tables_number      19
_space_group_name_Hall           'P 2ac 2ab'
loop_
_symmetry_equiv_pos_site_id
_symmetry_equiv_pos_as_xyz
1 x,y,z
2 1/2-x,-y,1/2+z
3 -x,1/2+y,1/2-z
4 1/2+x,1/2-y,-z
_cell_length_a                   10.2280(2)
_cell_length_b                   20.6215(5)
_cell_length_c                   21.8081(5)
_cell_angle_alpha                90
_cell_angle_beta                 90
_cell_angle_gamma                90
_cell_volume                     4599.69
_exptl_crystal_colour            colorless
_exptl_crystal_description       block
_cell_formula_units_Z            8
loop_
_atom_site_label
_atom_site_type_symbol
_atom_site_fract_x
_atom_site_fract_y
_atom_site_fract_z
P1 P 0.57322(5) 0.62449(2) 0.119353(19)
O1 O 0.68721(12) 0.62073(6) 0.07770(5)
O2 O 0.73919(14) 0.50893(9) -0.04195(7)
C1 C 0.42243(16) 0.59699(7) 0.08378(6)
C2 C 0.40706(15) 0.53286(8) 0.06638(6)
C3 C 0.28892(16) 0.51250(8) 0.03578(7)
C4 C 0.26795(18) 0.44776(9) 0.01780(8)
H1 H 0.3327 0.4169 0.0247
C5 C 0.15298(19) 0.42969(10) -0.00979(8)
H2 H 0.1401 0.3866 -0.0210
C6 C 0.0557(2) 0.47513(12) -0.02114(9)
H3 H -0.0217 0.4623 -0.0399
C7 C 0.07299(19) 0.53797(11) -0.00502(9)
H4 H 0.0071 0.5679 -0.0130
C8 C 0.18978(16) 0.55903(9) 0.02380(7)
C9 C 0.21090(18) 0.62376(9) 0.04047(7)
H5 H 0.1474 0.6546 0.0316
C10 C 0.32277(17) 0.64242(8) 0.06952(7)
H6 H 0.3340 0.6857 0.0802
C11 C 0.50873(16) 0.48264(8) 0.08098(7)
C12 C 0.4878(2) 0.44130(9) 0.13057(8)
H7 H 0.4104 0.4440 0.1528
C13 C 0.5820(2) 0.39622(10) 0.14681(10)
H8 H 0.5671 0.3686 0.1798
C14 C 0.6965(2) 0.39188(10) 0.11500(11)
H9 H 0.7601 0.3622 0.1269
C15 C 0.71730(19) 0.43116(10) 0.06574(10)
H10 H 0.7951 0.4277 0.0439
C16 C 0.62408(17) 0.47623(9) 0.04764(8)
C17 C 0.64674(19) 0.51496(10) -0.00825(8)
H11 H 0.5850 0.5464 -0.0182
C18 C 0.54404(16) 0.70728(8) 0.14264(7)
C19 C 0.6054(2) 0.75528(9) 0.10950(9)
H12 H 0.6583 0.7442 0.0764
C20 C 0.5893(3) 0.81940(10) 0.12487(11)
H13 H 0.6302 0.8516 0.1019
C21 C 0.5126(2) 0.83589(11) 0.17423(11)
H14 H 0.5035 0.8792 0.1853
C22 C 0.4502(2) 0.78915(10) 0.20692(10)
H15 H 0.3968 0.8004 0.2397
C23 C 0.46619(19) 0.72564(10) 0.19138(8)
H16 H 0.4237 0.6939 0.2142
C24 C 0.59570(17) 0.57852(8) 0.18929(8)
C25 C 0.4955(2) 0.56640(9) 0.23049(8)
H17 H 0.4111 0.5803 0.2214
C26 C 0.5190(3) 0.53391(11) 0.28478(9)
H18 H 0.4508 0.5255 0.3118
C27 C 0.6421(3) 0.51447(12) 0.29835(11)
H19 H 0.6587 0.4943 0.3357
C28 C 0.7426(2) 0.52407(11) 0.25790(12)
H20 H 0.8259 0.5089 0.2671
C29 C 0.7201(2) 0.55665(10) 0.20286(10)
H21 H 0.7884 0.5636 0.1755
P2 P -0.06802(4) 0.23531(2) 0.246047(19)
O3 O -0.17768(12) 0.27028(6) 0.21683(5)
O4 O -0.38781(15) 0.21879(9) 0.10610(8)
C30 C -0.08959(15) 0.14769(8) 0.24672(7)
C31 C -0.09395(14) 0.11337(8) 0.19197(7)
C32 C -0.11578(15) 0.04499(8) 0.19306(7)
C33 C -0.12201(18) 0.00706(9) 0.13901(8)
H22 H -0.1133 0.0273 0.1011
C34 C -0.1403(2) -0.05747(9) 0.14106(10)
H23 H -0.1430 -0.0812 0.1048
C35 C -0.1553(2) -0.08937(10) 0.19790(11)
H24 H -0.1675 -0.1340 0.1991
C36 C -0.1519(2) -0.05474(9) 0.25068(10)
H25 H -0.1633 -0.0759 0.2879
C37 C -0.13148(17) 0.01266(8) 0.25007(8)
C38 C -0.12744(19) 0.04935(10) 0.30431(8)
H26 H -0.1380 0.0287 0.3419
C39 C -0.10831(18) 0.11449(9) 0.30266(8)
H27 H -0.1075 0.1378 0.3392
C40 C -0.07240(17) 0.14578(7) 0.13141(6)
C41 C 0.04719(18) 0.13796(9) 0.10221(7)
H28 H 0.1103 0.1112 0.1196
C42 C 0.0738(2) 0.16918(10) 0.04784(8)
H29 H 0.1549 0.1641 0.0292
C43 C -0.0203(2) 0.20800(11) 0.02107(8)
H30 H -0.0023 0.2294 -0.0155
C44 C -0.1399(2) 0.21495(10) 0.04835(8)
H31 H -0.2032 0.2408 0.0300
C45 C -0.16789(18) 0.18362(8) 0.10344(7)
C46 C -0.29960(19) 0.19000(9) 0.13031(9)
H32 H -0.3153 0.1707 0.1681
C47 C -0.04783(18) 0.25984(9) 0.32515(8)
C48 C -0.1348(2) 0.30613(11) 0.34616(10)
H33 H -0.1963 0.3238 0.3195
C49 C -0.1308(3) 0.32644(14) 0.40702(12)
H34 H -0.1904 0.3570 0.4212
C50 C -0.0393(3) 0.30135(15) 0.44571(11)
H35 H -0.0364 0.3151 0.4863
C51 C 0.0472(3) 0.25666(14) 0.42559(9)
H36 H 0.1092 0.2399 0.4525
C52 C 0.0444(2) 0.23563(11) 0.36532(8)
H37 H 0.1048 0.2051 0.3518
C53 C 0.08479(17) 0.24983(8) 0.20752(7)
C54 C 0.19625(18) 0.21340(10) 0.21864(9)
H38 H 0.1951 0.1811 0.2484
C55 C 0.3085(2) 0.22488(13) 0.18572(10)
H39 H 0.3828 0.2001 0.1930
C56 C 0.3111(2) 0.27245(12) 0.14240(10)
H40 H 0.3875 0.2802 0.1205
C57 C 0.2029(3) 0.30857(11) 0.13102(10)
H41 H 0.2056 0.3408 0.1013
C58 C 0.0883(2) 0.29775(9) 0.16347(8)
H42 H 0.0144 0.3226 0.1556
loop_
_geom_bond_atom_site_label_1
_geom_bond_atom_site_label_2
_geom_bond_site_symmetry_1
_geom_bond_site_symmetry_2
P1 O1 1_555 1_555
O2 C17 1_555 1_555
C1 P1 1_555 1_555
C2 C1 1_555 1_555
C3 C2 1_555 1_555
C4 C3 1_555 1_555
H1 C4 1_555 1_555
C5 C4 1_555 1_555
H2 C5 1_555 1_555
C6 C5 1_555 1_555
H3 C6 1_555 1_555
C7 C6 1_555 1_555
H4 C7 1_555 1_555
C8 C3 1_555 1_555
C9 C8 1_555 1_555
H5 C9 1_555 1_555
C10 C1 1_555 1_555
H6 C10 1_555 1_555
C11 C2 1_555 1_555
C12 C11 1_555 1_555
H7 C12 1_555 1_555
C13 C12 1_555 1_555
H8 C13 1_555 1_555
C14 C13 1_555 1_555
H9 C14 1_555 1_555
C15 C14 1_555 1_555
H10 C15 1_555 1_555
C16 C11 1_555 1_555
C17 C16 1_555 1_555
H11 C17 1_555 1_555
C18 P1 1_555 1_555
C19 C18 1_555 1_555
H12 C19 1_555 1_555
C20 C19 1_555 1_555
H13 C20 1_555 1_555
C21 C20 1_555 1_555
H14 C21 1_555 1_555
C22 C21 1_555 1_555
H15 C22 1_555 1_555
C23 C18 1_555 1_555
H16 C23 1_555 1_555
C24 P1 1_555 1_555
C25 C24 1_555 1_555
H17 C25 1_555 1_555
C26 C25 1_555 1_555
H18 C26 1_555 1_555
C27 C26 1_555 1_555
H19 C27 1_555 1_555
C28 C27 1_555 1_555
H20 C28 1_555 1_555
C29 C24 1_555 1_555
H21 C29 1_555 1_555
P2 O3 1_555 1_555
O4 C46 1_555 1_555
C30 P2 1_555 1_555
C31 C30 1_555 1_555
C32 C31 1_555 1_555
C33 C32 1_555 1_555
H22 C33 1_555 1_555
C34 C33 1_555 1_555
H23 C34 1_555 1_555
C35 C34 1_555 1_555
H24 C35 1_555 1_555
C36 C35 1_555 1_555
H25 C36 1_555 1_555
C37 C32 1_555 1_555
C38 C37 1_555 1_555
H26 C38 1_555 1_555
C39 C30 1_555 1_555
H27 C39 1_555 1_555
C40 C31 1_555 1_555
C41 C40 1_555 1_555
H28 C41 1_555 1_555
C42 C41 1_555 1_555
H29 C42 1_555 1_555
C43 C42 1_555 1_555
H30 C43 1_555 1_555
C44 C43 1_555 1_555
H31 C44 1_555 1_555
C45 C40 1_555 1_555
C46 C45 1_555 1_555
H32 C46 1_555 1_555
C47 P2 1_555 1_555
C48 C47 1_555 1_555
H33 C48 1_555 1_555
C49 C48 1_555 1_555
H34 C49 1_555 1_555
C50 C49 1_555 1_555
H35 C50 1_555 1_555
C51 C50 1_555 1_555
H36 C51 1_555 1_555
C52 C47 1_555 1_555
H37 C52 1_555 1_555
C53 P2 1_555 1_555
C54 C53 1_555 1_555
H38 C54 1_555 1_555
C55 C54 1_555 1_555
H39 C55 1_555 1_555
C56 C55 1_555 1_555
H40 C56 1_555 1_555
C57 C56 1_555 1_555
H41 C57 1_555 1_555
C58 C53 1_555 1_555
H42 C58 1_555 1_555
C7 C8 1_555 1_555
C9 C10 1_555 1_555
C15 C16 1_555 1_555
C22 C23 1_555 1_555
C28 C29 1_555 1_555
C36 C37 1_555 1_555
C38 C39 1_555 1_555
C44 C45 1_555 1_555
C51 C52 1_555 1_555
C57 C58 1_555 1_555

#END
