
#######################################################################
#
#                 Cambridge Crystallographic Data Centre
#                                CCDC 
#
#######################################################################
#
# If this CIF has been generated from an entry in the Cambridge 
# Structural Database, then it will include bibliographic, chemical, 
# crystal, experimental, refinement or atomic coordinate data resulting 
# from the CCDC's data processing and validation procedures.
#
#######################################################################

data_HOKHUL
_chemical_name_common            
bis(m-Phenylene)bis(di-t-butylbis(pyrazolato)diborate)
_chemical_formula_moiety         'C40 H56 B4 N8'
_chemical_name_systematic        
bis(1,3-Phenylene)bis(di-t-butylbis(pyrazolato)diborate)
_symmetry_cell_setting           monoclinic
_symmetry_space_group_name_H-M   'P 21/c'
_symmetry_Int_Tables_number      14
_space_group_name_Hall           '-P 2ybc'
loop_
_symmetry_equiv_pos_site_id
_symmetry_equiv_pos_as_xyz
1 x,y,z
2 -x,1/2+y,1/2-z
3 -x,-y,-z
4 x,1/2-y,1/2+z
_cell_length_a                   11.585(2)
_cell_length_b                   11.753(3)
_cell_length_c                   14.228(2)
_cell_angle_alpha                90
_cell_angle_beta                 92.957(11)
_cell_angle_gamma                90
_cell_volume                     1934.68
_exptl_crystal_colour            colorless
_exptl_crystal_description       block
_cell_formula_units_Z            2
loop_
_atom_site_label
_atom_site_type_symbol
_atom_site_fract_x
_atom_site_fract_y
_atom_site_fract_z
N1 N 0.72103(10) 0.42035(10) -0.00370(8)
N2 N 0.64983(10) 0.37721(10) 0.15529(8)
N3 N 0.76583(10) 0.52079(10) 0.03005(8)
N4 N 0.64277(10) 0.49233(10) 0.16838(8)
C1 C 0.81406(12) 0.57355(14) -0.04213(10)
B1 B 0.71815(14) 0.58567(14) 0.11996(11)
C2 C 0.44423(11) 0.72636(12) -0.01245(9)
C3 C 0.78719(12) 0.22449(13) 0.07039(10)
C4 C 0.63204(12) 0.68194(12) 0.07344(9)
C5 C 0.51860(12) 0.65421(12) 0.04129(9)
H1 H 0.4901 0.5812 0.0571
C6 C 0.80306(13) 0.50787(13) -0.12179(10)
C7 C 0.74345(13) 0.41272(14) -0.09501(10)
C8 C 0.67049(12) 0.79054(13) 0.04871(10)
H2 H 0.7464 0.8137 0.0688
C9 C 0.82331(12) 0.62757(13) 0.19609(10)
C10 C 0.54338(13) 0.40846(15) 0.27902(11)
C11 C 0.58888(13) 0.32743(15) 0.22222(10)
C12 C 0.60087(12) 0.86475(13) -0.00408(10)
H3 H 0.6294 0.9377 -0.0199
C13 C 0.48940(12) 0.83320(12) -0.03411(10)
H4 H 0.4427 0.8853 -0.0702
C14 C 0.92996(13) 0.67560(15) 0.14904(11)
H5 H 0.9879 0.6994 0.1977
H6 H 0.9069 0.7412 0.1099
H7 H 0.9628 0.6167 0.1097
C15 C 0.77882(14) 0.14462(15) 0.15597(12)
H8 H 0.8452 0.0929 0.1592
H9 H 0.7072 0.1003 0.1493
H10 H 0.7787 0.1900 0.2137
C16 C 0.57883(13) 0.51057(15) 0.24288(10)
C17 C 0.90543(13) 0.28361(14) 0.08420(11)
H11 H 0.9669 0.2263 0.0857
H12 H 0.9087 0.3258 0.1437
H13 H 0.9159 0.3364 0.0320
C18 C 0.78035(14) 0.71965(15) 0.26265(11)
H14 H 0.8449 0.7459 0.3044
H15 H 0.7198 0.6879 0.3004
H16 H 0.7490 0.7839 0.2256
C19 C 0.86903(15) 0.52834(15) 0.25862(12)
H17 H 0.9279 0.5568 0.3047
H18 H 0.9031 0.4702 0.2192
H19 H 0.8051 0.4950 0.2917
C20 C 0.79330(13) 0.14957(13) -0.01841(11)
H20 H 0.8497 0.0885 -0.0064
H21 H 0.8170 0.1963 -0.0711
H22 H 0.7171 0.1164 -0.0340
B2 B 0.67980(14) 0.31830(14) 0.05808(11)
H23 H 0.8455(14) 0.6495(14) -0.0320(11)
H24 H 0.7175(13) 0.3442(13) -0.1314(11)
H25 H 0.5664(14) 0.5880(15) 0.2636(11)
H26 H 0.4991(14) 0.3987(14) 0.3314(12)
H27 H 0.8311(13) 0.5279(13) -0.1837(11)
H28 H 0.5822(14) 0.2449(15) 0.2218(11)
N1B N 0.27897(10) 0.57965(10) 0.00370(8)
N2B N 0.35017(10) 0.62279(10) -0.15529(8)
N3B N 0.23417(10) 0.47921(10) -0.03005(8)
N4B N 0.35723(10) 0.50767(10) -0.16838(8)
C1B C 0.18594(12) 0.42645(14) 0.04213(10)
B1B B 0.28185(14) 0.41433(14) -0.11996(11)
C2B C 0.55577(11) 0.27364(12) 0.01245(9)
C3B C 0.21281(12) 0.77551(13) -0.07039(10)
C4B C 0.36796(12) 0.31806(12) -0.07344(9)
C5B C 0.48140(12) 0.34579(12) -0.04129(9)
H1B H 0.5099 0.4188 -0.0571
C6B C 0.19694(13) 0.49213(13) 0.12179(10)
C7B C 0.25655(13) 0.58728(14) 0.09501(10)
C8B C 0.32951(12) 0.20946(13) -0.04871(10)
H2B H 0.2536 0.1863 -0.0688
C9B C 0.17669(12) 0.37243(13) -0.19609(10)
C10B C 0.45662(13) 0.59154(15) -0.27902(11)
C11B C 0.41112(13) 0.67257(15) -0.22222(10)
C12B C 0.39913(12) 0.13525(13) 0.00408(10)
H3B H 0.3706 0.0623 0.0199
C13B C 0.51060(12) 0.16680(12) 0.03411(10)
H4B H 0.5573 0.1147 0.0702
C14B C 0.07004(13) 0.32440(15) -0.14904(11)
H5B H 0.0121 0.3006 -0.1977
H6B H 0.0931 0.2588 -0.1099
H7B H 0.0372 0.3833 -0.1097
C15B C 0.22118(14) 0.85538(15) -0.15597(12)
H8B H 0.1548 0.9071 -0.1592
H9B H 0.2928 0.8997 -0.1493
H10B H 0.2213 0.8100 -0.2137
C16B C 0.42117(13) 0.48943(15) -0.24288(10)
C17B C 0.09457(13) 0.71639(14) -0.08420(11)
H11B H 0.0331 0.7737 -0.0857
H12B H 0.0913 0.6742 -0.1437
H13B H 0.0841 0.6636 -0.0320
C18B C 0.21965(14) 0.28035(15) -0.26265(11)
H14B H 0.1551 0.2541 -0.3044
H15B H 0.2802 0.3121 -0.3004
H16B H 0.2510 0.2161 -0.2256
C19B C 0.13097(15) 0.47166(15) -0.25862(12)
H17B H 0.0721 0.4432 -0.3047
H18B H 0.0969 0.5298 -0.2192
H19B H 0.1949 0.5050 -0.2917
C20B C 0.20670(13) 0.85043(13) 0.01841(11)
H20B H 0.1503 0.9115 0.0064
H21B H 0.1830 0.8037 0.0711
H22B H 0.2829 0.8836 0.0340
B2B B 0.32020(14) 0.68170(14) -0.05808(11)
H23B H 0.1545(14) 0.3505(14) 0.0320(11)
H24B H 0.2825(13) 0.6558(13) 0.1314(11)
H25B H 0.4336(14) 0.4120(15) -0.2636(11)
H26B H 0.5009(14) 0.6013(14) -0.3314(12)
H27B H 0.1689(13) 0.4721(13) 0.1837(11)
H28B H 0.4178(14) 0.7551(15) -0.2218(11)
loop_
_geom_bond_atom_site_label_1
_geom_bond_atom_site_label_2
_geom_bond_site_symmetry_1
_geom_bond_site_symmetry_2
N1 N3 1_555 1_555
N2 N4 1_555 1_555
N3 C1 1_555 1_555
N4 B1 1_555 1_555
C1 C6 1_555 1_555
B1 N3 1_555 1_555
C2 C5 1_555 1_555
C3 C15 1_555 1_555
C4 B1 1_555 1_555
C5 C4 1_555 1_555
H1 C5 1_555 1_555
C6 C7 1_555 1_555
C7 N1 1_555 1_555
C8 C4 1_555 1_555
H2 C8 1_555 1_555
C9 B1 1_555 1_555
C10 C11 1_555 1_555
C11 N2 1_555 1_555
C12 C8 1_555 1_555
H3 C12 1_555 1_555
C13 C2 1_555 1_555
H4 C13 1_555 1_555
C14 C9 1_555 1_555
H5 C14 1_555 1_555
H6 C14 1_555 1_555
H7 C14 1_555 1_555
C15 H8 1_555 1_555
H9 C15 1_555 1_555
H10 C15 1_555 1_555
C16 N4 1_555 1_555
C17 C3 1_555 1_555
H11 C17 1_555 1_555
H12 C17 1_555 1_555
H13 C17 1_555 1_555
C18 C9 1_555 1_555
H14 C18 1_555 1_555
H15 C18 1_555 1_555
H16 C18 1_555 1_555
C19 C9 1_555 1_555
H17 C19 1_555 1_555
H18 C19 1_555 1_555
H19 C19 1_555 1_555
C20 C3 1_555 1_555
H20 C20 1_555 1_555
H21 C20 1_555 1_555
H22 C20 1_555 1_555
B2 N1 1_555 1_555
H23 C1 1_555 1_555
H24 C7 1_555 1_555
H25 C16 1_555 1_555
H26 C10 1_555 1_555
H27 C6 1_555 1_555
H28 C11 1_555 1_555
N1B N3B 1_555 1_555
N2B N4B 1_555 1_555
N3B C1B 1_555 1_555
N4B B1B 1_555 1_555
C1B C6B 1_555 1_555
B1B N3B 1_555 1_555
C2B B2 1_555 1_555
C3B C15B 1_555 1_555
C4B B1B 1_555 1_555
C5B C2B 1_555 1_555
H1B C5B 1_555 1_555
C6B C7B 1_555 1_555
C7B N1B 1_555 1_555
C8B C4B 1_555 1_555
H2B C8B 1_555 1_555
C9B B1B 1_555 1_555
C10B C11B 1_555 1_555
C11B N2B 1_555 1_555
C12B C8B 1_555 1_555
H3B C12B 1_555 1_555
C13B C2B 1_555 1_555
H4B C13B 1_555 1_555
C14B C9B 1_555 1_555
H5B C14B 1_555 1_555
H6B C14B 1_555 1_555
H7B C14B 1_555 1_555
C15B H8B 1_555 1_555
H9B C15B 1_555 1_555
H10B C15B 1_555 1_555
C16B N4B 1_555 1_555
C17B C3B 1_555 1_555
H11B C17B 1_555 1_555
H12B C17B 1_555 1_555
H13B C17B 1_555 1_555
C18B C9B 1_555 1_555
H14B C18B 1_555 1_555
H15B C18B 1_555 1_555
H16B C18B 1_555 1_555
C19B C9B 1_555 1_555
H17B C19B 1_555 1_555
H18B C19B 1_555 1_555
H19B C19B 1_555 1_555
C20B C3B 1_555 1_555
H20B C20B 1_555 1_555
H21B C20B 1_555 1_555
H22B C20B 1_555 1_555
B2B C2 1_555 1_555
H23B C1B 1_555 1_555
H24B C7B 1_555 1_555
H25B C16B 1_555 1_555
H26B C10B 1_555 1_555
H27B C6B 1_555 1_555
H28B C11B 1_555 1_555
N2 B2 1_555 1_555
C3 B2 1_555 1_555
C10 C16 1_555 1_555
C12 C13 1_555 1_555
N1B B2B 1_555 1_555
N2B B2B 1_555 1_555
C3B B2B 1_555 1_555
C4B C5B 1_555 1_555
C10B C16B 1_555 1_555
C12B C13B 1_555 1_555

#END
