
#######################################################################
#
#                 Cambridge Crystallographic Data Centre
#                                CCDC 
#
#######################################################################
#
# If this CIF has been generated from an entry in the Cambridge 
# Structural Database, then it will include bibliographic, chemical, 
# crystal, experimental, refinement or atomic coordinate data resulting 
# from the CCDC's data processing and validation procedures.
#
#######################################################################

data_HOKHUM
_chemical_formula_moiety         'C19 H17 O4 P1'
_chemical_name_systematic        
'dimethyl (1-(2-formylphenyl)-2-naphthyl)phosphonate'
_symmetry_cell_setting           monoclinic
_symmetry_space_group_name_H-M   'P 21'
_symmetry_Int_Tables_number      4
_space_group_name_Hall           'P 2yb'
loop_
_symmetry_equiv_pos_site_id
_symmetry_equiv_pos_as_xyz
1 x,y,z
2 -x,1/2+y,-z
_cell_length_a                   8.8426(4)
_cell_length_b                   7.5945(4)
_cell_length_c                   12.9242(6)
_cell_angle_alpha                90
_cell_angle_beta                 90.186(4)
_cell_angle_gamma                90
_cell_volume                     867.922
_exptl_crystal_colour            colorless
_exptl_crystal_description       needle
_cell_formula_units_Z            2
loop_
_atom_site_label
_atom_site_type_symbol
_atom_site_fract_x
_atom_site_fract_y
_atom_site_fract_z
P1 P 0.47558(7) 0.75688(9) 0.68936(4)
O1 O 0.57783(17) 0.7331(3) 0.60311(11)
O2 O 0.3466(2) 0.6168(3) 0.69603(14)
O3 O 0.39159(19) 0.9390(3) 0.69160(12)
O4 O 0.9677(2) 0.7450(3) 0.59401(14)
C1 C 0.5621(2) 0.7467(3) 0.81456(14)
C2 C 0.6816(2) 0.8567(3) 0.84034(15)
C3 C 0.7521(2) 0.8408(3) 0.93954(15)
C4 C 0.8723(3) 0.9506(4) 0.97156(18)
H1 H 0.905(2) 1.033(3) 0.9226(18)
C5 C 0.9360(3) 0.9334(4) 1.0669(2)
H2 H 1.027(3) 1.010(3) 1.0833(19)
C6 C 0.8854(3) 0.8056(4) 1.13547(19)
H3 H 0.9304 0.7948 1.2003
C7 C 0.7703(3) 0.6966(4) 1.10813(18)
H4 H 0.7366 0.6120 1.1547
C8 C 0.7013(2) 0.7102(3) 1.00973(16)
C9 C 0.5813(3) 0.5998(3) 0.97976(17)
H5 H 0.548(2) 0.506(4) 1.0294(19)
C10 C 0.5141(3) 0.6178(3) 0.88677(17)
H6 H 0.4342 0.5438 0.8694
C11 C 0.7365(2) 0.9984(3) 0.76866(15)
C12 C 0.8363(2) 0.9650(3) 0.68784(15)
C13 C 0.8840(3) 1.1027(3) 0.62446(16)
H7 H 0.9516 1.0801 0.5711
C14 C 0.8328(3) 1.2698(4) 0.63974(17)
H8 H 0.8650 1.3607 0.5969
C15 C 0.7334(3) 1.3033(3) 0.7188(2)
H9 H 0.700(3) 1.415(4) 0.7404(19)
C16 C 0.6867(3) 1.1701(3) 0.78291(19)
H10 H 0.617(3) 1.200(3) 0.8396(18)
C17 C 0.8926(3) 0.7853(3) 0.66822(18)
H11 H 0.886(2) 0.685(3) 0.7264(16)
C18 C 0.3048(4) 0.5014(5) 0.6211(3)
H12 H 0.1970 0.4866 0.6222
H13 H 0.3529 0.3900 0.6333
H14 H 0.3350 0.5461 0.5548
C19 C 0.3358(5) 1.0207(4) 0.6019(3)
H15 H 0.3893 0.9771 0.5427
H16 H 0.3500 1.1457 0.6072
H17 H 0.2300 0.9953 0.5945
loop_
_geom_bond_atom_site_label_1
_geom_bond_atom_site_label_2
_geom_bond_site_symmetry_1
_geom_bond_site_symmetry_2
P1 O1 1_555 1_555
O2 P1 1_555 1_555
O3 P1 1_555 1_555
O4 C17 1_555 1_555
C1 P1 1_555 1_555
C2 C1 1_555 1_555
C3 C2 1_555 1_555
C4 C3 1_555 1_555
H1 C4 1_555 1_555
C5 C4 1_555 1_555
H2 C5 1_555 1_555
C6 C5 1_555 1_555
H3 C6 1_555 1_555
C7 C6 1_555 1_555
H4 C7 1_555 1_555
C8 C3 1_555 1_555
C9 C8 1_555 1_555
H5 C9 1_555 1_555
C10 C1 1_555 1_555
H6 C10 1_555 1_555
C11 C2 1_555 1_555
C12 C11 1_555 1_555
C13 C12 1_555 1_555
H7 C13 1_555 1_555
C14 C13 1_555 1_555
H8 C14 1_555 1_555
C15 C14 1_555 1_555
H9 C15 1_555 1_555
C16 C11 1_555 1_555
H10 C16 1_555 1_555
C17 C12 1_555 1_555
H11 C17 1_555 1_555
C18 O2 1_555 1_555
H12 C18 1_555 1_555
H13 C18 1_555 1_555
H14 C18 1_555 1_555
C19 O3 1_555 1_555
H15 C19 1_555 1_555
H16 C19 1_555 1_555
H17 C19 1_555 1_555
C7 C8 1_555 1_555
C9 C10 1_555 1_555
C15 C16 1_555 1_555

#END
