
#######################################################################
#
#                 Cambridge Crystallographic Data Centre
#                                CCDC 
#
#######################################################################
#
# If this CIF has been generated from an entry in the Cambridge 
# Structural Database, then it will include bibliographic, chemical, 
# crystal, experimental, refinement or atomic coordinate data resulting 
# from the CCDC's data processing and validation procedures.
#
#######################################################################

data_HOKKUN
_chemical_formula_moiety         'C21 H26 O2 S2'
_chemical_name_systematic        
"3,4:8,9-bis(2',5'-Dimethylthieno)(c)bicyclo(4.4.1)undeca-3,8-dien-11-one 11,11-dioxolane"
_symmetry_cell_setting           monoclinic
_symmetry_space_group_name_H-M   'P 21/n'
_symmetry_Int_Tables_number      14
_space_group_name_Hall           '-P 2yn'
loop_
_symmetry_equiv_pos_site_id
_symmetry_equiv_pos_as_xyz
1 x,y,z
2 1/2+x,1/2-y,1/2+z
3 -x,-y,-z
4 1/2-x,1/2+y,1/2-z
_cell_length_a                   17.520(2)
_cell_length_b                   11.0070(10)
_cell_length_c                   9.9000(10)
_cell_angle_alpha                90
_cell_angle_beta                 93.900(10)
_cell_angle_gamma                90
_cell_volume                     1904.72
_exptl_crystal_colour            colorless
_exptl_crystal_description       prism
_chemical_melting_point          273deg.C(dec.)
_cell_formula_units_Z            4
loop_
_atom_site_label
_atom_site_type_symbol
_atom_site_fract_x
_atom_site_fract_y
_atom_site_fract_z
C1 C 0.29675(16) 0.8301(3) 0.0776(3)
C2 C 0.21511(17) 0.8658(3) 0.0381(3)
H1 H 0.2162 0.9269 -0.0324
H2 H 0.1947 0.9046 0.1159
C3 C 0.15854(16) 0.7674(3) -0.0118(3)
H3 H 0.1112 0.8119 -0.0372
C4 C 0.17844(17) 0.7042(3) -0.1427(3)
H4 H 0.1380 0.6466 -0.1676
H5 H 0.1778 0.7650 -0.2137
C5 C 0.25374(15) 0.6373(3) -0.1420(3)
C6 C 0.30492(17) 0.6540(3) -0.2369(3)
C7 C 0.34694(17) 0.4969(3) -0.0676(3)
C8 C 0.27752(15) 0.5461(2) -0.0434(3)
C9 C 0.22970(18) 0.5043(3) 0.0679(3)
H6 H 0.2598 0.4459 0.1222
H7 H 0.1861 0.4608 0.0261
C10 C 0.19892(17) 0.5985(3) 0.1650(3)
H8 H 0.1726 0.5501 0.2308
C11 C 0.26033(17) 0.6681(3) 0.2503(3)
H9 H 0.2347 0.7236 0.3085
H10 H 0.2882 0.6102 0.3086
C12 C 0.31769(16) 0.7401(3) 0.1771(3)
C13 C 0.39515(18) 0.7285(3) 0.2015(4)
C14 C 0.35868(19) 0.8848(3) 0.0263(4)
C15 C 0.13651(15) 0.6801(3) 0.0987(3)
C16 C 0.3020(2) 0.7391(4) -0.3560(4)
H11 H 0.3473 0.7289 -0.4044
H12 H 0.2993 0.8214 -0.3246
H13 H 0.2577 0.7213 -0.4151
C17 C 0.3921(2) 0.4007(4) 0.0085(4)
H14 H 0.4388 0.3863 -0.0343
H15 H 0.3628 0.3271 0.0085
H16 H 0.4038 0.4270 0.1000
C18 C 0.4396(2) 0.6466(5) 0.2997(5)
H17 H 0.4934 0.6594 0.2927
H18 H 0.4272 0.5634 0.2790
H19 H 0.4266 0.6647 0.3902
C19 C 0.3619(3) 0.9826(5) -0.0774(5)
H20 H 0.4144 1.0013 -0.0911
H21 H 0.3368 1.0540 -0.0468
H22 H 0.3367 0.9555 -0.1612
C20 C 0.0352(2) 0.6990(6) 0.2315(6)
H23 H -0.0040 0.7611 0.2322
H24 H 0.0399 0.6607 0.3199
C21 C 0.0149(2) 0.6091(4) 0.1274(5)
H25 H 0.0077 0.5301 0.1680
H26 H -0.0322 0.6321 0.0765
O1 O 0.10436(12) 0.7504(2) 0.2022(2)
O2 O 0.07525(12) 0.6054(2) 0.0427(2)
S1 S 0.38284(4) 0.55993(8) -0.20886(8)
S2 S 0.44235(5) 0.82682(10) 0.10086(11)
loop_
_geom_bond_atom_site_label_1
_geom_bond_atom_site_label_2
_geom_bond_site_symmetry_1
_geom_bond_site_symmetry_2
C1 C2 1_555 1_555
C2 H1 1_555 1_555
H2 C2 1_555 1_555
C3 C2 1_555 1_555
H3 C3 1_555 1_555
C4 C3 1_555 1_555
H4 C4 1_555 1_555
H5 C4 1_555 1_555
C5 C4 1_555 1_555
C6 C5 1_555 1_555
C7 C8 1_555 1_555
C8 C5 1_555 1_555
C9 C8 1_555 1_555
H6 C9 1_555 1_555
H7 C9 1_555 1_555
C10 C9 1_555 1_555
H8 C10 1_555 1_555
C11 C10 1_555 1_555
H9 C11 1_555 1_555
H10 C11 1_555 1_555
C12 C1 1_555 1_555
C13 C12 1_555 1_555
C14 C1 1_555 1_555
C15 C3 1_555 1_555
C16 C6 1_555 1_555
H11 C16 1_555 1_555
H12 C16 1_555 1_555
H13 C16 1_555 1_555
C17 C7 1_555 1_555
H14 C17 1_555 1_555
H15 C17 1_555 1_555
H16 C17 1_555 1_555
C18 C13 1_555 1_555
H17 C18 1_555 1_555
H18 C18 1_555 1_555
H19 C18 1_555 1_555
C19 C14 1_555 1_555
H20 C19 1_555 1_555
H21 C19 1_555 1_555
H22 C19 1_555 1_555
C20 H23 1_555 1_555
H24 C20 1_555 1_555
C21 C20 1_555 1_555
H25 C21 1_555 1_555
H26 C21 1_555 1_555
O1 C15 1_555 1_555
O2 C15 1_555 1_555
S1 C6 1_555 1_555
S2 C13 1_555 1_555
C7 S1 1_555 1_555
C10 C15 1_555 1_555
C11 C12 1_555 1_555
C14 S2 1_555 1_555
C20 O1 1_555 1_555
C21 O2 1_555 1_555

#END
