
#######################################################################
#
#                 Cambridge Crystallographic Data Centre
#                                CCDC 
#
#######################################################################
#
# If this CIF has been generated from an entry in the Cambridge 
# Structural Database, then it will include bibliographic, chemical, 
# crystal, experimental, refinement or atomic coordinate data resulting 
# from the CCDC's data processing and validation procedures.
#
#######################################################################

data_HOKVIO
_chemical_formula_moiety         'C13 H15 N3 O3'
_chemical_name_systematic        
(4S,5R,6S,7R)-7-methyl-3-phenyl-4,5,6,7-tetrahydro-[1,2,3]triazolo[1,5-a]pyridine-4,5,6-triol
_symmetry_cell_setting           orthorhombic
_symmetry_space_group_name_H-M   'P 21 21 21'
_symmetry_Int_Tables_number      19
_space_group_name_Hall           'P 2ac 2ab'
loop_
_symmetry_equiv_pos_site_id
_symmetry_equiv_pos_as_xyz
1 x,y,z
2 1/2-x,-y,1/2+z
3 -x,1/2+y,1/2-z
4 1/2+x,1/2-y,-z
_cell_length_a                   7.0280(11)
_cell_length_b                   12.5922(19)
_cell_length_c                   14.037(2)
_cell_angle_alpha                90
_cell_angle_beta                 90
_cell_angle_gamma                90
_cell_volume                     1242.25
_exptl_crystal_colour            colorless
_exptl_crystal_description       block
_cell_formula_units_Z            4
loop_
_atom_site_label
_atom_site_type_symbol
_atom_site_fract_x
_atom_site_fract_y
_atom_site_fract_z
C1 C 0.1025(2) 0.78074(12) 0.70865(11)
C2 C -0.1077(2) 0.75761(13) 0.71144(13)
H1 H -0.1394 0.7096 0.6588
C3 C -0.1677(3) 0.70526(14) 0.80581(14)
H2 H -0.2853 0.6651 0.7952
C4 C -0.0159(3) 0.62982(14) 0.84285(14)
H3 H -0.0631 0.5939 0.9001
C5 C 0.1664(3) 0.69085(13) 0.86719(12)
H4 H 0.1384 0.7416 0.9183
C6 C 0.2203(2) 0.82991(12) 0.64364(13)
C7 C 0.1817(3) 0.87999(12) 0.55057(11)
C8 C 0.0100(3) 0.86535(15) 0.50278(13)
H5 H -0.0823 0.8208 0.5284
C9 C -0.0239(4) 0.91700(17) 0.41712(14)
H6 H -0.1390 0.9070 0.3857
C10 C 0.1117(5) 0.98275(16) 0.37852(15)
H7 H 0.0881 1.0177 0.3213
C11 C 0.2810(5) 0.99666(18) 0.42437(15)
H8 H 0.3729 1.0409 0.3980
C12 C 0.3173(3) 0.94562(15) 0.50951(13)
H9 H 0.4338 0.9553 0.5396
C13 C 0.3271(3) 0.61918(17) 0.89905(14)
H10 H 0.4340 0.6617 0.9179
H11 H 0.3636 0.5735 0.8474
H12 H 0.2856 0.5769 0.9520
N1 N 0.21827(18) 0.75062(11) 0.78006(10)
N2 N 0.3989(2) 0.77883(11) 0.76299(11)
N3 N 0.4003(2) 0.82745(12) 0.67996(11)
O1 O -0.20417(18) 0.85623(9) 0.69706(11)
O2 O -0.2002(2) 0.78144(13) 0.87797(11)
O3 O 0.0149(2) 0.55408(10) 0.77027(10)
H13 H -0.317(4) 0.8465(18) 0.6829(15)
H14 H 0.066(4) 0.5002(17) 0.7916(16)
H15 H -0.281(4) 0.824(2) 0.861(2)
loop_
_geom_bond_atom_site_label_1
_geom_bond_atom_site_label_2
_geom_bond_site_symmetry_1
_geom_bond_site_symmetry_2
C1 C2 1_555 1_555
C2 H1 1_555 1_555
C3 C2 1_555 1_555
H2 C3 1_555 1_555
C4 C3 1_555 1_555
H3 C4 1_555 1_555
C5 C4 1_555 1_555
H4 C5 1_555 1_555
C6 C1 1_555 1_555
C7 C6 1_555 1_555
C8 C7 1_555 1_555
H5 C8 1_555 1_555
C9 C8 1_555 1_555
H6 C9 1_555 1_555
C10 C9 1_555 1_555
H7 C10 1_555 1_555
C11 C10 1_555 1_555
H8 C11 1_555 1_555
C12 C7 1_555 1_555
H9 C12 1_555 1_555
C13 C5 1_555 1_555
H10 C13 1_555 1_555
H11 C13 1_555 1_555
H12 C13 1_555 1_555
N1 C1 1_555 1_555
N2 N1 1_555 1_555
N3 C6 1_555 1_555
O1 C2 1_555 1_555
O2 C3 1_555 1_555
O3 C4 1_555 1_555
H13 O1 1_555 1_555
H14 O3 1_555 1_555
H15 O2 1_555 1_555
C5 N1 1_555 1_555
C11 C12 1_555 1_555
N2 N3 1_555 1_555

#END
