
#######################################################################
#
#                 Cambridge Crystallographic Data Centre
#                                CCDC 
#
#######################################################################
#
# If this CIF has been generated from an entry in the Cambridge 
# Structural Database, then it will include bibliographic, chemical, 
# crystal, experimental, refinement or atomic coordinate data resulting 
# from the CCDC's data processing and validation procedures.
#
#######################################################################

data_HOKYUB01
_chemical_formula_moiety         'C32 H32 O8,2(C2 H3 N1)'
_chemical_name_systematic        'Tetrabenzo-24-crown-8 acetonitrile clathrate'
_symmetry_cell_setting           monoclinic
_symmetry_space_group_name_H-M   'P 21/c'
_symmetry_Int_Tables_number      14
_space_group_name_Hall           '-P 2ybc'
loop_
_symmetry_equiv_pos_site_id
_symmetry_equiv_pos_as_xyz
1 x,y,z
2 x,1/2-y,1/2+z
3 -x,-y,-z
4 -x,1/2+y,1/2-z
_cell_length_a                   16.0182(13)
_cell_length_b                   10.200(2)
_cell_length_c                   21.394(2)
_cell_angle_alpha                90
_cell_angle_beta                 108.236(6)
_cell_angle_gamma                90
_cell_volume                     3319.91
_exptl_crystal_description       plates
_cell_formula_units_Z            4
_exptl_crystal_recrystallization_method 'diethyl ether/acetonitrile'
loop_
_atom_site_label
_atom_site_type_symbol
_atom_site_fract_x
_atom_site_fract_y
_atom_site_fract_z
O1 O 0.4761(2) 0.7875(3) 0.48902(12)
C1 C 0.4944(3) 0.7926(5) 0.5589(2)
H1 H 0.5563(3) 0.8186(5) 0.5804(2)
H2 H 0.4851(3) 0.7053(5) 0.5757(2)
C2 C 0.4343(3) 0.8902(5) 0.5739(2)
H3 H 0.4567(3) 0.9165(5) 0.6207(2)
H4 H 0.4301(3) 0.9695(5) 0.5463(2)
O2 O 0.3495(2) 0.8293(3) 0.55995(13)
C3 C 0.2846(2) 0.9016(4) 0.5720(2)
C4 C 0.2929(3) 1.0287(4) 0.5954(2)
H5 H 0.3479(3) 1.0724(4) 0.6052(2)
C5 C 0.2219(3) 1.0929(4) 0.6047(2)
H6 H 0.2291(3) 1.1794(4) 0.6220(2)
C6 C 0.1414(3) 1.0343(4) 0.5893(2)
H7 H 0.0925(3) 1.0806(4) 0.5945(2)
C7 C 0.1316(3) 0.9046(4) 0.5659(2)
H8 H 0.0761(3) 0.8626(4) 0.5557(2)
C8 C 0.2021(2) 0.8383(3) 0.5576(2)
O3 O 0.2004(2) 0.7117(2) 0.53609(12)
C9 C 0.1190(2) 0.6424(4) 0.5218(2)
H9 H 0.0743(2) 0.6835(4) 0.4841(2)
H10 H 0.0974(2) 0.6447(4) 0.5604(2)
C10 C 0.1348(2) 0.5039(4) 0.5057(2)
H11 H 0.1865(2) 0.4678(4) 0.5401(2)
H12 H 0.0830(2) 0.4491(4) 0.5038(2)
O4 O 0.1502(2) 0.5025(2) 0.44325(10)
C11 C 0.1595(2) 0.3819(3) 0.4182(2)
C12 C 0.1686(3) 0.2656(4) 0.4528(2)
H13 H 0.1708(3) 0.2667(4) 0.4977(2)
C13 C 0.1746(4) 0.1481(4) 0.4227(2)
H14 H 0.1798(4) 0.0686(4) 0.4468(2)
C14 C 0.1729(4) 0.1452(4) 0.3578(2)
H15 H 0.1776(4) 0.0641(4) 0.3373(2)
C15 C 0.1643(3) 0.2616(4) 0.3229(2)
H16 H 0.1641(3) 0.2602(4) 0.2784(2)
C16 C 0.1562(2) 0.3793(3) 0.3522(2)
O5 O 0.1434(2) 0.4978(2) 0.32024(10)
C17 C 0.1091(2) 0.4920(3) 0.24960(15)
H17 H 0.0584(2) 0.4314(3) 0.23591(15)
H18 H 0.1549(2) 0.4598(3) 0.23125(15)
C18 C 0.0811(2) 0.6276(3) 0.2248(2)
H19 H 0.0456(2) 0.6247(3) 0.1777(2)
H20 H 0.0449(2) 0.6671(3) 0.2499(2)
O6 O 0.15939(14) 0.7040(2) 0.23343(11)
C19 C 0.1469(2) 0.8308(3) 0.21161(14)
C20 C 0.0656(2) 0.8876(4) 0.1813(2)
H21 H 0.0136(2) 0.8370(4) 0.1740(2)
C21 C 0.0597(2) 1.0179(4) 0.1614(2)
H22 H 0.0037(2) 1.0564(4) 0.1412(2)
C22 C 0.1345(2) 1.0912(3) 0.1709(2)
H23 H 0.1301(2) 1.1798(3) 0.1566(2)
C23 C 0.2172(2) 1.0359(3) 0.2016(2)
H24 H 0.2689(2) 1.0868(3) 0.2083(2)
C24 C 0.2231(2) 0.9067(3) 0.22207(15)
O7 O 0.30082(15) 0.8438(2) 0.25364(12)
C25 C 0.3795(2) 0.9204(4) 0.2681(2)
H25 H 0.3779(2) 0.9925(4) 0.2987(2)
H26 H 0.3852(2) 0.9591(4) 0.2271(2)
C26 C 0.4554(2) 0.8310(4) 0.2989(2)
H27 H 0.4478(2) 0.7475(4) 0.2742(2)
H28 H 0.5109(2) 0.8723(4) 0.2979(2)
O8 O 0.4587(2) 0.8067(3) 0.36509(12)
C27 C 0.5189(2) 0.7161(4) 0.3992(2)
C28 C 0.5686(2) 0.6374(4) 0.3726(2)
H29 H 0.5649(2) 0.6477(4) 0.3277(2)
C29 C 0.6246(3) 0.5424(5) 0.4106(2)
H30 H 0.6572(3) 0.4865(5) 0.3914(2)
C30 C 0.6321(3) 0.5308(5) 0.4756(2)
H31 H 0.6704(3) 0.4666(5) 0.5018(2)
C31 C 0.5843(3) 0.6116(5) 0.5037(2)
H32 H 0.5908(3) 0.6033(5) 0.5492(2)
C32 C 0.5270(2) 0.7048(4) 0.4661(2)
N1 N 0.3884(3) 0.2777(5) 0.2775(2)
C33 C 0.3676(3) 0.3802(5) 0.2868(2)
C34 C 0.3429(3) 0.5080(5) 0.3009(4)
H33 H 0.3207(3) 0.5579(5) 0.2599(4)
H34 H 0.3941(3) 0.5529(5) 0.3306(4)
H35 H 0.2968(3) 0.5014(5) 0.3219(4)
N2 N 0.0670(3) 0.8253(4) 0.3697(2)
C35 C 0.1398(3) 0.8052(4) 0.3803(2)
C36 C 0.2330(3) 0.7794(4) 0.3939(2)
H36 H 0.2494(3) 0.7952(4) 0.3541(2)
H37 H 0.2455(3) 0.6879(4) 0.4077(2)
H38 H 0.2670(3) 0.8376(4) 0.4291(2)
loop_
_geom_bond_atom_site_label_1
_geom_bond_atom_site_label_2
_geom_bond_site_symmetry_1
_geom_bond_site_symmetry_2
O1 C1 1_555 1_555
C1 H1 1_555 1_555
H2 C1 1_555 1_555
C2 C1 1_555 1_555
H3 C2 1_555 1_555
H4 C2 1_555 1_555
O2 C2 1_555 1_555
C3 O2 1_555 1_555
C4 C3 1_555 1_555
H5 C4 1_555 1_555
C5 C4 1_555 1_555
H6 C5 1_555 1_555
C6 C5 1_555 1_555
H7 C6 1_555 1_555
C7 C6 1_555 1_555
H8 C7 1_555 1_555
C8 C3 1_555 1_555
O3 C8 1_555 1_555
C9 O3 1_555 1_555
H9 C9 1_555 1_555
H10 C9 1_555 1_555
C10 C9 1_555 1_555
H11 C10 1_555 1_555
H12 C10 1_555 1_555
O4 C10 1_555 1_555
C11 O4 1_555 1_555
C12 C11 1_555 1_555
H13 C12 1_555 1_555
C13 C12 1_555 1_555
H14 C13 1_555 1_555
C14 C13 1_555 1_555
H15 C14 1_555 1_555
C15 C14 1_555 1_555
H16 C15 1_555 1_555
C16 C11 1_555 1_555
O5 C16 1_555 1_555
C17 O5 1_555 1_555
H17 C17 1_555 1_555
H18 C17 1_555 1_555
C18 C17 1_555 1_555
H19 C18 1_555 1_555
H20 C18 1_555 1_555
O6 C18 1_555 1_555
C19 O6 1_555 1_555
C20 C19 1_555 1_555
H21 C20 1_555 1_555
C21 C20 1_555 1_555
H22 C21 1_555 1_555
C22 C21 1_555 1_555
H23 C22 1_555 1_555
C23 C22 1_555 1_555
H24 C23 1_555 1_555
C24 C19 1_555 1_555
O7 C24 1_555 1_555
C25 O7 1_555 1_555
H25 C25 1_555 1_555
H26 C25 1_555 1_555
C26 C25 1_555 1_555
H27 C26 1_555 1_555
H28 C26 1_555 1_555
O8 C26 1_555 1_555
C27 O8 1_555 1_555
C28 C27 1_555 1_555
H29 C28 1_555 1_555
C29 C28 1_555 1_555
H30 C29 1_555 1_555
C30 C29 1_555 1_555
H31 C30 1_555 1_555
C31 C30 1_555 1_555
H32 C31 1_555 1_555
C32 O1 1_555 1_555
N1 C33 1_555 1_555
C33 C34 1_555 1_555
C34 H33 1_555 1_555
H34 C34 1_555 1_555
H35 C34 1_555 1_555
N2 C35 1_555 1_555
C35 C36 1_555 1_555
C36 H36 1_555 1_555
H37 C36 1_555 1_555
H38 C36 1_555 1_555
C7 C8 1_555 1_555
C15 C16 1_555 1_555
C23 C24 1_555 1_555
C27 C32 1_555 1_555
C31 C32 1_555 1_555

#END
