
#######################################################################
#
#                 Cambridge Crystallographic Data Centre
#                                CCDC 
#
#######################################################################
#
# If this CIF has been generated from an entry in the Cambridge 
# Structural Database, then it will include bibliographic, chemical, 
# crystal, experimental, refinement or atomic coordinate data resulting 
# from the CCDC's data processing and validation procedures.
#
#######################################################################

data_HOLFEU
_chemical_formula_moiety         'C17 H13 N1 O1'
_chemical_name_systematic        (Z)-3-((E)-3-Phenylallylidene)indolin-2-one
_symmetry_cell_setting           monoclinic
_symmetry_space_group_name_H-M   'P 21'
_symmetry_Int_Tables_number      4
_space_group_name_Hall           'P 2yb'
loop_
_symmetry_equiv_pos_site_id
_symmetry_equiv_pos_as_xyz
1 x,y,z
2 -x,1/2+y,-z
_cell_length_a                   5.8373(4)
_cell_length_b                   15.3294(11)
_cell_length_c                   14.6516(10)
_cell_angle_alpha                90
_cell_angle_beta                 94.3120(10)
_cell_angle_gamma                90
_cell_volume                     1307.35
_exptl_crystal_colour            orange
_exptl_crystal_description       plates
_cell_formula_units_Z            4
_exptl_crystal_recrystallization_method ethanol
loop_
_atom_site_label
_atom_site_type_symbol
_atom_site_fract_x
_atom_site_fract_y
_atom_site_fract_z
N1 N 0.4059(5) 0.95163(18) 0.38623(17)
H1 H 0.2755 0.9773 0.3761
C1 C 0.5085(5) 0.9366(2) 0.4708(2)
O1 O 0.4320(4) 0.95989(17) 0.54301(15)
C2 C 0.7271(5) 0.8900(2) 0.4579(2)
C3 C 0.8935(6) 0.8445(2) 0.3042(2)
H2 H 1.0253 0.8175 0.3303
C4 C 0.8528(7) 0.8490(3) 0.2103(3)
H3 H 0.9586 0.8254 0.1729
C5 C 0.6563(7) 0.8883(3) 0.1715(2)
H4 H 0.6319 0.8903 0.1081
C6 C 0.4945(6) 0.9250(2) 0.2242(2)
H5 H 0.3628 0.9516 0.1976
C7 C 0.5369(6) 0.9204(2) 0.3177(2)
C8 C 0.7351(5) 0.8807(2) 0.3587(2)
C9 C 0.8870(6) 0.8656(2) 0.5242(2)
H6 H 1.0145 0.8360 0.5057
C10 C 0.8796(6) 0.8809(2) 0.6199(2)
H7 H 0.7472 0.9045 0.6414
C11 C 1.0558(6) 0.8623(2) 0.6795(2)
H8 H 1.1814 0.8356 0.6557
C12 C 1.0757(6) 0.8790(2) 0.7785(2)
C13 C 0.9034(7) 0.9174(2) 0.8247(2)
H9 H 0.7671 0.9344 0.7927
C14 C 0.9330(8) 0.9305(3) 0.9174(3)
H10 H 0.8159 0.9563 0.9476
C15 C 1.1324(10) 0.9062(3) 0.9662(3)
H11 H 1.1517 0.9164 1.0289
C16 C 1.3015(9) 0.8671(4) 0.9220(3)
H12 H 1.4350 0.8485 0.9549
C17 C 1.2756(7) 0.8550(3) 0.8289(3)
H13 H 1.3949 0.8302 0.7992
N2 N 1.0612(5) 0.08155(18) 0.53233(18)
H14 H 1.1927 0.0565 0.5416
C18 C 0.9524(5) 0.0958(2) 0.4481(2)
O2 O 1.0232(4) 0.07199(16) 0.37516(15)
C19 C 0.7335(5) 0.1433(2) 0.4633(2)
C20 C 0.5755(6) 0.1884(2) 0.6182(2)
H15 H 0.4423 0.2150 0.5930
C21 C 0.6208(7) 0.1840(2) 0.7120(2)
H16 H 0.5180 0.2084 0.7502
C22 C 0.8194(7) 0.1435(3) 0.7497(2)
H17 H 0.8460 0.1403 0.8130
C23 C 0.9781(6) 0.1077(2) 0.6946(2)
H18 H 1.1115 0.0810 0.7197
C24 C 0.9305(6) 0.1132(2) 0.6021(2)
C25 C 0.7319(5) 0.1524(2) 0.5624(2)
C26 C 0.5699(6) 0.1654(2) 0.3983(2)
H19 H 0.4411 0.1931 0.4183
C27 C 0.5698(6) 0.1515(2) 0.3022(2)
H20 H 0.7001 0.1279 0.2790
C28 C 0.3890(6) 0.1712(2) 0.2440(2)
H21 H 0.2614 0.1940 0.2699
C29 C 0.3687(6) 0.1611(2) 0.1446(2)
C30 C 0.5387(7) 0.1255(3) 0.0959(3)
H22 H 0.6731 0.1050 0.1268
C31 C 0.5111(8) 0.1201(3) 0.0017(3)
H23 H 0.6266 0.0957 -0.0305
C32 C 0.3149(9) 0.1503(3) -0.0446(3)
H24 H 0.2974 0.1468 -0.1081
C33 C 0.1474(8) 0.1852(3) 0.0019(3)
H25 H 0.0140 0.2058 -0.0297
C34 C 0.1718(6) 0.1907(3) 0.0951(2)
H26 H 0.0538 0.2148 0.1262
loop_
_geom_bond_atom_site_label_1
_geom_bond_atom_site_label_2
_geom_bond_site_symmetry_1
_geom_bond_site_symmetry_2
N1 H1 1_555 1_555
C1 N1 1_555 1_555
O1 C1 1_555 1_555
C2 C1 1_555 1_555
C3 H2 1_555 1_555
C4 C3 1_555 1_555
H3 C4 1_555 1_555
C5 C4 1_555 1_555
H4 C5 1_555 1_555
C6 C5 1_555 1_555
H5 C6 1_555 1_555
C7 N1 1_555 1_555
C8 C2 1_555 1_555
C9 C2 1_555 1_555
H6 C9 1_555 1_555
C10 C9 1_555 1_555
H7 C10 1_555 1_555
C11 C10 1_555 1_555
H8 C11 1_555 1_555
C12 C11 1_555 1_555
C13 C12 1_555 1_555
H9 C13 1_555 1_555
C14 C13 1_555 1_555
H10 C14 1_555 1_555
C15 C14 1_555 1_555
H11 C15 1_555 1_555
C16 C15 1_555 1_555
H12 C16 1_555 1_555
C17 C12 1_555 1_555
H13 C17 1_555 1_555
N2 H14 1_555 1_555
C18 N2 1_555 1_555
O2 C18 1_555 1_555
C19 C18 1_555 1_555
C20 H15 1_555 1_555
C21 C20 1_555 1_555
H16 C21 1_555 1_555
C22 C21 1_555 1_555
H17 C22 1_555 1_555
C23 C22 1_555 1_555
H18 C23 1_555 1_555
C24 N2 1_555 1_555
C25 C19 1_555 1_555
C26 C19 1_555 1_555
H19 C26 1_555 1_555
C27 C26 1_555 1_555
H20 C27 1_555 1_555
C28 C27 1_555 1_555
H21 C28 1_555 1_555
C29 C28 1_555 1_555
C30 C29 1_555 1_555
H22 C30 1_555 1_555
C31 C30 1_555 1_555
H23 C31 1_555 1_555
C32 C31 1_555 1_555
H24 C32 1_555 1_555
C33 C32 1_555 1_555
H25 C33 1_555 1_555
C34 C29 1_555 1_555
H26 C34 1_555 1_555
C3 C8 1_555 1_555
C6 C7 1_555 1_555
C7 C8 1_555 1_555
C16 C17 1_555 1_555
C20 C25 1_555 1_555
C23 C24 1_555 1_555
C24 C25 1_555 1_555
C33 C34 1_555 1_555

#END
