
#######################################################################
#
#                 Cambridge Crystallographic Data Centre
#                                CCDC 
#
#######################################################################
#
# If this CIF has been generated from an entry in the Cambridge 
# Structural Database, then it will include bibliographic, chemical, 
# crystal, experimental, refinement or atomic coordinate data resulting 
# from the CCDC's data processing and validation procedures.
#
#######################################################################

data_HOLGUL
_chemical_name_common            
N,N',N'-Triacetyl-2-(4-nitrophenoxy)acetohydrazide
_chemical_formula_moiety         'C14 H15 N3 O7'
_chemical_name_systematic        
N,N'-Diacetyl-N'-((4-nitrophenoxy)acetyl)acetohydrazide
_symmetry_cell_setting           monoclinic
_symmetry_space_group_name_H-M   'P 21/c'
_symmetry_Int_Tables_number      14
_space_group_name_Hall           '-P 2ybc'
loop_
_symmetry_equiv_pos_site_id
_symmetry_equiv_pos_as_xyz
1 x,y,z
2 -x,1/2+y,1/2-z
3 -x,-y,-z
4 x,1/2-y,1/2+z
_cell_length_a                   14.949(3)
_cell_length_b                   11.723(2)
_cell_length_c                   23.034(7)
_cell_angle_alpha                90
_cell_angle_beta                 127.73(2)
_cell_angle_gamma                90
_cell_volume                     3192.59
_exptl_crystal_colour            yellow
_exptl_crystal_description       block
_chemical_melting_point          '400-402 K'
_cell_formula_units_Z            8
_exptl_crystal_recrystallization_method 
'dichloromethane/ethyl acetate/petroleum ether'
loop_
_atom_site_label
_atom_site_type_symbol
_atom_site_fract_x
_atom_site_fract_y
_atom_site_fract_z
O1 O 0.2333(2) 0.8689(2) 0.21267(15)
O2 O 0.1368(3) 0.8437(2) 0.25247(17)
O3 O 0.42854(18) 0.40509(18) 0.37921(12)
O4 O 0.6321(2) 0.49597(19) 0.46900(13)
O5 O 0.6482(2) 0.2300(2) 0.36527(15)
O6 O 0.8291(2) 0.3120(2) 0.57451(13)
O7 O 0.9409(3) 0.5835(2) 0.52505(16)
N1 N 0.2110(3) 0.8155(2) 0.24781(17)
N2 N 0.7227(2) 0.38153(19) 0.44137(13)
N3 N 0.8218(2) 0.43821(19) 0.49755(14)
C1 C 0.4096(3) 0.5723(3) 0.30951(17)
H1 H 0.4643 0.5466 0.3054
C2 C 0.3531(3) 0.6740(3) 0.27690(17)
H2 H 0.3689 0.7169 0.2502
C3 C 0.2740(3) 0.7106(3) 0.28447(16)
C4 C 0.2493(3) 0.6498(3) 0.32446(17)
H3 H 0.1958 0.6767 0.3294
C5 C 0.3051(3) 0.5486(3) 0.35685(18)
H4 H 0.2902 0.5070 0.3844
C6 C 0.3834(3) 0.5094(3) 0.34818(17)
C7 C 0.5136(3) 0.3581(3) 0.37718(17)
H5 H 0.4929 0.3675 0.3285
H6 H 0.5209 0.2771 0.3879
C8 C 0.6249(3) 0.4171(3) 0.43298(17)
C9 C 0.7331(3) 0.2802(3) 0.4132(2)
C10 C 0.8493(3) 0.2430(3) 0.4436(2)
H7 H 0.8452 0.1809 0.4149
H8 H 0.8886 0.2185 0.4935
H9 H 0.8893 0.3055 0.4421
C11 C 0.8679(3) 0.3978(3) 0.56963(19)
C12 C 0.9615(3) 0.4641(3) 0.6347(2)
H10 H 0.9821 0.4286 0.6789
H11 H 0.9365 0.5407 0.6321
H12 H 1.0259 0.4656 0.6349
C13 C 0.8542(3) 0.5358(3) 0.4788(2)
C14 C 0.7769(3) 0.5723(3) 0.4003(2)
H13 H 0.8077 0.6384 0.3937
H14 H 0.7040 0.5906 0.3872
H15 H 0.7693 0.5116 0.3697
O8 O 0.1627(3) 0.1506(2) 0.30176(15)
O9 O 0.2870(3) 0.1469(3) 0.28234(18)
O10 O 0.04055(18) 0.59236(18) 0.11342(13)
O11 O -0.1592(2) 0.50634(19) 0.00605(13)
O12 O -0.2095(2) 0.79848(17) 0.07476(13)
O13 O -0.3611(2) 0.6753(2) -0.12019(13)
O14 O -0.4705(2) 0.4126(2) -0.06148(13)
N4 N 0.2069(3) 0.1901(2) 0.27528(17)
N5 N -0.2660(2) 0.62816(18) 0.01591(13)
N6 N -0.3595(2) 0.56424(19) -0.03922(13)
C15 C 0.0295(3) 0.4494(3) 0.18604(17)
H16 H -0.0283 0.4877 0.1823
C16 C 0.0735(3) 0.3494(3) 0.22626(17)
H17 H 0.0458 0.3202 0.2500
C17 C 0.1581(3) 0.2942(2) 0.23061(17)
C18 C 0.2002(3) 0.3346(3) 0.19574(19)
H18 H 0.2574 0.2954 0.1993
C19 C 0.1565(3) 0.4341(3) 0.15526(19)
H19 H 0.1835 0.4620 0.1308
C20 C 0.0724(3) 0.4919(3) 0.15138(18)
C21 C -0.0556(3) 0.6512(3) 0.09652(19)
H20 H -0.0561 0.7286 0.0815
H21 H -0.0529 0.6546 0.1397
C22 C -0.1609(3) 0.5901(3) 0.03573(18)
C23 C -0.2871(3) 0.7349(2) 0.03504(18)
C24 C -0.4056(3) 0.7574(2) 0.00513(19)
H22 H -0.4100 0.8297 0.0229
H23 H -0.4311 0.6982 0.0206
H24 H -0.4525 0.7590 -0.0475
C25 C -0.4020(3) 0.5946(3) -0.11249(18)
C26 C -0.4949(3) 0.5243(3) -0.17484(17)
H25 H -0.5187 0.5574 -0.2204
H26 H -0.5576 0.5222 -0.1733
H27 H -0.4681 0.4481 -0.1709
C27 C -0.3882(3) 0.4682(2) -0.01662(19)
C28 C -0.3147(3) 0.4410(3) 0.06307(18)
H28 H -0.3470 0.3789 0.0717
H29 H -0.3088 0.5068 0.0901
H30 H -0.2408 0.4199 0.0789
loop_
_geom_bond_atom_site_label_1
_geom_bond_atom_site_label_2
_geom_bond_site_symmetry_1
_geom_bond_site_symmetry_2
O1 N1 1_555 1_555
O2 N1 1_555 1_555
O3 C6 1_555 1_555
O4 C8 1_555 1_555
O5 C9 1_555 1_555
O6 C11 1_555 1_555
O7 C13 1_555 1_555
N1 C3 1_555 1_555
N2 N3 1_555 1_555
N3 C11 1_555 1_555
C1 H1 1_555 1_555
C2 C1 1_555 1_555
H2 C2 1_555 1_555
C3 C2 1_555 1_555
C4 C3 1_555 1_555
H3 C4 1_555 1_555
C5 C4 1_555 1_555
H4 C5 1_555 1_555
C6 C1 1_555 1_555
C7 O3 1_555 1_555
H5 C7 1_555 1_555
H6 C7 1_555 1_555
C8 N2 1_555 1_555
C9 N2 1_555 1_555
C10 C9 1_555 1_555
H7 C10 1_555 1_555
H8 C10 1_555 1_555
H9 C10 1_555 1_555
C11 C12 1_555 1_555
C12 H10 1_555 1_555
H11 C12 1_555 1_555
H12 C12 1_555 1_555
C13 N3 1_555 1_555
C14 C13 1_555 1_555
H13 C14 1_555 1_555
H14 C14 1_555 1_555
H15 C14 1_555 1_555
O8 N4 1_555 1_555
O9 N4 1_555 1_555
O10 C20 1_555 1_555
O11 C22 1_555 1_555
O12 C23 1_555 1_555
O13 C25 1_555 1_555
O14 C27 1_555 1_555
N4 C17 1_555 1_555
N5 N6 1_555 1_555
N6 C25 1_555 1_555
C15 H16 1_555 1_555
C16 C15 1_555 1_555
H17 C16 1_555 1_555
C17 C16 1_555 1_555
C18 C17 1_555 1_555
H18 C18 1_555 1_555
C19 C18 1_555 1_555
H19 C19 1_555 1_555
C20 C15 1_555 1_555
C21 O10 1_555 1_555
H20 C21 1_555 1_555
H21 C21 1_555 1_555
C22 N5 1_555 1_555
C23 N5 1_555 1_555
C24 C23 1_555 1_555
H22 C24 1_555 1_555
H23 C24 1_555 1_555
H24 C24 1_555 1_555
C25 C26 1_555 1_555
C26 H25 1_555 1_555
H26 C26 1_555 1_555
H27 C26 1_555 1_555
C27 N6 1_555 1_555
C28 C27 1_555 1_555
H28 C28 1_555 1_555
H29 C28 1_555 1_555
H30 C28 1_555 1_555
C5 C6 1_555 1_555
C7 C8 1_555 1_555
C19 C20 1_555 1_555
C21 C22 1_555 1_555

#END
