
#######################################################################
#
#                 Cambridge Crystallographic Data Centre
#                                CCDC 
#
#######################################################################
#
# If this CIF has been generated from an entry in the Cambridge 
# Structural Database, then it will include bibliographic, chemical, 
# crystal, experimental, refinement or atomic coordinate data resulting 
# from the CCDC's data processing and validation procedures.
#
#######################################################################

data_HOLGIZ
_chemical_formula_moiety         'C9 H14 N1 1+,C7 H7 O3 S1 1-'
_chemical_name_systematic        
'2-Ethyl-6-methylanilinium 4-methylbenzenesulfonate'
_symmetry_cell_setting           monoclinic
_symmetry_space_group_name_H-M   'P 21/n'
_symmetry_Int_Tables_number      14
_space_group_name_Hall           '-P 2yn'
loop_
_symmetry_equiv_pos_site_id
_symmetry_equiv_pos_as_xyz
1 x,y,z
2 1/2-x,1/2+y,1/2-z
3 -x,-y,-z
4 1/2+x,1/2-y,1/2+z
_cell_length_a                   15.2514(9)
_cell_length_b                   6.1889(4)
_cell_length_c                   16.9242(10)
_cell_angle_alpha                90
_cell_angle_beta                 102.8500(10)
_cell_angle_gamma                90
_cell_volume                     1557.46
_exptl_crystal_colour            colorless
_exptl_crystal_description       block
_chemical_melting_point          '428 K'
_cell_formula_units_Z            4
_exptl_crystal_recrystallization_method ethanol
loop_
_atom_site_label
_atom_site_type_symbol
_atom_site_fract_x
_atom_site_fract_y
_atom_site_fract_z
S1 S 0.90482(3) 0.20760(7) 0.10019(2)
C10 C 0.88515(10) 0.1172(3) 0.19401(10)
C11 C 0.90431(11) 0.2524(3) 0.26121(10)
H12 H 0.9258 0.3948 0.2564
C12 C 0.89200(12) 0.1787(3) 0.33539(11)
H13 H 0.9053 0.2716 0.3812
C13 C 0.86041(11) -0.0297(3) 0.34369(11)
C14 C 0.84062(12) -0.1613(3) 0.27551(12)
H14 H 0.8180 -0.3028 0.2799
C15 C 0.85323(12) -0.0899(3) 0.20085(11)
H15 H 0.8401 -0.1825 0.1550
C16 C 0.84628(14) -0.1093(4) 0.42440(12)
H16 H 0.8966 -0.0624 0.4677
H17 H 0.8430 -0.2675 0.4238
H18 H 0.7900 -0.0497 0.4340
O1 O 0.88551(8) 0.43864(19) 0.09615(7)
O2 O 0.84407(8) 0.0861(2) 0.03804(7)
O3 O 0.99931(8) 0.1642(2) 0.10318(8)
C1 C 0.78421(10) 0.5823(3) 0.90053(9)
C2 C 0.80908(11) 0.4025(3) 0.86141(10)
C3 C 0.74104(12) 0.2913(3) 0.80842(10)
H1 H 0.7557 0.1687 0.7802
C4 C 0.65245(12) 0.3572(3) 0.79640(11)
H2 H 0.6068 0.2791 0.7603
C5 C 0.62989(12) 0.5364(3) 0.83675(11)
H3 H 0.5687 0.5799 0.8279
C6 C 0.69564(11) 0.6543(3) 0.89020(10)
C7 C 0.90521(12) 0.3284(3) 0.87383(11)
H4 H 0.9409 0.4405 0.8547
H5 H 0.9077 0.1949 0.8433
H6 H 0.9297 0.3017 0.9316
C8 C 0.67261(11) 0.8507(3) 0.93471(11)
H7 H 0.7064 0.9759 0.9204
H8 H 0.6937 0.8256 0.9936
C9 C 0.57363(13) 0.9096(4) 0.91767(15)
H9 H 0.5525 0.9429 0.8600
H10 H 0.5653 1.0361 0.9500
H11 H 0.5392 0.7876 0.9320
N1 N 0.85616(9) 0.6956(2) 0.95856(8)
H19 H 0.8349 0.8242 0.9725
H20 H 0.9036 0.7195 0.9352
H21 H 0.8743 0.6129 1.0037
loop_
_geom_bond_atom_site_label_1
_geom_bond_atom_site_label_2
_geom_bond_site_symmetry_1
_geom_bond_site_symmetry_2
S1 C10 1_555 1_555
C1 C2 1_555 1_555
C2 C3 1_555 1_555
C3 H1 1_555 1_555
C4 C3 1_555 1_555
H2 C4 1_555 1_555
C5 C4 1_555 1_555
H3 C5 1_555 1_555
C6 C1 1_555 1_555
C7 C2 1_555 1_555
H4 C7 1_555 1_555
H5 C7 1_555 1_555
H6 C7 1_555 1_555
C8 C6 1_555 1_555
H7 C8 1_555 1_555
H8 C8 1_555 1_555
C9 C8 1_555 1_555
H9 C9 1_555 1_555
H10 C9 1_555 1_555
H11 C9 1_555 1_555
C10 C11 1_555 1_555
C11 H12 1_555 1_555
C12 C11 1_555 1_555
H13 C12 1_555 1_555
C13 C12 1_555 1_555
C14 C13 1_555 1_555
H14 C14 1_555 1_555
C15 C10 1_555 1_555
H15 C15 1_555 1_555
C16 C13 1_555 1_555
H16 C16 1_555 1_555
H17 C16 1_555 1_555
H18 C16 1_555 1_555
N1 C1 1_555 1_555
H19 N1 1_555 1_555
H20 N1 1_555 1_555
H21 N1 1_555 1_555
O1 S1 1_555 1_555
O2 S1 1_555 1_555
O3 S1 1_555 1_555
C5 C6 1_555 1_555
C14 C15 1_555 1_555

#END
