
#######################################################################
#
#                 Cambridge Crystallographic Data Centre
#                                CCDC 
#
#######################################################################
#
# If this CIF has been generated from an entry in the Cambridge 
# Structural Database, then it will include bibliographic, chemical, 
# crystal, experimental, refinement or atomic coordinate data resulting 
# from the CCDC's data processing and validation procedures.
#
#######################################################################

data_HOLKUQ
_chemical_formula_moiety         'C6 H15 B1 N3 1+,C1 F3 O3 S1 1-'
_chemical_name_systematic        
'(1-(2-(amino)ethyl)-3-methyl-1H-imidazol-3-ium)(trihydrido)borate trifluoromethanesulfonate'
_symmetry_cell_setting           triclinic
_symmetry_space_group_name_H-M   'P -1'
_symmetry_Int_Tables_number      2
_space_group_name_Hall           '-P 1'
loop_
_symmetry_equiv_pos_site_id
_symmetry_equiv_pos_as_xyz
1 x,y,z
2 -x,-y,-z
_cell_length_a                   8.1663(9)
_cell_length_b                   9.5042(10)
_cell_length_c                   9.8518(11)
_cell_angle_alpha                109.251(1)
_cell_angle_beta                 93.241(1)
_cell_angle_gamma                115.054(1)
_cell_volume                     636.527
_exptl_crystal_colour            colorless
_exptl_crystal_description       block
_chemical_melting_point          '354.3 K'
_cell_formula_units_Z            2
_chemical_properties_physical    'Moisture-sensitive, Heat-sensitive'
loop_
_atom_site_label
_atom_site_type_symbol
_atom_site_fract_x
_atom_site_fract_y
_atom_site_fract_z
S1 S 0.45411(4) 0.27387(4) 0.27778(3)
F1 F 0.22784(17) -0.04688(12) 0.12005(11)
F2 F 0.17243(13) 0.12632(13) 0.05335(12)
F3 F 0.40111(15) 0.08346(12) 0.00050(10)
O1 O 0.57733(15) 0.21904(13) 0.32684(11)
O2 O 0.32586(16) 0.28867(14) 0.36826(12)
O3 O 0.53997(14) 0.41008(12) 0.22839(11)
C1 C 0.3058(2) 0.09923(18) 0.10484(16)
N1 N 0.20011(15) 0.23280(14) 0.62716(12)
H1 H 0.1993 0.1829 0.5318
H2 H 0.2865 0.3418 0.6599
N2 N 0.59827(15) 0.30598(14) 0.75405(12)
N3 N 0.84906(16) 0.52631(15) 0.77500(12)
B1 B 0.0008(2) 0.2240(2) 0.63688(17)
H3 H -0.0905 0.1092 0.6122
H4 H -0.0322 0.2655 0.5688
H5 H 0.0060 0.2921 0.7355
C2 C 0.25406(19) 0.15174(17) 0.71265(15)
H6 H 0.1538 0.0386 0.6864
H7 H 0.2710 0.2146 0.8169
C3 C 0.43114(19) 0.14150(17) 0.68706(16)
H8 H 0.4432 0.0654 0.7278
H9 H 0.4219 0.0945 0.5816
C4 C 0.70717(18) 0.38538(17) 0.67956(14)
H10 H 0.6870 0.3480 0.5772
C5 C 0.67432(19) 0.40053(18) 0.90349(15)
H11 H 0.6266 0.3745 0.9806
C6 C 0.83120(19) 0.53781(18) 0.91576(15)
H12 H 0.9123 0.6243 1.0033
C7 C 1.0067(2) 0.6414(2) 0.73652(17)
H13 H 1.1098 0.6196 0.7496
H14 H 1.0411 0.7558 0.7993
H15 H 0.9727 0.6245 0.6353
loop_
_geom_bond_atom_site_label_1
_geom_bond_atom_site_label_2
_geom_bond_site_symmetry_1
_geom_bond_site_symmetry_2
S1 O1 1_555 1_555
F1 C1 1_555 1_555
F2 C1 1_555 1_555
F3 C1 1_555 1_555
O2 S1 1_555 1_555
O3 S1 1_555 1_555
C1 S1 1_555 1_555
N1 H1 1_555 1_555
H2 N1 1_555 1_555
N2 C3 1_555 1_555
N3 C4 1_555 1_555
B1 N1 1_555 1_555
H3 B1 1_555 1_555
H4 B1 1_555 1_555
H5 B1 1_555 1_555
C2 N1 1_555 1_555
H6 C2 1_555 1_555
H7 C2 1_555 1_555
C3 C2 1_555 1_555
H8 C3 1_555 1_555
H9 C3 1_555 1_555
C4 N2 1_555 1_555
H10 C4 1_555 1_555
C5 N2 1_555 1_555
H11 C5 1_555 1_555
C6 N3 1_555 1_555
H12 C6 1_555 1_555
C7 N3 1_555 1_555
H13 C7 1_555 1_555
H14 C7 1_555 1_555
H15 C7 1_555 1_555
C5 C6 1_555 1_555

#END
