
#######################################################################
#
#                 Cambridge Crystallographic Data Centre
#                                CCDC 
#
#######################################################################
#
# If this CIF has been generated from an entry in the Cambridge 
# Structural Database, then it will include bibliographic, chemical, 
# crystal, experimental, refinement or atomic coordinate data resulting 
# from the CCDC's data processing and validation procedures.
#
#######################################################################

data_HOLLAX
_chemical_formula_moiety         'C12 H28 N3 Si2 1+,Cl1 1-'
_chemical_name_systematic        
'1-(2-(bis(trimethylsilyl)amino)ethyl)-3-methyl-1H-imidazol-3-ium chloride'
_symmetry_cell_setting           triclinic
_symmetry_space_group_name_H-M   'P -1'
_symmetry_Int_Tables_number      2
_space_group_name_Hall           '-P 1'
loop_
_symmetry_equiv_pos_site_id
_symmetry_equiv_pos_as_xyz
1 x,y,z
2 -x,-y,-z
_cell_length_a                   8.954(5)
_cell_length_b                   11.908(7)
_cell_length_c                   18.248(10)
_cell_angle_alpha                108.424(8)
_cell_angle_beta                 99.976(7)
_cell_angle_gamma                93.421(7)
_cell_volume                     1804.36
_cell_formula_units_Z            4
loop_
_atom_site_label
_atom_site_type_symbol
_atom_site_fract_x
_atom_site_fract_y
_atom_site_fract_z
Si1 Si 0.5894(3) 0.2367(2) 0.63603(16)
Si2 Si 0.4006(3) 0.4505(2) 0.67254(15)
N1 N 0.5394(8) 0.3650(5) 0.6998(4)
N2 N 0.6325(10) 0.4470(6) 0.9200(5)
N3 N 0.8010(13) 0.4822(8) 1.0282(5)
C1 C 0.6343(12) 0.1260(8) 0.6870(7)
H1 H 0.7288 0.1544 0.7248
H2 H 0.6435 0.0511 0.6489
H3 H 0.5537 0.1154 0.7137
C2 C 0.7623(12) 0.2758(9) 0.5998(7)
H4 H 0.7407 0.3326 0.5732
H5 H 0.7886 0.2052 0.5639
H6 H 0.8462 0.3097 0.6438
C3 C 0.4255(12) 0.1626(8) 0.5506(6)
H7 H 0.3469 0.1262 0.5685
H8 H 0.4609 0.1026 0.5105
H9 H 0.3851 0.2211 0.5293
C4 C 0.4190(12) 0.4722(8) 0.5770(5)
H10 H 0.5231 0.5007 0.5798
H11 H 0.3538 0.5294 0.5676
H12 H 0.3896 0.3976 0.5348
C5 C 0.2031(11) 0.3804(9) 0.6637(7)
H13 H 0.1857 0.3026 0.6244
H14 H 0.1302 0.4292 0.6487
H15 H 0.1919 0.3734 0.7135
C6 C 0.4296(12) 0.6032(8) 0.7463(5)
H16 H 0.4080 0.5991 0.7952
H17 H 0.3622 0.6520 0.7271
H18 H 0.5336 0.6374 0.7547
C7 C 0.6289(11) 0.4099(7) 0.7796(5)
H19 H 0.6561 0.4951 0.7936
H20 H 0.7230 0.3735 0.7806
C8 C 0.5515(13) 0.3876(8) 0.8404(5)
H21 H 0.4507 0.4135 0.8344
H22 H 0.5380 0.3025 0.8311
C9 C 0.6313(13) 0.5631(8) 0.9664(6)
H23 H 0.5694 0.6166 0.9532
C10 C 0.7337(13) 0.5864(8) 1.0339(6)
H24 H 0.7555 0.6577 1.0759
C11 C 0.7386(15) 0.4046(9) 0.9598(6)
H25 H 0.7658 0.3280 0.9411
C12 C 0.920(2) 0.4665(13) 1.0913(7)
Si3 Si 1.1572(3) 0.9354(2) 0.67816(16)
Si4 Si 0.9298(3) 0.73180(19) 0.67879(14)
N4 N 1.0776(7) 0.8491(6) 0.7263(4)
N5 N 1.0060(9) 0.9209(7) 0.8935(4)
N6 N 0.7617(12) 0.9222(12) 0.8919(6)
C13 C 1.3087(10) 0.8595(8) 0.6308(6)
H26 H 1.3773 0.8363 0.6685
H27 H 1.3642 0.9131 0.6124
H28 H 1.2625 0.7900 0.5870
C14 C 1.0092(11) 0.9602(9) 0.6012(6)
H29 H 0.9663 0.8850 0.5619
H30 H 1.0552 1.0103 0.5769
H31 H 0.9299 0.9983 0.6252
C15 C 1.2403(13) 1.0855(8) 0.7487(7)
H32 H 1.1610 1.1261 0.7711
H33 H 1.2860 1.1308 0.7213
H34 H 1.3166 1.0770 0.7899
C16 C 0.7419(10) 0.7896(8) 0.6605(5)
H35 H 0.7193 0.8361 0.7099
H36 H 0.6631 0.7238 0.6343
H37 H 0.7471 0.8386 0.6279
C17 C 0.9667(11) 0.6339(8) 0.5824(5)
H38 H 0.9595 0.6771 0.5457
H39 H 0.8923 0.5644 0.5616
H40 H 1.0672 0.6102 0.5904
C18 C 0.9099(11) 0.6331(7) 0.7386(5)
H41 H 1.0023 0.5974 0.7458
H42 H 0.8259 0.5717 0.7117
H43 H 0.8914 0.6792 0.7891
C19 C 1.1775(10) 0.8519(7) 0.8009(5)
H44 H 1.2831 0.8647 0.7965
H45 H 1.1613 0.7743 0.8070
C20 C 1.1532(10) 0.9457(8) 0.8743(5)
H46 H 1.2342 0.9496 0.9183
H47 H 1.1592 1.0228 0.8668
C21 C 0.9721(15) 0.8532(9) 0.9380(6)
H48 H 1.0381 0.8136 0.9636
C22 C 0.8162(19) 0.8568(12) 0.9365(8)
H49 H 0.7589 0.8200 0.9623
C23 C 0.8761(13) 0.9599(12) 0.8672(6)
H50 H 0.8692 1.0078 0.8355
C24 C 0.607(3) 0.977(2) 0.8725(14)
Cl2 Cl 0.581(2) 0.2111(12) 0.0341(4)
Cl3 Cl 0.0556(7) 0.7835(5) 0.1291(4)
C25? C 0.597(3) 0.921(2) 0.8873(14)
Cl1? Cl 0.673(3) 0.2513(13) 0.0464(8)
Cl4? Cl 0.0203(10) 0.7563(8) 0.1663(9)
loop_
_geom_bond_atom_site_label_1
_geom_bond_atom_site_label_2
_geom_bond_site_symmetry_1
_geom_bond_site_symmetry_2
Si1 N1 1_555 1_555
Si2 N1 1_555 1_555
N1 C7 1_555 1_555
N2 C8 1_555 1_555
N3 C10 1_555 1_555
C1 Si1 1_555 1_555
H1 C1 1_555 1_555
H2 C1 1_555 1_555
H3 C1 1_555 1_555
C2 Si1 1_555 1_555
H4 C2 1_555 1_555
H5 C2 1_555 1_555
H6 C2 1_555 1_555
C3 Si1 1_555 1_555
H7 C3 1_555 1_555
H8 C3 1_555 1_555
H9 C3 1_555 1_555
C4 Si2 1_555 1_555
H10 C4 1_555 1_555
H11 C4 1_555 1_555
H12 C4 1_555 1_555
C5 Si2 1_555 1_555
H13 C5 1_555 1_555
H14 C5 1_555 1_555
H15 C5 1_555 1_555
C6 Si2 1_555 1_555
H16 C6 1_555 1_555
H17 C6 1_555 1_555
H18 C6 1_555 1_555
C7 H19 1_555 1_555
H20 C7 1_555 1_555
C8 C7 1_555 1_555
H21 C8 1_555 1_555
H22 C8 1_555 1_555
C9 N2 1_555 1_555
H23 C9 1_555 1_555
C10 C9 1_555 1_555
H24 C10 1_555 1_555
C11 N2 1_555 1_555
H25 C11 1_555 1_555
C12 N3 1_555 1_555
Si3 N4 1_555 1_555
Si4 N4 1_555 1_555
N4 C19 1_555 1_555
N5 C20 1_555 1_555
N6 C22 1_555 1_555
C13 Si3 1_555 1_555
H26 C13 1_555 1_555
H27 C13 1_555 1_555
H28 C13 1_555 1_555
C14 Si3 1_555 1_555
H29 C14 1_555 1_555
H30 C14 1_555 1_555
H31 C14 1_555 1_555
C15 Si3 1_555 1_555
H32 C15 1_555 1_555
H33 C15 1_555 1_555
H34 C15 1_555 1_555
C16 Si4 1_555 1_555
H35 C16 1_555 1_555
H36 C16 1_555 1_555
H37 C16 1_555 1_555
C17 Si4 1_555 1_555
H38 C17 1_555 1_555
H39 C17 1_555 1_555
H40 C17 1_555 1_555
C18 Si4 1_555 1_555
H41 C18 1_555 1_555
H42 C18 1_555 1_555
H43 C18 1_555 1_555
C19 H44 1_555 1_555
H45 C19 1_555 1_555
C20 C19 1_555 1_555
H46 C20 1_555 1_555
H47 C20 1_555 1_555
C21 N5 1_555 1_555
H48 C21 1_555 1_555
C22 C21 1_555 1_555
H49 C22 1_555 1_555
C23 N5 1_555 1_555
H50 C23 1_555 1_555
C24 N6 1_555 1_555
N3 C11 1_555 1_555
N6 C23 1_555 1_555

#END
