
#######################################################################
#
#                 Cambridge Crystallographic Data Centre
#                                CCDC 
#
#######################################################################
#
# If this CIF has been generated from an entry in the Cambridge 
# Structural Database, then it will include bibliographic, chemical, 
# crystal, experimental, refinement or atomic coordinate data resulting 
# from the CCDC's data processing and validation procedures.
#
#######################################################################

data_HOLLEB
_chemical_formula_moiety         'C7 H15 N3 2+,2(Cl1 1-)'
_chemical_name_systematic        
'1-(2-ammonioethyl)-3-ethyl-1H-imidazol-3-ium dichloride'
_symmetry_cell_setting           monoclinic
_symmetry_space_group_name_H-M   'P 21/c'
_symmetry_Int_Tables_number      14
_space_group_name_Hall           '-P 2ybc'
loop_
_symmetry_equiv_pos_site_id
_symmetry_equiv_pos_as_xyz
1 x,y,z
2 -x,1/2+y,1/2-z
3 -x,-y,-z
4 x,1/2-y,1/2+z
_cell_length_a                   10.2973(11)
_cell_length_b                   13.2211(14)
_cell_length_c                   8.8908(9)
_cell_angle_alpha                90
_cell_angle_beta                 112.7620(10)
_cell_angle_gamma                90
_cell_volume                     1116.14
_exptl_crystal_colour            colorless
_exptl_crystal_description       block
_cell_formula_units_Z            4
loop_
_atom_site_label
_atom_site_type_symbol
_atom_site_fract_x
_atom_site_fract_y
_atom_site_fract_z
Cl1 Cl 0.16806(3) 0.13082(2) 0.92560(4)
Cl2 Cl 0.25448(3) 0.64394(2) 0.06718(4)
N1 N 0.37359(12) 0.13409(8) 0.62383(14)
N2 N 0.18592(11) 0.09873(8) 0.41379(13)
N3 N -0.08122(12) 0.22754(9) 0.23791(14)
H1 H -0.1308 0.2113 0.2972
H2 H -0.1339 0.2653 0.1534
H3 H -0.0050 0.2622 0.2992
C1 C 0.57293(17) 0.06979(14) 0.8616(2)
H4 H 0.5245 0.0061 0.8431
H5 H 0.6233 0.0798 0.9766
H6 H 0.6381 0.0700 0.8082
C2 C 0.46722(15) 0.15417(11) 0.79359(17)
H7 H 0.4115 0.1612 0.8595
H8 H 0.5168 0.2173 0.7992
C3 C 0.23721(14) 0.11371(10) 0.57375(16)
H9 H 0.1860 0.1105 0.6398
C4 C 0.41128(15) 0.13079(10) 0.49114(17)
H10 H 0.5009 0.1414 0.4921
C5 C 0.29355(15) 0.10920(10) 0.35928(17)
H11 H 0.2865 0.1027 0.2523
C6 C 0.04326(14) 0.06335(10) 0.31577(16)
H12 H -0.0082 0.0553 0.3862
H13 H 0.0492 -0.0026 0.2709
C7 C -0.03793(14) 0.13384(11) 0.17775(16)
H14 H 0.0201 0.1516 0.1180
H15 H -0.1211 0.0993 0.1032
loop_
_geom_bond_atom_site_label_1
_geom_bond_atom_site_label_2
_geom_bond_site_symmetry_1
_geom_bond_site_symmetry_2
N1 C2 1_555 1_555
N2 C3 1_555 1_555
N3 H1 1_555 1_555
H2 N3 1_555 1_555
H3 N3 1_555 1_555
C1 H4 1_555 1_555
H5 C1 1_555 1_555
H6 C1 1_555 1_555
C2 C1 1_555 1_555
H7 C2 1_555 1_555
H8 C2 1_555 1_555
C3 N1 1_555 1_555
H9 C3 1_555 1_555
C4 N1 1_555 1_555
H10 C4 1_555 1_555
C5 N2 1_555 1_555
H11 C5 1_555 1_555
C6 N2 1_555 1_555
H12 C6 1_555 1_555
H13 C6 1_555 1_555
C7 N3 1_555 1_555
H14 C7 1_555 1_555
H15 C7 1_555 1_555
C4 C5 1_555 1_555
C6 C7 1_555 1_555

#END
