
#######################################################################
#
#                 Cambridge Crystallographic Data Centre
#                                CCDC 
#
#######################################################################
#
# If this CIF has been generated from an entry in the Cambridge 
# Structural Database, then it will include bibliographic, chemical, 
# crystal, experimental, refinement or atomic coordinate data resulting 
# from the CCDC's data processing and validation procedures.
#
#######################################################################

data_HOLPUV
_chemical_compound_source        
'isolated from the twigs and leaves of Croton laevigatus'
_chemical_name_common            'crotonlaevin M'
_chemical_formula_moiety         'C20 H30 O4'
_chemical_name_systematic        
5-hydroxy-2-(4-hydroxybut-2-en-2-yl)-7,7,10a-trimethyl-1,2,5,6,6a,7,8,9,10,10a-decahydro-4H-benzo[f]isochromen-4-one
_symmetry_cell_setting           monoclinic
_symmetry_space_group_name_H-M   'C 2'
_symmetry_Int_Tables_number      5
_space_group_name_Hall           'C 2y'
loop_
_symmetry_equiv_pos_site_id
_symmetry_equiv_pos_as_xyz
1 x,y,z
2 -x,y,-z
3 1/2+x,1/2+y,z
4 1/2-x,1/2+y,-z
_cell_length_a                   9.1613(4)
_cell_length_b                   11.8102(7)
_cell_length_c                   16.9960(9)
_cell_angle_alpha                90
_cell_angle_beta                 95.829(5)
_cell_angle_gamma                90
_cell_volume                     1829.4
_exptl_crystal_colour            colorless
_exptl_crystal_description       block
_cell_formula_units_Z            4
loop_
_atom_site_label
_atom_site_type_symbol
_atom_site_fract_x
_atom_site_fract_y
_atom_site_fract_z
O1 O 0.50753(16) 0.58827(16) 0.36881(9)
O2 O 0.31058(15) 0.52644(16) 0.29845(10)
O3 O 0.40811(14) 0.28442(13) 0.24259(8)
H1 H 0.4809 0.2530 0.2647
O4 O 0.88949(18) 0.67274(17) 0.65061(9)
C1 C 0.77308(17) 0.44002(15) 0.19644(9)
C2 C 0.6806(4) 0.7882(3) 0.41997(16)
H2 H 0.7238 0.8015 0.3717
H3 H 0.7215 0.8399 0.4598
H4 H 0.5764 0.7994 0.4111
C3 C 0.45220(17) 0.38169(15) 0.20113(10)
H5 H 0.3630 0.4203 0.1785
C4 C 0.54037(19) 0.35013(17) 0.13331(10)
H6 H 0.5344 0.4109 0.0948
H7 H 0.4990 0.2826 0.1074
C5 C 0.70052(18) 0.32875(15) 0.16297(10)
H8 H 0.6969 0.2797 0.2093
C6 C 0.4435(2) 0.52529(18) 0.30943(11)
C7 C 0.67828(18) 0.48775(15) 0.25760(9)
C8 C 0.7434(2) 0.57466(18) 0.31593(11)
H9 H 0.7362 0.6491 0.2917
H10 H 0.8465 0.5580 0.3298
C9 C 0.6650(2) 0.57509(18) 0.38983(11)
H11 H 0.6824 0.5023 0.4169
C10 C 0.53550(18) 0.46294(15) 0.25772(10)
C11 C 0.7120(2) 0.66869(19) 0.44700(11)
C12 C 0.7815(3) 0.6432(2) 0.51650(12)
H12 H 0.7968 0.5668 0.5276
C13 C 0.8383(4) 0.7259(2) 0.57931(14)
H13 H 0.9175 0.7694 0.5605
H14 H 0.7604 0.7782 0.5889
C14 C 0.7877(2) 0.25953(17) 0.10571(11)
C15 C 0.9432(2) 0.2416(2) 0.14621(14)
H15 H 0.9384 0.1891 0.1898
H16 H 1.0024 0.2068 0.1087
C16 C 1.0191(2) 0.3487(2) 0.17763(14)
H17 H 1.0352 0.3980 0.1337
H18 H 1.1141 0.3295 0.2049
C17 C 0.9285(2) 0.4114(2) 0.23448(12)
H19 H 0.9785 0.4809 0.2515
H20 H 0.9210 0.3649 0.2809
C18 C 0.7166(3) 0.1420(2) 0.09378(18)
H21 H 0.6974 0.1116 0.1441
H22 H 0.7819 0.0924 0.0695
H23 H 0.6261 0.1486 0.0603
C19 C 0.7916(3) 0.3137(2) 0.02380(12)
H24 H 0.6949 0.3389 0.0045
H25 H 0.8249 0.2589 -0.0121
H26 H 0.8574 0.3771 0.0278
C20 C 0.7829(2) 0.53636(18) 0.13556(11)
H27 H 0.6892 0.5458 0.1054
H28 H 0.8553 0.5175 0.1006
H29 H 0.8102 0.6056 0.1628
H30 H 0.821(3) 0.634(3) 0.662(2)
loop_
_geom_bond_atom_site_label_1
_geom_bond_atom_site_label_2
_geom_bond_site_symmetry_1
_geom_bond_site_symmetry_2
O1 C6 1_555 1_555
O2 C6 1_555 1_555
O3 H1 1_555 1_555
O4 C13 1_555 1_555
C1 C5 1_555 1_555
C2 H2 1_555 1_555
H3 C2 1_555 1_555
H4 C2 1_555 1_555
C3 O3 1_555 1_555
H5 C3 1_555 1_555
C4 C3 1_555 1_555
H6 C4 1_555 1_555
H7 C4 1_555 1_555
C5 C4 1_555 1_555
H8 C5 1_555 1_555
C6 C10 1_555 1_555
C7 C1 1_555 1_555
C8 C7 1_555 1_555
H9 C8 1_555 1_555
H10 C8 1_555 1_555
C9 O1 1_555 1_555
H11 C9 1_555 1_555
C10 C3 1_555 1_555
C11 C2 1_555 1_555
C12 C11 1_555 1_555
H12 C12 1_555 1_555
C13 C12 1_555 1_555
H13 C13 1_555 1_555
H14 C13 1_555 1_555
C14 C5 1_555 1_555
C15 C14 1_555 1_555
H15 C15 1_555 1_555
H16 C15 1_555 1_555
C16 C15 1_555 1_555
H17 C16 1_555 1_555
H18 C16 1_555 1_555
C17 C1 1_555 1_555
H19 C17 1_555 1_555
H20 C17 1_555 1_555
C18 C14 1_555 1_555
H21 C18 1_555 1_555
H22 C18 1_555 1_555
H23 C18 1_555 1_555
C19 C14 1_555 1_555
H24 C19 1_555 1_555
H25 C19 1_555 1_555
H26 C19 1_555 1_555
C20 C1 1_555 1_555
H27 C20 1_555 1_555
H28 C20 1_555 1_555
H29 C20 1_555 1_555
H30 O4 1_555 1_555
C7 C10 1_555 1_555
C8 C9 1_555 1_555
C9 C11 1_555 1_555
C16 C17 1_555 1_555

#END
