
#######################################################################
#
#                 Cambridge Crystallographic Data Centre
#                                CCDC 
#
#######################################################################
#
# If this CIF has been generated from an entry in the Cambridge 
# Structural Database, then it will include bibliographic, chemical, 
# crystal, experimental, refinement or atomic coordinate data resulting 
# from the CCDC's data processing and validation procedures.
#
#######################################################################

data_HOLPOP
_chemical_formula_moiety         'C27 H33 Br1 O4'
_chemical_name_systematic        
'3-(7,7,10a-trimethyl-4-oxo-1,4,6,6a,7,8,9,10,10a,10b-decahydro-2H-benzo[f]isochromen-2-yl)but-2-en-1-yl 4-bromobenzoate'
_symmetry_cell_setting           monoclinic
_symmetry_space_group_name_H-M   'P 21'
_symmetry_Int_Tables_number      4
_space_group_name_Hall           'P 2yb'
loop_
_symmetry_equiv_pos_site_id
_symmetry_equiv_pos_as_xyz
1 x,y,z
2 -x,1/2+y,-z
_cell_length_a                   11.718(16)
_cell_length_b                   8.241(11)
_cell_length_c                   13.602(18)
_cell_angle_alpha                90
_cell_angle_beta                 107.699(13)
_cell_angle_gamma                90
_cell_volume                     1251.35
_exptl_crystal_colour            colorless
_exptl_crystal_description       block
_cell_formula_units_Z            2
loop_
_atom_site_label
_atom_site_type_symbol
_atom_site_fract_x
_atom_site_fract_y
_atom_site_fract_z
Br1 Br 0.01519(6) 0.62764(12) -0.36871(4)
C1 C 0.2679(4) 0.1134(10) 0.6652(4)
H1 H 0.2778 0.0644 0.6035
H2 H 0.1942 0.1756 0.6449
C2 C 0.2568(6) -0.0223(8) 0.7396(5)
H3 H 0.2379 0.0250 0.7981
H4 H 0.1918 -0.0946 0.7045
C3 C 0.3719(6) -0.1175(8) 0.7772(5)
H5 H 0.3865 -0.1708 0.7186
H6 H 0.3619 -0.2015 0.8239
C4 C 0.4809(5) -0.0166(7) 0.8321(4)
C5 C 0.4883(4) 0.1275(10) 0.7619(3)
H7 H 0.5069 0.0771 0.7033
C6 C 0.5949(5) 0.2389(8) 0.8098(4)
H8 H 0.5903 0.2780 0.8757
H9 H 0.6684 0.1771 0.8224
C7 C 0.5990(5) 0.3808(8) 0.7426(4)
H10 H 0.6668 0.4464 0.7614
C8 C 0.5126(4) 0.4186(7) 0.6585(4)
C9 C 0.3979(4) 0.3238(6) 0.6229(3)
H11 H 0.4094 0.2426 0.5741
C10 C 0.3722(5) 0.2280(6) 0.7114(4)
C11 C 0.2990(4) 0.4348(7) 0.5616(4)
H12 H 0.2257 0.3731 0.5342
H13 H 0.2846 0.5187 0.6064
C12 C 0.3332(5) 0.5118(7) 0.4741(4)
H14 H 0.3484 0.4254 0.4302
C13 C 0.2401(4) 0.6250(10) 0.4078(3)
C14 C 0.1749(5) 0.5767(8) 0.3159(4)
H15 H 0.1998 0.4823 0.2910
C15 C 0.0670(5) 0.6547(12) 0.2479(4)
H16 H -0.0040 0.5970 0.2511
H17 H 0.0619 0.7658 0.2697
C16 C 0.2229(6) 0.7818(8) 0.4561(4)
H18 H 0.2887 0.8531 0.4591
H19 H 0.2195 0.7621 0.5248
H20 H 0.1494 0.8313 0.4157
C17 C 0.5311(5) 0.5642(8) 0.5989(4)
C18 C 0.5926(6) -0.1250(8) 0.8504(5)
H21 H 0.5807 -0.2243 0.8830
H22 H 0.6612 -0.0693 0.8942
H23 H 0.6054 -0.1491 0.7855
C19 C 0.4715(6) 0.0321(8) 0.9393(4)
H24 H 0.4008 0.0966 0.9306
H25 H 0.5409 0.0939 0.9758
H26 H 0.4669 -0.0639 0.9779
C20 C 0.3404(6) 0.3448(8) 0.7864(4)
H27 H 0.2707 0.4063 0.7503
H28 H 0.4063 0.4172 0.8151
H29 H 0.3242 0.2841 0.8410
C21 C -0.0280(6) 0.6684(10) 0.0677(4)
C22 C -0.0122(4) 0.6565(9) -0.0363(4)
C23 C -0.1129(4) 0.6585(9) -0.1203(4)
H30 H -0.1877 0.6675 -0.1102
C24 C -0.1060(5) 0.6474(10) -0.2195(4)
H31 H -0.1750 0.6456 -0.2759
C25 C 0.0052(5) 0.6392(10) -0.2331(3)
C26 C 0.1059(5) 0.6423(13) -0.1508(4)
H32 H 0.1810 0.6399 -0.1609
C27 C 0.0966(5) 0.6490(12) -0.0537(4)
H33 H 0.1659 0.6484 0.0023
O1 O 0.6191(3) 0.6465(7) 0.6224(3)
O2 O 0.4432(3) 0.6081(7) 0.5141(2)
O3 O 0.0745(3) 0.6516(7) 0.1431(2)
O4 O -0.1214(4) 0.6883(9) 0.0829(3)
loop_
_geom_bond_atom_site_label_1
_geom_bond_atom_site_label_2
_geom_bond_site_symmetry_1
_geom_bond_site_symmetry_2
Br1 C25 1_555 1_555
C1 H1 1_555 1_555
H2 C1 1_555 1_555
C2 C1 1_555 1_555
H3 C2 1_555 1_555
H4 C2 1_555 1_555
C3 C2 1_555 1_555
H5 C3 1_555 1_555
H6 C3 1_555 1_555
C4 C3 1_555 1_555
C5 C4 1_555 1_555
H7 C5 1_555 1_555
C6 C5 1_555 1_555
H8 C6 1_555 1_555
H9 C6 1_555 1_555
C7 C6 1_555 1_555
H10 C7 1_555 1_555
C8 C7 1_555 1_555
C9 C8 1_555 1_555
H11 C9 1_555 1_555
C10 C1 1_555 1_555
C11 C9 1_555 1_555
H12 C11 1_555 1_555
H13 C11 1_555 1_555
C12 C11 1_555 1_555
H14 C12 1_555 1_555
C13 C12 1_555 1_555
C14 C13 1_555 1_555
H15 C14 1_555 1_555
C15 C14 1_555 1_555
H16 C15 1_555 1_555
H17 C15 1_555 1_555
C16 C13 1_555 1_555
H18 C16 1_555 1_555
H19 C16 1_555 1_555
H20 C16 1_555 1_555
C17 C8 1_555 1_555
C18 C4 1_555 1_555
H21 C18 1_555 1_555
H22 C18 1_555 1_555
H23 C18 1_555 1_555
C19 C4 1_555 1_555
H24 C19 1_555 1_555
H25 C19 1_555 1_555
H26 C19 1_555 1_555
C20 C10 1_555 1_555
H27 C20 1_555 1_555
H28 C20 1_555 1_555
H29 C20 1_555 1_555
C21 C22 1_555 1_555
C22 C23 1_555 1_555
C23 H30 1_555 1_555
C24 C23 1_555 1_555
H31 C24 1_555 1_555
C25 C24 1_555 1_555
C26 C25 1_555 1_555
H32 C26 1_555 1_555
C27 C22 1_555 1_555
H33 C27 1_555 1_555
O1 C17 1_555 1_555
O2 C12 1_555 1_555
O3 C15 1_555 1_555
O4 C21 1_555 1_555
C5 C10 1_555 1_555
C9 C10 1_555 1_555
C17 O2 1_555 1_555
C21 O3 1_555 1_555
C26 C27 1_555 1_555

#END
