
#######################################################################
#
#                 Cambridge Crystallographic Data Centre
#                                CCDC 
#
#######################################################################
#
# If this CIF has been generated from an entry in the Cambridge 
# Structural Database, then it will include bibliographic, chemical, 
# crystal, experimental, refinement or atomic coordinate data resulting 
# from the CCDC's data processing and validation procedures.
#
#######################################################################

data_HOLPAB
_chemical_compound_source        
'isolated from the twigs and leaves of Croton laevigatus'
_chemical_name_common            'crotonlaevin P'
_chemical_formula_moiety         'C20 H30 O3'
_chemical_name_systematic        
(5S,9R,10S,12S,13R)-2-(2-hydroxybut-3-en-2-yl)-7,7,10a-trimethyl-1,2,6,6a,7,8,9,10,10a,10b-decahydro-4H-benzo[f]isochromen-4-one
_symmetry_cell_setting           orthorhombic
_symmetry_space_group_name_H-M   'P 21 21 21'
_symmetry_Int_Tables_number      19
_space_group_name_Hall           'P 2ac 2ab'
loop_
_symmetry_equiv_pos_site_id
_symmetry_equiv_pos_as_xyz
1 x,y,z
2 1/2-x,-y,1/2+z
3 -x,1/2+y,1/2-z
4 1/2+x,1/2-y,-z
_cell_length_a                   6.519(2)
_cell_length_b                   17.905(6)
_cell_length_c                   31.128(10)
_cell_angle_alpha                90
_cell_angle_beta                 90
_cell_angle_gamma                90
_cell_volume                     3633.34
_exptl_crystal_colour            colorless
_exptl_crystal_description       block
_chemical_melting_point          '396 K'
_cell_formula_units_Z            8
loop_
_atom_site_label
_atom_site_type_symbol
_atom_site_fract_x
_atom_site_fract_y
_atom_site_fract_z
C1 C 0.1659(7) 0.5209(2) 0.01325(14)
H1 H 0.1252 0.4897 0.0372
H2 H 0.0512 0.5533 0.0064
C2 C 0.2099(8) 0.4711(3) -0.02536(15)
H3 H 0.3174 0.4358 -0.0182
H4 H 0.0876 0.4431 -0.0328
C3 C 0.2756(8) 0.5177(3) -0.06309(15)
H5 H 0.1638 0.5508 -0.0710
H6 H 0.3017 0.4850 -0.0873
C4 C 0.4671(7) 0.5646(3) -0.05472(14)
C5 C 0.4324(7) 0.6107(2) -0.01308(13)
H7 H 0.3243 0.6464 -0.0207
C6 C 0.6160(7) 0.6598(3) -0.00062(16)
H8 H 0.7371 0.6286 0.0019
H9 H 0.6409 0.6957 -0.0233
C7 C 0.5835(8) 0.7006(3) 0.04074(16)
H10 H 0.6796 0.7367 0.0483
C8 C 0.4295(7) 0.6894(2) 0.06719(14)
C9 C 0.2662(6) 0.6314(2) 0.05787(13)
H11 H 0.1556 0.6572 0.0426
C10 C 0.3472(6) 0.5692(2) 0.02707(13)
C11 C 0.1756(7) 0.6045(2) 0.10046(13)
H12 H 0.0627 0.5705 0.0949
H13 H 0.2794 0.5778 0.1166
C12 C 0.1000(7) 0.6703(2) 0.12628(14)
H14 H -0.0050 0.6965 0.1095
C13 C 0.0099(7) 0.6504(2) 0.17016(14)
C14 C -0.1813(8) 0.6060(3) 0.16307(16)
H15 H -0.2671 0.6229 0.1413
C15 C -0.2420(11) 0.5481(3) 0.1829(2)
H16 H -0.1631 0.5283 0.2051
H17 H -0.3652 0.5255 0.1753
C16 C -0.0436(9) 0.7204(3) 0.19576(16)
H18 H -0.0989 0.7063 0.2232
H19 H -0.1434 0.7492 0.1803
H20 H 0.0779 0.7498 0.2000
C17 C 0.4212(8) 0.7336(2) 0.10708(15)
C18 C 0.4954(9) 0.6183(3) -0.09241(14)
H21 H 0.4954 0.5906 -0.1188
H22 H 0.6236 0.6442 -0.0894
H23 H 0.3851 0.6538 -0.0927
C19 C 0.6575(8) 0.5142(3) -0.05381(17)
H24 H 0.6427 0.4776 -0.0315
H25 H 0.7772 0.5440 -0.0484
H26 H 0.6717 0.4895 -0.0810
C20 C 0.5087(8) 0.5214(3) 0.05014(15)
H27 H 0.4491 0.4995 0.0754
H28 H 0.6227 0.5523 0.0583
H29 H 0.5552 0.4826 0.0312
O1 O 0.5485(6) 0.7796(2) 0.11684(11)
O2 O 0.2682(5) 0.72198(16) 0.13488(9)
O3 O 0.1517(5) 0.60496(17) 0.19300(10)
H30 H 0.2275 0.6316 0.2074
C21 C 0.0542(8) 0.3906(3) 0.13748(15)
H31 H 0.0023 0.4236 0.1597
H32 H 0.1797 0.4124 0.1264
C22 C -0.1032(9) 0.3862(3) 0.10127(16)
H33 H -0.2320 0.3671 0.1124
H34 H -0.1275 0.4356 0.0897
C23 C -0.0250(10) 0.3351(3) 0.06610(16)
H35 H 0.0988 0.3566 0.0540
H36 H -0.1268 0.3330 0.0434
C24 C 0.0219(8) 0.2556(3) 0.08099(15)
C25 C 0.1644(7) 0.2591(2) 0.12116(13)
H37 H 0.2949 0.2783 0.1101
C26 C 0.2174(9) 0.1830(3) 0.13962(16)
H38 H 0.0912 0.1561 0.1454
H39 H 0.2934 0.1549 0.1183
C27 C 0.3405(8) 0.1866(3) 0.17983(16)
H40 H 0.3938 0.1423 0.1908
C28 C 0.3782(6) 0.2490(2) 0.20073(14)
C29 C 0.2961(7) 0.3242(2) 0.18680(13)
H41 H 0.4028 0.3475 0.1692
C30 C 0.1037(7) 0.3147(2) 0.15740(14)
C31 C 0.2692(7) 0.3731(2) 0.22607(13)
H42 H 0.2224 0.4222 0.2174
H43 H 0.1661 0.3515 0.2448
C32 C 0.4685(7) 0.3799(2) 0.24983(14)
H44 H 0.5689 0.4033 0.2306
C33 C 0.4608(7) 0.4253(2) 0.29168(14)
C34 C 0.3779(8) 0.5021(3) 0.28210(15)
H45 H 0.4445 0.5294 0.2609
C35 C 0.2245(11) 0.5332(3) 0.30040(17)
H46 H 0.1530 0.5080 0.3218
H47 H 0.1844 0.5810 0.2923
C36 C 0.6737(9) 0.4328(3) 0.31110(18)
H48 H 0.6656 0.4612 0.3372
H49 H 0.7624 0.4578 0.2911
H50 H 0.7275 0.3840 0.3172
C37 C 0.5045(7) 0.2442(3) 0.24034(14)
C38 C 0.1388(10) 0.2162(3) 0.04444(17)
H51 H 0.2702 0.2394 0.0406
H52 H 0.0614 0.2200 0.0183
H53 H 0.1575 0.1645 0.0516
C39 C -0.1799(9) 0.2125(3) 0.08788(18)
H54 H -0.1505 0.1645 0.1001
H55 H -0.2480 0.2061 0.0608
H56 H -0.2670 0.2402 0.1070
C40 C -0.0772(7) 0.2869(3) 0.18472(16)
H57 H -0.0436 0.2393 0.1970
H58 H -0.1967 0.2819 0.1669
H59 H -0.1044 0.3221 0.2073
O4 O 0.5753(6) 0.18662(18) 0.25355(11)
O5 O 0.5465(5) 0.30659(17) 0.26236(9)
O6 O 0.3236(5) 0.39108(17) 0.32101(10)
H60 H 0.3825 0.3569 0.3335
loop_
_geom_bond_atom_site_label_1
_geom_bond_atom_site_label_2
_geom_bond_site_symmetry_1
_geom_bond_site_symmetry_2
C1 H1 1_555 1_555
H2 C1 1_555 1_555
C2 C1 1_555 1_555
H3 C2 1_555 1_555
H4 C2 1_555 1_555
C3 C2 1_555 1_555
H5 C3 1_555 1_555
H6 C3 1_555 1_555
C4 C3 1_555 1_555
C5 C4 1_555 1_555
H7 C5 1_555 1_555
C6 C5 1_555 1_555
H8 C6 1_555 1_555
H9 C6 1_555 1_555
C7 C6 1_555 1_555
H10 C7 1_555 1_555
C8 C7 1_555 1_555
C9 C8 1_555 1_555
H11 C9 1_555 1_555
C10 C1 1_555 1_555
C11 C9 1_555 1_555
H12 C11 1_555 1_555
H13 C11 1_555 1_555
C12 C11 1_555 1_555
H14 C12 1_555 1_555
C13 C12 1_555 1_555
C14 C13 1_555 1_555
H15 C14 1_555 1_555
C15 C14 1_555 1_555
H16 C15 1_555 1_555
H17 C15 1_555 1_555
C16 C13 1_555 1_555
H18 C16 1_555 1_555
H19 C16 1_555 1_555
H20 C16 1_555 1_555
C17 C8 1_555 1_555
C18 C4 1_555 1_555
H21 C18 1_555 1_555
H22 C18 1_555 1_555
H23 C18 1_555 1_555
C19 C4 1_555 1_555
H24 C19 1_555 1_555
H25 C19 1_555 1_555
H26 C19 1_555 1_555
C20 C10 1_555 1_555
H27 C20 1_555 1_555
H28 C20 1_555 1_555
H29 C20 1_555 1_555
O1 C17 1_555 1_555
O2 C12 1_555 1_555
O3 C13 1_555 1_555
H30 O3 1_555 1_555
C21 H31 1_555 1_555
H32 C21 1_555 1_555
C22 C21 1_555 1_555
H33 C22 1_555 1_555
H34 C22 1_555 1_555
C23 C22 1_555 1_555
H35 C23 1_555 1_555
H36 C23 1_555 1_555
C24 C23 1_555 1_555
C25 C24 1_555 1_555
H37 C25 1_555 1_555
C26 C25 1_555 1_555
H38 C26 1_555 1_555
H39 C26 1_555 1_555
C27 C26 1_555 1_555
H40 C27 1_555 1_555
C28 C27 1_555 1_555
C29 C28 1_555 1_555
H41 C29 1_555 1_555
C30 C21 1_555 1_555
C31 C29 1_555 1_555
H42 C31 1_555 1_555
H43 C31 1_555 1_555
C32 C31 1_555 1_555
H44 C32 1_555 1_555
C33 C32 1_555 1_555
C34 C33 1_555 1_555
H45 C34 1_555 1_555
C35 C34 1_555 1_555
H46 C35 1_555 1_555
H47 C35 1_555 1_555
C36 C33 1_555 1_555
H48 C36 1_555 1_555
H49 C36 1_555 1_555
H50 C36 1_555 1_555
C37 C28 1_555 1_555
C38 C24 1_555 1_555
H51 C38 1_555 1_555
H52 C38 1_555 1_555
H53 C38 1_555 1_555
C39 C24 1_555 1_555
H54 C39 1_555 1_555
H55 C39 1_555 1_555
H56 C39 1_555 1_555
C40 C30 1_555 1_555
H57 C40 1_555 1_555
H58 C40 1_555 1_555
H59 C40 1_555 1_555
O4 C37 1_555 1_555
O5 C32 1_555 1_555
O6 C33 1_555 1_555
H60 O6 1_555 1_555
C5 C10 1_555 1_555
C9 C10 1_555 1_555
C17 O2 1_555 1_555
C25 C30 1_555 1_555
C29 C30 1_555 1_555
C37 O5 1_555 1_555

#END
