
#######################################################################
#
#                 Cambridge Crystallographic Data Centre
#                                CCDC 
#
#######################################################################
#
# If this CIF has been generated from an entry in the Cambridge 
# Structural Database, then it will include bibliographic, chemical, 
# crystal, experimental, refinement or atomic coordinate data resulting 
# from the CCDC's data processing and validation procedures.
#
#######################################################################

data_HOLPIJ
_chemical_compound_source        
'isolated from the twigs and leaves of Croton laevigatus'
_chemical_name_common            'crotonlaevin H dichloromethane solvate'
_chemical_formula_moiety         'C22 H36 O5,0.5(C1 H2 Cl2)'
_chemical_name_systematic        
'(2-hydroxy-7-(hydroxymethyl)-3,7,10a-trimethyl-3-vinyldodecahydro-4aH-benzo[f]chromen-4a-yl)methyl acetate dichloromethane solvate'
_symmetry_cell_setting           monoclinic
_symmetry_space_group_name_H-M   'C 2'
_symmetry_Int_Tables_number      5
_space_group_name_Hall           'C 2y'
loop_
_symmetry_equiv_pos_site_id
_symmetry_equiv_pos_as_xyz
1 x,y,z
2 -x,y,-z
3 1/2+x,1/2+y,z
4 1/2-x,1/2+y,-z
_cell_length_a                   26.328(15)
_cell_length_b                   11.042(7)
_cell_length_c                   19.217(19)
_cell_angle_alpha                90
_cell_angle_beta                 129.100(4)
_cell_angle_gamma                90
_cell_volume                     4335.5
_chemical_melting_point          '415.7 K'
_cell_formula_units_Z            8
loop_
_atom_site_label
_atom_site_type_symbol
_atom_site_fract_x
_atom_site_fract_y
_atom_site_fract_z
O1 O 0.1981(3) 0.9616(4) 0.2185(3)
H1 H 0.1919 1.0033 0.2477
O2 O 0.2088(2) 0.0937(4) 0.3476(4)
H2 H 0.1736 0.0915 0.3376
O3 O 0.3328(2) 0.3300(4) 0.4375(3)
O4 O 0.3957(2) 0.3251(4) 0.3625(3)
O5 O 0.4032(3) 0.4436(6) 0.2761(4)
C1 C 0.1256(3) 0.5190(6) 0.1903(4)
H3 H 0.1017 0.4453 0.1592
H4 H 0.1262 0.5287 0.2410
C2 C 0.0902(3) 0.6253(7) 0.1276(5)
H5 H 0.0467 0.6314 0.1100
H6 H 0.0854 0.6120 0.0739
C3 C 0.1269(4) 0.7436(7) 0.1716(5)
H7 H 0.1263 0.7618 0.2205
H8 H 0.1040 0.8085 0.1279
C4 C 0.1984(3) 0.7415(6) 0.2082(4)
C5 C 0.2317(3) 0.6291(6) 0.2686(4)
H9 H 0.2284 0.6412 0.3162
C6 C 0.3055(3) 0.6186(6) 0.3183(4)
H10 H 0.3125 0.5965 0.2761
H11 H 0.3261 0.6965 0.3440
C7 C 0.3370(3) 0.5244(6) 0.3922(4)
H12 H 0.3329 0.5501 0.4368
H13 H 0.3833 0.5194 0.4213
C8 C 0.3066(3) 0.3994(6) 0.3580(4)
C9 C 0.2329(3) 0.4106(5) 0.3035(4)
H14 H 0.2272 0.4413 0.3461
C10 C 0.1973(3) 0.5054(6) 0.2256(4)
C11 C 0.2037(3) 0.2835(5) 0.2801(4)
H15 H 0.1565 0.2882 0.2438
H16 H 0.2139 0.2412 0.2460
C12 C 0.2322(3) 0.2159(6) 0.3658(5)
H17 H 0.2174 0.2564 0.3956
C13 C 0.3069(4) 0.2124(6) 0.4317(4)
C14 C 0.3350(3) 0.1162(6) 0.4089(4)
H18 H 0.3127 0.1179 0.3457
H19 H 0.3293 0.0381 0.4252
H20 H 0.3808 0.1313 0.4414
C15 C 0.3257(3) 0.3470(6) 0.3040(4)
H21 H 0.3024 0.2717 0.2761
H22 H 0.3136 0.4032 0.2570
C16 C 0.2315(4) 0.8523(7) 0.2669(5)
H23 H 0.2323 0.8459 0.3180
H24 H 0.2764 0.8557 0.2894
C17 C 0.2020(3) 0.7497(6) 0.1319(4)
H25 H 0.1751 0.6877 0.0884
H26 H 0.2465 0.7387 0.1556
H27 H 0.1868 0.8277 0.1038
C18 C 0.1947(3) 0.4655(6) 0.1471(4)
H28 H 0.1887 0.3794 0.1397
H29 H 0.2349 0.4871 0.1592
H30 H 0.1588 0.5051 0.0932
C19 C 0.4291(4) 0.3809(6) 0.3409(5)
C20 C 0.4999(3) 0.3516(8) 0.4040(4)
H31 H 0.5172 0.3529 0.3725
H32 H 0.5059 0.2725 0.4289
H33 H 0.5224 0.4105 0.4514
C21 C 0.3269(6) 0.1844(12) 0.5223(6)
H34 H 0.3179 0.1070 0.5309
C22 C 0.3547(6) 0.2556(11) 0.5872(7)
H35 H 0.3647 0.3339 0.5816
H36 H 0.3654 0.2303 0.6412
O6 O 0.5920(2) -0.4258(4) 0.3128(4)
H37 H 0.5707 -0.4887 0.2963
O7 O 0.2308(2) 0.1097(5) 0.1310(3)
H38 H 0.2236 0.0672 0.1589
O8 O 0.3324(2) 0.0753(4) 0.0625(3)
O9 O 0.4286(3) 0.2428(4) 0.1255(3)
O10 O 0.5070(3) 0.3634(5) 0.2327(4)
C23 C 0.4299(3) -0.1832(6) 0.3243(4)
H39 H 0.4135 -0.1417 0.3510
H40 H 0.3943 -0.2313 0.2747
C24 C 0.4852(4) -0.2675(7) 0.3938(5)
H41 H 0.4686 -0.3270 0.4121
H42 H 0.5190 -0.2210 0.4463
C25 C 0.5146(3) -0.3322(7) 0.3563(5)
H43 H 0.4821 -0.3866 0.3088
H44 H 0.5514 -0.3810 0.4034
C26 C 0.5380(3) -0.2462(6) 0.3190(5)
C27 C 0.4821(3) -0.1573(6) 0.2535(4)
H45 H 0.4468 -0.2101 0.2064
C28 C 0.4954(3) -0.0731(6) 0.2028(5)
H46 H 0.5252 -0.0093 0.2426
H47 H 0.5160 -0.1189 0.1835
C29 C 0.4320(3) -0.0172(6) 0.1214(4)
H48 H 0.4419 0.0366 0.0915
H49 H 0.4038 -0.0810 0.0795
C30 C 0.3959(3) 0.0529(6) 0.1459(4)
C31 C 0.3878(3) -0.0284(6) 0.2037(4)
H50 H 0.3618 -0.0970 0.1644
C32 C 0.4505(3) -0.0881(6) 0.2876(4)
C33 C 0.3428(3) 0.0352(6) 0.2164(4)
H51 H 0.3390 -0.0123 0.2553
H52 H 0.3605 0.1140 0.2436
C34 C 0.2768(3) 0.0492(6) 0.1256(4)
H53 H 0.2598 -0.0321 0.1013
C35 C 0.2789(3) 0.1192(6) 0.0579(4)
C36 C 0.2197(4) 0.0859(7) -0.0366(5)
H54 H 0.2283 0.0339 -0.0661
C37 C 0.1619(5) 0.1165(11) -0.0809(6)
H55 H 0.1492 0.1684 -0.0562
H56 H 0.1309 0.0876 -0.1391
C38 C 0.2828(4) 0.2545(6) 0.0735(5)
H57 H 0.3167 0.2715 0.1360
H58 H 0.2416 0.2830 0.0558
H59 H 0.2924 0.2948 0.0387
C39 C 0.4323(3) 0.1719(6) 0.1910(4)
H60 H 0.4122 0.2149 0.2120
H61 H 0.4776 0.1557 0.2419
C40 C 0.5490(3) -0.3264(6) 0.2636(5)
H62 H 0.5070 -0.3573 0.2118
H63 H 0.5668 -0.2767 0.2419
C41 C 0.6031(3) -0.1878(7) 0.3939(5)
H64 H 0.6001 -0.1520 0.4367
H65 H 0.6135 -0.1264 0.3692
H66 H 0.6369 -0.2483 0.4230
C42 C 0.4963(3) 0.0038(6) 0.3629(4)
H67 H 0.5236 -0.0375 0.4195
H68 H 0.4706 0.0639 0.3643
H69 H 0.5233 0.0423 0.3518
C43 C 0.4685(4) 0.3358(7) 0.1552(6)
C44 C 0.4596(4) 0.4026(7) 0.0810(5)
H70 H 0.4213 0.4528 0.0511
H71 H 0.4544 0.3459 0.0391
H72 H 0.4972 0.4524 0.1050
Cl1 Cl 0.0664(3) 0.1246(6) 0.0736(4)
C45 C 0.0000 0.200(3) 0.0000
H73 H -0.0085 0.2518 0.0322
Cl1A Cl -0.0664(3) 0.1246(6) -0.0736(4)
H73A H 0.0085 0.2518 -0.0322
C46? C 0.340(3) 0.208(6) 0.532(2)
H74? H 0.3746 0.2622 0.5695
C47? C 0.325(3) 0.137(5) 0.568(4)
H75? H 0.2914 0.0815 0.5325
H76? H 0.3479 0.1396 0.6292
Cl2? Cl 0.0000 0.348(2) 0.0000
Cl3? Cl 0.0635(7) 0.2072(15) 0.0145(11)
Cl4? Cl 0.0283(15) 0.301(3) -0.019(2)
loop_
_geom_bond_atom_site_label_1
_geom_bond_atom_site_label_2
_geom_bond_site_symmetry_1
_geom_bond_site_symmetry_2
O1 H1 1_555 1_555
O2 H2 1_555 1_555
O3 C8 1_555 1_555
O4 C15 1_555 1_555
O5 C19 1_555 1_555
C1 H3 1_555 1_555
H4 C1 1_555 1_555
C2 C1 1_555 1_555
H5 C2 1_555 1_555
H6 C2 1_555 1_555
C3 C2 1_555 1_555
H7 C3 1_555 1_555
H8 C3 1_555 1_555
C4 C3 1_555 1_555
C5 C4 1_555 1_555
H9 C5 1_555 1_555
C6 C5 1_555 1_555
H10 C6 1_555 1_555
H11 C6 1_555 1_555
C7 C6 1_555 1_555
H12 C7 1_555 1_555
H13 C7 1_555 1_555
C8 C7 1_555 1_555
C9 C8 1_555 1_555
H14 C9 1_555 1_555
C10 C1 1_555 1_555
C11 C9 1_555 1_555
H15 C11 1_555 1_555
H16 C11 1_555 1_555
C12 O2 1_555 1_555
H17 C12 1_555 1_555
C13 O3 1_555 1_555
C14 C13 1_555 1_555
H18 C14 1_555 1_555
H19 C14 1_555 1_555
H20 C14 1_555 1_555
C15 C8 1_555 1_555
H21 C15 1_555 1_555
H22 C15 1_555 1_555
C16 O1 1_555 1_555
H23 C16 1_555 1_555
H24 C16 1_555 1_555
C17 C4 1_555 1_555
H25 C17 1_555 1_555
H26 C17 1_555 1_555
H27 C17 1_555 1_555
C18 C10 1_555 1_555
H28 C18 1_555 1_555
H29 C18 1_555 1_555
H30 C18 1_555 1_555
C19 O4 1_555 1_555
C20 C19 1_555 1_555
H31 C20 1_555 1_555
H32 C20 1_555 1_555
H33 C20 1_555 1_555
C21 C13 1_555 1_555
H34 C21 1_555 1_555
C22 C21 1_555 1_555
H35 C22 1_555 1_555
H36 C22 1_555 1_555
O6 H37 1_555 1_555
O7 H38 1_555 1_555
O8 C30 1_555 1_555
O9 C39 1_555 1_555
O10 C43 1_555 1_555
C23 H39 1_555 1_555
H40 C23 1_555 1_555
C24 C23 1_555 1_555
H41 C24 1_555 1_555
H42 C24 1_555 1_555
C25 C24 1_555 1_555
H43 C25 1_555 1_555
H44 C25 1_555 1_555
C26 C25 1_555 1_555
C27 C26 1_555 1_555
H45 C27 1_555 1_555
C28 C27 1_555 1_555
H46 C28 1_555 1_555
H47 C28 1_555 1_555
C29 C28 1_555 1_555
H48 C29 1_555 1_555
H49 C29 1_555 1_555
C30 C29 1_555 1_555
C31 C30 1_555 1_555
H50 C31 1_555 1_555
C32 C23 1_555 1_555
C33 C31 1_555 1_555
H51 C33 1_555 1_555
H52 C33 1_555 1_555
C34 O7 1_555 1_555
H53 C34 1_555 1_555
C35 O8 1_555 1_555
C36 C35 1_555 1_555
H54 C36 1_555 1_555
C37 C36 1_555 1_555
H55 C37 1_555 1_555
H56 C37 1_555 1_555
C38 C35 1_555 1_555
H57 C38 1_555 1_555
H58 C38 1_555 1_555
H59 C38 1_555 1_555
C39 C30 1_555 1_555
H60 C39 1_555 1_555
H61 C39 1_555 1_555
C40 O6 1_555 1_555
H62 C40 1_555 1_555
H63 C40 1_555 1_555
C41 C26 1_555 1_555
H64 C41 1_555 1_555
H65 C41 1_555 1_555
H66 C41 1_555 1_555
C42 C32 1_555 1_555
H67 C42 1_555 1_555
H68 C42 1_555 1_555
H69 C42 1_555 1_555
C43 O9 1_555 1_555
C44 C43 1_555 1_555
H70 C44 1_555 1_555
H71 C44 1_555 1_555
H72 C44 1_555 1_555
Cl1 C45 1_555 1_555
C45 H73 1_555 1_555
Cl1A C45 1_555 1_555
H73A C45 1_555 1_555
C4 C16 1_555 1_555
C5 C10 1_555 1_555
C9 C10 1_555 1_555
C11 C12 1_555 1_555
C12 C13 1_555 1_555
C26 C40 1_555 1_555
C27 C32 1_555 1_555
C31 C32 1_555 1_555
C33 C34 1_555 1_555
C34 C35 1_555 1_555

#END
