
#######################################################################
#
#                 Cambridge Crystallographic Data Centre
#                                CCDC 
#
#######################################################################
#
# If this CIF has been generated from an entry in the Cambridge 
# Structural Database, then it will include bibliographic, chemical, 
# crystal, experimental, refinement or atomic coordinate data resulting 
# from the CCDC's data processing and validation procedures.
#
#######################################################################

data_HOLPEF
_chemical_compound_source        
'isolated from the twigs and leaves of Croton laevigatus'
_chemical_name_common            'crotonlaevin G'
_chemical_formula_moiety         'C22 H36 O5'
_chemical_name_systematic        
'(2-hydroxy-7-(hydroxymethyl)-3,7,10a-trimethyl-3-vinyldodecahydro-4aH-benzo[f]chromen-4a-yl)methyl acetate'
_symmetry_cell_setting           monoclinic
_symmetry_space_group_name_H-M   'I 2'
_symmetry_Int_Tables_number      5
_space_group_name_Hall           'I 2y'
loop_
_symmetry_equiv_pos_site_id
_symmetry_equiv_pos_as_xyz
1 x,y,z
2 -x,y,-z
3 1/2+x,1/2+y,1/2+z
4 1/2-x,1/2+y,1/2-z
_cell_length_a                   20.3298(3)
_cell_length_b                   9.17075(12)
_cell_length_c                   24.6190(4)
_cell_angle_alpha                90
_cell_angle_beta                 112.7227(19)
_cell_angle_gamma                90
_cell_volume                     4233.71
_exptl_crystal_colour            colorless
_exptl_crystal_description       block
_chemical_melting_point          '475.7 K'
_cell_formula_units_Z            8
loop_
_atom_site_label
_atom_site_type_symbol
_atom_site_fract_x
_atom_site_fract_y
_atom_site_fract_z
O1 O 0.46983(9) -0.0692(2) 0.34954(8)
O2 O 0.50773(11) -0.2955(2) 0.44751(8)
H1 H 0.4997 -0.2798 0.4795
O3 O 0.36775(13) 0.0483(3) 0.24969(9)
O4 O 0.2912(2) 0.2315(5) 0.22616(18)
O5 O 0.45014(11) 0.4156(2) 0.52730(11)
H2 H 0.4678 0.4972 0.5360
C1 C 0.34909(15) -0.0396(3) 0.48784(12)
H3 H 0.3282 -0.1363 0.4806
H4 H 0.3987 -0.0495 0.5142
C2 C 0.31024(17) 0.0530(3) 0.51806(14)
H5 H 0.2597 0.0554 0.4936
H6 H 0.3160 0.0086 0.5554
C3 C 0.33903(14) 0.2078(3) 0.52871(13)
H7 H 0.3879 0.2055 0.5572
H8 H 0.3113 0.2643 0.5456
C4 C 0.33698(13) 0.2845(3) 0.47222(12)
C5 C 0.37489(11) 0.1854(2) 0.44202(10)
H9 H 0.4235 0.1743 0.4715
C6 C 0.38438(14) 0.2532(3) 0.38844(12)
H10 H 0.3384 0.2586 0.3558
H11 H 0.4026 0.3517 0.3980
C7 C 0.43564(14) 0.1638(3) 0.37000(12)
H12 H 0.4400 0.2089 0.3359
H13 H 0.4824 0.1640 0.4017
C8 C 0.41039(12) 0.0067(3) 0.35515(10)
C9 C 0.39771(11) -0.0589(2) 0.40812(9)
H14 H 0.4440 -0.0518 0.4411
C10 C 0.34536(11) 0.0262(2) 0.42895(10)
C11 C 0.38396(13) -0.2225(2) 0.39856(11)
H15 H 0.3758 -0.2639 0.4317
H16 H 0.3416 -0.2388 0.3633
C12 C 0.44754(13) -0.2972(3) 0.39233(10)
H17 H 0.4347 -0.3991 0.3812
C13 C 0.46791(13) -0.2262(3) 0.34462(11)
C14 C 0.41967(16) -0.2754(4) 0.28329(11)
H18 H 0.4121 -0.2078 0.2533
C15 C 0.3873(2) -0.4014(5) 0.26721(17)
H19 H 0.3927 -0.4735 0.2952
H20 H 0.3588 -0.4185 0.2278
C16 C 0.54413(15) -0.2647(4) 0.35257(14)
H21 H 0.5545 -0.2231 0.3210
H22 H 0.5491 -0.3688 0.3523
H23 H 0.5768 -0.2265 0.3894
C17 C 0.34520(14) 0.0016(3) 0.29625(11)
H24 H 0.3263 -0.0967 0.2886
H25 H 0.3081 0.0658 0.2979
C18 C 0.37689(15) 0.4302(3) 0.49057(15)
H26 H 0.3730 0.4831 0.4553
H27 H 0.3537 0.4880 0.5111
C19 C 0.26032(14) 0.3284(4) 0.43303(17)
H28 H 0.2594 0.3670 0.3965
H29 H 0.2438 0.4011 0.4528
H30 H 0.2299 0.2443 0.4253
C20 C 0.26760(12) 0.0148(3) 0.38330(13)
H31 H 0.2584 0.0924 0.3551
H32 H 0.2353 0.0223 0.4031
H33 H 0.2609 -0.0773 0.3634
C21 C 0.33594(19) 0.1599(4) 0.21732(14)
C22 C 0.3674(3) 0.1993(5) 0.17364(18)
H34 H 0.4083 0.1392 0.1798
H35 H 0.3815 0.2999 0.1785
H36 H 0.3325 0.1843 0.1345
O6 O 0.19227(8) 0.47497(18) 0.55904(7)
O7 O 0.07087(9) 0.6928(2) 0.50676(8)
H39 H 0.057(3) 0.775(4) 0.4875(14)
O8 O 0.29743(10) 0.3601(3) 0.65996(9)
O9 O 0.3226(3) 0.2295(7) 0.7391(2)
C23 C -0.01597(13) 0.4337(3) 0.61303(12)
H40 H -0.0128 0.5313 0.6290
H41 H -0.0381 0.4411 0.5705
C24 C -0.06306(14) 0.3408(3) 0.63471(13)
H42 H -0.0437 0.3413 0.6774
H43 H -0.1105 0.3827 0.6209
C25 C -0.06783(14) 0.1842(3) 0.61287(13)
H44 H -0.0938 0.1833 0.5705
H45 H -0.0950 0.1273 0.6302
C26 C 0.00498(14) 0.1109(3) 0.62746(11)
C27 C 0.05196(12) 0.2119(2) 0.60641(9)
H46 H 0.0253 0.2219 0.5639
C28 C 0.12442(14) 0.1475(3) 0.61247(12)
H47 H 0.1555 0.1425 0.6538
H48 H 0.1174 0.0491 0.5969
C29 C 0.16019(13) 0.2398(3) 0.57954(12)
H49 H 0.2059 0.1971 0.5850
H50 H 0.1307 0.2386 0.5378
C30 C 0.17140(12) 0.3973(2) 0.60116(10)
C31 C 0.09897(11) 0.4585(2) 0.59729(9)
H51 H 0.0677 0.4496 0.5556
C32 C 0.06007(12) 0.3715(2) 0.63063(9)
C33 C 0.10509(13) 0.6230(2) 0.60906(10)
H52 H 0.0595 0.6611 0.6067
H53 H 0.1401 0.6417 0.6484
C34 C 0.12740(12) 0.6991(2) 0.56388(10)
H54 H 0.1369 0.8018 0.5752
C35 C 0.19560(12) 0.6323(3) 0.56128(11)
C36 C 0.26227(13) 0.6852(3) 0.61131(13)
H55 H 0.3018 0.6243 0.6212
C37 C 0.27192(19) 0.8044(5) 0.64246(18)
H56 H 0.2346 0.8703 0.6349
H57 H 0.3161 0.8235 0.6722
C38 C 0.20309(15) 0.6746(3) 0.50378(12)
H58 H 0.2489 0.6442 0.5053
H59 H 0.1987 0.7784 0.4987
H60 H 0.1663 0.6276 0.4713
C39 C 0.23065(13) 0.4056(3) 0.66299(11)
H61 H 0.2349 0.5047 0.6777
H62 H 0.2191 0.3426 0.6897
C40 C -0.00890(17) -0.0350(3) 0.59378(14)
H63 H 0.0363 -0.0844 0.6028
H64 H -0.0381 -0.0961 0.6077
C41 C 0.03903(19) 0.0659(4) 0.69274(13)
H65 H 0.0870 0.0334 0.7019
H66 H 0.0118 -0.0117 0.7000
H67 H 0.0395 0.1481 0.7171
C42 C 0.09929(15) 0.3857(3) 0.69809(10)
H68 H 0.1343 0.3097 0.7123
H69 H 0.0655 0.3773 0.7165
H70 H 0.1225 0.4789 0.7074
C43 C 0.33753(18) 0.2699(5) 0.70079(15)
C44 C 0.4054(2) 0.2333(7) 0.69360(19)
H71 H 0.4012 0.1387 0.6759
H72 H 0.4441 0.2329 0.7315
H73 H 0.4144 0.3048 0.6688
O10 O -0.04321(13) -0.0201(2) 0.53189(10)
H74 H -0.0133 -0.0133 0.5173
H37? H 0.5177 -0.3828 0.4485
H38? H 0.4738 0.4172 0.5070
H75? H 0.035(2) 0.689(9) 0.517(3)
H76? H -0.0583 -0.1069 0.5193
loop_
_geom_bond_atom_site_label_1
_geom_bond_atom_site_label_2
_geom_bond_site_symmetry_1
_geom_bond_site_symmetry_2
O1 C8 1_555 1_555
O2 H1 1_555 1_555
O3 C17 1_555 1_555
O4 C21 1_555 1_555
O5 H2 1_555 1_555
C1 H3 1_555 1_555
H4 C1 1_555 1_555
C2 C1 1_555 1_555
H5 C2 1_555 1_555
H6 C2 1_555 1_555
C3 C2 1_555 1_555
H7 C3 1_555 1_555
H8 C3 1_555 1_555
C4 C3 1_555 1_555
C5 C4 1_555 1_555
H9 C5 1_555 1_555
C6 C5 1_555 1_555
H10 C6 1_555 1_555
H11 C6 1_555 1_555
C7 C6 1_555 1_555
H12 C7 1_555 1_555
H13 C7 1_555 1_555
C8 C7 1_555 1_555
C9 C8 1_555 1_555
H14 C9 1_555 1_555
C10 C1 1_555 1_555
C11 C9 1_555 1_555
H15 C11 1_555 1_555
H16 C11 1_555 1_555
C12 O2 1_555 1_555
H17 C12 1_555 1_555
C13 O1 1_555 1_555
C14 C13 1_555 1_555
H18 C14 1_555 1_555
C15 C14 1_555 1_555
H19 C15 1_555 1_555
H20 C15 1_555 1_555
C16 C13 1_555 1_555
H21 C16 1_555 1_555
H22 C16 1_555 1_555
H23 C16 1_555 1_555
C17 C8 1_555 1_555
H24 C17 1_555 1_555
H25 C17 1_555 1_555
C18 O5 1_555 1_555
H26 C18 1_555 1_555
H27 C18 1_555 1_555
C19 C4 1_555 1_555
H28 C19 1_555 1_555
H29 C19 1_555 1_555
H30 C19 1_555 1_555
C20 C10 1_555 1_555
H31 C20 1_555 1_555
H32 C20 1_555 1_555
H33 C20 1_555 1_555
C21 O3 1_555 1_555
C22 C21 1_555 1_555
H34 C22 1_555 1_555
H35 C22 1_555 1_555
H36 C22 1_555 1_555
O6 C30 1_555 1_555
O7 H39 1_555 1_555
O8 C39 1_555 1_555
O9 C43 1_555 1_555
C23 H40 1_555 1_555
H41 C23 1_555 1_555
C24 C23 1_555 1_555
H42 C24 1_555 1_555
H43 C24 1_555 1_555
C25 C24 1_555 1_555
H44 C25 1_555 1_555
H45 C25 1_555 1_555
C26 C25 1_555 1_555
C27 C26 1_555 1_555
H46 C27 1_555 1_555
C28 C27 1_555 1_555
H47 C28 1_555 1_555
H48 C28 1_555 1_555
C29 C28 1_555 1_555
H49 C29 1_555 1_555
H50 C29 1_555 1_555
C30 C29 1_555 1_555
C31 C30 1_555 1_555
H51 C31 1_555 1_555
C32 C23 1_555 1_555
C33 C31 1_555 1_555
H52 C33 1_555 1_555
H53 C33 1_555 1_555
C34 O7 1_555 1_555
H54 C34 1_555 1_555
C35 O6 1_555 1_555
C36 C35 1_555 1_555
H55 C36 1_555 1_555
C37 C36 1_555 1_555
H56 C37 1_555 1_555
H57 C37 1_555 1_555
C38 C35 1_555 1_555
H58 C38 1_555 1_555
H59 C38 1_555 1_555
H60 C38 1_555 1_555
C39 C30 1_555 1_555
H61 C39 1_555 1_555
H62 C39 1_555 1_555
C40 C26 1_555 1_555
H63 C40 1_555 1_555
H64 C40 1_555 1_555
C41 C26 1_555 1_555
H65 C41 1_555 1_555
H66 C41 1_555 1_555
H67 C41 1_555 1_555
C42 C32 1_555 1_555
H68 C42 1_555 1_555
H69 C42 1_555 1_555
H70 C42 1_555 1_555
C43 O8 1_555 1_555
C44 C43 1_555 1_555
H71 C44 1_555 1_555
H72 C44 1_555 1_555
H73 C44 1_555 1_555
O10 C40 1_555 1_555
H74 O10 1_555 1_555
C4 C18 1_555 1_555
C5 C10 1_555 1_555
C9 C10 1_555 1_555
C11 C12 1_555 1_555
C12 C13 1_555 1_555
C27 C32 1_555 1_555
C31 C32 1_555 1_555
C33 C34 1_555 1_555
C34 C35 1_555 1_555

#END
