
#######################################################################
#
#                 Cambridge Crystallographic Data Centre
#                                CCDC 
#
#######################################################################
#
# If this CIF has been generated from an entry in the Cambridge 
# Structural Database, then it will include bibliographic, chemical, 
# crystal, experimental, refinement or atomic coordinate data resulting 
# from the CCDC's data processing and validation procedures.
#
#######################################################################

data_HOLQOP
_chemical_name_common            
3,4-Dibutoxy-2,5-bis(5-(3-methylphenyl)-1,3,4-oxadiazol-2-yl)thiophene
_chemical_formula_moiety         'C30 H32 N4 O4 S1'
_chemical_name_systematic        
2-(3,4-Dibutoxy-5-(5-(3-methylphenyl)-1,3,4-oxadiazol-2-yl)thiophen-2-yl)-5-(3-methylphenyl)-1,3,4-oxadiazole
_symmetry_cell_setting           monoclinic
_symmetry_space_group_name_H-M   'P 21/c'
_symmetry_Int_Tables_number      14
_space_group_name_Hall           '-P 2ybc'
loop_
_symmetry_equiv_pos_site_id
_symmetry_equiv_pos_as_xyz
1 x,y,z
2 -x,1/2+y,1/2-z
3 -x,-y,-z
4 x,1/2-y,1/2+z
_cell_length_a                   16.421(3)
_cell_length_b                   14.432(3)
_cell_length_c                   12.338(3)
_cell_angle_alpha                90
_cell_angle_beta                 98.36(3)
_cell_angle_gamma                90
_cell_volume                     2892.89
_exptl_crystal_colour            'light yellow'
_exptl_crystal_description       block
_chemical_melting_point          '440 K'
_cell_formula_units_Z            4
_exptl_crystal_recrystallization_method 'ethyl acetate'
loop_
_atom_site_label
_atom_site_type_symbol
_atom_site_fract_x
_atom_site_fract_y
_atom_site_fract_z
S1 S 0.26175(7) 0.22411(9) 0.70173(9)
N1 N 0.4127(2) 0.2826(3) 1.0254(3)
O1 O 0.36204(17) 0.4067(2) 0.9317(3)
C1 C 0.5391(3) 0.4136(3) 1.4095(3)
H1 H 0.5566 0.4622 1.4607
H2 H 0.5854 0.3751 1.4004
H3 H 0.4977 0.3768 1.4366
O2 O 0.28937(19) 0.4885(3) 0.7289(2)
N2 N 0.3700(2) 0.2498(3) 0.9236(3)
C2 C 0.5029(3) 0.4566(4) 1.2971(4)
O3 O 0.1942(2) 0.4382(2) 0.5174(2)
N3 N 0.1668(3) 0.1439(4) 0.4892(3)
C3 C 0.5001(3) 0.5472(5) 1.2837(4)
H4 H 0.5219 0.5845 1.3423
O4 O 0.12985(18) 0.2718(2) 0.4131(3)
C4 C 0.4659(3) 0.5907(4) 1.1849(4)
H5 H 0.4644 0.6543 1.1722
N4 N 0.1195(3) 0.1222(3) 0.3878(4)
C5 C 0.4329(3) 0.5193(5) 1.1053(5)
H6 H 0.4060 0.5421 1.0391
C6 C 0.4354(3) 0.4324(5) 1.1124(4)
C7 C 0.4737(3) 0.4002(4) 1.2129(4)
H7 H 0.4796 0.3366 1.2228
C8 C 0.4034(3) 0.3681(5) 1.0312(4)
C9 C 0.3451(3) 0.3246(4) 0.8750(4)
C10 C 0.2980(3) 0.3296(4) 0.7657(4)
C11 C 0.2710(3) 0.4006(4) 0.7014(4)
C12 C 0.2256(3) 0.5477(4) 0.7441(4)
H8 H 0.2030 0.5311 0.8099
H9 H 0.1820 0.5445 0.6821
C13 C 0.2629(3) 0.6454(4) 0.7548(5)
H10 H 0.3086 0.6504 0.7134
H11 H 0.2219 0.6915 0.7281
C14 C 0.2906(3) 0.6583(4) 0.8693(5)
H12 H 0.3325 0.6114 0.8882
H13 H 0.2444 0.6398 0.9054
C15 C 0.3226(3) 0.7401(4) 0.9256(4)
H14 H 0.3366 0.7269 1.0024
H15 H 0.2818 0.7882 0.9156
H16 H 0.3709 0.7602 0.8967
C16 C 0.2334(3) 0.3697(4) 0.5944(4)
C17 C 0.2452(3) 0.4653(4) 0.4567(4)
H17 H 0.2766 0.4122 0.4378
H18 H 0.2834 0.5080 0.4980
C18 C 0.2077(3) 0.5116(4) 0.3538(4)
H19 H 0.1648 0.4709 0.3184
H20 H 0.1807 0.5672 0.3745
C19 C 0.2573(3) 0.5376(4) 0.2730(4)
H21 H 0.2880 0.4842 0.2534
H22 H 0.2964 0.5847 0.3027
C20 C 0.2018(4) 0.5762(4) 0.1680(5)
H23 H 0.2358 0.5920 0.1137
H24 H 0.1732 0.6305 0.1871
H25 H 0.1626 0.5298 0.1393
C21 C 0.2166(3) 0.2781(4) 0.5906(3)
C22 C 0.1734(3) 0.2329(4) 0.4973(4)
C23 C 0.0989(3) 0.1984(5) 0.3461(5)
C24 C 0.0474(3) 0.2255(6) 0.2409(5)
C25 C 0.0259(3) 0.3153(5) 0.2097(5)
H26 H 0.0438 0.3633 0.2577
C26 C -0.0201(3) 0.3368(4) 0.1127(6)
H27 H -0.0336 0.3980 0.0948
C27 C -0.0465(4) 0.2655(6) 0.0408(5)
H28 H -0.0788 0.2768 -0.0263
C28 C -0.0232(4) 0.1798(6) 0.0728(5)
C29 C 0.0204(3) 0.1594(4) 0.1728(5)
H29 H 0.0310 0.0979 0.1926
C30 C -0.0652(4) 0.1206(4) -0.0041(5)
H30 H -0.0751 0.0645 0.0335
H31 H -0.0290 0.1080 -0.0568
H32 H -0.1164 0.1446 -0.0409
loop_
_geom_bond_atom_site_label_1
_geom_bond_atom_site_label_2
_geom_bond_site_symmetry_1
_geom_bond_site_symmetry_2
S1 C10 1_555 1_555
N1 N2 1_555 1_555
O1 C8 1_555 1_555
C1 H1 1_555 1_555
H2 C1 1_555 1_555
H3 C1 1_555 1_555
O2 C11 1_555 1_555
N2 C9 1_555 1_555
C2 C1 1_555 1_555
O3 C16 1_555 1_555
N3 N4 1_555 1_555
C3 C2 1_555 1_555
H4 C3 1_555 1_555
O4 C22 1_555 1_555
C4 C3 1_555 1_555
H5 C4 1_555 1_555
N4 C23 1_555 1_555
C5 C4 1_555 1_555
H6 C5 1_555 1_555
C6 C5 1_555 1_555
C7 C2 1_555 1_555
H7 C7 1_555 1_555
C8 N1 1_555 1_555
C9 O1 1_555 1_555
C10 C9 1_555 1_555
C11 C10 1_555 1_555
C12 O2 1_555 1_555
H8 C12 1_555 1_555
H9 C12 1_555 1_555
C13 C12 1_555 1_555
H10 C13 1_555 1_555
H11 C13 1_555 1_555
C14 C13 1_555 1_555
H12 C14 1_555 1_555
H13 C14 1_555 1_555
C15 C14 1_555 1_555
H14 C15 1_555 1_555
H15 C15 1_555 1_555
H16 C15 1_555 1_555
C16 C11 1_555 1_555
C17 O3 1_555 1_555
H17 C17 1_555 1_555
H18 C17 1_555 1_555
C18 C17 1_555 1_555
H19 C18 1_555 1_555
H20 C18 1_555 1_555
C19 C18 1_555 1_555
H21 C19 1_555 1_555
H22 C19 1_555 1_555
C20 C19 1_555 1_555
H23 C20 1_555 1_555
H24 C20 1_555 1_555
H25 C20 1_555 1_555
C21 S1 1_555 1_555
C22 N3 1_555 1_555
C23 O4 1_555 1_555
C24 C23 1_555 1_555
C25 C24 1_555 1_555
H26 C25 1_555 1_555
C26 C25 1_555 1_555
H27 C26 1_555 1_555
C27 C26 1_555 1_555
H28 C27 1_555 1_555
C28 C27 1_555 1_555
C29 C24 1_555 1_555
H29 C29 1_555 1_555
C30 C28 1_555 1_555
H30 C30 1_555 1_555
H31 C30 1_555 1_555
H32 C30 1_555 1_555
C6 C7 1_555 1_555
C6 C8 1_555 1_555
C16 C21 1_555 1_555
C21 C22 1_555 1_555
C28 C29 1_555 1_555

#END
