
#######################################################################
#
#                 Cambridge Crystallographic Data Centre
#                                CCDC 
#
#######################################################################
#
# If this CIF has been generated from an entry in the Cambridge 
# Structural Database, then it will include bibliographic, chemical, 
# crystal, experimental, refinement or atomic coordinate data resulting 
# from the CCDC's data processing and validation procedures.
#
#######################################################################

data_HOLRAC
_chemical_formula_moiety         'C18 H20 Cl6 N2 Si2'
_chemical_name_systematic        
(E)-N,N'-bis(2,6-Dimethylphenyl)-N,N'-bis(trichlorosilyl)ethylene-1,2-diamine
_symmetry_cell_setting           triclinic
_symmetry_space_group_name_H-M   'P -1'
_symmetry_Int_Tables_number      2
_space_group_name_Hall           '-P 1'
loop_
_symmetry_equiv_pos_site_id
_symmetry_equiv_pos_as_xyz
1 x,y,z
2 -x,-y,-z
_cell_length_a                   8.1858(3)
_cell_length_b                   8.4249(3)
_cell_length_c                   10.6074(4)
_cell_angle_alpha                74.583(3)
_cell_angle_beta                 79.999(2)
_cell_angle_gamma                62.243(2)
_cell_volume                     622.997
_exptl_crystal_colour            yellow
_exptl_crystal_description       block
_cell_formula_units_Z            1
loop_
_atom_site_label
_atom_site_type_symbol
_atom_site_fract_x
_atom_site_fract_y
_atom_site_fract_z
Si1 Si 0.34542(14) 0.80312(14) 0.19720(9)
Cl1 Cl 0.40381(19) 1.01460(17) 0.18495(14)
Cl2 Cl 0.54249(18) 0.64298(19) 0.08286(14)
Cl3 Cl 0.36689(17) 0.65899(17) 0.38326(10)
N1 N 0.1308(4) 0.8729(4) 0.1525(3)
C1 C 0.0820(5) 0.9686(5) 0.0214(3)
H1 H 0.1729 0.9875 -0.0375
C2 C -0.0078(5) 0.8409(5) 0.2452(3)
C3 C -0.0237(6) 0.6787(5) 0.2607(4)
C4 C -0.1436(6) 0.6423(6) 0.3580(5)
H2 H -0.1535 0.5335 0.3706
C5 C -0.2502(7) 0.7654(8) 0.4378(5)
H3 H -0.3294 0.7380 0.5042
C6 C -0.2389(6) 0.9273(7) 0.4189(4)
H4 H -0.3130 1.0103 0.4716
C7 C -0.1181(6) 0.9699(6) 0.3218(4)
C8 C 0.0925(9) 0.5424(7) 0.1755(7)
H5 H 0.2172 0.4774 0.2026
H6 H 0.0917 0.6064 0.0858
H7 H 0.0426 0.4569 0.1838
C9 C -0.1071(8) 1.1485(6) 0.3024(6)
H8 H -0.0312 1.1381 0.3666
H9 H -0.2290 1.2451 0.3122
H10 H -0.0541 1.1761 0.2162
Si1A Si -0.34542(14) 1.19688(14) -0.19720(9)
Cl1A Cl -0.40381(19) 0.98540(17) -0.18495(14)
Cl2A Cl -0.54249(18) 1.35702(19) -0.08286(14)
Cl3A Cl -0.36689(17) 1.34101(17) -0.38326(10)
N1A N -0.1308(4) 1.1271(4) -0.1525(3)
C1A C -0.0820(5) 1.0314(5) -0.0214(3)
H1A H -0.1729 1.0125 0.0375
C2A C 0.0078(5) 1.1591(5) -0.2452(3)
C3A C 0.0237(6) 1.3213(5) -0.2607(4)
C4A C 0.1436(6) 1.3577(6) -0.3580(5)
H2A H 0.1535 1.4665 -0.3706
C5A C 0.2502(7) 1.2346(8) -0.4378(5)
H3A H 0.3294 1.2620 -0.5042
C6A C 0.2389(6) 1.0727(7) -0.4189(4)
H4A H 0.3130 0.9897 -0.4716
C7A C 0.1181(6) 1.0301(6) -0.3218(4)
C8A C -0.0925(9) 1.4576(7) -0.1755(7)
H5A H -0.2172 1.5226 -0.2026
H6A H -0.0917 1.3936 -0.0858
H7A H -0.0426 1.5431 -0.1838
C9A C 0.1071(8) 0.8515(6) -0.3024(6)
H8A H 0.0312 0.8619 -0.3666
H9A H 0.2290 0.7549 -0.3122
H10A H 0.0541 0.8239 -0.2162
loop_
_geom_bond_atom_site_label_1
_geom_bond_atom_site_label_2
_geom_bond_site_symmetry_1
_geom_bond_site_symmetry_2
Si1 Cl1 1_555 1_555
Cl2 Si1 1_555 1_555
Cl3 Si1 1_555 1_555
N1 Si1 1_555 1_555
C1 N1 1_555 1_555
H1 C1 1_555 1_555
C2 N1 1_555 1_555
C3 C2 1_555 1_555
C4 C3 1_555 1_555
H2 C4 1_555 1_555
C5 C4 1_555 1_555
H3 C5 1_555 1_555
C6 C5 1_555 1_555
H4 C6 1_555 1_555
C7 C2 1_555 1_555
C8 C3 1_555 1_555
H5 C8 1_555 1_555
H6 C8 1_555 1_555
H7 C8 1_555 1_555
C9 C7 1_555 1_555
H8 C9 1_555 1_555
H9 C9 1_555 1_555
H10 C9 1_555 1_555
Si1A Cl1A 1_555 1_555
Cl2A Si1A 1_555 1_555
Cl3A Si1A 1_555 1_555
N1A Si1A 1_555 1_555
C1A C1 1_555 1_555
H1A C1A 1_555 1_555
C2A N1A 1_555 1_555
C3A C2A 1_555 1_555
C4A C3A 1_555 1_555
H2A C4A 1_555 1_555
C5A C4A 1_555 1_555
H3A C5A 1_555 1_555
C6A C5A 1_555 1_555
H4A C6A 1_555 1_555
C7A C2A 1_555 1_555
C8A C3A 1_555 1_555
H5A C8A 1_555 1_555
H6A C8A 1_555 1_555
H7A C8A 1_555 1_555
C9A C7A 1_555 1_555
H8A C9A 1_555 1_555
H9A C9A 1_555 1_555
H10A C9A 1_555 1_555
C6 C7 1_555 1_555
N1A C1A 1_555 1_555
C6A C7A 1_555 1_555

#END
