
#######################################################################
#
#                 Cambridge Crystallographic Data Centre
#                                CCDC 
#
#######################################################################
#
# If this CIF has been generated from an entry in the Cambridge 
# Structural Database, then it will include bibliographic, chemical, 
# crystal, experimental, refinement or atomic coordinate data resulting 
# from the CCDC's data processing and validation procedures.
#
#######################################################################

data_HOLTEI
_chemical_formula_moiety         'C20 H15 Br1 N2 O2'
_chemical_name_systematic        
N'-((E)-(5-Bromo-2-hydroxyphenyl)(phenyl)methylene)benzohydrazide
_symmetry_cell_setting           monoclinic
_symmetry_space_group_name_H-M   'P 21/c'
_symmetry_Int_Tables_number      14
_space_group_name_Hall           '-P 2ybc'
loop_
_symmetry_equiv_pos_site_id
_symmetry_equiv_pos_as_xyz
1 x,y,z
2 -x,1/2+y,1/2-z
3 -x,-y,-z
4 x,1/2-y,1/2+z
_cell_length_a                   17.505(5)
_cell_length_b                   13.761(4)
_cell_length_c                   7.219(2)
_cell_angle_alpha                90
_cell_angle_beta                 94.546(6)
_cell_angle_gamma                90
_cell_volume                     1733.49
_exptl_crystal_colour            yellow
_exptl_crystal_description       block
_cell_formula_units_Z            4
_exptl_crystal_recrystallization_method dimethylformamide
loop_
_atom_site_label
_atom_site_type_symbol
_atom_site_fract_x
_atom_site_fract_y
_atom_site_fract_z
Br1 Br 0.42053(3) 0.11003(4) 0.37885(7)
O1 O 0.69581(16) 0.35312(19) 0.2430(4)
H1 H 0.7343 0.3203 0.2327
O2 O 0.89683(17) 0.2957(2) 0.1320(5)
N1 N 0.7724(2) 0.1958(2) 0.2165(4)
N2 N 0.84133(19) 0.1530(2) 0.1895(5)
H2 H 0.8456 0.0908 0.1935
C1 C 0.6363(2) 0.2941(3) 0.2723(5)
C2 C 0.6425(2) 0.1921(3) 0.2769(5)
C3 C 0.5771(2) 0.1384(3) 0.3098(5)
H3 H 0.5799 0.0710 0.3158
C4 C 0.5090(2) 0.1842(3) 0.3332(5)
C5 C 0.5032(3) 0.2842(3) 0.3297(5)
H4 H 0.4571 0.3148 0.3481
C6 C 0.5670(3) 0.3371(3) 0.2983(5)
H5 H 0.5635 0.4045 0.2944
C7 C 0.7149(2) 0.1422(3) 0.2494(5)
C8 C 0.7210(2) 0.0332(3) 0.2583(6)
C9 C 0.7594(2) -0.0103(3) 0.4116(6)
H6 H 0.7792 0.0275 0.5109
C10 C 0.7682(3) -0.1098(3) 0.4170(6)
H7 H 0.7951 -0.1388 0.5187
C11 C 0.7376(3) -0.1661(3) 0.2735(7)
H8 H 0.7434 -0.2332 0.2783
C12 C 0.6986(2) -0.1235(3) 0.1229(7)
H9 H 0.6768 -0.1620 0.0268
C13 C 0.6915(2) -0.0232(3) 0.1130(6)
H10 H 0.6667 0.0057 0.0083
C14 C 0.9034(2) 0.2088(3) 0.1563(6)
C15 C 0.9765(2) 0.1545(3) 0.1514(5)
C16 C 0.9902(3) 0.0672(3) 0.2383(6)
H11 H 0.9524 0.0391 0.3043
C17 C 1.0594(3) 0.0201(3) 0.2294(6)
H12 H 1.0681 -0.0391 0.2895
C18 C 1.1156(3) 0.0609(4) 0.1314(7)
H13 H 1.1622 0.0293 0.1232
C19 C 1.1021(3) 0.1485(4) 0.0465(7)
H14 H 1.1401 0.1766 -0.0188
C20 C 1.0337(3) 0.1958(3) 0.0553(6)
H15 H 1.0256 0.2556 -0.0031
loop_
_geom_bond_atom_site_label_1
_geom_bond_atom_site_label_2
_geom_bond_site_symmetry_1
_geom_bond_site_symmetry_2
Br1 C4 1_555 1_555
O1 H1 1_555 1_555
O2 C14 1_555 1_555
N1 N2 1_555 1_555
N2 H2 1_555 1_555
C1 O1 1_555 1_555
C2 C1 1_555 1_555
C3 C2 1_555 1_555
H3 C3 1_555 1_555
C4 C3 1_555 1_555
C5 C4 1_555 1_555
H4 C5 1_555 1_555
C6 C1 1_555 1_555
H5 C6 1_555 1_555
C7 N1 1_555 1_555
C8 C7 1_555 1_555
C9 C8 1_555 1_555
H6 C9 1_555 1_555
C10 C9 1_555 1_555
H7 C10 1_555 1_555
C11 C10 1_555 1_555
H8 C11 1_555 1_555
C12 C11 1_555 1_555
H9 C12 1_555 1_555
C13 C8 1_555 1_555
H10 C13 1_555 1_555
C14 N2 1_555 1_555
C15 C14 1_555 1_555
C16 C15 1_555 1_555
H11 C16 1_555 1_555
C17 C16 1_555 1_555
H12 C17 1_555 1_555
C18 C17 1_555 1_555
H13 C18 1_555 1_555
C19 C18 1_555 1_555
H14 C19 1_555 1_555
C20 C15 1_555 1_555
H15 C20 1_555 1_555
C2 C7 1_555 1_555
C5 C6 1_555 1_555
C12 C13 1_555 1_555
C19 C20 1_555 1_555

#END
