
#######################################################################
#
#                 Cambridge Crystallographic Data Centre
#                                CCDC 
#
#######################################################################
#
# If this CIF has been generated from an entry in the Cambridge 
# Structural Database, then it will include bibliographic, chemical, 
# crystal, experimental, refinement or atomic coordinate data resulting 
# from the CCDC's data processing and validation procedures.
#
#######################################################################

data_HOLWAH
_chemical_formula_moiety         'C6 H6 N2 O2 S1'
_chemical_name_systematic        '2-(Pyrimidin-2-ylsulfanyl)acetic acid'
_symmetry_cell_setting           orthorhombic
_symmetry_space_group_name_H-M   'P n m a'
_symmetry_Int_Tables_number      62
_space_group_name_Hall           '-P 2ac 2n'
loop_
_symmetry_equiv_pos_site_id
_symmetry_equiv_pos_as_xyz
1 x,y,z
2 1/2-x,-y,1/2+z
3 1/2+x,1/2-y,1/2-z
4 -x,1/2+y,-z
5 -x,-y,-z
6 1/2+x,y,1/2-z
7 1/2-x,1/2+y,1/2+z
8 x,1/2-y,z
_cell_length_a                   14.660(6)
_cell_length_b                   6.579(2)
_cell_length_c                   7.664(3)
_cell_angle_alpha                90
_cell_angle_beta                 90
_cell_angle_gamma                90
_cell_volume                     739.179
_exptl_crystal_colour            colorless
_exptl_crystal_description       prism
_cell_formula_units_Z            4
loop_
_atom_site_label
_atom_site_type_symbol
_atom_site_fract_x
_atom_site_fract_y
_atom_site_fract_z
S1 S 0.36018(3) 0.2500 0.16539(6)
O1 O 0.09853(9) 0.2500 0.24621(18)
H1 H 0.067(2) 0.2500 0.345(4)
O2 O 0.21943(9) 0.2500 0.42130(18)
N1 N 0.50091(10) 0.2500 -0.0392(2)
C1 C 0.24089(12) 0.2500 0.1111(3)
H2 H 0.2262 0.3696 0.0426
H3 H 0.2262 0.1304 0.0426
C2 C 0.40934(12) 0.2500 -0.0428(2)
C3 C 0.54355(13) 0.2500 -0.1933(3)
H4 H 0.6070 0.2500 -0.1960
C4 C 0.18678(12) 0.2500 0.2774(2)
N2 N 0.35745(10) 0.2500 -0.1845(2)
C5 C 0.40261(14) 0.2500 -0.3361(2)
H5 H 0.3690 0.2500 -0.4390
C6 C 0.49614(14) 0.2500 -0.3477(3)
H6 H 0.5259 0.2500 -0.4549
loop_
_geom_bond_atom_site_label_1
_geom_bond_atom_site_label_2
_geom_bond_site_symmetry_1
_geom_bond_site_symmetry_2
S1 C1 1_555 1_555
O1 H1 1_555 1_555
O2 C4 1_555 1_555
N1 C2 1_555 1_555
C1 H2 1_555 1_555
H3 C1 1_555 1_555
C2 S1 1_555 1_555
C3 N1 1_555 1_555
H4 C3 1_555 1_555
C4 O1 1_555 1_555
N2 C2 1_555 1_555
C5 N2 1_555 1_555
H5 C5 1_555 1_555
C6 C3 1_555 1_555
H6 C6 1_555 1_555
C1 C4 1_555 1_555
C5 C6 1_555 1_555

#END
