
#######################################################################
#
#                 Cambridge Crystallographic Data Centre
#                                CCDC 
#
#######################################################################
#
# If this CIF has been generated from an entry in the Cambridge 
# Structural Database, then it will include bibliographic, chemical, 
# crystal, experimental, refinement or atomic coordinate data resulting 
# from the CCDC's data processing and validation procedures.
#
#######################################################################

data_HOLZAL
_chemical_compound_source        
'secondary metabolite of marine-derived fungus Acremonium sp.'
_chemical_name_common            'Preacredinone A'
_chemical_formula_moiety         'C20 H22 O7'
_chemical_name_systematic        
'2-(2,6-dimethoxybenzoyl)-3-hydroxy-6-methoxy-5-methylbenzyl acetate'
_symmetry_cell_setting           orthorhombic
_symmetry_space_group_name_H-M   'P c a 21'
_symmetry_Int_Tables_number      29
_space_group_name_Hall           'P 2c -2ac'
loop_
_symmetry_equiv_pos_site_id
_symmetry_equiv_pos_as_xyz
1 x,y,z
2 -x,-y,1/2+z
3 1/2+x,-y,z
4 1/2-x,y,1/2+z
_cell_length_a                   28.5983(12)
_cell_length_b                   8.3343(4)
_cell_length_c                   7.7428(3)
_cell_angle_alpha                90
_cell_angle_beta                 90
_cell_angle_gamma                90
_cell_volume                     1845.47
_exptl_crystal_colour            yellow
_exptl_crystal_description       block
_cell_formula_units_Z            4
_exptl_crystal_recrystallization_method chloroform/methanol
loop_
_atom_site_label
_atom_site_type_symbol
_atom_site_fract_x
_atom_site_fract_y
_atom_site_fract_z
C1 C 0.15847(10) 0.1399(4) 0.4149(5)
O1 O 0.16664(8) 0.0276(3) 0.3140(3)
C2 C 0.19658(10) 0.2448(3) 0.4747(4)
C3 C 0.18989(10) 0.3907(4) 0.5701(4)
C4 C 0.22855(10) 0.4846(4) 0.6089(4)
C5 C 0.27458(10) 0.4374(4) 0.5696(4)
C6 C 0.28096(10) 0.2936(4) 0.4860(4)
H1 H 0.3118 0.2567 0.4630
C7 C 0.24257(10) 0.2007(3) 0.4343(4)
O2 O 0.25307(8) 0.0668(2) 0.3442(3)
H2 H 0.2282 0.0199 0.3155
C8 C 0.10825(10) 0.1526(4) 0.4706(4)
C9 C 0.09481(10) 0.0857(4) 0.6276(4)
C10 C 0.04809(11) 0.0784(4) 0.6752(4)
H3 H 0.0390 0.0306 0.7814
C11 C 0.01521(11) 0.1421(5) 0.5645(5)
H4 H -0.0168 0.1400 0.5973
C12 C 0.02727(11) 0.2090(4) 0.4077(5)
H5 H 0.0039 0.2513 0.3335
C13 C 0.07423(10) 0.2136(4) 0.3594(4)
O3 O 0.09067(8) 0.2748(3) 0.2073(3)
C14 C 0.05717(13) 0.3339(5) 0.0867(5)
H6 H 0.0360 0.2469 0.0531
H7 H 0.0734 0.3747 -0.0159
H8 H 0.0392 0.4208 0.1400
O4 O 0.13122(8) 0.0296(3) 0.7246(3)
C15 C 0.12190(14) -0.0440(5) 0.8866(5)
H9 H 0.1072 0.0342 0.9640
H10 H 0.1513 -0.0817 0.9376
H11 H 0.1008 -0.1352 0.8697
C16 C 0.31545(10) 0.5410(4) 0.6183(5)
H12 H 0.3439 0.4754 0.6228
H13 H 0.3098 0.5892 0.7319
H14 H 0.3193 0.6260 0.5321
O5 O 0.22235(8) 0.6275(3) 0.6971(3)
C17 C 0.21810(12) 0.7633(4) 0.5849(5)
H15 H 0.2469 0.7757 0.5178
H16 H 0.2127 0.8601 0.6538
H17 H 0.1917 0.7469 0.5061
C18 C 0.14388(10) 0.4514(4) 0.6363(4)
H18 H 0.1240 0.3604 0.6732
H19 H 0.1489 0.5228 0.7368
O6 O 0.12138(7) 0.5390(3) 0.4971(3)
C19 C 0.08250(11) 0.6196(5) 0.5385(5)
O7 O 0.06561(9) 0.6168(4) 0.6794(4)
C20 C 0.06505(14) 0.7137(6) 0.3890(6)
H20 H 0.0406 0.6528 0.3295
H21 H 0.0909 0.7345 0.3089
H22 H 0.0522 0.8159 0.4299
loop_
_geom_bond_atom_site_label_1
_geom_bond_atom_site_label_2
_geom_bond_site_symmetry_1
_geom_bond_site_symmetry_2
C1 O1 1_555 1_555
C2 C1 1_555 1_555
C3 C2 1_555 1_555
C4 C3 1_555 1_555
C5 C4 1_555 1_555
C6 C5 1_555 1_555
H1 C6 1_555 1_555
C7 C2 1_555 1_555
O2 C7 1_555 1_555
H2 O2 1_555 1_555
C8 C1 1_555 1_555
C9 C8 1_555 1_555
C10 C9 1_555 1_555
H3 C10 1_555 1_555
C11 C10 1_555 1_555
H4 C11 1_555 1_555
C12 C11 1_555 1_555
H5 C12 1_555 1_555
C13 C8 1_555 1_555
O3 C13 1_555 1_555
C14 O3 1_555 1_555
H6 C14 1_555 1_555
H7 C14 1_555 1_555
H8 C14 1_555 1_555
O4 C9 1_555 1_555
C15 O4 1_555 1_555
H9 C15 1_555 1_555
H10 C15 1_555 1_555
H11 C15 1_555 1_555
C16 C5 1_555 1_555
H12 C16 1_555 1_555
H13 C16 1_555 1_555
H14 C16 1_555 1_555
O5 C4 1_555 1_555
C17 O5 1_555 1_555
H15 C17 1_555 1_555
H16 C17 1_555 1_555
H17 C17 1_555 1_555
C18 C3 1_555 1_555
H18 C18 1_555 1_555
H19 C18 1_555 1_555
O6 C18 1_555 1_555
C19 O6 1_555 1_555
O7 C19 1_555 1_555
C20 C19 1_555 1_555
H20 C20 1_555 1_555
H21 C20 1_555 1_555
H22 C20 1_555 1_555
C6 C7 1_555 1_555
C12 C13 1_555 1_555

#END
