
#######################################################################
#
#                 Cambridge Crystallographic Data Centre
#                                CCDC 
#
#######################################################################
#
# If this CIF has been generated from an entry in the Cambridge 
# Structural Database, then it will include bibliographic, chemical, 
# crystal, experimental, refinement or atomic coordinate data resulting 
# from the CCDC's data processing and validation procedures.
#
#######################################################################

data_HOMBIW
_chemical_formula_moiety         'C27 H18 N4'
_chemical_name_systematic        
9-(4,6-Diphenyl-1,3,5-triazin-2-yl)-9H-carbazole
_symmetry_cell_setting           monoclinic
_symmetry_space_group_name_H-M   'P 21/c'
_symmetry_Int_Tables_number      14
_space_group_name_Hall           '-P 2ybc'
loop_
_symmetry_equiv_pos_site_id
_symmetry_equiv_pos_as_xyz
1 x,y,z
2 -x,1/2+y,1/2-z
3 -x,-y,-z
4 x,1/2-y,1/2+z
_cell_length_a                   5.12420(10)
_cell_length_b                   17.2578(6)
_cell_length_c                   22.1125(9)
_cell_angle_alpha                90
_cell_angle_beta                 95.599(3)
_cell_angle_gamma                90
_cell_volume                     1946.13
_exptl_crystal_colour            colorless
_exptl_crystal_description       needle
_cell_formula_units_Z            4
loop_
_atom_site_label
_atom_site_type_symbol
_atom_site_fract_x
_atom_site_fract_y
_atom_site_fract_z
N1 N 0.50370(16) 0.14105(5) 0.19496(4)
N2 N 0.84660(17) 0.21292(5) 0.24358(4)
N3 N 1.07454(18) 0.30209(5) 0.18642(4)
N4 N 0.71840(17) 0.23005(5) 0.13829(4)
C1 C 0.3179(2) 0.11742(6) 0.14620(5)
C2 C 0.2852(2) 0.13967(7) 0.08551(5)
H1 H 0.3945 0.1764 0.0703
C3 C 0.0840(3) 0.10525(8) 0.04850(6)
H2 H 0.0596 0.1192 0.0077
C4 C -0.0820(3) 0.05073(8) 0.07023(7)
H3 H -0.2162 0.0292 0.0442
C5 C -0.0489(2) 0.02845(7) 0.13007(6)
H4 H -0.1597 -0.0081 0.1449
C6 C 0.1537(2) 0.06159(6) 0.16835(5)
C7 C 0.2405(2) 0.04802(6) 0.23134(5)
C8 C 0.1536(2) -0.00316(7) 0.27374(6)
H5 H 0.0112 -0.0355 0.2632
C9 C 0.2812(3) -0.00522(8) 0.33123(6)
H6 H 0.2250 -0.0391 0.3600
C10 C 0.4935(3) 0.04303(8) 0.34661(6)
H7 H 0.5775 0.0408 0.3858
C11 C 0.5847(2) 0.09466(7) 0.30529(5)
H8 H 0.7274 0.1267 0.3162
C12 C 0.4558(2) 0.09670(6) 0.24725(5)
C13 C 0.69753(19) 0.19673(6) 0.19214(5)
C14 C 1.0298(2) 0.26680(6) 0.23833(5)
C15 C 0.9137(2) 0.28125(6) 0.13798(5)
C16 C 1.1949(2) 0.29060(6) 0.29396(5)
C17 C 1.1451(3) 0.26268(8) 0.35049(6)
H9 H 1.0100 0.2273 0.3534
C18 C 1.2935(3) 0.28681(9) 0.40261(6)
H10 H 1.2579 0.2678 0.4403
C19 C 1.4945(3) 0.33907(9) 0.39871(7)
H11 H 1.5940 0.3557 0.4337
C20 C 1.5476(3) 0.36660(8) 0.34289(7)
H12 H 1.6848 0.4013 0.3403
C21 C 1.3988(2) 0.34304(7) 0.29057(6)
H13 H 1.4352 0.3623 0.2530
C22 C 0.9555(2) 0.31885(6) 0.07931(5)
C23 C 1.1616(3) 0.37041(7) 0.07592(6)
H14 H 1.2746 0.3812 0.1104
C24 C 1.1988(3) 0.40586(8) 0.02112(7)
H15 H 1.3368 0.4405 0.0191
C25 C 1.0340(3) 0.39037(8) -0.03004(6)
H16 H 1.0598 0.4145 -0.0666
C26 C 0.8306(3) 0.33912(9) -0.02708(6)
H17 H 0.7188 0.3284 -0.0618
C27 C 0.7914(3) 0.30337(8) 0.02727(6)
H18 H 0.6535 0.2686 0.0289
loop_
_geom_bond_atom_site_label_1
_geom_bond_atom_site_label_2
_geom_bond_site_symmetry_1
_geom_bond_site_symmetry_2
N1 C1 1_555 1_555
N2 C13 1_555 1_555
N3 C14 1_555 1_555
N4 C13 1_555 1_555
C1 C2 1_555 1_555
C2 H1 1_555 1_555
C3 C2 1_555 1_555
H2 C3 1_555 1_555
C4 C3 1_555 1_555
H3 C4 1_555 1_555
C5 C4 1_555 1_555
H4 C5 1_555 1_555
C6 C1 1_555 1_555
C7 C6 1_555 1_555
C8 C7 1_555 1_555
H5 C8 1_555 1_555
C9 C8 1_555 1_555
H6 C9 1_555 1_555
C10 C9 1_555 1_555
H7 C10 1_555 1_555
C11 C10 1_555 1_555
H8 C11 1_555 1_555
C12 N1 1_555 1_555
C13 N1 1_555 1_555
C14 N2 1_555 1_555
C15 N3 1_555 1_555
C16 C14 1_555 1_555
C17 C16 1_555 1_555
H9 C17 1_555 1_555
C18 C17 1_555 1_555
H10 C18 1_555 1_555
C19 C18 1_555 1_555
H11 C19 1_555 1_555
C20 C19 1_555 1_555
H12 C20 1_555 1_555
C21 C16 1_555 1_555
H13 C21 1_555 1_555
C22 C15 1_555 1_555
C23 C22 1_555 1_555
H14 C23 1_555 1_555
C24 C23 1_555 1_555
H15 C24 1_555 1_555
C25 C24 1_555 1_555
H16 C25 1_555 1_555
C26 C25 1_555 1_555
H17 C26 1_555 1_555
C27 C22 1_555 1_555
H18 C27 1_555 1_555
N4 C15 1_555 1_555
C5 C6 1_555 1_555
C7 C12 1_555 1_555
C11 C12 1_555 1_555
C20 C21 1_555 1_555
C26 C27 1_555 1_555

#END
