
#######################################################################
#
#                 Cambridge Crystallographic Data Centre
#                                CCDC 
#
#######################################################################
#
# If this CIF has been generated from an entry in the Cambridge 
# Structural Database, then it will include bibliographic, chemical, 
# crystal, experimental, refinement or atomic coordinate data resulting 
# from the CCDC's data processing and validation procedures.
#
#######################################################################

data_HOMBOC
_chemical_formula_moiety         'C19 H18 N4 O2'
_chemical_name_systematic        
9-(4,6-Diethoxy-1,3,5-triazin-2-yl)-9H-carbazole
_symmetry_cell_setting           monoclinic
_symmetry_space_group_name_H-M   'C 2/c'
_symmetry_Int_Tables_number      15
_space_group_name_Hall           '-C 2yn'
loop_
_symmetry_equiv_pos_site_id
_symmetry_equiv_pos_as_xyz
1 x,y,z
2 -x,y,1/2-z
3 1/2+x,1/2+y,z
4 1/2-x,1/2+y,1/2-z
5 -x,-y,-z
6 x,-y,1/2+z
7 1/2-x,1/2-y,-z
8 1/2+x,1/2-y,1/2+z
_cell_length_a                   16.9717(15)
_cell_length_b                   10.7892(6)
_cell_length_c                   9.5413(10)
_cell_angle_alpha                90
_cell_angle_beta                 108.696(11)
_cell_angle_gamma                90
_cell_volume                     1654.93
_exptl_crystal_colour            colorless
_exptl_crystal_description       needle
_cell_formula_units_Z            4
loop_
_atom_site_label
_atom_site_type_symbol
_atom_site_fract_x
_atom_site_fract_y
_atom_site_fract_z
C1 C 0.10919(12) -0.03391(17) 0.1248(2)
H1 H 0.1219 0.0479 0.1100
C2 C 0.14811(12) -0.13132(18) 0.0793(2)
H2 H 0.1876 -0.1143 0.0333
C3 C 0.12969(13) -0.25367(18) 0.1004(2)
H3 H 0.1570 -0.3172 0.0687
C4 C 0.07165(13) -0.28192(17) 0.1676(2)
H4 H 0.0592 -0.3640 0.1815
C5 C 0.03170(10) -0.18586(14) 0.21462(18)
C6 C 0.05058(10) -0.06209(15) 0.19330(18)
C7 C 0.0000 0.1446(2) 0.2500
C8 C 0.05064(10) 0.32360(15) 0.20109(19)
C9 C 0.15747(11) 0.32366(16) 0.0895(2)
H5 H 0.1262 0.2679 0.0117
H6 H 0.1969 0.2752 0.1660
C10 C 0.20218(13) 0.41852(18) 0.0285(3)
H7 H 0.1625 0.4656 -0.0473
H8 H 0.2399 0.3777 -0.0129
H9 H 0.2328 0.4731 0.1064
N1 N 0.0000 0.01551(16) 0.2500
N2 N 0.05540(8) 0.20061(12) 0.19934(15)
N3 N 0.0000 0.39218(18) 0.2500
O1 O 0.10207(7) 0.38969(10) 0.15008(14)
C1A C -0.10919(12) -0.03391(17) 0.3752(2)
H1A H -0.1219 0.0479 0.3900
C2A C -0.14811(12) -0.13132(18) 0.4207(2)
H2A H -0.1876 -0.1143 0.4667
C3A C -0.12969(13) -0.25367(18) 0.3996(2)
H3A H -0.1570 -0.3172 0.4313
C4A C -0.07165(13) -0.28192(17) 0.3324(2)
H4A H -0.0592 -0.3640 0.3185
C5A C -0.03170(10) -0.18586(14) 0.28538(18)
C6A C -0.05058(10) -0.06209(15) 0.30670(18)
C8A C -0.05064(10) 0.32360(15) 0.29891(19)
C9A C -0.15747(11) 0.32366(16) 0.4105(2)
H5A H -0.1262 0.2679 0.4883
H6A H -0.1969 0.2752 0.3340
C10A C -0.20218(13) 0.41852(18) 0.4715(3)
H7A H -0.1625 0.4656 0.5473
H8A H -0.2399 0.3777 0.5129
H9A H -0.2328 0.4731 0.3936
N2A N -0.05540(8) 0.20061(12) 0.30066(15)
O1A O -0.10207(7) 0.38969(10) 0.34992(14)
loop_
_geom_bond_atom_site_label_1
_geom_bond_atom_site_label_2
_geom_bond_site_symmetry_1
_geom_bond_site_symmetry_2
C1 H1 1_555 1_555
C2 C1 1_555 1_555
H2 C2 1_555 1_555
C3 C2 1_555 1_555
H3 C3 1_555 1_555
C4 C3 1_555 1_555
H4 C4 1_555 1_555
C5 C4 1_555 1_555
C6 C1 1_555 1_555
C7 N1 1_555 1_555
C8 N2 1_555 1_555
C9 H5 1_555 1_555
H6 C9 1_555 1_555
C10 C9 1_555 1_555
H7 C10 1_555 1_555
H8 C10 1_555 1_555
H9 C10 1_555 1_555
N1 C6 1_555 1_555
N2 C7 1_555 1_555
N3 C8 1_555 1_555
O1 C8 1_555 1_555
C1A H1A 1_555 1_555
C2A C1A 1_555 1_555
H2A C2A 1_555 1_555
C3A C2A 1_555 1_555
H3A C3A 1_555 1_555
C4A C3A 1_555 1_555
H4A C4A 1_555 1_555
C5A C5 1_555 1_555
C6A N1 1_555 1_555
C8A N3 1_555 1_555
C9A H5A 1_555 1_555
H6A C9A 1_555 1_555
C10A C9A 1_555 1_555
H7A C10A 1_555 1_555
H8A C10A 1_555 1_555
H9A C10A 1_555 1_555
N2A C7 1_555 1_555
O1A C8A 1_555 1_555
C5 C6 1_555 1_555
C9 O1 1_555 1_555
C1A C6A 1_555 1_555
C4A C5A 1_555 1_555
C5A C6A 1_555 1_555
C8A N2A 1_555 1_555
C9A O1A 1_555 1_555

#END
