
#######################################################################
#
#                 Cambridge Crystallographic Data Centre
#                                CCDC 
#
#######################################################################
#
# If this CIF has been generated from an entry in the Cambridge 
# Structural Database, then it will include bibliographic, chemical, 
# crystal, experimental, refinement or atomic coordinate data resulting 
# from the CCDC's data processing and validation procedures.
#
#######################################################################

data_HOMCUI
_chemical_formula_moiety         'C18 H18 N4 O1 S1'
_chemical_name_systematic        
5-(2-Ethoxyphenyl)-4-((1-phenylethylidene)amino)-2,4-dihydro-3H-1,2,4-triazole-3-thione
_symmetry_cell_setting           monoclinic
_symmetry_space_group_name_H-M   'P 21/c'
_symmetry_Int_Tables_number      14
_space_group_name_Hall           '-P 2ybc'
loop_
_symmetry_equiv_pos_site_id
_symmetry_equiv_pos_as_xyz
1 x,y,z
2 -x,1/2+y,1/2-z
3 -x,-y,-z
4 x,1/2-y,1/2+z
_cell_length_a                   7.778(2)
_cell_length_b                   15.453(5)
_cell_length_c                   14.621(4)
_cell_angle_alpha                90
_cell_angle_beta                 91.108(6)
_cell_angle_gamma                90
_cell_volume                     1757.02
_exptl_crystal_colour            colorless
_exptl_crystal_description       block
_chemical_melting_point          273deg.C
_cell_formula_units_Z            4
loop_
_atom_site_label
_atom_site_type_symbol
_atom_site_fract_x
_atom_site_fract_y
_atom_site_fract_z
S1 S 0.30244(11) -0.07756(5) 0.08220(5)
O1 O 0.0470(3) 0.22577(15) 0.21985(18)
N1 N 0.4688(3) 0.14996(16) 0.15807(17)
N2 N 0.4623(3) 0.07795(15) 0.10358(16)
H1 H 0.5296 0.0703 0.0583
N3 N 0.2647(3) 0.06040(14) 0.19839(14)
N4 N 0.1409(3) 0.02551(15) 0.25807(15)
C1 C -0.1513(5) 0.2853(3) 0.1125(4)
H2 H -0.0569 0.3115 0.0814
H3 H -0.2515 0.3212 0.1053
H4 H -0.1744 0.2293 0.0868
C2 C -0.1072(5) 0.2764(3) 0.2105(3)
H5 H -0.0894 0.3330 0.2376
H6 H -0.2004 0.2481 0.2419
C3 C 0.1445(4) 0.2326(2) 0.2969(2)
C4 C 0.3037(4) 0.19172(19) 0.2951(2)
C5 C 0.4172(5) 0.1994(2) 0.3683(2)
H7 H 0.5242 0.1727 0.3660
C6 C 0.3737(6) 0.2460(2) 0.4448(3)
H8 H 0.4514 0.2525 0.4935
C7 C 0.2136(6) 0.2827(3) 0.4475(3)
H9 H 0.1819 0.3124 0.4998
C8 C 0.0987(5) 0.2771(2) 0.3758(3)
H10 H -0.0091 0.3027 0.3795
C9 C 0.3482(4) 0.13703(18) 0.21695(19)
C10 C 0.3423(3) 0.02048(18) 0.12692(18)
C11 C -0.0115(4) 0.01927(18) 0.22383(19)
C12 C -0.1452(4) -0.01078(19) 0.2879(2)
C13 C -0.1274(4) 0.0065(3) 0.3798(2)
H11 H -0.0306 0.0357 0.4017
C14 C -0.2524(5) -0.0194(3) 0.4398(3)
H12 H -0.2403 -0.0074 0.5019
C15 C -0.3953(5) -0.0632(3) 0.4070(3)
H13 H -0.4782 -0.0820 0.4475
C16 C -0.4161(4) -0.0793(2) 0.3156(3)
H14 H -0.5137 -0.1079 0.2936
C17 C -0.2910(4) -0.0526(2) 0.2562(2)
H15 H -0.3053 -0.0630 0.1939
C18 C -0.0666(4) 0.0405(2) 0.1285(2)
H16 H 0.0201 0.0751 0.1003
H17 H -0.1728 0.0722 0.1293
H18 H -0.0828 -0.0120 0.0943
loop_
_geom_bond_atom_site_label_1
_geom_bond_atom_site_label_2
_geom_bond_site_symmetry_1
_geom_bond_site_symmetry_2
S1 C10 1_555 1_555
O1 C2 1_555 1_555
N1 N2 1_555 1_555
N2 H1 1_555 1_555
N3 N4 1_555 1_555
N4 C11 1_555 1_555
C1 H2 1_555 1_555
H3 C1 1_555 1_555
H4 C1 1_555 1_555
C2 C1 1_555 1_555
H5 C2 1_555 1_555
H6 C2 1_555 1_555
C3 O1 1_555 1_555
C4 C3 1_555 1_555
C5 C4 1_555 1_555
H7 C5 1_555 1_555
C6 C5 1_555 1_555
H8 C6 1_555 1_555
C7 C6 1_555 1_555
H9 C7 1_555 1_555
C8 C3 1_555 1_555
H10 C8 1_555 1_555
C9 N1 1_555 1_555
C10 N2 1_555 1_555
C11 C12 1_555 1_555
C12 C13 1_555 1_555
C13 H11 1_555 1_555
C14 C13 1_555 1_555
H12 C14 1_555 1_555
C15 C14 1_555 1_555
H13 C15 1_555 1_555
C16 C15 1_555 1_555
H14 C16 1_555 1_555
C17 C12 1_555 1_555
H15 C17 1_555 1_555
C18 C11 1_555 1_555
H16 C18 1_555 1_555
H17 C18 1_555 1_555
H18 C18 1_555 1_555
N3 C9 1_555 1_555
N3 C10 1_555 1_555
C4 C9 1_555 1_555
C7 C8 1_555 1_555
C16 C17 1_555 1_555

#END
