
#######################################################################
#
#                 Cambridge Crystallographic Data Centre
#                                CCDC 
#
#######################################################################
#
# If this CIF has been generated from an entry in the Cambridge 
# Structural Database, then it will include bibliographic, chemical, 
# crystal, experimental, refinement or atomic coordinate data resulting 
# from the CCDC's data processing and validation procedures.
#
#######################################################################

data_HOMFUM
_chemical_formula_moiety         'C28 H28 N2 O2'
_chemical_name_systematic        
't-Butyl 1,4-diphenyl-2,3,4,9-tetrahydro-1H-\b-carboline-4-carboxylate'
_symmetry_cell_setting           triclinic
_symmetry_space_group_name_H-M   'P 1'
_symmetry_Int_Tables_number      1
_space_group_name_Hall           'P 1'
loop_
_symmetry_equiv_pos_site_id
_symmetry_equiv_pos_as_xyz
1 x,y,z
_cell_length_a                   9.3592(4)
_cell_length_b                   9.8580(7)
_cell_length_c                   13.1796(7)
_cell_angle_alpha                86.612(5)
_cell_angle_beta                 87.077(4)
_cell_angle_gamma                84.894(4)
_cell_volume                     1207.77
_chemical_melting_point          '208-209 deg.C'
_cell_formula_units_Z            2
loop_
_atom_site_label
_atom_site_type_symbol
_atom_site_fract_x
_atom_site_fract_y
_atom_site_fract_z
O1 O 0.3210(2) 0.4630(2) 0.47613(15)
N1 N 0.5112(2) 0.1925(2) 0.77093(19)
H1 H 0.5648 0.1682 0.8211
C1 C 0.3814(3) 0.1460(4) 0.5266(3)
H2 H 0.3146 0.1913 0.4838
O2 O 0.3588(3) 0.6237(2) 0.58261(19)
N2 N 0.3194(2) 0.5374(2) 0.80285(19)
H3 H 0.3422 0.6180 0.8129
C2 C 0.4598(4) 0.0292(5) 0.4981(3)
H4 H 0.4447 -0.0050 0.4356
C3 C 0.5612(5) -0.0394(5) 0.5603(4)
H5 H 0.6142 -0.1174 0.5382
C4 C 0.5844(4) 0.0064(4) 0.6538(3)
H6 H 0.6512 -0.0402 0.6959
C5 C 0.5062(3) 0.1231(3) 0.6835(2)
C6 C 0.4035(3) 0.1959(3) 0.6207(2)
C7 C 0.4158(3) 0.3073(3) 0.7645(2)
C8 C 0.3473(3) 0.3122(3) 0.6756(2)
C9 C 0.3983(3) 0.4109(3) 0.8434(2)
H7 H 0.3414 0.3739 0.9014
C10 C 0.5414(3) 0.4423(3) 0.8813(3)
C11 C 0.6494(4) 0.4739(4) 0.8135(4)
H8 H 0.6338 0.4774 0.7442
C12 C 0.7817(5) 0.5009(5) 0.8451(6)
H9 H 0.8547 0.5224 0.7980
C13 C 0.8038(8) 0.4953(7) 0.9479(10)
H10 H 0.8919 0.5142 0.9707
C14 C 0.6983(9) 0.4627(6) 1.0150(6)
H11 H 0.7151 0.4573 1.0841
C15 C 0.5652(5) 0.4370(4) 0.9840(3)
H12 H 0.4926 0.4163 1.0316
C16 C 0.2370(3) 0.4278(3) 0.6470(2)
C17 C 0.3112(3) 0.5183(3) 0.5654(2)
C18 C 0.3862(4) 0.5298(5) 0.3841(3)
C19 C 0.3785(6) 0.4243(7) 0.3052(3)
H13 H 0.2799 0.4107 0.2957
H14 H 0.4284 0.3397 0.3282
H15 H 0.4225 0.4561 0.2418
C20 C 0.5406(4) 0.5553(6) 0.3997(4)
H16 H 0.5950 0.4701 0.4156
H17 H 0.5438 0.6143 0.4548
H18 H 0.5810 0.5975 0.3386
C21 C 0.2929(5) 0.6599(6) 0.3563(4)
H19 H 0.1973 0.6377 0.3450
H20 H 0.3325 0.7034 0.2955
H21 H 0.2899 0.7206 0.4109
C22 C 0.1975(3) 0.5100(3) 0.7434(2)
H22 H 0.1471 0.5965 0.7224
H23 H 0.1317 0.4602 0.7874
C23 C 0.0955(3) 0.3842(3) 0.6131(2)
C24 C 0.0075(3) 0.4701(3) 0.5513(2)
H24 H 0.0414 0.5499 0.5220
C25 C -0.1287(3) 0.4396(4) 0.5327(3)
H25 H -0.1861 0.4990 0.4914
C26 C -0.1807(3) 0.3216(4) 0.5747(3)
H26 H -0.2732 0.3013 0.5624
C27 C -0.0949(3) 0.2343(4) 0.6350(3)
H27 H -0.1284 0.1535 0.6628
C28 C 0.0413(3) 0.2663(3) 0.6542(2)
H28 H 0.0980 0.2069 0.6960
O3 O -0.2636(2) 1.0832(2) 0.94448(18)
N3 N 0.1521(2) 0.7068(3) 0.96120(17)
H29 H 0.2132 0.6688 0.9184
O4 O -0.2982(2) 0.9316(2) 1.07549(18)
N4 N 0.0465(3) 1.0724(3) 0.88062(19)
H30 H 0.0186 1.1256 0.8301
C29 C -0.0725(3) 0.6986(4) 1.1885(2)
H31 H -0.1348 0.7602 1.2237
C30 C -0.0519(4) 0.5649(4) 1.2239(3)
H32 H -0.1012 0.5363 1.2833
C31 C 0.0418(4) 0.4705(4) 1.1724(3)
H33 H 0.0534 0.3805 1.1980
C32 C 0.1157(3) 0.5086(3) 1.0860(3)
H34 H 0.1786 0.4461 1.0523
C33 C 0.0950(3) 0.6444(3) 1.0484(2)
C34 C 0.0019(3) 0.7414(3) 1.0983(2)
C35 C 0.0946(3) 0.8406(3) 0.9543(2)
C36 C 0.0047(3) 0.8669(3) 1.0373(2)
C37 C 0.1248(3) 0.9379(3) 0.8663(2)
H35 H 0.2280 0.9490 0.8615
C38 C 0.0819(3) 0.8907(3) 0.7665(2)
C39 C -0.0462(3) 0.8334(4) 0.7597(3)
H36 H -0.1029 0.8163 0.8183
C40 C -0.0914(4) 0.8010(4) 0.6655(4)
H37 H -0.1762 0.7595 0.6616
C41 C -0.0106(7) 0.8301(4) 0.5791(3)
H38 H -0.0427 0.8127 0.5159
C42 C 0.1156(6) 0.8843(4) 0.5855(3)
H39 H 0.1706 0.9024 0.5262
C43 C 0.1654(4) 0.9137(3) 0.6785(3)
H40 H 0.2541 0.9486 0.6816
C44 C 0.0194(3) 1.1097(3) 0.9855(2)
H41 H -0.0330 1.1991 0.9854
H42 H 0.1109 1.1168 1.0154
C45 C -0.0660(3) 1.0093(3) 1.0539(2)
C46 C -0.2207(3) 1.0154(3) 1.0175(2)
C47 C -0.4487(3) 0.9080(5) 1.0495(4)
C48 C -0.4875(5) 0.8050(6) 1.1345(5)
H43 H -0.4871 0.8458 1.1988
H44 H -0.4185 0.7269 1.1334
H45 H -0.5813 0.7771 1.1249
C49 C -0.5414(4) 1.0424(6) 1.0566(4)
H46 H -0.5381 1.0745 1.1237
H47 H -0.6387 1.0287 1.0430
H48 H -0.5058 1.1086 1.0076
C50 C -0.4478(5) 0.8484(5) 0.9467(4)
H49 H -0.4228 0.9157 0.8947
H50 H -0.5415 0.8211 0.9356
H51 H -0.3787 0.7706 0.9443
C51 C -0.0612(3) 1.0496(3) 1.1633(2)
C52 C -0.1680(4) 1.1332(4) 1.2092(3)
H52 H -0.2515 1.1613 1.1756
C53 C -0.1500(6) 1.1755(5) 1.3071(4)
H53 H -0.2227 1.2313 1.3382
C54 C -0.0289(7) 1.1371(6) 1.3574(3)
H54 H -0.0192 1.1657 1.4225
C55 C 0.0769(5) 1.0573(5) 1.3126(3)
H55 H 0.1611 1.0322 1.3462
C56 C 0.0610(4) 1.0125(4) 1.2164(3)
H56 H 0.1345 0.9559 1.1869
loop_
_geom_bond_atom_site_label_1
_geom_bond_atom_site_label_2
_geom_bond_site_symmetry_1
_geom_bond_site_symmetry_2
O1 C17 1_555 1_555
N1 H1 1_555 1_555
C1 H2 1_555 1_555
O2 C17 1_555 1_555
N2 H3 1_555 1_555
C2 C1 1_555 1_555
H4 C2 1_555 1_555
C3 C2 1_555 1_555
H5 C3 1_555 1_555
C4 C3 1_555 1_555
H6 C4 1_555 1_555
C5 N1 1_555 1_555
C6 C1 1_555 1_555
C7 N1 1_555 1_555
C8 C6 1_555 1_555
C9 N2 1_555 1_555
H7 C9 1_555 1_555
C10 C9 1_555 1_555
C11 C10 1_555 1_555
H8 C11 1_555 1_555
C12 C11 1_555 1_555
H9 C12 1_555 1_555
C13 C12 1_555 1_555
H10 C13 1_555 1_555
C14 C13 1_555 1_555
H11 C14 1_555 1_555
C15 C10 1_555 1_555
H12 C15 1_555 1_555
C16 C8 1_555 1_555
C17 C16 1_555 1_555
C18 O1 1_555 1_555
C19 C18 1_555 1_555
H13 C19 1_555 1_555
H14 C19 1_555 1_555
H15 C19 1_555 1_555
C20 C18 1_555 1_555
H16 C20 1_555 1_555
H17 C20 1_555 1_555
H18 C20 1_555 1_555
C21 C18 1_555 1_555
H19 C21 1_555 1_555
H20 C21 1_555 1_555
H21 C21 1_555 1_555
C22 N2 1_555 1_555
H22 C22 1_555 1_555
H23 C22 1_555 1_555
C23 C16 1_555 1_555
C24 C23 1_555 1_555
H24 C24 1_555 1_555
C25 C24 1_555 1_555
H25 C25 1_555 1_555
C26 C25 1_555 1_555
H26 C26 1_555 1_555
C27 C26 1_555 1_555
H27 C27 1_555 1_555
C28 C23 1_555 1_555
H28 C28 1_555 1_555
O3 C46 1_555 1_555
N3 H29 1_555 1_555
O4 C46 1_555 1_555
N4 H30 1_555 1_555
C29 H31 1_555 1_555
C30 C29 1_555 1_555
H32 C30 1_555 1_555
C31 C30 1_555 1_555
H33 C31 1_555 1_555
C32 C31 1_555 1_555
H34 C32 1_555 1_555
C33 N3 1_555 1_555
C34 C29 1_555 1_555
C35 N3 1_555 1_555
C36 C34 1_555 1_555
C37 N4 1_555 1_555
H35 C37 1_555 1_555
C38 C37 1_555 1_555
C39 C38 1_555 1_555
H36 C39 1_555 1_555
C40 C39 1_555 1_555
H37 C40 1_555 1_555
C41 C40 1_555 1_555
H38 C41 1_555 1_555
C42 C41 1_555 1_555
H39 C42 1_555 1_555
C43 C38 1_555 1_555
H40 C43 1_555 1_555
C44 N4 1_555 1_555
H41 C44 1_555 1_555
H42 C44 1_555 1_555
C45 C36 1_555 1_555
C46 C45 1_555 1_555
C47 O4 1_555 1_555
C48 C47 1_555 1_555
H43 C48 1_555 1_555
H44 C48 1_555 1_555
H45 C48 1_555 1_555
C49 C47 1_555 1_555
H46 C49 1_555 1_555
H47 C49 1_555 1_555
H48 C49 1_555 1_555
C50 C47 1_555 1_555
H49 C50 1_555 1_555
H50 C50 1_555 1_555
H51 C50 1_555 1_555
C51 C45 1_555 1_555
C52 C51 1_555 1_555
H52 C52 1_555 1_555
C53 C52 1_555 1_555
H53 C53 1_555 1_555
C54 C53 1_555 1_555
H54 C54 1_555 1_555
C55 C54 1_555 1_555
H55 C55 1_555 1_555
C56 C51 1_555 1_555
H56 C56 1_555 1_555
C4 C5 1_555 1_555
C5 C6 1_555 1_555
C7 C8 1_555 1_555
C7 C9 1_555 1_555
C14 C15 1_555 1_555
C16 C22 1_555 1_555
C27 C28 1_555 1_555
C32 C33 1_555 1_555
C33 C34 1_555 1_555
C35 C36 1_555 1_555
C35 C37 1_555 1_555
C42 C43 1_555 1_555
C44 C45 1_555 1_555
C55 C56 1_555 1_555

#END
