
#######################################################################
#
#                 Cambridge Crystallographic Data Centre
#                                CCDC 
#
#######################################################################
#
# If this CIF has been generated from an entry in the Cambridge 
# Structural Database, then it will include bibliographic, chemical, 
# crystal, experimental, refinement or atomic coordinate data resulting 
# from the CCDC's data processing and validation procedures.
#
#######################################################################

data_HOMGIB
_chemical_name_common            'Equisetumone monohydrate'
_chemical_formula_moiety         'C15 H24 O6,H2 O1'
_chemical_name_systematic        
'3a,4,6a,7-tetrahydroxy-4,6,6,8a-tetramethyldecahydro-2H-cyclobuta[4,5]cyclohepta[1,2-b]furan-2-one monohydrate'
_symmetry_cell_setting           orthorhombic
_symmetry_space_group_name_H-M   'P 21 21 21'
_symmetry_Int_Tables_number      19
_space_group_name_Hall           'P 2ac 2ab'
loop_
_symmetry_equiv_pos_site_id
_symmetry_equiv_pos_as_xyz
1 x,y,z
2 1/2+x,1/2-y,-z
3 -x,1/2+y,1/2-z
4 1/2-x,-y,1/2+z
_cell_length_a                   9.4125(4)
_cell_length_b                   9.9012(4)
_cell_length_c                   16.0619(7)
_cell_angle_alpha                90
_cell_angle_beta                 90
_cell_angle_gamma                90
_cell_volume                     1496.89
_exptl_crystal_colour            colorless
_exptl_crystal_description       prism
_cell_formula_units_Z            4
loop_
_atom_site_label
_atom_site_type_symbol
_atom_site_fract_x
_atom_site_fract_y
_atom_site_fract_z
C1 C 0.37090(14) 0.79510(14) 0.32779(8)
C2 C 0.42282(14) 0.72268(14) 0.24902(8)
H1 H 0.4499 0.6287 0.2655
C3 C 0.30730(15) 0.71126(14) 0.18165(8)
H2 H 0.3523 0.6733 0.1311
H3 H 0.2365 0.6444 0.2011
C4 C 0.22681(14) 0.83857(14) 0.15588(8)
C5 C 0.00628(15) 0.85715(13) 0.09178(9)
C6 C 0.00527(15) 0.95457(14) 0.16423(9)
H4 H -0.0887 0.9566 0.1919
H5 H 0.0308 1.0471 0.1462
C7 C 0.11864(14) 0.89476(13) 0.22114(8)
C8 C 0.18010(14) 0.99234(13) 0.28870(8)
C9 C 0.32716(15) 0.94524(14) 0.31883(8)
H6 H 0.3983 0.9877 0.2807
C10 C 0.38074(16) 0.97066(14) 0.40845(9)
H7 H 0.3051 0.9660 0.4512
H8 H 0.4374 1.0543 0.4145
C11 C 0.47213(15) 0.84002(14) 0.40215(9)
C12 C 0.62590(15) 0.87116(15) 0.37935(9)
H9 H 0.6712 0.9204 0.4251
H10 H 0.6282 0.9265 0.3288
H11 H 0.6771 0.7865 0.3695
C13 C 0.46994(17) 0.75005(15) 0.47896(9)
H12 H 0.5098 0.6615 0.4650
H13 H 0.3718 0.7390 0.4982
H14 H 0.5268 0.7917 0.5232
C14 C 0.32020(15) 0.94364(15) 0.11349(8)
H15 H 0.3653 0.9035 0.0644
H16 H 0.3936 0.9743 0.1524
H17 H 0.2618 1.0207 0.0964
C15 C 0.07429(15) 1.00829(15) 0.35978(9)
H18 H 0.1067 1.0799 0.3974
H19 H 0.0672 0.9231 0.3906
H20 H -0.0191 1.0321 0.3371
O1 O 0.25429(10) 0.71860(10) 0.36035(6)
H21 H 0.2829 0.6416 0.3746
O2 O 0.54582(10) 0.78448(10) 0.21317(6)
H22 H 0.6185 0.7403 0.2266
O3 O 0.12958(10) 0.79000(10) 0.08926(6)
O4 O -0.08579(10) 0.83722(11) 0.04090(6)
O5 O 0.04766(10) 0.78340(10) 0.26014(6)
H23 H 0.1020 0.7479 0.2954
O6 O 0.20648(10) 1.12349(10) 0.25190(6)
H24 H 0.1311 1.1689 0.2521
O7 O 0.16913(11) 0.53468(11) 0.90328(7)
H25 H 0.1219 0.5979 0.8747
H26 H 0.2407 0.5886 0.9266
loop_
_geom_bond_atom_site_label_1
_geom_bond_atom_site_label_2
_geom_bond_site_symmetry_1
_geom_bond_site_symmetry_2
C1 C2 1_555 1_555
C2 H1 1_555 1_555
C3 C2 1_555 1_555
H2 C3 1_555 1_555
H3 C3 1_555 1_555
C4 C3 1_555 1_555
C5 C6 1_555 1_555
C6 H4 1_555 1_555
H5 C6 1_555 1_555
C7 C4 1_555 1_555
C8 C7 1_555 1_555
C9 C1 1_555 1_555
H6 C9 1_555 1_555
C10 C9 1_555 1_555
H7 C10 1_555 1_555
H8 C10 1_555 1_555
C11 C1 1_555 1_555
C12 C11 1_555 1_555
H9 C12 1_555 1_555
H10 C12 1_555 1_555
H11 C12 1_555 1_555
C13 C11 1_555 1_555
H12 C13 1_555 1_555
H13 C13 1_555 1_555
H14 C13 1_555 1_555
C14 C4 1_555 1_555
H15 C14 1_555 1_555
H16 C14 1_555 1_555
H17 C14 1_555 1_555
C15 C8 1_555 1_555
H18 C15 1_555 1_555
H19 C15 1_555 1_555
H20 C15 1_555 1_555
O1 C1 1_555 1_555
H21 O1 1_555 1_555
O2 C2 1_555 1_555
H22 O2 1_555 1_555
O3 C4 1_555 1_555
O4 C5 1_555 1_555
O5 C7 1_555 1_555
H23 O5 1_555 1_555
O6 C8 1_555 1_555
H24 O6 1_555 1_555
O7 H25 1_555 1_555
H26 O7 1_555 1_555
C5 O3 1_555 1_555
C6 C7 1_555 1_555
C8 C9 1_555 1_555
C10 C11 1_555 1_555

#END
