
#######################################################################
#
#                 Cambridge Crystallographic Data Centre
#                                CCDC 
#
#######################################################################
#
# If this CIF has been generated from an entry in the Cambridge 
# Structural Database, then it will include bibliographic, chemical, 
# crystal, experimental, refinement or atomic coordinate data resulting 
# from the CCDC's data processing and validation procedures.
#
#######################################################################

data_HOMHOH
_chemical_name_common            
'(+-)-(2beta-carboxyl-3alpha-hydroxy-5beta-chlorocyclopent-1alpha-yl)acetic acid delta-lactone'
_chemical_formula_moiety         'C8 H9 Cl1 O4'
_chemical_name_systematic        
'rac-6-Chloro-3-oxo-2-oxabicyclo[3.2.1]octane-8-carboxylic acid'
_symmetry_cell_setting           monoclinic
_symmetry_space_group_name_H-M   'P 21/c'
_symmetry_Int_Tables_number      14
_space_group_name_Hall           '-P 2ybc'
loop_
_symmetry_equiv_pos_site_id
_symmetry_equiv_pos_as_xyz
1 x,y,z
2 -x,1/2+y,1/2-z
3 -x,-y,-z
4 x,1/2-y,1/2+z
_cell_length_a                   6.119(4)
_cell_length_b                   7.261(5)
_cell_length_c                   19.326(13)
_cell_angle_alpha                90
_cell_angle_beta                 93.351(12)
_cell_angle_gamma                90
_cell_volume                     857.187
_exptl_crystal_colour            colorless
_exptl_crystal_description       block
_cell_formula_units_Z            4
_exptl_crystal_recrystallization_method 'ethyl acetate'
loop_
_atom_site_label
_atom_site_type_symbol
_atom_site_fract_x
_atom_site_fract_y
_atom_site_fract_z
Cl1 Cl 0.4120(3) 0.3692(2) 0.30260(11)
O1 O -0.0951(8) -0.3149(6) 0.3562(3)
O2 O -0.0939(6) -0.0426(5) 0.4038(2)
O3 O 0.5543(6) 0.2839(5) 0.4785(2)
O4 O 0.2297(7) 0.4201(5) 0.4722(3)
H1 H 0.3001 0.5071 0.4889
C1 C 0.3600(9) 0.2814(7) 0.4639(3)
C2 C 0.2479(9) 0.1124(7) 0.4335(3)
H2 H 0.2570 0.0141 0.4683
C3 C 0.0121(9) 0.1371(7) 0.4089(4)
H3 H -0.0634 0.2182 0.4402
C4 C 0.0156(10) 0.2226(8) 0.3362(4)
H4 H 0.0005 0.3554 0.3383
H5 H -0.1016 0.1732 0.3057
C5 C 0.2410(10) 0.1682(7) 0.3109(4)
H6 H 0.2233 0.1033 0.2665
C6 C 0.3404(8) 0.0398(7) 0.3668(3)
H7 H 0.5008 0.0401 0.3688
C7 C 0.2439(10) -0.1534(7) 0.3549(3)
H8 H 0.2600 -0.1866 0.3068
H9 H 0.3309 -0.2395 0.3832
C8 C 0.0083(10) -0.1785(7) 0.3702(3)
loop_
_geom_bond_atom_site_label_1
_geom_bond_atom_site_label_2
_geom_bond_site_symmetry_1
_geom_bond_site_symmetry_2
Cl1 C5 1_555 1_555
O1 C8 1_555 1_555
O2 C3 1_555 1_555
O3 C1 1_555 1_555
O4 H1 1_555 1_555
C1 O4 1_555 1_555
C2 C1 1_555 1_555
H2 C2 1_555 1_555
C3 C2 1_555 1_555
H3 C3 1_555 1_555
C4 C3 1_555 1_555
H4 C4 1_555 1_555
H5 C4 1_555 1_555
C5 C4 1_555 1_555
H6 C5 1_555 1_555
C6 C2 1_555 1_555
H7 C6 1_555 1_555
C7 C6 1_555 1_555
H8 C7 1_555 1_555
H9 C7 1_555 1_555
C8 O2 1_555 1_555
C5 C6 1_555 1_555
C7 C8 1_555 1_555

#END
