
#######################################################################
#
#                 Cambridge Crystallographic Data Centre
#                                CCDC 
#
#######################################################################
#
# If this CIF has been generated from an entry in the Cambridge 
# Structural Database, then it will include bibliographic, chemical, 
# crystal, experimental, refinement or atomic coordinate data resulting 
# from the CCDC's data processing and validation procedures.
#
#######################################################################

data_HOMJIE
_chemical_formula_moiety         'C22 H18 F1 N1 O5 S1'
_chemical_name_systematic        
'(R)-2-(2-Fluoro-3-phenylbut-3-en-1-yl)phenyl 4-nitrobenzenesulfonate'
_symmetry_cell_setting           orthorhombic
_symmetry_space_group_name_H-M   'P 21 21 21'
_symmetry_Int_Tables_number      19
_space_group_name_Hall           'P 2ac 2ab'
loop_
_symmetry_equiv_pos_site_id
_symmetry_equiv_pos_as_xyz
1 x,y,z
2 1/2-x,-y,1/2+z
3 1/2+x,1/2-y,-z
4 -x,1/2+y,1/2-z
_cell_length_a                   6.8101(4)
_cell_length_b                   13.2958(8)
_cell_length_c                   22.2494(14)
_cell_angle_alpha                90
_cell_angle_beta                 90
_cell_angle_gamma                90
_cell_volume                     2014.59
_exptl_crystal_colour            colorless
_exptl_crystal_description       rod
_cell_formula_units_Z            4
loop_
_atom_site_label
_atom_site_type_symbol
_atom_site_fract_x
_atom_site_fract_y
_atom_site_fract_z
C1 C 0.5215(3) 1.21258(13) 0.16628(7)
C2 C 0.7181(3) 1.19101(14) 0.15380(8)
H1 H 0.7705 1.2059 0.1152
C3 C 0.8374(3) 1.14796(15) 0.19735(10)
H2 H 0.9708 1.1334 0.1884
C4 C 0.7629(4) 1.12619(15) 0.25370(9)
H3 H 0.8443 1.0958 0.2833
C5 C 0.5687(4) 1.14892(16) 0.26687(9)
H4 H 0.5179 1.1352 0.3058
C6 C 0.4491(3) 1.19127(14) 0.22383(8)
H5 H 0.3162 1.2062 0.2333
C7 C 0.3880(3) 1.25618(13) 0.12044(8)
C8 C 0.2574(4) 1.32707(15) 0.13296(9)
H6 H 0.2462 1.3522 0.1728
H7 H 0.1750 1.3527 0.1021
C9 C 0.4009(2) 1.20895(12) 0.05877(7)
H8 H 0.5420 1.1986 0.0479
C10 C 0.2945(2) 1.10827(12) 0.05744(8)
H9 H 0.3450 1.0657 0.0905
H10 H 0.1529 1.1199 0.0648
C11 C 0.3181(3) 1.05243(13) -0.00108(8)
C12 C 0.1647(3) 1.04717(14) -0.04196(8)
H11 H 0.0429 1.0782 -0.0325
C13 C 0.1859(3) 0.99732(17) -0.09644(9)
H12 H 0.0797 0.9954 -0.1241
C14 C 0.3613(3) 0.95052(16) -0.11048(9)
H13 H 0.3743 0.9153 -0.1474
C15 C 0.5178(3) 0.95477(15) -0.07105(8)
H14 H 0.6394 0.9238 -0.0808
C16 C 0.4936(3) 1.00527(13) -0.01697(8)
C17 C 0.5427(2) 0.88707(12) 0.10409(8)
C18 C 0.3986(3) 0.82534(12) 0.07953(8)
H15 H 0.4165 0.7953 0.0412
C19 C 0.2288(3) 0.80861(12) 0.11216(8)
H16 H 0.1270 0.7672 0.0967
C20 C 0.2111(2) 0.85374(13) 0.16788(8)
C21 C 0.3567(3) 0.91196(13) 0.19355(8)
H17 H 0.3405 0.9397 0.2326
C22 C 0.5266(3) 0.92880(13) 0.16103(8)
H18 H 0.6301 0.9681 0.1773
N1 N 0.0245(2) 0.84091(13) 0.20053(8)
O1 O 0.65546(18) 1.01684(9) 0.02277(5)
O2 O 0.7819(2) 0.84282(10) 0.01682(6)
O3 O 0.89479(18) 0.96426(10) 0.09365(6)
O4 O -0.0903(2) 0.77689(11) 0.18246(7)
O5 O -0.0055(3) 0.89612(12) 0.24342(7)
F1 F 0.31224(16) 1.27242(8) 0.01600(5)
S1 S 0.74211(6) 0.92195(3) 0.05818(2)
loop_
_geom_bond_atom_site_label_1
_geom_bond_atom_site_label_2
_geom_bond_site_symmetry_1
_geom_bond_site_symmetry_2
C1 C2 1_555 1_555
C2 H1 1_555 1_555
C3 C2 1_555 1_555
H2 C3 1_555 1_555
C4 C3 1_555 1_555
H3 C4 1_555 1_555
C5 C4 1_555 1_555
H4 C5 1_555 1_555
C6 C1 1_555 1_555
H5 C6 1_555 1_555
C7 C1 1_555 1_555
C8 C7 1_555 1_555
H6 C8 1_555 1_555
H7 C8 1_555 1_555
C9 C7 1_555 1_555
H8 C9 1_555 1_555
C10 C9 1_555 1_555
H9 C10 1_555 1_555
H10 C10 1_555 1_555
C11 C10 1_555 1_555
C12 C11 1_555 1_555
H11 C12 1_555 1_555
C13 C12 1_555 1_555
H12 C13 1_555 1_555
C14 C13 1_555 1_555
H13 C14 1_555 1_555
C15 C14 1_555 1_555
H14 C15 1_555 1_555
C16 C11 1_555 1_555
C17 C18 1_555 1_555
C18 H15 1_555 1_555
C19 C18 1_555 1_555
H16 C19 1_555 1_555
C20 C19 1_555 1_555
C21 C20 1_555 1_555
H17 C21 1_555 1_555
C22 C17 1_555 1_555
H18 C22 1_555 1_555
N1 C20 1_555 1_555
O1 C16 1_555 1_555
O2 S1 1_555 1_555
O3 S1 1_555 1_555
O4 N1 1_555 1_555
O5 N1 1_555 1_555
F1 C9 1_555 1_555
S1 C17 1_555 1_555
C5 C6 1_555 1_555
C15 C16 1_555 1_555
C21 C22 1_555 1_555
O1 S1 1_555 1_555

#END
