
#######################################################################
#
#                 Cambridge Crystallographic Data Centre
#                                CCDC 
#
#######################################################################
#
# If this CIF has been generated from an entry in the Cambridge 
# Structural Database, then it will include bibliographic, chemical, 
# crystal, experimental, refinement or atomic coordinate data resulting 
# from the CCDC's data processing and validation procedures.
#
#######################################################################

data_HOMKUR
_chemical_formula_moiety         'C34 H25 N1 O1'
_chemical_name_systematic        
2-((3,4-Diphenylisoquinolin-1-yl)(phenyl)methyl)phenol
_symmetry_cell_setting           monoclinic
_symmetry_space_group_name_H-M   'P 21/n'
_symmetry_Int_Tables_number      14
_space_group_name_Hall           '-P 2yn'
loop_
_symmetry_equiv_pos_site_id
_symmetry_equiv_pos_as_xyz
1 x,y,z
2 1/2-x,1/2+y,1/2-z
3 -x,-y,-z
4 1/2+x,1/2-y,1/2+z
_cell_length_a                   8.6583(2)
_cell_length_b                   10.9596(3)
_cell_length_c                   26.0284(18)
_cell_angle_alpha                90
_cell_angle_beta                 93.114(7)
_cell_angle_gamma                90
_cell_volume                     2466.23
_exptl_crystal_colour            colorless
_exptl_crystal_description       prism
_cell_formula_units_Z            4
loop_
_atom_site_label
_atom_site_type_symbol
_atom_site_fract_x
_atom_site_fract_y
_atom_site_fract_z
O1 O 0.65852(17) 0.64999(16) 0.12557(6)
H1 H 0.7154 0.6039 0.1427
N1 N 0.89968(19) 0.53493(14) 0.17529(6)
C1 C 1.2295(3) 0.4402(3) 0.40176(9)
H2 H 1.2630 0.4317 0.4361
C2 C 1.2292(3) 0.3419(3) 0.36984(9)
H3 H 1.2607 0.2661 0.3826
C3 C 1.1821(3) 0.3544(2) 0.31832(8)
H4 H 1.1827 0.2869 0.2967
C4 C 1.1343(2) 0.46648(19) 0.29876(7)
C5 C 1.0884(2) 0.48178(17) 0.24286(7)
C6 C 0.9412(2) 0.51801(17) 0.22663(7)
C7 C 0.9983(2) 0.51385(17) 0.13956(7)
C8 C 0.9355(2) 0.53127(18) 0.08390(7)
H5 H 1.0247 0.5199 0.0628
C9 C 0.8752(2) 0.65952(18) 0.07106(7)
C10 C 0.9493(3) 0.7274(2) 0.03469(8)
H6 H 1.0407 0.6977 0.0223
C11 C 0.8918(3) 0.8375(2) 0.01633(9)
H7 H 0.9436 0.8812 -0.0081
C12 C 0.7576(3) 0.8814(2) 0.03458(9)
H8 H 0.7171 0.9550 0.0222
C13 C 1.1987(2) 0.46029(17) 0.20510(7)
C14 C 1.3550(2) 0.4282(2) 0.21772(8)
H9 H 1.3883 0.4207 0.2521
C15 C 1.4567(3) 0.4085(2) 0.18104(9)
H10 H 1.5589 0.3891 0.1905
C16 C 1.4092(3) 0.4170(2) 0.12901(9)
H11 H 1.4789 0.4008 0.1039
C17 C 1.2616(3) 0.4489(2) 0.11511(8)
H12 H 1.2317 0.4545 0.0803
C18 C 1.1520(2) 0.47399(17) 0.15193(7)
C19 C 0.8128(2) 0.54146(17) 0.26116(7)
C20 C 0.7253(3) 0.64664(19) 0.25417(8)
H13 H 0.7505 0.7030 0.2293
C21 C 0.6006(3) 0.6683(2) 0.28406(8)
H14 H 0.5436 0.7398 0.2795
C22 C 0.5607(3) 0.5851(2) 0.32022(8)
H15 H 0.4757 0.5992 0.3398
C23 C 0.6466(3) 0.4805(2) 0.32752(8)
H16 H 0.6194 0.4238 0.3520
C24 C 0.7729(2) 0.45930(18) 0.29880(7)
H17 H 0.8320 0.3893 0.3047
C25 C 0.8208(2) 0.43126(18) 0.06676(7)
C26 C 0.8208(3) 0.3182(2) 0.09016(8)
H18 H 0.8864 0.3042 0.1190
C27 C 0.7251(3) 0.2252(2) 0.07156(9)
H19 H 0.7264 0.1502 0.0882
C28 C 0.6284(3) 0.2430(2) 0.02866(9)
H20 H 0.5657 0.1800 0.0158
C29 C 0.6253(3) 0.3544(2) 0.00504(8)
H21 H 0.5595 0.3674 -0.0239
C30 C 0.7197(2) 0.44832(19) 0.02393(7)
H22 H 0.7154 0.5240 0.0077
C31 C 0.7406(2) 0.70696(19) 0.09012(7)
C32 C 0.6819(3) 0.8177(2) 0.07119(8)
H23 H 0.5908 0.8486 0.0834
C33 C 1.1339(2) 0.5649(2) 0.33189(8)
H24 H 1.1019 0.6410 0.3196
C34 C 1.1810(3) 0.5512(3) 0.38349(8)
H25 H 1.1794 0.6178 0.4056
loop_
_geom_bond_atom_site_label_1
_geom_bond_atom_site_label_2
_geom_bond_site_symmetry_1
_geom_bond_site_symmetry_2
O1 H1 1_555 1_555
N1 C6 1_555 1_555
C1 H2 1_555 1_555
C2 C1 1_555 1_555
H3 C2 1_555 1_555
C3 C2 1_555 1_555
H4 C3 1_555 1_555
C4 C3 1_555 1_555
C5 C4 1_555 1_555
C6 C5 1_555 1_555
C7 N1 1_555 1_555
C8 C7 1_555 1_555
H5 C8 1_555 1_555
C9 C8 1_555 1_555
C10 C9 1_555 1_555
H6 C10 1_555 1_555
C11 C10 1_555 1_555
H7 C11 1_555 1_555
C12 C11 1_555 1_555
H8 C12 1_555 1_555
C13 C5 1_555 1_555
C14 C13 1_555 1_555
H9 C14 1_555 1_555
C15 C14 1_555 1_555
H10 C15 1_555 1_555
C16 C15 1_555 1_555
H11 C16 1_555 1_555
C17 C16 1_555 1_555
H12 C17 1_555 1_555
C18 C7 1_555 1_555
C19 C6 1_555 1_555
C20 C19 1_555 1_555
H13 C20 1_555 1_555
C21 C20 1_555 1_555
H14 C21 1_555 1_555
C22 C21 1_555 1_555
H15 C22 1_555 1_555
C23 C22 1_555 1_555
H16 C23 1_555 1_555
C24 C19 1_555 1_555
H17 C24 1_555 1_555
C25 C8 1_555 1_555
C26 C25 1_555 1_555
H18 C26 1_555 1_555
C27 C26 1_555 1_555
H19 C27 1_555 1_555
C28 C27 1_555 1_555
H20 C28 1_555 1_555
C29 C28 1_555 1_555
H21 C29 1_555 1_555
C30 C25 1_555 1_555
H22 C30 1_555 1_555
C31 O1 1_555 1_555
C32 C12 1_555 1_555
H23 C32 1_555 1_555
C33 C4 1_555 1_555
H24 C33 1_555 1_555
C34 C1 1_555 1_555
H25 C34 1_555 1_555
C9 C31 1_555 1_555
C13 C18 1_555 1_555
C17 C18 1_555 1_555
C23 C24 1_555 1_555
C29 C30 1_555 1_555
C31 C32 1_555 1_555
C33 C34 1_555 1_555

#END
