
#######################################################################
#
#                 Cambridge Crystallographic Data Centre
#                                CCDC 
#
#######################################################################
#
# If this CIF has been generated from an entry in the Cambridge 
# Structural Database, then it will include bibliographic, chemical, 
# crystal, experimental, refinement or atomic coordinate data resulting 
# from the CCDC's data processing and validation procedures.
#
#######################################################################

data_HOMLEC
_chemical_formula_moiety         'C35 H27 N1 O2'
_chemical_name_systematic        
2-((3,4-Diphenylisoquinolin-1-yl)(methoxy)phenylmethyl)phenol
_symmetry_cell_setting           monoclinic
_symmetry_space_group_name_H-M   'P 21/n'
_symmetry_Int_Tables_number      14
_space_group_name_Hall           '-P 2yn'
loop_
_symmetry_equiv_pos_site_id
_symmetry_equiv_pos_as_xyz
1 x,y,z
2 1/2-x,1/2+y,1/2-z
3 -x,-y,-z
4 1/2+x,1/2-y,1/2+z
_cell_length_a                   8.9393(2)
_cell_length_b                   17.8620(3)
_cell_length_c                   16.5480(12)
_cell_angle_alpha                90
_cell_angle_beta                 93.331(7)
_cell_angle_gamma                90
_cell_volume                     2637.82
_exptl_crystal_colour            colorless
_exptl_crystal_description       block
_cell_formula_units_Z            4
loop_
_atom_site_label
_atom_site_type_symbol
_atom_site_fract_x
_atom_site_fract_y
_atom_site_fract_z
O1 O 0.78797(12) 0.03944(6) 0.41329(6)
O2 O 0.73858(15) -0.08123(7) 0.18208(7)
H1 H 0.725(2) -0.0327(9) 0.1863(13)
N1 N 0.78998(14) 0.06558(6) 0.20078(7)
C1 C 1.1325(2) 0.28588(10) -0.03504(11)
H2 H 1.1717 0.3125 -0.0772
C2 C 1.2133(2) 0.22890(11) 0.00161(12)
H3 H 1.3073 0.2168 -0.0158
C3 C 1.1555(2) 0.18934(10) 0.06441(11)
H4 H 1.2113 0.1510 0.0893
C4 C 1.01472(18) 0.20650(8) 0.09063(9)
C5 C 0.95161(17) 0.16205(8) 0.15705(8)
C6 C 0.84442(17) 0.10819(8) 0.14060(8)
C7 C 0.83645(16) 0.07396(7) 0.27735(8)
C8 C 0.76410(16) 0.01470(8) 0.33108(8)
C9 C 0.59436(16) 0.00963(8) 0.31176(8)
C10 C 0.51146(19) 0.07417(9) 0.29629(10)
H5 H 0.5604 0.1197 0.2911
C11 C 0.3563(2) 0.07152(11) 0.28843(12)
H6 H 0.3021 0.1152 0.2777
C12 C 0.2822(2) 0.00496(12) 0.29642(11)
H7 H 0.1781 0.0035 0.2914
C13 C 0.9938(2) 0.30358(10) -0.00944(11)
H8 H 0.9391 0.3424 -0.0343
C14 C 0.9345(2) 0.26420(9) 0.05315(10)
H9 H 0.8403 0.2766 0.0701
C15 C 0.99951(16) 0.17521(7) 0.23920(9)
C16 C 1.10171(19) 0.23398(9) 0.26040(10)
H10 H 1.1378 0.2639 0.2198
C17 C 1.1476(2) 0.24721(10) 0.33865(12)
H11 H 1.2131 0.2865 0.3514
C18 C 1.0966(2) 0.20209(11) 0.39984(11)
H12 H 1.1298 0.2110 0.4533
C19 C 0.99915(18) 0.14514(10) 0.38274(9)
H13 H 0.9678 0.1154 0.4247
C20 C 0.94422(15) 0.13012(8) 0.30211(8)
C21 C 0.77410(19) 0.09292(8) 0.05853(8)
C22 C 0.6195(2) 0.09692(10) 0.04643(10)
H14 H 0.5616 0.1091 0.0895
C23 C 0.5504(3) 0.08301(12) -0.02915(12)
H15 H 0.4469 0.0873 -0.0368
C24 C 0.6327(3) 0.06321(11) -0.09223(11)
H16 H 0.5855 0.0529 -0.1426
C25 C 0.7858(3) 0.05857(12) -0.08132(11)
H17 H 0.8422 0.0448 -0.1244
C26 C 0.8573(2) 0.07423(10) -0.00639(10)
H18 H 0.9612 0.0721 0.0001
C27 C 0.7060(2) 0.00386(12) 0.47356(10)
H19 H 0.6028 0.0188 0.4674
H20 H 0.7468 0.0183 0.5262
H21 H 0.7131 -0.0495 0.4677
C28 C 0.84544(16) -0.06029(8) 0.31895(9)
C29 C 0.82568(19) -0.10290(9) 0.24800(10)
C30 C 0.8963(3) -0.17211(11) 0.24315(14)
H22 H 0.8809 -0.2010 0.1966
C31 C 0.9887(3) -0.19837(13) 0.30634(16)
H23 H 1.0337 -0.2451 0.3027
C32 C 1.0144(2) -0.15573(12) 0.37476(14)
H24 H 1.0790 -0.1726 0.4169
C33 C 0.94357(19) -0.08798(10) 0.38009(10)
H25 H 0.9619 -0.0593 0.4265
C34 C 0.51729(18) -0.05704(9) 0.31898(10)
H26 H 0.5704 -0.1012 0.3289
C35 C 0.36200(19) -0.05899(10) 0.31168(11)
H27 H 0.3120 -0.1042 0.3172
loop_
_geom_bond_atom_site_label_1
_geom_bond_atom_site_label_2
_geom_bond_site_symmetry_1
_geom_bond_site_symmetry_2
O1 C8 1_555 1_555
O2 H1 1_555 1_555
N1 C6 1_555 1_555
C1 H2 1_555 1_555
C2 C1 1_555 1_555
H3 C2 1_555 1_555
C3 C2 1_555 1_555
H4 C3 1_555 1_555
C4 C3 1_555 1_555
C5 C4 1_555 1_555
C6 C5 1_555 1_555
C7 N1 1_555 1_555
C8 C7 1_555 1_555
C9 C8 1_555 1_555
C10 C9 1_555 1_555
H5 C10 1_555 1_555
C11 C10 1_555 1_555
H6 C11 1_555 1_555
C12 C11 1_555 1_555
H7 C12 1_555 1_555
C13 C1 1_555 1_555
H8 C13 1_555 1_555
C14 C4 1_555 1_555
H9 C14 1_555 1_555
C15 C5 1_555 1_555
C16 C15 1_555 1_555
H10 C16 1_555 1_555
C17 C16 1_555 1_555
H11 C17 1_555 1_555
C18 C17 1_555 1_555
H12 C18 1_555 1_555
C19 C18 1_555 1_555
H13 C19 1_555 1_555
C20 C7 1_555 1_555
C21 C6 1_555 1_555
C22 C21 1_555 1_555
H14 C22 1_555 1_555
C23 C22 1_555 1_555
H15 C23 1_555 1_555
C24 C23 1_555 1_555
H16 C24 1_555 1_555
C25 C24 1_555 1_555
H17 C25 1_555 1_555
C26 C21 1_555 1_555
H18 C26 1_555 1_555
C27 O1 1_555 1_555
H19 C27 1_555 1_555
H20 C27 1_555 1_555
H21 C27 1_555 1_555
C28 C8 1_555 1_555
C29 O2 1_555 1_555
C30 C29 1_555 1_555
H22 C30 1_555 1_555
C31 C30 1_555 1_555
H23 C31 1_555 1_555
C32 C31 1_555 1_555
H24 C32 1_555 1_555
C33 C28 1_555 1_555
H25 C33 1_555 1_555
C34 C9 1_555 1_555
H26 C34 1_555 1_555
C35 C12 1_555 1_555
H27 C35 1_555 1_555
C13 C14 1_555 1_555
C15 C20 1_555 1_555
C19 C20 1_555 1_555
C25 C26 1_555 1_555
C28 C29 1_555 1_555
C32 C33 1_555 1_555
C34 C35 1_555 1_555

#END
