
#######################################################################
#
#                 Cambridge Crystallographic Data Centre
#                                CCDC 
#
#######################################################################
#
# If this CIF has been generated from an entry in the Cambridge 
# Structural Database, then it will include bibliographic, chemical, 
# crystal, experimental, refinement or atomic coordinate data resulting 
# from the CCDC's data processing and validation procedures.
#
#######################################################################

data_HOMLIG
_chemical_formula_moiety         'C36 H29 N1 O3'
_chemical_name_systematic        
1-(2-(Dimethoxy(phenyl)methyl)phenoxy)-3,4-diphenylisoquinoline
_symmetry_cell_setting           monoclinic
_symmetry_space_group_name_H-M   'C 2/c'
_symmetry_Int_Tables_number      15
_space_group_name_Hall           '-C 2yn'
loop_
_symmetry_equiv_pos_site_id
_symmetry_equiv_pos_as_xyz
1 x,y,z
2 -x,y,1/2-z
3 1/2+x,1/2+y,z
4 1/2-x,1/2+y,1/2-z
5 -x,-y,-z
6 x,-y,1/2+z
7 1/2-x,1/2-y,-z
8 1/2+x,1/2-y,1/2+z
_cell_length_a                   38.5189(7)
_cell_length_b                   8.13810(10)
_cell_length_c                   18.5315(13)
_cell_angle_alpha                90
_cell_angle_beta                 90.749(6)
_cell_angle_gamma                90
_cell_volume                     5808.59
_exptl_crystal_colour            colorless
_exptl_crystal_description       prism
_cell_formula_units_Z            8
loop_
_atom_site_label
_atom_site_type_symbol
_atom_site_fract_x
_atom_site_fract_y
_atom_site_fract_z
O1 O 0.61949(2) 0.65493(12) 0.10261(4)
O2 O 0.55791(3) 0.82521(12) 0.14301(6)
O3 O 0.51054(3) 0.67019(14) 0.10466(7)
N1 N 0.64271(3) 0.67845(13) 0.21733(5)
C1 C 0.75725(5) 1.1299(2) 0.38686(9)
H1 H 0.7728 1.1826 0.4179
C2 C 0.76938(4) 1.0334(2) 0.33187(9)
H2 H 0.7931 1.0211 0.3256
C3 C 0.74618(3) 0.95434(17) 0.28579(8)
H3 H 0.7545 0.8899 0.2484
C4 C 0.71059(3) 0.97043(15) 0.29497(6)
C5 C 0.68579(3) 0.88534(15) 0.24469(6)
C6 C 0.66590(3) 0.75305(15) 0.26457(6)
C7 C 0.64109(3) 0.72995(15) 0.15145(6)
C8 C 0.59975(3) 0.51926(16) 0.12338(7)
C9 C 0.56392(3) 0.53322(16) 0.11910(8)
C10 C 0.54678(3) 0.69603(17) 0.09755(8)
C11 C 0.55550(4) 0.74316(19) 0.02063(9)
C12 C 0.57154(4) 0.8894(2) 0.00265(10)
H4 H 0.5770 0.9656 0.0384
C13 C 0.57945(6) 0.9224(3) -0.06880(13)
H5 H 0.5904 1.0204 -0.0806
C14 C 0.57125(6) 0.8120(4) -0.12211(13)
H6 H 0.5769 0.8343 -0.1698
C15 C 0.69895(4) 1.06951(19) 0.35000(8)
H7 H 0.6752 1.0837 0.3565
C16 C 0.72243(5) 1.1483(2) 0.39584(9)
H8 H 0.7143 1.2142 0.4330
C17 C 0.54463(4) 0.39287(19) 0.13299(11)
H9 H 0.5205 0.3979 0.1305
C18 C 0.56058(5) 0.2460(2) 0.15048(12)
H10 H 0.5472 0.1534 0.1597
C19 C 0.59602(5) 0.23602(19) 0.15433(10)
H11 H 0.6067 0.1369 0.1660
C20 C 0.61582(4) 0.37289(18) 0.14084(8)
H12 H 0.6399 0.3668 0.1435
C21 C 0.55284(5) 0.7984(2) 0.21807(10)
H13 H 0.5295 0.7622 0.2258
H14 H 0.5569 0.8990 0.2439
H15 H 0.5688 0.7159 0.2351
C22 C 0.48923(5) 0.8071(3) 0.08459(14)
H16 H 0.4972 0.9036 0.1096
H17 H 0.4656 0.7849 0.0972
H18 H 0.4906 0.8247 0.0335
C23 C 0.54676(5) 0.6330(3) -0.03397(11)
H19 H 0.5356 0.5353 -0.0226
C24 C 0.55451(6) 0.6669(4) -0.10481(13)
H20 H 0.5485 0.5925 -0.1410
C25 C 0.66032(3) 0.86441(15) 0.12311(6)
C26 C 0.65749(4) 0.91889(18) 0.05100(7)
H21 H 0.6432 0.8630 0.0184
C27 C 0.67562(4) 1.05324(19) 0.02913(7)
H22 H 0.6735 1.0899 -0.0183
C28 C 0.69752(4) 1.13647(19) 0.07795(8)
H23 H 0.7098 1.2281 0.0626
C29 C 0.70099(3) 1.08468(17) 0.14746(7)
H24 H 0.7156 1.1414 0.1791
C30 C 0.68263(3) 0.94560(15) 0.17232(6)
C31 C 0.66759(3) 0.67355(16) 0.33689(6)
C32 C 0.69895(3) 0.64174(16) 0.37170(7)
H25 H 0.7196 0.6733 0.3501
C33 C 0.70005(4) 0.56388(17) 0.43800(7)
H26 H 0.7213 0.5430 0.4605
C34 C 0.66983(5) 0.5173(2) 0.47074(8)
H27 H 0.6706 0.4669 0.5158
C35 C 0.63875(5) 0.5454(3) 0.43686(9)
H28 H 0.6183 0.5129 0.4588
C36 C 0.63734(4) 0.6218(2) 0.37018(8)
H29 H 0.6160 0.6388 0.3474
loop_
_geom_bond_atom_site_label_1
_geom_bond_atom_site_label_2
_geom_bond_site_symmetry_1
_geom_bond_site_symmetry_2
O1 C7 1_555 1_555
O2 C10 1_555 1_555
O3 C10 1_555 1_555
N1 C6 1_555 1_555
C1 H1 1_555 1_555
C2 C1 1_555 1_555
H2 C2 1_555 1_555
C3 C2 1_555 1_555
H3 C3 1_555 1_555
C4 C3 1_555 1_555
C5 C4 1_555 1_555
C6 C5 1_555 1_555
C7 N1 1_555 1_555
C8 O1 1_555 1_555
C9 C8 1_555 1_555
C10 C9 1_555 1_555
C11 C10 1_555 1_555
C12 C11 1_555 1_555
H4 C12 1_555 1_555
C13 C12 1_555 1_555
H5 C13 1_555 1_555
C14 C13 1_555 1_555
H6 C14 1_555 1_555
C15 C4 1_555 1_555
H7 C15 1_555 1_555
C16 C1 1_555 1_555
H8 C16 1_555 1_555
C17 C9 1_555 1_555
H9 C17 1_555 1_555
C18 C17 1_555 1_555
H10 C18 1_555 1_555
C19 C18 1_555 1_555
H11 C19 1_555 1_555
C20 C8 1_555 1_555
H12 C20 1_555 1_555
C21 O2 1_555 1_555
H13 C21 1_555 1_555
H14 C21 1_555 1_555
H15 C21 1_555 1_555
C22 O3 1_555 1_555
H16 C22 1_555 1_555
H17 C22 1_555 1_555
H18 C22 1_555 1_555
C23 C11 1_555 1_555
H19 C23 1_555 1_555
C24 C14 1_555 1_555
H20 C24 1_555 1_555
C25 C7 1_555 1_555
C26 C25 1_555 1_555
H21 C26 1_555 1_555
C27 C26 1_555 1_555
H22 C27 1_555 1_555
C28 C27 1_555 1_555
H23 C28 1_555 1_555
C29 C28 1_555 1_555
H24 C29 1_555 1_555
C30 C5 1_555 1_555
C31 C6 1_555 1_555
C32 C31 1_555 1_555
H25 C32 1_555 1_555
C33 C32 1_555 1_555
H26 C33 1_555 1_555
C34 C33 1_555 1_555
H27 C34 1_555 1_555
C35 C34 1_555 1_555
H28 C35 1_555 1_555
C36 C31 1_555 1_555
H29 C36 1_555 1_555
C15 C16 1_555 1_555
C19 C20 1_555 1_555
C23 C24 1_555 1_555
C25 C30 1_555 1_555
C29 C30 1_555 1_555
C35 C36 1_555 1_555

#END
