
#######################################################################
#
#                 Cambridge Crystallographic Data Centre
#                                CCDC 
#
#######################################################################
#
# If this CIF has been generated from an entry in the Cambridge 
# Structural Database, then it will include bibliographic, chemical, 
# crystal, experimental, refinement or atomic coordinate data resulting 
# from the CCDC's data processing and validation procedures.
#
#######################################################################

data_HOMLAY
_chemical_formula_moiety         'C26 H25 N1 O1'
_chemical_name_systematic        
2-((3,4-Diethylisoquinolin-1-yl)(phenyl)methyl)phenol
_symmetry_cell_setting           monoclinic
_symmetry_space_group_name_H-M   'P 21/n'
_symmetry_Int_Tables_number      14
_space_group_name_Hall           '-P 2yn'
loop_
_symmetry_equiv_pos_site_id
_symmetry_equiv_pos_as_xyz
1 x,y,z
2 1/2-x,1/2+y,1/2-z
3 -x,-y,-z
4 1/2+x,1/2-y,1/2+z
_cell_length_a                   12.5864(2)
_cell_length_b                   11.9848(2)
_cell_length_c                   13.3907(9)
_cell_angle_alpha                90
_cell_angle_beta                 92.300(7)
_cell_angle_gamma                90
_cell_volume                     2018.3
_exptl_crystal_colour            colorless
_exptl_crystal_description       prism
_cell_formula_units_Z            4
loop_
_atom_site_label
_atom_site_type_symbol
_atom_site_fract_x
_atom_site_fract_y
_atom_site_fract_z
N1 N 0.81414(10) 0.16630(11) 0.55993(9)
O1 O 0.83002(9) 0.26752(11) 0.73383(8)
H1 H 0.8118(15) 0.2421(18) 0.6781(13)
C1 C 0.93522(11) 0.15259(13) 0.42801(10)
C2 C 0.92035(12) 0.33005(12) 0.53896(11)
H2 H 0.9708 0.3563 0.4903
C3 C 0.90077(11) 0.04051(13) 0.41050(11)
C4 C 0.88864(11) 0.21194(12) 0.50691(10)
C5 C 0.82086(12) -0.00620(12) 0.47048(12)
C6 C 0.94885(13) -0.02107(15) 0.33396(13)
H3 H 0.9270 -0.0940 0.3210
C7 C 0.82564(12) 0.41003(13) 0.53152(11)
C8 C 0.98041(12) 0.33028(12) 0.64034(11)
C9 C 0.77989(12) 0.05962(13) 0.54350(12)
C10 C 1.05920(15) 0.13462(19) 0.29544(14)
H4 H 1.1115 0.1651 0.2566
C11 C 0.93334(12) 0.29924(12) 0.73004(11)
C12 C 1.08615(13) 0.36447(14) 0.64597(13)
H5 H 1.1182 0.3861 0.5876
C13 C 0.99342(16) 0.30206(15) 0.81892(13)
H6 H 0.9624 0.2808 0.8779
C14 C 1.01489(13) 0.19754(16) 0.36796(12)
H7 H 1.0373 0.2708 0.3780
C15 C 0.81649(14) 0.49926(14) 0.59626(12)
H8 H 0.8671 0.5090 0.6480
C16 C 0.78334(15) -0.12533(14) 0.45381(15)
H9 H 0.8437 -0.1711 0.4372
H10 H 0.7559 -0.1538 0.5155
C17 C 1.02613(15) 0.02456(18) 0.27936(14)
H11 H 1.0576 -0.0180 0.2305
C18 C 0.73272(17) 0.57455(17) 0.58514(14)
H12 H 0.7277 0.6338 0.6295
C19 C 1.09802(17) 0.33567(17) 0.82182(16)
H13 H 1.1370 0.3370 0.8823
C20 C 1.14514(15) 0.36744(17) 0.73510(16)
H14 H 1.2157 0.3906 0.7366
C21 C 0.69522(17) 0.02281(17) 0.61289(18)
H15 H 0.6695 -0.0498 0.5909
H16 H 0.7281 0.0134 0.6791
C22 C 0.74959(16) 0.39911(16) 0.45468(14)
H17 H 0.7545 0.3405 0.4096
C23 C 0.65817(17) 0.56178(19) 0.50965(17)
H18 H 0.6020 0.6119 0.5025
C24 C 0.69776(18) -0.1361(2) 0.3713(2)
H19 H 0.6772 -0.2130 0.3643
H20 H 0.7248 -0.1099 0.3095
H21 H 0.6371 -0.0923 0.3878
C25 C 0.66646(18) 0.4741(2) 0.44394(18)
H22 H 0.6158 0.4653 0.3920
C26 C 0.60514(19) 0.0953(3) 0.6210(3)
H23 H 0.5565 0.0634 0.6665
H24 H 0.5701 0.1040 0.5565
H25 H 0.6286 0.1668 0.6455
loop_
_geom_bond_atom_site_label_1
_geom_bond_atom_site_label_2
_geom_bond_site_symmetry_1
_geom_bond_site_symmetry_2
N1 C4 1_555 1_555
O1 H1 1_555 1_555
C1 C3 1_555 1_555
C2 H2 1_555 1_555
C3 C5 1_555 1_555
C4 C1 1_555 1_555
C5 C9 1_555 1_555
C6 C3 1_555 1_555
H3 C6 1_555 1_555
C7 C2 1_555 1_555
C8 C2 1_555 1_555
C9 N1 1_555 1_555
C10 H4 1_555 1_555
C11 O1 1_555 1_555
C12 C8 1_555 1_555
H5 C12 1_555 1_555
C13 C11 1_555 1_555
H6 C13 1_555 1_555
C14 C1 1_555 1_555
H7 C14 1_555 1_555
C15 C7 1_555 1_555
H8 C15 1_555 1_555
C16 C5 1_555 1_555
H9 C16 1_555 1_555
H10 C16 1_555 1_555
C17 C6 1_555 1_555
H11 C17 1_555 1_555
C18 C15 1_555 1_555
H12 C18 1_555 1_555
C19 C13 1_555 1_555
H13 C19 1_555 1_555
C20 C12 1_555 1_555
H14 C20 1_555 1_555
C21 C9 1_555 1_555
H15 C21 1_555 1_555
H16 C21 1_555 1_555
C22 C7 1_555 1_555
H17 C22 1_555 1_555
C23 C18 1_555 1_555
H18 C23 1_555 1_555
C24 C16 1_555 1_555
H19 C24 1_555 1_555
H20 C24 1_555 1_555
H21 C24 1_555 1_555
C25 C22 1_555 1_555
H22 C25 1_555 1_555
C26 C21 1_555 1_555
H23 C26 1_555 1_555
H24 C26 1_555 1_555
H25 C26 1_555 1_555
C2 C4 1_555 1_555
C8 C11 1_555 1_555
C10 C14 1_555 1_555
C10 C17 1_555 1_555
C19 C20 1_555 1_555
C23 C25 1_555 1_555

#END
