
#######################################################################
#
#                 Cambridge Crystallographic Data Centre
#                                CCDC 
#
#######################################################################
#
# If this CIF has been generated from an entry in the Cambridge 
# Structural Database, then it will include bibliographic, chemical, 
# crystal, experimental, refinement or atomic coordinate data resulting 
# from the CCDC's data processing and validation procedures.
#
#######################################################################

data_HOMPIK
_chemical_formula_moiety         'C16 H16 N4 O2 2+,2(C6 H2 N3 O7 1-)'
_chemical_name_systematic        
"2,2'-(1,2-Dihydroxyethane-1,2-diyl)bis-1H-benzimidazol-3-ium bis(2,4,6-trinitrophenolate)"
_symmetry_cell_setting           monoclinic
_symmetry_space_group_name_H-M   'C 2'
_symmetry_Int_Tables_number      5
_space_group_name_Hall           'C 2y'
loop_
_symmetry_equiv_pos_site_id
_symmetry_equiv_pos_as_xyz
1 x,y,z
2 -x,y,-z
3 1/2+x,1/2+y,z
4 1/2-x,1/2+y,-z
_cell_length_a                   29.939(2)
_cell_length_b                   7.0434(9)
_cell_length_c                   16.2876(14)
_cell_angle_alpha                90
_cell_angle_beta                 118.7270(10)
_cell_angle_gamma                90
_cell_volume                     3011.87
_exptl_crystal_colour            colorless
_exptl_crystal_description       block
_cell_formula_units_Z            4
loop_
_atom_site_label
_atom_site_type_symbol
_atom_site_fract_x
_atom_site_fract_y
_atom_site_fract_z
N1 N 0.56903(12) 0.3523(5) 0.4453(2)
H1 H 0.5925 0.4351 0.4746
N2 N 0.49546(12) 0.2153(5) 0.3813(2)
H2 H 0.4637 0.1947 0.3624
O1 O 0.44479(10) 0.5167(4) 0.38231(18)
H3 H 0.4276 0.5817 0.3983
C1 C 0.49640(14) 0.5311(6) 0.4499(3)
H4 H 0.5102 0.6497 0.4398
C2 C 0.52101(15) 0.3664(6) 0.4280(3)
C3 C 0.52802(15) 0.0937(6) 0.3671(3)
C4 C 0.57534(16) 0.1823(6) 0.4086(3)
C5 C 0.61634(17) 0.0989(7) 0.4058(3)
H5 H 0.6481 0.1572 0.4326
C6 C 0.60823(19) -0.0719(7) 0.3623(3)
H6 H 0.6352 -0.1309 0.3593
C7 C 0.5611(2) -0.1622(7) 0.3221(3)
H7 H 0.5574 -0.2797 0.2936
C8 C 0.51982(18) -0.0810(7) 0.3239(3)
H8 H 0.4882 -0.1404 0.2975
N1A N 0.43097(12) 0.3523(5) 0.5547(2)
H1A H 0.4075 0.4351 0.5254
N2A N 0.50454(12) 0.2153(5) 0.6187(2)
H2A H 0.5363 0.1947 0.6376
O1A O 0.55521(10) 0.5167(4) 0.61769(18)
H3A H 0.5724 0.5817 0.6017
C1A C 0.50360(14) 0.5311(6) 0.5501(3)
H4A H 0.4898 0.6497 0.5602
C2A C 0.47899(15) 0.3664(6) 0.5720(3)
C3A C 0.47198(15) 0.0937(6) 0.6329(3)
C4A C 0.42466(16) 0.1823(6) 0.5914(3)
C5A C 0.38366(17) 0.0989(7) 0.5942(3)
H5A H 0.3519 0.1572 0.5674
C6A C 0.39177(19) -0.0719(7) 0.6377(3)
H6A H 0.3648 -0.1309 0.6407
C7A C 0.4389(2) -0.1622(7) 0.6779(3)
H7A H 0.4426 -0.2797 0.7064
C8A C 0.48018(18) -0.0810(7) 0.6761(3)
H8A H 0.5118 -0.1404 0.7025
N3 N 0.44273(12) 0.5616(5) 0.9032(2)
H9 H 0.4666 0.5503 0.8883
N4 N 0.39728(11) 0.6727(5) 0.9616(2)
H10 H 0.3869 0.7452 0.9915
O2 O 0.49459(10) 0.8362(5) 1.10370(19)
H11 H 0.4732 0.8779 1.1167
C9 C 0.47677(14) 0.8540(6) 1.0072(3)
H12 H 0.4596 0.9770 0.9867
C10 C 0.43922(14) 0.7010(6) 0.9547(3)
C11 C 0.37297(16) 0.5102(7) 0.9140(3)
C12 C 0.40226(15) 0.4368(7) 0.8769(3)
C13 C 0.39115(19) 0.2706(8) 0.8277(3)
H13 H 0.4116 0.2223 0.8042
C14 C 0.3477(2) 0.1794(8) 0.8153(4)
H14 H 0.3383 0.0662 0.7818
C15 C 0.3177(2) 0.2506(9) 0.8509(4)
H15 H 0.2885 0.1842 0.8402
C16 C 0.32924(17) 0.4166(9) 0.9018(3)
H16 H 0.3091 0.4632 0.9265
N3A N 0.55727(12) 0.5616(5) 1.0968(2)
H9A H 0.5334 0.5503 1.1117
N4A N 0.60272(11) 0.6727(5) 1.0384(2)
H10A H 0.6131 0.7452 1.0085
O2A O 0.50541(10) 0.8362(5) 0.89630(19)
H11A H 0.5268 0.8779 0.8833
C9A C 0.52323(14) 0.8540(6) 0.9928(3)
H12A H 0.5404 0.9770 1.0133
C10A C 0.56078(14) 0.7010(6) 1.0453(3)
C11A C 0.62703(16) 0.5102(7) 1.0860(3)
C12A C 0.59774(15) 0.4368(7) 1.1231(3)
C13A C 0.60885(19) 0.2706(8) 1.1723(3)
H13A H 0.5884 0.2223 1.1958
C14A C 0.6523(2) 0.1794(8) 1.1847(4)
H14A H 0.6617 0.0662 1.2182
C15A C 0.6823(2) 0.2506(9) 1.1491(4)
H15A H 0.7115 0.1842 1.1598
C16A C 0.67076(17) 0.4166(9) 1.0982(3)
H16A H 0.6909 0.4632 1.0735
N5 N 0.46490(14) 0.3291(6) 0.1414(3)
N6 N 0.33040(16) 0.5718(6) 0.1936(3)
N7 N 0.30590(13) -0.0461(6) 0.0470(3)
O3 O 0.41004(11) -0.0253(4) 0.0846(2)
O4 O 0.47455(13) 0.2532(6) 0.0855(3)
O5 O 0.49427(13) 0.4424(5) 0.1984(3)
O6 O 0.35493(13) 0.7195(5) 0.2200(2)
O7 O 0.29239(15) 0.5415(6) 0.2006(3)
O8 O 0.26871(12) -0.0616(5) 0.0584(2)
O9 O 0.31583(12) -0.1585(5) 0.0011(2)
C17 C 0.38992(15) 0.1155(6) 0.1002(3)
C18 C 0.41555(16) 0.2939(6) 0.1361(3)
C19 C 0.39701(16) 0.4388(6) 0.1663(3)
H17 H 0.4161 0.5482 0.1917
C20 C 0.34946(16) 0.4199(7) 0.1585(3)
C21 C 0.32013(16) 0.2600(7) 0.1200(3)
H18 H 0.2878 0.2501 0.1145
C22 C 0.33941(14) 0.1173(6) 0.0902(3)
N8 N 0.39242(13) 0.9959(5) 0.3723(2)
N9 N 0.22184(16) 1.1706(7) 0.3031(3)
N10 N 0.28788(16) 0.5688(6) 0.4562(3)
O10 O 0.37779(10) 0.6379(4) 0.4388(2)
O11 O 0.43212(12) 0.9138(5) 0.4205(2)
O12 O 0.39054(12) 1.1293(5) 0.3223(2)
O13 O 0.22622(16) 1.3055(6) 0.2610(3)
O14 O 0.18433(13) 1.1402(5) 0.3127(3)
O15 O 0.24463(13) 0.5353(6) 0.4421(3)
O16 O 0.32289(15) 0.4636(6) 0.5023(3)
C23 C 0.34373(15) 0.7611(6) 0.4137(3)
C24 C 0.34596(15) 0.9433(6) 0.3737(3)
C25 C 0.30748(16) 1.0730(6) 0.3385(3)
H19 H 0.3109 1.1859 0.3124
C26 C 0.26335(17) 1.0337(7) 0.3423(3)
C27 C 0.25834(17) 0.8699(7) 0.3820(3)
H20 H 0.2288 0.8477 0.3858
C28 C 0.29671(15) 0.7380(6) 0.4161(3)
loop_
_geom_bond_atom_site_label_1
_geom_bond_atom_site_label_2
_geom_bond_site_symmetry_1
_geom_bond_site_symmetry_2
N1 H1 1_555 1_555
N2 H2 1_555 1_555
O1 H3 1_555 1_555
C1 O1 1_555 1_555
H4 C1 1_555 1_555
C2 N1 1_555 1_555
C3 N2 1_555 1_555
C4 N1 1_555 1_555
C5 C4 1_555 1_555
H5 C5 1_555 1_555
C6 C5 1_555 1_555
H6 C6 1_555 1_555
C7 C6 1_555 1_555
H7 C7 1_555 1_555
C8 C3 1_555 1_555
H8 C8 1_555 1_555
N3 H9 1_555 1_555
N4 H10 1_555 1_555
O2 H11 1_555 1_555
C9 O2 1_555 1_555
H12 C9 1_555 1_555
C10 N3 1_555 1_555
C11 N4 1_555 1_555
C12 N3 1_555 1_555
C13 C12 1_555 1_555
H13 C13 1_555 1_555
C14 C13 1_555 1_555
H14 C14 1_555 1_555
C15 C14 1_555 1_555
H15 C15 1_555 1_555
C16 C11 1_555 1_555
H16 C16 1_555 1_555
N5 O4 1_555 1_555
N6 O6 1_555 1_555
N7 O8 1_555 1_555
O3 C17 1_555 1_555
O5 N5 1_555 1_555
O7 N6 1_555 1_555
O9 N7 1_555 1_555
C17 C18 1_555 1_555
C18 N5 1_555 1_555
C19 C18 1_555 1_555
H17 C19 1_555 1_555
C20 N6 1_555 1_555
C21 C20 1_555 1_555
H18 C21 1_555 1_555
C22 N7 1_555 1_555
N8 O11 1_555 1_555
N9 O13 1_555 1_555
N10 O15 1_555 1_555
O10 C23 1_555 1_555
O12 N8 1_555 1_555
O14 N9 1_555 1_555
O16 N10 1_555 1_555
C23 C24 1_555 1_555
C24 N8 1_555 1_555
C25 C24 1_555 1_555
H19 C25 1_555 1_555
C26 N9 1_555 1_555
C27 C26 1_555 1_555
H20 C27 1_555 1_555
C28 N10 1_555 1_555
N1A H1A 1_555 1_555
N2A H2A 1_555 1_555
O1A H3A 1_555 1_555
C1A C1 1_555 1_555
H4A C1A 1_555 1_555
C2A N1A 1_555 1_555
C3A N2A 1_555 1_555
C4A N1A 1_555 1_555
C5A C4A 1_555 1_555
H5A C5A 1_555 1_555
C6A C5A 1_555 1_555
H6A C6A 1_555 1_555
C7A C6A 1_555 1_555
H7A C7A 1_555 1_555
C8A C3A 1_555 1_555
H8A C8A 1_555 1_555
N3A H9A 1_555 1_555
N4A H10A 1_555 1_555
O2A H11A 1_555 1_555
C9A C9 1_555 1_555
H12A C9A 1_555 1_555
C10A N3A 1_555 1_555
C11A N4A 1_555 1_555
C12A N3A 1_555 1_555
C13A C12A 1_555 1_555
H13A C13A 1_555 1_555
C14A C13A 1_555 1_555
H14A C14A 1_555 1_555
C15A C14A 1_555 1_555
H15A C15A 1_555 1_555
C16A C11A 1_555 1_555
H16A C16A 1_555 1_555
N2 C2 1_555 1_555
C1 C2 1_555 1_555
C3 C4 1_555 1_555
C7 C8 1_555 1_555
N4 C10 1_555 1_555
C9 C10 1_555 1_555
C11 C12 1_555 1_555
C15 C16 1_555 1_555
C17 C22 1_555 1_555
C19 C20 1_555 1_555
C21 C22 1_555 1_555
C23 C28 1_555 1_555
C25 C26 1_555 1_555
C27 C28 1_555 1_555
N2A C2A 1_555 1_555
O1A C1A 1_555 1_555
C1A C2A 1_555 1_555
C3A C4A 1_555 1_555
C7A C8A 1_555 1_555
N4A C10A 1_555 1_555
O2A C9A 1_555 1_555
C9A C10A 1_555 1_555
C11A C12A 1_555 1_555
C15A C16A 1_555 1_555

#END
