
#######################################################################
#
#                 Cambridge Crystallographic Data Centre
#                                CCDC 
#
#######################################################################
#
# If this CIF has been generated from an entry in the Cambridge 
# Structural Database, then it will include bibliographic, chemical, 
# crystal, experimental, refinement or atomic coordinate data resulting 
# from the CCDC's data processing and validation procedures.
#
#######################################################################

data_HOMQAB
_chemical_formula_moiety         'C25 H17 Br1 N2 O2'
_chemical_name_systematic        
2-(4-Bromophenyl)-5-(1-methylquinoxalin-2-on-3-yl)-4-phenylfuran
_symmetry_cell_setting           monoclinic
_symmetry_space_group_name_H-M   'P 21/c'
_symmetry_Int_Tables_number      14
_space_group_name_Hall           '-P 2ybc'
loop_
_symmetry_equiv_pos_site_id
_symmetry_equiv_pos_as_xyz
1 x,y,z
2 -x,1/2+y,1/2-z
3 -x,-y,-z
4 x,1/2-y,1/2+z
_cell_length_a                   19.982(5)
_cell_length_b                   8.019(5)
_cell_length_c                   13.133(5)
_cell_angle_alpha                90
_cell_angle_beta                 101.425(5)
_cell_angle_gamma                90
_cell_volume                     2062.68
_exptl_crystal_colour            yellow
_exptl_crystal_description       plates
_chemical_melting_point          186-188deg.C
_cell_formula_units_Z            4
loop_
_atom_site_label
_atom_site_type_symbol
_atom_site_fract_x
_atom_site_fract_y
_atom_site_fract_z
Br1 Br 0.3101(1) 0.0423(1) 0.3284(1)
O1 O 0.6446(2) 0.0174(5) 0.2825(3)
O2 O 0.6655(3) 0.0130(6) 0.0802(3)
N1 N 0.8133(3) -0.0909(6) 0.2703(4)
N2 N 0.7593(3) -0.1334(6) 0.0591(3)
C1 C 0.7137(3) 0.0486(7) 0.2985(4)
C2 C 0.7322(3) 0.1481(7) 0.3858(4)
C3 C 0.6712(3) 0.1763(7) 0.4239(4)
C4 C 0.6187(3) 0.0959(7) 0.3597(5)
C5 C 0.7526(3) -0.0343(7) 0.2295(4)
C6 C 0.7212(3) -0.0480(7) 0.1171(4)
C7 C 0.7291(4) -0.1561(10) -0.0530(4)
C8 C 0.8599(4) -0.2963(8) 0.0413(5)
C9 C 0.9226(4) -0.3583(9) 0.0870(6)
C10 C 0.9490(4) -0.3326(10) 0.1925(6)
C11 C 0.9129(3) -0.2415(9) 0.2506(5)
C12 C 0.8493(3) -0.1770(7) 0.2076(4)
C13 C 0.8224(3) -0.2026(7) 0.0997(5)
C14 C 0.8001(3) 0.2189(7) 0.4304(4)
C15 C 0.8436(3) 0.2823(8) 0.3699(5)
C16 C 0.9065(4) 0.3472(9) 0.4142(6)
C17 C 0.9260(3) 0.3562(9) 0.5211(6)
C18 C 0.8830(4) 0.2966(8) 0.5829(5)
C19 C 0.8198(3) 0.2299(8) 0.5396(5)
C20 C 0.5468(3) 0.0830(7) 0.3529(5)
C21 C 0.5069(4) -0.0165(11) 0.2799(7)
C22 C 0.4365(4) -0.0275(10) 0.2728(7)
C23 C 0.4065(3) 0.0626(7) 0.3407(5)
C24 C 0.4437(3) 0.1636(7) 0.4138(5)
C25 C 0.5140(3) 0.1733(8) 0.4204(4)
H1 H 0.6676(3) 0.2386(7) 0.4823(4)
H2 H 0.7603(4) -0.2176(10) -0.0857(4)
H3 H 0.7206(4) -0.0489(10) -0.0856(4)
H4 H 0.6869(4) -0.2163(10) -0.0601(4)
H5 H 0.8424(4) -0.3169(8) -0.0286(5)
H6 H 0.9479(4) -0.4183(9) 0.0472(6)
H7 H 0.9911(4) -0.3776(10) 0.2229(6)
H8 H 0.9313(3) -0.2222(9) 0.3204(5)
H9 H 0.8301(3) 0.2810(8) 0.2980(5)
H10 H 0.9357(4) 0.3849(9) 0.3722(6)
H11 H 0.9680(3) 0.4024(9) 0.5512(6)
H12 H 0.8967(4) 0.3012(8) 0.6548(5)
H13 H 0.7907(3) 0.1928(8) 0.5820(5)
H14 H 0.5273(4) -0.0778(11) 0.2342(7)
H15 H 0.4101(4) -0.0950(10) 0.2227(7)
H16 H 0.4225(3) 0.2250(7) 0.4586(5)
H17 H 0.5399(3) 0.2412(8) 0.4708(4)
loop_
_geom_bond_atom_site_label_1
_geom_bond_atom_site_label_2
_geom_bond_site_symmetry_1
_geom_bond_site_symmetry_2
Br1 C23 1_555 1_555
O1 C1 1_555 1_555
O2 C6 1_555 1_555
N1 C5 1_555 1_555
N2 C6 1_555 1_555
C1 C2 1_555 1_555
C2 C3 1_555 1_555
C3 C4 1_555 1_555
C4 O1 1_555 1_555
C5 C1 1_555 1_555
C6 C5 1_555 1_555
C7 N2 1_555 1_555
C8 C9 1_555 1_555
C9 C10 1_555 1_555
C10 C11 1_555 1_555
C11 C12 1_555 1_555
C12 N1 1_555 1_555
C13 N2 1_555 1_555
C14 C2 1_555 1_555
C15 C14 1_555 1_555
C16 C15 1_555 1_555
C17 C16 1_555 1_555
C18 C17 1_555 1_555
C19 C14 1_555 1_555
C20 C4 1_555 1_555
C21 C20 1_555 1_555
C22 C21 1_555 1_555
C23 C22 1_555 1_555
C24 C23 1_555 1_555
C25 C20 1_555 1_555
H1 C3 1_555 1_555
H2 C7 1_555 1_555
H3 C7 1_555 1_555
H4 C7 1_555 1_555
H5 C8 1_555 1_555
H6 C9 1_555 1_555
H7 C10 1_555 1_555
H8 C11 1_555 1_555
H9 C15 1_555 1_555
H10 C16 1_555 1_555
H11 C17 1_555 1_555
H12 C18 1_555 1_555
H13 C19 1_555 1_555
H14 C21 1_555 1_555
H15 C22 1_555 1_555
H16 C24 1_555 1_555
H17 C25 1_555 1_555
C8 C13 1_555 1_555
C12 C13 1_555 1_555
C18 C19 1_555 1_555
C24 C25 1_555 1_555

#END
