
#######################################################################
#
#                 Cambridge Crystallographic Data Centre
#                                CCDC 
#
#######################################################################
#
# If this CIF has been generated from an entry in the Cambridge 
# Structural Database, then it will include bibliographic, chemical, 
# crystal, experimental, refinement or atomic coordinate data resulting 
# from the CCDC's data processing and validation procedures.
#
#######################################################################

data_HONFEX
_chemical_formula_moiety         'C8 H7 Cl1 O3,C9 H7 N1'
_chemical_name_systematic        '(4-chlorophenoxy)acetic acid quinoline'
_symmetry_cell_setting           triclinic
_symmetry_space_group_name_H-M   'P -1'
_symmetry_Int_Tables_number      2
_space_group_name_Hall           '-P 1'
loop_
_symmetry_equiv_pos_site_id
_symmetry_equiv_pos_as_xyz
1 x,y,z
2 -x,-y,-z
_cell_length_a                   7.097(2)
_cell_length_b                   7.2134(11)
_cell_length_c                   15.684(4)
_cell_angle_alpha                100.731(2)
_cell_angle_beta                 97.2650(10)
_cell_angle_gamma                101.957(2)
_cell_volume                     760.301
_exptl_crystal_colour            colorless
_exptl_crystal_description       block
_cell_formula_units_Z            2
loop_
_atom_site_label
_atom_site_type_symbol
_atom_site_fract_x
_atom_site_fract_y
_atom_site_fract_z
Cl1 Cl 1.0844(2) 0.8971(2) 0.14521(11)
O1 O 0.4984(6) 0.7332(6) 0.6113(3)
H1 H 0.4023 0.7031 0.6343
O2 O 0.2739(6) 0.7261(6) 0.4967(3)
O3 O 0.5460(5) 0.8004(5) 0.3973(2)
C1 C 0.4419(9) 0.7449(7) 0.5302(4)
C2 C 0.6129(8) 0.7871(7) 0.4841(3)
H2 H 0.7023 0.9083 0.5155
H3 H 0.6824 0.6844 0.4828
C3 C 0.6830(8) 0.8249(6) 0.3421(3)
C4 C 0.8833(8) 0.8498(7) 0.3682(4)
H4 H 0.9346 0.8516 0.4260
C5 C 1.0057(9) 0.8719(7) 0.3059(4)
H5 H 1.1394 0.8858 0.3221
C6 C 0.9313(9) 0.8734(7) 0.2217(4)
C7 C 0.7328(9) 0.8490(7) 0.1965(4)
H6 H 0.6823 0.8471 0.1386
C8 C 0.6092(9) 0.8275(7) 0.2569(4)
H7 H 0.4759 0.8148 0.2401
N1 N 0.2172(7) 0.6629(6) 0.6981(3)
C9 C 0.0336(10) 0.6172(8) 0.6592(4)
H8 H 0.0064 0.6120 0.5991
C10 C -0.1227(9) 0.5759(8) 0.7041(4)
H9 H -0.2507 0.5437 0.6741
C11 C -0.0861(9) 0.5831(8) 0.7917(4)
H10 H -0.1893 0.5529 0.8218
C12 C 0.1075(8) 0.6363(7) 0.8375(4)
C13 C 0.2568(8) 0.6735(6) 0.7874(4)
C14 C 0.4533(8) 0.7265(8) 0.8293(4)
H11 H 0.5526 0.7530 0.7968
C15 C 0.4980(10) 0.7389(9) 0.9175(4)
H12 H 0.6282 0.7728 0.9448
C16 C 0.3482(11) 0.7007(10) 0.9680(4)
H13 H 0.3802 0.7090 1.0281
C17 C 0.1602(10) 0.6525(9) 0.9289(4)
H14 H 0.0627 0.6294 0.9627
loop_
_geom_bond_atom_site_label_1
_geom_bond_atom_site_label_2
_geom_bond_site_symmetry_1
_geom_bond_site_symmetry_2
Cl1 C6 1_555 1_555
O1 H1 1_555 1_555
O2 C1 1_555 1_555
O3 C2 1_555 1_555
C1 O1 1_555 1_555
C2 C1 1_555 1_555
H2 C2 1_555 1_555
H3 C2 1_555 1_555
C3 O3 1_555 1_555
C4 C3 1_555 1_555
H4 C4 1_555 1_555
C5 C4 1_555 1_555
H5 C5 1_555 1_555
C6 C5 1_555 1_555
C7 C6 1_555 1_555
H6 C7 1_555 1_555
C8 C3 1_555 1_555
H7 C8 1_555 1_555
N1 C9 1_555 1_555
C9 H8 1_555 1_555
C10 C9 1_555 1_555
H9 C10 1_555 1_555
C11 C10 1_555 1_555
H10 C11 1_555 1_555
C12 C11 1_555 1_555
C13 N1 1_555 1_555
C14 C13 1_555 1_555
H11 C14 1_555 1_555
C15 C14 1_555 1_555
H12 C15 1_555 1_555
C16 C15 1_555 1_555
H13 C16 1_555 1_555
C17 C12 1_555 1_555
H14 C17 1_555 1_555
C7 C8 1_555 1_555
C12 C13 1_555 1_555
C16 C17 1_555 1_555

#END
