
#######################################################################
#
#                 Cambridge Crystallographic Data Centre
#                                CCDC 
#
#######################################################################
#
# If this CIF has been generated from an entry in the Cambridge 
# Structural Database, then it will include bibliographic, chemical, 
# crystal, experimental, refinement or atomic coordinate data resulting 
# from the CCDC's data processing and validation procedures.
#
#######################################################################

data_HONFAT
_chemical_formula_moiety         'C10 H10 N1 1+,C7 H4 N1 O4 1-'
_chemical_name_systematic        '2-methylquinolinium 4-nitrobenzoate'
_symmetry_cell_setting           monoclinic
_symmetry_space_group_name_H-M   'P 21/n'
_symmetry_Int_Tables_number      14
_space_group_name_Hall           '-P 2yn'
loop_
_symmetry_equiv_pos_site_id
_symmetry_equiv_pos_as_xyz
1 x,y,z
2 1/2-x,1/2+y,1/2-z
3 -x,-y,-z
4 1/2+x,1/2-y,1/2+z
_cell_length_a                   3.9998(2)
_cell_length_b                   13.3883(12)
_cell_length_c                   28.276(3)
_cell_angle_alpha                90
_cell_angle_beta                 92.8040(10)
_cell_angle_gamma                90
_cell_volume                     1512.38
_exptl_crystal_colour            colorless
_exptl_crystal_description       block
_cell_formula_units_Z            4
loop_
_atom_site_label
_atom_site_type_symbol
_atom_site_fract_x
_atom_site_fract_y
_atom_site_fract_z
N1 N 0.5011(9) 0.7121(2) 0.20940(11)
H1 H 0.4392 0.6974 0.2373
C1 C 0.7125(12) 0.8670(3) 0.24377(14)
H2 H 0.6654 0.9342 0.2336
H3 H 0.9413 0.8624 0.2555
H4 H 0.5674 0.8493 0.2685
C2 C 0.6553(11) 0.7973(3) 0.20293(14)
C3 C 0.7672(11) 0.8220(3) 0.15738(15)
H5 H 0.8835 0.8811 0.1529
C4 C 0.7036(12) 0.7591(3) 0.12071(15)
H6 H 0.7714 0.7759 0.0907
C5 C 0.5354(11) 0.6682(3) 0.12752(13)
C6 C 0.4362(10) 0.6462(3) 0.17343(13)
C7 C 0.2715(11) 0.5560(3) 0.18208(15)
H7 H 0.2081 0.5409 0.2125
C8 C 0.2046(12) 0.4909(3) 0.14611(17)
H8 H 0.0955 0.4311 0.1520
C9 C 0.2988(13) 0.5129(4) 0.09997(17)
H9 H 0.2486 0.4682 0.0755
C10 C 0.4628(13) 0.5992(4) 0.09091(15)
H10 H 0.5272 0.6127 0.0604
N2 N 0.6219(11) 0.6904(4) 0.49476(13)
O1 O 1.2529(8) 0.7023(2) 0.29229(9)
O2 O 1.3107(9) 0.5404(2) 0.30724(10)
O3 O 0.6210(11) 0.6224(3) 0.52335(12)
O4 O 0.4972(11) 0.7719(3) 0.50149(12)
C11 C 1.2220(11) 0.6232(3) 0.31769(13)
C12 C 1.0596(9) 0.6422(3) 0.36431(12)
C13 C 0.9506(11) 0.7355(3) 0.37602(13)
H11 H 0.9730 0.7882 0.3550
C14 C 0.8067(11) 0.7519(3) 0.41907(14)
H12 H 0.7313 0.8150 0.4272
C15 C 0.7791(11) 0.6730(3) 0.44904(13)
C16 C 0.8824(11) 0.5794(3) 0.43861(14)
H13 H 0.8570 0.5269 0.4597
C17 C 1.0265(11) 0.5641(3) 0.39574(13)
H14 H 1.1019 0.5008 0.3880
loop_
_geom_bond_atom_site_label_1
_geom_bond_atom_site_label_2
_geom_bond_site_symmetry_1
_geom_bond_site_symmetry_2
N1 H1 1_555 1_555
C1 H2 1_555 1_555
H3 C1 1_555 1_555
H4 C1 1_555 1_555
C2 N1 1_555 1_555
C3 C2 1_555 1_555
H5 C3 1_555 1_555
C4 C3 1_555 1_555
H6 C4 1_555 1_555
C5 C4 1_555 1_555
C6 N1 1_555 1_555
C7 C6 1_555 1_555
H7 C7 1_555 1_555
C8 C7 1_555 1_555
H8 C8 1_555 1_555
C9 C8 1_555 1_555
H9 C9 1_555 1_555
C10 C5 1_555 1_555
H10 C10 1_555 1_555
N2 O3 1_555 1_555
O1 C11 1_555 1_555
O2 C11 1_555 1_555
O4 N2 1_555 1_555
C11 C12 1_555 1_555
C12 C13 1_555 1_555
C13 H11 1_555 1_555
C14 C13 1_555 1_555
H12 C14 1_555 1_555
C15 N2 1_555 1_555
C16 C15 1_555 1_555
H13 C16 1_555 1_555
C17 C12 1_555 1_555
H14 C17 1_555 1_555
C1 C2 1_555 1_555
C5 C6 1_555 1_555
C9 C10 1_555 1_555
C14 C15 1_555 1_555
C16 C17 1_555 1_555

#END
