
#######################################################################
#
#                 Cambridge Crystallographic Data Centre
#                                CCDC 
#
#######################################################################
#
# If this CIF has been generated from an entry in the Cambridge 
# Structural Database, then it will include bibliographic, chemical, 
# crystal, experimental, refinement or atomic coordinate data resulting 
# from the CCDC's data processing and validation procedures.
#
#######################################################################

data_HONHID
_chemical_formula_moiety         'C32 H31 Cl2 N3 O3'
_chemical_name_systematic        
5''-(4-chlorobenzylidene)-4'-(4-chlorophenyl)-1''-ethyl-5-methoxy-1'-methyl-4''H-dispiro[indole-3,2'-pyrrolidine-3',3''-piperidine]-2,4''(1H)-dione
_symmetry_cell_setting           triclinic
_symmetry_space_group_name_H-M   'P -1'
_symmetry_Int_Tables_number      2
_space_group_name_Hall           '-P 1'
loop_
_symmetry_equiv_pos_site_id
_symmetry_equiv_pos_as_xyz
1 x,y,z
2 -x,-y,-z
_cell_length_a                   11.2517(6)
_cell_length_b                   11.4890(5)
_cell_length_c                   12.5318(6)
_cell_angle_alpha                100.1224(17)
_cell_angle_beta                 90.0265(18)
_cell_angle_gamma                114.8954(14)
_cell_volume                     1441.55
_exptl_crystal_colour            'pale yellow'
_exptl_crystal_description       Prismatic
_chemical_melting_point          '494 K'
_cell_formula_units_Z            2
_exptl_crystal_recrystallization_method n-butanol
loop_
_atom_site_label
_atom_site_type_symbol
_atom_site_fract_x
_atom_site_fract_y
_atom_site_fract_z
N1 N 0.6182(3) 0.4551(3) 0.8772(3)
N2 N 0.9294(4) 0.6092(3) 0.9883(3)
N3 N 0.9831(3) 0.6236(3) 0.7383(3)
O1 O 0.7310(5) 0.9751(4) 1.0059(3)
O2 O 0.8665(3) 0.4056(3) 0.8826(2)
O3 O 0.6407(3) 0.6482(3) 0.6708(3)
Cl1 Cl 0.58623(13) 0.01593(11) 0.28290(10)
Cl2 Cl 1.26156(13) 1.39579(11) 0.61229(12)
C1 C 0.6125(4) 0.3990(4) 0.6894(3)
C2 C 0.6112(4) 0.3049(3) 0.5884(4)
C3 C 0.5538(4) 0.3048(4) 0.4908(4)
C4 C 0.5458(4) 0.2181(4) 0.3964(4)
C5 C 0.5977(4) 0.1291(4) 0.4000(4)
C6 C 0.6552(4) 0.1254(4) 0.4945(4)
C7 C 0.6620(4) 0.2131(4) 0.5878(4)
C8 C 0.5753(4) 0.3399(4) 0.7910(4)
C9 C 0.6046(5) 0.4258(5) 0.9871(4)
C10 C 0.7520(4) 0.5444(4) 0.8561(3)
C11 C 0.8572(4) 0.5100(4) 0.9062(4)
C12 C 0.8923(4) 0.7124(4) 0.9975(3)
C13 C 0.9427(5) 0.8290(5) 1.0735(4)
C14 C 0.8849(6) 0.9129(5) 1.0703(4)
C15 C 0.7799(6) 0.8822(5) 0.9966(4)
C16 C 0.7284(5) 0.7649(4) 0.9219(4)
C17 C 0.7891(4) 0.6819(4) 0.9224(3)
C18 C 0.6423(7) 0.9629(6) 0.9237(6)
C19 C 0.7456(4) 0.5226(3) 0.7271(3)
C20 C 0.7438(5) 0.6435(4) 0.6909(3)
C21 C 0.8742(4) 0.7549(4) 0.6825(3)
C22 C 0.8677(4) 0.8633(4) 0.6619(3)
C23 C 0.9698(4) 0.9904(4) 0.6482(3)
C24 C 0.9310(4) 1.0898(4) 0.6453(3)
C25 C 1.0196(5) 1.2140(4) 0.6332(3)
C26 C 1.1489(5) 1.2396(4) 0.6253(3)
C27 C 1.1911(4) 1.1433(4) 0.6266(3)
C28 C 1.1019(5) 1.0203(4) 0.6379(3)
C29 C 0.9987(4) 0.7389(4) 0.6946(3)
C30 C 0.8666(4) 0.5099(4) 0.6835(3)
C31 C 1.1032(4) 0.6024(4) 0.7351(4)
C32 C 1.2081(5) 0.6948(5) 0.8226(4)
H1 H 0.7012(12) 0.2107(16) 0.6532(15)
H2 H 0.6894(12) 0.0646(15) 0.4962(16)
H3 H 0.5066(12) 0.2189(16) 0.3320(15)
H4 H 0.5181(12) 0.3644(15) 0.4877(16)
H5 H 0.632(4) 1.043(3) 0.934(3)
H6 H 0.676(3) 0.950(5) 0.8549(18)
H7 H 0.560(2) 0.891(3) 0.928(3)
H8 H 1.0139(16) 0.8501(18) 1.1246(13)
H9 H 0.9178(17) 0.9937(18) 1.1180(13)
H10 H 0.6555(16) 0.7419(18) 0.8731(13)
H11 H 0.9928(12) 0.6089(17) 1.0282(14)
H12 H 0.643(3) 0.506(2) 1.0410(18)
H13 H 0.647(3) 0.369(3) 0.995(2)
H14 H 0.5126(19) 0.381(3) 0.996(2)
H15 H 0.621(2) 0.286(2) 0.8025(18)
H16 H 0.4798(18) 0.289(2) 0.7893(19)
H17 H 0.548(2) 0.432(2) 0.6758(17)
H18 H 1.063(2) 0.8163(19) 0.7426(18)
H19 H 1.032(2) 0.731(2) 0.6222(16)
H20 H 1.287(2) 0.682(3) 0.813(2)
H21 H 1.179(3) 0.677(3) 0.8932(17)
H22 H 1.227(3) 0.783(2) 0.818(3)
H23 H 1.081(2) 0.5153(19) 0.748(2)
H24 H 1.135(2) 0.609(2) 0.6628(16)
H25 H 0.869(2) 0.4322(19) 0.7012(18)
H26 H 0.864(2) 0.505(2) 0.6041(15)
H27 H 0.7809(18) 0.8561(18) 0.6550(8)
H28 H 0.9901(19) 1.2771(18) 0.6308(8)
H29 H 0.8428(18) 1.0722(18) 0.6509(8)
H30 H 1.1326(19) 0.9555(18) 0.6382(8)
H31 H 1.2783(18) 1.1606(18) 0.6212(8)
loop_
_geom_bond_atom_site_label_1
_geom_bond_atom_site_label_2
_geom_bond_site_symmetry_1
_geom_bond_site_symmetry_2
N1 C8 1_555 1_555
N2 C11 1_555 1_555
N3 C29 1_555 1_555
O1 C15 1_555 1_555
O2 C11 1_555 1_555
O3 C20 1_555 1_555
Cl1 C5 1_555 1_555
Cl2 C26 1_555 1_555
C1 C2 1_555 1_555
C2 C3 1_555 1_555
C3 C4 1_555 1_555
C4 C5 1_555 1_555
C5 C6 1_555 1_555
C6 C7 1_555 1_555
C7 C2 1_555 1_555
C8 C1 1_555 1_555
C9 N1 1_555 1_555
C10 N1 1_555 1_555
C11 C10 1_555 1_555
C12 N2 1_555 1_555
C13 C12 1_555 1_555
C14 C13 1_555 1_555
C15 C14 1_555 1_555
C16 C15 1_555 1_555
C17 C10 1_555 1_555
C18 O1 1_555 1_555
C19 C1 1_555 1_555
C20 C19 1_555 1_555
C21 C20 1_555 1_555
C22 C21 1_555 1_555
C23 C22 1_555 1_555
C24 C23 1_555 1_555
C25 C24 1_555 1_555
C26 C25 1_555 1_555
C27 C26 1_555 1_555
C28 C23 1_555 1_555
C29 C21 1_555 1_555
C30 N3 1_555 1_555
C31 N3 1_555 1_555
C32 C31 1_555 1_555
H1 C7 1_555 1_555
H2 C6 1_555 1_555
H3 C4 1_555 1_555
H4 C3 1_555 1_555
H5 C18 1_555 1_555
H6 C18 1_555 1_555
H7 C18 1_555 1_555
H8 C13 1_555 1_555
H9 C14 1_555 1_555
H10 C16 1_555 1_555
H11 N2 1_555 1_555
H12 C9 1_555 1_555
H13 C9 1_555 1_555
H14 C9 1_555 1_555
H15 C8 1_555 1_555
H16 C8 1_555 1_555
H17 C1 1_555 1_555
H18 C29 1_555 1_555
H19 C29 1_555 1_555
H20 C32 1_555 1_555
H21 C32 1_555 1_555
H22 C32 1_555 1_555
H23 C31 1_555 1_555
H24 C31 1_555 1_555
H25 C30 1_555 1_555
H26 C30 1_555 1_555
H27 C22 1_555 1_555
H28 C25 1_555 1_555
H29 C24 1_555 1_555
H30 C28 1_555 1_555
H31 C27 1_555 1_555
C10 C19 1_555 1_555
C12 C17 1_555 1_555
C16 C17 1_555 1_555
C19 C30 1_555 1_555
C27 C28 1_555 1_555

#END
