
#######################################################################
#
#                 Cambridge Crystallographic Data Centre
#                                CCDC 
#
#######################################################################
#
# If this CIF has been generated from an entry in the Cambridge 
# Structural Database, then it will include bibliographic, chemical, 
# crystal, experimental, refinement or atomic coordinate data resulting 
# from the CCDC's data processing and validation procedures.
#
#######################################################################

data_HONHEZ
_chemical_formula_moiety         'C31 H29 Cl2 N3 O3'
_chemical_name_systematic        
5''-(4-chlorobenzylidene)-4'-(4-chlorophenyl)-5-methoxy-1',1''-dimethyl-4''H-dispiro[indole-3,2'-pyrrolidine-3',3''-piperidine]-2,4''(1H)-dione
_symmetry_cell_setting           triclinic
_symmetry_space_group_name_H-M   'P -1'
_symmetry_Int_Tables_number      2
_space_group_name_Hall           '-P 1'
loop_
_symmetry_equiv_pos_site_id
_symmetry_equiv_pos_as_xyz
1 x,y,z
2 -x,-y,-z
_cell_length_a                   11.2458(3)
_cell_length_b                   11.4467(3)
_cell_length_c                   12.4316(5)
_cell_angle_alpha                99.4249(12)
_cell_angle_beta                 90.0198(13)
_cell_angle_gamma                115.7973(19)
_cell_volume                     1416.72
_exptl_crystal_colour            yellow
_exptl_crystal_description       Prismatic
_chemical_melting_point          '507 K'
_cell_formula_units_Z            2
_exptl_crystal_recrystallization_method n-butanol
loop_
_atom_site_label
_atom_site_type_symbol
_atom_site_fract_x
_atom_site_fract_y
_atom_site_fract_z
Cl1 Cl 0.89185(14) 0.96221(13) 1.22843(12)
Cl2 Cl 0.23726(14) -0.40355(12) 0.87973(15)
N1 N 0.8828(3) 0.5540(4) 0.6210(3)
N2 N 0.5686(4) 0.3872(4) 0.5132(3)
N3 N 0.5206(3) 0.3766(3) 0.7648(3)
O1 O 0.7792(7) 0.0355(6) 0.4970(5)
O2 O 0.6306(3) 0.5927(3) 0.6158(3)
O3 O 0.8667(3) 0.3630(3) 0.8354(3)
C1 C 0.8918(4) 0.6115(4) 0.8085(4)
C2 C 0.8928(3) 0.7026(4) 0.9115(4)
C3 C 0.9443(4) 0.6948(4) 1.0105(4)
C4 C 0.9448(4) 0.7736(4) 1.1074(4)
C5 C 0.8936(4) 0.8625(4) 1.1065(4)
C6 C 0.8453(4) 0.8758(4) 1.0106(4)
C7 C 0.8447(4) 0.7966(4) 0.9140(4)
C8 C 0.9246(4) 0.6701(5) 0.7056(4)
C9 C 0.8948(6) 0.5801(6) 0.5094(5)
C10 C 0.7498(4) 0.4598(4) 0.6447(3)
C11 C 0.6413(4) 0.4887(5) 0.5933(4)
C12 C 0.6098(5) 0.2871(5) 0.5050(4)
C13 C 0.5609(6) 0.1697(6) 0.4298(4)
C14 C 0.6209(8) 0.0913(6) 0.4327(5)
C15 C 0.7264(7) 0.1229(6) 0.5062(6)
C16 C 0.7770(5) 0.2412(5) 0.5821(4)
C17 C 0.7152(5) 0.3228(4) 0.5814(4)
C18 C 0.8542(10) 0.0409(10) 0.5736(8)
C19 C 0.7588(4) 0.4839(4) 0.7735(3)
C20 C 0.7615(4) 0.3647(4) 0.8131(3)
C21 C 0.6322(4) 0.2495(4) 0.8218(3)
C22 C 0.6386(4) 0.1401(4) 0.8401(3)
C23 C 0.5360(4) 0.0099(4) 0.8517(3)
C24 C 0.5724(4) -0.0916(4) 0.8492(3)
C25 C 0.4830(5) -0.2177(5) 0.8576(3)
C26 C 0.3528(5) -0.2453(4) 0.8689(3)
C27 C 0.3118(4) -0.1475(4) 0.8741(3)
C28 C 0.4030(4) -0.0216(4) 0.8661(3)
C29 C 0.5054(4) 0.2631(4) 0.8118(4)
C30 C 0.6353(4) 0.4941(4) 0.8181(4)
C31 C 0.3985(4) 0.3929(5) 0.7687(5)
H1 H 0.8121(12) 0.8070(16) 0.8486(16)
H2 H 0.8135(12) 0.9391(15) 1.0100(17)
H3 H 0.9790(12) 0.7665(16) 1.1725(16)
H4 H 0.9797(12) 0.6352(15) 1.0127(16)
H5 H 0.987(2) 0.633(4) 0.500(2)
H6 H 0.844(4) 0.628(4) 0.498(2)
H7 H 0.861(4) 0.498(2) 0.458(2)
H8 H 0.3748(19) 0.0440(19) 0.8690(8)
H9 H 0.2232(19) -0.1677(19) 0.8826(8)
H10 H 0.510(2) -0.2835(19) 0.8576(8)
H11 H 0.6612(19) -0.072(2) 0.8415(8)
H12 H 0.7254(19) 0.1477(19) 0.8459(8)
H13 H 0.639(2) 0.500(2) 0.8976(16)
H14 H 0.632(2) 0.571(2) 0.799(2)
H15 H 0.327(2) 0.314(2) 0.729(3)
H16 H 0.377(3) 0.408(4) 0.8439(17)
H17 H 0.409(3) 0.466(3) 0.734(3)
H18 H 0.473(2) 0.267(2) 0.8840(16)
H19 H 0.440(2) 0.184(2) 0.7636(19)
H20 H 0.4890(17) 0.146(2) 0.3787(14)
H21 H 0.5894(19) 0.0113(18) 0.3831(14)
H22 H 0.850(6) -0.048(3) 0.563(4)
H23 H 0.943(3) 0.106(5) 0.568(4)
H24 H 0.821(5) 0.060(7) 0.6423(19)
H25 H 0.8490(16) 0.2646(19) 0.6324(13)
H26 H 0.504(3) 0.384(3) 0.473(3)
H27 H 1.0184(19) 0.725(2) 0.706(2)
H28 H 0.877(2) 0.722(2) 0.697(2)
H29 H 0.958(2) 0.582(2) 0.8223(18)
loop_
_geom_bond_atom_site_label_1
_geom_bond_atom_site_label_2
_geom_bond_site_symmetry_1
_geom_bond_site_symmetry_2
Cl1 C5 1_555 1_555
Cl2 C26 1_555 1_555
N1 C8 1_555 1_555
N2 C11 1_555 1_555
N3 C29 1_555 1_555
O1 C15 1_555 1_555
O2 C11 1_555 1_555
O3 C20 1_555 1_555
C1 C2 1_555 1_555
C2 C3 1_555 1_555
C3 C4 1_555 1_555
C4 C5 1_555 1_555
C5 C6 1_555 1_555
C6 C7 1_555 1_555
C7 C2 1_555 1_555
C8 C1 1_555 1_555
C9 N1 1_555 1_555
C10 N1 1_555 1_555
C11 C10 1_555 1_555
C12 N2 1_555 1_555
C13 C12 1_555 1_555
C14 C13 1_555 1_555
C15 C14 1_555 1_555
C16 C15 1_555 1_555
C17 C10 1_555 1_555
C18 O1 1_555 1_555
C19 C1 1_555 1_555
C20 C19 1_555 1_555
C21 C20 1_555 1_555
C22 C21 1_555 1_555
C23 C22 1_555 1_555
C24 C23 1_555 1_555
C25 C24 1_555 1_555
C26 C25 1_555 1_555
C27 C26 1_555 1_555
C28 C23 1_555 1_555
C29 C21 1_555 1_555
C30 N3 1_555 1_555
C31 N3 1_555 1_555
H1 C7 1_555 1_555
H2 C6 1_555 1_555
H3 C4 1_555 1_555
H4 C3 1_555 1_555
H5 C9 1_555 1_555
H6 C9 1_555 1_555
H7 C9 1_555 1_555
H8 C28 1_555 1_555
H9 C27 1_555 1_555
H10 C25 1_555 1_555
H11 C24 1_555 1_555
H12 C22 1_555 1_555
H13 C30 1_555 1_555
H14 C30 1_555 1_555
H15 C31 1_555 1_555
H16 C31 1_555 1_555
H17 C31 1_555 1_555
H18 C29 1_555 1_555
H19 C29 1_555 1_555
H20 C13 1_555 1_555
H21 C14 1_555 1_555
H22 C18 1_555 1_555
H23 C18 1_555 1_555
H24 C18 1_555 1_555
H25 C16 1_555 1_555
H26 N2 1_555 1_555
H27 C8 1_555 1_555
H28 C8 1_555 1_555
H29 C1 1_555 1_555
C10 C19 1_555 1_555
C12 C17 1_555 1_555
C16 C17 1_555 1_555
C19 C30 1_555 1_555
C27 C28 1_555 1_555

#END
