
#######################################################################
#
#                 Cambridge Crystallographic Data Centre
#                                CCDC 
#
#######################################################################
#
# If this CIF has been generated from an entry in the Cambridge 
# Structural Database, then it will include bibliographic, chemical, 
# crystal, experimental, refinement or atomic coordinate data resulting 
# from the CCDC's data processing and validation procedures.
#
#######################################################################

data_HONKIG
_chemical_formula_moiety         'C18 H18 O2'
_chemical_name_systematic        
'1,6-dimethyl-5-vinyl-9,10-dihydrophenanthrene-2,7-diol unknown solvate'
_symmetry_cell_setting           rhombohedral
_symmetry_space_group_name_H-M   'R -3'
_symmetry_Int_Tables_number      148
_space_group_name_Hall           '-R 3'
loop_
_symmetry_equiv_pos_site_id
_symmetry_equiv_pos_as_xyz
1 x,y,z
2 -y,x-y,z
3 -x+y,-x,z
4 2/3+x,1/3+y,1/3+z
5 2/3-y,1/3+x-y,1/3+z
6 2/3-x+y,1/3-x,1/3+z
7 1/3+x,2/3+y,2/3+z
8 1/3-y,2/3+x-y,2/3+z
9 1/3-x+y,2/3-x,2/3+z
10 -x,-y,-z
11 y,-x+y,-z
12 x-y,x,-z
13 1/3-x,2/3-y,2/3-z
14 1/3+y,2/3-x+y,2/3-z
15 1/3+x-y,2/3+x,2/3-z
16 2/3-x,1/3-y,1/3-z
17 2/3+y,1/3-x+y,1/3-z
18 2/3+x-y,1/3+x,1/3-z
_cell_length_a                   28.4310(14)
_cell_length_b                   28.4310(14)
_cell_length_c                   10.0536(5)
_cell_angle_alpha                90
_cell_angle_beta                 90
_cell_angle_gamma                120
_cell_volume                     7037.79
_cell_formula_units_Z            18
loop_
_atom_site_label
_atom_site_type_symbol
_atom_site_fract_x
_atom_site_fract_y
_atom_site_fract_z
O1 O 0.58063(9) 0.17217(8) 0.1544(2)
H1 H 0.6104 0.1832 0.1195
C1 C 0.51069(8) 0.00765(10) 0.24340(19)
O2 O 0.43877(9) -0.21010(8) 0.3876(2)
H2 H 0.4172 -0.2191 0.4496
C2 C 0.50624(10) 0.09118(11) 0.2414(2)
C3 C 0.56009(9) 0.03471(10) 0.1743(2)
C4 C 0.50517(9) -0.08181(10) 0.2058(2)
C5 C 0.46199(9) -0.07186(10) 0.4005(2)
H3 H 0.4539 -0.0506 0.4556
C6 C 0.49121(8) -0.04951(10) 0.2836(2)
C7 C 0.58596(10) 0.00204(11) 0.1308(3)
H4 H 0.6070 -0.0006 0.2034
H5 H 0.6103 0.0200 0.0568
C8 C 0.55739(10) 0.11722(11) 0.1815(2)
C9 C 0.48284(9) 0.03600(10) 0.2724(2)
C10 C 0.48699(10) -0.13610(11) 0.2383(2)
C11 C 0.58318(9) 0.08913(11) 0.1457(2)
H6 H 0.6164 0.1070 0.1019
C12 C 0.44490(10) -0.12465(12) 0.4357(2)
H7 H 0.4256 -0.1388 0.5142
C13 C 0.45647(10) -0.15685(11) 0.3543(3)
C14 C 0.54230(10) -0.05413(11) 0.0894(2)
H8 H 0.5216 -0.0516 0.0158
H9 H 0.5588 -0.0751 0.0604
C15 C 0.42651(12) 0.00507(13) 0.3261(3)
H10 H 0.4032 -0.0265 0.2801
C16 C 0.47806(13) 0.12381(12) 0.2631(3)
H11 H 0.4396 0.1006 0.2522
H12 H 0.4912 0.1528 0.1995
H13 H 0.4855 0.1386 0.3514
C17 C 0.49877(14) -0.17234(13) 0.1525(3)
H14 H 0.4904 -0.1692 0.0616
H15 H 0.4769 -0.2093 0.1813
H16 H 0.5365 -0.1616 0.1600
C18 C 0.40527(14) 0.01575(16) 0.4273(4)
H17 H 0.4262 0.0467 0.4779
H18 H 0.3691 -0.0076 0.4493
loop_
_geom_bond_atom_site_label_1
_geom_bond_atom_site_label_2
_geom_bond_site_symmetry_1
_geom_bond_site_symmetry_2
O1 H1 1_555 1_555
C1 C3 1_555 1_555
O2 H2 1_555 1_555
C2 C8 1_555 1_555
C3 C7 1_555 1_555
C4 C6 1_555 1_555
C5 H3 1_555 1_555
C6 C1 1_555 1_555
C7 H4 1_555 1_555
H5 C7 1_555 1_555
C8 O1 1_555 1_555
C9 C1 1_555 1_555
C10 C4 1_555 1_555
C11 C3 1_555 1_555
H6 C11 1_555 1_555
C12 C5 1_555 1_555
H7 C12 1_555 1_555
C13 O2 1_555 1_555
C14 C4 1_555 1_555
H8 C14 1_555 1_555
H9 C14 1_555 1_555
C15 C9 1_555 1_555
H10 C15 1_555 1_555
C16 C2 1_555 1_555
H11 C16 1_555 1_555
H12 C16 1_555 1_555
H13 C16 1_555 1_555
C17 C10 1_555 1_555
H14 C17 1_555 1_555
H15 C17 1_555 1_555
H16 C17 1_555 1_555
C18 C15 1_555 1_555
H17 C18 1_555 1_555
H18 C18 1_555 1_555
C2 C9 1_555 1_555
C5 C6 1_555 1_555
C7 C14 1_555 1_555
C8 C11 1_555 1_555
C10 C13 1_555 1_555
C12 C13 1_555 1_555

#END
