
#######################################################################
#
#                 Cambridge Crystallographic Data Centre
#                                CCDC 
#
#######################################################################
#
# If this CIF has been generated from an entry in the Cambridge 
# Structural Database, then it will include bibliographic, chemical, 
# crystal, experimental, refinement or atomic coordinate data resulting 
# from the CCDC's data processing and validation procedures.
#
#######################################################################

data_HONNON
_chemical_formula_moiety         'C12 H28 Si4'
_chemical_name_systematic        
trans,trans-1,1,2,2,5,5,6,6-Octamethyl-1,2,5,6-tetrasilacyclo-octa-3,7-diene
_symmetry_cell_setting           monoclinic
_symmetry_space_group_name_H-M   'P 21/n'
_symmetry_Int_Tables_number      14
_space_group_name_Hall           '-P 2yn'
loop_
_symmetry_equiv_pos_site_id
_symmetry_equiv_pos_as_xyz
1 x,y,z
2 1/2-x,1/2+y,1/2-z
3 -x,-y,-z
4 1/2+x,1/2-y,1/2+z
_cell_length_a                   7.627(2)
_cell_length_b                   6.960(1)
_cell_length_c                   17.427(4)
_cell_angle_alpha                90
_cell_angle_beta                 91.67(2)
_cell_angle_gamma                90
_cell_volume                     924.701
_exptl_crystal_colour            white
_exptl_crystal_description       platelets
_chemical_melting_point          '83-85 deg.C'
_cell_formula_units_Z            2
_exptl_crystal_recrystallization_method ethanol
loop_
_atom_site_label
_atom_site_type_symbol
_atom_site_fract_x
_atom_site_fract_y
_atom_site_fract_z
Si1 Si 0.5565(1) 0.7250(1) 0.3874(1)
Si2 Si 0.2589(1) 0.6428(1) 0.4093(1)
C1 C 0.6726(3) 0.6396(3) 0.4770(1)
C2 C 0.5878(3) 0.9907(3) 0.3775(1)
C3 C 0.6403(3) 0.5987(3) 0.3006(1)
C4 C 0.2711(3) 0.5364(3) 0.5081(1)
C5 C 0.1109(3) 0.8585(3) 0.4060(1)
C6 C 0.1815(3) 0.4592(4) 0.3371(1)
H1 H 0.6612(31) 0.7085(37) 0.5203(14)
H2 H 0.5258 1.0366 0.3295
H3 H 0.7158 1.0201 0.3747
H4 H 0.5385 1.0574 0.4229
H5 H 0.6231 0.4571 0.3063
H6 H 0.7680 0.6270 0.2956
H7 H 0.5743 0.6449 0.2537
H8 H 0.2700(33) 0.6097(37) 0.5485(14)
H9 H 0.1536 0.9551 0.4447
H10 H -0.0112 0.8184 0.4180
H11 H 0.1115 0.9168 0.3536
H12 H 0.2613 0.3453 0.3394
H13 H 0.1823 0.5165 0.2845
H14 H 0.0596 0.4181 0.3489
C1B C 0.3274(3) 0.3604(3) 0.5230(1)
Si1B Si 0.4435(1) 0.2750(1) 0.6126(1)
Si2B Si 0.7411(1) 0.3572(1) 0.5907(1)
C4B C 0.7289(3) 0.4636(3) 0.4919(1)
H8B H 0.7300(33) 0.3903(37) 0.4515(14)
C5B C 0.8891(3) 0.1415(3) 0.5940(1)
H9B H 0.8464 0.0449 0.5553
H10B H 1.0112 0.1816 0.5820
H11B H 0.8885 0.0832 0.6464
C6B C 0.8185(3) 0.5408(4) 0.6629(1)
H12B H 0.7387 0.6547 0.6606
H13B H 0.8177 0.4835 0.7155
H14B H 0.9404 0.5819 0.6511
C2B C 0.4122(3) 0.0093(3) 0.6225(1)
H2B H 0.4742 -0.0366 0.6705
H3B H 0.2842 -0.0201 0.6253
H4B H 0.4615 -0.0574 0.5771
C3B C 0.3597(3) 0.4013(3) 0.6994(1)
H5B H 0.3769 0.5429 0.6937
H6B H 0.2320 0.3730 0.7044
H7B H 0.4257 0.3551 0.7463
H1B H 0.3388(31) 0.2915(37) 0.4797(14)
loop_
_geom_bond_atom_site_label_1
_geom_bond_atom_site_label_2
_geom_bond_site_symmetry_1
_geom_bond_site_symmetry_2
Si1 Si2 1_555 1_555
Si2 C4 1_555 1_555
C1 Si1 1_555 1_555
C2 Si1 1_555 1_555
C3 Si1 1_555 1_555
C4 H8 1_555 1_555
C5 Si2 1_555 1_555
C6 Si2 1_555 1_555
H1 C1 1_555 1_555
H2 C2 1_555 1_555
H3 C2 1_555 1_555
H4 C2 1_555 1_555
H5 C3 1_555 1_555
H6 C3 1_555 1_555
H7 C3 1_555 1_555
H9 C5 1_555 1_555
H10 C5 1_555 1_555
H11 C5 1_555 1_555
H12 C6 1_555 1_555
H13 C6 1_555 1_555
H14 C6 1_555 1_555
C1B C4 1_555 1_555
Si1B C1B 1_555 1_555
Si2B Si1B 1_555 1_555
C4B C1 1_555 1_555
H8B C4B 1_555 1_555
C5B Si2B 1_555 1_555
H9B C5B 1_555 1_555
H10B C5B 1_555 1_555
H11B C5B 1_555 1_555
C6B Si2B 1_555 1_555
H12B C6B 1_555 1_555
H13B C6B 1_555 1_555
H14B C6B 1_555 1_555
C2B Si1B 1_555 1_555
H2B C2B 1_555 1_555
H3B C2B 1_555 1_555
H4B C2B 1_555 1_555
C3B Si1B 1_555 1_555
H5B C3B 1_555 1_555
H6B C3B 1_555 1_555
H7B C3B 1_555 1_555
H1B C1B 1_555 1_555
Si2B C4B 1_555 1_555

#END
