
#######################################################################
#
#                 Cambridge Crystallographic Data Centre
#                                CCDC 
#
#######################################################################
#
# If this CIF has been generated from an entry in the Cambridge 
# Structural Database, then it will include bibliographic, chemical, 
# crystal, experimental, refinement or atomic coordinate data resulting 
# from the CCDC's data processing and validation procedures.
#
#######################################################################

data_HONYOA
_chemical_compound_source        'stems of Ficus auriculata'
_chemical_name_common            (3R,6S)-6-Hydroxylasiodiplodin
_chemical_formula_moiety         'C17 H24 O5'
_chemical_name_systematic        
6,12-Dihydroxy-14-methoxy-3-methyl-3,4,5,6,7,8,9,10-octahydro-1H-2-benzoxacyclododecin-1-one
_symmetry_cell_setting           orthorhombic
_symmetry_space_group_name_H-M   'P 21 21 21'
_symmetry_Int_Tables_number      19
_space_group_name_Hall           'P 2ac 2ab'
loop_
_symmetry_equiv_pos_site_id
_symmetry_equiv_pos_as_xyz
1 x,y,z
2 1/2-x,-y,1/2+z
3 1/2+x,1/2-y,-z
4 -x,1/2+y,1/2-z
_cell_length_a                   7.95092(5)
_cell_length_b                   12.06551(7)
_cell_length_c                   16.92045(9)
_cell_angle_alpha                90
_cell_angle_beta                 90
_cell_angle_gamma                90
_cell_volume                     1623.21
_cell_formula_units_Z            4
loop_
_atom_site_label
_atom_site_type_symbol
_atom_site_fract_x
_atom_site_fract_y
_atom_site_fract_z
O1 O 0.55173(9) 0.49523(6) 0.51380(4)
O2 O 1.04730(10) 0.81749(6) 0.69708(5)
H1 H 1.0257 0.8255 0.7453
O3 O 0.03813(9) 0.34635(6) 0.65034(4)
H2 H -0.0509 0.3515 0.6239
O4 O 0.84369(10) 0.62040(7) 0.47176(4)
O5 O 0.72465(10) 0.37372(6) 0.57314(5)
C1 C 0.94700(14) 0.73717(9) 0.66647(6)
C2 C 0.67882(13) 0.46851(9) 0.56111(6)
C3 C 0.94596(14) 0.72571(9) 0.58419(7)
H3 H 1.0090 0.7747 0.5517
C4 C 0.76061(13) 0.58005(9) 0.68110(6)
C5 C 0.85099(13) 0.64129(9) 0.55105(6)
C6 C 0.75965(13) 0.56705(9) 0.59890(6)
C7 C 0.85256(13) 0.66697(9) 0.71396(6)
H4 H 0.8506 0.6783 0.7695
C8 C 0.46120(14) 0.40391(9) 0.47419(6)
H5 H 0.5414 0.3422 0.4624
C9 C 0.66710(13) 0.50451(9) 0.73763(6)
H6 H 0.7418 0.4856 0.7824
H7 H 0.6379 0.4348 0.7100
C10 C 0.13715(14) 0.44609(9) 0.64015(6)
H8 H 0.0620 0.5111 0.6501
C11 C 0.36199(14) 0.55845(10) 0.70976(6)
H9 H 0.2786 0.6154 0.7253
H10 H 0.4072 0.5792 0.6573
C12 C 0.50538(14) 0.55798(9) 0.76979(6)
H11 H 0.4688 0.5171 0.8175
H12 H 0.5301 0.6352 0.7857
C13 C 0.27401(14) 0.44636(9) 0.70336(6)
H13 H 0.3583 0.3887 0.6906
H14 H 0.2233 0.4275 0.7551
C14 C 0.20082(14) 0.45419(10) 0.55513(6)
H15 H 0.2564 0.5269 0.5482
H16 H 0.1027 0.4522 0.5191
C15 C 0.92781(18) 0.69605(10) 0.42049(7)
H17 H 0.9028 0.6770 0.3654
H18 H 1.0494 0.6915 0.4294
H19 H 0.8891 0.7716 0.4314
C16 C 0.32480(14) 0.36272(9) 0.52998(7)
H20 H 0.3785 0.3313 0.5778
H21 H 0.2614 0.3024 0.5037
C17 C 0.39582(15) 0.45197(11) 0.39774(7)
H22 H 0.3176 0.5126 0.4094
H23 H 0.3372 0.3942 0.3678
H24 H 0.4902 0.4803 0.3665
loop_
_geom_bond_atom_site_label_1
_geom_bond_atom_site_label_2
_geom_bond_site_symmetry_1
_geom_bond_site_symmetry_2
O1 C2 1_555 1_555
O2 H1 1_555 1_555
O3 H2 1_555 1_555
O4 C5 1_555 1_555
O5 C2 1_555 1_555
C1 O2 1_555 1_555
C2 C6 1_555 1_555
C3 C1 1_555 1_555
H3 C3 1_555 1_555
C4 C6 1_555 1_555
C5 C3 1_555 1_555
C6 C5 1_555 1_555
C7 C1 1_555 1_555
H4 C7 1_555 1_555
C8 O1 1_555 1_555
H5 C8 1_555 1_555
C9 C4 1_555 1_555
H6 C9 1_555 1_555
H7 C9 1_555 1_555
C10 O3 1_555 1_555
H8 C10 1_555 1_555
C11 H9 1_555 1_555
H10 C11 1_555 1_555
C12 C9 1_555 1_555
H11 C12 1_555 1_555
H12 C12 1_555 1_555
C13 C10 1_555 1_555
H13 C13 1_555 1_555
H14 C13 1_555 1_555
C14 C10 1_555 1_555
H15 C14 1_555 1_555
H16 C14 1_555 1_555
C15 O4 1_555 1_555
H17 C15 1_555 1_555
H18 C15 1_555 1_555
H19 C15 1_555 1_555
C16 C8 1_555 1_555
H20 C16 1_555 1_555
H21 C16 1_555 1_555
C17 C8 1_555 1_555
H22 C17 1_555 1_555
H23 C17 1_555 1_555
H24 C17 1_555 1_555
C4 C7 1_555 1_555
C11 C12 1_555 1_555
C11 C13 1_555 1_555
C14 C16 1_555 1_555

#END
