
#######################################################################
#
#                 Cambridge Crystallographic Data Centre
#                                CCDC 
#
#######################################################################
#
# If this CIF has been generated from an entry in the Cambridge 
# Structural Database, then it will include bibliographic, chemical, 
# crystal, experimental, refinement or atomic coordinate data resulting 
# from the CCDC's data processing and validation procedures.
#
#######################################################################

data_HONZER
_chemical_formula_moiety         'C12 H12 N2 O3'
_chemical_name_systematic        
3-(1-(2-Phenylhydrazino)ethylidene)furan-2,4(3H,5H)-dione
_symmetry_cell_setting           triclinic
_symmetry_space_group_name_H-M   'P -1'
_symmetry_Int_Tables_number      2
_space_group_name_Hall           '-P 1'
loop_
_symmetry_equiv_pos_site_id
_symmetry_equiv_pos_as_xyz
1 x,y,z
2 -x,-y,-z
_cell_length_a                   10.417(3)
_cell_length_b                   10.934(4)
_cell_length_c                   12.042(4)
_cell_angle_alpha                63.021(4)
_cell_angle_beta                 65.410(4)
_cell_angle_gamma                74.782(4)
_cell_volume                     1106.85
_exptl_crystal_colour            brown
_exptl_crystal_description       parallelepiped
_chemical_melting_point          '433.8-434.9 K'
_cell_formula_units_Z            4
_exptl_crystal_recrystallization_method 'acetone/petroleum ether'
loop_
_atom_site_label
_atom_site_type_symbol
_atom_site_fract_x
_atom_site_fract_y
_atom_site_fract_z
H1 H 1.098(2) 0.150(2) 0.468(2)
N1 N 1.03943(17) 0.22481(19) 0.43490(17)
O1 O 1.0337(2) 0.2982(3) -0.03666(18)
H2 H 0.898(2) 0.131(2) 0.438(2)
N2 N 0.96587(17) 0.18783(17) 0.38185(16)
O2 O 0.78116(16) 0.02270(15) 0.40437(16)
C1 C 0.8579(12) 0.1188(18) 0.0763(13)
H3 H 0.7900 0.1743 0.0325
H4 H 0.9142 0.0554 0.0342
C2 C 1.00081(19) 0.2305(2) 0.25221(19)
C3 C 0.8340(2) 0.0801(2) 0.2821(2)
C4 C 0.95626(19) 0.29170(19) 0.52221(18)
C5 C 0.9347(2) 0.1793(2) 0.2033(2)
C6 C 0.8268(2) 0.3627(2) 0.5186(2)
H5 H 0.7901 0.3661 0.4588
C7 C 1.0121(3) 0.2914(2) 0.6088(2)
H6 H 1.1006 0.2453 0.6102
C8 C 0.9589(3) 0.2164(3) 0.0653(3)
O3 O 0.7838(7) 0.0425(7) 0.2181(8)
C9 C 0.8062(3) 0.4267(3) 0.6917(3)
H7 H 0.7549 0.4708 0.7497
C10 C 1.1093(3) 0.3313(3) 0.1621(2)
H8 H 1.1292 0.3662 0.2129
H9 H 1.0741 0.4061 0.0968
H10 H 1.1947 0.2865 0.1186
C11 C 0.9370(3) 0.3589(3) 0.6925(2)
H11 H 0.9752 0.3585 0.7500
C12 C 0.7511(3) 0.4292(3) 0.6044(3)
H12 H 0.6627 0.4757 0.6031
H15 H 0.613(3) 0.896(3) 0.450(2)
N3 N 0.57130(18) 0.8217(2) 0.47808(18)
H16 H 0.401(3) 0.900(3) 0.420(2)
N4 N 0.48569(18) 0.85420(18) 0.40229(16)
O5 O 0.56873(19) 0.77621(19) 0.05016(16)
O6 O 0.24114(15) 0.98059(16) 0.34169(15)
O7 O 0.35671(19) 0.89218(18) 0.06351(16)
C14 C 0.50843(19) 0.74958(19) 0.61566(19)
C15 C 0.52795(19) 0.82001(19) 0.29939(18)
C16 C 0.3056(2) 0.9377(2) 0.25160(19)
C17 C 0.4393(2) 0.86252(19) 0.22498(18)
C18 C 0.4116(2) 0.6548(2) 0.6670(2)
H17 H 0.3833 0.6412 0.6100
C19 C 0.4679(2) 0.8351(2) 0.1091(2)
C20 C 0.5512(2) 0.7682(2) 0.7017(2)
H18 H 0.6173 0.8304 0.6684
C21 C 0.2485(2) 0.9579(2) 0.1497(2)
H19 H 0.1603 0.9155 0.1911
H20 H 0.2311 1.0553 0.0990
C22 C 0.4947(3) 0.6937(3) 0.8374(2)
H21 H 0.5222 0.7071 0.8950
C23 C 0.3569(3) 0.5807(2) 0.8022(2)
H22 H 0.2919 0.5174 0.8359
C24 C 0.6661(3) 0.7365(3) 0.2686(3)
H23 H 0.7394 0.7967 0.2057
H24 H 0.6604 0.6774 0.2316
H25 H 0.6874 0.6815 0.3486
C25 C 0.3985(3) 0.6001(3) 0.8876(2)
H26 H 0.3615 0.5501 0.9786
C13? C 0.8183(19) 0.0604(15) 0.1632(18)
H13? H 0.8502 -0.0336 0.1700
H14? H 0.7196 0.0781 0.1700
O4? O 0.9000(16) 0.1521(14) 0.0406(14)
loop_
_geom_bond_atom_site_label_1
_geom_bond_atom_site_label_2
_geom_bond_site_symmetry_1
_geom_bond_site_symmetry_2
H1 N1 1_555 1_555
N1 N2 1_555 1_555
O1 C8 1_555 1_555
H2 N2 1_555 1_555
N2 C2 1_555 1_555
O2 C3 1_555 1_555
C1 H3 1_555 1_555
H4 C1 1_555 1_555
C2 C5 1_555 1_555
C3 C5 1_555 1_555
C4 N1 1_555 1_555
C5 C8 1_555 1_555
C6 C4 1_555 1_555
H5 C6 1_555 1_555
C7 C4 1_555 1_555
H6 C7 1_555 1_555
C8 C1 1_555 1_555
O3 C1 1_555 1_555
C9 H7 1_555 1_555
C10 C2 1_555 1_555
H8 C10 1_555 1_555
H9 C10 1_555 1_555
H10 C10 1_555 1_555
C11 C7 1_555 1_555
H11 C11 1_555 1_555
C12 C6 1_555 1_555
H12 C12 1_555 1_555
H15 N3 1_555 1_555
N3 N4 1_555 1_555
H16 N4 1_555 1_555
N4 C15 1_555 1_555
O5 C19 1_555 1_555
O6 C16 1_555 1_555
O7 C19 1_555 1_555
C14 N3 1_555 1_555
C15 C17 1_555 1_555
C16 C17 1_555 1_555
C17 C19 1_555 1_555
C18 C14 1_555 1_555
H17 C18 1_555 1_555
C20 C14 1_555 1_555
H18 C20 1_555 1_555
C21 O7 1_555 1_555
H19 C21 1_555 1_555
H20 C21 1_555 1_555
C22 C20 1_555 1_555
H21 C22 1_555 1_555
C23 C18 1_555 1_555
H22 C23 1_555 1_555
C24 C15 1_555 1_555
H23 C24 1_555 1_555
H24 C24 1_555 1_555
H25 C24 1_555 1_555
C25 C22 1_555 1_555
H26 C25 1_555 1_555
C3 O3 1_555 1_555
C9 C11 1_555 1_555
C9 C12 1_555 1_555
C16 C21 1_555 1_555
C23 C25 1_555 1_555

#END
