
#######################################################################
#
#                 Cambridge Crystallographic Data Centre
#                                CCDC 
#
#######################################################################
#
# If this CIF has been generated from an entry in the Cambridge 
# Structural Database, then it will include bibliographic, chemical, 
# crystal, experimental, refinement or atomic coordinate data resulting 
# from the CCDC's data processing and validation procedures.
#
#######################################################################

data_HONZAN
_chemical_name_common            
'(3S)-3-Methyl-1-(2-naphthyl)-1,4-diazepan-2-one hydrochloride'
_chemical_formula_moiety         'C16 H19 N2 O1 1+,H2 O1,Cl1 1-'
_chemical_name_systematic        
'(S)-2-Methyl-4-(2-naphthyl)-3-oxo-1,4-diazepan-1-ium chloride hydrate'
_chemical_properties_biological  'antidepressant-like activity'
_symmetry_cell_setting           orthorhombic
_symmetry_space_group_name_H-M   'P 21 21 21'
_symmetry_Int_Tables_number      19
_space_group_name_Hall           'P 2ac 2ab'
loop_
_symmetry_equiv_pos_site_id
_symmetry_equiv_pos_as_xyz
1 x,y,z
2 1/2+x,1/2-y,-z
3 -x,1/2+y,1/2-z
4 1/2-x,-y,1/2+z
_cell_length_a                   6.76760(12)
_cell_length_b                   7.39916(13)
_cell_length_c                   32.0593(6)
_cell_angle_alpha                90
_cell_angle_beta                 90
_cell_angle_gamma                90
_cell_volume                     1605.36
_exptl_crystal_colour            colorless
_exptl_crystal_description       platelet
_cell_formula_units_Z            4
loop_
_atom_site_label
_atom_site_type_symbol
_atom_site_fract_x
_atom_site_fract_y
_atom_site_fract_z
N1 N 0.5600(3) 0.6533(3) 0.45616(5)
C1 C 0.5328(4) 0.4864(3) 0.43012(6)
C2 C 0.4100(3) 0.5323(3) 0.39107(6)
N2 N 0.4958(3) 0.6391(3) 0.36221(5)
C3 C 0.6966(4) 0.7151(3) 0.36672(6)
C4 C 0.7103(4) 0.8534(3) 0.40173(6)
C5 C 0.7300(3) 0.7711(3) 0.44467(6)
C6 C 0.4341(4) 0.3440(3) 0.45652(7)
O1 O 0.2430(2) 0.4713(2) 0.38657(4)
C7 C 0.3829(3) 0.6939(3) 0.32609(6)
C8 C 0.2105(4) 0.7971(3) 0.33157(6)
C9 C 0.1059(3) 0.8527(3) 0.29750(6)
C10 C 0.1660(3) 0.8067(3) 0.25654(6)
C11 C 0.0565(4) 0.8574(3) 0.22062(6)
C12 C 0.1198(4) 0.8119(3) 0.18174(6)
C13 C 0.2994(4) 0.7174(3) 0.17643(6)
C14 C 0.4082(4) 0.6656(3) 0.21013(6)
C15 C 0.3440(3) 0.7075(3) 0.25140(6)
C16 C 0.4500(3) 0.6508(3) 0.28724(6)
H1 H 0.4463 0.7210 0.4545
H2 H 0.5751 0.6186 0.4835
H3 H 0.6654 0.4411 0.4212
H4 H 0.7358 0.7731 0.3402
H5 H 0.7908 0.6157 0.3723
H6 H 0.8257 0.9325 0.3965
H7 H 0.5905 0.9302 0.4011
H8 H 0.8530 0.6988 0.4458
H9 H 0.7417 0.8694 0.4655
H10 H 0.3071 0.3899 0.4667
H11 H 0.5191 0.3143 0.4803
H12 H 0.4119 0.2352 0.4397
H13 H 0.1669 0.8280 0.3588
H14 H -0.0096 0.9238 0.3013
H15 H -0.0626 0.9240 0.2238
H16 H 0.0429 0.8437 0.1581
H17 H 0.3447 0.6897 0.1491
H18 H 0.5279 0.6009 0.2061
H19 H 0.5680 0.5827 0.2842
Cl1 Cl 0.19814(7) 0.90655(6) 0.452712(14)
O2 O -0.0531(3) 0.2735(3) 0.42736(5)
H20 H 0.0041 0.1694 0.4381
H21 H 0.0483 0.3425 0.4131
loop_
_geom_bond_atom_site_label_1
_geom_bond_atom_site_label_2
_geom_bond_site_symmetry_1
_geom_bond_site_symmetry_2
N1 C1 1_555 1_555
C1 C2 1_555 1_555
C2 N2 1_555 1_555
N2 C3 1_555 1_555
C3 C4 1_555 1_555
C4 C5 1_555 1_555
C5 N1 1_555 1_555
C6 C1 1_555 1_555
O1 C2 1_555 1_555
C7 N2 1_555 1_555
C8 C7 1_555 1_555
C9 C8 1_555 1_555
C10 C9 1_555 1_555
C11 C10 1_555 1_555
C12 C11 1_555 1_555
C13 C12 1_555 1_555
C14 C13 1_555 1_555
C15 C10 1_555 1_555
C16 C7 1_555 1_555
H1 N1 1_555 1_555
H2 N1 1_555 1_555
H3 C1 1_555 1_555
H4 C3 1_555 1_555
H5 C3 1_555 1_555
H6 C4 1_555 1_555
H7 C4 1_555 1_555
H8 C5 1_555 1_555
H9 C5 1_555 1_555
H10 C6 1_555 1_555
H11 C6 1_555 1_555
H12 C6 1_555 1_555
H13 C8 1_555 1_555
H14 C9 1_555 1_555
H15 C11 1_555 1_555
H16 C12 1_555 1_555
H17 C13 1_555 1_555
H18 C14 1_555 1_555
H19 C16 1_555 1_555
O2 H20 1_555 1_555
H21 O2 1_555 1_555
C14 C15 1_555 1_555
C15 C16 1_555 1_555

#END
