
#######################################################################
#
#                 Cambridge Crystallographic Data Centre
#                                CCDC 
#
#######################################################################
#
# If this CIF has been generated from an entry in the Cambridge 
# Structural Database, then it will include bibliographic, chemical, 
# crystal, experimental, refinement or atomic coordinate data resulting 
# from the CCDC's data processing and validation procedures.
#
#######################################################################

data_HOPCIZ
_chemical_formula_moiety         'C21 H26 N3 O2 1+,C2 H6 O1,Br1 1-'
_chemical_name_systematic        
'2-(9-Hydroxycinchonan-1-ium-1-yl)acetamide bromide ethanol solvate'
_symmetry_cell_setting           orthorhombic
_symmetry_space_group_name_H-M   'P 21 21 2'
_symmetry_Int_Tables_number      18
_space_group_name_Hall           'P 2 2ab'
loop_
_symmetry_equiv_pos_site_id
_symmetry_equiv_pos_as_xyz
1 x,y,z
2 -x,-y,z
3 1/2-x,1/2+y,-z
4 1/2+x,1/2-y,-z
_cell_length_a                   10.5022(10)
_cell_length_b                   28.190(3)
_cell_length_c                   8.7954(8)
_cell_angle_alpha                90
_cell_angle_beta                 90
_cell_angle_gamma                90
_cell_volume                     2603.94
_exptl_crystal_colour            yellow
_exptl_crystal_description       block
_chemical_melting_point          '180-183 deg.C'
_cell_formula_units_Z            4
loop_
_atom_site_label
_atom_site_type_symbol
_atom_site_fract_x
_atom_site_fract_y
_atom_site_fract_z
Br1 Br 0.6106(5) 0.79837(18) 0.3466(7)
N1 N 0.672(4) 0.6687(14) 0.562(4)
N2 N 0.840(5) 0.4826(18) 0.966(6)
N3 N 0.957(5) 0.6475(18) 0.336(6)
H1 H 0.9941 0.6279 0.2757
H2 H 0.9999 0.6699 0.3782
O1 O 0.858(4) 0.6533(12) 0.812(4)
H3 H 0.9308 0.6617 0.7943
O2 O 0.770(4) 0.6122(17) 0.308(5)
C1 C 0.689(4) 0.6223(15) 0.654(6)
H4 H 0.6715 0.5959 0.5846
C2 C 0.586(6) 0.621(2) 0.776(7)
H5 H 0.5565 0.5892 0.7910
H6 H 0.6211 0.6327 0.8717
C3 C 0.476(6) 0.653(2) 0.728(8)
H7 H 0.4012 0.6463 0.7916
C4 C 0.445(6) 0.643(3) 0.563(8)
H8 H 0.3649 0.6577 0.5352
H9 H 0.4370 0.6089 0.5468
C5 C 0.555(5) 0.663(2) 0.464(7)
H10 H 0.5724 0.6416 0.3803
H11 H 0.5299 0.6935 0.4222
C6 C 0.513(6) 0.705(2) 0.742(7)
H12 H 0.4518 0.7238 0.6837
C7 C 0.643(5) 0.7108(16) 0.670(7)
H13 H 0.7071 0.7123 0.7488
H14 H 0.6451 0.7403 0.6133
C8 C 0.517(9) 0.725(3) 0.904(8)
H15 H 0.5864 0.7167 0.9643
C9 C 0.432(15) 0.751(4) 0.961(14)
H16 H 0.3611 0.7591 0.9030
H17 H 0.4399 0.7614 1.0601
C10 C 0.782(5) 0.6821(18) 0.467(5)
H18 H 0.8493 0.6930 0.5330
H19 H 0.7567 0.7086 0.4032
C11 C 0.835(6) 0.6432(19) 0.364(6)
C12 C 0.825(5) 0.6150(16) 0.715(5)
H20 H 0.8845 0.6141 0.6291
C13 C 0.839(7) 0.525(2) 1.034(7)
H21 H 0.8415 0.5260 1.1394
C14 C 0.835(6) 0.568(2) 0.955(6)
H22 H 0.8354 0.5965 1.0084
C15 C 0.831(5) 0.5682(17) 0.800(5)
C16 C 0.832(5) 0.5236(17) 0.721(6)
C17 C 0.837(5) 0.4817(19) 0.811(6)
C18 C 0.841(6) 0.437(2) 0.736(8)
H23 H 0.8458 0.4094 0.7944
C19 C 0.837(6) 0.434(2) 0.584(8)
H24 H 0.8351 0.4041 0.5374
C20 C 0.835(6) 0.475(2) 0.497(7)
H25 H 0.8352 0.4724 0.3918
C21 C 0.832(6) 0.519(2) 0.563(6)
H26 H 0.8302 0.5458 0.5021
O3 O 0.141(5) 0.5963(18) 0.157(6)
C22 C 0.26(3) 0.610(7) 0.17(4)
H27 H 0.3060 0.6021 0.0780
H28 H 0.2998 0.5924 0.2530
C23 C 0.28(2) 0.662(7) 0.20(2)
H29 H 0.3661 0.6700 0.2061
H30 H 0.2375 0.6703 0.2966
H31 H 0.2378 0.6804 0.1213
H32 H 0.13(5) 0.572(12) 0.10(5)
C24? C 0.232(16) 0.631(6) 0.103(19)
C25? C 0.36(2) 0.611(14) 0.14(4)
H33? H 0.2181 0.6614 0.1533
H34? H 0.2233 0.6357 -0.0058
H35? H 0.4270 0.6326 0.1084
H36? H 0.3731 0.5810 0.0934
H37? H 0.3687 0.6071 0.2506
loop_
_geom_bond_atom_site_label_1
_geom_bond_atom_site_label_2
_geom_bond_site_symmetry_1
_geom_bond_site_symmetry_2
N1 C1 1_555 1_555
N2 C13 1_555 1_555
N3 H1 1_555 1_555
H2 N3 1_555 1_555
O1 H3 1_555 1_555
O2 C11 1_555 1_555
C1 H4 1_555 1_555
C2 C1 1_555 1_555
H5 C2 1_555 1_555
H6 C2 1_555 1_555
C3 C2 1_555 1_555
H7 C3 1_555 1_555
C4 C3 1_555 1_555
H8 C4 1_555 1_555
H9 C4 1_555 1_555
C5 N1 1_555 1_555
H10 C5 1_555 1_555
H11 C5 1_555 1_555
C6 C3 1_555 1_555
H12 C6 1_555 1_555
C7 N1 1_555 1_555
H13 C7 1_555 1_555
H14 C7 1_555 1_555
C8 C6 1_555 1_555
H15 C8 1_555 1_555
C9 C8 1_555 1_555
H16 C9 1_555 1_555
H17 C9 1_555 1_555
C10 N1 1_555 1_555
H18 C10 1_555 1_555
H19 C10 1_555 1_555
C11 N3 1_555 1_555
C12 O1 1_555 1_555
H20 C12 1_555 1_555
C13 H21 1_555 1_555
C14 C13 1_555 1_555
H22 C14 1_555 1_555
C15 C12 1_555 1_555
C16 C15 1_555 1_555
C17 N2 1_555 1_555
C18 C17 1_555 1_555
H23 C18 1_555 1_555
C19 C18 1_555 1_555
H24 C19 1_555 1_555
C20 C19 1_555 1_555
H25 C20 1_555 1_555
C21 C16 1_555 1_555
H26 C21 1_555 1_555
O3 C22 1_555 1_555
C22 H27 1_555 1_555
H28 C22 1_555 1_555
C23 C22 1_555 1_555
H29 C23 1_555 1_555
H30 C23 1_555 1_555
H31 C23 1_555 1_555
H32 O3 1_555 1_555
C1 C12 1_555 1_555
C4 C5 1_555 1_555
C6 C7 1_555 1_555
C10 C11 1_555 1_555
C14 C15 1_555 1_555
C16 C17 1_555 1_555
C20 C21 1_555 1_555

#END
