
#######################################################################
#
#                 Cambridge Crystallographic Data Centre
#                                CCDC 
#
#######################################################################
#
# If this CIF has been generated from an entry in the Cambridge 
# Structural Database, then it will include bibliographic, chemical, 
# crystal, experimental, refinement or atomic coordinate data resulting 
# from the CCDC's data processing and validation procedures.
#
#######################################################################

data_HOPCUL
_chemical_formula_moiety         'C21 H26 Cl1 N4 O3 S1 1+,Br1 1-,C1 H4 O1'
_chemical_name_systematic        
"(3aSR,4RS,8aSR,8bRS)-4-(5-(5-Chloro-2-thienyl)-3-isoxazolyl)-2-(3-(dimethylammonio)propyl)hexahydrodipyrrolo(1,2-a:3',4'-c)pyrrole-1,3(2H,4H)-dione bromide methanol solvate"
_chemical_properties_biological  'strong binding activity for factor Xa'
_symmetry_cell_setting           monoclinic
_symmetry_space_group_name_H-M   'P 21/n'
_symmetry_Int_Tables_number      14
_space_group_name_Hall           '-P 2yn'
loop_
_symmetry_equiv_pos_site_id
_symmetry_equiv_pos_as_xyz
1 x,y,z
2 1/2-x,1/2+y,1/2-z
3 -x,-y,-z
4 1/2+x,1/2-y,1/2+z
_cell_length_a                   6.5917(2)
_cell_length_b                   11.9351(4)
_cell_length_c                   35.4203(13)
_cell_angle_alpha                90
_cell_angle_beta                 91.8037(12)
_cell_angle_gamma                90
_cell_volume                     2785.23
_exptl_crystal_colour            colorless
_exptl_crystal_description       cube
_cell_formula_units_Z            4
_exptl_crystal_recrystallization_method 'methanol/diethyl ether'
loop_
_atom_site_label
_atom_site_type_symbol
_atom_site_fract_x
_atom_site_fract_y
_atom_site_fract_z
Br1 Br 0.07857(13) 0.33942(7) 0.75557(3)
S1 S 0.1835(3) -0.15961(16) 0.97575(7)
Cl1 Cl 0.4474(3) -0.34511(17) 1.00525(9)
C1 C 0.4920(11) -0.0517(6) 0.9539(3)
O1 O 0.1048(7) 0.1372(4) 0.83732(16)
O2 O 0.5680(7) 0.4177(4) 0.85188(16)
O3 O -0.0382(7) 0.0362(4) 0.93804(17)
N1 N 0.3718(7) 0.2604(4) 0.84424(16)
N2 N 0.1435(8) 0.3982(4) 0.92125(18)
N3 N 0.8326(9) 0.1087(5) 0.7491(2)
N4 N -0.1255(8) 0.1372(5) 0.9234(2)
C2 C 0.4025(9) 0.3745(6) 0.8510(2)
C3 C 0.1972(9) 0.4295(5) 0.8573(2)
C4 C 0.1834(10) 0.4895(5) 0.8945(2)
C5 C 0.0053(11) 0.5713(6) 0.8981(3)
C6 C -0.0749(13) 0.5519(7) 0.9378(3)
C7 C 0.0532(12) 0.4527(7) 0.9543(2)
C8 C -0.0020(9) 0.3183(5) 0.9017(2)
C9 C 0.0516(9) 0.3291(5) 0.8588(2)
C10 C 0.1674(9) 0.2300(6) 0.8452(2)
C11 C 0.5283(10) 0.1815(6) 0.8354(2)
C12 C 0.5826(10) 0.1886(6) 0.7942(2)
C13 C 0.7200(10) 0.0889(6) 0.7836(2)
C14 C 0.9979(14) 0.0188(7) 0.7455(3)
C15 C 0.6996(15) 0.1172(8) 0.7143(3)
C16 C 0.0282(9) 0.2045(6) 0.9189(2)
C17 C 0.2149(10) 0.1540(5) 0.9299(2)
C18 C 0.1655(10) 0.0487(6) 0.9405(2)
C19 C 0.2873(10) -0.0441(5) 0.9548(2)
C20 C 0.4182(11) -0.2166(6) 0.9828(3)
C21 C 0.5709(12) -0.1534(7) 0.9699(3)
H1 H 0.5742 0.0043 0.9437
H2 H 0.1590 0.4800 0.8361
H3 H 0.3135 0.5271 0.9012
H4 H -0.1007 0.5558 0.8788
H5 H 0.0512 0.6488 0.8952
H6 H -0.2194 0.5326 0.9365
H7 H -0.0564 0.6191 0.9534
H8 H 0.1595 0.4801 0.9720
H9 H -0.0332 0.3999 0.9677
H10 H -0.1432 0.3435 0.9053
H11 H -0.0720 0.3422 0.8428
H12 H 0.4817 0.1054 0.8410
H13 H 0.6494 0.1966 0.8514
H14 H 0.6535 0.2592 0.7897
H15 H 0.4583 0.1875 0.7783
H16 H 0.8170 0.0744 0.8046
H17 H 0.6358 0.0218 0.7801
H18 H 1.0917 0.0233 0.7671
H19 H 1.0707 0.0313 0.7226
H20 H 0.9354 -0.0547 0.7447
H21 H 0.6050 0.0549 0.7135
H22 H 0.7826 0.1151 0.6922
H23 H 0.6246 0.1871 0.7147
H24 H 0.3448 0.1865 0.9299
H25 H 0.7089 -0.1732 0.9713
H26 H 0.899(8) 0.177(4) 0.7545(17)
O4 O 0.767(4) 0.230(3) 0.1682(8)
C22 C 0.936(9) 0.157(4) 0.1553(19)
H27 H 0.9534 0.0946 0.1725
H28 H 1.0601 0.2007 0.1550
H29 H 0.9029 0.1297 0.1301
C23? C 0.598(6) 0.226(3) 0.1419(11)
H30? H 0.6319 0.1807 0.1203
H31? H 0.5649 0.3017 0.1334
H32? H 0.4814 0.1941 0.1540
loop_
_geom_bond_atom_site_label_1
_geom_bond_atom_site_label_2
_geom_bond_site_symmetry_1
_geom_bond_site_symmetry_2
S1 C19 1_555 1_555
Cl1 C20 1_555 1_555
C1 C19 1_555 1_555
O1 C10 1_555 1_555
O2 C2 1_555 1_555
O3 N4 1_555 1_555
N1 C2 1_555 1_555
N2 C4 1_555 1_555
N3 C13 1_555 1_555
N4 C16 1_555 1_555
C2 C3 1_555 1_555
C3 C4 1_555 1_555
C4 C5 1_555 1_555
C5 C6 1_555 1_555
C6 C7 1_555 1_555
C7 N2 1_555 1_555
C8 N2 1_555 1_555
C9 C3 1_555 1_555
C10 N1 1_555 1_555
C11 N1 1_555 1_555
C12 C11 1_555 1_555
C13 C12 1_555 1_555
C14 N3 1_555 1_555
C15 N3 1_555 1_555
C16 C8 1_555 1_555
C17 C16 1_555 1_555
C18 O3 1_555 1_555
C19 C18 1_555 1_555
C20 S1 1_555 1_555
C21 C1 1_555 1_555
O4 C22 1_555 1_555
C22 H27 1_555 1_555
H1 C1 1_555 1_555
H2 C3 1_555 1_555
H3 C4 1_555 1_555
H4 C5 1_555 1_555
H5 C5 1_555 1_555
H6 C6 1_555 1_555
H7 C6 1_555 1_555
H8 C7 1_555 1_555
H9 C7 1_555 1_555
H10 C8 1_555 1_555
H11 C9 1_555 1_555
H12 C11 1_555 1_555
H13 C11 1_555 1_555
H14 C12 1_555 1_555
H15 C12 1_555 1_555
H16 C13 1_555 1_555
H17 C13 1_555 1_555
H18 C14 1_555 1_555
H19 C14 1_555 1_555
H20 C14 1_555 1_555
H21 C15 1_555 1_555
H22 C15 1_555 1_555
H23 C15 1_555 1_555
H24 C17 1_555 1_555
H25 C21 1_555 1_555
H26 N3 1_555 1_555
H28 C22 1_555 1_555
H29 C22 1_555 1_555
C8 C9 1_555 1_555
C9 C10 1_555 1_555
C17 C18 1_555 1_555
C20 C21 1_555 1_555

#END
