
#######################################################################
#
#                 Cambridge Crystallographic Data Centre
#                                CCDC 
#
#######################################################################
#
# If this CIF has been generated from an entry in the Cambridge 
# Structural Database, then it will include bibliographic, chemical, 
# crystal, experimental, refinement or atomic coordinate data resulting 
# from the CCDC's data processing and validation procedures.
#
#######################################################################

data_HOPGAV
_chemical_name_common            
rac-8,23-Di(4-biphenylyl)-5,5,20,20-tetrabutyl-1,16-diazaoctacyclo[14.14.1.0$2,14!.0$4,12!.0$6,11!.0$17,29!.0$19,27!.0$21,26!]hentriaconta-2(14),3,6,8,10,12,17(29),18,21,23,25,27-dodecaene
_chemical_formula_moiety         'C69 H70 N2'
_chemical_name_systematic        
rac-2,11-bis(Biphenyl-4-yl)-9,9,18,18-tetrabutyl-6,9,15,18-tetrahydro-7,16-methanodifluoreno(2,3-b:2',3'-f)(1,5)diazocine
_symmetry_cell_setting           triclinic
_symmetry_space_group_name_H-M   'P -1'
_symmetry_Int_Tables_number      2
_space_group_name_Hall           '-P 1'
loop_
_symmetry_equiv_pos_site_id
_symmetry_equiv_pos_as_xyz
1 x,y,z
2 -x,-y,-z
_cell_length_a                   10.4027(9)
_cell_length_b                   20.7657(18)
_cell_length_c                   25.804(2)
_cell_angle_alpha                100.930(5)
_cell_angle_beta                 94.168(6)
_cell_angle_gamma                100.478(5)
_cell_volume                     5348.53
_exptl_crystal_colour            colorless
_exptl_crystal_description       plate
_cell_formula_units_Z            4
_exptl_crystal_preparation       fluorescent
loop_
_atom_site_label
_atom_site_type_symbol
_atom_site_fract_x
_atom_site_fract_y
_atom_site_fract_z
C1 C 1.0839(6) 0.8791(2) 0.55553(18)
H1 H 1.0800 0.9224 0.5722
C2 C 1.1975(5) 0.8571(2) 0.55852(18)
H2 H 1.2726 0.8857 0.5773
C3 C 1.2048(4) 0.7927(2) 0.53416(16)
H3 H 1.2844 0.7785 0.5371
C4 C 1.0959(4) 0.74925(16) 0.50573(13)
C5 C 0.9827(5) 0.7734(2) 0.50324(19)
H4 H 0.9071 0.7457 0.4841
C6 C 0.9764(6) 0.8376(2) 0.5281(2)
H5 H 0.8971 0.8521 0.5258
C7 C 1.1019(4) 0.67974(17) 0.47984(13)
C8 C 1.2176(4) 0.65671(19) 0.48054(16)
H6 H 1.2946 0.6859 0.4969
C9 C 1.2236(4) 0.5913(2) 0.45773(17)
H7 H 1.3041 0.5780 0.4592
C10 C 1.1125(4) 0.54574(17) 0.43290(13)
C11 C 0.9974(4) 0.56894(19) 0.43243(16)
H8 H 0.9201 0.5398 0.4163
C12 C 0.9924(4) 0.63373(19) 0.45501(16)
H9 H 0.9118 0.6470 0.4534
C13 C 1.1214(4) 0.47634(16) 0.40770(13)
C14 C 1.2041(4) 0.46521(16) 0.36814(14)
H10 H 1.2526 0.5014 0.3571
C15 C 1.2146(4) 0.40100(16) 0.34524(13)
C16 C 1.1440(4) 0.34654(15) 0.36241(13)
C17 C 1.0588(4) 0.35694(18) 0.40085(14)
H11 H 1.0095 0.3208 0.4118
C18 C 1.0482(4) 0.42150(17) 0.42260(14)
H12 H 0.9903 0.4284 0.4480
C19 C 1.7397(9) 0.4044(4) 0.3182(3)
H13 H 1.7414 0.3575 0.3130
H14 H 1.8281 0.4299 0.3257
H15 H 1.6982 0.4135 0.2867
C20 C 1.6723(6) 0.4213(4) 0.3590(3)
H16 H 1.6887 0.4697 0.3688
H17 H 1.7074 0.4053 0.3889
C21 C 1.5170(5) 0.3944(2) 0.35002(19)
H18 H 1.5018 0.3461 0.3456
H19 H 1.4821 0.4113 0.3826
C22 C 1.4366(4) 0.40946(19) 0.30561(18)
H20 H 1.4725 0.3943 0.2729
H21 H 1.4465 0.4577 0.3107
C23 C 1.2880(4) 0.37848(16) 0.29841(14)
C24 C 1.2249(5) 0.39536(18) 0.24749(15)
H22 H 1.2442 0.4436 0.2515
H23 H 1.2689 0.3771 0.2179
C25 C 1.0784(5) 0.3715(2) 0.23235(16)
H24 H 1.0494 0.3987 0.2089
H25 H 1.0351 0.3798 0.2643
C26 C 1.0310(5) 0.2983(2) 0.20529(17)
H26 H 1.0839 0.2873 0.1767
H27 H 1.0436 0.2705 0.2307
C27 C 0.8886(5) 0.2826(3) 0.1831(2)
H28 H 0.8358 0.2946 0.2110
H29 H 0.8625 0.2355 0.1682
H30 H 0.8765 0.3075 0.1560
C28 C 1.2627(3) 0.30338(15) 0.29588(14)
C29 C 1.1760(3) 0.28517(15) 0.33231(12)
C30 C 1.1342(3) 0.21839(16) 0.33316(12)
H31 H 1.0772 0.2062 0.3574
C31 C 1.1768(3) 0.16924(15) 0.29809(13)
C32 C 1.2662(3) 0.18834(16) 0.26326(14)
C33 C 1.3091(3) 0.25549(16) 0.26260(14)
H32 H 1.3694 0.2679 0.2396
C34 C 1.1229(4) 0.09569(15) 0.29541(13)
H33 H 1.1656 0.0818 0.3249
H34 H 1.0294 0.0892 0.2989
C35 C 1.2824(3) 0.07325(16) 0.23795(16)
H35 H 1.3044 0.0407 0.2095
H36 H 1.3361 0.0729 0.2702
C36 C 1.2509(3) 0.13443(16) 0.17106(14)
H37 H 1.2974 0.1092 0.1458
H38 H 1.2575 0.1788 0.1634
C37 C 1.1078(3) 0.10011(14) 0.16449(13)
C38 C 1.0604(3) 0.06183(14) 0.20116(13)
C39 C 0.9276(3) 0.03318(15) 0.19700(12)
H39 H 0.8976 0.0066 0.2206
C40 C 0.8395(3) 0.04369(14) 0.15813(12)
C41 C 0.8857(3) 0.08356(14) 0.12231(11)
C42 C 1.0186(3) 0.11030(15) 0.12509(13)
H40 H 1.0489 0.1353 0.1005
C43 C 0.6860(4) -0.22211(18) 0.15901(16)
H41 H 0.7637 -0.2239 0.1413
H42 H 0.6285 -0.2653 0.1504
H43 H 0.7101 -0.2095 0.1967
C44 C 0.6167(4) -0.17140(16) 0.14111(14)
H44 H 0.5336 -0.1734 0.1562
H45 H 0.5973 -0.1832 0.1028
C45 C 0.6948(3) -0.10050(15) 0.15671(13)
H46 H 0.7839 -0.1000 0.1477
H47 H 0.6994 -0.0856 0.1949
C46 C 0.6362(3) -0.05161(15) 0.12961(12)
H48 H 0.5422 -0.0601 0.1319
H49 H 0.6485 -0.0618 0.0922
C47 C 0.6903(3) 0.02401(15) 0.15083(11)
C48 C 0.6359(3) 0.04827(16) 0.20346(12)
H50 H 0.5406 0.0371 0.1974
H51 H 0.6631 0.0233 0.2290
C49 C 0.6765(4) 0.12180(18) 0.22805(14)
H52 H 0.7691 0.1364 0.2249
H53 H 0.6276 0.1465 0.2082
C50 C 0.6543(5) 0.1388(2) 0.28560(16)
H54 H 0.5622 0.1229 0.2887
H55 H 0.7052 0.1149 0.3054
C51 C 0.6893(6) 0.2101(3) 0.3101(2)
H56 H 0.7814 0.2262 0.3089
H57 H 0.6707 0.2166 0.3464
H58 H 0.6389 0.2345 0.2912
C52 C 0.7717(3) 0.09435(14) 0.09102(12)
C53 C 0.6575(3) 0.06186(15) 0.10813(12)
C54 C 0.5353(3) 0.06604(15) 0.08591(12)
H59 H 0.4601 0.0435 0.0971
C55 C 0.5227(3) 0.10353(15) 0.04708(12)
C56 C 0.6380(3) 0.13478(16) 0.03005(13)
H60 H 0.6316 0.1591 0.0035
C57 C 0.7612(3) 0.13055(15) 0.05143(12)
H61 H 0.8364 0.1518 0.0394
C58 C 0.3924(3) 0.10967(16) 0.02422(12)
C59 C 0.2862(3) 0.05605(16) 0.01220(12)
H62 H 0.2961 0.0153 0.0203
C60 C 0.1668(3) 0.06144(16) -0.01131(13)
H63 H 0.0982 0.0243 -0.0185
C61 C 0.1456(3) 0.12086(16) -0.02463(11)
C62 C 0.2511(4) 0.17512(16) -0.01132(13)
H64 H 0.2406 0.2161 -0.0186
C63 C 0.3704(4) 0.16971(16) 0.01227(13)
H65 H 0.4383 0.2072 0.0205
C64 C 0.0185(3) 0.12595(16) -0.05193(12)
C65 C -0.0721(4) 0.07009(19) -0.07772(15)
H66 H -0.0522 0.0280 -0.0789
C66 C -0.1921(4) 0.0749(2) -0.10187(16)
H67 H -0.2520 0.0362 -0.1183
C67 C -0.2235(4) 0.1360(2) -0.10187(15)
H68 H -0.3040 0.1394 -0.1182
C68 C -0.1347(4) 0.1914(2) -0.07754(17)
H69 H -0.1546 0.2333 -0.0773
C69 C -0.0151(4) 0.18709(18) -0.05308(15)
H70 H 0.0442 0.2262 -0.0370
N1 N 1.1437(3) 0.05368(12) 0.24516(11)
N2 N 1.3131(3) 0.14007(13) 0.22529(12)
C70 C 0.3645(5) 1.4085(2) 0.49339(19)
H71 H 0.3413 1.4335 0.4692
C71 C 0.3971(4) 1.4378(2) 0.54536(19)
H72 H 0.3969 1.4829 0.5571
C72 C 0.4300(5) 1.4003(2) 0.58015(17)
H73 H 0.4519 1.4200 0.6159
C73 C 0.4314(4) 1.33313(19) 0.56305(15)
H74 H 0.4540 1.3083 0.5875
C74 C 0.3998(3) 1.30257(16) 0.51040(14)
C75 C 0.3658(4) 1.34149(19) 0.47629(15)
H75 H 0.3429 1.3221 0.4405
C76 C 0.4006(3) 1.23060(16) 0.49088(13)
C77 C 0.3972(4) 1.18534(17) 0.52427(13)
H76 H 0.3974 1.2006 0.5606
C78 C 0.3934(4) 1.11860(17) 0.50498(13)
H77 H 0.3914 1.0900 0.5287
C79 C 0.3926(3) 1.09249(16) 0.45169(12)
C80 C 0.3992(4) 1.13772(17) 0.41804(13)
H78 H 0.4007 1.1224 0.3819
C81 C 0.4034(4) 1.20477(17) 0.43732(13)
H79 H 0.4082 1.2336 0.4137
C82 C 0.3855(3) 1.02073(16) 0.43054(12)
C83 C 0.3181(3) 0.97090(17) 0.45398(13)
H80 H 0.2795 0.9839 0.4846
C84 C 0.3063(3) 0.90357(17) 0.43373(13)
H81 H 0.2614 0.8719 0.4505
C85 C 0.3633(3) 0.88377(15) 0.38745(12)
C86 C 0.4312(3) 0.93223(15) 0.36308(12)
C87 C 0.4421(3) 0.99923(15) 0.38427(12)
H82 H 0.4879 1.0308 0.3676
C88 C 0.9555(5) 0.9283(3) 0.3968(3)
H83 H 0.9426 0.9581 0.4284
H84 H 1.0447 0.9399 0.3891
H85 H 0.9383 0.8831 0.4021
C89 C 0.8635(4) 0.9341(2) 0.35130(19)
H86 H 0.8808 0.9055 0.3193
H87 H 0.8827 0.9799 0.3462
C90 C 0.7191(4) 0.91592(19) 0.35771(15)
H88 H 0.6989 0.8699 0.3620
H89 H 0.7015 0.9441 0.3898
C91 C 0.6296(3) 0.92353(16) 0.31157(13)
H90 H 0.6539 0.8985 0.2793
H91 H 0.6465 0.9703 0.3093
C92 C 0.4808(3) 0.90078(14) 0.31281(12)
C93 C 0.4056(3) 0.91583(16) 0.26384(12)
H92 H 0.4329 0.9631 0.2642
H93 H 0.4343 0.8915 0.2323
C94 C 0.2558(4) 0.89945(18) 0.25787(14)
H94 H 0.2272 0.9124 0.2926
H95 H 0.2244 0.9272 0.2355
C95 C 0.1887(4) 0.8274(2) 0.23503(17)
H96 H 0.2034 0.8003 0.2608
H97 H 0.2282 0.8109 0.2035
C96 C 0.0416(4) 0.8195(3) 0.2206(2)
H98 H 0.0013 0.8339 0.2519
H99 H 0.0040 0.7733 0.2057
H100 H 0.0264 0.8462 0.1951
C97 C 0.4418(3) 0.82661(15) 0.31384(12)
C98 C 0.4627(3) 0.77302(15) 0.27804(12)
H101 H 0.5154 0.7796 0.2512
C99 C 0.4046(3) 0.70831(15) 0.28201(12)
C100 C 0.3252(3) 0.69848(15) 0.32233(12)
C101 C 0.3096(3) 0.75334(16) 0.36008(13)
H102 H 0.2601 0.7467 0.3879
C102 C 0.3673(3) 0.81755(15) 0.35641(11)
C103 C 0.2532(3) 0.62861(15) 0.32364(13)
H103 H 0.2936 0.6137 0.3531
H104 H 0.1627 0.6299 0.3297
C104 C 0.3889(3) 0.59026(15) 0.25994(15)
H105 H 0.3965 0.5538 0.2314
H106 H 0.4486 0.5893 0.2903
C105 C 0.3528(3) 0.64778(16) 0.19151(13)
H107 H 0.3896 0.6197 0.1644
H108 H 0.3619 0.6918 0.1830
C106 C 0.2081(3) 0.61839(15) 0.19039(13)
C107 C 0.1646(3) 0.58680(15) 0.23147(13)
C108 C 0.0317(3) 0.56123(15) 0.23131(13)
H109 H 0.0034 0.5391 0.2578
C109 C -0.0587(3) 0.56844(15) 0.19199(13)
C110 C -0.0162(3) 0.59993(14) 0.15084(12)
C111 C 0.1171(3) 0.62418(15) 0.15049(13)
H110 H 0.1456 0.6446 0.1231
C112 C -0.5386(5) 0.3219(2) 0.12807(18)
H111 H -0.5980 0.3368 0.1523
H112 H -0.5438 0.2747 0.1249
H113 H -0.5621 0.3310 0.0939
C113 C -0.4000(4) 0.35863(18) 0.14864(16)
H114 H -0.3755 0.3474 0.1823
H115 H -0.3406 0.3434 0.1239
C114 C -0.3828(4) 0.43364(18) 0.15629(16)
H116 H -0.4136 0.4450 0.1234
H117 H -0.4358 0.4497 0.1834
C115 C -0.2427(3) 0.46737(18) 0.17218(15)
H118 H -0.1924 0.4518 0.1438
H119 H -0.2120 0.4521 0.2032
C116 C -0.2073(3) 0.54700(16) 0.18533(13)
C117 C -0.2645(4) 0.5768(2) 0.23478(14)
H120 H -0.3597 0.5652 0.2281
H121 H -0.2383 0.5563 0.2636
C118 C -0.2243(4) 0.6511(2) 0.25253(16)
H122 H -0.2788 0.6718 0.2313
H123 H -0.1340 0.6646 0.2456
C119 C -0.2344(6) 0.6775(3) 0.3101(2)
H124 H -0.3251 0.6818 0.3127
H125 H -0.2202 0.6425 0.3287
C120 C -0.1631(9) 0.7319(5) 0.3370(3)
H126 H -0.0732 0.7270 0.3409
H127 H -0.1929 0.7420 0.3714
H128 H -0.1698 0.7677 0.3189
C121 C -0.2440(3) 0.57476(15) 0.13678(12)
C122 C -0.1314(3) 0.60358(15) 0.11664(12)
C123 C -0.1421(4) 0.63025(16) 0.07159(13)
H129 H -0.0671 0.6484 0.0577
C124 C -0.2654(4) 0.62962(16) 0.04765(13)
H130 H -0.2725 0.6473 0.0173
C125 C -0.3793(3) 0.60331(15) 0.06773(12)
C126 C -0.3660(3) 0.57517(15) 0.11268(12)
H131 H -0.4410 0.5565 0.1264
C127 C -0.5098(3) 0.60564(15) 0.04220(12)
C128 C -0.5335(4) 0.66201(17) 0.02478(15)
H132 H -0.4660 0.6995 0.0300
C129 C -0.6534(4) 0.66433(17) 0.00015(15)
H133 H -0.6641 0.7032 -0.0110
C130 C -0.7595(3) 0.61069(16) -0.00873(12)
C131 C -0.7355(4) 0.55445(16) 0.00924(14)
H134 H -0.8033 0.5171 0.0044
C132 C -0.6159(4) 0.55201(16) 0.03382(13)
H135 H -0.6053 0.5133 0.0453
C133 C -0.8881(4) 0.61286(17) -0.03628(12)
C134 C -0.9256(4) 0.67267(19) -0.03978(14)
H136 H -0.8688 0.7128 -0.0243
C135 C -1.0448(5) 0.6739(2) -0.06565(17)
H137 H -1.0677 0.7149 -0.0670
C136 C -1.1304(4) 0.6162(3) -0.08947(15)
H138 H -1.2108 0.6175 -0.1072
C137 C -1.0955(4) 0.5567(2) -0.08677(15)
H139 H -1.1525 0.5168 -0.1030
C138 C -0.9773(4) 0.55476(19) -0.06047(14)
H140 H -0.9563 0.5135 -0.0588
N3 N 0.2547(3) 0.58016(12) 0.27404(11)
N4 N 0.4278(2) 0.65361(12) 0.24310(11)
loop_
_geom_bond_atom_site_label_1
_geom_bond_atom_site_label_2
_geom_bond_site_symmetry_1
_geom_bond_site_symmetry_2
C1 H1 1_555 1_555
C2 C1 1_555 1_555
H2 C2 1_555 1_555
C3 C2 1_555 1_555
H3 C3 1_555 1_555
C4 C3 1_555 1_555
C5 C4 1_555 1_555
H4 C5 1_555 1_555
C6 C1 1_555 1_555
H5 C6 1_555 1_555
C7 C4 1_555 1_555
C8 C7 1_555 1_555
H6 C8 1_555 1_555
C9 C8 1_555 1_555
H7 C9 1_555 1_555
C10 C9 1_555 1_555
C11 C10 1_555 1_555
H8 C11 1_555 1_555
C12 C7 1_555 1_555
H9 C12 1_555 1_555
C13 C10 1_555 1_555
C14 C13 1_555 1_555
H10 C14 1_555 1_555
C15 C14 1_555 1_555
C16 C15 1_555 1_555
C17 C16 1_555 1_555
H11 C17 1_555 1_555
C18 C13 1_555 1_555
H12 C18 1_555 1_555
C19 H13 1_555 1_555
H14 C19 1_555 1_555
H15 C19 1_555 1_555
C20 C19 1_555 1_555
H16 C20 1_555 1_555
H17 C20 1_555 1_555
C21 C20 1_555 1_555
H18 C21 1_555 1_555
H19 C21 1_555 1_555
C22 C21 1_555 1_555
H20 C22 1_555 1_555
H21 C22 1_555 1_555
C23 C15 1_555 1_555
C24 C23 1_555 1_555
H22 C24 1_555 1_555
H23 C24 1_555 1_555
C25 C24 1_555 1_555
H24 C25 1_555 1_555
H25 C25 1_555 1_555
C26 C25 1_555 1_555
H26 C26 1_555 1_555
H27 C26 1_555 1_555
C27 C26 1_555 1_555
H28 C27 1_555 1_555
H29 C27 1_555 1_555
H30 C27 1_555 1_555
C28 C23 1_555 1_555
C29 C16 1_555 1_555
C30 C29 1_555 1_555
H31 C30 1_555 1_555
C31 C30 1_555 1_555
C32 C31 1_555 1_555
C33 C28 1_555 1_555
H32 C33 1_555 1_555
C34 C31 1_555 1_555
H33 C34 1_555 1_555
H34 C34 1_555 1_555
C35 H35 1_555 1_555
H36 C35 1_555 1_555
C36 H37 1_555 1_555
H38 C36 1_555 1_555
C37 C36 1_555 1_555
C38 C37 1_555 1_555
C39 C38 1_555 1_555
H39 C39 1_555 1_555
C40 C39 1_555 1_555
C41 C40 1_555 1_555
C42 C37 1_555 1_555
H40 C42 1_555 1_555
C43 H41 1_555 1_555
H42 C43 1_555 1_555
H43 C43 1_555 1_555
C44 C43 1_555 1_555
H44 C44 1_555 1_555
H45 C44 1_555 1_555
C45 C44 1_555 1_555
H46 C45 1_555 1_555
H47 C45 1_555 1_555
C46 C45 1_555 1_555
H48 C46 1_555 1_555
H49 C46 1_555 1_555
C47 C40 1_555 1_555
C48 C47 1_555 1_555
H50 C48 1_555 1_555
H51 C48 1_555 1_555
C49 C48 1_555 1_555
H52 C49 1_555 1_555
H53 C49 1_555 1_555
C50 C49 1_555 1_555
H54 C50 1_555 1_555
H55 C50 1_555 1_555
C51 C50 1_555 1_555
H56 C51 1_555 1_555
H57 C51 1_555 1_555
H58 C51 1_555 1_555
C52 C41 1_555 1_555
C53 C47 1_555 1_555
C54 C53 1_555 1_555
H59 C54 1_555 1_555
C55 C54 1_555 1_555
C56 C55 1_555 1_555
H60 C56 1_555 1_555
C57 C52 1_555 1_555
H61 C57 1_555 1_555
C58 C55 1_555 1_555
C59 C58 1_555 1_555
H62 C59 1_555 1_555
C60 C59 1_555 1_555
H63 C60 1_555 1_555
C61 C60 1_555 1_555
C62 C61 1_555 1_555
H64 C62 1_555 1_555
C63 C58 1_555 1_555
H65 C63 1_555 1_555
C64 C61 1_555 1_555
C65 C64 1_555 1_555
H66 C65 1_555 1_555
C66 C65 1_555 1_555
H67 C66 1_555 1_555
C67 C66 1_555 1_555
H68 C67 1_555 1_555
C68 C67 1_555 1_555
H69 C68 1_555 1_555
C69 C64 1_555 1_555
H70 C69 1_555 1_555
N1 C34 1_555 1_555
N2 C32 1_555 1_555
C70 H71 1_555 1_555
C71 C70 1_555 1_555
H72 C71 1_555 1_555
C72 C71 1_555 1_555
H73 C72 1_555 1_555
C73 C72 1_555 1_555
H74 C73 1_555 1_555
C74 C73 1_555 1_555
C75 C70 1_555 1_555
H75 C75 1_555 1_555
C76 C74 1_555 1_555
C77 C76 1_555 1_555
H76 C77 1_555 1_555
C78 C77 1_555 1_555
H77 C78 1_555 1_555
C79 C78 1_555 1_555
C80 C79 1_555 1_555
H78 C80 1_555 1_555
C81 C76 1_555 1_555
H79 C81 1_555 1_555
C82 C79 1_555 1_555
C83 C82 1_555 1_555
H80 C83 1_555 1_555
C84 C83 1_555 1_555
H81 C84 1_555 1_555
C85 C84 1_555 1_555
C86 C85 1_555 1_555
C87 C82 1_555 1_555
H82 C87 1_555 1_555
C88 H83 1_555 1_555
H84 C88 1_555 1_555
H85 C88 1_555 1_555
C89 C88 1_555 1_555
H86 C89 1_555 1_555
H87 C89 1_555 1_555
C90 C89 1_555 1_555
H88 C90 1_555 1_555
H89 C90 1_555 1_555
C91 C90 1_555 1_555
H90 C91 1_555 1_555
H91 C91 1_555 1_555
C92 C86 1_555 1_555
C93 C92 1_555 1_555
H92 C93 1_555 1_555
H93 C93 1_555 1_555
C94 C93 1_555 1_555
H94 C94 1_555 1_555
H95 C94 1_555 1_555
C95 C94 1_555 1_555
H96 C95 1_555 1_555
H97 C95 1_555 1_555
C96 C95 1_555 1_555
H98 C96 1_555 1_555
H99 C96 1_555 1_555
H100 C96 1_555 1_555
C97 C92 1_555 1_555
C98 C97 1_555 1_555
H101 C98 1_555 1_555
C99 C98 1_555 1_555
C100 C99 1_555 1_555
C101 C100 1_555 1_555
H102 C101 1_555 1_555
C102 C85 1_555 1_555
C103 C100 1_555 1_555
H103 C103 1_555 1_555
H104 C103 1_555 1_555
C104 H105 1_555 1_555
H106 C104 1_555 1_555
C105 H107 1_555 1_555
H108 C105 1_555 1_555
C106 C105 1_555 1_555
C107 C106 1_555 1_555
C108 C107 1_555 1_555
H109 C108 1_555 1_555
C109 C108 1_555 1_555
C110 C109 1_555 1_555
C111 C106 1_555 1_555
H110 C111 1_555 1_555
C112 H111 1_555 1_555
H112 C112 1_555 1_555
H113 C112 1_555 1_555
C113 C112 1_555 1_555
H114 C113 1_555 1_555
H115 C113 1_555 1_555
C114 C113 1_555 1_555
H116 C114 1_555 1_555
H117 C114 1_555 1_555
C115 C114 1_555 1_555
H118 C115 1_555 1_555
H119 C115 1_555 1_555
C116 C109 1_555 1_555
C117 C116 1_555 1_555
H120 C117 1_555 1_555
H121 C117 1_555 1_555
C118 C117 1_555 1_555
H122 C118 1_555 1_555
H123 C118 1_555 1_555
C119 C118 1_555 1_555
H124 C119 1_555 1_555
H125 C119 1_555 1_555
C120 C119 1_555 1_555
H126 C120 1_555 1_555
H127 C120 1_555 1_555
H128 C120 1_555 1_555
C121 C116 1_555 1_555
C122 C110 1_555 1_555
C123 C122 1_555 1_555
H129 C123 1_555 1_555
C124 C123 1_555 1_555
H130 C124 1_555 1_555
C125 C124 1_555 1_555
C126 C121 1_555 1_555
H131 C126 1_555 1_555
C127 C125 1_555 1_555
C128 C127 1_555 1_555
H132 C128 1_555 1_555
C129 C128 1_555 1_555
H133 C129 1_555 1_555
C130 C129 1_555 1_555
C131 C130 1_555 1_555
H134 C131 1_555 1_555
C132 C127 1_555 1_555
H135 C132 1_555 1_555
C133 C130 1_555 1_555
C134 C133 1_555 1_555
H136 C134 1_555 1_555
C135 C134 1_555 1_555
H137 C135 1_555 1_555
C136 C135 1_555 1_555
H138 C136 1_555 1_555
C137 C136 1_555 1_555
H139 C137 1_555 1_555
C138 C133 1_555 1_555
H140 C138 1_555 1_555
N3 C103 1_555 1_555
N4 C99 1_555 1_555
C5 C6 1_555 1_555
C11 C12 1_555 1_555
C17 C18 1_555 1_555
C22 C23 1_555 1_555
C28 C29 1_555 1_555
C32 C33 1_555 1_555
C35 N1 1_555 1_555
C35 N2 1_555 1_555
C36 N2 1_555 1_555
C38 N1 1_555 1_555
C41 C42 1_555 1_555
C46 C47 1_555 1_555
C52 C53 1_555 1_555
C56 C57 1_555 1_555
C62 C63 1_555 1_555
C68 C69 1_555 1_555
C74 C75 1_555 1_555
C80 C81 1_555 1_555
C86 C87 1_555 1_555
C91 C92 1_555 1_555
C97 C102 1_555 1_555
C101 C102 1_555 1_555
C104 N3 1_555 1_555
C104 N4 1_555 1_555
C105 N4 1_555 1_555
C107 N3 1_555 1_555
C110 C111 1_555 1_555
C115 C116 1_555 1_555
C121 C122 1_555 1_555
C125 C126 1_555 1_555
C131 C132 1_555 1_555
C137 C138 1_555 1_555

#END
