
#######################################################################
#
#                 Cambridge Crystallographic Data Centre
#                                CCDC 
#
#######################################################################
#
# If this CIF has been generated from an entry in the Cambridge 
# Structural Database, then it will include bibliographic, chemical, 
# crystal, experimental, refinement or atomic coordinate data resulting 
# from the CCDC's data processing and validation procedures.
#
#######################################################################

data_HOPMEF
_chemical_formula_moiety         'C22 H20 S7 Si2'
_chemical_name_systematic        
rac-Bisthieno[3'',2'':4',5']thieno[3',2':4,5]thieno[2,3-b:3',2'-d]thiene-2,10-diylbis(trimethylsilane)
_symmetry_cell_setting           triclinic
_symmetry_space_group_name_H-M   'P -1'
_symmetry_Int_Tables_number      2
_space_group_name_Hall           '-P 1'
loop_
_symmetry_equiv_pos_site_id
_symmetry_equiv_pos_as_xyz
1 x,y,z
2 -x,-y,-z
_cell_length_a                   7.964(4)
_cell_length_b                   11.560(5)
_cell_length_c                   16.232(7)
_cell_angle_alpha                73.108(8)
_cell_angle_beta                 81.205(9)
_cell_angle_gamma                72.258(8)
_cell_volume                     1358.5
_exptl_crystal_colour            white
_chemical_melting_point          '259-261 deg.C'
_cell_formula_units_Z            2
loop_
_atom_site_label
_atom_site_type_symbol
_atom_site_fract_x
_atom_site_fract_y
_atom_site_fract_z
S1 S 0.74036(13) 1.10277(8) 0.66487(6)
S2 S 0.74143(12) 1.11455(8) 0.46872(5)
S3 S 0.70712(12) 0.93474(8) 0.36315(5)
S4 S 0.68462(12) 0.65828(8) 0.39826(5)
S5 S 0.74601(12) 0.40980(8) 0.54795(6)
S6 S 0.90556(13) 0.30397(8) 0.73000(6)
S7 S 1.11736(13) 0.39250(8) 0.83712(5)
Si1 Si 1.29562(13) 0.60148(10) 0.83722(6)
Si2 Si 0.69342(17) 0.94629(10) 0.85530(7)
C1 C 0.7399(4) 0.9576(3) 0.7376(2)
C2 C 0.7560(4) 0.8704(3) 0.69336(19)
H1 H 0.7568 0.7877 0.7212
C3 C 0.7716(4) 0.9147(3) 0.60156(19)
C4 C 0.7601(4) 1.0427(3) 0.57817(19)
C5 C 0.7486(4) 0.9697(3) 0.45346(19)
C6 C 0.7723(4) 0.8710(3) 0.52742(18)
C7 C 0.7696(4) 0.7572(3) 0.50854(18)
C8 C 0.7254(4) 0.7818(3) 0.42418(19)
C9 C 0.7393(4) 0.5664(3) 0.50039(19)
C10 C 0.7902(4) 0.6257(3) 0.55184(18)
C11 C 0.8547(4) 0.5361(3) 0.63113(18)
C12 C 0.8290(4) 0.4193(3) 0.6380(2)
C13 C 0.9833(4) 0.4108(3) 0.75883(19)
C14 C 0.9542(4) 0.5283(3) 0.70065(18)
C15 C 1.0506(4) 0.6017(3) 0.71919(19)
H2 H 1.0503 0.6819 0.6853
C16 C 1.1448(4) 0.5438(3) 0.79178(19)
C17 C 1.3024(7) 0.7568(4) 0.7647(3)
H3 H 1.3447 0.7480 0.7076
H4 H 1.3803 0.7893 0.7856
H5 H 1.1858 0.8138 0.7632
C18 C 1.5168(6) 0.4882(5) 0.8403(3)
H6 H 1.5104 0.4085 0.8785
H7 H 1.5975 0.5189 0.8607
H8 H 1.5577 0.4781 0.7834
C19 C 1.2143(6) 0.6118(5) 0.9486(2)
H9 H 1.2125 0.5298 0.9844
H10 H 1.0969 0.6676 0.9483
H11 H 1.2911 0.6434 0.9710
C20 C 0.8682(8) 0.9868(5) 0.8969(3)
H12 H 0.8691 1.0718 0.8677
H13 H 0.9813 0.9307 0.8865
H14 H 0.8441 0.9788 0.9577
C21 C 0.4759(8) 1.0607(5) 0.8684(3)
H15 H 0.4834 1.1443 0.8393
H16 H 0.4441 1.0548 0.9286
H17 H 0.3879 1.0421 0.8439
C22 C 0.6864(6) 0.7828(4) 0.9116(2)
H18 H 0.5951 0.7637 0.8899
H19 H 0.6621 0.7750 0.9724
H20 H 0.7983 0.7252 0.9014
loop_
_geom_bond_atom_site_label_1
_geom_bond_atom_site_label_2
_geom_bond_site_symmetry_1
_geom_bond_site_symmetry_2
S1 C1 1_555 1_555
S2 C4 1_555 1_555
S3 C5 1_555 1_555
S4 C8 1_555 1_555
S5 C9 1_555 1_555
S6 C12 1_555 1_555
S7 C13 1_555 1_555
Si1 C16 1_555 1_555
Si2 C1 1_555 1_555
C1 C2 1_555 1_555
C2 H1 1_555 1_555
C3 C2 1_555 1_555
C4 S1 1_555 1_555
C5 S2 1_555 1_555
C6 C3 1_555 1_555
C7 C6 1_555 1_555
C8 S3 1_555 1_555
C9 S4 1_555 1_555
C10 C7 1_555 1_555
C11 C10 1_555 1_555
C12 S5 1_555 1_555
C13 S6 1_555 1_555
C14 C11 1_555 1_555
C15 C14 1_555 1_555
H2 C15 1_555 1_555
C16 S7 1_555 1_555
C17 Si1 1_555 1_555
H3 C17 1_555 1_555
H4 C17 1_555 1_555
H5 C17 1_555 1_555
C18 Si1 1_555 1_555
H6 C18 1_555 1_555
H7 C18 1_555 1_555
H8 C18 1_555 1_555
C19 Si1 1_555 1_555
H9 C19 1_555 1_555
H10 C19 1_555 1_555
H11 C19 1_555 1_555
C20 Si2 1_555 1_555
H12 C20 1_555 1_555
H13 C20 1_555 1_555
H14 C20 1_555 1_555
C21 Si2 1_555 1_555
H15 C21 1_555 1_555
H16 C21 1_555 1_555
H17 C21 1_555 1_555
C22 Si2 1_555 1_555
H18 C22 1_555 1_555
H19 C22 1_555 1_555
H20 C22 1_555 1_555
C3 C4 1_555 1_555
C5 C6 1_555 1_555
C7 C8 1_555 1_555
C9 C10 1_555 1_555
C11 C12 1_555 1_555
C13 C14 1_555 1_555
C15 C16 1_555 1_555

#END
