
#######################################################################
#
#                 Cambridge Crystallographic Data Centre
#                                CCDC 
#
#######################################################################
#
# If this CIF has been generated from an entry in the Cambridge 
# Structural Database, then it will include bibliographic, chemical, 
# crystal, experimental, refinement or atomic coordinate data resulting 
# from the CCDC's data processing and validation procedures.
#
#######################################################################

data_HOPNOQ
_chemical_name_common            
1-(2-(1-Pyrrolidinyl)phenyl)-2,3,4,9-tetrahydro-1H-pyrido(3,3-b)indole
_chemical_formula_moiety         'C21 H23 N3'
_chemical_name_systematic        
1-(2-(1-Pyrrolidinyl)phenyl)-2,3,4,9-tetrahydro-1H-\b-carboline
_symmetry_cell_setting           monoclinic
_symmetry_space_group_name_H-M   'P 21/c'
_symmetry_Int_Tables_number      14
_space_group_name_Hall           '-P 2ybc'
loop_
_symmetry_equiv_pos_site_id
_symmetry_equiv_pos_as_xyz
1 x,y,z
2 -x,1/2+y,1/2-z
3 -x,-y,-z
4 x,1/2-y,1/2+z
_cell_length_a                   12.0629(15)
_cell_length_b                   12.8690(16)
_cell_length_c                   10.6925(13)
_cell_angle_alpha                90
_cell_angle_beta                 91.566(2)
_cell_angle_gamma                90
_cell_volume                     1659.26
_exptl_crystal_colour            colorless
_exptl_crystal_description       'flat needle'
_chemical_melting_point          '184-186 deg.C'
_cell_formula_units_Z            4
loop_
_atom_site_label
_atom_site_type_symbol
_atom_site_fract_x
_atom_site_fract_y
_atom_site_fract_z
N1 N 0.74905(16) 0.79007(15) 0.72324(18)
H1 H 0.708(2) 0.7551(19) 0.664(2)
N2 N 0.60720(16) 0.81564(15) 1.02427(17)
H2 H 0.5391(19) 0.8063(18) 1.057(2)
N3 N 0.38907(15) 0.68763(15) 0.80405(18)
C1 C 0.84808(18) 0.83989(18) 0.7034(2)
C2 C 0.9174(2) 0.8368(2) 0.6025(2)
H3 H 0.9022 0.7936 0.5345
C3 C 1.0096(2) 0.8998(2) 0.6060(3)
H4 H 1.0567 0.9002 0.5385
C4 C 1.0337(2) 0.9627(2) 0.7089(3)
H5 H 1.0962 1.0050 0.7086
C5 C 0.96724(19) 0.9639(2) 0.8103(2)
H6 H 0.9847 1.0057 0.8790
C6 C 0.87274(18) 0.90131(18) 0.8094(2)
C7 C 0.60373(18) 0.78467(17) 0.8906(2)
H7 H 0.5431 0.8219 0.8473
C8 C 0.71179(17) 0.81925(17) 0.8383(2)
C9 C 0.78468(18) 0.88606(17) 0.8940(2)
C10 C 0.7632(2) 0.93494(19) 1.0173(2)
H8 H 0.7837 1.0078 1.0156
H9 H 0.8072 0.9009 1.0826
C11 C 0.6412(2) 0.92435(18) 1.0439(2)
H10 H 0.6279 0.9448 1.1295
H11 H 0.5980 0.9695 0.9886
C12 C 0.58350(18) 0.66828(18) 0.8781(2)
C13 C 0.48190(18) 0.62531(17) 0.8362(2)
C14 C 0.4764(2) 0.51720(18) 0.8227(2)
H12 H 0.4106 0.4872 0.7933
C15 C 0.5653(2) 0.45412(19) 0.8517(2)
H13 H 0.5592 0.3826 0.8413
C16 C 0.6630(2) 0.49636(19) 0.8957(2)
H14 H 0.7229 0.4540 0.9173
C17 C 0.67092(19) 0.60238(19) 0.9075(2)
H15 H 0.7377 0.6309 0.9364
C18 C 0.3450(2) 0.7596(2) 0.8983(2)
H16 H 0.3804 0.8271 0.8928
H17 H 0.3577 0.7324 0.9821
C19 C 0.2231(2) 0.7682(3) 0.8686(3)
H18 H 0.2002 0.8404 0.8664
H19 H 0.1807 0.7319 0.9308
C20 C 0.2059(2) 0.7188(2) 0.7421(3)
H20 H 0.1325 0.6883 0.7331
H21 H 0.2160 0.7688 0.6755
C21 C 0.2935(2) 0.6377(2) 0.7421(3)
H22 H 0.2707 0.5766 0.7881
H23 H 0.3104 0.6173 0.6574
loop_
_geom_bond_atom_site_label_1
_geom_bond_atom_site_label_2
_geom_bond_site_symmetry_1
_geom_bond_site_symmetry_2
N1 H1 1_555 1_555
N2 H2 1_555 1_555
N3 C13 1_555 1_555
C1 N1 1_555 1_555
C2 C1 1_555 1_555
H3 C2 1_555 1_555
C3 C2 1_555 1_555
H4 C3 1_555 1_555
C4 C3 1_555 1_555
H5 C4 1_555 1_555
C5 C4 1_555 1_555
H6 C5 1_555 1_555
C6 C1 1_555 1_555
C7 N2 1_555 1_555
H7 C7 1_555 1_555
C8 N1 1_555 1_555
C9 C6 1_555 1_555
C10 C9 1_555 1_555
H8 C10 1_555 1_555
H9 C10 1_555 1_555
C11 N2 1_555 1_555
H10 C11 1_555 1_555
H11 C11 1_555 1_555
C12 C7 1_555 1_555
C13 C12 1_555 1_555
C14 C13 1_555 1_555
H12 C14 1_555 1_555
C15 C14 1_555 1_555
H13 C15 1_555 1_555
C16 C15 1_555 1_555
H14 C16 1_555 1_555
C17 C12 1_555 1_555
H15 C17 1_555 1_555
C18 N3 1_555 1_555
H16 C18 1_555 1_555
H17 C18 1_555 1_555
C19 C18 1_555 1_555
H18 C19 1_555 1_555
H19 C19 1_555 1_555
C20 C19 1_555 1_555
H20 C20 1_555 1_555
H21 C20 1_555 1_555
C21 N3 1_555 1_555
H22 C21 1_555 1_555
H23 C21 1_555 1_555
C5 C6 1_555 1_555
C7 C8 1_555 1_555
C8 C9 1_555 1_555
C10 C11 1_555 1_555
C16 C17 1_555 1_555
C20 C21 1_555 1_555

#END
