
#######################################################################
#
#                 Cambridge Crystallographic Data Centre
#                                CCDC 
#
#######################################################################
#
# If this CIF has been generated from an entry in the Cambridge 
# Structural Database, then it will include bibliographic, chemical, 
# crystal, experimental, refinement or atomic coordinate data resulting 
# from the CCDC's data processing and validation procedures.
#
#######################################################################

data_HOPNEG
_chemical_formula_moiety         'C22 H20 N2'
_chemical_name_systematic        
5-Phenyl-5,6,12,13-tetrahydro-4bH-isoquinolino[2,1-a]quinazoline
_symmetry_cell_setting           orthorhombic
_symmetry_space_group_name_H-M   'P n a 21'
_symmetry_Int_Tables_number      33
_space_group_name_Hall           'P 2c -2n'
loop_
_symmetry_equiv_pos_site_id
_symmetry_equiv_pos_as_xyz
1 x,y,z
2 -x,-y,1/2+z
3 1/2+x,1/2-y,z
4 1/2-x,1/2+y,1/2+z
_cell_length_a                   17.9781(14)
_cell_length_b                   15.6410(12)
_cell_length_c                   5.6180(4)
_cell_angle_alpha                90
_cell_angle_beta                 90
_cell_angle_gamma                90
_cell_volume                     1579.76
_exptl_crystal_colour            colorless
_exptl_crystal_description       rod
_chemical_melting_point          '139-141 deg.C'
_cell_formula_units_Z            4
loop_
_atom_site_label
_atom_site_type_symbol
_atom_site_fract_x
_atom_site_fract_y
_atom_site_fract_z
N1 N 0.20728(9) 0.31395(12) 0.4834(3)
N2 N 0.11158(9) 0.23518(11) 0.2734(3)
C1 C 0.12995(11) 0.31506(13) 0.3922(4)
H1 H 0.0961 0.3207 0.5326
C2 C 0.26119(11) 0.28663(14) 0.3176(4)
C3 C 0.33758(12) 0.30262(14) 0.3552(4)
H2 H 0.3530 0.3328 0.4935
C4 C 0.39034(13) 0.27478(15) 0.1925(5)
H3 H 0.4415 0.2860 0.2204
C5 C 0.36900(12) 0.23077(15) -0.0106(4)
H4 H 0.4051 0.2122 -0.1227
C6 C 0.29399(12) 0.21432(14) -0.0475(4)
H5 H 0.2790 0.1844 -0.1867
C7 C 0.24037(12) 0.24070(13) 0.1152(4)
C8 C 0.15977(12) 0.22231(14) 0.0645(4)
H6 H 0.1427 0.2601 -0.0660
H7 H 0.1549 0.1624 0.0095
C9 C 0.11610(11) 0.39138(13) 0.2313(4)
C10 C 0.05808(11) 0.39008(15) 0.0665(4)
H8 H 0.0263 0.3416 0.0594
C11 C 0.04583(12) 0.45778(15) -0.0868(4)
H9 H 0.0058 0.4562 -0.1969
C12 C 0.09315(13) 0.52844(14) -0.0775(4)
H10 H 0.0865 0.5746 -0.1852
C13 C 0.14958(12) 0.53095(14) 0.0884(4)
H11 H 0.1814 0.5794 0.0934
C14 C 0.16128(12) 0.46439(14) 0.2491(4)
C15 C 0.22189(12) 0.47042(14) 0.4366(5)
H12 H 0.2153 0.5240 0.5279
H13 H 0.2709 0.4731 0.3566
C16 C 0.22119(12) 0.39468(14) 0.6089(4)
H14 H 0.2697 0.3914 0.6920
H15 H 0.1820 0.4037 0.7302
C17 C 0.09850(11) 0.16423(14) 0.4253(4)
C18 C 0.13666(12) 0.08674(14) 0.4055(4)
H16 H 0.1755 0.0808 0.2920
C19 C 0.11783(12) 0.01832(14) 0.5518(5)
H17 H 0.1436 -0.0343 0.5351
C20 C 0.06239(13) 0.02536(15) 0.7210(4)
H18 H 0.0503 -0.0217 0.8208
C21 C 0.02483(12) 0.10206(15) 0.7424(4)
H19 H -0.0130 0.1079 0.8592
C22 C 0.04173(11) 0.17046(14) 0.5955(4)
H20 H 0.0145 0.2222 0.6102
loop_
_geom_bond_atom_site_label_1
_geom_bond_atom_site_label_2
_geom_bond_site_symmetry_1
_geom_bond_site_symmetry_2
N1 C1 1_555 1_555
N2 C1 1_555 1_555
C1 H1 1_555 1_555
C2 N1 1_555 1_555
C3 C2 1_555 1_555
H2 C3 1_555 1_555
C4 C3 1_555 1_555
H3 C4 1_555 1_555
C5 C4 1_555 1_555
H4 C5 1_555 1_555
C6 C5 1_555 1_555
H5 C6 1_555 1_555
C7 C2 1_555 1_555
C8 N2 1_555 1_555
H6 C8 1_555 1_555
H7 C8 1_555 1_555
C9 C1 1_555 1_555
C10 C9 1_555 1_555
H8 C10 1_555 1_555
C11 C10 1_555 1_555
H9 C11 1_555 1_555
C12 C11 1_555 1_555
H10 C12 1_555 1_555
C13 C12 1_555 1_555
H11 C13 1_555 1_555
C14 C9 1_555 1_555
C15 C14 1_555 1_555
H12 C15 1_555 1_555
H13 C15 1_555 1_555
C16 N1 1_555 1_555
H14 C16 1_555 1_555
H15 C16 1_555 1_555
C17 N2 1_555 1_555
C18 C17 1_555 1_555
H16 C18 1_555 1_555
C19 C18 1_555 1_555
H17 C19 1_555 1_555
C20 C19 1_555 1_555
H18 C20 1_555 1_555
C21 C20 1_555 1_555
H19 C21 1_555 1_555
C22 C17 1_555 1_555
H20 C22 1_555 1_555
C6 C7 1_555 1_555
C7 C8 1_555 1_555
C13 C14 1_555 1_555
C15 C16 1_555 1_555
C21 C22 1_555 1_555

#END
