
#######################################################################
#
#                 Cambridge Crystallographic Data Centre
#                                CCDC 
#
#######################################################################
#
# If this CIF has been generated from an entry in the Cambridge 
# Structural Database, then it will include bibliographic, chemical, 
# crystal, experimental, refinement or atomic coordinate data resulting 
# from the CCDC's data processing and validation procedures.
#
#######################################################################

data_HOPPIM
_chemical_formula_moiety         'C29 H34 O1'
_chemical_name_systematic        
2,7-Di-t-butyl-11c,11d-dimethyl-10,11,11c,11d-tetrahydro-9H-cyclopenta[e]pyren-9-one
_symmetry_cell_setting           triclinic
_symmetry_space_group_name_H-M   'P -1'
_symmetry_Int_Tables_number      2
_space_group_name_Hall           '-P 1'
loop_
_symmetry_equiv_pos_site_id
_symmetry_equiv_pos_as_xyz
1 x,y,z
2 -x,-y,-z
_cell_length_a                   9.685(4)
_cell_length_b                   10.666(4)
_cell_length_c                   12.406(5)
_cell_angle_alpha                112.859(7)
_cell_angle_beta                 91.953(8)
_cell_angle_gamma                103.258(8)
_cell_volume                     1138.53
_exptl_crystal_colour            brown
_exptl_crystal_description       plate
_cell_formula_units_Z            2
loop_
_atom_site_label
_atom_site_type_symbol
_atom_site_fract_x
_atom_site_fract_y
_atom_site_fract_z
C1 C -0.0650(3) 0.2332(3) 0.0871(2)
C2 C 0.0127(3) 0.2936(3) 0.0193(3)
H1 H -0.0227 0.2617 -0.0618
C3 C 0.1413(3) 0.3996(3) 0.0658(2)
C4 C 0.2264(3) 0.4577(3) -0.0014(3)
H2 H 0.1970 0.4235 -0.0838
C5 C 0.3529(3) 0.5641(3) 0.0495(3)
H3 H 0.4029 0.6055 0.0019
C6 C 0.4081(3) 0.6113(3) 0.1663(2)
C7 C 0.5313(3) 0.7232(3) 0.2229(3)
H4 H 0.5825 0.7664 0.1769
C8 C 0.5824(3) 0.7744(3) 0.3420(3)
C9 C 0.5051(3) 0.7122(3) 0.4121(3)
H5 H 0.5387 0.7482 0.4939
C10 C 0.3818(3) 0.6004(3) 0.3654(2)
C11 C 0.2984(3) 0.5406(3) 0.4331(2)
C12 C 0.3307(3) 0.5812(3) 0.5634(2)
C13 C 0.2106(3) 0.4790(3) 0.5895(2)
H6 H 0.2511 0.4189 0.6186
H7 H 0.1579 0.5322 0.6505
C14 C 0.1116(3) 0.3894(3) 0.4748(2)
C15 C 0.1721(3) 0.4321(3) 0.3815(2)
C16 C 0.1122(3) 0.3827(3) 0.2631(2)
C17 C -0.0111(3) 0.2767(3) 0.2076(2)
H8 H -0.0623 0.2307 0.2518
C18 C -0.2092(3) 0.1208(3) 0.0371(2)
C19 C -0.3254(3) 0.1808(3) 0.1044(3)
H9 H -0.3247 0.2704 0.0994
H10 H -0.3064 0.1966 0.1873
H11 H -0.4193 0.1138 0.0693
C20 C -0.2021(3) -0.0125(3) 0.0554(3)
H12 H -0.1329 -0.0554 0.0083
H13 H -0.2968 -0.0800 0.0305
H14 H -0.1721 0.0131 0.1391
C21 C -0.2515(3) 0.0792(3) -0.0950(3)
H15 H -0.2628 0.1619 -0.1073
H16 H -0.3421 0.0055 -0.1231
H17 H -0.1766 0.0437 -0.1390
C22 C 0.7119(3) 0.9043(3) 0.3962(3)
C23 C 0.8423(3) 0.8741(3) 0.3319(3)
H18 H 0.8716 0.7990 0.3459
H19 H 0.9218 0.9598 0.3622
H20 H 0.8162 0.8443 0.2470
C24 C 0.6737(3) 1.0292(3) 0.3805(3)
H21 H 0.5903 1.0484 0.4200
H22 H 0.6513 1.0057 0.2962
H23 H 0.7551 1.1129 0.4153
C25 C 0.7554(3) 0.9481(3) 0.5284(3)
H24 H 0.7793 0.8697 0.5407
H25 H 0.6756 0.9725 0.5714
H26 H 0.8389 1.0301 0.5578
C26 C 0.1786(4) 0.4745(4) 0.1981(3)
H27 H 0.3316 0.6875 0.6167
H28 H 0.4283 0.5582 0.5820
C27 C 0.1140(4) 0.6047(4) 0.2405(3)
H29 H 0.1572 0.6695 0.2052
H30 H 0.1341 0.6535 0.3267
H31 H 0.0102 0.5727 0.2162
C28 C 0.3434(4) 0.5216(4) 0.2305(3)
C29 C 0.4073(4) 0.3918(4) 0.1902(3)
H32 H 0.3834 0.3392 0.1044
H33 H 0.3672 0.3304 0.2294
H34 H 0.5117 0.4241 0.2114
O1 O 0.0007(2) 0.2993(2) 0.46306(18)
C30? C 0.2252(16) 0.4270(17) 0.1923(13)
C31? C 0.3339(16) 0.3300(16) 0.1742(13)
C32? C 0.2973(16) 0.5808(17) 0.2557(13)
C33? C 0.1925(15) 0.6741(16) 0.2755(13)
H35? H 0.0178 0.4034 0.4826
H36? H 0.1051 0.2913 0.4534
H37? H 0.3994 0.3638 0.2474
H38? H 0.3890 0.3346 0.1104
H39? H 0.2798 0.2323 0.1536
H40? H 0.1184 0.6462 0.3196
H41? H 0.1477 0.6624 0.1989
H42? H 0.2448 0.7731 0.3204
O2? O 0.4291(17) 0.669(2) 0.6322(17)
loop_
_geom_bond_atom_site_label_1
_geom_bond_atom_site_label_2
_geom_bond_site_symmetry_1
_geom_bond_site_symmetry_2
C1 C2 1_555 1_555
C2 H1 1_555 1_555
C3 C2 1_555 1_555
C4 C3 1_555 1_555
H2 C4 1_555 1_555
C5 C4 1_555 1_555
H3 C5 1_555 1_555
C6 C5 1_555 1_555
C7 C6 1_555 1_555
H4 C7 1_555 1_555
C8 C7 1_555 1_555
C9 C8 1_555 1_555
H5 C9 1_555 1_555
C10 C9 1_555 1_555
C11 C10 1_555 1_555
C12 C11 1_555 1_555
C13 C12 1_555 1_555
H6 C13 1_555 1_555
H7 C13 1_555 1_555
C14 C13 1_555 1_555
C15 C11 1_555 1_555
C16 C15 1_555 1_555
C17 C1 1_555 1_555
H8 C17 1_555 1_555
C18 C1 1_555 1_555
C19 C18 1_555 1_555
H9 C19 1_555 1_555
H10 C19 1_555 1_555
H11 C19 1_555 1_555
C20 C18 1_555 1_555
H12 C20 1_555 1_555
H13 C20 1_555 1_555
H14 C20 1_555 1_555
C21 C18 1_555 1_555
H15 C21 1_555 1_555
H16 C21 1_555 1_555
H17 C21 1_555 1_555
C22 C8 1_555 1_555
C23 C22 1_555 1_555
H18 C23 1_555 1_555
H19 C23 1_555 1_555
H20 C23 1_555 1_555
C24 C22 1_555 1_555
H21 C24 1_555 1_555
H22 C24 1_555 1_555
H23 C24 1_555 1_555
C25 C22 1_555 1_555
H24 C25 1_555 1_555
H25 C25 1_555 1_555
H26 C25 1_555 1_555
C26 C3 1_555 1_555
H27 C12 1_555 1_555
H28 C12 1_555 1_555
C27 C26 1_555 1_555
H29 C27 1_555 1_555
H30 C27 1_555 1_555
H31 C27 1_555 1_555
C28 C6 1_555 1_555
C29 C28 1_555 1_555
H32 C29 1_555 1_555
H33 C29 1_555 1_555
H34 C29 1_555 1_555
O1 C14 1_555 1_555
C10 C28 1_555 1_555
C14 C15 1_555 1_555
C16 C17 1_555 1_555
C16 C26 1_555 1_555
C26 C28 1_555 1_555

#END
