
#######################################################################
#
#                 Cambridge Crystallographic Data Centre
#                                CCDC 
#
#######################################################################
#
# If this CIF has been generated from an entry in the Cambridge 
# Structural Database, then it will include bibliographic, chemical, 
# crystal, experimental, refinement or atomic coordinate data resulting 
# from the CCDC's data processing and validation procedures.
#
#######################################################################

data_HOPPEI
_chemical_formula_moiety         'C29 H32 O1'
_chemical_name_systematic        
2,7-Di-t-butyl-11c,11d-dimethyl-11c,11d-dihydro-9H-cyclopenta[e]pyren-9-one
_symmetry_cell_setting           monoclinic
_symmetry_space_group_name_H-M   'P 21/c'
_symmetry_Int_Tables_number      14
_space_group_name_Hall           '-P 2ybc'
loop_
_symmetry_equiv_pos_site_id
_symmetry_equiv_pos_as_xyz
1 x,y,z
2 -x,1/2+y,1/2-z
3 -x,-y,-z
4 x,1/2-y,1/2+z
_cell_length_a                   15.109(3)
_cell_length_b                   6.1735(12)
_cell_length_c                   24.395(5)
_cell_angle_alpha                90
_cell_angle_beta                 91.535(4)
_cell_angle_gamma                90
_cell_volume                     2274.64
_exptl_crystal_colour            red
_exptl_crystal_description       needle
_chemical_melting_point          210deg.C.(dec.)
_cell_formula_units_Z            4
loop_
_atom_site_label
_atom_site_type_symbol
_atom_site_fract_x
_atom_site_fract_y
_atom_site_fract_z
C1 C 0.51027(13) 0.2768(4) 0.08743(9)
H1 H 0.5136 0.1182 0.0878
H2 H 0.5391 0.3344 0.1208
H3 H 0.5403 0.3326 0.0552
C2 C 0.37022(14) 0.2578(4) 0.03191(9)
H4 H 0.3742 0.0993 0.0321
H5 H 0.4016 0.3152 0.0004
H6 H 0.3079 0.3013 0.0293
C3 C 0.40603(16) 0.5965(4) 0.08402(10)
H7 H 0.4350 0.6521 0.0514
H8 H 0.4354 0.6558 0.1170
H9 H 0.3436 0.6400 0.0830
C4 C 0.41238(13) 0.3477(3) 0.08501(8)
C5 C 0.36643(12) 0.2642(3) 0.13618(8)
C6 C 0.29167(13) 0.1380(3) 0.13328(8)
H10 H 0.2675 0.0992 0.0983
C7 C 0.24938(12) 0.0637(3) 0.18101(8)
C8 C 0.17302(13) -0.0565(3) 0.18173(8)
C9 C 0.11747(14) -0.1442(4) 0.13530(9)
C10 C 0.04653(13) -0.2696(3) 0.16110(9)
H11 H 0.0005 -0.3444 0.1417
C11 C 0.05663(13) -0.2625(3) 0.21602(8)
C12 C 0.13410(12) -0.1295(3) 0.23167(8)
C13 C 0.16781(13) -0.0758(3) 0.28272(8)
C14 C 0.13647(13) -0.1520(3) 0.33328(8)
H12 H 0.0857 -0.2427 0.3330
C15 C 0.17634(13) -0.1003(3) 0.38266(8)
C16 C 0.14633(14) -0.1918(4) 0.43770(8)
C17 C 0.06512(15) -0.3370(4) 0.43139(9)
H13 H 0.0164 -0.2552 0.4139
H14 H 0.0474 -0.3870 0.4676
H15 H 0.0793 -0.4623 0.4086
C18 C 0.22319(15) -0.3240(4) 0.46337(9)
H16 H 0.2377 -0.4442 0.4389
H17 H 0.2056 -0.3817 0.4989
H18 H 0.2751 -0.2305 0.4686
C19 C 0.12283(14) -0.0029(4) 0.47601(9)
H19 H 0.1742 0.0931 0.4807
H20 H 0.1065 -0.0604 0.5118
H21 H 0.0730 0.0788 0.4599
C20 C 0.25263(13) 0.0392(3) 0.38324(8)
H22 H 0.2796 0.0753 0.4177
C21 C 0.28819(12) 0.1220(3) 0.33724(8)
C22 C 0.36526(13) 0.2552(3) 0.33722(8)
H23 H 0.3917 0.2975 0.3714
C23 C 0.40249(13) 0.3243(3) 0.28990(8)
H24 H 0.4527 0.4169 0.2922
C24 C 0.36819(12) 0.2614(3) 0.23708(8)
C25 C 0.40246(12) 0.3280(3) 0.18898(8)
H25 H 0.4525 0.4211 0.1903
C26 C 0.3003(2) 0.0771(5) 0.23609(12)
C27 C 0.35185(19) -0.1401(5) 0.24216(13)
H26 H 0.3915 -0.1570 0.2113
H27 H 0.3098 -0.2609 0.2424
H28 H 0.3868 -0.1392 0.2766
C28 C 0.2355(2) 0.1099(5) 0.28328(12)
C29 C 0.18490(19) 0.3248(5) 0.27755(13)
H29 H 0.1441 0.3395 0.3079
H30 H 0.1513 0.3265 0.2426
H31 H 0.2270 0.4456 0.2785
O1 O 0.12710(11) -0.1193(3) 0.08602(6)
H32 H 0.0185 -0.3342 0.2415
C30? C 0.2713(5) 0.1738(13) 0.2355(3)
C31? C 0.2048(4) 0.3646(11) 0.2420(3)
C32? C 0.2653(5) 0.0170(13) 0.2828(3)
C33? C 0.3336(4) -0.1743(11) 0.2759(3)
H33? H 0.2116 0.4679 0.2119
H34? H 0.2168 0.4378 0.2771
H35? H 0.1442 0.3080 0.2412
H36? H 0.3938 -0.1153 0.2750
H37? H 0.3201 -0.2516 0.2416
H38? H 0.3293 -0.2745 0.3069
H39? H 0.1261 -0.1231 0.0965
O2? O 0.0099(10) -0.352(3) 0.2467(5)
loop_
_geom_bond_atom_site_label_1
_geom_bond_atom_site_label_2
_geom_bond_site_symmetry_1
_geom_bond_site_symmetry_2
C1 H1 1_555 1_555
H2 C1 1_555 1_555
H3 C1 1_555 1_555
C2 H4 1_555 1_555
H5 C2 1_555 1_555
H6 C2 1_555 1_555
C3 H7 1_555 1_555
H8 C3 1_555 1_555
H9 C3 1_555 1_555
C4 C1 1_555 1_555
C5 C4 1_555 1_555
C6 C5 1_555 1_555
H10 C6 1_555 1_555
C7 C6 1_555 1_555
C8 C7 1_555 1_555
C9 C8 1_555 1_555
C10 C9 1_555 1_555
H11 C10 1_555 1_555
C11 C10 1_555 1_555
C12 C8 1_555 1_555
C13 C12 1_555 1_555
C14 C13 1_555 1_555
H12 C14 1_555 1_555
C15 C14 1_555 1_555
C16 C15 1_555 1_555
C17 C16 1_555 1_555
H13 C17 1_555 1_555
H14 C17 1_555 1_555
H15 C17 1_555 1_555
C18 C16 1_555 1_555
H16 C18 1_555 1_555
H17 C18 1_555 1_555
H18 C18 1_555 1_555
C19 C16 1_555 1_555
H19 C19 1_555 1_555
H20 C19 1_555 1_555
H21 C19 1_555 1_555
C20 C15 1_555 1_555
H22 C20 1_555 1_555
C21 C20 1_555 1_555
C22 C21 1_555 1_555
H23 C22 1_555 1_555
C23 C22 1_555 1_555
H24 C23 1_555 1_555
C24 C23 1_555 1_555
C25 C5 1_555 1_555
H25 C25 1_555 1_555
C26 C7 1_555 1_555
C27 C26 1_555 1_555
H26 C27 1_555 1_555
H27 C27 1_555 1_555
H28 C27 1_555 1_555
C28 C13 1_555 1_555
C29 C28 1_555 1_555
H29 C29 1_555 1_555
H30 C29 1_555 1_555
H31 C29 1_555 1_555
O1 C9 1_555 1_555
H32 C11 1_555 1_555
C2 C4 1_555 1_555
C3 C4 1_555 1_555
C11 C12 1_555 1_555
C21 C28 1_555 1_555
C24 C25 1_555 1_555
C24 C26 1_555 1_555
C26 C28 1_555 1_555

#END
