
#######################################################################
#
#                 Cambridge Crystallographic Data Centre
#                                CCDC 
#
#######################################################################
#
# If this CIF has been generated from an entry in the Cambridge 
# Structural Database, then it will include bibliographic, chemical, 
# crystal, experimental, refinement or atomic coordinate data resulting 
# from the CCDC's data processing and validation procedures.
#
#######################################################################

data_HOPTUB
_chemical_formula_moiety         'C26 H33 Li1 O2'
_chemical_name_systematic        
'(2,6-Diphenylphenyl)-bis(diethyl ether)-lithium'
_symmetry_cell_setting           monoclinic
_symmetry_space_group_name_H-M   'C 2/c'
_symmetry_Int_Tables_number      15
_space_group_name_Hall           '-C 2yn'
loop_
_symmetry_equiv_pos_site_id
_symmetry_equiv_pos_as_xyz
1 x,y,z
2 -x,y,1/2-z
3 1/2+x,1/2+y,z
4 1/2-x,1/2+y,1/2-z
5 -x,-y,-z
6 x,-y,1/2+z
7 1/2-x,1/2-y,-z
8 1/2+x,1/2-y,1/2+z
_cell_length_a                   14.633(4)
_cell_length_b                   13.965(3)
_cell_length_c                   12.569(3)
_cell_angle_alpha                90
_cell_angle_beta                 110.36(3)
_cell_angle_gamma                90
_cell_volume                     2408.01
_exptl_crystal_colour            colorless
_exptl_crystal_description       cubic
_chemical_melting_point          181deg.C
_cell_formula_units_Z            4
loop_
_atom_site_label
_atom_site_type_symbol
_atom_site_fract_x
_atom_site_fract_y
_atom_site_fract_z
O1 O 0.0027(2) 0.1626(2) 0.6183(2)
Li1 Li 0.0000 0.0913(6) 0.7500
C1 C 0.0000 -0.0595(3) 0.7500
C2 C -0.0859(3) -0.1139(2) 0.7010(2)
C3 C -0.0858(3) -0.2145(3) 0.6998(3)
C4 C 0.0000 -0.2641(4) 0.7500
C5 C -0.1811(3) -0.0646(2) 0.6488(3)
C6 C -0.2459(3) -0.0897(3) 0.5424(3)
C7 C -0.3343(4) -0.0434(4) 0.4958(4)
C8 C -0.3603(3) 0.0277(4) 0.5540(5)
C9 C -0.2978(3) 0.0534(3) 0.6587(4)
C10 C -0.2089(3) 0.0083(3) 0.7058(2)
C11 C -0.0611(3) 0.1207(3) 0.5118(3)
C12 C -0.1552(4) 0.1658(3) 0.4669(4)
C13 C 0.0505(4) 0.2459(4) 0.6059(5)
C14 C 0.1221(4) 0.2786(4) 0.7103(5)
H1 H -0.1437(3) -0.2477(3) 0.6652(3)
H2 H 0.0000 -0.3307(4) 0.7500
H3 H -0.2296(3) -0.1384(3) 0.5019(3)
H4 H -0.3764(3) -0.0610(4) 0.4242(4)
H5 H -0.4201(4) 0.0585(4) 0.5225(5)
H6 H -0.3153(3) 0.1018(4) 0.6988(4)
H7 H -0.1670(3) 0.0271(3) 0.7771(3)
H8 H -0.0293(3) 0.1253(3) 0.4560(3)
H9 H -0.0701(3) 0.0533(3) 0.5240(3)
H10 H -0.1932(3) 0.1350(3) 0.3973(4)
H11 H -0.1471(4) 0.2323(3) 0.4527(4)
H12 H -0.1880(4) 0.1603(3) 0.5208(4)
H13 H 0.0026(4) 0.2960(4) 0.5758(5)
H14 H 0.0823(4) 0.2343(4) 0.5511(5)
H15 H 0.1523(4) 0.3359(4) 0.6963(5)
H16 H 0.1707(4) 0.2300(4) 0.7398(5)
H17 H 0.0909(4) 0.2918(4) 0.7645(5)
O1A O -0.0027(2) 0.1626(2) 0.8817(2)
C11A C 0.0611(3) 0.1207(3) 0.9882(3)
C12A C 0.1552(4) 0.1658(3) 1.0331(4)
H10A H 0.1932(3) 0.1350(3) 1.1027(4)
H11A H 0.1471(4) 0.2323(3) 1.0473(4)
H12A H 0.1880(4) 0.1603(3) 0.9792(4)
H8A H 0.0293(3) 0.1253(3) 1.0440(3)
H9A H 0.0701(3) 0.0533(3) 0.9760(3)
C13A C -0.0505(4) 0.2459(4) 0.8941(5)
C14A C -0.1221(4) 0.2786(4) 0.7897(5)
H15A H -0.1523(4) 0.3359(4) 0.8037(5)
H16A H -0.1707(4) 0.2300(4) 0.7602(5)
H17A H -0.0909(4) 0.2918(4) 0.7355(5)
H13A H -0.0026(4) 0.2960(4) 0.9242(5)
H14A H -0.0823(4) 0.2343(4) 0.9489(5)
C3A C 0.0858(3) -0.2145(3) 0.8002(3)
C2A C 0.0859(3) -0.1139(2) 0.7990(2)
C5A C 0.1811(3) -0.0646(2) 0.8512(3)
C6A C 0.2459(3) -0.0897(3) 0.9576(3)
C7A C 0.3343(4) -0.0434(4) 1.0042(4)
C8A C 0.3603(3) 0.0277(4) 0.9460(5)
C9A C 0.2978(3) 0.0534(3) 0.8413(4)
C10A C 0.2089(3) 0.0083(3) 0.7942(2)
H7A H 0.1670(3) 0.0271(3) 0.7229(3)
H6A H 0.3153(3) 0.1018(4) 0.8012(4)
H5A H 0.4201(4) 0.0585(4) 0.9775(5)
H4A H 0.3764(3) -0.0610(4) 1.0758(4)
H3A H 0.2296(3) -0.1384(3) 0.9981(3)
H1A H 0.1437(3) -0.2477(3) 0.8348(3)
loop_
_geom_bond_atom_site_label_1
_geom_bond_atom_site_label_2
_geom_bond_site_symmetry_1
_geom_bond_site_symmetry_2
O1 Li1 1_555 1_555
Li1 C1 1_555 1_555
C1 C2 1_555 1_555
C2 C3 1_555 1_555
C3 C4 1_555 1_555
C4 H2 1_555 1_555
C5 C2 1_555 1_555
C6 C5 1_555 1_555
C7 C6 1_555 1_555
C8 C7 1_555 1_555
C9 C8 1_555 1_555
C10 C5 1_555 1_555
C11 O1 1_555 1_555
C12 C11 1_555 1_555
C13 O1 1_555 1_555
C14 C13 1_555 1_555
H1 C3 1_555 1_555
H3 C6 1_555 1_555
H4 C7 1_555 1_555
H5 C8 1_555 1_555
H6 C9 1_555 1_555
H7 C10 1_555 1_555
H8 C11 1_555 1_555
H9 C11 1_555 1_555
H10 C12 1_555 1_555
H11 C12 1_555 1_555
H12 C12 1_555 1_555
H13 C13 1_555 1_555
H14 C13 1_555 1_555
H15 C14 1_555 1_555
H16 C14 1_555 1_555
H17 C14 1_555 1_555
O1A Li1 1_555 1_555
C11A O1A 1_555 1_555
C12A C11A 1_555 1_555
H10A C12A 1_555 1_555
H11A C12A 1_555 1_555
H12A C12A 1_555 1_555
H8A C11A 1_555 1_555
H9A C11A 1_555 1_555
C13A O1A 1_555 1_555
C14A C13A 1_555 1_555
H15A C14A 1_555 1_555
H16A C14A 1_555 1_555
H17A C14A 1_555 1_555
H13A C13A 1_555 1_555
H14A C13A 1_555 1_555
C3A C4 1_555 1_555
C2A C1 1_555 1_555
C5A C2A 1_555 1_555
C6A C5A 1_555 1_555
C7A C6A 1_555 1_555
C8A C7A 1_555 1_555
C9A C8A 1_555 1_555
C10A C5A 1_555 1_555
H7A C10A 1_555 1_555
H6A C9A 1_555 1_555
H5A C8A 1_555 1_555
H4A C7A 1_555 1_555
H3A C6A 1_555 1_555
H1A C3A 1_555 1_555
C9 C10 1_555 1_555
C3A C2A 1_555 1_555
C9A C10A 1_555 1_555

#END
