
#######################################################################
#
#                 Cambridge Crystallographic Data Centre
#                                CCDC 
#
#######################################################################
#
# If this CIF has been generated from an entry in the Cambridge 
# Structural Database, then it will include bibliographic, chemical, 
# crystal, experimental, refinement or atomic coordinate data resulting 
# from the CCDC's data processing and validation procedures.
#
#######################################################################

data_HOQRIP
_chemical_formula_moiety         'C18 H16 O4'
_chemical_name_systematic        
'Dimethyl 3H-cyclopenta[a]naphthalen-2-ylmalonate'
_symmetry_cell_setting           monoclinic
_symmetry_space_group_name_H-M   'P 21'
_symmetry_Int_Tables_number      4
_space_group_name_Hall           'P 2yb'
loop_
_symmetry_equiv_pos_site_id
_symmetry_equiv_pos_as_xyz
1 x,y,z
2 -x,1/2+y,-z
_cell_length_a                   7.9159(16)
_cell_length_b                   6.2842(13)
_cell_length_c                   14.983(3)
_cell_angle_alpha                90
_cell_angle_beta                 93.66(3)
_cell_angle_gamma                90
_cell_volume                     743.811
_chemical_melting_point          '102-104 deg.C'
_cell_formula_units_Z            2
loop_
_atom_site_label
_atom_site_type_symbol
_atom_site_fract_x
_atom_site_fract_y
_atom_site_fract_z
O1 O 0.01009(15) 0.7023(2) 0.15695(8)
O2 O 0.17874(15) 0.43385(18) 0.11907(7)
O3 O 0.32289(14) 0.8997(2) 0.06013(7)
O4 O 0.55259(15) 0.8828(3) 0.15457(8)
C1 C 0.32932(17) 0.7762(2) 0.36755(9)
H1 H 0.3857 0.6508 0.3837
C2 C 0.27519(17) 0.9392(2) 0.42933(9)
C3 C 0.28778(18) 0.9444(2) 0.52423(9)
C4 C 0.35763(18) 0.7773(3) 0.57793(9)
H2 H 0.4044 0.6597 0.5511
C5 C 0.3570(2) 0.7874(3) 0.66952(10)
H3 H 0.4013 0.6755 0.7042
C6 C 0.2894(2) 0.9665(3) 0.71104(10)
H4 H 0.2893 0.9720 0.7731
C7 C 0.22407(19) 1.1324(3) 0.66098(11)
H5 H 0.1818 1.2507 0.6894
C8 C 0.21981(18) 1.1263(3) 0.56629(10)
C9 C 0.14514(19) 1.2932(3) 0.51347(11)
H6 H 0.1031 1.4123 0.5415
C10 C 0.13373(19) 1.2822(3) 0.42165(11)
H7 H 0.0837 1.3918 0.3877
C11 C 0.19879(18) 1.1031(2) 0.38024(10)
C12 C 0.1979(2) 1.0498(2) 0.28306(10)
H8 H 0.0832 1.0406 0.2564
H9 H 0.2601 1.1549 0.2509
C13 C 0.28381(18) 0.8381(2) 0.28299(9)
C14 C 0.31157(18) 0.7116(3) 0.20011(9)
H10 H 0.3875 0.5929 0.2168
C15 C 0.1470(2) 0.6194(3) 0.15712(10)
C16 C 0.0350(2) 0.3256(3) 0.07573(12)
H11 H -0.0639 0.3532 0.1078
H12 H 0.0564 0.1752 0.0751
H13 H 0.0168 0.3763 0.0154
C17 C 0.39254(19) 0.8424(3) 0.12882(10)
C18 C 0.6447(3) 1.0060(5) 0.09157(15)
H14 H 0.6420 0.9331 0.0352
H15 H 0.7601 1.0229 0.1144
H16 H 0.5930 1.1435 0.0835
loop_
_geom_bond_atom_site_label_1
_geom_bond_atom_site_label_2
_geom_bond_site_symmetry_1
_geom_bond_site_symmetry_2
O1 C15 1_555 1_555
O2 C15 1_555 1_555
O3 C17 1_555 1_555
O4 C17 1_555 1_555
C1 H1 1_555 1_555
C2 C1 1_555 1_555
C3 C2 1_555 1_555
C4 C3 1_555 1_555
H2 C4 1_555 1_555
C5 C4 1_555 1_555
H3 C5 1_555 1_555
C6 C5 1_555 1_555
H4 C6 1_555 1_555
C7 C6 1_555 1_555
H5 C7 1_555 1_555
C8 C3 1_555 1_555
C9 C8 1_555 1_555
H6 C9 1_555 1_555
C10 C9 1_555 1_555
H7 C10 1_555 1_555
C11 C2 1_555 1_555
C12 C11 1_555 1_555
H8 C12 1_555 1_555
H9 C12 1_555 1_555
C13 C1 1_555 1_555
C14 C13 1_555 1_555
H10 C14 1_555 1_555
C15 C14 1_555 1_555
C16 O2 1_555 1_555
H11 C16 1_555 1_555
H12 C16 1_555 1_555
H13 C16 1_555 1_555
C17 C14 1_555 1_555
C18 O4 1_555 1_555
H14 C18 1_555 1_555
H15 C18 1_555 1_555
H16 C18 1_555 1_555
C7 C8 1_555 1_555
C10 C11 1_555 1_555
C12 C13 1_555 1_555

#END
