
#######################################################################
#
#                 Cambridge Crystallographic Data Centre
#                                CCDC 
#
#######################################################################
#
# If this CIF has been generated from an entry in the Cambridge 
# Structural Database, then it will include bibliographic, chemical, 
# crystal, experimental, refinement or atomic coordinate data resulting 
# from the CCDC's data processing and validation procedures.
#
#######################################################################

data_HOQROV
_chemical_formula_moiety         'C15 H15 Cl1 O4'
_chemical_name_systematic        
'Dimethyl (7-chloro-3,4-dihydro-2-naphthalenyl)malonate'
_symmetry_cell_setting           orthorhombic
_symmetry_space_group_name_H-M   'P 21 21 21'
_symmetry_Int_Tables_number      19
_space_group_name_Hall           'P 2ac 2ab'
loop_
_symmetry_equiv_pos_site_id
_symmetry_equiv_pos_as_xyz
1 x,y,z
2 1/2-x,-y,1/2+z
3 -x,1/2+y,1/2-z
4 1/2+x,1/2-y,-z
_cell_length_a                   6.0675(12)
_cell_length_b                   7.6494(15)
_cell_length_c                   30.672(6)
_cell_angle_alpha                90
_cell_angle_beta                 90
_cell_angle_gamma                90
_cell_volume                     1423.57
_chemical_melting_point          '86-88 deg.C'
_cell_formula_units_Z            4
loop_
_atom_site_label
_atom_site_type_symbol
_atom_site_fract_x
_atom_site_fract_y
_atom_site_fract_z
Cl1 Cl 0.54183(10) 0.96864(7) 0.852201(15)
O1 O 0.2792(3) 1.1562(2) 0.55676(6)
O2 O 0.6295(2) 1.1191(2) 0.57755(4)
O3 O 0.0381(3) 0.7515(2) 0.59321(5)
O4 O 0.3242(3) 0.7315(2) 0.54686(5)
C1 C 0.3718(3) 0.9973(2) 0.80685(6)
C2 C 0.1635(4) 1.0688(2) 0.81270(7)
H1 H 0.1134 1.0986 0.8404
C3 C 0.0322(4) 1.0946(2) 0.77634(7)
H2 H -0.1074 1.1427 0.7799
C4 C 0.1037(3) 1.0504(2) 0.73459(7)
C5 C -0.0415(4) 1.0627(3) 0.69536(7)
H3 H -0.1446 1.1582 0.6995
H4 H -0.1265 0.9557 0.6930
C6 C 0.0808(4) 1.0916(3) 0.65313(7)
H5 H 0.1258 1.2130 0.6512
H6 H -0.0168 1.0672 0.6288
C7 C 0.2824(3) 0.9752(2) 0.65005(6)
C8 C 0.3891(3) 0.9270(2) 0.68588(6)
H7 H 0.5153 0.8589 0.6831
C9 C 0.3155(3) 0.9772(2) 0.72975(6)
C10 C 0.4478(3) 0.9502(2) 0.76598(6)
H8 H 0.5869 0.9006 0.7628
C11 C 0.3727(3) 0.9197(2) 0.60578(6)
H9 H 0.5133 0.8597 0.6107
C12 C 0.4171(3) 1.0784(3) 0.57681(6)
C13 C 0.6946(4) 1.2700(3) 0.55226(7)
H10 H 0.6213 1.3720 0.5633
H11 H 0.6546 1.2526 0.5223
H12 H 0.8513 1.2857 0.5544
C14 C 0.2201(4) 0.7940(3) 0.58196(7)
C15 C 0.2057(7) 0.6006(4) 0.52173(10)
H13 H 0.0587 0.6410 0.5161
H14 H 0.1998 0.4933 0.5379
H15 H 0.2805 0.5811 0.4946
loop_
_geom_bond_atom_site_label_1
_geom_bond_atom_site_label_2
_geom_bond_site_symmetry_1
_geom_bond_site_symmetry_2
Cl1 C1 1_555 1_555
O1 C12 1_555 1_555
O2 C12 1_555 1_555
O3 C14 1_555 1_555
O4 C14 1_555 1_555
C1 C2 1_555 1_555
C2 H1 1_555 1_555
C3 C2 1_555 1_555
H2 C3 1_555 1_555
C4 C3 1_555 1_555
C5 C4 1_555 1_555
H3 C5 1_555 1_555
H4 C5 1_555 1_555
C6 C5 1_555 1_555
H5 C6 1_555 1_555
H6 C6 1_555 1_555
C7 C6 1_555 1_555
C8 C7 1_555 1_555
H7 C8 1_555 1_555
C9 C4 1_555 1_555
C10 C1 1_555 1_555
H8 C10 1_555 1_555
C11 C7 1_555 1_555
H9 C11 1_555 1_555
C12 C11 1_555 1_555
C13 O2 1_555 1_555
H10 C13 1_555 1_555
H11 C13 1_555 1_555
H12 C13 1_555 1_555
C14 C11 1_555 1_555
C15 O4 1_555 1_555
H13 C15 1_555 1_555
H14 C15 1_555 1_555
H15 C15 1_555 1_555
C8 C9 1_555 1_555
C9 C10 1_555 1_555

#END
