
#######################################################################
#
#                 Cambridge Crystallographic Data Centre
#                                CCDC 
#
#######################################################################
#
# If this CIF has been generated from an entry in the Cambridge 
# Structural Database, then it will include bibliographic, chemical, 
# crystal, experimental, refinement or atomic coordinate data resulting 
# from the CCDC's data processing and validation procedures.
#
#######################################################################

data_HOQTEO
_chemical_formula_moiety         'C16 H15 N3'
_chemical_name_systematic        4-phenyl-1-(1-phenylethyl)-1H-1,2,3-triazole
_symmetry_cell_setting           monoclinic
_symmetry_space_group_name_H-M   'P 21'
_symmetry_Int_Tables_number      4
_space_group_name_Hall           'P 2yb'
loop_
_symmetry_equiv_pos_site_id
_symmetry_equiv_pos_as_xyz
1 x,y,z
2 -x,1/2+y,-z
_cell_length_a                   8.4291(5)
_cell_length_b                   5.7047(3)
_cell_length_c                   14.0398(8)
_cell_angle_alpha                90
_cell_angle_beta                 98.691(6)
_cell_angle_gamma                90
_cell_volume                     667.359
_exptl_crystal_colour            colorless
_exptl_crystal_description       needle
_cell_formula_units_Z            2
loop_
_atom_site_label
_atom_site_type_symbol
_atom_site_fract_x
_atom_site_fract_y
_atom_site_fract_z
C1 C 0.56900(19) 0.6327(3) 0.32198(13)
N1 N 0.5590(2) 0.4300(3) 0.27031(13)
N2 N 0.4641(2) 0.4626(3) 0.18844(13)
C2 C 0.66560(19) 0.6507(3) 0.41767(12)
C3 C 0.6505(2) 0.8413(4) 0.47632(14)
H1 H 0.5796 0.9612 0.4543
C4 C 0.7388(2) 0.8564(4) 0.56672(15)
H2 H 0.7272 0.9860 0.6053
C5 C 0.8443(3) 0.6803(4) 0.60049(16)
H3 H 0.9032 0.6896 0.6620
C6 C 0.8617(3) 0.4904(4) 0.54235(17)
H4 H 0.9338 0.3719 0.5645
C7 C 0.7737(2) 0.4747(4) 0.45218(16)
H5 H 0.7862 0.3453 0.4137
C8 C 0.47556(19) 0.7962(3) 0.26835(12)
H6 H 0.4588 0.9510 0.2851
N3 N 0.41321(16) 0.6861(3) 0.18652(10)
C9 C 0.3063(2) 0.7736(3) 0.10207(12)
H7 H 0.2828 0.6411 0.0578
C10 C 0.3936(3) 0.9559(4) 0.05058(14)
H8 H 0.4097 1.0950 0.0893
H9 H 0.3307 0.9931 -0.0104
H10 H 0.4958 0.8947 0.0402
C11 C 0.1478(2) 0.8509(3) 0.13100(11)
C12 C 0.0703(2) 0.7033(4) 0.18695(14)
H11 H 0.1181 0.5616 0.2077
C13 C -0.0760(3) 0.7611(5) 0.21275(18)
H12 H -0.1269 0.6579 0.2495
C14 C -0.1467(2) 0.9725(5) 0.18387(18)
H13 H -0.2447 1.0140 0.2018
C15 C -0.0714(3) 1.1202(5) 0.12873(17)
H14 H -0.1191 1.2624 0.1087
C16 C 0.0744(3) 1.0612(4) 0.10238(14)
H15 H 0.1241 1.1643 0.0649
loop_
_geom_bond_atom_site_label_1
_geom_bond_atom_site_label_2
_geom_bond_site_symmetry_1
_geom_bond_site_symmetry_2
C1 N1 1_555 1_555
N1 N2 1_555 1_555
N2 N3 1_555 1_555
C2 C1 1_555 1_555
C3 C2 1_555 1_555
H1 C3 1_555 1_555
C4 C3 1_555 1_555
H2 C4 1_555 1_555
C5 C4 1_555 1_555
H3 C5 1_555 1_555
C6 C5 1_555 1_555
H4 C6 1_555 1_555
C7 C2 1_555 1_555
H5 C7 1_555 1_555
C8 C1 1_555 1_555
H6 C8 1_555 1_555
N3 C8 1_555 1_555
C9 N3 1_555 1_555
H7 C9 1_555 1_555
C10 C9 1_555 1_555
H8 C10 1_555 1_555
H9 C10 1_555 1_555
H10 C10 1_555 1_555
C11 C9 1_555 1_555
C12 C11 1_555 1_555
H11 C12 1_555 1_555
C13 C12 1_555 1_555
H12 C13 1_555 1_555
C14 C13 1_555 1_555
H13 C14 1_555 1_555
C15 C14 1_555 1_555
H14 C15 1_555 1_555
C16 C11 1_555 1_555
H15 C16 1_555 1_555
C6 C7 1_555 1_555
C15 C16 1_555 1_555

#END
