
#######################################################################
#
#                 Cambridge Crystallographic Data Centre
#                                CCDC 
#
#######################################################################
#
# If this CIF has been generated from an entry in the Cambridge 
# Structural Database, then it will include bibliographic, chemical, 
# crystal, experimental, refinement or atomic coordinate data resulting 
# from the CCDC's data processing and validation procedures.
#
#######################################################################

data_HOQVIT
_chemical_name_common            
4-phenyl-2-(4-(4-phenyl-5-(1-phenylvinyl)-2H-1,2,3-triazol-2-yl)phenyl)-5-(1-phenylvinyl)-2H-1,2,3-triazole
_chemical_formula_moiety         'C38 H28 N6'
_chemical_name_systematic        
2,2'-(1,4-Phenylene)bis(4-phenyl-5-(1-phenylvinyl)-2H-1,2,3-triazole)
_symmetry_cell_setting           monoclinic
_symmetry_space_group_name_H-M   'C 2/c'
_symmetry_Int_Tables_number      15
_space_group_name_Hall           '-C 2yn'
loop_
_symmetry_equiv_pos_site_id
_symmetry_equiv_pos_as_xyz
1 x,y,z
2 -x,y,1/2-z
3 1/2+x,1/2+y,z
4 1/2-x,1/2+y,1/2-z
5 -x,-y,-z
6 x,-y,1/2+z
7 1/2-x,1/2-y,-z
8 1/2+x,1/2-y,1/2+z
_cell_length_a                   19.571(2)
_cell_length_b                   5.6984(6)
_cell_length_c                   26.640(3)
_cell_angle_alpha                90
_cell_angle_beta                 93.686(2)
_cell_angle_gamma                90
_cell_volume                     2964.84
_exptl_crystal_colour            colorless
_chemical_melting_point          '177-179 deg.C'
_cell_formula_units_Z            4
loop_
_atom_site_label
_atom_site_type_symbol
_atom_site_fract_x
_atom_site_fract_y
_atom_site_fract_z
N1 N 0.14439(8) 0.7571(2) 0.44905(5)
N2 N 0.20232(8) 0.8700(2) 0.44113(5)
N3 N 0.23473(8) 0.7989(2) 0.40095(5)
C1 C 0.13811(9) 0.6005(3) 0.41153(6)
C2 C 0.19496(9) 0.6274(3) 0.38145(6)
C3 C 0.21412(9) 0.5015(3) 0.33558(6)
C4 C 0.27138(11) 0.3800(4) 0.33695(8)
H1 H 0.2994 0.3735 0.3664
H2 H 0.2838 0.3006 0.3084
C5 C 0.16783(9) 0.5242(3) 0.28940(6)
C6 C 0.16531(12) 0.3522(3) 0.25227(8)
H3 H 0.1926 0.2191 0.2566
C7 C 0.12283(14) 0.3764(4) 0.20911(9)
H4 H 0.1220 0.2599 0.1846
C8 C 0.08204(12) 0.5693(4) 0.20200(9)
H5 H 0.0527 0.5827 0.1733
C9 C 0.08475(11) 0.7433(4) 0.23767(8)
H6 H 0.0580 0.8773 0.2327
C10 C 0.12715(10) 0.7202(3) 0.28104(7)
H7 H 0.1283 0.8390 0.3050
C11 C 0.07981(9) 0.4366(3) 0.40787(6)
C12 C 0.08079(10) 0.2357(3) 0.37847(7)
H8 H 0.1185 0.2052 0.3600
C13 C 0.02645(11) 0.0805(3) 0.37628(8)
H9 H 0.0278 -0.0528 0.3562
C14 C -0.02928(11) 0.1219(4) 0.40345(8)
H10 H -0.0656 0.0164 0.4021
C15 C -0.03140(11) 0.3198(4) 0.43272(8)
H11 H -0.0692 0.3481 0.4513
C16 C 0.02263(10) 0.4774(3) 0.43474(7)
H12 H 0.0205 0.6120 0.4543
C17 C 0.18518(10) 1.1598(3) 0.50590(7)
H13 H 0.1417 1.0992 0.5097
C18 C 0.22667(9) 1.0621(3) 0.47151(6)
C19 C 0.29125(10) 1.1519(3) 0.46543(7)
H14 H 0.3188 1.0854 0.4420
N1F N 0.35561(8) 1.7429(2) 0.55095(5)
N2F N 0.29768(8) 1.6300(2) 0.55887(5)
N3F N 0.26527(8) 1.7011(2) 0.59905(5)
C1F C 0.36189(9) 1.8995(3) 0.58847(6)
C2F C 0.30504(9) 1.8726(3) 0.61855(6)
C3F C 0.28588(9) 1.9985(3) 0.66442(6)
C4F C 0.22862(11) 2.1200(4) 0.66305(8)
H1F H 0.2006 2.1265 0.6336
H2F H 0.2162 2.1994 0.6916
C5F C 0.33217(9) 1.9758(3) 0.71060(6)
C6F C 0.33469(12) 2.1478(3) 0.74773(8)
H3F H 0.3074 2.2809 0.7434
C7F C 0.37717(14) 2.1236(4) 0.79089(9)
H4F H 0.3780 2.2401 0.8154
C8F C 0.41796(12) 1.9307(4) 0.79800(9)
H5F H 0.4473 1.9173 0.8267
C9F C 0.41525(11) 1.7567(4) 0.76233(8)
H6F H 0.4420 1.6227 0.7673
C10F C 0.37285(10) 1.7798(3) 0.71896(7)
H7F H 0.3717 1.6610 0.6950
C11F C 0.42019(9) 2.0634(3) 0.59213(6)
C12F C 0.41921(10) 2.2643(3) 0.62153(7)
H8F H 0.3815 2.2948 0.6400
C13F C 0.47355(11) 2.4195(3) 0.62372(8)
H9F H 0.4722 2.5528 0.6438
C14F C 0.52928(11) 2.3781(4) 0.59655(8)
H10F H 0.5656 2.4836 0.5979
C15F C 0.53140(11) 2.1802(4) 0.56728(8)
H11F H 0.5692 2.1519 0.5487
C16F C 0.47737(10) 2.0226(3) 0.56526(7)
H12F H 0.4795 1.8880 0.5457
C17F C 0.31482(10) 1.3402(3) 0.49410(7)
H13F H 0.3583 1.4008 0.4903
C18F C 0.27333(9) 1.4379(3) 0.52849(6)
C19F C 0.20875(10) 1.3481(3) 0.53457(7)
H14F H 0.1812 1.4146 0.5580
loop_
_geom_bond_atom_site_label_1
_geom_bond_atom_site_label_2
_geom_bond_site_symmetry_1
_geom_bond_site_symmetry_2
N1 N2 1_555 1_555
N2 N3 1_555 1_555
N3 C2 1_555 1_555
C1 N1 1_555 1_555
C2 C1 1_555 1_555
C3 C2 1_555 1_555
C4 C3 1_555 1_555
H1 C4 1_555 1_555
H2 C4 1_555 1_555
C5 C3 1_555 1_555
C6 C5 1_555 1_555
H3 C6 1_555 1_555
C7 C6 1_555 1_555
H4 C7 1_555 1_555
C8 C7 1_555 1_555
H5 C8 1_555 1_555
C9 C8 1_555 1_555
H6 C9 1_555 1_555
C10 C5 1_555 1_555
H7 C10 1_555 1_555
C11 C1 1_555 1_555
C12 C11 1_555 1_555
H8 C12 1_555 1_555
C13 C12 1_555 1_555
H9 C13 1_555 1_555
C14 C13 1_555 1_555
H10 C14 1_555 1_555
C15 C14 1_555 1_555
H11 C15 1_555 1_555
C16 C11 1_555 1_555
H12 C16 1_555 1_555
C17 H13 1_555 1_555
C18 N2 1_555 1_555
C19 C18 1_555 1_555
H14 C19 1_555 1_555
N1F N2F 1_555 1_555
N2F N3F 1_555 1_555
N3F C2F 1_555 1_555
C1F N1F 1_555 1_555
C2F C1F 1_555 1_555
C3F C2F 1_555 1_555
C4F C3F 1_555 1_555
H1F C4F 1_555 1_555
H2F C4F 1_555 1_555
C5F C3F 1_555 1_555
C6F C5F 1_555 1_555
H3F C6F 1_555 1_555
C7F C6F 1_555 1_555
H4F C7F 1_555 1_555
C8F C7F 1_555 1_555
H5F C8F 1_555 1_555
C9F C8F 1_555 1_555
H6F C9F 1_555 1_555
C10F C5F 1_555 1_555
H7F C10F 1_555 1_555
C11F C1F 1_555 1_555
C12F C11F 1_555 1_555
H8F C12F 1_555 1_555
C13F C12F 1_555 1_555
H9F C13F 1_555 1_555
C14F C13F 1_555 1_555
H10F C14F 1_555 1_555
C15F C14F 1_555 1_555
H11F C15F 1_555 1_555
C16F C11F 1_555 1_555
H12F C16F 1_555 1_555
C17F C19 1_555 1_555
H13F C17F 1_555 1_555
C18F N2F 1_555 1_555
C19F C17 1_555 1_555
H14F C19F 1_555 1_555
C9 C10 1_555 1_555
C15 C16 1_555 1_555
C17 C18 1_555 1_555
C9F C10F 1_555 1_555
C15F C16F 1_555 1_555
C17F C18F 1_555 1_555
C18F C19F 1_555 1_555

#END
