
#######################################################################
#
#                 Cambridge Crystallographic Data Centre
#                                CCDC 
#
#######################################################################
#
# If this CIF has been generated from an entry in the Cambridge 
# Structural Database, then it will include bibliographic, chemical, 
# crystal, experimental, refinement or atomic coordinate data resulting 
# from the CCDC's data processing and validation procedures.
#
#######################################################################

data_HOQVEP
_chemical_formula_moiety         'C20 H14 N4 O1'
_chemical_name_systematic        
Phenyl(5-phenyl-2-(2-pyridinyl)-2H-1,2,3-triazol-4-yl)methanone
_symmetry_cell_setting           orthorhombic
_symmetry_space_group_name_H-M   'P b c a'
_symmetry_Int_Tables_number      61
_space_group_name_Hall           '-P 2ac 2ab'
loop_
_symmetry_equiv_pos_site_id
_symmetry_equiv_pos_as_xyz
1 x,y,z
2 1/2-x,-y,1/2+z
3 -x,1/2+y,1/2-z
4 1/2+x,1/2-y,-z
5 -x,-y,-z
6 1/2+x,y,1/2-z
7 x,1/2-y,1/2+z
8 1/2-x,1/2+y,z
_cell_length_a                   38.946(3)
_cell_length_b                   10.7963(8)
_cell_length_c                   7.8297(6)
_cell_angle_alpha                90
_cell_angle_beta                 90
_cell_angle_gamma                90
_cell_volume                     3292.18
_exptl_crystal_colour            colorless
_chemical_melting_point          '133-135 deg.C'
_cell_formula_units_Z            8
loop_
_atom_site_label
_atom_site_type_symbol
_atom_site_fract_x
_atom_site_fract_y
_atom_site_fract_z
O1 O 0.68630(3) 0.24502(13) 0.0684(2)
N1 N 0.58015(3) 0.22402(13) 0.19341(19)
N2 N 0.58372(3) 0.10112(13) 0.18445(19)
N3 N 0.61585(3) 0.05934(13) 0.17094(19)
N4 N 0.52872(4) 0.04996(17) 0.2763(2)
C1 C 0.61238(4) 0.26640(16) 0.1834(2)
C2 C 0.63467(4) 0.16319(15) 0.1715(2)
C3 C 0.67231(4) 0.15798(16) 0.1393(2)
C4 C 0.69181(4) 0.04315(16) 0.1834(2)
C5 C 0.68250(4) -0.03611(17) 0.3148(2)
H1 H 0.6629 -0.0199 0.3792
C6 C 0.70229(5) -0.13905(18) 0.3500(3)
H2 H 0.6963 -0.1910 0.4399
C7 C 0.73093(5) -0.16560(19) 0.2530(3)
H3 H 0.7437 -0.2367 0.2751
C8 C 0.74061(5) -0.0866(2) 0.1233(3)
H4 H 0.7602 -0.1034 0.0591
C9 C 0.72124(4) 0.0174(2) 0.0890(3)
H5 H 0.7279 0.0709 0.0020
C10 C 0.61869(4) 0.40145(16) 0.1827(2)
C11 C 0.64786(5) 0.45420(18) 0.2539(3)
H6 H 0.6647 0.4038 0.3011
C12 C 0.65195(7) 0.5813(2) 0.2548(3)
H7 H 0.6713 0.6157 0.3057
C13 C 0.62810(7) 0.6568(2) 0.1822(3)
H8 H 0.6311 0.7423 0.1833
C14 C 0.59918(7) 0.6053(2) 0.1064(4)
H9 H 0.5830 0.6564 0.0548
C15 C 0.59426(5) 0.47829(18) 0.1072(3)
H10 H 0.5747 0.4443 0.0575
C16 C 0.55491(4) 0.01808(16) 0.1794(2)
C17 C 0.55641(5) -0.08388(18) 0.0746(3)
H11 H 0.5756 -0.1011 0.0080
C18 C 0.52742(6) -0.1602(2) 0.0742(4)
H12 H 0.5268 -0.2306 0.0059
C19 C 0.49985(6) -0.1303(2) 0.1754(4)
H13 H 0.4805 -0.1805 0.1782
C20 C 0.50153(6) -0.0266(3) 0.2703(3)
H14 H 0.4825 -0.0065 0.3366
loop_
_geom_bond_atom_site_label_1
_geom_bond_atom_site_label_2
_geom_bond_site_symmetry_1
_geom_bond_site_symmetry_2
O1 C3 1_555 1_555
N1 N2 1_555 1_555
N2 N3 1_555 1_555
N3 C2 1_555 1_555
N4 C16 1_555 1_555
C1 N1 1_555 1_555
C2 C1 1_555 1_555
C3 C2 1_555 1_555
C4 C3 1_555 1_555
C5 C4 1_555 1_555
H1 C5 1_555 1_555
C6 C5 1_555 1_555
H2 C6 1_555 1_555
C7 C6 1_555 1_555
H3 C7 1_555 1_555
C8 C7 1_555 1_555
H4 C8 1_555 1_555
C9 C4 1_555 1_555
H5 C9 1_555 1_555
C10 C1 1_555 1_555
C11 C10 1_555 1_555
H6 C11 1_555 1_555
C12 C11 1_555 1_555
H7 C12 1_555 1_555
C13 C12 1_555 1_555
H8 C13 1_555 1_555
C14 C13 1_555 1_555
H9 C14 1_555 1_555
C15 C10 1_555 1_555
H10 C15 1_555 1_555
C16 N2 1_555 1_555
C17 C16 1_555 1_555
H11 C17 1_555 1_555
C18 C17 1_555 1_555
H12 C18 1_555 1_555
C19 C18 1_555 1_555
H13 C19 1_555 1_555
C20 N4 1_555 1_555
H14 C20 1_555 1_555
C8 C9 1_555 1_555
C14 C15 1_555 1_555
C19 C20 1_555 1_555

#END
