
#######################################################################
#
#                 Cambridge Crystallographic Data Centre
#                                CCDC 
#
#######################################################################
#
# If this CIF has been generated from an entry in the Cambridge 
# Structural Database, then it will include bibliographic, chemical, 
# crystal, experimental, refinement or atomic coordinate data resulting 
# from the CCDC's data processing and validation procedures.
#
#######################################################################

data_HOQXES
_chemical_formula_moiety         'C31 H48 B1 Cl3 N3 P1,0.54(C6 H14)'
_chemical_name_systematic        
'1,3-bis(2,6-diisopropylphenyl)-N,N-diisopropyl-4-(trichloro-boranyl)-1,3,2-diazaphosphetidin-2-amine n-hexane solvate'
_symmetry_cell_setting           monoclinic
_symmetry_space_group_name_H-M   'P 21/n'
_symmetry_Int_Tables_number      14
_space_group_name_Hall           '-P 2yn'
loop_
_symmetry_equiv_pos_site_id
_symmetry_equiv_pos_as_xyz
1 x,y,z
2 1/2-x,1/2+y,1/2-z
3 -x,-y,-z
4 1/2+x,1/2-y,1/2+z
_cell_length_a                   10.314(4)
_cell_length_b                   18.597(10)
_cell_length_c                   19.160(11)
_cell_angle_alpha                90
_cell_angle_beta                 99.535(19)
_cell_angle_gamma                90
_cell_volume                     3624.3
_exptl_crystal_colour            colorless
_exptl_crystal_description       block
_cell_formula_units_Z            4
_chemical_properties_physical    'Air-sensitive, Moisture-sensitive'
loop_
_atom_site_label
_atom_site_type_symbol
_atom_site_fract_x
_atom_site_fract_y
_atom_site_fract_z
B1 B -0.1943(4) 0.2564(3) 0.2764(2)
C1 C -0.0411(4) 0.2308(2) 0.29572(18)
C2 C 0.0523(4) 0.2927(2) 0.41439(18)
C3 C 0.0752(4) 0.3666(2) 0.42023(19)
C4 C 0.0807(4) 0.4167(2) 0.3576(2)
H1 H 0.0952 0.3872 0.3160
C5 C 0.1919(5) 0.4724(2) 0.3735(2)
H2 H 0.1653 0.5106 0.4035
H3 H 0.2096 0.4932 0.3291
H4 H 0.2715 0.4489 0.3982
C6 C -0.0513(4) 0.4561(2) 0.3392(2)
H5 H -0.1227 0.4208 0.3302
H6 H -0.0511 0.4854 0.2967
H7 H -0.0644 0.4871 0.3787
C7 C 0.0822(4) 0.3981(2) 0.4873(2)
H8 H 0.0961 0.4485 0.4921
C8 C 0.0695(5) 0.3582(2) 0.5464(2)
H9 H 0.0781 0.3805 0.5915
C9 C 0.0446(4) 0.2863(2) 0.5393(2)
H10 H 0.0338 0.2592 0.5800
C10 C 0.0344(4) 0.2514(2) 0.47421(19)
C11 C 0.0010(4) 0.1726(2) 0.4709(2)
H11 H -0.0132 0.1580 0.4200
C12 C 0.1140(5) 0.1271(2) 0.5100(2)
H12 H 0.1953 0.1387 0.4922
H13 H 0.0936 0.0760 0.5020
H14 H 0.1254 0.1374 0.5608
C13 C -0.1271(5) 0.1571(3) 0.4995(2)
H15 H -0.1127 0.1651 0.5508
H16 H -0.1534 0.1071 0.4894
H17 H -0.1966 0.1893 0.4767
C14 C -0.0222(4) 0.1250(2) 0.21224(19)
C15 C -0.0235(4) 0.1349(2) 0.13942(19)
C16 C 0.0170(4) 0.2040(2) 0.1072(2)
H18 H 0.0571 0.2367 0.1463
C17 C -0.1045(5) 0.2415(3) 0.0649(2)
H19 H -0.1414 0.2115 0.0245
H20 H -0.0786 0.2882 0.0479
H21 H -0.1707 0.2487 0.0955
C18 C 0.1178(5) 0.1908(3) 0.0583(2)
H22 H 0.1922 0.1636 0.0838
H23 H 0.1490 0.2370 0.0430
H24 H 0.0767 0.1634 0.0168
C19 C -0.0664(4) 0.0774(3) 0.0943(2)
H25 H -0.0690 0.0830 0.0448
C20 C -0.1048(5) 0.0133(3) 0.1194(2)
H26 H -0.1347 -0.0247 0.0876
C21 C -0.0995(4) 0.0043(2) 0.1916(2)
H27 H -0.1247 -0.0406 0.2089
C22 C -0.0582(4) 0.0594(2) 0.23933(19)
C23 C -0.0551(4) 0.0446(2) 0.3175(2)
H28 H -0.0280 0.0900 0.3439
C24 C 0.0469(5) -0.0134(3) 0.3445(2)
H29 H 0.0200 -0.0594 0.3215
H30 H 0.0530 -0.0186 0.3959
H31 H 0.1328 0.0006 0.3335
C25 C -0.1904(4) 0.0227(3) 0.3344(2)
H32 H -0.2551 0.0599 0.3172
H33 H -0.1848 0.0172 0.3857
H34 H -0.2175 -0.0231 0.3110
C26 C 0.2947(4) 0.2872(2) 0.2652(2)
H35 H 0.2023 0.3054 0.2538
C27 C 0.3748(4) 0.3421(2) 0.3137(2)
H36 H 0.3432 0.3435 0.3592
H37 H 0.3648 0.3898 0.2917
H38 H 0.4677 0.3283 0.3215
C28 C 0.3466(4) 0.2787(3) 0.1960(2)
H39 H 0.4424 0.2731 0.2059
H40 H 0.3239 0.3213 0.1665
H41 H 0.3071 0.2360 0.1710
C29 C 0.4199(4) 0.1773(2) 0.3206(2)
H42 H 0.4879 0.2065 0.3018
C30 C 0.4651(4) 0.1698(2) 0.3996(2)
H43 H 0.4725 0.2176 0.4215
H44 H 0.5510 0.1459 0.4084
H45 H 0.4012 0.1411 0.4201
C31 C 0.4095(4) 0.1063(3) 0.2816(2)
H46 H 0.3483 0.0747 0.3010
H47 H 0.4963 0.0835 0.2873
H48 H 0.3773 0.1146 0.2312
Cl1 Cl -0.19297(11) 0.33223(6) 0.21402(5)
Cl2 Cl -0.29886(9) 0.18389(6) 0.23249(5)
Cl3 Cl -0.25639(9) 0.28615(6) 0.35702(5)
N1 N 0.0567(3) 0.25501(17) 0.34771(15)
N2 N 0.0243(3) 0.18352(17) 0.26128(15)
N3 N 0.2924(3) 0.21790(18) 0.30393(16)
P1 P 0.16508(9) 0.18357(6) 0.33182(5)
C32 C 0.5853(9) 0.0905(5) 0.6433(5)
H49 H 0.6582 0.0588 0.6629
H50 H 0.5406 0.1075 0.6815
H51 H 0.6194 0.1317 0.6201
C33 C 0.4868(8) 0.0485(4) 0.5885(4)
H52 H 0.4506 0.0078 0.6125
H53 H 0.4129 0.0806 0.5692
C34 C 0.5503(9) 0.0199(5) 0.5280(4)
H54 H 0.6221 -0.0136 0.5471
H55 H 0.5893 0.0604 0.5052
C32B C 0.4147(9) -0.0905(5) 0.3567(5)
H49B H 0.3418 -0.0588 0.3371
H50B H 0.4594 -0.1075 0.3185
H51B H 0.3806 -0.1317 0.3799
C33B C 0.5132(8) -0.0485(4) 0.4115(4)
H52B H 0.5494 -0.0078 0.3875
H53B H 0.5871 -0.0806 0.4308
C34B C 0.4497(9) -0.0199(5) 0.4720(4)
H54B H 0.3779 0.0136 0.4529
H55B H 0.4107 -0.0604 0.4948
C35? C 0.6278(17) 0.0741(10) 0.6085(10)
H56? H 0.5811 0.1190 0.6143
H57? H 0.7159 0.0850 0.5986
H58? H 0.6351 0.0457 0.6521
C36? C 0.5639(19) 0.0381(10) 0.5569(9)
C37? C 0.6325(13) 0.0046(6) 0.5084(7)
H59? H 0.7254 0.0089 0.5138
C38? C 0.4340(13) 0.0340(7) 0.5462(7)
H60? H 0.3864 0.0584 0.5774
loop_
_geom_bond_atom_site_label_1
_geom_bond_atom_site_label_2
_geom_bond_site_symmetry_1
_geom_bond_site_symmetry_2
B1 C1 1_555 1_555
C1 N1 1_555 1_555
C2 C3 1_555 1_555
C3 C4 1_555 1_555
C4 H1 1_555 1_555
C5 C4 1_555 1_555
H2 C5 1_555 1_555
H3 C5 1_555 1_555
H4 C5 1_555 1_555
C6 C4 1_555 1_555
H5 C6 1_555 1_555
H6 C6 1_555 1_555
H7 C6 1_555 1_555
C7 C3 1_555 1_555
H8 C7 1_555 1_555
C8 C7 1_555 1_555
H9 C8 1_555 1_555
C9 C8 1_555 1_555
H10 C9 1_555 1_555
C10 C2 1_555 1_555
C11 C10 1_555 1_555
H11 C11 1_555 1_555
C12 C11 1_555 1_555
H12 C12 1_555 1_555
H13 C12 1_555 1_555
H14 C12 1_555 1_555
C13 C11 1_555 1_555
H15 C13 1_555 1_555
H16 C13 1_555 1_555
H17 C13 1_555 1_555
C14 C15 1_555 1_555
C15 C16 1_555 1_555
C16 H18 1_555 1_555
C17 C16 1_555 1_555
H19 C17 1_555 1_555
H20 C17 1_555 1_555
H21 C17 1_555 1_555
C18 C16 1_555 1_555
H22 C18 1_555 1_555
H23 C18 1_555 1_555
H24 C18 1_555 1_555
C19 C15 1_555 1_555
H25 C19 1_555 1_555
C20 C19 1_555 1_555
H26 C20 1_555 1_555
C21 C20 1_555 1_555
H27 C21 1_555 1_555
C22 C14 1_555 1_555
C23 C22 1_555 1_555
H28 C23 1_555 1_555
C24 C23 1_555 1_555
H29 C24 1_555 1_555
H30 C24 1_555 1_555
H31 C24 1_555 1_555
C25 C23 1_555 1_555
H32 C25 1_555 1_555
H33 C25 1_555 1_555
H34 C25 1_555 1_555
C26 H35 1_555 1_555
C27 C26 1_555 1_555
H36 C27 1_555 1_555
H37 C27 1_555 1_555
H38 C27 1_555 1_555
C28 C26 1_555 1_555
H39 C28 1_555 1_555
H40 C28 1_555 1_555
H41 C28 1_555 1_555
C29 H42 1_555 1_555
C30 C29 1_555 1_555
H43 C30 1_555 1_555
H44 C30 1_555 1_555
H45 C30 1_555 1_555
C31 C29 1_555 1_555
H46 C31 1_555 1_555
H47 C31 1_555 1_555
H48 C31 1_555 1_555
Cl1 B1 1_555 1_555
Cl2 B1 1_555 1_555
Cl3 B1 1_555 1_555
N1 C2 1_555 1_555
N2 C1 1_555 1_555
N3 C26 1_555 1_555
P1 N1 1_555 1_555
C32 H49 1_555 1_555
H50 C32 1_555 1_555
H51 C32 1_555 1_555
C33 C32 1_555 1_555
H52 C33 1_555 1_555
H53 C33 1_555 1_555
C34 C33 1_555 1_555
H54 C34 1_555 1_555
H55 C34 1_555 1_555
C32B H49B 1_555 1_555
H50B C32B 1_555 1_555
H51B C32B 1_555 1_555
C33B C32B 1_555 1_555
H52B C33B 1_555 1_555
H53B C33B 1_555 1_555
C34B C34 1_555 1_555
H54B C34B 1_555 1_555
H55B C34B 1_555 1_555
C9 C10 1_555 1_555
C14 N2 1_555 1_555
C21 C22 1_555 1_555
C29 N3 1_555 1_555
N2 P1 1_555 1_555
N3 P1 1_555 1_555
C33B C34B 1_555 1_555

#END
