
#######################################################################
#
#                 Cambridge Crystallographic Data Centre
#                                CCDC 
#
#######################################################################
#
# If this CIF has been generated from an entry in the Cambridge 
# Structural Database, then it will include bibliographic, chemical, 
# crystal, experimental, refinement or atomic coordinate data resulting 
# from the CCDC's data processing and validation procedures.
#
#######################################################################

data_HOQZAQ
_chemical_name_common            
N'-(2-methoxybenzylidene)-N-methyl-2-oxo-1,3-oxazolidine-4-carbohydrazide
_chemical_formula_moiety         'C13 H15 N3 O4'
_chemical_name_systematic        
(4S)-N'-[(E)-(2-methoxyphenyl)methylidene]-N-methyl-2-oxo-1,3-oxazolidine-4-carbohydrazide
_symmetry_cell_setting           triclinic
_symmetry_space_group_name_H-M   'P -1'
_symmetry_Int_Tables_number      2
_space_group_name_Hall           '-P 1'
loop_
_symmetry_equiv_pos_site_id
_symmetry_equiv_pos_as_xyz
1 x,y,z
2 -x,-y,-z
_cell_length_a                   8.0609(5)
_cell_length_b                   9.1063(6)
_cell_length_c                   9.3547(6)
_cell_angle_alpha                104.699(7)
_cell_angle_beta                 97.439(7)
_cell_angle_gamma                96.778(7)
_cell_volume                     650.418
_exptl_crystal_colour            colorless
_cell_formula_units_Z            2
loop_
_atom_site_label
_atom_site_type_symbol
_atom_site_fract_x
_atom_site_fract_y
_atom_site_fract_z
O1 O 0.43215(14) 0.86903(12) 0.14290(12)
O2 O 0.17446(15) -0.02774(13) -0.07189(13)
O3 O 0.20477(15) 0.15505(13) -0.42994(12)
O4 O 0.05484(17) -0.24776(13) -0.24358(14)
N1 N 0.26188(17) 0.37371(14) -0.23898(14)
N2 N 0.24081(16) 0.43193(14) -0.09248(13)
N3 N 0.02667(18) -0.01105(15) -0.28138(16)
C1 C 0.34152(19) 0.78212(18) 0.21452(17)
C2 C 0.27123(19) 0.63171(17) 0.13053(17)
C3 C 0.3436(2) 0.46619(19) -0.32364(18)
H1 H 0.3402 0.4032 -0.4262
H2 H 0.4617 0.5042 -0.2757
H3 H 0.2839 0.5535 -0.3261
C4 C 0.19159(19) 0.22358(17) -0.30251(17)
C5 C 0.0806(2) -0.10821(18) -0.20584(18)
C6 C 0.2951(2) 0.57395(18) -0.02587(17)
C7 C 0.1534(2) 0.59239(19) 0.34665(18)
H4 H 0.0899 0.5275 0.3920
C8 C 0.2240(2) 0.74095(19) 0.42695(18)
H5 H 0.2085 0.7778 0.5281
C9 C 0.3170(2) 0.83710(18) 0.36261(17)
H6 H 0.3636 0.9394 0.4187
C10 C 0.1763(2) 0.53937(18) 0.19948(18)
H7 H 0.1264 0.4378 0.1438
C11 C 0.0890(2) 0.14847(17) -0.20587(17)
C12 C 0.1893(2) 0.13561(18) -0.05850(18)
C13 C 0.4723(2) 1.03038(18) 0.21218(19)
H8 H 0.3686 1.0713 0.2347
H9 H 0.5231 1.0813 0.1441
H10 H 0.5527 1.0494 0.3054
H11 H -0.002(2) 0.211(2) -0.184(2)
H12 H 0.311(3) 0.176(2) -0.042(2)
H13 H 0.137(2) 0.183(2) 0.027(2)
H14 H 0.354(2) 0.645(2) -0.070(2)
H15 H -0.035(2) -0.045(2) -0.366(2)
loop_
_geom_bond_atom_site_label_1
_geom_bond_atom_site_label_2
_geom_bond_site_symmetry_1
_geom_bond_site_symmetry_2
O1 C1 1_555 1_555
O2 C5 1_555 1_555
O3 C4 1_555 1_555
O4 C5 1_555 1_555
N1 N2 1_555 1_555
N2 C6 1_555 1_555
N3 C5 1_555 1_555
C1 C2 1_555 1_555
C2 C6 1_555 1_555
C3 N1 1_555 1_555
H1 C3 1_555 1_555
H2 C3 1_555 1_555
H3 C3 1_555 1_555
C4 N1 1_555 1_555
C6 H14 1_555 1_555
C7 H4 1_555 1_555
C8 C7 1_555 1_555
H5 C8 1_555 1_555
C9 C1 1_555 1_555
H6 C9 1_555 1_555
C10 C2 1_555 1_555
H7 C10 1_555 1_555
C11 N3 1_555 1_555
C12 O2 1_555 1_555
C13 O1 1_555 1_555
H8 C13 1_555 1_555
H9 C13 1_555 1_555
H10 C13 1_555 1_555
H11 C11 1_555 1_555
H12 C12 1_555 1_555
H13 C12 1_555 1_555
H15 N3 1_555 1_555
C4 C11 1_555 1_555
C7 C10 1_555 1_555
C8 C9 1_555 1_555
C11 C12 1_555 1_555

#END
