
#######################################################################
#
#                 Cambridge Crystallographic Data Centre
#                                CCDC 
#
#######################################################################
#
# If this CIF has been generated from an entry in the Cambridge 
# Structural Database, then it will include bibliographic, chemical, 
# crystal, experimental, refinement or atomic coordinate data resulting 
# from the CCDC's data processing and validation procedures.
#
#######################################################################

data_HORDEY
_chemical_formula_moiety         'C26 H21 I1 N2 O1,C1 H1 Cl3'
_chemical_name_systematic        
'5-Amino-2-iodo-N-tritylbenzamide chloroform solvate'
_symmetry_cell_setting           monoclinic
_symmetry_space_group_name_H-M   'P 21/c'
_symmetry_Int_Tables_number      14
_space_group_name_Hall           '-P 2ybc'
loop_
_symmetry_equiv_pos_site_id
_symmetry_equiv_pos_as_xyz
1 x,y,z
2 -x,1/2+y,1/2-z
3 -x,-y,-z
4 x,1/2-y,1/2+z
_cell_length_a                   13.107(5)
_cell_length_b                   10.608(4)
_cell_length_c                   19.586(8)
_cell_angle_alpha                90
_cell_angle_beta                 102.603(5)
_cell_angle_gamma                90
_cell_volume                     2657.6
_exptl_crystal_colour            colorless
_exptl_crystal_description       block
_chemical_melting_point          '150-153 deg.C'
_cell_formula_units_Z            4
_exptl_crystal_recrystallization_method chloroform
loop_
_atom_site_label
_atom_site_type_symbol
_atom_site_fract_x
_atom_site_fract_y
_atom_site_fract_z
I1 I 0.37834(3) 0.28805(3) 0.152148(19)
C1 C 0.2325(3) 0.2842(4) 0.0810(2)
C2 C 0.2083(4) 0.3885(5) 0.0387(3)
H1 H 0.2531 0.4576 0.0455
C3 C 0.1192(4) 0.3922(5) -0.0136(3)
H2 H 0.1035 0.4646 -0.0406
C4 C 0.0523(4) 0.2894(5) -0.0265(2)
C5 C 0.0760(3) 0.1864(4) 0.0168(2)
H3 H 0.0317 0.1170 0.0092
C6 C 0.1639(3) 0.1818(4) 0.0717(2)
C7 C 0.1696(3) 0.0679(4) 0.1178(2)
C8 C 0.2124(3) -0.0045(4) 0.2442(2)
C9 C 0.2752(3) 0.0640(4) 0.3094(2)
C10 C 0.2374(4) 0.1775(5) 0.3296(2)
H4 H 0.1755 0.2104 0.3032
C11 C 0.2893(5) 0.2424(5) 0.3878(3)
H5 H 0.2632 0.3188 0.3999
C12 C 0.3805(5) 0.1933(6) 0.4280(3)
H6 H 0.4165 0.2366 0.4672
C13 C 0.4169(4) 0.0810(6) 0.4097(3)
H7 H 0.4779 0.0474 0.4370
C14 C 0.3649(3) 0.0155(5) 0.3509(2)
H8 H 0.3909 -0.0614 0.3396
C15 C 0.2726(3) -0.1178(4) 0.2250(2)
C16 C 0.3647(4) -0.0963(5) 0.2022(2)
H9 H 0.3869 -0.0141 0.1975
C17 C 0.4233(4) -0.1962(5) 0.1865(3)
H10 H 0.4844 -0.1806 0.1711
C18 C 0.3930(5) -0.3163(5) 0.1932(3)
H11 H 0.4334 -0.3830 0.1833
C19 C 0.3025(5) -0.3390(5) 0.2147(3)
H12 H 0.2811 -0.4216 0.2191
C20 C 0.2418(4) -0.2400(4) 0.2302(3)
H13 H 0.1798 -0.2570 0.2442
C21 C 0.1057(3) -0.0381(4) 0.2596(2)
C22 C 0.1027(4) -0.1013(5) 0.3209(2)
H14 H 0.1650 -0.1265 0.3504
C23 C 0.0092(4) -0.1276(5) 0.3393(3)
H15 H 0.0089 -0.1711 0.3805
C24 C -0.0831(4) -0.0897(5) 0.2971(3)
H16 H -0.1462 -0.1068 0.3095
C25 C -0.0816(4) -0.0266(6) 0.2364(3)
H17 H -0.1440 0.0001 0.2077
C26 C 0.0120(4) -0.0021(5) 0.2175(3)
H18 H 0.0116 0.0393 0.1756
N1 N 0.1993(3) 0.0896(3) 0.18685(17)
H19 H 0.2121 0.1668 0.1992
N2 N -0.0356(4) 0.2915(5) -0.0792(2)
H20 H -0.0771 0.2277 -0.0857
H21 H -0.0492 0.3566 -0.1058
O1 O 0.1415(2) -0.0361(3) 0.09365(15)
C27 C 0.2810(4) -0.1494(6) -0.0020(3)
H22 H 0.2529 -0.1551 0.0404
Cl1 Cl 0.32603(17) -0.29778(18) -0.01595(12)
Cl2 Cl 0.17751(14) -0.1061(2) -0.06923(9)
Cl3 Cl 0.37735(16) -0.0362(2) 0.01411(12)
loop_
_geom_bond_atom_site_label_1
_geom_bond_atom_site_label_2
_geom_bond_site_symmetry_1
_geom_bond_site_symmetry_2
I1 C1 1_555 1_555
C1 C2 1_555 1_555
C2 H1 1_555 1_555
C3 C2 1_555 1_555
H2 C3 1_555 1_555
C4 C3 1_555 1_555
C5 C4 1_555 1_555
H3 C5 1_555 1_555
C6 C1 1_555 1_555
C7 C6 1_555 1_555
C8 C9 1_555 1_555
C9 C10 1_555 1_555
C10 H4 1_555 1_555
C11 C10 1_555 1_555
H5 C11 1_555 1_555
C12 C11 1_555 1_555
H6 C12 1_555 1_555
C13 C12 1_555 1_555
H7 C13 1_555 1_555
C14 C9 1_555 1_555
H8 C14 1_555 1_555
C15 C8 1_555 1_555
C16 C15 1_555 1_555
H9 C16 1_555 1_555
C17 C16 1_555 1_555
H10 C17 1_555 1_555
C18 C17 1_555 1_555
H11 C18 1_555 1_555
C19 C18 1_555 1_555
H12 C19 1_555 1_555
C20 C15 1_555 1_555
H13 C20 1_555 1_555
C21 C8 1_555 1_555
C22 C21 1_555 1_555
H14 C22 1_555 1_555
C23 C22 1_555 1_555
H15 C23 1_555 1_555
C24 C23 1_555 1_555
H16 C24 1_555 1_555
C25 C24 1_555 1_555
H17 C25 1_555 1_555
C26 C21 1_555 1_555
H18 C26 1_555 1_555
N1 C7 1_555 1_555
H19 N1 1_555 1_555
N2 C4 1_555 1_555
H20 N2 1_555 1_555
H21 N2 1_555 1_555
O1 C7 1_555 1_555
C27 H22 1_555 1_555
Cl1 C27 1_555 1_555
Cl2 C27 1_555 1_555
Cl3 C27 1_555 1_555
C5 C6 1_555 1_555
C8 N1 1_555 1_555
C13 C14 1_555 1_555
C19 C20 1_555 1_555
C25 C26 1_555 1_555

#END
