
#######################################################################
#
#                 Cambridge Crystallographic Data Centre
#                                CCDC 
#
#######################################################################
#
# If this CIF has been generated from an entry in the Cambridge 
# Structural Database, then it will include bibliographic, chemical, 
# crystal, experimental, refinement or atomic coordinate data resulting 
# from the CCDC's data processing and validation procedures.
#
#######################################################################

data_HORJOO
_chemical_name_common            
1-(2-((((2-Methyl-2-propanyl)oxy)carbonyl)amino)benzoyl)prolyl-N-methylglycinamide
_chemical_formula_moiety         'C20 H28 N4 O5'
_chemical_name_systematic        
't-Butyl 2-(2-(2-(methylamino)-2-oxo-ethylcarbamoyl)pyrrolidine-1-carbonyl)phenylcarbamate'
_symmetry_cell_setting           orthorhombic
_symmetry_space_group_name_H-M   'P b c a'
_symmetry_Int_Tables_number      61
_space_group_name_Hall           '-P 2ac 2ab'
loop_
_symmetry_equiv_pos_site_id
_symmetry_equiv_pos_as_xyz
1 x,y,z
2 1/2-x,-y,1/2+z
3 -x,1/2+y,1/2-z
4 1/2+x,1/2-y,-z
5 -x,-y,-z
6 1/2+x,y,1/2-z
7 x,1/2-y,1/2+z
8 1/2-x,1/2+y,z
_cell_length_a                   10.8666(10)
_cell_length_b                   16.478(3)
_cell_length_c                   24.053(2)
_cell_angle_alpha                90
_cell_angle_beta                 90
_cell_angle_gamma                90
_cell_volume                     4306.93
_exptl_crystal_colour            colorless
_exptl_crystal_description       plate
_chemical_melting_point          '196-198 deg.C'
_cell_formula_units_Z            8
_exptl_crystal_recrystallization_method methanol/dichloromethane
loop_
_atom_site_label
_atom_site_type_symbol
_atom_site_fract_x
_atom_site_fract_y
_atom_site_fract_z
O1 O -0.0019(2) 0.71542(14) 0.43558(9)
O2 O -0.0212(3) 0.83163(16) 0.48410(11)
O3 O 0.2660(2) 0.78590(13) 0.32281(8)
O4 O 0.4560(2) 0.82146(14) 0.21394(10)
O5 O 0.6383(2) 0.60564(14) 0.26985(11)
N1 N 0.0983(3) 0.82282(16) 0.40732(11)
H1 H 0.1198 0.7887 0.3820
N2 N 0.2217(2) 0.87808(14) 0.25723(10)
N3 N 0.4758(3) 0.66359(17) 0.31148(12)
H2 H 0.4058 0.6871 0.3072
N4 N 0.3666(3) 0.69887(15) 0.21058(10)
H3 H 0.2987 0.6722 0.2085
C1 C 0.0207(3) 0.7941(2) 0.44605(14)
C2 C 0.1492(3) 0.90067(19) 0.40239(13)
C3 C 0.1366(3) 0.9594(2) 0.44352(14)
H4 H 0.0895 0.9485 0.4749
C4 C 0.1937(4) 1.0337(2) 0.43800(16)
H5 H 0.1859 1.0723 0.4660
C5 C 0.2619(4) 1.0511(2) 0.39150(17)
H6 H 0.3008 1.1011 0.3881
C6 C 0.2723(3) 0.9942(2) 0.35009(15)
H7 H 0.3176 1.0065 0.3184
C7 C 0.2166(3) 0.91831(18) 0.35452(13)
C8 C 0.2358(3) 0.85592(19) 0.31026(13)
C9 C 0.1549(4) 0.95020(19) 0.23623(14)
H8 H 0.2097 0.9964 0.2325
H9 H 0.0875 0.9647 0.2607
C10 C 0.1079(4) 0.9230(2) 0.18031(15)
H10 H 0.1011 0.9684 0.1548
H11 H 0.0283 0.8968 0.1837
C11 C 0.2051(4) 0.8635(2) 0.16115(14)
H12 H 0.2771 0.8916 0.1470
H13 H 0.1734 0.8278 0.1325
C12 C 0.2352(3) 0.81674(18) 0.21369(13)
H14 H 0.1741 0.7738 0.2192
C13 C 0.3633(3) 0.7800(2) 0.21348(13)
C14 C 0.4816(3) 0.6555(2) 0.21088(13)
H15 H 0.5406 0.6861 0.1891
H16 H 0.4693 0.6038 0.1924
C15 C 0.5370(4) 0.63948(18) 0.26722(15)
C16 C 0.5234(4) 0.6515(3) 0.36716(15)
H17 H 0.5991 0.6809 0.3713
H18 H 0.5380 0.5947 0.3732
H19 H 0.4645 0.6709 0.3938
C17 C -0.0873(4) 0.6689(2) 0.47069(14)
C18 C -0.0968(5) 0.5889(3) 0.4406(2)
H20 H -0.0163 0.5654 0.4370
H21 H -0.1311 0.5976 0.4043
H22 H -0.1489 0.5528 0.4612
C19 C -0.0332(5) 0.6578(3) 0.52674(18)
H23 H -0.0367 0.7082 0.5467
H24 H 0.0510 0.6409 0.5232
H25 H -0.0788 0.6172 0.5466
C20 C -0.2102(4) 0.7089(3) 0.4718(2)
H26 H -0.2320 0.7259 0.4349
H27 H -0.2072 0.7554 0.4958
H28 H -0.2706 0.6713 0.4853
loop_
_geom_bond_atom_site_label_1
_geom_bond_atom_site_label_2
_geom_bond_site_symmetry_1
_geom_bond_site_symmetry_2
O1 C1 1_555 1_555
O2 C1 1_555 1_555
O3 C8 1_555 1_555
O4 C13 1_555 1_555
O5 C15 1_555 1_555
N1 H1 1_555 1_555
N2 C8 1_555 1_555
N3 H2 1_555 1_555
N4 H3 1_555 1_555
C1 N1 1_555 1_555
C2 N1 1_555 1_555
C3 C2 1_555 1_555
H4 C3 1_555 1_555
C4 C3 1_555 1_555
H5 C4 1_555 1_555
C5 C4 1_555 1_555
H6 C5 1_555 1_555
C6 C5 1_555 1_555
H7 C6 1_555 1_555
C7 C2 1_555 1_555
C8 C7 1_555 1_555
C9 N2 1_555 1_555
H8 C9 1_555 1_555
H9 C9 1_555 1_555
C10 C9 1_555 1_555
H10 C10 1_555 1_555
H11 C10 1_555 1_555
C11 C10 1_555 1_555
H12 C11 1_555 1_555
H13 C11 1_555 1_555
C12 N2 1_555 1_555
H14 C12 1_555 1_555
C13 N4 1_555 1_555
C14 N4 1_555 1_555
H15 C14 1_555 1_555
H16 C14 1_555 1_555
C15 N3 1_555 1_555
C16 N3 1_555 1_555
H17 C16 1_555 1_555
H18 C16 1_555 1_555
H19 C16 1_555 1_555
C17 O1 1_555 1_555
C18 C17 1_555 1_555
H20 C18 1_555 1_555
H21 C18 1_555 1_555
H22 C18 1_555 1_555
C19 C17 1_555 1_555
H23 C19 1_555 1_555
H24 C19 1_555 1_555
H25 C19 1_555 1_555
C20 C17 1_555 1_555
H26 C20 1_555 1_555
H27 C20 1_555 1_555
H28 C20 1_555 1_555
C6 C7 1_555 1_555
C11 C12 1_555 1_555
C12 C13 1_555 1_555
C14 C15 1_555 1_555

#END
