
#######################################################################
#
#                 Cambridge Crystallographic Data Centre
#                                CCDC 
#
#######################################################################
#
# If this CIF has been generated from an entry in the Cambridge 
# Structural Database, then it will include bibliographic, chemical, 
# crystal, experimental, refinement or atomic coordinate data resulting 
# from the CCDC's data processing and validation procedures.
#
#######################################################################

data_HORKUW
_chemical_formula_moiety         'C16 H12 Cl1 N1 O1 S2'
_chemical_name_systematic        
4-chloro-5-(methylsulfanyl)-1-phenyl-2-(2-thienylmethylene)-1,2-dihydro-3H-pyrrol-3-one
_symmetry_cell_setting           triclinic
_symmetry_space_group_name_H-M   'P -1'
_symmetry_Int_Tables_number      2
_space_group_name_Hall           '-P 1'
loop_
_symmetry_equiv_pos_site_id
_symmetry_equiv_pos_as_xyz
1 x,y,z
2 -x,-y,-z
_cell_length_a                   7.4568(11)
_cell_length_b                   10.4808(16)
_cell_length_c                   10.804(3)
_cell_angle_alpha                110.442(3)
_cell_angle_beta                 98.772(4)
_cell_angle_gamma                103.159(2)
_cell_volume                     745.096
_exptl_crystal_colour            red
_exptl_crystal_description       block
_cell_formula_units_Z            2
loop_
_atom_site_label
_atom_site_type_symbol
_atom_site_fract_x
_atom_site_fract_y
_atom_site_fract_z
Cl1 Cl 0.51861(7) 0.28913(5) -0.28880(4)
N1 N 0.7067(2) 0.41024(15) 0.10724(14)
O1 O 0.79508(19) 0.59813(14) -0.10123(13)
S1 S 0.48117(6) 0.14592(4) -0.02345(4)
S2 S 1.03133(7) 0.86224(5) 0.09464(5)
C1 C 0.6009(2) 0.30937(17) -0.01974(16)
C2 C 0.6194(2) 0.36734(18) -0.11613(16)
C3 C 0.7432(2) 0.51110(18) -0.05048(17)
C4 C 0.7980(2) 0.53782(17) 0.09677(17)
C5 C 0.9044(2) 0.65775(18) 0.20687(18)
H1 H 0.9153 0.6464 0.2909
C6 C 1.0041(2) 0.79892(18) 0.22110(19)
C7 C 1.0957(3) 0.91067(18) 0.3546(2)
H2 H 1.0987 0.8997 0.4384
C8 C 1.1815(3) 1.0404(2) 0.3420(2)
H3 H 1.2486 1.1272 0.4185
C9 C 1.1588(3) 1.0288(2) 0.2113(2)
H4 H 1.2091 1.1061 0.1873
C10 C 0.3807(3) 0.0305(2) -0.20082(19)
H5 H 0.2817 0.0631 -0.2397
H6 H 0.3249 -0.0674 -0.2096
H7 H 0.4809 0.0327 -0.2499
C11 C 0.7294(2) 0.38425(17) 0.22965(16)
C12 C 0.5849(2) 0.38626(18) 0.29780(18)
H8 H 0.4731 0.4056 0.2644
C13 C 0.6074(3) 0.35941(18) 0.41560(17)
H9 H 0.5104 0.3605 0.4633
C14 C 0.7710(3) 0.33104(18) 0.46388(17)
H10 H 0.7854 0.3127 0.5444
C15 C 0.9142(3) 0.32937(19) 0.39481(18)
H11 H 1.0257 0.3095 0.4280
C16 C 0.8942(2) 0.35666(19) 0.27744(17)
H12 H 0.9919 0.3565 0.2304
loop_
_geom_bond_atom_site_label_1
_geom_bond_atom_site_label_2
_geom_bond_site_symmetry_1
_geom_bond_site_symmetry_2
Cl1 C2 1_555 1_555
N1 C1 1_555 1_555
O1 C3 1_555 1_555
S1 C1 1_555 1_555
S2 C6 1_555 1_555
C1 C2 1_555 1_555
C2 C3 1_555 1_555
C3 C4 1_555 1_555
C4 N1 1_555 1_555
C5 C4 1_555 1_555
H1 C5 1_555 1_555
C6 C5 1_555 1_555
C7 C6 1_555 1_555
H2 C7 1_555 1_555
C8 C7 1_555 1_555
H3 C8 1_555 1_555
C9 S2 1_555 1_555
H4 C9 1_555 1_555
C10 S1 1_555 1_555
H5 C10 1_555 1_555
H6 C10 1_555 1_555
H7 C10 1_555 1_555
C11 N1 1_555 1_555
C12 C11 1_555 1_555
H8 C12 1_555 1_555
C13 C12 1_555 1_555
H9 C13 1_555 1_555
C14 C13 1_555 1_555
H10 C14 1_555 1_555
C15 C14 1_555 1_555
H11 C15 1_555 1_555
C16 C11 1_555 1_555
H12 C16 1_555 1_555
C8 C9 1_555 1_555
C15 C16 1_555 1_555

#END
