
#######################################################################
#
#                 Cambridge Crystallographic Data Centre
#                                CCDC 
#
#######################################################################
#
# If this CIF has been generated from an entry in the Cambridge 
# Structural Database, then it will include bibliographic, chemical, 
# crystal, experimental, refinement or atomic coordinate data resulting 
# from the CCDC's data processing and validation procedures.
#
#######################################################################

data_HORKAB
_chemical_formula_moiety         'C24 H29 N3 O6'
_chemical_name_systematic        
'Methyl 2-(2-(t-butoxycarbonylamino)benzoamido-2-methylpropanamido)benzoate'
_symmetry_cell_setting           orthorhombic
_symmetry_space_group_name_H-M   'P n a 21'
_symmetry_Int_Tables_number      33
_space_group_name_Hall           'P 2c -2n'
loop_
_symmetry_equiv_pos_site_id
_symmetry_equiv_pos_as_xyz
1 x,y,z
2 -x,-y,1/2+z
3 1/2+x,1/2-y,z
4 1/2-x,1/2+y,1/2+z
_cell_length_a                   10.1637(6)
_cell_length_b                   15.6505(8)
_cell_length_c                   15.0116(9)
_cell_angle_alpha                90
_cell_angle_beta                 90
_cell_angle_gamma                90
_cell_volume                     2387.85
_exptl_crystal_colour            colorless
_exptl_crystal_description       plate
_chemical_melting_point          '175-176 deg.C'
_cell_formula_units_Z            4
_exptl_crystal_recrystallization_method methanol
loop_
_atom_site_label
_atom_site_type_symbol
_atom_site_fract_x
_atom_site_fract_y
_atom_site_fract_z
O1 O 0.52156(15) -0.04456(8) 0.23829(10)
O2 O 0.63318(17) -0.07518(9) 0.11201(11)
O3 O 0.63484(12) 0.20192(8) 0.27308(9)
O4 O 0.59151(14) 0.36550(10) 0.42170(10)
O5 O 0.79777(19) 0.40977(11) 0.12982(12)
O6 O 0.71982(18) 0.49975(11) 0.02906(11)
N1 N 0.64392(16) 0.05635(10) 0.17801(11)
H1 H 0.6059 0.0863 0.2186
N2 N 0.83479(14) 0.25809(9) 0.29560(9)
H2 H 0.9143 0.2633 0.2767
N3 N 0.67148(15) 0.39707(10) 0.28365(10)
H3 H 0.7328 0.3822 0.2474
C1 C 0.6023(2) -0.02623(13) 0.16989(15)
C2 C 0.74061(18) 0.09791(12) 0.12844(13)
C3 C 0.7854(2) 0.06775(14) 0.04683(14)
H4 H 0.7492 0.0182 0.0230
C4 C 0.8818(3) 0.10984(16) 0.00117(15)
H5 H 0.9091 0.0889 -0.0538
C5 C 0.9392(2) 0.18248(15) 0.03460(15)
H6 H 1.0055 0.2101 0.0032
C6 C 0.8971(2) 0.21364(13) 0.11514(13)
H7 H 0.9353 0.2630 0.1381
C7 C 0.79806(18) 0.17275(11) 0.16327(12)
C8 C 0.75027(18) 0.21076(11) 0.24821(13)
C9 C 0.79707(18) 0.30165(12) 0.37882(12)
C10 C 0.9079(2) 0.36362(14) 0.40205(14)
H8 H 0.9878 0.3323 0.4115
H9 H 0.8855 0.3943 0.4553
H10 H 0.9200 0.4033 0.3539
C11 C 0.7769(2) 0.23823(16) 0.45389(14)
H11 H 0.7074 0.1994 0.4384
H12 H 0.7538 0.2683 0.5074
H13 H 0.8567 0.2067 0.4635
C12 C 0.67294(18) 0.35606(12) 0.36331(13)
C13 C 0.58604(18) 0.45965(12) 0.25136(14)
C14 C 0.4827(2) 0.49191(14) 0.30222(17)
H14 H 0.4657 0.4697 0.3585
C15 C 0.4058(2) 0.55706(16) 0.2685(2)
H15 H 0.3378 0.5789 0.3032
C16 C 0.4271(3) 0.59048(16) 0.1848(2)
H16 H 0.3745 0.6346 0.1635
C17 C 0.5262(2) 0.55809(14) 0.13371(18)
H17 H 0.5398 0.5799 0.0768
C18 C 0.6076(2) 0.49284(12) 0.16517(15)
C19 C 0.7161(2) 0.46170(14) 0.10871(15)
C20 C 0.8302(3) 0.4763(2) -0.02683(19)
H18 H 0.9107 0.4935 0.0014
H19 H 0.8223 0.5043 -0.0835
H20 H 0.8307 0.4155 -0.0355
C21 C 0.4665(2) -0.13137(13) 0.24805(16)
C22 C 0.3895(2) -0.15775(16) 0.1663(2)
H21 H 0.3321 -0.1120 0.1488
H22 H 0.3381 -0.2076 0.1797
H23 H 0.4493 -0.1704 0.1187
C23 C 0.5767(2) -0.19341(16) 0.2678(2)
H24 H 0.6317 -0.1991 0.2161
H25 H 0.5402 -0.2481 0.2829
H26 H 0.6280 -0.1724 0.3168
C24 C 0.3763(3) -0.12114(18) 0.3270(2)
H27 H 0.4264 -0.1028 0.3777
H28 H 0.3349 -0.1748 0.3400
H29 H 0.3102 -0.0793 0.3135
loop_
_geom_bond_atom_site_label_1
_geom_bond_atom_site_label_2
_geom_bond_site_symmetry_1
_geom_bond_site_symmetry_2
O1 C1 1_555 1_555
O2 C1 1_555 1_555
O3 C8 1_555 1_555
O4 C12 1_555 1_555
O5 C19 1_555 1_555
O6 C19 1_555 1_555
N1 H1 1_555 1_555
N2 H2 1_555 1_555
N3 H3 1_555 1_555
C1 N1 1_555 1_555
C2 N1 1_555 1_555
C3 C2 1_555 1_555
H4 C3 1_555 1_555
C4 C3 1_555 1_555
H5 C4 1_555 1_555
C5 C4 1_555 1_555
H6 C5 1_555 1_555
C6 C5 1_555 1_555
H7 C6 1_555 1_555
C7 C2 1_555 1_555
C8 N2 1_555 1_555
C9 N2 1_555 1_555
C10 C9 1_555 1_555
H8 C10 1_555 1_555
H9 C10 1_555 1_555
H10 C10 1_555 1_555
C11 C9 1_555 1_555
H11 C11 1_555 1_555
H12 C11 1_555 1_555
H13 C11 1_555 1_555
C12 N3 1_555 1_555
C13 N3 1_555 1_555
C14 C13 1_555 1_555
H14 C14 1_555 1_555
C15 C14 1_555 1_555
H15 C15 1_555 1_555
C16 C15 1_555 1_555
H16 C16 1_555 1_555
C17 C16 1_555 1_555
H17 C17 1_555 1_555
C18 C13 1_555 1_555
C19 C18 1_555 1_555
C20 O6 1_555 1_555
H18 C20 1_555 1_555
H19 C20 1_555 1_555
H20 C20 1_555 1_555
C21 O1 1_555 1_555
C22 C21 1_555 1_555
H21 C22 1_555 1_555
H22 C22 1_555 1_555
H23 C22 1_555 1_555
C23 C21 1_555 1_555
H24 C23 1_555 1_555
H25 C23 1_555 1_555
H26 C23 1_555 1_555
C24 C21 1_555 1_555
H27 C24 1_555 1_555
H28 C24 1_555 1_555
H29 C24 1_555 1_555
C6 C7 1_555 1_555
C7 C8 1_555 1_555
C9 C12 1_555 1_555
C17 C18 1_555 1_555

#END
