
#######################################################################
#
#                 Cambridge Crystallographic Data Centre
#                                CCDC 
#
#######################################################################
#
# If this CIF has been generated from an entry in the Cambridge 
# Structural Database, then it will include bibliographic, chemical, 
# crystal, experimental, refinement or atomic coordinate data resulting 
# from the CCDC's data processing and validation procedures.
#
#######################################################################

data_HORLOQ
_chemical_formula_moiety         'C26 H34 N2 O5 Si1'
_chemical_name_systematic        
(4aS,8aS,9S)-3-(benzyloxy)-4a-(t-butyl(dimethyl)silyloxy)-9-(dimethylamino)-8a,9-dihydronaphtho[2,3-d]isoxazole-4,5(4aH,8H)-dione
_symmetry_cell_setting           orthorhombic
_symmetry_space_group_name_H-M   'P 21 21 21'
_symmetry_Int_Tables_number      19
_space_group_name_Hall           'P 2ac 2ab'
loop_
_symmetry_equiv_pos_site_id
_symmetry_equiv_pos_as_xyz
1 x,y,z
2 1/2-x,-y,1/2+z
3 -x,1/2+y,1/2-z
4 1/2+x,1/2-y,-z
_cell_length_a                   8.7457(7)
_cell_length_b                   9.5756(7)
_cell_length_c                   31.598(2)
_cell_angle_alpha                90
_cell_angle_beta                 90
_cell_angle_gamma                90
_cell_volume                     2646.18
_exptl_crystal_colour            colorless
_exptl_crystal_description       block
_cell_formula_units_Z            4
loop_
_atom_site_label
_atom_site_type_symbol
_atom_site_fract_x
_atom_site_fract_y
_atom_site_fract_z
O1 O 0.2374(2) 0.98015(18) 0.33420(6)
N1 N 0.3518(2) 1.0067(2) 0.30249(7)
C1 C 0.4467(3) 0.9018(3) 0.30571(7)
C2 C 0.4022(3) 0.8041(3) 0.33775(7)
C3 C 0.4674(3) 0.6748(3) 0.35378(7)
C4 C 0.3943(2) 0.6266(2) 0.39520(7)
C5 C 0.4713(3) 0.7056(3) 0.43212(7)
C6 C 0.3927(3) 0.6951(3) 0.47288(8)
H1 H 0.4456 0.7220 0.4979
C7 C 0.2511(3) 0.6495(3) 0.47605(8)
H2 H 0.2058 0.6470 0.5034
C8 C 0.1575(3) 0.6016(3) 0.43932(8)
H3 H 0.0515 0.6359 0.4428
H4 H 0.1544 0.4983 0.4391
C9 C 0.2202(2) 0.6529(2) 0.39696(7)
H5 H 0.1710 0.5971 0.3740
C10 C 0.1783(3) 0.8076(3) 0.39018(8)
H6 H 0.2126 0.8592 0.4160
C11 C 0.2727(3) 0.8608(3) 0.35394(7)
O2 O 0.5724(2) 0.8890(2) 0.28251(5)
C12 C 0.5997(3) 1.0040(3) 0.25294(9)
H7 H 0.5900 1.0949 0.2676
H8 H 0.5248 1.0011 0.2295
C13 C 0.7583(3) 0.9856(3) 0.23635(8)
C14 C 0.8022(14) 0.8847(12) 0.2077(3)
H9 H 0.7285 0.8217 0.1966
C15 C 0.9534(12) 0.8748(14) 0.1950(4)
H10 H 0.9828 0.8079 0.1744
C16 C 1.0613(10) 0.9628(11) 0.2126(3)
H11 H 1.1658 0.9540 0.2049
C17 C 1.0176(12) 1.0632(12) 0.2415(4)
H12 H 1.0920 1.1238 0.2534
C18 C 0.8656(10) 1.0760(11) 0.2531(4)
H13 H 0.8352 1.1467 0.2724
O3 O 0.57094(19) 0.61082(18) 0.33748(5)
O4 O 0.41558(16) 0.48214(15) 0.40163(5)
Si1 Si 0.56106(7) 0.37081(7) 0.40315(2)
C19 C 0.7425(3) 0.4543(3) 0.42067(10)
H14 H 0.7698 0.5293 0.4010
H15 H 0.8243 0.3843 0.4212
H16 H 0.7290 0.4932 0.4491
C20 C 0.5917(4) 0.2807(3) 0.35162(9)
H17 H 0.6106 0.3503 0.3295
H18 H 0.5005 0.2262 0.3444
H19 H 0.6801 0.2183 0.3539
C21 C 0.4905(3) 0.2385(3) 0.44270(9)
C22 C 0.5991(4) 0.1134(3) 0.44461(12)
H20 H 0.5671 0.0504 0.4674
H21 H 0.7034 0.1462 0.4501
H22 H 0.5964 0.0634 0.4176
C23 C 0.3324(4) 0.1841(3) 0.43000(11)
H23 H 0.2980 0.1146 0.4507
H24 H 0.3384 0.1408 0.4019
H25 H 0.2597 0.2619 0.4292
C24 C 0.4804(4) 0.3021(3) 0.48719(9)
H26 H 0.4436 0.2313 0.5071
H27 H 0.4093 0.3812 0.4869
H28 H 0.5819 0.3344 0.4960
O5 O 0.5911(2) 0.76764(19) 0.42724(5)
N2 N 0.0135(2) 0.8260(2) 0.38718(8)
C25 C -0.0400(4) 0.9640(3) 0.40028(13)
H29 H -0.1519 0.9634 0.4023
H30 H -0.0079 1.0337 0.3794
H31 H 0.0038 0.9873 0.4279
C26 C -0.0531(4) 0.7834(4) 0.34712(11)
H32 H -0.0221 0.6873 0.3407
H33 H -0.0172 0.8457 0.3246
H34 H -0.1648 0.7884 0.3490
C27? C 0.773(2) 0.8957(19) 0.2024(5)
C28? C 0.9120(19) 0.864(3) 0.1837(6)
C29? C 1.042(2) 0.927(2) 0.1998(6)
C30? C 1.0335(19) 1.0184(19) 0.2334(6)
C31? C 0.8919(13) 1.0452(18) 0.2512(6)
H35? H 0.6832 0.8535 0.1913
H36? H 0.9178 0.8015 0.1605
H37? H 1.1386 0.9061 0.1875
H38? H 1.1230 1.0623 0.2440
H39? H 0.8863 1.1072 0.2746
loop_
_geom_bond_atom_site_label_1
_geom_bond_atom_site_label_2
_geom_bond_site_symmetry_1
_geom_bond_site_symmetry_2
O1 N1 1_555 1_555
N1 C1 1_555 1_555
C1 C2 1_555 1_555
C2 C3 1_555 1_555
C3 C4 1_555 1_555
C4 C5 1_555 1_555
C5 C6 1_555 1_555
C6 H1 1_555 1_555
C7 C6 1_555 1_555
H2 C7 1_555 1_555
C8 C7 1_555 1_555
H3 C8 1_555 1_555
H4 C8 1_555 1_555
C9 C4 1_555 1_555
H5 C9 1_555 1_555
C10 C9 1_555 1_555
H6 C10 1_555 1_555
C11 O1 1_555 1_555
O2 C1 1_555 1_555
C12 O2 1_555 1_555
H7 C12 1_555 1_555
H8 C12 1_555 1_555
C13 C12 1_555 1_555
C14 C13 1_555 1_555
H9 C14 1_555 1_555
C15 C14 1_555 1_555
H10 C15 1_555 1_555
C16 C15 1_555 1_555
H11 C16 1_555 1_555
C17 C16 1_555 1_555
H12 C17 1_555 1_555
C18 C13 1_555 1_555
H13 C18 1_555 1_555
O3 C3 1_555 1_555
O4 C4 1_555 1_555
Si1 O4 1_555 1_555
C19 Si1 1_555 1_555
H14 C19 1_555 1_555
H15 C19 1_555 1_555
H16 C19 1_555 1_555
C20 Si1 1_555 1_555
H17 C20 1_555 1_555
H18 C20 1_555 1_555
H19 C20 1_555 1_555
C21 Si1 1_555 1_555
C22 C21 1_555 1_555
H20 C22 1_555 1_555
H21 C22 1_555 1_555
H22 C22 1_555 1_555
C23 C21 1_555 1_555
H23 C23 1_555 1_555
H24 C23 1_555 1_555
H25 C23 1_555 1_555
C24 C21 1_555 1_555
H26 C24 1_555 1_555
H27 C24 1_555 1_555
H28 C24 1_555 1_555
O5 C5 1_555 1_555
N2 C10 1_555 1_555
C25 N2 1_555 1_555
H29 C25 1_555 1_555
H30 C25 1_555 1_555
H31 C25 1_555 1_555
C26 N2 1_555 1_555
H32 C26 1_555 1_555
H33 C26 1_555 1_555
H34 C26 1_555 1_555
C2 C11 1_555 1_555
C8 C9 1_555 1_555
C10 C11 1_555 1_555
C17 C18 1_555 1_555

#END
