
#######################################################################
#
#                 Cambridge Crystallographic Data Centre
#                                CCDC 
#
#######################################################################
#
# If this CIF has been generated from an entry in the Cambridge 
# Structural Database, then it will include bibliographic, chemical, 
# crystal, experimental, refinement or atomic coordinate data resulting 
# from the CCDC's data processing and validation procedures.
#
#######################################################################

data_HORMIM
_chemical_formula_moiety         'C26 H27 N2 O1 1+,Br1 1-'
_chemical_name_systematic        
'1-mesityl-4,5-dimethyl-3-(2-(2-naphthyl)-2-oxoethyl)-1H-imidazol-3-ium bromide'
_symmetry_cell_setting           monoclinic
_symmetry_space_group_name_H-M   'P 21/n'
_symmetry_Int_Tables_number      14
_space_group_name_Hall           '-P 2yn'
loop_
_symmetry_equiv_pos_site_id
_symmetry_equiv_pos_as_xyz
1 x,y,z
2 1/2-x,1/2+y,1/2-z
3 -x,-y,-z
4 1/2+x,1/2-y,1/2+z
_cell_length_a                   9.7624(4)
_cell_length_b                   13.2901(4)
_cell_length_c                   18.1845(4)
_cell_angle_alpha                90
_cell_angle_beta                 104.391(3)
_cell_angle_gamma                90
_cell_volume                     2285.29
_exptl_crystal_colour            yellow
_exptl_crystal_description       block
_cell_formula_units_Z            4
loop_
_atom_site_label
_atom_site_type_symbol
_atom_site_fract_x
_atom_site_fract_y
_atom_site_fract_z
C1 C 1.0437(3) 0.23140(19) 0.60613(13)
H1 H 1.0990 0.1760 0.6258
C2 C 0.8672(3) 0.32665(19) 0.54161(13)
C3 C 0.9690(3) 0.38840(19) 0.58248(13)
C4 C 0.7259(3) 0.3481(2) 0.49029(14)
H2 H 0.7035 0.4180 0.4940
H3 H 0.6557 0.3076 0.5049
H4 H 0.7274 0.3327 0.4389
C5 C 0.9758(3) 0.5002(2) 0.58854(14)
H5 H 0.8909 0.5287 0.5572
H6 H 1.0559 0.5243 0.5720
H7 H 0.9851 0.5197 0.6404
C6 C 0.8440(3) 0.13610(18) 0.52836(13)
C7 C 0.8502(3) 0.1019(2) 0.45689(14)
C8 C 0.7771(3) 0.0136(2) 0.43127(14)
H8 H 0.7781 -0.0108 0.3835
C9 C 0.7033(3) -0.0389(2) 0.47427(16)
C10 C 0.7030(3) -0.0027(2) 0.54580(16)
H9 H 0.6550 -0.0387 0.5755
C11 C 0.7719(3) 0.0854(2) 0.57444(15)
C12 C 0.9328(3) 0.1563(3) 0.40964(16)
H10 H 0.8827 0.2160 0.3886
H11 H 0.9445 0.1133 0.3693
H12 H 1.0240 0.1745 0.4409
C13 C 0.6284(4) -0.1363(2) 0.4455(2)
H13 H 0.6121 -0.1394 0.3913
H14 H 0.5395 -0.1390 0.4591
H15 H 0.6860 -0.1922 0.4680
C14 C 0.7707(4) 0.1254(2) 0.65186(17)
H16 H 0.8630 0.1179 0.6855
H17 H 0.7030 0.0885 0.6715
H18 H 0.7452 0.1953 0.6479
C15 C 1.2124(2) 0.35765(19) 0.67267(13)
H19 H 1.2479 0.3038 0.7083
H20 H 1.1976 0.4162 0.7016
C16 C 1.3209(3) 0.38218(18) 0.62923(14)
C17 C 1.4720(3) 0.3837(2) 0.67264(14)
C18 C 1.5652(3) 0.4523(2) 0.64995(16)
H21 H 1.5305 0.4968 0.6102
C19 C 1.7050(3) 0.4531(3) 0.68605(16)
H22 H 1.7642 0.4998 0.6716
C20 C 1.7620(3) 0.3850(2) 0.74469(15)
C21 C 1.9095(3) 0.3813(3) 0.78128(18)
H23 H 1.9711 0.4267 0.7675
C22 C 1.9601(3) 0.3121(3) 0.83580(19)
H24 H 2.0567 0.3095 0.8582
C23 C 1.8698(3) 0.2447(3) 0.85888(18)
H25 H 1.9066 0.1978 0.8966
C24 C 1.7265(3) 0.2467(2) 0.82637(16)
H26 H 1.6668 0.2022 0.8429
C25 C 1.6703(3) 0.3160(2) 0.76812(14)
C26 C 1.5237(3) 0.3184(2) 0.73064(14)
H27 H 1.4621 0.2745 0.7461
N1 N 0.9172(2) 0.22804(16) 0.55679(11)
N2 N 1.0773(2) 0.32708(16) 0.62244(11)
O1 O 1.28598(19) 0.40237(15) 0.56191(10)
Br1 Br 1.24582(4) 0.11649(2) 0.767354(15)
loop_
_geom_bond_atom_site_label_1
_geom_bond_atom_site_label_2
_geom_bond_site_symmetry_1
_geom_bond_site_symmetry_2
C1 H1 1_555 1_555
C2 C3 1_555 1_555
C3 C5 1_555 1_555
C4 C2 1_555 1_555
H2 C4 1_555 1_555
H3 C4 1_555 1_555
H4 C4 1_555 1_555
C5 H5 1_555 1_555
H6 C5 1_555 1_555
H7 C5 1_555 1_555
C6 C7 1_555 1_555
C7 C8 1_555 1_555
C8 H8 1_555 1_555
C9 C8 1_555 1_555
C10 C9 1_555 1_555
H9 C10 1_555 1_555
C11 C6 1_555 1_555
C12 C7 1_555 1_555
H10 C12 1_555 1_555
H11 C12 1_555 1_555
H12 C12 1_555 1_555
C13 C9 1_555 1_555
H13 C13 1_555 1_555
H14 C13 1_555 1_555
H15 C13 1_555 1_555
C14 C11 1_555 1_555
H16 C14 1_555 1_555
H17 C14 1_555 1_555
H18 C14 1_555 1_555
C15 H19 1_555 1_555
H20 C15 1_555 1_555
C16 C15 1_555 1_555
C17 C16 1_555 1_555
C18 C17 1_555 1_555
H21 C18 1_555 1_555
C19 C18 1_555 1_555
H22 C19 1_555 1_555
C20 C19 1_555 1_555
C21 C20 1_555 1_555
H23 C21 1_555 1_555
C22 C21 1_555 1_555
H24 C22 1_555 1_555
C23 C22 1_555 1_555
H25 C23 1_555 1_555
C24 C23 1_555 1_555
H26 C24 1_555 1_555
C25 C20 1_555 1_555
C26 C17 1_555 1_555
H27 C26 1_555 1_555
N1 C1 1_555 1_555
N2 C1 1_555 1_555
O1 C16 1_555 1_555
C2 N1 1_555 1_555
C3 N2 1_555 1_555
C6 N1 1_555 1_555
C10 C11 1_555 1_555
C15 N2 1_555 1_555
C24 C25 1_555 1_555
C25 C26 1_555 1_555

#END
