
#######################################################################
#
#                 Cambridge Crystallographic Data Centre
#                                CCDC 
#
#######################################################################
#
# If this CIF has been generated from an entry in the Cambridge 
# Structural Database, then it will include bibliographic, chemical, 
# crystal, experimental, refinement or atomic coordinate data resulting 
# from the CCDC's data processing and validation procedures.
#
#######################################################################

data_HORNOT
_chemical_formula_moiety         'C24 H41 B1 N2 O1'
_chemical_name_systematic        
(1-(3,3-dimethyl-2-oxobutyl)-3-mesityl-4,5-dihydro-1H-imidazol-3-ium-2-yl)(triethyl)borate
_symmetry_cell_setting           triclinic
_symmetry_space_group_name_H-M   'P -1'
_symmetry_Int_Tables_number      2
_space_group_name_Hall           '-P 1'
loop_
_symmetry_equiv_pos_site_id
_symmetry_equiv_pos_as_xyz
1 x,y,z
2 -x,-y,-z
_cell_length_a                   9.2340(19)
_cell_length_b                   11.811(3)
_cell_length_c                   12.577(3)
_cell_angle_alpha                69.63(2)
_cell_angle_beta                 70.562(19)
_cell_angle_gamma                76.389(19)
_cell_volume                     1201.48
_exptl_crystal_colour            colorless
_exptl_crystal_description       block
_cell_formula_units_Z            2
loop_
_atom_site_label
_atom_site_type_symbol
_atom_site_fract_x
_atom_site_fract_y
_atom_site_fract_z
C1 C 0.8050(4) 0.2624(4) 0.7256(4)
C2 C 0.9911(5) 0.3641(5) 0.7302(6)
H1 H 0.9897 0.4092 0.7839
H2 H 1.0642 0.3959 0.6522
C3 C 1.0313(5) 0.2289(5) 0.7811(6)
H3 H 1.1402 0.2006 0.7439
H4 H 1.0142 0.2060 0.8675
C4 C 0.7429(5) 0.4868(4) 0.6952(4)
H5 H 0.6489 0.4771 0.6796
H6 H 0.8019 0.5423 0.6226
C5 C 0.6941(5) 0.5448(4) 0.7944(5)
C6 C 0.6136(5) 0.6725(5) 0.7736(5)
C7 C 0.9314(4) 0.0473(4) 0.7926(4)
C8 C 0.8440(5) -0.0106(5) 0.9059(5)
C9 C 0.8649(5) -0.1361(5) 0.9440(5)
H7 H 0.8030 -0.1768 1.0190
C10 C 0.9747(5) -0.2058(4) 0.8755(5)
C11 C 1.0593(5) -0.1457(4) 0.7669(5)
H8 H 1.1342 -0.1918 0.7196
C12 C 1.0400(5) -0.0192(4) 0.7227(4)
C13 C 0.7292(6) 0.0624(5) 0.9839(5)
H9 H 0.6700 0.0071 1.0549
H10 H 0.6581 0.1202 0.9407
H11 H 0.7852 0.1072 1.0066
C14 C 1.0008(7) -0.3434(5) 0.9236(6)
H12 H 1.0806 -0.3676 0.9656
H13 H 1.0347 -0.3792 0.8582
H14 H 0.9039 -0.3725 0.9780
C15 C 1.1336(6) 0.0427(5) 0.6000(5)
H15 H 1.0667 0.1099 0.5602
H16 H 1.1758 -0.0164 0.5549
H17 H 1.2188 0.0747 0.6053
C16 C 0.4952(4) 0.2961(4) 0.7812(4)
H18 H 0.4510 0.2225 0.8390
H19 H 0.5258 0.3372 0.8253
C17 C 0.3687(5) 0.3804(5) 0.7305(6)
H20 H 0.4072 0.4571 0.6782
H21 H 0.2795 0.3970 0.7947
H22 H 0.3371 0.3420 0.6856
C18 C 0.6765(5) 0.3389(4) 0.5494(4)
H23 H 0.5995 0.3239 0.5185
H24 H 0.6523 0.4250 0.5499
C19 C 0.8386(7) 0.3210(5) 0.4643(5)
H25 H 0.9167 0.3329 0.4950
H26 H 0.8420 0.3804 0.3866
H27 H 0.8602 0.2383 0.4570
C20 C 0.6528(5) 0.1109(4) 0.6910(5)
H28 H 0.7507 0.0837 0.6378
H29 H 0.6480 0.0568 0.7721
C21 C 0.5169(6) 0.0976(5) 0.6552(6)
H30 H 0.4193 0.1232 0.7082
H31 H 0.5212 0.0122 0.6603
H32 H 0.5226 0.1487 0.5739
N1 N 0.8359(4) 0.3706(4) 0.7201(4)
N2 N 0.9221(4) 0.1786(3) 0.7516(4)
O1 O 0.7228(5) 0.4873(4) 0.8873(4)
B1 B 0.6556(5) 0.2506(5) 0.6869(5)
C22 C 0.7383(9) 0.7575(7) 0.6943(8)
H33 H 0.7736 0.7482 0.6148
H34 H 0.8264 0.7356 0.7279
H35 H 0.6936 0.8423 0.6902
C23 C 0.5554(10) 0.7116(8) 0.8883(8)
H36 H 0.4935 0.7923 0.8737
H37 H 0.6445 0.7148 0.9125
H38 H 0.4915 0.6524 0.9510
C24 C 0.4888(12) 0.6987(9) 0.7197(10)
H39 H 0.5320 0.7073 0.6352
H40 H 0.4241 0.7747 0.7306
H41 H 0.4257 0.6318 0.7568
loop_
_geom_bond_atom_site_label_1
_geom_bond_atom_site_label_2
_geom_bond_site_symmetry_1
_geom_bond_site_symmetry_2
C1 N1 1_555 1_555
C2 H1 1_555 1_555
H2 C2 1_555 1_555
C3 C2 1_555 1_555
H3 C3 1_555 1_555
H4 C3 1_555 1_555
C4 H5 1_555 1_555
H6 C4 1_555 1_555
C5 C4 1_555 1_555
C6 C5 1_555 1_555
C7 C8 1_555 1_555
C8 C9 1_555 1_555
C9 H7 1_555 1_555
C10 C9 1_555 1_555
C11 C10 1_555 1_555
H8 C11 1_555 1_555
C12 C7 1_555 1_555
C13 C8 1_555 1_555
H9 C13 1_555 1_555
H10 C13 1_555 1_555
H11 C13 1_555 1_555
C14 C10 1_555 1_555
H12 C14 1_555 1_555
H13 C14 1_555 1_555
H14 C14 1_555 1_555
C15 C12 1_555 1_555
H15 C15 1_555 1_555
H16 C15 1_555 1_555
H17 C15 1_555 1_555
C16 H18 1_555 1_555
H19 C16 1_555 1_555
C17 C16 1_555 1_555
H20 C17 1_555 1_555
H21 C17 1_555 1_555
H22 C17 1_555 1_555
C18 H23 1_555 1_555
H24 C18 1_555 1_555
C19 C18 1_555 1_555
H25 C19 1_555 1_555
H26 C19 1_555 1_555
H27 C19 1_555 1_555
C20 H28 1_555 1_555
H29 C20 1_555 1_555
C21 C20 1_555 1_555
H30 C21 1_555 1_555
H31 C21 1_555 1_555
H32 C21 1_555 1_555
N1 C2 1_555 1_555
N2 C1 1_555 1_555
O1 C5 1_555 1_555
B1 C1 1_555 1_555
C22 C6 1_555 1_555
H33 C22 1_555 1_555
H34 C22 1_555 1_555
H35 C22 1_555 1_555
C23 C6 1_555 1_555
H36 C23 1_555 1_555
H37 C23 1_555 1_555
H38 C23 1_555 1_555
C24 C6 1_555 1_555
H39 C24 1_555 1_555
H40 C24 1_555 1_555
H41 C24 1_555 1_555
C3 N2 1_555 1_555
C4 N1 1_555 1_555
C7 N2 1_555 1_555
C11 C12 1_555 1_555
C16 B1 1_555 1_555
C18 B1 1_555 1_555
C20 B1 1_555 1_555

#END
