
#######################################################################
#
#                 Cambridge Crystallographic Data Centre
#                                CCDC 
#
#######################################################################
#
# If this CIF has been generated from an entry in the Cambridge 
# Structural Database, then it will include bibliographic, chemical, 
# crystal, experimental, refinement or atomic coordinate data resulting 
# from the CCDC's data processing and validation procedures.
#
#######################################################################

data_HORQAG
_chemical_formula_moiety         'C26 H72 N4 P4 Si6'
_chemical_name_systematic        
1,2-Di-t-butyl-3,4-bis(tris(trimethylsilyl)hydrazino)tetraphosphetane
_symmetry_cell_setting           triclinic
_symmetry_space_group_name_H-M   'P -1'
_symmetry_Int_Tables_number      2
_space_group_name_Hall           '-P 1'
loop_
_symmetry_equiv_pos_site_id
_symmetry_equiv_pos_as_xyz
1 x,y,z
2 -x,-y,-z
_cell_length_a                   9.867(2)
_cell_length_b                   13.136(3)
_cell_length_c                   18.615(4)
_cell_angle_alpha                78.95(2)
_cell_angle_beta                 84.48(2)
_cell_angle_gamma                68.21(2)
_cell_volume                     2197.99
_exptl_crystal_colour            yellow
_exptl_crystal_description       plates
_cell_formula_units_Z            2
loop_
_atom_site_label
_atom_site_type_symbol
_atom_site_fract_x
_atom_site_fract_y
_atom_site_fract_z
P1 P 0.11614(10) 0.13455(8) 0.71556(5)
P2 P 0.27707(10) 0.18790(8) 0.76007(5)
P3 P 0.23795(11) 0.31475(8) 0.65848(5)
P4 P 0.20031(11) 0.19081(8) 0.60599(5)
Si1 Si 0.02346(14) -0.06317(10) 0.75029(7)
Si2 Si 0.41182(13) -0.15016(10) 0.80677(7)
Si3 Si 0.38797(16) -0.13228(11) 0.64179(7)
Si4 Si 0.31276(14) 0.22742(11) 0.91061(6)
Si5 Si 0.02653(14) 0.48085(9) 0.80499(7)
Si6 Si -0.08726(13) 0.29734(10) 0.87972(7)
N1 N 0.1644(3) -0.0076(2) 0.73077(16)
N2 N 0.3145(3) -0.0889(3) 0.72531(17)
N3 N 0.2040(3) 0.2554(2) 0.83364(16)
N4 N 0.0559(3) 0.3387(2) 0.83792(16)
C1 C 0.0218(7) -0.1357(5) 0.8464(3)
H1 H 0.0120 -0.0852 0.8794
H2 H 0.1114 -0.1982 0.8553
H3 H -0.0589 -0.1610 0.8542
C2 C 0.0397(8) -0.1681(6) 0.6937(4)
H4 H 0.0405 -0.1361 0.6428
H5 H -0.0417 -0.1924 0.7044
H6 H 0.1289 -0.2306 0.7044
C3 C -0.1550(5) 0.0488(5) 0.7354(4)
H7 H -0.1583 0.0880 0.6861
H8 H -0.1698 0.0993 0.7690
H9 H -0.2303 0.0177 0.7434
C4 C 0.3244(5) -0.0764(4) 0.8842(2)
H10 H 0.3108 0.0009 0.8704
H11 H 0.3857 -0.1081 0.9259
H12 H 0.2313 -0.0839 0.8963
C5 C 0.5986(5) -0.1453(5) 0.7937(3)
H13 H 0.5922 -0.0698 0.7776
H14 H 0.6518 -0.1896 0.7576
H15 H 0.6484 -0.1741 0.8392
C6 C 0.4341(7) -0.3001(4) 0.8377(3)
H16 H 0.3397 -0.3064 0.8451
H17 H 0.4855 -0.3278 0.8828
H18 H 0.4887 -0.3427 0.8010
C7 C 0.5478(6) -0.0904(6) 0.6080(3)
H19 H 0.5173 -0.0108 0.6000
H20 H 0.5857 -0.1171 0.5629
H21 H 0.6225 -0.1220 0.6439
C8 C 0.2564(6) -0.0760(4) 0.5677(2)
H22 H 0.1726 -0.0963 0.5823
H23 H 0.3013 -0.1060 0.5244
H24 H 0.2267 0.0035 0.5575
C9 C 0.4633(8) -0.2873(5) 0.6534(3)
H25 H 0.3873 -0.3155 0.6710
H26 H 0.5403 -0.3164 0.6879
H27 H 0.5012 -0.3096 0.6071
C10 C 0.2519(6) 0.1495(5) 0.9937(2)
H28 H 0.2488 0.0821 0.9825
H29 H 0.1564 0.1946 1.0093
H30 H 0.3192 0.1318 1.0322
C11 C 0.5058(5) 0.1442(4) 0.8887(3)
H31 H 0.5103 0.0770 0.8737
H32 H 0.5633 0.1259 0.9313
H33 H 0.5433 0.1868 0.8498
C12 C 0.3126(7) 0.3554(5) 0.9405(3)
H34 H 0.3435 0.4002 0.9002
H35 H 0.3784 0.3346 0.9801
H36 H 0.2158 0.3971 0.9566
C13 C -0.0956(6) 0.5429(4) 0.7252(3)
H37 H -0.1859 0.5308 0.7372
H38 H -0.0490 0.5086 0.6838
H39 H -0.1149 0.6214 0.7137
C14 C 0.1975(6) 0.5076(4) 0.7787(3)
H40 H 0.2498 0.4647 0.7418
H41 H 0.2569 0.4868 0.8209
H42 H 0.1746 0.5853 0.7599
C15 C -0.0718(6) 0.5661(4) 0.8769(3)
H43 H -0.1615 0.5541 0.8911
H44 H -0.0926 0.6435 0.8578
H45 H -0.0116 0.5445 0.9189
C16 C -0.0351(5) 0.1446(4) 0.9010(3)
H46 H -0.0005 0.1137 0.8570
H47 H -0.1186 0.1266 0.9207
H48 H 0.0407 0.1141 0.9362
C17 C -0.1523(7) 0.3481(5) 0.9696(3)
H49 H -0.1821 0.4277 0.9620
H50 H -0.0743 0.3157 1.0037
H51 H -0.2334 0.3269 0.9890
C18 C -0.2467(6) 0.3550(5) 0.8205(3)
H52 H -0.2187 0.3315 0.7738
H53 H -0.2824 0.4347 0.8139
H54 H -0.3221 0.3288 0.8430
C19 C 0.4275(5) 0.3106(4) 0.6227(2)
C20 C 0.4978(6) 0.3454(6) 0.6770(3)
H55 H 0.5930 0.3432 0.6588
H56 H 0.5064 0.2956 0.7228
H57 H 0.4387 0.4197 0.6841
C21 C 0.5314(6) 0.1967(6) 0.6092(4)
H58 H 0.6239 0.2012 0.5912
H59 H 0.4913 0.1725 0.5736
H60 H 0.5446 0.1446 0.6541
C22 C 0.4052(7) 0.3888(7) 0.5510(4)
H61 H 0.4980 0.3897 0.5305
H62 H 0.3438 0.4623 0.5587
H63 H 0.3597 0.3644 0.5178
C23 C 0.0289(5) 0.2743(3) 0.5519(2)
C24 C -0.0940(5) 0.3511(4) 0.5924(3)
H64 H -0.1755 0.3895 0.5609
H65 H -0.0619 0.4042 0.6075
H66 H -0.1231 0.3086 0.6348
C25 C 0.0750(6) 0.3427(5) 0.4853(3)
H67 H -0.0084 0.3868 0.4560
H68 H 0.1473 0.2938 0.4568
H69 H 0.1152 0.3908 0.5012
C26 C -0.0245(7) 0.1923(5) 0.5267(3)
H70 H -0.1114 0.2325 0.4992
H71 H -0.0455 0.1447 0.5686
H72 H 0.0498 0.1482 0.4964
loop_
_geom_bond_atom_site_label_1
_geom_bond_atom_site_label_2
_geom_bond_site_symmetry_1
_geom_bond_site_symmetry_2
P1 P2 1_555 1_555
P2 P3 1_555 1_555
P3 P4 1_555 1_555
P4 P1 1_555 1_555
Si1 N1 1_555 1_555
Si2 N2 1_555 1_555
Si3 N2 1_555 1_555
Si4 N3 1_555 1_555
Si5 N4 1_555 1_555
Si6 N4 1_555 1_555
N1 P1 1_555 1_555
N2 N1 1_555 1_555
N3 P2 1_555 1_555
N4 N3 1_555 1_555
C1 Si1 1_555 1_555
H1 C1 1_555 1_555
H2 C1 1_555 1_555
H3 C1 1_555 1_555
C2 Si1 1_555 1_555
H4 C2 1_555 1_555
H5 C2 1_555 1_555
H6 C2 1_555 1_555
C3 Si1 1_555 1_555
H7 C3 1_555 1_555
H8 C3 1_555 1_555
H9 C3 1_555 1_555
C4 Si2 1_555 1_555
H10 C4 1_555 1_555
H11 C4 1_555 1_555
H12 C4 1_555 1_555
C5 Si2 1_555 1_555
H13 C5 1_555 1_555
H14 C5 1_555 1_555
H15 C5 1_555 1_555
C6 Si2 1_555 1_555
H16 C6 1_555 1_555
H17 C6 1_555 1_555
H18 C6 1_555 1_555
C7 Si3 1_555 1_555
H19 C7 1_555 1_555
H20 C7 1_555 1_555
H21 C7 1_555 1_555
C8 Si3 1_555 1_555
H22 C8 1_555 1_555
H23 C8 1_555 1_555
H24 C8 1_555 1_555
C9 Si3 1_555 1_555
H25 C9 1_555 1_555
H26 C9 1_555 1_555
H27 C9 1_555 1_555
C10 Si4 1_555 1_555
H28 C10 1_555 1_555
H29 C10 1_555 1_555
H30 C10 1_555 1_555
C11 Si4 1_555 1_555
H31 C11 1_555 1_555
H32 C11 1_555 1_555
H33 C11 1_555 1_555
C12 Si4 1_555 1_555
H34 C12 1_555 1_555
H35 C12 1_555 1_555
H36 C12 1_555 1_555
C13 Si5 1_555 1_555
H37 C13 1_555 1_555
H38 C13 1_555 1_555
H39 C13 1_555 1_555
C14 Si5 1_555 1_555
H40 C14 1_555 1_555
H41 C14 1_555 1_555
H42 C14 1_555 1_555
C15 Si5 1_555 1_555
H43 C15 1_555 1_555
H44 C15 1_555 1_555
H45 C15 1_555 1_555
C16 Si6 1_555 1_555
H46 C16 1_555 1_555
H47 C16 1_555 1_555
H48 C16 1_555 1_555
C17 Si6 1_555 1_555
H49 C17 1_555 1_555
H50 C17 1_555 1_555
H51 C17 1_555 1_555
C18 Si6 1_555 1_555
H52 C18 1_555 1_555
H53 C18 1_555 1_555
H54 C18 1_555 1_555
C19 P3 1_555 1_555
C20 C19 1_555 1_555
H55 C20 1_555 1_555
H56 C20 1_555 1_555
H57 C20 1_555 1_555
C21 C19 1_555 1_555
H58 C21 1_555 1_555
H59 C21 1_555 1_555
H60 C21 1_555 1_555
C22 C19 1_555 1_555
H61 C22 1_555 1_555
H62 C22 1_555 1_555
H63 C22 1_555 1_555
C23 P4 1_555 1_555
C24 C23 1_555 1_555
H64 C24 1_555 1_555
H65 C24 1_555 1_555
H66 C24 1_555 1_555
C25 C23 1_555 1_555
H67 C25 1_555 1_555
H68 C25 1_555 1_555
H69 C25 1_555 1_555
C26 C23 1_555 1_555
H70 C26 1_555 1_555
H71 C26 1_555 1_555
H72 C26 1_555 1_555

#END
