
#######################################################################
#
#                 Cambridge Crystallographic Data Centre
#                                CCDC 
#
#######################################################################
#
# If this CIF has been generated from an entry in the Cambridge 
# Structural Database, then it will include bibliographic, chemical, 
# crystal, experimental, refinement or atomic coordinate data resulting 
# from the CCDC's data processing and validation procedures.
#
#######################################################################

data_HORTIT
_chemical_compound_source        'fungal strain Chaetomium globosum'
_chemical_name_common            'Chaetoglobosin E'
_chemical_formula_moiety         'C32 H38 N2 O5'
_chemical_name_systematic        
6,14-dihydroxy-3-(1H-indol-3-ylmethyl)-4,5,10,12-tetramethyl-3,3a,6,6a,9,10,15,16-octahydro-1H-cyclotrideca[d]isoindole-1,13,17(2H,14H)-trione
_symmetry_cell_setting           monoclinic
_symmetry_space_group_name_H-M   'P 21'
_symmetry_Int_Tables_number      4
_space_group_name_Hall           'P 2yb'
loop_
_symmetry_equiv_pos_site_id
_symmetry_equiv_pos_as_xyz
1 x,y,z
2 -x,1/2+y,-z
_cell_length_a                   7.74550(10)
_cell_length_b                   14.8183(2)
_cell_length_c                   12.3700(2)
_cell_angle_alpha                90
_cell_angle_beta                 98.4255(14)
_cell_angle_gamma                90
_cell_volume                     1404.45
_exptl_crystal_colour            colorless
_cell_formula_units_Z            2
loop_
_atom_site_label
_atom_site_type_symbol
_atom_site_fract_x
_atom_site_fract_y
_atom_site_fract_z
O1 O -0.87459(19) -0.53529(14) -0.21942(16)
H1 H -0.8682 -0.4801 -0.2153
O2 O -1.4644(2) -0.65214(14) -0.53450(14)
O3 O -1.4323(2) -0.48928(14) -0.38079(18)
N1 N -1.5390(3) -0.60013(16) -0.28092(18)
H2 H -1.6227 -0.5689 -0.2612
O4 O -1.0936(3) -0.84695(15) -0.7974(2)
C1 C -0.8766(3) -0.55036(19) -0.68519(19)
H3 H -0.7608 -0.5777 -0.6666
C2 C -1.6209(3) -0.8536(2) -0.2883(2)
C3 C -1.1941(3) -0.69879(18) -0.16329(18)
C4 C -1.3183(3) -0.70917(18) -0.26841(19)
H4 H -1.3076 -0.7703 -0.2969
C5 C -1.1031(3) -0.60347(18) -0.34499(19)
H5 H -1.0268 -0.6558 -0.3486
C6 C -1.5865(3) -0.9897(2) -0.1991(2)
C7 C -1.0540(3) -0.56220(18) -0.2321(2)
H6 H -1.1275 -0.5093 -0.2249
C8 C -1.0731(3) -0.54145(18) -0.4367(2)
H7 H -1.1530 -0.4952 -0.4558
C9 C -1.0072(3) -0.62470(18) -0.7081(2)
H8 H -1.1237 -0.6089 -0.7099
C10 C -1.2926(3) -0.63978(17) -0.35842(19)
C11 C -1.3395(3) -0.67933(17) -0.4732(2)
C12 C -0.9126(3) -0.4931(2) -0.5876(2)
H9 H -0.8147 -0.4528 -0.5666
H10 H -1.0153 -0.4563 -0.6096
C13 C -1.1185(3) -0.77652(19) -0.7512(2)
O5 O -1.4262(3) -0.7973(2) -0.8012(2)
H11 H -1.4008 -0.8494 -0.8147
C14 C -1.4271(3) -0.56527(18) -0.3433(2)
C15 C -1.0789(3) -0.63081(19) -0.1446(2)
N2 N -1.5627(3) -1.00052(19) -0.3058(2)
H12 H -1.5392 -1.0507 -0.3353
C16 C -0.9404(3) -0.54871(19) -0.4916(2)
H13 H -0.8570 -0.5924 -0.4683
C17 C -1.5098(3) -0.69343(18) -0.2491(2)
H14 H -1.5162 -0.6994 -0.1709
C18 C -1.6273(3) -0.8977(2) -0.1864(2)
C19 C -1.2247(4) -0.75307(19) -0.5082(2)
H15 H -1.1954 -0.7948 -0.4479
H16 H -1.1169 -0.7263 -0.5240
C20 C -0.9748(3) -0.7106(2) -0.7263(2)
C21 C -1.3088(4) -0.8057(2) -0.6085(2)
H17 H -1.2539 -0.8645 -0.6075
H18 H -1.4309 -0.8152 -0.6022
C22 C -1.2983(3) -0.7618(2) -0.7187(2)
H19 H -1.3180 -0.6968 -0.7125
C23 C -1.5822(3) -0.9184(2) -0.3586(2)
H20 H -1.5707 -0.9088 -0.4315
C24 C -0.8734(4) -0.4896(2) -0.7846(2)
H21 H -0.8310 -0.5233 -0.8416
H22 H -0.7978 -0.4391 -0.7646
H23 H -0.9892 -0.4683 -0.8101
C25 C -1.2138(4) -0.7693(2) -0.0780(2)
H24 H -1.2695 -0.7430 -0.0211
H25 H -1.1008 -0.7916 -0.0474
H26 H -1.2838 -0.8182 -0.1111
C26 C -1.6475(3) -0.7558(2) -0.3136(2)
H27 H -1.7621 -0.7383 -0.2981
H28 H -1.6460 -0.7467 -0.3911
C27 C -1.6622(4) -0.8692(3) -0.0837(2)
H29 H -1.6917 -0.8095 -0.0723
C28 C -0.9682(4) -0.6163(3) -0.0357(2)
H30 H -1.0182 -0.6482 0.0198
H31 H -0.9632 -0.5531 -0.0189
H32 H -0.8524 -0.6385 -0.0384
C29 C -1.5751(4) -1.0506(3) -0.1137(3)
H33 H -1.5459 -1.1107 -0.1235
C30 C -1.6077(5) -1.0202(3) -0.0155(4)
H34 H -1.6000 -1.0602 0.0430
C31 C -1.6523(5) -0.9311(3) 0.0001(3)
H35 H -1.6759 -0.9128 0.0684
C32 C -0.7964(9) -0.7453(6) -0.7446(12)
H36 H -0.7888 -0.7449 -0.8213
H37 H -0.7807 -0.8058 -0.7171
H38 H -0.7071 -0.7072 -0.7068
C33? C -0.801(3) -0.7556(19) -0.689(3)
H39? H -0.7649 -0.7881 -0.7496
H40? H -0.8114 -0.7966 -0.6308
H41? H -0.7149 -0.7104 -0.6647
loop_
_geom_bond_atom_site_label_1
_geom_bond_atom_site_label_2
_geom_bond_site_symmetry_1
_geom_bond_site_symmetry_2
O1 H1 1_555 1_555
O2 C11 1_555 1_555
O3 C14 1_555 1_555
N1 H2 1_555 1_555
O4 C13 1_555 1_555
C1 H3 1_555 1_555
C2 C18 1_555 1_555
C3 C4 1_555 1_555
C4 H4 1_555 1_555
C5 H5 1_555 1_555
C6 N2 1_555 1_555
C7 O1 1_555 1_555
H6 C7 1_555 1_555
C8 C5 1_555 1_555
H7 C8 1_555 1_555
C9 C1 1_555 1_555
H8 C9 1_555 1_555
C10 C4 1_555 1_555
C11 C10 1_555 1_555
C12 C1 1_555 1_555
H9 C12 1_555 1_555
H10 C12 1_555 1_555
C13 C20 1_555 1_555
O5 H11 1_555 1_555
C14 N1 1_555 1_555
C15 C3 1_555 1_555
N2 H12 1_555 1_555
C16 C8 1_555 1_555
H13 C16 1_555 1_555
C17 N1 1_555 1_555
H14 C17 1_555 1_555
C18 C6 1_555 1_555
C19 C11 1_555 1_555
H15 C19 1_555 1_555
H16 C19 1_555 1_555
C20 C9 1_555 1_555
C21 C19 1_555 1_555
H17 C21 1_555 1_555
H18 C21 1_555 1_555
C22 C13 1_555 1_555
H19 C22 1_555 1_555
C23 C2 1_555 1_555
H20 C23 1_555 1_555
C24 C1 1_555 1_555
H21 C24 1_555 1_555
H22 C24 1_555 1_555
H23 C24 1_555 1_555
C25 C3 1_555 1_555
H24 C25 1_555 1_555
H25 C25 1_555 1_555
H26 C25 1_555 1_555
C26 C2 1_555 1_555
H27 C26 1_555 1_555
H28 C26 1_555 1_555
C27 C18 1_555 1_555
H29 C27 1_555 1_555
C28 C15 1_555 1_555
H30 C28 1_555 1_555
H31 C28 1_555 1_555
H32 C28 1_555 1_555
C29 C6 1_555 1_555
H33 C29 1_555 1_555
C30 C29 1_555 1_555
H34 C30 1_555 1_555
C31 C27 1_555 1_555
H35 C31 1_555 1_555
C32 C20 1_555 1_555
H36 C32 1_555 1_555
H37 C32 1_555 1_555
H38 C32 1_555 1_555
C4 C17 1_555 1_555
C5 C7 1_555 1_555
C5 C10 1_555 1_555
C7 C15 1_555 1_555
C10 C14 1_555 1_555
C12 C16 1_555 1_555
O5 C22 1_555 1_555
N2 C23 1_555 1_555
C17 C26 1_555 1_555
C21 C22 1_555 1_555
C30 C31 1_555 1_555

#END
