
#######################################################################
#
#                 Cambridge Crystallographic Data Centre
#                                CCDC 
#
#######################################################################
#
# If this CIF has been generated from an entry in the Cambridge 
# Structural Database, then it will include bibliographic, chemical, 
# crystal, experimental, refinement or atomic coordinate data resulting 
# from the CCDC's data processing and validation procedures.
#
#######################################################################

data_HOSBAT01
_chemical_name_common            'Japonicone A'
_chemical_formula_moiety         'C32 H40 O7,C2 H3 N1'
_chemical_name_systematic        
"8-Hydroxy-2',5,8a,11'-tetramethyl-7'-methylene-2,6'-dioxo-3a,5,6,7,8,8a,9,9a-octahydrospiro[naphtho[2,3-b]furan-3,13'-[5]oxatetracyclo[10.2.1.0^1,10^.0^4,8^]pentadec[10]en]-15'-yl acetate acetonitrile solvate"
_symmetry_cell_setting           monoclinic
_symmetry_space_group_name_H-M   'P 21'
_symmetry_Int_Tables_number      4
_space_group_name_Hall           'P 2yb'
loop_
_symmetry_equiv_pos_site_id
_symmetry_equiv_pos_as_xyz
1 x,y,z
2 -x,1/2+y,-z
_cell_length_a                   9.50250(10)
_cell_length_b                   9.95250(10)
_cell_length_c                   17.3337(2)
_cell_angle_alpha                90
_cell_angle_beta                 104.11
_cell_angle_gamma                90
_cell_volume                     1589.85
_exptl_crystal_colour            colorless
_exptl_crystal_description       prismatic
_cell_formula_units_Z            2
loop_
_atom_site_label
_atom_site_type_symbol
_atom_site_fract_x
_atom_site_fract_y
_atom_site_fract_z
N1 N 0.3743(5) 0.3686(6) 0.2162(3)
C18 C 0.3666(4) 0.2919(5) 0.2650(3)
C19 C 0.3544(6) 0.1975(7) 0.3246(3)
H24 H 0.3616 0.2435 0.3741
H25 H 0.4310 0.1325 0.3309
H26 H 0.2623 0.1528 0.3091
O1 O 0.8538(2) 0.4623(2) -0.17769(7)
H1 H 0.9328 0.4246 -0.1691
O2 O 0.90101(14) 0.76871(13) 0.17548(7)
O3 O 0.98543(13) 0.62926(13) 0.09764(6)
O4 O 0.4719(2) 0.9719(2) 0.45186(12)
O5 O 0.51463(12) 0.75783(15) 0.42604(8)
O6 O 0.88242(13) 0.28424(13) 0.27965(6)
O7 O 1.02590(19) 0.14994(18) 0.36820(10)
C1 C 0.7687(2) 0.4047(2) -0.12847(9)
H2 H 0.8009 0.3118 -0.1168
C2 C 0.6103(3) 0.4016(3) -0.17306(11)
H3 H 0.5746 0.4927 -0.1839
H4 H 0.6002 0.3558 -0.2235
C3 C 0.5218(3) 0.3294(3) -0.12414(12)
H5 H 0.5534 0.2366 -0.1170
H6 H 0.4206 0.3298 -0.1529
C4 C 0.5360(2) 0.3943(2) -0.04190(11)
H7 H 0.5009 0.3280 -0.0091
C5 C 0.69420(18) 0.42365(16) -0.00035(9)
C6 C 0.74074(19) 0.39714(17) 0.07702(9)
H8 H 0.6734 0.3593 0.1015
C7 C 0.88921(18) 0.42141(16) 0.12894(8)
H9 H 0.9304 0.3361 0.1523
C8 C 0.99216(17) 0.48551(19) 0.08404(9)
H10 H 1.0911 0.4538 0.1072
C9 C 0.95348(18) 0.4564(2) -0.00420(8)
H11 H 0.9762 0.3631 -0.0118
H12 H 1.0150 0.5110 -0.0288
C10 C 0.79486(18) 0.48167(17) -0.04827(8)
C11 C 0.89271(14) 0.52533(16) 0.19638(7)
C12 C 0.92356(16) 0.65498(17) 0.15787(8)
C13 C 0.76258(14) 0.53572(16) 0.23508(7)
H13 H 0.6887 0.4701 0.2123
H14 H 0.7199 0.6248 0.2275
C14 C 0.7674(2) 0.6330(2) -0.06359(11)
H15 H 0.6729 0.6460 -0.0983
H16 H 0.8396 0.6691 -0.0881
H17 H 0.7727 0.6781 -0.0140
C15 C 0.4380(3) 0.5176(4) -0.04759(16)
H18 H 0.4497 0.5565 0.0043
H19 H 0.3387 0.4913 -0.0680
H20 H 0.4641 0.5825 -0.0827
C16 C 0.9318(2) 0.16478(19) 0.30898(10)
C17 C 0.8513(3) 0.0536(2) 0.25938(13)
H21 H 0.9064 -0.0280 0.2706
H22 H 0.8369 0.0758 0.2041
H23 H 0.7588 0.0416 0.2716
C20 C 0.82777(13) 0.50672(15) 0.32572(7)
C21 C 0.94570(15) 0.40335(17) 0.32023(8)
H27 H 1.0086 0.3828 0.3727
C22 C 1.02148(14) 0.49419(18) 0.27172(8)
H28 H 1.1097 0.4572 0.2602
C23 C 1.04355(14) 0.61564(18) 0.32608(8)
C24 C 0.92945(14) 0.62432(15) 0.35868(7)
C25 C 0.90013(14) 0.73375(16) 0.41161(8)
H29 H 0.9594 0.8110 0.4065
H30 H 0.9291 0.7033 0.4664
C26 C 0.74126(14) 0.77736(16) 0.39327(8)
H31 H 0.7065 0.7880 0.3355
C27 C 0.64197(15) 0.67710(17) 0.42124(8)
H32 H 0.6905 0.6462 0.4748
C28 C 0.59283(14) 0.55709(17) 0.36981(8)
H33 H 0.5514 0.5871 0.3158
H34 H 0.5169 0.5117 0.3884
C29 C 0.71537(15) 0.45618(16) 0.36919(8)
H35 H 0.6685 0.3786 0.3387
C30 C 0.70641(17) 0.90347(18) 0.43221(8)
C31 C 0.5531(2) 0.8875(2) 0.43840(11)
C32 C 0.7853(2) 1.0084(2) 0.46131(11)
H36 H 0.7461 1.0759 0.4868
H37 H 0.8803 1.0153 0.4565
C33 C 0.78611(19) 0.4027(2) 0.45275(9)
H38 H 0.8490 0.3289 0.4487
H39 H 0.7120 0.3727 0.4778
H40 H 0.8416 0.4730 0.4840
C34 C 1.17028(17) 0.7080(2) 0.33422(10)
H41 H 1.1559 0.7863 0.3637
H42 H 1.1792 0.7344 0.2824
H43 H 1.2572 0.6626 0.3618
loop_
_geom_bond_atom_site_label_1
_geom_bond_atom_site_label_2
_geom_bond_site_symmetry_1
_geom_bond_site_symmetry_2
N1 C18 1_555 1_555
O1 H1 1_555 1_555
O2 C12 1_555 1_555
O3 C8 1_555 1_555
O4 C31 1_555 1_555
O5 C27 1_555 1_555
O6 C16 1_555 1_555
O7 C16 1_555 1_555
C1 O1 1_555 1_555
H2 C1 1_555 1_555
C2 C1 1_555 1_555
H3 C2 1_555 1_555
H4 C2 1_555 1_555
C3 C2 1_555 1_555
H5 C3 1_555 1_555
H6 C3 1_555 1_555
C4 C3 1_555 1_555
H7 C4 1_555 1_555
C5 C4 1_555 1_555
C6 C5 1_555 1_555
H8 C6 1_555 1_555
C7 C6 1_555 1_555
H9 C7 1_555 1_555
C8 C7 1_555 1_555
H10 C8 1_555 1_555
C9 C8 1_555 1_555
H11 C9 1_555 1_555
H12 C9 1_555 1_555
C10 C1 1_555 1_555
C11 C7 1_555 1_555
C12 O3 1_555 1_555
C13 C11 1_555 1_555
H13 C13 1_555 1_555
H14 C13 1_555 1_555
C14 C10 1_555 1_555
H15 C14 1_555 1_555
H16 C14 1_555 1_555
H17 C14 1_555 1_555
C15 C4 1_555 1_555
H18 C15 1_555 1_555
H19 C15 1_555 1_555
H20 C15 1_555 1_555
C16 C17 1_555 1_555
C17 H21 1_555 1_555
H22 C17 1_555 1_555
H23 C17 1_555 1_555
C18 C19 1_555 1_555
C19 H24 1_555 1_555
H25 C19 1_555 1_555
H26 C19 1_555 1_555
C20 C13 1_555 1_555
C21 O6 1_555 1_555
H27 C21 1_555 1_555
C22 C11 1_555 1_555
H28 C22 1_555 1_555
C23 C22 1_555 1_555
C24 C20 1_555 1_555
C25 C24 1_555 1_555
H29 C25 1_555 1_555
H30 C25 1_555 1_555
C26 C25 1_555 1_555
H31 C26 1_555 1_555
C27 C26 1_555 1_555
H32 C27 1_555 1_555
C28 C27 1_555 1_555
H33 C28 1_555 1_555
H34 C28 1_555 1_555
C29 C20 1_555 1_555
H35 C29 1_555 1_555
C30 C26 1_555 1_555
C31 O5 1_555 1_555
C32 C30 1_555 1_555
H36 C32 1_555 1_555
H37 C32 1_555 1_555
C33 C29 1_555 1_555
H38 C33 1_555 1_555
H39 C33 1_555 1_555
H40 C33 1_555 1_555
C34 C23 1_555 1_555
H41 C34 1_555 1_555
H42 C34 1_555 1_555
H43 C34 1_555 1_555
C5 C10 1_555 1_555
C9 C10 1_555 1_555
C11 C12 1_555 1_555
C20 C21 1_555 1_555
C21 C22 1_555 1_555
C23 C24 1_555 1_555
C28 C29 1_555 1_555
C30 C31 1_555 1_555

#END
