
#######################################################################
#
#                 Cambridge Crystallographic Data Centre
#                                CCDC 
#
#######################################################################
#
# If this CIF has been generated from an entry in the Cambridge 
# Structural Database, then it will include bibliographic, chemical, 
# crystal, experimental, refinement or atomic coordinate data resulting 
# from the CCDC's data processing and validation procedures.
#
#######################################################################

data_HOSMUX
_chemical_formula_moiety         'C24 H28 O3'
_chemical_name_systematic        
(S)-(-)-6-(4,4-Dimethyl-3-oxopentyl)-5,5-diphenyltetrahydropyran-2-one
_symmetry_cell_setting           monoclinic
_symmetry_space_group_name_H-M   'P 21'
_symmetry_Int_Tables_number      4
_space_group_name_Hall           'P 2yb'
loop_
_symmetry_equiv_pos_site_id
_symmetry_equiv_pos_as_xyz
1 x,y,z
2 -x,1/2+y,-z
_cell_length_a                   9.8331(10)
_cell_length_b                   10.3392(10)
_cell_length_c                   10.5216(12)
_cell_angle_alpha                90
_cell_angle_beta                 99.957(12)
_cell_angle_gamma                90
_cell_volume                     1053.58
_exptl_crystal_colour            colorless
_exptl_crystal_description       block
_chemical_melting_point          170-172deg.C
_cell_formula_units_Z            2
_exptl_crystal_recrystallization_method hexane/dichloromethane
loop_
_atom_site_label
_atom_site_type_symbol
_atom_site_fract_x
_atom_site_fract_y
_atom_site_fract_z
C1 C 0.53258(19) 0.00762(17) 0.21211(17)
C2 C 0.5998(2) -0.07622(18) 0.32671(18)
H1 H 0.5815 -0.1687 0.3063
H2 H 0.7010 -0.0627 0.3427
C3 C 0.5414(3) -0.04004(19) 0.4466(2)
H3 H 0.4488 -0.0797 0.4401
H4 H 0.6011 -0.0785 0.5226
C4 C 0.5286(3) 0.1018(2) 0.4702(2)
O1 O 0.52878(16) 0.18560(12) 0.37229(12)
C5 C 0.56739(19) 0.15025(17) 0.24893(16)
H5 H 0.5117 0.2055 0.1812
O2 O 0.5113(3) 0.14521(18) 0.57118(17)
C6 C 0.7185(2) 0.18840(19) 0.25610(18)
H6 H 0.7764 0.1372 0.3245
H7 H 0.7478 0.1678 0.1730
C7 C 0.7411(2) 0.3321(2) 0.2850(2)
H8 H 0.6923 0.3824 0.2109
H9 H 0.6992 0.3543 0.3612
C8 C 0.8902(2) 0.3724(2) 0.3105(2)
O3 O 0.9800(2) 0.2977(2) 0.2982(3)
C9 C 0.9255(2) 0.5108(2) 0.3488(3)
C10 C 0.9218(8) 0.5699(7) 0.2016(7)
H10 H 0.8287 0.5600 0.1513
H11 H 0.9879 0.5228 0.1591
H12 H 0.9465 0.6618 0.2074
C11 C 1.0673(10) 0.5319(17) 0.4144(13)
H13 H 1.0914 0.6234 0.4079
H14 H 1.1303 0.4787 0.3738
H15 H 1.0754 0.5078 0.5055
C12 C 0.8153(6) 0.5879(6) 0.3963(8)
H16 H 0.8418 0.6793 0.4017
H17 H 0.8043 0.5568 0.4819
H18 H 0.7279 0.5779 0.3363
C16 C 0.58760(19) -0.02248(18) 0.08798(17)
C17 C 0.5314(3) 0.0424(2) -0.02511(19)
H28 H 0.4599 0.1040 -0.0240
C18 C 0.5795(3) 0.0177(3) -0.1398(2)
H29 H 0.5414 0.0631 -0.2162
C19 C 0.6823(3) -0.0725(3) -0.1428(3)
H30 H 0.7153 -0.0892 -0.2209
C20 C 0.7365(3) -0.1379(3) -0.0322(3)
H31 H 0.8061 -0.2011 -0.0345
C21 C 0.6908(2) -0.1128(2) 0.0826(2)
H32 H 0.7306 -0.1580 0.1586
C22 C 0.3759(2) -0.0188(2) 0.18653(19)
C23 C 0.3305(2) -0.1398(2) 0.1384(3)
H33 H 0.3964 -0.2018 0.1217
C24 C 0.1927(3) -0.1717(3) 0.1147(4)
H34 H 0.1645 -0.2549 0.0821
C25 C 0.0956(3) -0.0832(4) 0.1380(4)
H35 H 0.0003 -0.1049 0.1218
C26 C 0.1377(3) 0.0372(3) 0.1852(3)
H36 H 0.0709 0.0987 0.2011
C27 C 0.2765(2) 0.0696(2) 0.2095(2)
H37 H 0.3040 0.1530 0.2422
C13? C 0.8346(8) 0.6102(6) 0.2883(11)
H19? H 0.8751 0.6952 0.3127
H20? H 0.7451 0.6031 0.3167
H21? H 0.8218 0.6003 0.1944
C14? C 1.0762(9) 0.5369(11) 0.3620(13)
H22? H 1.1010 0.5457 0.2761
H23? H 1.1281 0.4651 0.4079
H24? H 1.0986 0.6172 0.4106
C15? C 0.9070(9) 0.5051(10) 0.5014(7)
H25? H 0.9376 0.5871 0.5436
H26? H 0.9628 0.4341 0.5448
H27? H 0.8097 0.4906 0.5067
loop_
_geom_bond_atom_site_label_1
_geom_bond_atom_site_label_2
_geom_bond_site_symmetry_1
_geom_bond_site_symmetry_2
C1 C2 1_555 1_555
C2 H1 1_555 1_555
H2 C2 1_555 1_555
C3 C2 1_555 1_555
H3 C3 1_555 1_555
H4 C3 1_555 1_555
C4 C3 1_555 1_555
O1 C4 1_555 1_555
C5 C1 1_555 1_555
H5 C5 1_555 1_555
O2 C4 1_555 1_555
C6 C5 1_555 1_555
H6 C6 1_555 1_555
H7 C6 1_555 1_555
C7 C6 1_555 1_555
H8 C7 1_555 1_555
H9 C7 1_555 1_555
C8 C7 1_555 1_555
O3 C8 1_555 1_555
C9 C8 1_555 1_555
C10 C9 1_555 1_555
H10 C10 1_555 1_555
H11 C10 1_555 1_555
H12 C10 1_555 1_555
C11 C9 1_555 1_555
H13 C11 1_555 1_555
H14 C11 1_555 1_555
H15 C11 1_555 1_555
C12 C9 1_555 1_555
H16 C12 1_555 1_555
H17 C12 1_555 1_555
H18 C12 1_555 1_555
C16 C1 1_555 1_555
C17 C16 1_555 1_555
H28 C17 1_555 1_555
C18 C17 1_555 1_555
H29 C18 1_555 1_555
C19 C18 1_555 1_555
H30 C19 1_555 1_555
C20 C19 1_555 1_555
H31 C20 1_555 1_555
C21 C16 1_555 1_555
H32 C21 1_555 1_555
C22 C1 1_555 1_555
C23 C22 1_555 1_555
H33 C23 1_555 1_555
C24 C23 1_555 1_555
H34 C24 1_555 1_555
C25 C24 1_555 1_555
H35 C25 1_555 1_555
C26 C25 1_555 1_555
H36 C26 1_555 1_555
C27 C22 1_555 1_555
H37 C27 1_555 1_555
O1 C5 1_555 1_555
C20 C21 1_555 1_555
C26 C27 1_555 1_555

#END
