
#######################################################################
#
#                 Cambridge Crystallographic Data Centre
#                                CCDC 
#
#######################################################################
#
# If this CIF has been generated from an entry in the Cambridge 
# Structural Database, then it will include bibliographic, chemical, 
# crystal, experimental, refinement or atomic coordinate data resulting 
# from the CCDC's data processing and validation procedures.
#
#######################################################################

data_HOSNAE
_chemical_formula_moiety         'C18 H28 O8'
_chemical_name_systematic        
(S)-(-)-6-[2,2,2-tris(Ethoxycarbonyl)ethyl]-5,5-dimethyltetrahydropyran-2-one
_symmetry_cell_setting           monoclinic
_symmetry_space_group_name_H-M   'P 21'
_symmetry_Int_Tables_number      4
_space_group_name_Hall           'P 2yb'
loop_
_symmetry_equiv_pos_site_id
_symmetry_equiv_pos_as_xyz
1 x,y,z
2 -x,1/2+y,-z
_cell_length_a                   10.0392(8)
_cell_length_b                   7.6254(6)
_cell_length_c                   13.2278(11)
_cell_angle_alpha                90
_cell_angle_beta                 107.559(7)
_cell_angle_gamma                90
_cell_volume                     965.445
_exptl_crystal_colour            colorless
_exptl_crystal_description       block
_chemical_melting_point          63-64deg.C
_cell_formula_units_Z            2
_exptl_crystal_recrystallization_method hexane/dichloromethane
loop_
_atom_site_label
_atom_site_type_symbol
_atom_site_fract_x
_atom_site_fract_y
_atom_site_fract_z
O1 O 0.69786(18) 0.1240(2) 0.83343(13)
C1 C 0.7975(2) 0.2698(3) 0.85474(17)
H1 H 0.8925 0.2232 0.8931
C2 C 0.7596(3) 0.4109(3) 0.92340(19)
C3 C 0.7641(3) 0.3180(4) 1.0271(2)
H2 H 0.8620 0.2853 1.0647
H3 H 0.7330 0.4011 1.0729
C4 C 0.6761(4) 0.1584(4) 1.0123(2)
H4 H 0.5855 0.1920 1.0220
H5 H 0.7216 0.0755 1.0700
O2 O 0.5701(2) -0.0632(3) 0.88821(18)
C5 C 0.6159(3) 0.4905(3) 0.8698(2)
H6 H 0.6152 0.5432 0.8020
H7 H 0.5958 0.5809 0.9158
H8 H 0.5446 0.3985 0.8571
C6 C 0.8702(3) 0.5549(4) 0.9483(2)
H9 H 0.9629 0.5023 0.9780
H10 H 0.8523 0.6366 0.9999
H11 H 0.8665 0.6183 0.8831
C7 C 0.7975(2) 0.3316(3) 0.74499(17)
H12 H 0.8302 0.4547 0.7505
H13 H 0.7001 0.3300 0.6974
C8 C 0.8892(2) 0.2217(3) 0.69337(16)
C9 C 1.0446(2) 0.2513(3) 0.75317(16)
O3 O 1.08536(19) 0.3492(3) 0.82630(16)
O4 O 1.12646(19) 0.1614(3) 0.7123(2)
C10 C 1.2769(3) 0.1815(5) 0.7564(3)
H14 H 1.3181 0.0768 0.7985
H15 H 1.2992 0.2857 0.8032
C11 C 1.3337(3) 0.2030(5) 0.6658(3)
H16 H 1.3013 0.1062 0.6157
H17 H 1.4361 0.2025 0.6919
H18 H 1.3013 0.3146 0.6301
C12 C 0.8668(2) 0.2910(3) 0.57990(17)
O5 O 0.8184(2) 0.4325(2) 0.55132(13)
O6 O 0.9129(2) 0.1816(2) 0.52138(14)
C13 C 0.9253(3) 0.2483(4) 0.4203(2)
H19 H 1.0100 0.1988 0.4075
H20 H 0.9349 0.3775 0.4238
C14 C 0.8000(6) 0.1990(6) 0.3319(3)
H21 H 0.7913 0.0710 0.3281
H22 H 0.8095 0.2439 0.2650
H23 H 0.7165 0.2496 0.3442
C15 C 0.6462(3) 0.0617(3) 0.9095(2)
C16 C 0.8531(2) 0.0274(3) 0.69471(17)
O7 O 0.92345(18) -0.0778(2) 0.75540(14)
O8 O 0.73035(16) -0.00614(19) 0.62496(12)
C17 C 0.6732(3) -0.1803(3) 0.6316(2)
H24 H 0.6701 -0.2030 0.7046
H25 H 0.7321 -0.2712 0.6129
C18 C 0.5292(3) -0.1844(4) 0.5555(3)
H26 H 0.4741 -0.0882 0.5715
H27 H 0.4849 -0.2966 0.5619
H28 H 0.5342 -0.1712 0.4830
loop_
_geom_bond_atom_site_label_1
_geom_bond_atom_site_label_2
_geom_bond_site_symmetry_1
_geom_bond_site_symmetry_2
O1 C1 1_555 1_555
C1 H1 1_555 1_555
C2 C1 1_555 1_555
C3 C2 1_555 1_555
H2 C3 1_555 1_555
H3 C3 1_555 1_555
C4 C3 1_555 1_555
H4 C4 1_555 1_555
H5 C4 1_555 1_555
O2 C15 1_555 1_555
C5 C2 1_555 1_555
H6 C5 1_555 1_555
H7 C5 1_555 1_555
H8 C5 1_555 1_555
C6 C2 1_555 1_555
H9 C6 1_555 1_555
H10 C6 1_555 1_555
H11 C6 1_555 1_555
C7 C1 1_555 1_555
H12 C7 1_555 1_555
H13 C7 1_555 1_555
C8 C7 1_555 1_555
C9 C8 1_555 1_555
O3 C9 1_555 1_555
O4 C9 1_555 1_555
C10 O4 1_555 1_555
H14 C10 1_555 1_555
H15 C10 1_555 1_555
C11 C10 1_555 1_555
H16 C11 1_555 1_555
H17 C11 1_555 1_555
H18 C11 1_555 1_555
C12 C8 1_555 1_555
O5 C12 1_555 1_555
O6 C12 1_555 1_555
C13 O6 1_555 1_555
H19 C13 1_555 1_555
H20 C13 1_555 1_555
C14 C13 1_555 1_555
H21 C14 1_555 1_555
H22 C14 1_555 1_555
H23 C14 1_555 1_555
C15 O1 1_555 1_555
C16 C8 1_555 1_555
O7 C16 1_555 1_555
O8 C16 1_555 1_555
C17 O8 1_555 1_555
H24 C17 1_555 1_555
H25 C17 1_555 1_555
C18 C17 1_555 1_555
H26 C18 1_555 1_555
H27 C18 1_555 1_555
H28 C18 1_555 1_555
C4 C15 1_555 1_555

#END
