
#######################################################################
#
#                 Cambridge Crystallographic Data Centre
#                                CCDC 
#
#######################################################################
#
# If this CIF has been generated from an entry in the Cambridge 
# Structural Database, then it will include bibliographic, chemical, 
# crystal, experimental, refinement or atomic coordinate data resulting 
# from the CCDC's data processing and validation procedures.
#
#######################################################################

data_HOSZEV
_chemical_formula_moiety         'C18 H16 F2 N4 O2'
_chemical_name_systematic        
1-(4-(Difluoromethoxy)phenyl)-N-(2,3-dimethylphenyl)-1H-1,2,4-triazole-3-carboxamide
_symmetry_cell_setting           triclinic
_symmetry_space_group_name_H-M   'P -1'
_symmetry_Int_Tables_number      2
_space_group_name_Hall           '-P 1'
loop_
_symmetry_equiv_pos_site_id
_symmetry_equiv_pos_as_xyz
1 x,y,z
2 -x,-y,-z
_cell_length_a                   7.5543(10)
_cell_length_b                   7.8132(10)
_cell_length_c                   14.8190(19)
_cell_angle_alpha                95.974(2)
_cell_angle_beta                 98.5930(10)
_cell_angle_gamma                101.5230(10)
_cell_volume                     839.281
_exptl_crystal_colour            white
_exptl_crystal_description       block
_cell_formula_units_Z            2
_exptl_crystal_recrystallization_method 2-propanol
loop_
_atom_site_label
_atom_site_type_symbol
_atom_site_fract_x
_atom_site_fract_y
_atom_site_fract_z
F1 F -0.9182(2) 0.3392(2) 0.14577(12)
F2 F -0.8560(2) 0.1332(2) 0.05859(11)
O1 O -0.6301(2) 0.3298(2) 0.13688(9)
O2 O 0.41124(16) 0.80678(19) 0.54210(9)
N1 N -0.15235(18) 0.67315(18) 0.45595(9)
N2 N 0.03287(19) 0.69741(19) 0.46115(10)
N3 N -0.0355(2) 0.8275(2) 0.59091(11)
N4 N 0.32482(19) 0.9655(2) 0.66010(10)
H1 H 0.2285 0.9901 0.6779
C1 C -0.7981(3) 0.2345(3) 0.13967(17)
H2 H -0.7944 0.1632 0.1903
C2 C -0.5184(3) 0.4106(2) 0.21999(13)
C3 C -0.3332(3) 0.4212(3) 0.22448(13)
H3 H -0.2899 0.3708 0.1749
C4 C -0.2118(3) 0.5063(3) 0.30237(13)
H4 H -0.0866 0.5130 0.3057
C5 C -0.2770(2) 0.5815(2) 0.37546(11)
C6 C -0.4633(2) 0.5707(2) 0.37090(13)
H5 H -0.5069 0.6212 0.4203
C7 C -0.5839(3) 0.4846(3) 0.29260(13)
H6 H -0.7093 0.4768 0.2891
C8 C -0.1882(3) 0.7512(3) 0.53408(14)
H7 H -0.3053 0.7513 0.5464
C9 C 0.0950(2) 0.7909(2) 0.54299(11)
C10 C 0.2942(2) 0.8537(2) 0.58047(11)
C11 C 0.4936(2) 1.0475(2) 0.71818(12)
C12 C 0.6569(2) 1.0709(2) 0.68418(13)
H8 H 0.6575 1.0310 0.6229
C13 C 0.8177(3) 1.1539(3) 0.74204(14)
H9 H 0.9280 1.1682 0.7200
C14 C 0.8166(3) 1.2157(3) 0.83215(14)
H10 H 0.9266 1.2713 0.8704
C15 C 0.6546(3) 1.1965(3) 0.86695(13)
C16 C 0.4892(2) 1.1100(2) 0.80967(12)
C17 C 0.6597(3) 1.2699(3) 0.96572(15)
H11 H 0.7840 1.3231 0.9941
H12 H 0.6118 1.1762 0.9984
H13 H 0.5864 1.3570 0.9675
C18 C 0.3094(3) 1.0884(3) 0.84471(14)
H14 H 0.2420 1.1706 0.8208
H15 H 0.3330 1.1105 0.9108
H16 H 0.2389 0.9703 0.8248
loop_
_geom_bond_atom_site_label_1
_geom_bond_atom_site_label_2
_geom_bond_site_symmetry_1
_geom_bond_site_symmetry_2
F1 C1 1_555 1_555
F2 C1 1_555 1_555
O1 C1 1_555 1_555
O2 C10 1_555 1_555
N1 N2 1_555 1_555
N2 C9 1_555 1_555
N3 C8 1_555 1_555
N4 H1 1_555 1_555
C1 H2 1_555 1_555
C2 O1 1_555 1_555
C3 C2 1_555 1_555
H3 C3 1_555 1_555
C4 C3 1_555 1_555
H4 C4 1_555 1_555
C5 N1 1_555 1_555
C6 C5 1_555 1_555
H5 C6 1_555 1_555
C7 C2 1_555 1_555
H6 C7 1_555 1_555
C8 N1 1_555 1_555
H7 C8 1_555 1_555
C9 N3 1_555 1_555
C10 N4 1_555 1_555
C11 N4 1_555 1_555
C12 C11 1_555 1_555
H8 C12 1_555 1_555
C13 C12 1_555 1_555
H9 C13 1_555 1_555
C14 C13 1_555 1_555
H10 C14 1_555 1_555
C15 C14 1_555 1_555
C16 C11 1_555 1_555
C17 C15 1_555 1_555
H11 C17 1_555 1_555
H12 C17 1_555 1_555
H13 C17 1_555 1_555
C18 C16 1_555 1_555
H14 C18 1_555 1_555
H15 C18 1_555 1_555
H16 C18 1_555 1_555
C4 C5 1_555 1_555
C6 C7 1_555 1_555
C9 C10 1_555 1_555
C15 C16 1_555 1_555

#END
