
#######################################################################
#
#                 Cambridge Crystallographic Data Centre
#                                CCDC 
#
#######################################################################
#
# If this CIF has been generated from an entry in the Cambridge 
# Structural Database, then it will include bibliographic, chemical, 
# crystal, experimental, refinement or atomic coordinate data resulting 
# from the CCDC's data processing and validation procedures.
#
#######################################################################

data_HOTDAX
_chemical_formula_moiety         'C51 H42 N12 O12,0.5(O4 S1 2-),C16 H36 N1 1+'
_chemical_name_systematic        
"tetra-n-butylammonium N,N',N''-trimethyl-N,N',N''-tris(4-(((2-nitrophenyl)carbamoyl)amino)phenyl)benzene-1,3,5-tricarboxamide hemikis(sulfate)"
_symmetry_cell_setting           triclinic
_symmetry_space_group_name_H-M   'P -1'
_symmetry_Int_Tables_number      2
_space_group_name_Hall           '-P 1'
loop_
_symmetry_equiv_pos_site_id
_symmetry_equiv_pos_as_xyz
1 x,y,z
2 -x,-y,-z
_cell_length_a                   14.3926(3)
_cell_length_b                   15.1727(3)
_cell_length_c                   18.4277(4)
_cell_angle_alpha                66.1470(10)
_cell_angle_beta                 67.1470(10)
_cell_angle_gamma                67.8930(10)
_cell_volume                     3274.72
_exptl_crystal_colour            colorless
_exptl_crystal_description       Block
_cell_formula_units_Z            2
loop_
_atom_site_label
_atom_site_type_symbol
_atom_site_fract_x
_atom_site_fract_y
_atom_site_fract_z
O1 O -0.0569(2) 0.66886(19) 0.56473(15)
O2 O -0.1559(4) 1.2573(3) 0.1899(3)
O3 O 0.0162(4) 1.3349(3) 0.0576(4)
O4 O -0.0750(4) 1.4685(3) 0.0946(3)
N1 N -0.1162(2) 0.8284(2) 0.49030(17)
N2 N -0.0907(3) 1.1072(3) 0.1730(2)
H1 H -0.0567 1.0786 0.1336
N3 N -0.1260(4) 1.2415(3) 0.0654(3)
H2 H -0.0948 1.2000 0.0356
N4 N -0.0635(4) 1.4070(3) 0.0615(3)
C1 C 0.1317(3) 0.6580(3) 0.4279(2)
H3 H 0.1023 0.6049 0.4413
C2 C 0.0698(3) 0.7425(3) 0.4528(2)
C3 C -0.0394(3) 0.7422(3) 0.5066(2)
C4 C -0.2205(3) 0.8346(3) 0.5488(2)
H4 H -0.2145 0.7936 0.6045
H5 H -0.2617 0.8102 0.5329
H6 H -0.2551 0.9042 0.5480
C5 C -0.1076(3) 0.9011(3) 0.4098(2)
C6 C -0.0697(3) 0.8712(3) 0.3395(2)
H7 H -0.0481 0.8022 0.3443
C7 C -0.0632(3) 0.9409(3) 0.2628(2)
H8 H -0.0356 0.9196 0.2149
C8 C -0.0965(4) 1.0422(3) 0.2545(3)
C9 C -0.1355(4) 1.0720(3) 0.3247(3)
H9 H -0.1592 1.1411 0.3199
C10 C -0.1402(4) 1.0019(3) 0.4019(2)
H10 H -0.1659 1.0231 0.4496
C11 C -0.1295(6) 1.2051(4) 0.1478(4)
C12 C -0.1710(4) 1.3442(4) 0.0260(3)
C13 C -0.2397(4) 1.3641(4) -0.0175(3)
H11 H -0.2572 1.3110 -0.0197
C14 C -0.2838(4) 1.4640(5) -0.0587(3)
H12 H -0.3343 1.4794 -0.0862
C15 C -0.2523(4) 1.5378(4) -0.0581(3)
H13 H -0.2787 1.6048 -0.0881
C16 C -0.1843(4) 1.5186(4) -0.0159(3)
H14 H -0.1668 1.5716 -0.0134
C17 C -0.1412(4) 1.4213(3) 0.0232(3)
O5 O 0.2573(3) 0.9144(2) 0.43608(16)
O6 O 0.44103(19) 0.9227(2) -0.08377(16)
O7 O 0.5954(3) 0.7449(3) -0.1728(3)
O8 O 0.4414(3) 0.7362(3) -0.0889(2)
N5 N 0.3159(2) 0.9408(2) 0.29788(18)
N6 N 0.2756(2) 0.9412(2) 0.00542(17)
H15 H 0.2109 0.9478 0.0083
N7 N 0.3042(2) 0.9329(3) -0.12241(19)
H16 H 0.2364 0.9397 -0.1069
N8 N 0.4992(3) 0.7727(3) -0.1551(2)
C18 C 0.1138(3) 0.8196(3) 0.4335(2)
H17 H 0.0723 0.8766 0.4513
C19 C 0.2178(3) 0.8138(3) 0.3882(2)
C20 C 0.2643(3) 0.8943(3) 0.3758(2)
C21 C 0.3730(3) 1.0088(3) 0.2894(2)
H18 H 0.4234 0.9727 0.3220
H19 H 0.3234 1.0649 0.3094
H20 H 0.4101 1.0341 0.2311
C22 C 0.3060(3) 0.9396(2) 0.2238(2)
C23 C 0.3931(3) 0.9337(3) 0.1559(2)
H21 H 0.4589 0.9287 0.1598
C24 C 0.3860(3) 0.9351(3) 0.0829(2)
H22 H 0.4465 0.9314 0.0372
C25 C 0.2906(3) 0.9418(2) 0.0764(2)
C26 C 0.2027(3) 0.9509(3) 0.1431(2)
H23 H 0.1367 0.9571 0.1389
C27 C 0.2102(3) 0.9512(3) 0.2159(2)
H24 H 0.1491 0.9594 0.2604
C28 C 0.3485(3) 0.9316(3) -0.0673(2)
C29 C 0.3611(3) 0.9240(3) -0.2017(2)
C30 C 0.3234(3) 0.9900(3) -0.2682(2)
H25 H 0.2615 1.0416 -0.2589
C31 C 0.3718(3) 0.9840(4) -0.3468(3)
H26 H 0.3419 1.0296 -0.3903
C32 C 0.4629(4) 0.9129(4) -0.3631(3)
H27 H 0.4971 0.9096 -0.4180
C33 C 0.5045(3) 0.8469(3) -0.3003(3)
H28 H 0.5686 0.7982 -0.3115
C34 C 0.4530(3) 0.8505(3) -0.2187(2)
O9 O 0.3821(3) 0.5112(2) 0.39104(19)
O10 O -0.1275(3) 0.6458(3) 0.1748(2)
O11 O -0.4147(5) 0.7258(6) 0.2534(3)
O12 O -0.3134(6) 0.8220(4) 0.2141(3)
N9 N 0.2736(3) 0.5169(2) 0.3262(2)
N10 N -0.0204(5) 0.7429(3) 0.1429(2)
H29 H -0.0122 0.8033 0.1138
N11 N -0.1460(6) 0.7968(3) 0.0765(3)
H30 H -0.1233 0.8510 0.0497
N12 N -0.3511(6) 0.7716(5) 0.2013(4)
C35 C 0.2793(3) 0.7288(3) 0.3638(2)
H31 H 0.3507 0.7239 0.3337
C36 C 0.2356(3) 0.6509(3) 0.3837(2)
C37 C 0.3043(4) 0.5545(3) 0.3659(2)
C38 C 0.3279(4) 0.4149(3) 0.3215(3)
H32 H 0.3874 0.3887 0.3445
H33 H 0.3529 0.4156 0.2637
H34 H 0.2796 0.3722 0.3532
C39 C 0.1972(4) 0.5739(3) 0.2806(2)
C40 C 0.1203(3) 0.5344(3) 0.2885(2)
H35 H 0.1169 0.4697 0.3258
C41 C 0.0486(4) 0.5865(3) 0.2437(2)
H36 H -0.0019 0.5565 0.2490
C42 C 0.0493(4) 0.6831(3) 0.1906(2)
C43 C 0.1263(5) 0.7230(3) 0.1832(3)
H37 H 0.1279 0.7889 0.1479
C44 C 0.2003(5) 0.6693(3) 0.2258(2)
H38 H 0.2537 0.6973 0.2179
C45 C -0.0990(6) 0.7215(3) 0.1350(3)
C46 C -0.2296(7) 0.7897(3) 0.0580(4)
C47 C -0.2155(7) 0.8031(4) -0.0257(3)
H39 H -0.1539 0.8179 -0.0669
C48 C -0.2943(7) 0.7940(4) -0.0463(4)
H40 H -0.2868 0.8054 -0.1027
C49 C -0.3805(6) 0.7695(5) 0.0113(4)
H41 H -0.4313 0.7595 -0.0036
C50 C -0.3934(6) 0.7593(5) 0.0907(4)
H42 H -0.4551 0.7439 0.1314
C51 C -0.3201(6) 0.7705(4) 0.1144(4)
S1 S 0.0000 1.0000 0.0000
O13 O -0.0829(3) 0.9537(3) 0.0744(2)
O14 O 0.0146(4) 1.0683(3) 0.0346(3)
O13A O 0.0829(3) 1.0463(3) -0.0744(2)
O14A O -0.0146(4) 0.9317(3) -0.0346(3)
N13 N 0.7283(3) 0.4159(3) 0.3482(2)
C52 C 0.4774(4) 0.1998(4) 0.5443(4)
H43 H 0.4228 0.1937 0.5971
H44 H 0.5351 0.1391 0.5488
H45 H 0.4486 0.2090 0.5007
C53 C 0.5174(4) 0.2895(4) 0.5230(3)
H46 H 0.4584 0.3502 0.5198
H47 H 0.5448 0.2804 0.5679
C54 C 0.6021(3) 0.3044(4) 0.4425(3)
H48 H 0.5759 0.3121 0.3973
H49 H 0.6627 0.2451 0.4459
C55 C 0.6360(3) 0.3969(4) 0.4238(3)
H50 H 0.5757 0.4558 0.4165
H51 H 0.6538 0.3912 0.4726
C56 C 0.8253(3) 0.3324(4) 0.3637(3)
H52 H 0.8212 0.2750 0.4108
C57 C 0.9282(4) 0.3451(5) 0.3007(4)
H53 H 0.9500 0.3948 0.3081
H54 H 0.9190 0.3713 0.2446
C58 C 1.0133(4) 0.2476(5) 0.3083(4)
H55 H 1.0192 0.2188 0.3656
H56 H 0.9941 0.1995 0.2967
C59 C 1.1158(5) 0.2628(6) 0.2501(4)
H57 H 1.1688 0.1987 0.2561
H58 H 1.1358 0.3091 0.2624
H59 H 1.1103 0.2907 0.1933
C60 C 0.7426(3) 0.5171(4) 0.3332(3)
H60 H 0.7947 0.5343 0.2792
H61 H 0.6756 0.5680 0.3294
C61 C 0.7774(3) 0.5231(3) 0.3986(3)
H62 H 0.8477 0.4774 0.3995
H63 H 0.7284 0.5021 0.4537
C62 C 0.7804(3) 0.6299(3) 0.3800(3)
H64 H 0.8269 0.6517 0.3239
H65 H 0.7094 0.6750 0.3813
C63 C 0.8193(5) 0.6376(4) 0.4423(3)
H66 H 0.8186 0.7070 0.4297
H67 H 0.8907 0.5951 0.4395
H68 H 0.7737 0.6155 0.4980
C64 C 0.7149(6) 0.3986(8) 0.2776(5)
H69 H 0.7786 0.4035 0.2305
H70 H 0.7069 0.3303 0.2956
C65 C 0.6218(7) 0.4725(8) 0.2494(5)
H71 H 0.6349 0.5395 0.2210
H72 H 0.5595 0.4767 0.2976
C66 C 0.6029(6) 0.4374(9) 0.1899(5)
H73 H 0.6701 0.4211 0.1484
H74 H 0.5802 0.3751 0.2218
C67 C 0.5249(7) 0.5095(9) 0.1458(5)
H75 H 0.5054 0.4755 0.1208
H76 H 0.5548 0.5634 0.1024
H77 H 0.4628 0.5376 0.1849
C68? C 0.6979(11) 0.4527(11) 0.2610(9)
H78? H 0.7537 0.4827 0.2169
H79? H 0.7042 0.3914 0.2505
C69? C 0.5963(11) 0.5237(11) 0.2467(9)
H80? H 0.5923 0.5910 0.2453
H81? H 0.5373 0.5007 0.2923
C70? C 0.5893(9) 0.5281(11) 0.1651(7)
H82? H 0.6467 0.5547 0.1201
H83? H 0.6002 0.4594 0.1658
C71? C 0.4894(10) 0.5901(13) 0.1462(7)
H84? H 0.4595 0.6436 0.1720
H85? H 0.4407 0.5485 0.1678
H86? H 0.5016 0.6193 0.0862
O15? O 0.0926(3) 0.9236(3) -0.0117(3)
O16? O -0.0453(4) 1.0581(4) -0.0656(3)
loop_
_geom_bond_atom_site_label_1
_geom_bond_atom_site_label_2
_geom_bond_site_symmetry_1
_geom_bond_site_symmetry_2
O1 C3 1_555 1_555
O2 C11 1_555 1_555
O3 N4 1_555 1_555
O4 N4 1_555 1_555
N1 C3 1_555 1_555
N2 H1 1_555 1_555
N3 H2 1_555 1_555
N4 C17 1_555 1_555
C1 H3 1_555 1_555
C2 C1 1_555 1_555
C3 C2 1_555 1_555
C4 N1 1_555 1_555
H4 C4 1_555 1_555
H5 C4 1_555 1_555
H6 C4 1_555 1_555
C5 N1 1_555 1_555
C6 C5 1_555 1_555
H7 C6 1_555 1_555
C7 C6 1_555 1_555
H8 C7 1_555 1_555
C8 N2 1_555 1_555
C9 C8 1_555 1_555
H9 C9 1_555 1_555
C10 C5 1_555 1_555
H10 C10 1_555 1_555
C11 N2 1_555 1_555
C12 N3 1_555 1_555
C13 C12 1_555 1_555
H11 C13 1_555 1_555
C14 C13 1_555 1_555
H12 C14 1_555 1_555
C15 C14 1_555 1_555
H13 C15 1_555 1_555
C16 C15 1_555 1_555
H14 C16 1_555 1_555
C17 C12 1_555 1_555
O5 C20 1_555 1_555
O6 C28 1_555 1_555
O7 N8 1_555 1_555
O8 N8 1_555 1_555
N5 C20 1_555 1_555
N6 H15 1_555 1_555
N7 H16 1_555 1_555
N8 C34 1_555 1_555
C18 C2 1_555 1_555
H17 C18 1_555 1_555
C19 C18 1_555 1_555
C20 C19 1_555 1_555
C21 N5 1_555 1_555
H18 C21 1_555 1_555
H19 C21 1_555 1_555
H20 C21 1_555 1_555
C22 N5 1_555 1_555
C23 C22 1_555 1_555
H21 C23 1_555 1_555
C24 C23 1_555 1_555
H22 C24 1_555 1_555
C25 N6 1_555 1_555
C26 C25 1_555 1_555
H23 C26 1_555 1_555
C27 C22 1_555 1_555
H24 C27 1_555 1_555
C28 N6 1_555 1_555
C29 N7 1_555 1_555
C30 C29 1_555 1_555
H25 C30 1_555 1_555
C31 C30 1_555 1_555
H26 C31 1_555 1_555
C32 C31 1_555 1_555
H27 C32 1_555 1_555
C33 C32 1_555 1_555
H28 C33 1_555 1_555
C34 C29 1_555 1_555
O9 C37 1_555 1_555
O10 C45 1_555 1_555
O11 N12 1_555 1_555
O12 N12 1_555 1_555
N9 C37 1_555 1_555
N10 H29 1_555 1_555
N11 H30 1_555 1_555
N12 C51 1_555 1_555
C35 C19 1_555 1_555
H31 C35 1_555 1_555
C36 C1 1_555 1_555
C37 C36 1_555 1_555
C38 N9 1_555 1_555
H32 C38 1_555 1_555
H33 C38 1_555 1_555
H34 C38 1_555 1_555
C39 N9 1_555 1_555
C40 C39 1_555 1_555
H35 C40 1_555 1_555
C41 C40 1_555 1_555
H36 C41 1_555 1_555
C42 N10 1_555 1_555
C43 C42 1_555 1_555
H37 C43 1_555 1_555
C44 C39 1_555 1_555
H38 C44 1_555 1_555
C45 N10 1_555 1_555
C46 N11 1_555 1_555
C47 C46 1_555 1_555
H39 C47 1_555 1_555
C48 C47 1_555 1_555
H40 C48 1_555 1_555
C49 C48 1_555 1_555
H41 C49 1_555 1_555
C50 C49 1_555 1_555
H42 C50 1_555 1_555
C51 C46 1_555 1_555
S1 O13 1_555 1_555
O14 S1 1_555 1_555
N13 C55 1_555 1_555
C52 H43 1_555 1_555
H44 C52 1_555 1_555
H45 C52 1_555 1_555
C53 C52 1_555 1_555
H46 C53 1_555 1_555
H47 C53 1_555 1_555
C54 C53 1_555 1_555
H48 C54 1_555 1_555
H49 C54 1_555 1_555
C55 C54 1_555 1_555
H50 C55 1_555 1_555
H51 C55 1_555 1_555
C56 N13 1_555 1_555
H52 C56 1_555 1_555
C57 C56 1_555 1_555
H53 C57 1_555 1_555
H54 C57 1_555 1_555
C58 C57 1_555 1_555
H55 C58 1_555 1_555
H56 C58 1_555 1_555
C59 C58 1_555 1_555
H57 C59 1_555 1_555
H58 C59 1_555 1_555
H59 C59 1_555 1_555
C60 N13 1_555 1_555
H60 C60 1_555 1_555
H61 C60 1_555 1_555
C61 C60 1_555 1_555
H62 C61 1_555 1_555
H63 C61 1_555 1_555
C62 C61 1_555 1_555
H64 C62 1_555 1_555
H65 C62 1_555 1_555
C63 C62 1_555 1_555
H66 C63 1_555 1_555
H67 C63 1_555 1_555
H68 C63 1_555 1_555
C64 N13 1_555 1_555
H69 C64 1_555 1_555
H70 C64 1_555 1_555
C65 C64 1_555 1_555
H71 C65 1_555 1_555
H72 C65 1_555 1_555
C66 C65 1_555 1_555
H73 C66 1_555 1_555
H74 C66 1_555 1_555
C67 C66 1_555 1_555
H75 C67 1_555 1_555
H76 C67 1_555 1_555
H77 C67 1_555 1_555
O13A S1 1_555 1_555
O14A S1 1_555 1_555
N3 C11 1_555 1_555
C7 C8 1_555 1_555
C9 C10 1_555 1_555
C16 C17 1_555 1_555
N7 C28 1_555 1_555
C24 C25 1_555 1_555
C26 C27 1_555 1_555
C33 C34 1_555 1_555
N11 C45 1_555 1_555
C35 C36 1_555 1_555
C41 C42 1_555 1_555
C43 C44 1_555 1_555
C50 C51 1_555 1_555

#END
