
#######################################################################
#
#                 Cambridge Crystallographic Data Centre
#                                CCDC 
#
#######################################################################
#
# If this CIF has been generated from an entry in the Cambridge 
# Structural Database, then it will include bibliographic, chemical, 
# crystal, experimental, refinement or atomic coordinate data resulting 
# from the CCDC's data processing and validation procedures.
#
#######################################################################

data_HOTLOT
_chemical_formula_moiety         'C30 H24 N6 O9,3(C1 H4 O1)'
_chemical_name_systematic        
"N,N',N''-trimethyl-N,N',N''-tris(4-nitrophenyl)benzene-1,3,5-tricarboxamide methanol solvate"
_symmetry_cell_setting           rhombohedral
_symmetry_space_group_name_H-M   'R -3'
_symmetry_Int_Tables_number      148
_space_group_name_Hall           '-R 3'
loop_
_symmetry_equiv_pos_site_id
_symmetry_equiv_pos_as_xyz
1 x,y,z
2 -y,x-y,z
3 -x+y,-x,z
4 2/3+x,1/3+y,1/3+z
5 2/3-y,1/3+x-y,1/3+z
6 2/3-x+y,1/3-x,1/3+z
7 1/3+x,2/3+y,2/3+z
8 1/3-y,2/3+x-y,2/3+z
9 1/3-x+y,2/3-x,2/3+z
10 -x,-y,-z
11 y,-x+y,-z
12 x-y,x,-z
13 1/3-x,2/3-y,2/3-z
14 1/3+y,2/3-x+y,2/3-z
15 1/3+x-y,2/3+x,2/3-z
16 2/3-x,1/3-y,1/3-z
17 2/3+y,1/3-x+y,1/3-z
18 2/3+x-y,1/3+x,1/3-z
_cell_length_a                   12.3917(18)
_cell_length_b                   12.3917(18)
_cell_length_c                   37.691(8)
_cell_angle_alpha                90
_cell_angle_beta                 90
_cell_angle_gamma                120
_cell_volume                     5012.22
_exptl_crystal_colour            colorless
_exptl_crystal_description       Block
_cell_formula_units_Z            6
loop_
_atom_site_label
_atom_site_type_symbol
_atom_site_fract_x
_atom_site_fract_y
_atom_site_fract_z
O1 O 0.2907(3) 0.0510(3) -0.01827(7)
O2 O 0.4817(3) 0.1860(2) -0.02944(6)
O3 O 0.6403(2) 0.0428(2) 0.17332(5)
N1 N 0.4006(3) 0.1091(3) -0.01015(7)
N2 N 0.5390(2) -0.0037(2) 0.12065(6)
C1 C 0.4376(3) 0.0844(3) 0.02445(7)
C2 C 0.3457(3) 0.0048(3) 0.04785(8)
H1 H 0.2601 -0.0316 0.0418
C3 C 0.3806(3) -0.0204(3) 0.07982(8)
H2 H 0.3189 -0.0738 0.0963
C4 C 0.5060(2) 0.0319(2) 0.08816(7)
C5 C 0.5977(3) 0.1123(2) 0.06455(7)
H3 H 0.6833 0.1483 0.0706
C6 C 0.5634(3) 0.1393(3) 0.03230(7)
H4 H 0.6246 0.1942 0.0159
C7 C 0.4999(3) -0.1366(3) 0.12472(8)
H5 H 0.5672 -0.1443 0.1358
H6 H 0.4811 -0.1765 0.1013
H7 H 0.4253 -0.1772 0.1397
C8 C 0.6072(2) 0.0768(2) 0.14679(7)
C9 C 0.6376(2) 0.2095(2) 0.14323(6)
C10 C 0.5426(2) 0.2381(2) 0.14315(6)
H8 H 0.4580 0.1733 0.1430
O1A O 0.9490(3) 0.2397(4) -0.01827(7)
O2A O 0.8140(2) 0.2957(4) -0.02944(6)
O3A O 0.9572(2) 0.5975(3) 0.17332(5)
N1A N 0.8909(3) 0.2915(4) -0.01015(7)
N2A N 1.0037(2) 0.5427(3) 0.12065(6)
C1A C 0.9156(3) 0.3532(4) 0.02445(7)
C2A C 0.9952(3) 0.3409(4) 0.04785(8)
H1A H 1.0316 0.2917 0.0418
C3A C 1.0204(3) 0.4010(4) 0.07982(8)
H2A H 1.0738 0.3927 0.0963
C4A C 0.9681(2) 0.4741(3) 0.08816(7)
C5A C 0.8877(2) 0.4854(4) 0.06455(7)
H3A H 0.8517 0.5350 0.0706
C6A C 0.8607(3) 0.4241(4) 0.03230(7)
H4A H 0.8058 0.4304 0.0159
C7A C 1.1366(3) 0.6365(4) 0.12472(8)
H5A H 1.1443 0.7115 0.1358
H6A H 1.1765 0.6576 0.1013
H7A H 1.1772 0.6025 0.1397
C8A C 0.9232(2) 0.5304(3) 0.14679(7)
C9A C 0.7905(2) 0.4281(3) 0.14323(6)
C10A C 0.7619(2) 0.3045(3) 0.14315(6)
H8A H 0.8267 0.2847 0.1430
O1B O 0.7603(4) 0.7093(3) -0.01827(7)
O2B O 0.7043(4) 0.5183(3) -0.02944(6)
O3B O 0.4025(3) 0.3597(2) 0.17332(5)
N1B N 0.7085(4) 0.5994(3) -0.01015(7)
N2B N 0.4573(3) 0.4610(2) 0.12065(6)
C1B C 0.6468(4) 0.5624(3) 0.02445(7)
C2B C 0.6591(4) 0.6543(3) 0.04785(8)
H1B H 0.7083 0.7399 0.0418
C3B C 0.5990(4) 0.6194(3) 0.07982(8)
H2B H 0.6073 0.6811 0.0963
C4B C 0.5259(3) 0.4940(2) 0.08816(7)
C5B C 0.5146(4) 0.4023(3) 0.06455(7)
H3B H 0.4650 0.3167 0.0706
C6B C 0.5759(4) 0.4366(3) 0.03230(7)
H4B H 0.5696 0.3754 0.0159
C7B C 0.3635(4) 0.5001(3) 0.12472(8)
H5B H 0.2885 0.4328 0.1358
H6B H 0.3424 0.5189 0.1013
H7B H 0.3975 0.5747 0.1397
C8B C 0.4696(3) 0.3928(2) 0.14679(7)
C9B C 0.5719(3) 0.3624(2) 0.14323(6)
C10B C 0.6955(3) 0.4574(2) 0.14315(6)
H8B H 0.7153 0.5420 0.1430
O4 O 0.8244(3) 0.2142(3) 0.22497(8)
H9 H 0.7467 0.1731 0.2135
C11 C 0.8366(6) 0.3249(5) 0.23566(13)
H10 H 0.7671 0.3092 0.2513
H11 H 0.8360 0.3721 0.2149
H12 H 0.9154 0.3731 0.2485
loop_
_geom_bond_atom_site_label_1
_geom_bond_atom_site_label_2
_geom_bond_site_symmetry_1
_geom_bond_site_symmetry_2
O1 N1 1_555 1_555
O2 N1 1_555 1_555
O3 C8 1_555 1_555
N1 C1 1_555 1_555
N2 C4 1_555 1_555
C1 C2 1_555 1_555
C2 H1 1_555 1_555
C3 C2 1_555 1_555
H2 C3 1_555 1_555
C4 C3 1_555 1_555
C5 C4 1_555 1_555
H3 C5 1_555 1_555
C6 C1 1_555 1_555
H4 C6 1_555 1_555
C7 N2 1_555 1_555
H5 C7 1_555 1_555
H6 C7 1_555 1_555
H7 C7 1_555 1_555
C8 N2 1_555 1_555
C9 C8 1_555 1_555
C10 C9 1_555 1_555
H8 C10 1_555 1_555
O4 H9 1_555 1_555
C11 O4 1_555 1_555
H10 C11 1_555 1_555
H11 C11 1_555 1_555
H12 C11 1_555 1_555
O1A N1A 1_555 1_555
O2A N1A 1_555 1_555
O3A C8A 1_555 1_555
N1A C1A 1_555 1_555
N2A C4A 1_555 1_555
C1A C2A 1_555 1_555
C2A H1A 1_555 1_555
C3A C2A 1_555 1_555
H2A C3A 1_555 1_555
C4A C3A 1_555 1_555
C5A C4A 1_555 1_555
H3A C5A 1_555 1_555
C6A C1A 1_555 1_555
H4A C6A 1_555 1_555
C7A N2A 1_555 1_555
H5A C7A 1_555 1_555
H6A C7A 1_555 1_555
H7A C7A 1_555 1_555
C8A N2A 1_555 1_555
C9A C8A 1_555 1_555
C10A C9 1_555 1_555
H8A C10A 1_555 1_555
O1B N1B 1_555 1_555
O2B N1B 1_555 1_555
O3B C8B 1_555 1_555
N1B C1B 1_555 1_555
N2B C4B 1_555 1_555
C1B C2B 1_555 1_555
C2B H1B 1_555 1_555
C3B C2B 1_555 1_555
H2B C3B 1_555 1_555
C4B C3B 1_555 1_555
C5B C4B 1_555 1_555
H3B C5B 1_555 1_555
C6B C1B 1_555 1_555
H4B C6B 1_555 1_555
C7B N2B 1_555 1_555
H5B C7B 1_555 1_555
H6B C7B 1_555 1_555
H7B C7B 1_555 1_555
C8B N2B 1_555 1_555
C9B C10 1_555 1_555
C10B C9A 1_555 1_555
H8B C10B 1_555 1_555
C5 C6 1_555 1_555
C5A C6A 1_555 1_555
C9A C10A 1_555 1_555
C5B C6B 1_555 1_555
C8B C9B 1_555 1_555
C9B C10B 1_555 1_555

#END
