
#######################################################################
#
#                 Cambridge Crystallographic Data Centre
#                                CCDC 
#
#######################################################################
#
# If this CIF has been generated from an entry in the Cambridge 
# Structural Database, then it will include bibliographic, chemical, 
# crystal, experimental, refinement or atomic coordinate data resulting 
# from the CCDC's data processing and validation procedures.
#
#######################################################################

data_HOTMOT
_chemical_formula_moiety         'C15 H17 F1 N4 O5 S1,3.5(H2 O1)'
_chemical_name_systematic        
'(1R,2S,3R,4S)-1-(6-(4-Fluorophenyl)-7H-[1,2,4]triazolo[3,4-b][1,3,4]thiadiazin-3-yl)pentane-1,2,3,4,5-pentaol hydrate'
_symmetry_cell_setting           triclinic
_symmetry_space_group_name_H-M   'P 1'
_symmetry_Int_Tables_number      1
_space_group_name_Hall           'P 1'
loop_
_symmetry_equiv_pos_site_id
_symmetry_equiv_pos_as_xyz
1 x,y,z
_cell_length_a                   6.5949(6)
_cell_length_b                   11.9000(12)
_cell_length_c                   12.9774(13)
_cell_angle_alpha                87.696(2)
_cell_angle_beta                 85.816(2)
_cell_angle_gamma                82.688(2)
_cell_volume                     1006.99
_exptl_crystal_colour            colorless
_exptl_crystal_description       block
_cell_formula_units_Z            2
_exptl_crystal_recrystallization_method ethanol
loop_
_atom_site_label
_atom_site_type_symbol
_atom_site_fract_x
_atom_site_fract_y
_atom_site_fract_z
S1 S 0.51281(18) 1.22564(11) 0.30897(11)
F1 F 1.3691(6) 0.9570(4) 0.6806(3)
O1 O 0.2097(5) 0.7532(3) 0.3115(3)
H1 H 0.2388 0.7341 0.2517
O2 O 0.6275(5) 0.7416(3) 0.2113(3)
H2 H 0.7088 0.7866 0.1936
O3 O 0.5319(6) 0.6245(3) 0.4689(3)
H3 H 0.4523 0.5771 0.4802
O4 O 0.9464(6) 0.6165(3) 0.4209(3)
H4 H 1.0366 0.6461 0.3873
O5 O 1.0346(6) 0.3815(4) 0.3729(3)
H5 H 1.0706 0.3746 0.3114
N1 N 0.6228(6) 0.9833(4) 0.4058(3)
N2 N 0.4769(6) 1.0041(4) 0.3330(3)
N3 N 0.2492(6) 1.0928(4) 0.2332(3)
N4 N 0.2175(6) 0.9780(4) 0.2467(3)
C1 C 1.2212(9) 0.9814(6) 0.6120(5)
C2 C 1.0956(9) 0.9016(6) 0.5980(5)
H6 H 1.1099 0.8324 0.6345
C3 C 0.9476(9) 0.9260(5) 0.5288(4)
H7 H 0.8627 0.8718 0.5173
C4 C 0.9216(8) 1.0298(5) 0.4756(4)
C5 C 1.0541(8) 1.1085(5) 0.4923(4)
H8 H 1.0413 1.1782 0.4568
C6 C 1.2040(9) 1.0837(5) 0.5612(5)
H9 H 1.2921 1.1363 0.5727
C7 C 0.7596(8) 1.0526(4) 0.4024(4)
C8 C 0.7639(8) 1.1491(5) 0.3233(4)
H10 H 0.8185 1.1191 0.2571
H11 H 0.8546 1.2009 0.3439
C9 C 0.4054(8) 1.1041(5) 0.2861(4)
C10 C 0.3519(7) 0.9286(5) 0.3071(4)
C11 C 0.3710(7) 0.8079(4) 0.3465(4)
H12 H 0.3518 0.8093 0.4220
C12 C 0.5853(7) 0.7438(4) 0.3197(4)
H13 H 0.6873 0.7837 0.3493
C13 C 0.6043(8) 0.6234(4) 0.3635(4)
H14 H 0.5193 0.5796 0.3257
C14 C 0.8258(8) 0.5672(5) 0.3528(4)
H15 H 0.8819 0.5758 0.2813
C15 C 0.8331(7) 0.4425(4) 0.3834(4)
H16 H 0.7797 0.4356 0.4547
H17 H 0.7445 0.4081 0.3408
S2 S 0.4234(2) -0.04291(12) 0.97373(12)
F2 F -0.4247(7) 0.2607(5) 0.6151(4)
O6 O 0.3696(5) 0.4281(3) 1.0267(3)
H18 H 0.2958 0.4621 0.9845
O7 O 0.7395(6) 0.4471(3) 1.1079(3)
H19 H 0.8181 0.3956 1.1323
O8 O 0.7156(6) 0.5407(3) 0.8398(3)
H20 H 0.6247 0.5887 0.8204
O9 O 1.1000(5) 0.5357(3) 0.9054(3)
H21 H 1.0785 0.5360 0.8440
O10 O 1.1096(8) 0.7695(4) 0.9383(4)
H22 H 1.1301 0.7717 0.9997
N5 N 0.3040(6) 0.2110(4) 0.9019(3)
N6 N 0.4526(6) 0.1803(4) 0.9719(3)
N7 N 0.6946(7) 0.0816(4) 1.0546(4)
N8 N 0.7276(6) 0.1950(4) 1.0531(3)
C16 C -0.2803(10) 0.2320(7) 0.6844(5)
C17 C -0.2690(10) 0.1278(7) 0.7299(5)
H23 H -0.3604 0.0781 0.7156
C18 C -0.1204(9) 0.0964(6) 0.7977(4)
H24 H -0.1110 0.0244 0.8290
C19 C 0.0170(8) 0.1704(5) 0.8207(4)
C20 C -0.0039(9) 0.2782(5) 0.7719(4)
H25 H 0.0849 0.3296 0.7857
C21 C -0.1520(11) 0.3092(6) 0.7044(5)
H26 H -0.1654 0.3810 0.6728
C22 C 0.1736(7) 0.1402(5) 0.8967(4)
C23 C 0.1707(8) 0.0368(5) 0.9652(5)
H27 H 0.0798 -0.0117 0.9391
H28 H 0.1165 0.0589 1.0340
C24 C 0.5312(8) 0.0752(5) 1.0051(4)
C25 C 0.5835(7) 0.2523(5) 1.0017(4)
C26 C 0.5553(7) 0.3763(4) 0.9741(4)
H29 H 0.5405 0.3852 0.8995
C27 C 0.7367(8) 0.4338(5) 0.9990(4)
H30 H 0.8627 0.3866 0.9750
C28 C 0.7344(7) 0.5510(4) 0.9463(4)
H31 H 0.6178 0.6020 0.9755
C29 C 0.9339(8) 0.6005(4) 0.9599(4)
H32 H 0.9589 0.5936 1.0335
C30 C 0.9234(9) 0.7241(5) 0.9283(5)
H33 H 0.8881 0.7337 0.8570
H34 H 0.8150 0.7666 0.9706
O11 O 0.7598(7) 0.6980(5) 0.6326(3)
H35 H 0.7231 0.6812 0.5760
H36 H 0.8736 0.6568 0.6497
O12 O 0.4002(7) 0.6944(4) 0.7713(4)
H37 H 0.3110 0.7248 0.8153
H38 H 0.3915 0.6258 0.7780
O13 O 0.1143(7) 0.5706(5) 0.6889(3)
H39 H 0.2037 0.6096 0.7142
H40 H 0.1014 0.6223 0.6426
O14 O 0.2943(7) 0.4492(4) 0.5131(4)
H41 H 0.3423 0.3878 0.5390
H42 H 0.2098 0.4342 0.4729
O15 O 0.1072(6) 0.3235(4) 0.1691(3)
H43 H 0.2027 0.3400 0.1299
H44 H 0.1106 0.2537 0.1690
O16 O 0.3235(6) 0.6586(4) 0.1174(4)
H45 H 0.4369 0.6815 0.1164
H46 H 0.3447 0.5934 0.0954
O17 O 0.8885(6) 0.8872(4) 0.1560(4)
H47 H 0.9740 0.9117 0.1899
H48 H 0.8436 0.9404 0.1176
loop_
_geom_bond_atom_site_label_1
_geom_bond_atom_site_label_2
_geom_bond_site_symmetry_1
_geom_bond_site_symmetry_2
S1 C8 1_555 1_555
F1 C1 1_555 1_555
O1 H1 1_555 1_555
O2 H2 1_555 1_555
O3 H3 1_555 1_555
O4 H4 1_555 1_555
O5 H5 1_555 1_555
N1 N2 1_555 1_555
N2 C9 1_555 1_555
N3 N4 1_555 1_555
N4 C10 1_555 1_555
C1 C2 1_555 1_555
C2 H6 1_555 1_555
C3 C2 1_555 1_555
H7 C3 1_555 1_555
C4 C3 1_555 1_555
C5 C4 1_555 1_555
H8 C5 1_555 1_555
C6 C1 1_555 1_555
H9 C6 1_555 1_555
C7 N1 1_555 1_555
C8 C7 1_555 1_555
H10 C8 1_555 1_555
H11 C8 1_555 1_555
C9 S1 1_555 1_555
C10 N2 1_555 1_555
C11 O1 1_555 1_555
H12 C11 1_555 1_555
C12 O2 1_555 1_555
H13 C12 1_555 1_555
C13 O3 1_555 1_555
H14 C13 1_555 1_555
C14 O4 1_555 1_555
H15 C14 1_555 1_555
C15 O5 1_555 1_555
H16 C15 1_555 1_555
H17 C15 1_555 1_555
S2 C23 1_555 1_555
F2 C16 1_555 1_555
O6 H18 1_555 1_555
O7 H19 1_555 1_555
O8 H20 1_555 1_555
O9 H21 1_555 1_555
O10 H22 1_555 1_555
N5 N6 1_555 1_555
N6 C24 1_555 1_555
N7 N8 1_555 1_555
N8 C25 1_555 1_555
C16 C17 1_555 1_555
C17 H23 1_555 1_555
C18 C17 1_555 1_555
H24 C18 1_555 1_555
C19 C18 1_555 1_555
C20 C19 1_555 1_555
H25 C20 1_555 1_555
C21 C16 1_555 1_555
H26 C21 1_555 1_555
C22 N5 1_555 1_555
C23 C22 1_555 1_555
H27 C23 1_555 1_555
H28 C23 1_555 1_555
C24 S2 1_555 1_555
C25 N6 1_555 1_555
C26 O6 1_555 1_555
H29 C26 1_555 1_555
C27 O7 1_555 1_555
H30 C27 1_555 1_555
C28 O8 1_555 1_555
H31 C28 1_555 1_555
C29 O9 1_555 1_555
H32 C29 1_555 1_555
C30 O10 1_555 1_555
H33 C30 1_555 1_555
H34 C30 1_555 1_555
O11 H35 1_555 1_555
H36 O11 1_555 1_555
O12 H37 1_555 1_555
H38 O12 1_555 1_555
O13 H39 1_555 1_555
H40 O13 1_555 1_555
O14 H41 1_555 1_555
H42 O14 1_555 1_555
O15 H43 1_555 1_555
H44 O15 1_555 1_555
O16 H45 1_555 1_555
H46 O16 1_555 1_555
O17 H47 1_555 1_555
H48 O17 1_555 1_555
N3 C9 1_555 1_555
C4 C7 1_555 1_555
C5 C6 1_555 1_555
C10 C11 1_555 1_555
C11 C12 1_555 1_555
C12 C13 1_555 1_555
C13 C14 1_555 1_555
C14 C15 1_555 1_555
N7 C24 1_555 1_555
C19 C22 1_555 1_555
C20 C21 1_555 1_555
C25 C26 1_555 1_555
C26 C27 1_555 1_555
C27 C28 1_555 1_555
C28 C29 1_555 1_555
C29 C30 1_555 1_555

#END
