
#######################################################################
#
#                 Cambridge Crystallographic Data Centre
#                                CCDC 
#
#######################################################################
#
# If this CIF has been generated from an entry in the Cambridge 
# Structural Database, then it will include bibliographic, chemical, 
# crystal, experimental, refinement or atomic coordinate data resulting 
# from the CCDC's data processing and validation procedures.
#
#######################################################################

data_HOTPUC
_chemical_name_common            
6-Methoxy-2-(2,2,6,6-tetramethylpiperidin-4-ylamino)-4-(2,4,4-trimethylpentan-2-ylamino)-1,3,5-triazine
_chemical_formula_moiety         'C21 H40 N6 O1'
_chemical_name_systematic        
6-Methoxy-N^2^-(2,2,6,6-tetramethylpiperidin-4-yl)-N^4^-(2,4,4-trimethylpentan-2-yl)-1,3,5-triazine-2,4-diamine
_symmetry_cell_setting           monoclinic
_symmetry_space_group_name_H-M   'P 21/n'
_symmetry_Int_Tables_number      14
_space_group_name_Hall           '-P 2yn'
loop_
_symmetry_equiv_pos_site_id
_symmetry_equiv_pos_as_xyz
1 x,y,z
2 1/2-x,1/2+y,1/2-z
3 -x,-y,-z
4 1/2+x,1/2-y,1/2+z
_cell_length_a                   7.9980(16)
_cell_length_b                   21.208(4)
_cell_length_c                   13.637(3)
_cell_angle_alpha                90
_cell_angle_beta                 99.00(3)
_cell_angle_gamma                90
_cell_volume                     2284.65
_exptl_crystal_colour            colorless
_exptl_crystal_description       prism
_chemical_melting_point          '453-455 K'
_cell_formula_units_Z            4
_exptl_crystal_recrystallization_method methanol
loop_
_atom_site_label
_atom_site_type_symbol
_atom_site_fract_x
_atom_site_fract_y
_atom_site_fract_z
O1 O 0.99541(16) 1.16190(6) 0.53142(9)
N1 N 0.70796(18) 0.78591(7) 0.70447(11)
N2 N 0.82293(19) 0.96332(7) 0.58503(11)
H1 H 0.885(3) 0.9535(11) 0.5356(17)
N3 N 0.77158(17) 1.04119(6) 0.69566(10)
N4 N 0.85783(18) 1.14741(7) 0.66636(11)
N5 N 0.90854(18) 1.06420(7) 0.55503(10)
N6 N 0.73225(17) 1.12296(7) 0.80218(10)
H2 H 0.751(2) 1.1662(9) 0.8149(14)
C1 C 0.7606(2) 0.91373(8) 0.64481(13)
H3 H 0.7012 0.9341 0.6958
C2 C 0.9071(2) 0.87391(8) 0.69854(13)
H4 H 0.9673 0.8538 0.6486
H5 H 0.9883 0.9019 0.7401
C3 C 0.8473(2) 0.82276(8) 0.76422(13)
C4 C 0.5643(2) 0.81912(8) 0.64319(13)
C5 C 0.6350(2) 0.87035(8) 0.58083(13)
H6 H 0.6921 0.8499 0.5298
H7 H 0.5401 0.8959 0.5462
C6 C 0.8018(2) 0.85194(9) 0.86016(13)
H8 H 0.7136 0.8839 0.8431
H9 H 0.9027 0.8716 0.8980
H10 H 0.7603 0.8189 0.9004
C7 C 0.9924(2) 0.77542(9) 0.79401(15)
H11 H 0.9535 0.7415 0.8338
H12 H 1.0887 0.7971 0.8331
H13 H 1.0272 0.7575 0.7341
C8 C 0.4723(2) 0.76889(9) 0.57333(15)
H14 H 0.5521 0.7497 0.5344
H15 H 0.3794 0.7887 0.5284
H16 H 0.4267 0.7363 0.6126
C9 C 0.4337(2) 0.84784(9) 0.70291(15)
H17 H 0.3949 0.8152 0.7451
H18 H 0.3369 0.8642 0.6569
H19 H 0.4865 0.8823 0.7446
C10 C 0.8334(2) 1.02429(8) 0.61281(12)
C11 C 0.9149(2) 1.12347(8) 0.58768(13)
C12 C 0.78808(19) 1.10244(8) 0.71936(13)
C13 C 0.6823(2) 1.08322(8) 0.88243(12)
C14 C 0.6555(2) 1.12916(9) 0.96550(13)
H20 H 0.7634 1.1493 0.9921
H21 H 0.6129 1.1060 1.0187
H22 H 0.5732 1.1615 0.9388
C15 C 0.8302(2) 1.03922(9) 0.92343(13)
H23 H 0.8523 1.0101 0.8712
H24 H 0.8007 1.0152 0.9796
H25 H 0.9318 1.0645 0.9455
C16 C 0.5250(2) 1.04109(8) 0.84887(12)
H26 H 0.4985 1.0202 0.9095
H27 H 0.5625 1.0074 0.8070
C17 C 0.3538(2) 1.06610(8) 0.79203(13)
C18 C 0.3681(2) 1.08937(11) 0.68762(15)
H28 H 0.4246 1.0572 0.6529
H29 H 0.4342 1.1285 0.6921
H30 H 0.2547 1.0974 0.6509
C19 C 0.2726(2) 1.11754(10) 0.84773(18)
H31 H 0.1553 1.1242 0.8159
H32 H 0.3364 1.1569 0.8462
H33 H 0.2740 1.1045 0.9168
C20 C 0.2334(2) 1.00877(9) 0.78017(15)
H34 H 0.2226 0.9920 0.8458
H35 H 0.2793 0.9761 0.7411
H36 H 0.1218 1.0219 0.7460
C21 C 1.0420(3) 1.22379(9) 0.56937(17)
H37 H 0.9400 1.2497 0.5674
H38 H 1.1180 1.2435 0.5285
H39 H 1.0997 1.2204 0.6381
H40 H 0.663(3) 0.7584(11) 0.7449(16)
loop_
_geom_bond_atom_site_label_1
_geom_bond_atom_site_label_2
_geom_bond_site_symmetry_1
_geom_bond_site_symmetry_2
O1 C11 1_555 1_555
N1 C3 1_555 1_555
N2 H1 1_555 1_555
N3 C10 1_555 1_555
N4 C11 1_555 1_555
N5 C10 1_555 1_555
N6 H2 1_555 1_555
C1 N2 1_555 1_555
H3 C1 1_555 1_555
C2 C1 1_555 1_555
H4 C2 1_555 1_555
H5 C2 1_555 1_555
C3 C2 1_555 1_555
C4 N1 1_555 1_555
C5 C1 1_555 1_555
H6 C5 1_555 1_555
H7 C5 1_555 1_555
C6 C3 1_555 1_555
H8 C6 1_555 1_555
H9 C6 1_555 1_555
H10 C6 1_555 1_555
C7 C3 1_555 1_555
H11 C7 1_555 1_555
H12 C7 1_555 1_555
H13 C7 1_555 1_555
C8 C4 1_555 1_555
H14 C8 1_555 1_555
H15 C8 1_555 1_555
H16 C8 1_555 1_555
C9 C4 1_555 1_555
H17 C9 1_555 1_555
H18 C9 1_555 1_555
H19 C9 1_555 1_555
C10 N2 1_555 1_555
C11 N5 1_555 1_555
C12 N3 1_555 1_555
C13 N6 1_555 1_555
C14 C13 1_555 1_555
H20 C14 1_555 1_555
H21 C14 1_555 1_555
H22 C14 1_555 1_555
C15 C13 1_555 1_555
H23 C15 1_555 1_555
H24 C15 1_555 1_555
H25 C15 1_555 1_555
C16 C13 1_555 1_555
H26 C16 1_555 1_555
H27 C16 1_555 1_555
C17 C16 1_555 1_555
C18 C17 1_555 1_555
H28 C18 1_555 1_555
H29 C18 1_555 1_555
H30 C18 1_555 1_555
C19 C17 1_555 1_555
H31 C19 1_555 1_555
H32 C19 1_555 1_555
H33 C19 1_555 1_555
C20 C17 1_555 1_555
H34 C20 1_555 1_555
H35 C20 1_555 1_555
H36 C20 1_555 1_555
C21 O1 1_555 1_555
H37 C21 1_555 1_555
H38 C21 1_555 1_555
H39 C21 1_555 1_555
H40 N1 1_555 1_555
N4 C12 1_555 1_555
N6 C12 1_555 1_555
C4 C5 1_555 1_555

#END
