
#######################################################################
#
#                 Cambridge Crystallographic Data Centre
#                                CCDC 
#
#######################################################################
#
# If this CIF has been generated from an entry in the Cambridge 
# Structural Database, then it will include bibliographic, chemical, 
# crystal, experimental, refinement or atomic coordinate data resulting 
# from the CCDC's data processing and validation procedures.
#
#######################################################################

data_HOTTER
_chemical_name_common            Alcaftadine
_chemical_formula_moiety         'C19 H21 N3 O1'
_chemical_name_systematic        
11-(1-methylpiperidin-4-ylidene)-6,11-dihydro-5H-imidazo[2,1-b][3]benzazepine-3-carbaldehyde
_symmetry_cell_setting           monoclinic
_symmetry_space_group_name_H-M   'C c'
_symmetry_Int_Tables_number      9
_space_group_name_Hall           'C -2yc'
loop_
_symmetry_equiv_pos_site_id
_symmetry_equiv_pos_as_xyz
1 x,y,z
2 x,-y,1/2+z
3 1/2+x,1/2+y,z
4 1/2+x,1/2-y,1/2+z
_cell_length_a                   11.5694(6)
_cell_length_b                   14.5864(6)
_cell_length_c                   10.2688(4)
_cell_angle_alpha                90
_cell_angle_beta                 111.793(3)
_cell_angle_gamma                90
_cell_volume                     1609.07
_exptl_crystal_colour            colorless
_exptl_crystal_description       block
_chemical_melting_point          '444-445.8 K'
_cell_formula_units_Z            4
_chemical_properties_physical    'Air-sensitive, Oxygen-sensitive'
_exptl_crystal_recrystallization_method 'Methylene chloride/Ethylacetate'
loop_
_atom_site_label
_atom_site_type_symbol
_atom_site_fract_x
_atom_site_fract_y
_atom_site_fract_z
O1 O 0.25004(17) 0.27623(13) 1.25647(18)
N1 N 0.26723(13) 0.22520(10) 0.97853(16)
N2 N 0.48798(14) -0.03852(11) 0.70002(18)
N3 N 0.12072(14) 0.14337(10) 0.81610(17)
C1 C 0.1711(2) 0.23463(14) 1.1649(2)
H1 H 0.0998 0.2166 1.1834
C2 C 0.17305(17) 0.20891(13) 1.0289(2)
C3 C 0.23189(16) 0.18407(11) 0.85056(19)
C4 C 0.30157(15) 0.18695(12) 0.75560(18)
C5 C 0.32272(16) 0.11087(12) 0.69410(19)
C6 C 0.39882(17) 0.11094(13) 0.6025(2)
H2 H 0.4203 0.1746 0.5867
H3 H 0.3505 0.0831 0.5104
C7 C 0.51745(17) 0.05571(13) 0.6762(2)
H4 H 0.5691 0.0558 0.6180
H5 H 0.5662 0.0848 0.7672
C8 C 0.6029(2) -0.08944(15) 0.7706(3)
H6 H 0.6542 -0.0879 0.7131
H7 H 0.5829 -0.1532 0.7839
H8 H 0.6488 -0.0615 0.8620
C9 C 0.38069(17) 0.27712(14) 1.0575(2)
H9 H 0.4185 0.2508 1.1529
H10 H 0.3574 0.3413 1.0673
C10 C 0.47729(17) 0.27701(14) 0.9899(2)
H11 H 0.5535 0.3079 1.0536
H12 H 0.4994 0.2128 0.9782
C11 C 0.43407(16) 0.32387(13) 0.8498(2)
C12 C 0.47770(19) 0.40999(14) 0.8319(2)
H13 H 0.5360 0.4407 0.9104
C13 C 0.43738(19) 0.45167(13) 0.7013(3)
H14 H 0.4679 0.5105 0.6907
C14 C 0.35228(18) 0.40712(13) 0.5861(2)
H15 H 0.3248 0.4353 0.4963
C15 C 0.30721(17) 0.32121(12) 0.6021(2)
H16 H 0.2489 0.2909 0.5231
C16 C 0.34721(15) 0.27933(12) 0.73344(19)
C17 C 0.08507(17) 0.15875(13) 0.9260(2)
H17 H 0.0092 0.1376 0.9311
C18 C 0.41319(18) -0.03947(12) 0.7878(2)
H18 H 0.4625 -0.0129 0.8806
H19 H 0.3933 -0.1037 0.8026
C19 C 0.29204(17) 0.01456(12) 0.7224(2)
H20 H 0.2383 -0.0149 0.6338
H21 H 0.2466 0.0154 0.7872
loop_
_geom_bond_atom_site_label_1
_geom_bond_atom_site_label_2
_geom_bond_site_symmetry_1
_geom_bond_site_symmetry_2
O1 C1 1_555 1_555
N1 C2 1_555 1_555
N2 C7 1_555 1_555
N3 C3 1_555 1_555
C1 H1 1_555 1_555
C2 C1 1_555 1_555
C3 N1 1_555 1_555
C4 C3 1_555 1_555
C5 C4 1_555 1_555
C6 C5 1_555 1_555
H2 C6 1_555 1_555
H3 C6 1_555 1_555
C7 C6 1_555 1_555
H4 C7 1_555 1_555
H5 C7 1_555 1_555
C8 N2 1_555 1_555
H6 C8 1_555 1_555
H7 C8 1_555 1_555
H8 C8 1_555 1_555
C9 N1 1_555 1_555
H9 C9 1_555 1_555
H10 C9 1_555 1_555
C10 C9 1_555 1_555
H11 C10 1_555 1_555
H12 C10 1_555 1_555
C11 C10 1_555 1_555
C12 C11 1_555 1_555
H13 C12 1_555 1_555
C13 C12 1_555 1_555
H14 C13 1_555 1_555
C14 C13 1_555 1_555
H15 C14 1_555 1_555
C15 C14 1_555 1_555
H16 C15 1_555 1_555
C16 C4 1_555 1_555
C17 N3 1_555 1_555
H17 C17 1_555 1_555
C18 N2 1_555 1_555
H18 C18 1_555 1_555
H19 C18 1_555 1_555
C19 C5 1_555 1_555
H20 C19 1_555 1_555
H21 C19 1_555 1_555
C2 C17 1_555 1_555
C11 C16 1_555 1_555
C15 C16 1_555 1_555
C18 C19 1_555 1_555

#END
