
#######################################################################
#
#                 Cambridge Crystallographic Data Centre
#                                CCDC 
#
#######################################################################
#
# If this CIF has been generated from an entry in the Cambridge 
# Structural Database, then it will include bibliographic, chemical, 
# crystal, experimental, refinement or atomic coordinate data resulting 
# from the CCDC's data processing and validation procedures.
#
#######################################################################

data_HOTVOC
_chemical_formula_moiety         'C14 H8 Cl1 F1 N4 O1 S1'
_chemical_name_systematic        
2-chloro-N-(5-(4-fluorophenyl)-1,3,4-thiadiazol-2-yl)-nicotinamide
_symmetry_cell_setting           monoclinic
_symmetry_space_group_name_H-M   'P 21/c'
_symmetry_Int_Tables_number      14
_space_group_name_Hall           '-P 2ybc'
loop_
_symmetry_equiv_pos_site_id
_symmetry_equiv_pos_as_xyz
1 x,y,z
2 -x,1/2+y,1/2-z
3 -x,-y,-z
4 x,1/2-y,1/2+z
_cell_length_a                   7.451(4)
_cell_length_b                   19.628(9)
_cell_length_c                   10.519(5)
_cell_angle_alpha                90
_cell_angle_beta                 110.137(7)
_cell_angle_gamma                90
_cell_volume                     1444.35
_exptl_crystal_colour            colorless
_exptl_crystal_description       block
_chemical_melting_point          '199-201 deg.C'
_cell_formula_units_Z            4
_exptl_crystal_recrystallization_method methanol
loop_
_atom_site_label
_atom_site_type_symbol
_atom_site_fract_x
_atom_site_fract_y
_atom_site_fract_z
S1 S 0.00921(9) 0.42092(3) 0.32240(7)
Cl1 Cl 0.38361(10) 0.21657(4) 0.64377(8)
O1 O 0.2229(2) 0.31053(8) 0.40155(18)
N1 N 0.2510(3) 0.51660(10) 0.4187(2)
N2 N 0.3933(3) 0.40846(10) 0.4580(2)
N3 N 0.7269(3) 0.20368(11) 0.6423(2)
F1 F -0.8283(2) 0.57967(11) 0.0674(2)
C1 C 0.5583(3) 0.29966(11) 0.5146(2)
C2 C 0.3771(3) 0.33880(12) 0.4547(2)
C3 C 0.5728(3) 0.24224(12) 0.5948(2)
C4 C 0.7185(3) 0.31629(13) 0.4825(3)
H1 H 0.7170 0.3543 0.4294
C5 C -0.0622(4) 0.50570(12) 0.3063(2)
N4 N 0.0752(3) 0.54852(11) 0.3609(2)
C6 C 0.8791(4) 0.27656(13) 0.5291(3)
H2 H 0.9869 0.2868 0.5074
C7 C 0.2359(3) 0.45032(12) 0.4067(2)
C8 C -0.6404(4) 0.56139(19) 0.1257(3)
C9 C 0.8774(4) 0.22155(14) 0.6080(3)
H3 H 0.9872 0.1950 0.6398
C10 C -0.5947(4) 0.49440(17) 0.1365(3)
H4 H -0.6891 0.4613 0.1053
C11 C -0.4048(4) 0.47610(14) 0.1950(3)
H5 H -0.3710 0.4303 0.2030
C12 C -0.2646(4) 0.52533(13) 0.2416(2)
C13 C -0.3167(4) 0.59407(14) 0.2275(3)
H6 H -0.2239 0.6278 0.2572
C14 C -0.5079(5) 0.61169(16) 0.1688(3)
H7 H -0.5448 0.6572 0.1592
H8 H 0.502(3) 0.4278(11) 0.503(2)
loop_
_geom_bond_atom_site_label_1
_geom_bond_atom_site_label_2
_geom_bond_site_symmetry_1
_geom_bond_site_symmetry_2
S1 C5 1_555 1_555
Cl1 C3 1_555 1_555
O1 C2 1_555 1_555
N1 N4 1_555 1_555
N2 C2 1_555 1_555
N3 C3 1_555 1_555
F1 C8 1_555 1_555
C1 C2 1_555 1_555
C3 C1 1_555 1_555
C4 C1 1_555 1_555
H1 C4 1_555 1_555
C5 N4 1_555 1_555
C6 C4 1_555 1_555
H2 C6 1_555 1_555
C7 S1 1_555 1_555
C8 C10 1_555 1_555
C9 N3 1_555 1_555
H3 C9 1_555 1_555
C10 H4 1_555 1_555
C11 C10 1_555 1_555
H5 C11 1_555 1_555
C12 C5 1_555 1_555
C13 C12 1_555 1_555
H6 C13 1_555 1_555
C14 C8 1_555 1_555
H7 C14 1_555 1_555
H8 N2 1_555 1_555
N1 C7 1_555 1_555
N2 C7 1_555 1_555
C6 C9 1_555 1_555
C11 C12 1_555 1_555
C13 C14 1_555 1_555

#END
