
#######################################################################
#
#                 Cambridge Crystallographic Data Centre
#                                CCDC 
#
#######################################################################
#
# If this CIF has been generated from an entry in the Cambridge 
# Structural Database, then it will include bibliographic, chemical, 
# crystal, experimental, refinement or atomic coordinate data resulting 
# from the CCDC's data processing and validation procedures.
#
#######################################################################

data_HOTWIY
_chemical_formula_moiety         'C25 H32 N2 O1'
_chemical_name_systematic        
5a,7a-dimethyl-8-(pyridin-2-ylmethylene)-4,5,5a,5b,6,7,7a,8,9,10,10a,10b,11,12-tetradecahydrocyclopenta[5,6]naphtho[1,2-d]azepin-2(3H)-one
_symmetry_cell_setting           orthorhombic
_symmetry_space_group_name_H-M   'P 21 21 21'
_symmetry_Int_Tables_number      19
_space_group_name_Hall           'P 2ac 2ab'
loop_
_symmetry_equiv_pos_site_id
_symmetry_equiv_pos_as_xyz
1 x,y,z
2 1/2-x,-y,1/2+z
3 1/2+x,1/2-y,-z
4 -x,1/2+y,1/2-z
_cell_length_a                   7.3301(3)
_cell_length_b                   8.5393(4)
_cell_length_c                   33.1817(17)
_cell_angle_alpha                90
_cell_angle_beta                 90
_cell_angle_gamma                90
_cell_volume                     2076.97
_exptl_crystal_colour            colorless
_exptl_crystal_description       prism
_cell_formula_units_Z            4
loop_
_atom_site_label
_atom_site_type_symbol
_atom_site_fract_x
_atom_site_fract_y
_atom_site_fract_z
N1 N 0.0459(3) 0.5706(2) 0.51846(5)
C1 C 0.1918(2) 0.2945(2) 0.63098(5)
C2 C 0.3495(3) 0.1825(2) 0.64079(5)
C3 C 0.1329(3) 0.2905(2) 0.58550(5)
O1 O 0.3121(3) 0.6832(2) 0.50356(6)
C4 C 0.3038(3) 0.3225(2) 0.56054(5)
N2 N 0.4886(3) 0.1819(2) 0.83660(6)
C5 C 0.2391(3) 0.1948(3) 0.78824(5)
C6 C 0.0292(3) 0.2747(3) 0.66018(5)
H1 H -0.0575 0.3585 0.6555
H2 H -0.0317 0.1765 0.6543
C7 C 0.2362(3) 0.1579(2) 0.71298(5)
C8 C 0.5136(3) 0.2181(3) 0.61392(5)
H3 H 0.6092 0.1421 0.6190
H4 H 0.5610 0.3212 0.6204
C9 C 0.3099(3) 0.2082(2) 0.82948(6)
C10 C 0.3278(3) 0.1620(2) 0.75423(6)
C11 C 0.3972(3) 0.1976(2) 0.68519(5)
C12 C 0.4605(3) 0.2128(3) 0.56930(6)
H5 H 0.5648 0.2421 0.5530
H6 H 0.4258 0.1068 0.5621
C13 C -0.0176(3) 0.4130(3) 0.57921(5)
H7 H -0.1268 0.3769 0.5929
H8 H 0.0202 0.5095 0.5922
C14 C 0.5260(3) 0.1224(3) 0.74854(6)
H9 H 0.5560 0.0258 0.7624
H10 H 0.6027 0.2055 0.7590
C15 C 0.3335(3) 0.4389(3) 0.53420(6)
C16 C 0.0852(3) 0.2763(3) 0.70497(5)
H11 H 0.1272 0.3802 0.7123
H12 H -0.0199 0.2516 0.7216
C17 C 0.0561(3) 0.1274(3) 0.57385(6)
H13 H 0.0348 0.1239 0.5453
H14 H -0.0565 0.1096 0.5879
H15 H 0.1426 0.0478 0.5811
C18 C 0.2267(3) 0.5718(3) 0.51841(6)
C19 C 0.5546(3) 0.1038(3) 0.70269(6)
H16 H 0.6713 0.1465 0.6944
H17 H 0.5478 -0.0053 0.6947
C20 C 0.1631(4) -0.0102(3) 0.70685(6)
H18 H 0.2601 -0.0840 0.7110
H19 H 0.1169 -0.0210 0.6799
H20 H 0.0668 -0.0302 0.7258
C21 C 0.1920(4) 0.2536(3) 0.85990(6)
H21 H 0.0691 0.2696 0.8543
C22 C -0.0669(3) 0.4499(3) 0.53582(6)
H22 H -0.0551 0.3554 0.5198
H23 H -0.1934 0.4829 0.5347
C23 C 0.4374(5) 0.2500(3) 0.90602(7)
H24 H 0.4848 0.2638 0.9318
C24 C 0.2573(5) 0.2749(3) 0.89846(7)
H25 H 0.1792 0.3059 0.9191
C25 C 0.5480(4) 0.2040(3) 0.87459(8)
H26 H 0.6710 0.1871 0.8799
H27 H 0.317(2) 0.076(2) 0.6353(5)
H28 H 0.240(2) 0.399(2) 0.6360(5)
H29 H 0.420(2) 0.305(2) 0.6913(5)
H30 H 0.105(3) 0.216(2) 0.7867(6)
H31 H 0.451(3) 0.442(3) 0.5225(6)
H32 H -0.007(3) 0.650(3) 0.5082(8)
loop_
_geom_bond_atom_site_label_1
_geom_bond_atom_site_label_2
_geom_bond_site_symmetry_1
_geom_bond_site_symmetry_2
N1 C18 1_555 1_555
C1 C2 1_555 1_555
C2 C8 1_555 1_555
C3 C1 1_555 1_555
O1 C18 1_555 1_555
C4 C3 1_555 1_555
N2 C9 1_555 1_555
C5 C9 1_555 1_555
C6 C1 1_555 1_555
H1 C6 1_555 1_555
H2 C6 1_555 1_555
C7 C10 1_555 1_555
C8 H3 1_555 1_555
H4 C8 1_555 1_555
C9 C21 1_555 1_555
C10 C5 1_555 1_555
C11 C2 1_555 1_555
C12 C4 1_555 1_555
H5 C12 1_555 1_555
H6 C12 1_555 1_555
C13 C3 1_555 1_555
H7 C13 1_555 1_555
H8 C13 1_555 1_555
C14 C10 1_555 1_555
H9 C14 1_555 1_555
H10 C14 1_555 1_555
C15 C4 1_555 1_555
C16 C6 1_555 1_555
H11 C16 1_555 1_555
H12 C16 1_555 1_555
C17 C3 1_555 1_555
H13 C17 1_555 1_555
H14 C17 1_555 1_555
H15 C17 1_555 1_555
C18 C15 1_555 1_555
C19 C11 1_555 1_555
H16 C19 1_555 1_555
H17 C19 1_555 1_555
C20 C7 1_555 1_555
H18 C20 1_555 1_555
H19 C20 1_555 1_555
H20 C20 1_555 1_555
C21 H21 1_555 1_555
C22 N1 1_555 1_555
H22 C22 1_555 1_555
H23 C22 1_555 1_555
C23 H24 1_555 1_555
C24 C21 1_555 1_555
H25 C24 1_555 1_555
C25 N2 1_555 1_555
H26 C25 1_555 1_555
H27 C2 1_555 1_555
H28 C1 1_555 1_555
H29 C11 1_555 1_555
H30 C5 1_555 1_555
H31 C15 1_555 1_555
H32 N1 1_555 1_555
C7 C11 1_555 1_555
C7 C16 1_555 1_555
C8 C12 1_555 1_555
C13 C22 1_555 1_555
C14 C19 1_555 1_555
C23 C24 1_555 1_555
C23 C25 1_555 1_555

#END
