
#######################################################################
#
#                 Cambridge Crystallographic Data Centre
#                                CCDC 
#
#######################################################################
#
# If this CIF has been generated from an entry in the Cambridge 
# Structural Database, then it will include bibliographic, chemical, 
# crystal, experimental, refinement or atomic coordinate data resulting 
# from the CCDC's data processing and validation procedures.
#
#######################################################################

data_HOTYEW
_chemical_formula_moiety         'C26 H32 O5'
_chemical_name_systematic        
'diethyl 2-benzyl-5-mesityldihydrofuran-3,3(2H)-dicarboxylate'
_symmetry_cell_setting           triclinic
_symmetry_space_group_name_H-M   'P -1'
_symmetry_Int_Tables_number      2
_space_group_name_Hall           '-P 1'
loop_
_symmetry_equiv_pos_site_id
_symmetry_equiv_pos_as_xyz
1 x,y,z
2 -x,-y,-z
_cell_length_a                   8.2678(5)
_cell_length_b                   11.1195(6)
_cell_length_c                   15.0337(8)
_cell_angle_alpha                83.097(3)
_cell_angle_beta                 80.634(3)
_cell_angle_gamma                87.915(3)
_cell_volume                     1353.6
_exptl_crystal_colour            colorless
_exptl_crystal_description       block
_cell_formula_units_Z            2
loop_
_atom_site_label
_atom_site_type_symbol
_atom_site_fract_x
_atom_site_fract_y
_atom_site_fract_z
O1 O 0.15737(16) 0.48917(12) 0.28386(8)
O2 O -0.1216(2) 0.22574(16) 0.15641(13)
O3 O 0.18814(19) 0.32906(16) 0.03796(10)
O4 O -0.1774(3) 0.42121(19) 0.13054(17)
C1 C -0.1558(2) 0.3383(2) 0.51327(14)
H1 H -0.1794 0.3576 0.4527
H2 H -0.2084 0.3970 0.5508
H3 H -0.1959 0.2591 0.5374
C2 C 0.0711(2) 0.35715(17) 0.18814(13)
C3 C 0.0930(2) 0.49360(17) 0.20169(12)
H4 H -0.0160 0.5323 0.2106
C4 C 0.3581(3) 0.3360(2) 0.51899(15)
H5 H 0.4699 0.3348 0.5213
O5 O 0.3405(2) 0.2763(2) 0.14628(14)
C5 C 0.1384(2) 0.36558(16) 0.43127(12)
C6 C 0.2151(2) 0.3145(2) 0.12325(15)
C7 C 0.3071(2) 0.36138(18) 0.43494(14)
C8 C 0.1954(3) 0.70196(19) 0.14612(13)
C9 C 0.2019(3) 0.5718(2) 0.12777(14)
H6 H 0.3140 0.5415 0.1239
H7 H 0.1668 0.5666 0.0699
C10 C 0.0267(2) 0.34012(16) 0.51164(12)
C11 C 0.0694(2) 0.39580(17) 0.34399(12)
H8 H -0.0444 0.4238 0.3593
C12 C 0.2500(3) 0.3126(2) 0.59922(14)
C13 C 0.2865(3) 0.7406(2) 0.20657(16)
H9 H 0.3568 0.6861 0.2337
C14 C 0.0714(3) 0.29177(18) 0.28521(13)
H10 H -0.0248 0.2420 0.3047
H11 H 0.1688 0.2411 0.2879
C15 C -0.0890(2) 0.3410(2) 0.15437(13)
C16 C 0.0844(3) 0.31391(19) 0.59355(13)
H12 H 0.0094 0.2967 0.6464
C17 C 0.4382(3) 0.3835(3) 0.35263(17)
H13 H 0.3878 0.4000 0.2992
H14 H 0.5081 0.3130 0.3478
H15 H 0.5021 0.4516 0.3586
C18 C 0.2750(4) 0.8582(3) 0.2273(2)
H16 H 0.3350 0.8820 0.2692
C19 C 0.0950(4) 0.7856(2) 0.10575(19)
H17 H 0.0329 0.7620 0.0647
C20 C -0.2795(4) 0.1942(3) 0.1365(2)
H18 H -0.3538 0.2635 0.1408
H19 H -0.2667 0.1730 0.0750
C21 C 0.3088(4) 0.2841(3) 0.68922(19)
H20 H 0.2162 0.2705 0.7366
H21 H 0.3702 0.3510 0.7002
H22 H 0.3775 0.2127 0.6882
C22 C 0.3442(4) 0.1695(3) -0.0372(3)
H23 H 0.4355 0.1547 -0.0831
H24 H 0.2460 0.1400 -0.0529
H25 H 0.3628 0.1282 0.0202
C23 C 0.3260(4) 0.3010(3) -0.0308(2)
H26 H 0.4261 0.3307 -0.0160
H27 H 0.3096 0.3426 -0.0893
C24 C 0.1754(5) 0.9397(3) 0.1862(2)
H28 H 0.1684 1.0195 0.1994
C25 C 0.0854(5) 0.9035(3) 0.1254(3)
H29 H 0.0175 0.9591 0.0972
C26 C -0.3460(4) 0.0960(4) 0.1978(4)
H30 H -0.4504 0.0763 0.1838
H31 H -0.3598 0.1175 0.2586
H32 H -0.2730 0.0271 0.1929
loop_
_geom_bond_atom_site_label_1
_geom_bond_atom_site_label_2
_geom_bond_site_symmetry_1
_geom_bond_site_symmetry_2
O1 C3 1_555 1_555
O2 C15 1_555 1_555
O3 C6 1_555 1_555
O4 C15 1_555 1_555
C1 H1 1_555 1_555
H2 C1 1_555 1_555
H3 C1 1_555 1_555
C2 C3 1_555 1_555
C3 H4 1_555 1_555
C4 H5 1_555 1_555
O5 C6 1_555 1_555
C5 C7 1_555 1_555
C6 C2 1_555 1_555
C7 C4 1_555 1_555
C8 C9 1_555 1_555
C9 C3 1_555 1_555
H6 C9 1_555 1_555
H7 C9 1_555 1_555
C10 C1 1_555 1_555
C11 O1 1_555 1_555
H8 C11 1_555 1_555
C12 C4 1_555 1_555
C13 C8 1_555 1_555
H9 C13 1_555 1_555
C14 C2 1_555 1_555
H10 C14 1_555 1_555
H11 C14 1_555 1_555
C15 C2 1_555 1_555
C16 C10 1_555 1_555
H12 C16 1_555 1_555
C17 C7 1_555 1_555
H13 C17 1_555 1_555
H14 C17 1_555 1_555
H15 C17 1_555 1_555
C18 C13 1_555 1_555
H16 C18 1_555 1_555
C19 C8 1_555 1_555
H17 C19 1_555 1_555
C20 O2 1_555 1_555
H18 C20 1_555 1_555
H19 C20 1_555 1_555
C21 C12 1_555 1_555
H20 C21 1_555 1_555
H21 C21 1_555 1_555
H22 C21 1_555 1_555
C22 H23 1_555 1_555
H24 C22 1_555 1_555
H25 C22 1_555 1_555
C23 O3 1_555 1_555
H26 C23 1_555 1_555
H27 C23 1_555 1_555
C24 C18 1_555 1_555
H28 C24 1_555 1_555
C25 C19 1_555 1_555
H29 C25 1_555 1_555
C26 C20 1_555 1_555
H30 C26 1_555 1_555
H31 C26 1_555 1_555
H32 C26 1_555 1_555
C5 C10 1_555 1_555
C5 C11 1_555 1_555
C11 C14 1_555 1_555
C12 C16 1_555 1_555
C22 C23 1_555 1_555
C24 C25 1_555 1_555

#END
