
#######################################################################
#
#                 Cambridge Crystallographic Data Centre
#                                CCDC 
#
#######################################################################
#
# If this CIF has been generated from an entry in the Cambridge 
# Structural Database, then it will include bibliographic, chemical, 
# crystal, experimental, refinement or atomic coordinate data resulting 
# from the CCDC's data processing and validation procedures.
#
#######################################################################

data_HOTZIB
_chemical_formula_moiety         'C14 H14 Cl1 N1 O4'
_chemical_name_systematic        
'2-(4-methylene-5-oxotetrahydrofuran-3-yl)ethyl (4-chlorophenyl)carbamate'
_symmetry_cell_setting           orthorhombic
_symmetry_space_group_name_H-M   'P 21 21 21'
_symmetry_Int_Tables_number      19
_space_group_name_Hall           'P 2ac 2ab'
loop_
_symmetry_equiv_pos_site_id
_symmetry_equiv_pos_as_xyz
1 x,y,z
2 1/2+x,1/2-y,-z
3 -x,1/2+y,1/2-z
4 1/2-x,-y,1/2+z
_cell_length_a                   6.0307(19)
_cell_length_b                   12.257(4)
_cell_length_c                   18.782(6)
_cell_angle_alpha                90
_cell_angle_beta                 90
_cell_angle_gamma                90
_cell_volume                     1388.33
_exptl_crystal_colour            colorless
_exptl_crystal_description       prism
_cell_formula_units_Z            4
loop_
_atom_site_label
_atom_site_type_symbol
_atom_site_fract_x
_atom_site_fract_y
_atom_site_fract_z
Cl1 Cl 0.51567(18) 0.18847(7) -0.14444(5)
N1 N 0.7689(5) 0.5438(2) 0.05328(15)
H1 H 0.7028 0.5415 0.0950
O1 O 0.4980(6) 1.0227(3) 0.31731(15)
O2 O 0.4877(5) 0.8731(3) 0.24983(15)
O3 O 1.0302(4) 0.63865(18) -0.01041(12)
O4 O 0.9104(4) 0.69592(17) 0.09773(11)
C1 C 0.5807(7) 0.9670(4) 0.2709(2)
C2 C 0.7864(7) 0.9861(3) 0.23055(19)
C3 C 0.7931(6) 0.9038(3) 0.17099(19)
H2 H 0.7317 0.9386 0.1270
C4 C 0.6271(6) 0.8178(4) 0.1973(2)
H3 H 0.5361 0.7903 0.1573
H4 H 0.7059 0.7556 0.2194
C5 C 0.9284(11) 1.0621(3) 0.2483(2)
H5 H 0.9003 1.1073 0.2884
H6 H 1.0595 1.0722 0.2210
C6 C 1.0242(6) 0.8612(3) 0.15451(17)
H7 H 1.1262 0.9242 0.1502
H8 H 1.0753 0.8165 0.1952
C7 C 1.0407(6) 0.7939(3) 0.08769(18)
H9 H 0.9837 0.8358 0.0465
H10 H 1.1974 0.7746 0.0783
C8 C 0.9147(5) 0.6264(2) 0.04186(17)
C9 C 0.7143(6) 0.4612(2) 0.00395(17)
C10 C 0.5051(6) 0.4139(2) 0.00870(17)
H11 H 0.4038 0.4385 0.0439
C11 C 0.4432(6) 0.3308(3) -0.03776(18)
H12 H 0.3005 0.2984 -0.0343
C12 C 0.5917(6) 0.2962(3) -0.08893(17)
C13 C 0.7998(6) 0.3419(3) -0.09478(17)
H13 H 0.9001 0.3169 -0.1302
C14 C 0.8618(6) 0.4253(3) -0.04823(18)
H14 H 1.0044 0.4576 -0.0521
loop_
_geom_bond_atom_site_label_1
_geom_bond_atom_site_label_2
_geom_bond_site_symmetry_1
_geom_bond_site_symmetry_2
Cl1 C12 1_555 1_555
N1 H1 1_555 1_555
O1 C1 1_555 1_555
O2 C1 1_555 1_555
O3 C8 1_555 1_555
O4 C7 1_555 1_555
C1 C2 1_555 1_555
C2 C3 1_555 1_555
C3 H2 1_555 1_555
C4 O2 1_555 1_555
H3 C4 1_555 1_555
H4 C4 1_555 1_555
C5 C2 1_555 1_555
H5 C5 1_555 1_555
H6 C5 1_555 1_555
C6 C3 1_555 1_555
H7 C6 1_555 1_555
H8 C6 1_555 1_555
C7 C6 1_555 1_555
H9 C7 1_555 1_555
H10 C7 1_555 1_555
C8 N1 1_555 1_555
C9 N1 1_555 1_555
C10 C9 1_555 1_555
H11 C10 1_555 1_555
C11 C10 1_555 1_555
H12 C11 1_555 1_555
C12 C11 1_555 1_555
C13 C12 1_555 1_555
H13 C13 1_555 1_555
C14 C9 1_555 1_555
H14 C14 1_555 1_555
O4 C8 1_555 1_555
C3 C4 1_555 1_555
C13 C14 1_555 1_555

#END
