
#######################################################################
#
#                 Cambridge Crystallographic Data Centre
#                                CCDC 
#
#######################################################################
#
# If this CIF has been generated from an entry in the Cambridge 
# Structural Database, then it will include bibliographic, chemical, 
# crystal, experimental, refinement or atomic coordinate data resulting 
# from the CCDC's data processing and validation procedures.
#
#######################################################################

data_HOVCUQ
_chemical_formula_moiety         'C16 H14 O3'
_chemical_name_systematic        3-Hydroxy(phenyl)methyl-3-phenyloxetan-2-one
_symmetry_cell_setting           monoclinic
_symmetry_space_group_name_H-M   'P 21/c'
_symmetry_Int_Tables_number      14
_space_group_name_Hall           '-P 2ybc'
loop_
_symmetry_equiv_pos_site_id
_symmetry_equiv_pos_as_xyz
1 x,y,z
2 x,1/2-y,1/2+z
3 -x,-y,-z
4 -x,1/2+y,1/2-z
_cell_length_a                   6.4392(2)
_cell_length_b                   23.7579(3)
_cell_length_c                   8.4363(2)
_cell_angle_alpha                90
_cell_angle_beta                 92.5719(11)
_cell_angle_gamma                90
_cell_volume                     1289.3
_exptl_crystal_colour            colorless
_exptl_crystal_description       block
_cell_formula_units_Z            4
loop_
_atom_site_label
_atom_site_type_symbol
_atom_site_fract_x
_atom_site_fract_y
_atom_site_fract_z
O1 O -0.3254(5) 0.36181(12) -0.0410(4)
O2 O -0.0206(4) 0.33558(12) -0.1493(4)
O3 O -0.0162(4) 0.26882(13) 0.1584(4)
H1 H -0.0279 0.2719 0.0616
C1 C 0.1745(7) 0.3453(2) -0.0440(6)
H2 H 0.2645 0.3746 -0.0825
H3 H 0.2524 0.3113 -0.0193
C2 C 0.0380(6) 0.36463(17) 0.0886(6)
C3 C -0.1400(8) 0.35592(19) -0.0321(6)
C4 C 0.2646(7) 0.45026(19) 0.1480(6)
H4 H 0.3762 0.4315 0.1059
C5 C 0.2905(8) 0.5037(2) 0.2125(7)
H5 H 0.4190 0.5214 0.2085
C6 C 0.1308(9) 0.5307(2) 0.2816(6)
H6 H 0.1522 0.5663 0.3250
C7 C -0.0631(7) 0.5056(2) 0.2879(6)
H7 H -0.1705 0.5233 0.3387
C8 C -0.0925(7) 0.45362(18) 0.2167(6)
H8 H -0.2239 0.4373 0.2152
C9 C 0.0679(6) 0.42495(17) 0.1473(6)
C10 C 0.0291(7) 0.32289(18) 0.2278(6)
H9 H -0.0875 0.3336 0.2922
C11 C 0.3847(7) 0.28565(18) 0.3078(6)
H10 H 0.3754 0.2611 0.2220
C12 C 0.5629(7) 0.2847(2) 0.4072(7)
H11 H 0.6683 0.2590 0.3905
C13 C 0.5812(7) 0.3231(2) 0.5327(7)
H12 H 0.7022 0.3242 0.5971
C14 C 0.4194(8) 0.3593(2) 0.5609(7)
H13 H 0.4318 0.3847 0.6447
C15 C 0.2394(6) 0.35812(18) 0.4661(6)
H14 H 0.1288 0.3813 0.4901
C16 C 0.2204(7) 0.32194(19) 0.3322(7)
loop_
_geom_bond_atom_site_label_1
_geom_bond_atom_site_label_2
_geom_bond_site_symmetry_1
_geom_bond_site_symmetry_2
O1 C3 1_555 1_555
O2 C1 1_555 1_555
O3 H1 1_555 1_555
C1 H2 1_555 1_555
H3 C1 1_555 1_555
C2 C1 1_555 1_555
C3 O2 1_555 1_555
C4 H4 1_555 1_555
C5 C4 1_555 1_555
H5 C5 1_555 1_555
C6 C5 1_555 1_555
H6 C6 1_555 1_555
C7 C6 1_555 1_555
H7 C7 1_555 1_555
C8 C7 1_555 1_555
H8 C8 1_555 1_555
C9 C2 1_555 1_555
C10 O3 1_555 1_555
H9 C10 1_555 1_555
C11 H10 1_555 1_555
C12 C11 1_555 1_555
H11 C12 1_555 1_555
C13 C12 1_555 1_555
H12 C13 1_555 1_555
C14 C13 1_555 1_555
H13 C14 1_555 1_555
C15 C14 1_555 1_555
H14 C15 1_555 1_555
C16 C10 1_555 1_555
C2 C3 1_555 1_555
C2 C10 1_555 1_555
C4 C9 1_555 1_555
C8 C9 1_555 1_555
C11 C16 1_555 1_555
C15 C16 1_555 1_555

#END
