
#######################################################################
#
#                 Cambridge Crystallographic Data Centre
#                                CCDC 
#
#######################################################################
#
# If this CIF has been generated from an entry in the Cambridge 
# Structural Database, then it will include bibliographic, chemical, 
# crystal, experimental, refinement or atomic coordinate data resulting 
# from the CCDC's data processing and validation procedures.
#
#######################################################################

data_HOVDUT01
_chemical_name_common            'Voriconazole dihydrochloride'
_chemical_formula_moiety         'C16 H16 F3 N5 O1 2+,2(Cl1 1-)'
_chemical_name_systematic        
'(2R,3S)-2-(2,4-difluorophenyl)-3-(5-fluoro-4-pyrimidinyl)-1-(1H-1,2,4-triazol-1-yl)-2-butanol bis(hydrochloride)'
_symmetry_cell_setting           orthorhombic
_symmetry_space_group_name_H-M   'P 21 21 21'
_symmetry_Int_Tables_number      19
_space_group_name_Hall           'P 2ac 2ab'
loop_
_symmetry_equiv_pos_site_id
_symmetry_equiv_pos_as_xyz
1 x,y,z
2 1/2-x,-y,1/2+z
3 -x,1/2+y,1/2-z
4 1/2+x,1/2-y,-z
_cell_length_a                   9.0652(3)
_cell_length_b                   12.5400(5)
_cell_length_c                   15.8517(6)
_cell_angle_alpha                90
_cell_angle_beta                 90
_cell_angle_gamma                90
_cell_volume                     1801.98
_exptl_crystal_colour            colorless
_exptl_crystal_description       needle
_cell_formula_units_Z            4
loop_
_atom_site_label
_atom_site_type_symbol
_atom_site_fract_x
_atom_site_fract_y
_atom_site_fract_z
O1 O -0.2734(2) -0.46267(16) -0.23544(15)
H1 H -0.1877 -0.4713 -0.2062
F1 F -0.1113 -0.8562 -0.2535
F2 F -0.5759 -0.7202 -0.2555
F3 F -0.8793 -0.4983 -0.4151
N1 N -0.4795 -0.4938 -0.1059
N2 N -0.6295 -0.4877 -0.1145
N3 N -0.5414 -0.3436 -0.0535
H2 H -0.5404 -0.2880 -0.0228
N4 N -0.0575(3) -0.5937(2) -0.17344(19)
N5 N 0.1274(3) -0.7056(3) -0.12414(19)
H3 H 0.1960 -0.7180 -0.0889
C1 C -0.6627(4) -0.3970(3) -0.0812(2)
H4 H -0.7584 -0.3710 -0.0767
C2 C -0.4277(4) -0.4073(3) -0.0705(2)
H5 H -0.3290 -0.3928 -0.0591
C3 C -0.3963(4) -0.5835(3) -0.1400(2)
H6 H -0.4559 -0.6477 -0.1374
H7 H -0.3084 -0.5950 -0.1063
C4 C -0.3518(3) -0.5609(2) -0.23284(19)
C5 C -0.2547(3) -0.6528(3) -0.2679(2)
H8 H -0.3145 -0.7179 -0.2686
C6 C -0.1191(3) -0.6744(3) -0.2159(2)
C7 C -0.0519(4) -0.7738(2) -0.2123(2)
C8 C 0.0736(4) -0.7882(3) -0.1660(2)
H9 H 0.1200 -0.8543 -0.1639
C9 C 0.0611(4) -0.6118(3) -0.1275(2)
H10 H 0.1000 -0.5560 -0.0960
C10 C -0.4891(3) -0.5472(2) -0.28689(19)
C11 C -0.5162(4) -0.4527(3) -0.3305(2)
H11 H -0.4450 -0.3993 -0.3298
C12 C -0.6462(4) -0.4357(3) -0.3753(2)
H12 H -0.6628 -0.3720 -0.4038
C13 C -0.7484(4) -0.5154(3) -0.3760(2)
C14 C -0.7263(4) -0.6121(3) -0.3374(2)
H13 H -0.7961 -0.6664 -0.3404
C15 C -0.5966(4) -0.6250(3) -0.2944(2)
C16 C -0.2052(4) -0.6298(3) -0.3586(2)
H14 H -0.2901 -0.6157 -0.3930
H15 H -0.1413 -0.5687 -0.3590
H16 H -0.1533 -0.6904 -0.3805
Cl1 Cl -0.0541 -0.3483 -0.0579
Cl2 Cl -0.6364 -0.7675 -0.0138
loop_
_geom_bond_atom_site_label_1
_geom_bond_atom_site_label_2
_geom_bond_site_symmetry_1
_geom_bond_site_symmetry_2
O1 H1 1_555 1_555
F1 C7 1_555 1_555
F2 C15 1_555 1_555
F3 C13 1_555 1_555
N1 N2 1_555 1_555
N2 C1 1_555 1_555
N3 H2 1_555 1_555
N4 C6 1_555 1_555
N5 H3 1_555 1_555
C1 N3 1_555 1_555
H4 C1 1_555 1_555
C2 N1 1_555 1_555
H5 C2 1_555 1_555
C3 N1 1_555 1_555
H6 C3 1_555 1_555
H7 C3 1_555 1_555
C4 O1 1_555 1_555
C5 C4 1_555 1_555
H8 C5 1_555 1_555
C6 C5 1_555 1_555
C7 C6 1_555 1_555
C8 N5 1_555 1_555
H9 C8 1_555 1_555
C9 N4 1_555 1_555
H10 C9 1_555 1_555
C10 C4 1_555 1_555
C11 C10 1_555 1_555
H11 C11 1_555 1_555
C12 C11 1_555 1_555
H12 C12 1_555 1_555
C13 C12 1_555 1_555
C14 C13 1_555 1_555
H13 C14 1_555 1_555
C15 C10 1_555 1_555
C16 C5 1_555 1_555
H14 C16 1_555 1_555
H15 C16 1_555 1_555
H16 C16 1_555 1_555
N3 C2 1_555 1_555
N5 C9 1_555 1_555
C3 C4 1_555 1_555
C7 C8 1_555 1_555
C14 C15 1_555 1_555

#END
