
#######################################################################
#
#                 Cambridge Crystallographic Data Centre
#                                CCDC 
#
#######################################################################
#
# If this CIF has been generated from an entry in the Cambridge 
# Structural Database, then it will include bibliographic, chemical, 
# crystal, experimental, refinement or atomic coordinate data resulting 
# from the CCDC's data processing and validation procedures.
#
#######################################################################

data_HOVJEH
_chemical_formula_moiety         'C19 H26 O8 S1'
_chemical_name_systematic        
6-p-Tosyl-1,2:3,5-di-O-isopropylidene-\b-L-idofuranoside
_symmetry_cell_setting           orthorhombic
_symmetry_space_group_name_H-M   'P 21 21 21'
_symmetry_Int_Tables_number      19
_space_group_name_Hall           'P 2ac 2ab'
loop_
_symmetry_equiv_pos_site_id
_symmetry_equiv_pos_as_xyz
1 x,y,z
2 1/2-x,-y,1/2+z
3 -x,1/2+y,1/2-z
4 1/2+x,1/2-y,-z
_cell_length_a                   5.6300(10)
_cell_length_b                   8.082(2)
_cell_length_c                   44.794(54)
_cell_angle_alpha                90
_cell_angle_beta                 90
_cell_angle_gamma                90
_cell_volume                     2038.2
_cell_formula_units_Z            4
loop_
_atom_site_label
_atom_site_type_symbol
_atom_site_fract_x
_atom_site_fract_y
_atom_site_fract_z
S1 S -0.7427(6) -0.4759(4) -0.18088(7)
O1 O -1.2683(14) -0.5292(11) -0.0306(2)
O2 O -1.6093(13) -0.3914(11) -0.0419(2)
O3 O -1.1436(13) -0.4208(10) -0.0764(2)
O4 O -1.2867(14) -0.0665(8) -0.07816(15)
O5 O -1.0575(13) -0.1450(9) -0.1185(2)
O6 O -0.9333(15) -0.3645(9) -0.1648(2)
O7 O -0.5662(15) -0.5269(12) -0.1593(2)
O8 O -0.6710(18) -0.3826(11) -0.2065(2)
C1 C -1.1995(19) -0.3891(14) -0.0465(3)
H1 H -1.0680 -0.3324 -0.0365
C2 C -1.4230(19) -0.2789(14) -0.0471(2)
H2 H -1.4171 -0.1908 -0.0321
C3 C -1.3113(17) -0.3502(13) -0.0960(2)
H3 H -1.4310 -0.4337 -0.1010
C4 C -1.4288(18) -0.2128(13) -0.0782(2)
H4 H -1.5912 -0.1910 -0.0850
C5 C -1.1906(19) -0.2923(13) -0.1246(2)
H5 H -1.3110 -0.2693 -0.1398
C6 C -1.0208(21) -0.4186(13) -0.1359(2)
H6 H -0.8895 -0.4310 -0.1221
H7 H -1.0999 -0.5247 -0.1378
C7 C -1.5237(19) -0.5429(15) -0.0299(2)
C8 C -1.6057(27) -0.6811(19) -0.0494(3)
H8 H -1.5492 -0.7843 -0.0416
H9 H -1.5444 -0.6656 -0.0692
H10 H -1.7761 -0.6822 -0.0501
C9 C -1.5989(28) -0.5596(18) 0.0017(3)
H11 H -1.5402 -0.6622 0.0096
H12 H -1.7692 -0.5584 0.0028
H13 H -1.5360 -0.4692 0.0131
C10 C -1.1941(21) -0.0157(13) -0.1062(2)
C11 C -1.3848(23) 0.0450(16) -0.1275(3)
H14 H -1.4734 0.1326 -0.1183
H15 H -1.4900 -0.0447 -0.1323
H16 H -1.3116 0.0853 -0.1455
C12 C -1.0176(22) 0.1191(14) -0.0979(3)
H17 H -1.1009 0.2111 -0.0893
H18 H -0.9350 0.1549 -0.1155
H19 H -0.9054 0.0764 -0.0837
C13 C -0.8977(19) -0.6510(12) -0.1922(2)
C14 C -0.8245(22) -0.8046(14) -0.1854(3)
H20 H -0.6888 -0.8184 -0.1739
C15 C -0.9451(28) -0.9411(14) -0.1951(3)
H21 H -0.8896 -1.0458 -0.1901
C16 C -1.1468(23) -0.9266(15) -0.2122(3)
C17 C -1.2160(24) -0.7697(16) -0.2202(3)
H22 H -1.3481 -0.7574 -0.2325
C18 C -1.0991(24) -0.6309(13) -0.2109(3)
H23 H -1.1499 -0.5262 -0.2166
C19 C -1.2824(34) -1.0771(18) -0.2227(4)
H24 H -1.2085 -1.1752 -0.2150
H25 H -1.2817 -1.0808 -0.2441
H26 H -1.4432 -1.0709 -0.2157
loop_
_geom_bond_atom_site_label_1
_geom_bond_atom_site_label_2
_geom_bond_site_symmetry_1
_geom_bond_site_symmetry_2
S1 O6 1_555 1_555
O1 C1 1_555 1_555
O2 C2 1_555 1_555
O3 C1 1_555 1_555
O4 C4 1_555 1_555
O5 C5 1_555 1_555
O6 C6 1_555 1_555
O7 S1 1_555 1_555
O8 S1 1_555 1_555
C1 H1 1_555 1_555
C2 C1 1_555 1_555
H2 C2 1_555 1_555
C3 O3 1_555 1_555
H3 C3 1_555 1_555
C4 C2 1_555 1_555
H4 C4 1_555 1_555
C5 C3 1_555 1_555
H5 C5 1_555 1_555
C6 C5 1_555 1_555
H6 C6 1_555 1_555
H7 C6 1_555 1_555
C7 O1 1_555 1_555
C8 C7 1_555 1_555
H8 C8 1_555 1_555
H9 C8 1_555 1_555
H10 C8 1_555 1_555
C9 C7 1_555 1_555
H11 C9 1_555 1_555
H12 C9 1_555 1_555
H13 C9 1_555 1_555
C10 O4 1_555 1_555
C11 C10 1_555 1_555
H14 C11 1_555 1_555
H15 C11 1_555 1_555
H16 C11 1_555 1_555
C12 C10 1_555 1_555
H17 C12 1_555 1_555
H18 C12 1_555 1_555
H19 C12 1_555 1_555
C13 S1 1_555 1_555
C14 C13 1_555 1_555
H20 C14 1_555 1_555
C15 C14 1_555 1_555
H21 C15 1_555 1_555
C16 C15 1_555 1_555
C17 C16 1_555 1_555
H22 C17 1_555 1_555
C18 C13 1_555 1_555
H23 C18 1_555 1_555
C19 C16 1_555 1_555
H24 C19 1_555 1_555
H25 C19 1_555 1_555
H26 C19 1_555 1_555
O2 C7 1_555 1_555
O5 C10 1_555 1_555
C3 C4 1_555 1_555
C17 C18 1_555 1_555

#END
