
#######################################################################
#
#                 Cambridge Crystallographic Data Centre
#                                CCDC 
#
#######################################################################
#
# If this CIF has been generated from an entry in the Cambridge 
# Structural Database, then it will include bibliographic, chemical, 
# crystal, experimental, refinement or atomic coordinate data resulting 
# from the CCDC's data processing and validation procedures.
#
#######################################################################

data_HOVJEJ
_chemical_formula_moiety         'C76 H104 O6'
_chemical_name_systematic        
5,11,17,23,29,35-Hexa-t-butyl-2,20-diethyl-37,38,39,40,41,42-hexamethoxycalix(6)arene
_symmetry_cell_setting           monoclinic
_symmetry_space_group_name_H-M   'P 21/n'
_symmetry_Int_Tables_number      14
_space_group_name_Hall           '-P 2yn'
loop_
_symmetry_equiv_pos_site_id
_symmetry_equiv_pos_as_xyz
1 x,y,z
2 1/2-x,1/2+y,1/2-z
3 -x,-y,-z
4 1/2+x,1/2-y,1/2+z
_cell_length_a                   23.2623(7)
_cell_length_b                   24.6314(7)
_cell_length_c                   25.0148(6)
_cell_angle_alpha                90
_cell_angle_beta                 90.746(3)
_cell_angle_gamma                90
_cell_volume                     14331.8
_exptl_crystal_colour            colorless
_exptl_crystal_description       block
_cell_formula_units_Z            8
loop_
_atom_site_label
_atom_site_type_symbol
_atom_site_fract_x
_atom_site_fract_y
_atom_site_fract_z
O1 O 0.2323(4) 0.2865(4) 0.0158(6)
O2 O 0.2156(3) 0.3418(3) -0.1350(3)
O3 O 0.2252(4) 0.3045(4) -0.3057(3)
O4 O 0.3291(3) 0.1652(3) -0.2647(3)
O5 O 0.3795(3) 0.0561(3) -0.1437(3)
O6 O 0.3406(4) 0.1564(3) -0.0262(3)
C1 C 0.2626(5) 0.3042(4) -0.1355(4)
H1 H 0.2884 0.3134 -0.1648
H2 H 0.2478 0.2674 -0.1407
H3 H 0.2837 0.3062 -0.1014
C2 C 0.2053(7) 0.2620(6) -0.2757(6)
H4 H 0.2379 0.2407 -0.2622
H5 H 0.1805 0.2388 -0.2980
H6 H 0.1833 0.2760 -0.2456
C3 C 0.3331(4) 0.1915(5) -0.2144(4)
H7 H 0.3619 0.1731 -0.1920
H8 H 0.2957 0.1902 -0.1969
H9 H 0.3445 0.2295 -0.2196
C4 C 0.3889(7) 0.0016(6) -0.1334(5)
H10 H 0.4301 -0.0063 -0.1357
H11 H 0.3677 -0.0204 -0.1597
H12 H 0.3755 -0.0071 -0.0974
C5 C 0.3456(5) 0.1938(5) -0.0708(4)
H13 H 0.3549 0.2301 -0.0573
H14 H 0.3091 0.1950 -0.0907
H15 H 0.3762 0.1814 -0.0945
C6 C 0.2107(4) 0.4279(4) 0.0136(4)
H16 H 0.2095 0.4059 0.0466
H17 H 0.2384 0.4578 0.0198
C7 C 0.1525(5) 0.4519(5) 0.0038(5)
H18 H 0.1551 0.4806 -0.0231
H19 H 0.1381 0.4672 0.0372
H20 H 0.1261 0.4235 -0.0090
C8 C 0.4463(6) 0.0393(5) -0.2642(5)
H21 H 0.4438 0.0124 -0.2349
H22 H 0.4875 0.0444 -0.2722
C9 C 0.4162(10) 0.0162(6) -0.3134(7)
H23 H 0.3746 0.0158 -0.3078
H24 H 0.4297 -0.0209 -0.3197
H25 H 0.4249 0.0388 -0.3445
C10 C 0.2875(4) 0.3118(4) 0.0108(4)
C11 C 0.2864(4) 0.3624(4) -0.0144(3)
C12 C 0.3414(5) 0.3852(4) -0.0184(4)
H26 H 0.3441 0.4192 -0.0362
C13 C 0.3914(4) 0.3633(4) 0.0006(4)
C14 C 0.3860(4) 0.3125(4) 0.0248(3)
H27 H 0.4198 0.2954 0.0384
C15 C 0.3345(4) 0.2860(4) 0.0301(3)
C16 C 0.4495(4) 0.3898(5) -0.0052(6)
C17 C 0.4502(6) 0.4366(7) -0.0423(8)
H28 H 0.4899 0.4485 -0.0476
H29 H 0.4278 0.4665 -0.0272
H30 H 0.4332 0.4258 -0.0768
C18 C 0.4919(7) 0.3530(6) -0.0279(11)
H31 H 0.4886 0.3537 -0.0670
H32 H 0.4849 0.3160 -0.0150
H33 H 0.5306 0.3646 -0.0169
C19 C 0.4713(8) 0.4053(9) 0.0485(7)
H34 H 0.4711 0.3735 0.0720
H35 H 0.4466 0.4336 0.0634
H36 H 0.5107 0.4191 0.0457
C20 C 0.3315(5) 0.2314(4) 0.0580(4)
H37 H 0.3261 0.2378 0.0967
H38 H 0.2972 0.2118 0.0444
C21 C 0.3873(6) 0.1601(6) 0.0093(5)
C22 C 0.3832(5) 0.1956(4) 0.0511(5)
C23 C 0.4302(6) 0.1980(4) 0.0856(4)
H39 H 0.4283 0.2226 0.1148
C24 C 0.4798(6) 0.1673(5) 0.0805(5)
C25 C 0.4781(6) 0.1309(5) 0.0383(6)
H40 H 0.5106 0.1081 0.0334
C26 C 0.4320(7) 0.1256(5) 0.0026(5)
C27 C 0.5324(8) 0.1731(7) 0.1152(7)
C28 C 0.5342(12) 0.2260(9) 0.1390(17)
H41 H 0.5103 0.2263 0.1709
H42 H 0.5195 0.2528 0.1133
H43 H 0.5739 0.2349 0.1489
C29 C 0.5243(10) 0.1480(19) 0.1650(8)
H44 H 0.5267 0.1086 0.1608
H45 H 0.4863 0.1578 0.1786
H46 H 0.5541 0.1604 0.1902
C30 C 0.5880(8) 0.1550(11) 0.0910(8)
H47 H 0.5966 0.1777 0.0599
H48 H 0.5846 0.1170 0.0797
H49 H 0.6191 0.1584 0.1176
C31 C 0.4309(6) 0.0832(4) -0.0423(4)
H50 H 0.3906 0.0722 -0.0494
H51 H 0.4524 0.0507 -0.0303
C32 C 0.4318(5) 0.0884(4) -0.1422(5)
C33 C 0.4507(4) 0.1089(4) -0.1916(4)
C34 C 0.4964(4) 0.1451(4) -0.1895(4)
H52 H 0.5108 0.1586 -0.2223
C35 C 0.5224(4) 0.1629(4) -0.1415(4)
C36 C 0.5018(4) 0.1416(4) -0.0961(4)
H53 H 0.5187 0.1528 -0.0631
C37 C 0.4571(5) 0.1042(4) -0.0945(4)
C38 C 0.5689(5) 0.2022(5) -0.1429(5)
C39 C 0.5453(9) 0.2561(8) -0.1596(14)
H54 H 0.5474 0.2813 -0.1293
H55 H 0.5051 0.2519 -0.1712
H56 H 0.5679 0.2704 -0.1892
C40 C 0.6112(7) 0.1926(10) -0.1846(7)
H57 H 0.6400 0.2215 -0.1837
H58 H 0.5918 0.1922 -0.2196
H59 H 0.6300 0.1575 -0.1784
C41 C 0.5965(9) 0.2136(9) -0.0922(6)
H60 H 0.5677 0.2259 -0.0666
H61 H 0.6254 0.2422 -0.0969
H62 H 0.6153 0.1807 -0.0787
C42 C 0.4224(5) 0.0920(5) -0.2450(4)
H63 H 0.3811 0.0848 -0.2370
C43 C 0.3766(5) 0.1712(5) -0.2954(4)
C44 C 0.4223(5) 0.1376(4) -0.2873(4)
C45 C 0.4709(5) 0.1421(4) -0.3181(4)
H64 H 0.5015 0.1172 -0.3125
C46 C 0.4764(5) 0.1825(5) -0.3577(4)
C47 C 0.4258(6) 0.2149(5) -0.3666(4)
H65 H 0.4254 0.2402 -0.3953
C48 C 0.3780(5) 0.2108(5) -0.3353(4)
C49 C 0.5304(5) 0.1884(6) -0.3900(5)
C50 C 0.5773(7) 0.2031(11) -0.3545(6)
H66 H 0.5622 0.2219 -0.3232
H67 H 0.6039 0.2271 -0.3733
H68 H 0.5978 0.1702 -0.3430
C51 C 0.5385(6) 0.1438(6) -0.4255(7)
H69 H 0.5502 0.1574 -0.4606
H70 H 0.5025 0.1235 -0.4294
H71 H 0.5685 0.1198 -0.4111
C52 C 0.5233(7) 0.2359(8) -0.4314(7)
H72 H 0.5477 0.2665 -0.4204
H73 H 0.4830 0.2475 -0.4327
H74 H 0.5347 0.2233 -0.4668
C53 C 0.3270(5) 0.2486(4) -0.3443(4)
H75 H 0.3267 0.2612 -0.3818
H76 H 0.2910 0.2283 -0.3382
C54 C 0.2808(4) 0.3229(5) -0.2886(4)
C55 C 0.3290(5) 0.2969(4) -0.3079(4)
C56 C 0.3793(4) 0.3217(4) -0.2971(4)
H77 H 0.4132 0.3062 -0.3114
C57 C 0.3850(4) 0.3687(4) -0.2664(4)
C58 C 0.3340(4) 0.3902(4) -0.2473(4)
H78 H 0.3359 0.4221 -0.2260
C59 C 0.2809(4) 0.3676(4) -0.2578(3)
C60 C 0.4437(5) 0.3949(6) -0.2541(7)
C61 C 0.4909(8) 0.3584(6) -0.2482(11)
H79 H 0.4767 0.3209 -0.2491
H80 H 0.5105 0.3651 -0.2139
H81 H 0.5179 0.3640 -0.2774
C62 C 0.4613(9) 0.4206(12) -0.3045(10)
H82 H 0.5008 0.4338 -0.3008
H83 H 0.4356 0.4511 -0.3127
H84 H 0.4591 0.3939 -0.3335
C63 C 0.4402(7) 0.4383(12) -0.2147(11)
H85 H 0.4554 0.4254 -0.1803
H86 H 0.4001 0.4494 -0.2107
H87 H 0.4630 0.4694 -0.2267
C64 C 0.2267(4) 0.3937(4) -0.2352(4)
H88 H 0.2114 0.4204 -0.2613
H89 H 0.1971 0.3652 -0.2304
C65 C 0.2332(4) 0.3958(4) -0.1335(5)
C66 C 0.2375(4) 0.4221(5) -0.1817(5)
C67 C 0.2529(4) 0.4759(6) -0.1808(4)
H90 H 0.2561 0.4942 -0.2140
C68 C 0.2644(4) 0.5053(5) -0.1340(4)
C69 C 0.2578(4) 0.4764(5) -0.0868(4)
H91 H 0.2646 0.4947 -0.0538
C70 C 0.2415(4) 0.4214(4) -0.0852(4)
C71 C 0.2850(5) 0.5633(4) -0.1323(4)
C72 C 0.2937(7) 0.5886(5) -0.1884(5)
H92 H 0.3235 0.5684 -0.2073
H93 H 0.3056 0.6266 -0.1844
H94 H 0.2576 0.5869 -0.2088
C73 C 0.2408(6) 0.5987(5) -0.1041(6)
H95 H 0.2041 0.5971 -0.1236
H96 H 0.2545 0.6363 -0.1030
H97 H 0.2356 0.5854 -0.0675
C74 C 0.3427(6) 0.5675(5) -0.1046(6)
H98 H 0.3382 0.5607 -0.0663
H99 H 0.3585 0.6039 -0.1099
H100 H 0.3689 0.5405 -0.1196
C75 C 0.2336(4) 0.3910(4) -0.0333(4)
H101 H 0.2038 0.3625 -0.0401
C76 C 0.2016(12) 0.2518(11) -0.0129(9)
H102 H 0.1651 0.2448 0.0050
H103 H 0.2229 0.2177 -0.0165
H104 H 0.1939 0.2672 -0.0484
O7 O 0.2830(3) 0.9016(3) 0.2688(3)
O8 O 0.3712(3) 0.9804(3) 0.1507(2)
O9 O 0.3014(3) 0.8953(3) 0.0268(3)
O10 O 0.2333(4) 0.7471(3) -0.0247(3)
O11 O 0.1965(2) 0.7162(3) 0.1461(2)
O12 O 0.2168(3) 0.7598(2) 0.3154(2)
C78 C 0.2562(6) 0.8968(4) 0.2176(4)
H108 H 0.2211 0.8751 0.2205
H109 H 0.2827 0.8790 0.1929
H110 H 0.2465 0.9330 0.2040
C79 C 0.4238(5) 1.0071(7) 0.1423(5)
H111 H 0.4206 1.0451 0.1534
H112 H 0.4333 1.0055 0.1043
H113 H 0.4542 0.9892 0.1633
C80 C 0.2688(6) 0.8917(4) 0.0749(4)
H114 H 0.2726 0.9256 0.0950
H115 H 0.2833 0.8615 0.0967
H116 H 0.2282 0.8854 0.0658
C81 C 0.2789(6) 0.7506(5) 0.0090(5)
H117 H 0.2839 0.7883 0.0206
H118 H 0.3136 0.7385 -0.0094
H119 H 0.2725 0.7274 0.0402
C82 C 0.2091(4) 0.7736(4) 0.1448(4)
H120 H 0.1949 0.7891 0.1110
H121 H 0.2507 0.7792 0.1479
H122 H 0.1900 0.7917 0.1747
C83 C 0.2679(4) 0.7638(4) 0.2844(4)
H123 H 0.2599 0.7506 0.2480
H124 H 0.2983 0.7416 0.3009
H125 H 0.2804 0.8017 0.2829
C84 C 0.3607(4) 1.0553(4) 0.2697(4)
H126 H 0.3892 1.0630 0.2416
H127 H 0.3386 1.0891 0.2758
C85 C 0.3920(5) 1.0403(5) 0.3202(5)
H128 H 0.3643 1.0359 0.3491
H129 H 0.4195 1.0690 0.3296
H130 H 0.4127 1.0061 0.3149
C86 C 0.1280(4) 0.6642(4) -0.0027(4)
H131 H 0.1526 0.6709 -0.0340
H132 H 0.0878 0.6720 -0.0136
C87 C 0.1330(5) 0.6035(4) 0.0133(5)
H133 H 0.1715 0.5964 0.0279
H134 H 0.1263 0.5808 -0.0183
H135 H 0.1042 0.5951 0.0403
C88 C 0.2590(4) 0.9426(4) 0.2994(4)
C89 C 0.2217(4) 0.9294(4) 0.3406(4)
C90 C 0.1962(4) 0.9712(5) 0.3691(4)
H136 H 0.1700 0.9623 0.3966
C91 C 0.2073(4) 1.0248(4) 0.3591(3)
C92 C 0.2465(4) 1.0363(4) 0.3212(4)
H137 H 0.2555 1.0734 0.3153
C93 C 0.2745(4) 0.9979(4) 0.2905(3)
C94 C 0.1751(5) 1.0684(5) 0.3882(4)
C95 C 0.1725(11) 1.0603(9) 0.4436(6)
H138 H 0.2024 1.0345 0.4547
H139 H 0.1347 1.0458 0.4527
H140 H 0.1786 1.0950 0.4620
C96 C 0.1133(8) 1.0712(10) 0.3665(8)
H141 H 0.0961 1.0349 0.3672
H142 H 0.1134 1.0848 0.3297
H143 H 0.0907 1.0958 0.3889
C97 C 0.1900(8) 1.1250(6) 0.3723(9)
H144 H 0.1574 1.1490 0.3796
H145 H 0.1985 1.1260 0.3341
H146 H 0.2237 1.1372 0.3929
C98 C 0.3196(4) 1.0110(4) 0.2498(3)
H147 H 0.3431 0.9774 0.2450
C99 C 0.3215(4) 1.0128(4) 0.1479(4)
C100 C 0.2947(4) 1.0265(3) 0.1936(4)
C101 C 0.2441(4) 1.0552(4) 0.1896(4)
H148 H 0.2253 1.0656 0.2215
C102 C 0.2192(4) 1.0694(3) 0.1405(4)
C103 C 0.2482(5) 1.0524(4) 0.0950(4)
H149 H 0.2320 1.0605 0.0609
C104 C 0.2996(4) 1.0244(4) 0.0974(4)
C105 C 0.1631(5) 1.0992(5) 0.1350(5)
C106 C 0.1174(6) 1.0618(8) 0.1205(9)
H150 H 0.0801 1.0796 0.1251
H151 H 0.1197 1.0296 0.1435
H152 H 0.1215 1.0509 0.0831
C107 C 0.1438(6) 1.1234(6) 0.1858(6)
H153 H 0.1177 1.1537 0.1781
H154 H 0.1772 1.1366 0.2062
H155 H 0.1237 1.0958 0.2067
C108 C 0.1612(9) 1.1381(10) 0.0920(8)
H156 H 0.1722 1.1740 0.1057
H157 H 0.1222 1.1397 0.0769
H158 H 0.1881 1.1271 0.0642
C109 C 0.3287(4) 1.0090(4) 0.0459(4)
H159 H 0.3569 0.9799 0.0539
H160 H 0.3504 1.0409 0.0331
C110 C 0.2792(5) 0.9343(5) -0.0089(5)
C111 C 0.2893(4) 0.9894(5) 0.0002(4)
C112 C 0.2663(5) 1.0259(4) -0.0353(4)
H161 H 0.2746 1.0634 -0.0306
C113 C 0.2315(5) 1.0102(5) -0.0776(4)
C114 C 0.2251(5) 0.9537(5) -0.0859(4)
H162 H 0.2039 0.9417 -0.1163
C115 C 0.2480(5) 0.9155(5) -0.0520(5)
C116 C 0.2001(6) 1.0517(6) -0.1130(5)
C117 C 0.1394(9) 1.0481(9) -0.1032(10)
H163 H 0.1317 1.0598 -0.0665
H164 H 0.1266 1.0105 -0.1080
H165 H 0.1185 1.0716 -0.1284
C118 C 0.2136(12) 1.1071(9) -0.1015(10)
H166 H 0.2551 1.1127 -0.1043
H167 H 0.2014 1.1159 -0.0652
H168 H 0.1935 1.1308 -0.1271
C119 C 0.2141(12) 1.0459(10) -0.1690(6)
H169 H 0.2243 1.0081 -0.1763
H170 H 0.2468 1.0695 -0.1773
H171 H 0.1809 1.0563 -0.1911
C120 C 0.2367(5) 0.8556(4) -0.0639(4)
H172 H 0.2254 0.8515 -0.1019
H173 H 0.2726 0.8347 -0.0578
C121 C 0.1888(4) 0.7804(4) -0.0096(4)
C122 C 0.1903(5) 0.8333(4) -0.0293(4)
C123 C 0.1407(5) 0.8651(4) -0.0215(3)
H174 H 0.1390 0.9004 -0.0368
C124 C 0.0947(5) 0.8472(4) 0.0074(4)
C125 C 0.0981(4) 0.7942(4) 0.0274(3)
H175 H 0.0664 0.7804 0.0468
C126 C 0.1460(4) 0.7603(3) 0.0201(3)
C127 C 0.0433(5) 0.8817(5) 0.0178(6)
C128 C -0.0031(6) 0.8560(6) 0.0441(8)
H176 H -0.0185 0.8269 0.0214
H177 H -0.0333 0.8828 0.0509
H178 H 0.0106 0.8407 0.0781
C129 C 0.0216(7) 0.9088(7) -0.0337(7)
H179 H 0.0262 0.8837 -0.0637
H180 H 0.0438 0.9419 -0.0402
H181 H -0.0192 0.9180 -0.0301
C130 C 0.0669(8) 0.9304(7) 0.0543(9)
H182 H 0.0346 0.9525 0.0663
H183 H 0.0931 0.9530 0.0334
H184 H 0.0875 0.9155 0.0854
C131 C 0.1456(4) 0.7032(4) 0.0421(3)
H185 H 0.1864 0.6943 0.0517
C132 C 0.1386(4) 0.7051(3) 0.1428(4)
C133 C 0.1112(4) 0.6965(3) 0.0930(4)
C134 C 0.0534(4) 0.6837(3) 0.0918(4)
H186 H 0.0352 0.6776 0.0581
C135 C 0.0210(4) 0.6794(4) 0.1375(4)
C136 C 0.0495(4) 0.6858(4) 0.1869(4)
H187 H 0.0287 0.6813 0.2191
C137 C 0.1070(4) 0.6984(3) 0.1894(4)
C138 C -0.0433(4) 0.6668(5) 0.1346(5)
C139 C -0.0670(5) 0.6522(9) 0.1846(6)
H188 H -0.1058 0.6376 0.1789
H189 H -0.0688 0.6843 0.2076
H190 H -0.0427 0.6245 0.2017
C140 C -0.0726(6) 0.7145(8) 0.1092(12)
H191 H -0.1046 0.7018 0.0867
H192 H -0.0451 0.7343 0.0872
H193 H -0.0872 0.7386 0.1371
C141 C -0.0550(7) 0.6211(11) 0.0968(7)
H194 H -0.0230 0.5953 0.0983
H195 H -0.0592 0.6354 0.0604
H196 H -0.0906 0.6026 0.1070
C142 C 0.1359(4) 0.7086(3) 0.2446(3)
H197 H 0.1191 0.6836 0.2711
H198 H 0.1775 0.7003 0.2422
C143 C 0.1704(4) 0.7900(4) 0.2967(4)
C144 C 0.1286(4) 0.7671(3) 0.2641(3)
C145 C 0.0817(4) 0.7976(4) 0.2514(3)
H199 H 0.0529 0.7823 0.2287
C146 C 0.0740(4) 0.8504(4) 0.2703(4)
C147 C 0.1162(5) 0.8730(4) 0.3018(4)
H200 H 0.1124 0.9092 0.3145
C148 C 0.1644(4) 0.8428(4) 0.3151(3)
C149 C 0.0198(6) 0.8835(5) 0.2547(6)
C150 C -0.0275(7) 0.8497(6) 0.2221(10)
H201 H -0.0419 0.8201 0.2445
H202 H -0.0102 0.8345 0.1899
H203 H -0.0594 0.8737 0.2119
C151 C -0.0063(7) 0.9082(7) 0.3025(6)
H204 H 0.0181 0.9009 0.3339
H205 H -0.0445 0.8927 0.3079
H206 H -0.0096 0.9476 0.2973
C152 C 0.0385(8) 0.9265(8) 0.2165(8)
H207 H 0.0078 0.9331 0.1900
H208 H 0.0733 0.9145 0.1983
H209 H 0.0466 0.9601 0.2362
C153 C 0.2098(4) 0.8700(4) 0.3527(4)
H210 H 0.1964 0.8671 0.3900
H211 H 0.2463 0.8496 0.3502
C77? C 0.1955(11) 0.2805(11) 0.0516(9)
H105? H 0.1627 0.2601 0.0372
H106? H 0.1826 0.3162 0.0639
H107? H 0.2127 0.2605 0.0817
loop_
_geom_bond_atom_site_label_1
_geom_bond_atom_site_label_2
_geom_bond_site_symmetry_1
_geom_bond_site_symmetry_2
O1 C10 1_555 1_555
O2 C1 1_555 1_555
O3 C2 1_555 1_555
O4 C3 1_555 1_555
O5 C4 1_555 1_555
O6 C5 1_555 1_555
C1 H1 1_555 1_555
H2 C1 1_555 1_555
H3 C1 1_555 1_555
C2 H4 1_555 1_555
H5 C2 1_555 1_555
H6 C2 1_555 1_555
C3 H7 1_555 1_555
H8 C3 1_555 1_555
H9 C3 1_555 1_555
C4 H10 1_555 1_555
H11 C4 1_555 1_555
H12 C4 1_555 1_555
C5 H13 1_555 1_555
H14 C5 1_555 1_555
H15 C5 1_555 1_555
C6 H16 1_555 1_555
H17 C6 1_555 1_555
C7 C6 1_555 1_555
H18 C7 1_555 1_555
H19 C7 1_555 1_555
H20 C7 1_555 1_555
C8 H21 1_555 1_555
H22 C8 1_555 1_555
C9 C8 1_555 1_555
H23 C9 1_555 1_555
H24 C9 1_555 1_555
H25 C9 1_555 1_555
C10 C11 1_555 1_555
C11 C12 1_555 1_555
C12 H26 1_555 1_555
C13 C12 1_555 1_555
C14 C13 1_555 1_555
H27 C14 1_555 1_555
C15 C10 1_555 1_555
C16 C13 1_555 1_555
C17 C16 1_555 1_555
H28 C17 1_555 1_555
H29 C17 1_555 1_555
H30 C17 1_555 1_555
C18 C16 1_555 1_555
H31 C18 1_555 1_555
H32 C18 1_555 1_555
H33 C18 1_555 1_555
C19 C16 1_555 1_555
H34 C19 1_555 1_555
H35 C19 1_555 1_555
H36 C19 1_555 1_555
C20 C15 1_555 1_555
H37 C20 1_555 1_555
H38 C20 1_555 1_555
C21 O6 1_555 1_555
C22 C20 1_555 1_555
C23 C22 1_555 1_555
H39 C23 1_555 1_555
C24 C23 1_555 1_555
C25 C24 1_555 1_555
H40 C25 1_555 1_555
C26 C21 1_555 1_555
C27 C24 1_555 1_555
C28 C27 1_555 1_555
H41 C28 1_555 1_555
H42 C28 1_555 1_555
H43 C28 1_555 1_555
C29 C27 1_555 1_555
H44 C29 1_555 1_555
H45 C29 1_555 1_555
H46 C29 1_555 1_555
C30 C27 1_555 1_555
H47 C30 1_555 1_555
H48 C30 1_555 1_555
H49 C30 1_555 1_555
C31 C26 1_555 1_555
H50 C31 1_555 1_555
H51 C31 1_555 1_555
C32 O5 1_555 1_555
C33 C32 1_555 1_555
C34 C33 1_555 1_555
H52 C34 1_555 1_555
C35 C34 1_555 1_555
C36 C35 1_555 1_555
H53 C36 1_555 1_555
C37 C31 1_555 1_555
C38 C35 1_555 1_555
C39 C38 1_555 1_555
H54 C39 1_555 1_555
H55 C39 1_555 1_555
H56 C39 1_555 1_555
C40 C38 1_555 1_555
H57 C40 1_555 1_555
H58 C40 1_555 1_555
H59 C40 1_555 1_555
C41 C38 1_555 1_555
H60 C41 1_555 1_555
H61 C41 1_555 1_555
H62 C41 1_555 1_555
C42 C8 1_555 1_555
H63 C42 1_555 1_555
C43 O4 1_555 1_555
C44 C42 1_555 1_555
C45 C44 1_555 1_555
H64 C45 1_555 1_555
C46 C45 1_555 1_555
C47 C46 1_555 1_555
H65 C47 1_555 1_555
C48 C43 1_555 1_555
C49 C46 1_555 1_555
C50 C49 1_555 1_555
H66 C50 1_555 1_555
H67 C50 1_555 1_555
H68 C50 1_555 1_555
C51 C49 1_555 1_555
H69 C51 1_555 1_555
H70 C51 1_555 1_555
H71 C51 1_555 1_555
C52 C49 1_555 1_555
H72 C52 1_555 1_555
H73 C52 1_555 1_555
H74 C52 1_555 1_555
C53 C48 1_555 1_555
H75 C53 1_555 1_555
H76 C53 1_555 1_555
C54 O3 1_555 1_555
C55 C53 1_555 1_555
C56 C55 1_555 1_555
H77 C56 1_555 1_555
C57 C56 1_555 1_555
C58 C57 1_555 1_555
H78 C58 1_555 1_555
C59 C54 1_555 1_555
C60 C57 1_555 1_555
C61 C60 1_555 1_555
H79 C61 1_555 1_555
H80 C61 1_555 1_555
H81 C61 1_555 1_555
C62 C60 1_555 1_555
H82 C62 1_555 1_555
H83 C62 1_555 1_555
H84 C62 1_555 1_555
C63 C60 1_555 1_555
H85 C63 1_555 1_555
H86 C63 1_555 1_555
H87 C63 1_555 1_555
C64 C59 1_555 1_555
H88 C64 1_555 1_555
H89 C64 1_555 1_555
C65 O2 1_555 1_555
C66 C64 1_555 1_555
C67 C66 1_555 1_555
H90 C67 1_555 1_555
C68 C67 1_555 1_555
C69 C68 1_555 1_555
H91 C69 1_555 1_555
C70 C65 1_555 1_555
C71 C68 1_555 1_555
C72 C71 1_555 1_555
H92 C72 1_555 1_555
H93 C72 1_555 1_555
H94 C72 1_555 1_555
C73 C71 1_555 1_555
H95 C73 1_555 1_555
H96 C73 1_555 1_555
H97 C73 1_555 1_555
C74 C71 1_555 1_555
H98 C74 1_555 1_555
H99 C74 1_555 1_555
H100 C74 1_555 1_555
C75 C6 1_555 1_555
H101 C75 1_555 1_555
C76 O1 1_555 1_555
H102 C76 1_555 1_555
H103 C76 1_555 1_555
H104 C76 1_555 1_555
O7 C78 1_555 1_555
O8 C79 1_555 1_555
O9 C80 1_555 1_555
O10 C81 1_555 1_555
O11 C82 1_555 1_555
O12 C83 1_555 1_555
C78 H108 1_555 1_555
H109 C78 1_555 1_555
H110 C78 1_555 1_555
C79 H111 1_555 1_555
H112 C79 1_555 1_555
H113 C79 1_555 1_555
C80 H114 1_555 1_555
H115 C80 1_555 1_555
H116 C80 1_555 1_555
C81 H117 1_555 1_555
H118 C81 1_555 1_555
H119 C81 1_555 1_555
C82 H120 1_555 1_555
H121 C82 1_555 1_555
H122 C82 1_555 1_555
C83 H123 1_555 1_555
H124 C83 1_555 1_555
H125 C83 1_555 1_555
C84 H126 1_555 1_555
H127 C84 1_555 1_555
C85 C84 1_555 1_555
H128 C85 1_555 1_555
H129 C85 1_555 1_555
H130 C85 1_555 1_555
C86 H131 1_555 1_555
H132 C86 1_555 1_555
C87 C86 1_555 1_555
H133 C87 1_555 1_555
H134 C87 1_555 1_555
H135 C87 1_555 1_555
C88 O7 1_555 1_555
C89 C88 1_555 1_555
C90 C89 1_555 1_555
H136 C90 1_555 1_555
C91 C90 1_555 1_555
C92 C91 1_555 1_555
H137 C92 1_555 1_555
C93 C88 1_555 1_555
C94 C91 1_555 1_555
C95 C94 1_555 1_555
H138 C95 1_555 1_555
H139 C95 1_555 1_555
H140 C95 1_555 1_555
C96 C94 1_555 1_555
H141 C96 1_555 1_555
H142 C96 1_555 1_555
H143 C96 1_555 1_555
C97 C94 1_555 1_555
H144 C97 1_555 1_555
H145 C97 1_555 1_555
H146 C97 1_555 1_555
C98 C84 1_555 1_555
H147 C98 1_555 1_555
C99 O8 1_555 1_555
C100 C98 1_555 1_555
C101 C100 1_555 1_555
H148 C101 1_555 1_555
C102 C101 1_555 1_555
C103 C102 1_555 1_555
H149 C103 1_555 1_555
C104 C99 1_555 1_555
C105 C102 1_555 1_555
C106 C105 1_555 1_555
H150 C106 1_555 1_555
H151 C106 1_555 1_555
H152 C106 1_555 1_555
C107 C105 1_555 1_555
H153 C107 1_555 1_555
H154 C107 1_555 1_555
H155 C107 1_555 1_555
C108 C105 1_555 1_555
H156 C108 1_555 1_555
H157 C108 1_555 1_555
H158 C108 1_555 1_555
C109 C104 1_555 1_555
H159 C109 1_555 1_555
H160 C109 1_555 1_555
C110 O9 1_555 1_555
C111 C109 1_555 1_555
C112 C111 1_555 1_555
H161 C112 1_555 1_555
C113 C112 1_555 1_555
C114 C113 1_555 1_555
H162 C114 1_555 1_555
C115 C110 1_555 1_555
C116 C113 1_555 1_555
C117 C116 1_555 1_555
H163 C117 1_555 1_555
H164 C117 1_555 1_555
H165 C117 1_555 1_555
C118 C116 1_555 1_555
H166 C118 1_555 1_555
H167 C118 1_555 1_555
H168 C118 1_555 1_555
C119 C116 1_555 1_555
H169 C119 1_555 1_555
H170 C119 1_555 1_555
H171 C119 1_555 1_555
C120 C115 1_555 1_555
H172 C120 1_555 1_555
H173 C120 1_555 1_555
C121 O10 1_555 1_555
C122 C120 1_555 1_555
C123 C122 1_555 1_555
H174 C123 1_555 1_555
C124 C123 1_555 1_555
C125 C124 1_555 1_555
H175 C125 1_555 1_555
C126 C121 1_555 1_555
C127 C124 1_555 1_555
C128 C127 1_555 1_555
H176 C128 1_555 1_555
H177 C128 1_555 1_555
H178 C128 1_555 1_555
C129 C127 1_555 1_555
H179 C129 1_555 1_555
H180 C129 1_555 1_555
H181 C129 1_555 1_555
C130 C127 1_555 1_555
H182 C130 1_555 1_555
H183 C130 1_555 1_555
H184 C130 1_555 1_555
C131 C86 1_555 1_555
H185 C131 1_555 1_555
C132 O11 1_555 1_555
C133 C131 1_555 1_555
C134 C133 1_555 1_555
H186 C134 1_555 1_555
C135 C134 1_555 1_555
C136 C135 1_555 1_555
H187 C136 1_555 1_555
C137 C132 1_555 1_555
C138 C135 1_555 1_555
C139 C138 1_555 1_555
H188 C139 1_555 1_555
H189 C139 1_555 1_555
H190 C139 1_555 1_555
C140 C138 1_555 1_555
H191 C140 1_555 1_555
H192 C140 1_555 1_555
H193 C140 1_555 1_555
C141 C138 1_555 1_555
H194 C141 1_555 1_555
H195 C141 1_555 1_555
H196 C141 1_555 1_555
C142 C137 1_555 1_555
H197 C142 1_555 1_555
H198 C142 1_555 1_555
C143 O12 1_555 1_555
C144 C142 1_555 1_555
C145 C144 1_555 1_555
H199 C145 1_555 1_555
C146 C145 1_555 1_555
C147 C146 1_555 1_555
H200 C147 1_555 1_555
C148 C143 1_555 1_555
C149 C146 1_555 1_555
C150 C149 1_555 1_555
H201 C150 1_555 1_555
H202 C150 1_555 1_555
H203 C150 1_555 1_555
C151 C149 1_555 1_555
H204 C151 1_555 1_555
H205 C151 1_555 1_555
H206 C151 1_555 1_555
C152 C149 1_555 1_555
H207 C152 1_555 1_555
H208 C152 1_555 1_555
H209 C152 1_555 1_555
C153 C89 1_555 1_555
H210 C153 1_555 1_555
H211 C153 1_555 1_555
C11 C75 1_555 1_555
C14 C15 1_555 1_555
C21 C22 1_555 1_555
C25 C26 1_555 1_555
C32 C37 1_555 1_555
C33 C42 1_555 1_555
C36 C37 1_555 1_555
C43 C44 1_555 1_555
C47 C48 1_555 1_555
C54 C55 1_555 1_555
C58 C59 1_555 1_555
C65 C66 1_555 1_555
C69 C70 1_555 1_555
C70 C75 1_555 1_555
C92 C93 1_555 1_555
C93 C98 1_555 1_555
C99 C100 1_555 1_555
C103 C104 1_555 1_555
C110 C111 1_555 1_555
C114 C115 1_555 1_555
C121 C122 1_555 1_555
C125 C126 1_555 1_555
C126 C131 1_555 1_555
C132 C133 1_555 1_555
C136 C137 1_555 1_555
C143 C144 1_555 1_555
C147 C148 1_555 1_555
C148 C153 1_555 1_555

#END
