
#######################################################################
#
#                 Cambridge Crystallographic Data Centre
#                                CCDC 
#
#######################################################################
#
# If this CIF has been generated from an entry in the Cambridge 
# Structural Database, then it will include bibliographic, chemical, 
# crystal, experimental, refinement or atomic coordinate data resulting 
# from the CCDC's data processing and validation procedures.
#
#######################################################################

data_HOVTIX
_chemical_formula_moiety         'C19 H16 F1 N5 O1 S1'
_chemical_name_systematic        
5-(4-fluorophenyl)-6-methoxy-3-(methylsulfanyl)-1-phenyl-1,5-dihydro-4H-pyrazolo[3,4-d]pyrimidin-4-imine
_symmetry_cell_setting           triclinic
_symmetry_space_group_name_H-M   'P -1'
_symmetry_Int_Tables_number      2
_space_group_name_Hall           '-P 1'
loop_
_symmetry_equiv_pos_site_id
_symmetry_equiv_pos_as_xyz
1 x,y,z
2 -x,-y,-z
_cell_length_a                   10.0942(9)
_cell_length_b                   11.4047(11)
_cell_length_c                   17.1200(16)
_cell_angle_alpha                108.2430(10)
_cell_angle_beta                 95.5870(10)
_cell_angle_gamma                98.5010(10)
_cell_volume                     1829.48
_exptl_crystal_colour            colorless
_exptl_crystal_description       needle
_cell_formula_units_Z            4
loop_
_atom_site_label
_atom_site_type_symbol
_atom_site_fract_x
_atom_site_fract_y
_atom_site_fract_z
S1 S 0.73949(7) 0.21326(6) 0.43355(4)
O1 O 0.52516(18) 0.03450(15) 0.74944(10)
F1 F 0.32593(17) 0.47391(14) 0.91957(9)
C1 C 0.7235(2) 0.1004(2) 0.48299(13)
C2 C 0.6622(2) 0.1104(2) 0.55503(12)
C3 C 0.6084(2) 0.2075(2) 0.61184(13)
C4 C 0.5740(2) 0.0517(2) 0.68325(13)
C5 C 0.6685(2) -0.0005(2) 0.57003(13)
C6 C 0.7656(3) -0.1910(2) 0.49974(13)
C7 C 0.6817(3) -0.2819(2) 0.51902(15)
H1 H 0.6018 -0.2657 0.5395
C8 C 0.7190(3) -0.3976(2) 0.50722(17)
H2 H 0.6642 -0.4593 0.5206
C9 C 0.8358(4) -0.4220(3) 0.47601(18)
H3 H 0.8594 -0.5002 0.4680
C10 C 0.9175(3) -0.3321(3) 0.45667(17)
H4 H 0.9959 -0.3497 0.4349
C11 C 0.8841(3) -0.2145(2) 0.46937(14)
H5 H 0.9409 -0.1523 0.4576
C12 C 0.5003(2) 0.2506(2) 0.73942(13)
C13 C 0.3669(2) 0.2597(2) 0.72271(13)
H6 H 0.3165 0.2140 0.6708
C14 C 0.3080(3) 0.3372(2) 0.78368(15)
H7 H 0.2182 0.3455 0.7734
C15 C 0.3854(3) 0.4009(2) 0.85897(15)
C16 C 0.5174(3) 0.3943(2) 0.87700(15)
H8 H 0.5671 0.4403 0.9291
C17 C 0.5764(3) 0.3176(2) 0.81588(14)
H9 H 0.6668 0.3114 0.8265
C18 C 0.8298(3) 0.1411(3) 0.35174(16)
H10 H 0.8457 0.1942 0.3185
H11 H 0.7771 0.0610 0.3175
H12 H 0.9150 0.1295 0.3755
C19 C 0.5374(3) -0.0831(2) 0.76215(15)
H13 H 0.4999 -0.0863 0.8110
H14 H 0.6313 -0.0894 0.7691
H15 H 0.4890 -0.1517 0.7147
N1 N 0.7653(2) -0.00791(17) 0.45549(10)
N2 N 0.73033(19) -0.07087(16) 0.50991(10)
N3 N 0.55992(19) 0.16631(17) 0.67673(11)
N4 N 0.62654(19) -0.03388(17) 0.63447(11)
N5 N 0.6067(2) 0.31419(19) 0.60445(12)
H16 H 0.573(3) 0.359(2) 0.6422(15)
S2 S 0.07289(7) -0.20739(6) 1.19780(4)
O2 O 0.29561(17) -0.00476(14) 0.89275(9)
F2 F 0.50048(19) -0.44168(15) 0.71899(11)
C20 C 0.1005(2) -0.0867(2) 1.15597(13)
C21 C 0.1516(2) -0.0950(2) 1.08069(13)
C22 C 0.2005(2) -0.1916(2) 1.02049(13)
C23 C 0.2458(2) -0.0255(2) 0.95726(13)
C24 C 0.1565(2) 0.0218(2) 1.07349(13)
C25 C 0.1141(2) 0.2272(2) 1.16913(14)
C26 C 0.0982(2) 0.2903(2) 1.11227(15)
H17 H 0.0837 0.2471 1.0553
C27 C 0.1043(3) 0.4190(2) 1.14250(17)
H18 H 0.0939 0.4626 1.1053
C28 C 0.1254(3) 0.4828(2) 1.22585(18)
H19 H 0.1296 0.5693 1.2451
C29 C 0.1404(3) 0.4193(2) 1.28143(17)
H20 H 0.1543 0.4631 1.3383
C30 C 0.1350(3) 0.2910(2) 1.25373(14)
H21 H 0.1452 0.2482 1.2914
C31 C 0.3139(2) -0.2265(2) 0.89507(14)
C32 C 0.4488(3) -0.2300(2) 0.91309(16)
H22 H 0.4970 -0.1827 0.9654
C33 C 0.5127(3) -0.3034(3) 0.85372(19)
H23 H 0.6040 -0.3060 0.8650
C34 C 0.4384(3) -0.3714(2) 0.77854(19)
C35 C 0.3041(3) -0.3715(2) 0.75921(15)
H24 H 0.2565 -0.4198 0.7069
C36 C 0.2403(3) -0.2984(2) 0.81867(14)
H25 H 0.1485 -0.2977 0.8073
C37 C 0.0263(3) -0.1253(2) 1.29538(14)
H26 H 0.0077 -0.1822 1.3258
H27 H -0.0533 -0.0918 1.2858
H28 H 0.0993 -0.0578 1.3269
C38 C 0.2848(3) 0.1135(2) 0.88120(14)
H29 H 0.3237 0.1179 0.8330
H30 H 0.3324 0.1812 0.9293
H31 H 0.1910 0.1201 0.8736
N6 N 0.07581(19) 0.02716(17) 1.19300(11)
N7 N 0.10983(19) 0.09462(17) 1.14073(11)
N8 N 0.20100(19) 0.06072(17) 1.01101(11)
N9 N 0.25064(19) -0.14551(17) 0.95764(10)
N10 N 0.1993(2) -0.30118(19) 1.02346(12)
H32 H 0.229(3) -0.346(2) 0.9817(15)
loop_
_geom_bond_atom_site_label_1
_geom_bond_atom_site_label_2
_geom_bond_site_symmetry_1
_geom_bond_site_symmetry_2
S1 C1 1_555 1_555
O1 C4 1_555 1_555
F1 C15 1_555 1_555
C1 C2 1_555 1_555
C2 C3 1_555 1_555
C3 N3 1_555 1_555
C4 N3 1_555 1_555
C5 C2 1_555 1_555
C6 C7 1_555 1_555
C7 H1 1_555 1_555
C8 C7 1_555 1_555
H2 C8 1_555 1_555
C9 C8 1_555 1_555
H3 C9 1_555 1_555
C10 C9 1_555 1_555
H4 C10 1_555 1_555
C11 C6 1_555 1_555
H5 C11 1_555 1_555
C12 C13 1_555 1_555
C13 H6 1_555 1_555
C14 C13 1_555 1_555
H7 C14 1_555 1_555
C15 C14 1_555 1_555
C16 C15 1_555 1_555
H8 C16 1_555 1_555
C17 C12 1_555 1_555
H9 C17 1_555 1_555
C18 S1 1_555 1_555
H10 C18 1_555 1_555
H11 C18 1_555 1_555
H12 C18 1_555 1_555
C19 O1 1_555 1_555
H13 C19 1_555 1_555
H14 C19 1_555 1_555
H15 C19 1_555 1_555
N1 C1 1_555 1_555
N2 C5 1_555 1_555
N3 C12 1_555 1_555
N4 C4 1_555 1_555
N5 C3 1_555 1_555
H16 N5 1_555 1_555
S2 C20 1_555 1_555
O2 C23 1_555 1_555
F2 C34 1_555 1_555
C20 C21 1_555 1_555
C21 C22 1_555 1_555
C22 N9 1_555 1_555
C23 N8 1_555 1_555
C24 C21 1_555 1_555
C25 C26 1_555 1_555
C26 H17 1_555 1_555
C27 C26 1_555 1_555
H18 C27 1_555 1_555
C28 C27 1_555 1_555
H19 C28 1_555 1_555
C29 C28 1_555 1_555
H20 C29 1_555 1_555
C30 C25 1_555 1_555
H21 C30 1_555 1_555
C31 C32 1_555 1_555
C32 H22 1_555 1_555
C33 C32 1_555 1_555
H23 C33 1_555 1_555
C34 C33 1_555 1_555
C35 C34 1_555 1_555
H24 C35 1_555 1_555
C36 C31 1_555 1_555
H25 C36 1_555 1_555
C37 S2 1_555 1_555
H26 C37 1_555 1_555
H27 C37 1_555 1_555
H28 C37 1_555 1_555
C38 O2 1_555 1_555
H29 C38 1_555 1_555
H30 C38 1_555 1_555
H31 C38 1_555 1_555
N6 C20 1_555 1_555
N7 C24 1_555 1_555
N8 C24 1_555 1_555
N9 C23 1_555 1_555
N10 C22 1_555 1_555
H32 N10 1_555 1_555
C5 N4 1_555 1_555
C6 N2 1_555 1_555
C10 C11 1_555 1_555
C16 C17 1_555 1_555
N1 N2 1_555 1_555
C25 N7 1_555 1_555
C29 C30 1_555 1_555
C31 N9 1_555 1_555
C35 C36 1_555 1_555
N6 N7 1_555 1_555

#END
