
#######################################################################
#
#                 Cambridge Crystallographic Data Centre
#                                CCDC 
#
#######################################################################
#
# If this CIF has been generated from an entry in the Cambridge 
# Structural Database, then it will include bibliographic, chemical, 
# crystal, experimental, refinement or atomic coordinate data resulting 
# from the CCDC's data processing and validation procedures.
#
#######################################################################

data_HOWCUT
_chemical_name_common            
'methyl 2-(1-methyl-2-oxoindolin-3-ylidene)acetate'
_chemical_formula_moiety         'C12 H11 N1 O3'
_chemical_name_systematic        
'methyl (1-methyl-2-oxo-1,2-dihydro-3H-indol-3-ylidene)acetate'
_symmetry_cell_setting           monoclinic
_symmetry_space_group_name_H-M   'P 21/n'
_symmetry_Int_Tables_number      14
_space_group_name_Hall           '-P 2yn'
loop_
_symmetry_equiv_pos_site_id
_symmetry_equiv_pos_as_xyz
1 x,y,z
2 1/2-x,1/2+y,1/2-z
3 -x,-y,-z
4 1/2+x,1/2-y,1/2+z
_cell_length_a                   11.6814(7)
_cell_length_b                   5.6106(4)
_cell_length_c                   16.5299(11)
_cell_angle_alpha                90
_cell_angle_beta                 108.713(2)
_cell_angle_gamma                90
_cell_volume                     1026.09
_exptl_crystal_colour            colorless
_exptl_crystal_description       block
_cell_formula_units_Z            4
loop_
_atom_site_label
_atom_site_type_symbol
_atom_site_fract_x
_atom_site_fract_y
_atom_site_fract_z
O1 O 0.65902(9) -0.46212(19) 0.54283(6)
O2 O 0.80169(10) -0.1929(2) 0.54829(8)
O3 O 0.39479(9) 0.0890(2) 0.33278(7)
N1 N 0.53182(11) 0.3529(2) 0.31063(8)
C1 C 0.74710(16) -0.5928(3) 0.60928(11)
H1 H 0.7104 -0.7341 0.6227
H2 H 0.7760 -0.4949 0.6593
H3 H 0.8135 -0.6366 0.5901
C2 C 0.69963(13) -0.2616(3) 0.51875(9)
C3 C 0.60129(13) -0.1379(3) 0.45343(9)
H4 H 0.5236 -0.1964 0.4439
C4 C 0.61193(12) 0.0491(3) 0.40656(9)
C5 C 0.49776(13) 0.1589(3) 0.34670(9)
C6 C 0.65784(13) 0.3756(3) 0.33871(9)
C7 C 0.71103(13) 0.1927(3) 0.39651(9)
C8 C 0.83571(14) 0.1806(3) 0.42921(10)
H5 H 0.8729 0.0592 0.4667
C9 C 0.90449(15) 0.3510(3) 0.40554(11)
H6 H 0.9884 0.3436 0.4272
C10 C 0.84974(16) 0.5317(3) 0.35007(11)
H7 H 0.8975 0.6462 0.3358
C11 C 0.72544(15) 0.5465(3) 0.31528(10)
H8 H 0.6889 0.6676 0.2774
C12 C 0.44906(15) 0.5083(3) 0.24895(11)
H9 H 0.4669 0.5039 0.1962
H10 H 0.4579 0.6684 0.2706
H11 H 0.3676 0.4554 0.2393
loop_
_geom_bond_atom_site_label_1
_geom_bond_atom_site_label_2
_geom_bond_site_symmetry_1
_geom_bond_site_symmetry_2
O1 C1 1_555 1_555
O2 C2 1_555 1_555
O3 C5 1_555 1_555
N1 C5 1_555 1_555
C1 H1 1_555 1_555
H2 C1 1_555 1_555
H3 C1 1_555 1_555
C2 O1 1_555 1_555
C3 C2 1_555 1_555
H4 C3 1_555 1_555
C4 C3 1_555 1_555
C5 C4 1_555 1_555
C6 N1 1_555 1_555
C7 C4 1_555 1_555
C8 C7 1_555 1_555
H5 C8 1_555 1_555
C9 C8 1_555 1_555
H6 C9 1_555 1_555
C10 C9 1_555 1_555
H7 C10 1_555 1_555
C11 C6 1_555 1_555
H8 C11 1_555 1_555
C12 N1 1_555 1_555
H9 C12 1_555 1_555
H10 C12 1_555 1_555
H11 C12 1_555 1_555
C6 C7 1_555 1_555
C10 C11 1_555 1_555

#END
