
#######################################################################
#
#                 Cambridge Crystallographic Data Centre
#                                CCDC 
#
#######################################################################
#
# If this CIF has been generated from an entry in the Cambridge 
# Structural Database, then it will include bibliographic, chemical, 
# crystal, experimental, refinement or atomic coordinate data resulting 
# from the CCDC's data processing and validation procedures.
#
#######################################################################

data_HOWFIK
_chemical_formula_moiety         'C45 H28 N4,2(C1 H4 O1),2.5(H2 O1)'
_chemical_name_systematic        
"4,4',4'',4'''-(9,9'-spirobi[fluorene]-2,2',7,7'-tetrayl)tetrapyridine methanol solvate hydrate"
_symmetry_cell_setting           triclinic
_symmetry_space_group_name_H-M   'P -1'
_symmetry_Int_Tables_number      2
_space_group_name_Hall           '-P 1'
loop_
_symmetry_equiv_pos_site_id
_symmetry_equiv_pos_as_xyz
1 x,y,z
2 -x,-y,-z
_cell_length_a                   14.285(9)
_cell_length_b                   15.991(10)
_cell_length_c                   20.393(12)
_cell_angle_alpha                69.009(9)
_cell_angle_beta                 71.138(8)
_cell_angle_gamma                88.044(9)
_cell_volume                     4098.08
_exptl_crystal_colour            colorless
_exptl_crystal_description       block
_cell_formula_units_Z            4
loop_
_atom_site_label
_atom_site_type_symbol
_atom_site_fract_x
_atom_site_fract_y
_atom_site_fract_z
O1 O 0.8038 0.1017 0.9011
C1 C 0.8930 0.0777 0.9469
O2 O 0.7499 0.1890 0.8801
C2 C 0.6707 0.1489 0.8497
O3 O 0.7100 -0.1971 1.0764
C3 C 0.6053 -0.1940 1.0636
O4 O 0.6959 -0.2586 1.1694
O5 O 0.8472 0.2292 0.0756
O6 O 0.8237 0.3510 -0.0255
C4 C 0.8915 0.3059 0.0150
O7 O 0.9739 0.3300 0.0011
O8 O 0.8476 0.0815 0.1747
O9 O 0.8985 0.1637 0.1277
N1 N 0.9807 0.6671 0.2122
N2 N 0.7798 -0.2356 0.8714
N3 N 0.7232 0.5825 0.7703
N4 N 0.7364 -0.0918 0.3873
C5 C 1.0038 0.6733 0.2685
H1 H 1.0264 0.7297 0.2639
C6 C 0.9965 0.6018 0.3336
H2 H 1.0132 0.6109 0.3711
C7 C 0.9480 0.5847 0.2213
H3 H 0.9302 0.5785 0.1832
C8 C 0.9389 0.5074 0.2841
H4 H 0.9167 0.4518 0.2870
C9 C 0.9640 0.5157 0.3428
C10 C 0.9615 0.4370 0.4094
C11 C 1.0441 0.4208 0.4319
H5 H 1.1008 0.4608 0.4048
C12 C 1.0452 0.3471 0.4934
H6 H 1.1027 0.3363 0.5059
C13 C 0.8748 0.3771 0.4523
H7 H 0.8186 0.3855 0.4378
C14 C 0.8741 0.3056 0.5163
C15 C 0.9600 0.2898 0.5358
C16 C 0.9391 0.2071 0.6032
C17 C 1.0006 0.1596 0.6420
H8 H 1.0653 0.1828 0.6300
C18 C 0.9633 0.0774 0.6986
H9 H 1.0043 0.0459 0.7246
C19 C 0.8662 0.0393 0.7186
C20 C 0.8332 -0.0539 0.7726
C21 C 0.8661 -0.0922 0.8334
H10 H 0.9077 -0.0578 0.8427
C22 C 0.8367 -0.1826 0.8805
H11 H 0.8596 -0.2058 0.9207
C23 C 0.7490 -0.1986 0.8128
H12 H 0.7085 -0.2352 0.8045
C24 C 0.7726 -0.1099 0.7632
H13 H 0.7474 -0.0888 0.7241
C25 C 0.8049 0.0910 0.6802
H14 H 0.7395 0.0690 0.6928
C26 C 0.8407 0.1731 0.6246
C27 C 0.7866 0.2391 0.5764
C28 C 0.7125 0.2891 0.6187
C29 C 0.7336 0.3465 0.6506
H15 H 0.7977 0.3562 0.6499
C30 C 0.6556 0.3896 0.6838
C31 C 0.6768 0.4549 0.7164
C32 C 0.7451 0.4420 0.7536
H16 H 0.7779 0.3900 0.7613
C33 C 0.7642 0.5058 0.7789
H17 H 0.8098 0.4942 0.8042
C34 C 0.6581 0.5948 0.7351
H18 H 0.6279 0.6482 0.7279
C35 C 0.6314 0.5359 0.7084
H19 H 0.5836 0.5490 0.6851
C36 C 0.5606 0.3722 0.6840
H20 H 0.5090 0.4003 0.7067
C37 C 0.5391 0.3157 0.6524
H21 H 0.4748 0.3056 0.6535
C38 C 0.6173 0.2740 0.6187
C39 C 0.6200 0.2131 0.5780
C40 C 0.5472 0.1758 0.5629
H22 H 0.4818 0.1889 0.5794
C41 C 0.5706 0.1199 0.5240
H23 H 0.5212 0.0969 0.5130
C42 C 0.6685 0.0964 0.5000
C43 C 0.6930 0.0323 0.4604
C44 C 0.6626 0.0396 0.4008
H24 H 0.6260 0.0867 0.3837
C45 C 0.6860 -0.0212 0.3670
H25 H 0.6651 -0.0129 0.3266
C46 C 0.7648 -0.1005 0.4457
H26 H 0.7988 -0.1499 0.4625
C47 C 0.7473 -0.0415 0.4825
H27 H 0.7712 -0.0502 0.5216
C48 C 0.7432 0.1333 0.5153
H28 H 0.8080 0.1180 0.5006
C49 C 0.7200 0.1921 0.5521
N5 N 0.7558 0.6732 0.4437
N6 N 0.5390 -0.0256 0.1401
N7 N 0.4303 0.6575 -0.0284
N8 N 1.0772 0.1071 0.4195
C50 C 0.7232 0.5884 0.4927
H29 H 0.7283 0.5729 0.5398
C51 C 0.6837 0.5248 0.4779
H30 H 0.6601 0.4685 0.5152
C52 C 0.7514 0.6913 0.3745
H31 H 0.7754 0.7484 0.3388
C53 C 0.7140 0.6310 0.3542
H32 H 0.7119 0.6473 0.3062
C54 C 0.6778 0.5424 0.4074
C55 C 0.6358 0.4733 0.3893
C56 C 0.5526 0.4156 0.4404
H33 H 0.5215 0.4229 0.4855
C57 C 0.5143 0.3478 0.4265
H34 H 0.4569 0.3118 0.4608
C58 C 0.6817 0.4606 0.3209
H35 H 0.7357 0.4996 0.2845
C59 C 0.6464 0.3908 0.3086
C60 C 0.5625 0.3342 0.3610
C61 C 0.5425 0.2669 0.3325
C62 C 0.4651 0.1992 0.3619
H36 H 0.4151 0.1908 0.4069
C63 C 0.4649 0.1446 0.3220
H37 H 0.4139 0.0988 0.3415
C64 C 0.5393 0.1558 0.2530
C65 C 0.5381 0.0943 0.2144
C66 C 0.5000 0.0046 0.2525
H38 H 0.4739 -0.0176 0.3042
C67 C 0.5003 -0.0511 0.2153
H39 H 0.4724 -0.1101 0.2430
C68 C 0.5736 0.0606 0.1049
H40 H 0.5991 0.0821 0.0531
C69 C 0.5746 0.1214 0.1396
H41 H 0.6006 0.1808 0.1110
C70 C 0.6148 0.2253 0.2246
H42 H 0.6641 0.2352 0.1790
C71 C 0.6169 0.2797 0.2643
C72 C 0.6911 0.3599 0.2424
C73 C 0.7020 0.4337 0.1663
C74 C 0.6280 0.4737 0.1391
H43 H 0.5616 0.4570 0.1684
C75 C 0.6539 0.5404 0.0659
C76 C 0.5781 0.5809 0.0338
C77 C 0.4870 0.5977 0.0771
H44 H 0.4728 0.5835 0.1278
C78 C 0.4176 0.6358 0.0432
H45 H 0.3577 0.6470 0.0731
C79 C 0.5153 0.6404 -0.0688
H46 H 0.5257 0.6541 -0.1191
C80 C 0.5922 0.6025 -0.0413
H47 H 0.6511 0.5923 -0.0729
C81 C 0.7545 0.5676 0.0257
H48 H 0.7727 0.6134 -0.0210
C82 C 0.8286 0.5272 0.0545
H49 H 0.8953 0.5456 0.0269
C83 C 0.8017 0.4597 0.1241
C84 C 0.8623 0.4032 0.1658
C85 C 0.9646 0.4026 0.1490
H50 H 1.0067 0.4428 0.1039
C86 C 1.0039 0.3429 0.1984
H51 H 1.0725 0.3431 0.1865
C87 C 0.9425 0.2822 0.2659
C88 C 0.9880 0.2199 0.3205
C89 C 1.0634 0.2527 0.3355
H52 H 1.0863 0.3133 0.3124
C90 C 1.1044 0.1952 0.3849
H53 H 1.1543 0.2191 0.3948
C91 C 1.0045 0.0752 0.4048
H54 H 0.9840 0.0141 0.4283
C92 C 0.9578 0.1279 0.3566
H55 H 0.9071 0.1025 0.3483
C93 C 0.8381 0.2808 0.2839
H56 H 0.7963 0.2399 0.3286
C94 C 0.7994 0.3412 0.2339
loop_
_geom_bond_atom_site_label_1
_geom_bond_atom_site_label_2
_geom_bond_site_symmetry_1
_geom_bond_site_symmetry_2
O1 C1 1_555 1_555
O2 C2 1_555 1_555
O3 C3 1_555 1_555
O6 C4 1_555 1_555
N1 C5 1_555 1_555
N2 C22 1_555 1_555
N3 C33 1_555 1_555
N4 C45 1_555 1_555
C5 H1 1_555 1_555
C6 C5 1_555 1_555
H2 C6 1_555 1_555
C7 N1 1_555 1_555
H3 C7 1_555 1_555
C8 C7 1_555 1_555
H4 C8 1_555 1_555
C9 C6 1_555 1_555
C10 C9 1_555 1_555
C11 C10 1_555 1_555
H5 C11 1_555 1_555
C12 C11 1_555 1_555
H6 C12 1_555 1_555
C13 C10 1_555 1_555
H7 C13 1_555 1_555
C14 C13 1_555 1_555
C15 C12 1_555 1_555
C16 C15 1_555 1_555
C17 C16 1_555 1_555
H8 C17 1_555 1_555
C18 C17 1_555 1_555
H9 C18 1_555 1_555
C19 C18 1_555 1_555
C20 C19 1_555 1_555
C21 C20 1_555 1_555
H10 C21 1_555 1_555
C22 C21 1_555 1_555
H11 C22 1_555 1_555
C23 N2 1_555 1_555
H12 C23 1_555 1_555
C24 C20 1_555 1_555
H13 C24 1_555 1_555
C25 C19 1_555 1_555
H14 C25 1_555 1_555
C26 C16 1_555 1_555
C27 C14 1_555 1_555
C28 C27 1_555 1_555
C29 C28 1_555 1_555
H15 C29 1_555 1_555
C30 C29 1_555 1_555
C31 C30 1_555 1_555
C32 C31 1_555 1_555
H16 C32 1_555 1_555
C33 C32 1_555 1_555
H17 C33 1_555 1_555
C34 N3 1_555 1_555
H18 C34 1_555 1_555
C35 C31 1_555 1_555
H19 C35 1_555 1_555
C36 C30 1_555 1_555
H20 C36 1_555 1_555
C37 C36 1_555 1_555
H21 C37 1_555 1_555
C38 C28 1_555 1_555
C39 C38 1_555 1_555
C40 C39 1_555 1_555
H22 C40 1_555 1_555
C41 C40 1_555 1_555
H23 C41 1_555 1_555
C42 C41 1_555 1_555
C43 C42 1_555 1_555
C44 C43 1_555 1_555
H24 C44 1_555 1_555
C45 C44 1_555 1_555
H25 C45 1_555 1_555
C46 N4 1_555 1_555
H26 C46 1_555 1_555
C47 C43 1_555 1_555
H27 C47 1_555 1_555
C48 C42 1_555 1_555
H28 C48 1_555 1_555
C49 C27 1_555 1_555
N5 C50 1_555 1_555
N6 C67 1_555 1_555
N7 C78 1_555 1_555
N8 C90 1_555 1_555
C50 H29 1_555 1_555
C51 C50 1_555 1_555
H30 C51 1_555 1_555
C52 N5 1_555 1_555
H31 C52 1_555 1_555
C53 C52 1_555 1_555
H32 C53 1_555 1_555
C54 C51 1_555 1_555
C55 C54 1_555 1_555
C56 C55 1_555 1_555
H33 C56 1_555 1_555
C57 C56 1_555 1_555
H34 C57 1_555 1_555
C58 C55 1_555 1_555
H35 C58 1_555 1_555
C59 C58 1_555 1_555
C60 C57 1_555 1_555
C61 C60 1_555 1_555
C62 C61 1_555 1_555
H36 C62 1_555 1_555
C63 C62 1_555 1_555
H37 C63 1_555 1_555
C64 C63 1_555 1_555
C65 C64 1_555 1_555
C66 C65 1_555 1_555
H38 C66 1_555 1_555
C67 C66 1_555 1_555
H39 C67 1_555 1_555
C68 N6 1_555 1_555
H40 C68 1_555 1_555
C69 C65 1_555 1_555
H41 C69 1_555 1_555
C70 C64 1_555 1_555
H42 C70 1_555 1_555
C71 C61 1_555 1_555
C72 C59 1_555 1_555
C73 C72 1_555 1_555
C74 C73 1_555 1_555
H43 C74 1_555 1_555
C75 C74 1_555 1_555
C76 C75 1_555 1_555
C77 C76 1_555 1_555
H44 C77 1_555 1_555
C78 C77 1_555 1_555
H45 C78 1_555 1_555
C79 N7 1_555 1_555
H46 C79 1_555 1_555
C80 C76 1_555 1_555
H47 C80 1_555 1_555
C81 C75 1_555 1_555
H48 C81 1_555 1_555
C82 C81 1_555 1_555
H49 C82 1_555 1_555
C83 C73 1_555 1_555
C84 C83 1_555 1_555
C85 C84 1_555 1_555
H50 C85 1_555 1_555
C86 C85 1_555 1_555
H51 C86 1_555 1_555
C87 C86 1_555 1_555
C88 C87 1_555 1_555
C89 C88 1_555 1_555
H52 C89 1_555 1_555
C90 C89 1_555 1_555
H53 C90 1_555 1_555
C91 N8 1_555 1_555
H54 C91 1_555 1_555
C92 C88 1_555 1_555
H55 C92 1_555 1_555
C93 C87 1_555 1_555
H56 C93 1_555 1_555
C94 C72 1_555 1_555
C8 C9 1_555 1_555
C14 C15 1_555 1_555
C23 C24 1_555 1_555
C25 C26 1_555 1_555
C26 C27 1_555 1_555
C34 C35 1_555 1_555
C37 C38 1_555 1_555
C39 C49 1_555 1_555
C46 C47 1_555 1_555
C48 C49 1_555 1_555
C53 C54 1_555 1_555
C59 C60 1_555 1_555
C68 C69 1_555 1_555
C70 C71 1_555 1_555
C71 C72 1_555 1_555
C79 C80 1_555 1_555
C82 C83 1_555 1_555
C84 C94 1_555 1_555
C91 C92 1_555 1_555
C93 C94 1_555 1_555

#END
