
#######################################################################
#
#                 Cambridge Crystallographic Data Centre
#                                CCDC 
#
#######################################################################
#
# If this CIF has been generated from an entry in the Cambridge 
# Structural Database, then it will include bibliographic, chemical, 
# crystal, experimental, refinement or atomic coordinate data resulting 
# from the CCDC's data processing and validation procedures.
#
#######################################################################

data_HOWMUC
_chemical_formula_moiety         'C20 H26 N1 O1 1+,Br1 1-'
_chemical_name_systematic        
'[N(R)]-N-Allyl-N-benzyl-N-[(1S)-1-(hydroxymethyl)-2-phenylethyl]-N-methylammonium bromide'
_symmetry_cell_setting           orthorhombic
_symmetry_space_group_name_H-M   'P 21 21 21'
_symmetry_Int_Tables_number      19
_space_group_name_Hall           'P 2ac 2ab'
loop_
_symmetry_equiv_pos_site_id
_symmetry_equiv_pos_as_xyz
1 x,y,z
2 1/2-x,-y,1/2+z
3 1/2+x,1/2-y,-z
4 -x,1/2+y,1/2-z
_cell_length_a                   9.6683(18)
_cell_length_b                   13.6013(13)
_cell_length_c                   14.616(3)
_cell_angle_alpha                90
_cell_angle_beta                 90
_cell_angle_gamma                90
_cell_volume                     1922.03
_exptl_crystal_colour            colorless
_exptl_crystal_description       block
_chemical_melting_point          '171-172 deg.C'
_cell_formula_units_Z            4
_exptl_crystal_recrystallization_method acetone
loop_
_atom_site_label
_atom_site_type_symbol
_atom_site_fract_x
_atom_site_fract_y
_atom_site_fract_z
Br1 Br 0.65574(12) 0.99238(7) 0.61449(6)
O1 O 0.2132(9) 0.7086(6) 0.5020(5)
H1 H 0.2048 0.6538 0.4792
N1 N 0.3115(7) 0.7585(5) 0.6932(5)
C1 C 0.0719(10) 0.7430(7) 0.8630(7)
H2 H 0.1266 0.6919 0.8847
C2 C -0.0136(13) 0.7944(10) 0.9218(8)
H3 H -0.0151 0.7780 0.9836
C3 C -0.0936(12) 0.8666(10) 0.8914(9)
H4 H -0.1501 0.8996 0.9327
C4 C -0.0959(13) 0.8954(9) 0.7986(9)
H5 H -0.1522 0.9462 0.7781
C5 C -0.0116(13) 0.8448(8) 0.7407(7)
H6 H -0.0112 0.8612 0.6789
C6 C 0.0752(10) 0.7684(7) 0.7715(7)
C7 C 0.1670(10) 0.7145(6) 0.7056(6)
H7 H 0.1216 0.7127 0.6464
H8 H 0.1768 0.6471 0.7264
C8 C 0.3006(11) 0.8642(6) 0.6655(6)
H9 H 0.2405 0.8698 0.6136
H10 H 0.3907 0.8886 0.6499
H11 H 0.2637 0.9018 0.7154
C9 C 0.3861(10) 0.7543(7) 0.7862(7)
H12 H 0.3404 0.7994 0.8278
H13 H 0.3758 0.6886 0.8111
C10 C 0.5335(14) 0.7785(9) 0.7837(8)
H14 H 0.5636 0.8360 0.7555
C11 C 0.6223(14) 0.7187(9) 0.8211(8)
H15 H 0.5917 0.6613 0.8491
H16 H 0.7162 0.7334 0.8198
C12 C 0.3954(9) 0.7027(5) 0.6197(6)
H17 H 0.4908 0.7261 0.6256
C13 C 0.3518(13) 0.7261(7) 0.5212(6)
H18 H 0.3717 0.7948 0.5089
H19 H 0.4078 0.6871 0.4798
C14 C 0.4011(10) 0.5924(6) 0.6353(6)
H20 H 0.4037 0.5796 0.7006
H21 H 0.3174 0.5628 0.6112
C15 C 0.5246(7) 0.5444(5) 0.5909(5)
C16 C 0.5129(6) 0.4899(5) 0.5109(5)
H22 H 0.4266 0.4804 0.4842
C17 C 0.6302(9) 0.4494(4) 0.4707(4)
H23 H 0.6223 0.4129 0.4172
C18 C 0.7591(7) 0.4635(5) 0.5107(6)
H24 H 0.8376 0.4364 0.4838
C19 C 0.7709(7) 0.5180(6) 0.5907(6)
H25 H 0.8572 0.5275 0.6174
C20 C 0.6536(10) 0.5585(5) 0.6308(4)
H26 H 0.6615 0.5950 0.6844
loop_
_geom_bond_atom_site_label_1
_geom_bond_atom_site_label_2
_geom_bond_site_symmetry_1
_geom_bond_site_symmetry_2
O1 H1 1_555 1_555
N1 C7 1_555 1_555
C1 H2 1_555 1_555
C2 C1 1_555 1_555
H3 C2 1_555 1_555
C3 C2 1_555 1_555
H4 C3 1_555 1_555
C4 C3 1_555 1_555
H5 C4 1_555 1_555
C5 C4 1_555 1_555
H6 C5 1_555 1_555
C6 C1 1_555 1_555
C7 C6 1_555 1_555
H7 C7 1_555 1_555
H8 C7 1_555 1_555
C8 N1 1_555 1_555
H9 C8 1_555 1_555
H10 C8 1_555 1_555
H11 C8 1_555 1_555
C9 N1 1_555 1_555
H12 C9 1_555 1_555
H13 C9 1_555 1_555
C10 C9 1_555 1_555
H14 C10 1_555 1_555
C11 C10 1_555 1_555
H15 C11 1_555 1_555
H16 C11 1_555 1_555
C12 N1 1_555 1_555
H17 C12 1_555 1_555
C13 O1 1_555 1_555
H18 C13 1_555 1_555
H19 C13 1_555 1_555
C14 C12 1_555 1_555
H20 C14 1_555 1_555
H21 C14 1_555 1_555
C15 C14 1_555 1_555
C16 C15 1_555 1_555
H22 C16 1_555 1_555
C17 C16 1_555 1_555
H23 C17 1_555 1_555
C18 C17 1_555 1_555
H24 C18 1_555 1_555
C19 C18 1_555 1_555
H25 C19 1_555 1_555
C20 C15 1_555 1_555
H26 C20 1_555 1_555
C5 C6 1_555 1_555
C12 C13 1_555 1_555
C19 C20 1_555 1_555

#END
