
#######################################################################
#
#                 Cambridge Crystallographic Data Centre
#                                CCDC 
#
#######################################################################
#
# If this CIF has been generated from an entry in the Cambridge 
# Structural Database, then it will include bibliographic, chemical, 
# crystal, experimental, refinement or atomic coordinate data resulting 
# from the CCDC's data processing and validation procedures.
#
#######################################################################

data_HOWMOW
_chemical_formula_moiety         'C14 H22 N1 O1 1+,Br1 1-,C20 H14 O2'
_chemical_name_systematic        
"[N(S)]-N-Allyl-N-benzyl-N-[(1S)-2-hydroxy-1-methylethyl]-N-methylammonium bromide (S)-1,1'-binaphthalene-2,2'-diol"
_symmetry_cell_setting           orthorhombic
_symmetry_space_group_name_H-M   'P 21 21 21'
_symmetry_Int_Tables_number      19
_space_group_name_Hall           'P 2ac 2ab'
loop_
_symmetry_equiv_pos_site_id
_symmetry_equiv_pos_as_xyz
1 x,y,z
2 1/2-x,-y,1/2+z
3 1/2+x,1/2-y,-z
4 -x,1/2+y,1/2-z
_cell_length_a                   10.660(4)
_cell_length_b                   13.834(4)
_cell_length_c                   20.015(2)
_cell_angle_alpha                90
_cell_angle_beta                 90
_cell_angle_gamma                90
_cell_volume                     2951.62
_exptl_crystal_colour            colorless
_exptl_crystal_description       block
_cell_formula_units_Z            4
_exptl_crystal_recrystallization_method ethanol
loop_
_atom_site_label
_atom_site_type_symbol
_atom_site_fract_x
_atom_site_fract_y
_atom_site_fract_z
Br1 Br 0.27430(4) 0.26006(4) 0.21402(2)
O1 O -0.0447(3) -0.1136(3) 0.34639(17)
H1 H -0.1059 -0.1460 0.3357
O2 O 0.1310(3) 0.1216(2) 0.32420(17)
H2 H 0.1673 0.1417 0.2909
C1 C -0.0800(4) -0.0449(4) 0.3919(2)
C2 C -0.2082(4) -0.0324(3) 0.4080(3)
H4 H -0.2684 -0.0710 0.3876
C3 C -0.2439(4) 0.0352(4) 0.4526(3)
H5 H -0.3286 0.0433 0.4622
C4 C -0.1538(4) 0.0939(4) 0.4852(2)
C5 C -0.1848(5) 0.1645(4) 0.5334(3)
H6 H -0.2688 0.1754 0.5433
C6 C -0.0964(6) 0.2167(4) 0.5654(2)
H7 H -0.1197 0.2614 0.5979
C7 C 0.0295(5) 0.2036(4) 0.5499(2)
H8 H 0.0900 0.2408 0.5714
C8 C 0.0658(4) 0.1365(4) 0.5033(2)
H9 H 0.1506 0.1281 0.4941
C9 C -0.0241(4) 0.0801(3) 0.4690(2)
C10 C 0.0108(4) 0.0109(3) 0.4209(2)
C11 C 0.1469(4) -0.0047(3) 0.4026(2)
C12 C 0.2022(4) 0.0523(3) 0.3541(2)
C13 C 0.3293(4) 0.0378(4) 0.3362(2)
H10 H 0.3645 0.0749 0.3023
C14 C 0.4000(4) -0.0290(4) 0.3675(3)
H11 H 0.4837 -0.0365 0.3555
C15 C 0.3490(4) -0.0876(4) 0.4180(3)
C16 C 0.4202(5) -0.1589(4) 0.4522(3)
H12 H 0.5037 -0.1687 0.4404
C17 C 0.3691(5) -0.2127(4) 0.5012(3)
H13 H 0.4178 -0.2587 0.5230
C18 C 0.2432(5) -0.2001(3) 0.5198(3)
H14 H 0.2088 -0.2375 0.5538
C19 C 0.1713(4) -0.1325(4) 0.4878(2)
H15 H 0.0881 -0.1243 0.5006
C20 C 0.2205(4) -0.0751(3) 0.4358(2)
O3 O 0.4475(3) 0.7597(4) 0.21818(18)
H3 H 0.5184 0.7743 0.2306
N1 N 0.2029(3) 0.6197(3) 0.30897(17)
C21 C -0.0770(5) 0.5259(4) 0.3541(3)
H16 H -0.1050 0.5864 0.3403
C22 C -0.1472(5) 0.4738(4) 0.3997(3)
H17 H -0.2211 0.4994 0.4170
C23 C -0.1068(5) 0.3837(5) 0.4193(3)
H18 H -0.1525 0.3488 0.4507
C24 C -0.0001(5) 0.3453(4) 0.3929(3)
H19 H 0.0255 0.2836 0.4053
C25 C 0.0703(4) 0.3976(4) 0.3477(2)
H20 H 0.1428 0.3707 0.3298
C26 C 0.0341(4) 0.4898(4) 0.3287(2)
C27 C 0.1105(4) 0.5455(3) 0.2789(2)
H21 H 0.0536 0.5794 0.2492
H22 H 0.1578 0.4999 0.2521
C28 C 0.1314(5) 0.6952(4) 0.3485(3)
H23 H 0.0696 0.7250 0.3203
H24 H 0.1888 0.7436 0.3644
H25 H 0.0907 0.6650 0.3859
C29 C 0.2922(5) 0.5695(4) 0.3578(2)
H26 H 0.3388 0.6189 0.3817
H27 H 0.2424 0.5346 0.3904
C30 C 0.3820(5) 0.5021(4) 0.3283(3)
H28 H 0.3509 0.4508 0.3032
C31 C 0.5030(6) 0.5099(5) 0.3351(3)
H29 H 0.5366 0.5605 0.3600
H30 H 0.5559 0.4649 0.3152
C32 C 0.2764(4) 0.6645(3) 0.2507(2)
H31 H 0.3229 0.6120 0.2290
C33 C 0.1927(5) 0.7092(4) 0.1981(3)
H32 H 0.1341 0.7523 0.2192
H33 H 0.1477 0.6592 0.1751
H34 H 0.2430 0.7446 0.1668
C34 C 0.3725(4) 0.7389(4) 0.2740(2)
H35 H 0.3309 0.7968 0.2898
H36 H 0.4232 0.7127 0.3100
loop_
_geom_bond_atom_site_label_1
_geom_bond_atom_site_label_2
_geom_bond_site_symmetry_1
_geom_bond_site_symmetry_2
O1 H1 1_555 1_555
O2 H2 1_555 1_555
O3 H3 1_555 1_555
N1 C27 1_555 1_555
C1 O1 1_555 1_555
C2 C1 1_555 1_555
H4 C2 1_555 1_555
C3 C2 1_555 1_555
H5 C3 1_555 1_555
C4 C3 1_555 1_555
C5 C4 1_555 1_555
H6 C5 1_555 1_555
C6 C5 1_555 1_555
H7 C6 1_555 1_555
C7 C6 1_555 1_555
H8 C7 1_555 1_555
C8 C7 1_555 1_555
H9 C8 1_555 1_555
C9 C4 1_555 1_555
C10 C1 1_555 1_555
C11 C10 1_555 1_555
C12 O2 1_555 1_555
C13 C12 1_555 1_555
H10 C13 1_555 1_555
C14 C13 1_555 1_555
H11 C14 1_555 1_555
C15 C14 1_555 1_555
C16 C15 1_555 1_555
H12 C16 1_555 1_555
C17 C16 1_555 1_555
H13 C17 1_555 1_555
C18 C17 1_555 1_555
H14 C18 1_555 1_555
C19 C18 1_555 1_555
H15 C19 1_555 1_555
C20 C11 1_555 1_555
C21 H16 1_555 1_555
C22 C21 1_555 1_555
H17 C22 1_555 1_555
C23 C22 1_555 1_555
H18 C23 1_555 1_555
C24 C23 1_555 1_555
H19 C24 1_555 1_555
C25 C24 1_555 1_555
H20 C25 1_555 1_555
C26 C21 1_555 1_555
C27 C26 1_555 1_555
H21 C27 1_555 1_555
H22 C27 1_555 1_555
C28 N1 1_555 1_555
H23 C28 1_555 1_555
H24 C28 1_555 1_555
H25 C28 1_555 1_555
C29 N1 1_555 1_555
H26 C29 1_555 1_555
H27 C29 1_555 1_555
C30 C29 1_555 1_555
H28 C30 1_555 1_555
C31 C30 1_555 1_555
H29 C31 1_555 1_555
H30 C31 1_555 1_555
C32 N1 1_555 1_555
H31 C32 1_555 1_555
C33 C32 1_555 1_555
H32 C33 1_555 1_555
H33 C33 1_555 1_555
H34 C33 1_555 1_555
C34 O3 1_555 1_555
H35 C34 1_555 1_555
H36 C34 1_555 1_555
C8 C9 1_555 1_555
C9 C10 1_555 1_555
C11 C12 1_555 1_555
C15 C20 1_555 1_555
C19 C20 1_555 1_555
C25 C26 1_555 1_555
C32 C34 1_555 1_555

#END
