
#######################################################################
#
#                 Cambridge Crystallographic Data Centre
#                                CCDC 
#
#######################################################################
#
# If this CIF has been generated from an entry in the Cambridge 
# Structural Database, then it will include bibliographic, chemical, 
# crystal, experimental, refinement or atomic coordinate data resulting 
# from the CCDC's data processing and validation procedures.
#
#######################################################################

data_HOWMIQ
_chemical_formula_moiety         'C16 H24 N1 O1 1+,Br1 1-,C20 H14 O2'
_chemical_name_systematic        
"[N(R),3S]-1,2,3,4-tetrahydro-3-(hydroxymethyl)-2-methyl-2-(3-methylbut-2-en-1-yl)isoquinolinium bromide (S)-1,1'-binaphthalene-2,2'-diol"
_symmetry_cell_setting           monoclinic
_symmetry_space_group_name_H-M   'P 21'
_symmetry_Int_Tables_number      4
_space_group_name_Hall           'P 2yb'
loop_
_symmetry_equiv_pos_site_id
_symmetry_equiv_pos_as_xyz
1 x,y,z
2 -x,1/2+y,-z
_cell_length_a                   11.3972(5)
_cell_length_b                   10.1329(4)
_cell_length_c                   13.8151(5)
_cell_angle_alpha                90
_cell_angle_beta                 107.976(1)
_cell_angle_gamma                90
_cell_volume                     1517.58
_exptl_crystal_colour            colorless
_exptl_crystal_description       block
_cell_formula_units_Z            2
_exptl_crystal_recrystallization_method ethanol
loop_
_atom_site_label
_atom_site_type_symbol
_atom_site_fract_x
_atom_site_fract_y
_atom_site_fract_z
Br1 Br 0.24874(5) 0.38084(9) 0.48817(4)
O1 O -0.4885(4) 0.3750(8) 0.4355(4)
N1 N -0.2233(4) 0.4166(4) 0.4580(3)
C1 C -0.1159(5) 0.4550(7) 0.4232(4)
H1 H -0.0487 0.3901 0.4499
H2 H -0.0851 0.5422 0.4524
C2 C -0.1467(5) 0.4619(6) 0.3088(4)
C3 C -0.0489(5) 0.4535(8) 0.2681(4)
H3 H 0.0323 0.4344 0.3106
C4 C -0.0724(6) 0.4736(8) 0.1638(5)
H4 H -0.0068 0.4692 0.1350
C5 C -0.1901(6) 0.4995(8) 0.1027(4)
H5 H -0.2051 0.5154 0.0321
C6 C -0.2864(6) 0.5026(7) 0.1429(4)
H6 H -0.3678 0.5181 0.0994
C7 C -0.2658(5) 0.4834(6) 0.2466(4)
C8 C -0.3701(5) 0.4860(6) 0.2909(4)
H7 H -0.4156 0.4015 0.2748
H8 H -0.4277 0.5575 0.2577
C9 C -0.3303(5) 0.5071(6) 0.4061(4)
H9 H -0.2972 0.5990 0.4181
C10 C -0.4372(6) 0.5022(8) 0.4470(5)
H10 H -0.4094 0.5266 0.5200
H11 H -0.5006 0.5667 0.4102
C11 C -0.2521(6) 0.2727(6) 0.4343(5)
C12 C -0.1877(5) 0.4350(7) 0.5746(4)
H12 H -0.1746 0.5302 0.5904
H13 H -0.2575 0.4057 0.5977
C13 C -0.0751(5) 0.3617(7) 0.6328(3)
H14 H -0.0845 0.2697 0.6413
C14 C 0.0377(5) 0.4109(6) 0.6744(4)
C15 C 0.0730(7) 0.5510(7) 0.6665(5)
H15 H 0.1319 0.5558 0.6277
H16 H 0.1111 0.5871 0.7348
H17 H -0.0008 0.6025 0.6316
C16 C 0.1392(6) 0.3243(8) 0.7354(5)
H18 H 0.1078 0.2345 0.7367
H19 H 0.1707 0.3583 0.8051
H20 H 0.2059 0.3231 0.7046
H33 H -0.543(7) 0.384(9) 0.457(5)
O2 O 0.4633(4) 0.2941(4) 0.6987(3)
O3 O 0.7346(4) 0.1221(4) 0.6721(3)
C17 C 0.5660(4) 0.3712(6) 0.7318(3)
C18 C 0.5603(5) 0.5049(5) 0.7062(4)
H21 H 0.4852 0.5429 0.6653
C19 C 0.6647(6) 0.5808(5) 0.7409(4)
H22 H 0.6610 0.6713 0.7222
C20 C 0.7767(5) 0.5288(5) 0.8030(4)
C21 C 0.8860(6) 0.6057(6) 0.8398(5)
H23 H 0.8841 0.6966 0.8224
C22 C 0.9933(6) 0.5511(7) 0.8997(5)
H24 H 1.0653 0.6039 0.9239
C23 C 0.9973(5) 0.4173(6) 0.9256(4)
H25 H 1.0722 0.3799 0.9676
C24 C 0.8951(5) 0.3399(6) 0.8913(4)
H26 H 0.8999 0.2491 0.9092
C25 C 0.7807(4) 0.3932(5) 0.8287(3)
C26 C 0.6748(4) 0.3143(5) 0.7929(3)
C27 C 0.6774(4) 0.1712(5) 0.8183(4)
C28 C 0.6523(4) 0.1276(5) 0.9079(3)
C29 C 0.6176(5) 0.2140(6) 0.9743(4)
H27 H 0.6115 0.3058 0.9597
C30 C 0.5927(6) 0.1698(7) 1.0584(4)
H28 H 0.5697 0.2308 1.1016
C31 C 0.6006(6) 0.0342(7) 1.0828(4)
H29 H 0.5828 0.0039 1.1418
C32 C 0.6337(5) -0.0525(6) 1.0211(4)
H30 H 0.6396 -0.1438 1.0377
C33 C 0.6597(5) -0.0095(5) 0.9326(4)
C34 C 0.6937(5) -0.0975(5) 0.8673(4)
H31 H 0.6989 -0.1890 0.8831
C35 C 0.7193(5) -0.0565(5) 0.7826(4)
H32 H 0.7430 -0.1181 0.7403
C36 C 0.7100(5) 0.0801(5) 0.7579(4)
H34 H 0.400(6) 0.334(7) 0.653(5)
H35 H 0.751(9) 0.055(10) 0.635(8)
loop_
_geom_bond_atom_site_label_1
_geom_bond_atom_site_label_2
_geom_bond_site_symmetry_1
_geom_bond_site_symmetry_2
O1 C10 1_555 1_555
O2 C17 1_555 1_555
O3 C36 1_555 1_555
N1 C1 1_555 1_555
C1 H1 1_555 1_555
H2 C1 1_555 1_555
C2 C1 1_555 1_555
C3 C2 1_555 1_555
H3 C3 1_555 1_555
C4 C3 1_555 1_555
H4 C4 1_555 1_555
C5 C4 1_555 1_555
H5 C5 1_555 1_555
C6 C5 1_555 1_555
H6 C6 1_555 1_555
C7 C2 1_555 1_555
C8 C7 1_555 1_555
H7 C8 1_555 1_555
H8 C8 1_555 1_555
C9 N1 1_555 1_555
H9 C9 1_555 1_555
C10 C9 1_555 1_555
H10 C10 1_555 1_555
H11 C10 1_555 1_555
C11 N1 1_555 1_555
C12 N1 1_555 1_555
H12 C12 1_555 1_555
H13 C12 1_555 1_555
C13 C12 1_555 1_555
H14 C13 1_555 1_555
C14 C13 1_555 1_555
C15 C14 1_555 1_555
H15 C15 1_555 1_555
H16 C15 1_555 1_555
H17 C15 1_555 1_555
C16 C14 1_555 1_555
H18 C16 1_555 1_555
H19 C16 1_555 1_555
H20 C16 1_555 1_555
C17 C18 1_555 1_555
C18 H21 1_555 1_555
C19 C18 1_555 1_555
H22 C19 1_555 1_555
C20 C19 1_555 1_555
C21 C20 1_555 1_555
H23 C21 1_555 1_555
C22 C21 1_555 1_555
H24 C22 1_555 1_555
C23 C22 1_555 1_555
H25 C23 1_555 1_555
C24 C23 1_555 1_555
H26 C24 1_555 1_555
C25 C20 1_555 1_555
C26 C17 1_555 1_555
C27 C26 1_555 1_555
C28 C27 1_555 1_555
C29 C28 1_555 1_555
H27 C29 1_555 1_555
C30 C29 1_555 1_555
H28 C30 1_555 1_555
C31 C30 1_555 1_555
H29 C31 1_555 1_555
C32 C31 1_555 1_555
H30 C32 1_555 1_555
C33 C28 1_555 1_555
C34 C33 1_555 1_555
H31 C34 1_555 1_555
C35 C34 1_555 1_555
H32 C35 1_555 1_555
C36 C27 1_555 1_555
H33 O1 1_555 1_555
H34 O2 1_555 1_555
H35 O3 1_555 1_555
C6 C7 1_555 1_555
C8 C9 1_555 1_555
C24 C25 1_555 1_555
C25 C26 1_555 1_555
C32 C33 1_555 1_555
C35 C36 1_555 1_555

#END
