
#######################################################################
#
#                 Cambridge Crystallographic Data Centre
#                                CCDC 
#
#######################################################################
#
# If this CIF has been generated from an entry in the Cambridge 
# Structural Database, then it will include bibliographic, chemical, 
# crystal, experimental, refinement or atomic coordinate data resulting 
# from the CCDC's data processing and validation procedures.
#
#######################################################################

data_HOWSUJ
_chemical_formula_moiety         'C26 H19 N1 O3'
_chemical_name_systematic        
3-benzoyl-1-(1-naphthylmethyl)-1-azaspiro[3.5]nona-5,8-diene-2,7-dione
_symmetry_cell_setting           orthorhombic
_symmetry_space_group_name_H-M   'P 21 21 21'
_symmetry_Int_Tables_number      19
_space_group_name_Hall           'P 2ac 2ab'
loop_
_symmetry_equiv_pos_site_id
_symmetry_equiv_pos_as_xyz
1 x,y,z
2 1/2-x,-y,1/2+z
3 -x,1/2+y,1/2-z
4 1/2+x,1/2-y,-z
_cell_length_a                   6.8829(3)
_cell_length_b                   12.6375(5)
_cell_length_c                   23.2085(10)
_cell_angle_alpha                90
_cell_angle_beta                 90
_cell_angle_gamma                90
_cell_volume                     2018.74
_exptl_crystal_colour            'pale yellow'
_exptl_crystal_description       block
_cell_formula_units_Z            4
loop_
_atom_site_label
_atom_site_type_symbol
_atom_site_fract_x
_atom_site_fract_y
_atom_site_fract_z
O1 O 0.4209(3) 0.24063(19) 0.94202(10)
N1 N 0.2088(3) 0.32294(18) 0.87725(10)
O2 O 0.4277(3) 0.4877(2) 0.98694(10)
O3 O -0.3775(4) 0.5868(2) 0.83408(12)
C1 C 0.2923(4) 0.3025(2) 0.92892(13)
C2 C -0.2441(4) 0.1643(2) 0.77405(13)
C3 C 0.1603(4) 0.3799(2) 0.96041(12)
H1 H 0.0693 0.3437 0.9862
C4 C 0.1994(5) 0.6489(2) 1.03553(13)
H2 H 0.3303 0.6632 1.0293
C5 C 0.0674(4) 0.4016(2) 0.89843(12)
C6 C -0.3037(5) 0.2409(2) 0.73090(13)
H3 H -0.4219 0.2330 0.7120
C7 C 0.0855(5) 0.7228(3) 1.06303(14)
H4 H 0.1398 0.7861 1.0757
C8 C 0.1218(4) 0.5535(2) 1.01700(13)
C9 C -0.1101(5) 0.7028(3) 1.07182(13)
H5 H -0.1872 0.7522 1.0908
C10 C 0.2459(4) 0.2856(2) 0.81862(13)
H6 H 0.3216 0.2209 0.8201
H7 H 0.3211 0.3383 0.7979
C11 C -0.0089(4) 0.1020(2) 0.84468(13)
H8 H 0.1112 0.1070 0.8628
C12 C -0.1398(4) 0.3649(2) 0.89520(13)
H9 H -0.1699 0.2970 0.9078
C13 C -0.0619(4) 0.1781(2) 0.80126(12)
C14 C -0.3684(5) 0.0798(2) 0.78921(13)
H10 H -0.4864 0.0708 0.7703
C15 C -0.3143(5) 0.0114(3) 0.83181(14)
H11 H -0.3974 -0.0431 0.8427
C16 C -0.1902(5) 0.6093(3) 1.05238(14)
H12 H -0.3220 0.5966 1.0578
C17 C -0.1329(5) 0.0228(2) 0.85937(14)
H13 H -0.0975 -0.0247 0.8881
C18 C -0.0416(5) 0.5679(3) 0.85225(14)
H14 H -0.0125 0.6339 0.8368
C19 C 0.0567(4) 0.2649(2) 0.78656(13)
C20 C -0.0061(5) 0.3346(3) 0.74612(13)
H15 H 0.0732 0.3915 0.7364
C21 C -0.1869(5) 0.3238(2) 0.71827(13)
H16 H -0.2260 0.3738 0.6912
C22 C -0.0769(4) 0.5345(3) 1.02490(13)
H17 H -0.1323 0.4719 1.0117
C23 C 0.2515(4) 0.4751(3) 0.98850(13)
C24 C 0.1003(4) 0.5092(2) 0.87365(12)
H18 H 0.2260 0.5362 0.8733
C25 C -0.2450(4) 0.5309(3) 0.85234(14)
C26 C -0.2818(4) 0.4259(3) 0.87503(14)
H19 H -0.4086 0.4005 0.8755
loop_
_geom_bond_atom_site_label_1
_geom_bond_atom_site_label_2
_geom_bond_site_symmetry_1
_geom_bond_site_symmetry_2
O1 C1 1_555 1_555
N1 C1 1_555 1_555
O2 C23 1_555 1_555
O3 C25 1_555 1_555
C1 C3 1_555 1_555
C2 C6 1_555 1_555
C3 H1 1_555 1_555
C4 H2 1_555 1_555
C5 N1 1_555 1_555
C6 H3 1_555 1_555
C7 C4 1_555 1_555
H4 C7 1_555 1_555
C8 C4 1_555 1_555
C9 C7 1_555 1_555
H5 C9 1_555 1_555
C10 N1 1_555 1_555
H6 C10 1_555 1_555
H7 C10 1_555 1_555
C11 H8 1_555 1_555
C12 C5 1_555 1_555
H9 C12 1_555 1_555
C13 C2 1_555 1_555
C14 C2 1_555 1_555
H10 C14 1_555 1_555
C15 C14 1_555 1_555
H11 C15 1_555 1_555
C16 C9 1_555 1_555
H12 C16 1_555 1_555
C17 C11 1_555 1_555
H13 C17 1_555 1_555
C18 H14 1_555 1_555
C19 C10 1_555 1_555
C20 C19 1_555 1_555
H15 C20 1_555 1_555
C21 C6 1_555 1_555
H16 C21 1_555 1_555
C22 C8 1_555 1_555
H17 C22 1_555 1_555
C23 C3 1_555 1_555
C24 C5 1_555 1_555
H18 C24 1_555 1_555
C25 C18 1_555 1_555
C26 C12 1_555 1_555
H19 C26 1_555 1_555
C3 C5 1_555 1_555
C8 C23 1_555 1_555
C11 C13 1_555 1_555
C13 C19 1_555 1_555
C15 C17 1_555 1_555
C16 C22 1_555 1_555
C18 C24 1_555 1_555
C20 C21 1_555 1_555
C25 C26 1_555 1_555

#END
