
#######################################################################
#
#                 Cambridge Crystallographic Data Centre
#                                CCDC 
#
#######################################################################
#
# If this CIF has been generated from an entry in the Cambridge 
# Structural Database, then it will include bibliographic, chemical, 
# crystal, experimental, refinement or atomic coordinate data resulting 
# from the CCDC's data processing and validation procedures.
#
#######################################################################

data_HOWSOD
_chemical_formula_moiety         'C22 H16 N2 O5'
_chemical_name_systematic        
3-benzoyl-1-(4-nitrobenzyl)-1-azaspiro[3.5]nona-5,8-diene-2,7-dione
_symmetry_cell_setting           triclinic
_symmetry_space_group_name_H-M   'P -1'
_symmetry_Int_Tables_number      2
_space_group_name_Hall           '-P 1'
loop_
_symmetry_equiv_pos_site_id
_symmetry_equiv_pos_as_xyz
1 x,y,z
2 -x,-y,-z
_cell_length_a                   8.1161(6)
_cell_length_b                   10.6291(9)
_cell_length_c                   11.2955(7)
_cell_angle_alpha                70.929(7)
_cell_angle_beta                 79.274(6)
_cell_angle_gamma                76.625(7)
_cell_volume                     889.469
_exptl_crystal_colour            colorless
_exptl_crystal_description       block
_chemical_melting_point          '414.2-416.5 K'
_cell_formula_units_Z            2
loop_
_atom_site_label
_atom_site_type_symbol
_atom_site_fract_x
_atom_site_fract_y
_atom_site_fract_z
O1 O 0.38316(18) 0.06239(14) 0.63734(13)
O2 O 0.20201(17) -0.10083(14) 0.52954(13)
O3 O -0.37744(19) 0.20856(17) -0.05997(15)
N1 N 0.24291(19) 0.06760(16) 0.33800(14)
O4 O 0.26497(19) 0.52595(15) 0.00955(14)
N2 N -0.2331(2) 0.23284(18) -0.10109(16)
C1 C 0.3012(2) 0.16487(19) 0.57304(16)
C2 C -0.1017(2) 0.1805(2) -0.01506(18)
O5 O -0.1927(2) 0.29609(18) -0.21097(14)
C3 C 0.2257(2) 0.4210(2) 0.50066(17)
H1 H 0.1682 0.4178 0.4381
C4 C 0.3902(2) 0.26004(19) 0.28224(17)
H2 H 0.4867 0.2179 0.3232
C5 C 0.0853(2) 0.40444(19) 0.17348(18)
H3 H -0.0136 0.4577 0.1408
C6 C 0.3014(2) 0.30140(19) 0.58337(16)
C7 C 0.2266(2) 0.21005(18) 0.33655(16)
C8 C -0.1471(2) 0.1100(2) 0.10940(18)
H4 H -0.2593 0.0993 0.1391
C9 C 0.1875(2) 0.15294(18) 0.48583(17)
H5 H 0.0674 0.1838 0.5133
C10 C 0.2825(2) 0.0107(2) 0.23301(17)
H6 H 0.2892 -0.0866 0.2651
H7 H 0.3928 0.0282 0.1879
C11 C 0.1888(2) 0.1444(2) 0.01808(18)
H8 H 0.3008 0.1558 -0.0119
C12 C 0.2117(2) 0.01347(19) 0.46404(17)
C13 C 0.4024(2) 0.3627(2) 0.17735(17)
H9 H 0.5082 0.3871 0.1444
C14 C 0.2520(2) 0.4387(2) 0.11188(18)
C15 C 0.0741(2) 0.29819(19) 0.27533(17)
H10 H -0.0331 0.2776 0.3102
C16 C 0.3850(2) 0.3077(2) 0.67869(18)
H11 H 0.4359 0.2281 0.7340
C17 C -0.0201(2) 0.0562(2) 0.18802(18)
H12 H -0.0476 0.0091 0.2721
C18 C 0.1481(2) 0.07126(19) 0.14320(17)
C19 C 0.0633(3) 0.2002(2) -0.06212(18)
H13 H 0.0895 0.2497 -0.1456
C20 C 0.3924(2) 0.4313(2) 0.69102(19)
H14 H 0.4456 0.4348 0.7557
C21 C 0.2367(2) 0.5450(2) 0.51207(18)
H15 H 0.1879 0.6249 0.4561
C22 C 0.3204(2) 0.5503(2) 0.60687(19)
H16 H 0.3280 0.6336 0.6138
loop_
_geom_bond_atom_site_label_1
_geom_bond_atom_site_label_2
_geom_bond_site_symmetry_1
_geom_bond_site_symmetry_2
O1 C1 1_555 1_555
O2 C12 1_555 1_555
O3 N2 1_555 1_555
N1 C7 1_555 1_555
O4 C14 1_555 1_555
N2 C2 1_555 1_555
C1 C6 1_555 1_555
C2 C8 1_555 1_555
O5 N2 1_555 1_555
C3 H1 1_555 1_555
C4 H2 1_555 1_555
C5 H3 1_555 1_555
C6 C3 1_555 1_555
C7 C4 1_555 1_555
C8 H4 1_555 1_555
C9 C1 1_555 1_555
H5 C9 1_555 1_555
C10 N1 1_555 1_555
H6 C10 1_555 1_555
H7 C10 1_555 1_555
C11 H8 1_555 1_555
C12 N1 1_555 1_555
C13 C4 1_555 1_555
H9 C13 1_555 1_555
C14 C5 1_555 1_555
C15 C5 1_555 1_555
H10 C15 1_555 1_555
C16 C6 1_555 1_555
H11 C16 1_555 1_555
C17 C8 1_555 1_555
H12 C17 1_555 1_555
C18 C10 1_555 1_555
C19 C2 1_555 1_555
H13 C19 1_555 1_555
C20 C16 1_555 1_555
H14 C20 1_555 1_555
C21 C3 1_555 1_555
H15 C21 1_555 1_555
C22 C20 1_555 1_555
H16 C22 1_555 1_555
C7 C9 1_555 1_555
C7 C15 1_555 1_555
C9 C12 1_555 1_555
C11 C18 1_555 1_555
C11 C19 1_555 1_555
C13 C14 1_555 1_555
C17 C18 1_555 1_555
C21 C22 1_555 1_555

#END
