
#######################################################################
#
#                 Cambridge Crystallographic Data Centre
#                                CCDC 
#
#######################################################################
#
# If this CIF has been generated from an entry in the Cambridge 
# Structural Database, then it will include bibliographic, chemical, 
# crystal, experimental, refinement or atomic coordinate data resulting 
# from the CCDC's data processing and validation procedures.
#
#######################################################################

data_HOWTEU
_chemical_formula_moiety         'C21 H17 N1 O3 S1'
_chemical_name_systematic        
3-(4-methylbenzoyl)-1-(2-thienylmethyl)-1-azaspiro[3.5]nona-5,8-diene-2,7-dione
_symmetry_cell_setting           monoclinic
_symmetry_space_group_name_H-M   'P 21/c'
_symmetry_Int_Tables_number      14
_space_group_name_Hall           '-P 2ybc'
loop_
_symmetry_equiv_pos_site_id
_symmetry_equiv_pos_as_xyz
1 x,y,z
2 -x,1/2+y,1/2-z
3 -x,-y,-z
4 x,1/2-y,1/2+z
_cell_length_a                   13.6899(2)
_cell_length_b                   11.7390(2)
_cell_length_c                   25.3082(3)
_cell_angle_alpha                90
_cell_angle_beta                 117.8380(10)
_cell_angle_gamma                90
_cell_volume                     3596.48
_exptl_crystal_colour            colorless
_cell_formula_units_Z            8
loop_
_atom_site_label
_atom_site_type_symbol
_atom_site_fract_x
_atom_site_fract_y
_atom_site_fract_z
S1 S 0.57360(10) -0.45743(9) -0.38381(5)
O1 O 0.3836(2) -0.4929(2) -0.29922(11)
O2 O 0.4444(2) -0.4889(2) -0.16396(12)
O3 O 0.9322(2) -0.2126(3) -0.13123(15)
N1 N 0.5382(2) -0.3782(2) -0.27524(12)
C1 C 0.6531(3) -0.4188(4) -0.41539(18)
H1 H 0.6767 -0.4697 -0.4353
C2 C 0.6795(3) -0.3067(4) -0.40909(17)
H2 H 0.7225 -0.2744 -0.4247
C3 C 0.6357(3) -0.2397(3) -0.37593(14)
H3 H 0.6445 -0.1620 -0.3678
C4 C 0.5745(3) -0.3222(3) -0.35814(15)
C5 C 0.5149(3) -0.2952(3) -0.32282(15)
H4 H 0.5366 -0.2200 -0.3053
H5 H 0.4360 -0.2938 -0.3495
C6 C 0.4758(3) -0.4594(3) -0.26736(15)
C7 C 0.5701(3) -0.4883(3) -0.20488(14)
H6 H 0.6033 -0.5620 -0.2054
C8 C 0.5406(3) -0.4837(3) -0.15359(14)
C9 C 0.6316(3) -0.4802(3) -0.09111(14)
C10 C 0.6031(3) -0.4684(3) -0.04483(17)
H7 H 0.5293 -0.4603 -0.0539
C11 C 0.6845(4) -0.4690(3) 0.01446(17)
H8 H 0.6653 -0.4589 0.0449
C12 C 0.7955(3) -0.4847(3) 0.02851(16)
C13 C 0.8234(3) -0.4963(3) -0.01740(16)
H9 H 0.8970 -0.5060 -0.0082
C14 C 0.7428(3) -0.4937(3) -0.07684(15)
H10 H 0.7627 -0.5009 -0.1071
C15 C 0.8838(4) -0.4858(4) 0.09282(18)
H11 H 0.9448 -0.5317 0.0965
H12 H 0.8542 -0.5170 0.1174
H13 H 0.9089 -0.4094 0.1055
C16 C 0.6361(2) -0.3875(3) -0.21549(14)
C17 C 0.7382(3) -0.4256(3) -0.21781(14)
H14 H 0.7346 -0.4909 -0.2395
C18 C 0.8346(3) -0.3702(3) -0.19017(15)
H15 H 0.8961 -0.3986 -0.1922
C19 C 0.8445(3) -0.2643(3) -0.15637(16)
C20 C 0.7451(3) -0.2233(3) -0.15439(15)
H16 H 0.7482 -0.1554 -0.1347
C21 C 0.6504(3) -0.2810(3) -0.18007(15)
H17 H 0.5906 -0.2539 -0.1758
S2 S -0.04597(8) -0.26512(8) -0.47258(4)
O4 O 0.2631(2) -0.2057(2) -0.35173(12)
O5 O 0.3988(2) -0.2353(3) -0.21344(13)
O6 O -0.0321(2) -0.5736(2) -0.23236(11)
N2 N 0.1542(2) -0.3543(2) -0.34608(12)
C22 C -0.1816(3) -0.3056(3) -0.50923(17)
H18 H -0.2394 -0.2573 -0.5329
C23 C -0.1947(3) -0.4173(3) -0.49950(16)
H19 H -0.2627 -0.4540 -0.5163
C24 C -0.0929(3) -0.4723(3) -0.46068(16)
H20 H -0.0870 -0.5484 -0.4493
C25 C -0.0050(3) -0.3989(3) -0.44233(14)
C26 C 0.1144(3) -0.4242(3) -0.40000(15)
H21 H 0.1223 -0.5041 -0.3890
H22 H 0.1590 -0.4093 -0.4198
C27 C 0.2178(3) -0.2599(3) -0.32851(16)
C28 C 0.2044(3) -0.2483(3) -0.27193(15)
H23 H 0.1568 -0.1833 -0.2754
C29 C 0.3099(3) -0.2439(3) -0.21301(16)
C30 C 0.3033(3) -0.2431(3) -0.15612(15)
C31 C 0.4001(3) -0.2429(3) -0.10192(18)
H24 H 0.4680 -0.2465 -0.1018
C32 C 0.3964(3) -0.2375(3) -0.04856(16)
H25 H 0.4620 -0.2377 -0.0129
C33 C 0.2953(3) -0.2318(3) -0.04711(16)
C34 C 0.1978(3) -0.2318(3) -0.10125(16)
H26 H 0.1299 -0.2276 -0.1012
C35 C 0.2015(3) -0.2383(3) -0.15543(15)
H27 H 0.1361 -0.2393 -0.1912
C36 C 0.2916(3) -0.2257(3) 0.01154(16)
H28 H 0.2161 -0.2222 0.0040
H29 H 0.3302 -0.1589 0.0330
H30 H 0.3262 -0.2923 0.0349
C37 C 0.1332(3) -0.3626(3) -0.29384(13)
C38 C 0.1860(3) -0.4658(3) -0.25722(14)
H31 H 0.2591 -0.4825 -0.2470
C39 C 0.1306(3) -0.5349(3) -0.23871(15)
H32 H 0.1663 -0.5989 -0.2163
C40 C 0.0152(3) -0.5134(3) -0.25248(14)
C41 C -0.0396(3) -0.4152(3) -0.29101(14)
H33 H -0.1136 -0.4011 -0.3023
C42 C 0.0140(3) -0.3461(3) -0.31007(14)
H34 H -0.0240 -0.2851 -0.3345
loop_
_geom_bond_atom_site_label_1
_geom_bond_atom_site_label_2
_geom_bond_site_symmetry_1
_geom_bond_site_symmetry_2
S1 C1 1_555 1_555
O1 C6 1_555 1_555
O2 C8 1_555 1_555
O3 C19 1_555 1_555
N1 C5 1_555 1_555
C1 H1 1_555 1_555
C2 C1 1_555 1_555
H2 C2 1_555 1_555
C3 C2 1_555 1_555
H3 C3 1_555 1_555
C4 S1 1_555 1_555
C5 C4 1_555 1_555
H4 C5 1_555 1_555
H5 C5 1_555 1_555
C6 N1 1_555 1_555
C7 C6 1_555 1_555
H6 C7 1_555 1_555
C8 C7 1_555 1_555
C9 C8 1_555 1_555
C10 C9 1_555 1_555
H7 C10 1_555 1_555
C11 C10 1_555 1_555
H8 C11 1_555 1_555
C12 C11 1_555 1_555
C13 C12 1_555 1_555
H9 C13 1_555 1_555
C14 C9 1_555 1_555
H10 C14 1_555 1_555
C15 C12 1_555 1_555
H11 C15 1_555 1_555
H12 C15 1_555 1_555
H13 C15 1_555 1_555
C16 N1 1_555 1_555
C17 C16 1_555 1_555
H14 C17 1_555 1_555
C18 C17 1_555 1_555
H15 C18 1_555 1_555
C19 C18 1_555 1_555
C20 C19 1_555 1_555
H16 C20 1_555 1_555
C21 C16 1_555 1_555
H17 C21 1_555 1_555
S2 C22 1_555 1_555
O4 C27 1_555 1_555
O5 C29 1_555 1_555
O6 C40 1_555 1_555
N2 C26 1_555 1_555
C22 H18 1_555 1_555
C23 C22 1_555 1_555
H19 C23 1_555 1_555
C24 C23 1_555 1_555
H20 C24 1_555 1_555
C25 S2 1_555 1_555
C26 C25 1_555 1_555
H21 C26 1_555 1_555
H22 C26 1_555 1_555
C27 N2 1_555 1_555
C28 C27 1_555 1_555
H23 C28 1_555 1_555
C29 C28 1_555 1_555
C30 C29 1_555 1_555
C31 C30 1_555 1_555
H24 C31 1_555 1_555
C32 C31 1_555 1_555
H25 C32 1_555 1_555
C33 C32 1_555 1_555
C34 C33 1_555 1_555
H26 C34 1_555 1_555
C35 C30 1_555 1_555
H27 C35 1_555 1_555
C36 C33 1_555 1_555
H28 C36 1_555 1_555
H29 C36 1_555 1_555
H30 C36 1_555 1_555
C37 N2 1_555 1_555
C38 C37 1_555 1_555
H31 C38 1_555 1_555
C39 C38 1_555 1_555
H32 C39 1_555 1_555
C40 C39 1_555 1_555
C41 C40 1_555 1_555
H33 C41 1_555 1_555
C42 C37 1_555 1_555
H34 C42 1_555 1_555
C3 C4 1_555 1_555
C7 C16 1_555 1_555
C13 C14 1_555 1_555
C20 C21 1_555 1_555
C24 C25 1_555 1_555
C28 C37 1_555 1_555
C34 C35 1_555 1_555
C41 C42 1_555 1_555

#END
