
#######################################################################
#
#                 Cambridge Crystallographic Data Centre
#                                CCDC 
#
#######################################################################
#
# If this CIF has been generated from an entry in the Cambridge 
# Structural Database, then it will include bibliographic, chemical, 
# crystal, experimental, refinement or atomic coordinate data resulting 
# from the CCDC's data processing and validation procedures.
#
#######################################################################

data_HOWXAU
_chemical_formula_moiety         'C9 H4 I1 N1'
_chemical_name_systematic        4-(iodoethynyl)benzonitrile
_symmetry_cell_setting           triclinic
_symmetry_space_group_name_H-M   'P -1'
_symmetry_Int_Tables_number      2
_space_group_name_Hall           '-P 1'
loop_
_symmetry_equiv_pos_site_id
_symmetry_equiv_pos_as_xyz
1 x,y,z
2 -x,-y,-z
_cell_length_a                   7.1332(5)
_cell_length_b                   7.3333(5)
_cell_length_c                   9.5386(6)
_cell_angle_alpha                104.8260(10)
_cell_angle_beta                 101.0760(10)
_cell_angle_gamma                112.3430(10)
_cell_volume                     422.126
_exptl_crystal_colour            colorless
_exptl_crystal_description       plate
_cell_formula_units_Z            2
_exptl_crystal_recrystallization_method dichloromethane
loop_
_atom_site_label
_atom_site_type_symbol
_atom_site_fract_x
_atom_site_fract_y
_atom_site_fract_z
I1 I 0.39492(2) 0.72676(2) 0.05988(2)
N1 N -0.3685(4) 0.7542(3) 0.8364(2)
C1 C 0.2541(4) 0.7324(3) 0.2232(3)
C2 C 0.1717(4) 0.7405(3) 0.3208(3)
C3 C 0.0615(4) 0.7464(3) 0.4321(2)
C4 C -0.1511(4) 0.7135(3) 0.3861(2)
H1 H -0.2202 0.6877 0.2825
C5 C -0.2611(4) 0.7185(3) 0.4909(3)
H2 H -0.4051 0.6968 0.4598
C6 C -0.1575(4) 0.7560(3) 0.6437(2)
C7 C 0.0546(4) 0.7900(3) 0.6908(2)
H3 H 0.1239 0.8165 0.7945
C8 C 0.1635(4) 0.7851(3) 0.5850(3)
H4 H 0.3079 0.8080 0.6165
C9 C -0.2732(4) 0.7572(3) 0.7521(3)
loop_
_geom_bond_atom_site_label_1
_geom_bond_atom_site_label_2
_geom_bond_site_symmetry_1
_geom_bond_site_symmetry_2
I1 C1 1_555 1_555
N1 C9 1_555 1_555
C1 C2 1_555 1_555
C2 C3 1_555 1_555
C3 C4 1_555 1_555
C4 H1 1_555 1_555
C5 C4 1_555 1_555
H2 C5 1_555 1_555
C6 C5 1_555 1_555
C7 C6 1_555 1_555
H3 C7 1_555 1_555
C8 C3 1_555 1_555
H4 C8 1_555 1_555
C9 C6 1_555 1_555
C7 C8 1_555 1_555

#END
