
#######################################################################
#
#                 Cambridge Crystallographic Data Centre
#                                CCDC 
#
#######################################################################
#
# If this CIF has been generated from an entry in the Cambridge 
# Structural Database, then it will include bibliographic, chemical, 
# crystal, experimental, refinement or atomic coordinate data resulting 
# from the CCDC's data processing and validation procedures.
#
#######################################################################

data_HOWYEZ
_chemical_formula_moiety         'C13 H15 N1 O3'
_chemical_name_systematic        '2-(acetyl(methyl)amino)-2-phenylvinyl acetate'
_symmetry_cell_setting           monoclinic
_symmetry_space_group_name_H-M   'P 21/n'
_symmetry_Int_Tables_number      14
_space_group_name_Hall           '-P 2yn'
loop_
_symmetry_equiv_pos_site_id
_symmetry_equiv_pos_as_xyz
1 x,y,z
2 1/2-x,1/2+y,1/2-z
3 -x,-y,-z
4 1/2+x,1/2-y,1/2+z
_cell_length_a                   13.7795(12)
_cell_length_b                   6.8296(4)
_cell_length_c                   14.5782(11)
_cell_angle_alpha                90
_cell_angle_beta                 111.208(9)
_cell_angle_gamma                90
_cell_volume                     1279.02
_exptl_crystal_colour            colorless
_exptl_crystal_description       block
_cell_formula_units_Z            4
loop_
_atom_site_label
_atom_site_type_symbol
_atom_site_fract_x
_atom_site_fract_y
_atom_site_fract_z
O1 O 0.42056(9) 0.66993(18) 0.14367(8)
C1 C 0.57928(12) 0.2582(2) 0.28938(11)
C2 C 0.42516(14) 0.7827(3) 0.06805(12)
C3 C 0.60365(13) 0.1389(3) 0.22343(12)
H1 H 0.5675 0.1536 0.1562
O2 O 0.48558(11) 0.7511(2) 0.02880(9)
C4 C 0.50240(13) 0.4182(3) 0.25505(12)
C5 C 0.68047(15) -0.0005(3) 0.25639(14)
H2 H 0.6961 -0.0790 0.2115
C6 C 0.49171(13) 0.5189(3) 0.17507(13)
H3 H 0.5330 0.4878 0.1388
C7 C 0.63197(14) 0.2284(3) 0.38922(12)
H4 H 0.6149 0.3025 0.4347
C8 C 0.34699(16) 0.9415(3) 0.04375(15)
H5 H 0.2796 0.8871 0.0331
H6 H 0.3457 1.0073 -0.0149
H7 H 0.3649 1.0333 0.0972
C9 C 0.70987(15) 0.0886(3) 0.42152(14)
H8 H 0.7459 0.0715 0.4886
C10 C 0.73415(15) -0.0242(3) 0.35533(15)
H9 H 0.7870 -0.1169 0.3774
N1 N 0.4265(3) 0.4275(6) 0.3036(3)
O3 O 0.3599(7) 0.5929(9) 0.4006(6)
C11 C 0.5024(11) 0.725(3) 0.3767(13)
H10 H 0.5660 0.6649 0.3781
H11 H 0.5142 0.7910 0.4378
H12 H 0.4792 0.8172 0.3236
C12 C 0.4258(3) 0.5793(6) 0.3626(3)
C13 C 0.3557(8) 0.2493(18) 0.3040(7)
H13 H 0.3462 0.1689 0.2475
H14 H 0.2892 0.2957 0.3022
H15 H 0.3880 0.1737 0.3628
C14? C 0.5180(15) 0.716(4) 0.3763(16)
H16? H 0.5709 0.6857 0.4386
H17? H 0.4663 0.7987 0.3865
H18? H 0.5488 0.7836 0.3357
N2? N 0.4656(4) 0.5221(7) 0.3240(3)
O4? O 0.3563(8) 0.5135(12) 0.4047(8)
C15? C 0.3884(4) 0.4365(8) 0.3456(4)
C16? C 0.3358(10) 0.280(2) 0.2767(8)
H19? H 0.3012 0.3339 0.2124
H20? H 0.2857 0.2170 0.2986
H21? H 0.3863 0.1849 0.2741
loop_
_geom_bond_atom_site_label_1
_geom_bond_atom_site_label_2
_geom_bond_site_symmetry_1
_geom_bond_site_symmetry_2
O1 C2 1_555 1_555
C1 C3 1_555 1_555
C2 O2 1_555 1_555
C3 H1 1_555 1_555
C4 C1 1_555 1_555
C5 C3 1_555 1_555
H2 C5 1_555 1_555
C6 O1 1_555 1_555
H3 C6 1_555 1_555
C7 C1 1_555 1_555
H4 C7 1_555 1_555
C8 C2 1_555 1_555
H5 C8 1_555 1_555
H6 C8 1_555 1_555
H7 C8 1_555 1_555
C9 C7 1_555 1_555
H8 C9 1_555 1_555
C10 C5 1_555 1_555
H9 C10 1_555 1_555
N1 C4 1_555 1_555
O3 C12 1_555 1_555
C11 H10 1_555 1_555
H11 C11 1_555 1_555
H12 C11 1_555 1_555
C12 N1 1_555 1_555
C13 N1 1_555 1_555
H13 C13 1_555 1_555
H14 C13 1_555 1_555
H15 C13 1_555 1_555
C4 C6 1_555 1_555
C9 C10 1_555 1_555
C11 C12 1_555 1_555

#END
