
#######################################################################
#
#                 Cambridge Crystallographic Data Centre
#                                CCDC 
#
#######################################################################
#
# If this CIF has been generated from an entry in the Cambridge 
# Structural Database, then it will include bibliographic, chemical, 
# crystal, experimental, refinement or atomic coordinate data resulting 
# from the CCDC's data processing and validation procedures.
#
#######################################################################

data_HOWZUQ
_chemical_formula_moiety         'C27 H34 O3 Si1'
_chemical_name_systematic        
'methyl 2-(3-((t-butyl(dimethyl)silyl)oxy)-1,2-dihydronaphthalen-1-yl)-4-phenylbut-3-enoate'
_symmetry_cell_setting           orthorhombic
_symmetry_space_group_name_H-M   'P 21 21 21'
_symmetry_Int_Tables_number      19
_space_group_name_Hall           'P 2ac 2ab'
loop_
_symmetry_equiv_pos_site_id
_symmetry_equiv_pos_as_xyz
1 x,y,z
2 1/2-x,-y,1/2+z
3 1/2+x,1/2-y,-z
4 -x,1/2+y,1/2-z
_cell_length_a                   6.02340(10)
_cell_length_b                   10.8338(3)
_cell_length_c                   37.8963(8)
_cell_angle_alpha                90
_cell_angle_beta                 90
_cell_angle_gamma                90
_cell_volume                     2472.97
_exptl_crystal_colour            colorless
_exptl_crystal_description       needle
_cell_formula_units_Z            4
loop_
_atom_site_label
_atom_site_type_symbol
_atom_site_fract_x
_atom_site_fract_y
_atom_site_fract_z
C1 C -0.0188(4) 0.5232(2) 0.16628(6)
C2 C 0.1675(4) 0.4577(2) 0.16841(6)
H1 H 0.2913 0.4896 0.1810
C3 C 0.1824(4) 0.3359(2) 0.15131(6)
C4 C 0.0248(4) 0.3019(2) 0.12577(6)
C5 C -0.1456(4) 0.3978(2) 0.11467(6)
H2 H -0.2793 0.3544 0.1051
C6 C -0.2158(4) 0.4769(2) 0.14619(6)
H3 H -0.3042 0.5480 0.1377
H4 H -0.3109 0.4273 0.1621
C7 C -0.0469(4) 0.4830(2) 0.08511(6)
H5 H 0.0786 0.5321 0.0952
C8 C 0.0402(4) 0.4027(2) 0.05564(6)
C9 C 0.3565(4) 0.3311(2) 0.02544(6)
H6 H 0.3030 0.2465 0.0288
H7 H 0.5188 0.3326 0.0273
H8 H 0.3120 0.3606 0.0020
C10 C -0.2191(4) 0.5699(2) 0.07088(6)
H9 H -0.3418 0.5353 0.0586
C11 C -0.2119(4) 0.6915(2) 0.07424(6)
H10 H -0.0889 0.7246 0.0867
C12 C -0.3753(4) 0.7807(2) 0.06057(6)
C13 C -0.5786(4) 0.7448(2) 0.04624(6)
H11 H -0.6187 0.6600 0.0462
C14 C -0.7224(4) 0.8311(2) 0.03210(6)
H12 H -0.8589 0.8051 0.0220
C15 C -0.6682(5) 0.9551(2) 0.03263(7)
H13 H -0.7673 1.0142 0.0229
C16 C -0.4706(5) 0.9928(2) 0.04729(7)
H14 H -0.4337 1.0780 0.0479
C17 C -0.3250(4) 0.9061(2) 0.06121(7)
H15 H -0.1889 0.9328 0.0713
C18 C 0.0341(4) 0.1857(2) 0.11066(6)
H16 H -0.0753 0.1623 0.0939
C19 C 0.2001(4) 0.1031(2) 0.11957(7)
H17 H 0.2060 0.0241 0.1087
C20 C 0.3567(4) 0.1364(2) 0.14432(7)
H18 H 0.4717 0.0803 0.1504
C21 C 0.3473(4) 0.2512(2) 0.16027(6)
H19 H 0.4548 0.2725 0.1776
C22 C 0.1972(4) 0.7627(2) 0.23532(6)
C23 C 0.3560(5) 0.6559(2) 0.24262(7)
H20 H 0.4814 0.6599 0.2262
H21 H 0.2775 0.5774 0.2395
H22 H 0.4111 0.6617 0.2669
C24 C 0.3158(4) 0.8863(2) 0.24256(7)
H23 H 0.4420 0.8952 0.2264
H24 H 0.3692 0.8877 0.2670
H25 H 0.2117 0.9546 0.2389
C25 C -0.0021(4) 0.7521(3) 0.26049(6)
H26 H -0.1015 0.8227 0.2569
H27 H 0.0508 0.7516 0.2849
H28 H -0.0826 0.6754 0.2556
C26 C -0.0936(4) 0.8897(2) 0.17913(7)
H29 H -0.1448 0.8851 0.1546
H30 H -0.0156 0.9679 0.1829
H31 H -0.2216 0.8849 0.1950
C27 C 0.3291(4) 0.7607(2) 0.15579(6)
H32 H 0.4419 0.7005 0.1629
H33 H 0.3955 0.8432 0.1550
H34 H 0.2721 0.7389 0.1324
O1 O -0.0573(3) 0.63320(14) 0.18300(4)
O2 O 0.2614(2) 0.41061(14) 0.05234(4)
O3 O -0.0746(3) 0.33814(14) 0.03718(4)
Si1 Si 0.09727(10) 0.75958(6) 0.188247(16)
loop_
_geom_bond_atom_site_label_1
_geom_bond_atom_site_label_2
_geom_bond_site_symmetry_1
_geom_bond_site_symmetry_2
C1 C2 1_555 1_555
C2 H1 1_555 1_555
C3 C2 1_555 1_555
C4 C3 1_555 1_555
C5 C4 1_555 1_555
H2 C5 1_555 1_555
C6 C1 1_555 1_555
H3 C6 1_555 1_555
H4 C6 1_555 1_555
C7 C5 1_555 1_555
H5 C7 1_555 1_555
C8 C7 1_555 1_555
C9 H6 1_555 1_555
H7 C9 1_555 1_555
H8 C9 1_555 1_555
C10 C7 1_555 1_555
H9 C10 1_555 1_555
C11 C10 1_555 1_555
H10 C11 1_555 1_555
C12 C11 1_555 1_555
C13 C12 1_555 1_555
H11 C13 1_555 1_555
C14 C13 1_555 1_555
H12 C14 1_555 1_555
C15 C14 1_555 1_555
H13 C15 1_555 1_555
C16 C15 1_555 1_555
H14 C16 1_555 1_555
C17 C12 1_555 1_555
H15 C17 1_555 1_555
C18 C4 1_555 1_555
H16 C18 1_555 1_555
C19 C18 1_555 1_555
H17 C19 1_555 1_555
C20 C19 1_555 1_555
H18 C20 1_555 1_555
C21 C3 1_555 1_555
H19 C21 1_555 1_555
C22 C23 1_555 1_555
C23 H20 1_555 1_555
H21 C23 1_555 1_555
H22 C23 1_555 1_555
C24 C22 1_555 1_555
H23 C24 1_555 1_555
H24 C24 1_555 1_555
H25 C24 1_555 1_555
C25 C22 1_555 1_555
H26 C25 1_555 1_555
H27 C25 1_555 1_555
H28 C25 1_555 1_555
C26 H29 1_555 1_555
H30 C26 1_555 1_555
H31 C26 1_555 1_555
C27 H32 1_555 1_555
H33 C27 1_555 1_555
H34 C27 1_555 1_555
O1 C1 1_555 1_555
O2 C8 1_555 1_555
O3 C8 1_555 1_555
Si1 C22 1_555 1_555
C5 C6 1_555 1_555
C9 O2 1_555 1_555
C16 C17 1_555 1_555
C20 C21 1_555 1_555
C26 Si1 1_555 1_555
C27 Si1 1_555 1_555
O1 Si1 1_555 1_555

#END
