
#######################################################################
#
#                 Cambridge Crystallographic Data Centre
#                                CCDC 
#
#######################################################################
#
# If this CIF has been generated from an entry in the Cambridge 
# Structural Database, then it will include bibliographic, chemical, 
# crystal, experimental, refinement or atomic coordinate data resulting 
# from the CCDC's data processing and validation procedures.
#
#######################################################################

data_HOXBED
_chemical_compound_source        
'marine algal-derived endophytic fungus Paecilomyces variotii'
_chemical_name_common            'Varioxepine A'
_chemical_formula_moiety         'C26 H29 N3 O5'
_chemical_name_systematic        
3-benzyl-6-isopropyl-19,19-dimethyl-10,16,20,21-tetraoxa-2,5,8-triazapentacyclo[16.2.1.0^1,15^.0^2,7^.0^9,15^]henicosa-6,8,11,13-tetraen-4-one
_symmetry_cell_setting           orthorhombic
_symmetry_space_group_name_H-M   'P 21 21 2'
_symmetry_Int_Tables_number      18
_space_group_name_Hall           'P 2 2ab'
loop_
_symmetry_equiv_pos_site_id
_symmetry_equiv_pos_as_xyz
1 x,y,z
2 -x,-y,z
3 1/2-x,1/2+y,-z
4 1/2+x,1/2-y,-z
_cell_length_a                   14.8053(12)
_cell_length_b                   25.638(2)
_cell_length_c                   6.4160(8)
_cell_angle_alpha                90
_cell_angle_beta                 90
_cell_angle_gamma                90
_cell_volume                     2435.37
_cell_formula_units_Z            4
loop_
_atom_site_label
_atom_site_type_symbol
_atom_site_fract_x
_atom_site_fract_y
_atom_site_fract_z
N1 N 0.4593(5) 0.4298(3) 0.6867(12)
H1 H 0.5108 0.4452 0.6885
N2 N 0.3135(5) 0.3757(3) 0.5721(12)
N3 N 0.3837(5) 0.2942(3) 0.7020(12)
O1 O 0.3844(4) 0.5048(2) 0.5973(10)
O2 O 0.3230(4) 0.2156(2) 0.6242(10)
O3 O 0.1893(4) 0.2598(2) 0.3732(10)
O4 O 0.1904(4) 0.3722(2) 0.3439(10)
O5 O 0.1737(4) 0.3385(2) 0.6688(10)
C1 C 0.3842(6) 0.4575(3) 0.6402(16)
C2 C 0.2940(6) 0.4294(3) 0.6517(16)
H2 H 0.2488 0.4468 0.5642
C3 C 0.3854(6) 0.3484(3) 0.6714(14)
C4 C 0.4547(7) 0.3769(3) 0.7314(15)
C5 C 0.3274(7) 0.2693(3) 0.5959(16)
C6 C 0.2682(6) 0.2909(3) 0.4209(16)
C7 C 0.3257(6) 0.2929(3) 0.2373(15)
H3 H 0.3355 0.3244 0.1691
C8 C 0.3632(7) 0.2505(4) 0.1693(15)
H4 H 0.3961 0.2532 0.0463
C9 C 0.3590(7) 0.1990(4) 0.2668(17)
H5 H 0.3746 0.1715 0.1792
C10 C 0.3372(6) 0.1851(3) 0.4538(15)
H6 H 0.3304 0.1494 0.4747
C11 C 0.2397(6) 0.3463(4) 0.5004(16)
C12 C 0.1115(6) 0.2654(4) 0.5073(17)
H7 H 0.1218 0.2465 0.6360
H8 H 0.0590 0.2504 0.4395
C13 C 0.0933(6) 0.3217(4) 0.5563(17)
H9 H 0.0388 0.3258 0.6412
C14 C 0.0939(6) 0.3598(4) 0.3712(18)
C15 C 0.0479(6) 0.4119(4) 0.4265(16)
H10 H 0.0572 0.4364 0.3154
H11 H 0.0736 0.4255 0.5528
H12 H -0.0156 0.4064 0.4458
C16 C 0.0580(6) 0.3400(4) 0.1635(15)
H13 H 0.0961 0.3124 0.1134
H14 H 0.0576 0.3680 0.0642
H15 H -0.0024 0.3271 0.1818
C17 C 0.2633(6) 0.4283(3) 0.8818(15)
H16 H 0.2143 0.4034 0.8957
H17 H 0.3131 0.4159 0.9668
C18 C 0.2320(7) 0.4807(4) 0.9657(16)
C19 C 0.1596(8) 0.5063(4) 0.8686(17)
H18 H 0.1299 0.4915 0.7555
C20 C 0.1337(8) 0.5545(4) 0.9466(18)
H19 H 0.0865 0.5721 0.8817
C21 C 0.1740(8) 0.5770(4) 1.1127(17)
H20 H 0.1542 0.6091 1.1621
C22 C 0.2432(7) 0.5523(4) 1.2057(16)
H21 H 0.2707 0.5668 1.3222
C23 C 0.2738(7) 0.5043(4) 1.1261(15)
H22 H 0.3240 0.4885 1.1859
C24 C 0.5332(6) 0.3555(3) 0.8486(16)
H23 H 0.5248 0.3177 0.8635
C25 C 0.6227(6) 0.3650(3) 0.7454(17)
H24 H 0.6415 0.4002 0.7712
H25 H 0.6170 0.3595 0.5980
H26 H 0.6668 0.3413 0.8011
C26 C 0.5374(7) 0.3805(4) 1.0745(16)
H27 H 0.4812 0.3745 1.1452
H28 H 0.5479 0.4173 1.0629
H29 H 0.5856 0.3647 1.1521
loop_
_geom_bond_atom_site_label_1
_geom_bond_atom_site_label_2
_geom_bond_site_symmetry_1
_geom_bond_site_symmetry_2
N1 H1 1_555 1_555
N2 C2 1_555 1_555
N3 C3 1_555 1_555
O1 C1 1_555 1_555
O2 C5 1_555 1_555
O3 C6 1_555 1_555
O4 C11 1_555 1_555
O5 C11 1_555 1_555
C1 N1 1_555 1_555
C2 C1 1_555 1_555
H2 C2 1_555 1_555
C3 N2 1_555 1_555
C4 N1 1_555 1_555
C5 N3 1_555 1_555
C6 C5 1_555 1_555
C7 C6 1_555 1_555
H3 C7 1_555 1_555
C8 C7 1_555 1_555
H4 C8 1_555 1_555
C9 C8 1_555 1_555
H5 C9 1_555 1_555
C10 O2 1_555 1_555
H6 C10 1_555 1_555
C11 N2 1_555 1_555
C12 O3 1_555 1_555
H7 C12 1_555 1_555
H8 C12 1_555 1_555
C13 O5 1_555 1_555
H9 C13 1_555 1_555
C14 O4 1_555 1_555
C15 C14 1_555 1_555
H10 C15 1_555 1_555
H11 C15 1_555 1_555
H12 C15 1_555 1_555
C16 C14 1_555 1_555
H13 C16 1_555 1_555
H14 C16 1_555 1_555
H15 C16 1_555 1_555
C17 C2 1_555 1_555
H16 C17 1_555 1_555
H17 C17 1_555 1_555
C18 C17 1_555 1_555
C19 C18 1_555 1_555
H18 C19 1_555 1_555
C20 C19 1_555 1_555
H19 C20 1_555 1_555
C21 C20 1_555 1_555
H20 C21 1_555 1_555
C22 C21 1_555 1_555
H21 C22 1_555 1_555
C23 C18 1_555 1_555
H22 C23 1_555 1_555
C24 C4 1_555 1_555
H23 C24 1_555 1_555
C25 C24 1_555 1_555
H24 C25 1_555 1_555
H25 C25 1_555 1_555
H26 C25 1_555 1_555
C26 C24 1_555 1_555
H27 C26 1_555 1_555
H28 C26 1_555 1_555
H29 C26 1_555 1_555
C3 C4 1_555 1_555
C6 C11 1_555 1_555
C9 C10 1_555 1_555
C12 C13 1_555 1_555
C13 C14 1_555 1_555
C22 C23 1_555 1_555

#END
