
#######################################################################
#
#                 Cambridge Crystallographic Data Centre
#                                CCDC 
#
#######################################################################
#
# If this CIF has been generated from an entry in the Cambridge 
# Structural Database, then it will include bibliographic, chemical, 
# crystal, experimental, refinement or atomic coordinate data resulting 
# from the CCDC's data processing and validation procedures.
#
#######################################################################

data_HOXDEF
_chemical_formula_moiety         'C21 H23 N3 O5'
_chemical_name_systematic        
'dimethyl 1-benzyl-6-(2-methoxyphenyl)-5,6-dihydro-1,2,3-triazine-4,4(1H)-dicarboxylate'
_symmetry_cell_setting           monoclinic
_symmetry_space_group_name_H-M   'P 21/n'
_symmetry_Int_Tables_number      14
_space_group_name_Hall           '-P 2yn'
loop_
_symmetry_equiv_pos_site_id
_symmetry_equiv_pos_as_xyz
1 x,y,z
2 1/2-x,1/2+y,1/2-z
3 -x,-y,-z
4 1/2+x,1/2-y,1/2+z
_cell_length_a                   14.5617(4)
_cell_length_b                   9.5319(3)
_cell_length_c                   14.8718(4)
_cell_angle_alpha                90
_cell_angle_beta                 97.583(3)
_cell_angle_gamma                90
_cell_volume                     2046.16
_exptl_crystal_colour            'light colorless'
_exptl_crystal_description       block
_cell_formula_units_Z            4
loop_
_atom_site_label
_atom_site_type_symbol
_atom_site_fract_x
_atom_site_fract_y
_atom_site_fract_z
O1 O 0.33030(11) 0.12629(19) 0.12211(12)
O2 O 0.40034(11) 0.1958(2) 0.00701(11)
O3 O 0.46637(12) 0.2120(2) 0.31066(12)
O4 O 0.37564(9) 0.38094(17) 0.24437(9)
O5 O 0.49428(11) 0.70937(15) 0.16459(14)
N1 N 0.64983(10) 0.34644(16) 0.17524(10)
N2 N 0.62980(11) 0.21028(17) 0.16744(11)
N3 N 0.54737(11) 0.16342(17) 0.15818(13)
C1 C 0.84176(16) 0.5403(3) 0.09645(18)
H1 H 0.8701 0.5729 0.1523
C2 C 0.8675(2) 0.5926(4) 0.0173(3)
H2 H 0.9144 0.6594 0.0200
C3 C 0.8252(2) 0.5480(4) -0.0655(2)
H3 H 0.8420 0.5864 -0.1185
C4 C 0.75814(18) 0.4469(3) -0.07022(17)
H4 H 0.7302 0.4145 -0.1262
C5 C 0.73234(15) 0.3934(3) 0.00881(15)
H5 H 0.6864 0.3252 0.0058
C6 C 0.77381(12) 0.4396(2) 0.09231(13)
C7 C 0.74806(12) 0.3788(2) 0.17889(13)
H6 H 0.7835 0.2937 0.1930
H7 H 0.7654 0.4450 0.2278
C8 C 0.58264(11) 0.46050(19) 0.16260(12)
H8 H 0.6069 0.5305 0.1237
C9 C 0.49397(11) 0.40226(18) 0.11041(11)
H9 H 0.4439 0.4688 0.1123
H10 H 0.5024 0.3878 0.0475
C10 C 0.46939(12) 0.26412(19) 0.15201(12)
C11 C 0.39026(13) 0.1884(2) 0.09279(15)
C12 C 0.3312(2) 0.1261(4) -0.0565(2)
H11 H 0.3402 0.1506 -0.1174
H12 H 0.2705 0.1552 -0.0456
H13 H 0.3370 0.0264 -0.0488
C13 C 0.43837(13) 0.2805(2) 0.24570(13)
C14 C 0.3415(2) 0.4130(3) 0.32834(18)
H14 H 0.2915 0.4791 0.3174
H15 H 0.3905 0.4526 0.3701
H16 H 0.3196 0.3286 0.3536
C15 C 0.57182(12) 0.5323(2) 0.25159(13)
C16 C 0.52703(14) 0.6608(2) 0.24981(17)
C17 C 0.51857(17) 0.7313(3) 0.3301(2)
H17 H 0.4885 0.8175 0.3288
C18 C 0.55499(19) 0.6729(4) 0.4115(2)
H18 H 0.5499 0.7208 0.4651
C19 C 0.59833(18) 0.5462(4) 0.41518(18)
H19 H 0.6221 0.5068 0.4706
C20 C 0.60633(14) 0.4768(3) 0.33441(14)
H20 H 0.6359 0.3902 0.3365
C21 C 0.4456(2) 0.8387(3) 0.1562(3)
H21 H 0.4296 0.8612 0.0932
H22 H 0.4842 0.9115 0.1855
H23 H 0.3902 0.8309 0.1844
loop_
_geom_bond_atom_site_label_1
_geom_bond_atom_site_label_2
_geom_bond_site_symmetry_1
_geom_bond_site_symmetry_2
O1 C11 1_555 1_555
O2 C11 1_555 1_555
O3 C13 1_555 1_555
O4 C13 1_555 1_555
O5 C16 1_555 1_555
N1 N2 1_555 1_555
N2 N3 1_555 1_555
N3 C10 1_555 1_555
C1 H1 1_555 1_555
C2 C1 1_555 1_555
H2 C2 1_555 1_555
C3 C2 1_555 1_555
H3 C3 1_555 1_555
C4 C3 1_555 1_555
H4 C4 1_555 1_555
C5 C4 1_555 1_555
H5 C5 1_555 1_555
C6 C1 1_555 1_555
C7 N1 1_555 1_555
H6 C7 1_555 1_555
H7 C7 1_555 1_555
C8 N1 1_555 1_555
H8 C8 1_555 1_555
C9 C8 1_555 1_555
H9 C9 1_555 1_555
H10 C9 1_555 1_555
C10 C9 1_555 1_555
C11 C10 1_555 1_555
C12 O2 1_555 1_555
H11 C12 1_555 1_555
H12 C12 1_555 1_555
H13 C12 1_555 1_555
C13 C10 1_555 1_555
C14 O4 1_555 1_555
H14 C14 1_555 1_555
H15 C14 1_555 1_555
H16 C14 1_555 1_555
C15 C8 1_555 1_555
C16 C15 1_555 1_555
C17 C16 1_555 1_555
H17 C17 1_555 1_555
C18 C17 1_555 1_555
H18 C18 1_555 1_555
C19 C18 1_555 1_555
H19 C19 1_555 1_555
C20 C15 1_555 1_555
H20 C20 1_555 1_555
C21 O5 1_555 1_555
H21 C21 1_555 1_555
H22 C21 1_555 1_555
H23 C21 1_555 1_555
C5 C6 1_555 1_555
C6 C7 1_555 1_555
C19 C20 1_555 1_555

#END
