
#######################################################################
#
#                 Cambridge Crystallographic Data Centre
#                                CCDC 
#
#######################################################################
#
# If this CIF has been generated from an entry in the Cambridge 
# Structural Database, then it will include bibliographic, chemical, 
# crystal, experimental, refinement or atomic coordinate data resulting 
# from the CCDC's data processing and validation procedures.
#
#######################################################################

data_HOXDOP
_chemical_formula_moiety         'C25 H30 N2 O6'
_chemical_name_systematic        
'methyl 8-(3-t-butoxy-3-oxopropyl)-1-(2-nitrophenyl)-8-vinyl-5,6,7,8-tetrahydroindolizine-2-carboxylate'
_symmetry_cell_setting           triclinic
_symmetry_space_group_name_H-M   'P -1'
_symmetry_Int_Tables_number      2
_space_group_name_Hall           '-P 1'
loop_
_symmetry_equiv_pos_site_id
_symmetry_equiv_pos_as_xyz
1 x,y,z
2 -x,-y,-z
_cell_length_a                   8.7470(17)
_cell_length_b                   11.114(2)
_cell_length_c                   13.238(3)
_cell_angle_alpha                105.88(3)
_cell_angle_beta                 91.47(3)
_cell_angle_gamma                101.15(3)
_cell_volume                     1210.23
_cell_formula_units_Z            2
loop_
_atom_site_label
_atom_site_type_symbol
_atom_site_fract_x
_atom_site_fract_y
_atom_site_fract_z
N1 N 0.6615(3) 0.1677(2) 0.05856(14)
C1 C 0.7580(3) 0.2317(2) 0.25072(18)
O1 O 0.3221(3) 0.2938(3) -0.09123(17)
O2 O 0.3010(3) 0.4124(2) 0.07083(15)
N2 N 0.2890(3) 0.2352(2) 0.29322(19)
C2 C 0.8908(3) 0.1656(3) 0.2064(2)
H1 H 0.9678 0.2258 0.1834
H2 H 0.9416 0.1427 0.2623
O3 O 0.2488(3) 0.1946(2) 0.36799(19)
C3 C 0.8360(4) 0.0458(3) 0.1142(2)
H3 H 0.9229 0.0046 0.0931
H4 H 0.7558 -0.0142 0.1350
O4 O 0.2574(3) 0.1688(2) 0.20114(17)
C4 C 0.7718(4) 0.0838(3) 0.0244(2)
H5 H 0.8573 0.1276 -0.0061
H6 H 0.7193 0.0077 -0.0297
O5 O 1.0113(3) 0.66849(17) 0.27598(13)
C5 C 0.6520(3) 0.2401(2) 0.16193(17)
O6 O 0.9459(3) 0.6311(2) 0.42944(15)
C6 C 0.5387(3) 0.3095(2) 0.15855(17)
C7 C 0.4809(3) 0.2804(3) 0.05025(18)
C8 C 0.5601(3) 0.1940(3) -0.00645(18)
H7 H 0.5461 0.1584 -0.0792
C9 C 0.4851(3) 0.4018(2) 0.24814(17)
C10 C 0.5495(3) 0.5317(3) 0.2706(2)
H8 H 0.6241 0.5593 0.2286
C11 C 0.5060(4) 0.6206(3) 0.3533(2)
H9 H 0.5518 0.7068 0.3665
C12 C 0.3946(4) 0.5825(3) 0.4170(2)
H10 H 0.3651 0.6430 0.4724
C13 C 0.3279(4) 0.4553(3) 0.3982(2)
H11 H 0.2549 0.4287 0.4417
C14 C 0.3707(3) 0.3668(2) 0.31336(18)
C15 C 0.3610(4) 0.3278(3) 0.0022(2)
C16 C 0.1885(5) 0.4687(4) 0.0303(3)
H12 H 0.1526 0.5276 0.0875
H13 H 0.1015 0.4028 -0.0064
H14 H 0.2358 0.5134 -0.0173
C17 C 0.6687(4) 0.1532(3) 0.3165(2)
H15 H 0.7118 0.1736 0.3855
C18 C 0.5480(5) 0.0662(4) 0.2951(3)
H16 H 0.4969 0.0394 0.2278
H17 H 0.5096 0.0284 0.3464
C19 C 0.8290(3) 0.3656(2) 0.32579(18)
H18 H 0.7449 0.4039 0.3578
H19 H 0.8950 0.3559 0.3818
C20 C 0.9250(3) 0.4559(3) 0.27216(19)
H20 H 1.0233 0.4295 0.2564
H21 H 0.8692 0.4488 0.2058
C21 C 0.9589(3) 0.5932(3) 0.3371(2)
C22 C 1.0498(4) 0.8089(3) 0.3150(2)
C23 C 1.1834(5) 0.8524(4) 0.4007(3)
H22 H 1.1488 0.8281 0.4619
H23 H 1.2171 0.9437 0.4187
H24 H 1.2690 0.8130 0.3758
C24 C 0.9076(5) 0.8590(4) 0.3502(3)
H25 H 0.8268 0.8288 0.2934
H26 H 0.9328 0.9508 0.3711
H27 H 0.8717 0.8296 0.4090
C25 C 1.1001(5) 0.8467(3) 0.2171(3)
H28 H 1.0142 0.8177 0.1638
H29 H 1.1861 0.8083 0.1914
H30 H 1.1319 0.9381 0.2344
loop_
_geom_bond_atom_site_label_1
_geom_bond_atom_site_label_2
_geom_bond_site_symmetry_1
_geom_bond_site_symmetry_2
N1 C4 1_555 1_555
C1 C2 1_555 1_555
O1 C15 1_555 1_555
O2 C15 1_555 1_555
N2 O3 1_555 1_555
C2 H1 1_555 1_555
H2 C2 1_555 1_555
C3 C2 1_555 1_555
H3 C3 1_555 1_555
H4 C3 1_555 1_555
O4 N2 1_555 1_555
C4 C3 1_555 1_555
H5 C4 1_555 1_555
H6 C4 1_555 1_555
O5 C21 1_555 1_555
C5 N1 1_555 1_555
O6 C21 1_555 1_555
C6 C5 1_555 1_555
C7 C6 1_555 1_555
C8 N1 1_555 1_555
H7 C8 1_555 1_555
C9 C6 1_555 1_555
C10 C9 1_555 1_555
H8 C10 1_555 1_555
C11 C10 1_555 1_555
H9 C11 1_555 1_555
C12 C11 1_555 1_555
H10 C12 1_555 1_555
C13 C12 1_555 1_555
H11 C13 1_555 1_555
C14 N2 1_555 1_555
C15 C7 1_555 1_555
C16 O2 1_555 1_555
H12 C16 1_555 1_555
H13 C16 1_555 1_555
H14 C16 1_555 1_555
C17 C1 1_555 1_555
H15 C17 1_555 1_555
C18 C17 1_555 1_555
H16 C18 1_555 1_555
H17 C18 1_555 1_555
C19 C1 1_555 1_555
H18 C19 1_555 1_555
H19 C19 1_555 1_555
C20 C19 1_555 1_555
H20 C20 1_555 1_555
H21 C20 1_555 1_555
C21 C20 1_555 1_555
C22 O5 1_555 1_555
C23 C22 1_555 1_555
H22 C23 1_555 1_555
H23 C23 1_555 1_555
H24 C23 1_555 1_555
C24 C22 1_555 1_555
H25 C24 1_555 1_555
H26 C24 1_555 1_555
H27 C24 1_555 1_555
C25 C22 1_555 1_555
H28 C25 1_555 1_555
H29 C25 1_555 1_555
H30 C25 1_555 1_555
C1 C5 1_555 1_555
C7 C8 1_555 1_555
C9 C14 1_555 1_555
C13 C14 1_555 1_555

#END
