
#######################################################################
#
#                 Cambridge Crystallographic Data Centre
#                                CCDC 
#
#######################################################################
#
# If this CIF has been generated from an entry in the Cambridge 
# Structural Database, then it will include bibliographic, chemical, 
# crystal, experimental, refinement or atomic coordinate data resulting 
# from the CCDC's data processing and validation procedures.
#
#######################################################################

data_HOXFAD
_chemical_formula_moiety         'C22 H20 N2 O2'
_chemical_name_systematic        
10-methyl-9-(2-nitro-1-phenylethyl)-9,10-dihydroacridine
_symmetry_cell_setting           monoclinic
_symmetry_space_group_name_H-M   'P 21/c'
_symmetry_Int_Tables_number      14
_space_group_name_Hall           '-P 2ybc'
loop_
_symmetry_equiv_pos_site_id
_symmetry_equiv_pos_as_xyz
1 x,y,z
2 -x,1/2+y,1/2-z
3 -x,-y,-z
4 x,1/2-y,1/2+z
_cell_length_a                   18.092(2)
_cell_length_b                   5.5893(7)
_cell_length_c                   19.173(3)
_cell_angle_alpha                90
_cell_angle_beta                 115.022(17)
_cell_angle_gamma                90
_cell_volume                     1756.84
_exptl_crystal_colour            colorless
_exptl_crystal_description       Plate
_cell_formula_units_Z            4
loop_
_atom_site_label
_atom_site_type_symbol
_atom_site_fract_x
_atom_site_fract_y
_atom_site_fract_z
C1 C 0.14899(16) 0.3610(6) 0.23944(18)
C2 C 0.25094(17) 0.5413(6) 0.19511(17)
H1 H 0.2315 0.7003 0.2011
C3 C 0.27925(17) 0.5509(7) 0.13101(19)
C4 C 0.0965(2) 0.3723(8) 0.3556(2)
H2 H 0.0791 0.3767 0.3948
C5 C 0.42103(19) 0.0268(7) 0.1915(2)
H3 H 0.4011 -0.0355 0.1401
H4 H 0.4215 -0.0983 0.2260
H5 H 0.4754 0.0867 0.2069
C6 C 0.18019(16) 0.3565(6) 0.17740(18)
H6 H 0.2027 0.1968 0.1778
C7 C 0.3591(2) 0.3797(8) 0.0710(2)
H7 H 0.3965 0.2669 0.0701
C8 C 0.32129(17) 0.4730(6) 0.26913(19)
C9 C 0.33604(17) 0.3813(7) 0.13232(19)
C10 C 0.24910(19) 0.7179(7) 0.0726(2)
H8 H 0.2128 0.8339 0.0737
C11 C 0.37504(18) 0.2966(7) 0.2664(2)
C12 C 0.10201(18) 0.5477(7) 0.2450(2)
H9 H 0.0877 0.6715 0.2093
C13 C 0.43374(19) 0.2054(7) 0.3351(2)
H10 H 0.4686 0.0846 0.3341
C14 C 0.11265(17) 0.3975(7) 0.09754(19)
H11 H 0.0914 0.5586 0.0942
H12 H 0.1346 0.3818 0.0595
C15 C 0.0759(2) 0.5532(8) 0.3031(2)
H13 H 0.0443 0.6802 0.3064
C16 C 0.1688(2) 0.1780(7) 0.2928(2)
H14 H 0.2000 0.0498 0.2896
C17 C 0.4402(2) 0.2937(9) 0.4045(2)
H15 H 0.4791 0.2299 0.4500
C18 C 0.1425(2) 0.1842(8) 0.3509(2)
H16 H 0.1561 0.0608 0.3867
C19 C 0.3903(2) 0.4741(8) 0.4076(2)
H17 H 0.3966 0.5366 0.4547
C20 C 0.2722(2) 0.7151(8) 0.0124(2)
H18 H 0.2513 0.8267 -0.0272
C21 C 0.3308(2) 0.5615(8) 0.3402(2)
H19 H 0.2963 0.6819 0.3422
C22 C 0.3268(2) 0.5436(9) 0.0124(2)
H20 H 0.3421 0.5385 -0.0282
N1 N 0.04583(16) 0.2228(7) 0.08084(15)
N2 N 0.36824(14) 0.2196(5) 0.19384(17)
O1 O -0.02327(14) 0.2981(6) 0.05969(15)
O2 O 0.06347(16) 0.0099(6) 0.08982(16)
loop_
_geom_bond_atom_site_label_1
_geom_bond_atom_site_label_2
_geom_bond_site_symmetry_1
_geom_bond_site_symmetry_2
C1 C6 1_555 1_555
C2 H1 1_555 1_555
C3 C2 1_555 1_555
C4 H2 1_555 1_555
C5 H3 1_555 1_555
H4 C5 1_555 1_555
H5 C5 1_555 1_555
C6 C2 1_555 1_555
H6 C6 1_555 1_555
C7 H7 1_555 1_555
C8 C2 1_555 1_555
C9 C3 1_555 1_555
C10 C3 1_555 1_555
H8 C10 1_555 1_555
C11 C8 1_555 1_555
C12 C1 1_555 1_555
H9 C12 1_555 1_555
C13 C11 1_555 1_555
H10 C13 1_555 1_555
C14 C6 1_555 1_555
H11 C14 1_555 1_555
H12 C14 1_555 1_555
C15 C4 1_555 1_555
H13 C15 1_555 1_555
C16 C1 1_555 1_555
H14 C16 1_555 1_555
C17 C13 1_555 1_555
H15 C17 1_555 1_555
C18 C4 1_555 1_555
H16 C18 1_555 1_555
C19 C17 1_555 1_555
H17 C19 1_555 1_555
C20 C10 1_555 1_555
H18 C20 1_555 1_555
C21 C8 1_555 1_555
H19 C21 1_555 1_555
C22 C7 1_555 1_555
H20 C22 1_555 1_555
N1 C14 1_555 1_555
N2 C5 1_555 1_555
O1 N1 1_555 1_555
O2 N1 1_555 1_555
C7 C9 1_555 1_555
C9 N2 1_555 1_555
C11 N2 1_555 1_555
C12 C15 1_555 1_555
C16 C18 1_555 1_555
C19 C21 1_555 1_555
C20 C22 1_555 1_555

#END
