
#######################################################################
#
#                 Cambridge Crystallographic Data Centre
#                                CCDC 
#
#######################################################################
#
# If this CIF has been generated from an entry in the Cambridge 
# Structural Database, then it will include bibliographic, chemical, 
# crystal, experimental, refinement or atomic coordinate data resulting 
# from the CCDC's data processing and validation procedures.
#
#######################################################################

data_HOXGEI
_chemical_formula_moiety         'C28 H16 F2'
_chemical_name_systematic        5,10-bis(4-fluorophenyl)indeno[2,1-a]indene
_symmetry_cell_setting           orthorhombic
_symmetry_space_group_name_H-M   'P b c a'
_symmetry_Int_Tables_number      61
_space_group_name_Hall           '-P 2ac 2ab'
loop_
_symmetry_equiv_pos_site_id
_symmetry_equiv_pos_as_xyz
1 x,y,z
2 1/2-x,-y,1/2+z
3 -x,1/2+y,1/2-z
4 1/2+x,1/2-y,-z
5 -x,-y,-z
6 1/2+x,y,1/2-z
7 x,1/2-y,1/2+z
8 1/2-x,1/2+y,z
_cell_length_a                   10.498(3)
_cell_length_b                   7.559(4)
_cell_length_c                   23.466(10)
_cell_angle_alpha                90
_cell_angle_beta                 90
_cell_angle_gamma                90
_cell_volume                     1862.13
_exptl_crystal_colour            red
_exptl_crystal_description       plate
_cell_formula_units_Z            4
loop_
_atom_site_label
_atom_site_type_symbol
_atom_site_fract_x
_atom_site_fract_y
_atom_site_fract_z
F1 F 0.67183(18) 0.8604(3) 0.77282(6)
C1 C 0.5913(2) 0.7592(3) 0.49760(10)
C2 C 0.5465(2) 0.6691(3) 0.44858(10)
C3 C 0.5572(2) 0.7454(3) 0.39499(10)
H1 H 0.5268 0.6854 0.3621
C4 C 0.6136(2) 0.9121(3) 0.39042(11)
H2 H 0.6228 0.9653 0.3540
C5 C 0.6562(2) 1.0005(3) 0.43824(11)
H3 H 0.6935 1.1143 0.4342
C6 C 0.6453(2) 0.9253(3) 0.49251(10)
H4 H 0.6745 0.9872 0.5252
C7 C 0.5638(2) 0.6505(3) 0.54927(10)
C8 C 0.5064(2) 0.4998(3) 0.53095(9)
C9 C 0.5926(2) 0.7040(3) 0.60837(10)
C10 C 0.7077(2) 0.7855(3) 0.62193(10)
H5 H 0.7689 0.8054 0.5928
C11 C 0.7344(3) 0.8379(3) 0.67722(10)
H6 H 0.8129 0.8936 0.6862
C12 C 0.6452(3) 0.8077(3) 0.71856(10)
C13 C 0.5308(3) 0.7269(3) 0.70787(11)
H7 H 0.4712 0.7064 0.7376
C14 C 0.5047(2) 0.6758(3) 0.65214(10)
H8 H 0.4255 0.6208 0.6437
F1D F 0.32817(18) 0.1396(3) 0.22718(6)
C1D C 0.4087(2) 0.2408(3) 0.50240(10)
C2D C 0.4535(2) 0.3309(3) 0.55142(10)
C3D C 0.4428(2) 0.2546(3) 0.60501(10)
H1D H 0.4732 0.3146 0.6379
C4D C 0.3864(2) 0.0879(3) 0.60958(11)
H2D H 0.3772 0.0347 0.6460
C5D C 0.3438(2) -0.0005(3) 0.56176(11)
H3D H 0.3065 -0.1143 0.5658
C6D C 0.3547(2) 0.0747(3) 0.50749(10)
H4D H 0.3255 0.0128 0.4748
C7D C 0.4362(2) 0.3495(3) 0.45073(10)
C8D C 0.4936(2) 0.5002(3) 0.46905(9)
C9D C 0.4074(2) 0.2960(3) 0.39163(10)
C10D C 0.2923(2) 0.2145(3) 0.37807(10)
H5D H 0.2311 0.1946 0.4072
C11D C 0.2656(3) 0.1621(3) 0.32278(10)
H6D H 0.1871 0.1064 0.3138
C12D C 0.3548(3) 0.1923(3) 0.28144(10)
C13D C 0.4692(3) 0.2731(3) 0.29213(11)
H7D H 0.5288 0.2936 0.2624
C14D C 0.4953(2) 0.3242(3) 0.34786(10)
H8D H 0.5745 0.3792 0.3563
loop_
_geom_bond_atom_site_label_1
_geom_bond_atom_site_label_2
_geom_bond_site_symmetry_1
_geom_bond_site_symmetry_2
F1 C12 1_555 1_555
C1 C2 1_555 1_555
C2 C3 1_555 1_555
C3 H1 1_555 1_555
C4 C3 1_555 1_555
H2 C4 1_555 1_555
C5 C4 1_555 1_555
H3 C5 1_555 1_555
C6 C1 1_555 1_555
H4 C6 1_555 1_555
C7 C1 1_555 1_555
C8 C7 1_555 1_555
C9 C7 1_555 1_555
C10 C9 1_555 1_555
H5 C10 1_555 1_555
C11 C10 1_555 1_555
H6 C11 1_555 1_555
C12 C11 1_555 1_555
C13 C12 1_555 1_555
H7 C13 1_555 1_555
C14 C9 1_555 1_555
H8 C14 1_555 1_555
F1D C12D 1_555 1_555
C1D C2D 1_555 1_555
C2D C8 1_555 1_555
C3D C2D 1_555 1_555
H1D C3D 1_555 1_555
C4D C3D 1_555 1_555
H2D C4D 1_555 1_555
C5D C4D 1_555 1_555
H3D C5D 1_555 1_555
C6D C1D 1_555 1_555
H4D C6D 1_555 1_555
C7D C1D 1_555 1_555
C8D C2 1_555 1_555
C9D C7D 1_555 1_555
C10D C9D 1_555 1_555
H5D C10D 1_555 1_555
C11D C10D 1_555 1_555
H6D C11D 1_555 1_555
C12D C11D 1_555 1_555
C13D C12D 1_555 1_555
H7D C13D 1_555 1_555
C14D C9D 1_555 1_555
H8D C14D 1_555 1_555
C5 C6 1_555 1_555
C8 C8D 1_555 1_555
C13 C14 1_555 1_555
C5D C6D 1_555 1_555
C7D C8D 1_555 1_555
C13D C14D 1_555 1_555

#END
