
#######################################################################
#
#                 Cambridge Crystallographic Data Centre
#                                CCDC 
#
#######################################################################
#
# If this CIF has been generated from an entry in the Cambridge 
# Structural Database, then it will include bibliographic, chemical, 
# crystal, experimental, refinement or atomic coordinate data resulting 
# from the CCDC's data processing and validation procedures.
#
#######################################################################

data_HOXGOS
_chemical_formula_moiety         'C13 H10 F3 N1 O2'
_chemical_name_systematic        
'methyl 4-methyl-1-(trifluoromethyl)isoquinoline-3-carboxylate'
_symmetry_cell_setting           monoclinic
_symmetry_space_group_name_H-M   'P 21/n'
_symmetry_Int_Tables_number      14
_space_group_name_Hall           '-P 2yn'
loop_
_symmetry_equiv_pos_site_id
_symmetry_equiv_pos_as_xyz
1 x,y,z
2 1/2-x,1/2+y,1/2-z
3 -x,-y,-z
4 1/2+x,1/2-y,1/2+z
_cell_length_a                   8.9580(18)
_cell_length_b                   13.975(3)
_cell_length_c                   9.6340(19)
_cell_angle_alpha                90
_cell_angle_beta                 95.95(3)
_cell_angle_gamma                90
_cell_volume                     1199.56
_cell_formula_units_Z            4
loop_
_atom_site_label
_atom_site_type_symbol
_atom_site_fract_x
_atom_site_fract_y
_atom_site_fract_z
N1 N 0.1670(3) -0.06741(19) 0.8496(3)
C1 C 0.3223(4) 0.0739(2) 0.8758(3)
O1 O 0.1252(5) -0.1974(3) 1.1497(4)
O2 O -0.0121(3) -0.19265(18) 0.9479(3)
C2 C 0.4009(4) 0.1495(2) 0.8179(4)
H1 H 0.3972 0.1557 0.7215
C3 C 0.4815(5) 0.2128(3) 0.9019(5)
H2 H 0.5333 0.2619 0.8627
C4 C 0.4871(5) 0.2049(3) 1.0447(5)
H3 H 0.5443 0.2482 1.1009
C5 C 0.4107(5) 0.1351(3) 1.1049(4)
H4 H 0.4150 0.1320 1.2016
C6 C 0.3246(4) 0.0670(2) 1.0231(4)
C7 C 0.2425(4) -0.0078(2) 1.0820(3)
C8 C 0.1707(4) -0.0729(2) 0.9915(4)
C9 C 0.2389(4) 0.0026(2) 0.7969(3)
C10 C 0.2347(5) -0.0095(3) 1.2374(4)
H5 H 0.1756 -0.0632 1.2612
H6 H 0.1893 0.0486 1.2657
H7 H 0.3342 -0.0149 1.2844
C11 C 0.0932(5) -0.1590(3) 1.0406(4)
C12 C -0.0895(5) -0.2765(3) 0.9877(5)
H8 H -0.1640 -0.2945 0.9134
H9 H -0.1374 -0.2632 1.0703
H10 H -0.0191 -0.3279 1.0061
C13 C 0.2293(4) 0.0030(2) 0.6395(4)
F1 F 0.1492(3) -0.06794(17) 0.5808(2)
F2 F 0.3652(3) -0.00359(16) 0.5939(2)
F3 F 0.1690(3) 0.08383(17) 0.5843(2)
loop_
_geom_bond_atom_site_label_1
_geom_bond_atom_site_label_2
_geom_bond_site_symmetry_1
_geom_bond_site_symmetry_2
N1 C8 1_555 1_555
C1 C2 1_555 1_555
O1 C11 1_555 1_555
O2 C11 1_555 1_555
C2 H1 1_555 1_555
C3 C2 1_555 1_555
H2 C3 1_555 1_555
C4 C3 1_555 1_555
H3 C4 1_555 1_555
C5 C4 1_555 1_555
H4 C5 1_555 1_555
C6 C1 1_555 1_555
C7 C6 1_555 1_555
C8 C7 1_555 1_555
C9 N1 1_555 1_555
C10 C7 1_555 1_555
H5 C10 1_555 1_555
H6 C10 1_555 1_555
H7 C10 1_555 1_555
C11 C8 1_555 1_555
C12 O2 1_555 1_555
H8 C12 1_555 1_555
H9 C12 1_555 1_555
H10 C12 1_555 1_555
C13 C9 1_555 1_555
F1 C13 1_555 1_555
F2 C13 1_555 1_555
F3 C13 1_555 1_555
C1 C9 1_555 1_555
C5 C6 1_555 1_555

#END
