
#######################################################################
#
#                 Cambridge Crystallographic Data Centre
#                                CCDC 
#
#######################################################################
#
# If this CIF has been generated from an entry in the Cambridge 
# Structural Database, then it will include bibliographic, chemical, 
# crystal, experimental, refinement or atomic coordinate data resulting 
# from the CCDC's data processing and validation procedures.
#
#######################################################################

data_HOXGIM
_chemical_formula_moiety         'C28 H34'
_chemical_name_systematic        5,10-dihexylindeno[2,1-a]indene
_symmetry_cell_setting           monoclinic
_symmetry_space_group_name_H-M   'P 21/c'
_symmetry_Int_Tables_number      14
_space_group_name_Hall           '-P 2ybc'
loop_
_symmetry_equiv_pos_site_id
_symmetry_equiv_pos_as_xyz
1 x,y,z
2 -x,1/2+y,1/2-z
3 -x,-y,-z
4 x,1/2-y,1/2+z
_cell_length_a                   8.1663(16)
_cell_length_b                   18.219(4)
_cell_length_c                   7.7277(15)
_cell_angle_alpha                90
_cell_angle_beta                 112.71(3)
_cell_angle_gamma                90
_cell_volume                     1060.6
_exptl_crystal_colour            red
_exptl_crystal_description       block
_cell_formula_units_Z            2
loop_
_atom_site_label
_atom_site_type_symbol
_atom_site_fract_x
_atom_site_fract_y
_atom_site_fract_z
C1 C 0.4399(3) 0.50762(11) 0.9051(3)
C2 C 0.3405(3) 0.43824(11) 0.8333(3)
C3 C 0.2092(3) 0.41759(11) 0.6612(3)
H1 H 0.1648 0.4515 0.5604
C4 C 0.1454(3) 0.34554(11) 0.6422(3)
H2 H 0.0563 0.3300 0.5269
C5 C 0.2116(3) 0.29687(11) 0.7905(3)
H3 H 0.1666 0.2482 0.7755
C6 C 0.3432(3) 0.31761(12) 0.9621(3)
H4 H 0.3874 0.2835 1.0625
C7 C 0.4071(3) 0.38784(11) 0.9828(3)
C8 C 0.5469(3) 0.42333(11) 1.1487(3)
C9 C 0.6461(3) 0.38738(12) 1.3340(3)
H5 H 0.7532 0.4168 1.4044
H6 H 0.6858 0.3381 1.3123
C10 C 0.5343(3) 0.37944(12) 1.4525(3)
H7 H 0.4287 0.3491 1.3830
H8 H 0.4921 0.4286 1.4712
C11 C 0.6354(3) 0.34441(11) 1.6445(3)
H9 H 0.5484 0.3286 1.6975
H10 H 0.6966 0.2999 1.6265
C12 C 0.7718(3) 0.39404(11) 1.7862(3)
H11 H 0.7110 0.4382 1.8068
H12 H 0.8587 0.4104 1.7336
C13 C 0.8708(3) 0.35659(11) 1.9739(3)
H13 H 0.9347 0.3133 1.9540
H14 H 0.7837 0.3389 2.0248
C14 C 1.0032(3) 0.40722(11) 2.1170(3)
H15 H 1.0905 0.4246 2.0680
H16 H 1.0641 0.3803 2.2343
H17 H 0.9402 0.4493 2.1408
C1B C 0.5601(3) 0.49238(11) 1.0949(3)
C2B C 0.6595(3) 0.56176(11) 1.1667(3)
C3B C 0.7908(3) 0.58241(11) 1.3388(3)
H1B H 0.8352 0.5485 1.4396
C4B C 0.8546(3) 0.65446(11) 1.3578(3)
H2B H 0.9437 0.6700 1.4731
C5B C 0.7884(3) 0.70313(11) 1.2095(3)
H3B H 0.8334 0.7518 1.2245
C6B C 0.6568(3) 0.68239(12) 1.0379(3)
H4B H 0.6126 0.7165 0.9375
C7B C 0.5929(3) 0.61216(11) 1.0172(3)
C8B C 0.4531(3) 0.57667(11) 0.8513(3)
C9B C 0.3539(3) 0.61262(12) 0.6660(3)
H5B H 0.2468 0.5832 0.5956
H6B H 0.3142 0.6619 0.6877
C10B C 0.4657(3) 0.62056(12) 0.5475(3)
H7B H 0.5713 0.6509 0.6170
H8B H 0.5079 0.5714 0.5288
C11B C 0.3646(3) 0.65559(11) 0.3555(3)
H9B H 0.4516 0.6714 0.3025
H10B H 0.3034 0.7001 0.3735
C12B C 0.2282(3) 0.60596(11) 0.2138(3)
H11B H 0.2890 0.5618 0.1932
H12B H 0.1413 0.5896 0.2664
C13B C 0.1292(3) 0.64341(11) 0.0261(3)
H13B H 0.0653 0.6867 0.0460
H14B H 0.2163 0.6611 -0.0248
C14B C -0.0032(3) 0.59278(11) -0.1170(3)
H15B H -0.0905 0.5754 -0.0680
H16B H -0.0641 0.6197 -0.2343
H17B H 0.0598 0.5507 -0.1408
loop_
_geom_bond_atom_site_label_1
_geom_bond_atom_site_label_2
_geom_bond_site_symmetry_1
_geom_bond_site_symmetry_2
C1 C2 1_555 1_555
C2 C3 1_555 1_555
C3 H1 1_555 1_555
C4 C3 1_555 1_555
H2 C4 1_555 1_555
C5 C4 1_555 1_555
H3 C5 1_555 1_555
C6 C5 1_555 1_555
H4 C6 1_555 1_555
C7 C2 1_555 1_555
C8 C7 1_555 1_555
C9 C8 1_555 1_555
H5 C9 1_555 1_555
H6 C9 1_555 1_555
C10 C9 1_555 1_555
H7 C10 1_555 1_555
H8 C10 1_555 1_555
C11 C10 1_555 1_555
H9 C11 1_555 1_555
H10 C11 1_555 1_555
C12 C11 1_555 1_555
H11 C12 1_555 1_555
H12 C12 1_555 1_555
C13 C12 1_555 1_555
H13 C13 1_555 1_555
H14 C13 1_555 1_555
C14 C13 1_555 1_555
H15 C14 1_555 1_555
H16 C14 1_555 1_555
H17 C14 1_555 1_555
C1B C1 1_555 1_555
C2B C1B 1_555 1_555
C3B C2B 1_555 1_555
H1B C3B 1_555 1_555
C4B C3B 1_555 1_555
H2B C4B 1_555 1_555
C5B C4B 1_555 1_555
H3B C5B 1_555 1_555
C6B C5B 1_555 1_555
H4B C6B 1_555 1_555
C7B C2B 1_555 1_555
C8B C1 1_555 1_555
C9B C8B 1_555 1_555
H5B C9B 1_555 1_555
H6B C9B 1_555 1_555
C10B C9B 1_555 1_555
H7B C10B 1_555 1_555
H8B C10B 1_555 1_555
C11B C10B 1_555 1_555
H9B C11B 1_555 1_555
H10B C11B 1_555 1_555
C12B C11B 1_555 1_555
H11B C12B 1_555 1_555
H12B C12B 1_555 1_555
C13B C12B 1_555 1_555
H13B C13B 1_555 1_555
H14B C13B 1_555 1_555
C14B C13B 1_555 1_555
H15B C14B 1_555 1_555
H16B C14B 1_555 1_555
H17B C14B 1_555 1_555
C6 C7 1_555 1_555
C8 C1B 1_555 1_555
C6B C7B 1_555 1_555
C7B C8B 1_555 1_555

#END
