
#######################################################################
#
#                 Cambridge Crystallographic Data Centre
#                                CCDC 
#
#######################################################################
#
# If this CIF has been generated from an entry in the Cambridge 
# Structural Database, then it will include bibliographic, chemical, 
# crystal, experimental, refinement or atomic coordinate data resulting 
# from the CCDC's data processing and validation procedures.
#
#######################################################################

data_HOXJIN
_chemical_formula_moiety         'C22 H40 O2 Si4'
_chemical_name_systematic        
1,2,4,7-tetrakis(Trimethylsilyl)tricyclo(5.2.1.0^2,6^)deca-4,8-diene-3,10-dione
_symmetry_cell_setting           monoclinic
_symmetry_space_group_name_H-M   'P 21/n'
_symmetry_Int_Tables_number      14
_space_group_name_Hall           '-P 2yn'
loop_
_symmetry_equiv_pos_site_id
_symmetry_equiv_pos_as_xyz
1 x,y,z
2 1/2-x,1/2+y,1/2-z
3 -x,-y,-z
4 1/2+x,1/2-y,1/2+z
_cell_length_a                   12.206(2)
_cell_length_b                   11.053(2)
_cell_length_c                   20.950(2)
_cell_angle_alpha                90
_cell_angle_beta                 102.69
_cell_angle_gamma                90
_cell_volume                     2757.38
_cell_formula_units_Z            4
loop_
_atom_site_label
_atom_site_type_symbol
_atom_site_fract_x
_atom_site_fract_y
_atom_site_fract_z
O1 O 0.5775(2) 0.3571(2) 0.7274(1)
O2 O 0.3455(2) 0.7912(2) 0.7189(1)
Si1 Si 0.6189(1) 0.6225(1) 0.6633(1)
Si2 Si 0.4439(1) 0.1869(1) 0.6048(1)
Si3 Si 0.1648(1) 0.6783(1) 0.5914(1)
Si4 Si 0.5221(1) 0.6403(1) 0.8269(1)
C1 C 0.5104(2) 0.4095(2) 0.6845(1)
C2 C 0.4386(2) 0.3516(2) 0.6259(1)
C3 C 0.3727(2) 0.4361(2) 0.5932(1)
C4 C 0.3869(2) 0.5603(2) 0.6226(1)
C5 C 0.4891(2) 0.5465(2) 0.6826(1)
C6 C 0.4392(2) 0.5906(2) 0.7432(1)
C7 C 0.3484(2) 0.4979(2) 0.7476(1)
C8 C 0.2626(2) 0.5078(2) 0.6970(1)
C9 C 0.2854(2) 0.6070(2) 0.6516(1)
C10 C 0.3557(2) 0.6863(2) 0.7068(1)
C11 C 0.6405(3) 0.5532(3) 0.5857(2)
C12 C 0.7489(2) 0.5930(3) 0.7257(2)
C13 C 0.5929(3) 0.7882(3) 0.6496(2)
C14 C 0.3276(3) 0.1559(3) 0.5328(2)
C15 C 0.5810(3) 0.1576(3) 0.5827(2)
C16 C 0.4286(3) 0.0956(3) 0.6764(2)
C17 C 0.1341(3) 0.5864(3) 0.5150(2)
C18 C 0.0393(3) 0.6823(3) 0.6279(2)
C19 C 0.2043(3) 0.8323(3) 0.5692(2)
C20 C 0.6132(3) 0.5150(3) 0.8677(2)
C21 C 0.6029(3) 0.7827(3) 0.8259(2)
C22 C 0.4144(3) 0.6724(3) 0.8754(2)
H1 H 0.3189 0.4188 0.5534
H2 H 0.4042 0.6182 0.5920
H3 H 0.3535 0.4408 0.7827
H4 H 0.1956 0.4595 0.6897
H5 H 0.7050 0.5886 0.5738
H6 H 0.6518 0.4677 0.5918
H7 H 0.5752 0.5676 0.5516
H8 H 0.8113 0.6330 0.7137
H9 H 0.7399 0.6229 0.7672
H10 H 0.7628 0.5075 0.7287
H11 H 0.6583 0.8257 0.6400
H12 H 0.5301 0.7996 0.6134
H13 H 0.5766 0.8242 0.6882
H14 H 0.2569 0.1714 0.5442
H15 H 0.3349 0.2072 0.4970
H16 H 0.3309 0.0728 0.5202
H17 H 0.5864 0.2057 0.5454
H18 H 0.6413 0.1781 0.6188
H19 H 0.5858 0.0734 0.5722
H20 H 0.3575 0.1128 0.6870
H21 H 0.4326 0.0112 0.6665
H22 H 0.4881 0.1158 0.7131
H23 H 0.1129 0.5062 0.5252
H24 H 0.0737 0.6226 0.4837
H25 H 0.1998 0.5823 0.4970
H26 H 0.0203 0.6017 0.6386
H27 H 0.0558 0.7306 0.6669
H28 H -0.0227 0.7171 0.5972
H29 H 0.2205 0.8819 0.6078
H30 H 0.2697 0.8273 0.5510
H31 H 0.1436 0.8675 0.5377
H32 H 0.6544 0.5415 0.9098
H33 H 0.5674 0.4468 0.8731
H34 H 0.6648 0.4921 0.8412
H35 H 0.6427 0.8023 0.8695
H36 H 0.6556 0.7724 0.7984
H37 H 0.5519 0.8470 0.8091
H38 H 0.4504 0.6982 0.9187
H39 H 0.3651 0.7351 0.8542
H40 H 0.3717 0.6003 0.8781
loop_
_geom_bond_atom_site_label_1
_geom_bond_atom_site_label_2
_geom_bond_site_symmetry_1
_geom_bond_site_symmetry_2
O1 C1 1_555 1_555
O2 C10 1_555 1_555
Si1 C5 1_555 1_555
Si2 C2 1_555 1_555
Si3 C9 1_555 1_555
Si4 C6 1_555 1_555
C1 C2 1_555 1_555
C2 C3 1_555 1_555
C3 C4 1_555 1_555
C4 C5 1_555 1_555
C5 C1 1_555 1_555
C6 C5 1_555 1_555
C7 C6 1_555 1_555
C8 C7 1_555 1_555
C9 C4 1_555 1_555
C10 C6 1_555 1_555
C11 Si1 1_555 1_555
C12 Si1 1_555 1_555
C13 Si1 1_555 1_555
C14 Si2 1_555 1_555
C15 Si2 1_555 1_555
C16 Si2 1_555 1_555
C17 Si3 1_555 1_555
C18 Si3 1_555 1_555
C19 Si3 1_555 1_555
C20 Si4 1_555 1_555
C21 Si4 1_555 1_555
C22 Si4 1_555 1_555
H1 C3 1_555 1_555
H2 C4 1_555 1_555
H3 C7 1_555 1_555
H4 C8 1_555 1_555
H5 C11 1_555 1_555
H6 C11 1_555 1_555
H7 C11 1_555 1_555
H8 C12 1_555 1_555
H9 C12 1_555 1_555
H10 C12 1_555 1_555
H11 C13 1_555 1_555
H12 C13 1_555 1_555
H13 C13 1_555 1_555
H14 C14 1_555 1_555
H15 C14 1_555 1_555
H16 C14 1_555 1_555
H17 C15 1_555 1_555
H18 C15 1_555 1_555
H19 C15 1_555 1_555
H20 C16 1_555 1_555
H21 C16 1_555 1_555
H22 C16 1_555 1_555
H23 C17 1_555 1_555
H24 C17 1_555 1_555
H25 C17 1_555 1_555
H26 C18 1_555 1_555
H27 C18 1_555 1_555
H28 C18 1_555 1_555
H29 C19 1_555 1_555
H30 C19 1_555 1_555
H31 C19 1_555 1_555
H32 C20 1_555 1_555
H33 C20 1_555 1_555
H34 C20 1_555 1_555
H35 C21 1_555 1_555
H36 C21 1_555 1_555
H37 C21 1_555 1_555
H38 C22 1_555 1_555
H39 C22 1_555 1_555
H40 C22 1_555 1_555
C8 C9 1_555 1_555
C9 C10 1_555 1_555

#END
