
#######################################################################
#
#                 Cambridge Crystallographic Data Centre
#                                CCDC 
#
#######################################################################
#
# If this CIF has been generated from an entry in the Cambridge 
# Structural Database, then it will include bibliographic, chemical, 
# crystal, experimental, refinement or atomic coordinate data resulting 
# from the CCDC's data processing and validation procedures.
#
#######################################################################

data_HOXNEP01
_chemical_formula_moiety         'C20 H10 N2 S4'
_chemical_name_systematic        
trans-2,3-bis(2,2'-bithiophen-5-yl)but-2-enedinitrile
_symmetry_cell_setting           monoclinic
_symmetry_space_group_name_H-M   'C 2/c'
_symmetry_Int_Tables_number      15
_space_group_name_Hall           '-C 2yn'
loop_
_symmetry_equiv_pos_site_id
_symmetry_equiv_pos_as_xyz
1 x,y,z
2 -x,y,1/2-z
3 1/2+x,1/2+y,z
4 1/2-x,1/2+y,1/2-z
5 -x,-y,-z
6 x,-y,1/2+z
7 1/2-x,1/2-y,-z
8 1/2+x,1/2-y,1/2+z
_cell_length_a                   14.8446(2)
_cell_length_b                   10.5572(2)
_cell_length_c                   22.3778(4)
_cell_angle_alpha                90
_cell_angle_beta                 95.7282(16)
_cell_angle_gamma                90
_cell_volume                     3489.48
_exptl_crystal_colour            red
_exptl_crystal_description       plate
_cell_formula_units_Z            8
loop_
_atom_site_label
_atom_site_type_symbol
_atom_site_fract_x
_atom_site_fract_y
_atom_site_fract_z
S1 S 0.15373(4) 0.34715(6) 0.03769(3)
C1 C 0.26299(15) 0.4049(2) 0.04706(10)
C2 C 0.28009(16) 0.4819(2) 0.00020(11)
H1 H 0.3366 0.5225 -0.0028
C3 C 0.20522(16) 0.4944(2) -0.04296(11)
H2 H 0.2062 0.5448 -0.0781
C4 C 0.13027(16) 0.4272(2) -0.02989(10)
S2 S 0.42991(6) 0.43749(11) 0.11088(5)
C5 C 0.4562(3) 0.3492(5) 0.17454(19)
H3 H 0.5126 0.3532 0.1986
C6 C 0.3867(3) 0.2728(7) 0.1863(3)
H4 H 0.3882 0.2172 0.2198
C7 C 0.3124(5) 0.2861(7) 0.1432(4)
H5 H 0.2579 0.2396 0.1449
C8 C 0.32398(15) 0.3697(2) 0.09918(10)
C9 C 0.04523(16) 0.4249(2) -0.06851(10)
C10 C 0.04698(16) 0.5046(3) -0.12056(11)
C11 C -0.03233(16) 0.3582(2) -0.06128(10)
C12 C -0.03523(16) 0.2820(3) -0.00803(11)
N1 N 0.05192(16) 0.5719(2) -0.16073(11)
N2 N -0.04280(16) 0.2208(2) 0.03309(10)
S3 S -0.13376(4) 0.42222(6) -0.17171(3)
C13 C -0.11592(16) 0.3533(2) -0.10110(10)
C14 C -0.19284(17) 0.2899(2) -0.08810(11)
H6 H -0.1971 0.2462 -0.0514
C15 C -0.26471(16) 0.2959(2) -0.13440(11)
H7 H -0.3220 0.2571 -0.1320
C16 C -0.24295(15) 0.3638(2) -0.18316(10)
S4 S -0.38270(18) 0.2840(2) -0.26463(14)
C17 C -0.29783(15) 0.3862(2) -0.23976(10)
C18 C -0.2865(9) 0.4776(11) -0.2816(6)
H8 H -0.2402 0.5399 -0.2766
C19 C -0.3493(8) 0.4714(12) -0.3325(6)
H9 H -0.3529 0.5309 -0.3645
C20 C -0.4051(10) 0.3683(12) -0.3304(5)
H10 H -0.4507 0.3459 -0.3614
S5? S 0.2984(7) 0.2625(11) 0.1495(5)
C21? C 0.4052(17) 0.277(4) 0.1874(17)
H11? H 0.4274 0.2271 0.2209
C22? C 0.4535(17) 0.370(3) 0.1626(13)
H12? H 0.5117 0.3982 0.1789
C23? C 0.4068(13) 0.420(3) 0.1102(12)
H13? H 0.4310 0.4820 0.0855
S6? S -0.2772(2) 0.5055(3) -0.28694(15)
C24? C -0.3701(9) 0.3131(11) -0.2623(6)
H14? H -0.3922 0.2432 -0.2413
C25? C -0.4082(11) 0.3518(14) -0.3193(5)
H15? H -0.4588 0.3124 -0.3412
C26? C -0.3630(9) 0.4531(14) -0.3392(6)
H16? H -0.3769 0.4909 -0.3775
loop_
_geom_bond_atom_site_label_1
_geom_bond_atom_site_label_2
_geom_bond_site_symmetry_1
_geom_bond_site_symmetry_2
S1 C1 1_555 1_555
C1 C2 1_555 1_555
C2 H1 1_555 1_555
C3 C2 1_555 1_555
H2 C3 1_555 1_555
C4 S1 1_555 1_555
S2 C5 1_555 1_555
C5 H3 1_555 1_555
C6 C5 1_555 1_555
H4 C6 1_555 1_555
C7 C6 1_555 1_555
H5 C7 1_555 1_555
C8 C1 1_555 1_555
C9 C4 1_555 1_555
C10 C9 1_555 1_555
C11 C9 1_555 1_555
C12 C11 1_555 1_555
N1 C10 1_555 1_555
N2 C12 1_555 1_555
S3 C13 1_555 1_555
C13 C11 1_555 1_555
C14 C13 1_555 1_555
H6 C14 1_555 1_555
C15 C14 1_555 1_555
H7 C15 1_555 1_555
C16 S3 1_555 1_555
S4 C17 1_555 1_555
C17 C16 1_555 1_555
C18 C17 1_555 1_555
H8 C18 1_555 1_555
C19 C18 1_555 1_555
H9 C19 1_555 1_555
C20 S4 1_555 1_555
H10 C20 1_555 1_555
C3 C4 1_555 1_555
S2 C8 1_555 1_555
C7 C8 1_555 1_555
C15 C16 1_555 1_555
C19 C20 1_555 1_555

#END
