
#######################################################################
#
#                 Cambridge Crystallographic Data Centre
#                                CCDC 
#
#######################################################################
#
# If this CIF has been generated from an entry in the Cambridge 
# Structural Database, then it will include bibliographic, chemical, 
# crystal, experimental, refinement or atomic coordinate data resulting 
# from the CCDC's data processing and validation procedures.
#
#######################################################################

data_HOXPOA
_chemical_formula_moiety         'C24 H24 B1 N1 O2'
_chemical_name_systematic        
'Methyl hydrogen (2-(((9-anthrylmethyl)(methyl)amino)methyl)phenyl)boronate'
_symmetry_cell_setting           triclinic
_symmetry_space_group_name_H-M   'P -1'
_symmetry_Int_Tables_number      2
_space_group_name_Hall           '-P 1'
loop_
_symmetry_equiv_pos_site_id
_symmetry_equiv_pos_as_xyz
1 x,y,z
2 -x,-y,-z
_cell_length_a                   9.9127(3)
_cell_length_b                   10.3809(4)
_cell_length_c                   19.5778(7)
_cell_angle_alpha                91.736(2)
_cell_angle_beta                 91.472(2)
_cell_angle_gamma                101.463(2)
_cell_volume                     1972.48
_exptl_crystal_colour            colorless
_exptl_crystal_description       irregular
_cell_formula_units_Z            4
_exptl_crystal_preparation       fluorescent
loop_
_atom_site_label
_atom_site_type_symbol
_atom_site_fract_x
_atom_site_fract_y
_atom_site_fract_z
C1 C -0.20810(14) 0.76003(13) 0.01679(7)
H1 H -0.1997 0.7848 0.0641
C2 C -0.32346(15) 0.77190(14) -0.01906(8)
H2 H -0.3939 0.8052 0.0034
C3 C -0.34051(16) 0.73553(14) -0.08932(8)
H3 H -0.4221 0.7440 -0.1138
C4 C -0.24036(16) 0.68852(14) -0.12176(8)
H4 H -0.2528 0.6640 -0.1690
C5 C -0.11647(15) 0.67509(13) -0.08640(7)
C6 C -0.01393(15) 0.62729(13) -0.12001(7)
H5 H -0.0265 0.6044 -0.1674
C7 C 0.10690(15) 0.61193(13) -0.08620(7)
C8 C 0.21048(16) 0.55922(14) -0.12024(8)
H6 H 0.1971 0.5338 -0.1673
C9 C 0.32743(17) 0.54460(15) -0.08689(8)
H7 H 0.3952 0.5093 -0.1105
C10 C 0.34835(16) 0.58210(14) -0.01682(8)
H8 H 0.4310 0.5726 0.0063
C11 C 0.25221(15) 0.63139(13) 0.01789(8)
H9 H 0.2687 0.6551 0.0651
C12 C 0.12682(14) 0.64847(13) -0.01475(7)
C13 C 0.02396(14) 0.69715(13) 0.02046(7)
C14 C -0.09831(14) 0.71112(13) -0.01455(7)
C15 C 0.04619(14) 0.72682(13) 0.09667(7)
H10 H -0.0441 0.7268 0.1172
H11 H 0.0851 0.6558 0.1174
C16 C 0.06638(16) 0.96276(14) 0.10312(8)
H12 H 0.0307 0.9582 0.0558
H13 H 0.1301 1.0470 0.1122
H14 H -0.0103 0.9553 0.1343
C17 C 0.19002(15) 0.85939(14) 0.18567(7)
H15 H 0.1102 0.8350 0.2153
H16 H 0.2357 0.9509 0.1985
C18 C 0.29019(14) 0.76976(14) 0.19935(7)
C19 C 0.24753(16) 0.65861(15) 0.23728(7)
H17 H 0.1554 0.6389 0.2521
C20 C 0.33639(17) 0.57628(15) 0.25388(7)
H18 H 0.3049 0.5003 0.2793
C21 C 0.47108(17) 0.60478(16) 0.23336(8)
H19 H 0.5333 0.5499 0.2454
C22 C 0.51412(16) 0.71421(15) 0.19501(7)
H20 H 0.6067 0.7328 0.1808
C23 C 0.42682(14) 0.79852(14) 0.17634(7)
C24 C 0.68549(16) 1.06501(15) 0.08889(8)
H21 H 0.6668 1.0372 0.0407
H22 H 0.7852 1.0862 0.0982
H23 H 0.6465 1.1430 0.0988
B1 B 0.48455(17) 0.91425(16) 0.12794(8)
O1 O 0.40517(11) 0.96491(10) 0.08345(5)
H24 H 0.3134(17) 0.9236(16) 0.0843(8)
O2 O 0.62377(10) 0.96035(9) 0.13147(5)
N1 N 0.13924(11) 0.85451(11) 0.11375(6)
C25 C 0.66192(16) 0.32148(15) 0.46588(7)
H25 H 0.7252 0.3097 0.4317
C26 C 0.69372(19) 0.42614(16) 0.51060(8)
H26 H 0.7784 0.4868 0.5070
C27 C 0.6029(2) 0.44615(17) 0.56226(8)
H27 H 0.6262 0.5206 0.5928
C28 C 0.48316(19) 0.36017(17) 0.56849(8)
H28 H 0.4235 0.3741 0.6040
C29 C 0.44435(16) 0.24854(15) 0.52269(7)
C30 C 0.32260(16) 0.15781(16) 0.52904(7)
H29 H 0.2630 0.1711 0.5647
C31 C 0.28460(15) 0.04821(15) 0.48521(7)
C32 C 0.16068(16) -0.04594(16) 0.49425(8)
H30 H 0.1033 -0.0330 0.5309
C33 C 0.12313(16) -0.15296(17) 0.45186(8)
H31 H 0.0405 -0.2146 0.4589
C34 C 0.20741(16) -0.17264(16) 0.39709(8)
H32 H 0.1804 -0.2476 0.3672
C35 C 0.32632(15) -0.08642(15) 0.38639(7)
H33 H 0.3805 -0.1023 0.3489
C36 C 0.37263(15) 0.02814(14) 0.43008(7)
C37 C 0.49724(15) 0.11884(14) 0.42262(7)
C38 C 0.53489(15) 0.22852(14) 0.46910(7)
C39 C 0.59639(15) 0.09951(14) 0.36764(7)
H34 H 0.6896 0.1076 0.3889
H35 H 0.5684 0.0093 0.3474
C40 C 0.47130(16) 0.17596(17) 0.27369(8)
H36 H 0.4757 0.2443 0.2399
H37 H 0.3973 0.1817 0.3052
H38 H 0.4529 0.0892 0.2502
C41 C 0.71394(15) 0.17882(16) 0.26527(7)
H39 H 0.7107 0.2358 0.2259
H40 H 0.6971 0.0865 0.2475
C42 C 0.85587(15) 0.21291(15) 0.29921(7)
C43 C 0.93020(17) 0.11333(16) 0.30693(8)
H41 H 0.8913 0.0269 0.2899
C44 C 1.05926(18) 0.13724(18) 0.33880(10)
H42 H 1.1077 0.0677 0.3439
C45 C 1.11709(18) 0.26208(18) 0.36308(10)
H43 H 1.2047 0.2789 0.3860
C46 C 1.04678(16) 0.36321(17) 0.35385(8)
H44 H 1.0892 0.4497 0.3694
C47 C 0.91543(15) 0.34259(15) 0.32243(7)
C48 C 0.86628(18) 0.69780(16) 0.30227(9)
H45 H 0.8402 0.7051 0.2541
H46 H 0.9334 0.7766 0.3176
H47 H 0.7843 0.6895 0.3300
B2 B 0.84191(18) 0.46313(17) 0.31505(8)
O3 O 0.70428(10) 0.45409(11) 0.31365(5)
H48 H 0.6567(16) 0.3697(17) 0.3205(8)
O4 O 0.92615(10) 0.58419(10) 0.30968(6)
N2 N 0.60294(12) 0.19490(12) 0.31223(6)
loop_
_geom_bond_atom_site_label_1
_geom_bond_atom_site_label_2
_geom_bond_site_symmetry_1
_geom_bond_site_symmetry_2
C1 H1 1_555 1_555
C2 C1 1_555 1_555
H2 C2 1_555 1_555
C3 C2 1_555 1_555
H3 C3 1_555 1_555
C4 C3 1_555 1_555
H4 C4 1_555 1_555
C5 C4 1_555 1_555
C6 C5 1_555 1_555
H5 C6 1_555 1_555
C7 C6 1_555 1_555
C8 C7 1_555 1_555
H6 C8 1_555 1_555
C9 C8 1_555 1_555
H7 C9 1_555 1_555
C10 C9 1_555 1_555
H8 C10 1_555 1_555
C11 C10 1_555 1_555
H9 C11 1_555 1_555
C12 C7 1_555 1_555
C13 C12 1_555 1_555
C14 C1 1_555 1_555
C15 C13 1_555 1_555
H10 C15 1_555 1_555
H11 C15 1_555 1_555
C16 H12 1_555 1_555
H13 C16 1_555 1_555
H14 C16 1_555 1_555
C17 H15 1_555 1_555
H16 C17 1_555 1_555
C18 C17 1_555 1_555
C19 C18 1_555 1_555
H17 C19 1_555 1_555
C20 C19 1_555 1_555
H18 C20 1_555 1_555
C21 C20 1_555 1_555
H19 C21 1_555 1_555
C22 C21 1_555 1_555
H20 C22 1_555 1_555
C23 C18 1_555 1_555
C24 H21 1_555 1_555
H22 C24 1_555 1_555
H23 C24 1_555 1_555
B1 C23 1_555 1_555
O1 B1 1_555 1_555
H24 O1 1_555 1_555
O2 C24 1_555 1_555
N1 C15 1_555 1_555
C25 H25 1_555 1_555
C26 C25 1_555 1_555
H26 C26 1_555 1_555
C27 C26 1_555 1_555
H27 C27 1_555 1_555
C28 C27 1_555 1_555
H28 C28 1_555 1_555
C29 C28 1_555 1_555
C30 C29 1_555 1_555
H29 C30 1_555 1_555
C31 C30 1_555 1_555
C32 C31 1_555 1_555
H30 C32 1_555 1_555
C33 C32 1_555 1_555
H31 C33 1_555 1_555
C34 C33 1_555 1_555
H32 C34 1_555 1_555
C35 C34 1_555 1_555
H33 C35 1_555 1_555
C36 C31 1_555 1_555
C37 C36 1_555 1_555
C38 C25 1_555 1_555
C39 C37 1_555 1_555
H34 C39 1_555 1_555
H35 C39 1_555 1_555
C40 H36 1_555 1_555
H37 C40 1_555 1_555
H38 C40 1_555 1_555
C41 H39 1_555 1_555
H40 C41 1_555 1_555
C42 C41 1_555 1_555
C43 C42 1_555 1_555
H41 C43 1_555 1_555
C44 C43 1_555 1_555
H42 C44 1_555 1_555
C45 C44 1_555 1_555
H43 C45 1_555 1_555
C46 C45 1_555 1_555
H44 C46 1_555 1_555
C47 C42 1_555 1_555
C48 H45 1_555 1_555
H46 C48 1_555 1_555
H47 C48 1_555 1_555
B2 C47 1_555 1_555
O3 B2 1_555 1_555
H48 O3 1_555 1_555
O4 C48 1_555 1_555
N2 C39 1_555 1_555
C5 C14 1_555 1_555
C11 C12 1_555 1_555
C13 C14 1_555 1_555
C16 N1 1_555 1_555
C17 N1 1_555 1_555
C22 C23 1_555 1_555
B1 O2 1_555 1_555
C29 C38 1_555 1_555
C35 C36 1_555 1_555
C37 C38 1_555 1_555
C40 N2 1_555 1_555
C41 N2 1_555 1_555
C46 C47 1_555 1_555
B2 O4 1_555 1_555

#END
