
#######################################################################
#
#                 Cambridge Crystallographic Data Centre
#                                CCDC 
#
#######################################################################
#
# If this CIF has been generated from an entry in the Cambridge 
# Structural Database, then it will include bibliographic, chemical, 
# crystal, experimental, refinement or atomic coordinate data resulting 
# from the CCDC's data processing and validation procedures.
#
#######################################################################

data_HOXPIU
_chemical_formula_moiety         'C23 H22 B1 N1 O2'
_chemical_name_systematic        
'(2-(((9-Anthrylmethyl)(methyl)amino)methyl)phenyl)boronic acid'
_symmetry_cell_setting           monoclinic
_symmetry_space_group_name_H-M   'P 21/n'
_symmetry_Int_Tables_number      14
_space_group_name_Hall           '-P 2yn'
loop_
_symmetry_equiv_pos_site_id
_symmetry_equiv_pos_as_xyz
1 x,y,z
2 1/2-x,1/2+y,1/2-z
3 -x,-y,-z
4 1/2+x,1/2-y,1/2+z
_cell_length_a                   9.8636(13)
_cell_length_b                   12.4780(16)
_cell_length_c                   15.734(2)
_cell_angle_alpha                90
_cell_angle_beta                 98.544(2)
_cell_angle_gamma                90
_cell_volume                     1915.02
_exptl_crystal_colour            colorless
_exptl_crystal_description       thin
_cell_formula_units_Z            4
_exptl_crystal_recrystallization_method dichloromethane
_exptl_crystal_preparation       fluorescent
loop_
_atom_site_label
_atom_site_type_symbol
_atom_site_fract_x
_atom_site_fract_y
_atom_site_fract_z
C1 C 0.84061(11) 0.70328(9) -0.09332(8)
H1 H 0.8581 0.7348 -0.1456
C2 C 0.81746(12) 0.76720(9) -0.02740(8)
H2 H 0.8183 0.8429 -0.0338
C3 C 0.79193(12) 0.72141(9) 0.05110(8)
H3 H 0.7751 0.7669 0.0968
C4 C 0.79118(11) 0.61315(9) 0.06189(7)
H4 H 0.7743 0.5846 0.1153
C5 C 0.81526(10) 0.54123(8) -0.00540(7)
C6 C 0.83915(10) 0.58877(9) -0.08545(7)
C7 C 0.86093(11) 0.52344(9) -0.15388(7)
H5 H 0.8772 0.5554 -0.2062
C8 C 0.85940(11) 0.41195(9) -0.14723(7)
C9 C 0.87774(12) 0.34452(10) -0.21806(8)
H6 H 0.8919 0.3761 -0.2710
C10 C 0.87531(12) 0.23618(10) -0.21097(8)
H7 H 0.8863 0.1927 -0.2591
C11 C 0.85654(12) 0.18767(10) -0.13225(8)
H8 H 0.8555 0.1118 -0.1278
C12 C 0.83991(11) 0.24890(9) -0.06279(8)
H9 H 0.8291 0.2148 -0.0102
C13 C 0.83843(10) 0.36346(8) -0.06743(7)
C14 C 0.81655(10) 0.42832(8) 0.00286(7)
C15 C 0.80223(11) 0.37521(9) 0.08721(7)
H10 H 0.8778(13) 0.3233(10) 0.1017(8)
H11 H 0.8153(13) 0.4288(11) 0.1356(8)
N1 N 0.67233(9) 0.31583(7) 0.08840(6)
C16 C 0.55215(11) 0.38476(9) 0.06326(8)
H12 H 0.5564 0.4465 0.1021
H13 H 0.4683 0.3438 0.0667
H14 H 0.5516 0.4099 0.0042
C17 C 0.67034(11) 0.27375(9) 0.17624(7)
H15 H 0.5809 0.2389 0.1790
H16 H 0.6805 0.3339 0.2177
C18 C 0.78425(11) 0.19372(8) 0.20120(7)
C19 C 0.89473(12) 0.22272(9) 0.26287(7)
H17 H 0.8945 0.2905 0.2903
C20 C 1.00506(12) 0.15383(10) 0.28473(8)
H18 H 1.0800 0.1746 0.3266
C21 C 1.00507(12) 0.05480(10) 0.24510(8)
H19 H 1.0812 0.0080 0.2586
C22 C 0.89366(12) 0.02395(9) 0.18554(8)
H20 H 0.8937 -0.0451 0.1601
C23 C 0.78113(11) 0.09185(9) 0.16183(7)
B1 B 0.65874(13) 0.05077(10) 0.09288(9)
O1 O 0.62856(10) -0.05525(7) 0.09294(6)
H21 H 0.5595(16) -0.0757(13) 0.0536(10)
O2 O 0.58613(8) 0.11717(6) 0.03387(5)
H22 H 0.6178(15) 0.1850(12) 0.0412(9)
loop_
_geom_bond_atom_site_label_1
_geom_bond_atom_site_label_2
_geom_bond_site_symmetry_1
_geom_bond_site_symmetry_2
C1 H1 1_555 1_555
C2 C1 1_555 1_555
H2 C2 1_555 1_555
C3 C2 1_555 1_555
H3 C3 1_555 1_555
C4 C3 1_555 1_555
H4 C4 1_555 1_555
C5 C4 1_555 1_555
C6 C1 1_555 1_555
C7 C6 1_555 1_555
H5 C7 1_555 1_555
C8 C7 1_555 1_555
C9 C8 1_555 1_555
H6 C9 1_555 1_555
C10 C9 1_555 1_555
H7 C10 1_555 1_555
C11 C10 1_555 1_555
H8 C11 1_555 1_555
C12 C11 1_555 1_555
H9 C12 1_555 1_555
C13 C8 1_555 1_555
C14 C5 1_555 1_555
C15 C14 1_555 1_555
H10 C15 1_555 1_555
H11 C15 1_555 1_555
N1 C15 1_555 1_555
C16 N1 1_555 1_555
H12 C16 1_555 1_555
H13 C16 1_555 1_555
H14 C16 1_555 1_555
C17 N1 1_555 1_555
H15 C17 1_555 1_555
H16 C17 1_555 1_555
C18 C17 1_555 1_555
C19 C18 1_555 1_555
H17 C19 1_555 1_555
C20 C19 1_555 1_555
H18 C20 1_555 1_555
C21 C20 1_555 1_555
H19 C21 1_555 1_555
C22 C21 1_555 1_555
H20 C22 1_555 1_555
C23 C18 1_555 1_555
B1 C23 1_555 1_555
O1 B1 1_555 1_555
H21 O1 1_555 1_555
O2 B1 1_555 1_555
H22 O2 1_555 1_555
C5 C6 1_555 1_555
C12 C13 1_555 1_555
C13 C14 1_555 1_555
C22 C23 1_555 1_555

#END
