
#######################################################################
#
#                 Cambridge Crystallographic Data Centre
#                                CCDC 
#
#######################################################################
#
# If this CIF has been generated from an entry in the Cambridge 
# Structural Database, then it will include bibliographic, chemical, 
# crystal, experimental, refinement or atomic coordinate data resulting 
# from the CCDC's data processing and validation procedures.
#
#######################################################################

data_HOYDEF
_chemical_formula_moiety         'C30 H28 N6 O4 S4,2(C1 H2 Cl2)'
_chemical_name_systematic        
"(+)-11,11'-Dideoxyverticillin A dichloromethane solvate"
_chemical_properties_biological  'cytotoxic activity; antiangiogenic activity'
_symmetry_cell_setting           monoclinic
_symmetry_space_group_name_H-M   'P 21'
_symmetry_Int_Tables_number      4
_space_group_name_Hall           'P 2yb'
loop_
_symmetry_equiv_pos_site_id
_symmetry_equiv_pos_as_xyz
1 x,y,z
2 -x,1/2+y,-z
_cell_length_a                   7.7892(7)
_cell_length_b                   20.8034(18)
_cell_length_c                   11.1807(10)
_cell_angle_alpha                90
_cell_angle_beta                 100.540(2)
_cell_angle_gamma                90
_cell_volume                     1781.17
_exptl_crystal_colour            colorless
_exptl_crystal_description       plate
_cell_formula_units_Z            2
_exptl_crystal_recrystallization_method pentane/dichloromethane
loop_
_atom_site_label
_atom_site_type_symbol
_atom_site_fract_x
_atom_site_fract_y
_atom_site_fract_z
S1 S 0.05940(6) 1.00127(2) -0.11623(4)
S2 S 0.29198(7) 1.03360(2) -0.16140(5)
S3 S -0.24288(6) 0.69340(2) 0.25708(4)
S4 S -0.16413(7) 0.65449(2) 0.42955(4)
O1 O -0.0216(2) 0.86993(8) -0.30769(12)
O2 O 0.57447(17) 0.90878(8) -0.03192(13)
O3 O -0.39615(19) 0.84164(8) 0.34339(14)
O4 O 0.20876(17) 0.75318(7) 0.52937(12)
N1 N 0.2455(2) 0.91930(8) -0.28934(14)
N2 N 0.28072(19) 0.89884(7) -0.04271(13)
N3 N 0.3621(2) 0.91416(8) 0.17413(14)
H1 H 0.453(3) 0.8980(11) 0.225(2)
N4 N -0.2426(2) 0.77750(8) 0.49074(14)
N5 N 0.01846(19) 0.77810(7) 0.35561(13)
N6 N 0.27434(19) 0.75434(7) 0.26508(14)
H2 H 0.331(3) 0.7368(11) 0.3282(17)
C1 C 0.0792(2) 0.87076(8) 0.08500(15)
C2 C -0.0155(2) 0.87566(9) -0.04862(15)
H3 H -0.0390 0.8324 -0.0849
H4 H -0.1274 0.8990 -0.0546
C3 C 0.1112(2) 0.91280(8) -0.11223(15)
C4 C 0.1026(2) 0.89710(9) -0.24588(16)
C5 C 0.2335(3) 0.92577(12) -0.42161(18)
H5 H 0.1318 0.9018 -0.4637
H6 H 0.3397 0.9085 -0.4450
H7 H 0.2209 0.9713 -0.4443
C6 C 0.3780(2) 0.95397(9) -0.20575(17)
C7 C 0.5419(3) 0.96950(12) -0.2563(2)
H8 H 0.5956 0.9295 -0.2775
H9 H 0.6247 0.9928 -0.1948
H10 H 0.5109 0.9963 -0.3292
C8 C 0.4248(2) 0.91794(9) -0.08443(17)
C9 C 0.2798(2) 0.87139(9) 0.07995(15)
H11 H 0.3319 0.8273 0.0890
C10 C 0.2353(2) 0.95124(9) 0.21379(15)
C11 C 0.2603(3) 1.00325(10) 0.29353(17)
H12 H 0.3740 1.0153 0.3337
C12 C 0.1139(3) 1.03688(10) 0.31228(18)
H13 H 0.1282 1.0717 0.3682
C13 C -0.0529(3) 1.02138(10) 0.25220(19)
H14 H -0.1497 1.0468 0.2640
C14 C -0.0784(3) 0.96816(9) 0.17405(17)
H15 H -0.1920 0.9568 0.1329
C15 C 0.0667(2) 0.93240(9) 0.15817(16)
C16 C 0.0268(2) 0.80987(8) 0.15226(15)
C17 C -0.1624(2) 0.81442(9) 0.17653(15)
H16 H -0.1956 0.8598 0.1865
H17 H -0.2461 0.7952 0.1086
C18 C -0.1605(2) 0.77685(9) 0.29372(15)
C19 C -0.2792(2) 0.80294(9) 0.37719(16)
C20 C -0.3648(3) 0.78792(11) 0.57491(18)
H18 H -0.4563 0.8180 0.5384
H19 H -0.3015 0.8058 0.6515
H20 H -0.4181 0.7469 0.5909
C21 C -0.1026(2) 0.73111(9) 0.51724(16)
C22 C -0.0568(3) 0.71226(10) 0.65056(17)
H21 H -0.0124 0.7499 0.6992
H22 H 0.0328 0.6787 0.6608
H23 H -0.1615 0.6960 0.6777
C23 C 0.0606(2) 0.75542(9) 0.47044(16)
C24 C 0.1453(2) 0.80146(8) 0.28085(15)
H24 H 0.2002 0.8430 0.3124
C25 C 0.2089(2) 0.71618(9) 0.16433(16)
C26 C 0.2702(2) 0.65713(10) 0.13209(17)
H25 H 0.3714 0.6381 0.1789
C27 C 0.1783(3) 0.62674(10) 0.02868(18)
H26 H 0.2178 0.5864 0.0045
C28 C 0.0292(3) 0.65474(10) -0.03990(17)
H27 H -0.0335 0.6328 -0.1088
C29 C -0.0283(2) 0.71460(9) -0.00802(16)
H28 H -0.1294 0.7336 -0.0551
C30 C 0.0634(2) 0.74629(8) 0.09320(16)
C31 C 0.3970(3) 0.69781(12) 0.8037(2)
H29 H 0.2993 0.6859 0.8449
H30 H 0.3485 0.7049 0.7165
Cl2 Cl 0.49426(8) 0.76993(3) 0.86786(5)
Cl3 Cl 0.54929(9) 0.63427(3) 0.81828(7)
C32 C 0.1955(6) 0.5318(3) 0.4524(5)
H31 H 0.0873 0.5437 0.4817
H32 H 0.1644 0.5232 0.3640
Cl4 Cl 0.34417(19) 0.59681(4) 0.47719(9)
Cl5 Cl 0.28182(10) 0.46237(4) 0.52651(7)
Cl1? Cl -0.2534(7) 1.0605(3) 0.2620(5)
C33? C 0.2350(15) 0.5881(7) 0.4239(14)
Cl6? Cl 0.4488(5) 0.60938(13) 0.4495(3)
Cl7? Cl 0.2035(10) 0.5094(4) 0.4698(8)
H33? H 0.1866 0.5924 0.3360
H34? H 0.1701 0.6179 0.4684
loop_
_geom_bond_atom_site_label_1
_geom_bond_atom_site_label_2
_geom_bond_site_symmetry_1
_geom_bond_site_symmetry_2
S1 S2 1_555 1_555
S2 C6 1_555 1_555
S3 S4 1_555 1_555
S4 C21 1_555 1_555
O1 C4 1_555 1_555
O2 C8 1_555 1_555
O3 C19 1_555 1_555
O4 C23 1_555 1_555
N1 C4 1_555 1_555
N2 C3 1_555 1_555
N3 H1 1_555 1_555
N4 C19 1_555 1_555
N5 C18 1_555 1_555
N6 H2 1_555 1_555
C1 C2 1_555 1_555
C2 H3 1_555 1_555
H4 C2 1_555 1_555
C3 S1 1_555 1_555
C4 C3 1_555 1_555
C5 N1 1_555 1_555
H5 C5 1_555 1_555
H6 C5 1_555 1_555
H7 C5 1_555 1_555
C6 N1 1_555 1_555
C7 C6 1_555 1_555
H8 C7 1_555 1_555
H9 C7 1_555 1_555
H10 C7 1_555 1_555
C8 N2 1_555 1_555
C9 N2 1_555 1_555
H11 C9 1_555 1_555
C10 N3 1_555 1_555
C11 C10 1_555 1_555
H12 C11 1_555 1_555
C12 C11 1_555 1_555
H13 C12 1_555 1_555
C13 C12 1_555 1_555
H14 C13 1_555 1_555
C14 C13 1_555 1_555
H15 C14 1_555 1_555
C15 C1 1_555 1_555
C16 C1 1_555 1_555
C17 C16 1_555 1_555
H16 C17 1_555 1_555
H17 C17 1_555 1_555
C18 S3 1_555 1_555
C19 C18 1_555 1_555
C20 N4 1_555 1_555
H18 C20 1_555 1_555
H19 C20 1_555 1_555
H20 C20 1_555 1_555
C21 N4 1_555 1_555
C22 C21 1_555 1_555
H21 C22 1_555 1_555
H22 C22 1_555 1_555
H23 C22 1_555 1_555
C23 N5 1_555 1_555
C24 N5 1_555 1_555
H24 C24 1_555 1_555
C25 N6 1_555 1_555
C26 C25 1_555 1_555
H25 C26 1_555 1_555
C27 C26 1_555 1_555
H26 C27 1_555 1_555
C28 C27 1_555 1_555
H27 C28 1_555 1_555
C29 C28 1_555 1_555
H28 C29 1_555 1_555
C30 C16 1_555 1_555
C31 H29 1_555 1_555
H30 C31 1_555 1_555
Cl2 C31 1_555 1_555
Cl3 C31 1_555 1_555
C32 H31 1_555 1_555
H32 C32 1_555 1_555
Cl4 C32 1_555 1_555
Cl5 C32 1_555 1_555
N3 C9 1_555 1_555
N6 C24 1_555 1_555
C1 C9 1_555 1_555
C2 C3 1_555 1_555
C6 C8 1_555 1_555
C10 C15 1_555 1_555
C14 C15 1_555 1_555
C16 C24 1_555 1_555
C17 C18 1_555 1_555
C21 C23 1_555 1_555
C25 C30 1_555 1_555
C29 C30 1_555 1_555

#END
