
#######################################################################
#
#                 Cambridge Crystallographic Data Centre
#                                CCDC 
#
#######################################################################
#
# If this CIF has been generated from an entry in the Cambridge 
# Structural Database, then it will include bibliographic, chemical, 
# crystal, experimental, refinement or atomic coordinate data resulting 
# from the CCDC's data processing and validation procedures.
#
#######################################################################

data_HOYFIL
_chemical_formula_moiety         'C33 H26 N4'
_chemical_name_systematic        
9-(2-(4-Pyridinyl)ethyl)-3,6-bis(2-(4-pyridinyl)vinyl)-9H-carbazole
_symmetry_cell_setting           monoclinic
_symmetry_space_group_name_H-M   'P 21/n'
_symmetry_Int_Tables_number      14
_space_group_name_Hall           '-P 2yn'
loop_
_symmetry_equiv_pos_site_id
_symmetry_equiv_pos_as_xyz
1 x,y,z
2 1/2-x,1/2+y,1/2-z
3 -x,-y,-z
4 1/2+x,1/2-y,1/2+z
_cell_length_a                   13.664(5)
_cell_length_b                   9.847(4)
_cell_length_c                   18.924(7)
_cell_angle_alpha                90
_cell_angle_beta                 93.375(7)
_cell_angle_gamma                90
_cell_volume                     2541.8
_cell_formula_units_Z            4
_exptl_crystal_preparation       fluorescent
loop_
_atom_site_label
_atom_site_type_symbol
_atom_site_fract_x
_atom_site_fract_y
_atom_site_fract_z
N1 N 0.49465(17) 0.7913(2) 0.11941(10)
N2 N 0.1130(2) 0.1252(3) -0.25199(14)
N3 N 0.8966(2) 1.3163(3) -0.26617(16)
N4 N 0.4616(3) 0.8208(4) 0.45748(14)
C1 C 0.4424(2) 0.7012(3) 0.07586(12)
C2 C 0.3695(2) 0.6115(3) 0.09152(13)
H1 H 0.3500 0.6029 0.1375
C3 C 0.3263(2) 0.5349(3) 0.03755(13)
H2 H 0.2770 0.4739 0.0476
C4 C 0.3545(2) 0.5461(3) -0.03202(13)
C5 C 0.4291(2) 0.6351(3) -0.04631(13)
H3 H 0.4495 0.6420 -0.0922
C6 C 0.4738(2) 0.7142(2) 0.00694(12)
C7 C 0.54805(19) 0.8161(2) 0.00904(13)
C8 C 0.6043(2) 0.8749(3) -0.04122(14)
H4 H 0.5968 0.8460 -0.0880
C9 C 0.6705(2) 0.9748(3) -0.02319(18)
C10 C 0.6813(2) 1.0178(3) 0.0482(2)
H5 H 0.7267 1.0852 0.0607
C11 C 0.6258(2) 0.9615(3) 0.09980(16)
H6 H 0.6326 0.9909 0.1465
C12 C 0.5602(2) 0.8609(3) 0.07954(14)
C13 C 0.3084(2) 0.4655(3) -0.08980(14)
H7 H 0.3323 0.4787 -0.1343
C14 C 0.2373(2) 0.3771(3) -0.08621(15)
H8 H 0.2127 0.3640 -0.0419
C15 C 0.1925(2) 0.2966(3) -0.14475(14)
C16 C 0.1336(2) 0.1887(3) -0.13069(16)
H9 H 0.1184 0.1705 -0.0844
C17 C 0.0969(3) 0.1075(3) -0.18442(19)
H10 H 0.0577 0.0346 -0.1726
C18 C 0.1667(3) 0.2330(4) -0.26564(16)
H11 H 0.1780 0.2509 -0.3127
C19 C 0.2069(2) 0.3202(3) -0.21528(15)
H12 H 0.2436 0.3945 -0.2286
C20 C 0.7195(6) 1.0250(8) -0.0885(5)
C21 C 0.7828(5) 1.1206(6) -0.0858(4)
C22 C 0.8174(4) 1.1672(6) -0.1563(3)
C23 C 0.8732(4) 1.2799(6) -0.1455(2)
H13 H 0.8864 1.3106 -0.0994
C24 C 0.9098(3) 1.3485(4) -0.1988(2)
H14 H 0.9476 1.4248 -0.1875
C25 C 0.8450(3) 1.2057(4) -0.27829(19)
H15 H 0.8355 1.1766 -0.3249
C26 C 0.8040(3) 1.1302(4) -0.2270(3)
H16 H 0.7671 1.0537 -0.2395
C27 C 0.4756(2) 0.8204(3) 0.19371(13)
H17 H 0.4913 0.9146 0.2041
H18 H 0.4064 0.8072 0.2005
C28 C 0.5334(2) 0.7329(3) 0.24307(14)
H19 H 0.6027 0.7486 0.2382
H20 H 0.5195 0.6383 0.2321
C29 C 0.5077(2) 0.7635(3) 0.31901(13)
C30 C 0.5668(3) 0.8415(3) 0.36256(16)
H21 H 0.6241 0.8779 0.3464
C31 C 0.5421(4) 0.8664(4) 0.42998(17)
H22 H 0.5846 0.9191 0.4587
C32 C 0.4064(3) 0.7439(4) 0.4149(2)
H23 H 0.3501 0.7071 0.4325
C33 C 0.4253(3) 0.7140(3) 0.34726(16)
H24 H 0.3821 0.6597 0.3200
H25 H 0.702(2) 0.993(3) -0.1405(15)
H26 H 0.795(2) 1.152(3) -0.0360(16)
C34? C 0.7384(10) 1.0675(13) -0.0567(6)
C35? C 0.7482(8) 1.0518(12) -0.1278(5)
loop_
_geom_bond_atom_site_label_1
_geom_bond_atom_site_label_2
_geom_bond_site_symmetry_1
_geom_bond_site_symmetry_2
N1 C1 1_555 1_555
N2 C17 1_555 1_555
N3 C24 1_555 1_555
N4 C31 1_555 1_555
C1 C2 1_555 1_555
C2 H1 1_555 1_555
C3 C2 1_555 1_555
H2 C3 1_555 1_555
C4 C3 1_555 1_555
C5 C4 1_555 1_555
H3 C5 1_555 1_555
C6 C1 1_555 1_555
C7 C6 1_555 1_555
C8 C7 1_555 1_555
H4 C8 1_555 1_555
C9 C8 1_555 1_555
C10 C9 1_555 1_555
H5 C10 1_555 1_555
C11 C10 1_555 1_555
H6 C11 1_555 1_555
C12 N1 1_555 1_555
C13 C4 1_555 1_555
H7 C13 1_555 1_555
C14 C13 1_555 1_555
H8 C14 1_555 1_555
C15 C14 1_555 1_555
C16 C15 1_555 1_555
H9 C16 1_555 1_555
C17 C16 1_555 1_555
H10 C17 1_555 1_555
C18 N2 1_555 1_555
H11 C18 1_555 1_555
C19 C15 1_555 1_555
H12 C19 1_555 1_555
C20 C9 1_555 1_555
C21 C20 1_555 1_555
C22 C21 1_555 1_555
C23 C22 1_555 1_555
H13 C23 1_555 1_555
C24 C23 1_555 1_555
H14 C24 1_555 1_555
C25 N3 1_555 1_555
H15 C25 1_555 1_555
C26 C22 1_555 1_555
H16 C26 1_555 1_555
C27 N1 1_555 1_555
H17 C27 1_555 1_555
H18 C27 1_555 1_555
C28 C27 1_555 1_555
H19 C28 1_555 1_555
H20 C28 1_555 1_555
C29 C28 1_555 1_555
C30 C29 1_555 1_555
H21 C30 1_555 1_555
C31 C30 1_555 1_555
H22 C31 1_555 1_555
C32 N4 1_555 1_555
H23 C32 1_555 1_555
C33 C29 1_555 1_555
H24 C33 1_555 1_555
H25 C20 1_555 1_555
H26 C21 1_555 1_555
C5 C6 1_555 1_555
C7 C12 1_555 1_555
C11 C12 1_555 1_555
C18 C19 1_555 1_555
C25 C26 1_555 1_555
C32 C33 1_555 1_555

#END
