
#######################################################################
#
#                 Cambridge Crystallographic Data Centre
#                                CCDC 
#
#######################################################################
#
# If this CIF has been generated from an entry in the Cambridge 
# Structural Database, then it will include bibliographic, chemical, 
# crystal, experimental, refinement or atomic coordinate data resulting 
# from the CCDC's data processing and validation procedures.
#
#######################################################################

data_HOYKAJ
_chemical_formula_moiety         
'C107 H164 Mg4 N3 O14 1-,C6 H16 N1 1+,4(C7 H8),C4 H10 O1'
_chemical_name_systematic        
'triethylammonium tris(\m-2-[bis(3,5-di-t-butyl-2-oxidobenzyl)amino]propanoato)-bis(butan-2-ol)-tetra-magnesium butan-2-ol toluene solvate'
_symmetry_cell_setting           monoclinic
_symmetry_space_group_name_H-M   'P 21'
_symmetry_Int_Tables_number      4
_space_group_name_Hall           'P 2yb'
loop_
_symmetry_equiv_pos_site_id
_symmetry_equiv_pos_as_xyz
1 x,y,z
2 -x,1/2+y,-z
_cell_length_a                   15.8715(5)
_cell_length_b                   26.8064(8)
_cell_length_c                   17.2847(5)
_cell_angle_alpha                90
_cell_angle_beta                 103.577(3)
_cell_angle_gamma                90
_cell_volume                     7148.41
_exptl_crystal_colour            'light yellow'
_exptl_crystal_description       block
_cell_formula_units_Z            2
loop_
_atom_site_label
_atom_site_type_symbol
_atom_site_fract_x
_atom_site_fract_y
_atom_site_fract_z
C1 C 0.36374(4) 0.40500(3) 0.23256(4)
C2 C 0.43862(4) 0.38319(3) 0.27794(5)
H1 H 0.4625 0.3555 0.2586
C3 C 0.47777(6) 0.40273(5) 0.35216(5)
H2 H 0.5279 0.3881 0.3825
C4 C 0.44203(8) 0.44409(5) 0.38100(5)
H3 H 0.4682 0.4572 0.4307
C5 C 0.36715(8) 0.46590(4) 0.33562(6)
H4 H 0.3432 0.4936 0.3549
C6 C 0.32800(6) 0.44636(3) 0.26140(5)
H5 H 0.2779 0.4610 0.2310
C7 C 0.31633(18) 0.37981(9) 0.15554(15)
H6 H 0.3506 0.3525 0.1438
H7 H 0.3072 0.4035 0.1128
H8 H 0.2614 0.3675 0.1615
Mg1 Mg 0.345000(6) 0.686780(4) 0.921690(6)
Mg2 Mg 0.175870(6) 0.756550(4) 0.811240(6)
Mg3 Mg 0.282400(6) 0.650550(4) 1.092480(6)
Mg4 Mg 0.350650(8) 0.572450(4) 0.806050(6)
N1 N 0.212960(16) 0.714340(11) 1.129580(15)
N2 N 0.164110(18) 0.738900(11) 0.682870(16)
N3 N 0.408220(19) 0.518530(11) 0.899980(16)
O1 O 0.198580(15) 0.606640(10) 1.116000(14)
O2 O 0.393060(14) 0.674120(9) 1.154580(13)
O3 O 0.257590(13) 0.694730(9) 0.991440(12)
O4 O 0.187870(14) 0.760540(9) 0.931340(12)
O5 O 0.049620(15) 0.759980(11) 0.786500(15)
O6 O 0.278990(17) 0.798010(10) 0.810130(14)
O7 O 0.240450(14) 0.689720(9) 0.821170(12)
O8 O 0.290680(16) 0.633610(9) 0.749530(14)
O9 O 0.259220(19) 0.525860(11) 0.766610(16)
O10 O 0.453990(18) 0.574850(12) 0.767900(18)
O11 O 0.358870(15) 0.612460(9) 0.913410(13)
O12 O 0.346210(16) 0.602540(10) 1.037220(14)
O13 O 0.436080(16) 0.707390(11) 1.024130(14)
H9 H 0.3997 0.6896 1.0577
O14 O 0.401980(16) 0.732320(11) 0.855750(15)
H10 H 0.3756 0.7582 0.8410
C8 C 0.11613(2) 0.614850(13) 1.115520(19)
C9 C 0.05142(3) 0.579660(15) 1.08230(2)
C10 C -0.03325(3) 0.589360(17) 1.08914(3)
H11 H -0.0760 0.5663 1.0672
C11 C -0.05765(2) 0.630770(16) 1.12616(3)
C12 C 0.00643(2) 0.666420(15) 1.15460(2)
H12 H -0.0082 0.6957 1.1771
C13 C 0.09197(2) 0.658700(14) 1.149720(19)
C14 C 0.16032(2) 0.696910(13) 1.185560(18)
H13 H 0.1321 0.7255 1.2029
H14 H 0.1989 0.6825 1.2322
C15 C 0.07444(3) 0.532670(17) 1.04044(3)
C16 C 0.11999(4) 0.54646(2) 0.97421(3)
H15 H 0.0825 0.5672 0.9356
H16 H 0.1334 0.5166 0.9489
H17 H 0.1725 0.5642 0.9967
C17 C 0.13434(4) 0.499620(18) 1.10226(4)
H18 H 0.1854 0.5181 1.1270
H19 H 0.1505 0.4706 1.0765
H20 H 0.1046 0.4895 1.1420
C18 C -0.00553(4) 0.50251(2) 1.00082(5)
H21 H -0.0436 0.5229 0.9620
H22 H -0.0352 0.4918 1.0404
H23 H 0.0118 0.4738 0.9751
C19 C -0.15121(3) 0.63693(3) 1.13603(4)
C20 C -0.16571(5) 0.68311(5) 1.18506(7)
H24 H -0.1108 0.6951 1.2153
H25 H -0.2014 0.6740 1.2206
H26 H -0.1939 0.7089 1.1497
C21 C -0.21535(5) 0.63990(5) 1.05589(8)
H27 H -0.2200 0.6738 1.0377
H28 H -0.2710 0.6284 1.0611
H29 H -0.1956 0.6194 1.0182
C22 C -0.17791(5) 0.59327(5) 1.17756(8)
H30 H -0.1535 0.5961 1.2337
H31 H -0.1575 0.5632 1.1579
H32 H -0.2400 0.5923 1.1679
C23 C 0.39978(2) 0.691880(14) 1.227820(18)
C24 C 0.45753(2) 0.670310(16) 1.29493(2)
C25 C 0.46285(3) 0.692480(19) 1.36872(2)
H33 H 0.5016 0.6789 1.4125
C26 C 0.41456(3) 0.733220(18) 1.38142(2)
C27 C 0.35493(2) 0.752240(15) 1.31511(2)
H34 H 0.3209 0.7795 1.3213
C28 C 0.34572(2) 0.730840(13) 1.239670(18)
C29 C 0.27830(2) 0.752010(13) 1.170120(19)
H35 H 0.2482 0.7792 1.1892
H36 H 0.3076 0.7657 1.1315
C30 C 0.50873(3) 0.62261(2) 1.28624(3)
C31 C 0.56228(5) 0.60518(3) 1.36661(4)
H37 H 0.5935 0.5755 1.3596
H38 H 0.5245 0.5982 1.4013
H39 H 0.6025 0.6309 1.3897
C32 C 0.44726(4) 0.58042(2) 1.25280(3)
H40 H 0.4800 0.5510 1.2479
H41 H 0.4130 0.5897 1.2014
H42 H 0.4099 0.5739 1.2880
C33 C 0.56980(3) 0.63078(2) 1.23129(4)
H43 H 0.6007 0.6005 1.2274
H44 H 0.6103 0.6568 1.2525
H45 H 0.5368 0.6403 1.1794
C34 C 0.42472(3) 0.75513(2) 1.46529(2)
C35 C 0.51980(4) 0.76131(3) 1.50645(3)
H46 H 0.5466 0.7840 1.4765
H47 H 0.5483 0.7295 1.5098
H48 H 0.5247 0.7743 1.5590
C36 C 0.38282(4) 0.71880(3) 1.51394(3)
H49 H 0.3886 0.7318 1.5667
H50 H 0.4112 0.6870 1.5168
H51 H 0.3225 0.7149 1.4887
C37 C 0.37795(5) 0.80418(3) 1.46479(3)
H52 H 0.4019 0.8283 1.4349
H53 H 0.3847 0.8158 1.5184
H54 H 0.3175 0.7997 1.4407
C38 C 0.15758(2) 0.734930(14) 1.055360(19)
H55 H 0.1078 0.7123 1.0410
C39 C 0.204300(19) 0.730710(12) 0.987890(18)
C40 C 0.11916(3) 0.786830(17) 1.05965(2)
H56 H 0.0905 0.7880 1.1028
H57 H 0.0781 0.7939 1.0105
H58 H 0.1647 0.8112 1.0683
C41 C -0.00523(2) 0.731640(16) 0.73232(2)
C42 C -0.07076(3) 0.702490(19) 0.75233(3)
C43 C -0.12566(3) 0.67599(2) 0.68958(5)
H59 H -0.1692 0.6565 0.7019
C44 C -0.11942(3) 0.67688(2) 0.61121(4)
C45 C -0.05227(3) 0.70336(2) 0.59447(3)
H60 H -0.0442 0.7031 0.5429
C46 C 0.00493(3) 0.731040(17) 0.65353(2)
C47 C 0.08002(2) 0.757100(17) 0.63339(2)
H61 H 0.0787 0.7517 0.5776
H62 H 0.0751 0.7927 0.6416
C48 C -0.07696(3) 0.69471(2) 0.83867(4)
C49 C 0.00576(4) 0.67103(2) 0.88546(3)
H63 H 0.0542 0.6918 0.8824
H64 H 0.0127 0.6388 0.8636
H65 H 0.0030 0.6675 0.9401
C50 C -0.09088(4) 0.74378(3) 0.87822(5)
H66 H -0.0464 0.7670 0.8732
H67 H -0.0884 0.7381 0.9335
H68 H -0.1466 0.7572 0.8528
C51 C -0.14922(4) 0.65839(4) 0.84855(7)
H69 H -0.1491 0.6555 0.9039
H70 H -0.1391 0.6262 0.8281
H71 H -0.2044 0.6709 0.8198
C52 C -0.18953(6) 0.64221(5) 0.56033(7)
C53 C -0.28127(6) 0.66289(7) 0.55837(9)
H72 H -0.2862 0.6962 0.5374
H73 H -0.2903 0.6633 0.6114
H74 H -0.3241 0.6420 0.5252
C54 C -0.18659(11) 0.58939(6) 0.59178(11)
H75 H -0.1306 0.5752 0.5936
H76 H -0.2305 0.5698 0.5573
H77 H -0.1968 0.5897 0.6444
C55 C -0.17240(8) 0.64432(7) 0.48083(8)
H78 H -0.1753 0.6783 0.4630
H79 H -0.2150 0.6248 0.4446
H80 H -0.1157 0.6312 0.4827
C56 C 0.27326(2) 0.832760(15) 0.75249(2)
C57 C 0.29481(3) 0.883070(16) 0.76955(2)
C58 C 0.28174(3) 0.916240(18) 0.70554(3)
H81 H 0.2954 0.9496 0.7167
C59 C 0.24982(3) 0.902950(17) 0.62629(3)
C60 C 0.23347(3) 0.852450(16) 0.61141(2)
H82 H 0.2136 0.8416 0.5592
C61 C 0.24627(2) 0.817890(15) 0.67293(2)
C62 C 0.23538(2) 0.762700(15) 0.654630(19)
H83 H 0.2249 0.7581 0.5975
H84 H 0.2892 0.7458 0.6788
C63 C 0.33587(4) 0.90049(2) 0.85481(3)
C64 C 0.42459(5) 0.87491(3) 0.88328(4)
H85 H 0.4170 0.8394 0.8811
H86 H 0.4502 0.8848 0.9370
H87 H 0.4619 0.8846 0.8495
C65 C 0.35094(6) 0.95740(2) 0.85882(4)
H88 H 0.2965 0.9743 0.8413
H89 H 0.3887 0.9664 0.8250
H90 H 0.3771 0.9669 0.9126
C66 C 0.27878(6) 0.88937(3) 0.91125(3)
H91 H 0.2238 0.9056 0.8929
H92 H 0.3061 0.9014 0.9634
H93 H 0.2701 0.8540 0.9134
C67 C 0.23275(6) 0.94220(2) 0.55958(4)
C68 C 0.29491(7) 0.98694(3) 0.58192(5)
H94 H 0.2834 1.0109 0.5395
H95 H 0.3537 0.9756 0.5904
H96 H 0.2863 1.0022 0.6297
C69 C 0.25240(7) 0.92340(3) 0.48606(4)
H97 H 0.2142 0.8962 0.4657
H98 H 0.3114 0.9120 0.4971
H99 H 0.2445 0.9497 0.4473
C70 C 0.14401(7) 0.96058(3) 0.54833(5)
H100 H 0.1042 0.9333 0.5346
H101 H 0.1326 0.9848 0.5063
H102 H 0.1369 0.9757 0.5967
C71 C 0.17113(2) 0.683540(14) 0.681710(19)
H103 H 0.1159 0.6706 0.6893
C72 C 0.24097(2) 0.667060(13) 0.755520(18)
C73 C 0.18447(3) 0.659810(17) 0.60513(2)
H104 H 0.1399 0.6710 0.5609
H105 H 0.1818 0.6242 0.6092
H106 H 0.2401 0.6693 0.5972
C74 C 0.23297(3) 0.485750(15) 0.79824(2)
C75 C 0.14348(3) 0.471590(18) 0.77839(3)
C76 C 0.11849(3) 0.429540(18) 0.81503(3)
H107 H 0.0602 0.4208 0.8026
C77 C 0.17653(3) 0.399660(18) 0.86972(3)
C78 C 0.26264(3) 0.413950(16) 0.88615(3)
H108 H 0.3030 0.3948 0.9216
C79 C 0.29157(2) 0.455660(14) 0.85207(2)
C80 C 0.38691(2) 0.467370(14) 0.86945(2)
H109 H 0.4178 0.4437 0.9083
H110 H 0.4071 0.4631 0.8211
C81 C 0.07726(4) 0.50169(2) 0.71720(3)
C82 C 0.07328(4) 0.55598(2) 0.74295(4)
H111 H 0.1299 0.5706 0.7515
H112 H 0.0537 0.5573 0.7914
H113 H 0.0337 0.5741 0.7021
C83 C 0.10261(6) 0.50079(3) 0.63686(4)
H114 H 0.1600 0.5141 0.6433
H115 H 0.0625 0.5207 0.5991
H116 H 0.1012 0.4671 0.6179
C84 C -0.01347(5) 0.47979(4) 0.70462(6)
H117 H -0.0533 0.4995 0.6662
H118 H -0.0310 0.4799 0.7541
H119 H -0.0134 0.4462 0.6855
C85 C 0.14484(3) 0.353740(19) 0.90875(3)
C86 C 0.21690(5) 0.31975(3) 0.94576(6)
H120 H 0.2570 0.3371 0.9873
H121 H 0.2463 0.3089 0.9061
H122 H 0.1940 0.2913 0.9677
C87 C 0.08314(5) 0.32145(2) 0.84117(5)
H123 H 0.0627 0.2929 0.8648
H124 H 0.1149 0.3107 0.8033
H125 H 0.0346 0.3414 0.8147
C88 C 0.08735(5) 0.36935(3) 0.96196(5)
H126 H 0.1200 0.3892 1.0049
H127 H 0.0655 0.3403 0.9831
H128 H 0.0398 0.3886 0.9320
C89 C 0.51756(2) 0.541750(16) 0.77816(2)
C90 C 0.55720(3) 0.529460(19) 0.71520(2)
C91 C 0.62728(3) 0.496810(17) 0.73060(2)
H129 H 0.6550 0.4902 0.6899
C92 C 0.65775(2) 0.473740(16) 0.80278(3)
C93 C 0.61531(2) 0.483930(15) 0.86285(2)
H130 H 0.6334 0.4681 0.9118
C94 C 0.54622(2) 0.517340(15) 0.85115(2)
C95 C 0.50446(2) 0.527630(14) 0.91992(2)
H131 H 0.5315 0.5066 0.9645
H132 H 0.5154 0.5621 0.9365
C96 C 0.52517(4) 0.55113(3) 0.63253(3)
C97 C 0.42961(6) 0.53736(7) 0.60061(4)
H133 H 0.3966 0.5488 0.6371
H134 H 0.4242 0.5018 0.5951
H135 H 0.4082 0.5528 0.5497
C98 C 0.53680(6) 0.60833(3) 0.63718(4)
H136 H 0.5052 0.6218 0.6734
H137 H 0.5153 0.6225 0.5853
H138 H 0.5972 0.6162 0.6557
C99 C 0.57696(5) 0.53221(4) 0.57268(3)
H139 H 0.5718 0.4966 0.5680
H140 H 0.6369 0.5411 0.5913
H141 H 0.5543 0.5472 0.5216
C100 C 0.73514(3) 0.43785(2) 0.81599(3)
C101 C 0.80298(7) 0.45185(7) 0.87650(9)
H142 H 0.7936 0.4399 0.9262
H143 H 0.8073 0.4876 0.8780
H144 H 0.8557 0.4379 0.8678
C102 C 0.69677(8) 0.38654(4) 0.84046(8)
H145 H 0.6364 0.3907 0.8392
H146 H 0.7275 0.3773 0.8932
H147 H 0.7034 0.3609 0.8036
C103 C 0.75842(7) 0.42253(6) 0.73784(7)
H148 H 0.7200 0.3966 0.7127
H149 H 0.8171 0.4106 0.7490
H150 H 0.7527 0.4508 0.7030
C104 C 0.36933(2) 0.529580(14) 0.96786(2)
H151 H 0.3104 0.5160 0.9532
C105 C 0.35885(2) 0.585390(13) 0.974620(18)
C106 C 0.41185(3) 0.505760(17) 1.04761(2)
H152 H 0.4173 0.4705 1.0407
H153 H 0.3767 0.5118 1.0849
H154 H 0.4683 0.5200 1.0674
C107 C 0.58497(3) 0.72826(3) 1.08378(5)
H155 H 0.6026 0.7022 1.0528
H156 H 0.5804 0.7151 1.1343
H157 H 0.6272 0.7546 1.0921
C108 C 0.49769(2) 0.748630(17) 1.03975(2)
H158 H 0.5038 0.7619 0.9885
C109 C 0.46487(3) 0.789750(17) 1.08377(3)
H159 H 0.4574 0.7769 1.1342
H160 H 0.4086 0.8005 1.0531
C110 C 0.52611(3) 0.83496(2) 1.09951(3)
H161 H 0.5022 0.8601 1.1277
H162 H 0.5328 0.8483 1.0498
H163 H 0.5816 0.8247 1.1309
C111 C 0.47063(3) 0.74323(3) 0.74668(3)
H164 H 0.4410 0.7745 0.7342
H165 H 0.4366 0.7170 0.7167
H166 H 0.5259 0.7448 0.7333
C112 C 0.48352(3) 0.73288(2) 0.83335(3)
H167 H 0.5178 0.7604 0.8622
C113 C 0.53023(3) 0.68614(2) 0.86041(3)
H168 H 0.4979 0.6588 0.8308
H169 H 0.5301 0.6813 0.9160
C114 C 0.62224(4) 0.68267(5) 0.85241(5)
H170 H 0.6458 0.6507 0.8712
H171 H 0.6561 0.7085 0.8834
H172 H 0.6237 0.6865 0.7975
N4 N 0.83797(6) 0.84626(4) 0.59585(5)
H200 H 0.8820 0.8449 0.6403
C125 C 0.87820(8) 0.83354(5) 0.52907(6)
H201 H 0.8340 0.8337 0.4796
H202 H 0.9023 0.8002 0.5370
C126 C 0.94996(11) 0.87032(7) 0.52259(7)
H203 H 0.9743 0.8609 0.4789
H204 H 0.9944 0.8698 0.5710
H205 H 0.9262 0.9033 0.5138
C127 C 0.80451(8) 0.89783(5) 0.59342(6)
H206 H 0.8503 0.9212 0.5904
H207 H 0.7854 0.9047 0.6417
C128 C 0.72680(9) 0.90458(7) 0.51925(7)
H208 H 0.7063 0.9384 0.5173
H209 H 0.6808 0.8822 0.5234
H210 H 0.7457 0.8973 0.4716
C129 C 0.78003(8) 0.80061(6) 0.60207(10)
H211 H 0.7348 0.7978 0.5536
H212 H 0.8147 0.7705 0.6077
C130 C 0.74188(8) 0.80535(9) 0.66813(12)
H213 H 0.7067 0.7766 0.6710
H214 H 0.7065 0.8348 0.6620
H215 H 0.7866 0.8079 0.7162
O15 O -0.03151(3) 0.846350(17) 0.73377(3)
H216 H -0.0069 0.8201 0.7497
C131 C 0.01252(7) 0.87717(3) 0.86635(4)
H217 H 0.0408 0.9047 0.8973
H218 H 0.0439 0.8470 0.8837
H219 H -0.0456 0.8742 0.8732
C132 C 0.01002(10) 0.88590(3) 0.78025(5)
C133 C 0.04685(9) 0.91768(6) 0.74819(7)
H220 H 0.0056 0.9273 0.6997
H221 H 0.0935 0.9004 0.7318
C134 C 0.08580(7) 0.96607(4) 0.78673(7)
H222 H 0.1119 0.9840 0.7503
H223 H 0.1291 0.9586 0.8343
H224 H 0.0410 0.9861 0.7999
C135 C 0.46953(11) 0.39094(8) 0.67901(10)
H225 H 0.4498 0.4246 0.6820
H226 H 0.4853 0.3861 0.6292
H227 H 0.5190 0.3850 0.7220
C136 C 0.40252(5) 0.35739(4) 0.68458(4)
C137 C 0.40520(5) 0.30490(3) 0.68191(4)
H228 H 0.4546 0.2883 0.6755
C138 C 0.33181(6) 0.27855(4) 0.68921(5)
H229 H 0.3325 0.2439 0.6873
C139 C 0.26136(6) 0.30139(5) 0.69881(5)
H230 H 0.2133 0.2833 0.7048
C140 C 0.26081(5) 0.35315(4) 0.69973(4)
H231 H 0.2111 0.3696 0.7057
C141 C 0.32770(5) 0.37944(3) 0.69254(4)
H232 H 0.3242 0.4141 0.6929
C142 C 0.03680(15) 0.53474(8) 0.38824(13)
H233 H 0.0034 0.5329 0.3343
H234 H 0.0080 0.5561 0.4184
H235 H 0.0426 0.5020 0.4113
C143 C 0.11344(10) 0.55270(4) 0.38927(6)
C144 C 0.12966(8) 0.56088(4) 0.31502(5)
H236 H 0.0887 0.5528 0.2688
C145 C 0.20624(7) 0.58085(3) 0.31181(4)
H237 H 0.2200 0.5846 0.2627
C146 C 0.26650(9) 0.59633(5) 0.38171(6)
H238 H 0.3161 0.6138 0.3780
C147 C 0.25240(8) 0.58610(5) 0.45159(6)
H239 H 0.2938 0.5940 0.4977
C148 C 0.17727(8) 0.56401(4) 0.45631(4)
H240 H 0.1682 0.5562 0.5062
C149 C -0.01342(3) 0.77377(3) 0.36493(2)
H241 H -0.0538 0.7995 0.3563
C150 C 0.07200(3) 0.78328(3) 0.36248(3)
C151 C 0.13242(4) 0.74482(4) 0.37543(4)
H242 H 0.1896 0.7512 0.3738
C152 C 0.10742(6) 0.69684(4) 0.39084(5)
H243 H 0.1478 0.6711 0.3995
C153 C 0.02199(6) 0.68733(3) 0.39329(5)
H244 H 0.0053 0.6552 0.4036
C154 C -0.03843(4) 0.72579(3) 0.38034(3)
H245 H -0.0956 0.7194 0.3820
C155 C 0.09405(11) 0.83141(5) 0.34335(12)
H246 H 0.0444 0.8528 0.3371
H247 H 0.1130 0.8306 0.2945
H248 H 0.1400 0.8440 0.3853
C115? C -0.21215(6) 0.60030(6) 1.07873(9)
H173? H -0.2177 0.6109 1.0247
H174? H -0.2682 0.6001 1.0908
H175? H -0.1880 0.5673 1.0854
C116? C -0.17954(8) 0.68551(7) 1.11020(19)
H176? H -0.1453 0.7097 1.1448
H177? H -0.2394 0.6893 1.1114
H178? H -0.1732 0.6905 1.0569
C117? C -0.14549(8) 0.61875(13) 1.22171(11)
H179? H -0.1094 0.6410 1.2586
H180? H -0.1211 0.5858 1.2282
H181? H -0.2025 0.6181 1.2317
C118? C -0.16918(7) 0.64967(5) 0.53128(7)
C119? C -0.21049(9) 0.68248(7) 0.46293(9)
H182? H -0.2359 0.6622 0.4177
H183? H -0.1674 0.7039 0.4499
H184? H -0.2547 0.7024 0.4774
C120? C -0.23650(11) 0.61821(7) 0.55763(9)
H185? H -0.2696 0.6000 0.5129
H186? H -0.2745 0.6395 0.5786
H187? H -0.2082 0.5953 0.5981
C121? C -0.11686(12) 0.61051(7) 0.49948(9)
H188? H -0.1513 0.5967 0.4510
H189? H -0.1005 0.5844 0.5381
H190? H -0.0657 0.6256 0.4892
C122? C 0.73016(11) 0.39918(6) 0.76920(13)
H191? H 0.6833 0.3781 0.7754
H192? H 0.7835 0.3808 0.7828
H193? H 0.7200 0.4102 0.7149
C123? C 0.81949(7) 0.47406(7) 0.80259(9)
H194? H 0.8088 0.4845 0.7480
H195? H 0.8723 0.4551 0.8159
H196? H 0.8247 0.5029 0.8363
C124? C 0.77830(7) 0.42760(6) 0.90739(7)
H197? H 0.7395 0.4081 0.9302
H198? H 0.7898 0.4588 0.9352
H199? H 0.8316 0.4097 0.9119
loop_
_geom_bond_atom_site_label_1
_geom_bond_atom_site_label_2
_geom_bond_site_symmetry_1
_geom_bond_site_symmetry_2
C1 C2 1_555 1_555
C2 H1 1_555 1_555
C3 C2 1_555 1_555
H2 C3 1_555 1_555
C4 C3 1_555 1_555
H3 C4 1_555 1_555
C5 C4 1_555 1_555
H4 C5 1_555 1_555
C6 C1 1_555 1_555
H5 C6 1_555 1_555
C7 C1 1_555 1_555
H6 C7 1_555 1_555
H7 C7 1_555 1_555
H8 C7 1_555 1_555
Mg1 O3 1_555 1_555
Mg2 N2 1_555 1_555
Mg3 N1 1_555 1_555
Mg4 N3 1_555 1_555
N1 C14 1_555 1_555
N2 C47 1_555 1_555
N3 C80 1_555 1_555
O1 Mg3 1_555 1_555
O2 Mg3 1_555 1_555
O3 Mg3 1_555 1_555
O4 Mg2 1_555 1_555
O5 Mg2 1_555 1_555
O6 Mg2 1_555 1_555
O7 Mg1 1_555 1_555
O8 Mg4 1_555 1_555
O9 Mg4 1_555 1_555
O10 Mg4 1_555 1_555
O11 Mg1 1_555 1_555
O12 Mg3 1_555 1_555
O13 Mg1 1_555 1_555
H9 O13 1_555 1_555
O14 Mg1 1_555 1_555
H10 O14 1_555 1_555
C8 O1 1_555 1_555
C9 C8 1_555 1_555
C10 C9 1_555 1_555
H11 C10 1_555 1_555
C11 C10 1_555 1_555
C12 C11 1_555 1_555
H12 C12 1_555 1_555
C13 C8 1_555 1_555
C14 C13 1_555 1_555
H13 C14 1_555 1_555
H14 C14 1_555 1_555
C15 C9 1_555 1_555
C16 C15 1_555 1_555
H15 C16 1_555 1_555
H16 C16 1_555 1_555
H17 C16 1_555 1_555
C17 C15 1_555 1_555
H18 C17 1_555 1_555
H19 C17 1_555 1_555
H20 C17 1_555 1_555
C18 C15 1_555 1_555
H21 C18 1_555 1_555
H22 C18 1_555 1_555
H23 C18 1_555 1_555
C19 C11 1_555 1_555
C20 C19 1_555 1_555
H24 C20 1_555 1_555
H25 C20 1_555 1_555
H26 C20 1_555 1_555
C21 C19 1_555 1_555
H27 C21 1_555 1_555
H28 C21 1_555 1_555
H29 C21 1_555 1_555
C22 C19 1_555 1_555
H30 C22 1_555 1_555
H31 C22 1_555 1_555
H32 C22 1_555 1_555
C23 O2 1_555 1_555
C24 C23 1_555 1_555
C25 C24 1_555 1_555
H33 C25 1_555 1_555
C26 C25 1_555 1_555
C27 C26 1_555 1_555
H34 C27 1_555 1_555
C28 C23 1_555 1_555
C29 N1 1_555 1_555
H35 C29 1_555 1_555
H36 C29 1_555 1_555
C30 C24 1_555 1_555
C31 C30 1_555 1_555
H37 C31 1_555 1_555
H38 C31 1_555 1_555
H39 C31 1_555 1_555
C32 C30 1_555 1_555
H40 C32 1_555 1_555
H41 C32 1_555 1_555
H42 C32 1_555 1_555
C33 C30 1_555 1_555
H43 C33 1_555 1_555
H44 C33 1_555 1_555
H45 C33 1_555 1_555
C34 C26 1_555 1_555
C35 C34 1_555 1_555
H46 C35 1_555 1_555
H47 C35 1_555 1_555
H48 C35 1_555 1_555
C36 C34 1_555 1_555
H49 C36 1_555 1_555
H50 C36 1_555 1_555
H51 C36 1_555 1_555
C37 C34 1_555 1_555
H52 C37 1_555 1_555
H53 C37 1_555 1_555
H54 C37 1_555 1_555
C38 N1 1_555 1_555
H55 C38 1_555 1_555
C39 O3 1_555 1_555
C40 C38 1_555 1_555
H56 C40 1_555 1_555
H57 C40 1_555 1_555
H58 C40 1_555 1_555
C41 O5 1_555 1_555
C42 C41 1_555 1_555
C43 C42 1_555 1_555
H59 C43 1_555 1_555
C44 C43 1_555 1_555
C45 C44 1_555 1_555
H60 C45 1_555 1_555
C46 C41 1_555 1_555
C47 C46 1_555 1_555
H61 C47 1_555 1_555
H62 C47 1_555 1_555
C48 C42 1_555 1_555
C49 C48 1_555 1_555
H63 C49 1_555 1_555
H64 C49 1_555 1_555
H65 C49 1_555 1_555
C50 C48 1_555 1_555
H66 C50 1_555 1_555
H67 C50 1_555 1_555
H68 C50 1_555 1_555
C51 C48 1_555 1_555
H69 C51 1_555 1_555
H70 C51 1_555 1_555
H71 C51 1_555 1_555
C52 C44 1_555 1_555
C53 C52 1_555 1_555
H72 C53 1_555 1_555
H73 C53 1_555 1_555
H74 C53 1_555 1_555
C54 C52 1_555 1_555
H75 C54 1_555 1_555
H76 C54 1_555 1_555
H77 C54 1_555 1_555
C55 C52 1_555 1_555
H78 C55 1_555 1_555
H79 C55 1_555 1_555
H80 C55 1_555 1_555
C56 O6 1_555 1_555
C57 C56 1_555 1_555
C58 C57 1_555 1_555
H81 C58 1_555 1_555
C59 C58 1_555 1_555
C60 C59 1_555 1_555
H82 C60 1_555 1_555
C61 C56 1_555 1_555
C62 N2 1_555 1_555
H83 C62 1_555 1_555
H84 C62 1_555 1_555
C63 C57 1_555 1_555
C64 C63 1_555 1_555
H85 C64 1_555 1_555
H86 C64 1_555 1_555
H87 C64 1_555 1_555
C65 C63 1_555 1_555
H88 C65 1_555 1_555
H89 C65 1_555 1_555
H90 C65 1_555 1_555
C66 C63 1_555 1_555
H91 C66 1_555 1_555
H92 C66 1_555 1_555
H93 C66 1_555 1_555
C67 C59 1_555 1_555
C68 C67 1_555 1_555
H94 C68 1_555 1_555
H95 C68 1_555 1_555
H96 C68 1_555 1_555
C69 C67 1_555 1_555
H97 C69 1_555 1_555
H98 C69 1_555 1_555
H99 C69 1_555 1_555
C70 C67 1_555 1_555
H100 C70 1_555 1_555
H101 C70 1_555 1_555
H102 C70 1_555 1_555
C71 N2 1_555 1_555
H103 C71 1_555 1_555
C72 O7 1_555 1_555
C73 C71 1_555 1_555
H104 C73 1_555 1_555
H105 C73 1_555 1_555
H106 C73 1_555 1_555
C74 O9 1_555 1_555
C75 C74 1_555 1_555
C76 C75 1_555 1_555
H107 C76 1_555 1_555
C77 C76 1_555 1_555
C78 C77 1_555 1_555
H108 C78 1_555 1_555
C79 C74 1_555 1_555
C80 C79 1_555 1_555
H109 C80 1_555 1_555
H110 C80 1_555 1_555
C81 C75 1_555 1_555
C82 C81 1_555 1_555
H111 C82 1_555 1_555
H112 C82 1_555 1_555
H113 C82 1_555 1_555
C83 C81 1_555 1_555
H114 C83 1_555 1_555
H115 C83 1_555 1_555
H116 C83 1_555 1_555
C84 C81 1_555 1_555
H117 C84 1_555 1_555
H118 C84 1_555 1_555
H119 C84 1_555 1_555
C85 C77 1_555 1_555
C86 C85 1_555 1_555
H120 C86 1_555 1_555
H121 C86 1_555 1_555
H122 C86 1_555 1_555
C87 C85 1_555 1_555
H123 C87 1_555 1_555
H124 C87 1_555 1_555
H125 C87 1_555 1_555
C88 C85 1_555 1_555
H126 C88 1_555 1_555
H127 C88 1_555 1_555
H128 C88 1_555 1_555
C89 O10 1_555 1_555
C90 C89 1_555 1_555
C91 C90 1_555 1_555
H129 C91 1_555 1_555
C92 C91 1_555 1_555
C93 C92 1_555 1_555
H130 C93 1_555 1_555
C94 C89 1_555 1_555
C95 N3 1_555 1_555
H131 C95 1_555 1_555
H132 C95 1_555 1_555
C96 C90 1_555 1_555
C97 C96 1_555 1_555
H133 C97 1_555 1_555
H134 C97 1_555 1_555
H135 C97 1_555 1_555
C98 C96 1_555 1_555
H136 C98 1_555 1_555
H137 C98 1_555 1_555
H138 C98 1_555 1_555
C99 C96 1_555 1_555
H139 C99 1_555 1_555
H140 C99 1_555 1_555
H141 C99 1_555 1_555
C100 C92 1_555 1_555
C101 C100 1_555 1_555
H142 C101 1_555 1_555
H143 C101 1_555 1_555
H144 C101 1_555 1_555
C102 C100 1_555 1_555
H145 C102 1_555 1_555
H146 C102 1_555 1_555
H147 C102 1_555 1_555
C103 C100 1_555 1_555
H148 C103 1_555 1_555
H149 C103 1_555 1_555
H150 C103 1_555 1_555
C104 N3 1_555 1_555
H151 C104 1_555 1_555
C105 O11 1_555 1_555
C106 C104 1_555 1_555
H152 C106 1_555 1_555
H153 C106 1_555 1_555
H154 C106 1_555 1_555
C107 H155 1_555 1_555
H156 C107 1_555 1_555
H157 C107 1_555 1_555
C108 O13 1_555 1_555
H158 C108 1_555 1_555
C109 C108 1_555 1_555
H159 C109 1_555 1_555
H160 C109 1_555 1_555
C110 C109 1_555 1_555
H161 C110 1_555 1_555
H162 C110 1_555 1_555
H163 C110 1_555 1_555
C111 H164 1_555 1_555
H165 C111 1_555 1_555
H166 C111 1_555 1_555
C112 O14 1_555 1_555
H167 C112 1_555 1_555
C113 C112 1_555 1_555
H168 C113 1_555 1_555
H169 C113 1_555 1_555
C114 C113 1_555 1_555
H170 C114 1_555 1_555
H171 C114 1_555 1_555
H172 C114 1_555 1_555
N4 H200 1_555 1_555
C125 N4 1_555 1_555
H201 C125 1_555 1_555
H202 C125 1_555 1_555
C126 C125 1_555 1_555
H203 C126 1_555 1_555
H204 C126 1_555 1_555
H205 C126 1_555 1_555
C127 N4 1_555 1_555
H206 C127 1_555 1_555
H207 C127 1_555 1_555
C128 C127 1_555 1_555
H208 C128 1_555 1_555
H209 C128 1_555 1_555
H210 C128 1_555 1_555
C129 N4 1_555 1_555
H211 C129 1_555 1_555
H212 C129 1_555 1_555
C130 C129 1_555 1_555
H213 C130 1_555 1_555
H214 C130 1_555 1_555
H215 C130 1_555 1_555
O15 H216 1_555 1_555
C131 H217 1_555 1_555
H218 C131 1_555 1_555
H219 C131 1_555 1_555
C132 O15 1_555 1_555
C133 C132 1_555 1_555
H220 C133 1_555 1_555
H221 C133 1_555 1_555
C134 C133 1_555 1_555
H222 C134 1_555 1_555
H223 C134 1_555 1_555
H224 C134 1_555 1_555
C135 H225 1_555 1_555
H226 C135 1_555 1_555
H227 C135 1_555 1_555
C136 C135 1_555 1_555
C137 C136 1_555 1_555
H228 C137 1_555 1_555
C138 C137 1_555 1_555
H229 C138 1_555 1_555
C139 C138 1_555 1_555
H230 C139 1_555 1_555
C140 C139 1_555 1_555
H231 C140 1_555 1_555
C141 C136 1_555 1_555
H232 C141 1_555 1_555
C142 H233 1_555 1_555
H234 C142 1_555 1_555
H235 C142 1_555 1_555
C143 C142 1_555 1_555
C144 C143 1_555 1_555
H236 C144 1_555 1_555
C145 C144 1_555 1_555
H237 C145 1_555 1_555
C146 C145 1_555 1_555
H238 C146 1_555 1_555
C147 C146 1_555 1_555
H239 C147 1_555 1_555
C148 C143 1_555 1_555
H240 C148 1_555 1_555
C149 H241 1_555 1_555
C150 C149 1_555 1_555
C151 C150 1_555 1_555
H242 C151 1_555 1_555
C152 C151 1_555 1_555
H243 C152 1_555 1_555
C153 C152 1_555 1_555
H244 C153 1_555 1_555
C154 C149 1_555 1_555
H245 C154 1_555 1_555
C155 C150 1_555 1_555
H246 C155 1_555 1_555
H247 C155 1_555 1_555
H248 C155 1_555 1_555
C5 C6 1_555 1_555
Mg2 O7 1_555 1_555
Mg4 O11 1_555 1_555
O4 C39 1_555 1_555
O8 C72 1_555 1_555
O12 C105 1_555 1_555
C12 C13 1_555 1_555
C27 C28 1_555 1_555
C28 C29 1_555 1_555
C38 C39 1_555 1_555
C45 C46 1_555 1_555
C60 C61 1_555 1_555
C61 C62 1_555 1_555
C71 C72 1_555 1_555
C78 C79 1_555 1_555
C93 C94 1_555 1_555
C94 C95 1_555 1_555
C104 C105 1_555 1_555
C107 C108 1_555 1_555
C111 C112 1_555 1_555
C131 C132 1_555 1_555
C140 C141 1_555 1_555
C147 C148 1_555 1_555
C153 C154 1_555 1_555

#END
