
#######################################################################
#
#                 Cambridge Crystallographic Data Centre
#                                CCDC 
#
#######################################################################
#
# If this CIF has been generated from an entry in the Cambridge 
# Structural Database, then it will include bibliographic, chemical, 
# crystal, experimental, refinement or atomic coordinate data resulting 
# from the CCDC's data processing and validation procedures.
#
#######################################################################

data_HOYKIR
_chemical_formula_moiety         
'C99 H150 Mg4 N3 O15 1-,C6 H16 N1 1+,C8 H10 O1,C2 H3 N1'
_chemical_name_systematic        
'triethylammonium tris(\m-2-[bis(3,5-di-t-butyl-2-oxidobenzyl)amino]propanoato)-triaqua-tetra-magnesium 1-phenylethanol acetonitrile solvate'
_symmetry_cell_setting           monoclinic
_symmetry_space_group_name_H-M   'P 21'
_symmetry_Int_Tables_number      4
_space_group_name_Hall           'P 2yb'
loop_
_symmetry_equiv_pos_site_id
_symmetry_equiv_pos_as_xyz
1 x,y,z
2 -x,1/2+y,-z
_cell_length_a                   15.9337(7)
_cell_length_b                   26.4951(10)
_cell_length_c                   16.9088(5)
_cell_angle_alpha                90
_cell_angle_beta                 99.435(4)
_cell_angle_gamma                90
_cell_volume                     7041.74
_exptl_crystal_colour            colorless
_exptl_crystal_description       block
_cell_formula_units_Z            2
loop_
_atom_site_label
_atom_site_type_symbol
_atom_site_fract_x
_atom_site_fract_y
_atom_site_fract_z
Mg1 Mg 0.35047(2) 0.674030(13) 0.305670(18)
Mg2 Mg 0.30667(2) 0.746600(13) 0.606640(17)
Mg3 Mg 0.19816(2) 0.864010(13) 0.331470(17)
Mg4 Mg 0.37028(2) 0.786740(12) 0.424380(17)
O1 O 0.22191(6) 0.70317(3) 0.64251(5)
O2 O 0.41667(5) 0.77023(3) 0.66086(4)
O3 O 0.28301(4) 0.79209(3) 0.50536(3)
O4 O 0.20679(5) 0.85660(3) 0.45118(4)
O5 O 0.07667(5) 0.86397(4) 0.31078(4)
O6 O 0.27656(6) 0.92107(3) 0.33665(4)
O7 O 0.27371(5) 0.80014(3) 0.32756(4)
O8 O 0.30065(6) 0.73709(3) 0.24932(4)
O9 O 0.26890(6) 0.62772(3) 0.24541(5)
O10 O 0.46580(5) 0.68784(3) 0.28681(4)
O11 O 0.34900(5) 0.70724(3) 0.41617(4)
O12 O 0.35322(5) 0.69112(3) 0.54553(4)
O13 O 0.46650(5) 0.78095(4) 0.52052(4)
H1 H 0.4670 0.7847 0.5706
H2 H 0.5133 0.7673 0.5146
O14 O 0.46136(5) 0.77773(3) 0.35153(4)
H3 H 0.4840 0.7514 0.3355
H4 H 0.4636 0.8008 0.3170
O15 O 0.39476(6) 0.86491(3) 0.42393(5)
H5 H 0.3726 0.8886 0.3936
H6 H 0.4303 0.8781 0.4611
N1 N 0.24039(5) 0.81132(3) 0.64968(4)
N2 N 0.19822(6) 0.85501(3) 0.20092(5)
N3 N 0.39526(6) 0.61191(3) 0.38861(5)
C1 C 0.14329(8) 0.71376(5) 0.65146(6)
C2 C 0.07430(10) 0.68092(6) 0.62352(9)
C3 C -0.00521(10) 0.69288(6) 0.64075(9)
H7 H -0.0499 0.6709 0.6232
C4 C -0.02239(9) 0.73544(5) 0.68243(7)
C5 C 0.04352(7) 0.76875(5) 0.70474(6)
H8 H 0.0331 0.7990 0.7293
C6 C 0.12625(7) 0.75785(4) 0.69114(5)
C7 C 0.19543(7) 0.79572(4) 0.71677(5)
H9 H 0.1709 0.8253 0.7378
H10 H 0.2365 0.7814 0.7596
C8 C 0.08680(13) 0.63502(7) 0.56850(13)
C9 C 0.14606(18) 0.59746(8) 0.60952(17)
H11 H 0.1968 0.6140 0.6352
H12 H 0.1603 0.5736 0.5712
H13 H 0.1199 0.5802 0.6490
C10 C 0.00324(19) 0.60460(9) 0.54434(17)
H14 H -0.0404 0.6265 0.5175
H15 H -0.0144 0.5909 0.5915
H16 H 0.0128 0.5776 0.5090
C11 C 0.11721(15) 0.65198(9) 0.49645(11)
H17 H 0.1675 0.6721 0.5111
H18 H 0.0739 0.6718 0.4645
H19 H 0.1303 0.6232 0.4661
C12 C -0.11417(9) 0.74570(7) 0.69602(8)
C13 C -0.17192(14) 0.75273(16) 0.61848(13)
H20 H -0.1500 0.7789 0.5883
H21 H -0.2275 0.7620 0.6284
H22 H -0.1756 0.7218 0.5886
C14 C -0.12125(11) 0.79368(8) 0.74613(10)
H23 H -0.1086 0.8228 0.7164
H24 H -0.0816 0.7917 0.7953
H25 H -0.1780 0.7965 0.7579
C15 C -0.14189(12) 0.70400(9) 0.74947(15)
H26 H -0.1958 0.7127 0.7640
H27 H -0.1002 0.7006 0.7970
H28 H -0.1470 0.6726 0.7207
C16 C 0.30536(7) 0.85086(4) 0.67813(5)
H29 H 0.2769 0.8798 0.6969
H30 H 0.3315 0.8619 0.6332
C17 C 0.37496(7) 0.83306(4) 0.74523(5)
C18 C 0.42920(7) 0.79511(5) 0.73051(6)
C19 C 0.49774(8) 0.78124(5) 0.79167(6)
C20 C 0.50576(8) 0.80816(5) 0.86387(6)
H31 H 0.5515 0.8003 0.9036
C21 C 0.45025(8) 0.84575(5) 0.88037(6)
C22 C 0.38460(7) 0.85807(4) 0.81926(6)
H32 H 0.3463 0.8833 0.8274
C23 C 0.55961(10) 0.73875(8) 0.78010(9)
C24 C 0.51716(17) 0.69110(8) 0.76120(19)
H33 H 0.4971 0.6783 0.8078
H34 H 0.5563 0.6674 0.7444
H35 H 0.4698 0.6958 0.7188
C25 C 0.63486(12) 0.73527(10) 0.85002(10)
H36 H 0.6137 0.7291 0.8991
H37 H 0.6660 0.7664 0.8543
H38 H 0.6717 0.7081 0.8402
C26 C 0.60490(12) 0.75291(13) 0.70884(10)
H39 H 0.6352 0.7241 0.6937
H40 H 0.6442 0.7800 0.7244
H41 H 0.5634 0.7634 0.6642
C27 C 0.46251(9) 0.87204(5) 0.96273(7)
C28 C 0.4448(3) 0.83246(10) 1.02530(11)
H42 H 0.4828 0.8044 1.0249
H43 H 0.3871 0.8209 1.0122
H44 H 0.4534 0.8475 1.0776
C29 C 0.55257(16) 0.89159(13) 0.98372(17)
H45 H 0.5743 0.8993 0.9354
H46 H 0.5877 0.8663 1.0134
H47 H 0.5529 0.9216 1.0157
C30 C 0.40000(17) 0.91577(8) 0.96575(10)
H48 H 0.3811 0.9159 1.0168
H49 H 0.3519 0.9117 0.9239
H50 H 0.4279 0.9472 0.9584
C31 C 0.18191(6) 0.82839(4) 0.57819(5)
H51 H 0.1375 0.8025 0.5682
C32 C 0.22717(7) 0.82695(4) 0.50553(5)
C33 C 0.13541(8) 0.87783(5) 0.58379(6)
H52 H 0.1069 0.8771 0.6296
H53 H 0.0943 0.8826 0.5361
H54 H 0.1755 0.9052 0.5892
C34 C 0.02323(8) 0.84339(6) 0.25093(7)
C35 C -0.05146(11) 0.81781(7) 0.26408(8)
C36 C -0.10562(11) 0.79884(8) 0.19761(9)
H55 H -0.1553 0.7827 0.2059
C37 C -0.08909(12) 0.80287(9) 0.11866(9)
C38 C -0.01692(10) 0.82852(7) 0.10854(8)
H56 H -0.0052 0.8325 0.0568
C39 C 0.03895(9) 0.84867(5) 0.17119(7)
C40 C 0.11722(10) 0.87634(5) 0.15531(7)
H57 H 0.1196 0.8749 0.0984
H58 H 0.1127 0.9115 0.1698
C41 C -0.06956(11) 0.81043(8) 0.34930(8)
C42 C 0.00272(15) 0.78045(8) 0.39901(9)
H59 H 0.0143 0.7508 0.3699
H60 H -0.0137 0.7707 0.4489
H61 H 0.0529 0.8011 0.4093
C43 C -0.15245(15) 0.78048(12) 0.35126(12)
H62 H -0.2002 0.8030 0.3419
H63 H -0.1500 0.7648 0.4028
H64 H -0.1587 0.7550 0.3104
C44 C -0.07867(12) 0.86213(10) 0.38886(10)
H65 H -0.0288 0.8821 0.3865
H66 H -0.0850 0.8573 0.4438
H67 H -0.1278 0.8793 0.3609
C45 C -0.15173(17) 0.78034(17) 0.05021(14)
C46 C -0.16203(18) 0.72168(15) 0.06594(15)
H68 H -0.1986 0.7069 0.0212
H69 H -0.1864 0.7170 0.1137
H70 H -0.1073 0.7057 0.0724
C47 C -0.12858(17) 0.78079(17) -0.02526(14)
H71 H -0.1301 0.7470 -0.0460
H72 H -0.0720 0.7941 -0.0217
H73 H -0.1675 0.8016 -0.0605
C48 C -0.24200(17) 0.79865(16) 0.05263(14)
H74 H -0.2474 0.8332 0.0356
H75 H -0.2538 0.7960 0.1064
H76 H -0.2817 0.7783 0.0175
C49 C 0.27218(8) 0.95495(4) 0.27812(6)
C50 C 0.26812(13) 1.00665(5) 0.29269(8)
C51 C 0.26093(16) 1.03941(6) 0.22717(10)
H77 H 0.2598 1.0739 0.2374
C52 C 0.25528(15) 1.02408(6) 0.14718(9)
C53 C 0.26216(11) 0.97280(5) 0.13543(7)
H78 H 0.2617 0.9609 0.0836
C54 C 0.26988(9) 0.93800(4) 0.19878(6)
C55 C 0.27274(8) 0.88221(4) 0.18070(6)
H79 H 0.2750 0.8777 0.1242
H80 H 0.3242 0.8678 0.2110
C56 C 0.2698(2) 1.02683(6) 0.38034(10)
C57 C 0.1924(2) 1.00591(9) 0.41373(11)
H81 H 0.1411 1.0153 0.3788
H82 H 0.1917 1.0196 0.4662
H83 H 0.1962 0.9698 0.4171
C58 C 0.3510(2) 1.01091(8) 0.43232(10)
H84 H 0.3421 0.9797 0.4584
H85 H 0.3684 1.0364 0.4720
H86 H 0.3945 1.0065 0.3998
C59 C 0.2669(5) 1.08461(8) 0.38072(13)
H87 H 0.3195 1.0984 0.3698
H88 H 0.2569 1.0961 0.4322
H89 H 0.2211 1.0955 0.3402
C60 C 0.2633(3) 1.05998(11) 0.07785(15)
C61 C 0.3531(2) 1.05559(12) 0.04273(16)
H90 H 0.3635 1.0209 0.0308
H91 H 0.3989 1.0679 0.0821
H92 H 0.3496 1.0754 -0.0052
C62 C 0.2483(4) 1.11149(10) 0.09943(15)
H93 H 0.2674 1.1339 0.0615
H94 H 0.2789 1.1184 0.1521
H95 H 0.1885 1.1164 0.0990
C63 C 0.2029(3) 1.03950(11) 0.00073(15)
H96 H 0.1449 1.0479 0.0040
H97 H 0.2085 1.0035 -0.0022
H98 H 0.2185 1.0547 -0.0463
C64 C 0.20478(8) 0.79956(4) 0.18975(6)
H99 H 0.1485 0.7860 0.1940
C65 C 0.26549(7) 0.77669(4) 0.25943(6)
C66 C 0.22332(12) 0.78209(5) 0.10903(7)
H100 H 0.1863 0.7993 0.0671
H101 H 0.2140 0.7464 0.1038
H102 H 0.2814 0.7895 0.1050
C67 C 0.22701(9) 0.59175(5) 0.27778(8)
C68 C 0.13688(10) 0.58785(7) 0.26204(10)
C69 C 0.10025(13) 0.54764(8) 0.29624(12)
H103 H 0.0413 0.5447 0.2854
C70 C 0.14373(13) 0.51235(8) 0.34423(14)
C71 C 0.23430(14) 0.51721(6) 0.36135(12)
H104 H 0.2662 0.4936 0.3942
C72 C 0.27501(10) 0.55687(5) 0.32932(8)
C73 C 0.37056(10) 0.56179(5) 0.35099(8)
H105 H 0.3923 0.5351 0.3880
H106 H 0.3961 0.5579 0.3030
C74 C 0.08255(12) 0.62640(9) 0.21240(12)
C75 C 0.09269(14) 0.67742(10) 0.24994(16)
H107 H 0.0692 0.6773 0.2987
H108 H 0.0634 0.7019 0.2137
H109 H 0.1520 0.6859 0.2616
C76 C -0.01544(17) 0.61820(13) 0.2048(2)
H110 H -0.0274 0.5827 0.2060
H111 H -0.0435 0.6323 0.1552
H112 H -0.0357 0.6345 0.2487
C77 C 0.10493(19) 0.63029(13) 0.12895(15)
H113 H 0.1579 0.6480 0.1314
H114 H 0.0609 0.6483 0.0948
H115 H 0.1102 0.5970 0.1078
C78 C 0.1078(2) 0.47095(11) 0.3937(2)
C79 C 0.01062(15) 0.48556(10) 0.3981(2)
H116 H -0.0053 0.4714 0.4458
H117 H -0.0259 0.4724 0.3519
H118 H 0.0050 0.5216 0.3993
C80 C 0.1136(2) 0.42385(9) 0.35343(17)
H119 H 0.0885 0.4272 0.2980
H120 H 0.0837 0.3983 0.3781
H121 H 0.1722 0.4144 0.3572
C81 C 0.14791(18) 0.46696(11) 0.48897(15)
H122 H 0.1037 0.4585 0.5190
H123 H 0.1726 0.4988 0.5072
H124 H 0.1909 0.4413 0.4966
C82 C 0.52359(7) 0.65238(4) 0.28021(6)
C83 C 0.56968(9) 0.65118(4) 0.21582(6)
C84 C 0.62973(8) 0.61329(5) 0.21608(6)
H125 H 0.6613 0.6131 0.1744
C85 C 0.64644(8) 0.57581(5) 0.27309(6)
C86 C 0.59636(8) 0.57667(4) 0.33468(6)
H126 H 0.6042 0.5516 0.3738
C87 C 0.53535(8) 0.61402(4) 0.33861(6)
C88 C 0.48916(8) 0.61548(4) 0.40962(6)
H127 H 0.5094 0.5878 0.4453
H128 H 0.5035 0.6467 0.4387
C89 C 0.55910(10) 0.69221(6) 0.15270(8)
C90 C 0.59313(11) 0.74229(6) 0.18967(9)
H129 H 0.6529 0.7392 0.2096
H130 H 0.5637 0.7509 0.2330
H131 H 0.5842 0.7683 0.1497
C91 C 0.46326(12) 0.69796(7) 0.11570(8)
H132 H 0.4334 0.7137 0.1540
H133 H 0.4393 0.6652 0.1021
H134 H 0.4582 0.7184 0.0683
C92 C 0.60782(13) 0.68113(7) 0.08347(8)
H135 H 0.6001 0.7086 0.0459
H136 H 0.5865 0.6506 0.0570
H137 H 0.6673 0.6773 0.1042
C93 C 0.71768(10) 0.53783(6) 0.27065(9)
C94 C 0.68783(15) 0.50140(9) 0.19523(12)
H138 H 0.6817 0.5208 0.1466
H139 H 0.6343 0.4862 0.2003
H140 H 0.7297 0.4755 0.1937
C95 C 0.72643(16) 0.50041(9) 0.33717(15)
H141 H 0.7684 0.4757 0.3295
H142 H 0.6728 0.4840 0.3375
H143 H 0.7437 0.5174 0.3873
C96 C 0.79546(15) 0.56190(10) 0.2542(2)
H144 H 0.7845 0.5779 0.2026
H145 H 0.8391 0.5369 0.2544
H146 H 0.8139 0.5867 0.2946
C97 C 0.35505(8) 0.62077(4) 0.46032(6)
H147 H 0.2953 0.6110 0.4450
C98 C 0.35445(6) 0.67763(4) 0.47708(5)
C99 C 0.38885(10) 0.58990(5) 0.53475(7)
H148 H 0.3945 0.5552 0.5199
H149 H 0.3499 0.5922 0.5723
H150 H 0.4434 0.6028 0.5589
N4 N 0.2123(3) 0.6391(2) 0.8858(3)
H151 H 0.2211 0.6088 0.9110
C100 C 0.1164(3) 0.6458(3) 0.8485(4)
H152 H 0.1112 0.6584 0.7941
H153 H 0.0868 0.6138 0.8475
C101 C 0.0780(3) 0.6836(3) 0.9008(4)
H154 H 0.0798 0.6698 0.9536
H155 H 0.0199 0.6903 0.8775
H156 H 0.1099 0.7145 0.9043
C102 C 0.2562(3) 0.68322(17) 0.9411(4)
H157 H 0.3161 0.6751 0.9452
H158 H 0.2420 0.6745 0.9930
C103 C 0.2576(7) 0.74398(19) 0.9443(3)
H159 H 0.3026 0.7550 0.9855
H160 H 0.2041 0.7561 0.9557
H161 H 0.2670 0.7570 0.8935
C104 C 0.2511(4) 0.6393(3) 0.8066(3)
H162 H 0.2933 0.6126 0.8150
H163 H 0.2054 0.6262 0.7669
C105 C 0.2928(3) 0.6794(2) 0.7600(3)
H164 H 0.2609 0.7103 0.7581
H165 H 0.2935 0.6677 0.7064
H166 H 0.3500 0.6854 0.7863
O16 O 0.31642(14) 0.58267(8) 0.11246(11)
H167 H 0.3044 0.5843 0.0635
C106 C 0.4299(2) 0.54698(13) 0.05819(17)
H168 H 0.4899 0.5404 0.0694
H169 H 0.4198 0.5778 0.0284
H170 H 0.4016 0.5197 0.0273
C107 C 0.3960(2) 0.55167(10) 0.13517(13)
H171 H 0.4368 0.5700 0.1745
C108 C 0.37277(14) 0.50177(8) 0.17081(11)
C109 C 0.44130(15) 0.47410(10) 0.21002(15)
H172 H 0.4962 0.4870 0.2144
C110 C 0.4278(2) 0.42722(10) 0.24263(18)
H173 H 0.4737 0.4087 0.2689
C111 C 0.3458(3) 0.40800(10) 0.2360(2)
H174 H 0.3368 0.3766 0.2578
C112 C 0.2772(2) 0.43567(11) 0.1968(2)
H175 H 0.2224 0.4228 0.1924
C113 C 0.29074(14) 0.48256(10) 0.16421(17)
H176 H 0.2449 0.5011 0.1380
N5 N 0.61664(11) 0.72549(7) 0.49028(10)
C114 C 0.72520(13) 0.67926(9) 0.41904(11)
H177 H 0.7510 0.7022 0.3862
H178 H 0.6968 0.6528 0.3862
H179 H 0.7683 0.6649 0.4590
C115 C 0.66417(12) 0.70610(7) 0.45774(11)
loop_
_geom_bond_atom_site_label_1
_geom_bond_atom_site_label_2
_geom_bond_site_symmetry_1
_geom_bond_site_symmetry_2
Mg1 O8 1_555 1_555
Mg2 O1 1_555 1_555
Mg3 O4 1_555 1_555
Mg4 O3 1_555 1_555
O1 C1 1_555 1_555
O2 Mg2 1_555 1_555
O3 Mg2 1_555 1_555
O4 C32 1_555 1_555
O5 Mg3 1_555 1_555
O6 Mg3 1_555 1_555
O7 Mg3 1_555 1_555
O8 C65 1_555 1_555
O9 Mg1 1_555 1_555
O10 Mg1 1_555 1_555
O11 Mg1 1_555 1_555
O12 Mg2 1_555 1_555
O13 Mg4 1_555 1_555
H1 O13 1_555 1_555
H2 O13 1_555 1_555
O14 Mg4 1_555 1_555
H3 O14 1_555 1_555
H4 O14 1_555 1_555
O15 Mg4 1_555 1_555
H5 O15 1_555 1_555
H6 O15 1_555 1_555
N1 Mg2 1_555 1_555
N2 Mg3 1_555 1_555
N3 Mg1 1_555 1_555
C1 C2 1_555 1_555
C2 C3 1_555 1_555
C3 H7 1_555 1_555
C4 C3 1_555 1_555
C5 C4 1_555 1_555
H8 C5 1_555 1_555
C6 C1 1_555 1_555
C7 N1 1_555 1_555
H9 C7 1_555 1_555
H10 C7 1_555 1_555
C8 C2 1_555 1_555
C9 C8 1_555 1_555
H11 C9 1_555 1_555
H12 C9 1_555 1_555
H13 C9 1_555 1_555
C10 C8 1_555 1_555
H14 C10 1_555 1_555
H15 C10 1_555 1_555
H16 C10 1_555 1_555
C11 C8 1_555 1_555
H17 C11 1_555 1_555
H18 C11 1_555 1_555
H19 C11 1_555 1_555
C12 C4 1_555 1_555
C13 C12 1_555 1_555
H20 C13 1_555 1_555
H21 C13 1_555 1_555
H22 C13 1_555 1_555
C14 C12 1_555 1_555
H23 C14 1_555 1_555
H24 C14 1_555 1_555
H25 C14 1_555 1_555
C15 C12 1_555 1_555
H26 C15 1_555 1_555
H27 C15 1_555 1_555
H28 C15 1_555 1_555
C16 N1 1_555 1_555
H29 C16 1_555 1_555
H30 C16 1_555 1_555
C17 C16 1_555 1_555
C18 O2 1_555 1_555
C19 C18 1_555 1_555
C20 C19 1_555 1_555
H31 C20 1_555 1_555
C21 C20 1_555 1_555
C22 C17 1_555 1_555
H32 C22 1_555 1_555
C23 C19 1_555 1_555
C24 C23 1_555 1_555
H33 C24 1_555 1_555
H34 C24 1_555 1_555
H35 C24 1_555 1_555
C25 C23 1_555 1_555
H36 C25 1_555 1_555
H37 C25 1_555 1_555
H38 C25 1_555 1_555
C26 C23 1_555 1_555
H39 C26 1_555 1_555
H40 C26 1_555 1_555
H41 C26 1_555 1_555
C27 C21 1_555 1_555
C28 C27 1_555 1_555
H42 C28 1_555 1_555
H43 C28 1_555 1_555
H44 C28 1_555 1_555
C29 C27 1_555 1_555
H45 C29 1_555 1_555
H46 C29 1_555 1_555
H47 C29 1_555 1_555
C30 C27 1_555 1_555
H48 C30 1_555 1_555
H49 C30 1_555 1_555
H50 C30 1_555 1_555
C31 N1 1_555 1_555
H51 C31 1_555 1_555
C32 O3 1_555 1_555
C33 C31 1_555 1_555
H52 C33 1_555 1_555
H53 C33 1_555 1_555
H54 C33 1_555 1_555
C34 O5 1_555 1_555
C35 C34 1_555 1_555
C36 C35 1_555 1_555
H55 C36 1_555 1_555
C37 C36 1_555 1_555
C38 C37 1_555 1_555
H56 C38 1_555 1_555
C39 C34 1_555 1_555
C40 N2 1_555 1_555
H57 C40 1_555 1_555
H58 C40 1_555 1_555
C41 C35 1_555 1_555
C42 C41 1_555 1_555
H59 C42 1_555 1_555
H60 C42 1_555 1_555
H61 C42 1_555 1_555
C43 C41 1_555 1_555
H62 C43 1_555 1_555
H63 C43 1_555 1_555
H64 C43 1_555 1_555
C44 C41 1_555 1_555
H65 C44 1_555 1_555
H66 C44 1_555 1_555
H67 C44 1_555 1_555
C45 C37 1_555 1_555
C46 C45 1_555 1_555
H68 C46 1_555 1_555
H69 C46 1_555 1_555
H70 C46 1_555 1_555
C47 C45 1_555 1_555
H71 C47 1_555 1_555
H72 C47 1_555 1_555
H73 C47 1_555 1_555
C48 C45 1_555 1_555
H74 C48 1_555 1_555
H75 C48 1_555 1_555
H76 C48 1_555 1_555
C49 O6 1_555 1_555
C50 C49 1_555 1_555
C51 C50 1_555 1_555
H77 C51 1_555 1_555
C52 C51 1_555 1_555
C53 C52 1_555 1_555
H78 C53 1_555 1_555
C54 C49 1_555 1_555
C55 N2 1_555 1_555
H79 C55 1_555 1_555
H80 C55 1_555 1_555
C56 C50 1_555 1_555
C57 C56 1_555 1_555
H81 C57 1_555 1_555
H82 C57 1_555 1_555
H83 C57 1_555 1_555
C58 C56 1_555 1_555
H84 C58 1_555 1_555
H85 C58 1_555 1_555
H86 C58 1_555 1_555
C59 C56 1_555 1_555
H87 C59 1_555 1_555
H88 C59 1_555 1_555
H89 C59 1_555 1_555
C60 C52 1_555 1_555
C61 C60 1_555 1_555
H90 C61 1_555 1_555
H91 C61 1_555 1_555
H92 C61 1_555 1_555
C62 C60 1_555 1_555
H93 C62 1_555 1_555
H94 C62 1_555 1_555
H95 C62 1_555 1_555
C63 C60 1_555 1_555
H96 C63 1_555 1_555
H97 C63 1_555 1_555
H98 C63 1_555 1_555
C64 N2 1_555 1_555
H99 C64 1_555 1_555
C65 O7 1_555 1_555
C66 C64 1_555 1_555
H100 C66 1_555 1_555
H101 C66 1_555 1_555
H102 C66 1_555 1_555
C67 O9 1_555 1_555
C68 C67 1_555 1_555
C69 C68 1_555 1_555
H103 C69 1_555 1_555
C70 C69 1_555 1_555
C71 C70 1_555 1_555
H104 C71 1_555 1_555
C72 C67 1_555 1_555
C73 N3 1_555 1_555
H105 C73 1_555 1_555
H106 C73 1_555 1_555
C74 C68 1_555 1_555
C75 C74 1_555 1_555
H107 C75 1_555 1_555
H108 C75 1_555 1_555
H109 C75 1_555 1_555
C76 C74 1_555 1_555
H110 C76 1_555 1_555
H111 C76 1_555 1_555
H112 C76 1_555 1_555
C77 C74 1_555 1_555
H113 C77 1_555 1_555
H114 C77 1_555 1_555
H115 C77 1_555 1_555
C78 C70 1_555 1_555
C79 C78 1_555 1_555
H116 C79 1_555 1_555
H117 C79 1_555 1_555
H118 C79 1_555 1_555
C80 C78 1_555 1_555
H119 C80 1_555 1_555
H120 C80 1_555 1_555
H121 C80 1_555 1_555
C81 C78 1_555 1_555
H122 C81 1_555 1_555
H123 C81 1_555 1_555
H124 C81 1_555 1_555
C82 O10 1_555 1_555
C83 C82 1_555 1_555
C84 C83 1_555 1_555
H125 C84 1_555 1_555
C85 C84 1_555 1_555
C86 C85 1_555 1_555
H126 C86 1_555 1_555
C87 C82 1_555 1_555
C88 N3 1_555 1_555
H127 C88 1_555 1_555
H128 C88 1_555 1_555
C89 C83 1_555 1_555
C90 C89 1_555 1_555
H129 C90 1_555 1_555
H130 C90 1_555 1_555
H131 C90 1_555 1_555
C91 C89 1_555 1_555
H132 C91 1_555 1_555
H133 C91 1_555 1_555
H134 C91 1_555 1_555
C92 C89 1_555 1_555
H135 C92 1_555 1_555
H136 C92 1_555 1_555
H137 C92 1_555 1_555
C93 C85 1_555 1_555
C94 C93 1_555 1_555
H138 C94 1_555 1_555
H139 C94 1_555 1_555
H140 C94 1_555 1_555
C95 C93 1_555 1_555
H141 C95 1_555 1_555
H142 C95 1_555 1_555
H143 C95 1_555 1_555
C96 C93 1_555 1_555
H144 C96 1_555 1_555
H145 C96 1_555 1_555
H146 C96 1_555 1_555
C97 N3 1_555 1_555
H147 C97 1_555 1_555
C98 O11 1_555 1_555
C99 C97 1_555 1_555
H148 C99 1_555 1_555
H149 C99 1_555 1_555
H150 C99 1_555 1_555
N4 H151 1_555 1_555
C100 N4 1_555 1_555
H152 C100 1_555 1_555
H153 C100 1_555 1_555
C101 C100 1_555 1_555
H154 C101 1_555 1_555
H155 C101 1_555 1_555
H156 C101 1_555 1_555
C102 N4 1_555 1_555
H157 C102 1_555 1_555
H158 C102 1_555 1_555
C103 C102 1_555 1_555
H159 C103 1_555 1_555
H160 C103 1_555 1_555
H161 C103 1_555 1_555
C104 N4 1_555 1_555
H162 C104 1_555 1_555
H163 C104 1_555 1_555
C105 C104 1_555 1_555
H164 C105 1_555 1_555
H165 C105 1_555 1_555
H166 C105 1_555 1_555
O16 H167 1_555 1_555
C106 H168 1_555 1_555
H169 C106 1_555 1_555
H170 C106 1_555 1_555
C107 O16 1_555 1_555
H171 C107 1_555 1_555
C108 C107 1_555 1_555
C109 C108 1_555 1_555
H172 C109 1_555 1_555
C110 C109 1_555 1_555
H173 C110 1_555 1_555
C111 C110 1_555 1_555
H174 C111 1_555 1_555
C112 C111 1_555 1_555
H175 C112 1_555 1_555
C113 C108 1_555 1_555
H176 C113 1_555 1_555
N5 C115 1_555 1_555
C114 H177 1_555 1_555
H178 C114 1_555 1_555
H179 C114 1_555 1_555
C115 C114 1_555 1_555
Mg4 O7 1_555 1_555
Mg4 O11 1_555 1_555
O12 C98 1_555 1_555
C5 C6 1_555 1_555
C6 C7 1_555 1_555
C17 C18 1_555 1_555
C21 C22 1_555 1_555
C31 C32 1_555 1_555
C38 C39 1_555 1_555
C39 C40 1_555 1_555
C53 C54 1_555 1_555
C54 C55 1_555 1_555
C64 C65 1_555 1_555
C71 C72 1_555 1_555
C72 C73 1_555 1_555
C86 C87 1_555 1_555
C87 C88 1_555 1_555
C97 C98 1_555 1_555
C106 C107 1_555 1_555
C112 C113 1_555 1_555

#END
