
#######################################################################
#
#                 Cambridge Crystallographic Data Centre
#                                CCDC 
#
#######################################################################
#
# If this CIF has been generated from an entry in the Cambridge 
# Structural Database, then it will include bibliographic, chemical, 
# crystal, experimental, refinement or atomic coordinate data resulting 
# from the CCDC's data processing and validation procedures.
#
#######################################################################

data_HOYSUL
_chemical_formula_moiety         'C6 N8 O11 2-,2(C2 H8 N5 1+)'
_chemical_name_systematic        
'bis(amino((diaminomethylene)amino)methaniminium) (4-((4-(dinitromethanidyl)-1,2,5-oxadiazol-3-yl)oxy)-1,2,5-oxadiazol-3-yl)(dinitro)methanide'
_symmetry_cell_setting           orthorhombic
_symmetry_space_group_name_H-M   'P b c n'
_symmetry_Int_Tables_number      60
_space_group_name_Hall           '-P 2n 2ab'
loop_
_symmetry_equiv_pos_site_id
_symmetry_equiv_pos_as_xyz
1 x,y,z
2 1/2+x,1/2-y,-z
3 -x,y,1/2-z
4 1/2-x,1/2-y,1/2+z
5 -x,-y,-z
6 1/2-x,1/2+y,z
7 x,-y,1/2+z
8 1/2+x,1/2+y,1/2-z
_cell_length_a                   13.873(9)
_cell_length_b                   11.275(7)
_cell_length_c                   14.334(10)
_cell_angle_alpha                90
_cell_angle_beta                 90
_cell_angle_gamma                90
_cell_volume                     2242.1
_exptl_crystal_colour            yellow
_exptl_crystal_description       block
_cell_formula_units_Z            4
loop_
_atom_site_label
_atom_site_type_symbol
_atom_site_fract_x
_atom_site_fract_y
_atom_site_fract_z
N1 N 0.36742(18) 1.0839(2) 0.15557(18)
N2 N 0.38520(19) 1.0224(2) -0.00510(19)
N3 N 0.3315(2) 0.7904(2) 0.0794(2)
N4 N 0.4229(2) 0.7038(2) 0.1935(2)
O1 O 0.35087(18) 1.0503(2) 0.23796(17)
O2 O 0.37777(18) 1.19139(19) 0.13728(18)
O3 O 0.3623(2) 1.1205(2) -0.03697(18)
O4 O 0.41530(17) 0.94225(18) -0.05716(16)
O5 O 0.3557(2) 0.6854(2) 0.1222(2)
O6 O 0.5000 0.8761(2) 0.2500
C1 C 0.3764(2) 0.9962(2) 0.0902(2)
C2 C 0.3815(2) 0.8731(3) 0.1211(2)
C3 C 0.4388(2) 0.8167(2) 0.1926(2)
N1B N 0.63258(18) 1.0839(2) 0.34443(18)
N2B N 0.61480(19) 1.0224(2) 0.50510(19)
N3B N 0.6685(2) 0.7904(2) 0.4206(2)
N4B N 0.5771(2) 0.7038(2) 0.3065(2)
O1B O 0.64913(18) 1.0503(2) 0.26204(17)
O2B O 0.62223(18) 1.19139(19) 0.36272(18)
O3B O 0.6377(2) 1.1205(2) 0.53697(18)
O4B O 0.58470(17) 0.94225(18) 0.55716(16)
O5B O 0.6443(2) 0.6854(2) 0.3778(2)
C1B C 0.6236(2) 0.9962(2) 0.4098(2)
C2B C 0.6185(2) 0.8731(3) 0.3789(2)
C3B C 0.5612(2) 0.8167(2) 0.3074(2)
N5 N 0.1291(2) 0.0607(2) 0.7497(2)
H1 H 0.1384 0.1083 0.7036
H2 H 0.1316 -0.0147 0.7410
N6 N 0.1079(2) 0.2208(2) 0.8443(2)
H3 H 0.1174 0.2661 0.7970
H4 H 0.0964 0.2512 0.8982
N7 N 0.09043(18) 0.0393(2) 0.90977(19)
N8 N 0.0817(2) -0.1315(2) 0.9923(2)
H5 H 0.1030 -0.2006 1.0072
H6 H 0.0324 -0.1026 1.0205
N9 N 0.2012(2) -0.1173(2) 0.8835(2)
H7 H 0.2214 -0.1865 0.8995
H8 H 0.2304 -0.0787 0.8402
C4 C 0.11104(19) 0.1037(3) 0.8342(2)
C5 C 0.1249(2) -0.0699(3) 0.9260(2)
loop_
_geom_bond_atom_site_label_1
_geom_bond_atom_site_label_2
_geom_bond_site_symmetry_1
_geom_bond_site_symmetry_2
N1 O1 1_555 1_555
N2 O3 1_555 1_555
N3 O5 1_555 1_555
N4 O5 1_555 1_555
O2 N1 1_555 1_555
O4 N2 1_555 1_555
O6 C3 1_555 1_555
C1 N1 1_555 1_555
C2 N3 1_555 1_555
C3 N4 1_555 1_555
N5 H1 1_555 1_555
H2 N5 1_555 1_555
N6 H3 1_555 1_555
H4 N6 1_555 1_555
N7 C4 1_555 1_555
N8 H5 1_555 1_555
H6 N8 1_555 1_555
N9 H7 1_555 1_555
H8 N9 1_555 1_555
C4 N5 1_555 1_555
C5 N7 1_555 1_555
N1B O1B 1_555 1_555
N2B O3B 1_555 1_555
N3B O5B 1_555 1_555
N4B O5B 1_555 1_555
O2B N1B 1_555 1_555
O4B N2B 1_555 1_555
C1B N1B 1_555 1_555
C2B N3B 1_555 1_555
C3B O6 1_555 1_555
N2 C1 1_555 1_555
C1 C2 1_555 1_555
C2 C3 1_555 1_555
N6 C4 1_555 1_555
N8 C5 1_555 1_555
N9 C5 1_555 1_555
N2B C1B 1_555 1_555
N4B C3B 1_555 1_555
C1B C2B 1_555 1_555
C2B C3B 1_555 1_555

#END
