
#######################################################################
#
#                 Cambridge Crystallographic Data Centre
#                                CCDC 
#
#######################################################################
#
# If this CIF has been generated from an entry in the Cambridge 
# Structural Database, then it will include bibliographic, chemical, 
# crystal, experimental, refinement or atomic coordinate data resulting 
# from the CCDC's data processing and validation procedures.
#
#######################################################################

data_HOYSOF
_chemical_formula_moiety         'C6 N8 O11 2-,2(C1 H6 N3 1+)'
_chemical_name_systematic        
'bis(diaminomethaniminium) (4-((4-(dinitromethanidyl)-1,2,5-oxadiazol-3-yl)oxy)-1,2,5-oxadiazol-3-yl)(dinitro)methanide'
_symmetry_cell_setting           triclinic
_symmetry_space_group_name_H-M   'P -1'
_symmetry_Int_Tables_number      2
_space_group_name_Hall           '-P 1'
loop_
_symmetry_equiv_pos_site_id
_symmetry_equiv_pos_as_xyz
1 x,y,z
2 -x,-y,-z
_cell_length_a                   8.8823(16)
_cell_length_b                   10.2514(18)
_cell_length_c                   10.7178(19)
_cell_angle_alpha                78.079(3)
_cell_angle_beta                 83.683(3)
_cell_angle_gamma                71.346(2)
_cell_volume                     903.693
_exptl_crystal_colour            yellow
_exptl_crystal_description       block
_cell_formula_units_Z            2
loop_
_atom_site_label
_atom_site_type_symbol
_atom_site_fract_x
_atom_site_fract_y
_atom_site_fract_z
N1 N 0.09862(19) 1.13064(15) 0.13119(15)
N2 N 0.10049(19) 0.89160(15) 0.16656(15)
N3 N 0.2661(2) 1.04808(19) -0.11784(17)
N4 N 0.4856(2) 0.85604(18) -0.11008(16)
N5 N 0.63752(18) 0.57710(16) 0.02378(15)
N6 N 0.62908(19) 0.40405(16) 0.19413(16)
N7 N 0.40286(18) 0.63707(15) 0.39150(13)
N8 N 0.3342(2) 0.43510(16) 0.37035(14)
O1 O 0.0055(2) 1.15414(16) 0.22435(16)
O2 O 0.1439(2) 1.22468(14) 0.06200(16)
O3 O 0.0431(2) 0.89104(17) 0.27628(16)
O4 O 0.1179(2) 0.79291(15) 0.11119(16)
O5 O 0.4003(2) 0.97989(17) -0.18349(15)
O6 O 0.43772(19) 0.75719(15) 0.10317(13)
O7 O 0.69976(16) 0.43650(14) 0.07634(13)
O8 O 0.3092(2) 0.66028(15) 0.48435(14)
O9 O 0.49279(17) 0.71172(14) 0.35360(13)
O10 O 0.2332(2) 0.44794(17) 0.45892(14)
O11 O 0.3649(2) 0.33538(17) 0.31501(16)
C1 C 0.1515(2) 1.00059(17) 0.09829(17)
C2 C 0.2659(2) 0.97073(18) -0.00639(17)
C3 C 0.4033(2) 0.85180(18) -0.00416(16)
C4 C 0.5319(2) 0.62462(18) 0.10838(16)
C5 C 0.5243(2) 0.51886(17) 0.21537(16)
C6 C 0.4170(2) 0.53174(17) 0.32749(16)
N9 N 0.1759(3) 0.16321(18) 0.51615(18)
H1 H 0.1071 0.1760 0.5790
H2 H 0.1997 0.2334 0.4691
N10 N 0.3495(2) 0.0180(2) 0.39515(18)
H3 H 0.3946 -0.0647 0.3787
H4 H 0.3728 0.0885 0.3484
N11 N 0.2087(3) -0.06934(19) 0.56307(18)
H5 H 0.1399 -0.0565 0.6259
H6 H 0.2538 -0.1523 0.5472
C7 C 0.2446(2) 0.0368(2) 0.49200(18)
N12 N 0.8537(2) 0.65082(16) 0.26122(16)
H7 H 0.7861 0.6586 0.3253
H8 H 0.8632 0.7246 0.2100
N13 N 0.9278(2) 0.41416(16) 0.31974(15)
H9 H 0.9864 0.3326 0.3075
H10 H 0.8595 0.4221 0.3833
N14 N 1.0465(2) 0.51468(17) 0.14449(16)
H11 H 1.1053 0.4333 0.1319
H12 H 1.0558 0.5886 0.0934
C8 C 0.9426(2) 0.52611(18) 0.24163(16)
loop_
_geom_bond_atom_site_label_1
_geom_bond_atom_site_label_2
_geom_bond_site_symmetry_1
_geom_bond_site_symmetry_2
N1 O1 1_555 1_555
N2 O3 1_555 1_555
N3 O5 1_555 1_555
N4 O5 1_555 1_555
N5 O7 1_555 1_555
N6 O7 1_555 1_555
N7 O8 1_555 1_555
N8 O10 1_555 1_555
O2 N1 1_555 1_555
O4 N2 1_555 1_555
O6 C3 1_555 1_555
O9 N7 1_555 1_555
O11 N8 1_555 1_555
C1 N1 1_555 1_555
C2 N3 1_555 1_555
C3 N4 1_555 1_555
C4 N5 1_555 1_555
C5 N6 1_555 1_555
C6 N7 1_555 1_555
N9 H1 1_555 1_555
H2 N9 1_555 1_555
N10 H3 1_555 1_555
H4 N10 1_555 1_555
N11 H5 1_555 1_555
H6 N11 1_555 1_555
C7 N9 1_555 1_555
N12 H7 1_555 1_555
H8 N12 1_555 1_555
N13 H9 1_555 1_555
H10 N13 1_555 1_555
N14 H11 1_555 1_555
H12 N14 1_555 1_555
C8 N12 1_555 1_555
N2 C1 1_555 1_555
N8 C6 1_555 1_555
O6 C4 1_555 1_555
C1 C2 1_555 1_555
C2 C3 1_555 1_555
C4 C5 1_555 1_555
C5 C6 1_555 1_555
N10 C7 1_555 1_555
N11 C7 1_555 1_555
N13 C8 1_555 1_555
N14 C8 1_555 1_555

#END
