
#######################################################################
#
#                 Cambridge Crystallographic Data Centre
#                                CCDC 
#
#######################################################################
#
# If this CIF has been generated from an entry in the Cambridge 
# Structural Database, then it will include bibliographic, chemical, 
# crystal, experimental, refinement or atomic coordinate data resulting 
# from the CCDC's data processing and validation procedures.
#
#######################################################################

data_HOYVEY
_chemical_formula_moiety         'C12 H9 B2 F5 N2'
_chemical_name_systematic        
1,1-difluoro-3-phenyl-2-(trifluoroboranyl)-1H-[1,3,2]diazaborolo[1,5-a]pyridine
_symmetry_cell_setting           orthorhombic
_symmetry_space_group_name_H-M   'P b c a'
_symmetry_Int_Tables_number      61
_space_group_name_Hall           '-P 2ac 2ab'
loop_
_symmetry_equiv_pos_site_id
_symmetry_equiv_pos_as_xyz
1 x,y,z
2 1/2-x,-y,1/2+z
3 -x,1/2+y,1/2-z
4 1/2+x,1/2-y,-z
5 -x,-y,-z
6 1/2+x,y,1/2-z
7 x,1/2-y,1/2+z
8 1/2-x,1/2+y,z
_cell_length_a                   9.934(3)
_cell_length_b                   12.290(4)
_cell_length_c                   21.001(7)
_cell_angle_alpha                90
_cell_angle_beta                 90
_cell_angle_gamma                90
_cell_volume                     2563.99
_exptl_crystal_colour            yellow
_exptl_crystal_description       block
_cell_formula_units_Z            8
loop_
_atom_site_label
_atom_site_type_symbol
_atom_site_fract_x
_atom_site_fract_y
_atom_site_fract_z
B1 B 0.95396(18) 0.15281(15) 0.94754(8)
B2 B 1.18440(18) 0.06977(16) 0.89253(9)
C1 C 0.93851(14) 0.00635(11) 0.87435(7)
F1 F 0.96545(11) 0.25734(8) 0.92610(5)
N1 N 0.80210(13) 0.11309(11) 0.93741(6)
C2 C 0.79824(15) 0.03043(12) 0.89518(7)
F2 F 0.99393(9) 0.14145(8) 1.00933(4)
N2 N 1.02461(12) 0.06848(10) 0.90209(6)
C3 C 0.67957(17) -0.01955(14) 0.87902(9)
H1 H 0.6790 -0.0794 0.8504
C4 C 0.56138(17) 0.02071(16) 0.90614(10)
H2 H 0.4772 -0.0114 0.8957
C5 C 0.56677(18) 0.10685(16) 0.94795(9)
H3 H 0.4862 0.1354 0.9657
C6 C 0.68972(17) 0.15171(14) 0.96409(9)
H4 H 0.6943 0.2096 0.9940
F3 F 1.23895(11) -0.01485(12) 0.92687(7)
C7 C 0.96406(15) -0.07917(12) 0.82653(7)
F4 F 1.22888(11) 0.16831(10) 0.91557(6)
C8 C 0.89359(17) -0.07564(14) 0.76899(8)
H5 H 0.8316 -0.0184 0.7610
F5 F 1.21234(11) 0.05950(9) 0.82913(5)
C9 C 0.91400(18) -0.15533(15) 0.72380(8)
H6 H 0.8679 -0.1521 0.6842
C10 C 1.0015(2) -0.23963(16) 0.73631(9)
H7 H 1.0145 -0.2951 0.7054
C11 C 1.0705(2) -0.24417(15) 0.79341(9)
H8 H 1.1301 -0.3029 0.8016
C12 C 1.05316(17) -0.16350(14) 0.83867(8)
H9 H 1.1017 -0.1659 0.8776
loop_
_geom_bond_atom_site_label_1
_geom_bond_atom_site_label_2
_geom_bond_site_symmetry_1
_geom_bond_site_symmetry_2
B1 F1 1_555 1_555
B2 N2 1_555 1_555
C1 C2 1_555 1_555
N1 B1 1_555 1_555
C2 N1 1_555 1_555
F2 B1 1_555 1_555
N2 B1 1_555 1_555
C3 C2 1_555 1_555
H1 C3 1_555 1_555
C4 C3 1_555 1_555
H2 C4 1_555 1_555
C5 C4 1_555 1_555
H3 C5 1_555 1_555
C6 N1 1_555 1_555
H4 C6 1_555 1_555
F3 B2 1_555 1_555
C7 C1 1_555 1_555
F4 B2 1_555 1_555
C8 C7 1_555 1_555
H5 C8 1_555 1_555
F5 B2 1_555 1_555
C9 C8 1_555 1_555
H6 C9 1_555 1_555
C10 C9 1_555 1_555
H7 C10 1_555 1_555
C11 C10 1_555 1_555
H8 C11 1_555 1_555
C12 C7 1_555 1_555
H9 C12 1_555 1_555
C1 N2 1_555 1_555
C5 C6 1_555 1_555
C11 C12 1_555 1_555

#END
