
#######################################################################
#
#                 Cambridge Crystallographic Data Centre
#                                CCDC 
#
#######################################################################
#
# If this CIF has been generated from an entry in the Cambridge 
# Structural Database, then it will include bibliographic, chemical, 
# crystal, experimental, refinement or atomic coordinate data resulting 
# from the CCDC's data processing and validation procedures.
#
#######################################################################

data_HOYVIC
_chemical_formula_moiety         'C15 H19 B1 N3 1+,C4 H8 O1,Cl1 1-'
_chemical_name_systematic        
'diethyl-(1-(pyrid-2-yl)-1-(pyridin-2-yl)methanimine)-boron chloride tetrahydrofuran solvate'
_symmetry_cell_setting           monoclinic
_symmetry_space_group_name_H-M   'P 21'
_symmetry_Int_Tables_number      4
_space_group_name_Hall           'P 2yb'
loop_
_symmetry_equiv_pos_site_id
_symmetry_equiv_pos_as_xyz
1 x,y,z
2 -x,1/2+y,-z
_cell_length_a                   9.38350(10)
_cell_length_b                   12.8596(3)
_cell_length_c                   16.6196(3)
_cell_angle_alpha                90
_cell_angle_beta                 99.1807(12)
_cell_angle_gamma                90
_cell_volume                     1979.77
_exptl_crystal_colour            yellow
_exptl_crystal_description       block
_cell_formula_units_Z            4
loop_
_atom_site_label
_atom_site_type_symbol
_atom_site_fract_x
_atom_site_fract_y
_atom_site_fract_z
Cl1 Cl 0.26709(7) 0.62682(6) 0.11842(5)
Cl2 Cl 0.71587(7) 0.22436(6) 0.37826(5)
N1 N 0.4370(2) 0.1255(2) 0.41617(14)
H1 H 0.5138 0.1519 0.3994
C1 C 0.2028(3) -0.0513(3) 0.50635(19)
H2 H 0.2525 -0.1107 0.5304
B1 B 0.4420(3) 0.0211(3) 0.4646(2)
N2 N 0.2743(2) 0.0224(2) 0.47273(14)
C2 C 0.0549(3) -0.0406(3) 0.50606(19)
H3 H 0.0028 -0.0933 0.5290
C3 C -0.0151(3) 0.0470(3) 0.47214(18)
H4 H -0.1156 0.0551 0.4724
C4 C 0.0604(3) 0.1238(3) 0.43758(17)
H5 H 0.0134 0.1847 0.4144
C5 C 0.2055(3) 0.1082(3) 0.43818(16)
C6 C 0.3130(3) 0.1703(3) 0.40248(18)
C7 C 0.2804(3) 0.2665(2) 0.35471(18)
C8 C 0.2126(3) 0.4427(3) 0.26716(19)
H6 H 0.1859 0.5050 0.2378
C9 C 0.6334(3) -0.0910(3) 0.4008(2)
H7 H 0.6435 -0.1521 0.3669
H8 H 0.6914 -0.1008 0.4548
H9 H 0.6669 -0.0290 0.3751
C10 C 0.4734(3) -0.0772(3) 0.4098(2)
H10 H 0.4400 -0.1411 0.4343
H11 H 0.4157 -0.0693 0.3548
C11 C 0.5404(3) 0.0301(3) 0.55279(19)
H12 H 0.5313 -0.0355 0.5828
H13 H 0.6424 0.0365 0.5450
C12 C 0.5055(4) 0.1205(3) 0.6059(2)
H14 H 0.5712 0.1189 0.6581
H15 H 0.4057 0.1142 0.6158
H16 H 0.5173 0.1863 0.5781
C13 C 0.1455(3) 0.4137(3) 0.33143(19)
H17 H 0.0729 0.4583 0.3458
C14 C 0.3192(3) 0.3796(3) 0.24636(19)
H18 H 0.3668 0.3973 0.2019
C15 C 0.3566(3) 0.2894(3) 0.29131(18)
H19 H 0.4313 0.2450 0.2792
N3 N 0.1757(2) 0.3265(2) 0.37531(15)
B2 B 0.5380(4) 0.8222(3) 0.0371(2)
N4 N 0.5505(2) 0.7182(2) 0.08499(14)
H20 H 0.4752 0.6881 0.1005
C16 C 0.7734(3) 0.9035(3) -0.00478(19)
H21 H 0.7195 0.9601 -0.0308
N5 N 0.7055(3) 0.8283(2) 0.03009(14)
C17 C 0.9203(3) 0.8997(3) -0.00330(19)
H22 H 0.9678 0.9528 -0.0287
C18 C 0.9984(3) 0.8175(3) 0.03561(19)
H23 H 1.1001 0.8149 0.0376
C19 C 0.9291(3) 0.7389(3) 0.07165(17)
H24 H 0.9815 0.6821 0.0983
C20 C 0.7812(3) 0.7463(3) 0.06732(17)
C21 C 0.6781(3) 0.6788(3) 0.10066(17)
C22 C 0.7145(3) 0.5812(2) 0.14598(17)
C23 C 0.7918(3) 0.4039(3) 0.22915(18)
H25 H 0.8219 0.3415 0.2575
C24 C 0.4657(4) 0.7191(4) -0.1030(2)
H26 H 0.3989 0.7218 -0.1547
H27 H 0.4500 0.6547 -0.0742
H28 H 0.5653 0.7211 -0.1138
C25 C 0.4392(3) 0.8115(3) -0.0509(2)
H29 H 0.3370 0.8093 -0.0427
H30 H 0.4517 0.8755 -0.0822
C26 C 0.4904(3) 0.9164(3) 0.09070(19)
H31 H 0.4866 0.9806 0.0575
H32 H 0.3912 0.9024 0.1010
C27 C 0.5853(4) 0.9380(3) 0.1727(2)
H33 H 0.5959 0.8741 0.2053
H34 H 0.5401 0.9919 0.2019
H35 H 0.6806 0.9619 0.1635
C28 C 0.6784(3) 0.4609(3) 0.24948(18)
H36 H 0.6292 0.4387 0.2922
C29 C 0.8612(3) 0.4389(3) 0.16680(18)
H37 H 0.9378 0.3981 0.1525
C30 C 0.6379(3) 0.5504(3) 0.20671(18)
H38 H 0.5588 0.5905 0.2185
N6 N 0.8264(2) 0.5269(2) 0.12553(15)
O1 O 0.1363(3) 0.2541(2) 0.73321(16)
C31 C 0.0472(4) 0.3441(3) 0.7281(2)
H39 H 0.0771 0.3949 0.6893
H40 H 0.0535 0.3776 0.7822
C32 C -0.1023(4) 0.3068(3) 0.6991(2)
H41 H -0.1620 0.3622 0.6691
H42 H -0.1491 0.2830 0.7451
C33 C 0.0732(5) 0.1878(4) 0.6690(3)
H43 H 0.0796 0.1146 0.6877
H44 H 0.1263 0.1942 0.6223
C34 C -0.0806(4) 0.2168(4) 0.6429(3)
H45 H -0.1455 0.1580 0.6502
H46 H -0.0983 0.2388 0.5851
O2 O 1.1168(3) 1.0738(2) 0.25707(13)
C35 C 0.9690(4) 1.1260(4) 0.1360(2)
H47 H 0.9230 1.1897 0.1103
H48 H 0.9095 1.0648 0.1161
C36 C 1.1246(4) 1.1144(3) 0.1195(2)
H49 H 1.1277 1.0777 0.0675
H50 H 1.1723 1.1829 0.1183
C37 C 1.1934(4) 1.0504(3) 0.1914(2)
H51 H 1.1859 0.9754 0.1781
H52 H 1.2967 1.0687 0.2064
C38 C 0.9907(4) 1.1331(4) 0.2266(2)
H53 H 1.0040 1.2065 0.2441
H54 H 0.9057 1.1048 0.2476
loop_
_geom_bond_atom_site_label_1
_geom_bond_atom_site_label_2
_geom_bond_site_symmetry_1
_geom_bond_site_symmetry_2
N1 H1 1_555 1_555
C1 H2 1_555 1_555
B1 N1 1_555 1_555
N2 C1 1_555 1_555
C2 C1 1_555 1_555
H3 C2 1_555 1_555
C3 C2 1_555 1_555
H4 C3 1_555 1_555
C4 C3 1_555 1_555
H5 C4 1_555 1_555
C5 N2 1_555 1_555
C6 N1 1_555 1_555
C7 C6 1_555 1_555
C8 H6 1_555 1_555
C9 H7 1_555 1_555
H8 C9 1_555 1_555
H9 C9 1_555 1_555
C10 B1 1_555 1_555
H10 C10 1_555 1_555
H11 C10 1_555 1_555
C11 B1 1_555 1_555
H12 C11 1_555 1_555
H13 C11 1_555 1_555
C12 C11 1_555 1_555
H14 C12 1_555 1_555
H15 C12 1_555 1_555
H16 C12 1_555 1_555
C13 C8 1_555 1_555
H17 C13 1_555 1_555
C14 C8 1_555 1_555
H18 C14 1_555 1_555
C15 C7 1_555 1_555
H19 C15 1_555 1_555
N3 C7 1_555 1_555
B2 N4 1_555 1_555
N4 H20 1_555 1_555
C16 H21 1_555 1_555
N5 B2 1_555 1_555
C17 C16 1_555 1_555
H22 C17 1_555 1_555
C18 C17 1_555 1_555
H23 C18 1_555 1_555
C19 C18 1_555 1_555
H24 C19 1_555 1_555
C20 N5 1_555 1_555
C21 N4 1_555 1_555
C22 C21 1_555 1_555
C23 H25 1_555 1_555
C24 H26 1_555 1_555
H27 C24 1_555 1_555
H28 C24 1_555 1_555
C25 B2 1_555 1_555
H29 C25 1_555 1_555
H30 C25 1_555 1_555
C26 B2 1_555 1_555
H31 C26 1_555 1_555
H32 C26 1_555 1_555
C27 C26 1_555 1_555
H33 C27 1_555 1_555
H34 C27 1_555 1_555
H35 C27 1_555 1_555
C28 C23 1_555 1_555
H36 C28 1_555 1_555
C29 C23 1_555 1_555
H37 C29 1_555 1_555
C30 C22 1_555 1_555
H38 C30 1_555 1_555
N6 C22 1_555 1_555
O1 C31 1_555 1_555
C31 H39 1_555 1_555
H40 C31 1_555 1_555
C32 C31 1_555 1_555
H41 C32 1_555 1_555
H42 C32 1_555 1_555
C33 O1 1_555 1_555
H43 C33 1_555 1_555
H44 C33 1_555 1_555
C34 C32 1_555 1_555
H45 C34 1_555 1_555
H46 C34 1_555 1_555
O2 C37 1_555 1_555
C35 H47 1_555 1_555
H48 C35 1_555 1_555
C36 C35 1_555 1_555
H49 C36 1_555 1_555
H50 C36 1_555 1_555
C37 C36 1_555 1_555
H51 C37 1_555 1_555
H52 C37 1_555 1_555
C38 O2 1_555 1_555
H53 C38 1_555 1_555
H54 C38 1_555 1_555
B1 N2 1_555 1_555
C4 C5 1_555 1_555
C5 C6 1_555 1_555
C9 C10 1_555 1_555
C13 N3 1_555 1_555
C14 C15 1_555 1_555
C16 N5 1_555 1_555
C19 C20 1_555 1_555
C20 C21 1_555 1_555
C24 C25 1_555 1_555
C28 C30 1_555 1_555
C29 N6 1_555 1_555
C33 C34 1_555 1_555
C35 C38 1_555 1_555

#END
