
#######################################################################
#
#                 Cambridge Crystallographic Data Centre
#                                CCDC 
#
#######################################################################
#
# If this CIF has been generated from an entry in the Cambridge 
# Structural Database, then it will include bibliographic, chemical, 
# crystal, experimental, refinement or atomic coordinate data resulting 
# from the CCDC's data processing and validation procedures.
#
#######################################################################

data_HOYVAU
_chemical_formula_moiety         'C16 H20 B1 N2 1+,C4 H8 O1,Cl1 1-'
_chemical_name_systematic        
'diethyl-(1-phenyl-1-(pyridin-2-yl)methanimine)-boron chloride tetrahydrofuran solvate'
_symmetry_cell_setting           monoclinic
_symmetry_space_group_name_H-M   'P 21/c'
_symmetry_Int_Tables_number      14
_space_group_name_Hall           '-P 2ybc'
loop_
_symmetry_equiv_pos_site_id
_symmetry_equiv_pos_as_xyz
1 x,y,z
2 -x,1/2+y,1/2-z
3 -x,-y,-z
4 x,1/2-y,1/2+z
_cell_length_a                   9.2150(2)
_cell_length_b                   13.4773(3)
_cell_length_c                   17.1221(4)
_cell_angle_alpha                90
_cell_angle_beta                 97.697(2)
_cell_angle_gamma                90
_cell_volume                     2107.29
_exptl_crystal_colour            colorless
_exptl_crystal_description       block
_cell_formula_units_Z            4
loop_
_atom_site_label
_atom_site_type_symbol
_atom_site_fract_x
_atom_site_fract_y
_atom_site_fract_z
Cl1 Cl 0.73920(8) 0.31289(7) 0.36136(5)
N1 N 0.0241(3) 0.22197(19) 0.32110(15)
H1 H -0.0505 0.2524 0.3363
B1 B 0.0068(4) 0.1257(3) 0.2700(2)
N2 N 0.1777(3) 0.11334(19) 0.26582(15)
C1 C 0.1560(3) 0.2534(2) 0.33919(17)
C2 C 0.2579(3) 0.1859(2) 0.30587(17)
C3 C 0.4089(3) 0.1858(3) 0.3132(2)
H2 H 0.4646 0.2356 0.3416
C4 C 0.4752(4) 0.1093(3) 0.2770(2)
H3 H 0.5778 0.1072 0.2803
C5 C 0.3924(4) 0.0366(3) 0.2363(2)
H4 H 0.4380 -0.0150 0.2118
C6 C 0.2424(4) 0.0397(3) 0.2316(2)
H5 H 0.1853 -0.0103 0.2041
C7 C 0.1995(3) 0.3412(2) 0.38763(17)
C8 C 0.3142(3) 0.4015(2) 0.37162(19)
H6 H 0.3645 0.3867 0.3287
C9 C 0.3549(4) 0.4831(3) 0.4186(2)
H7 H 0.4316 0.5243 0.4071
C10 C 0.2834(4) 0.5038(3) 0.4819(2)
H8 H 0.3121 0.5586 0.5143
C11 C 0.1700(4) 0.4448(3) 0.4980(2)
H9 H 0.1215 0.4593 0.5416
C12 C 0.1259(3) 0.3637(3) 0.45071(18)
H10 H 0.0466 0.3244 0.4614
C13 C -0.0520(4) 0.0348(3) 0.3168(2)
H11 H -0.1552 0.0469 0.3218
H12 H -0.0475 -0.0254 0.2851
C14 C 0.0280(6) 0.0154(4) 0.3973(3)
H13 H -0.0149 -0.0415 0.4202
H14 H 0.0204 0.0731 0.4304
H15 H 0.1303 0.0022 0.3935
C15 C -0.0812(4) 0.1455(3) 0.1845(2)
H16 H -0.0752 0.0855 0.1528
H17 H -0.1846 0.1555 0.1903
C16 C -0.0318(5) 0.2323(4) 0.1392(2)
H18 H -0.0886 0.2346 0.0872
H19 H 0.0711 0.2249 0.1340
H20 H -0.0462 0.2934 0.1671
O1 O 0.3891(14) 0.3201(9) 0.1414(7)
C17 C 0.363(2) 0.4035(12) 0.0777(9)
H21 H 0.2618 0.4285 0.0715
H22 H 0.4316 0.4587 0.0882
C18 C 0.392(2) 0.3443(14) 0.0116(9)
H23 H 0.4107 0.3874 -0.0320
H24 H 0.3067 0.3026 -0.0065
C19 C 0.520(2) 0.2819(13) 0.0366(10)
H25 H 0.5242 0.2251 0.0013
H26 H 0.6110 0.3199 0.0392
C20 C 0.4954(19) 0.2549(12) 0.1039(10)
H27 H 0.5887 0.2533 0.1389
H28 H 0.4567 0.1871 0.1002
O2? O 0.4352(14) 0.3683(9) 0.1587(6)
C21? C 0.3363(17) 0.3528(14) 0.0726(9)
H29? H 0.3033 0.2839 0.0654
H30? H 0.2507 0.3966 0.0666
C22? C 0.4365(18) 0.3788(15) 0.0171(9)
H31? H 0.4137 0.3412 -0.0321
H32? H 0.4310 0.4498 0.0049
C23? C 0.5789(18) 0.3529(14) 0.0564(10)
H33? H 0.6230 0.3023 0.0260
H34? H 0.6424 0.4115 0.0605
C24? C 0.5667(17) 0.3177(14) 0.1295(10)
H35? H 0.6562 0.3321 0.1654
H36? H 0.5524 0.2457 0.1276
loop_
_geom_bond_atom_site_label_1
_geom_bond_atom_site_label_2
_geom_bond_site_symmetry_1
_geom_bond_site_symmetry_2
N1 H1 1_555 1_555
B1 N1 1_555 1_555
N2 B1 1_555 1_555
C1 N1 1_555 1_555
C2 N2 1_555 1_555
C3 C2 1_555 1_555
H2 C3 1_555 1_555
C4 C3 1_555 1_555
H3 C4 1_555 1_555
C5 C4 1_555 1_555
H4 C5 1_555 1_555
C6 N2 1_555 1_555
H5 C6 1_555 1_555
C7 C1 1_555 1_555
C8 C7 1_555 1_555
H6 C8 1_555 1_555
C9 C8 1_555 1_555
H7 C9 1_555 1_555
C10 C9 1_555 1_555
H8 C10 1_555 1_555
C11 C10 1_555 1_555
H9 C11 1_555 1_555
C12 C7 1_555 1_555
H10 C12 1_555 1_555
C13 B1 1_555 1_555
H11 C13 1_555 1_555
H12 C13 1_555 1_555
C14 C13 1_555 1_555
H13 C14 1_555 1_555
H14 C14 1_555 1_555
H15 C14 1_555 1_555
C15 B1 1_555 1_555
H16 C15 1_555 1_555
H17 C15 1_555 1_555
C16 C15 1_555 1_555
H18 C16 1_555 1_555
H19 C16 1_555 1_555
H20 C16 1_555 1_555
O1 C17 1_555 1_555
C17 H21 1_555 1_555
H22 C17 1_555 1_555
C18 C17 1_555 1_555
H23 C18 1_555 1_555
H24 C18 1_555 1_555
C19 C18 1_555 1_555
H25 C19 1_555 1_555
H26 C19 1_555 1_555
C20 O1 1_555 1_555
H27 C20 1_555 1_555
H28 C20 1_555 1_555
C1 C2 1_555 1_555
C5 C6 1_555 1_555
C11 C12 1_555 1_555
C19 C20 1_555 1_555

#END
