
#######################################################################
#
#                 Cambridge Crystallographic Data Centre
#                                CCDC 
#
#######################################################################
#
# If this CIF has been generated from an entry in the Cambridge 
# Structural Database, then it will include bibliographic, chemical, 
# crystal, experimental, refinement or atomic coordinate data resulting 
# from the CCDC's data processing and validation procedures.
#
#######################################################################

data_HOYWOJ
_chemical_formula_moiety         
'C12 H24 O6,C9 H22 N2 2+,2(Cl1 O4 1-),0.5(H2 O1)'
_chemical_name_systematic        
'4-ammonio-2,2,6,6-tetramethylpiperidinium 18-crown-6 diperchlorate hemihydrate'
_symmetry_cell_setting           monoclinic
_symmetry_space_group_name_H-M   'P 21/m'
_symmetry_Int_Tables_number      11
_space_group_name_Hall           '-P 2yb'
loop_
_symmetry_equiv_pos_site_id
_symmetry_equiv_pos_as_xyz
1 x,y,z
2 -x,1/2+y,-z
3 -x,-y,-z
4 x,1/2-y,z
_cell_length_a                   10.432(13)
_cell_length_b                   11.734(14)
_cell_length_c                   13.639(16)
_cell_angle_alpha                90
_cell_angle_beta                 108.53(2)
_cell_angle_gamma                90
_cell_volume                     1582.98
_exptl_crystal_colour            colorless
_exptl_crystal_description       block
_cell_formula_units_Z            2
loop_
_atom_site_label
_atom_site_type_symbol
_atom_site_fract_x
_atom_site_fract_y
_atom_site_fract_z
O1 O 0.61783(14) 0.12720(13) 0.24009(11)
O2 O 0.86786(16) 0.03053(14) 0.33942(11)
O3 O 1.10582(8) 0.12611(8) 0.31626(10)
C1 C 0.6368(3) 0.04448(17) 0.31758(13)
H1 H 0.5534 0.0028 0.3081
H2 H 0.6630 0.0806 0.3850
C2 C 0.7418(3) -0.0325(2) 0.31093(19)
H3 H 0.7209 -0.0617 0.2411
H4 H 0.7489 -0.0964 0.3575
C3 C 0.9799(3) -0.0347(3) 0.3391(2)
H5 H 0.9707 -0.0584 0.2691
H6 H 0.9852 -0.1025 0.3810
C4 C 1.1047(3) 0.0339(3) 0.3813(2)
H7 H 1.1100 0.0621 0.4494
H8 H 1.1830 -0.0139 0.3885
C5 C 1.22169(15) 0.20191(13) 0.39388(14)
H9 H 1.3078 0.1642 0.4121
H10 H 1.2007 0.2203 0.4557
C6 C 0.5083(4) 0.2069(7) 0.2034(3)
H11 H 0.4260 0.1667 0.1974
H12 H 0.5045 0.2288 0.1347
O1C O 0.61783(14) 0.37280(13) 0.24009(11)
O2C O 0.86786(16) 0.46947(14) 0.33942(11)
O3C O 1.10582(8) 0.37389(8) 0.31626(10)
C1C C 0.6368(3) 0.45552(17) 0.31758(13)
H1C H 0.5534 0.4972 0.3081
H2C H 0.6630 0.4194 0.3850
C2C C 0.7418(3) 0.5325(2) 0.31093(19)
H3C H 0.7209 0.5617 0.2411
H4C H 0.7489 0.5964 0.3575
C3C C 0.9799(3) 0.5347(3) 0.3391(2)
H5C H 0.9707 0.5584 0.2691
H6C H 0.9852 0.6025 0.3810
C4C C 1.1047(3) 0.4661(3) 0.3813(2)
H7C H 1.1100 0.4379 0.4494
H8C H 1.1830 0.5139 0.3885
C5C C 1.22169(15) 0.29809(13) 0.39388(14)
H9C H 1.3078 0.3358 0.4121
H10C H 1.2007 0.2797 0.4557
C6C C 0.5083(4) 0.2931(7) 0.2034(3)
H11C H 0.4260 0.3333 0.1974
H12C H 0.5045 0.2712 0.1347
N1 N 0.85334(19) 0.2500 1.22782(13)
H13 H 0.8249 0.3136 1.2543
H14 H 0.9464 0.2500 1.2457
N2 N 0.78237(19) 0.2500 0.89995(13)
H15 H 0.7265 0.2500 0.8326
H16 H 0.8699 0.2500 0.8973
C7 C 0.75875(17) 0.13632(14) 0.94776(12)
C8 C 0.83040(16) 0.14320(14) 1.06460(11)
H17 H 0.8072 0.0767 1.0977
H18 H 0.9274 0.1427 1.0780
C9 C 0.7911(2) 0.2500 1.11079(15)
H19 H 0.6925 0.2500 1.0943
C10 C 0.8244(2) 0.04647(16) 0.89676(14)
H20 H 0.9189 0.0629 0.9126
H21 H 0.7817 0.0481 0.8232
H22 H 0.8134 -0.0277 0.9227
C11 C 0.60710(19) 0.1108(2) 0.92173(15)
H23 H 0.5950 0.0328 0.9380
H24 H 0.5625 0.1238 0.8494
H25 H 0.5690 0.1599 0.9615
H13C H 0.8249 0.1864 1.2543
C7C C 0.75875(17) 0.36368(14) 0.94776(12)
C8C C 0.83040(16) 0.35680(14) 1.06460(11)
H17C H 0.8072 0.4233 1.0977
H18C H 0.9274 0.3573 1.0780
C10C C 0.8244(2) 0.45353(16) 0.89676(14)
H20C H 0.9189 0.4371 0.9126
H21C H 0.7817 0.4519 0.8232
H22C H 0.8134 0.5277 0.9227
C11C C 0.60710(19) 0.3892(2) 0.92173(15)
H23C H 0.5950 0.4672 0.9380
H24C H 0.5625 0.3762 0.8494
H25C H 0.5690 0.3401 0.9615
Cl1 Cl 0.59432(9) 0.2500 0.60836(6)
O4 O 0.4598(7) 0.2500 0.6291(6)
O5 O 0.5509(5) 0.1521(4) 0.5511(3)
O6 O 0.7274(6) 0.2500 0.6807(5)
O5C O 0.5509(5) 0.3479(4) 0.5511(3)
O7 O 0.7390(3) 0.2500 0.4818(3)
H26 H 0.7810 0.1898 0.4896
H26C H 0.7810 0.3102 0.4896
Cl2 Cl 0.81829(6) 0.7500 0.05861(5)
O8 O 0.74371(18) 0.65167(15) 0.06486(13)
O9 O 0.8489(3) 0.7500 -0.03639(17)
O10 O 0.9405(3) 0.7500 0.1431(3)
O8C O 0.74371(18) 0.84833(15) 0.06486(13)
C12? C 1.21942(10) 0.19505(13) 0.3287(3)
C13? C 0.5103(3) 0.1926(4) 0.2624(3)
H27? H 0.5294 0.2079 0.3348
H28? H 1.2216 0.2188 0.2619
H29? H 1.2993 0.1508 0.3603
H30? H 0.4247 0.1546 0.2366
O11? O 0.6444(11) 0.1653(10) 0.6808(7)
O12? O 0.5571(8) 0.2500 0.6973(5)
O13? O 0.7358(10) 0.2500 0.6132(12)
O14? O 0.6255(3) 0.2500 0.5272(3)
loop_
_geom_bond_atom_site_label_1
_geom_bond_atom_site_label_2
_geom_bond_site_symmetry_1
_geom_bond_site_symmetry_2
O1 C1 1_555 1_555
O2 C2 1_555 1_555
O3 C4 1_555 1_555
C1 H1 1_555 1_555
H2 C1 1_555 1_555
C2 C1 1_555 1_555
H3 C2 1_555 1_555
H4 C2 1_555 1_555
C3 O2 1_555 1_555
H5 C3 1_555 1_555
H6 C3 1_555 1_555
C4 C3 1_555 1_555
H7 C4 1_555 1_555
H8 C4 1_555 1_555
C5 O3 1_555 1_555
H9 C5 1_555 1_555
H10 C5 1_555 1_555
C6 O1 1_555 1_555
H11 C6 1_555 1_555
H12 C6 1_555 1_555
N1 H13 1_555 1_555
H14 N1 1_555 1_555
N2 H15 1_555 1_555
H16 N2 1_555 1_555
C7 N2 1_555 1_555
C8 C7 1_555 1_555
H17 C8 1_555 1_555
H18 C8 1_555 1_555
C9 N1 1_555 1_555
H19 C9 1_555 1_555
C10 C7 1_555 1_555
H20 C10 1_555 1_555
H21 C10 1_555 1_555
H22 C10 1_555 1_555
C11 C7 1_555 1_555
H23 C11 1_555 1_555
H24 C11 1_555 1_555
H25 C11 1_555 1_555
Cl1 O4 1_555 1_555
O5 Cl1 1_555 1_555
O6 Cl1 1_555 1_555
O7 H26 1_555 1_555
Cl2 O8 1_555 1_555
O9 Cl2 1_555 1_555
O10 Cl2 1_555 1_555
O1C C1C 1_555 1_555
O2C C2C 1_555 1_555
O3C C4C 1_555 1_555
C1C H1C 1_555 1_555
H2C C1C 1_555 1_555
C2C C1C 1_555 1_555
H3C C2C 1_555 1_555
H4C C2C 1_555 1_555
C3C O2C 1_555 1_555
H5C C3C 1_555 1_555
H6C C3C 1_555 1_555
C4C C3C 1_555 1_555
H7C C4C 1_555 1_555
H8C C4C 1_555 1_555
C5C C5 1_555 1_555
H9C C5C 1_555 1_555
H10C C5C 1_555 1_555
C6C C6 1_555 1_555
H11C C6C 1_555 1_555
H12C C6C 1_555 1_555
H13C N1 1_555 1_555
C7C N2 1_555 1_555
C8C C9 1_555 1_555
H17C C8C 1_555 1_555
H18C C8C 1_555 1_555
C10C C7C 1_555 1_555
H20C C10C 1_555 1_555
H21C C10C 1_555 1_555
H22C C10C 1_555 1_555
C11C C7C 1_555 1_555
H23C C11C 1_555 1_555
H24C C11C 1_555 1_555
H25C C11C 1_555 1_555
O5C Cl1 1_555 1_555
H26C O7 1_555 1_555
O8C Cl2 1_555 1_555
C8 C9 1_555 1_555
O1C C6C 1_555 1_555
O3C C5C 1_555 1_555
C7C C8C 1_555 1_555

#END
