
#######################################################################
#
#                 Cambridge Crystallographic Data Centre
#                                CCDC 
#
#######################################################################
#
# If this CIF has been generated from an entry in the Cambridge 
# Structural Database, then it will include bibliographic, chemical, 
# crystal, experimental, refinement or atomic coordinate data resulting 
# from the CCDC's data processing and validation procedures.
#
#######################################################################

data_HOYXID
_chemical_formula_moiety         'C29 H31 N1 O8,C1 H1 Cl3'
_chemical_name_systematic        
'6-Acetyl-1^4^,1^5^,3^4^,3^5^,5^4^,5^5^-hexamethoxy-6-aza-1,3,5(1,2)-tribenzenacycloheptaphan-7-one chloroform solvate'
_symmetry_cell_setting           orthorhombic
_symmetry_space_group_name_H-M   'P n m a'
_symmetry_Int_Tables_number      62
_space_group_name_Hall           '-P 2ac 2n'
loop_
_symmetry_equiv_pos_site_id
_symmetry_equiv_pos_as_xyz
1 x,y,z
2 1/2-x,-y,1/2+z
3 -x,1/2+y,-z
4 1/2+x,1/2-y,1/2-z
5 -x,-y,-z
6 1/2+x,y,1/2-z
7 x,1/2-y,z
8 1/2-x,1/2+y,1/2+z
_cell_length_a                   16.7247(18)
_cell_length_b                   15.7070(16)
_cell_length_c                   11.2154(11)
_cell_angle_alpha                90
_cell_angle_beta                 90
_cell_angle_gamma                90
_cell_volume                     2946.23
_exptl_crystal_colour            yellow
_exptl_crystal_description       plate
_cell_formula_units_Z            4
_exptl_crystal_recrystallization_method chloroform
loop_
_atom_site_label
_atom_site_type_symbol
_atom_site_fract_x
_atom_site_fract_y
_atom_site_fract_z
C26 C 1.0006(3) 0.2500 0.6738(4)
H28 H 1.0174 0.2500 0.7593
Cl1 Cl 1.03797(9) 0.15911(7) 0.60455(10)
Cl2 Cl 0.89488(11) 0.2500 0.6660(2)
Cl1F Cl 1.03797(9) 0.34089(7) 0.60455(10)
N1 N 0.9494(3) 0.2721(3) 0.1879(4)
C1 C 0.9456(3) 0.1835(4) 0.1743(5)
O1 O 1.0028(3) 0.3632(4) 0.1908(5)
C2 C 1.0161(3) 0.3174(4) 0.2306(4)
O2 O 1.0161(3) 0.3940(3) 0.2221(5)
C3 C 1.0827(3) 0.2688(4) 0.2904(5)
H1 H 1.1148 0.2395 0.2298
H2 H 1.0599 0.2268 0.3453
H3 H 1.1167 0.3084 0.3349
C4 C 0.8662(5) 0.1481(4) 0.1368(7)
C5 C 0.8556(6) 0.1304(6) 0.0162(7)
H4 H 0.8960 0.1453 -0.0395
C6 C 0.7864(6) 0.0914(6) -0.0224(10)
C7 C 0.7270(4) 0.0713(5) 0.0581(8)
C8 C 0.7367(6) 0.0891(10) 0.1793(15)
H5 H 0.6956 0.0750 0.2343
C9 C 0.8065(8) 0.1276(8) 0.2192(13)
C10 C 0.8197(9) 0.1427(8) 0.3523(15)
H6 H 0.8743 0.1658 0.3636
C11 C 0.730(2) 0.1103(18) -0.2070(13)
H8 H 0.6795 0.0780 -0.2105
H9 H 0.7506 0.1181 -0.2878
H10 H 0.7195 0.1661 -0.1708
C12 C 0.6094(11) 0.0167(13) 0.1043(17)
H11 H 0.6325 -0.0246 0.1600
H12 H 0.5591 -0.0057 0.0724
H13 H 0.5991 0.0704 0.1463
O3 O 0.7819(6) 0.0686(6) -0.1425(8)
O4 O 0.6615(4) 0.0308(5) 0.0134(8)
H17 H 0.8392 0.1101 0.4044
C22 C 0.75798(15) 0.2056(2) 0.4143(2)
C23 C 0.69566(15) 0.16229(17) 0.4709(2)
H24 H 0.6959 0.1018 0.4713
C24 C 0.63341(14) 0.20512(16) 0.5266(2)
C25 C 0.56729(17) 0.07598(16) 0.5819(2)
H25 H 0.5647 0.0567 0.4989
H26 H 0.5196 0.0565 0.6248
H27 H 0.6152 0.0524 0.6200
O7 O 0.57083(11) 0.16755(11) 0.58510(15)
N1F N 0.9494(3) 0.2279(3) 0.1879(4)
C1F C 0.9456(3) 0.3165(4) 0.1743(5)
O1F O 1.0028(3) 0.1368(4) 0.1908(5)
C2F C 1.0161(3) 0.1826(4) 0.2306(4)
O2F O 1.0161(3) 0.1060(3) 0.2221(5)
C3F C 1.0827(3) 0.2312(4) 0.2904(5)
H1F H 1.1148 0.2605 0.2298
H2F H 1.0599 0.2732 0.3453
H3F H 1.1167 0.1916 0.3349
C4F C 0.8662(5) 0.3519(4) 0.1368(7)
C5F C 0.8556(6) 0.3696(6) 0.0162(7)
H4F H 0.8960 0.3547 -0.0395
C6F C 0.7864(6) 0.4086(6) -0.0224(10)
C7F C 0.7270(4) 0.4287(5) 0.0581(8)
C8F C 0.7367(6) 0.4109(10) 0.1793(15)
H5F H 0.6956 0.4250 0.2343
C9F C 0.8065(8) 0.3724(8) 0.2192(13)
C10F C 0.8197(9) 0.3573(8) 0.3523(15)
H6F H 0.8743 0.3342 0.3636
C11F C 0.730(2) 0.3897(18) -0.2070(13)
H8F H 0.6795 0.4220 -0.2105
H9F H 0.7506 0.3819 -0.2878
H10F H 0.7195 0.3339 -0.1708
C12F C 0.6094(11) 0.4833(13) 0.1043(17)
H11F H 0.6325 0.5246 0.1600
H12F H 0.5591 0.5057 0.0724
H13F H 0.5991 0.4296 0.1463
O3F O 0.7819(6) 0.4314(6) -0.1425(8)
O4F O 0.6615(4) 0.4692(5) 0.0134(8)
H17F H 0.8392 0.3899 0.4044
C22F C 0.75798(15) 0.2944(2) 0.4143(2)
C23F C 0.69566(15) 0.33771(17) 0.4709(2)
H24F H 0.6959 0.3982 0.4713
C24F C 0.63341(14) 0.29488(16) 0.5266(2)
C25F C 0.56729(17) 0.42402(16) 0.5819(2)
H25F H 0.5647 0.4433 0.4989
H26F H 0.5196 0.4435 0.6248
H27F H 0.6152 0.4476 0.6200
O7F O 0.57083(11) 0.33245(11) 0.58510(15)
H7? H 0.8173 0.0872 0.3937
C13? C 0.8822(4) 0.3234(4) 0.1490(6)
C14? C 0.8764(5) 0.3434(5) 0.0285(8)
H14? H 0.9165 0.3248 -0.0255
C15? C 0.8125(5) 0.3898(6) -0.0125(8)
C16? C 0.7533(4) 0.4186(4) 0.0663(8)
C17? C 0.7599(6) 0.3984(8) 0.1855(11)
H15? H 0.7198 0.4175 0.2392
C18? C 0.8236(8) 0.3508(7) 0.2294(13)
C19? C 0.8300(10) 0.3349(8) 0.3635(14)
H16? H 0.8768 0.2980 0.3792
C20? C 0.746(2) 0.3756(19) -0.2019(14)
H18? H 0.6947 0.3983 -0.1759
H19? H 0.7470 0.3137 -0.1913
H20? H 0.7548 0.3894 -0.2862
C21? C 0.6203(12) 0.5015(15) 0.0823(19)
H21? H 0.6388 0.5421 0.1427
H22? H 0.5899 0.4559 0.1209
H23? H 0.5861 0.5310 0.0247
O5? O 0.8093(4) 0.4132(5) -0.1316(6)
O6? O 0.6922(3) 0.4636(5) 0.0180(7)
loop_
_geom_bond_atom_site_label_1
_geom_bond_atom_site_label_2
_geom_bond_site_symmetry_1
_geom_bond_site_symmetry_2
N1 C1 1_555 1_555
C1 C4 1_555 1_555
O1 N1 1_555 1_555
C2 N1 1_555 1_555
O2 O1 1_555 1_555
C3 C2 1_555 1_555
H1 C3 1_555 1_555
H2 C3 1_555 1_555
H3 C3 1_555 1_555
C4 C5 1_555 1_555
C5 H4 1_555 1_555
C6 C5 1_555 1_555
C7 C6 1_555 1_555
C8 C7 1_555 1_555
H5 C8 1_555 1_555
C9 C4 1_555 1_555
C10 C9 1_555 1_555
H6 C10 1_555 1_555
C11 H8 1_555 1_555
H9 C11 1_555 1_555
H10 C11 1_555 1_555
C12 H11 1_555 1_555
H12 C12 1_555 1_555
H13 C12 1_555 1_555
O3 C6 1_555 1_555
O4 C7 1_555 1_555
H17 C10 1_555 1_555
C22 C10 1_555 1_555
C23 C22 1_555 1_555
H24 C23 1_555 1_555
C24 C23 1_555 1_555
C25 H25 1_555 1_555
H26 C25 1_555 1_555
H27 C25 1_555 1_555
C26 H28 1_555 1_555
Cl1 C26 1_555 1_555
Cl2 C26 1_555 1_555
O7 C24 1_555 1_555
N1F N1 1_555 1_555
C1F N1 1_555 1_555
O1F C1 1_555 1_555
C2F C1 1_555 1_555
O2F O1F 1_555 1_555
C3F C3 1_555 1_555
H1F C3 1_555 1_555
H2F C3 1_555 1_555
H3F C3F 1_555 1_555
C4F C1F 1_555 1_555
C5F C4F 1_555 1_555
H4F C5F 1_555 1_555
C6F C5F 1_555 1_555
C7F C6F 1_555 1_555
C8F C7F 1_555 1_555
H5F C8F 1_555 1_555
C9F C4F 1_555 1_555
C10F C9F 1_555 1_555
H6F C10F 1_555 1_555
C11F H8F 1_555 1_555
H9F C11F 1_555 1_555
H10F C11F 1_555 1_555
C12F H11F 1_555 1_555
H12F C12F 1_555 1_555
H13F C12F 1_555 1_555
O3F C6F 1_555 1_555
O4F C7F 1_555 1_555
H17F C10F 1_555 1_555
C22F C22 1_555 1_555
C23F C22F 1_555 1_555
H24F C23F 1_555 1_555
C24F C24 1_555 1_555
C25F H25F 1_555 1_555
H26F C25F 1_555 1_555
H27F C25F 1_555 1_555
Cl1F C26 1_555 1_555
O7F C24F 1_555 1_555
C1 N1F 1_555 1_555
O1 C2 1_555 1_555
O1 C1F 1_555 1_555
C2 O2 1_555 1_555
C2 C1F 1_555 1_555
H1 C3F 1_555 1_555
H1 H1F 1_555 1_555
H2 C3F 1_555 1_555
H2 H2F 1_555 1_555
C8 C9 1_555 1_555
C11 O3 1_555 1_555
C12 O4 1_555 1_555
C25 O7 1_555 1_555
N1F C1F 1_555 1_555
N1F O1F 1_555 1_555
N1F C2F 1_555 1_555
O1F C2F 1_555 1_555
C2F O2F 1_555 1_555
C2F C3F 1_555 1_555
C3F H1F 1_555 1_555
C3F H2F 1_555 1_555
C8F C9F 1_555 1_555
C10F C22F 1_555 1_555
C11F O3F 1_555 1_555
C12F O4F 1_555 1_555
C23F C24F 1_555 1_555
C25F O7F 1_555 1_555

#END
