
#######################################################################
#
#                 Cambridge Crystallographic Data Centre
#                                CCDC 
#
#######################################################################
#
# If this CIF has been generated from an entry in the Cambridge 
# Structural Database, then it will include bibliographic, chemical, 
# crystal, experimental, refinement or atomic coordinate data resulting 
# from the CCDC's data processing and validation procedures.
#
#######################################################################

data_HOYZEB
_chemical_formula_moiety         'C22 H22 Cl1 N3 O3'
_chemical_name_systematic        
2-(4-Chlorophenyl)-5-(2-(3,4-dimethoxyphenyl)ethyl)-6,7-dihydropyrazolo[1,5-a]pyrazin-4(5H)-one
_symmetry_cell_setting           triclinic
_symmetry_space_group_name_H-M   'P -1'
_symmetry_Int_Tables_number      2
_space_group_name_Hall           '-P 1'
loop_
_symmetry_equiv_pos_site_id
_symmetry_equiv_pos_as_xyz
1 x,y,z
2 -x,-y,-z
_cell_length_a                   7.1709(4)
_cell_length_b                   10.6982(5)
_cell_length_c                   13.9169(6)
_cell_angle_alpha                81.156(3)
_cell_angle_beta                 77.150(2)
_cell_angle_gamma                72.278(2)
_cell_volume                     987.245
_exptl_crystal_colour            colorless
_exptl_crystal_description       block
_cell_formula_units_Z            2
_exptl_crystal_recrystallization_method 'ethyl acetate'
loop_
_atom_site_label
_atom_site_type_symbol
_atom_site_fract_x
_atom_site_fract_y
_atom_site_fract_z
Cl1 Cl 0.20421(8) 0.95549(6) 0.40014(4)
N1 N -0.4397(2) 0.70036(14) 0.26041(11)
N2 N -0.5553(2) 0.69103(14) 0.19947(10)
N3 N -0.7921(2) 0.70588(15) 0.06451(11)
O1 O -0.7274(2) 0.89705(14) -0.00841(10)
O2 O -1.3542(2) 0.72159(14) -0.37111(10)
O3 O -0.9862(2) 0.58773(15) -0.41075(10)
C1 C 0.0314(3) 0.91488(18) 0.34943(14)
C2 C -0.0785(3) 0.8341(2) 0.40461(15)
H1 H -0.065(3) 0.8025(19) 0.4699(15)
C3 C -0.2109(3) 0.79940(19) 0.36251(14)
H2 H -0.289(3) 0.744(2) 0.3994(15)
C4 C -0.2335(3) 0.84383(17) 0.26496(12)
C5 C -0.1236(3) 0.92790(18) 0.21187(14)
H3 H -0.135(3) 0.9556(19) 0.1468(15)
C6 C 0.0084(3) 0.96339(19) 0.25367(14)
H4 H 0.082(3) 1.019(2) 0.2150(15)
C7 C -0.3707(3) 0.80384(17) 0.21908(12)
C8 C -0.4449(3) 0.86047(19) 0.13250(13)
H5 H -0.421(3) 0.933(2) 0.0897(15)
C9 C -0.5643(3) 0.78601(17) 0.12271(12)
C10 C -0.6987(3) 0.80106(19) 0.05288(13)
C11 C -0.7288(4) 0.5823(2) 0.12678(16)
H6 H -0.842(3) 0.543(2) 0.1422(16)
H7 H -0.600(4) 0.519(2) 0.0875(17)
C12 C -0.6833(4) 0.6042(2) 0.22192(15)
H8 H -0.611(3) 0.522(2) 0.2536(15)
H9 H -0.811(4) 0.647(2) 0.2650(17)
C13 C -0.9414(3) 0.7191(2) 0.00409(15)
H10 H -1.051(3) 0.684(2) 0.0467(15)
C14 C -0.8546(3) 0.6485(3) -0.08922(16)
H11 H -0.807(4) 0.551(3) -0.0693(18)
H12 H -0.736(4) 0.676(2) -0.1225(17)
C15 C -0.9982(3) 0.67175(18) -0.16026(13)
C16 C -1.1963(3) 0.7426(2) -0.13969(14)
H13 H -1.255(3) 0.777(2) -0.0773(16)
C17 C -1.3206(3) 0.7617(2) -0.20844(15)
H14 H -1.458(3) 0.814(2) -0.1909(14)
C18 C -1.2466(3) 0.70993(17) -0.29847(14)
C19 C -1.0451(3) 0.63712(18) -0.32041(13)
C20 C -0.9246(3) 0.61940(19) -0.25182(14)
H15 H -0.793(4) 0.570(2) -0.2684(15)
C21 C -1.5441(3) 0.8157(2) -0.36227(18)
H16 H -1.6042 0.8145 -0.4172
H17 H -1.5293 0.9018 -0.3621
H18 H -1.6275 0.7944 -0.3016
C22 C -0.7782(3) 0.5470(2) -0.45031(16)
H19 H -0.7578 0.5147 -0.5136
H20 H -0.7124 0.4782 -0.4060
H21 H -0.7243 0.6205 -0.4579
H22 H -0.998(3) 0.813(2) -0.0122(14)
loop_
_geom_bond_atom_site_label_1
_geom_bond_atom_site_label_2
_geom_bond_site_symmetry_1
_geom_bond_site_symmetry_2
Cl1 C1 1_555 1_555
N1 N2 1_555 1_555
N2 C9 1_555 1_555
N3 C10 1_555 1_555
O1 C10 1_555 1_555
O2 C18 1_555 1_555
O3 C19 1_555 1_555
C1 C2 1_555 1_555
C2 H1 1_555 1_555
C3 C2 1_555 1_555
H2 C3 1_555 1_555
C4 C3 1_555 1_555
C5 C4 1_555 1_555
H3 C5 1_555 1_555
C6 C1 1_555 1_555
H4 C6 1_555 1_555
C7 N1 1_555 1_555
C8 C7 1_555 1_555
H5 C8 1_555 1_555
C9 C8 1_555 1_555
C10 C9 1_555 1_555
C11 N3 1_555 1_555
H6 C11 1_555 1_555
H7 C11 1_555 1_555
C12 N2 1_555 1_555
H8 C12 1_555 1_555
H9 C12 1_555 1_555
C13 N3 1_555 1_555
H10 C13 1_555 1_555
C14 C13 1_555 1_555
H11 C14 1_555 1_555
H12 C14 1_555 1_555
C15 C14 1_555 1_555
C16 C15 1_555 1_555
H13 C16 1_555 1_555
C17 C16 1_555 1_555
H14 C17 1_555 1_555
C18 C17 1_555 1_555
C19 C18 1_555 1_555
C20 C15 1_555 1_555
H15 C20 1_555 1_555
C21 O2 1_555 1_555
H16 C21 1_555 1_555
H17 C21 1_555 1_555
H18 C21 1_555 1_555
C22 O3 1_555 1_555
H19 C22 1_555 1_555
H20 C22 1_555 1_555
H21 C22 1_555 1_555
H22 C13 1_555 1_555
C4 C7 1_555 1_555
C5 C6 1_555 1_555
C11 C12 1_555 1_555
C19 C20 1_555 1_555

#END
