
#######################################################################
#
#                 Cambridge Crystallographic Data Centre
#                                CCDC 
#
#######################################################################
#
# If this CIF has been generated from an entry in the Cambridge 
# Structural Database, then it will include bibliographic, chemical, 
# crystal, experimental, refinement or atomic coordinate data resulting 
# from the CCDC's data processing and validation procedures.
#
#######################################################################

data_HOZBAA
_chemical_formula_moiety         'C10 H8 Cl1 N1'
_chemical_name_systematic        8-Chloro-2-methylquinoline
_symmetry_cell_setting           orthorhombic
_symmetry_space_group_name_H-M   'P c a 21'
_symmetry_Int_Tables_number      29
_space_group_name_Hall           'P 2c -2ac'
loop_
_symmetry_equiv_pos_site_id
_symmetry_equiv_pos_as_xyz
1 x,y,z
2 -x,-y,1/2+z
3 1/2+x,-y,z
4 1/2-x,y,1/2+z
_cell_length_a                   12.7961(9)
_cell_length_b                   5.0660(4)
_cell_length_c                   13.1181(9)
_cell_angle_alpha                90
_cell_angle_beta                 90
_cell_angle_gamma                90
_cell_volume                     850.381
_exptl_crystal_colour            colorless
_exptl_crystal_description       block
_chemical_melting_point          '333 K'
_cell_formula_units_Z            4
_exptl_crystal_recrystallization_method ethanol
loop_
_atom_site_label
_atom_site_type_symbol
_atom_site_fract_x
_atom_site_fract_y
_atom_site_fract_z
Cl1 Cl 0.13075(3) -0.06692(9) -0.13065(4)
C1 C 0.33097(14) 0.5106(4) 0.00528(15)
C2 C 0.33961(16) 0.5667(4) 0.11114(16)
H1 H 0.3873 0.6971 0.1345
C3 C 0.27923(15) 0.4323(3) 0.17875(15)
H2 H 0.2846 0.4675 0.2497
C4 C 0.20807(14) 0.2386(3) 0.14243(14)
C5 C 0.14115(15) 0.0969(4) 0.20801(15)
H3 H 0.1427 0.1293 0.2793
C6 C 0.07432(15) -0.0864(4) 0.16908(16)
H4 H 0.0285 -0.1792 0.2134
C7 C 0.07260(15) -0.1394(4) 0.06385(16)
H5 H 0.0266 -0.2701 0.0377
C8 C 0.13698(14) -0.0033(4) -0.00123(15)
C9 C 0.20665(13) 0.1930(3) 0.03548(13)
C10 C 0.39634(17) 0.6615(5) -0.06992(17)
H6 H 0.4700 0.6137 -0.0613
H7 H 0.3877 0.8513 -0.0582
H8 H 0.3740 0.6181 -0.1394
N1 N 0.26803(12) 0.3289(3) -0.03180(11)
loop_
_geom_bond_atom_site_label_1
_geom_bond_atom_site_label_2
_geom_bond_site_symmetry_1
_geom_bond_site_symmetry_2
Cl1 C8 1_555 1_555
C1 C2 1_555 1_555
C2 H1 1_555 1_555
C3 C2 1_555 1_555
H2 C3 1_555 1_555
C4 C3 1_555 1_555
C5 C4 1_555 1_555
H3 C5 1_555 1_555
C6 C5 1_555 1_555
H4 C6 1_555 1_555
C7 C6 1_555 1_555
H5 C7 1_555 1_555
C8 C7 1_555 1_555
C9 C4 1_555 1_555
C10 C1 1_555 1_555
H6 C10 1_555 1_555
H7 C10 1_555 1_555
H8 C10 1_555 1_555
N1 C1 1_555 1_555
C8 C9 1_555 1_555
C9 N1 1_555 1_555

#END
