
#######################################################################
#
#                 Cambridge Crystallographic Data Centre
#                                CCDC 
#
#######################################################################
#
# If this CIF has been generated from an entry in the Cambridge 
# Structural Database, then it will include bibliographic, chemical, 
# crystal, experimental, refinement or atomic coordinate data resulting 
# from the CCDC's data processing and validation procedures.
#
#######################################################################

data_HOZBOO
_chemical_formula_moiety         '2(C7 H7 N1 O1),C4 H4 O4'
_chemical_name_systematic        'bis(4-Acetylpyridine) fumaric acid'
_symmetry_cell_setting           triclinic
_symmetry_space_group_name_H-M   'P -1'
_symmetry_Int_Tables_number      2
_space_group_name_Hall           '-P 1'
loop_
_symmetry_equiv_pos_site_id
_symmetry_equiv_pos_as_xyz
1 x,y,z
2 -x,-y,-z
_cell_length_a                   3.9062(5)
_cell_length_b                   8.6809(13)
_cell_length_c                   13.0909(18)
_cell_angle_alpha                87.925(4)
_cell_angle_beta                 89.941(3)
_cell_angle_gamma                83.141(4)
_cell_volume                     440.435
_exptl_crystal_colour            colorless
_exptl_crystal_description       needle
_cell_formula_units_Z            1
_exptl_crystal_recrystallization_method water/ethanol
loop_
_atom_site_label
_atom_site_type_symbol
_atom_site_fract_x
_atom_site_fract_y
_atom_site_fract_z
N1 N 0.4491(6) 0.4588(3) 0.69775(18)
O1 O 0.8832(6) 0.7499(3) 0.98158(16)
C1 C 0.5832(8) 0.4178(4) 0.7899(2)
H1 H 0.6122 0.3130 0.8097
C2 C 0.6807(7) 0.5230(3) 0.8573(2)
H2 H 0.7765 0.4894 0.9204
C3 C 0.6342(6) 0.6786(3) 0.82954(19)
C4 C 0.4891(6) 0.7228(3) 0.73526(19)
H3 H 0.4508 0.8270 0.7145
C5 C 0.4019(7) 0.6088(4) 0.6724(2)
H4 H 0.3048 0.6391 0.6089
C6 C 0.7453(7) 0.7954(3) 0.9018(2)
C7 C 0.6902(7) 0.9624(3) 0.8712(2)
H5 H 0.7914 1.0212 0.9215
H6 H 0.4474 0.9961 0.8664
H7 H 0.7961 0.9784 0.8061
O2 O 0.1660(6) 0.1037(2) 0.67034(15)
O3 O 0.2584(6) 0.2870(3) 0.55473(16)
C8 C 0.1658(7) 0.1535(3) 0.5833(2)
C9 C 0.0643(7) 0.0651(3) 0.4951(2)
H8 H 0.0951 0.1057 0.4295
H9 H 0.335(9) 0.337(5) 0.615(3)
O2A O -0.1660(6) -0.1037(2) 0.32966(15)
O3A O -0.2584(6) -0.2870(3) 0.44527(16)
C8A C -0.1658(7) -0.1535(3) 0.4167(2)
C9A C -0.0643(7) -0.0651(3) 0.5049(2)
H8A H -0.0951 -0.1057 0.5705
H9A H -0.335(9) -0.337(5) 0.385(3)
loop_
_geom_bond_atom_site_label_1
_geom_bond_atom_site_label_2
_geom_bond_site_symmetry_1
_geom_bond_site_symmetry_2
N1 C1 1_555 1_555
O1 C6 1_555 1_555
O2 C8 1_555 1_555
O3 C8 1_555 1_555
C1 H1 1_555 1_555
C2 C1 1_555 1_555
H2 C2 1_555 1_555
C3 C2 1_555 1_555
C4 C3 1_555 1_555
H3 C4 1_555 1_555
C5 N1 1_555 1_555
H4 C5 1_555 1_555
C6 C3 1_555 1_555
C7 C6 1_555 1_555
H5 C7 1_555 1_555
H6 C7 1_555 1_555
H7 C7 1_555 1_555
C8 C9 1_555 1_555
C9 H8 1_555 1_555
H9 O3 1_555 1_555
O2A C8A 1_555 1_555
O3A C8A 1_555 1_555
C8A C9A 1_555 1_555
C9A C9 1_555 1_555
H8A C9A 1_555 1_555
H9A O3A 1_555 1_555
C4 C5 1_555 1_555

#END
