
#######################################################################
#
#                 Cambridge Crystallographic Data Centre
#                                CCDC 
#
#######################################################################
#
# If this CIF has been generated from an entry in the Cambridge 
# Structural Database, then it will include bibliographic, chemical, 
# crystal, experimental, refinement or atomic coordinate data resulting 
# from the CCDC's data processing and validation procedures.
#
#######################################################################

data_HOZDOQ
_chemical_formula_moiety         'C10 H8 N2 O2 S1'
_chemical_name_systematic        'Phenyl N-(1,3-thiazol-2-yl)carbamate'
_symmetry_cell_setting           monoclinic
_symmetry_space_group_name_H-M   'P 21/c'
_symmetry_Int_Tables_number      14
_space_group_name_Hall           '-P 2ybc'
loop_
_symmetry_equiv_pos_site_id
_symmetry_equiv_pos_as_xyz
1 x,y,z
2 -x,1/2+y,1/2-z
3 -x,-y,-z
4 x,1/2-y,1/2+z
_cell_length_a                   5.6430(11)
_cell_length_b                   7.3910(15)
_cell_length_c                   25.134(5)
_cell_angle_alpha                90
_cell_angle_beta                 91.21(3)
_cell_angle_gamma                90
_cell_volume                     1048.04
_exptl_crystal_colour            colorless
_exptl_crystal_description       block
_cell_formula_units_Z            4
_exptl_crystal_recrystallization_method methanol
loop_
_atom_site_label
_atom_site_type_symbol
_atom_site_fract_x
_atom_site_fract_y
_atom_site_fract_z
S1 S 0.50888(16) 0.91653(14) 0.09893(4)
O1 O -0.0749(4) 1.3216(4) 0.10691(9)
O2 O 0.2490(4) 1.1925(4) 0.14685(10)
N1 N 0.0988(5) 1.0912(4) 0.06773(11)
H1 H -0.0156 1.1050 0.0449
N2 N 0.2450(5) 0.8574(4) 0.01638(11)
C1 C -0.1494(7) 1.7169(6) 0.22167(16)
H2 H -0.1690 1.8072 0.2470
C2 C -0.3070(7) 1.5775(6) 0.21820(16)
H3 H -0.4336 1.5728 0.2413
C3 C -0.2801(6) 1.4432(5) 0.18072(15)
H4 H -0.3880 1.3484 0.1781
C4 C -0.0921(6) 1.4522(5) 0.14755(13)
C5 C 0.0675(7) 1.5907(5) 0.15058(15)
H5 H 0.1945 1.5943 0.1276
C6 C 0.0395(8) 1.7244(6) 0.18762(16)
H6 H 0.1470 1.8196 0.1899
C7 C 0.1061(6) 1.2010(5) 0.11072(14)
C8 C 0.2638(6) 0.9587(5) 0.05834(13)
C9 C 0.4328(7) 0.7386(5) 0.01506(16)
H7 H 0.4494 0.6552 -0.0123
C10 C 0.5867(7) 0.7498(6) 0.05473(17)
H8 H 0.7206 0.6772 0.0585
loop_
_geom_bond_atom_site_label_1
_geom_bond_atom_site_label_2
_geom_bond_site_symmetry_1
_geom_bond_site_symmetry_2
S1 C8 1_555 1_555
O1 C4 1_555 1_555
O2 C7 1_555 1_555
N1 H1 1_555 1_555
N2 C8 1_555 1_555
C1 H2 1_555 1_555
C2 C1 1_555 1_555
H3 C2 1_555 1_555
C3 C2 1_555 1_555
H4 C3 1_555 1_555
C4 C3 1_555 1_555
C5 C4 1_555 1_555
H5 C5 1_555 1_555
C6 C1 1_555 1_555
H6 C6 1_555 1_555
C7 O1 1_555 1_555
C8 N1 1_555 1_555
C9 N2 1_555 1_555
H7 C9 1_555 1_555
C10 S1 1_555 1_555
H8 C10 1_555 1_555
N1 C7 1_555 1_555
C5 C6 1_555 1_555
C9 C10 1_555 1_555

#END
