
#######################################################################
#
#                 Cambridge Crystallographic Data Centre
#                                CCDC 
#
#######################################################################
#
# If this CIF has been generated from an entry in the Cambridge 
# Structural Database, then it will include bibliographic, chemical, 
# crystal, experimental, refinement or atomic coordinate data resulting 
# from the CCDC's data processing and validation procedures.
#
#######################################################################

data_HOZMIS
_chemical_formula_moiety         'C9 H22 N3 1+,C1 F3 O3 S1 1-'
_chemical_name_systematic        
'1,4,7-Trimethyl-1-azonia-4,7-diazacyclononane trifluoromethanesulfonate'
_symmetry_cell_setting           orthorhombic
_symmetry_space_group_name_H-M   'P 21 21 21'
_symmetry_Int_Tables_number      19
_space_group_name_Hall           'P 2ac 2ab'
loop_
_symmetry_equiv_pos_site_id
_symmetry_equiv_pos_as_xyz
1 x,y,z
2 1/2-x,-y,1/2+z
3 1/2+x,1/2-y,-z
4 -x,1/2+y,1/2-z
_cell_length_a                   12.609(3)
_cell_length_b                   13.531(1)
_cell_length_c                   9.225(3)
_cell_angle_alpha                90
_cell_angle_beta                 90
_cell_angle_gamma                90
_cell_volume                     1573.9
_exptl_crystal_colour            colorless
_exptl_crystal_description       prismatic
_chemical_melting_point          '90-92 deg.C'
_cell_formula_units_Z            4
_exptl_crystal_recrystallization_method tetrahydrofuran/hexane
loop_
_atom_site_label
_atom_site_type_symbol
_atom_site_fract_x
_atom_site_fract_y
_atom_site_fract_z
S1 S 0.1017(2) 0.6755(2) 0.2247(3)
F1 F 0.2001(6) 0.5392(6) 0.3649(8)
F2 F 0.1938(5) 0.5153(5) 0.1400(8)
F3 F 0.0569(4) 0.4909(4) 0.2674(8)
O1 O 0.2004(6) 0.7244(5) 0.2144(8)
O2 O 0.0442(5) 0.6985(6) 0.3524(7)
O3 O 0.0395(6) 0.6706(6) 0.0967(7)
C10 C 0.1394(8) 0.5495(7) 0.250(1)
C1 C 0.4722(9) 0.0546(9) 0.137(1)
C2 C 0.3830(8) 0.0532(8) 0.032(1)
C3 C 0.2099(9) 0.1324(7) 0.043(1)
C4 C 0.2411(8) 0.2318(7) 0.089(1)
C5 C 0.3873(8) 0.2895(7) 0.249(1)
C6 C 0.4770(7) 0.2294(9) 0.209(1)
C7 C 0.5280(8) 0.0988(9) 0.381(1)
N1 N 0.4639(5) 0.1269(6) 0.2525(7)
C8 C 0.2259(9) -0.0381(8) 0.101(1)
N2 N 0.2809(6) 0.0570(5) 0.0989(7)
C9 C 0.2070(8) 0.2609(7) 0.3474(9)
N3 N 0.2862(5) 0.232(4) 0.2370(7)
loop_
_geom_bond_atom_site_label_1
_geom_bond_atom_site_label_2
_geom_bond_site_symmetry_1
_geom_bond_site_symmetry_2
S1 O1 1_555 1_555
C1 C2 1_555 1_555
F1 C10 1_555 1_555
C2 N2 1_555 1_555
F2 C10 1_555 1_555
C3 C4 1_555 1_555
F3 C10 1_555 1_555
C4 N3 1_555 1_555
C5 C6 1_555 1_555
O2 S1 1_555 1_555
C6 N1 1_555 1_555
O3 S1 1_555 1_555
C7 N1 1_555 1_555
N1 C1 1_555 1_555
C8 N2 1_555 1_555
N2 C3 1_555 1_555
C9 N3 1_555 1_555
N3 C5 1_555 1_555
C10 S1 1_555 1_555

#END
