
#######################################################################
#
#                 Cambridge Crystallographic Data Centre
#                                CCDC 
#
#######################################################################
#
# If this CIF has been generated from an entry in the Cambridge 
# Structural Database, then it will include bibliographic, chemical, 
# crystal, experimental, refinement or atomic coordinate data resulting 
# from the CCDC's data processing and validation procedures.
#
#######################################################################

data_HOZNUH
_chemical_formula_moiety         'C6 H12 O3,C1 H2 Cl2'
_chemical_name_systematic        
'2,4,6-trimethyl-1,3,5-trioxane dichloromethane solvate'
_symmetry_cell_setting           orthorhombic
_symmetry_space_group_name_H-M   'P m n 21'
_symmetry_Int_Tables_number      31
_space_group_name_Hall           'P 2ac -2'
loop_
_symmetry_equiv_pos_site_id
_symmetry_equiv_pos_as_xyz
1 x,y,z
2 1/2-x,-y,1/2+z
3 1/2+x,-y,1/2+z
4 -x,y,z
_cell_length_a                   11.703(3)
_cell_length_b                   10.490(2)
_cell_length_c                   4.4154(7)
_cell_angle_alpha                90
_cell_angle_beta                 90
_cell_angle_gamma                90
_cell_volume                     542.054
_exptl_crystal_colour            'light colorless'
_exptl_crystal_description       cylinder
_cell_formula_units_Z            2
loop_
_atom_site_label
_atom_site_type_symbol
_atom_site_fract_x
_atom_site_fract_y
_atom_site_fract_z
Cl1 Cl 0.62397(6) 0.98962(7) 0.9693(4)
C1 C 0.5000 0.9381(5) 0.7898(14)
H1 H 0.5000 0.8447 0.7829
H2 H 0.5000 0.9694 0.5807
Cl1C Cl 0.37603(6) 0.98962(7) 0.9693(4)
O1 O 0.59881(12) 0.47952(13) 0.4529(7)
O2 O 0.5000 0.67047(19) 0.4327(7)
C2 C 0.5000 0.2818(3) 0.4723(19)
C3 C 0.7035(2) 0.6733(2) 0.4510(12)
C4 C 0.5000 0.4139(3) 0.3483(10)
H3 H 0.5000 0.4110 0.1242
C5 C 0.5998(2) 0.6049(2) 0.3337(8)
H4 H 0.600(2) 0.599(3) 0.114(8)
H5 H 0.434(3) 0.242(3) 0.388(10)
H6 H 0.703(2) 0.763(3) 0.374(6)
H7 H 0.769(3) 0.632(3) 0.383(7)
H8 H 0.5000 0.272(6) 0.681(16)
H9 H 0.703(2) 0.678(3) 0.675(9)
O1C O 0.40119(12) 0.47952(13) 0.4529(7)
C3C C 0.2965(2) 0.6733(2) 0.4510(12)
C5C C 0.4002(2) 0.6049(2) 0.3337(8)
H4C H 0.400(2) 0.599(3) 0.114(8)
H5C H 0.566(3) 0.242(3) 0.388(10)
H6C H 0.297(2) 0.763(3) 0.374(6)
H7C H 0.231(3) 0.632(3) 0.383(7)
H9C H 0.297(2) 0.678(3) 0.675(9)
loop_
_geom_bond_atom_site_label_1
_geom_bond_atom_site_label_2
_geom_bond_site_symmetry_1
_geom_bond_site_symmetry_2
Cl1 C1 1_555 1_555
C1 H1 1_555 1_555
H2 C1 1_555 1_555
O1 C4 1_555 1_555
O2 C5 1_555 1_555
C2 C4 1_555 1_555
C3 C5 1_555 1_555
C4 H3 1_555 1_555
C5 O1 1_555 1_555
H4 C5 1_555 1_555
H5 C2 1_555 1_555
H6 C3 1_555 1_555
H7 C3 1_555 1_555
H8 C2 1_555 1_555
H9 C3 1_555 1_555
Cl1C C1 1_555 1_555
O1C C4 1_555 1_555
C3C C5C 1_555 1_555
C5C O2 1_555 1_555
H4C C5C 1_555 1_555
H5C C2 1_555 1_555
H6C C3C 1_555 1_555
H7C C3C 1_555 1_555
H9C C3C 1_555 1_555
O1C C5C 1_555 1_555

#END
