
#######################################################################
#
#                 Cambridge Crystallographic Data Centre
#                                CCDC 
#
#######################################################################
#
# If this CIF has been generated from an entry in the Cambridge 
# Structural Database, then it will include bibliographic, chemical, 
# crystal, experimental, refinement or atomic coordinate data resulting 
# from the CCDC's data processing and validation procedures.
#
#######################################################################

data_HOZWUO
_chemical_formula_moiety         'C22 H38 S4'
_chemical_name_systematic        1,2,4,5-tetrakis(Propylsulfanylmethyl)benzene
_symmetry_cell_setting           triclinic
_symmetry_space_group_name_H-M   'P -1'
_symmetry_Int_Tables_number      2
_space_group_name_Hall           '-P 1'
loop_
_symmetry_equiv_pos_site_id
_symmetry_equiv_pos_as_xyz
1 x,y,z
2 -x,-y,-z
_cell_length_a                   5.127(2)
_cell_length_b                   9.294(2)
_cell_length_c                   13.945(4)
_cell_angle_alpha                104.866(2)
_cell_angle_beta                 94.880(3)
_cell_angle_gamma                100.868(2)
_cell_volume                     624.46
_cell_formula_units_Z            1
loop_
_atom_site_label
_atom_site_type_symbol
_atom_site_fract_x
_atom_site_fract_y
_atom_site_fract_z
S1 S 0.4015(2) 0.9350(1) 0.6010(1)
S2 S 0.2160(3) 0.6609(2) 0.2713(1)
C1 C -0.1299(8) 0.5921(5) 0.5616(3)
C2 C 0.1841(8) 0.5614(5) 0.4434(3)
C3 C 0.0508(8) 0.6574(5) 0.5064(3)
C4 C 0.3767(10) 0.6194(7) 0.3783(4)
C5 C 0.0996(10) 0.8244(6) 0.5172(5)
C6 C -0.0005(15) 0.4799(8) 0.2086(5)
C7 C 0.3221(12) 0.9252(8) 0.7205(5)
C8 C 0.1382(20) 1.0247(10) 0.7618(8)
C9 C -0.1830(16) 0.4917(9) 0.1237(5)
C10 C 0.0883(15) 1.0213(10) 0.8700(5)
C11 C -0.3517(17) 0.3423(10) 0.0636(6)
H1 H -0.2240(74) 0.6598(42) 0.6021(26)
H2 H 0.4699(90) 0.7151(54) 0.4147(30)
H3 H 0.4832(10) 0.5381(57) 0.3485(34)
H4 H 0.1140(70) 0.8399(40) 0.4519(30)
H5 H -0.033(11) 0.8674(58) 0.5445(36)
H6 H -0.105(16) 0.4260(98) 0.2579(63)
H7 H 0.063(16) 0.4007(96) 0.1681(56)
H8 H 0.266(13) 0.8084(81) 0.7189(44)
H9 H 0.471(14) 0.9462(75) 0.7827(49)
H10 H 0.015(19) 1.004(10) 0.7123(67)
H11 H 0.292(17) 1.0575(87) 0.8100(57)
H12 H -0.2990(16) 0.5594(9) 0.1497(5)
H13 H -0.0767(16) 0.5369(9) 0.0802(5)
H14 H -0.0312(15) 1.0867(10) 0.8930(5)
H15 H 0.2558(15) 1.0561(10) 0.9140(5)
H16 H 0.0097(15) 0.9188(10) 0.8697(5)
H17 H -0.4650(17) 0.3570(10) 0.0101(6)
C2A C -0.1841(8) 0.4386(5) 0.5566(3)
C3A C -0.0508(8) 0.3426(5) 0.4936(3)
C1A C 0.1299(8) 0.4079(5) 0.4384(3)
H1A H 0.2240(74) 0.3402(42) 0.3979(26)
C5A C -0.0996(10) 0.1756(6) 0.4828(5)
S1A S -0.4015(2) 0.0650(1) 0.3990(1)
C7A C -0.3221(12) 0.0748(8) 0.2795(5)
C8A C -0.1382(20) -0.0247(10) 0.2382(8)
C10A C -0.0883(15) -0.0213(10) 0.1300(5)
H14A H 0.0312(15) -0.0867(10) 0.1070(5)
H15A H -0.2558(15) -0.0561(10) 0.0860(5)
H16A H -0.0097(15) 0.0812(10) 0.1303(5)
H10A H -0.015(19) -0.004(10) 0.2877(67)
H11A H -0.292(17) -0.0575(87) 0.1900(57)
H8A H -0.266(13) 0.1916(81) 0.2811(44)
H9A H -0.471(14) 0.0538(75) 0.2173(49)
H4A H -0.1140(70) 0.1601(40) 0.5481(30)
H5A H 0.033(11) 0.1326(58) 0.4555(36)
C4A C -0.3767(10) 0.3806(7) 0.6217(4)
S2A S -0.2160(3) 0.3391(2) 0.7287(1)
C6A C 0.0005(15) 0.5201(8) 0.7914(5)
C9A C 0.1830(16) 0.5083(9) 0.8763(5)
C11A C 0.3517(17) 0.6577(10) 0.9364(6)
H17A H 0.4650(17) 0.6430(10) 0.9899(6)
H12A H 0.2990(16) 0.4406(9) 0.8503(5)
H13A H 0.0767(16) 0.4631(9) 0.9198(5)
H6A H 0.105(16) 0.5740(98) 0.7421(63)
H7A H -0.063(16) 0.5993(96) 0.8319(56)
H2A H -0.4699(90) 0.2849(54) 0.5853(30)
H3A H -0.4832(10) 0.4619(57) 0.6515(34)
loop_
_geom_bond_atom_site_label_1
_geom_bond_atom_site_label_2
_geom_bond_site_symmetry_1
_geom_bond_site_symmetry_2
S1 C5 1_555 1_555
S2 C4 1_555 1_555
C1 C3 1_555 1_555
C2 C3 1_555 1_555
C3 C5 1_555 1_555
C4 C2 1_555 1_555
C5 H4 1_555 1_555
C6 S2 1_555 1_555
C7 S1 1_555 1_555
C8 C7 1_555 1_555
C9 C6 1_555 1_555
C10 C8 1_555 1_555
C11 C9 1_555 1_555
H1 C1 1_555 1_555
H2 C4 1_555 1_555
H3 C4 1_555 1_555
H5 C5 1_555 1_555
H6 C6 1_555 1_555
H7 C6 1_555 1_555
H8 C7 1_555 1_555
H9 C7 1_555 1_555
H10 C8 1_555 1_555
H11 C8 1_555 1_555
H12 C9 1_555 1_555
H13 C9 1_555 1_555
H14 C10 1_555 1_555
H15 C10 1_555 1_555
H16 C10 1_555 1_555
H17 C11 1_555 1_555
C2A C1 1_555 1_555
C3A C2A 1_555 1_555
C1A C2 1_555 1_555
H1A C1A 1_555 1_555
C5A C3A 1_555 1_555
S1A C5A 1_555 1_555
C7A S1A 1_555 1_555
C8A C7A 1_555 1_555
C10A C8A 1_555 1_555
H14A C10A 1_555 1_555
H15A C10A 1_555 1_555
H16A C10A 1_555 1_555
H10A C8A 1_555 1_555
H11A C8A 1_555 1_555
H8A C7A 1_555 1_555
H9A C7A 1_555 1_555
H4A C5A 1_555 1_555
H5A C5A 1_555 1_555
C4A C2A 1_555 1_555
S2A C4A 1_555 1_555
C6A S2A 1_555 1_555
C9A C6A 1_555 1_555
C11A C9A 1_555 1_555
H17A C11A 1_555 1_555
H12A C9A 1_555 1_555
H13A C9A 1_555 1_555
H6A C6A 1_555 1_555
H7A C6A 1_555 1_555
H2A C4A 1_555 1_555
H3A C4A 1_555 1_555
C3A C1A 1_555 1_555

#END
