
#######################################################################
#
#                 Cambridge Crystallographic Data Centre
#                                CCDC 
#
#######################################################################
#
# If this CIF has been generated from an entry in the Cambridge 
# Structural Database, then it will include bibliographic, chemical, 
# crystal, experimental, refinement or atomic coordinate data resulting 
# from the CCDC's data processing and validation procedures.
#
#######################################################################

data_HPBTAZ04
_chemical_formula_moiety         'C13 H9 N1 O1 S1'
_chemical_name_systematic        2-(1,3-benzothiazol-2-yl)phenol
_symmetry_cell_setting           monoclinic
_symmetry_space_group_name_H-M   'P 21/c'
_symmetry_Int_Tables_number      14
_space_group_name_Hall           '-P 2ybc'
loop_
_symmetry_equiv_pos_site_id
_symmetry_equiv_pos_as_xyz
1 x,y,z
2 -x,1/2+y,1/2-z
3 -x,-y,-z
4 x,1/2-y,1/2+z
_cell_length_a                   12.4210(10)
_cell_length_b                   5.8508(5)
_cell_length_c                   15.6351(13)
_cell_angle_alpha                90
_cell_angle_beta                 111.6630(10)
_cell_angle_gamma                90
_cell_volume                     1055.99
_exptl_crystal_colour            colorless
_exptl_crystal_description       block
_cell_formula_units_Z            4
loop_
_atom_site_label
_atom_site_type_symbol
_atom_site_fract_x
_atom_site_fract_y
_atom_site_fract_z
S1 S 0.02218(5) 0.72156(10) 0.18419(4)
N1 N 0.06599(18) 0.3295(3) 0.12756(13)
C1 C 0.2339(2) 0.4885(4) 0.24915(15)
C2 C 0.1131(2) 0.4927(4) 0.18572(15)
C3 C -0.0508(2) 0.3762(4) 0.07619(15)
C4 C -0.0900(2) 0.5828(4) 0.09808(15)
C5 C 0.3063(2) 0.3035(5) 0.24568(18)
C6 C -0.1247(2) 0.2385(4) 0.00821(18)
H1 H -0.0993 0.0998 -0.0065
C7 C -0.2042(2) 0.6567(5) 0.05338(19)
H2 H -0.2304 0.7936 0.0690
C8 C 0.2801(2) 0.6604(5) 0.31332(19)
H3 H 0.2332 0.7819 0.3160
O1 O 0.26893(19) 0.1308(4) 0.18660(15)
H4 H 0.1979 0.1295 0.1655
C9 C -0.2373(2) 0.3112(5) -0.03755(18)
H5 H -0.2877 0.2208 -0.0842
C10 C -0.2768(2) 0.5159(5) -0.01538(18)
H6 H -0.3532 0.5599 -0.0471
C11 C 0.4221(3) 0.3029(6) 0.3059(2)
H7 H 0.4711 0.1848 0.3037
C12 C 0.3930(3) 0.6556(6) 0.3727(2)
H8 H 0.4221 0.7716 0.4158
C13 C 0.4631(3) 0.4778(7) 0.3683(2)
H9 H 0.5400 0.4757 0.4084
loop_
_geom_bond_atom_site_label_1
_geom_bond_atom_site_label_2
_geom_bond_site_symmetry_1
_geom_bond_site_symmetry_2
S1 C2 1_555 1_555
N1 C2 1_555 1_555
C1 C2 1_555 1_555
C3 N1 1_555 1_555
C4 S1 1_555 1_555
C5 C1 1_555 1_555
C6 C3 1_555 1_555
H1 C6 1_555 1_555
C7 C4 1_555 1_555
H2 C7 1_555 1_555
C8 C1 1_555 1_555
H3 C8 1_555 1_555
O1 C5 1_555 1_555
H4 O1 1_555 1_555
C9 C6 1_555 1_555
H5 C9 1_555 1_555
C10 C7 1_555 1_555
H6 C10 1_555 1_555
C11 C5 1_555 1_555
H7 C11 1_555 1_555
C12 C8 1_555 1_555
H8 C12 1_555 1_555
C13 C11 1_555 1_555
H9 C13 1_555 1_555
C3 C4 1_555 1_555
C9 C10 1_555 1_555
C12 C13 1_555 1_555

#END
