
#######################################################################
#
#                 Cambridge Crystallographic Data Centre
#                                CCDC 
#
#######################################################################
#
# If this CIF has been generated from an entry in the Cambridge 
# Structural Database, then it will include bibliographic, chemical, 
# crystal, experimental, refinement or atomic coordinate data resulting 
# from the CCDC's data processing and validation procedures.
#
#######################################################################

data_HPBTAZ02
_chemical_formula_moiety         'C13 H9 N1 O1 S1'
_chemical_name_systematic        2-(1,3-Benzothiazol-2-yl)phenol
_symmetry_cell_setting           monoclinic
_symmetry_space_group_name_H-M   'P 21/c'
_symmetry_Int_Tables_number      14
_space_group_name_Hall           '-P 2ybc'
loop_
_symmetry_equiv_pos_site_id
_symmetry_equiv_pos_as_xyz
1 x,y,z
2 -x,1/2+y,1/2-z
3 -x,-y,-z
4 x,1/2-y,1/2+z
_cell_length_a                   12.432(5)
_cell_length_b                   5.863(3)
_cell_length_c                   15.623(7)
_cell_angle_alpha                90
_cell_angle_beta                 111.696(6)
_cell_angle_gamma                90
_cell_volume                     1058.07
_exptl_crystal_colour            colorless
_exptl_crystal_description       prism
_cell_formula_units_Z            4
loop_
_atom_site_label
_atom_site_type_symbol
_atom_site_fract_x
_atom_site_fract_y
_atom_site_fract_z
N1 N 0.5678(3) 0.8303(6) 0.6282(2)
O1 O 0.7691(4) 0.6324(6) 0.6861(3)
S1 S 0.52287(11) 1.2214(2) 0.68458(9)
C1 C 0.8062(4) 0.8025(9) 0.7452(3)
C2 C 0.9220(4) 0.8013(10) 0.8052(4)
H1 H 0.9710 0.6830 0.8035
C3 C 0.9622(5) 0.9774(11) 0.8666(4)
H2 H 1.0390 0.9756 0.9070
C4 C 0.8928(5) 1.1559(11) 0.8706(4)
H3 H 0.9223 1.2733 0.9128
C5 C 0.7825(5) 1.1587(8) 0.8128(4)
H4 H 0.7360 1.2805 0.8155
C6 C 0.7343(4) 0.9876(8) 0.7488(3)
C7 C 0.6125(4) 0.9921(7) 0.6850(3)
C8 C 0.4478(4) 0.8762(8) 0.5760(3)
C9 C 0.4098(4) 1.0825(8) 0.5975(3)
C10 C 0.2957(5) 1.1548(8) 0.5529(4)
H5 H 0.2697 1.2917 0.5684
C11 C 0.2226(4) 1.0148(8) 0.4847(3)
H6 H 0.1460 1.0572 0.4529
C12 C 0.2637(4) 0.8140(9) 0.4642(3)
H7 H 0.2136 0.7225 0.4180
C13 C 0.3762(4) 0.7411(9) 0.5090(3)
H8 H 0.4018 0.6037 0.4936
H9 H 0.698(4) 0.637(17) 0.661(7)
loop_
_geom_bond_atom_site_label_1
_geom_bond_atom_site_label_2
_geom_bond_site_symmetry_1
_geom_bond_site_symmetry_2
N1 C7 1_555 1_555
O1 C1 1_555 1_555
S1 C7 1_555 1_555
C1 C2 1_555 1_555
C2 H1 1_555 1_555
C3 C2 1_555 1_555
H2 C3 1_555 1_555
C4 C3 1_555 1_555
H3 C4 1_555 1_555
C5 C4 1_555 1_555
H4 C5 1_555 1_555
C6 C1 1_555 1_555
C7 C6 1_555 1_555
C8 N1 1_555 1_555
C9 S1 1_555 1_555
C10 C9 1_555 1_555
H5 C10 1_555 1_555
C11 C10 1_555 1_555
H6 C11 1_555 1_555
C12 C11 1_555 1_555
H7 C12 1_555 1_555
C13 C8 1_555 1_555
H8 C13 1_555 1_555
H9 O1 1_555 1_555
C5 C6 1_555 1_555
C8 C9 1_555 1_555
C12 C13 1_555 1_555

#END
