
#######################################################################
#
#                 Cambridge Crystallographic Data Centre
#                                CCDC 
#
#######################################################################
#
# If this CIF has been generated from an entry in the Cambridge 
# Structural Database, then it will include bibliographic, chemical, 
# crystal, experimental, refinement or atomic coordinate data resulting 
# from the CCDC's data processing and validation procedures.
#
#######################################################################

data_HPHBNZ02
_chemical_formula_moiety         'C42 H30'
_chemical_name_systematic        Hexaphenylbenzene
_symmetry_cell_setting           orthorhombic
_symmetry_space_group_name_H-M   'P n a 21'
_symmetry_Int_Tables_number      33
_space_group_name_Hall           'P 2c -2n'
loop_
_symmetry_equiv_pos_site_id
_symmetry_equiv_pos_as_xyz
1 x,y,z
2 -x,-y,1/2+z
3 1/2-x,1/2+y,1/2+z
4 1/2+x,1/2-y,z
_cell_length_a                   12.1775(3)
_cell_length_b                   11.790(1)
_cell_length_c                   20.8572(5)
_cell_angle_alpha                90
_cell_angle_beta                 90
_cell_angle_gamma                90
_cell_volume                     2994.53
_cell_formula_units_Z            4
loop_
_atom_site_label
_atom_site_type_symbol
_atom_site_fract_x
_atom_site_fract_y
_atom_site_fract_z
C1 C 0.3108(1) 0.60382(10) 0.6487(2)
C2 C 0.2707(1) 0.5804(1) 0.7101(2)
C3 C 0.2247(1) 0.47374(10) 0.7240(2)
C4 C 0.2230(1) 0.3892(1) 0.6766(2)
C5 C 0.2649(1) 0.4120(1) 0.6150(2)
C6 C 0.3079(1) 0.52006(10) 0.6009(2)
C7 C 0.3500(1) 0.7210(1) 0.6320(2)
C8 C 0.2777(1) 0.7991(1) 0.6061(2)
C9 C 0.3120(2) 0.9078(1) 0.5914(2)
C10 C 0.4186(2) 0.9393(1) 0.6016(2)
C11 C 0.4910(1) 0.8640(1) 0.6267(2)
C12 C 0.4569(1) 0.7544(1) 0.6416(2)
C13 C 0.2785(1) 0.6690(1) 0.7615(2)
C14 C 0.1878(2) 0.7334(1) 0.7794(2)
C15 C 0.1975(2) 0.8164(1) 0.8256(2)
C16 C 0.2980(2) 0.8362(1) 0.8543(2)
C17 C 0.3865(2) 0.7732(2) 0.8373(2)
C18 C 0.3769(1) 0.6890(2) 0.7915(2)
C19 C 0.1785(1) 0.4478(1) 0.7886(2)
C20 C 0.2421(2) 0.4010(2) 0.8363(2)
C21 C 0.1959(3) 0.3730(2) 0.8958(2)
C22 C 0.0881(3) 0.3907(2) 0.9066(2)
C23 C 0.0254(2) 0.4386(2) 0.8606(2)
C24 C 0.0696(2) 0.4664(2) 0.8018(2)
C25 C 0.1820(1) 0.2725(1) 0.6926(2)
C26 C 0.2553(1) 0.1883(1) 0.7091(2)
C27 C 0.2197(2) 0.0796(1) 0.7232(2)
C28 C 0.1105(2) 0.0540(1) 0.7203(2)
C29 C 0.0368(1) 0.1367(2) 0.7045(2)
C30 C 0.0727(1) 0.2453(1) 0.6910(2)
C31 C 0.2632(1) 0.3216(1) 0.5650(2)
C32 C 0.1649(1) 0.2826(1) 0.5401(2)
C33 C 0.1631(2) 0.1976(1) 0.4946(2)
C34 C 0.2592(2) 0.1513(1) 0.4727(2)
C35 C 0.3570(2) 0.1894(1) 0.4965(2)
C36 C 0.3601(1) 0.2739(1) 0.5426(2)
C37 C 0.3504(1) 0.5452(1) 0.5353(2)
C38 C 0.2808(2) 0.5654(1) 0.4847(2)
C39 C 0.3216(3) 0.5884(2) 0.4242(2)
C40 C 0.4321(3) 0.5897(2) 0.4133(2)
C41 C 0.5013(2) 0.5686(2) 0.4621(2)
C42 C 0.4617(2) 0.5467(2) 0.5235(2)
H1 H 0.2016 0.7779 0.5994
H2 H 0.2606 0.9610 0.5734
H3 H 0.4411 1.0151 0.5911
H4 H 0.5668 0.8848 0.6345
H5 H 0.5083 0.7016 0.6594
H6 H 0.1185 0.7202 0.7590
H7 H 0.1345 0.8607 0.8383
H8 H 0.3043 0.8937 0.8864
H9 H 0.4585 0.7904 0.8558
H10 H 0.4393 0.6417 0.7815
H11 H 0.3199 0.3863 0.8295
H12 H 0.2426 0.3420 0.9289
H13 H 0.0556 0.3668 0.9473
H14 H -0.0505 0.4553 0.8697
H15 H 0.0220 0.5006 0.7698
H16 H 0.3318 0.2057 0.7119
H17 H 0.2732 0.0229 0.7342
H18 H 0.0842 -0.0214 0.7299
H19 H -0.0392 0.1178 0.7002
H20 H 0.0207 0.3034 0.6816
H21 H 0.0972 0.3144 0.5551
H22 H 0.0940 0.1721 0.4782
H23 H 0.2571 0.0908 0.4422
H24 H 0.4247 0.1595 0.4808
H25 H 0.4292 0.2995 0.5588
H26 H 0.2012 0.5636 0.4916
H27 H 0.2734 0.6003 0.3890
H28 H 0.4579 0.6103 0.3718
H29 H 0.5795 0.5660 0.4538
H30 H 0.5128 0.5363 0.5596
loop_
_geom_bond_atom_site_label_1
_geom_bond_atom_site_label_2
_geom_bond_site_symmetry_1
_geom_bond_site_symmetry_2
C1 C2 1_555 1_555
C2 C3 1_555 1_555
C3 C4 1_555 1_555
C4 C5 1_555 1_555
C5 C6 1_555 1_555
C6 C1 1_555 1_555
C7 C1 1_555 1_555
C8 C7 1_555 1_555
C9 C8 1_555 1_555
C10 C9 1_555 1_555
C11 C10 1_555 1_555
C12 C7 1_555 1_555
C13 C2 1_555 1_555
C14 C13 1_555 1_555
C15 C14 1_555 1_555
C16 C15 1_555 1_555
C17 C16 1_555 1_555
C18 C13 1_555 1_555
C19 C3 1_555 1_555
C20 C19 1_555 1_555
C21 C20 1_555 1_555
C22 C21 1_555 1_555
C23 C22 1_555 1_555
C24 C19 1_555 1_555
C25 C4 1_555 1_555
C26 C25 1_555 1_555
C27 C26 1_555 1_555
C28 C27 1_555 1_555
C29 C28 1_555 1_555
C30 C25 1_555 1_555
C31 C5 1_555 1_555
C32 C31 1_555 1_555
C33 C32 1_555 1_555
C34 C33 1_555 1_555
C35 C34 1_555 1_555
C36 C31 1_555 1_555
C37 C6 1_555 1_555
C38 C37 1_555 1_555
C39 C38 1_555 1_555
C40 C39 1_555 1_555
C41 C40 1_555 1_555
C42 C37 1_555 1_555
H1 C8 1_555 1_555
H2 C9 1_555 1_555
H3 C10 1_555 1_555
H4 C11 1_555 1_555
H5 C12 1_555 1_555
H6 C14 1_555 1_555
H7 C15 1_555 1_555
H8 C16 1_555 1_555
H9 C17 1_555 1_555
H10 C18 1_555 1_555
H11 C20 1_555 1_555
H12 C21 1_555 1_555
H13 C22 1_555 1_555
H14 C23 1_555 1_555
H15 C24 1_555 1_555
H16 C26 1_555 1_555
H17 C27 1_555 1_555
H18 C28 1_555 1_555
H19 C29 1_555 1_555
H20 C30 1_555 1_555
H21 C32 1_555 1_555
H22 C33 1_555 1_555
H23 C34 1_555 1_555
H24 C35 1_555 1_555
H25 C36 1_555 1_555
H26 C38 1_555 1_555
H27 C39 1_555 1_555
H28 C40 1_555 1_555
H29 C41 1_555 1_555
H30 C42 1_555 1_555
C11 C12 1_555 1_555
C17 C18 1_555 1_555
C23 C24 1_555 1_555
C29 C30 1_555 1_555
C35 C36 1_555 1_555
C41 C42 1_555 1_555

#END
