
#######################################################################
#
#                 Cambridge Crystallographic Data Centre
#                                CCDC 
#
#######################################################################
#
# If this CIF has been generated from an entry in the Cambridge 
# Structural Database, then it will include bibliographic, chemical, 
# crystal, experimental, refinement or atomic coordinate data resulting 
# from the CCDC's data processing and validation procedures.
#
#######################################################################

data_HUBXAD
_chemical_formula_moiety         'C14 H18 Br2 S3 Si2'
_chemical_name_systematic        
4,4'-Dibromo-5,5'-bis(trimethylsilyl)dithieno(2,3-b:3',2'-d)thiophene
_symmetry_cell_setting           orthorhombic
_symmetry_space_group_name_H-M   'P b c a'
_symmetry_Int_Tables_number      61
_space_group_name_Hall           '-P 2ac 2ab'
loop_
_symmetry_equiv_pos_site_id
_symmetry_equiv_pos_as_xyz
1 x,y,z
2 1/2+x,y,1/2-z
3 x,1/2-y,1/2+z
4 1/2-x,1/2+y,z
5 -x,-y,-z
6 1/2-x,-y,1/2+z
7 -x,1/2+y,1/2-z
8 1/2+x,1/2-y,-z
_cell_length_a                   10.0656(7)
_cell_length_b                   11.2301(8)
_cell_length_c                   35.400(3)
_cell_angle_alpha                90
_cell_angle_beta                 90
_cell_angle_gamma                90
_cell_volume                     4001.53
_exptl_crystal_colour            colorless
_exptl_crystal_description       block
_cell_formula_units_Z            8
loop_
_atom_site_label
_atom_site_type_symbol
_atom_site_fract_x
_atom_site_fract_y
_atom_site_fract_z
Br1 Br 0.89287(3) -0.12304(3) 0.687918(8)
Br2 Br 0.85365(3) 0.15144(3) 0.644241(8)
S1 S 1.21208(8) -0.29948(6) 0.62582(2)
S2 S 1.21511(8) -0.11532(6) 0.55973(2)
S3 S 1.06954(7) 0.12017(6) 0.538067(19)
Si1 Si 1.09250(8) -0.38055(7) 0.70308(2)
Si2 Si 0.86196(8) 0.31613(7) 0.55992(2)
C1 C 1.0984(3) -0.2737(2) 0.66201(7)
C2 C 1.0313(2) -0.1707(2) 0.65485(7)
C3 C 1.0678(2) -0.1075(2) 0.62146(7)
C4 C 1.1651(3) -0.1728(2) 0.60283(7)
C5 C 1.0344(2) -0.0015(2) 0.60007(7)
C6 C 1.1046(3) 0.0004(2) 0.56634(7)
C7 C 0.9544(3) 0.1033(2) 0.60200(7)
C8 C 0.9586(3) 0.1775(2) 0.57111(7)
C9 C 0.9322(3) -0.4591(3) 0.70477(9)
H1 H 0.9287 -0.5092 0.7274
H2 H 0.9228 -0.5091 0.6822
H3 H 0.8598 -0.4008 0.7056
C10 C 1.1213(3) -0.2971(3) 0.74758(9)
H4 H 1.1189 -0.3523 0.7690
H5 H 1.0520 -0.2366 0.7507
H6 H 1.2084 -0.2582 0.7465
C11 C 1.2272(3) -0.4899(3) 0.69590(10)
H7 H 1.2279 -0.5467 0.7169
H8 H 1.3127 -0.4483 0.6948
H9 H 1.2124 -0.5327 0.6722
C12 C 0.9019(4) 0.4360(3) 0.59421(10)
H10 H 0.8687 0.5123 0.5846
H11 H 0.9984 0.4407 0.5976
H12 H 0.8597 0.4183 0.6185
C13 C 0.6824(3) 0.2780(3) 0.55990(9)
H13 H 0.6305 0.3483 0.5527
H14 H 0.6559 0.2518 0.5852
H15 H 0.6660 0.2138 0.5417
C14 C 0.9121(3) 0.3618(3) 0.51137(9)
H16 H 0.8614 0.4324 0.5038
H17 H 0.8941 0.2966 0.4937
H18 H 1.0072 0.3804 0.5111
loop_
_geom_bond_atom_site_label_1
_geom_bond_atom_site_label_2
_geom_bond_site_symmetry_1
_geom_bond_site_symmetry_2
Br1 C2 1_555 1_555
Br2 C7 1_555 1_555
S1 C1 1_555 1_555
S2 C4 1_555 1_555
S3 C6 1_555 1_555
Si1 C1 1_555 1_555
Si2 C8 1_555 1_555
C1 C2 1_555 1_555
C2 C3 1_555 1_555
C3 C4 1_555 1_555
C4 S1 1_555 1_555
C5 C3 1_555 1_555
C6 S2 1_555 1_555
C7 C5 1_555 1_555
C8 S3 1_555 1_555
C9 Si1 1_555 1_555
H1 C9 1_555 1_555
H2 C9 1_555 1_555
H3 C9 1_555 1_555
C10 Si1 1_555 1_555
H4 C10 1_555 1_555
H5 C10 1_555 1_555
H6 C10 1_555 1_555
C11 Si1 1_555 1_555
H7 C11 1_555 1_555
H8 C11 1_555 1_555
H9 C11 1_555 1_555
C12 Si2 1_555 1_555
H10 C12 1_555 1_555
H11 C12 1_555 1_555
H12 C12 1_555 1_555
C13 Si2 1_555 1_555
H13 C13 1_555 1_555
H14 C13 1_555 1_555
H15 C13 1_555 1_555
C14 Si2 1_555 1_555
H16 C14 1_555 1_555
H17 C14 1_555 1_555
H18 C14 1_555 1_555
C5 C6 1_555 1_555
C7 C8 1_555 1_555

#END
