
#######################################################################
#
#                 Cambridge Crystallographic Data Centre
#                                CCDC 
#
#######################################################################
#
# If this CIF has been generated from an entry in the Cambridge 
# Structural Database, then it will include bibliographic, chemical, 
# crystal, experimental, refinement or atomic coordinate data resulting 
# from the CCDC's data processing and validation procedures.
#
#######################################################################

data_HUCHEU01
_chemical_name_common            'fingolimod hydrochloride'
_chemical_formula_moiety         'C19 H34 N1 O2 1+,Cl1 1-'
_chemical_name_systematic        
'1-hydroxy-2-(hydroxymethyl)-4-(4-octylphenyl)butan-2-aminium chloride'
_symmetry_cell_setting           monoclinic
_symmetry_space_group_name_H-M   'P 21/n'
_symmetry_Int_Tables_number      14
_space_group_name_Hall           '-P 2yn'
loop_
_symmetry_equiv_pos_site_id
_symmetry_equiv_pos_as_xyz
1 x,y,z
2 1/2-x,1/2+y,1/2-z
3 -x,-y,-z
4 1/2+x,1/2-y,1/2+z
_cell_length_a                   51.005(4)
_cell_length_b                   5.9602(5)
_cell_length_c                   57.158(4)
_cell_angle_alpha                90
_cell_angle_beta                 102.439(4)
_cell_angle_gamma                90
_cell_volume                     16968.1
_exptl_crystal_colour            colorless
_exptl_crystal_description       needle
_cell_formula_units_Z            32
loop_
_atom_site_label
_atom_site_type_symbol
_atom_site_fract_x
_atom_site_fract_y
_atom_site_fract_z
Cl1 Cl 0.24894(6) 0.9853(5) 0.95911(5)
Cl2 Cl 0.29833(6) 0.4734(5) 0.79494(5)
Cl3 Cl 0.23181(6) 0.9855(5) 0.83425(5)
Cl4 Cl 0.24441(6) 0.9711(5) 0.08014(5)
Cl5 Cl 0.30312(6) 0.4450(5) 0.18355(5)
Cl6 Cl 0.32394(6) 0.4849(5) 0.92674(5)
Cl7 Cl 0.32582(6) 0.4719(5) 0.05926(5)
Cl8 Cl 0.72163(7) 0.5496(5) 0.69730(5)
C1 C 0.7959(2) 1.3531(18) 0.7404(2)
C2 C 0.8127(3) 1.502(2) 0.7276(2)
H1 H 0.8250 1.5939 0.7390
H2 H 0.8230 1.4118 0.7187
C3 C 0.8115(2) 1.1540(19) 0.7527(2)
H3 H 0.8000 1.0733 0.7614
H4 H 0.8153 1.0541 0.7405
C4 C 0.8801(4) 0.630(3) 0.8041(4)
C5 C 0.7845(3) 1.5034(19) 0.7582(2)
H5 H 0.7984 1.5277 0.7725
H6 H 0.7796 1.6483 0.7508
C6 C 0.8526(3) 0.999(3) 0.7811(3)
C7 C 0.8375(3) 1.203(3) 0.7700(3)
H7 H 0.8339 1.2984 0.7827
H8 H 0.8490 1.2875 0.7616
C8 C 0.8709(4) 0.894(3) 0.7712(3)
H9 H 0.8737 0.9420 0.7565
C9 C 0.8479(3) 0.912(3) 0.8019(3)
H10 H 0.8346 0.9770 0.8086
C10 C 0.9272(7) 0.190(6) 0.8764(5)
H11 H 0.9101 0.1800 0.8811
H12 H 0.9364 0.3233 0.8837
C11 C 0.8617(3) 0.733(4) 0.8132(3)
H13 H 0.8582 0.6829 0.8276
C12 C 0.8975(5) 0.431(3) 0.8146(4)
H14 H 0.9145 0.4418 0.8097
H15 H 0.8887 0.2948 0.8076
C13 C 0.9033(5) 0.408(4) 0.8421(4)
H16 H 0.9116 0.5441 0.8495
H17 H 0.8868 0.3825 0.8474
C14 C 0.8855(3) 0.717(4) 0.7825(4)
H18 H 0.8989 0.6531 0.7760
O1 O 0.76211(15) 1.4072(13) 0.76472(14)
H19 H 0.7484 1.4633 0.7567
O2 O 0.7940(2) 1.6403(18) 0.71165(19)
H20 H 0.7983 1.6468 0.6986
N1 N 0.77309(17) 1.2601(16) 0.72208(15)
H21 H 0.7652 1.1505 0.7286
H22 H 0.7793 1.2060 0.7098
H23 H 0.7612 1.3684 0.7170
C15 C 0.9224(6) 0.208(5) 0.8489(5)
H24 H 0.9392 0.2344 0.8440
H25 H 0.9143 0.0718 0.8413
C16 C 0.9451(6) -0.030(5) 0.8855(5)
H26 H 0.9342 -0.1600 0.8796
H27 H 0.9601 -0.0295 0.8777
C17 C 0.9565(8) -0.069(6) 0.9124(5)
H28 H 0.9647 0.0691 0.9195
H29 H 0.9418 -0.1047 0.9202
C18 C 0.9774(8) -0.259(6) 0.9175(5)
H30 H 0.9952 -0.1988 0.9177
H31 H 0.9734 -0.3713 0.9050
C19 C 0.9769(14) -0.365(12) 0.9420(12)
H32 H 0.9805 -0.5231 0.9414
H33 H 0.9596 -0.3423 0.9456
H34 H 0.9905 -0.2964 0.9542
C20 C 0.3108(2) 0.0353(18) 0.87725(18)
H35 H 0.3037 -0.1110 0.8718
H36 H 0.3285 0.0122 0.8873
C21 C 0.3326(2) 0.3743(18) 0.86140(19)
H37 H 0.3308 0.4631 0.8469
H38 H 0.3268 0.4666 0.8733
C22 C 0.3138(2) 0.1681(17) 0.85597(18)
C23 C 0.3219(2) 0.013(2) 0.8367(2)
H39 H 0.3264 0.1023 0.8239
H40 H 0.3373 -0.0786 0.8437
C24 C 0.3613(3) 0.318(2) 0.8702(3)
H41 H 0.3662 0.2003 0.8603
H42 H 0.3639 0.2615 0.8865
C25 C 0.3795(3) 0.518(3) 0.8699(3)
C26 C 0.4052(4) 0.822(3) 0.8900(3)
H43 H 0.4113 0.8999 0.9042
C27 C 0.3876(3) 0.590(3) 0.8497(3)
H44 H 0.3813 0.5131 0.8354
C28 C 0.4137(3) 0.889(3) 0.8699(4)
C29 C 0.3880(3) 0.644(3) 0.8900(3)
H45 H 0.3821 0.6094 0.9039
C30 C 0.4320(3) 1.089(3) 0.8698(4)
H46 H 0.4308 1.1341 0.8533
H47 H 0.4252 1.2123 0.8779
C31 C 0.4607(3) 1.058(3) 0.8812(4)
H48 H 0.4677 0.9338 0.8735
H49 H 0.4623 1.0197 0.8979
C32 C 0.4044(4) 0.765(4) 0.8495(4)
H50 H 0.4096 0.8029 0.8354
O3 O 0.29436(15) 0.1289(12) 0.89140(11)
H51 H 0.2843 0.2216 0.8835
O4 O 0.29930(18) -0.1209(15) 0.82792(17)
H52 H 0.3009 -0.1814 0.8154
N2 N 0.28675(16) 0.2636(14) 0.84412(13)
H53 H 0.2818 0.3652 0.8537
H54 H 0.2747 0.1537 0.8413
H55 H 0.2879 0.3280 0.8303
C33 C 0.5213(4) 1.469(4) 0.8880(4)
H56 H 0.5182 1.4999 0.8709
H57 H 0.5136 1.5927 0.8953
C34 C 0.4774(3) 1.267(4) 0.8795(4)
H58 H 0.4760 1.2991 0.8626
H59 H 0.4691 1.3913 0.8861
C35 C 0.5063(4) 1.263(5) 0.8913(4)
H60 H 0.5146 1.1362 0.8851
H61 H 0.5079 1.2381 0.9083
C36 C 0.5649(4) 1.692(5) 0.8935(4)
H62 H 0.5636 1.7142 0.8765
H63 H 0.5561 1.8176 0.8994
C37 C 0.5500(4) 1.469(4) 0.8975(4)
H64 H 0.5579 1.3470 0.8901
H65 H 0.5533 1.4397 0.9145
C38 C 0.5923(5) 1.688(5) 0.9053(5)
H66 H 0.5937 1.6869 0.9224
H67 H 0.6012 1.8184 0.9010
H68 H 0.6007 1.5554 0.9007
C39 C 0.3283(2) 0.1789(17) -0.01145(17)
C40 C 0.3208(2) 0.0297(19) 0.0077(2)
H69 H 0.3134 -0.1095 0.0003
H70 H 0.3369 -0.0069 0.0195
C41 C 0.3407(2) 0.026(2) -0.0282(2)
H71 H 0.3480 0.1151 -0.0394
H72 H 0.3550 -0.0657 -0.0189
C42 C 0.3463(2) 0.379(2) -0.0022(2)
H73 H 0.3488 0.4664 -0.0158
H74 H 0.3368 0.4731 0.0072
C43 C 0.3907(3) 0.538(3) 0.0185(3)
C44 C 0.3729(3) 0.326(3) 0.0127(3)
H75 H 0.3819 0.2192 0.0043
H76 H 0.3708 0.2573 0.0275
C45 C 0.3906(3) 0.660(3) 0.0373(3)
H77 H 0.3782 0.6275 0.0466
C46 C 0.4082(3) 0.836(3) 0.0439(3)
H78 H 0.4080 0.9147 0.0579
C47 C 0.4256(3) 0.895(3) 0.0304(4)
C48 C 0.4704(2) 1.102(2) 0.0331(3)
H79 H 0.4676 1.1265 0.0160
H80 H 0.4807 0.9653 0.0371
C49 C 0.4077(4) 0.609(4) 0.0037(4)
H81 H 0.4070 0.5365 -0.0108
C50 C 0.4259(4) 0.787(4) 0.0103(5)
H82 H 0.4378 0.8270 0.0008
C51 C 0.4859(2) 1.302(3) 0.0467(3)
H83 H 0.4753 1.4374 0.0433
H84 H 0.4894 1.2744 0.0638
C52 C 0.5265(3) 1.547(2) 0.0497(5)
H85 H 0.5167 1.6768 0.0422
H86 H 0.5267 1.5512 0.0667
C53 C 0.5127(2) 1.331(3) 0.0386(3)
H87 H 0.5093 1.3394 0.0213
H88 H 0.5242 1.2024 0.0437
C54 C 0.5702(4) 1.771(3) 0.0553(5)
H89 H 0.5597 1.8947 0.0471
H90 H 0.5699 1.7837 0.0721
C55 C 0.4431(3) 1.080(4) 0.0404(5)
H91 H 0.4466 1.0680 0.0577
H92 H 0.4333 1.2186 0.0360
O5 O 0.30202(14) 0.1266(13) 0.01962(11)
H93 H 0.2871 0.1278 0.0106
O6 O 0.31970(16) -0.1106(15) -0.04041(16)
H94 H 0.3250 -0.1861 -0.0504
N3 N 0.30303(16) 0.2761(13) -0.02608(13)
H95 H 0.3061 0.3279 -0.0398
H96 H 0.2975 0.3880 -0.0180
H97 H 0.2904 0.1704 -0.0291
C56 C 0.5962(3) 1.800(4) 0.0531(4)
H98 H 0.5968 1.9131 0.0412
H99 H 0.6031 1.6616 0.0483
H100 H 0.6070 1.8472 0.0682
C57 C 0.5555(3) 1.552(3) 0.0459(4)
H101 H 0.5552 1.5370 0.0289
H102 H 0.5654 1.4255 0.0541
C58 C 0.3208(2) 0.1654(18) 0.11889(18)
C59 C 0.3089(2) 0.0104(19) 0.1356(2)
H103 H 0.3030 -0.1279 0.1271
H104 H 0.3229 -0.0274 0.1493
C60 C 0.3366(2) 0.362(2) 0.1315(2)
H105 H 0.3408 0.4615 0.1194
H106 H 0.3252 0.4445 0.1400
C61 C 0.3363(2) 0.018(2) 0.1042(2)
H107 H 0.3457 0.1125 0.0949
H108 H 0.3494 -0.0732 0.1149
C62 C 0.3684(4) 0.591(4) 0.1812(4)
H109 H 0.3539 0.5288 0.1865
C63 C 0.3624(3) 0.308(3) 0.1490(3)
H110 H 0.3587 0.2021 0.1607
H111 H 0.3746 0.2367 0.1404
C64 C 0.4103(5) 0.792(5) 0.1664(4)
H112 H 0.4252 0.8484 0.1615
C65 C 0.3760(3) 0.509(3) 0.1619(3)
C66 C 0.4032(4) 0.874(4) 0.1857(5)
C67 C 0.4184(5) 1.079(3) 0.1976(3)
H113 H 0.4084 1.2131 0.1914
H114 H 0.4357 1.0866 0.1931
C68 C 0.3827(3) 0.776(4) 0.1935(3)
H115 H 0.3780 0.8300 0.2073
C69 C 0.3952(4) 0.622(4) 0.1539(4)
H116 H 0.3984 0.5831 0.1390
C70 C 0.4379(4) 1.295(3) 0.2350(2)
H117 H 0.4552 1.3007 0.2304
H118 H 0.4276 1.4255 0.2283
C71 C 0.4229(5) 1.079(3) 0.2251(3)
H119 H 0.4333 0.9490 0.2316
H120 H 0.4057 1.0726 0.2298
O7 O 0.28743(16) 0.1026(13) 0.14358(12)
H121 H 0.2733 0.0683 0.1344
O8 O 0.31799(17) -0.1174(16) 0.08918(17)
H122 H 0.3252 -0.1737 0.0791
N4 N 0.29750(15) 0.2614(14) 0.10097(14)
H123 H 0.2901 0.3722 0.1077
H124 H 0.2854 0.1546 0.0961
H125 H 0.3033 0.3144 0.0884
C72 C 0.4571(5) 1.512(3) 0.2724(2)
H126 H 0.4467 1.6427 0.2660
H127 H 0.4742 1.5190 0.2675
C73 C 0.4421(4) 1.297(3) 0.2625(2)
H128 H 0.4523 1.1661 0.2691
H129 H 0.4248 1.2914 0.2670
C74 C 0.4849(9) 1.712(5) 0.3373(3)
H130 H 0.4907 1.8563 0.3438
H131 H 0.4992 1.6051 0.3419
H132 H 0.4696 1.6644 0.3434
C75 C 0.4618(6) 1.511(4) 0.2999(2)
H133 H 0.4447 1.5050 0.3047
H134 H 0.4722 1.3804 0.3063
C76 C 0.4770(7) 1.726(4) 0.3098(3)
H135 H 0.4657 1.8563 0.3051
H136 H 0.4930 1.7424 0.3033
C77 C 0.2185(2) -0.467(2) 0.7542(2)
H137 H 0.2266 -0.6079 0.7605
H138 H 0.2008 -0.4990 0.7447
C78 C 0.19826(19) -0.1113(18) 0.76908(19)
H139 H 0.2046 -0.0271 0.7569
H140 H 0.2004 -0.0167 0.7832
C79 C 0.2157(2) -0.3159(16) 0.77534(16)
C80 C 0.2079(2) -0.456(2) 0.7950(2)
H141 H 0.2041 -0.3603 0.8076
H142 H 0.1920 -0.5452 0.7886
C81 C 0.1681(2) -0.162(2) 0.7599(3)
H143 H 0.1657 -0.2448 0.7450
H144 H 0.1620 -0.2557 0.7715
C82 C 0.1405(3) 0.140(3) 0.7740(3)
H145 H 0.1446 0.0763 0.7892
C83 C 0.1516(2) 0.046(3) 0.7559(3)
C84 C 0.1293(3) 0.339(3) 0.7306(4)
H146 H 0.1263 0.4132 0.7160
C85 C 0.1460(3) 0.150(3) 0.7344(3)
H147 H 0.1533 0.0949 0.7220
C86 C 0.1241(3) 0.319(4) 0.7703(4)
H148 H 0.1173 0.3772 0.7829
C87 C 0.1175(3) 0.414(3) 0.7484(5)
C88 C 0.0986(3) 0.614(3) 0.7459(4)
H149 H 0.1079 0.7343 0.7558
H150 H 0.0833 0.5718 0.7525
C89 C 0.0663(4) 0.896(4) 0.7200(5)
H151 H 0.0544 0.8437 0.7300
H152 H 0.0756 1.0258 0.7280
C90 C 0.0876(4) 0.712(3) 0.7207(4)
H153 H 0.0798 0.5906 0.7101
H154 H 0.1024 0.7731 0.7146
O9 O 0.23432(14) -0.3711(13) 0.73918(11)
H155 H 0.2245 -0.3150 0.7274
O10 O 0.23058(18) -0.5990(17) 0.80414(19)
H156 H 0.2290 -0.6551 0.8168
N5 N 0.24385(15) -0.2303(14) 0.78615(13)
H157 H 0.2483 -0.1243 0.7767
H158 H 0.2555 -0.3432 0.7874
H159 H 0.2442 -0.1733 0.8006
C91 C 0.0483(6) 0.981(6) 0.6966(5)
H160 H 0.0381 0.8573 0.6881
H161 H 0.0594 1.0438 0.6863
C92 C 0.0290(8) 1.162(6) 0.7022(7)
H162 H 0.0179 1.0990 0.7124
H163 H 0.0392 1.2854 0.7107
C93 C -0.0087(6) 1.427(8) 0.6841(7)
H164 H -0.0205 1.3610 0.6935
H165 H 0.0011 1.5487 0.6933
C94 C 0.0110(8) 1.249(8) 0.6788(7)
H166 H 0.0221 1.3135 0.6687
H167 H 0.0011 1.1246 0.6701
C95 C -0.0255(11) 1.518(13) 0.6604(12)
H168 H -0.0144 1.5269 0.6488
H169 H -0.0321 1.6645 0.6629
H170 H -0.0403 1.4189 0.6546
C96 C 0.24098(19) -0.3205(16) 0.90117(16)
C97 C 0.2228(2) -0.1174(17) 0.89372(17)
H171 H 0.2301 -0.0272 0.8825
H172 H 0.2227 -0.0260 0.9077
C98 C 0.2459(3) -0.473(2) 0.8806(2)
H173 H 0.2533 -0.6150 0.8872
H174 H 0.2288 -0.5040 0.8698
C99 C 0.2310(3) -0.468(2) 0.9192(2)
H175 H 0.2246 -0.3764 0.9308
H176 H 0.2165 -0.5633 0.9111
C100 C 0.1396(3) 0.384(3) 0.8681(3)
C101 C 0.1525(3) 0.310(3) 0.8516(3)
H177 H 0.1494 0.3818 0.8368
C102 C 0.1937(2) -0.185(2) 0.8820(2)
H178 H 0.1936 -0.2597 0.8669
H179 H 0.1872 -0.2905 0.8923
C103 C 0.1705(3) 0.129(3) 0.8554(2)
H180 H 0.1794 0.0841 0.8436
C104 C 0.1747(2) 0.018(2) 0.8774(2)
C105 C 0.1446(3) 0.273(3) 0.8903(3)
H181 H 0.1364 0.3199 0.9025
C106 C 0.1621(3) 0.096(3) 0.8936(3)
H182 H 0.1653 0.0250 0.9085
C107 C 0.1199(3) 0.577(3) 0.8650(3)
H183 H 0.1277 0.6980 0.8757
H184 H 0.1037 0.5285 0.8698
C108 C 0.0909(3) 0.850(3) 0.8386(3)
H185 H 0.0977 0.9645 0.8504
H186 H 0.0752 0.7833 0.8428
C109 C 0.1125(3) 0.668(3) 0.8392(3)
H187 H 0.1056 0.5481 0.8281
H188 H 0.1282 0.7316 0.8347
C110 C 0.0603(4) 1.129(3) 0.8126(4)
H189 H 0.0450 1.0568 0.8170
H190 H 0.0663 1.2490 0.8240
C111 C 0.0830(4) 0.958(3) 0.8136(4)
H191 H 0.0986 1.0317 0.8099
H192 H 0.0772 0.8416 0.8017
O11 O 0.26341(14) -0.3762(12) 0.86758(11)
H193 H 0.2549 -0.2952 0.8570
O12 O 0.25335(18) -0.6002(17) 0.9306(2)
H194 H 0.2483 -0.6956 0.9390
N6 N 0.26744(16) -0.2261(14) 0.91393(14)
H195 H 0.2654 -0.1543 0.9271
H196 H 0.2735 -0.1307 0.9043
H197 H 0.2792 -0.3372 0.9180
C112 C 0.0515(4) 1.229(4) 0.7872(4)
H198 H 0.0456 1.1093 0.7759
H199 H 0.0668 1.3014 0.7829
C113 C 0.0287(5) 1.402(4) 0.7855(6)
H200 H 0.0133 1.3284 0.7896
H201 H 0.0346 1.5190 0.7973
C114 C 0.0202(6) 1.507(6) 0.7616(6)
H202 H 0.0263 1.4173 0.7499
H203 H 0.0279 1.6547 0.7619
H204 H 0.0010 1.5181 0.7575
C115 C 0.2541(2) -0.4775(18) 1.00425(19)
H205 H 0.2610 -0.6188 1.0115
H206 H 0.2384 -0.5107 0.9919
C116 C 0.2457(2) -0.3318(16) 1.02333(16)
C117 C 0.2335(2) -0.487(2) 1.0394(2)
H207 H 0.2250 -0.3995 1.0499
H208 H 0.2200 -0.5829 1.0297
C118 C 0.2284(2) -0.1309(17) 1.01380(18)
H209 H 0.2377 -0.0402 1.0041
H210 H 0.2258 -0.0399 1.0272
C119 C 0.1823(3) 0.001(2) 0.9919(2)
C120 C 0.2006(2) -0.196(2) 0.9986(2)
H211 H 0.2030 -0.2698 0.9840
H212 H 0.1922 -0.3027 1.0074
C121 C 0.1820(3) 0.114(3) 0.9715(3)
H213 H 0.1933 0.0688 0.9616
C122 C 0.1668(3) 0.079(3) 1.0063(3)
H214 H 0.1677 0.0103 1.0211
C123 C 0.1652(3) 0.293(3) 0.9650(3)
H215 H 0.1658 0.3666 0.9508
C124 C 0.1480(3) 0.370(3) 0.9780(3)
C125 C 0.1495(3) 0.255(4) 0.9999(3)
H216 H 0.1386 0.3005 1.0101
C126 C 0.1275(4) 0.554(4) 0.9754(4)
H217 H 0.1347 0.6792 0.9856
H218 H 0.1116 0.4993 0.9804
C127 C 0.1201(4) 0.630(3) 0.9491(4)
H219 H 0.1129 0.5047 0.9389
H220 H 0.1358 0.6858 0.9441
C128 C 0.0680(4) 1.078(4) 0.9190(5)
H221 H 0.0527 1.0132 0.9241
H222 H 0.0744 1.2045 0.9293
C129 C 0.0988(4) 0.817(3) 0.9470(4)
H223 H 0.0832 0.7600 0.9522
H224 H 0.1061 0.9407 0.9574
C130 C 0.0904(4) 0.902(4) 0.9210(4)
H225 H 0.0841 0.7768 0.9104
H226 H 0.1058 0.9676 0.9161
O13 O 0.27374(15) -0.3803(13) 0.99350(11)
H227 H 0.2879 -0.3682 1.0035
O14 O 0.25378(17) -0.6184(17) 1.05292(18)
H228 H 0.2477 -0.6930 1.0626
N7 N 0.27062(16) -0.2363(14) 1.03881(13)
H229 H 0.2785 -0.1445 1.0302
H230 H 0.2818 -0.3473 1.0446
H231 H 0.2664 -0.1604 1.0509
C131 C 0.0594(6) 1.158(6) 0.8929(5)
H232 H 0.0545 1.0315 0.8822
H233 H 0.0740 1.2385 0.8882
C132 C 0.0351(7) 1.315(7) 0.8916(7)
H234 H 0.0189 1.2263 0.8906
H235 H 0.0377 1.4065 0.9059
C133 C 0.0321(10) 1.466(9) 0.8694(8)
H236 H 0.0402 1.6090 0.8740
H237 H 0.0134 1.4862 0.8623
H238 H 0.0408 1.3967 0.8579
C134 C 0.2410(2) -0.500(2) 0.1237(2)
H239 H 0.2465 -0.6431 0.1313
H240 H 0.2272 -0.5298 0.1095
C135 C 0.2292(2) -0.3515(17) 0.14116(18)
C136 C 0.2129(2) -0.1527(19) 0.12957(19)
H241 H 0.2242 -0.0634 0.1215
H242 H 0.2085 -0.0603 0.1422
C137 C 0.1870(3) -0.207(3) 0.1117(2)
H243 H 0.1915 -0.2815 0.0980
H244 H 0.1766 -0.3105 0.1191
C138 C 0.1703(3) -0.006(3) 0.1032(3)
C139 C 0.2136(2) -0.502(2) 0.1547(2)
H245 H 0.2038 -0.4125 0.1641
H246 H 0.2009 -0.5935 0.1436
C140 C 0.1733(3) 0.102(3) 0.0828(3)
H247 H 0.1862 0.0512 0.0748
C141 C 0.1388(4) 0.364(3) 0.0854(4)
C142 C 0.1574(4) 0.286(3) 0.0739(3)
H248 H 0.1596 0.3551 0.0599
C143 C 0.1361(4) 0.260(4) 0.1060(4)
H249 H 0.1235 0.3133 0.1142
C144 C 0.1513(4) 0.078(4) 0.1147(3)
H250 H 0.1489 0.0104 0.1288
C145 C 0.1199(3) 0.558(2) 0.0787(3)
H251 H 0.1277 0.6880 0.0878
H252 H 0.1034 0.5229 0.0837
O15 O 0.26330(14) -0.4008(11) 0.11668(12)
H253 H 0.2581 -0.3002 0.1070
O16 O 0.2331(2) -0.6405(18) 0.17001(19)
H254 H 0.2270 -0.6837 0.1814
N8 N 0.25263(17) -0.2564(14) 0.15879(13)
H255 H 0.2467 -0.1634 0.1687
H256 H 0.2632 -0.1820 0.1510
H257 H 0.2619 -0.3675 0.1672
C146 C 0.1128(3) 0.623(3) 0.0520(2)
H258 H 0.1287 0.6760 0.0471
H259 H 0.1060 0.4923 0.0424
C147 C 0.0913(2) 0.808(2) 0.0482(2)
H260 H 0.0980 0.9382 0.0579
H261 H 0.0753 0.7546 0.0532
C148 C 0.0841(3) 0.873(3) 0.0215(2)
H262 H 0.0774 0.7428 0.0119
H263 H 0.1001 0.9265 0.0166
C149 C 0.0626(3) 1.058(3) 0.0178(2)
H264 H 0.0467 1.0049 0.0228
H265 H 0.0694 1.1886 0.0274
C150 C 0.0555(3) 1.123(3) -0.0089(3)
H266 H 0.0487 0.9932 -0.0185
H267 H 0.0714 1.1769 -0.0139
C151 C 0.0339(4) 1.309(4) -0.0127(3)
H268 H 0.0180 1.2553 -0.0077
H269 H 0.0407 1.4389 -0.0030
C152 C 0.0268(5) 1.374(4) -0.0394(4)
H270 H 0.0078 1.4020 -0.0441
H271 H 0.0316 1.2535 -0.0488
H272 H 0.0365 1.5067 -0.0418
loop_
_geom_bond_atom_site_label_1
_geom_bond_atom_site_label_2
_geom_bond_site_symmetry_1
_geom_bond_site_symmetry_2
C1 C2 1_555 1_555
C2 H1 1_555 1_555
H2 C2 1_555 1_555
C3 C1 1_555 1_555
H3 C3 1_555 1_555
H4 C3 1_555 1_555
C4 C11 1_555 1_555
C5 C1 1_555 1_555
H5 C5 1_555 1_555
H6 C5 1_555 1_555
C6 C7 1_555 1_555
C7 C3 1_555 1_555
H7 C7 1_555 1_555
H8 C7 1_555 1_555
C8 C6 1_555 1_555
H9 C8 1_555 1_555
C9 C6 1_555 1_555
H10 C9 1_555 1_555
C10 H11 1_555 1_555
H12 C10 1_555 1_555
C11 C9 1_555 1_555
H13 C11 1_555 1_555
C12 C4 1_555 1_555
H14 C12 1_555 1_555
H15 C12 1_555 1_555
C13 C12 1_555 1_555
H16 C13 1_555 1_555
H17 C13 1_555 1_555
C14 C4 1_555 1_555
H18 C14 1_555 1_555
O1 C5 1_555 1_555
H19 O1 1_555 1_555
O2 C2 1_555 1_555
H20 O2 1_555 1_555
N1 C1 1_555 1_555
H21 N1 1_555 1_555
H22 N1 1_555 1_555
H23 N1 1_555 1_555
C15 C10 1_555 1_555
H24 C15 1_555 1_555
H25 C15 1_555 1_555
C16 C10 1_555 1_555
H26 C16 1_555 1_555
H27 C16 1_555 1_555
C17 C16 1_555 1_555
H28 C17 1_555 1_555
H29 C17 1_555 1_555
C18 C17 1_555 1_555
H30 C18 1_555 1_555
H31 C18 1_555 1_555
C19 C18 1_555 1_555
H32 C19 1_555 1_555
H33 C19 1_555 1_555
H34 C19 1_555 1_555
C20 H35 1_555 1_555
H36 C20 1_555 1_555
C21 H37 1_555 1_555
H38 C21 1_555 1_555
C22 C20 1_555 1_555
C23 C22 1_555 1_555
H39 C23 1_555 1_555
H40 C23 1_555 1_555
C24 C21 1_555 1_555
H41 C24 1_555 1_555
H42 C24 1_555 1_555
C25 C24 1_555 1_555
C26 H43 1_555 1_555
C27 C25 1_555 1_555
H44 C27 1_555 1_555
C28 C26 1_555 1_555
C29 C25 1_555 1_555
H45 C29 1_555 1_555
C30 C28 1_555 1_555
H46 C30 1_555 1_555
H47 C30 1_555 1_555
C31 C30 1_555 1_555
H48 C31 1_555 1_555
H49 C31 1_555 1_555
C32 C27 1_555 1_555
H50 C32 1_555 1_555
O3 C20 1_555 1_555
H51 O3 1_555 1_555
O4 C23 1_555 1_555
H52 O4 1_555 1_555
N2 C22 1_555 1_555
H53 N2 1_555 1_555
H54 N2 1_555 1_555
H55 N2 1_555 1_555
C33 H56 1_555 1_555
H57 C33 1_555 1_555
C34 C31 1_555 1_555
H58 C34 1_555 1_555
H59 C34 1_555 1_555
C35 C33 1_555 1_555
H60 C35 1_555 1_555
H61 C35 1_555 1_555
C36 H62 1_555 1_555
H63 C36 1_555 1_555
C37 C33 1_555 1_555
H64 C37 1_555 1_555
H65 C37 1_555 1_555
C38 C36 1_555 1_555
H66 C38 1_555 1_555
H67 C38 1_555 1_555
H68 C38 1_555 1_555
C39 C40 1_555 1_555
C40 H69 1_555 1_555
H70 C40 1_555 1_555
C41 C39 1_555 1_555
H71 C41 1_555 1_555
H72 C41 1_555 1_555
C42 C39 1_555 1_555
H73 C42 1_555 1_555
H74 C42 1_555 1_555
C43 C44 1_555 1_555
C44 C42 1_555 1_555
H75 C44 1_555 1_555
H76 C44 1_555 1_555
C45 C43 1_555 1_555
H77 C45 1_555 1_555
C46 C45 1_555 1_555
H78 C46 1_555 1_555
C47 C46 1_555 1_555
C48 H79 1_555 1_555
H80 C48 1_555 1_555
C49 C43 1_555 1_555
H81 C49 1_555 1_555
C50 C47 1_555 1_555
H82 C50 1_555 1_555
C51 C48 1_555 1_555
H83 C51 1_555 1_555
H84 C51 1_555 1_555
C52 H85 1_555 1_555
H86 C52 1_555 1_555
C53 C51 1_555 1_555
H87 C53 1_555 1_555
H88 C53 1_555 1_555
C54 H89 1_555 1_555
H90 C54 1_555 1_555
C55 C47 1_555 1_555
H91 C55 1_555 1_555
H92 C55 1_555 1_555
O5 C40 1_555 1_555
H93 O5 1_555 1_555
O6 C41 1_555 1_555
H94 O6 1_555 1_555
N3 C39 1_555 1_555
H95 N3 1_555 1_555
H96 N3 1_555 1_555
H97 N3 1_555 1_555
C56 C54 1_555 1_555
H98 C56 1_555 1_555
H99 C56 1_555 1_555
H100 C56 1_555 1_555
C57 C52 1_555 1_555
H101 C57 1_555 1_555
H102 C57 1_555 1_555
C58 C59 1_555 1_555
C59 H103 1_555 1_555
H104 C59 1_555 1_555
C60 C58 1_555 1_555
H105 C60 1_555 1_555
H106 C60 1_555 1_555
C61 C58 1_555 1_555
H107 C61 1_555 1_555
H108 C61 1_555 1_555
C62 H109 1_555 1_555
C63 C60 1_555 1_555
H110 C63 1_555 1_555
H111 C63 1_555 1_555
C64 H112 1_555 1_555
C65 C62 1_555 1_555
C66 C64 1_555 1_555
C67 C66 1_555 1_555
H113 C67 1_555 1_555
H114 C67 1_555 1_555
C68 C62 1_555 1_555
H115 C68 1_555 1_555
C69 C64 1_555 1_555
H116 C69 1_555 1_555
C70 H117 1_555 1_555
H118 C70 1_555 1_555
C71 C67 1_555 1_555
H119 C71 1_555 1_555
H120 C71 1_555 1_555
O7 C59 1_555 1_555
H121 O7 1_555 1_555
O8 C61 1_555 1_555
H122 O8 1_555 1_555
N4 C58 1_555 1_555
H123 N4 1_555 1_555
H124 N4 1_555 1_555
H125 N4 1_555 1_555
C72 H126 1_555 1_555
H127 C72 1_555 1_555
C73 C70 1_555 1_555
H128 C73 1_555 1_555
H129 C73 1_555 1_555
C74 H130 1_555 1_555
H131 C74 1_555 1_555
H132 C74 1_555 1_555
C75 C72 1_555 1_555
H133 C75 1_555 1_555
H134 C75 1_555 1_555
C76 C74 1_555 1_555
H135 C76 1_555 1_555
H136 C76 1_555 1_555
C77 H137 1_555 1_555
H138 C77 1_555 1_555
C78 H139 1_555 1_555
H140 C78 1_555 1_555
C79 C77 1_555 1_555
C80 C79 1_555 1_555
H141 C80 1_555 1_555
H142 C80 1_555 1_555
C81 C78 1_555 1_555
H143 C81 1_555 1_555
H144 C81 1_555 1_555
C82 H145 1_555 1_555
C83 C81 1_555 1_555
C84 H146 1_555 1_555
C85 C83 1_555 1_555
H147 C85 1_555 1_555
C86 C82 1_555 1_555
H148 C86 1_555 1_555
C87 C84 1_555 1_555
C88 C87 1_555 1_555
H149 C88 1_555 1_555
H150 C88 1_555 1_555
C89 H151 1_555 1_555
H152 C89 1_555 1_555
C90 C88 1_555 1_555
H153 C90 1_555 1_555
H154 C90 1_555 1_555
O9 C77 1_555 1_555
H155 O9 1_555 1_555
O10 C80 1_555 1_555
H156 O10 1_555 1_555
N5 C79 1_555 1_555
H157 N5 1_555 1_555
H158 N5 1_555 1_555
H159 N5 1_555 1_555
C91 C89 1_555 1_555
H160 C91 1_555 1_555
H161 C91 1_555 1_555
C92 C91 1_555 1_555
H162 C92 1_555 1_555
H163 C92 1_555 1_555
C93 H164 1_555 1_555
H165 C93 1_555 1_555
C94 C92 1_555 1_555
H166 C94 1_555 1_555
H167 C94 1_555 1_555
C95 C93 1_555 1_555
H168 C95 1_555 1_555
H169 C95 1_555 1_555
H170 C95 1_555 1_555
C96 C97 1_555 1_555
C97 H171 1_555 1_555
H172 C97 1_555 1_555
C98 C96 1_555 1_555
H173 C98 1_555 1_555
H174 C98 1_555 1_555
C99 C96 1_555 1_555
H175 C99 1_555 1_555
H176 C99 1_555 1_555
C100 C101 1_555 1_555
C101 H177 1_555 1_555
C102 C97 1_555 1_555
H178 C102 1_555 1_555
H179 C102 1_555 1_555
C103 C101 1_555 1_555
H180 C103 1_555 1_555
C104 C102 1_555 1_555
C105 C100 1_555 1_555
H181 C105 1_555 1_555
C106 C104 1_555 1_555
H182 C106 1_555 1_555
C107 C100 1_555 1_555
H183 C107 1_555 1_555
H184 C107 1_555 1_555
C108 H185 1_555 1_555
H186 C108 1_555 1_555
C109 C107 1_555 1_555
H187 C109 1_555 1_555
H188 C109 1_555 1_555
C110 H189 1_555 1_555
H190 C110 1_555 1_555
C111 C108 1_555 1_555
H191 C111 1_555 1_555
H192 C111 1_555 1_555
O11 C98 1_555 1_555
H193 O11 1_555 1_555
O12 C99 1_555 1_555
H194 O12 1_555 1_555
N6 C96 1_555 1_555
H195 N6 1_555 1_555
H196 N6 1_555 1_555
H197 N6 1_555 1_555
C112 C110 1_555 1_555
H198 C112 1_555 1_555
H199 C112 1_555 1_555
C113 C112 1_555 1_555
H200 C113 1_555 1_555
H201 C113 1_555 1_555
C114 C113 1_555 1_555
H202 C114 1_555 1_555
H203 C114 1_555 1_555
H204 C114 1_555 1_555
C115 H205 1_555 1_555
H206 C115 1_555 1_555
C116 C115 1_555 1_555
C117 C116 1_555 1_555
H207 C117 1_555 1_555
H208 C117 1_555 1_555
C118 C116 1_555 1_555
H209 C118 1_555 1_555
H210 C118 1_555 1_555
C119 C120 1_555 1_555
C120 C118 1_555 1_555
H211 C120 1_555 1_555
H212 C120 1_555 1_555
C121 C119 1_555 1_555
H213 C121 1_555 1_555
C122 C119 1_555 1_555
H214 C122 1_555 1_555
C123 C121 1_555 1_555
H215 C123 1_555 1_555
C124 C123 1_555 1_555
C125 C122 1_555 1_555
H216 C125 1_555 1_555
C126 C124 1_555 1_555
H217 C126 1_555 1_555
H218 C126 1_555 1_555
C127 C126 1_555 1_555
H219 C127 1_555 1_555
H220 C127 1_555 1_555
C128 H221 1_555 1_555
H222 C128 1_555 1_555
C129 C127 1_555 1_555
H223 C129 1_555 1_555
H224 C129 1_555 1_555
C130 C128 1_555 1_555
H225 C130 1_555 1_555
H226 C130 1_555 1_555
O13 C115 1_555 1_555
H227 O13 1_555 1_555
O14 C117 1_555 1_555
H228 O14 1_555 1_555
N7 C116 1_555 1_555
H229 N7 1_555 1_555
H230 N7 1_555 1_555
H231 N7 1_555 1_555
C131 C128 1_555 1_555
H232 C131 1_555 1_555
H233 C131 1_555 1_555
C132 C131 1_555 1_555
H234 C132 1_555 1_555
H235 C132 1_555 1_555
C133 C132 1_555 1_555
H236 C133 1_555 1_555
H237 C133 1_555 1_555
H238 C133 1_555 1_555
C134 H239 1_555 1_555
H240 C134 1_555 1_555
C135 C134 1_555 1_555
C136 C135 1_555 1_555
H241 C136 1_555 1_555
H242 C136 1_555 1_555
C137 C136 1_555 1_555
H243 C137 1_555 1_555
H244 C137 1_555 1_555
C138 C137 1_555 1_555
C139 C135 1_555 1_555
H245 C139 1_555 1_555
H246 C139 1_555 1_555
C140 C138 1_555 1_555
H247 C140 1_555 1_555
C141 C142 1_555 1_555
C142 C140 1_555 1_555
H248 C142 1_555 1_555
C143 C141 1_555 1_555
H249 C143 1_555 1_555
C144 C138 1_555 1_555
H250 C144 1_555 1_555
C145 C141 1_555 1_555
H251 C145 1_555 1_555
H252 C145 1_555 1_555
O15 C134 1_555 1_555
H253 O15 1_555 1_555
O16 C139 1_555 1_555
H254 O16 1_555 1_555
N8 C135 1_555 1_555
H255 N8 1_555 1_555
H256 N8 1_555 1_555
H257 N8 1_555 1_555
C146 C145 1_555 1_555
H258 C146 1_555 1_555
H259 C146 1_555 1_555
C147 C146 1_555 1_555
H260 C147 1_555 1_555
H261 C147 1_555 1_555
C148 C147 1_555 1_555
H262 C148 1_555 1_555
H263 C148 1_555 1_555
C149 C148 1_555 1_555
H264 C149 1_555 1_555
H265 C149 1_555 1_555
C150 C149 1_555 1_555
H266 C150 1_555 1_555
H267 C150 1_555 1_555
C151 C150 1_555 1_555
H268 C151 1_555 1_555
H269 C151 1_555 1_555
C152 C151 1_555 1_555
H270 C152 1_555 1_555
H271 C152 1_555 1_555
H272 C152 1_555 1_555
C8 C14 1_555 1_555
C13 C15 1_555 1_555
C21 C22 1_555 1_555
C26 C29 1_555 1_555
C28 C32 1_555 1_555
C34 C35 1_555 1_555
C36 C37 1_555 1_555
C48 C55 1_555 1_555
C49 C50 1_555 1_555
C52 C53 1_555 1_555
C54 C57 1_555 1_555
C63 C65 1_555 1_555
C65 C69 1_555 1_555
C66 C68 1_555 1_555
C70 C71 1_555 1_555
C72 C73 1_555 1_555
C75 C76 1_555 1_555
C78 C79 1_555 1_555
C82 C83 1_555 1_555
C84 C85 1_555 1_555
C86 C87 1_555 1_555
C89 C90 1_555 1_555
C93 C94 1_555 1_555
C103 C104 1_555 1_555
C105 C106 1_555 1_555
C108 C109 1_555 1_555
C110 C111 1_555 1_555
C124 C125 1_555 1_555
C129 C130 1_555 1_555
C143 C144 1_555 1_555

#END
