
#######################################################################
#
#                 Cambridge Crystallographic Data Centre
#                                CCDC 
#
#######################################################################
#
# If this CIF has been generated from an entry in the Cambridge 
# Structural Database, then it will include bibliographic, chemical, 
# crystal, experimental, refinement or atomic coordinate data resulting 
# from the CCDC's data processing and validation procedures.
#
#######################################################################

data_HUCHEU
_chemical_name_common            'fingolimod hydrochloride'
_chemical_formula_moiety         'C19 H34 N1 O2 1+,Cl1 1-'
_chemical_name_systematic        
'1-hydroxy-2-(hydroxymethyl)-4-(4-octylphenyl)butan-2-aminium chloride'
_symmetry_cell_setting           monoclinic
_symmetry_space_group_name_H-M   'P 21/n'
_symmetry_Int_Tables_number      14
_space_group_name_Hall           '-P 2yn'
loop_
_symmetry_equiv_pos_site_id
_symmetry_equiv_pos_as_xyz
1 x,y,z
2 1/2-x,1/2+y,1/2-z
3 -x,-y,-z
4 1/2+x,1/2-y,1/2+z
_cell_length_a                   7.1370(3)
_cell_length_b                   5.9623(2)
_cell_length_c                   49.4475(18)
_cell_angle_alpha                90
_cell_angle_beta                 91.231(2)
_cell_angle_gamma                90
_cell_volume                     2103.65
_exptl_crystal_colour            colorless
_exptl_crystal_description       needle
_cell_formula_units_Z            4
loop_
_atom_site_label
_atom_site_type_symbol
_atom_site_fract_x
_atom_site_fract_y
_atom_site_fract_z
Cl1 Cl 0.57928(10) 0.52533(13) 0.211766(17)
C1 C -0.1115(5) 0.0738(6) 0.19541(8)
O1 O 0.3270(3) 0.1638(3) 0.23629(5)
H1 H 0.4001 0.2541 0.2298
N1 N -0.0328(3) 0.3160(4) 0.23374(5)
C2 C 1.3202(10) 1.8163(16) 0.01891(17)
H2 H 1.3939 1.8304 0.0353
H3 H 1.3366 1.9473 0.0079
H4 H 1.3598 1.6860 0.0092
C3 C 1.1179(9) 1.7928(12) 0.02569(13)
H5 H 1.0798 1.9263 0.0354
H6 H 1.0448 1.7868 0.0089
C4 C 1.0704(8) 1.5927(10) 0.04229(11)
H7 H 1.1424 1.5985 0.0591
H8 H 1.1080 1.4587 0.0327
C5 C 0.8661(8) 1.5735(10) 0.04870(11)
H9 H 0.8289 1.7072 0.0584
H10 H 0.7941 1.5690 0.0318
C6 C 0.8160(8) 1.3708(10) 0.06532(11)
H11 H 0.8884 1.3745 0.0821
H12 H 0.8519 1.2368 0.0556
C7 C 0.6111(7) 1.3548(9) 0.07179(10)
H13 H 0.5389 1.3405 0.0550
H14 H 0.5728 1.4925 0.0805
C8 C 0.5660(7) 1.1578(9) 0.09006(10)
H15 H 0.6086 1.0207 0.0816
H16 H 0.6351 1.1750 0.1070
C9 C 0.3612(7) 1.1353(8) 0.09586(9)
H17 H 0.2928 1.1238 0.0788
H18 H 0.3204 1.2719 0.1046
C10 C 0.3065(7) 0.9373(7) 0.11345(8)
C11 C 0.4331(7) 0.8270(9) 0.13023(10)
H19 H 0.5568 0.8759 0.1312
C12 C 0.3789(8) 0.6445(9) 0.14560(9)
H20 H 0.4678 0.5719 0.1565
C13 C 0.1962(7) 0.5678(7) 0.14518(8)
C14 C 0.1435(8) 0.3633(7) 0.16169(8)
H21 H 0.0390 0.2873 0.1528
H22 H 0.2487 0.2602 0.1624
C15 C 0.0902(4) 0.4240(5) 0.19023(6)
H23 H -0.0176 0.5230 0.1894
H24 H 0.1930 0.5061 0.1987
C16 C 0.0433(4) 0.2218(4) 0.20803(6)
C17 C 0.2106(5) 0.0723(5) 0.21541(7)
H25 H 0.1650 -0.0729 0.2212
H26 H 0.2848 0.0494 0.1994
C18 C 0.1239(7) 0.8653(8) 0.11359(9)
H27 H 0.0343 0.9394 0.1030
C19 C 0.0704(7) 0.6848(8) 0.12920(9)
H28 H -0.0548 0.6413 0.1289
O2 O -0.1801(5) -0.0610(6) 0.21676(6)
H29 H -0.2471 -0.1605 0.2104
H30 H 0.037(6) 0.410(8) 0.2407(8)
H31 H -0.142(5) 0.376(6) 0.2309(7)
H32 H -0.056(6) 0.190(8) 0.2469(8)
H33 H -0.055(7) -0.007(7) 0.1804(10)
H34 H -0.207(5) 0.177(7) 0.1858(8)
loop_
_geom_bond_atom_site_label_1
_geom_bond_atom_site_label_2
_geom_bond_site_symmetry_1
_geom_bond_site_symmetry_2
C1 C16 1_555 1_555
O1 H1 1_555 1_555
N1 C16 1_555 1_555
C2 H2 1_555 1_555
H3 C2 1_555 1_555
H4 C2 1_555 1_555
C3 C2 1_555 1_555
H5 C3 1_555 1_555
H6 C3 1_555 1_555
C4 C3 1_555 1_555
H7 C4 1_555 1_555
H8 C4 1_555 1_555
C5 C4 1_555 1_555
H9 C5 1_555 1_555
H10 C5 1_555 1_555
C6 C5 1_555 1_555
H11 C6 1_555 1_555
H12 C6 1_555 1_555
C7 C6 1_555 1_555
H13 C7 1_555 1_555
H14 C7 1_555 1_555
C8 C7 1_555 1_555
H15 C8 1_555 1_555
H16 C8 1_555 1_555
C9 C8 1_555 1_555
H17 C9 1_555 1_555
H18 C9 1_555 1_555
C10 C9 1_555 1_555
C11 C10 1_555 1_555
H19 C11 1_555 1_555
C12 C11 1_555 1_555
H20 C12 1_555 1_555
C13 C12 1_555 1_555
C14 C13 1_555 1_555
H21 C14 1_555 1_555
H22 C14 1_555 1_555
C15 C14 1_555 1_555
H23 C15 1_555 1_555
H24 C15 1_555 1_555
C16 C15 1_555 1_555
C17 O1 1_555 1_555
H25 C17 1_555 1_555
H26 C17 1_555 1_555
C18 C10 1_555 1_555
H27 C18 1_555 1_555
C19 C13 1_555 1_555
H28 C19 1_555 1_555
O2 C1 1_555 1_555
H29 O2 1_555 1_555
H30 N1 1_555 1_555
H31 N1 1_555 1_555
H32 N1 1_555 1_555
H33 C1 1_555 1_555
H34 C1 1_555 1_555
C16 C17 1_555 1_555
C18 C19 1_555 1_555

#END
