
#######################################################################
#
#                 Cambridge Crystallographic Data Centre
#                                CCDC 
#
#######################################################################
#
# If this CIF has been generated from an entry in the Cambridge 
# Structural Database, then it will include bibliographic, chemical, 
# crystal, experimental, refinement or atomic coordinate data resulting 
# from the CCDC's data processing and validation procedures.
#
#######################################################################

data_HUCLIA
_chemical_formula_moiety         'C8 H8 N2 O4,2(H2 O1)'
_chemical_name_systematic        
'5,6-Dimethylpyrazine-2,3-dicarboxylic acid dihydrate'
_symmetry_cell_setting           orthorhombic
_symmetry_space_group_name_H-M   'P b c n'
_symmetry_Int_Tables_number      60
_space_group_name_Hall           '-P 2n 2ab'
loop_
_symmetry_equiv_pos_site_id
_symmetry_equiv_pos_as_xyz
1 x,y,z
2 1/2+x,1/2+y,1/2-z
3 x,-y,1/2+z
4 1/2-x,1/2+y,z
5 -x,-y,-z
6 1/2-x,1/2-y,1/2+z
7 -x,y,1/2-z
8 1/2+x,1/2-y,-z
_cell_length_a                   12.6454(3)
_cell_length_b                   9.0812(3)
_cell_length_c                   8.8800(3)
_cell_angle_alpha                90
_cell_angle_beta                 90
_cell_angle_gamma                90
_cell_volume                     1019.74
_exptl_crystal_colour            'pale yellow'
_exptl_crystal_description       cubic
_chemical_melting_point          478K
_cell_formula_units_Z            4
loop_
_atom_site_label
_atom_site_type_symbol
_atom_site_fract_x
_atom_site_fract_y
_atom_site_fract_z
O1 O 0.38118(7) 0.84800(9) 0.24760(9)
N1 N 0.41552(7) 0.48572(10) 0.34931(10)
O3 O 0.36048(6) 0.74656(9) 0.47656(9)
C1 C 0.45767(8) 0.35904(11) 0.30252(12)
C2 C 0.41012(9) 0.21990(12) 0.36205(13)
C3 C 0.39632(8) 0.74994(11) 0.33768(12)
C4 C 0.45635(8) 0.61243(11) 0.29719(11)
H1 H 0.3808(13) 0.2338(18) 0.464(2)
H2 H 0.4602(15) 0.1399(19) 0.367(2)
H3 H 0.3217(15) 0.835(2) 0.502(2)
H4 H 0.3528(16) 0.190(2) 0.296(2)
C1F C 0.54233(8) 0.35904(11) 0.19748(12)
N1F N 0.58448(7) 0.48572(10) 0.15069(10)
C4F C 0.54365(8) 0.61243(11) 0.20281(11)
C3F C 0.60368(8) 0.74994(11) 0.16232(12)
O1F O 0.61882(7) 0.84800(9) 0.25240(9)
O3F O 0.63952(6) 0.74656(9) 0.02344(9)
H3F H 0.6783(15) 0.835(2) -0.002(2)
C2F C 0.58988(9) 0.21990(12) 0.13795(13)
H1F H 0.6192(13) 0.2338(18) 0.036(2)
H2F H 0.5398(15) 0.1399(19) 0.133(2)
H4F H 0.6472(16) 0.190(2) 0.204(2)
O2 O 0.25029(7) 0.45791(9) 0.57338(10)
H5 H 0.2979(19) 0.493(2) 0.513(3)
H6 H 0.2202(15) 0.530(2) 0.622(2)
loop_
_geom_bond_atom_site_label_1
_geom_bond_atom_site_label_2
_geom_bond_site_symmetry_1
_geom_bond_site_symmetry_2
O1 C3 1_555 1_555
O2 H5 1_555 1_555
N1 C1 1_555 1_555
O3 C3 1_555 1_555
C1 C2 1_555 1_555
C2 H1 1_555 1_555
C3 C4 1_555 1_555
C4 N1 1_555 1_555
H2 C2 1_555 1_555
H3 O3 1_555 1_555
H4 C2 1_555 1_555
H6 O2 1_555 1_555
C1F C1 1_555 1_555
N1F C1F 1_555 1_555
C4F C4 1_555 1_555
C3F C4F 1_555 1_555
O1F C3F 1_555 1_555
O3F C3F 1_555 1_555
H3F O3F 1_555 1_555
C2F C1F 1_555 1_555
H1F C2F 1_555 1_555
H2F C2F 1_555 1_555
H4F C2F 1_555 1_555
N1F C4F 1_555 1_555

#END
