
#######################################################################
#
#                 Cambridge Crystallographic Data Centre
#                                CCDC 
#
#######################################################################
#
# If this CIF has been generated from an entry in the Cambridge 
# Structural Database, then it will include bibliographic, chemical, 
# crystal, experimental, refinement or atomic coordinate data resulting 
# from the CCDC's data processing and validation procedures.
#
#######################################################################

data_HUCLEW04
_chemical_formula_moiety         'C8 H4 N2 O8,2(H2 O1)'
_chemical_name_systematic        
'2,3,5,6-Pyrazinetetracarboxylic acid dihydrate'
_symmetry_cell_setting           triclinic
_symmetry_space_group_name_H-M   'P -1'
_symmetry_Int_Tables_number      2
_space_group_name_Hall           '-P 1'
loop_
_symmetry_equiv_pos_site_id
_symmetry_equiv_pos_as_xyz
1 x,y,z
2 -x,-y,-z
_cell_length_a                   5.4950(10)
_cell_length_b                   6.4410(10)
_cell_length_c                   8.7670(10)
_cell_angle_alpha                99.393(6)
_cell_angle_beta                 107.565(7)
_cell_angle_gamma                105.174(7)
_cell_volume                     275.443
_exptl_crystal_colour            'pale yellow'
_exptl_crystal_description       plate
_chemical_melting_point          '480 K'
_cell_formula_units_Z            1
_exptl_crystal_recrystallization_method 'aqueous hydrochloric acid'
loop_
_atom_site_label
_atom_site_type_symbol
_atom_site_fract_x
_atom_site_fract_y
_atom_site_fract_z
O1 O 0.2546(2) -0.05271(16) 0.09102(11)
O3 O 0.6289(2) 0.00271(17) 0.30634(12)
O4 O 0.7478(2) -0.3812(2) 0.44300(12)
O5 O 1.0901(2) -0.2204(2) 0.36979(12)
N1 N 0.31246(10) -0.40556(8) -0.07606(6)
H1 H 0.2342(4) 0.0909(3) 0.1559(2)
H2 H 1.1958(4) -0.1676(4) 0.4896(2)
C1 C 0.45918(15) -0.10377(12) 0.17233(8)
C2 C 0.47762(14) -0.31531(11) 0.08175(8)
C3 C 0.66599(14) -0.41138(11) 0.15872(8)
C4 C 0.83927(15) -0.33106(12) 0.34098(8)
C3A C 0.33401(14) -0.58862(11) -0.15872(8)
C2A C 0.52238(14) -0.68469(11) -0.08175(8)
N1A N 0.68754(10) -0.59444(8) 0.07606(6)
C1A C 0.54082(15) -0.89623(12) -0.17233(8)
O1A O 0.7454(2) -0.94729(16) -0.09102(11)
H1A H 0.7658(4) -1.0909(3) -0.1559(2)
O3A O 0.3711(2) -1.00271(17) -0.30634(12)
C4A C 0.16073(15) -0.66894(12) -0.34098(8)
O4A O 0.2522(2) -0.6188(2) -0.44300(12)
O5A O -0.0901(2) -0.7796(2) -0.36979(12)
H2A H -0.1958(4) -0.8324(4) -0.4896(2)
O2 O 0.1829(2) 0.28935(16) 0.22033(12)
H3 H 0.2210(5) 0.3301(4) 0.3376(2)
H4 H 0.0036(4) 0.2895(3) 0.1664(2)
loop_
_geom_bond_atom_site_label_1
_geom_bond_atom_site_label_2
_geom_bond_site_symmetry_1
_geom_bond_site_symmetry_2
O1 H1 1_555 1_555
O2 H3 1_555 1_555
O3 C1 1_555 1_555
O4 C4 1_555 1_555
O5 H2 1_555 1_555
N1 C2 1_555 1_555
C1 O1 1_555 1_555
C2 C1 1_555 1_555
C3 C2 1_555 1_555
C4 O5 1_555 1_555
H4 O2 1_555 1_555
C3A N1 1_555 1_555
C2A C3A 1_555 1_555
N1A C3 1_555 1_555
C1A C2A 1_555 1_555
O1A C1A 1_555 1_555
H1A O1A 1_555 1_555
O3A C1A 1_555 1_555
C4A C3A 1_555 1_555
O4A C4A 1_555 1_555
O5A C4A 1_555 1_555
H2A O5A 1_555 1_555
C3 C4 1_555 1_555
C2A N1A 1_555 1_555

#END
