
#######################################################################
#
#                 Cambridge Crystallographic Data Centre
#                                CCDC 
#
#######################################################################
#
# If this CIF has been generated from an entry in the Cambridge 
# Structural Database, then it will include bibliographic, chemical, 
# crystal, experimental, refinement or atomic coordinate data resulting 
# from the CCDC's data processing and validation procedures.
#
#######################################################################

data_HUCLEW03
_chemical_formula_moiety         'C8 H4 N2 O8,2(H2 O1)'
_chemical_name_systematic        
'2,3,5,6-Pyrazinetetracarboxylic acid dihydrate'
_symmetry_cell_setting           triclinic
_symmetry_space_group_name_H-M   'P -1'
_symmetry_Int_Tables_number      2
_space_group_name_Hall           '-P 1'
loop_
_symmetry_equiv_pos_site_id
_symmetry_equiv_pos_as_xyz
1 x,y,z
2 -x,-y,-z
_cell_length_a                   5.4361(10)
_cell_length_b                   6.3699(10)
_cell_length_c                   8.6672(10)
_cell_angle_alpha                97.911(5)
_cell_angle_beta                 107.546(5)
_cell_angle_gamma                105.718(5)
_cell_volume                     267.48
_exptl_crystal_colour            'pale yellow'
_exptl_crystal_description       plate
_chemical_melting_point          '480 K'
_cell_formula_units_Z            1
_exptl_crystal_recrystallization_method 'aqueous hydrochloric acid'
loop_
_atom_site_label
_atom_site_type_symbol
_atom_site_fract_x
_atom_site_fract_y
_atom_site_fract_z
O1 O 0.25521(16) -0.04981(12) 0.09077(9)
O3 O 0.63717(16) 0.00054(13) 0.30705(9)
O4 O 0.74835(16) -0.39114(13) 0.44495(9)
O5 O 1.09983(16) -0.21968(13) 0.37030(10)
N1 N 0.31036(9) -0.40330(7) -0.07639(6)
H1 H 0.2339(3) 0.0957(2) 0.15650(18)
H2 H 1.2048(3) -0.1685(3) 0.49105(19)
C1 C 0.46189(13) -0.10333(10) 0.17190(8)
C2 C 0.47919(13) -0.31494(10) 0.08154(8)
C3 C 0.66936(13) -0.41307(10) 0.15866(8)
C4 C 0.84349(13) -0.33579(10) 0.34183(8)
C3A C 0.33064(13) -0.58693(10) -0.15866(8)
C2A C 0.52081(13) -0.68506(10) -0.08154(8)
N1A N 0.68964(9) -0.59670(7) 0.07639(6)
C1A C 0.53811(13) -0.89667(10) -0.17190(8)
O1A O 0.74479(16) -0.95019(12) -0.09077(9)
H1A H 0.7661(3) -1.0957(2) -0.15650(18)
O3A O 0.36283(16) -1.00054(13) -0.30705(9)
C4A C 0.15651(13) -0.66421(10) -0.34183(8)
O4A O 0.25165(16) -0.60886(13) -0.44495(9)
O5A O -0.09983(16) -0.78032(13) -0.37030(10)
H2A H -0.2048(3) -0.8315(3) -0.49105(19)
O2 O 0.18350(17) 0.28973(13) 0.21931(10)
H3 H 0.2230(4) 0.3308(3) 0.3380(2)
H4 H -0.0008(3) 0.2885(3) 0.1641(2)
loop_
_geom_bond_atom_site_label_1
_geom_bond_atom_site_label_2
_geom_bond_site_symmetry_1
_geom_bond_site_symmetry_2
O1 H1 1_555 1_555
O2 H3 1_555 1_555
O3 C1 1_555 1_555
O4 C4 1_555 1_555
O5 H2 1_555 1_555
N1 C2 1_555 1_555
C1 O1 1_555 1_555
C2 C1 1_555 1_555
C3 C2 1_555 1_555
C4 O5 1_555 1_555
H4 O2 1_555 1_555
C3A N1 1_555 1_555
C2A C3A 1_555 1_555
N1A C3 1_555 1_555
C1A C2A 1_555 1_555
O1A C1A 1_555 1_555
H1A O1A 1_555 1_555
O3A C1A 1_555 1_555
C4A C3A 1_555 1_555
O4A C4A 1_555 1_555
O5A C4A 1_555 1_555
H2A O5A 1_555 1_555
C3 C4 1_555 1_555
C2A N1A 1_555 1_555

#END
