
#######################################################################
#
#                 Cambridge Crystallographic Data Centre
#                                CCDC 
#
#######################################################################
#
# If this CIF has been generated from an entry in the Cambridge 
# Structural Database, then it will include bibliographic, chemical, 
# crystal, experimental, refinement or atomic coordinate data resulting 
# from the CCDC's data processing and validation procedures.
#
#######################################################################

data_HUCWEI
_chemical_formula_moiety         'C15 H8 O1'
_chemical_name_systematic        4H-Cyclopenta[def]phenanthren-4-one
_symmetry_cell_setting           triclinic
_symmetry_space_group_name_H-M   'P -1'
_symmetry_Int_Tables_number      2
_space_group_name_Hall           '-P 1'
loop_
_symmetry_equiv_pos_site_id
_symmetry_equiv_pos_as_xyz
1 x,y,z
2 -x,-y,-z
_cell_length_a                   7.7884(5)
_cell_length_b                   15.1558(8)
_cell_length_c                   17.0236(10)
_cell_angle_alpha                100.588(5)
_cell_angle_beta                 101.065(5)
_cell_angle_gamma                91.824(5)
_cell_volume                     1933.83
_exptl_crystal_colour            red
_exptl_crystal_description       prism
_cell_formula_units_Z            8
_exptl_crystal_recrystallization_method toluene
loop_
_atom_site_label
_atom_site_type_symbol
_atom_site_fract_x
_atom_site_fract_y
_atom_site_fract_z
C1 C 0.8063(4) 0.33098(18) 0.03517(17)
C2 C 0.9978(3) 0.36444(17) 0.05461(16)
C3 C 1.0372(3) 0.37987(16) -0.01840(16)
C4 C 0.8892(3) 0.35928(16) -0.08247(16)
C5 C 0.7456(4) 0.32899(17) -0.05450(16)
C6 C 0.5917(4) 0.30514(18) -0.11001(17)
H1 H 0.4922 0.2844 -0.0943
C7 C 0.5879(4) 0.31286(19) -0.19101(17)
H2 H 0.4833 0.2974 -0.2288
C8 C 0.7328(4) 0.34248(18) -0.21725(17)
H3 H 0.7241 0.3466 -0.2717
C9 C 0.8934(4) 0.36642(17) -0.16181(16)
C10 C 1.0617(4) 0.39708(19) -0.17468(18)
H4 H 1.0728 0.4031 -0.2269
C11 C 1.2049(4) 0.41741(19) -0.11228(18)
H5 H 1.3102 0.4372 -0.1236
C12 C 1.1994(4) 0.40946(17) -0.02998(17)
C13 C 1.3329(4) 0.42358(18) 0.04128(19)
H6 H 1.4461 0.4426 0.0388
C14 C 1.2970(4) 0.40944(19) 0.11378(19)
H7 H 1.3873 0.4202 0.1596
C15 C 1.1294(4) 0.37934(19) 0.12227(17)
H8 H 1.1093 0.3699 0.1723
O1 O 0.7197(3) 0.30949(15) 0.08162(12)
C16 C 0.6568(4) 0.5839(3) 0.4052(2)
C17 C 0.6797(4) 0.5821(2) 0.4937(2)
C18 C 0.7531(3) 0.50091(18) 0.50378(18)
C19 C 0.7789(3) 0.45052(19) 0.42931(16)
C20 C 0.7242(4) 0.4942(3) 0.3652(2)
C21 C 0.7356(5) 0.4504(3) 0.2896(2)
H9 H 0.6995 0.4765 0.2444
C22 C 0.8009(5) 0.3669(3) 0.2807(2)
H10 H 0.8062 0.3375 0.2283
C23 C 0.8598(4) 0.3236(2) 0.3453(2)
H11 H 0.9054 0.2675 0.3364
C24 C 0.8480(4) 0.3675(2) 0.42488(17)
C25 C 0.8946(4) 0.3359(2) 0.49970(18)
H12 H 0.9442 0.2808 0.4990
C26 C 0.8696(4) 0.38269(18) 0.57053(18)
H13 H 0.9007 0.3591 0.6176
C27 C 0.7939(3) 0.47103(18) 0.57593(17)
C28 C 0.7557(4) 0.52866(19) 0.64403(19)
H14 H 0.7793 0.5124 0.6949
C29 C 0.6842(4) 0.6086(2) 0.6360(2)
H15 H 0.6600 0.6452 0.6822
C30 C 0.6458(4) 0.6379(2) 0.5620(3)
H16 H 0.5990 0.6931 0.5587
O2 O 0.5989(4) 0.64120(19) 0.37039(19)
C31 C -0.1975(3) 0.08775(17) 0.10259(15)
C32 C -0.0113(3) 0.11963(16) 0.14630(15)
C33 C 0.0789(3) 0.13636(15) 0.08627(14)
C34 C -0.0332(3) 0.11806(15) 0.00853(15)
C35 C -0.2014(3) 0.08791(16) 0.01345(15)
C36 C -0.3248(3) 0.06629(17) -0.05763(15)
H17 H -0.4383 0.0453 -0.0576
C37 C -0.2745(4) 0.07684(17) -0.13048(16)
H18 H -0.3575 0.0626 -0.1789
C38 C -0.1079(4) 0.10733(17) -0.13356(15)
H19 H -0.0813 0.1137 -0.1833
C39 C 0.0232(3) 0.12901(16) -0.06143(15)
C40 C 0.2048(4) 0.16059(17) -0.04878(17)
H20 H 0.2498 0.1699 -0.0936
C41 C 0.3131(4) 0.17747(18) 0.02610(17)
H21 H 0.4295 0.1973 0.0306
C42 C 0.2528(3) 0.16546(16) 0.09839(16)
C43 C 0.3441(4) 0.17931(17) 0.18063(16)
H22 H 0.4622 0.1991 0.1941
C44 C 0.2574(4) 0.16333(17) 0.24065(17)
H23 H 0.3200 0.1729 0.2942
C45 C 0.0794(4) 0.13330(17) 0.22509(16)
H24 H 0.0251 0.1231 0.2670
O3 O -0.3173(2) 0.06667(13) 0.13308(11)
C46 C 0.8208(3) -0.10522(18) 0.52660(16)
C47 C 0.7622(3) -0.01303(17) 0.55685(15)
C48 C 0.7321(3) 0.02944(17) 0.48979(15)
C49 C 0.7657(3) -0.02706(17) 0.41971(15)
C50 C 0.8189(3) -0.10950(17) 0.43687(15)
C51 C 0.8496(4) -0.17342(18) 0.37382(16)
H25 H 0.8842 -0.2297 0.3823
C52 C 0.8269(4) -0.15119(19) 0.29552(16)
H26 H 0.8489 -0.1939 0.2525
C53 C 0.7739(3) -0.06923(19) 0.28018(16)
H27 H 0.7601 -0.0576 0.2276
C54 C 0.7405(3) -0.00288(17) 0.34402(15)
C55 C 0.6794(4) 0.08598(18) 0.34298(17)
H28 H 0.6614 0.1068 0.2941
C56 C 0.6472(4) 0.14037(18) 0.41073(17)
H29 H 0.6086 0.1971 0.4065
C57 C 0.6706(3) 0.11364(17) 0.48878(16)
C58 C 0.6382(3) 0.15905(18) 0.56446(17)
H30 H 0.5969 0.2163 0.5688
C59 C 0.6678(4) 0.11875(18) 0.63199(17)
H31 H 0.6461 0.1500 0.6811
C60 C 0.7296(3) 0.03219(18) 0.62916(16)
H32 H 0.7478 0.0064 0.6753
O4 O 0.8593(3) -0.16354(13) 0.56584(11)
loop_
_geom_bond_atom_site_label_1
_geom_bond_atom_site_label_2
_geom_bond_site_symmetry_1
_geom_bond_site_symmetry_2
C1 C2 1_555 1_555
C2 C3 1_555 1_555
C3 C4 1_555 1_555
C4 C5 1_555 1_555
C5 C1 1_555 1_555
C6 C5 1_555 1_555
H1 C6 1_555 1_555
C7 C6 1_555 1_555
H2 C7 1_555 1_555
C8 C7 1_555 1_555
H3 C8 1_555 1_555
C9 C4 1_555 1_555
C10 C9 1_555 1_555
H4 C10 1_555 1_555
C11 C10 1_555 1_555
H5 C11 1_555 1_555
C12 C3 1_555 1_555
C13 C12 1_555 1_555
H6 C13 1_555 1_555
C14 C13 1_555 1_555
H7 C14 1_555 1_555
C15 C2 1_555 1_555
H8 C15 1_555 1_555
C16 C17 1_555 1_555
C17 C18 1_555 1_555
C18 C19 1_555 1_555
C19 C20 1_555 1_555
C20 C16 1_555 1_555
C21 C20 1_555 1_555
H9 C21 1_555 1_555
C22 C21 1_555 1_555
H10 C22 1_555 1_555
C23 C22 1_555 1_555
H11 C23 1_555 1_555
C24 C19 1_555 1_555
C25 C24 1_555 1_555
H12 C25 1_555 1_555
C26 C25 1_555 1_555
H13 C26 1_555 1_555
C27 C18 1_555 1_555
C28 C27 1_555 1_555
H14 C28 1_555 1_555
C29 C28 1_555 1_555
H15 C29 1_555 1_555
C30 C17 1_555 1_555
H16 C30 1_555 1_555
C31 C32 1_555 1_555
C32 C33 1_555 1_555
C33 C34 1_555 1_555
C34 C35 1_555 1_555
C35 C31 1_555 1_555
C36 C35 1_555 1_555
H17 C36 1_555 1_555
C37 C36 1_555 1_555
H18 C37 1_555 1_555
C38 C37 1_555 1_555
H19 C38 1_555 1_555
C39 C34 1_555 1_555
C40 C39 1_555 1_555
H20 C40 1_555 1_555
C41 C40 1_555 1_555
H21 C41 1_555 1_555
C42 C33 1_555 1_555
C43 C42 1_555 1_555
H22 C43 1_555 1_555
C44 C43 1_555 1_555
H23 C44 1_555 1_555
C45 C32 1_555 1_555
H24 C45 1_555 1_555
C46 C47 1_555 1_555
C47 C48 1_555 1_555
C48 C49 1_555 1_555
C49 C50 1_555 1_555
C50 C46 1_555 1_555
C51 C50 1_555 1_555
H25 C51 1_555 1_555
C52 C51 1_555 1_555
H26 C52 1_555 1_555
C53 C52 1_555 1_555
H27 C53 1_555 1_555
C54 C49 1_555 1_555
C55 C54 1_555 1_555
H28 C55 1_555 1_555
C56 C55 1_555 1_555
H29 C56 1_555 1_555
C57 C48 1_555 1_555
C58 C57 1_555 1_555
H30 C58 1_555 1_555
C59 C58 1_555 1_555
H31 C59 1_555 1_555
C60 C47 1_555 1_555
H32 C60 1_555 1_555
O1 C1 1_555 1_555
O2 C16 1_555 1_555
O3 C31 1_555 1_555
O4 C46 1_555 1_555
C8 C9 1_555 1_555
C11 C12 1_555 1_555
C14 C15 1_555 1_555
C23 C24 1_555 1_555
C26 C27 1_555 1_555
C29 C30 1_555 1_555
C38 C39 1_555 1_555
C41 C42 1_555 1_555
C44 C45 1_555 1_555
C53 C54 1_555 1_555
C56 C57 1_555 1_555
C59 C60 1_555 1_555

#END
