
#######################################################################
#
#                 Cambridge Crystallographic Data Centre
#                                CCDC 
#
#######################################################################
#
# If this CIF has been generated from an entry in the Cambridge 
# Structural Database, then it will include bibliographic, chemical, 
# crystal, experimental, refinement or atomic coordinate data resulting 
# from the CCDC's data processing and validation procedures.
#
#######################################################################

data_HUCYAG
_chemical_name_common            
4-((Z)-(sec-Butylamino)(phenyl)methylene)-3-methyl-1-phenyl-1H-pyrazol-5(4H)-one
_chemical_formula_moiety         'C21 H23 N3 O1'
_chemical_name_systematic        
4-((sec-Butylamino)(phenyl)methylene)-5-methyl-2-phenyl-2,4-dihydro-3H-pyrazol-3-one
_symmetry_cell_setting           triclinic
_symmetry_space_group_name_H-M   'P -1'
_symmetry_Int_Tables_number      2
_space_group_name_Hall           '-P 1'
loop_
_symmetry_equiv_pos_site_id
_symmetry_equiv_pos_as_xyz
1 x,y,z
2 -x,-y,-z
_cell_length_a                   9.3631(19)
_cell_length_b                   10.077(2)
_cell_length_c                   10.687(2)
_cell_angle_alpha                107.07(3)
_cell_angle_beta                 100.30(3)
_cell_angle_gamma                100.14(3)
_cell_volume                     919.962
_exptl_crystal_colour            yellow
_exptl_crystal_description       block
_cell_formula_units_Z            2
_exptl_crystal_recrystallization_method THF
loop_
_atom_site_label
_atom_site_type_symbol
_atom_site_fract_x
_atom_site_fract_y
_atom_site_fract_z
O1 O 0.22643(10) 0.11615(12) 0.45573(9)
N1 N 0.35369(12) 0.31219(12) 0.64961(11)
N2 N 0.49444(13) 0.40916(13) 0.69807(12)
C1 C 0.25255(16) 0.31996(14) 0.73383(13)
C2 C 0.10503(16) 0.24104(16) 0.68465(15)
H1 H 0.0705 0.1794 0.5934
C3 C 0.00826(17) 0.25261(16) 0.76926(16)
H2 H -0.0926 0.1982 0.7355
C4 C 0.05684(19) 0.34266(16) 0.90262(16)
H3 H -0.0103 0.3510 0.9599
C5 C 0.20343(19) 0.41966(16) 0.95079(15)
H4 H 0.2377 0.4806 1.0423
C6 C 0.30202(17) 0.40978(15) 0.86797(14)
H5 H 0.4029 0.4640 0.9025
C7 C 0.33879(15) 0.21606(14) 0.52318(13)
C8 C 0.47946(14) 0.25477(14) 0.49077(13)
C9 C 0.56792(16) 0.37451(14) 0.60449(14)
C10 C 0.72210(17) 0.46179(17) 0.62636(16)
H6 H 0.7509 0.5366 0.7153
H7 H 0.7244 0.5061 0.5562
H8 H 0.7924 0.4000 0.6220
C11 C 0.50824(15) 0.17900(16) 0.36892(14)
C12 C 0.65777(15) 0.20895(15) 0.33908(13)
C13 C 0.70609(16) 0.32385(15) 0.29807(14)
H9 H 0.6424 0.3850 0.2857
C14 C 0.84815(17) 0.34901(16) 0.27525(15)
H10 H 0.8823 0.4282 0.2481
C15 C 0.93991(16) 0.25914(16) 0.29191(15)
H11 H 1.0371 0.2769 0.2764
C16 C 0.89140(16) 0.14361(16) 0.33096(15)
H12 H 0.9546 0.0814 0.3411
C17 C 0.75037(16) 0.11839(16) 0.35532(15)
H13 H 0.7170 0.0394 0.3831
N3 N 0.4045(2) 0.0595(2) 0.2841(2)
H14 H 0.3183(15) 0.043(2) 0.310(2)
C18 C 0.4079(7) -0.1799(5) 0.1378(6)
H15 H 0.5018 -0.1793 0.1960
H16 H 0.4014 -0.2365 0.0442
H17 H 0.3232 -0.2222 0.1674
C19 C 0.4035(2) -0.0265(2) 0.14681(18)
H18 H 0.4940 0.0175 0.1222
C20 C 0.2651(2) -0.0251(3) 0.0494(2)
H19 H 0.1751 -0.0664 0.0747
H20 H 0.2624 -0.0866 -0.0427
C21 C 0.2595(8) 0.1239(7) 0.0476(11)
H21 H 0.2495 0.1821 0.1354
H22 H 0.1735 0.1176 -0.0232
H23 H 0.3518 0.1684 0.0295
C22? C 0.297(3) 0.1380(19) 0.049(3)
C23? C 0.3832(6) 0.0589(6) 0.1254(4)
C24? C 0.3103(7) -0.0988(6) 0.0803(6)
C25? C 0.391(2) -0.1790(15) 0.1582(19)
H24? H 0.1966 0.1306 0.0662
H25? H 0.2874 0.0952 -0.0480
H26? H 0.3502 0.2390 0.0797
H27? H 0.4876 0.0723 0.1132
H28? H 0.3058 -0.1420 -0.0168
H29? H 0.2063 -0.1109 0.0905
H30? H 0.4973 -0.1589 0.1573
H31? H 0.3467 -0.2820 0.1160
H32? H 0.3820 -0.1479 0.2517
H33? H 0.300(3) 0.126(6) 0.294(5)
N4? N 0.3875(6) 0.1202(8) 0.2699(5)
loop_
_geom_bond_atom_site_label_1
_geom_bond_atom_site_label_2
_geom_bond_site_symmetry_1
_geom_bond_site_symmetry_2
O1 C7 1_555 1_555
N1 N2 1_555 1_555
N2 C9 1_555 1_555
C1 N1 1_555 1_555
C2 C1 1_555 1_555
H1 C2 1_555 1_555
C3 C2 1_555 1_555
H2 C3 1_555 1_555
C4 C3 1_555 1_555
H3 C4 1_555 1_555
C5 C4 1_555 1_555
H4 C5 1_555 1_555
C6 C1 1_555 1_555
H5 C6 1_555 1_555
C7 N1 1_555 1_555
C8 C7 1_555 1_555
C9 C8 1_555 1_555
C10 C9 1_555 1_555
H6 C10 1_555 1_555
H7 C10 1_555 1_555
H8 C10 1_555 1_555
C11 C8 1_555 1_555
C12 C11 1_555 1_555
C13 C12 1_555 1_555
H9 C13 1_555 1_555
C14 C13 1_555 1_555
H10 C14 1_555 1_555
C15 C14 1_555 1_555
H11 C15 1_555 1_555
C16 C15 1_555 1_555
H12 C16 1_555 1_555
C17 C12 1_555 1_555
H13 C17 1_555 1_555
N3 C11 1_555 1_555
H14 N3 1_555 1_555
C18 H15 1_555 1_555
H16 C18 1_555 1_555
H17 C18 1_555 1_555
C19 N3 1_555 1_555
H18 C19 1_555 1_555
C20 C19 1_555 1_555
H19 C20 1_555 1_555
H20 C20 1_555 1_555
C21 C20 1_555 1_555
H21 C21 1_555 1_555
H22 C21 1_555 1_555
H23 C21 1_555 1_555
C5 C6 1_555 1_555
C16 C17 1_555 1_555
C18 C19 1_555 1_555

#END
