
#######################################################################
#
#                 Cambridge Crystallographic Data Centre
#                                CCDC 
#
#######################################################################
#
# If this CIF has been generated from an entry in the Cambridge 
# Structural Database, then it will include bibliographic, chemical, 
# crystal, experimental, refinement or atomic coordinate data resulting 
# from the CCDC's data processing and validation procedures.
#
#######################################################################

data_HUDBUE
_chemical_formula_moiety         'C20 H22 N2 O2 Se4'
_chemical_name_systematic        
4,4',6,6'-Tetrahydroseleno-2,2'-[(E,E)-cyclohexane-1,2-diylbis(nitrilomethylidyne)]diphenol
_symmetry_cell_setting           monoclinic
_symmetry_space_group_name_H-M   'P 21/c'
_symmetry_Int_Tables_number      14
_space_group_name_Hall           '-P 2ybc'
loop_
_symmetry_equiv_pos_site_id
_symmetry_equiv_pos_as_xyz
1 x,y,z
2 -x,1/2+y,1/2-z
3 -x,-y,-z
4 x,1/2-y,1/2+z
_cell_length_a                   15.493(2)
_cell_length_b                   9.2975(15)
_cell_length_c                   16.353(2)
_cell_angle_alpha                90
_cell_angle_beta                 109.865(5)
_cell_angle_gamma                90
_cell_volume                     2215.42
_exptl_crystal_colour            yellow
_exptl_crystal_description       block
_cell_formula_units_Z            4
loop_
_atom_site_label
_atom_site_type_symbol
_atom_site_fract_x
_atom_site_fract_y
_atom_site_fract_z
Se1 Se 1.08983(4) 0.95743(7) 1.27220(3)
Se2 Se 0.64176(5) 0.45492(8) 1.21754(4)
Se3 Se 0.87275(4) 1.30994(6) 1.00077(4)
Se4 Se 0.38089(4) 0.88004(8) 1.06267(4)
O1 O 0.8152(2) 1.0256(4) 0.9129(2)
H1 H 0.8043 0.9482 0.8874
C1 C 0.8744(3) 0.7422(5) 0.9727(3)
H2 H 0.8937 0.6520 0.9965
N1 N 0.8211(2) 0.7512(4) 0.8942(2)
N2 N 0.6651(3) 0.5930(4) 0.8980(2)
O2 O 0.6862(2) 0.4896(4) 1.0525(2)
H3 H 0.6915 0.4905 1.0043
C2 C 0.9110(3) 1.1261(5) 1.0457(3)
C3 C 0.5888(3) 0.5808(5) 1.1248(3)
C4 C 0.6070(3) 0.6798(6) 0.9083(3)
H4 H 0.5811 0.7480 0.8654
C5 C 0.9725(3) 1.1108(5) 1.1272(3)
H5 H 0.9948 1.1914 1.1616
C6 C 1.0019(3) 0.9748(6) 1.1593(3)
C7 C 0.9058(3) 0.8696(5) 1.0263(3)
C8 C 0.6196(3) 0.5804(5) 1.0534(3)
C9 C 0.7924(3) 0.6202(5) 0.8436(3)
H6 H 0.8229 0.5374 0.8786
C10 C 0.4792(3) 0.7638(6) 1.0590(3)
C11 C 0.5092(3) 0.7665(6) 0.9892(3)
H7 H 0.4822 0.8297 0.9435
C12 C 0.5190(3) 0.6701(6) 1.1264(3)
H8 H 0.4983 0.6672 1.1735
C13 C 0.5788(3) 0.6770(5) 0.9855(3)
C14 C 0.8760(3) 1.0062(5) 0.9929(3)
C15 C 0.6881(3) 0.6039(5) 0.8186(3)
H9 H 0.6579 0.6888 0.7856
C16 C 0.9695(3) 0.8555(5) 1.1101(3)
H10 H 0.9899 0.7648 1.1322
C17 C 0.8179(3) 0.6275(6) 0.7615(3)
H11 H 0.7892 0.7109 0.7275
H12 H 0.8839 0.6378 0.7773
C18 C 0.6558(4) 0.4706(6) 0.7630(3)
H13 H 0.6815 0.3860 0.7974
H14 H 0.5895 0.4642 0.7454
C19 C 0.7866(3) 0.4919(6) 0.7072(4)
H15 H 0.8183 0.4091 0.7398
H16 H 0.8021 0.4990 0.6546
C20 C 0.6834(3) 0.4719(6) 0.6833(3)
H17 H 0.6517 0.5494 0.6451
H18 H 0.6652 0.3819 0.6521
H19 H 0.6487 0.3556 1.1959
H20 H 0.8639 1.2980 0.9337
H21 H 1.0891 0.9500 1.3302
H22 H 0.3812 0.8789 1.1309
loop_
_geom_bond_atom_site_label_1
_geom_bond_atom_site_label_2
_geom_bond_site_symmetry_1
_geom_bond_site_symmetry_2
Se1 C6 1_555 1_555
Se2 C3 1_555 1_555
Se3 C2 1_555 1_555
Se4 C10 1_555 1_555
O1 H1 1_555 1_555
C1 H2 1_555 1_555
N1 C1 1_555 1_555
N2 C4 1_555 1_555
O2 H3 1_555 1_555
C2 C5 1_555 1_555
C3 C8 1_555 1_555
C4 H4 1_555 1_555
C5 H5 1_555 1_555
C6 C5 1_555 1_555
C7 C1 1_555 1_555
C8 O2 1_555 1_555
C9 N1 1_555 1_555
H6 C9 1_555 1_555
C10 C11 1_555 1_555
C11 H7 1_555 1_555
C12 C3 1_555 1_555
H8 C12 1_555 1_555
C13 C4 1_555 1_555
C14 O1 1_555 1_555
C15 N2 1_555 1_555
H9 C15 1_555 1_555
C16 C6 1_555 1_555
H10 C16 1_555 1_555
C17 C9 1_555 1_555
H11 C17 1_555 1_555
H12 C17 1_555 1_555
C18 C15 1_555 1_555
H13 C18 1_555 1_555
H14 C18 1_555 1_555
C19 C17 1_555 1_555
H15 C19 1_555 1_555
H16 C19 1_555 1_555
C20 C18 1_555 1_555
H17 C20 1_555 1_555
H18 C20 1_555 1_555
H19 Se2 1_555 1_555
H20 Se3 1_555 1_555
H21 Se1 1_555 1_555
H22 Se4 1_555 1_555
C2 C14 1_555 1_555
C7 C14 1_555 1_555
C7 C16 1_555 1_555
C8 C13 1_555 1_555
C9 C15 1_555 1_555
C10 C12 1_555 1_555
C11 C13 1_555 1_555
C19 C20 1_555 1_555

#END
