
#######################################################################
#
#                 Cambridge Crystallographic Data Centre
#                                CCDC 
#
#######################################################################
#
# If this CIF has been generated from an entry in the Cambridge 
# Structural Database, then it will include bibliographic, chemical, 
# crystal, experimental, refinement or atomic coordinate data resulting 
# from the CCDC's data processing and validation procedures.
#
#######################################################################

data_HUDDIU
_chemical_formula_moiety         'C13 H9 Br1 O1'
_chemical_name_systematic        
5-Bromo-2,3-dihydro-1H-cyclopenta(a)naphthalen-1-one
_symmetry_cell_setting           triclinic
_symmetry_space_group_name_H-M   'P -1'
_symmetry_Int_Tables_number      2
_space_group_name_Hall           '-P 1'
loop_
_symmetry_equiv_pos_site_id
_symmetry_equiv_pos_as_xyz
1 x,y,z
2 -x,-y,-z
_cell_length_a                   7.369(2)
_cell_length_b                   9.986(3)
_cell_length_c                   14.177(5)
_cell_angle_alpha                87.763(6)
_cell_angle_beta                 78.991(6)
_cell_angle_gamma                87.154(7)
_cell_volume                     1022.31
_exptl_crystal_colour            yellow
_exptl_crystal_description       block
_cell_formula_units_Z            4
_exptl_crystal_recrystallization_method dichloromethane
loop_
_atom_site_label
_atom_site_type_symbol
_atom_site_fract_x
_atom_site_fract_y
_atom_site_fract_z
Br1 Br 0.65084(6) 0.55540(4) 0.27810(3)
C1 C 0.8141(5) 0.4593(4) -0.1539(3)
C2 C 0.8305(6) 0.3098(4) -0.1488(3)
H1 H 0.9522 0.2786 -0.1815
H2 H 0.7384 0.2722 -0.1794
C3 C 0.8005(6) 0.2664(4) -0.0430(3)
H3 H 0.6953 0.2096 -0.0262
H4 H 0.9093 0.2181 -0.0279
C4 C 0.7646(5) 0.3963(3) 0.0089(3)
C5 C 0.7302(5) 0.4116(4) 0.1088(3)
H5 H 0.7291 0.3373 0.1505
C6 C 0.6988(5) 0.5365(4) 0.1428(3)
C7 C 0.7025(5) 0.6556(3) 0.0827(2)
C8 C 0.6704(5) 0.7859(3) 0.1171(3)
H6 H 0.6451 0.7985 0.1830
C9 C 0.6756(5) 0.8937(4) 0.0558(3)
H7 H 0.6544 0.9794 0.0801
C10 C 0.7121(5) 0.8774(4) -0.0427(3)
H8 H 0.7146 0.9523 -0.0840
C11 C 0.7444(5) 0.7531(3) -0.0796(3)
H9 H 0.7701 0.7435 -0.1459
C12 C 0.7392(5) 0.6376(3) -0.0175(2)
C13 C 0.7711(5) 0.5055(4) -0.0526(3)
O1 O 0.8324(5) 0.5286(3) -0.2259(2)
Br2 Br 0.91872(7) 0.04342(5) 0.24015(3)
C14 C 0.6249(5) -0.0807(4) 0.6648(3)
C15 C 0.5904(6) -0.2280(4) 0.6573(3)
H10 H 0.6664 -0.2829 0.6938
H11 H 0.4615 -0.2452 0.6825
C16 C 0.6392(5) -0.2604(4) 0.5528(3)
H12 H 0.5316 -0.2878 0.5296
H13 H 0.7347 -0.3316 0.5420
C17 C 0.7091(4) -0.1300(3) 0.5032(3)
C18 C 0.7752(5) -0.1078(4) 0.4049(3)
H14 H 0.7815 -0.1767 0.3620
C19 C 0.8295(5) 0.0155(4) 0.3739(3)
C20 C 0.8236(4) 0.1243(3) 0.4364(3)
C21 C 0.8801(5) 0.2544(4) 0.4031(3)
H15 H 0.9247 0.2718 0.3381
C22 C 0.8680(5) 0.3541(4) 0.4681(3)
H16 H 0.9033 0.4396 0.4459
C23 C 0.8054(5) 0.3321(4) 0.5651(3)
H17 H 0.8014 0.4011 0.6077
C24 C 0.7489(5) 0.2069(4) 0.5980(3)
H18 H 0.7043 0.1923 0.6633
C25 C 0.7569(5) 0.1006(3) 0.5352(3)
C26 C 0.7001(5) -0.0297(3) 0.5667(3)
O2 O 0.5922(4) -0.0199(3) 0.7378(2)
loop_
_geom_bond_atom_site_label_1
_geom_bond_atom_site_label_2
_geom_bond_site_symmetry_1
_geom_bond_site_symmetry_2
Br1 C6 1_555 1_555
Br2 C19 1_555 1_555
C1 C2 1_555 1_555
C2 H1 1_555 1_555
H2 C2 1_555 1_555
C3 C2 1_555 1_555
H3 C3 1_555 1_555
H4 C3 1_555 1_555
C4 C3 1_555 1_555
C5 C4 1_555 1_555
H5 C5 1_555 1_555
C6 C5 1_555 1_555
C7 C6 1_555 1_555
C8 C7 1_555 1_555
H6 C8 1_555 1_555
C9 C8 1_555 1_555
H7 C9 1_555 1_555
C10 C9 1_555 1_555
H8 C10 1_555 1_555
C11 C10 1_555 1_555
H9 C11 1_555 1_555
C12 C7 1_555 1_555
C13 C1 1_555 1_555
C14 C15 1_555 1_555
C15 H10 1_555 1_555
H11 C15 1_555 1_555
C16 C15 1_555 1_555
H12 C16 1_555 1_555
H13 C16 1_555 1_555
C17 C16 1_555 1_555
C18 C17 1_555 1_555
H14 C18 1_555 1_555
C19 C18 1_555 1_555
C20 C19 1_555 1_555
C21 C20 1_555 1_555
H15 C21 1_555 1_555
C22 C21 1_555 1_555
H16 C22 1_555 1_555
C23 C22 1_555 1_555
H17 C23 1_555 1_555
C24 C23 1_555 1_555
H18 C24 1_555 1_555
C25 C20 1_555 1_555
C26 C14 1_555 1_555
O1 C1 1_555 1_555
O2 C14 1_555 1_555
C4 C13 1_555 1_555
C11 C12 1_555 1_555
C12 C13 1_555 1_555
C17 C26 1_555 1_555
C24 C25 1_555 1_555
C25 C26 1_555 1_555

#END
