
#######################################################################
#
#                 Cambridge Crystallographic Data Centre
#                                CCDC 
#
#######################################################################
#
# If this CIF has been generated from an entry in the Cambridge 
# Structural Database, then it will include bibliographic, chemical, 
# crystal, experimental, refinement or atomic coordinate data resulting 
# from the CCDC's data processing and validation procedures.
#
#######################################################################

data_HUDHIY
_chemical_formula_moiety         'C23 H22 N2 O1'
_chemical_name_systematic        
4-((2-Hydroxy-1-naphthyl)(1-piperidinyl)methyl)benzonitrile
_symmetry_cell_setting           monoclinic
_symmetry_space_group_name_H-M   'P 21/c'
_symmetry_Int_Tables_number      14
_space_group_name_Hall           '-P 2ybc'
loop_
_symmetry_equiv_pos_site_id
_symmetry_equiv_pos_as_xyz
1 x,y,z
2 -x,1/2+y,1/2-z
3 -x,-y,-z
4 x,1/2-y,1/2+z
_cell_length_a                   6.9989(6)
_cell_length_b                   15.5880(10)
_cell_length_c                   17.2110(10)
_cell_angle_alpha                90
_cell_angle_beta                 101.207(2)
_cell_angle_gamma                90
_cell_volume                     1841.9
_exptl_crystal_colour            colorless
_exptl_crystal_description       prism
_cell_formula_units_Z            4
_exptl_crystal_recrystallization_method 'ethyl acetate'
loop_
_atom_site_label
_atom_site_type_symbol
_atom_site_fract_x
_atom_site_fract_y
_atom_site_fract_z
C1 C 0.4754(2) 0.29551(10) 0.68027(8)
C2 C 0.3079(2) 0.33944(11) 0.68632(9)
C3 C 0.1365(2) 0.32981(13) 0.62827(11)
H1 H 0.0261 0.3612 0.6326
C4 C 0.1307(2) 0.27582(13) 0.56662(10)
H2 H 0.0163 0.2705 0.5290
C5 C 0.2951(2) 0.22744(11) 0.55839(9)
C6 C 0.2914(3) 0.16868(12) 0.49529(10)
H3 H 0.1773 0.1627 0.4577
C7 C 0.4480(3) 0.12125(12) 0.48807(10)
H4 H 0.4413 0.0827 0.4464
C8 C 0.6191(3) 0.13057(12) 0.54346(10)
H5 H 0.7275 0.0980 0.5386
C9 C 0.6308(2) 0.18670(10) 0.60497(9)
H6 H 0.7479 0.1918 0.6410
C10 C 0.4703(2) 0.23747(10) 0.61557(8)
C11 C 0.6626(2) 0.30548(9) 0.74220(8)
H7 H 0.7723 0.2984 0.7150
C12 C 0.6784(2) 0.23582(9) 0.80461(8)
C13 C 0.8360(2) 0.18047(11) 0.81721(9)
H8 H 0.9315 0.1863 0.7868
C14 C 0.8543(3) 0.11701(11) 0.87378(10)
H9 H 0.9603 0.0799 0.8809
C15 C 0.7144(2) 0.10873(10) 0.92003(9)
C16 C 0.5568(2) 0.16398(10) 0.90883(9)
H10 H 0.4634 0.1593 0.9404
C17 C 0.5384(2) 0.22595(10) 0.85088(9)
H11 H 0.4301 0.2618 0.8426
C18 C 0.7349(2) 0.04403(12) 0.98061(10)
C19 C 0.8407(2) 0.39901(10) 0.84592(9)
H12 H 0.9609 0.3843 0.8290
H13 H 0.8212 0.3579 0.8860
C20 C 0.8583(3) 0.48792(11) 0.88137(10)
H14 H 0.9686 0.4897 0.9253
H15 H 0.7419 0.5010 0.9018
C21 C 0.8851(3) 0.55474(11) 0.82047(10)
H16 H 0.8842 0.6117 0.8431
H17 H 1.0093 0.5463 0.8046
C22 C 0.7218(3) 0.54656(11) 0.74953(11)
H18 H 0.7440 0.5860 0.7086
H19 H 0.5997 0.5621 0.7645
C23 C 0.70745(10) 0.45642(4) 0.71727(4)
H20 H 0.5997 0.4530 0.6724
H21 H 0.8260 0.4425 0.6987
O1 O 0.29677(10) 0.39454(4) 0.74661(4)
H22 H 0.4335 0.4016 0.7749
N1 N 0.75228(10) -0.00682(4) 1.02933(4)
N2 N 0.67754(10) 0.39314(4) 0.77784(4)
loop_
_geom_bond_atom_site_label_1
_geom_bond_atom_site_label_2
_geom_bond_site_symmetry_1
_geom_bond_site_symmetry_2
C1 C2 1_555 1_555
C2 C3 1_555 1_555
C3 H1 1_555 1_555
C4 C3 1_555 1_555
H2 C4 1_555 1_555
C5 C4 1_555 1_555
C6 C5 1_555 1_555
H3 C6 1_555 1_555
C7 C6 1_555 1_555
H4 C7 1_555 1_555
C8 C7 1_555 1_555
H5 C8 1_555 1_555
C9 C8 1_555 1_555
H6 C9 1_555 1_555
C10 C1 1_555 1_555
C11 C1 1_555 1_555
H7 C11 1_555 1_555
C12 C11 1_555 1_555
C13 C12 1_555 1_555
H8 C13 1_555 1_555
C14 C13 1_555 1_555
H9 C14 1_555 1_555
C15 C14 1_555 1_555
C16 C15 1_555 1_555
H10 C16 1_555 1_555
C17 C12 1_555 1_555
H11 C17 1_555 1_555
C18 C15 1_555 1_555
C19 H12 1_555 1_555
H13 C19 1_555 1_555
C20 C19 1_555 1_555
H14 C20 1_555 1_555
H15 C20 1_555 1_555
C21 C20 1_555 1_555
H16 C21 1_555 1_555
H17 C21 1_555 1_555
C22 C21 1_555 1_555
H18 C22 1_555 1_555
H19 C22 1_555 1_555
C23 C22 1_555 1_555
H20 C23 1_555 1_555
H21 C23 1_555 1_555
O1 C2 1_555 1_555
H22 O1 1_555 1_555
N1 C18 1_555 1_555
N2 C11 1_555 1_555
C5 C10 1_555 1_555
C9 C10 1_555 1_555
C16 C17 1_555 1_555
C19 N2 1_555 1_555
C23 N2 1_555 1_555

#END
