
#######################################################################
#
#                 Cambridge Crystallographic Data Centre
#                                CCDC 
#
#######################################################################
#
# If this CIF has been generated from an entry in the Cambridge 
# Structural Database, then it will include bibliographic, chemical, 
# crystal, experimental, refinement or atomic coordinate data resulting 
# from the CCDC's data processing and validation procedures.
#
#######################################################################

data_HUDLAU
_chemical_formula_moiety         'C16 H13 N3 O3 S2'
_chemical_name_systematic        
N-(2,3-Dihydro-1,3-thiazol-2-ylidene)-4-((2-hydroxybenzylidene)amino)benzenesulfonamide
_symmetry_cell_setting           monoclinic
_symmetry_space_group_name_H-M   'P 21/c'
_symmetry_Int_Tables_number      14
_space_group_name_Hall           '-P 2ybc'
loop_
_symmetry_equiv_pos_site_id
_symmetry_equiv_pos_as_xyz
1 x,y,z
2 -x,1/2+y,1/2-z
3 -x,-y,-z
4 x,1/2-y,1/2+z
_cell_length_a                   16.1693(18)
_cell_length_b                   9.1211(11)
_cell_length_c                   11.0292(13)
_cell_angle_alpha                90
_cell_angle_beta                 101.8960(10)
_cell_angle_gamma                90
_cell_volume                     1591.67
_exptl_crystal_colour            yellow
_exptl_crystal_description       block
_cell_formula_units_Z            4
loop_
_atom_site_label
_atom_site_type_symbol
_atom_site_fract_x
_atom_site_fract_y
_atom_site_fract_z
N1 N 0.54316(16) 0.2823(3) 0.3783(2)
N2 N 0.95632(15) 0.6826(3) 0.4499(2)
H1 H 0.9910(19) 0.640(3) 0.513(3)
N3 N 0.93153(14) 0.4585(2) 0.3503(2)
O1 O 0.86589(13) 0.4333(2) 0.12312(17)
O2 O 0.91746(13) 0.2184(2) 0.2533(2)
O3 O 0.45423(16) 0.1377(3) 0.5144(2)
H2 H 0.498(3) 0.166(5) 0.470(4)
S1 S 0.87791(4) 0.35993(8) 0.24101(7)
S2 S 0.86729(5) 0.71804(9) 0.23688(7)
C1 C 0.77728(17) 0.3381(3) 0.2773(3)
C2 C 0.70885(18) 0.4196(3) 0.2163(3)
H3 H 0.7157 0.4862 0.1553
C3 C 0.63071(18) 0.4019(4) 0.2458(3)
H4 H 0.5849 0.4559 0.2036
C4 C 0.61981(19) 0.3047(4) 0.3375(3)
C5 C 0.68850(19) 0.2214(3) 0.3959(3)
H5 H 0.6814 0.1526 0.4551
C6 C 0.76694(19) 0.2390(3) 0.3675(3)
H6 H 0.8127 0.1845 0.4090
C7 C 0.4851(2) 0.3782(4) 0.3608(3)
H7 H 0.4919 0.4613 0.3151
C8 C 0.40865(19) 0.3643(4) 0.4087(3)
C9 C 0.39700(19) 0.2481(4) 0.4865(3)
C10 C 0.3252(2) 0.2432(4) 0.5367(3)
H8 H 0.3174 0.1666 0.5889
C11 C 0.2658(2) 0.3519(5) 0.5089(3)
H9 H 0.2180 0.3485 0.5435
C12 C 0.2749(2) 0.4648(5) 0.4319(4)
H10 H 0.2333 0.5364 0.4125
C13 C 0.3464(2) 0.4713(4) 0.3833(3)
H11 H 0.3534 0.5493 0.3320
C14 C 0.92217(16) 0.6028(3) 0.3501(2)
C15 C 0.9408(2) 0.8303(3) 0.4400(3)
H12 H 0.9614 0.8969 0.5029
C16 C 0.8939(2) 0.8685(4) 0.3323(3)
H13 H 0.8772 0.9641 0.3104
loop_
_geom_bond_atom_site_label_1
_geom_bond_atom_site_label_2
_geom_bond_site_symmetry_1
_geom_bond_site_symmetry_2
N1 C4 1_555 1_555
N2 H1 1_555 1_555
N3 S1 1_555 1_555
O1 S1 1_555 1_555
O2 S1 1_555 1_555
O3 H2 1_555 1_555
S1 C1 1_555 1_555
S2 C14 1_555 1_555
C1 C2 1_555 1_555
C2 H3 1_555 1_555
C3 C2 1_555 1_555
H4 C3 1_555 1_555
C4 C3 1_555 1_555
C5 C4 1_555 1_555
H5 C5 1_555 1_555
C6 C1 1_555 1_555
H6 C6 1_555 1_555
C7 N1 1_555 1_555
H7 C7 1_555 1_555
C8 C7 1_555 1_555
C9 O3 1_555 1_555
C10 C9 1_555 1_555
H8 C10 1_555 1_555
C11 C10 1_555 1_555
H9 C11 1_555 1_555
C12 C11 1_555 1_555
H10 C12 1_555 1_555
C13 C8 1_555 1_555
H11 C13 1_555 1_555
C14 N2 1_555 1_555
C15 N2 1_555 1_555
H12 C15 1_555 1_555
C16 S2 1_555 1_555
H13 C16 1_555 1_555
N3 C14 1_555 1_555
C5 C6 1_555 1_555
C8 C9 1_555 1_555
C12 C13 1_555 1_555
C15 C16 1_555 1_555

#END
