
#######################################################################
#
#                 Cambridge Crystallographic Data Centre
#                                CCDC 
#
#######################################################################
#
# If this CIF has been generated from an entry in the Cambridge 
# Structural Database, then it will include bibliographic, chemical, 
# crystal, experimental, refinement or atomic coordinate data resulting 
# from the CCDC's data processing and validation procedures.
#
#######################################################################

data_HUDLUP
_chemical_formula_moiety         'C17 H14 N4 O1 S1'
_chemical_name_systematic        
2-(3-phenyl-5-(pyridin-4-yl)-4,5-dihydro-1H-pyrazol-1-yl)-1,3-thiazol-4(5H)-one
_symmetry_cell_setting           triclinic
_symmetry_space_group_name_H-M   'P -1'
_symmetry_Int_Tables_number      2
_space_group_name_Hall           '-P 1'
loop_
_symmetry_equiv_pos_site_id
_symmetry_equiv_pos_as_xyz
1 x,y,z
2 -x,-y,-z
_cell_length_a                   7.7819(12)
_cell_length_b                   10.0431(17)
_cell_length_c                   10.0631(15)
_cell_angle_alpha                99.637(5)
_cell_angle_beta                 96.381(5)
_cell_angle_gamma                99.610(5)
_cell_volume                     756.63
_cell_formula_units_Z            2
loop_
_atom_site_label
_atom_site_type_symbol
_atom_site_fract_x
_atom_site_fract_y
_atom_site_fract_z
S1 S 0.13373(6) 0.33772(5) -0.21088(5)
N1 N 0.04961(18) 0.27379(14) 0.02385(14)
N2 N 0.15524(17) 0.39925(14) 0.08673(14)
N3 N -0.07503(19) 0.11605(15) -0.16955(14)
C1 C 0.1688(2) 0.40395(18) 0.21611(17)
C2 C -0.0261(2) 0.19300(18) 0.12047(17)
H1 H 0.0005 0.1001 0.1045
O1 O -0.1681(2) -0.00393(14) -0.38694(14)
C3 C 0.0266(2) 0.23329(17) -0.11038(17)
C4 C -0.2224(2) 0.18716(17) 0.11281(16)
C5 C 0.2709(2) 0.52312(19) 0.31347(17)
N4 N -0.5818(2) 0.18322(19) 0.11591(17)
C6 C -0.0827(2) 0.09649(19) -0.30857(18)
C7 C 0.0263(3) 0.21315(19) -0.35913(18)
H2 H -0.0489 0.2544 -0.4171
H3 H 0.1130 0.1790 -0.4111
C8 C -0.3008(2) 0.28941(19) 0.07072(18)
H4 H -0.2348 0.3617 0.0408
C9 C -0.3281(2) 0.08344(19) 0.15718(19)
H5 H -0.2806 0.0129 0.1874
C10 C -0.5045(3) 0.0860(2) 0.1560(2)
H6 H -0.5739 0.0149 0.1853
C11 C 0.0748(2) 0.27686(19) 0.25616(18)
H7 H -0.0051 0.2993 0.3203
H8 H 0.1576 0.2274 0.2962
C12 C -0.4779(3) 0.2824(2) 0.0738(2)
H9 H -0.5289 0.3517 0.0445
C13 C 0.2699(3) 0.5304(2) 0.45231(19)
H10 H 0.2046 0.4588 0.4836
C14 C 0.4644(3) 0.7443(2) 0.3635(2)
H11 H 0.5297 0.8166 0.3330
C15 C 0.3704(3) 0.6321(2) 0.2710(2)
H12 H 0.3736 0.6292 0.1785
C16 C 0.4622(3) 0.7499(2) 0.5003(2)
H13 H 0.5262 0.8256 0.5627
C17 C 0.3654(3) 0.6436(2) 0.5446(2)
H14 H 0.3638 0.6473 0.6375
loop_
_geom_bond_atom_site_label_1
_geom_bond_atom_site_label_2
_geom_bond_site_symmetry_1
_geom_bond_site_symmetry_2
S1 C3 1_555 1_555
N1 N2 1_555 1_555
N2 C1 1_555 1_555
N3 C3 1_555 1_555
C1 C5 1_555 1_555
C2 N1 1_555 1_555
H1 C2 1_555 1_555
O1 C6 1_555 1_555
C3 N1 1_555 1_555
C4 C2 1_555 1_555
C5 C13 1_555 1_555
N4 C10 1_555 1_555
C6 N3 1_555 1_555
C7 S1 1_555 1_555
H2 C7 1_555 1_555
H3 C7 1_555 1_555
C8 C4 1_555 1_555
H4 C8 1_555 1_555
C9 C4 1_555 1_555
H5 C9 1_555 1_555
C10 C9 1_555 1_555
H6 C10 1_555 1_555
C11 C1 1_555 1_555
H7 C11 1_555 1_555
H8 C11 1_555 1_555
C12 N4 1_555 1_555
H9 C12 1_555 1_555
C13 H10 1_555 1_555
C14 H11 1_555 1_555
C15 C5 1_555 1_555
H12 C15 1_555 1_555
C16 C14 1_555 1_555
H13 C16 1_555 1_555
C17 C13 1_555 1_555
H14 C17 1_555 1_555
C2 C11 1_555 1_555
C6 C7 1_555 1_555
C8 C12 1_555 1_555
C14 C15 1_555 1_555
C16 C17 1_555 1_555

#END
