
#######################################################################
#
#                 Cambridge Crystallographic Data Centre
#                                CCDC 
#
#######################################################################
#
# If this CIF has been generated from an entry in the Cambridge 
# Structural Database, then it will include bibliographic, chemical, 
# crystal, experimental, refinement or atomic coordinate data resulting 
# from the CCDC's data processing and validation procedures.
#
#######################################################################

data_HUDNIF
_chemical_formula_moiety         'C7 H8 B1 N1 O4'
_chemical_name_systematic        ethynyl(2,2'-(methylimino)diacetato)borate
_symmetry_cell_setting           monoclinic
_symmetry_space_group_name_H-M   'P 21/n'
_symmetry_Int_Tables_number      14
_space_group_name_Hall           '-P 2yn'
loop_
_symmetry_equiv_pos_site_id
_symmetry_equiv_pos_as_xyz
1 x,y,z
2 1/2-x,1/2+y,1/2-z
3 -x,-y,-z
4 1/2+x,1/2-y,1/2+z
_cell_length_a                   6.2422(5)
_cell_length_b                   11.9040(11)
_cell_length_c                   11.5004(9)
_cell_angle_alpha                90
_cell_angle_beta                 90.726(4)
_cell_angle_gamma                90
_cell_volume                     854.493
_exptl_crystal_colour            colorless
_exptl_crystal_description       prism
_cell_formula_units_Z            4
_exptl_crystal_recrystallization_method dichloromethane/pentane
loop_
_atom_site_label
_atom_site_type_symbol
_atom_site_fract_x
_atom_site_fract_y
_atom_site_fract_z
B1 B -0.0458(8) 0.2478(5) 0.3524(4)
N1 N 0.1879(6) 0.2406(3) 0.4177(3)
O1 O -0.1708(5) 0.3163(3) 0.4318(3)
O2 O 0.0049(5) 0.3123(3) 0.2474(3)
O3 O -0.1338(6) 0.4179(3) 0.5937(3)
O4 O 0.2847(7) 0.3687(3) 0.1446(3)
C1 C -0.2319(8) 0.0484(5) 0.2922(4)
C2 C -0.1508(7) 0.1329(4) 0.3221(4)
C3 C -0.0606(8) 0.3578(4) 0.5202(5)
C4 C 0.2127(8) 0.3262(4) 0.2291(4)
C5 C 0.1699(8) 0.3242(5) 0.5124(5)
C6 C 0.3356(9) 0.2724(6) 0.3259(5)
C7 C 0.2440(10) 0.1285(4) 0.4651(6)
H1 H -0.2950 -0.0189 0.2697
H2 H 0.2233 0.2936 0.5849
H3 H 0.2549 0.3895 0.4912
H4 H 0.4351 0.3278 0.3579
H5 H 0.4074 0.2059 0.2987
H6 H 0.3826 0.1331 0.5034
H7 H 0.1363 0.1050 0.5193
H8 H 0.2501 0.0767 0.4015
loop_
_geom_bond_atom_site_label_1
_geom_bond_atom_site_label_2
_geom_bond_site_symmetry_1
_geom_bond_site_symmetry_2
B1 N1 1_555 1_555
N1 C5 1_555 1_555
O1 B1 1_555 1_555
O2 B1 1_555 1_555
O3 C3 1_555 1_555
O4 C4 1_555 1_555
C1 C2 1_555 1_555
C2 B1 1_555 1_555
C3 O1 1_555 1_555
C4 O2 1_555 1_555
C5 C3 1_555 1_555
C6 N1 1_555 1_555
C7 N1 1_555 1_555
H1 C1 1_555 1_555
H2 C5 1_555 1_555
H3 C5 1_555 1_555
H4 C6 1_555 1_555
H5 C6 1_555 1_555
H6 C7 1_555 1_555
H7 C7 1_555 1_555
H8 C7 1_555 1_555
C4 C6 1_555 1_555

#END
