
#######################################################################
#
#                 Cambridge Crystallographic Data Centre
#                                CCDC 
#
#######################################################################
#
# If this CIF has been generated from an entry in the Cambridge 
# Structural Database, then it will include bibliographic, chemical, 
# crystal, experimental, refinement or atomic coordinate data resulting 
# from the CCDC's data processing and validation procedures.
#
#######################################################################

data_HUDNAX
_chemical_name_common            
'concave-concave anti-[2,2](1,4)subphthalocyaninophane unknown solvate'
_chemical_formula_moiety         'C64 H22 B2 F16 N12 O2'
_chemical_name_systematic        
'concave-concave anti-(\m-[2,2](1,4)di(8,9,10,11,15,16,17,18-octafluorosubphthalocyaninato)cyclohexaphane)-bis(phenolato)-di-boron unknown solvate'
_symmetry_cell_setting           triclinic
_symmetry_space_group_name_H-M   'P -1'
_symmetry_Int_Tables_number      2
_space_group_name_Hall           '-P 1'
loop_
_symmetry_equiv_pos_site_id
_symmetry_equiv_pos_as_xyz
1 x,y,z
2 -x,-y,-z
_cell_length_a                   12.985(3)
_cell_length_b                   13.407(3)
_cell_length_c                   18.072(4)
_cell_angle_alpha                105.973(2)
_cell_angle_beta                 99.477(2)
_cell_angle_gamma                94.994(2)
_cell_volume                     2954.2
_exptl_crystal_colour            violet
_exptl_crystal_description       prism
_cell_formula_units_Z            2
_exptl_crystal_recrystallization_method chloroform/hexane
loop_
_atom_site_label
_atom_site_type_symbol
_atom_site_fract_x
_atom_site_fract_y
_atom_site_fract_z
N1 N 0.6209(2) 0.14778(18) 0.19146(14)
C1 C 0.6137(2) 0.0410(2) 0.16622(16)
C2 C 0.5143(2) 0.0048(2) 0.11044(16)
C3 C 0.4711(2) -0.0961(2) 0.06237(16)
C4 C 0.3728(2) -0.1009(2) 0.01622(17)
H1 H 0.3306 -0.1673 -0.0072
C5 C 0.3337(2) -0.0133(2) 0.00286(18)
H2 H 0.2664 -0.0220 -0.0300
C6 C 0.3897(2) 0.0875(2) 0.03595(17)
C7 C 0.4739(2) 0.0952(2) 0.09704(16)
C8 C 0.5491(2) 0.1857(2) 0.14605(16)
N2 N 0.5619(2) 0.28317(19) 0.14054(14)
N3 N 0.7350(2) 0.30238(18) 0.21358(14)
C9 C 0.6579(3) 0.3381(2) 0.17143(17)
C10 C 0.7102(3) 0.4257(2) 0.15297(17)
C11 C 0.6737(3) 0.4983(2) 0.1179(2)
C12 C 0.7448(3) 0.5687(3) 0.1035(2)
C13 C 0.8519(3) 0.5663(3) 0.1220(2)
C14 C 0.8907(3) 0.4948(3) 0.1571(2)
C15 C 0.8209(3) 0.4251(2) 0.17509(18)
C16 C 0.8353(3) 0.3418(2) 0.21109(17)
N4 N 0.9193(2) 0.2942(2) 0.22649(15)
N5 N 0.8022(2) 0.15512(19) 0.23822(14)
C17 C 0.8998(3) 0.1996(2) 0.23628(18)
C18 C 0.9647(3) 0.1141(3) 0.22442(18)
C19 C 1.0691(3) 0.1094(3) 0.2219(2)
C20 C 1.1053(3) 0.0140(3) 0.2033(2)
C21 C 1.0360(3) -0.0784(3) 0.1881(2)
C22 C 0.9318(3) -0.0754(3) 0.19041(19)
C23 C 0.8940(3) 0.0199(2) 0.20923(17)
C24 C 0.7902(3) 0.0486(2) 0.21310(17)
N6 N 0.6947(2) -0.00987(18) 0.18173(13)
C25 C 0.5339(2) -0.1862(2) 0.05051(18)
H3 H 0.4858 -0.2519 0.0221
H4 H 0.5667 -0.1920 0.1024
C26 C 0.6231(2) -0.1728(2) 0.00256(17)
H5 H 0.6927 -0.1568 0.0385
H6 H 0.6219 -0.2398 -0.0383
F1 F 0.57046(18) 0.49998(15) 0.09634(13)
F2 F 0.7105(2) 0.64166(16) 0.07117(15)
F3 F 0.9185(2) 0.63360(17) 0.10411(15)
F4 F 0.99463(17) 0.49359(16) 0.17310(12)
F5 F 1.13779(16) 0.19702(18) 0.23730(15)
F6 F 1.20680(17) 0.0079(2) 0.20104(15)
F7 F 1.07472(17) -0.16935(17) 0.17200(13)
F8 F 0.86701(15) -0.16476(14) 0.17676(11)
B1 B 0.7126(3) 0.2175(3) 0.2499(2)
O1 O 0.70008(18) 0.26515(15) 0.32802(12)
C27 C 0.6626(2) 0.2200(2) 0.37914(17)
C28 C 0.6496(2) 0.2892(2) 0.44943(17)
H7 H 0.6685 0.3625 0.4596
C29 C 0.6101(2) 0.2521(2) 0.50340(18)
H8 H 0.6024 0.2999 0.5512
C30 C 0.5808(2) 0.1451(2) 0.48977(18)
H9 H 0.5524 0.1195 0.5273
C31 C 0.5942(2) 0.0775(2) 0.42054(17)
H10 H 0.5745 0.0043 0.4102
C32 C 0.6357(2) 0.1137(2) 0.36589(17)
H11 H 0.6459 0.0655 0.3190
N1A N 0.3791(2) -0.14778(18) -0.19146(14)
C1A C 0.3863(2) -0.0410(2) -0.16622(16)
C2A C 0.4857(2) -0.0048(2) -0.11044(16)
C3A C 0.5289(2) 0.0961(2) -0.06237(16)
C4A C 0.6272(2) 0.1009(2) -0.01622(17)
H1A H 0.6694 0.1673 0.0072
C5A C 0.6663(2) 0.0133(2) -0.00286(18)
H2A H 0.7336 0.0220 0.0300
C6A C 0.6103(2) -0.0875(2) -0.03595(17)
C7A C 0.5261(2) -0.0952(2) -0.09704(16)
C8A C 0.4509(2) -0.1857(2) -0.14605(16)
N2A N 0.4381(2) -0.28317(19) -0.14054(14)
N3A N 0.2650(2) -0.30238(18) -0.21358(14)
C9A C 0.3421(3) -0.3381(2) -0.17143(17)
C10A C 0.2898(3) -0.4257(2) -0.15297(17)
C11A C 0.3263(3) -0.4983(2) -0.1179(2)
C12A C 0.2552(3) -0.5687(3) -0.1035(2)
C13A C 0.1481(3) -0.5663(3) -0.1220(2)
C14A C 0.1093(3) -0.4948(3) -0.1571(2)
C15A C 0.1791(3) -0.4251(2) -0.17509(18)
C16A C 0.1647(3) -0.3418(2) -0.21109(17)
N4A N 0.0807(2) -0.2942(2) -0.22649(15)
N5A N 0.1978(2) -0.15512(19) -0.23822(14)
C17A C 0.1002(3) -0.1996(2) -0.23628(18)
C18A C 0.0353(3) -0.1141(3) -0.22442(18)
C19A C -0.0691(3) -0.1094(3) -0.2219(2)
C20A C -0.1053(3) -0.0140(3) -0.2033(2)
C21A C -0.0360(3) 0.0784(3) -0.1881(2)
C22A C 0.0682(3) 0.0754(3) -0.19041(19)
C23A C 0.1060(3) -0.0199(2) -0.20923(17)
C24A C 0.2098(3) -0.0486(2) -0.21310(17)
N6A N 0.3053(2) 0.00987(18) -0.18173(13)
C25A C 0.4661(2) 0.1862(2) -0.05051(18)
H3A H 0.5142 0.2519 -0.0221
H4A H 0.4333 0.1920 -0.1024
C26A C 0.3769(2) 0.1728(2) -0.00256(17)
H5A H 0.3073 0.1568 -0.0385
H6A H 0.3781 0.2398 0.0383
F1A F 0.42954(18) -0.49998(15) -0.09634(13)
F2A F 0.2895(2) -0.64166(16) -0.07117(15)
F3A F 0.0815(2) -0.63360(17) -0.10411(15)
F4A F 0.00537(17) -0.49359(16) -0.17310(12)
F5A F -0.13779(16) -0.19702(18) -0.23730(15)
F6A F -0.20680(17) -0.0079(2) -0.20104(15)
F7A F -0.07472(17) 0.16935(17) -0.17200(13)
F8A F 0.13299(15) 0.16476(14) -0.17676(11)
B1A B 0.2874(3) -0.2175(3) -0.2499(2)
O1A O 0.29992(18) -0.26515(15) -0.32802(12)
C27A C 0.3374(2) -0.2200(2) -0.37914(17)
C28A C 0.3504(2) -0.2892(2) -0.44943(17)
H7A H 0.3315 -0.3625 -0.4596
C29A C 0.3899(2) -0.2521(2) -0.50340(18)
H8A H 0.3976 -0.2999 -0.5512
C30A C 0.4192(2) -0.1451(2) -0.48977(18)
H9A H 0.4476 -0.1195 -0.5273
C31A C 0.4058(2) -0.0775(2) -0.42054(17)
H10A H 0.4255 -0.0043 -0.4102
C32A C 0.3643(2) -0.1137(2) -0.36589(17)
H11A H 0.3541 -0.0655 -0.3190
N7 N 0.79304(17) 0.80434(16) 0.38075(13)
C33 C 0.8885(2) 0.8169(2) 0.35982(15)
C34 C 0.9273(2) 0.9277(2) 0.38801(15)
C35 C 1.0250(2) 0.9822(2) 0.39010(16)
C36 C 1.0350(2) 1.0903(2) 0.42299(16)
H12 H 1.0911 1.1334 0.4144
C37 C 0.9656(2) 1.1372(2) 0.46799(16)
H13 H 0.9755 1.2114 0.4889
C38 C 0.8819(2) 1.07923(19) 0.48353(16)
C39 C 0.8568(2) 0.9763(2) 0.43502(16)
C40 C 0.7767(2) 0.89247(19) 0.43420(16)
N8 N 0.71413(17) 0.89037(17) 0.48551(13)
N9 N 0.68859(17) 0.70402(16) 0.43683(13)
C41 C 0.6782(2) 0.7954(2) 0.48948(16)
C42 C 0.6449(2) 0.7670(2) 0.55413(16)
C43 C 0.6267(2) 0.8264(2) 0.62520(17)
C44 C 0.5977(2) 0.7762(2) 0.67695(17)
C45 C 0.5851(2) 0.6678(2) 0.65840(18)
C46 C 0.6079(2) 0.6085(2) 0.59001(17)
C47 C 0.6408(2) 0.6567(2) 0.53778(17)
C48 C 0.6827(2) 0.6211(2) 0.46677(16)
N10 N 0.73509(17) 0.53950(16) 0.44492(13)
N11 N 0.80868(17) 0.62535(16) 0.36274(13)
C49 C 0.8039(2) 0.54734(19) 0.39761(15)
C50 C 0.9002(2) 0.50074(19) 0.39067(15)
C51 C 0.9422(2) 0.42149(19) 0.41570(16)
C52 C 1.0396(2) 0.3988(2) 0.40350(16)
C53 C 1.0996(2) 0.4587(2) 0.36894(17)
C54 C 1.0624(2) 0.5409(2) 0.34759(16)
C55 C 0.9624(2) 0.56150(19) 0.35683(15)
C56 C 0.9043(2) 0.6448(2) 0.34419(15)
N12 N 0.94159(18) 0.73687(16) 0.33581(13)
C57 C 1.1188(2) 0.9272(2) 0.37489(17)
H14 H 1.1751 0.9772 0.3687
H15 H 1.0984 0.8695 0.3252
C58 C 1.1633(2) 0.8810(2) 0.44365(16)
H16 H 1.1471 0.8036 0.4247
H17 H 1.2409 0.8994 0.4575
F9 F 0.63779(13) 0.93081(12) 0.64447(10)
F10 F 0.57901(15) 0.83240(14) 0.74565(10)
F11 F 0.55174(16) 0.62238(15) 0.70854(11)
F12 F 0.59672(13) 0.50367(12) 0.57421(10)
F13 F 0.88910(12) 0.36549(11) 0.45252(9)
F14 F 1.08056(13) 0.32146(12) 0.42473(10)
F15 F 1.19356(13) 0.43239(13) 0.35647(11)
F16 F 1.12376(12) 0.59918(12) 0.31743(10)
B2 B 0.7279(2) 0.6985(2) 0.36252(19)
O2 O 0.65132(14) 0.66403(14) 0.29094(11)
C59 C 0.5623(2) 0.7135(2) 0.28577(16)
C60 C 0.5635(2) 0.8042(2) 0.26400(17)
H18 H 0.6264 0.8345 0.2536
C61 C 0.4731(3) 0.8513(2) 0.25733(18)
H19 H 0.4744 0.9139 0.2423
C62 C 0.3822(3) 0.8086(3) 0.27213(19)
H20 H 0.3201 0.8407 0.2665
C63 C 0.3808(3) 0.7198(3) 0.2951(2)
H21 H 0.3180 0.6911 0.3066
C64 C 0.4711(2) 0.6708(3) 0.3017(2)
H22 H 0.4696 0.6085 0.3172
N7A N 1.20696(17) 1.19566(16) 0.61925(13)
C33A C 1.1115(2) 1.1831(2) 0.64018(15)
C34A C 1.0727(2) 1.0723(2) 0.61199(15)
C35A C 0.9750(2) 1.0178(2) 0.60990(16)
C36A C 0.9650(2) 0.9097(2) 0.57701(16)
H12A H 0.9089 0.8666 0.5856
C37A C 1.0344(2) 0.8628(2) 0.53201(16)
H13A H 1.0245 0.7886 0.5111
C38A C 1.1181(2) 0.92077(19) 0.51647(16)
C39A C 1.1432(2) 1.0237(2) 0.56498(16)
C40A C 1.2233(2) 1.10753(19) 0.56580(16)
N8A N 1.28587(17) 1.10963(17) 0.51449(13)
N9A N 1.31141(17) 1.29598(16) 0.56317(13)
C41A C 1.3218(2) 1.2046(2) 0.51052(16)
C42A C 1.3551(2) 1.2330(2) 0.44587(16)
C43A C 1.3733(2) 1.1736(2) 0.37480(17)
C44A C 1.4023(2) 1.2238(2) 0.32305(17)
C45A C 1.4149(2) 1.3322(2) 0.34160(18)
C46A C 1.3921(2) 1.3915(2) 0.40999(17)
C47A C 1.3592(2) 1.3433(2) 0.46222(17)
C48A C 1.3173(2) 1.3789(2) 0.53323(16)
N10A N 1.26491(17) 1.46050(16) 0.55508(13)
N11A N 1.19132(17) 1.37465(16) 0.63726(13)
C49A C 1.1961(2) 1.45266(19) 0.60239(15)
C50A C 1.0998(2) 1.49926(19) 0.60933(15)
C51A C 1.0578(2) 1.57851(19) 0.58430(16)
C52A C 0.9604(2) 1.6012(2) 0.59650(16)
C53A C 0.9004(2) 1.5413(2) 0.63106(17)
C54A C 0.9376(2) 1.4591(2) 0.65241(16)
C55A C 1.0376(2) 1.43850(19) 0.64317(15)
C56A C 1.0957(2) 1.3552(2) 0.65581(15)
N12A N 1.05841(18) 1.26313(16) 0.66419(13)
C57A C 0.8812(2) 1.0728(2) 0.62511(17)
H14A H 0.8249 1.0228 0.6313
H15A H 0.9016 1.1305 0.6748
C58A C 0.8367(2) 1.1190(2) 0.55635(16)
H16A H 0.8529 1.1964 0.5753
H17A H 0.7591 1.1006 0.5425
F9A F 1.36221(13) 1.06919(12) 0.35553(10)
F10A F 1.42099(15) 1.16760(14) 0.25435(10)
F11A F 1.44826(16) 1.37762(15) 0.29146(11)
F12A F 1.40328(13) 1.49633(12) 0.42579(10)
F13A F 1.11090(12) 1.63451(11) 0.54748(9)
F14A F 0.91944(13) 1.67854(12) 0.57527(10)
F15A F 0.80644(13) 1.56761(13) 0.64353(11)
F16A F 0.87624(12) 1.40082(12) 0.68257(10)
B2A B 1.2721(2) 1.3015(2) 0.63748(19)
O2A O 1.34868(14) 1.33597(14) 0.70906(11)
C59A C 1.4377(2) 1.2865(2) 0.71423(16)
C60A C 1.4365(2) 1.1958(2) 0.73600(17)
H18A H 1.3736 1.1655 0.7464
C61A C 1.5269(3) 1.1487(2) 0.74267(18)
H19A H 1.5256 1.0861 0.7577
C62A C 1.6178(3) 1.1914(3) 0.72787(19)
H20A H 1.6799 1.1593 0.7335
C63A C 1.6192(3) 1.2802(3) 0.7049(2)
H21A H 1.6820 1.3089 0.6934
C64A C 1.5289(2) 1.3292(3) 0.6983(2)
H22A H 1.5304 1.3915 0.6828
loop_
_geom_bond_atom_site_label_1
_geom_bond_atom_site_label_2
_geom_bond_site_symmetry_1
_geom_bond_site_symmetry_2
N1 C1 1_555 1_555
C1 C2 1_555 1_555
C2 C3 1_555 1_555
C3 C4 1_555 1_555
C4 H1 1_555 1_555
C5 C4 1_555 1_555
H2 C5 1_555 1_555
C6 C5 1_555 1_555
C7 C2 1_555 1_555
C8 N1 1_555 1_555
N2 C8 1_555 1_555
N3 C9 1_555 1_555
C9 N2 1_555 1_555
C10 C9 1_555 1_555
C11 C10 1_555 1_555
C12 C11 1_555 1_555
C13 C12 1_555 1_555
C14 C13 1_555 1_555
C15 C10 1_555 1_555
C16 N3 1_555 1_555
N4 C16 1_555 1_555
N5 C17 1_555 1_555
C17 N4 1_555 1_555
C18 C17 1_555 1_555
C19 C18 1_555 1_555
C20 C19 1_555 1_555
C21 C20 1_555 1_555
C22 C21 1_555 1_555
C23 C18 1_555 1_555
C24 N5 1_555 1_555
N6 C1 1_555 1_555
C25 C3 1_555 1_555
H3 C25 1_555 1_555
H4 C25 1_555 1_555
C26 C25 1_555 1_555
H5 C26 1_555 1_555
H6 C26 1_555 1_555
F1 C11 1_555 1_555
F2 C12 1_555 1_555
F3 C13 1_555 1_555
F4 C14 1_555 1_555
F5 C19 1_555 1_555
F6 C20 1_555 1_555
F7 C21 1_555 1_555
F8 C22 1_555 1_555
B1 N1 1_555 1_555
O1 B1 1_555 1_555
C27 O1 1_555 1_555
C28 C27 1_555 1_555
H7 C28 1_555 1_555
C29 C28 1_555 1_555
H8 C29 1_555 1_555
C30 C29 1_555 1_555
H9 C30 1_555 1_555
C31 C30 1_555 1_555
H10 C31 1_555 1_555
C32 C27 1_555 1_555
H11 C32 1_555 1_555
N7 C33 1_555 1_555
C33 C34 1_555 1_555
C34 C35 1_555 1_555
C35 C36 1_555 1_555
C36 H12 1_555 1_555
C37 C36 1_555 1_555
H13 C37 1_555 1_555
C38 C37 1_555 1_555
C39 C34 1_555 1_555
C40 N7 1_555 1_555
N8 C40 1_555 1_555
N9 C41 1_555 1_555
C41 N8 1_555 1_555
C42 C41 1_555 1_555
C43 C42 1_555 1_555
C44 C43 1_555 1_555
C45 C44 1_555 1_555
C46 C45 1_555 1_555
C47 C42 1_555 1_555
C48 N9 1_555 1_555
N10 C48 1_555 1_555
N11 C49 1_555 1_555
C49 N10 1_555 1_555
C50 C49 1_555 1_555
C51 C50 1_555 1_555
C52 C51 1_555 1_555
C53 C52 1_555 1_555
C54 C53 1_555 1_555
C55 C50 1_555 1_555
C56 N11 1_555 1_555
N12 C33 1_555 1_555
C57 C35 1_555 1_555
H14 C57 1_555 1_555
H15 C57 1_555 1_555
C58 C57 1_555 1_555
H16 C58 1_555 1_555
H17 C58 1_555 1_555
F9 C43 1_555 1_555
F10 C44 1_555 1_555
F11 C45 1_555 1_555
F12 C46 1_555 1_555
F13 C51 1_555 1_555
F14 C52 1_555 1_555
F15 C53 1_555 1_555
F16 C54 1_555 1_555
B2 N7 1_555 1_555
O2 B2 1_555 1_555
C59 O2 1_555 1_555
C60 C59 1_555 1_555
H18 C60 1_555 1_555
C61 C60 1_555 1_555
H19 C61 1_555 1_555
C62 C61 1_555 1_555
H20 C62 1_555 1_555
C63 C62 1_555 1_555
H21 C63 1_555 1_555
C64 C59 1_555 1_555
H22 C64 1_555 1_555
N1A C1A 1_555 1_555
C1A C2A 1_555 1_555
C2A C3A 1_555 1_555
C3A C4A 1_555 1_555
C4A H1A 1_555 1_555
C5A C4A 1_555 1_555
H2A C5A 1_555 1_555
C6A C26 1_555 1_555
C7A C2A 1_555 1_555
C8A N1A 1_555 1_555
N2A C8A 1_555 1_555
N3A C9A 1_555 1_555
C9A N2A 1_555 1_555
C10A C9A 1_555 1_555
C11A C10A 1_555 1_555
C12A C11A 1_555 1_555
C13A C12A 1_555 1_555
C14A C13A 1_555 1_555
C15A C10A 1_555 1_555
C16A N3A 1_555 1_555
N4A C16A 1_555 1_555
N5A C17A 1_555 1_555
C17A N4A 1_555 1_555
C18A C17A 1_555 1_555
C19A C18A 1_555 1_555
C20A C19A 1_555 1_555
C21A C20A 1_555 1_555
C22A C21A 1_555 1_555
C23A C18A 1_555 1_555
C24A N5A 1_555 1_555
N6A C1A 1_555 1_555
C25A C3A 1_555 1_555
H3A C25A 1_555 1_555
H4A C25A 1_555 1_555
C26A C6 1_555 1_555
H5A C26A 1_555 1_555
H6A C26A 1_555 1_555
F1A C11A 1_555 1_555
F2A C12A 1_555 1_555
F3A C13A 1_555 1_555
F4A C14A 1_555 1_555
F5A C19A 1_555 1_555
F6A C20A 1_555 1_555
F7A C21A 1_555 1_555
F8A C22A 1_555 1_555
B1A N1A 1_555 1_555
O1A B1A 1_555 1_555
C27A O1A 1_555 1_555
C28A C27A 1_555 1_555
H7A C28A 1_555 1_555
C29A C28A 1_555 1_555
H8A C29A 1_555 1_555
C30A C29A 1_555 1_555
H9A C30A 1_555 1_555
C31A C30A 1_555 1_555
H10A C31A 1_555 1_555
C32A C27A 1_555 1_555
H11A C32A 1_555 1_555
N7A C33A 1_555 1_555
C33A C34A 1_555 1_555
C34A C35A 1_555 1_555
C35A C36A 1_555 1_555
C36A H12A 1_555 1_555
C37A C36A 1_555 1_555
H13A C37A 1_555 1_555
C38A C58 1_555 1_555
C39A C34A 1_555 1_555
C40A N7A 1_555 1_555
N8A C40A 1_555 1_555
N9A C41A 1_555 1_555
C41A N8A 1_555 1_555
C42A C41A 1_555 1_555
C43A C42A 1_555 1_555
C44A C43A 1_555 1_555
C45A C44A 1_555 1_555
C46A C45A 1_555 1_555
C47A C42A 1_555 1_555
C48A N9A 1_555 1_555
N10A C48A 1_555 1_555
N11A C49A 1_555 1_555
C49A N10A 1_555 1_555
C50A C49A 1_555 1_555
C51A C50A 1_555 1_555
C52A C51A 1_555 1_555
C53A C52A 1_555 1_555
C54A C53A 1_555 1_555
C55A C50A 1_555 1_555
C56A N11A 1_555 1_555
N12A C33A 1_555 1_555
C57A C35A 1_555 1_555
H14A C57A 1_555 1_555
H15A C57A 1_555 1_555
C58A C38 1_555 1_555
H16A C58A 1_555 1_555
H17A C58A 1_555 1_555
F9A C43A 1_555 1_555
F10A C44A 1_555 1_555
F11A C45A 1_555 1_555
F12A C46A 1_555 1_555
F13A C51A 1_555 1_555
F14A C52A 1_555 1_555
F15A C53A 1_555 1_555
F16A C54A 1_555 1_555
B2A N7A 1_555 1_555
O2A B2A 1_555 1_555
C59A O2A 1_555 1_555
C60A C59A 1_555 1_555
H18A C60A 1_555 1_555
C61A C60A 1_555 1_555
H19A C61A 1_555 1_555
C62A C61A 1_555 1_555
H20A C62A 1_555 1_555
C63A C62A 1_555 1_555
H21A C63A 1_555 1_555
C64A C59A 1_555 1_555
H22A C64A 1_555 1_555
C6 C7 1_555 1_555
C7 C8 1_555 1_555
N3 B1 1_555 1_555
C14 C15 1_555 1_555
C15 C16 1_555 1_555
N5 B1 1_555 1_555
C22 C23 1_555 1_555
C23 C24 1_555 1_555
C24 N6 1_555 1_555
C31 C32 1_555 1_555
C38 C39 1_555 1_555
C39 C40 1_555 1_555
N9 B2 1_555 1_555
C46 C47 1_555 1_555
C47 C48 1_555 1_555
N11 B2 1_555 1_555
C54 C55 1_555 1_555
C55 C56 1_555 1_555
C56 N12 1_555 1_555
C63 C64 1_555 1_555
C5A C6A 1_555 1_555
C6A C7A 1_555 1_555
C7A C8A 1_555 1_555
N3A B1A 1_555 1_555
C14A C15A 1_555 1_555
C15A C16A 1_555 1_555
N5A B1A 1_555 1_555
C22A C23A 1_555 1_555
C23A C24A 1_555 1_555
C24A N6A 1_555 1_555
C25A C26A 1_555 1_555
C31A C32A 1_555 1_555
C37A C38A 1_555 1_555
C38A C39A 1_555 1_555
C39A C40A 1_555 1_555
N9A B2A 1_555 1_555
C46A C47A 1_555 1_555
C47A C48A 1_555 1_555
N11A B2A 1_555 1_555
C54A C55A 1_555 1_555
C55A C56A 1_555 1_555
C56A N12A 1_555 1_555
C57A C58A 1_555 1_555
C63A C64A 1_555 1_555

#END
