
#######################################################################
#
#                 Cambridge Crystallographic Data Centre
#                                CCDC 
#
#######################################################################
#
# If this CIF has been generated from an entry in the Cambridge 
# Structural Database, then it will include bibliographic, chemical, 
# crystal, experimental, refinement or atomic coordinate data resulting 
# from the CCDC's data processing and validation procedures.
#
#######################################################################

data_HUDVEI
_chemical_formula_moiety         'C12 H11 Cl2 N1 O1'
_chemical_name_systematic        
3,5-Dichloro-N-(2-methylbut-3-yn-2-yl)benzamide
_symmetry_cell_setting           monoclinic
_symmetry_space_group_name_H-M   'P 21/c'
_symmetry_Int_Tables_number      14
_space_group_name_Hall           '-P 2ybc'
loop_
_symmetry_equiv_pos_site_id
_symmetry_equiv_pos_as_xyz
1 x,y,z
2 -x,1/2+y,1/2-z
3 -x,-y,-z
4 x,1/2-y,1/2+z
_cell_length_a                   12.227(2)
_cell_length_b                   10.898(2)
_cell_length_c                   10.170(2)
_cell_angle_alpha                90
_cell_angle_beta                 111.08(3)
_cell_angle_gamma                90
_cell_volume                     1264.46
_exptl_crystal_colour            colorless
_exptl_crystal_description       block
_cell_formula_units_Z            4
_exptl_crystal_recrystallization_method chloroform
loop_
_atom_site_label
_atom_site_type_symbol
_atom_site_fract_x
_atom_site_fract_y
_atom_site_fract_z
Cl1 Cl 0.50021(8) 0.45984(9) 0.16860(9)
Cl2 Cl 0.35913(8) 0.74552(7) 0.50663(10)
O1 O 0.20562(18) 0.29208(18) 0.52618(18)
C1 C 0.2939(2) 0.5093(2) 0.4506(3)
H1 H 0.2532 0.5195 0.5115
C2 C 0.2183(2) 0.2973(2) 0.4121(2)
C3 C 0.3539(2) 0.3825(2) 0.2953(3)
H2 H 0.3524 0.3081 0.2499
C4 C 0.2908(2) 0.3977(2) 0.3837(2)
N1 N 0.1679(2) 0.2190(2) 0.3067(2)
H3 H 0.1830 0.2271 0.2308
C5 C 0.4220(2) 0.5918(3) 0.3399(3)
H4 H 0.4660 0.6565 0.3253
C6 C 0.3579(2) 0.6049(2) 0.4260(3)
C7 C 0.4190(2) 0.4799(3) 0.2760(3)
C8 C 0.0882(3) 0.1195(2) 0.3123(3)
C9 C -0.0141(3) 0.1721(3) 0.3361(3)
C10 C 0.0456(3) 0.0569(3) 0.1680(3)
H5 H 0.0071 0.1160 0.0963
H6 H -0.0083 -0.0075 0.1667
H7 H 0.1114 0.0228 0.1503
C11 C -0.0996(4) 0.2091(4) 0.3488(5)
H8 H -0.1710 0.2530 0.3603
C12 C 0.1506(3) 0.0267(3) 0.4266(4)
H9 H 0.1726 0.0653 0.5173
H10 H 0.2194 -0.0029 0.4124
H11 H 0.0990 -0.0409 0.4222
loop_
_geom_bond_atom_site_label_1
_geom_bond_atom_site_label_2
_geom_bond_site_symmetry_1
_geom_bond_site_symmetry_2
Cl1 C7 1_555 1_555
Cl2 C6 1_555 1_555
O1 C2 1_555 1_555
C1 H1 1_555 1_555
C2 C4 1_555 1_555
C3 H2 1_555 1_555
C4 C1 1_555 1_555
N1 C2 1_555 1_555
H3 N1 1_555 1_555
C5 H4 1_555 1_555
C6 C1 1_555 1_555
C7 C3 1_555 1_555
C8 N1 1_555 1_555
C9 C8 1_555 1_555
C10 C8 1_555 1_555
H5 C10 1_555 1_555
H6 C10 1_555 1_555
H7 C10 1_555 1_555
C11 C9 1_555 1_555
H8 C11 1_555 1_555
C12 C8 1_555 1_555
H9 C12 1_555 1_555
H10 C12 1_555 1_555
H11 C12 1_555 1_555
C3 C4 1_555 1_555
C5 C6 1_555 1_555
C5 C7 1_555 1_555

#END
