
#######################################################################
#
#                 Cambridge Crystallographic Data Centre
#                                CCDC 
#
#######################################################################
#
# If this CIF has been generated from an entry in the Cambridge 
# Structural Database, then it will include bibliographic, chemical, 
# crystal, experimental, refinement or atomic coordinate data resulting 
# from the CCDC's data processing and validation procedures.
#
#######################################################################

data_HUDVAE
_chemical_formula_moiety         'C17 H17 N1 O2'
_chemical_name_systematic        
(Z)-3-((4-Methoxyphenyl)amino)-1-phenylbut-2-en-1-one
_symmetry_cell_setting           monoclinic
_symmetry_space_group_name_H-M   'P 21/n'
_symmetry_Int_Tables_number      14
_space_group_name_Hall           '-P 2yn'
loop_
_symmetry_equiv_pos_site_id
_symmetry_equiv_pos_as_xyz
1 x,y,z
2 1/2-x,1/2+y,1/2-z
3 -x,-y,-z
4 1/2+x,1/2-y,1/2+z
_cell_length_a                   6.435(2)
_cell_length_b                   7.287(3)
_cell_length_c                   30.919(12)
_cell_angle_alpha                90
_cell_angle_beta                 94.954(6)
_cell_angle_gamma                90
_cell_volume                     1444.43
_exptl_crystal_colour            yellow
_exptl_crystal_description       block
_chemical_melting_point          84-85deg.C
_cell_formula_units_Z            4
_exptl_crystal_recrystallization_method 'ethyl acetate/cyclohexane'
loop_
_atom_site_label
_atom_site_type_symbol
_atom_site_fract_x
_atom_site_fract_y
_atom_site_fract_z
O1 O 0.0332(2) 0.1669(2) 0.45901(4)
O2 O -0.17087(19) 0.1729(2) 0.20705(4)
N1 N 0.0723(2) 0.1693(2) 0.27987(4)
H1 H -0.0489 0.1722 0.2658
C1 C 0.0705(2) 0.1739(2) 0.32573(5)
C2 C -0.0759(3) 0.2824(3) 0.34338(5)
H2 H -0.1639 0.3558 0.3253
C3 C -0.0940(3) 0.2835(3) 0.38775(5)
H3 H -0.1947 0.3560 0.3992
C4 C 0.0378(3) 0.1768(2) 0.41473(5)
C5 C 0.1869(3) 0.0706(3) 0.39734(6)
H4 H 0.2780 0.0005 0.4156
C6 C 0.2022(3) 0.0673(3) 0.35319(6)
H5 H 0.3015 -0.0069 0.3418
C7 C -0.1412(4) 0.2438(4) 0.47712(6)
H6 H -0.1385 0.3749 0.4740
H7 H -0.1366 0.2126 0.5074
H8 H -0.2670 0.1963 0.4623
C8 C 0.4516(3) 0.1682(3) 0.27522(6)
H9 H 0.4579 0.2429 0.3009
H10 H 0.5399 0.2199 0.2549
H11 H 0.4981 0.0463 0.2828
C9 C 0.2316(3) 0.1612(2) 0.25509(5)
C10 C 0.1947(3) 0.1546(2) 0.21040(5)
H12 H 0.3087 0.1449 0.1940
C11 C -0.0069(3) 0.1616(2) 0.18819(5)
C12 C -0.0272(3) 0.1643(2) 0.13949(5)
C13 C 0.1114(3) 0.0745(3) 0.11502(5)
H13 H 0.2218 0.0086 0.1288
C14 C 0.0869(3) 0.0820(3) 0.07020(6)
H14 H 0.1797 0.0195 0.0540
C15 C -0.0728(4) 0.1807(3) 0.04946(6)
H15 H -0.0872 0.1869 0.0193
C16 C -0.2117(4) 0.2703(3) 0.07320(6)
H16 H -0.3203 0.3375 0.0591
C17 C -0.1908(3) 0.2612(3) 0.11809(6)
H17 H -0.2871 0.3205 0.1340
loop_
_geom_bond_atom_site_label_1
_geom_bond_atom_site_label_2
_geom_bond_site_symmetry_1
_geom_bond_site_symmetry_2
O1 C4 1_555 1_555
O2 C11 1_555 1_555
N1 H1 1_555 1_555
C1 N1 1_555 1_555
C2 C1 1_555 1_555
H2 C2 1_555 1_555
C3 C2 1_555 1_555
H3 C3 1_555 1_555
C4 C3 1_555 1_555
C5 C4 1_555 1_555
H4 C5 1_555 1_555
C6 C1 1_555 1_555
H5 C6 1_555 1_555
C7 O1 1_555 1_555
H6 C7 1_555 1_555
H7 C7 1_555 1_555
H8 C7 1_555 1_555
C8 H9 1_555 1_555
H10 C8 1_555 1_555
H11 C8 1_555 1_555
C9 N1 1_555 1_555
C10 C9 1_555 1_555
H12 C10 1_555 1_555
C11 C10 1_555 1_555
C12 C11 1_555 1_555
C13 C12 1_555 1_555
H13 C13 1_555 1_555
C14 C13 1_555 1_555
H14 C14 1_555 1_555
C15 C14 1_555 1_555
H15 C15 1_555 1_555
C16 C15 1_555 1_555
H16 C16 1_555 1_555
C17 C12 1_555 1_555
H17 C17 1_555 1_555
C5 C6 1_555 1_555
C8 C9 1_555 1_555
C16 C17 1_555 1_555

#END
