
#######################################################################
#
#                 Cambridge Crystallographic Data Centre
#                                CCDC 
#
#######################################################################
#
# If this CIF has been generated from an entry in the Cambridge 
# Structural Database, then it will include bibliographic, chemical, 
# crystal, experimental, refinement or atomic coordinate data resulting 
# from the CCDC's data processing and validation procedures.
#
#######################################################################

data_HUDWEK
_chemical_formula_moiety         'C15 H11 N2 O2 1+,H2 O1,Cl1 1-'
_chemical_name_systematic        
'2-(4-carboxyquinolin-2-yl)pyridin-1-ium chloride monohydrate'
_symmetry_cell_setting           triclinic
_symmetry_space_group_name_H-M   'P -1'
_symmetry_Int_Tables_number      2
_space_group_name_Hall           '-P 1'
loop_
_symmetry_equiv_pos_site_id
_symmetry_equiv_pos_as_xyz
1 x,y,z
2 -x,-y,-z
_cell_length_a                   8.4489(7)
_cell_length_b                   8.9646(7)
_cell_length_c                   9.2306(5)
_cell_angle_alpha                91.897(5)
_cell_angle_beta                 97.303(5)
_cell_angle_gamma                95.599(6)
_cell_volume                     689.421
_exptl_crystal_colour            yellow
_exptl_crystal_description       needle
_cell_formula_units_Z            2
loop_
_atom_site_label
_atom_site_type_symbol
_atom_site_fract_x
_atom_site_fract_y
_atom_site_fract_z
Cl1 Cl 0.78773(6) 0.58122(6) 0.83184(5)
O1 O 0.18466(18) -0.05212(16) 0.23362(14)
H1 H 0.1334 -0.1245 0.1871
O2 O 0.11346(18) -0.17734(16) 0.42481(15)
N1 N 0.71262(19) 0.45770(18) 0.50848(18)
H2 H 0.705(3) 0.453(3) 0.599(3)
N2 N 0.5166(2) 0.26676(18) 0.62795(17)
C1 C 0.1859(2) -0.0714(2) 0.3748(2)
C2 C 0.2919(2) 0.0497(2) 0.46762(19)
C3 C 0.6137(2) 0.3603(2) 0.4160(2)
C4 C 0.5019(2) 0.2540(2) 0.48386(19)
C5 C 0.3921(2) 0.1476(2) 0.39923(19)
H3 H 0.3869 0.1430 0.2979
C6 C 0.4171(2) 0.1738(2) 0.6979(2)
C7 C 0.3004(2) 0.0625(2) 0.6232(2)
C8 C 0.6227(2) 0.3672(2) 0.2674(2)
H4 H 0.5545 0.3027 0.2009
C9 C 0.8208(2) 0.5603(2) 0.4641(2)
H5 H 0.8859 0.6257 0.5322
C10 C 0.2004(2) -0.0255(2) 0.7080(2)
H6 H 0.1233 -0.0989 0.6621
C11 C 0.4329(3) 0.1939(2) 0.8527(2)
H7 H 0.5105 0.2653 0.9013
C12 C 0.8351(2) 0.5683(2) 0.3178(2)
H8 H 0.9109 0.6376 0.2859
C13 C 0.7345(3) 0.4713(2) 0.2188(2)
H9 H 0.7418 0.4760 0.1193
C14 C 0.2175(3) -0.0023(2) 0.8575(2)
H10 H 0.1513 -0.0603 0.9117
C15 C 0.3336(3) 0.1077(3) 0.9297(2)
H11 H 0.3428 0.1219 1.0308
O3 O 0.9294(2) 0.28715(16) 0.92974(16)
H12 H 1.0108 0.3114 0.9932
H13 H 0.8877 0.3657 0.9021
loop_
_geom_bond_atom_site_label_1
_geom_bond_atom_site_label_2
_geom_bond_site_symmetry_1
_geom_bond_site_symmetry_2
O1 H1 1_555 1_555
O2 C1 1_555 1_555
N1 H2 1_555 1_555
N2 C4 1_555 1_555
C1 O1 1_555 1_555
C2 C1 1_555 1_555
C3 N1 1_555 1_555
C4 C3 1_555 1_555
C5 C2 1_555 1_555
H3 C5 1_555 1_555
C6 N2 1_555 1_555
C7 C2 1_555 1_555
C8 C3 1_555 1_555
H4 C8 1_555 1_555
C9 N1 1_555 1_555
H5 C9 1_555 1_555
C10 C7 1_555 1_555
H6 C10 1_555 1_555
C11 C6 1_555 1_555
H7 C11 1_555 1_555
C12 C9 1_555 1_555
H8 C12 1_555 1_555
C13 C8 1_555 1_555
H9 C13 1_555 1_555
C14 C10 1_555 1_555
H10 C14 1_555 1_555
C15 C11 1_555 1_555
H11 C15 1_555 1_555
O3 H12 1_555 1_555
H13 O3 1_555 1_555
C4 C5 1_555 1_555
C6 C7 1_555 1_555
C12 C13 1_555 1_555
C14 C15 1_555 1_555

#END
