
#######################################################################
#
#                 Cambridge Crystallographic Data Centre
#                                CCDC 
#
#######################################################################
#
# If this CIF has been generated from an entry in the Cambridge 
# Structural Database, then it will include bibliographic, chemical, 
# crystal, experimental, refinement or atomic coordinate data resulting 
# from the CCDC's data processing and validation procedures.
#
#######################################################################

data_HUDXUB
_chemical_formula_moiety         'C8 H10 O3'
_chemical_name_systematic        5-(hydroxymethyl)-2-methoxyphenol
_symmetry_cell_setting           orthorhombic
_symmetry_space_group_name_H-M   'P b c a'
_symmetry_Int_Tables_number      61
_space_group_name_Hall           '-P 2ac 2ab'
loop_
_symmetry_equiv_pos_site_id
_symmetry_equiv_pos_as_xyz
1 x,y,z
2 1/2-x,-y,1/2+z
3 -x,1/2+y,1/2-z
4 1/2+x,1/2-y,-z
5 -x,-y,-z
6 1/2+x,y,1/2-z
7 x,1/2-y,1/2+z
8 1/2-x,1/2+y,z
_cell_length_a                   15.011(4)
_cell_length_b                   6.1354(18)
_cell_length_c                   16.543(5)
_cell_angle_alpha                90
_cell_angle_beta                 90
_cell_angle_gamma                90
_cell_volume                     1523.59
_exptl_crystal_colour            brown
_exptl_crystal_description       block
_cell_formula_units_Z            8
loop_
_atom_site_label
_atom_site_type_symbol
_atom_site_fract_x
_atom_site_fract_y
_atom_site_fract_z
O1 O 0.56019(17) 0.3078(3) 0.91644(10)
H1 H 0.559(2) 0.268(6) 0.959(2)
C1 C 0.61335(11) 0.1812(3) 0.86876(9)
H2 H 0.5895 0.0345 0.8663
H3 H 0.6727 0.1737 0.8919
C2 C 0.61828(10) 0.2752(3) 0.78509(9)
C3 C 0.57178(10) 0.1775(3) 0.72196(8)
H4 H 0.5385 0.0524 0.7316
C4 C 0.57476(10) 0.2651(3) 0.64505(8)
C5 C 0.62554(10) 0.4516(3) 0.62970(9)
C6 C 0.67100(11) 0.5504(3) 0.69227(10)
H5 H 0.7042 0.6757 0.6828
C7 C 0.66682(11) 0.4616(3) 0.76955(9)
H6 H 0.6973 0.5292 0.8116
O2 O 0.52924(10) 0.1784(2) 0.58164(7)
H7 H 0.498(2) 0.060(6) 0.5924(18)
O3 O 0.62581(8) 0.5189(2) 0.55089(7)
C8 C 0.67256(15) 0.7139(3) 0.53259(12)
H8 H 0.6682 0.7433 0.4757
H9 H 0.7341 0.6976 0.5473
H10 H 0.647 0.8328 0.5624
loop_
_geom_bond_atom_site_label_1
_geom_bond_atom_site_label_2
_geom_bond_site_symmetry_1
_geom_bond_site_symmetry_2
O1 H1 1_555 1_555
C1 O1 1_555 1_555
H2 C1 1_555 1_555
H3 C1 1_555 1_555
C2 C1 1_555 1_555
C3 C2 1_555 1_555
H4 C3 1_555 1_555
C4 C3 1_555 1_555
C5 C4 1_555 1_555
C6 C5 1_555 1_555
H5 C6 1_555 1_555
C7 C2 1_555 1_555
H6 C7 1_555 1_555
O2 C4 1_555 1_555
H7 O2 1_555 1_555
O3 C5 1_555 1_555
C8 O3 1_555 1_555
H8 C8 1_555 1_555
H9 C8 1_555 1_555
H10 C8 1_555 1_555
C6 C7 1_555 1_555

#END
