
#######################################################################
#
#                 Cambridge Crystallographic Data Centre
#                                CCDC 
#
#######################################################################
#
# If this CIF has been generated from an entry in the Cambridge 
# Structural Database, then it will include bibliographic, chemical, 
# crystal, experimental, refinement or atomic coordinate data resulting 
# from the CCDC's data processing and validation procedures.
#
#######################################################################

data_HUFBEP
_chemical_formula_moiety         'C12 H14 N2 S1'
_chemical_name_systematic        2-mercapto-1-mesitylimidazole
_symmetry_cell_setting           monoclinic
_symmetry_space_group_name_H-M   'P 21/c'
_symmetry_Int_Tables_number      14
_space_group_name_Hall           '-P 2ybc'
loop_
_symmetry_equiv_pos_site_id
_symmetry_equiv_pos_as_xyz
1 x,y,z
2 x,1/2-y,1/2+z
3 -x,-y,-z
4 -x,1/2+y,1/2-z
_cell_length_a                   7.5661(5)
_cell_length_b                   20.7403(14)
_cell_length_c                   7.3572(5)
_cell_angle_alpha                90.00
_cell_angle_beta                 90.0000(10)
_cell_angle_gamma                90.00
_cell_volume                     1154.52
_cell_formula_units_Z            4
loop_
_atom_site_label
_atom_site_type_symbol
_atom_site_fract_x
_atom_site_fract_y
_atom_site_fract_z
S1 S 0.34666(6) 0.59295(2) 0.55159(6)
N1 N 0.19533(17) 0.58754(6) 0.21501(18)
N2 N 0.36967(18) 0.50709(6) 0.26983(19)
C1 C 0.30422(19) 0.56199(7) 0.3436(2)
C2 C 0.3019(2) 0.49829(9) 0.0969(2)
H1 H 0.3265 0.4637 0.0185
C3 C 0.1946(2) 0.54817(9) 0.0616(2)
H2 H 0.1309 0.5553 -0.0462
C4 C 0.09197(19) 0.64541(7) 0.2369(2)
C5 C -0.07702(19) 0.64008(8) 0.3117(2)
C6 C -0.1748(2) 0.69648(8) 0.3306(2)
H3 H -0.2896 0.6941 0.3790
C7 C -0.1081(2) 0.75618(8) 0.2801(2)
C8 C 0.0605(2) 0.75913(8) 0.2048(2)
H4 H 0.1061 0.7993 0.1691
C9 C 0.1633(2) 0.70415(8) 0.1811(2)
C10 C -0.1482(2) 0.57592(9) 0.3730(3)
H5 H -0.0838 0.5616 0.4796
H6 H -0.1341 0.5446 0.2762
H7 H -0.2725 0.5802 0.4026
C11 C -0.2143(3) 0.81699(9) 0.3114(3)
H8 H -0.1541 0.8533 0.2558
H9 H -0.2263 0.8245 0.4410
H10 H -0.3305 0.8122 0.2575
C12 C 0.3450(2) 0.70796(10) 0.0978(3)
H11 H 0.4313 0.6909 0.1826
H12 H 0.3731 0.7526 0.0707
H13 H 0.3476 0.6829 -0.0134
loop_
_geom_bond_atom_site_label_1
_geom_bond_atom_site_label_2
_geom_bond_site_symmetry_1
_geom_bond_site_symmetry_2
S1 C1 1_555 1_555
N1 C1 1_555 1_555
N2 C1 1_555 1_555
C2 N2 1_555 1_555
H1 C2 1_555 1_555
C3 N1 1_555 1_555
H2 C3 1_555 1_555
C4 N1 1_555 1_555
C5 C4 1_555 1_555
C6 C5 1_555 1_555
H3 C6 1_555 1_555
C7 C6 1_555 1_555
C8 C7 1_555 1_555
H4 C8 1_555 1_555
C9 C4 1_555 1_555
C10 C5 1_555 1_555
H5 C10 1_555 1_555
H6 C10 1_555 1_555
H7 C10 1_555 1_555
C11 C7 1_555 1_555
H8 C11 1_555 1_555
H9 C11 1_555 1_555
H10 C11 1_555 1_555
C12 C9 1_555 1_555
H11 C12 1_555 1_555
H12 C12 1_555 1_555
H13 C12 1_555 1_555
C2 C3 1_555 1_555
C8 C9 1_555 1_555

#END
