
#######################################################################
#
#                 Cambridge Crystallographic Data Centre
#                                CCDC 
#
#######################################################################
#
# If this CIF has been generated from an entry in the Cambridge 
# Structural Database, then it will include bibliographic, chemical, 
# crystal, experimental, refinement or atomic coordinate data resulting 
# from the CCDC's data processing and validation procedures.
#
#######################################################################

data_HUFCIV
_chemical_formula_moiety         'C15 H12 Cl1 N1 O4'
_chemical_name_systematic        
'1-[2-(Carboxymethoxy)phenyl]-N-(4-chlorophenyl)methanimine oxide'
_symmetry_cell_setting           monoclinic
_symmetry_space_group_name_H-M   'P 21/c'
_symmetry_Int_Tables_number      14
_space_group_name_Hall           '-P 2ybc'
loop_
_symmetry_equiv_pos_site_id
_symmetry_equiv_pos_as_xyz
1 x,y,z
2 -x,1/2+y,1/2-z
3 -x,-y,-z
4 x,1/2-y,1/2+z
_cell_length_a                   7.6631(2)
_cell_length_b                   19.3034(5)
_cell_length_c                   9.6305(3)
_cell_angle_alpha                90
_cell_angle_beta                 107.0830(10)
_cell_angle_gamma                90
_cell_volume                     1361.73
_exptl_crystal_colour            colorless
_exptl_crystal_description       block
_cell_formula_units_Z            4
_exptl_crystal_recrystallization_method ethanol
loop_
_atom_site_label
_atom_site_type_symbol
_atom_site_fract_x
_atom_site_fract_y
_atom_site_fract_z
Cl1 Cl 0.29830(5) 0.38201(2) 0.07891(5)
O1 O 0.93820(17) 0.79845(6) 0.20859(13)
O2 O 0.98035(17) 0.87208(6) 0.03948(13)
H1 H 0.9383 0.9017 0.0851
O3 O 1.10293(16) 0.69282(6) 0.10258(12)
O4 O 1.14983(15) 0.47536(6) 0.35203(13)
N1 N 1.02235(18) 0.51788(7) 0.27572(14)
C1 C 0.9942(2) 0.81150(8) 0.10650(17)
C2 C 1.0864(2) 0.75905(8) 0.03432(17)
H2 H 1.0148 0.7543 -0.0691
H3 H 1.2094 0.7762 0.0379
C3 C 1.2385(2) 0.68188(8) 0.23022(17)
C4 C 1.2202(2) 0.62054(8) 0.30478(17)
C5 C 1.3572(2) 0.60303(9) 0.43187(18)
H4 H 1.3471 0.5614 0.4816
C6 C 1.5076(2) 0.64566(9) 0.48609(19)
H5 H 1.5995 0.6337 0.5729
C7 C 1.5222(2) 0.70602(9) 0.41192(19)
H6 H 1.6250 0.7353 0.4491
C8 C 1.3896(2) 0.72460(9) 0.28434(19)
H7 H 1.4021 0.7660 0.2347
C9 C 1.0503(2) 0.58210(9) 0.24893(17)
H8 H 0.9499 0.6065 0.1867
C10 C 0.8406(2) 0.48799(8) 0.21883(17)
C11 C 0.6971(2) 0.51583(9) 0.25987(18)
H9 H 0.7140 0.5563 0.3183
C12 C 0.5272(2) 0.48347(9) 0.21402(18)
H10 H 0.4265 0.5014 0.2412
C13 C 0.5076(2) 0.42485(8) 0.12845(17)
C14 C 0.6508(2) 0.39793(9) 0.08408(18)
H11 H 0.6328 0.3585 0.0225
C15 C 0.8205(2) 0.42961(9) 0.13122(18)
H12 H 0.9212 0.4117 0.1040
loop_
_geom_bond_atom_site_label_1
_geom_bond_atom_site_label_2
_geom_bond_site_symmetry_1
_geom_bond_site_symmetry_2
Cl1 C13 1_555 1_555
O1 C1 1_555 1_555
O2 H1 1_555 1_555
O3 C2 1_555 1_555
O4 N1 1_555 1_555
N1 C9 1_555 1_555
C1 O2 1_555 1_555
C2 C1 1_555 1_555
H2 C2 1_555 1_555
H3 C2 1_555 1_555
C3 O3 1_555 1_555
C4 C3 1_555 1_555
C5 C4 1_555 1_555
H4 C5 1_555 1_555
C6 C5 1_555 1_555
H5 C6 1_555 1_555
C7 C6 1_555 1_555
H6 C7 1_555 1_555
C8 C3 1_555 1_555
H7 C8 1_555 1_555
C9 C4 1_555 1_555
H8 C9 1_555 1_555
C10 N1 1_555 1_555
C11 C10 1_555 1_555
H9 C11 1_555 1_555
C12 C11 1_555 1_555
H10 C12 1_555 1_555
C13 C12 1_555 1_555
C14 C13 1_555 1_555
H11 C14 1_555 1_555
C15 C10 1_555 1_555
H12 C15 1_555 1_555
C7 C8 1_555 1_555
C14 C15 1_555 1_555

#END
