
#######################################################################
#
#                 Cambridge Crystallographic Data Centre
#                                CCDC 
#
#######################################################################
#
# If this CIF has been generated from an entry in the Cambridge 
# Structural Database, then it will include bibliographic, chemical, 
# crystal, experimental, refinement or atomic coordinate data resulting 
# from the CCDC's data processing and validation procedures.
#
#######################################################################

data_HUFGIZ
_chemical_formula_moiety         'C36 H28 O5'
_chemical_name_systematic        
5,7-bis(Benzyloxy)-2-(4-(benzyloxy)phenyl)-4H-chromen-4-one
_symmetry_cell_setting           triclinic
_symmetry_space_group_name_H-M   'P -1'
_symmetry_Int_Tables_number      2
_space_group_name_Hall           '-P 1'
loop_
_symmetry_equiv_pos_site_id
_symmetry_equiv_pos_as_xyz
1 x,y,z
2 -x,-y,-z
_cell_length_a                   7.3176(12)
_cell_length_b                   12.818(2)
_cell_length_c                   14.933(2)
_cell_angle_alpha                82.542(3)
_cell_angle_beta                 83.861(3)
_cell_angle_gamma                85.600(3)
_cell_volume                     1378.05
_exptl_crystal_colour            colorless
_exptl_crystal_description       platelet
_cell_formula_units_Z            2
_exptl_crystal_recrystallization_method dichloromethane/methanol
loop_
_atom_site_label
_atom_site_type_symbol
_atom_site_fract_x
_atom_site_fract_y
_atom_site_fract_z
C1 C 0.4399(4) 0.5313(2) 0.65974(17)
C2 C 0.3089(3) 0.6140(2) 0.65568(17)
H1 H 0.2078 0.6118 0.6233
C3 C 0.3274(4) 0.7009(2) 0.69977(19)
C4 C 0.4748(3) 0.7066(2) 0.74818(18)
H2 H 0.4882 0.7653 0.7770
C5 C 0.6029(3) 0.6210(2) 0.75215(17)
C6 C 0.5971(3) 0.5329(2) 0.70836(17)
C7 C 0.7481(4) 0.4513(2) 0.71387(19)
C8 C 0.8810(4) 0.4680(2) 0.77456(18)
H3 H 0.9751 0.4161 0.7845
C9 C 0.8767(3) 0.5535(2) 0.81716(17)
C10 C 0.2776(4) 0.4369(2) 0.56895(18)
H4 H 0.2759 0.4939 0.5195
H5 H 0.1631 0.4428 0.6078
C11 C 0.2968(4) 0.3326(2) 0.53217(17)
C12 C 0.4499(4) 0.2647(2) 0.53946(18)
H6 H 0.5462 0.2817 0.5697
C13 C 0.4618(5) 0.1707(3) 0.5019(2)
H7 H 0.5659 0.1248 0.5073
C14 C 0.3212(6) 0.1451(3) 0.4571(2)
H8 H 0.3297 0.0821 0.4316
C15 C 0.1680(6) 0.2126(3) 0.4499(2)
H9 H 0.0720 0.1956 0.4194
C16 C 0.1558(4) 0.3050(3) 0.4874(2)
H10 H 0.0505 0.3500 0.4826
C17 C 0.1970(4) 0.8678(2) 0.7378(2)
H11 H 0.3049 0.9057 0.7139
H12 H 0.2055 0.8452 0.8018
C18 C 0.0252(4) 0.9384(2) 0.7251(2)
C19 C 0.0278(4) 1.0262(2) 0.6621(2)
H13 H 0.1349 1.0402 0.6244
C20 C -0.1269(6) 1.0941(3) 0.6540(2)
H14 H -0.1230 1.1539 0.6115
C21 C -0.2839(5) 1.0739(3) 0.7077(2)
H15 H -0.3878 1.1199 0.7021
C22 C -0.2905(4) 0.9869(3) 0.7696(2)
H16 H -0.3990 0.9730 0.8063
C23 C -0.1360(4) 0.9187(2) 0.7783(2)
H17 H -0.1414 0.8588 0.8207
C24 C 1.0066(3) 0.5790(2) 0.87816(17)
C25 C 1.1804(3) 0.5272(2) 0.88121(17)
H18 H 1.2117 0.4714 0.8473
C26 C 1.3063(4) 0.5567(2) 0.93301(17)
H19 H 1.4220 0.5213 0.9335
C27 C 1.2622(4) 0.6387(2) 0.98449(17)
C28 C 1.0861(4) 0.6875(2) 0.98691(18)
H20 H 1.0524 0.7401 1.0240
C29 C 0.9617(4) 0.6573(2) 0.93393(18)
H21 H 0.8440 0.6905 0.9356
C30 C 1.3635(4) 0.7560(2) 1.0795(2)
H22 H 1.2865 0.7359 1.1351
H23 H 1.2981 0.8127 1.0439
C31 C 1.5407(4) 0.7924(2) 1.1012(2)
C32 C 1.6274(5) 0.8700(3) 1.0444(2)
H24 H 1.5782 0.8973 0.9907
C33 C 1.7863(6) 0.9085(3) 1.0654(3)
H25 H 1.8439 0.9613 1.0263
C34 C 1.8587(5) 0.8682(4) 1.1447(4)
H26 H 1.9651 0.8941 1.1598
C35 C 1.7749(5) 0.7903(3) 1.2013(3)
H27 H 1.8257 0.7624 1.2544
C36 C 1.6151(4) 0.7525(2) 1.1804(2)
H28 H 1.5576 0.7000 1.2198
O1 O 0.7420(2) 0.63213(13) 0.80484(12)
O2 O 0.7642(3) 0.37370(17) 0.67264(15)
O3 O 0.4297(2) 0.44352(14) 0.61951(12)
O4 O 0.1888(2) 0.77832(14) 0.69079(13)
O5 O 1.4013(2) 0.66769(14) 1.02937(13)
loop_
_geom_bond_atom_site_label_1
_geom_bond_atom_site_label_2
_geom_bond_site_symmetry_1
_geom_bond_site_symmetry_2
C1 C2 1_555 1_555
C2 H1 1_555 1_555
C3 C2 1_555 1_555
C4 C3 1_555 1_555
H2 C4 1_555 1_555
C5 C4 1_555 1_555
C6 C1 1_555 1_555
C7 C6 1_555 1_555
C8 C7 1_555 1_555
H3 C8 1_555 1_555
C9 C8 1_555 1_555
C10 H4 1_555 1_555
H5 C10 1_555 1_555
C11 C10 1_555 1_555
C12 C11 1_555 1_555
H6 C12 1_555 1_555
C13 C12 1_555 1_555
H7 C13 1_555 1_555
C14 C13 1_555 1_555
H8 C14 1_555 1_555
C15 C14 1_555 1_555
H9 C15 1_555 1_555
C16 C11 1_555 1_555
H10 C16 1_555 1_555
C17 H11 1_555 1_555
H12 C17 1_555 1_555
C18 C17 1_555 1_555
C19 C18 1_555 1_555
H13 C19 1_555 1_555
C20 C19 1_555 1_555
H14 C20 1_555 1_555
C21 C20 1_555 1_555
H15 C21 1_555 1_555
C22 C21 1_555 1_555
H16 C22 1_555 1_555
C23 C18 1_555 1_555
H17 C23 1_555 1_555
C24 C9 1_555 1_555
C25 C24 1_555 1_555
H18 C25 1_555 1_555
C26 C25 1_555 1_555
H19 C26 1_555 1_555
C27 C26 1_555 1_555
C28 C27 1_555 1_555
H20 C28 1_555 1_555
C29 C24 1_555 1_555
H21 C29 1_555 1_555
C30 H22 1_555 1_555
H23 C30 1_555 1_555
C31 C30 1_555 1_555
C32 C31 1_555 1_555
H24 C32 1_555 1_555
C33 C32 1_555 1_555
H25 C33 1_555 1_555
C34 C33 1_555 1_555
H26 C34 1_555 1_555
C35 C34 1_555 1_555
H27 C35 1_555 1_555
C36 C31 1_555 1_555
H28 C36 1_555 1_555
O1 C5 1_555 1_555
O2 C7 1_555 1_555
O3 C1 1_555 1_555
O4 C3 1_555 1_555
O5 C27 1_555 1_555
C5 C6 1_555 1_555
C9 O1 1_555 1_555
C10 O3 1_555 1_555
C15 C16 1_555 1_555
C17 O4 1_555 1_555
C22 C23 1_555 1_555
C28 C29 1_555 1_555
C30 O5 1_555 1_555
C35 C36 1_555 1_555

#END
