
#######################################################################
#
#                 Cambridge Crystallographic Data Centre
#                                CCDC 
#
#######################################################################
#
# If this CIF has been generated from an entry in the Cambridge 
# Structural Database, then it will include bibliographic, chemical, 
# crystal, experimental, refinement or atomic coordinate data resulting 
# from the CCDC's data processing and validation procedures.
#
#######################################################################

data_HUFNIH
_chemical_formula_moiety         'C34 H26 O3 P2'
_chemical_name_systematic        
1-(4-(2-(diphenylphosphoryl)-1-oxido-1-phenyl-1H-phosphindol-3-yl)phenyl)ethanone
_symmetry_cell_setting           triclinic
_symmetry_space_group_name_H-M   'P -1'
_symmetry_Int_Tables_number      2
_space_group_name_Hall           '-P 1'
loop_
_symmetry_equiv_pos_site_id
_symmetry_equiv_pos_as_xyz
1 x,y,z
2 -x,-y,-z
_cell_length_a                   10.554(2)
_cell_length_b                   12.782(3)
_cell_length_c                   12.959(3)
_cell_angle_alpha                79.295(4)
_cell_angle_beta                 67.900(4)
_cell_angle_gamma                76.462(4)
_cell_volume                     1565.45
_exptl_crystal_colour            'pale yellow'
_exptl_crystal_description       plate
_cell_formula_units_Z            2
loop_
_atom_site_label
_atom_site_type_symbol
_atom_site_fract_x
_atom_site_fract_y
_atom_site_fract_z
P1 P 0.84176(6) 0.31832(5) 0.35630(5)
P2 P 0.63479(6) 0.34325(5) 0.22230(5)
O1 O 0.7780(2) 0.41405(14) 0.41789(15)
O2 O 0.62845(18) 0.28100(15) 0.13906(15)
O3 O 0.9960(2) 0.25555(19) -0.36242(18)
C1 C 0.8055(2) 0.32430(18) 0.2292(2)
C2 C 0.9252(2) 0.31440(18) 0.1400(2)
C3 C 1.0531(2) 0.29719(19) 0.1682(2)
C4 C 1.1891(3) 0.2832(2) 0.0949(2)
H1 H 1.2096 0.2824 0.0171
C5 C 1.2951(3) 0.2704(2) 0.1375(3)
H2 H 1.3890 0.2615 0.0878
C6 C 1.2674(3) 0.2703(2) 0.2493(3)
H3 H 1.3419 0.2610 0.2763
C7 C 1.1323(3) 0.2837(2) 0.3234(2)
H4 H 1.1129 0.2831 0.4013
C8 C 1.0261(3) 0.29786(19) 0.2820(2)
C9 C 0.8071(2) 0.19387(19) 0.4408(2)
C10 C 0.8652(3) 0.0954(2) 0.3982(2)
H5 H 0.9235 0.0928 0.3219
C11 C 0.8385(3) 0.0011(2) 0.4664(3)
H6 H 0.8782 -0.0669 0.4377
C12 C 0.7535(4) 0.0062(3) 0.5768(3)
H7 H 0.7353 -0.0589 0.6243
C13 C 0.6955(4) 0.1027(3) 0.6186(3)
H8 H 0.6359 0.1047 0.6946
C14 C 0.7222(3) 0.1980(2) 0.5517(2)
H9 H 0.6827 0.2655 0.5814
C15 C 0.9349(2) 0.3216(2) 0.0221(2)
C16 C 0.8923(3) 0.4190(2) -0.0325(2)
H10 H 0.8595 0.4824 0.0050
C17 C 0.8972(3) 0.4248(2) -0.1421(2)
H11 H 0.8669 0.4922 -0.1787
C18 C 0.9455(2) 0.3338(2) -0.1983(2)
C19 C 0.9922(3) 0.2372(2) -0.1437(2)
H12 H 1.0278 0.1742 -0.1821
C20 C 0.9881(3) 0.2304(2) -0.0362(2)
H13 H 1.0217 0.1634 -0.0010
C21 C 0.9460(3) 0.3356(2) -0.3141(2)
C22 C 0.8830(4) 0.4362(3) -0.3674(2)
H14 H 0.8913 0.4247 -0.4426
H15 H 0.9313 0.4949 -0.3730
H16 H 0.7845 0.4555 -0.3220
C23 C 0.5226(2) 0.30337(19) 0.3615(2)
C24 C 0.5220(3) 0.1938(2) 0.3930(2)
H17 H 0.5865 0.1426 0.3450
C25 C 0.4286(3) 0.1586(2) 0.4935(3)
H18 H 0.4295 0.0833 0.5148
C26 C 0.3340(3) 0.2321(2) 0.5631(2)
H19 H 0.2683 0.2076 0.6317
C27 C 0.3344(3) 0.3411(2) 0.5336(2)
H20 H 0.2698 0.3917 0.5822
C28 C 0.4289(3) 0.3772(2) 0.4330(2)
H21 H 0.4294 0.4525 0.4129
C29 C 0.5798(2) 0.4866(2) 0.1948(2)
C30 C 0.4897(3) 0.5206(2) 0.1353(2)
H22 H 0.4606 0.4692 0.1087
C31 C 0.4424(3) 0.6305(2) 0.1150(2)
H23 H 0.3802 0.6543 0.0747
C32 C 0.4845(3) 0.7046(2) 0.1524(2)
H24 H 0.4526 0.7798 0.1374
C33 C 0.5737(4) 0.6703(2) 0.2122(3)
H25 H 0.6017 0.7219 0.2394
C34 C 0.6220(3) 0.5616(2) 0.2326(3)
H26 H 0.6845 0.5384 0.2727
loop_
_geom_bond_atom_site_label_1
_geom_bond_atom_site_label_2
_geom_bond_site_symmetry_1
_geom_bond_site_symmetry_2
P1 O1 1_555 1_555
P2 O2 1_555 1_555
O3 C21 1_555 1_555
C1 P1 1_555 1_555
C2 C1 1_555 1_555
C3 C2 1_555 1_555
C4 C3 1_555 1_555
H1 C4 1_555 1_555
C5 C4 1_555 1_555
H2 C5 1_555 1_555
C6 C5 1_555 1_555
H3 C6 1_555 1_555
C7 C6 1_555 1_555
H4 C7 1_555 1_555
C8 P1 1_555 1_555
C9 P1 1_555 1_555
C10 C9 1_555 1_555
H5 C10 1_555 1_555
C11 C10 1_555 1_555
H6 C11 1_555 1_555
C12 C11 1_555 1_555
H7 C12 1_555 1_555
C13 C12 1_555 1_555
H8 C13 1_555 1_555
C14 C9 1_555 1_555
H9 C14 1_555 1_555
C15 C2 1_555 1_555
C16 C15 1_555 1_555
H10 C16 1_555 1_555
C17 C16 1_555 1_555
H11 C17 1_555 1_555
C18 C17 1_555 1_555
C19 C18 1_555 1_555
H12 C19 1_555 1_555
C20 C15 1_555 1_555
H13 C20 1_555 1_555
C21 C18 1_555 1_555
C22 C21 1_555 1_555
H14 C22 1_555 1_555
H15 C22 1_555 1_555
H16 C22 1_555 1_555
C23 P2 1_555 1_555
C24 C23 1_555 1_555
H17 C24 1_555 1_555
C25 C24 1_555 1_555
H18 C25 1_555 1_555
C26 C25 1_555 1_555
H19 C26 1_555 1_555
C27 C26 1_555 1_555
H20 C27 1_555 1_555
C28 C23 1_555 1_555
H21 C28 1_555 1_555
C29 P2 1_555 1_555
C30 C29 1_555 1_555
H22 C30 1_555 1_555
C31 C30 1_555 1_555
H23 C31 1_555 1_555
C32 C31 1_555 1_555
H24 C32 1_555 1_555
C33 C32 1_555 1_555
H25 C33 1_555 1_555
C34 C29 1_555 1_555
H26 C34 1_555 1_555
P2 C1 1_555 1_555
C3 C8 1_555 1_555
C7 C8 1_555 1_555
C13 C14 1_555 1_555
C19 C20 1_555 1_555
C27 C28 1_555 1_555
C33 C34 1_555 1_555

#END
