
#######################################################################
#
#                 Cambridge Crystallographic Data Centre
#                                CCDC 
#
#######################################################################
#
# If this CIF has been generated from an entry in the Cambridge 
# Structural Database, then it will include bibliographic, chemical, 
# crystal, experimental, refinement or atomic coordinate data resulting 
# from the CCDC's data processing and validation procedures.
#
#######################################################################

data_HUFSAD
_chemical_formula_moiety         'C12 H11 N3 O2'
_chemical_name_systematic        
(E)-N'-Benzylidene-5-methylisoxazole-4-carbohydrazide
_symmetry_cell_setting           triclinic
_symmetry_space_group_name_H-M   'P -1'
_symmetry_Int_Tables_number      2
_space_group_name_Hall           '-P 1'
loop_
_symmetry_equiv_pos_site_id
_symmetry_equiv_pos_as_xyz
1 x,y,z
2 -x,-y,-z
_cell_length_a                   6.6562(6)
_cell_length_b                   7.4874(9)
_cell_length_c                   11.3051(11)
_cell_angle_alpha                87.319(8)
_cell_angle_beta                 84.640(7)
_cell_angle_gamma                87.878(8)
_cell_volume                     560.04
_exptl_crystal_colour            colorless
_exptl_crystal_description       block
_cell_formula_units_Z            2
_exptl_crystal_recrystallization_method dimethylformamide
loop_
_atom_site_label
_atom_site_type_symbol
_atom_site_fract_x
_atom_site_fract_y
_atom_site_fract_z
C1 C 0.1634(6) 0.4088(7) 0.0931(4)
H1 H 0.1434 0.5364 0.0932
H2 H 0.0435 0.3528 0.1282
H3 H 0.1922 0.3726 0.0128
C2 C 0.3348(5) 0.3544(5) 0.1625(3)
C3 C 0.5697(5) 0.2840(6) 0.2794(3)
H4 H 0.6344 0.2629 0.3484
C4 C 0.3642(5) 0.3410(5) 0.2793(3)
C5 C 0.2072(5) 0.3862(5) 0.3748(3)
C6 C 0.4198(6) 0.2675(5) 0.6388(3)
H5 H 0.3092 0.3072 0.6882
C7 C 0.5963(6) 0.1885(5) 0.6923(3)
C8 C 0.7688(6) 0.1292(6) 0.6238(4)
H6 H 0.7727 0.1374 0.5413
C9 C 0.9325(6) 0.0591(6) 0.6767(4)
H7 H 1.0466 0.0202 0.6299
C10 C 0.9299(7) 0.0456(6) 0.7985(4)
H8 H 1.0417 -0.0017 0.8342
C11 C 0.7604(7) 0.1027(6) 0.8669(4)
H9 H 0.7569 0.0934 0.9493
C12 C 0.5962(7) 0.1736(6) 0.8140(4)
H10 H 0.4826 0.2122 0.8613
H11 H 0.150(5) 0.408(5) 0.545(3)
N1 N 0.6576(5) 0.2644(5) 0.1742(3)
N2 N 0.2397(4) 0.3615(4) 0.4894(3)
N3 N 0.4137(5) 0.2831(4) 0.5270(3)
O1 O 0.5060(4) 0.3099(4) 0.0977(2)
O2 O 0.0417(4) 0.4503(4) 0.3494(2)
loop_
_geom_bond_atom_site_label_1
_geom_bond_atom_site_label_2
_geom_bond_site_symmetry_1
_geom_bond_site_symmetry_2
C1 H1 1_555 1_555
H2 C1 1_555 1_555
H3 C1 1_555 1_555
C2 C1 1_555 1_555
C3 H4 1_555 1_555
C4 C2 1_555 1_555
C5 C4 1_555 1_555
C6 H5 1_555 1_555
C7 C6 1_555 1_555
C8 C7 1_555 1_555
H6 C8 1_555 1_555
C9 C8 1_555 1_555
H7 C9 1_555 1_555
C10 C9 1_555 1_555
H8 C10 1_555 1_555
C11 C10 1_555 1_555
H9 C11 1_555 1_555
C12 C7 1_555 1_555
H10 C12 1_555 1_555
H11 N2 1_555 1_555
N1 C3 1_555 1_555
N2 C5 1_555 1_555
N3 C6 1_555 1_555
O1 C2 1_555 1_555
O2 C5 1_555 1_555
C3 C4 1_555 1_555
C11 C12 1_555 1_555
N1 O1 1_555 1_555
N2 N3 1_555 1_555

#END
