
#######################################################################
#
#                 Cambridge Crystallographic Data Centre
#                                CCDC 
#
#######################################################################
#
# If this CIF has been generated from an entry in the Cambridge 
# Structural Database, then it will include bibliographic, chemical, 
# crystal, experimental, refinement or atomic coordinate data resulting 
# from the CCDC's data processing and validation procedures.
#
#######################################################################

data_HUFTOS
_chemical_formula_moiety         'C23 H12 O4'
_chemical_name_systematic        
'10-Benzoylphenanthrene-8,9-dicarboxylic anhydride'
_symmetry_cell_setting           monoclinic
_symmetry_space_group_name_H-M   'P 21/c'
_symmetry_Int_Tables_number      14
_space_group_name_Hall           '-P 2ybc'
loop_
_symmetry_equiv_pos_site_id
_symmetry_equiv_pos_as_xyz
1 x,y,z
2 -x,1/2+y,1/2-z
3 -x,-y,-z
4 x,1/2-y,1/2+z
_cell_length_a                   11.329(2)
_cell_length_b                   17.767(4)
_cell_length_c                   16.811(3)
_cell_angle_alpha                90
_cell_angle_beta                 99.64(3)
_cell_angle_gamma                90
_cell_volume                     3335.98
_exptl_crystal_colour            colorless
_exptl_crystal_description       block
_cell_formula_units_Z            8
loop_
_atom_site_label
_atom_site_type_symbol
_atom_site_fract_x
_atom_site_fract_y
_atom_site_fract_z
C1 C 0.2673(5) 0.1589(3) -0.0305(3)
H1 H 0.2295 0.1738 -0.0814
C2 C 0.3718(5) 0.1933(2) 0.0036(3)
H2 H 0.4037 0.2320 -0.0234
C3 C 0.4290(3) 0.1700(2) 0.0780(2)
H3 H 0.5007 0.1925 0.1010
C4 C 0.3807(3) 0.11345(19) 0.1192(2)
C5 C 0.2739(3) 0.0805(3) 0.0847(3)
H4 H 0.2398 0.0430 0.1122
C6 C 0.2179(4) 0.1032(3) 0.0093(3)
H5 H 0.1466 0.0806 -0.0145
C7 C 0.4459(3) 0.08948(18) 0.1994(2)
C8 C 0.3825(3) 0.03796(17) 0.24980(19)
C9 C 0.3994(3) -0.04183(18) 0.2433(2)
C10 C 0.4757(3) -0.0711(2) 0.1935(2)
H6 H 0.5160 -0.0386 0.1640
C11 C 0.4915(3) -0.1475(2) 0.1880(2)
H7 H 0.5429 -0.1663 0.1551
C12 C 0.4326(4) -0.1959(2) 0.2302(3)
H8 H 0.4444 -0.2475 0.2260
C13 C 0.3567(3) -0.1698(2) 0.2786(2)
H9 H 0.3158 -0.2039 0.3059
C14 C 0.3385(3) -0.09211(18) 0.2883(2)
C15 C 0.2630(3) -0.06240(19) 0.3414(2)
C16 C 0.1970(3) -0.1080(2) 0.3880(2)
H10 H 0.2024 -0.1601 0.3849
C17 C 0.1263(4) -0.0769(3) 0.4367(3)
H11 H 0.0834 -0.1080 0.4659
C18 C 0.1174(4) 0.0001(3) 0.4437(3)
H12 H 0.0664 0.0249 0.4754
C19 C 0.1796(3) 0.0465(2) 0.4003(2)
C20 C 0.3123(3) 0.06531(17) 0.30131(19)
C21 C 0.2525(3) 0.01599(18) 0.34878(19)
O4 O 0.54992(19) 0.10725(13) 0.22378(14)
O5 O 0.2359(2) 0.17298(12) 0.36796(15)
O6 O 0.3390(2) 0.19411(13) 0.27183(17)
O8 O 0.1008(3) 0.15884(17) 0.44693(18)
C44 C 0.2981(3) 0.14706(19) 0.3096(2)
C46 C 0.1671(4) 0.1276(2) 0.4076(2)
O1 O 0.5567(3) 0.11817(18) 0.44109(18)
O2 O 0.7026(2) 0.15182(13) 0.37616(14)
C22 C 0.8948(5) 0.2090(2) 0.0165(3)
H13 H 0.9355 0.2427 -0.0115
C23 C 0.9474(4) 0.1832(2) 0.0912(2)
H14 H 1.0241 0.1990 0.1134
C24 C 0.8861(3) 0.13347(19) 0.1335(2)
C25 C 0.7738(3) 0.1094(2) 0.0989(2)
H15 H 0.7327 0.0754 0.1262
C26 C 0.7218(4) 0.1355(3) 0.0239(3)
H16 H 0.6456 0.1192 0.0012
C27 C 0.7815(5) 0.1847(3) -0.0169(3)
H17 H 0.7459 0.2021 -0.0674
C28 C 0.8870(3) 0.04461(17) 0.25475(19)
C29 C 0.9170(3) -0.03219(18) 0.2396(2)
C30 C 1.0017(3) -0.0493(2) 0.1906(2)
H18 H 1.0385 -0.0106 0.1667
C31 C 1.0310(4) -0.1227(3) 0.1774(3)
H19 H 1.0885 -0.1335 0.1455
C32 C 0.9752(4) -0.1806(2) 0.2114(3)
H20 H 0.9952 -0.2302 0.2019
C33 C 0.8920(4) -0.1663(2) 0.2583(3)
H21 H 0.8549 -0.2063 0.2800
C34 C 0.8601(3) -0.09157(18) 0.2752(2)
C35 C 0.7729(3) -0.0747(2) 0.3260(2)
C36 C 0.7101(4) -0.1307(2) 0.3626(2)
H22 H 0.7264 -0.1813 0.3551
C37 C 0.6263(4) -0.1115(3) 0.4086(3)
H23 H 0.5859 -0.1491 0.4317
C38 C 0.6012(4) -0.0382(3) 0.4211(2)
H24 H 0.5427 -0.0261 0.4518
C39 C 0.6612(3) 0.0183(2) 0.3890(2)
C40 C 0.6329(4) 0.0960(3) 0.4042(2)
C41 C 0.8067(3) 0.05975(17) 0.30482(19)
C42 C 0.7477(3) 0.00066(18) 0.34088(19)
O3 O 0.8217(2) 0.19227(13) 0.29575(16)
C43 C 0.7792(3) 0.1380(2) 0.3224(2)
O7 O 1.0484(2) 0.12609(14) 0.24210(15)
C45 C 0.9469(3) 0.10541(19) 0.2136(2)
loop_
_geom_bond_atom_site_label_1
_geom_bond_atom_site_label_2
_geom_bond_site_symmetry_1
_geom_bond_site_symmetry_2
C1 H1 1_555 1_555
C2 C1 1_555 1_555
H2 C2 1_555 1_555
C3 C2 1_555 1_555
H3 C3 1_555 1_555
C4 C3 1_555 1_555
C5 C4 1_555 1_555
H4 C5 1_555 1_555
C6 C1 1_555 1_555
H5 C6 1_555 1_555
C7 C4 1_555 1_555
C8 C7 1_555 1_555
C9 C8 1_555 1_555
C10 C9 1_555 1_555
H6 C10 1_555 1_555
C11 C10 1_555 1_555
H7 C11 1_555 1_555
C12 C11 1_555 1_555
H8 C12 1_555 1_555
C13 C12 1_555 1_555
H9 C13 1_555 1_555
C14 C9 1_555 1_555
C15 C14 1_555 1_555
C16 C15 1_555 1_555
H10 C16 1_555 1_555
C17 C16 1_555 1_555
H11 C17 1_555 1_555
C18 C17 1_555 1_555
H12 C18 1_555 1_555
C19 C18 1_555 1_555
C20 C8 1_555 1_555
C21 C15 1_555 1_555
O1 C40 1_555 1_555
O2 C40 1_555 1_555
C22 H13 1_555 1_555
C23 C22 1_555 1_555
H14 C23 1_555 1_555
C24 C23 1_555 1_555
C25 C24 1_555 1_555
H15 C25 1_555 1_555
C26 C25 1_555 1_555
H16 C26 1_555 1_555
C27 C22 1_555 1_555
H17 C27 1_555 1_555
C28 C29 1_555 1_555
C29 C30 1_555 1_555
C30 H18 1_555 1_555
C31 C30 1_555 1_555
H19 C31 1_555 1_555
C32 C31 1_555 1_555
H20 C32 1_555 1_555
C33 C32 1_555 1_555
H21 C33 1_555 1_555
C34 C29 1_555 1_555
C35 C34 1_555 1_555
C36 C35 1_555 1_555
H22 C36 1_555 1_555
C37 C36 1_555 1_555
H23 C37 1_555 1_555
C38 C37 1_555 1_555
H24 C38 1_555 1_555
C39 C38 1_555 1_555
C40 C39 1_555 1_555
C41 C28 1_555 1_555
C42 C35 1_555 1_555
O3 C43 1_555 1_555
O4 C7 1_555 1_555
C43 O2 1_555 1_555
O5 C44 1_555 1_555
O6 C44 1_555 1_555
O7 C45 1_555 1_555
O8 C46 1_555 1_555
C44 C20 1_555 1_555
C45 C24 1_555 1_555
C46 C19 1_555 1_555
C5 C6 1_555 1_555
C13 C14 1_555 1_555
C19 C21 1_555 1_555
C20 C21 1_555 1_555
C26 C27 1_555 1_555
C28 C45 1_555 1_555
C33 C34 1_555 1_555
C39 C42 1_555 1_555
C41 C42 1_555 1_555
C41 C43 1_555 1_555
O5 C46 1_555 1_555

#END
