
#######################################################################
#
#                 Cambridge Crystallographic Data Centre
#                                CCDC 
#
#######################################################################
#
# If this CIF has been generated from an entry in the Cambridge 
# Structural Database, then it will include bibliographic, chemical, 
# crystal, experimental, refinement or atomic coordinate data resulting 
# from the CCDC's data processing and validation procedures.
#
#######################################################################

data_HUFWIQ
_chemical_formula_moiety         'C30 H26 O3 S1'
_chemical_name_systematic        
4-(biphenyl-4-yl)-2-((4-methylphenyl)sulfonyl)-1-phenylpent-3-en-1-one
_symmetry_cell_setting           orthorhombic
_symmetry_space_group_name_H-M   'P c a 21'
_symmetry_Int_Tables_number      29
_space_group_name_Hall           'P 2c -2ac'
loop_
_symmetry_equiv_pos_site_id
_symmetry_equiv_pos_as_xyz
1 x,y,z
2 -x,-y,1/2+z
3 1/2-x,y,1/2+z
4 1/2+x,-y,z
_cell_length_a                   16.1272(15)
_cell_length_b                   8.2497(8)
_cell_length_c                   17.7820(16)
_cell_angle_alpha                90
_cell_angle_beta                 90
_cell_angle_gamma                90
_cell_volume                     2365.8
_exptl_crystal_colour            colorless
_cell_formula_units_Z            4
loop_
_atom_site_label
_atom_site_type_symbol
_atom_site_fract_x
_atom_site_fract_y
_atom_site_fract_z
S1 S 0.71106(4) 0.98267(9) 0.80966(5)
O1 O 0.63769(13) 0.9621(3) 0.85515(13)
O2 O 0.70970(12) 0.5805(3) 0.79066(13)
O3 O 0.72834(14) 1.1385(3) 0.77657(14)
C1 C 1.30387(19) 0.5496(4) 0.49947(19)
H1 H 1.3561 0.5087 0.4838
C2 C 1.27753(19) 0.5274(4) 0.5729(2)
H2 H 1.3123 0.4723 0.6076
C3 C 1.20107(18) 0.5848(4) 0.59608(19)
H3 H 1.1837 0.5681 0.6466
C4 C 1.14893(18) 0.6673(4) 0.54600(17)
C5 C 1.06643(18) 0.7291(4) 0.57020(18)
C6 C 1.04911(19) 0.7619(4) 0.64562(18)
H4 H 1.0914 0.7487 0.6823
C7 C 0.97072(19) 0.8135(4) 0.66751(18)
H5 H 0.9600 0.8317 0.7194
C8 C 0.90748(18) 0.8392(4) 0.61549(17)
C9 C 0.82221(18) 0.8850(4) 0.63912(18)
C10 C 0.78991(17) 0.8109(4) 0.69931(18)
H6 H 0.8239 0.7332 0.7240
C11 C 0.70491(18) 0.8389(4) 0.73149(17)
H7 H 0.6683 0.8851 0.6915
C12 C 0.79786(17) 0.9208(4) 0.86247(18)
C13 C 0.78794(18) 0.8057(4) 0.91828(18)
H8 H 0.7350 0.7597 0.9278
C14 C 0.85648(19) 0.7580(4) 0.96041(19)
H9 H 0.8501 0.6802 0.9994
C15 C 0.93443(18) 0.8236(4) 0.94569(19)
C16 C 1.0087(2) 0.7725(5) 0.9915(2)
H10 H 1.0588 0.7798 0.9605
H11 H 1.0012 0.6605 1.0085
H12 H 1.0143 0.8440 1.0352
C17 C 1.00324(18) 0.7569(4) 0.51791(18)
H13 H 1.0135 0.7363 0.4662
C18 C 0.92631(18) 0.8137(4) 0.53951(18)
H14 H 0.8856 0.8357 0.5023
C19 C 1.25370(19) 0.6317(4) 0.4490(2)
H15 H 1.2715 0.6479 0.3986
C20 C 1.17725(18) 0.6902(4) 0.47242(18)
H16 H 1.1433 0.7472 0.4376
C21 C 0.7762(2) 1.0094(4) 0.5929(2)
H17 H 0.7409 0.9542 0.5561
H18 H 0.8161 1.0786 0.5666
H19 H 0.7417 1.0760 0.6261
C22 C 0.66554(18) 0.6829(4) 0.76183(17)
C23 C 0.57386(18) 0.6603(4) 0.75734(17)
C24 C 0.53748(19) 0.5473(4) 0.8056(2)
H20 H 0.5713 0.4870 0.8393
C25 C 0.4523(2) 0.5222(4) 0.8049(2)
H21 H 0.4278 0.4479 0.8391
C26 C 0.4035(2) 0.6053(4) 0.75434(19)
H22 H 0.3453 0.5877 0.7536
C27 C 0.4389(2) 0.7141(4) 0.7047(2)
H23 H 0.4053 0.7689 0.6689
C28 C 0.52338(19) 0.7432(4) 0.7070(2)
H24 H 0.5471 0.8208 0.6739
C29 C 0.87481(18) 0.9858(4) 0.84635(18)
H25 H 0.8810 1.0634 0.8072
C30 C 0.94294(18) 0.9364(4) 0.88810(19)
H26 H 0.9961 0.9801 0.8772
loop_
_geom_bond_atom_site_label_1
_geom_bond_atom_site_label_2
_geom_bond_site_symmetry_1
_geom_bond_site_symmetry_2
S1 O1 1_555 1_555
O2 C22 1_555 1_555
O3 S1 1_555 1_555
C1 H1 1_555 1_555
C2 C1 1_555 1_555
H2 C2 1_555 1_555
C3 C2 1_555 1_555
H3 C3 1_555 1_555
C4 C3 1_555 1_555
C5 C4 1_555 1_555
C6 C5 1_555 1_555
H4 C6 1_555 1_555
C7 C6 1_555 1_555
H5 C7 1_555 1_555
C8 C7 1_555 1_555
C9 C8 1_555 1_555
C10 C9 1_555 1_555
H6 C10 1_555 1_555
C11 S1 1_555 1_555
H7 C11 1_555 1_555
C12 S1 1_555 1_555
C13 C12 1_555 1_555
H8 C13 1_555 1_555
C14 C13 1_555 1_555
H9 C14 1_555 1_555
C15 C14 1_555 1_555
C16 C15 1_555 1_555
H10 C16 1_555 1_555
H11 C16 1_555 1_555
H12 C16 1_555 1_555
C17 C5 1_555 1_555
H13 C17 1_555 1_555
C18 C8 1_555 1_555
H14 C18 1_555 1_555
C19 C1 1_555 1_555
H15 C19 1_555 1_555
C20 C4 1_555 1_555
H16 C20 1_555 1_555
C21 C9 1_555 1_555
H17 C21 1_555 1_555
H18 C21 1_555 1_555
H19 C21 1_555 1_555
C22 C11 1_555 1_555
C23 C22 1_555 1_555
C24 C23 1_555 1_555
H20 C24 1_555 1_555
C25 C24 1_555 1_555
H21 C25 1_555 1_555
C26 C25 1_555 1_555
H22 C26 1_555 1_555
C27 C26 1_555 1_555
H23 C27 1_555 1_555
C28 C23 1_555 1_555
H24 C28 1_555 1_555
C29 C12 1_555 1_555
H25 C29 1_555 1_555
C30 C15 1_555 1_555
H26 C30 1_555 1_555
C10 C11 1_555 1_555
C17 C18 1_555 1_555
C19 C20 1_555 1_555
C27 C28 1_555 1_555
C29 C30 1_555 1_555

#END
