
#######################################################################
#
#                 Cambridge Crystallographic Data Centre
#                                CCDC 
#
#######################################################################
#
# If this CIF has been generated from an entry in the Cambridge 
# Structural Database, then it will include bibliographic, chemical, 
# crystal, experimental, refinement or atomic coordinate data resulting 
# from the CCDC's data processing and validation procedures.
#
#######################################################################

data_HUFYAJ
_chemical_name_common            N'-(3-(4-Nitrophenyl)acryloyl)benzohydrazide
_chemical_formula_moiety         'C16 H13 N3 O4'
_chemical_name_systematic        
(2E)-N'-Benzoyl-3-(4-nitrophenyl)prop-2-enohydrazide
_symmetry_cell_setting           triclinic
_symmetry_space_group_name_H-M   'P -1'
_symmetry_Int_Tables_number      2
_space_group_name_Hall           '-P 1'
loop_
_symmetry_equiv_pos_site_id
_symmetry_equiv_pos_as_xyz
1 x,y,z
2 -x,-y,-z
_cell_length_a                   6.8263(2)
_cell_length_b                   9.6483(3)
_cell_length_c                   10.8571(3)
_cell_angle_alpha                95.535(2)
_cell_angle_beta                 102.701(2)
_cell_angle_gamma                91.728(2)
_cell_volume                     693.351
_exptl_crystal_colour            orange
_exptl_crystal_description       block
_chemical_melting_point          '551-552 K'
_cell_formula_units_Z            2
_exptl_crystal_recrystallization_method ethanol
loop_
_atom_site_label
_atom_site_type_symbol
_atom_site_fract_x
_atom_site_fract_y
_atom_site_fract_z
O1 O -0.61174(17) 0.25925(13) 1.01283(12)
O2 O -0.39300(16) 0.42685(11) 1.10137(10)
O3 O 0.30141(14) 0.06073(10) 0.52732(10)
O4 O 0.68693(15) 0.44415(10) 0.44917(10)
N1 N -0.45702(18) 0.33067(13) 1.01817(12)
N2 N 0.44535(17) 0.27625(12) 0.53463(11)
H1 H 0.444(2) 0.3677(10) 0.5437(15)
N3 N 0.56991(17) 0.22492(12) 0.45712(11)
H2 H 0.585(2) 0.1348(10) 0.4560(15)
C1 C -0.1035(2) 0.22612(15) 0.75127(13)
C2 C -0.2558(2) 0.13309(15) 0.76568(13)
H3 H -0.2777 0.0448 0.7166
C3 C -0.3753(2) 0.16829(16) 0.85096(14)
H4 H -0.4784 0.1048 0.8610
C4 C -0.3414(2) 0.29731(15) 0.92086(13)
C5 C -0.1974(2) 0.39458(15) 0.90566(14)
H5 H -0.1808 0.4843 0.9523
C6 C -0.0783(2) 0.35802(15) 0.82096(14)
H6 H 0.0219 0.4232 0.8099
C7 C 0.0287(2) 0.17919(14) 0.66696(13)
H7 H 0.0028 0.0869 0.6258
C8 C 0.1816(2) 0.25341(14) 0.64252(13)
H8 H 0.2078 0.3484 0.6764
C9 C 0.3096(2) 0.18722(14) 0.56259(13)
C10 C 0.6883(2) 0.31779(14) 0.41785(13)
C11 C 0.8125(2) 0.25900(14) 0.33038(13)
C12 C 0.9921(2) 0.33116(15) 0.32771(14)
H9 H 1.0378 0.4122 0.3850
C13 C 1.1038(2) 0.28350(16) 0.24048(15)
H10 H 1.2270 0.3312 0.2393
C14 C 1.0350(2) 0.16644(16) 0.15541(15)
H11 H 1.1097 0.1358 0.0946
C15 C 0.8579(2) 0.09389(16) 0.15851(15)
H12 H 0.8125 0.0130 0.1010
C16 C 0.7471(2) 0.14018(15) 0.24624(14)
H13 H 0.6261 0.0904 0.2487
loop_
_geom_bond_atom_site_label_1
_geom_bond_atom_site_label_2
_geom_bond_site_symmetry_1
_geom_bond_site_symmetry_2
O1 N1 1_555 1_555
O2 N1 1_555 1_555
O3 C9 1_555 1_555
O4 C10 1_555 1_555
N1 C4 1_555 1_555
N2 H1 1_555 1_555
N3 N2 1_555 1_555
H2 N3 1_555 1_555
C1 C2 1_555 1_555
C2 H3 1_555 1_555
C3 C2 1_555 1_555
H4 C3 1_555 1_555
C4 C3 1_555 1_555
C5 C4 1_555 1_555
H5 C5 1_555 1_555
C6 C1 1_555 1_555
H6 C6 1_555 1_555
C7 C1 1_555 1_555
H7 C7 1_555 1_555
C8 C7 1_555 1_555
H8 C8 1_555 1_555
C9 N2 1_555 1_555
C10 N3 1_555 1_555
C11 C10 1_555 1_555
C12 C11 1_555 1_555
H9 C12 1_555 1_555
C13 C12 1_555 1_555
H10 C13 1_555 1_555
C14 C13 1_555 1_555
H11 C14 1_555 1_555
C15 C14 1_555 1_555
H12 C15 1_555 1_555
C16 C11 1_555 1_555
H13 C16 1_555 1_555
C5 C6 1_555 1_555
C8 C9 1_555 1_555
C15 C16 1_555 1_555

#END
