
#######################################################################
#
#                 Cambridge Crystallographic Data Centre
#                                CCDC 
#
#######################################################################
#
# If this CIF has been generated from an entry in the Cambridge 
# Structural Database, then it will include bibliographic, chemical, 
# crystal, experimental, refinement or atomic coordinate data resulting 
# from the CCDC's data processing and validation procedures.
#
#######################################################################

data_HUFYIQ
_chemical_formula_moiety         'C32 H28 Si2'
_chemical_name_systematic        (E)-1-Diphenylsilyl-2-triphenylsilylethene
_symmetry_cell_setting           triclinic
_symmetry_space_group_name_H-M   'P -1'
_symmetry_Int_Tables_number      2
_space_group_name_Hall           '-P 1'
loop_
_symmetry_equiv_pos_site_id
_symmetry_equiv_pos_as_xyz
1 x,y,z
2 -x,-y,-z
_cell_length_a                   11.1046(12)
_cell_length_b                   11.4205(11)
_cell_length_c                   12.7004(9)
_cell_angle_alpha                72.632(7)
_cell_angle_beta                 78.905(7)
_cell_angle_gamma                62.198(11)
_cell_volume                     1357.08
_exptl_crystal_colour            colorless
_exptl_crystal_description       plate
_chemical_melting_point          413.2K
_cell_formula_units_Z            2
_exptl_crystal_recrystallization_method n-hexane/dichloromethane
loop_
_atom_site_label
_atom_site_type_symbol
_atom_site_fract_x
_atom_site_fract_y
_atom_site_fract_z
Si1 Si 0.34449(10) 0.32786(10) 0.55899(8)
Si2 Si 0.34458(12) 0.46792(12) 0.17876(8)
H1 H 0.424(3) 0.530(3) 0.169(2)
C1 C 0.5137(3) 0.2244(3) 0.6203(3)
C2 C 0.6126(4) 0.2719(4) 0.5972(3)
H2 H 0.5945 0.3565 0.5485
C3 C 0.7365(4) 0.1984(5) 0.6438(4)
H3 H 0.8001 0.2338 0.6274
C4 C 0.7661(4) 0.0731(5) 0.7144(4)
H4 H 0.8495 0.0235 0.7467
C5 C 0.6733(4) 0.0208(4) 0.7375(3)
H5 H 0.6940 -0.0652 0.7844
C6 C 0.5485(4) 0.0954(4) 0.6912(3)
H6 H 0.4860 0.0587 0.7077
C7 C 0.2424(3) 0.4776(3) 0.6223(3)
C8 C 0.2855(4) 0.4962(4) 0.7088(3)
H7 H 0.3701 0.4341 0.7362
C9 C 0.2038(5) 0.6067(4) 0.7549(4)
H8 H 0.2338 0.6167 0.8138
C10 C 0.0804(5) 0.7005(4) 0.7152(4)
H9 H 0.0264 0.7741 0.7468
C11 C 0.0366(4) 0.6858(4) 0.6290(4)
H10 H -0.0477 0.7495 0.6016
C12 C 0.1167(4) 0.5768(4) 0.5822(3)
H11 H 0.0863 0.5693 0.5223
C13 C 0.2532(3) 0.2185(3) 0.5873(3)
C14 C 0.1422(3) 0.2334(4) 0.6644(3)
H12 H 0.1072 0.3051 0.6990
C15 C 0.0833(4) 0.1449(4) 0.6908(3)
H13 H 0.0096 0.1568 0.7427
C16 C 0.1333(4) 0.0394(4) 0.6405(4)
H14 H 0.0936 -0.0205 0.6583
C17 C 0.2423(4) 0.0215(4) 0.5635(3)
H15 H 0.2767 -0.0505 0.5294
C18 C 0.2994(3) 0.1108(4) 0.5378(3)
H16 H 0.3722 0.0987 0.4849
C19 C 0.3716(5) 0.3919(4) 0.4085(3)
H17 H 0.435(4) 0.420(4) 0.379(3)
C20 C 0.3069(5) 0.4040(4) 0.3286(3)
H18 H 0.238(4) 0.370(4) 0.349(3)
C21 C 0.1857(4) 0.5924(4) 0.1083(3)
C22 C 0.0754(5) 0.5628(5) 0.1157(4)
H19 H 0.0801 0.4790 0.1580
C23 C -0.0397(6) 0.6562(8) 0.0614(5)
H20 H -0.1124 0.6351 0.0667
C24 C -0.0486(7) 0.7795(8) -0.0003(6)
H21 H -0.1277 0.8429 -0.0360
C25 C 0.0576(8) 0.8102(6) -0.0096(5)
H22 H 0.0521 0.8938 -0.0534
C26 C 0.1732(6) 0.7190(5) 0.0449(4)
H23 H 0.2443 0.7425 0.0393
C27 C 0.4393(4) 0.3197(4) 0.1137(3)
C28 C 0.4030(4) 0.3177(4) 0.0162(3)
H24 H 0.3285 0.3924 -0.0185
C29 C 0.4750(5) 0.2072(5) -0.0307(4)
H25 H 0.4485 0.2082 -0.0962
C30 C 0.5847(5) 0.0969(5) 0.0189(4)
H26 H 0.6332 0.0228 -0.0129
C31 C 0.6233(4) 0.0952(5) 0.1147(4)
H27 H 0.6983 0.0200 0.1484
C32 C 0.5513(4) 0.2048(5) 0.1619(3)
H28 H 0.5783 0.2019 0.2279
loop_
_geom_bond_atom_site_label_1
_geom_bond_atom_site_label_2
_geom_bond_site_symmetry_1
_geom_bond_site_symmetry_2
Si1 C1 1_555 1_555
Si2 H1 1_555 1_555
C1 C2 1_555 1_555
C2 H2 1_555 1_555
C3 C2 1_555 1_555
H3 C3 1_555 1_555
C4 C3 1_555 1_555
H4 C4 1_555 1_555
C5 C4 1_555 1_555
H5 C5 1_555 1_555
C6 C1 1_555 1_555
H6 C6 1_555 1_555
C7 Si1 1_555 1_555
C8 C7 1_555 1_555
H7 C8 1_555 1_555
C9 C8 1_555 1_555
H8 C9 1_555 1_555
C10 C9 1_555 1_555
H9 C10 1_555 1_555
C11 C10 1_555 1_555
H10 C11 1_555 1_555
C12 C7 1_555 1_555
H11 C12 1_555 1_555
C13 Si1 1_555 1_555
C14 C13 1_555 1_555
H12 C14 1_555 1_555
C15 C14 1_555 1_555
H13 C15 1_555 1_555
C16 C15 1_555 1_555
H14 C16 1_555 1_555
C17 C16 1_555 1_555
H15 C17 1_555 1_555
C18 C13 1_555 1_555
H16 C18 1_555 1_555
C19 Si1 1_555 1_555
H17 C19 1_555 1_555
C20 Si2 1_555 1_555
H18 C20 1_555 1_555
C21 Si2 1_555 1_555
C22 C21 1_555 1_555
H19 C22 1_555 1_555
C23 C22 1_555 1_555
H20 C23 1_555 1_555
C24 C23 1_555 1_555
H21 C24 1_555 1_555
C25 C24 1_555 1_555
H22 C25 1_555 1_555
C26 C21 1_555 1_555
H23 C26 1_555 1_555
C27 Si2 1_555 1_555
C28 C27 1_555 1_555
H24 C28 1_555 1_555
C29 C28 1_555 1_555
H25 C29 1_555 1_555
C30 C29 1_555 1_555
H26 C30 1_555 1_555
C31 C30 1_555 1_555
H27 C31 1_555 1_555
C32 C27 1_555 1_555
H28 C32 1_555 1_555
C5 C6 1_555 1_555
C11 C12 1_555 1_555
C17 C18 1_555 1_555
C19 C20 1_555 1_555
C25 C26 1_555 1_555
C31 C32 1_555 1_555

#END
