
#######################################################################
#
#                 Cambridge Crystallographic Data Centre
#                                CCDC 
#
#######################################################################
#
# If this CIF has been generated from an entry in the Cambridge 
# Structural Database, then it will include bibliographic, chemical, 
# crystal, experimental, refinement or atomic coordinate data resulting 
# from the CCDC's data processing and validation procedures.
#
#######################################################################

data_HUFZAL
_chemical_name_common            
"tetramethyl 2,2',2'',2'''-((9,19,24,26,28,32-hexahydroxyhexacyclo[21.2.2.2$3,6!.2$8,11!.2$13,16!.2$18,21!]pentatriaconta-1(25),3,5,8,10,13,15,18,20,23,26,28,30,32,34-pentadecaene-4,14,30,34-tetrayl)tetrakis(oxy))tetraacetate acetone solvate monohydrate"
_chemical_formula_moiety         'C47 H46 O18,C3 H6 O1,H2 O1'
_chemical_name_systematic        
'1,5(1,4)-bis(2,5-bis((2-methoxy-2-oxoethyl)oxy)benzena)-3,7,9(1,4)-tris(2,5-dihydroxybenzena)cyclodecaphane acetone solvate monohydrate'
_symmetry_cell_setting           triclinic
_symmetry_space_group_name_H-M   'P -1'
_symmetry_Int_Tables_number      2
_space_group_name_Hall           '-P 1'
loop_
_symmetry_equiv_pos_site_id
_symmetry_equiv_pos_as_xyz
1 x,y,z
2 -x,-y,-z
_cell_length_a                   12.693(3)
_cell_length_b                   12.940(3)
_cell_length_c                   15.880(3)
_cell_angle_alpha                106.19(3)
_cell_angle_beta                 104.20(3)
_cell_angle_gamma                101.68(3)
_cell_volume                     2323.25
_exptl_crystal_colour            colorless
_exptl_crystal_description       block
_cell_formula_units_Z            2
loop_
_atom_site_label
_atom_site_type_symbol
_atom_site_fract_x
_atom_site_fract_y
_atom_site_fract_z
O1 O 0.5089(4) 1.2160(4) 0.5602(3)
O2 O 0.5283(3) 1.1539(4) 0.6787(3)
O3 O -0.0992(4) 0.4849(3) 0.0642(3)
O4 O 0.1334(4) 0.3515(4) 0.2076(3)
H1 H 0.1834 0.3234 0.1973
O5 O 0.2742(4) 0.7248(4) 0.5250(3)
H2 H 0.3433 0.7437 0.5489
O6 O 0.3994(3) 0.7028(3) 0.0051(2)
H3 H 0.3772 0.7583 0.0062
O7 O 0.8249(3) 0.8083(3) 0.2578(3)
H4 H 0.8230 0.8064 0.3086
O8 O 0.7129(3) 0.6627(3) 0.3644(2)
O9 O 0.8875(3) 0.8434(4) 0.4422(3)
O10 O 0.9130(3) 0.8280(3) 0.5811(2)
O11 O 0.3026(3) 0.8723(3) 0.0036(2)
H5 H 0.2358 0.8386 -0.0080
O12 O 0.4851(3) 1.1597(3) 0.3689(2)
H6 H 0.4466 1.1426 0.4002
O13 O 0.3309(3) 0.3016(3) 0.1637(2)
O14 O 0.1257(3) 0.1585(3) 0.0610(3)
O15 O 0.2005(3) 0.0685(3) -0.0413(2)
O16 O 0.3135(3) 1.0677(3) 0.4656(2)
O17 O -0.0049(3) 0.6833(3) 0.2043(3)
O18 O -0.1825(4) 0.5699(3) -0.0266(3)
C1 C 0.6369(5) 1.2360(6) 0.7278(4)
H7 H 0.6873 1.2251 0.6921
H8 H 0.6679 1.2279 0.7864
H9 H 0.6282 1.3101 0.7380
C2 C 0.0930(4) -0.0124(5) -0.0940(4)
H10 H 0.1034 -0.0755 -0.1366
H11 H 0.0452 0.0211 -0.1278
H12 H 0.0581 -0.0372 -0.0531
C3 C 1.0145(4) 0.9267(5) 0.6181(4)
H13 H 1.0734 0.9067 0.5949
H14 H 1.0407 0.9509 0.6845
H15 H 0.9955 0.9866 0.5991
C4 C 0.3662(5) 1.0614(5) 0.5537(4)
H16 H 0.3793 0.9885 0.5462
H17 H 0.3179 1.0717 0.5923
C5 C -0.2364(5) 0.4618(5) -0.1012(4)
H18 H -0.2824 0.4722 -0.1542
H19 H -0.2832 0.4119 -0.0812
H20 H -0.1790 0.4298 -0.1175
C6 C -0.1141(5) 0.5674(5) 0.0504(4)
C7 C 0.3153(4) 1.0499(4) 0.2347(3)
C8 C 0.4336(4) 1.0877(4) 0.2766(4)
C9 C 0.4750(5) 1.1514(5) 0.5965(4)
C10 C 0.3216(4) 0.2314(4) 0.0747(3)
H21 H 0.3786 0.1916 0.0793
H22 H 0.3336 0.2762 0.0362
C11 C 0.6191(4) 0.5692(4) 0.3174(4)
C12 C 0.2276(4) 0.9720(4) 0.4023(4)
C13 C 0.1869(4) 0.9738(4) 0.3137(3)
C14 C -0.0549(5) 0.6847(4) 0.1148(4)
H23 H 0.0033 0.7195 0.0933
H24 H -0.1087 0.7282 0.1167
C15 C 0.2748(4) 0.9798(4) 0.1415(3)
H25 H 0.1969 0.9555 0.1110
C16 C 0.0636(4) 0.6833(4) 0.3843(4)
H26 H -0.0133 0.6420 0.3440
H27 H 0.0621 0.7076 0.4475
C17 C 0.8581(4) 0.7975(5) 0.4915(4)
C18 C 0.1840(4) 0.8810(4) 0.4252(4)
H28 H 0.2089 0.8844 0.4864
C19 C 0.6805(4) 0.8661(4) 0.1768(3)
H29 H 0.7280 0.9394 0.2061
C20 C 0.5419(4) 0.9420(4) 0.0874(3)
H30 H 0.6098 1.0035 0.1037
H31 H 0.5051 0.9175 0.0211
C21 C 0.1094(4) 0.5110(4) 0.2972(4)
C22 C 0.0679(4) 0.7837(4) 0.2699(4)
C23 C 0.7545(4) 0.6985(4) 0.4612(3)
H32 H 0.7744 0.6386 0.4811
H33 H 0.6977 0.7203 0.4876
C24 C 0.6019(4) 0.5216(4) 0.2238(3)
C25 C 0.3618(4) 0.3947(4) 0.3504(4)
H34 H 0.3186 0.3173 0.3132
H35 H 0.4018 0.3964 0.4115
C26 C 0.1062(4) 0.8785(4) 0.2485(4)
H36 H 0.0765 0.8776 0.1886
C27 C 0.7154(4) 0.7798(4) 0.1988(3)
C28 C 0.5045(4) 1.0563(4) 0.2270(3)
H37 H 0.5827 1.0848 0.2557
C29 C 0.1783(4) 0.4417(4) 0.2887(3)
C30 C 0.2045(4) 0.1487(4) 0.0324(4)
C31 C 0.1044(4) 0.7848(4) 0.3597(4)
C32 C 0.5430(4) 0.5277(4) 0.3588(3)
H38 H 0.5563 0.5616 0.4218
C33 C 0.2414(4) 0.6310(4) 0.4445(4)
C34 C 0.3448(4) 0.9457(4) 0.0937(3)
C35 C 0.6802(4) 0.5709(4) 0.1774(3)
H39 H 0.7581 0.5961 0.2180
H40 H 0.6747 0.5137 0.1207
C36 C 0.3106(4) 0.5623(4) 0.4358(3)
C37 C 0.4473(4) 0.4361(4) 0.3066(3)
C38 C 0.5058(4) 0.7351(4) 0.0705(3)
C39 C 0.5403(4) 0.6497(4) 0.0929(3)
H41 H 0.4912 0.5769 0.0657
C40 C 0.1385(4) 0.6063(4) 0.3753(4)
C41 C 0.2328(4) 1.0728(4) 0.2863(3)
H42 H 0.1702 1.0881 0.2476
H43 H 0.2706 1.1390 0.3415
C42 C 0.2814(4) 0.4655(4) 0.3586(3)
C43 C 0.4304(4) 0.3881(4) 0.2133(3)
C44 C 0.4630(4) 0.9838(4) 0.1362(3)
C45 C 0.5076(4) 0.4281(4) 0.1721(3)
H44 H 0.4961 0.3921 0.1097
C46 C 0.6473(4) 0.6690(4) 0.1558(3)
C47 C 0.5755(4) 0.8458(4) 0.1117(3)
O21 O 0.1943(6) 0.8284(6) 0.7377(6)
C48 C 0.0941(8) 0.6430(9) 0.6327(6)
H47 H 0.0396 0.6119 0.6582
H48 H 0.1197 0.5842 0.5995
H49 H 0.0595 0.6771 0.5911
C49 C 0.1872(7) 0.7247(8) 0.7046(8)
C50 C 0.2679(8) 0.6945(8) 0.7674(7)
H50 H 0.3241 0.7614 0.8121
H51 H 0.3041 0.6479 0.7333
H52 H 0.2292 0.6541 0.7986
O22 O 0.0856(3) 0.7414(3) -0.0456(3)
H53 H 0.0246 0.7367 -0.0855
H54 H 0.0867 0.6761 -0.0453
O19? O 0.4109(9) 0.5996(10) 0.5030(8)
H45? H 0.4182 0.6628 0.5377
O20? O 0.0166(10) 0.4639(10) 0.2186(8)
H46? H -0.0143 0.5119 0.2110
loop_
_geom_bond_atom_site_label_1
_geom_bond_atom_site_label_2
_geom_bond_site_symmetry_1
_geom_bond_site_symmetry_2
O1 C9 1_555 1_555
O2 C1 1_555 1_555
O3 C6 1_555 1_555
O4 H1 1_555 1_555
O5 H2 1_555 1_555
O6 H3 1_555 1_555
O7 H4 1_555 1_555
O8 C11 1_555 1_555
O9 C17 1_555 1_555
O10 C3 1_555 1_555
O11 H5 1_555 1_555
O12 H6 1_555 1_555
O13 C10 1_555 1_555
O14 C30 1_555 1_555
O15 C2 1_555 1_555
O16 C4 1_555 1_555
O17 C14 1_555 1_555
O18 C5 1_555 1_555
C1 H7 1_555 1_555
H8 C1 1_555 1_555
H9 C1 1_555 1_555
C2 H10 1_555 1_555
H11 C2 1_555 1_555
H12 C2 1_555 1_555
C3 H13 1_555 1_555
H14 C3 1_555 1_555
H15 C3 1_555 1_555
C4 H16 1_555 1_555
H17 C4 1_555 1_555
C5 H18 1_555 1_555
H19 C5 1_555 1_555
H20 C5 1_555 1_555
C6 O18 1_555 1_555
C7 C8 1_555 1_555
C8 O12 1_555 1_555
C9 O2 1_555 1_555
C10 H21 1_555 1_555
H22 C10 1_555 1_555
C11 C24 1_555 1_555
C12 O16 1_555 1_555
C13 C12 1_555 1_555
C14 C6 1_555 1_555
H23 C14 1_555 1_555
H24 C14 1_555 1_555
C15 C7 1_555 1_555
H25 C15 1_555 1_555
C16 H26 1_555 1_555
H27 C16 1_555 1_555
C17 O10 1_555 1_555
C18 C12 1_555 1_555
H28 C18 1_555 1_555
C19 H29 1_555 1_555
C20 H30 1_555 1_555
H31 C20 1_555 1_555
C21 C29 1_555 1_555
C22 O17 1_555 1_555
C23 O8 1_555 1_555
H32 C23 1_555 1_555
H33 C23 1_555 1_555
C24 C35 1_555 1_555
C25 H34 1_555 1_555
H35 C25 1_555 1_555
C26 C13 1_555 1_555
H36 C26 1_555 1_555
C27 O7 1_555 1_555
C28 C8 1_555 1_555
H37 C28 1_555 1_555
C29 O4 1_555 1_555
C30 O15 1_555 1_555
C31 C16 1_555 1_555
C32 C11 1_555 1_555
H38 C32 1_555 1_555
C33 O5 1_555 1_555
C34 O11 1_555 1_555
C35 H39 1_555 1_555
H40 C35 1_555 1_555
C36 C33 1_555 1_555
C37 C25 1_555 1_555
C38 O6 1_555 1_555
C39 C38 1_555 1_555
H41 C39 1_555 1_555
C40 C16 1_555 1_555
C41 C7 1_555 1_555
H42 C41 1_555 1_555
H43 C41 1_555 1_555
C42 C25 1_555 1_555
C43 O13 1_555 1_555
C44 C20 1_555 1_555
C45 C24 1_555 1_555
H44 C45 1_555 1_555
C46 C27 1_555 1_555
C47 C19 1_555 1_555
O21 C49 1_555 1_555
C48 H47 1_555 1_555
H48 C48 1_555 1_555
H49 C48 1_555 1_555
C49 C48 1_555 1_555
C50 C49 1_555 1_555
H50 C50 1_555 1_555
H51 C50 1_555 1_555
H52 C50 1_555 1_555
O22 H53 1_555 1_555
H54 O22 1_555 1_555
C4 C9 1_555 1_555
C10 C30 1_555 1_555
C13 C41 1_555 1_555
C15 C34 1_555 1_555
C17 C23 1_555 1_555
C18 C31 1_555 1_555
C19 C27 1_555 1_555
C20 C47 1_555 1_555
C21 C40 1_555 1_555
C22 C26 1_555 1_555
C22 C31 1_555 1_555
C28 C44 1_555 1_555
C29 C42 1_555 1_555
C32 C37 1_555 1_555
C33 C40 1_555 1_555
C34 C44 1_555 1_555
C35 C46 1_555 1_555
C36 C42 1_555 1_555
C37 C43 1_555 1_555
C38 C47 1_555 1_555
C39 C46 1_555 1_555
C43 C45 1_555 1_555

#END
