
#######################################################################
#
#                 Cambridge Crystallographic Data Centre
#                                CCDC 
#
#######################################################################
#
# If this CIF has been generated from an entry in the Cambridge 
# Structural Database, then it will include bibliographic, chemical, 
# crystal, experimental, refinement or atomic coordinate data resulting 
# from the CCDC's data processing and validation procedures.
#
#######################################################################

data_HUFZEP
_chemical_name_common            
'4,9,14,19,24,26,28,30,32,34-decakis(prop-2-yn-1-yloxy)hexacyclo[21.2.2.2$3,6!.2$8,11!.2$13,16!.2$18,21!]pentatriaconta-1(25),3,5,8,10,13,15,18,20,23,26,28,30,32,34-pentadecaene unknown solvate'
_chemical_formula_moiety         'C65 H50 O10'
_chemical_name_systematic        
'1,3,5,7,9(1,4)-pentakis(2,5-bis((prop-2-yn-1-yl)oxy)benzena)cyclodecaphane unknown solvate'
_symmetry_cell_setting           monoclinic
_symmetry_space_group_name_H-M   'P 21/c'
_symmetry_Int_Tables_number      14
_space_group_name_Hall           '-P 2ybc'
loop_
_symmetry_equiv_pos_site_id
_symmetry_equiv_pos_as_xyz
1 x,y,z
2 -x,1/2+y,1/2-z
3 -x,-y,-z
4 x,1/2-y,1/2+z
_cell_length_a                   13.8818(4)
_cell_length_b                   20.4822(5)
_cell_length_c                   21.2311(5)
_cell_angle_alpha                90
_cell_angle_beta                 93.696(2)
_cell_angle_gamma                90
_cell_volume                     6024.08
_exptl_crystal_colour            colorless
_exptl_crystal_description       block
_cell_formula_units_Z            4
loop_
_atom_site_label
_atom_site_type_symbol
_atom_site_fract_x
_atom_site_fract_y
_atom_site_fract_z
O1 O 0.87120(18) 0.70574(12) 0.66361(10)
O2 O 0.83075(16) 0.67393(12) 0.91951(10)
O3 O 1.12436(16) 0.57368(11) 0.79874(10)
O4 O 0.90496(15) 0.42940(10) 0.95686(9)
O5 O 1.03544(16) 0.34367(12) 0.75147(10)
O6 O 0.67963(15) 0.28489(11) 0.84011(9)
O7 O 0.73718(19) 0.32055(13) 0.59495(10)
O8 O 0.45091(17) 0.44067(12) 0.72401(10)
O9 O 0.6439(2) 0.55354(13) 0.54905(11)
O10 O 0.53972(18) 0.67521(11) 0.76722(10)
C1 C 0.7745(2) 0.71208(14) 0.75053(14)
C2 C 0.7628(2) 0.70514(14) 0.81481(14)
H1 H 0.7026 0.7156 0.8312
C3 C 0.8386(2) 0.68303(14) 0.85529(14)
C4 C 0.9284(2) 0.66933(13) 0.83323(14)
C5 C 0.9402(2) 0.67703(14) 0.76933(14)
H2 H 1.0013 0.6683 0.7534
C6 C 0.8642(2) 0.69723(14) 0.72835(14)
C7 C 0.9535(3) 0.67958(18) 0.63613(16)
H3 H 0.9599 0.6324 0.6458
H4 H 1.0127 0.7021 0.6531
C8 C 0.9402(3) 0.6894(2) 0.56873(18)
C9 C 0.9266(4) 0.6995(3) 0.5143(2)
H5 H 0.9156 0.7076 0.4704
C10 C 0.7366(3) 0.6696(2) 0.94103(16)
H6 H 0.6959 0.6410 0.9126
H7 H 0.7066 0.7134 0.9414
C11 C 0.7444(2) 0.6423(2) 1.00498(17)
C12 C 0.7478(3) 0.6194(2) 1.05488(17)
H8 H 0.7505 0.6006 1.0959
C13 C 1.0107(2) 0.64442(14) 0.87738(14)
H9 H 1.0727 0.6612 0.8633
H10 H 1.0029 0.6612 0.9205
C14 C 1.01346(19) 0.57070(14) 0.87888(12)
C15 C 0.95724(19) 0.53552(14) 0.91879(12)
H11 H 0.9176 0.5582 0.9463
C16 C 0.9582(2) 0.46727(14) 0.91903(12)
C17 C 1.01747(19) 0.43303(14) 0.87944(12)
C18 C 1.0725(2) 0.46837(14) 0.83930(13)
H12 H 1.1130 0.4460 0.8120
C19 C 1.0694(2) 0.53621(14) 0.83844(13)
C20 C 1.1423(3) 0.54466(17) 0.73996(15)
H13 H 1.0808 0.5313 0.7173
H14 H 1.1836 0.5055 0.7466
C21 C 1.1913(3) 0.59377(19) 0.70340(17)
C22 C 1.2317(4) 0.6328(2) 0.6745(2)
H15 H 1.2644 0.6645 0.6511
C23 C 0.8329(2) 0.46099(16) 0.99081(14)
H16 H 0.7868 0.4847 0.9615
H17 H 0.8629 0.4925 1.0215
C24 C 0.7837(2) 0.40925(18) 1.02348(14)
C25 C 0.7457(3) 0.3665(2) 1.05057(16)
H18 H 0.7153 0.3323 1.0722
C26 C 1.0179(2) 0.35901(14) 0.87922(13)
H19 H 1.0800 0.3430 0.8648
H20 H 1.0110 0.3426 0.9226
C27 C 0.9358(2) 0.33358(13) 0.83585(13)
C28 C 0.8469(2) 0.31844(14) 0.85915(13)
H21 H 0.8390 0.3221 0.9031
C29 C 0.7697(2) 0.29801(13) 0.81907(13)
C30 C 0.7812(2) 0.28853(13) 0.75473(13)
C31 C 0.8708(2) 0.30242(14) 0.73174(14)
H22 H 0.8802 0.2957 0.6883
C32 C 0.9467(2) 0.32596(14) 0.77144(13)
C33 C 1.0475(2) 0.34590(17) 0.68578(15)
H23 H 0.9983 0.3747 0.6645
H24 H 1.0406 0.3017 0.6673
C34 C 1.1446(3) 0.37141(18) 0.67776(17)
C35 C 1.2224(3) 0.3909(2) 0.6718(2)
H25 H 1.2858 0.4068 0.6669
C36 C 0.6571(2) 0.31804(18) 0.89600(15)
H26 H 0.6752 0.3647 0.8932
H27 H 0.6939 0.2987 0.9329
C37 C 0.5537(3) 0.31219(18) 0.90364(15)
C38 C 0.4714(3) 0.3075(2) 0.91217(17)
H28 H 0.4047 0.3038 0.9191
C39 C 0.6967(2) 0.26632(15) 0.71122(14)
H29 H 0.6526 0.2394 0.7352
H30 H 0.7206 0.2391 0.6770
C40 C 0.6422(2) 0.32460(15) 0.68278(13)
C41 C 0.5697(2) 0.35375(16) 0.71532(14)
H31 H 0.5522 0.3350 0.7539
C42 C 0.5224(2) 0.40953(16) 0.69286(14)
C43 C 0.5450(2) 0.43688(16) 0.63512(14)
C44 C 0.6162(2) 0.40737(16) 0.60226(13)
H32 H 0.6322 0.4251 0.5629
C45 C 0.6648(2) 0.35207(16) 0.62595(14)
C46 C 0.7602(3) 0.3459(2) 0.53548(16)
H33 H 0.8178 0.3229 0.5215
H34 H 0.7768 0.3927 0.5404
C47 C 0.6812(3) 0.3391(2) 0.48666(17)
C48 C 0.6161(4) 0.3341(2) 0.44839(18)
H35 H 0.5637 0.3302 0.4176
C49 C 0.4422(3) 0.42220(19) 0.78796(16)
H36 H 0.5064 0.4222 0.8111
H37 H 0.4146 0.3778 0.7901
C50 C 0.3790(3) 0.46926(19) 0.81600(16)
C51 C 0.3299(3) 0.5069(2) 0.8412(2)
H38 H 0.2904 0.5373 0.8614
C52 C 0.4931(3) 0.49718(15) 0.61005(15)
H39 H 0.4261 0.4968 0.6235
H40 H 0.4899 0.4963 0.5633
C53 C 0.5427(2) 0.55960(15) 0.63318(13)
C54 C 0.5159(2) 0.58943(16) 0.68826(14)
H41 H 0.4649 0.5713 0.7104
C55 C 0.5627(2) 0.64539(15) 0.71142(14)
C56 C 0.6352(2) 0.67395(15) 0.67956(13)
C57 C 0.6614(3) 0.64485(17) 0.62318(15)
H42 H 0.7098 0.6644 0.5998
C58 C 0.6167(2) 0.58756(16) 0.60156(14)
C59 C 0.7126(3) 0.5804(2) 0.5118(2)
H43 H 0.7418 0.5461 0.4862
H44 H 0.7644 0.6021 0.5384
C60 C 0.6564(4) 0.6311(3) 0.4684(2)
C61 C 0.6108(5) 0.6669(3) 0.4342(3)
H45 H 0.5743 0.6956 0.4068
C62 C 0.4857(3) 0.63747(17) 0.80885(15)
H46 H 0.5163 0.5942 0.8158
H47 H 0.4193 0.6307 0.7901
C63 C 0.4829(2) 0.67206(19) 0.86859(16)
C64 C 0.4767(3) 0.6979(3) 0.91729(19)
H48 H 0.4717 0.7189 0.9568
C65 C 0.6903(2) 0.73303(15) 0.70607(15)
H49 H 0.7145 0.7588 0.6710
H50 H 0.6463 0.7612 0.7290
loop_
_geom_bond_atom_site_label_1
_geom_bond_atom_site_label_2
_geom_bond_site_symmetry_1
_geom_bond_site_symmetry_2
O1 C6 1_555 1_555
O2 C3 1_555 1_555
O3 C19 1_555 1_555
O4 C16 1_555 1_555
O5 C32 1_555 1_555
O6 C29 1_555 1_555
O7 C45 1_555 1_555
O8 C42 1_555 1_555
O9 C58 1_555 1_555
O10 C55 1_555 1_555
C1 C2 1_555 1_555
C2 H1 1_555 1_555
C3 C2 1_555 1_555
C4 C3 1_555 1_555
C5 C4 1_555 1_555
H2 C5 1_555 1_555
C6 C1 1_555 1_555
C7 O1 1_555 1_555
H3 C7 1_555 1_555
H4 C7 1_555 1_555
C8 C7 1_555 1_555
C9 C8 1_555 1_555
H5 C9 1_555 1_555
C10 O2 1_555 1_555
H6 C10 1_555 1_555
H7 C10 1_555 1_555
C11 C10 1_555 1_555
C12 C11 1_555 1_555
H8 C12 1_555 1_555
C13 C4 1_555 1_555
H9 C13 1_555 1_555
H10 C13 1_555 1_555
C14 C13 1_555 1_555
C15 C14 1_555 1_555
H11 C15 1_555 1_555
C16 C15 1_555 1_555
C17 C16 1_555 1_555
C18 C17 1_555 1_555
H12 C18 1_555 1_555
C19 C14 1_555 1_555
C20 O3 1_555 1_555
H13 C20 1_555 1_555
H14 C20 1_555 1_555
C21 C20 1_555 1_555
C22 C21 1_555 1_555
H15 C22 1_555 1_555
C23 O4 1_555 1_555
H16 C23 1_555 1_555
H17 C23 1_555 1_555
C24 C23 1_555 1_555
C25 C24 1_555 1_555
H18 C25 1_555 1_555
C26 C17 1_555 1_555
H19 C26 1_555 1_555
H20 C26 1_555 1_555
C27 C26 1_555 1_555
C28 C27 1_555 1_555
H21 C28 1_555 1_555
C29 C28 1_555 1_555
C30 C29 1_555 1_555
C31 C30 1_555 1_555
H22 C31 1_555 1_555
C32 C27 1_555 1_555
C33 O5 1_555 1_555
H23 C33 1_555 1_555
H24 C33 1_555 1_555
C34 C33 1_555 1_555
C35 C34 1_555 1_555
H25 C35 1_555 1_555
C36 O6 1_555 1_555
H26 C36 1_555 1_555
H27 C36 1_555 1_555
C37 C36 1_555 1_555
C38 C37 1_555 1_555
H28 C38 1_555 1_555
C39 C30 1_555 1_555
H29 C39 1_555 1_555
H30 C39 1_555 1_555
C40 C39 1_555 1_555
C41 C40 1_555 1_555
H31 C41 1_555 1_555
C42 C41 1_555 1_555
C43 C42 1_555 1_555
C44 C43 1_555 1_555
H32 C44 1_555 1_555
C45 C40 1_555 1_555
C46 O7 1_555 1_555
H33 C46 1_555 1_555
H34 C46 1_555 1_555
C47 C46 1_555 1_555
C48 C47 1_555 1_555
H35 C48 1_555 1_555
C49 O8 1_555 1_555
H36 C49 1_555 1_555
H37 C49 1_555 1_555
C50 C49 1_555 1_555
C51 C50 1_555 1_555
H38 C51 1_555 1_555
C52 C43 1_555 1_555
H39 C52 1_555 1_555
H40 C52 1_555 1_555
C53 C52 1_555 1_555
C54 C53 1_555 1_555
H41 C54 1_555 1_555
C55 C54 1_555 1_555
C56 C55 1_555 1_555
C57 C56 1_555 1_555
H42 C57 1_555 1_555
C58 C53 1_555 1_555
C59 O9 1_555 1_555
H43 C59 1_555 1_555
H44 C59 1_555 1_555
C60 C59 1_555 1_555
C61 C60 1_555 1_555
H45 C61 1_555 1_555
C62 O10 1_555 1_555
H46 C62 1_555 1_555
H47 C62 1_555 1_555
C63 C62 1_555 1_555
C64 C63 1_555 1_555
H48 C64 1_555 1_555
C65 C1 1_555 1_555
H49 C65 1_555 1_555
H50 C65 1_555 1_555
C5 C6 1_555 1_555
C18 C19 1_555 1_555
C31 C32 1_555 1_555
C44 C45 1_555 1_555
C56 C65 1_555 1_555
C57 C58 1_555 1_555

#END
