
#######################################################################
#
#                 Cambridge Crystallographic Data Centre
#                                CCDC 
#
#######################################################################
#
# If this CIF has been generated from an entry in the Cambridge 
# Structural Database, then it will include bibliographic, chemical, 
# crystal, experimental, refinement or atomic coordinate data resulting 
# from the CCDC's data processing and validation procedures.
#
#######################################################################

data_HUGBER
_chemical_name_common            
'(6-((2,5-bis(chloromethyl)-3,4-dihydroxytetrahydrofuran-2-yl)oxy)-3-chloro-4,5-dihydroxytetrahydro-2H-pyran-2-yl)methyl acetate dihydrate'
_chemical_formula_moiety         'C14 H21 Cl3 O9,2(H2 O1)'
_chemical_name_systematic        
'(6-[2,5-bis(chloromethyl)-3,4-dihydroxytetrahydrofuran-2-yloxy]-3-chloro-4,5-dihydroxy-3,4,5,6-tetrahydro-2H-pyran-2-yl)methyl acetate dihydrate'
_symmetry_cell_setting           orthorhombic
_symmetry_space_group_name_H-M   'P 21 21 21'
_symmetry_Int_Tables_number      19
_space_group_name_Hall           'P 2ac 2ab'
loop_
_symmetry_equiv_pos_site_id
_symmetry_equiv_pos_as_xyz
1 x,y,z
2 1/2-x,-y,1/2+z
3 -x,1/2+y,1/2-z
4 1/2+x,1/2-y,-z
_cell_length_a                   7.5824(8)
_cell_length_b                   14.2703(14)
_cell_length_c                   19.507(2)
_cell_angle_alpha                90
_cell_angle_beta                 90
_cell_angle_gamma                90
_cell_volume                     2110.72
_exptl_crystal_colour            colorless
_exptl_crystal_description       block
_cell_formula_units_Z            4
_exptl_crystal_recrystallization_method 'ethyl acetate'
loop_
_atom_site_label
_atom_site_type_symbol
_atom_site_fract_x
_atom_site_fract_y
_atom_site_fract_z
Cl1 Cl 1.02954(11) 0.51019(6) 0.41375(4)
Cl2 Cl 0.69677(15) 0.68921(6) 0.81804(4)
Cl3 Cl 0.80356(16) 0.31574(7) 0.75058(6)
O1 O 0.8271(2) 0.49683(12) 0.55568(8)
O2 O 0.7716(2) 0.62834(12) 0.62281(8)
O3 O 1.1081(2) 0.69493(13) 0.60293(9)
H1 H 1.0327 0.7349 0.6101
O4 O 1.1037(3) 0.70723(12) 0.45730(9)
H2 H 1.0639 0.7447 0.4295
O5 O 0.5109(3) 0.42018(15) 0.50144(11)
O6 O 0.7424(2) 0.52803(11) 0.71868(9)
O7 O 0.4430(3) 0.67403(16) 0.62983(11)
H3 H 0.3350 0.6751 0.6278
O8 O 0.2886(3) 0.47783(15) 0.67508(11)
H4 H 0.2590 0.4845 0.7152
O9 O 0.3805(4) 0.35928(18) 0.41001(13)
C1 C 0.9025(4) 0.56650(18) 0.59817(13)
H9 H 0.9602 0.5361 0.6373
C2 C 1.0379(4) 0.62448(18) 0.55956(13)
H10 H 1.1350 0.5825 0.5471
C3 C 0.9628(4) 0.66439(18) 0.49342(13)
H11 H 0.8761 0.7127 0.5051
C4 C 0.8711(4) 0.58870(19) 0.45181(13)
H12 H 0.8051 0.6191 0.4148
C5 C 0.7409(4) 0.53505(18) 0.49644(14)
H13 H 0.6492 0.5786 0.5119
C6 C 0.6536(4) 0.4552(2) 0.45939(16)
H14 H 0.6081 0.4765 0.4156
H15 H 0.7385 0.4057 0.4509
C7 C 0.6951(4) 0.61492(17) 0.68933(13)
C8 C 0.4961(4) 0.61162(19) 0.68120(14)
H16 H 0.4398 0.6288 0.7247
C9 C 0.4633(4) 0.5094(2) 0.66658(14)
H17 H 0.4991 0.4967 0.6192
C10 C 0.5962(4) 0.46240(19) 0.71439(15)
H18 H 0.5433 0.4546 0.7599
C11 C 0.6622(5) 0.3694(2) 0.68905(17)
H19 H 0.7261 0.3782 0.6465
H20 H 0.5627 0.3285 0.6799
C12 C 0.7704(5) 0.6936(2) 0.73225(13)
H21 H 0.7364 0.7532 0.7123
H22 H 0.8981 0.6899 0.7315
C13 C 0.3859(5) 0.3717(2) 0.47033(19)
C14 C 0.2524(5) 0.3352(3) 0.52023(19)
H23 H 0.3003 0.2821 0.5441
H24 H 0.1479 0.3166 0.4960
H25 H 0.2233 0.3834 0.5526
O10 O 0.9171(3) 0.85590(14) 0.60537(13)
H5 H 0.8167 0.8417 0.5890
H6 H 0.9044 0.9015 0.6329
O11 O 0.0863(3) 0.51355(17) 0.79506(11)
H7 H -0.0125 0.5198 0.7750
H8 H 0.0905 0.5519 0.8283
loop_
_geom_bond_atom_site_label_1
_geom_bond_atom_site_label_2
_geom_bond_site_symmetry_1
_geom_bond_site_symmetry_2
Cl1 C4 1_555 1_555
Cl2 C12 1_555 1_555
Cl3 C11 1_555 1_555
O1 C1 1_555 1_555
O2 C1 1_555 1_555
O3 H1 1_555 1_555
O4 H2 1_555 1_555
O5 C6 1_555 1_555
O6 C7 1_555 1_555
O7 H3 1_555 1_555
O8 H4 1_555 1_555
O9 C13 1_555 1_555
O10 H5 1_555 1_555
H6 O10 1_555 1_555
O11 H7 1_555 1_555
H8 O11 1_555 1_555
C1 H9 1_555 1_555
C2 O3 1_555 1_555
H10 C2 1_555 1_555
C3 O4 1_555 1_555
H11 C3 1_555 1_555
C4 C3 1_555 1_555
H12 C4 1_555 1_555
C5 O1 1_555 1_555
H13 C5 1_555 1_555
C6 C5 1_555 1_555
H14 C6 1_555 1_555
H15 C6 1_555 1_555
C7 O2 1_555 1_555
C8 O7 1_555 1_555
H16 C8 1_555 1_555
C9 O8 1_555 1_555
H17 C9 1_555 1_555
C10 O6 1_555 1_555
H18 C10 1_555 1_555
C11 C10 1_555 1_555
H19 C11 1_555 1_555
H20 C11 1_555 1_555
C12 C7 1_555 1_555
H21 C12 1_555 1_555
H22 C12 1_555 1_555
C13 O5 1_555 1_555
C14 C13 1_555 1_555
H23 C14 1_555 1_555
H24 C14 1_555 1_555
H25 C14 1_555 1_555
C1 C2 1_555 1_555
C2 C3 1_555 1_555
C4 C5 1_555 1_555
C7 C8 1_555 1_555
C8 C9 1_555 1_555
C9 C10 1_555 1_555

#END
