
#######################################################################
#
#                 Cambridge Crystallographic Data Centre
#                                CCDC 
#
#######################################################################
#
# If this CIF has been generated from an entry in the Cambridge 
# Structural Database, then it will include bibliographic, chemical, 
# crystal, experimental, refinement or atomic coordinate data resulting 
# from the CCDC's data processing and validation procedures.
#
#######################################################################

data_HUGDAP
_chemical_formula_moiety         'C12 H8 Cl2 N4 O1'
_chemical_name_systematic        
N'-[(E)-2,6-Dichlorobenzylidene]pyrazine-2-carbohydrazide
_symmetry_cell_setting           monoclinic
_symmetry_space_group_name_H-M   'P 21/n'
_symmetry_Int_Tables_number      14
_space_group_name_Hall           '-P 2yn'
loop_
_symmetry_equiv_pos_site_id
_symmetry_equiv_pos_as_xyz
1 x,y,z
2 1/2-x,1/2+y,1/2-z
3 -x,-y,-z
4 1/2+x,1/2-y,1/2+z
_cell_length_a                   6.9325(3)
_cell_length_b                   24.5997(13)
_cell_length_c                   7.6136(4)
_cell_angle_alpha                90
_cell_angle_beta                 111.709(3)
_cell_angle_gamma                90
_cell_volume                     1206.31
_exptl_crystal_colour            colorless
_exptl_crystal_description       plate
_chemical_melting_point          '467-469 K'
_cell_formula_units_Z            4
_exptl_crystal_recrystallization_method ethanol
loop_
_atom_site_label
_atom_site_type_symbol
_atom_site_fract_x
_atom_site_fract_y
_atom_site_fract_z
Cl1 Cl 0.21383(14) 0.04241(3) -0.00147(12)
Cl2 Cl 0.35539(13) 0.19347(3) 0.56395(11)
O1 O 0.4468(3) 0.31301(9) 0.2140(3)
N1 N 0.2594(4) 0.41462(11) -0.2597(4)
N2 N 0.2914(4) 0.30126(11) -0.2806(4)
N3 N 0.2987(4) 0.24065(10) 0.0247(4)
H1 H 0.2381 0.2284 -0.0915
N4 N 0.3326(4) 0.20678(11) 0.1769(4)
C1 C 0.3138(4) 0.32651(13) -0.1186(4)
C2 C 0.2997(5) 0.38272(13) -0.1084(5)
H2 H 0.3195 0.3990 0.0102
C3 C 0.2393(5) 0.38910(14) -0.4200(5)
H3 H 0.2127 0.4101 -0.5312
C4 C 0.2556(5) 0.33325(13) -0.4310(4)
H4 H 0.2409 0.3172 -0.5488
C5 C 0.3600(5) 0.29311(12) 0.0566(4)
C6 C 0.2611(5) 0.15869(13) 0.1347(4)
H5 H 0.1945 0.1492 0.0053
C7 C 0.2784(5) 0.11748(13) 0.2801(4)
C8 C 0.2472(5) 0.06223(14) 0.2280(4)
C9 C 0.2446(5) 0.02134(14) 0.3508(5)
H6 H 0.2212 -0.0153 0.3084
C10 C 0.2764(5) 0.03408(14) 0.5368(5)
H7 H 0.2743 0.0063 0.6227
C11 C 0.3110(5) 0.08741(13) 0.5960(5)
H8 H 0.3330 0.0963 0.7234
C12 C 0.3142(5) 0.12832(13) 0.4710(5)
loop_
_geom_bond_atom_site_label_1
_geom_bond_atom_site_label_2
_geom_bond_site_symmetry_1
_geom_bond_site_symmetry_2
Cl1 C8 1_555 1_555
Cl2 C12 1_555 1_555
O1 C5 1_555 1_555
N1 C2 1_555 1_555
N2 C1 1_555 1_555
N3 H1 1_555 1_555
N4 N3 1_555 1_555
C1 C2 1_555 1_555
C2 H2 1_555 1_555
C3 N1 1_555 1_555
H3 C3 1_555 1_555
C4 N2 1_555 1_555
H4 C4 1_555 1_555
C5 N3 1_555 1_555
C6 N4 1_555 1_555
H5 C6 1_555 1_555
C7 C6 1_555 1_555
C8 C7 1_555 1_555
C9 C8 1_555 1_555
H6 C9 1_555 1_555
C10 C9 1_555 1_555
H7 C10 1_555 1_555
C11 C10 1_555 1_555
H8 C11 1_555 1_555
C12 C7 1_555 1_555
C1 C5 1_555 1_555
C3 C4 1_555 1_555
C11 C12 1_555 1_555

#END
