
#######################################################################
#
#                 Cambridge Crystallographic Data Centre
#                                CCDC 
#
#######################################################################
#
# If this CIF has been generated from an entry in the Cambridge 
# Structural Database, then it will include bibliographic, chemical, 
# crystal, experimental, refinement or atomic coordinate data resulting 
# from the CCDC's data processing and validation procedures.
#
#######################################################################

data_HUGGIA
_chemical_formula_moiety         'C20 H20 N2 O2'
_chemical_name_systematic        
1,3-Bis(4-methylbenzyl)pyrimidine-2,4(1H,3H)-dione
_symmetry_cell_setting           triclinic
_symmetry_space_group_name_H-M   'P -1'
_symmetry_Int_Tables_number      2
_space_group_name_Hall           '-P 1'
loop_
_symmetry_equiv_pos_site_id
_symmetry_equiv_pos_as_xyz
1 x,y,z
2 -x,-y,-z
_cell_length_a                   9.4182(19)
_cell_length_b                   10.102(2)
_cell_length_c                   10.448(2)
_cell_angle_alpha                66.25(3)
_cell_angle_beta                 80.79(3)
_cell_angle_gamma                71.18(3)
_cell_volume                     860.7
_exptl_crystal_colour            colorless
_exptl_crystal_description       prism
_cell_formula_units_Z            2
_exptl_crystal_recrystallization_method ethanol
loop_
_atom_site_label
_atom_site_type_symbol
_atom_site_fract_x
_atom_site_fract_y
_atom_site_fract_z
O1 O 0.4982(3) 0.1871(3) 0.6026(3)
O2 O 0.3392(2) 0.4909(3) 0.8542(2)
N1 N 0.4156(2) 0.3369(3) 0.7299(2)
N2 N 0.2678(3) 0.5867(3) 0.6284(3)
C1 C 0.3407(3) 0.4728(3) 0.7458(3)
C2 C 0.6580(3) 0.1972(3) 0.8500(3)
C3 C 0.1828(3) 0.7346(3) 0.6372(4)
H1 H 0.1960 0.8147 0.5494
H2 H 0.2227 0.7467 0.7105
C4 C 0.3402(3) 0.4340(4) 0.4937(3)
H3 H 0.3370 0.4235 0.4099
C5 C 0.2677(3) 0.5635(4) 0.5079(3)
H4 H 0.2143 0.6422 0.4330
C6 C 0.7652(3) 0.0843(3) 0.8165(3)
H5 H 0.7358 0.0149 0.7973
C7 C 0.4931(3) 0.2105(3) 0.8525(3)
H6 H 0.4827 0.1170 0.8550
H7 H 0.4451 0.2249 0.9372
C8 C -0.2911(3) 0.7765(3) 0.7206(3)
C9 C 0.4242(3) 0.3092(4) 0.6070(3)
C10 C -0.0848(4) 0.8346(4) 0.5629(3)
H8 H -0.0510 0.8844 0.4730
C11 C 0.0171(3) 0.7490(3) 0.6673(3)
C12 C 0.9150(4) 0.0739(4) 0.8113(3)
H9 H 0.9854 -0.0040 0.7901
C13 C -0.0374(4) 0.6768(4) 0.7999(3)
H10 H 0.0286 0.6189 0.8726
C14 C -0.1891(4) 0.6899(3) 0.8254(3)
H11 H -0.2231 0.6392 0.9150
C15 C 0.9639(4) 0.1749(4) 0.8365(3)
C16 C -0.4572(3) 0.7930(4) 0.7502(4)
H12 H -0.5029 0.8770 0.7787
H13 H -0.4712 0.7025 0.8235
H14 H -0.5030 0.8099 0.6671
C17 C 0.7049(4) 0.2967(4) 0.8803(3)
H15 H 0.6349 0.3714 0.9064
C18 C -0.2361(4) 0.8480(4) 0.5894(4)
H16 H -0.3022 0.9066 0.5168
C19 C 0.8569(4) 0.2856(4) 0.8720(4)
H17 H 0.8869 0.3548 0.8909
C20 C 1.1291(4) 0.1673(6) 0.8239(4)
H18 H 1.1884 0.0636 0.8601
H19 H 1.1462 0.2195 0.8764
H20 H 1.1572 0.2137 0.7274
loop_
_geom_bond_atom_site_label_1
_geom_bond_atom_site_label_2
_geom_bond_site_symmetry_1
_geom_bond_site_symmetry_2
O1 C9 1_555 1_555
O2 C1 1_555 1_555
N1 C1 1_555 1_555
N2 C1 1_555 1_555
C2 C6 1_555 1_555
C3 N2 1_555 1_555
H1 C3 1_555 1_555
H2 C3 1_555 1_555
C4 H3 1_555 1_555
C5 N2 1_555 1_555
H4 C5 1_555 1_555
C6 H5 1_555 1_555
C7 N1 1_555 1_555
H6 C7 1_555 1_555
H7 C7 1_555 1_555
C8 C14 1_555 1_555
C9 N1 1_555 1_555
C10 H8 1_555 1_555
C11 C3 1_555 1_555
C12 C6 1_555 1_555
H9 C12 1_555 1_555
C13 C11 1_555 1_555
H10 C13 1_555 1_555
C14 C13 1_555 1_555
H11 C14 1_555 1_555
C15 C12 1_555 1_555
C16 C8 1_555 1_555
H12 C16 1_555 1_555
H13 C16 1_555 1_555
H14 C16 1_555 1_555
C17 C2 1_555 1_555
H15 C17 1_555 1_555
C18 C8 1_555 1_555
H16 C18 1_555 1_555
C19 C15 1_555 1_555
H17 C19 1_555 1_555
C20 C15 1_555 1_555
H18 C20 1_555 1_555
H19 C20 1_555 1_555
H20 C20 1_555 1_555
C2 C7 1_555 1_555
C4 C5 1_555 1_555
C4 C9 1_555 1_555
C10 C11 1_555 1_555
C10 C18 1_555 1_555
C17 C19 1_555 1_555

#END
