
#######################################################################
#
#                 Cambridge Crystallographic Data Centre
#                                CCDC 
#
#######################################################################
#
# If this CIF has been generated from an entry in the Cambridge 
# Structural Database, then it will include bibliographic, chemical, 
# crystal, experimental, refinement or atomic coordinate data resulting 
# from the CCDC's data processing and validation procedures.
#
#######################################################################

data_HUGHOH
_chemical_formula_moiety         'C12 H12 Cl1 N1 O1'
_chemical_name_systematic        
2-Chloro-3-hydroxymethyl-7,8-dimethylquinoline
_symmetry_cell_setting           monoclinic
_symmetry_space_group_name_H-M   'P 21/c'
_symmetry_Int_Tables_number      14
_space_group_name_Hall           '-P 2ybc'
loop_
_symmetry_equiv_pos_site_id
_symmetry_equiv_pos_as_xyz
1 x,y,z
2 -x,1/2+y,1/2-z
3 -x,-y,-z
4 x,1/2-y,1/2+z
_cell_length_a                   17.4492(12)
_cell_length_b                   4.6271(2)
_cell_length_c                   14.3773(7)
_cell_angle_alpha                90
_cell_angle_beta                 113.297(7)
_cell_angle_gamma                90
_cell_volume                     1066.17
_exptl_crystal_colour            colorless
_exptl_crystal_description       plate
_cell_formula_units_Z            4
_exptl_crystal_recrystallization_method chloroform
loop_
_atom_site_label
_atom_site_type_symbol
_atom_site_fract_x
_atom_site_fract_y
_atom_site_fract_z
Cl1 Cl 0.37792(3) 0.62190(11) 0.12385(3)
O1 O 0.46228(9) 0.7503(3) 0.45560(9)
H1 H 0.4892 0.8991 0.4763
N1 N 0.27105(9) 0.2833(3) 0.15172(10)
C1 C 0.33144(11) 0.4587(4) 0.19891(12)
C2 C 0.36337(11) 0.5327(3) 0.30325(12)
C3 C 0.32309(11) 0.4071(3) 0.35710(12)
H2 H 0.3403 0.4493 0.4256
C4 C 0.25620(10) 0.2154(4) 0.31127(12)
C5 C 0.21258(12) 0.0807(4) 0.36385(13)
H3 H 0.2273 0.1186 0.4323
C6 C 0.14924(12) -0.1037(4) 0.31451(13)
H4 H 0.1210 -0.1899 0.3502
C7 C 0.12436(11) -0.1703(4) 0.21072(13)
C8 C 0.16551(11) -0.0432(4) 0.15657(12)
C9 C 0.23169(10) 0.1536(3) 0.20687(12)
C10 C 0.43655(11) 0.7321(4) 0.34903(13)
H5 H 0.4825 0.6623 0.3334
H6 H 0.4215 0.9231 0.3196
C11 C 0.05264(12) -0.3765(4) 0.16298(16)
H7 H 0.0510 -0.4393 0.0986
H8 H 0.0013 -0.2809 0.1535
H9 H 0.0599 -0.5409 0.2064
C12 C 0.14234(13) -0.1070(4) 0.04636(13)
H10 H 0.1910 -0.1694 0.0363
H11 H 0.1203 0.0644 0.0073
H12 H 0.1009 -0.2568 0.0250
H13? H 0.0238 -0.4015 0.2071
H14? H 0.0735 -0.5598 0.1521
H15? H 0.0149 -0.2998 0.0993
H16? H 0.0838 -0.0718 0.0095
H17? H 0.1545 -0.3056 0.0384
H18? H 0.1739 0.0156 0.0207
H19? H 0.4914 0.6102 0.4824
loop_
_geom_bond_atom_site_label_1
_geom_bond_atom_site_label_2
_geom_bond_site_symmetry_1
_geom_bond_site_symmetry_2
Cl1 C1 1_555 1_555
O1 H1 1_555 1_555
N1 C1 1_555 1_555
C1 C2 1_555 1_555
C2 C3 1_555 1_555
C3 H2 1_555 1_555
C4 C3 1_555 1_555
C5 C4 1_555 1_555
H3 C5 1_555 1_555
C6 C5 1_555 1_555
H4 C6 1_555 1_555
C7 C6 1_555 1_555
C8 C7 1_555 1_555
C9 N1 1_555 1_555
C10 O1 1_555 1_555
H5 C10 1_555 1_555
H6 C10 1_555 1_555
C11 C7 1_555 1_555
H7 C11 1_555 1_555
H8 C11 1_555 1_555
H9 C11 1_555 1_555
C12 C8 1_555 1_555
H10 C12 1_555 1_555
H11 C12 1_555 1_555
H12 C12 1_555 1_555
C2 C10 1_555 1_555
C4 C9 1_555 1_555
C8 C9 1_555 1_555

#END
