
#######################################################################
#
#                 Cambridge Crystallographic Data Centre
#                                CCDC 
#
#######################################################################
#
# If this CIF has been generated from an entry in the Cambridge 
# Structural Database, then it will include bibliographic, chemical, 
# crystal, experimental, refinement or atomic coordinate data resulting 
# from the CCDC's data processing and validation procedures.
#
#######################################################################

data_HUGKOK
_chemical_formula_moiety         'C30 H39 O1 P1'
_chemical_name_systematic        'Tris(4-t-butylphenyl)phosphine oxide'
_symmetry_cell_setting           orthorhombic
_symmetry_space_group_name_H-M   'P n m a'
_symmetry_Int_Tables_number      62
_space_group_name_Hall           '-P 2ac 2n'
loop_
_symmetry_equiv_pos_site_id
_symmetry_equiv_pos_as_xyz
1 x,y,z
2 1/2-x,-y,1/2+z
3 -x,1/2+y,-z
4 1/2+x,1/2-y,1/2-z
5 -x,-y,-z
6 1/2+x,y,1/2-z
7 x,1/2-y,z
8 1/2-x,1/2+y,1/2+z
_cell_length_a                   11.7986(10)
_cell_length_b                   20.9246(18)
_cell_length_c                   10.5204(9)
_cell_angle_alpha                90
_cell_angle_beta                 90
_cell_angle_gamma                90
_cell_volume                     2597.29
_exptl_crystal_colour            colorless
_exptl_crystal_description       block
_cell_formula_units_Z            4
loop_
_atom_site_label
_atom_site_type_symbol
_atom_site_fract_x
_atom_site_fract_y
_atom_site_fract_z
C1 C 0.77025(14) 0.31883(8) 0.30317(15)
C2 C 0.66436(14) 0.33374(8) 0.35431(16)
H1 H 0.6014 0.3093 0.3328
C3 C 0.65284(15) 0.38473(8) 0.43698(17)
H2 H 0.5814 0.3944 0.4689
C4 C 0.74507(15) 0.42213(8) 0.47393(16)
C5 C 0.84902(15) 0.40734(9) 0.42064(17)
H3 H 0.9119 0.4319 0.4419
C6 C 0.86199(14) 0.35678(9) 0.33627(17)
H4 H 0.9329 0.3483 0.3016
C7 C 0.72901(17) 0.47686(9) 0.56942(18)
C8 C 0.8417(2) 0.50323(12) 0.6179(2)
H5 H 0.8839 0.4696 0.6579
H6 H 0.8276 0.5366 0.6784
H7 H 0.8844 0.5201 0.5478
C9 C 0.6599(2) 0.45282(11) 0.6836(2)
H8 H 0.5866 0.4390 0.6553
H9 H 0.6513 0.4868 0.7443
H10 H 0.6988 0.4176 0.7228
C10 C 0.6641(2) 0.53167(10) 0.5049(2)
H11 H 0.7100 0.5498 0.4387
H12 H 0.6467 0.5640 0.5667
H13 H 0.5950 0.5155 0.4691
C11 C 0.6881(2) 0.2500 0.0829(2)
C12 C 0.64869(17) 0.30649(9) 0.03060(18)
H14 H 0.6743 0.3453 0.0627
C13 C 0.57171(17) 0.30618(9) -0.06884(18)
H15 H 0.5472 0.3450 -0.1021
C14 C 0.5301(2) 0.2500 -0.1204(2)
C15 C 0.4417(2) 0.2500 -0.2271(2)
C16 C 0.3243(4) 0.2500 -0.1637(5)
H16 H 0.3112 0.2906 -0.1240
H17 H 0.2671 0.2500 -0.2269
C17 C 0.4487(4) 0.3089(2) -0.3094(4)
H18 H 0.3956 0.3054 -0.3782
H19 H 0.5240 0.3129 -0.3429
H20 H 0.4309 0.3460 -0.2594
O1 O 0.91419(9) 0.2500(7) 0.15255(12)
P1 P 0.79669(5) 0.2500(7) 0.20357(5)
C1F C 0.77025(14) 0.18117(8) 0.30317(15)
C2F C 0.66436(14) 0.16626(8) 0.35431(16)
H1F H 0.6014 0.1907 0.3328
C3F C 0.65284(15) 0.11527(8) 0.43698(17)
H2F H 0.5814 0.1056 0.4689
C4F C 0.74507(15) 0.07787(8) 0.47393(16)
C5F C 0.84902(15) 0.09266(9) 0.42064(17)
H3F H 0.9119 0.0681 0.4419
C6F C 0.86199(14) 0.14322(9) 0.33627(17)
H4F H 0.9329 0.1517 0.3016
C7F C 0.72901(17) 0.02314(9) 0.56942(18)
C8F C 0.8417(2) -0.00323(12) 0.6179(2)
H5F H 0.8839 0.0304 0.6579
H6F H 0.8276 -0.0366 0.6784
H7F H 0.8844 -0.0201 0.5478
C9F C 0.6599(2) 0.04718(11) 0.6836(2)
H8F H 0.5866 0.0610 0.6553
H9F H 0.6513 0.0132 0.7443
H10F H 0.6988 0.0824 0.7228
C10F C 0.6641(2) -0.03167(10) 0.5049(2)
H11F H 0.7100 -0.0498 0.4387
H12F H 0.6467 -0.0640 0.5667
H13F H 0.5950 -0.0155 0.4691
C12F C 0.64869(17) 0.19351(9) 0.03060(18)
H14F H 0.6743 0.1547 0.0627
C13F C 0.57171(17) 0.19382(9) -0.06884(18)
H15F H 0.5472 0.1550 -0.1021
H16F H 0.3112 0.2094 -0.1240
C17F C 0.4487(4) 0.1911(2) -0.3094(4)
H18F H 0.3956 0.1946 -0.3782
H19F H 0.5240 0.1871 -0.3429
H20F H 0.4309 0.1540 -0.2594
C18? C 0.5182(14) 0.2500 -0.3521(17)
C19? C 0.3708(5) 0.3102(7) -0.2313(5)
H21? H 0.4698 0.2500 -0.4229
H22? H 0.5516 0.2086 -0.3543
H23? H 0.3178 0.3074 -0.3003
H24? H 0.4193 0.3465 -0.2436
H25? H 0.3303 0.3148 -0.1526
loop_
_geom_bond_atom_site_label_1
_geom_bond_atom_site_label_2
_geom_bond_site_symmetry_1
_geom_bond_site_symmetry_2
C1 C2 1_555 1_555
C2 H1 1_555 1_555
C3 C2 1_555 1_555
H2 C3 1_555 1_555
C4 C3 1_555 1_555
C5 C4 1_555 1_555
H3 C5 1_555 1_555
C6 C1 1_555 1_555
H4 C6 1_555 1_555
C7 C4 1_555 1_555
C8 C7 1_555 1_555
H5 C8 1_555 1_555
H6 C8 1_555 1_555
H7 C8 1_555 1_555
C9 C7 1_555 1_555
H8 C9 1_555 1_555
H9 C9 1_555 1_555
H10 C9 1_555 1_555
C10 C7 1_555 1_555
H11 C10 1_555 1_555
H12 C10 1_555 1_555
H13 C10 1_555 1_555
C11 C12 1_555 1_555
C12 H14 1_555 1_555
C13 C12 1_555 1_555
H15 C13 1_555 1_555
C14 C13 1_555 1_555
C15 C14 1_555 1_555
C16 C15 1_555 1_555
H16 C16 1_555 1_555
H17 C16 1_555 1_555
C17 C15 1_555 1_555
H18 C17 1_555 1_555
H19 C17 1_555 1_555
H20 C17 1_555 1_555
O1 P1 1_555 1_555
P1 C1 1_555 1_555
C1F P1 1_555 1_555
C2F C1F 1_555 1_555
H1F C2F 1_555 1_555
C3F C2F 1_555 1_555
H2F C3F 1_555 1_555
C4F C3F 1_555 1_555
C5F C4F 1_555 1_555
H3F C5F 1_555 1_555
C6F C1F 1_555 1_555
H4F C6F 1_555 1_555
C7F C4F 1_555 1_555
C8F C7F 1_555 1_555
H5F C8F 1_555 1_555
H6F C8F 1_555 1_555
H7F C8F 1_555 1_555
C9F C7F 1_555 1_555
H8F C9F 1_555 1_555
H9F C9F 1_555 1_555
H10F C9F 1_555 1_555
C10F C7F 1_555 1_555
H11F C10F 1_555 1_555
H12F C10F 1_555 1_555
H13F C10F 1_555 1_555
C12F C11 1_555 1_555
H14F C12F 1_555 1_555
C13F C14 1_555 1_555
H15F C13F 1_555 1_555
H16F C16 1_555 1_555
C17F C15 1_555 1_555
H18F C17F 1_555 1_555
H19F C17F 1_555 1_555
H20F C17F 1_555 1_555
C5 C6 1_555 1_555
C11 P1 1_555 1_555
C5F C6F 1_555 1_555
C12F C13F 1_555 1_555

#END
