
#######################################################################
#
#                 Cambridge Crystallographic Data Centre
#                                CCDC 
#
#######################################################################
#
# If this CIF has been generated from an entry in the Cambridge 
# Structural Database, then it will include bibliographic, chemical, 
# crystal, experimental, refinement or atomic coordinate data resulting 
# from the CCDC's data processing and validation procedures.
#
#######################################################################

data_HUGKAV
_chemical_formula_moiety         'C24 H23 N1 O2'
_chemical_name_systematic        
'\a-Benzyl-N-(diphenylmethylene)glycine ethyl ester'
_symmetry_cell_setting           monoclinic
_symmetry_space_group_name_H-M   'P 21/c'
_symmetry_Int_Tables_number      14
_space_group_name_Hall           '-P 2ybc'
loop_
_symmetry_equiv_pos_site_id
_symmetry_equiv_pos_as_xyz
1 x,y,z
2 -x,1/2+y,1/2-z
3 -x,-y,-z
4 x,1/2-y,1/2+z
_cell_length_a                   10.4539(10)
_cell_length_b                   9.8315(10)
_cell_length_c                   19.8896(19)
_cell_angle_alpha                90
_cell_angle_beta                 93.661(2)
_cell_angle_gamma                90
_cell_volume                     2040.03
_exptl_crystal_colour            colorless
_cell_formula_units_Z            4
loop_
_atom_site_label
_atom_site_type_symbol
_atom_site_fract_x
_atom_site_fract_y
_atom_site_fract_z
N1 N 0.1528(1) 0.5422(2) 0.0868(1)
O1 O 0.1626(2) 0.2754(2) 0.1076(1)
O2 O 0.1772(2) 0.2348(2) -0.0006(1)
C1 C 0.2464(3) 0.0524(3) 0.1314(2)
C2 C 0.1313(3) 0.1323(3) 0.1207(2)
C3 C 0.1849(2) 0.3110(2) 0.0457(1)
C4 C 0.2251(2) 0.4593(2) 0.0415(1)
C5 C 0.2019(2) 0.5123(2) -0.0304(1)
C6 C 0.2607(2) 0.6500(2) -0.0399(1)
C7 C 0.3862(2) 0.6613(3) -0.0558(1)
C8 C 0.4411(3) 0.7853(4) -0.0647(2)
C9 C 0.3733(4) 0.9014(4) -0.0581(2)
C10 C 0.2476(4) 0.8939(3) -0.0421(1)
C11 C 0.1915(2) 0.7678(2) -0.0327(1)
C12 C 0.2103(2) 0.6069(2) 0.1352(1)
C13 C 0.3518(2) 0.6013(2) 0.1538(1)
C14 C 0.4324(2) 0.7006(2) 0.1314(1)
C15 C 0.5625(2) 0.6967(3) 0.1492(2)
C16 C 0.6120(3) 0.5960(4) 0.1897(1)
C17 C 0.5347(3) 0.4968(3) 0.2122(1)
C18 C 0.4036(2) 0.4987(3) 0.1943(1)
C19 C 0.1329(2) 0.6981(2) 0.1764(1)
C20 C 0.0151(2) 0.7471(2) 0.1500(1)
C21 C -0.0562(2) 0.8336(3) 0.1875(1)
C22 C -0.0125(3) 0.8723(3) 0.2512(2)
C23 C 0.1028(3) 0.8244(3) 0.2779(1)
C24 C 0.1759(2) 0.7390(2) 0.2408(1)
H1 H 0.3167 0.4667 0.0549
loop_
_geom_bond_atom_site_label_1
_geom_bond_atom_site_label_2
_geom_bond_site_symmetry_1
_geom_bond_site_symmetry_2
N1 C4 1_555 1_555
O1 C2 1_555 1_555
O2 C3 1_555 1_555
C1 C2 1_555 1_555
C3 O1 1_555 1_555
C4 C3 1_555 1_555
C5 C4 1_555 1_555
C6 C5 1_555 1_555
C7 C6 1_555 1_555
C8 C7 1_555 1_555
C9 C8 1_555 1_555
C10 C9 1_555 1_555
C11 C6 1_555 1_555
C12 N1 1_555 1_555
C13 C12 1_555 1_555
C14 C13 1_555 1_555
C15 C14 1_555 1_555
C16 C15 1_555 1_555
C17 C16 1_555 1_555
C18 C13 1_555 1_555
C19 C12 1_555 1_555
C20 C19 1_555 1_555
C21 C20 1_555 1_555
C22 C21 1_555 1_555
C23 C22 1_555 1_555
C24 C19 1_555 1_555
H1 C4 1_555 1_555
C10 C11 1_555 1_555
C17 C18 1_555 1_555
C23 C24 1_555 1_555

#END
