
#######################################################################
#
#                 Cambridge Crystallographic Data Centre
#                                CCDC 
#
#######################################################################
#
# If this CIF has been generated from an entry in the Cambridge 
# Structural Database, then it will include bibliographic, chemical, 
# crystal, experimental, refinement or atomic coordinate data resulting 
# from the CCDC's data processing and validation procedures.
#
#######################################################################

data_HUGKUR
_chemical_formula_moiety         'C88 H62'
_chemical_name_systematic        tetra-t-butyl-C72-graphene
_symmetry_cell_setting           monoclinic
_symmetry_space_group_name_H-M   'P 21/c'
_symmetry_Int_Tables_number      14
_space_group_name_Hall           '-P 2ybc'
loop_
_symmetry_equiv_pos_site_id
_symmetry_equiv_pos_as_xyz
1 x,y,z
2 -x,1/2+y,1/2-z
3 -x,-y,-z
4 x,1/2-y,1/2+z
_cell_length_a                   18.8791(8)
_cell_length_b                   21.8851(10)
_cell_length_c                   36.4305(15)
_cell_angle_alpha                90
_cell_angle_beta                 100.405(4)
_cell_angle_gamma                90
_cell_volume                     14804.5
_exptl_crystal_colour            black
_cell_formula_units_Z            8
loop_
_atom_site_label
_atom_site_type_symbol
_atom_site_fract_x
_atom_site_fract_y
_atom_site_fract_z
C1 C 0.29161(13) 0.41141(11) 0.14657(6)
C2 C 0.67235(18) 0.72332(15) 0.30082(8)
H1 H 0.7040 0.7497 0.3168
C3 C 0.2197(2) 0.3379(2) 0.02151(9)
H2 H 0.2322 0.3288 -0.0029
H3 H 0.1985 0.3788 0.0210
H4 H 0.1850 0.3076 0.0272
C4 C 0.3205(3) 0.27182(18) 0.05351(10)
H5 H 0.2870 0.2424 0.0613
H6 H 0.3655 0.2721 0.0717
H7 H 0.3304 0.2601 0.0290
C5 C 0.0159(2) 0.11084(19) 0.37280(10)
H8 H -0.0021 0.1526 0.3745
H9 H 0.0309 0.0942 0.3980
H10 H -0.0223 0.0852 0.3589
C6 C 0.1373(2) 0.1541(2) 0.37467(10)
H11 H 0.1824 0.1502 0.3651
H12 H 0.1456 0.1427 0.4011
H13 H 0.1204 0.1964 0.3719
C7 C 0.1114(2) 0.0466(2) 0.35205(13)
H14 H 0.1243 0.0312 0.3777
H15 H 0.1544 0.0475 0.3405
H16 H 0.0752 0.0197 0.3376
C8 C -0.04417(19) 0.22203(16) 0.08181(9)
H17 H -0.0839 0.2034 0.0661
C9 C 0.6668(3) 0.60984(19) 0.07568(11)
H18 H 0.7146 0.6065 0.0914
H19 H 0.6709 0.6042 0.0495
H20 H 0.6351 0.5783 0.0829
C10 C 0.4287(3) 0.3915(3) 0.40506(12)
H21 H 0.3892 0.3659 0.3922
H22 H 0.4102 0.4323 0.4093
H23 H 0.4493 0.3729 0.4291
C11 C 0.5106(3) 0.3308(2) 0.37266(12)
H24 H 0.5280 0.3099 0.3964
H25 H 0.5490 0.3318 0.3578
H26 H 0.4690 0.3088 0.3589
C12 C 0.5516(4) 0.4311(3) 0.40181(15)
H27 H 0.5364 0.4723 0.4075
H28 H 0.5896 0.4338 0.3868
H29 H 0.5700 0.4095 0.4251
C13 C 0.36423(13) 0.51079(12) 0.15608(6)
C14 C 0.39395(14) 0.40326(12) 0.32160(6)
H30 H 0.3715 0.3688 0.3304
C15 C 0.43010(13) 0.53284(11) 0.21923(6)
C16 C 0.19651(14) 0.33307(12) 0.13774(7)
C17 C 0.23837(14) 0.37624(11) 0.31566(7)
H31 H 0.2701 0.4022 0.3318
C18 C 0.24703(13) 0.36925(11) 0.27814(6)
C19 C 0.24149(13) 0.37399(11) 0.16151(6)
C20 C 0.14782(13) 0.29447(11) 0.26916(7)
C21 C 0.34258(13) 0.53299(12) 0.11926(7)
H32 H 0.3073 0.5113 0.1023
C22 C 0.19687(13) 0.33245(11) 0.25411(7)
C23 C 0.51844(14) 0.61900(12) 0.18996(7)
C24 C 0.29359(13) 0.40915(11) 0.22471(6)
C25 C 0.19523(13) 0.33421(11) 0.21496(7)
C26 C 0.57426(15) 0.65106(12) 0.17513(7)
C27 C 0.24065(13) 0.37450(11) 0.20019(6)
C28 C 0.36488(13) 0.42778(11) 0.28685(6)
C29 C 0.41733(13) 0.54447(12) 0.18031(7)
C30 C 0.45514(14) 0.42811(12) 0.34370(7)
C31 C 0.48503(14) 0.48040(12) 0.33149(7)
H33 H 0.5247 0.4991 0.3473
C32 C 0.45847(13) 0.50693(12) 0.29629(7)
C33 C 0.33800(12) 0.45221(11) 0.20906(6)
C34 C 0.40202(13) 0.47579(11) 0.27241(6)
C35 C 0.48114(13) 0.56868(11) 0.24406(7)
C36 C 0.45558(14) 0.59284(12) 0.16598(7)
C37 C 0.42880(14) 0.61432(13) 0.13028(7)
H34 H 0.4498 0.6494 0.1212
C38 C 0.18456(14) 0.34591(12) 0.32893(7)
H35 H 0.1771 0.3532 0.3537
C39 C 0.07104(15) 0.19874(12) 0.25974(8)
C40 C 0.38782(13) 0.48908(11) 0.23357(6)
C41 C 0.52709(15) 0.61129(12) 0.34476(7)
H36 H 0.4935 0.5870 0.3548
C42 C 0.30162(13) 0.40212(11) 0.26319(6)
C43 C 0.14083(14) 0.30452(12) 0.30623(7)
H37 H 0.1053 0.2825 0.3162
C44 C 0.52604(14) 0.61192(12) 0.22856(7)
C45 C 0.57947(15) 0.64574(12) 0.25312(7)
C46 C 0.26857(15) 0.35264(13) 0.08912(7)
C47 C 0.63105(15) 0.68000(14) 0.12210(7)
C48 C 0.33111(13) 0.45842(11) 0.17056(6)
C49 C 0.53281(14) 0.60409(12) 0.30736(7)
C50 C 0.30457(14) 0.39864(12) 0.11110(7)
H38 H 0.3394 0.4223 0.1015
C51 C 0.49013(13) 0.55990(12) 0.28263(6)
C52 C 0.21368(15) 0.32137(13) 0.10224(7)
H39 H 0.1870 0.2913 0.0868
C53 C 0.28696(17) 0.33538(14) 0.05116(7)
C54 C 0.37180(14) 0.58519(13) 0.10776(7)
H40 H 0.3527 0.6018 0.0839
C55 C 0.58184(15) 0.64678(13) 0.13733(7)
H41 H 0.5512 0.6194 0.1216
C56 C 0.14268(14) 0.29894(11) 0.19037(7)
C57 C 0.48830(16) 0.39689(13) 0.38043(7)
C58 C 0.63523(17) 0.67312(15) 0.08081(8)
C59 C 0.56906(16) 0.65296(14) 0.36760(8)
H42 H 0.5637 0.6571 0.3929
C60 C 0.62567(16) 0.68640(13) 0.19929(8)
C61 C 0.09689(14) 0.25697(11) 0.20632(7)
C62 C 0.57929(15) 0.64420(13) 0.29233(7)
C63 C 0.07708(15) 0.27453(12) 0.12731(7)
C64 C 0.62628(15) 0.68546(13) 0.23877(7)
C65 C 0.62442(16) 0.68512(13) 0.31610(8)
C66 C 0.10554(14) 0.24983(12) 0.24516(7)
C67 C 0.67796(16) 0.71839(14) 0.14633(8)
H43 H 0.7114 0.7432 0.1365
C68 C 0.01671(15) 0.16620(13) 0.23620(8)
C69 C 0.13931(15) 0.30182(11) 0.15182(7)
C70 C 0.05761(17) 0.28969(14) 0.08988(8)
H44 H 0.0863 0.3180 0.0793
C71 C 0.09341(15) 0.17773(13) 0.29692(8)
H45 H 0.1349 0.1956 0.3116
C72 C 0.04447(15) 0.22216(12) 0.18209(7)
C73 C 0.05793(17) 0.13299(14) 0.31246(9)
C74 C 0.67622(16) 0.72054(14) 0.18319(8)
H46 H 0.7099 0.7457 0.1989
C75 C 0.00063(16) 0.17994(13) 0.19689(8)
C76 C 0.5620(2) 0.6774(3) 0.05771(9)
H47 H 0.5653 0.6730 0.0313
H48 H 0.5410 0.7173 0.0617
H49 H 0.5316 0.6449 0.0649
C77 C 0.03210(16) 0.23424(12) 0.14290(8)
C78 C -0.00082(17) 0.10411(14) 0.28901(9)
H50 H -0.0278 0.0738 0.2992
C79 C 0.61833(17) 0.68825(15) 0.35396(8)
H51 H 0.6487 0.7151 0.3702
C80 C 0.67373(18) 0.72284(15) 0.26401(8)
H52 H 0.7073 0.7482 0.2547
C81 C 0.08043(18) 0.11172(16) 0.35264(10)
C82 C -0.02763(18) 0.20632(14) 0.11960(9)
C83 C -0.00310(19) 0.26436(15) 0.06728(9)
H53 H -0.0159 0.2764 0.0419
C84 C 0.6840(2) 0.72096(18) 0.06801(9)
H54 H 0.7321 0.7185 0.0835
H55 H 0.6639 0.7617 0.0704
H56 H 0.6876 0.7135 0.0419
C85 C -0.01909(17) 0.11895(14) 0.25250(9)
H57 H -0.0570 0.0972 0.2373
C86 C -0.05785(18) 0.15244(14) 0.17288(9)
H58 H -0.0878 0.1243 0.1828
C87 C 0.3425(2) 0.37998(18) 0.03942(9)
H59 H 0.3535 0.3673 0.0153
H60 H 0.3868 0.3794 0.0582
H61 H 0.3225 0.4214 0.0373
C88 C -0.07180(18) 0.16562(15) 0.13597(9)
H62 H -0.1121 0.1472 0.1206
C95 C -0.13894(18) 0.32264(15) 0.14659(9)
C96 C 0.4538(2) 0.80249(16) 0.42666(10)
H81 H 0.4865 0.8354 0.4263
C97 C -0.19531(19) 0.25258(17) 0.18364(10)
H82 H -0.2312 0.2226 0.1850
C98 C -0.13443(19) 0.35059(16) 0.11154(9)
C99 C 0.4278(2) 0.79220(17) 0.45833(10)
H83 H 0.4436 0.8171 0.4796
C100 C -0.1016(3) 0.4097(2) -0.01829(12)
H84 H -0.1307 0.3728 -0.0246
H85 H -0.0533 0.3982 -0.0054
H86 H -0.0980 0.4321 -0.0412
C101 C -0.19215(19) 0.27879(17) 0.15047(10)
H87 H -0.2265 0.2675 0.1292
C102 C -0.0333(5) 0.4041(4) 0.3837(2)
H88 H 0.0061 0.3744 0.3891
H89 H -0.0694 0.3892 0.3628
H90 H -0.0556 0.4092 0.4058
C103 C -0.2139(2) 0.4629(3) -0.01133(13)
H91 H -0.2398 0.4842 0.0059
H92 H -0.2379 0.4240 -0.0189
H93 H -0.2138 0.4884 -0.0334
C104 C 0.5282(2) 0.83981(17) 0.32404(11)
H94 H 0.5630 0.8710 0.3233
C105 C 0.5079(2) 0.82685(17) 0.35684(10)
H95 H 0.5281 0.8493 0.3785
C106 C -0.1855(2) 0.3385(2) 0.07912(11)
H96 H -0.2213 0.3083 0.0800
C107 C 0.3906(4) 0.6834(3) 0.51775(13)
H97 H 0.3844 0.6456 0.5031
H98 H 0.3739 0.6771 0.5414
H99 H 0.4417 0.6947 0.5228
C108 C 0.2690(3) 0.7144(2) 0.48768(10)
H100 H 0.2652 0.6753 0.4744
H101 H 0.2402 0.7453 0.4722
H102 H 0.2511 0.7097 0.5112
C109 C 0.52189(19) 0.81937(17) 0.25691(11)
H103 H 0.5564 0.8505 0.2556
C110 C -0.1850(3) 0.3688(2) 0.04686(11)
H104 H -0.2189 0.3579 0.0253
C111 C 0.22772(15) 0.72810(13) 0.12964(7)
C112 C -0.0701(5) 0.5164(5) 0.3597(3)
H105 H -0.1049 0.5152 0.3767
H106 H -0.0948 0.5069 0.3343
H107 H -0.0488 0.5573 0.3602
C113 C 0.0362(4) 0.4962(3) 0.40574(18)
H108 H 0.0418 0.5392 0.3994
H109 H 0.0838 0.4774 0.4129
H110 H 0.0101 0.4935 0.4266
C114 C 0.08243(13) 0.46492(11) 0.17068(6)
C115 C 0.09058(13) 0.46120(11) 0.27362(7)
C116 C 0.26122(13) 0.61700(11) 0.23053(6)
C117 C 0.21418(13) 0.59579(11) 0.19774(7)
C118 C -0.00086(14) 0.38754(11) 0.24408(7)
C119 C 0.24249(14) 0.54380(11) 0.33631(7)
C120 C 0.20491(14) 0.63219(12) 0.16630(7)
H111 H 0.1709 0.6199 0.1451
C121 C 0.33293(14) 0.61804(12) 0.36665(7)
C122 C 0.13918(13) 0.50644(11) 0.16787(6)
C123 C 0.10884(13) 0.47439(10) 0.23831(6)
C124 C -0.08494(16) 0.42754(14) 0.07545(8)
H112 H -0.0519 0.4600 0.0746
C125 C 0.29672(13) 0.61768(11) 0.29846(7)
C126 C 0.16327(14) 0.51024(12) 0.13347(6)
H113 H 0.2025 0.5364 0.1313
C127 C 0.25663(12) 0.59111(11) 0.26595(6)
C128 C 0.17232(13) 0.54013(11) 0.20040(6)
C129 C 0.12677(13) 0.49113(11) 0.30630(7)
C130 C 0.06671(13) 0.44935(11) 0.20612(7)
C131 C 0.16163(13) 0.52014(11) 0.23529(6)
C132 C 0.36869(14) 0.67669(12) 0.36441(7)
C133 C 0.03206(17) 0.45898(14) 0.33971(8)
C134 C 0.30622(13) 0.66834(11) 0.22817(7)
C135 C -0.04853(16) 0.30247(13) 0.27931(8)
H114 H -0.0149 0.3130 0.3011
C136 C 0.34668(13) 0.66629(11) 0.29575(7)
C137 C 0.13111(14) 0.47693(12) 0.10323(7)
H115 H 0.1509 0.4771 0.0810
C138 C 0.24328(14) 0.68627(12) 0.16430(7)
C139 C 0.19198(13) 0.52640(11) 0.30401(6)
C140 C 0.35933(16) 0.70905(13) 0.42936(7)
H116 H 0.3251 0.6775 0.4303
C141 C 0.20329(13) 0.54591(11) 0.26880(6)
C142 C 0.03154(14) 0.42227(11) 0.27624(7)
C143 C 0.04210(14) 0.43799(11) 0.13772(7)
C144 C 0.25134(15) 0.51224(12) 0.37053(7)
H117 H 0.2218 0.4779 0.3729
C145 C 0.29031(13) 0.59354(11) 0.33363(7)
C146 C 0.06974(15) 0.44286(12) 0.10483(7)
H118 H 0.0460 0.4224 0.0830
C147 C -0.04892(15) 0.33547(12) 0.24673(7)
C148 C 0.09638(15) 0.49038(12) 0.33797(7)
H119 H 0.1197 0.5119 0.3594
C149 C 0.00266(15) 0.42440(12) 0.30916(7)
H120 H -0.0391 0.4009 0.3104
C150 C 0.29362(14) 0.70303(12) 0.19488(7)
H121 H 0.3209 0.7392 0.1936
C151 C 0.34120(15) 0.58312(13) 0.39925(7)
H122 H 0.3741 0.5958 0.4208
C152 C -0.03297(14) 0.38299(12) 0.17527(7)
C153 C 0.38102(14) 0.69632(12) 0.32966(7)
C154 C 0.01256(13) 0.40479(11) 0.20901(7)
C155 C 0.44235(15) 0.74214(14) 0.22682(9)
H123 H 0.4251 0.7189 0.2050
C156 C 0.30176(16) 0.53026(13) 0.40029(7)
H124 H 0.3099 0.5058 0.4222
C157 C 0.38766(15) 0.71579(13) 0.39660(8)
C158 C 0.1730(2) 0.77569(18) 0.13577(10)
H125 H 0.1270 0.7558 0.1368
H126 H 0.1666 0.8051 0.1152
H127 H 0.1901 0.7971 0.1594
C159 C 0.35597(13) 0.68787(12) 0.26082(7)
C160 C -0.02361(15) 0.40419(12) 0.14068(7)
C161 C 0.42650(15) 0.74797(13) 0.32721(8)
C162 C 0.2964(2) 0.76010(18) 0.12356(9)
H128 H 0.3120 0.7889 0.1440
H129 H 0.2870 0.7823 0.0998
H130 H 0.3342 0.7297 0.1230
C163 C -0.1379(2) 0.45103(19) 0.00766(9)
C164 C 0.37841(19) 0.74578(14) 0.46035(8)
C165 C 0.43455(18) 0.76672(14) 0.39417(8)
C166 C 0.44560(15) 0.76281(13) 0.29217(8)
C167 C 0.41418(15) 0.73161(13) 0.25903(8)
C168 C -0.09063(15) 0.34113(13) 0.17840(8)
C169 C 0.3514(2) 0.7912(2) 0.52072(12)
H131 H 0.4020 0.8006 0.5307
H132 H 0.3258 0.7836 0.5414
H133 H 0.3292 0.8259 0.5059
C170 C 0.45685(17) 0.78038(14) 0.35956(9)
C171 C -0.07919(16) 0.39371(14) 0.10855(8)
C172 C -0.09489(15) 0.31585(13) 0.21389(8)
C173 C 0.1999(2) 0.69134(16) 0.09475(8)
H134 H 0.2348 0.6595 0.0917
H135 H 0.1930 0.7184 0.0730
H136 H 0.1538 0.6724 0.0970
C174 C -0.14638(17) 0.26868(14) 0.21649(9)
C175 C -0.14500(18) 0.23887(14) 0.25022(9)
H137 H -0.1787 0.2072 0.2519
C176 C 0.3471(2) 0.73441(16) 0.49594(8)
C177 C -0.0971(2) 0.50993(18) 0.01320(9)
H138 H -0.1185 0.5364 0.0300
H139 H -0.0994 0.5304 -0.0109
H140 H -0.0467 0.5016 0.0242
C178 C -0.09600(17) 0.25443(13) 0.28096(9)
H141 H -0.0942 0.2324 0.3036
C179 C 0.49533(17) 0.78618(16) 0.22595(10)
H142 H 0.5131 0.7931 0.2035
C180 C 0.49929(18) 0.80825(16) 0.29035(10)
C181 C -0.1358(2) 0.41615(18) 0.04427(9)
C182 C -0.0043(2) 0.46413(19) 0.37344(10)
C89? C 0.5632(7) 0.3752(8) 0.3749(4)
H63? H 0.5872 0.3538 0.3973
H64? H 0.5921 0.4106 0.3702
H65? H 0.5579 0.3474 0.3535
C90? C 0.4466(9) 0.3482(8) 0.3906(4)
H66? H 0.4658 0.3357 0.4163
H67? H 0.4484 0.3136 0.3737
H68? H 0.3966 0.3617 0.3888
C91? C 0.5020(9) 0.4488(7) 0.4115(3)
H69? H 0.4559 0.4616 0.4177
H70? H 0.5253 0.4839 0.4019
H71? H 0.5331 0.4328 0.4338
C92? C 0.3611(14) 0.3237(14) 0.0532(7)
H72? H 0.3761 0.2909 0.0713
H73? H 0.3886 0.3608 0.0613
H74? H 0.3700 0.3113 0.0286
C93? C 0.2581(16) 0.3882(14) 0.0252(8)
H75? H 0.2916 0.4227 0.0296
H76? H 0.2109 0.4009 0.0302
H77? H 0.2532 0.3748 -0.0008
C94? C 0.2397(19) 0.2785(17) 0.0341(10)
H78? H 0.2174 0.2595 0.0536
H79? H 0.2706 0.2486 0.0246
H80? H 0.2021 0.2923 0.0136
C183? C 0.0518(7) 0.4477(7) 0.4095(3)
H143? H 0.0860 0.4815 0.4156
H144? H 0.0778 0.4105 0.4050
H145? H 0.0264 0.4410 0.4304
C184? C -0.0178(7) 0.5254(6) 0.3837(4)
H146? H -0.0521 0.5252 0.4009
H147? H -0.0381 0.5487 0.3612
H148? H 0.0274 0.5444 0.3958
C185? C -0.0687(4) 0.4247(4) 0.3724(2)
H149? H -0.0566 0.3825 0.3670
H150? H -0.1077 0.4393 0.3529
H151? H -0.0842 0.4262 0.3967
loop_
_geom_bond_atom_site_label_1
_geom_bond_atom_site_label_2
_geom_bond_site_symmetry_1
_geom_bond_site_symmetry_2
C1 C19 1_555 1_555
C2 H1 1_555 1_555
C3 H2 1_555 1_555
H3 C3 1_555 1_555
H4 C3 1_555 1_555
C4 H5 1_555 1_555
H6 C4 1_555 1_555
H7 C4 1_555 1_555
C5 H8 1_555 1_555
H9 C5 1_555 1_555
H10 C5 1_555 1_555
C6 H11 1_555 1_555
H12 C6 1_555 1_555
H13 C6 1_555 1_555
C7 H14 1_555 1_555
H15 C7 1_555 1_555
H16 C7 1_555 1_555
C8 H17 1_555 1_555
C9 H18 1_555 1_555
H19 C9 1_555 1_555
H20 C9 1_555 1_555
C10 H21 1_555 1_555
H22 C10 1_555 1_555
H23 C10 1_555 1_555
C11 H24 1_555 1_555
H25 C11 1_555 1_555
H26 C11 1_555 1_555
C12 H27 1_555 1_555
H28 C12 1_555 1_555
H29 C12 1_555 1_555
C13 C21 1_555 1_555
C14 H30 1_555 1_555
C15 C29 1_555 1_555
C16 C19 1_555 1_555
C17 H31 1_555 1_555
C18 C17 1_555 1_555
C19 C27 1_555 1_555
C20 C22 1_555 1_555
C21 H32 1_555 1_555
C22 C18 1_555 1_555
C23 C26 1_555 1_555
C24 C27 1_555 1_555
C25 C22 1_555 1_555
C26 C55 1_555 1_555
C27 C25 1_555 1_555
C28 C14 1_555 1_555
C29 C13 1_555 1_555
C30 C14 1_555 1_555
C31 C30 1_555 1_555
H33 C31 1_555 1_555
C32 C31 1_555 1_555
C33 C24 1_555 1_555
C34 C28 1_555 1_555
C35 C15 1_555 1_555
C36 C23 1_555 1_555
C37 C36 1_555 1_555
H34 C37 1_555 1_555
C38 C17 1_555 1_555
H35 C38 1_555 1_555
C39 C66 1_555 1_555
C40 C15 1_555 1_555
C41 H36 1_555 1_555
C42 C18 1_555 1_555
C43 C20 1_555 1_555
H37 C43 1_555 1_555
C44 C23 1_555 1_555
C45 C44 1_555 1_555
C46 C50 1_555 1_555
C47 C55 1_555 1_555
C48 C1 1_555 1_555
C49 C41 1_555 1_555
C50 C1 1_555 1_555
H38 C50 1_555 1_555
C51 C32 1_555 1_555
C52 C16 1_555 1_555
H39 C52 1_555 1_555
C53 C3 1_555 1_555
C54 C21 1_555 1_555
H40 C54 1_555 1_555
C55 H41 1_555 1_555
C56 C25 1_555 1_555
C57 C10 1_555 1_555
C58 C9 1_555 1_555
C59 C41 1_555 1_555
H42 C59 1_555 1_555
C60 C26 1_555 1_555
C61 C56 1_555 1_555
C62 C45 1_555 1_555
C63 C69 1_555 1_555
C64 C45 1_555 1_555
C65 C2 1_555 1_555
C66 C20 1_555 1_555
C67 C47 1_555 1_555
H43 C67 1_555 1_555
C68 C39 1_555 1_555
C69 C16 1_555 1_555
C70 C63 1_555 1_555
H44 C70 1_555 1_555
C71 C39 1_555 1_555
H45 C71 1_555 1_555
C72 C61 1_555 1_555
C73 C71 1_555 1_555
C74 C60 1_555 1_555
H46 C74 1_555 1_555
C75 C68 1_555 1_555
C76 C58 1_555 1_555
H47 C76 1_555 1_555
H48 C76 1_555 1_555
H49 C76 1_555 1_555
C77 C63 1_555 1_555
C78 C73 1_555 1_555
H50 C78 1_555 1_555
C79 C59 1_555 1_555
H51 C79 1_555 1_555
C80 C2 1_555 1_555
H52 C80 1_555 1_555
C81 C5 1_555 1_555
C82 C8 1_555 1_555
C83 C8 1_555 1_555
H53 C83 1_555 1_555
C84 C58 1_555 1_555
H54 C84 1_555 1_555
H55 C84 1_555 1_555
H56 C84 1_555 1_555
C85 C68 1_555 1_555
H57 C85 1_555 1_555
C86 C75 1_555 1_555
H58 C86 1_555 1_555
C87 C53 1_555 1_555
H59 C87 1_555 1_555
H60 C87 1_555 1_555
H61 C87 1_555 1_555
C88 C82 1_555 1_555
H62 C88 1_555 1_555
C95 C98 1_555 1_555
C96 H81 1_555 1_555
C97 H82 1_555 1_555
C98 C106 1_555 1_555
C99 C96 1_555 1_555
H83 C99 1_555 1_555
C100 H84 1_555 1_555
H85 C100 1_555 1_555
H86 C100 1_555 1_555
C101 C95 1_555 1_555
H87 C101 1_555 1_555
C102 H88 1_555 1_555
H89 C102 1_555 1_555
H90 C102 1_555 1_555
C103 H91 1_555 1_555
H92 C103 1_555 1_555
H93 C103 1_555 1_555
C104 H94 1_555 1_555
C105 C104 1_555 1_555
H95 C105 1_555 1_555
C106 H96 1_555 1_555
C107 H97 1_555 1_555
H98 C107 1_555 1_555
H99 C107 1_555 1_555
C108 H100 1_555 1_555
H101 C108 1_555 1_555
H102 C108 1_555 1_555
C109 H103 1_555 1_555
C110 C106 1_555 1_555
H104 C110 1_555 1_555
C111 C138 1_555 1_555
C112 H105 1_555 1_555
H106 C112 1_555 1_555
H107 C112 1_555 1_555
C113 H108 1_555 1_555
H109 C113 1_555 1_555
H110 C113 1_555 1_555
C114 C122 1_555 1_555
C115 C123 1_555 1_555
C116 C117 1_555 1_555
C117 C120 1_555 1_555
C118 C142 1_555 1_555
C119 C139 1_555 1_555
C120 H111 1_555 1_555
C121 C132 1_555 1_555
C122 C126 1_555 1_555
C123 C130 1_555 1_555
C124 H112 1_555 1_555
C125 C127 1_555 1_555
C126 H113 1_555 1_555
C127 C116 1_555 1_555
C128 C117 1_555 1_555
C129 C115 1_555 1_555
C130 C114 1_555 1_555
C131 C123 1_555 1_555
C132 C153 1_555 1_555
C133 C148 1_555 1_555
C134 C116 1_555 1_555
C135 H114 1_555 1_555
C136 C125 1_555 1_555
C137 C126 1_555 1_555
H115 C137 1_555 1_555
C138 C120 1_555 1_555
C139 C129 1_555 1_555
C140 H116 1_555 1_555
C141 C127 1_555 1_555
C142 C115 1_555 1_555
C143 C114 1_555 1_555
C144 C119 1_555 1_555
H117 C144 1_555 1_555
C145 C119 1_555 1_555
C146 C137 1_555 1_555
H118 C146 1_555 1_555
C147 C118 1_555 1_555
C148 C129 1_555 1_555
H119 C148 1_555 1_555
C149 C133 1_555 1_555
H120 C149 1_555 1_555
C150 C134 1_555 1_555
H121 C150 1_555 1_555
C151 C121 1_555 1_555
H122 C151 1_555 1_555
C152 C154 1_555 1_555
C153 C136 1_555 1_555
C154 C118 1_555 1_555
C155 H123 1_555 1_555
C156 C144 1_555 1_555
H124 C156 1_555 1_555
C157 C132 1_555 1_555
C158 C111 1_555 1_555
H125 C158 1_555 1_555
H126 C158 1_555 1_555
H127 C158 1_555 1_555
C159 C134 1_555 1_555
C160 C143 1_555 1_555
C161 C153 1_555 1_555
C162 C111 1_555 1_555
H128 C162 1_555 1_555
H129 C162 1_555 1_555
H130 C162 1_555 1_555
C163 C100 1_555 1_555
C164 C99 1_555 1_555
C165 C96 1_555 1_555
C166 C161 1_555 1_555
C167 C155 1_555 1_555
C168 C95 1_555 1_555
C169 H131 1_555 1_555
H132 C169 1_555 1_555
H133 C169 1_555 1_555
C170 C105 1_555 1_555
C171 C98 1_555 1_555
C172 C147 1_555 1_555
C173 C111 1_555 1_555
H134 C173 1_555 1_555
H135 C173 1_555 1_555
H136 C173 1_555 1_555
C174 C97 1_555 1_555
C175 C174 1_555 1_555
H137 C175 1_555 1_555
C176 C107 1_555 1_555
C177 C163 1_555 1_555
H138 C177 1_555 1_555
H139 C177 1_555 1_555
H140 C177 1_555 1_555
C178 C135 1_555 1_555
H141 C178 1_555 1_555
C179 C109 1_555 1_555
H142 C179 1_555 1_555
C180 C104 1_555 1_555
C181 C110 1_555 1_555
C182 C102 1_555 1_555
C4 C53 1_555 1_555
C6 C81 1_555 1_555
C7 C81 1_555 1_555
C11 C57 1_555 1_555
C12 C57 1_555 1_555
C13 C48 1_555 1_555
C24 C42 1_555 1_555
C28 C42 1_555 1_555
C29 C36 1_555 1_555
C30 C57 1_555 1_555
C32 C34 1_555 1_555
C33 C40 1_555 1_555
C33 C48 1_555 1_555
C34 C40 1_555 1_555
C35 C44 1_555 1_555
C35 C51 1_555 1_555
C37 C54 1_555 1_555
C38 C43 1_555 1_555
C46 C52 1_555 1_555
C46 C53 1_555 1_555
C47 C58 1_555 1_555
C49 C51 1_555 1_555
C49 C62 1_555 1_555
C56 C69 1_555 1_555
C60 C64 1_555 1_555
C61 C66 1_555 1_555
C62 C65 1_555 1_555
C64 C80 1_555 1_555
C65 C79 1_555 1_555
C67 C74 1_555 1_555
C70 C83 1_555 1_555
C72 C75 1_555 1_555
C72 C77 1_555 1_555
C73 C81 1_555 1_555
C77 C82 1_555 1_555
C78 C85 1_555 1_555
C86 C88 1_555 1_555
C97 C101 1_555 1_555
C103 C163 1_555 1_555
C108 C176 1_555 1_555
C109 C180 1_555 1_555
C112 C182 1_555 1_555
C113 C182 1_555 1_555
C121 C145 1_555 1_555
C122 C128 1_555 1_555
C124 C171 1_555 1_555
C124 C181 1_555 1_555
C125 C145 1_555 1_555
C128 C131 1_555 1_555
C130 C154 1_555 1_555
C131 C141 1_555 1_555
C133 C182 1_555 1_555
C135 C147 1_555 1_555
C136 C159 1_555 1_555
C138 C150 1_555 1_555
C139 C141 1_555 1_555
C140 C157 1_555 1_555
C140 C164 1_555 1_555
C142 C149 1_555 1_555
C143 C146 1_555 1_555
C151 C156 1_555 1_555
C152 C160 1_555 1_555
C152 C168 1_555 1_555
C155 C179 1_555 1_555
C157 C165 1_555 1_555
C159 C167 1_555 1_555
C160 C171 1_555 1_555
C161 C170 1_555 1_555
C163 C181 1_555 1_555
C164 C176 1_555 1_555
C165 C170 1_555 1_555
C166 C167 1_555 1_555
C166 C180 1_555 1_555
C168 C172 1_555 1_555
C169 C176 1_555 1_555
C172 C174 1_555 1_555
C175 C178 1_555 1_555

#END
