
#######################################################################
#
#                 Cambridge Crystallographic Data Centre
#                                CCDC 
#
#######################################################################
#
# If this CIF has been generated from an entry in the Cambridge 
# Structural Database, then it will include bibliographic, chemical, 
# crystal, experimental, refinement or atomic coordinate data resulting 
# from the CCDC's data processing and validation procedures.
#
#######################################################################

data_HUGLOL
_chemical_formula_moiety         'C21 H17 Cl1 O6'
_chemical_name_systematic        
'(4R)-Ethyl 4-(4-chlorophenyl)-2-hydroxy-5-oxo-2,3,4,5-tetrahydropyrano[3,2-c]chromene-2-carboxylate'
_symmetry_cell_setting           monoclinic
_symmetry_space_group_name_H-M   'P 21'
_symmetry_Int_Tables_number      4
_space_group_name_Hall           'P 2yb'
loop_
_symmetry_equiv_pos_site_id
_symmetry_equiv_pos_as_xyz
1 x,y,z
2 -x,1/2+y,-z
_cell_length_a                   5.4818(3)
_cell_length_b                   14.8358(7)
_cell_length_c                   11.3403(6)
_cell_angle_alpha                90
_cell_angle_beta                 94.6807(15)
_cell_angle_gamma                90
_cell_volume                     919.195
_exptl_crystal_colour            colorless
_exptl_crystal_description       platelet
_cell_formula_units_Z            2
_exptl_crystal_recrystallization_method dichloromethane/isopropanol
loop_
_atom_site_label
_atom_site_type_symbol
_atom_site_fract_x
_atom_site_fract_y
_atom_site_fract_z
C1 C 0.7695(3) 0.87640(13) 0.68614(17)
O1 O 0.9549(3) 0.87424(10) 0.76723(12)
O2 O 0.6200(3) 0.93532(10) 0.67137(15)
C2 C 0.9886(5) 0.95257(18) 0.8444(2)
H1 H 0.8533 0.9579 0.8940
H2 H 0.9965 1.0072 0.7978
C3 C 1.2228(5) 0.9388(2) 0.9187(2)
H3 H 1.3564 0.9380 0.8690
H4 H 1.2169 0.8825 0.9600
H5 H 1.2458 0.9871 0.9749
Cl1 Cl 0.78443(13) 0.72613(6) -0.01510(5)
O3 O 0.6428(2) 0.72598(9) 0.68482(11)
C4 C 0.5060(3) 0.57839(13) 0.71703(16)
O4 O 0.6019(2) 0.80479(9) 0.50872(12)
H6 H 0.5259 0.8519 0.5155
C5 C 0.6604(3) 0.63786(12) 0.65397(16)
O5 O 0.6645(3) 0.45423(9) 0.60916(14)
O6 O 0.9452(3) 0.47428(10) 0.48350(16)
C6 C 1.0913(3) 0.72144(15) 0.31531(17)
H7 H 1.2357 0.7420 0.3552
C7 C 0.9207(3) 0.67714(13) 0.37856(16)
C8 C 0.8067(3) 0.60639(12) 0.57288(16)
C9 C 0.9793(3) 0.66573(12) 0.51166(16)
H8 H 1.1406 0.6370 0.5222
C10 C 0.3482(4) 0.60857(15) 0.79984(18)
H9 H 0.3403 0.6695 0.8184
C11 C 1.0524(4) 0.73588(16) 0.19483(18)
H10 H 1.1688 0.7657 0.1540
C12 C 0.3671(5) 0.42524(15) 0.7439(2)
H11 H 0.3721 0.3644 0.7248
C13 C 0.7569(3) 0.79097(12) 0.60903(16)
C14 C 0.2158(5) 0.45589(17) 0.8250(2)
H12 H 0.1184 0.4149 0.8618
C15 C 0.8385(4) 0.70536(14) 0.13638(18)
C16 C 0.6664(4) 0.65979(16) 0.19587(19)
H13 H 0.5232 0.6388 0.1554
C17 C 0.8158(4) 0.51022(13) 0.54999(19)
C18 C 1.0021(3) 0.75658(12) 0.57806(17)
H14 H 1.1086 0.7491 0.6500
H15 H 1.0763 0.8007 0.5289
C19 C 0.5140(4) 0.48726(14) 0.69059(19)
C20 C 0.7094(3) 0.64567(14) 0.31706(18)
H16 H 0.5944 0.6146 0.3573
C21 C 0.2036(4) 0.54659(17) 0.8539(2)
H17 H 0.0988 0.5658 0.9093
loop_
_geom_bond_atom_site_label_1
_geom_bond_atom_site_label_2
_geom_bond_site_symmetry_1
_geom_bond_site_symmetry_2
C1 O1 1_555 1_555
O1 C2 1_555 1_555
O2 C1 1_555 1_555
C2 H1 1_555 1_555
H2 C2 1_555 1_555
C3 C2 1_555 1_555
H3 C3 1_555 1_555
H4 C3 1_555 1_555
H5 C3 1_555 1_555
Cl1 C15 1_555 1_555
O3 C5 1_555 1_555
C4 C5 1_555 1_555
O4 H6 1_555 1_555
C5 C8 1_555 1_555
O5 C17 1_555 1_555
O6 C17 1_555 1_555
C6 H7 1_555 1_555
C7 C6 1_555 1_555
C8 C9 1_555 1_555
C9 C7 1_555 1_555
H8 C9 1_555 1_555
C10 C4 1_555 1_555
H9 C10 1_555 1_555
C11 C6 1_555 1_555
H10 C11 1_555 1_555
C12 H11 1_555 1_555
C13 C1 1_555 1_555
C14 C12 1_555 1_555
H12 C14 1_555 1_555
C15 C11 1_555 1_555
C16 C15 1_555 1_555
H13 C16 1_555 1_555
C17 C8 1_555 1_555
C18 C9 1_555 1_555
H14 C18 1_555 1_555
H15 C18 1_555 1_555
C19 C4 1_555 1_555
C20 C7 1_555 1_555
H16 C20 1_555 1_555
C21 C10 1_555 1_555
H17 C21 1_555 1_555
O3 C13 1_555 1_555
O4 C13 1_555 1_555
O5 C19 1_555 1_555
C12 C19 1_555 1_555
C13 C18 1_555 1_555
C14 C21 1_555 1_555
C16 C20 1_555 1_555

#END
