
#######################################################################
#
#                 Cambridge Crystallographic Data Centre
#                                CCDC 
#
#######################################################################
#
# If this CIF has been generated from an entry in the Cambridge 
# Structural Database, then it will include bibliographic, chemical, 
# crystal, experimental, refinement or atomic coordinate data resulting 
# from the CCDC's data processing and validation procedures.
#
#######################################################################

data_HUGLAY
_chemical_formula_moiety         'C36 H20 Br2'
_chemical_name_systematic        11,11'-dibromo-5,5'-bichrysene
_symmetry_cell_setting           triclinic
_symmetry_space_group_name_H-M   'P -1'
_symmetry_Int_Tables_number      2
_space_group_name_Hall           '-P 1'
loop_
_symmetry_equiv_pos_site_id
_symmetry_equiv_pos_as_xyz
1 x,y,z
2 -x,-y,-z
_cell_length_a                   9.1841(7)
_cell_length_b                   12.3092(9)
_cell_length_c                   12.8385(9)
_cell_angle_alpha                66.599(5)
_cell_angle_beta                 74.656(6)
_cell_angle_gamma                70.773(5)
_cell_volume                     1242.61
_exptl_crystal_colour            colorless
_exptl_crystal_description       block
_cell_formula_units_Z            2
loop_
_atom_site_label
_atom_site_type_symbol
_atom_site_fract_x
_atom_site_fract_y
_atom_site_fract_z
Br1 Br 0.18923(5) -0.07404(3) 1.06222(3)
Br2 Br 0.31475(4) 0.56923(3) 0.21948(3)
C1 C 0.5496(3) 0.0702(2) 0.6554(2)
C2 C 0.6367(3) -0.0468(2) 0.6739(2)
H1 H 0.7015 -0.0687 0.6105
C3 C 0.6342(3) -0.1376(2) 0.7850(2)
C4 C 0.7406(4) -0.2541(2) 0.8000(3)
H2 H 0.8118 -0.2707 0.7362
C5 C 0.7410(4) -0.3431(3) 0.9066(3)
H3 H 0.8107 -0.4219 0.9165
C6 C 0.6388(4) -0.3172(3) 1.0002(3)
H4 H 0.6409 -0.3783 1.0743
C7 C 0.5350(4) -0.2047(3) 0.9869(3)
H5 H 0.4680 -0.1889 1.0525
C8 C 0.5256(3) -0.1116(2) 0.8777(2)
C9 C 0.4175(3) 0.0097(2) 0.8564(2)
C10 C 0.2759(4) 0.0422(3) 0.9305(2)
C11 C 0.1821(4) 0.1575(3) 0.9069(3)
H6 H 0.0836 0.1723 0.9536
C12 C 0.2284(3) 0.2559(2) 0.8140(2)
C13 C 0.1427(4) 0.3782(3) 0.7997(3)
H7 H 0.0459 0.3946 0.8478
C14 C 0.1982(4) 0.4730(3) 0.7173(3)
H8 H 0.1402 0.5551 0.7080
C15 C 0.3405(4) 0.4488(3) 0.6467(3)
H9 H 0.3808 0.5149 0.5916
C16 C 0.4234(4) 0.3303(2) 0.6560(2)
H10 H 0.5197 0.3155 0.6069
C17 C 0.3661(3) 0.2304(2) 0.7382(2)
C18 C 0.4472(3) 0.1039(2) 0.7508(2)
C19 C 0.5535(3) 0.1535(2) 0.5327(2)
C20 C 0.6980(3) 0.1613(2) 0.4689(2)
H11 H 0.7876 0.1202 0.5061
C21 C 0.7183(3) 0.2281(2) 0.3499(2)
C22 C 0.8678(3) 0.2140(3) 0.2825(3)
H12 H 0.9574 0.1673 0.3188
C23 C 0.8848(4) 0.2667(3) 0.1656(3)
H13 H 0.9856 0.2567 0.1207
C24 C 0.7531(4) 0.3354(3) 0.1127(3)
H14 H 0.7642 0.3681 0.0312
C25 C 0.6081(4) 0.3563(3) 0.1764(2)
H15 H 0.5207 0.4055 0.1383
C26 C 0.5857(3) 0.3062(2) 0.2976(2)
C27 C 0.4347(3) 0.3176(2) 0.3700(2)
C28 C 0.2997(3) 0.4176(2) 0.3397(2)
C29 C 0.1555(3) 0.4169(2) 0.4021(2)
H16 H 0.0718 0.4881 0.3834
C30 C 0.1287(3) 0.3106(2) 0.4950(2)
C31 C -0.0238(4) 0.3005(3) 0.5486(3)
H17 H -0.1101 0.3678 0.5247
C32 C -0.0496(4) 0.1958(3) 0.6345(3)
H18 H -0.1528 0.1906 0.6709
C33 C 0.0784(4) 0.0957(3) 0.6683(3)
H19 H 0.0607 0.0220 0.7264
C34 C 0.2283(3) 0.1032(2) 0.6185(2)
H20 H 0.3127 0.0337 0.6414
C35 C 0.2596(3) 0.2126(2) 0.5336(2)
C36 C 0.4154(3) 0.2265(2) 0.4788(2)
loop_
_geom_bond_atom_site_label_1
_geom_bond_atom_site_label_2
_geom_bond_site_symmetry_1
_geom_bond_site_symmetry_2
Br1 C10 1_555 1_555
Br2 C28 1_555 1_555
C1 C2 1_555 1_555
C2 H1 1_555 1_555
C3 C2 1_555 1_555
C4 C3 1_555 1_555
H2 C4 1_555 1_555
C5 C4 1_555 1_555
H3 C5 1_555 1_555
C6 C5 1_555 1_555
H4 C6 1_555 1_555
C7 C6 1_555 1_555
H5 C7 1_555 1_555
C8 C3 1_555 1_555
C9 C8 1_555 1_555
C10 C9 1_555 1_555
C11 C10 1_555 1_555
H6 C11 1_555 1_555
C12 C11 1_555 1_555
C13 C12 1_555 1_555
H7 C13 1_555 1_555
C14 C13 1_555 1_555
H8 C14 1_555 1_555
C15 C14 1_555 1_555
H9 C15 1_555 1_555
C16 C15 1_555 1_555
H10 C16 1_555 1_555
C17 C12 1_555 1_555
C18 C1 1_555 1_555
C19 C1 1_555 1_555
C20 C19 1_555 1_555
H11 C20 1_555 1_555
C21 C20 1_555 1_555
C22 C21 1_555 1_555
H12 C22 1_555 1_555
C23 C22 1_555 1_555
H13 C23 1_555 1_555
C24 C23 1_555 1_555
H14 C24 1_555 1_555
C25 C24 1_555 1_555
H15 C25 1_555 1_555
C26 C21 1_555 1_555
C27 C26 1_555 1_555
C28 C27 1_555 1_555
C29 C28 1_555 1_555
H16 C29 1_555 1_555
C30 C29 1_555 1_555
C31 C30 1_555 1_555
H17 C31 1_555 1_555
C32 C31 1_555 1_555
H18 C32 1_555 1_555
C33 C32 1_555 1_555
H19 C33 1_555 1_555
C34 C33 1_555 1_555
H20 C34 1_555 1_555
C35 C30 1_555 1_555
C36 C19 1_555 1_555
C7 C8 1_555 1_555
C9 C18 1_555 1_555
C16 C17 1_555 1_555
C17 C18 1_555 1_555
C25 C26 1_555 1_555
C27 C36 1_555 1_555
C34 C35 1_555 1_555
C35 C36 1_555 1_555

#END
