
#######################################################################
#
#                 Cambridge Crystallographic Data Centre
#                                CCDC 
#
#######################################################################
#
# If this CIF has been generated from an entry in the Cambridge 
# Structural Database, then it will include bibliographic, chemical, 
# crystal, experimental, refinement or atomic coordinate data resulting 
# from the CCDC's data processing and validation procedures.
#
#######################################################################

data_HUGXUD
_chemical_formula_moiety         'C11 H11 F2 N5 O2'
_chemical_name_systematic        
(2R,6S)-(6-(6-Amino-9H-purin-9-yl)-3,3-difluoro-3,6-dihydro-2H-pyran-2-yl)methanol
_symmetry_cell_setting           orthorhombic
_symmetry_space_group_name_H-M   'P 21 21 21'
_symmetry_Int_Tables_number      19
_space_group_name_Hall           'P 2ac 2ab'
loop_
_symmetry_equiv_pos_site_id
_symmetry_equiv_pos_as_xyz
1 x,y,z
2 1/2-x,-y,1/2+z
3 -x,1/2+y,1/2-z
4 1/2+x,1/2-y,-z
_cell_length_a                   6.3537(8)
_cell_length_b                   12.6258(15)
_cell_length_c                   15.2441(17)
_cell_angle_alpha                90
_cell_angle_beta                 90
_cell_angle_gamma                90
_cell_volume                     1222.89
_exptl_crystal_colour            colorless
_exptl_crystal_description       prismatic
_chemical_melting_point          '172-174 deg.C'
_cell_formula_units_Z            4
loop_
_atom_site_label
_atom_site_type_symbol
_atom_site_fract_x
_atom_site_fract_y
_atom_site_fract_z
O1 O 0.8011(3) 0.56341(13) 0.95380(12)
O2 O 0.5000(3) 0.62239(19) 0.81930(15)
H1 H 0.5756 0.6631 0.7917
N1 N 0.8707(4) 0.37961(16) 0.94833(15)
N2 N 0.7242(4) 0.23667(17) 0.88584(17)
N3 N 1.1869(4) 0.39571(19) 0.86076(17)
N4 N 1.2107(4) 0.2577(2) 0.75273(17)
N5 N 0.9498(4) 0.1348(2) 0.72557(18)
F1 F 0.5683(3) 0.69269(13) 1.08306(13)
F2 F 0.3291(3) 0.57161(19) 1.07918(15)
C1 C 0.8978(4) 0.47806(19) 0.99820(18)
H2 H 1.0491 0.4930 1.0000
C2 C 0.8260(6) 0.4664(2) 1.0907(2)
H3 H 0.8960 0.4193 1.1275
C3 C 0.6672(6) 0.5207(2) 1.12136(19)
H4 H 0.6349 0.5169 1.1808
C4 C 0.5377(5) 0.5882(2) 1.0628(2)
C5 C 0.5794(4) 0.5693(2) 0.96650(18)
H5 H 0.5167 0.5013 0.9497
C6 C 0.4924(5) 0.6543(2) 0.9080(2)
H6 H 0.3479 0.6691 0.9243
H7 H 0.5736 0.7187 0.9155
C7 C 0.7079(4) 0.3090(2) 0.94689(19)
H8 H 0.5954 0.3120 0.9859
C8 C 0.9112(4) 0.2621(2) 0.84348(18)
C9 C 1.0040(4) 0.34981(19) 0.88138(19)
C10 C 1.2794(5) 0.3432(2) 0.79648(19)
H9 H 1.4100 0.3691 0.7792
C11 C 1.0201(4) 0.21699(19) 0.77236(17)
H10 H 0.823(3) 0.117(2) 0.730(2)
H11 H 1.015(5) 0.116(3) 0.6790(16)
loop_
_geom_bond_atom_site_label_1
_geom_bond_atom_site_label_2
_geom_bond_site_symmetry_1
_geom_bond_site_symmetry_2
O1 C1 1_555 1_555
O2 H1 1_555 1_555
N1 C1 1_555 1_555
N2 C7 1_555 1_555
N3 C9 1_555 1_555
N4 C10 1_555 1_555
N5 C11 1_555 1_555
F1 C4 1_555 1_555
F2 C4 1_555 1_555
C1 H2 1_555 1_555
C2 C1 1_555 1_555
H3 C2 1_555 1_555
C3 C2 1_555 1_555
H4 C3 1_555 1_555
C4 C3 1_555 1_555
C5 O1 1_555 1_555
H5 C5 1_555 1_555
C6 O2 1_555 1_555
H6 C6 1_555 1_555
H7 C6 1_555 1_555
C7 N1 1_555 1_555
H8 C7 1_555 1_555
C8 N2 1_555 1_555
C9 N1 1_555 1_555
C10 N3 1_555 1_555
H9 C10 1_555 1_555
C11 N4 1_555 1_555
H10 N5 1_555 1_555
H11 N5 1_555 1_555
C4 C5 1_555 1_555
C5 C6 1_555 1_555
C8 C9 1_555 1_555
C8 C11 1_555 1_555

#END
