
#######################################################################
#
#                 Cambridge Crystallographic Data Centre
#                                CCDC 
#
#######################################################################
#
# If this CIF has been generated from an entry in the Cambridge 
# Structural Database, then it will include bibliographic, chemical, 
# crystal, experimental, refinement or atomic coordinate data resulting 
# from the CCDC's data processing and validation procedures.
#
#######################################################################

data_HUGYEP
_chemical_formula_moiety         'C14 H9 O4 1-,C6 H16 N1 1+'
_chemical_name_systematic        
"N-propylpropan-1-aminium 2'-carboxybiphenyl-2-carboxylate"
_symmetry_cell_setting           monoclinic
_symmetry_space_group_name_H-M   'P 21/c'
_symmetry_Int_Tables_number      14
_space_group_name_Hall           '-P 2ybc'
loop_
_symmetry_equiv_pos_site_id
_symmetry_equiv_pos_as_xyz
1 x,y,z
2 -x,1/2+y,1/2-z
3 -x,-y,-z
4 x,1/2-y,1/2+z
_cell_length_a                   7.69490(10)
_cell_length_b                   15.2298(2)
_cell_length_c                   16.4677(3)
_cell_angle_alpha                90
_cell_angle_beta                 101.2070(10)
_cell_angle_gamma                90
_cell_volume                     1893.08
_exptl_crystal_colour            colorless
_exptl_crystal_description       block
_cell_formula_units_Z            4
loop_
_atom_site_label
_atom_site_type_symbol
_atom_site_fract_x
_atom_site_fract_y
_atom_site_fract_z
N1 N 0.1246(2) 0.48355(11) 0.13404(10)
H1 H 0.0566 0.5291 0.1123
H2 H 0.1227 0.4432 0.0940
C1 C 0.0512(4) 0.44459(19) 0.20311(16)
H3 H 0.1243 0.3951 0.2257
H4 H 0.0570 0.4879 0.2467
C2 C -0.1293(4) 0.4154(3) 0.1781(2)
H5 H -0.1344 0.3670 0.1394
H6 H -0.2014 0.4629 0.1504
C3 C -0.2040(6) 0.3850(3) 0.2556(3)
H7 H -0.3242 0.3656 0.2382
H8 H -0.2004 0.4332 0.2934
H9 H -0.1332 0.3376 0.2825
C4 C 0.3104(4) 0.5144(2) 0.16381(16)
H10 H 0.3785 0.4674 0.1946
H11 H 0.3093 0.5634 0.2013
C5 C 0.4011(4) 0.5427(2) 0.0941(2)
H12 H 0.5247 0.5548 0.1170
H13 H 0.3971 0.4944 0.0554
C6 C 0.3227(5) 0.6204(3) 0.0488(3)
H14 H 0.3868 0.6343 0.0059
H15 H 0.3289 0.6692 0.0862
H16 H 0.2011 0.6087 0.0246
C7 C 0.1586(3) 0.32502(13) -0.03908(14)
C8 C 0.2179(2) 0.23512(12) -0.05895(11)
C9 C 0.3226(3) 0.22689(15) -0.11851(12)
H17 H 0.3452 0.2759 -0.1486
C10 C 0.3934(3) 0.14639(17) -0.13333(14)
H18 H 0.4662 0.1417 -0.1720
C11 C 0.3561(3) 0.07332(16) -0.09090(15)
H19 H 0.4043 0.0192 -0.1007
C12 C 0.2472(3) 0.08009(14) -0.03369(14)
H20 H 0.2202 0.0300 -0.0063
C13 C 0.1773(2) 0.16075(12) -0.01647(11)
C14 C 0.0536(2) 0.16483(12) 0.04315(12)
C15 C -0.1288(3) 0.16413(13) 0.01320(13)
H21 H -0.1717 0.1622 -0.0436
C16 C -0.2466(3) 0.16629(15) 0.06659(16)
H22 H -0.3678 0.1673 0.0455
C17 C -0.1858(3) 0.16697(16) 0.15072(15)
H23 H -0.2655 0.1678 0.1865
C18 C -0.0056(3) 0.16642(16) 0.18197(14)
H24 H 0.0357 0.1659 0.2389
C19 C 0.1140(3) 0.16668(14) 0.12893(12)
C20 C 0.3075(3) 0.17554(18) 0.16545(13)
O1 O 0.1811(2) 0.34464(9) 0.03690(10)
O2 O 0.0960(3) 0.37479(12) -0.09690(12)
O3 O 0.3876(2) 0.24475(13) 0.14200(10)
H25 H 0.3165 0.2737 0.1091
O4 O 0.3855(3) 0.12528(17) 0.21569(12)
loop_
_geom_bond_atom_site_label_1
_geom_bond_atom_site_label_2
_geom_bond_site_symmetry_1
_geom_bond_site_symmetry_2
N1 H1 1_555 1_555
H2 N1 1_555 1_555
C1 N1 1_555 1_555
H3 C1 1_555 1_555
H4 C1 1_555 1_555
C2 C1 1_555 1_555
H5 C2 1_555 1_555
H6 C2 1_555 1_555
C3 C2 1_555 1_555
H7 C3 1_555 1_555
H8 C3 1_555 1_555
H9 C3 1_555 1_555
C4 N1 1_555 1_555
H10 C4 1_555 1_555
H11 C4 1_555 1_555
C5 C4 1_555 1_555
H12 C5 1_555 1_555
H13 C5 1_555 1_555
C6 C5 1_555 1_555
H14 C6 1_555 1_555
H15 C6 1_555 1_555
H16 C6 1_555 1_555
C7 C8 1_555 1_555
C8 C9 1_555 1_555
C9 H17 1_555 1_555
C10 C9 1_555 1_555
H18 C10 1_555 1_555
C11 C10 1_555 1_555
H19 C11 1_555 1_555
C12 C11 1_555 1_555
H20 C12 1_555 1_555
C13 C8 1_555 1_555
C14 C13 1_555 1_555
C15 C14 1_555 1_555
H21 C15 1_555 1_555
C16 C15 1_555 1_555
H22 C16 1_555 1_555
C17 C16 1_555 1_555
H23 C17 1_555 1_555
C18 C17 1_555 1_555
H24 C18 1_555 1_555
C19 C14 1_555 1_555
C20 C19 1_555 1_555
O1 C7 1_555 1_555
O2 C7 1_555 1_555
O3 C20 1_555 1_555
H25 O3 1_555 1_555
O4 C20 1_555 1_555
C12 C13 1_555 1_555
C18 C19 1_555 1_555

#END
