
#######################################################################
#
#                 Cambridge Crystallographic Data Centre
#                                CCDC 
#
#######################################################################
#
# If this CIF has been generated from an entry in the Cambridge 
# Structural Database, then it will include bibliographic, chemical, 
# crystal, experimental, refinement or atomic coordinate data resulting 
# from the CCDC's data processing and validation procedures.
#
#######################################################################

data_HUHKIG
_chemical_name_common            '(-)-isoiresin monohydrate'
_chemical_formula_moiety         'C15 H22 O4,H2 O1'
_chemical_name_systematic        
'(-)-7-hydroxy-6-(hydroxymethyl)-6,9a-dimethyl-4,5,5a,6,7,8,9,9a-octahydronaphtho[1,2-c]furan-3(1H)-one monohydrate'
_symmetry_cell_setting           orthorhombic
_symmetry_space_group_name_H-M   'C 2 2 21'
_symmetry_Int_Tables_number      20
_space_group_name_Hall           'C 2n 2'
loop_
_symmetry_equiv_pos_site_id
_symmetry_equiv_pos_as_xyz
1 x,y,z
2 x,-y,-z
3 -x,y,1/2-z
4 -x,-y,1/2+z
5 1/2+x,1/2+y,z
6 1/2+x,1/2-y,-z
7 1/2-x,1/2+y,1/2-z
8 1/2-x,1/2-y,1/2+z
_cell_length_a                   6.580(6)
_cell_length_b                   12.892(15)
_cell_length_c                   32.76(3)
_cell_angle_alpha                90
_cell_angle_beta                 90
_cell_angle_gamma                90
_cell_volume                     2779.01
_cell_formula_units_Z            8
loop_
_atom_site_label
_atom_site_type_symbol
_atom_site_fract_x
_atom_site_fract_y
_atom_site_fract_z
C1 C -0.2291(2) 0.05341(12) -0.15151(4)
C2 C -0.0979(3) 0.14606(12) -0.13957(5)
H1 H 0.0315(3) 0.14214(12) -0.15369(5)
H2 H -0.1649(3) 0.20970(12) -0.14782(5)
C3 C -0.0614(3) 0.14793(13) -0.09370(5)
H3 H 0.0228(3) 0.20720(13) -0.08685(5)
H4 H -0.1903(3) 0.15570(13) -0.07969(5)
C4 C 0.0413(3) 0.05020(14) -0.07933(5)
H5 H 0.1766(3) 0.04746(14) -0.09177(5)
C5 C -0.0700(2) -0.05115(13) -0.08997(5)
C6 C -0.1280(2) -0.04752(12) -0.13589(5)
H6 H 0.0028(2) -0.04993(12) -0.15018(5)
C7 C -0.2427(3) -0.14328(12) -0.15162(5)
H7 H -0.1861(3) -0.20516(12) -0.13920(5)
H8 H -0.3844(3) -0.13851(12) -0.14368(5)
C8 C -0.2283(3) -0.15217(13) -0.19784(5)
H9 H -0.1006(3) -0.18465(13) -0.20526(5)
H10 H -0.3380(3) -0.19540(13) -0.20793(5)
C9 C -0.2412(3) -0.04742(13) -0.21688(5)
C10 C -0.2390(3) 0.04186(12) -0.19697(5)
C11 C -0.2573(3) -0.02684(13) -0.26037(5)
C12 C -0.2525(3) 0.12827(13) -0.22688(5)
H11 H -0.3732(3) 0.16972(13) -0.22207(5)
H12 H -0.1339(3) 0.17274(13) -0.22508(5)
C13 C -0.4487(3) 0.07046(14) -0.13693(6)
H13 H -0.5284(5) 0.0100(4) -0.1429(3)
H14 H -0.4492(3) 0.0826(10) -0.10802(8)
H15 H -0.5056(7) 0.1294(6) -0.1507(3)
C14 C -0.2553(3) -0.06705(13) -0.06204(5)
H16 H -0.3126(3) 0.00031(13) -0.05560(5)
H17 H -0.3575(3) -0.10584(13) -0.07695(5)
C15 C 0.0801(3) -0.14065(15) -0.08389(6)
H18 H 0.1417(16) -0.1351(6) -0.05742(18)
H19 H 0.0092(5) -0.20550(15) -0.0859(4)
H20 H 0.1836(12) -0.1374(7) -0.1045(3)
O1 O 0.0664(2) 0.05268(11) -0.03620(3)
H21 H 0.1759(16) 0.0795(16) -0.03061(4)
O2 O -0.2131(2) -0.12027(9) -0.02464(4)
H22 H -0.131(3) -0.0868(9) -0.0113(3)
O3 O -0.2623(2) 0.07844(9) -0.26603(3)
O4 O -0.2666(2) -0.08569(11) -0.28882(4)
O5 O -0.5882(3) -0.83954(15) -0.01859(6)
H23 H -0.477(5) -0.845(2) -0.0056(8)
H24 H -0.607(5) -0.776(2) -0.0165(8)
loop_
_geom_bond_atom_site_label_1
_geom_bond_atom_site_label_2
_geom_bond_site_symmetry_1
_geom_bond_site_symmetry_2
C1 C2 1_555 1_555
C2 H1 1_555 1_555
H2 C2 1_555 1_555
C3 C2 1_555 1_555
H3 C3 1_555 1_555
H4 C3 1_555 1_555
C4 C3 1_555 1_555
H5 C4 1_555 1_555
C5 C4 1_555 1_555
C6 C1 1_555 1_555
H6 C6 1_555 1_555
C7 C6 1_555 1_555
H7 C7 1_555 1_555
H8 C7 1_555 1_555
C8 C7 1_555 1_555
H9 C8 1_555 1_555
H10 C8 1_555 1_555
C9 C8 1_555 1_555
C10 C1 1_555 1_555
C11 C9 1_555 1_555
C12 C10 1_555 1_555
H11 C12 1_555 1_555
H12 C12 1_555 1_555
C13 C1 1_555 1_555
H13 C13 1_555 1_555
H14 C13 1_555 1_555
H15 C13 1_555 1_555
C14 C5 1_555 1_555
H16 C14 1_555 1_555
H17 C14 1_555 1_555
C15 C5 1_555 1_555
H18 C15 1_555 1_555
H19 C15 1_555 1_555
H20 C15 1_555 1_555
O1 C4 1_555 1_555
H21 O1 1_555 1_555
O2 C14 1_555 1_555
H22 O2 1_555 1_555
O3 C11 1_555 1_555
O4 C11 1_555 1_555
O5 H23 1_555 1_555
H24 O5 1_555 1_555
C5 C6 1_555 1_555
C9 C10 1_555 1_555
C12 O3 1_555 1_555

#END
