
#######################################################################
#
#                 Cambridge Crystallographic Data Centre
#                                CCDC 
#
#######################################################################
#
# If this CIF has been generated from an entry in the Cambridge 
# Structural Database, then it will include bibliographic, chemical, 
# crystal, experimental, refinement or atomic coordinate data resulting 
# from the CCDC's data processing and validation procedures.
#
#######################################################################

data_HUHLAZ
_chemical_formula_moiety         'C24 H23 N1 O5'
_chemical_name_systematic        
'(R,E)-ethyl 2-(2-ethoxy-2-oxoethylidene)-4-phenyl-3,4-dihydropyrano[2,3-b]indole-9(2H)-carboxylate'
_symmetry_cell_setting           orthorhombic
_symmetry_space_group_name_H-M   'P 21 21 21'
_symmetry_Int_Tables_number      19
_space_group_name_Hall           'P 2ac 2ab'
loop_
_symmetry_equiv_pos_site_id
_symmetry_equiv_pos_as_xyz
1 x,y,z
2 1/2-x,-y,1/2+z
3 -x,1/2+y,1/2-z
4 1/2+x,1/2-y,-z
_cell_length_a                   5.6009(11)
_cell_length_b                   14.502(3)
_cell_length_c                   24.919(5)
_cell_angle_alpha                90
_cell_angle_beta                 90
_cell_angle_gamma                90
_cell_volume                     2024.03
_exptl_crystal_colour            colorless
_exptl_crystal_description       rod
_cell_formula_units_Z            4
loop_
_atom_site_label
_atom_site_type_symbol
_atom_site_fract_x
_atom_site_fract_y
_atom_site_fract_z
O1 O 0.3637(2) 0.23954(7) 0.18542(4)
O2 O 0.3766(2) 0.08881(7) 0.20613(4)
O3 O 0.05083(19) -0.01773(7) 0.15941(4)
O4 O -0.3286(2) -0.27964(8) 0.14946(5)
O5 O 0.0263(2) -0.32828(7) 0.18009(4)
N1 N 0.1085(2) 0.14335(8) 0.14446(5)
C1 C 0.6268(4) 0.35538(12) 0.21698(7)
H1 H 0.6471 0.3736 0.1802
H2 H 0.7709 0.3678 0.2366
H3 H 0.4973 0.3895 0.2325
C2 C 0.5725(3) 0.25427(11) 0.21953(6)
H4 H 0.7071 0.2186 0.2065
H5 H 0.5384 0.2358 0.2562
C3 C 0.2944(3) 0.15228(10) 0.18143(6)
C4 C -0.0070(3) 0.21259(10) 0.11325(5)
C5 C 0.0494(3) 0.30456(10) 0.10468(6)
H6 H 0.1843 0.3311 0.1200
C6 C -0.1032(4) 0.35539(11) 0.07233(6)
H7 H -0.0697 0.4172 0.0659
C7 C -0.3046(3) 0.31625(12) 0.04932(6)
H8 H -0.4061 0.3527 0.0288
C8 C -0.3571(3) 0.22398(11) 0.05645(6)
H9 H -0.4901 0.1977 0.0402
C9 C -0.2062(3) 0.17111(10) 0.08858(6)
C10 C -0.2109(3) 0.07485(10) 0.10379(6)
C11 C -0.0244(3) 0.06206(10) 0.13649(6)
C12 C -0.1031(3) -0.09255(10) 0.15292(5)
C13 C -0.3550(3) -0.07151(11) 0.13864(6)
H10 H -0.4349 -0.0453 0.1696
H11 H -0.4362 -0.1284 0.1294
C14 C -0.3748(3) -0.00334(10) 0.09098(6)
H12 H -0.5384 0.0206 0.0900
C15 C -0.3250(3) -0.05154(10) 0.03799(6)
C16 C -0.1188(3) -0.03634(12) 0.00868(6)
H13 H -0.0077 0.0065 0.0208
C17 C -0.0755(3) -0.08406(13) -0.03850(7)
H14 H 0.0634 -0.0726 -0.0579
C18 C -0.2362(3) -0.14821(13) -0.05688(7)
H15 H -0.2065 -0.1803 -0.0885
C19 C -0.4413(3) -0.16454(14) -0.02818(7)
H16 H -0.5507 -0.2080 -0.0404
C20 C -0.4860(3) -0.11661(13) 0.01883(6)
H17 H -0.6257 -0.1281 0.0378
C21 C -0.0023(3) -0.17404(10) 0.16276(6)
H18 H 0.1602 -0.1744 0.1704
C22 C -0.1256(3) -0.26304(10) 0.16260(5)
C23 C -0.0557(3) -0.42307(10) 0.17826(7)
H19 H -0.1023 -0.4398 0.1420
H20 H -0.1917 -0.4316 0.2018
C24 C 0.1498(4) -0.48049(12) 0.19645(9)
H21 H 0.2828 -0.4711 0.1728
H22 H 0.1049 -0.5444 0.1960
H23 H 0.1939 -0.4630 0.2322
loop_
_geom_bond_atom_site_label_1
_geom_bond_atom_site_label_2
_geom_bond_site_symmetry_1
_geom_bond_site_symmetry_2
O1 C2 1_555 1_555
O2 C3 1_555 1_555
O3 C11 1_555 1_555
O4 C22 1_555 1_555
O5 C22 1_555 1_555
N1 C3 1_555 1_555
C1 H1 1_555 1_555
H2 C1 1_555 1_555
H3 C1 1_555 1_555
C2 C1 1_555 1_555
H4 C2 1_555 1_555
H5 C2 1_555 1_555
C3 O1 1_555 1_555
C4 N1 1_555 1_555
C5 C4 1_555 1_555
H6 C5 1_555 1_555
C6 C5 1_555 1_555
H7 C6 1_555 1_555
C7 C6 1_555 1_555
H8 C7 1_555 1_555
C8 C7 1_555 1_555
H9 C8 1_555 1_555
C9 C4 1_555 1_555
C10 C9 1_555 1_555
C11 N1 1_555 1_555
C12 O3 1_555 1_555
C13 C12 1_555 1_555
H10 C13 1_555 1_555
H11 C13 1_555 1_555
C14 C10 1_555 1_555
H12 C14 1_555 1_555
C15 C14 1_555 1_555
C16 C15 1_555 1_555
H13 C16 1_555 1_555
C17 C16 1_555 1_555
H14 C17 1_555 1_555
C18 C17 1_555 1_555
H15 C18 1_555 1_555
C19 C18 1_555 1_555
H16 C19 1_555 1_555
C20 C15 1_555 1_555
H17 C20 1_555 1_555
C21 C12 1_555 1_555
H18 C21 1_555 1_555
C22 C21 1_555 1_555
C23 O5 1_555 1_555
H19 C23 1_555 1_555
H20 C23 1_555 1_555
C24 C23 1_555 1_555
H21 C24 1_555 1_555
H22 C24 1_555 1_555
H23 C24 1_555 1_555
C8 C9 1_555 1_555
C10 C11 1_555 1_555
C13 C14 1_555 1_555
C19 C20 1_555 1_555

#END
