
#######################################################################
#
#                 Cambridge Crystallographic Data Centre
#                                CCDC 
#
#######################################################################
#
# If this CIF has been generated from an entry in the Cambridge 
# Structural Database, then it will include bibliographic, chemical, 
# crystal, experimental, refinement or atomic coordinate data resulting 
# from the CCDC's data processing and validation procedures.
#
#######################################################################

data_HUHNEF
_chemical_formula_moiety         'C19 H21 Cl1 N4 O6'
_chemical_name_systematic        
'3-Ethyl 1,1-dimethyl 3-(6-chloro-9H-purin-9-yl)-4-vinylcyclopentane-1,1,3-tricarboxylate'
_symmetry_cell_setting           monoclinic
_symmetry_space_group_name_H-M   'P 21'
_symmetry_Int_Tables_number      4
_space_group_name_Hall           'P 2yb'
loop_
_symmetry_equiv_pos_site_id
_symmetry_equiv_pos_as_xyz
1 x,y,z
2 -x,1/2+y,-z
_cell_length_a                   9.960(2)
_cell_length_b                   8.9114(18)
_cell_length_c                   12.427(3)
_cell_angle_alpha                90
_cell_angle_beta                 105.91(3)
_cell_angle_gamma                90
_cell_volume                     1060.74
_exptl_crystal_colour            colorless
_exptl_crystal_description       block
_cell_formula_units_Z            2
loop_
_atom_site_label
_atom_site_type_symbol
_atom_site_fract_x
_atom_site_fract_y
_atom_site_fract_z
Cl1 Cl 0.82009(8) 0.12138(9) 0.62494(6)
C1 C 0.7366(2) 0.2154(3) 0.7096(2)
C2 C 0.7018(3) 0.2473(3) 0.8809(2)
H1 H 0.7211 0.2134 0.9543
C3 C 0.5897(2) 0.4002(3) 0.74726(18)
C4 C 0.6447(2) 0.3324(3) 0.66837(18)
C5 C 0.5136(3) 0.5062(3) 0.58452(19)
H2 H 0.4660 0.5721 0.5291
C6 C 0.4422(2) 0.6276(3) 0.74846(17)
C7 C 0.3434(3) 0.7338(3) 0.6672(2)
H3 H 0.2527 0.6877 0.6369
H4 H 0.3814 0.7614 0.6059
C8 C 0.3322(2) 0.8722(3) 0.73884(19)
C9 C 0.4676(2) 0.8715(3) 0.8376(2)
H5 H 0.5200 0.9633 0.8377
H6 H 0.4446 0.8639 0.9084
C10 C 0.5537(2) 0.7355(3) 0.8211(2)
H7 H 0.5976 0.6888 0.8936
C11 C 0.6626(3) 0.7733(3) 0.7631(2)
H8 H 0.6368 0.8388 0.7027
C12 C 0.7879(3) 0.7239(5) 0.7890(3)
H9 H 0.8184 0.6582 0.8489
H10 H 0.8486 0.7538 0.7480
C13 C 0.3630(3) 0.5477(3) 0.8218(2)
C14 C 0.2077(4) 0.3484(4) 0.8275(3)
H11 H 0.2633 0.3381 0.9045
H12 H 0.1907 0.2486 0.7954
C15 C 0.0732(4) 0.4191(5) 0.8252(5)
H13 H 0.0899 0.5148 0.8619
H14 H 0.0230 0.3558 0.8633
H15 H 0.0192 0.4326 0.7490
C16 C 0.2023(3) 0.8654(3) 0.7794(2)
C17 C 0.0850(3) 0.9785(4) 0.8989(2)
H16 H 0.0018 1.0008 0.8407
H17 H 0.1002 1.0550 0.9553
H18 H 0.0749 0.8830 0.9317
C18 C 0.3231(3) 1.0136(3) 0.6655(2)
C19 C 0.1715(5) 1.1578(4) 0.5241(3)
H19 H 0.1896 1.2502 0.5652
H20 H 0.0767 1.1569 0.4782
H21 H 0.2337 1.1491 0.4774
N1 N 0.7657(2) 0.1738(2) 0.81464(17)
N2 N 0.6140(2) 0.3631(2) 0.85426(16)
N3 N 0.5045(2) 0.5133(2) 0.69202(15)
N4 N 0.5948(2) 0.3994(3) 0.56547(16)
O1 O 0.28532(19) 0.4356(2) 0.76554(15)
O2 O 0.3681(2) 0.5833(2) 0.91424(16)
O3 O 0.1108(2) 0.7744(2) 0.7502(2)
O4 O 0.20260(19) 0.9733(2) 0.85240(15)
O5 O 0.1938(2) 1.0317(3) 0.60215(17)
O6 O 0.4191(3) 1.0913(2) 0.66305(19)
loop_
_geom_bond_atom_site_label_1
_geom_bond_atom_site_label_2
_geom_bond_site_symmetry_1
_geom_bond_site_symmetry_2
Cl1 C1 1_555 1_555
C1 C4 1_555 1_555
C2 H1 1_555 1_555
C3 C4 1_555 1_555
C4 N4 1_555 1_555
C5 H2 1_555 1_555
C6 C7 1_555 1_555
C7 H3 1_555 1_555
H4 C7 1_555 1_555
C8 C7 1_555 1_555
C9 C8 1_555 1_555
H5 C9 1_555 1_555
H6 C9 1_555 1_555
C10 C6 1_555 1_555
H7 C10 1_555 1_555
C11 C10 1_555 1_555
H8 C11 1_555 1_555
C12 C11 1_555 1_555
H9 C12 1_555 1_555
H10 C12 1_555 1_555
C13 C6 1_555 1_555
C14 H11 1_555 1_555
H12 C14 1_555 1_555
C15 C14 1_555 1_555
H13 C15 1_555 1_555
H14 C15 1_555 1_555
H15 C15 1_555 1_555
C16 C8 1_555 1_555
C17 H16 1_555 1_555
H17 C17 1_555 1_555
H18 C17 1_555 1_555
C18 C8 1_555 1_555
C19 H19 1_555 1_555
H20 C19 1_555 1_555
H21 C19 1_555 1_555
N1 C1 1_555 1_555
N2 C2 1_555 1_555
N3 C3 1_555 1_555
N4 C5 1_555 1_555
O1 C13 1_555 1_555
O2 C13 1_555 1_555
O3 C16 1_555 1_555
O4 C16 1_555 1_555
O5 C18 1_555 1_555
O6 C18 1_555 1_555
C2 N1 1_555 1_555
C3 N2 1_555 1_555
C5 N3 1_555 1_555
C6 N3 1_555 1_555
C9 C10 1_555 1_555
C14 O1 1_555 1_555
C17 O4 1_555 1_555
C19 O5 1_555 1_555

#END
