
#######################################################################
#
#                 Cambridge Crystallographic Data Centre
#                                CCDC 
#
#######################################################################
#
# If this CIF has been generated from an entry in the Cambridge 
# Structural Database, then it will include bibliographic, chemical, 
# crystal, experimental, refinement or atomic coordinate data resulting 
# from the CCDC's data processing and validation procedures.
#
#######################################################################

data_HUHPAC
_chemical_formula_moiety         'C19 H25 N5 S2'
_chemical_name_systematic        
1,1'-Pyridine-2,6-diylbis(3-t-butyl-1,3-dihydro-2H-imidazole-2-thione)
_symmetry_cell_setting           orthorhombic
_symmetry_space_group_name_H-M   'P b c a'
_symmetry_Int_Tables_number      61
_space_group_name_Hall           '-P 2ac 2ab'
loop_
_symmetry_equiv_pos_site_id
_symmetry_equiv_pos_as_xyz
1 x,y,z
2 1/2-x,-y,1/2+z
3 -x,1/2+y,1/2-z
4 1/2+x,1/2-y,-z
5 -x,-y,-z
6 1/2+x,y,1/2-z
7 x,1/2-y,1/2+z
8 1/2-x,1/2+y,z
_cell_length_a                   12.276(3)
_cell_length_b                   11.261(3)
_cell_length_c                   29.202(8)
_cell_angle_alpha                90
_cell_angle_beta                 90
_cell_angle_gamma                90
_cell_volume                     4036.89
_exptl_crystal_colour            colorless
_exptl_crystal_description       prism
_cell_formula_units_Z            8
loop_
_atom_site_label
_atom_site_type_symbol
_atom_site_fract_x
_atom_site_fract_y
_atom_site_fract_z
S1 S 1.09804(5) 0.20485(5) 0.68325(2)
S2 S 0.59918(5) 0.23412(4) 0.55849(2)
N1 N 0.84606(13) 0.01729(13) 0.61765(6)
N2 N 1.10538(13) -0.02203(13) 0.71934(6)
N3 N 1.00691(12) -0.00400(14) 0.65752(6)
N4 N 0.67938(12) 0.01808(13) 0.58182(6)
N5 N 0.50225(12) 0.02092(14) 0.58250(6)
C1 C 1.07314(14) 0.05858(16) 0.68700(7)
C2 C 0.99531(17) -0.11982(17) 0.67291(8)
H1 H 0.9530 -0.1788 0.6595
C3 C 1.05535(17) -0.13100(17) 0.71010(8)
H2 H 1.0631 -0.1999 0.7273
C4 C 1.17902(16) 0.00001(18) 0.75905(7)
C5 C 1.28835(16) 0.04552(19) 0.74175(8)
H3 H 1.3224 -0.0145 0.7233
H4 H 1.3344 0.0640 0.7674
H5 H 1.2772 0.1157 0.7237
C6 C 1.12405(18) 0.08730(18) 0.79172(8)
H6 H 1.1091 0.1602 0.7759
H7 H 1.1714 0.1028 0.8172
H8 H 1.0570 0.0537 0.8027
C7 C 1.19928(17) -0.11665(17) 0.78412(8)
H9 H 1.1314 -0.1475 0.7952
H10 H 1.2476 -0.1031 0.8094
H11 H 1.2316 -0.1728 0.7635
C8 C 0.95218(17) 0.03963(16) 0.61806(8)
C9 C 1.00661(16) 0.09453(18) 0.58286(8)
H12 H 1.0810 0.1093 0.5848
C10 C 0.94845(17) 0.12719(18) 0.54464(8)
H13 H 0.9831 0.1640 0.5201
C11 C 0.83753(16) 0.10458(17) 0.54314(7)
H14 H 0.7958 0.1258 0.5178
C12 C 0.79163(15) 0.04978(16) 0.58039(7)
C13 C 0.59124(17) 0.08988(16) 0.57380(7)
C14 C 0.64505(17) -0.09266(17) 0.59603(7)
H15 H 0.6892 -0.1565 0.6040
C15 C 0.53693(18) -0.09055(18) 0.59620(8)
H16 H 0.4919 -0.1536 0.6042
C16 C 0.38497(16) 0.05552(17) 0.57799(8)
C17 C 0.36081(19) 0.1564(2) 0.61114(10)
H17 H 0.3794 0.1322 0.6417
H18 H 0.2847 0.1757 0.6098
H19 H 0.4031 0.2248 0.6029
C18 C 0.36250(17) 0.0916(2) 0.52933(9)
H20 H 0.4083 0.1574 0.5212
H21 H 0.2875 0.1144 0.5264
H22 H 0.3773 0.0260 0.5093
C19 C 0.31392(18) -0.0502(2) 0.58990(10)
H23 H 0.3326 -0.1160 0.5705
H24 H 0.2388 -0.0298 0.5854
H25 H 0.3254 -0.0718 0.6213
loop_
_geom_bond_atom_site_label_1
_geom_bond_atom_site_label_2
_geom_bond_site_symmetry_1
_geom_bond_site_symmetry_2
S1 C1 1_555 1_555
S2 C13 1_555 1_555
N1 C8 1_555 1_555
N2 C1 1_555 1_555
N3 C1 1_555 1_555
N4 C12 1_555 1_555
N5 C13 1_555 1_555
C2 N3 1_555 1_555
H1 C2 1_555 1_555
C3 N2 1_555 1_555
H2 C3 1_555 1_555
C4 N2 1_555 1_555
C5 C4 1_555 1_555
H3 C5 1_555 1_555
H4 C5 1_555 1_555
H5 C5 1_555 1_555
C6 C4 1_555 1_555
H6 C6 1_555 1_555
H7 C6 1_555 1_555
H8 C6 1_555 1_555
C7 C4 1_555 1_555
H9 C7 1_555 1_555
H10 C7 1_555 1_555
H11 C7 1_555 1_555
C8 N3 1_555 1_555
C9 C8 1_555 1_555
H12 C9 1_555 1_555
C10 C9 1_555 1_555
H13 C10 1_555 1_555
C11 C10 1_555 1_555
H14 C11 1_555 1_555
C12 N1 1_555 1_555
C13 N4 1_555 1_555
C14 N4 1_555 1_555
H15 C14 1_555 1_555
C15 N5 1_555 1_555
H16 C15 1_555 1_555
C16 N5 1_555 1_555
C17 C16 1_555 1_555
H17 C17 1_555 1_555
H18 C17 1_555 1_555
H19 C17 1_555 1_555
C18 C16 1_555 1_555
H20 C18 1_555 1_555
H21 C18 1_555 1_555
H22 C18 1_555 1_555
C19 C16 1_555 1_555
H23 C19 1_555 1_555
H24 C19 1_555 1_555
H25 C19 1_555 1_555
C2 C3 1_555 1_555
C11 C12 1_555 1_555
C14 C15 1_555 1_555

#END
