
#######################################################################
#
#                 Cambridge Crystallographic Data Centre
#                                CCDC 
#
#######################################################################
#
# If this CIF has been generated from an entry in the Cambridge 
# Structural Database, then it will include bibliographic, chemical, 
# crystal, experimental, refinement or atomic coordinate data resulting 
# from the CCDC's data processing and validation procedures.
#
#######################################################################

data_HUHQIK
_chemical_formula_moiety         'C19 H20 N2 O3'
_chemical_name_systematic        
1-Methoxymethyl-5-ethyl-6-(1-naphthylmethyl)-uracil
_chemical_properties_biological  'potential HIV-RT inhibitor'
_symmetry_cell_setting           monoclinic
_symmetry_space_group_name_H-M   'P 21/n'
_symmetry_Int_Tables_number      14
_space_group_name_Hall           '-P 2yn'
loop_
_symmetry_equiv_pos_site_id
_symmetry_equiv_pos_as_xyz
1 x,y,z
2 1/2+x,1/2-y,1/2+z
3 -x,-y,-z
4 1/2-x,1/2+y,1/2-z
_cell_length_a                   10.325(4)
_cell_length_b                   14.813(5)
_cell_length_c                   11.295(4)
_cell_angle_alpha                90
_cell_angle_beta                 110.709(5)
_cell_angle_gamma                90
_cell_volume                     1615.89
_exptl_crystal_colour            colorless
_exptl_crystal_description       block
_chemical_melting_point          169-170deg.C
_cell_formula_units_Z            4
_exptl_crystal_recrystallization_method 'ethyl acetate'
loop_
_atom_site_label
_atom_site_type_symbol
_atom_site_fract_x
_atom_site_fract_y
_atom_site_fract_z
N1 N 0.52974(18) 0.28010(12) 0.06113(17)
C1 C 0.4926(2) 0.21426(15) -0.0330(2)
O1 O 0.44760(19) 0.23081(11) -0.14499(16)
N2 N 0.5093(2) 0.12774(13) 0.01138(18)
C2 C 0.5643(2) 0.10093(15) 0.1344(2)
O2 O 0.57884(16) 0.01964(10) 0.15965(14)
C3 C 0.6004(2) 0.17152(14) 0.2284(2)
C4 C 0.5789(2) 0.25853(14) 0.1896(2)
C5 C 0.5221(3) 0.37493(16) 0.0181(3)
O3 O 0.65089(19) 0.41605(11) 0.05445(17)
C6 C 0.7382(5) 0.3807(3) -0.0063(5)
C7 C 0.6572(3) 0.1406(2) 0.3644(2)
C8 C 0.5471(4) 0.1140(3) 0.4181(3)
C9 C 0.6010(3) 0.33726(17) 0.2780(2)
C10 C 0.4681(2) 0.37694(14) 0.28414(19)
C11 C 0.3547(2) 0.32459(18) 0.2662(2)
C12 C 0.2350(3) 0.35759(19) 0.2819(2)
C13 C 0.2296(3) 0.44494(19) 0.3155(2)
C14 C 0.3428(3) 0.50320(16) 0.3335(2)
C15 C 0.3389(4) 0.59437(19) 0.3686(2)
C16 C 0.4476(4) 0.6499(2) 0.3848(3)
C17 C 0.5653(4) 0.61849(17) 0.3666(2)
C18 C 0.5745(3) 0.53011(16) 0.3342(2)
C19 C 0.4636(2) 0.46985(15) 0.31698(19)
H1 H 0.478(2) 0.0853(16) -0.050(2)
H2 H 0.470(3) 0.4085(17) 0.056(2)
H3 H 0.474(2) 0.3715(15) -0.076(2)
H4 H 0.816(5) 0.412(3) 0.018(4)
H5 H 0.758(4) 0.319(3) 0.015(3)
H6 H 0.683(6) 0.377(3) -0.102(6)
H7 H 0.712(2) 0.1837(16) 0.416(2)
H8 H 0.712(3) 0.0898(18) 0.364(2)
H9 H 0.587(3) 0.0936(19) 0.501(3)
H10 H 0.488(3) 0.065(2) 0.367(3)
H11 H 0.486(3) 0.167(2) 0.417(3)
H12 H 0.660(2) 0.3172(14) 0.359(2)
H13 H 0.657(2) 0.3792(16) 0.256(2)
H14 H 0.356(2) 0.2637(17) 0.242(2)
H15 H 0.158(3) 0.3173(17) 0.273(2)
H16 H 0.146(3) 0.4715(16) 0.329(2)
H17 H 0.259(3) 0.6172(16) 0.387(2)
H18 H 0.441(3) 0.710(2) 0.407(2)
H19 H 0.649(3) 0.6588(18) 0.377(2)
H20 H 0.661(3) 0.5085(17) 0.321(2)
loop_
_geom_bond_atom_site_label_1
_geom_bond_atom_site_label_2
_geom_bond_site_symmetry_1
_geom_bond_site_symmetry_2
N1 C1 1_555 1_555
C1 O1 1_555 1_555
N2 C1 1_555 1_555
C2 N2 1_555 1_555
O2 C2 1_555 1_555
C3 C2 1_555 1_555
C4 N1 1_555 1_555
C5 N1 1_555 1_555
O3 C5 1_555 1_555
C6 O3 1_555 1_555
C7 C3 1_555 1_555
C8 C7 1_555 1_555
C9 C4 1_555 1_555
C10 C9 1_555 1_555
C11 C10 1_555 1_555
C12 C11 1_555 1_555
C13 C12 1_555 1_555
C14 C13 1_555 1_555
C15 C14 1_555 1_555
C16 C15 1_555 1_555
C17 C16 1_555 1_555
C18 C17 1_555 1_555
C19 C10 1_555 1_555
H1 N2 1_555 1_555
H2 C5 1_555 1_555
H3 C5 1_555 1_555
H4 C6 1_555 1_555
H5 C6 1_555 1_555
H6 C6 1_555 1_555
H7 C7 1_555 1_555
H8 C7 1_555 1_555
H9 C8 1_555 1_555
H10 C8 1_555 1_555
H11 C8 1_555 1_555
H12 C9 1_555 1_555
H13 C9 1_555 1_555
H14 C11 1_555 1_555
H15 C12 1_555 1_555
H16 C13 1_555 1_555
H17 C15 1_555 1_555
H18 C16 1_555 1_555
H19 C17 1_555 1_555
H20 C18 1_555 1_555
C3 C4 1_555 1_555
C14 C19 1_555 1_555
C18 C19 1_555 1_555

#END
