
#######################################################################
#
#                 Cambridge Crystallographic Data Centre
#                                CCDC 
#
#######################################################################
#
# If this CIF has been generated from an entry in the Cambridge 
# Structural Database, then it will include bibliographic, chemical, 
# crystal, experimental, refinement or atomic coordinate data resulting 
# from the CCDC's data processing and validation procedures.
#
#######################################################################

data_HUHQAC
_chemical_formula_moiety         'C28 H26 Cl2 N4 O4 S2'
_chemical_name_systematic        
cis-2,9-bis(4'-Chlorophenylamino)-5,6-dicyano-3,8-bis(ethoxycarbonyl)-4,7-dithiadeca-2,5,8-triene
_symmetry_cell_setting           triclinic
_symmetry_space_group_name_H-M   'P -1'
_symmetry_Int_Tables_number      2
_space_group_name_Hall           '-P 1'
loop_
_symmetry_equiv_pos_site_id
_symmetry_equiv_pos_as_xyz
1 x,y,z
2 -x,-y,-z
_cell_length_a                   11.102(3)
_cell_length_b                   12.537(12)
_cell_length_c                   12.790(15)
_cell_angle_alpha                116.28(9)
_cell_angle_beta                 98.03(5)
_cell_angle_gamma                71.55(3)
_cell_volume                     1514.14
_chemical_melting_point          182-184deg.C
_cell_formula_units_Z            2
loop_
_atom_site_label
_atom_site_type_symbol
_atom_site_fract_x
_atom_site_fract_y
_atom_site_fract_z
Cl1 Cl -0.2174(6) -0.0382(7) -0.2127(6)
Cl2 Cl 1.3204(6) 0.5076(6) 0.8154(6)
C1 C -0.1181(18) 0.0532(19) -0.1569(19)
C2 C -0.108(2) 0.118(2) -0.0406(19)
H1 H -0.1599 0.1160 0.0097
C3 C -0.024(2) 0.186(2) 0.0033(17)
H2 H -0.0110 0.2214 0.0834
C4 C 0.0417(19) 0.2017(18) -0.069(2)
C5 C 0.0275(18) 0.1439(18) -0.1834(18)
H3 H 0.0737 0.1516 -0.2337
C6 C -0.0574(18) 0.0708(19) -0.2290(16)
H4 H -0.0713 0.0348 -0.3090
C7 C 0.2529(17) 0.240(2) 0.0050(14)
C8 C 0.3032(18) 0.1037(17) -0.0182(18)
H5 H 0.2376 0.0638 -0.0533
H6 H 0.3289 0.0971 0.0541
H7 H 0.3747 0.0641 -0.0700
C9 C 0.3228(14) 0.3199(19) 0.0543(14)
C10 C 0.271(2) 0.455(2) 0.0767(14)
C11 C 0.310(3) 0.645(2) 0.149(3)
H8 H 0.3268 0.6558 0.0823
H9 H 0.2180 0.6715 0.1578
C12 C 0.352(4) 0.712(3) 0.232(4)
H10 H 0.3153 0.7962 0.2406
H11 H 0.4422 0.6897 0.2244
H12 H 0.3322 0.7065 0.2999
C13 C 0.4638(15) 0.3090(17) 0.2403(15)
C14 C 0.342(3) 0.366(2) 0.2905(19)
C15 C 0.5673(14) 0.295(2) 0.3152(18)
C16 C 0.5484(16) 0.335(2) 0.435(2)
C17 C 0.8081(16) 0.1918(19) 0.3726(14)
C18 C 0.7896(16) 0.0953(19) 0.3979(17)
C19 C 0.665(2) -0.040(3) 0.373(3)
H13 H 0.7321 -0.1178 0.3480
H14 H 0.6581 -0.0046 0.4575
C20 C 0.551(3) -0.060(4) 0.322(3)
H15 H 0.5287 -0.1139 0.3449
H16 H 0.5598 -0.0968 0.2384
H17 H 0.4858 0.0183 0.3459
C21 C 0.8956(16) 0.2532(17) 0.4271(16)
C22 C 0.9061(16) 0.3596(19) 0.4065(17)
H18 H 0.9731 0.3908 0.4539
H19 H 0.8273 0.4246 0.4267
H20 H 0.9247 0.3309 0.3257
C23 C 1.0569(17) 0.297(2) 0.581(2)
C24 C 1.1637(18) 0.292(2) 0.5405(17)
H21 H 1.1826 0.2461 0.4614
C25 C 1.2467(16) 0.354(2) 0.615(2)
H22 H 1.3236 0.3446 0.5864
C26 C 1.216(2) 0.430(2) 0.733(2)
C27 C 1.112(2) 0.4282(19) 0.7664(17)
H23 H 1.0936 0.4726 0.8457
C28 C 1.0253(17) 0.368(2) 0.698(2)
H24 H 0.9506 0.3741 0.7284
N1 N 0.1297(14) 0.2757(15) -0.0225(12)
H25 H 0.0993 0.3523 -0.0109
N2 N 0.238(2) 0.407(3) 0.328(2)
N3 N 0.5321(16) 0.361(2) 0.5281(17)
N4 N 0.9691(13) 0.2289(15) 0.5119(13)
H26 H 0.9633 0.1692 0.5252
O1 O 0.1590(12) 0.4988(11) 0.0567(10)
O2 O 0.3528(12) 0.5163(14) 0.1208(13)
O3 O 0.8522(11) 0.0608(13) 0.4706(12)
O4 O 0.6959(11) 0.0460(12) 0.3393(11)
S1 S 0.4809(4) 0.2712(5) 0.0930(4)
S2 S 0.7196(4) 0.2135(5) 0.2537(4)
loop_
_geom_bond_atom_site_label_1
_geom_bond_atom_site_label_2
_geom_bond_site_symmetry_1
_geom_bond_site_symmetry_2
Cl1 C1 1_555 1_555
Cl2 C26 1_555 1_555
C1 C2 1_555 1_555
C2 H1 1_555 1_555
C3 C2 1_555 1_555
H2 C3 1_555 1_555
C4 C3 1_555 1_555
C5 C4 1_555 1_555
H3 C5 1_555 1_555
C6 C1 1_555 1_555
H4 C6 1_555 1_555
C7 C8 1_555 1_555
C8 H5 1_555 1_555
H6 C8 1_555 1_555
H7 C8 1_555 1_555
C9 C7 1_555 1_555
C10 C9 1_555 1_555
C11 H8 1_555 1_555
H9 C11 1_555 1_555
C12 C11 1_555 1_555
H10 C12 1_555 1_555
H11 C12 1_555 1_555
H12 C12 1_555 1_555
C13 C14 1_555 1_555
C14 N2 1_555 1_555
C15 C13 1_555 1_555
C16 C15 1_555 1_555
C17 C18 1_555 1_555
C18 O3 1_555 1_555
C19 H13 1_555 1_555
H14 C19 1_555 1_555
C20 C19 1_555 1_555
H15 C20 1_555 1_555
H16 C20 1_555 1_555
H17 C20 1_555 1_555
C21 C17 1_555 1_555
C22 C21 1_555 1_555
H18 C22 1_555 1_555
H19 C22 1_555 1_555
H20 C22 1_555 1_555
C23 C24 1_555 1_555
C24 H21 1_555 1_555
C25 C24 1_555 1_555
H22 C25 1_555 1_555
C26 C25 1_555 1_555
C27 C26 1_555 1_555
H23 C27 1_555 1_555
C28 C23 1_555 1_555
H24 C28 1_555 1_555
N1 C4 1_555 1_555
H25 N1 1_555 1_555
N3 C16 1_555 1_555
N4 C21 1_555 1_555
H26 N4 1_555 1_555
O1 C10 1_555 1_555
O2 C10 1_555 1_555
O4 C18 1_555 1_555
S1 C9 1_555 1_555
S2 C15 1_555 1_555
C5 C6 1_555 1_555
C7 N1 1_555 1_555
C11 O2 1_555 1_555
C13 S1 1_555 1_555
C17 S2 1_555 1_555
C19 O4 1_555 1_555
C23 N4 1_555 1_555
C27 C28 1_555 1_555

#END
