
#######################################################################
#
#                 Cambridge Crystallographic Data Centre
#                                CCDC 
#
#######################################################################
#
# If this CIF has been generated from an entry in the Cambridge 
# Structural Database, then it will include bibliographic, chemical, 
# crystal, experimental, refinement or atomic coordinate data resulting 
# from the CCDC's data processing and validation procedures.
#
#######################################################################

data_HUHSIM
_chemical_formula_moiety         'C3 H5 N2 1+,C10 H5 O8 1-'
_chemical_name_systematic        
'Imidazolium trihydrogen-1,2,4,5-benzenetetracarboxylate'
_symmetry_cell_setting           triclinic
_symmetry_space_group_name_H-M   'P -1'
_symmetry_Int_Tables_number      2
_space_group_name_Hall           '-P 1'
loop_
_symmetry_equiv_pos_site_id
_symmetry_equiv_pos_as_xyz
1 x,y,z
2 -x,-y,-z
_cell_length_a                   7.6045(12)
_cell_length_b                   9.6885(15)
_cell_length_c                   9.7991(16)
_cell_angle_alpha                88.804(2)
_cell_angle_beta                 69.069(2)
_cell_angle_gamma                72.853(2)
_cell_volume                     641.456
_exptl_crystal_colour            colorless
_exptl_crystal_description       column
_cell_formula_units_Z            2
loop_
_atom_site_label
_atom_site_type_symbol
_atom_site_fract_x
_atom_site_fract_y
_atom_site_fract_z
O1 O 0.2940(4) 1.0262(3) 0.9577(2)
O2 O 0.0205(3) 1.2029(3) 0.9787(2)
O3 O 0.3127(4) 1.3261(3) 0.7700(3)
O4 O 0.2278(4) 1.4002(2) 0.5825(2)
O5 O 0.2504(4) 1.0724(2) 0.2349(2)
O6 O 0.2514(4) 0.8479(2) 0.2550(2)
O7 O 0.2167(4) 0.6824(2) 0.4402(3)
O8 O 0.2747(4) 0.6443(2) 0.6416(2)
C4 C 0.2126(4) 1.0650(3) 0.7483(3)
C5 C 0.2374(4) 1.1617(3) 0.6411(3)
C6 C 0.2510(4) 1.1218(3) 0.5021(3)
C7 C 0.2475(4) 0.9849(3) 0.4620(3)
C8 C 0.2375(4) 0.8832(3) 0.5680(3)
C9 C 0.2168(4) 0.9274(3) 0.7095(3)
C10 C 0.1650(4) 1.1074(3) 0.9071(3)
C11 C 0.2607(4) 1.3044(3) 0.6729(3)
C12 C 0.2523(4) 0.9683(3) 0.3067(3)
C13 C 0.2448(4) 0.7262(3) 0.5478(3)
H2 H 0.277(8) 1.036(6) 1.057(7)
H7 H 0.246(5) 1.480(5) 0.612(4)
H8 H 0.264(4) 1.188(3) 0.430(3)
H9 H 0.239(7) 0.770(5) 0.339(5)
H10 H 0.193(4) 0.863(3) 0.786(3)
C1 C 0.4526(6) 0.6759(4) 0.9325(4)
C2 C 0.7705(6) 0.6034(4) 0.8792(4)
C3 C 0.7401(5) 0.5675(4) 0.7608(4)
N1 N 0.5405(5) 0.6132(3) 0.7963(3)
N2 N 0.5904(5) 0.6692(3) 0.9831(3)
H1 H 0.318(5) 0.713(4) 0.984(4)
H3 H 0.476(6) 0.613(4) 0.736(5)
H4 H 0.889(6) 0.593(5) 0.896(5)
H5 H 0.580(5) 0.698(4) 1.069(4)
H6 H 0.838(6) 0.518(5) 0.669(5)
loop_
_geom_bond_atom_site_label_1
_geom_bond_atom_site_label_2
_geom_bond_site_symmetry_1
_geom_bond_site_symmetry_2
O1 C10 1_555 1_555
O2 C10 1_555 1_555
O3 C11 1_555 1_555
O4 C11 1_555 1_555
O5 C12 1_555 1_555
O6 C12 1_555 1_555
O7 C13 1_555 1_555
O8 C13 1_555 1_555
C1 N1 1_555 1_555
C2 C3 1_555 1_555
C3 N1 1_555 1_555
C4 C5 1_555 1_555
C5 C6 1_555 1_555
C6 C7 1_555 1_555
C7 C8 1_555 1_555
C8 C9 1_555 1_555
C9 C4 1_555 1_555
C10 C4 1_555 1_555
C11 C5 1_555 1_555
C12 C7 1_555 1_555
C13 C8 1_555 1_555
N1 H3 1_555 1_555
N2 C1 1_555 1_555
H1 C1 1_555 1_555
H2 O1 1_555 1_555
H4 C2 1_555 1_555
H5 N2 1_555 1_555
H6 C3 1_555 1_555
H7 O4 1_555 1_555
H8 C6 1_555 1_555
H9 O6 1_555 1_555
H10 C9 1_555 1_555
C2 N2 1_555 1_555

#END
