
#######################################################################
#
#                 Cambridge Crystallographic Data Centre
#                                CCDC 
#
#######################################################################
#
# If this CIF has been generated from an entry in the Cambridge 
# Structural Database, then it will include bibliographic, chemical, 
# crystal, experimental, refinement or atomic coordinate data resulting 
# from the CCDC's data processing and validation procedures.
#
#######################################################################

data_HUHXUD
_chemical_formula_moiety         'C7 H11 N1 O3'
_chemical_name_systematic        'Methyl (E)-3-acetamido-2-butenoate'
_symmetry_cell_setting           monoclinic
_symmetry_space_group_name_H-M   'P 21/n'
_symmetry_Int_Tables_number      14
_space_group_name_Hall           '-P 2yn'
loop_
_symmetry_equiv_pos_site_id
_symmetry_equiv_pos_as_xyz
1 x,y,z
2 1/2+x,1/2-y,1/2+z
3 -x,-y,-z
4 1/2-x,1/2+y,1/2-z
_cell_length_a                   8.099(2)
_cell_length_b                   12.761(2)
_cell_length_c                   8.750(2)
_cell_angle_alpha                90
_cell_angle_beta                 110.268(4)
_cell_angle_gamma                90
_cell_volume                     848.331
_exptl_crystal_colour            colorless
_exptl_crystal_description       prism
_cell_formula_units_Z            4
_exptl_crystal_recrystallization_method 'ethyl acetate/hexane'
loop_
_atom_site_label
_atom_site_type_symbol
_atom_site_fract_x
_atom_site_fract_y
_atom_site_fract_z
O1 O -0.09296(17) 0.26580(10) 0.29159(17)
O2 O -0.05051(19) 0.59645(11) 0.12587(18)
O3 O 0.2126(3) 0.62923(12) 0.3063(2)
N1 N 0.14590(18) 0.32240(11) 0.49975(18)
H1 H 0.2193 0.3032 0.5926
C1 C 0.0713(2) 0.46541(13) 0.3085(2)
H2 H -0.0168 0.4234 0.2391
C2 C 0.1702(2) 0.42467(14) 0.4509(2)
C3 C 0.0906(3) 0.57061(15) 0.2534(3)
C4 C 0.0234(2) 0.24983(14) 0.4215(2)
C5 C 0.3149(3) 0.47864(16) 0.5809(3)
H3 H 0.3282 0.5486 0.5463
H4 H 0.4228 0.4407 0.6013
H5 H 0.2871 0.4815 0.6789
C6 C 0.0434(3) 0.14619(15) 0.5063(3)
H6 H -0.0708 0.1168 0.4889
H7 H 0.1043 0.1558 0.6209
H8 H 0.1095 0.0995 0.4634
C7 C -0.0507(4) 0.69941(18) 0.0564(3)
H9 H -0.0571 0.7519 0.1328
H10 H -0.1506 0.7059 -0.0421
H11 H 0.0555 0.7087 0.0325
loop_
_geom_bond_atom_site_label_1
_geom_bond_atom_site_label_2
_geom_bond_site_symmetry_1
_geom_bond_site_symmetry_2
O1 C4 1_555 1_555
O2 C3 1_555 1_555
O3 C3 1_555 1_555
N1 H1 1_555 1_555
C1 H2 1_555 1_555
C2 N1 1_555 1_555
C3 C1 1_555 1_555
C4 N1 1_555 1_555
C5 C2 1_555 1_555
H3 C5 1_555 1_555
H4 C5 1_555 1_555
H5 C5 1_555 1_555
C6 C4 1_555 1_555
H6 C6 1_555 1_555
H7 C6 1_555 1_555
H8 C6 1_555 1_555
C7 O2 1_555 1_555
H9 C7 1_555 1_555
H10 C7 1_555 1_555
H11 C7 1_555 1_555
C1 C2 1_555 1_555

#END
