
#######################################################################
#
#                 Cambridge Crystallographic Data Centre
#                                CCDC 
#
#######################################################################
#
# If this CIF has been generated from an entry in the Cambridge 
# Structural Database, then it will include bibliographic, chemical, 
# crystal, experimental, refinement or atomic coordinate data resulting 
# from the CCDC's data processing and validation procedures.
#
#######################################################################

data_HUHXOY
_chemical_formula_moiety         'C18 H14 F2 N4'
_chemical_name_systematic        
benzyl-(3,4-difluoro-9-methyl-dipyrido[1,2-a;3',4'-d]imidazole-1-yl)amine
_symmetry_cell_setting           monoclinic
_symmetry_space_group_name_H-M   'P 21/n'
_symmetry_Int_Tables_number      14
_space_group_name_Hall           '-P 2yn'
loop_
_symmetry_equiv_pos_site_id
_symmetry_equiv_pos_as_xyz
1 x,y,z
2 1/2-x,1/2+y,1/2-z
3 -x,-y,-z
4 1/2+x,1/2-y,1/2+z
_cell_length_a                   8.5739(2)
_cell_length_b                   17.9700(4)
_cell_length_c                   10.3211(2)
_cell_angle_alpha                90
_cell_angle_beta                 110.42(1)
_cell_angle_gamma                90
_cell_volume                     1490.27
_exptl_crystal_colour            'light yellow'
_exptl_crystal_description       prism
_chemical_melting_point          '148-149 deg.C'
_cell_formula_units_Z            4
_exptl_crystal_recrystallization_method acetonitrile
loop_
_atom_site_label
_atom_site_type_symbol
_atom_site_fract_x
_atom_site_fract_y
_atom_site_fract_z
F1 F -0.18699(9) 0.09054(4) -0.29517(8)
F2 F 0.02376(9) -0.02858(4) -0.22205(8)
N1 N -0.03481(12) 0.15722(6) -0.10740(10)
N2 N 0.34879(11) 0.10063(5) 0.17792(10)
N3 N 0.31488(11) -0.00601(5) 0.05230(10)
N4 N 0.11272(13) 0.22891(6) 0.08303(12)
C1 C 0.09352(13) 0.16431(6) 0.01108(12)
C2 C 0.20870(13) 0.10490(6) 0.06008(12)
C3 C 0.18505(13) 0.04015(6) -0.01888(12)
C4 C 0.05081(14) 0.03353(6) -0.14273(12)
C5 C -0.05213(14) 0.09402(7) -0.17799(12)
C6 C 0.35477(15) -0.07694(6) 0.02155(12)
C7 C 0.49459(15) -0.10890(7) 0.10898(13)
C8 C 0.59720(15) -0.07047(6) 0.22926(12)
C9 C 0.55734(14) -0.00109(6) 0.26309(12)
C10 C 0.41057(13) 0.03363(6) 0.17105(11)
C11 C 0.65881(16) 0.03973(7) 0.39136(14)
C12 C 0.00829(14) 0.29331(6) 0.02856(14)
C13 C -0.16312(13) 0.29048(6) 0.03962(12)
C14 C -0.19569(15) 0.24889(6) 0.14098(13)
C15 C -0.35136(17) 0.25269(7) 0.15510(15)
C16 C -0.47462(16) 0.29819(7) 0.06875(15)
C17 C -0.44258(15) 0.33978(7) -0.03230(14)
C18 C -0.28784(15) 0.33564(7) -0.04758(12)
H1 H 0.195(2) 0.2312(9) 0.1579(19)
H2 H 0.279(2) -0.0987(9) -0.0593(17)
H3 H 0.5221(19) -0.1576(9) 0.0897(17)
H4 H 0.6961(19) -0.0947(8) 0.2874(16)
H5 H 0.763(2) 0.0140(10) 0.4396(19)
H6 H 0.682(2) 0.0914(11) 0.3698(19)
H7 H 0.597(2) 0.0447(10) 0.454(2)
H8 H 0.0688(19) 0.3356(9) 0.0829(17)
H9 H -0.0028(19) 0.3026(9) -0.0699(17)
H10 H -0.107(2) 0.2176(9) 0.2028(17)
H11 H -0.374(2) 0.2230(10) 0.2219(18)
H12 H -0.586(2) 0.3006(9) 0.0762(18)
H13 H -0.530(2) 0.3717(10) -0.0936(18)
H14 H -0.266(2) 0.3646(9) -0.1180(17)
loop_
_geom_bond_atom_site_label_1
_geom_bond_atom_site_label_2
_geom_bond_site_symmetry_1
_geom_bond_site_symmetry_2
F1 C5 1_555 1_555
F2 C4 1_555 1_555
N1 C1 1_555 1_555
N2 C2 1_555 1_555
N3 C3 1_555 1_555
N4 C1 1_555 1_555
C1 C2 1_555 1_555
C2 C3 1_555 1_555
C3 C4 1_555 1_555
C4 C5 1_555 1_555
C5 N1 1_555 1_555
C6 N3 1_555 1_555
C7 C6 1_555 1_555
C8 C7 1_555 1_555
C9 C8 1_555 1_555
C10 N2 1_555 1_555
C11 C9 1_555 1_555
C12 N4 1_555 1_555
C13 C12 1_555 1_555
C14 C13 1_555 1_555
C15 C14 1_555 1_555
C16 C15 1_555 1_555
C17 C16 1_555 1_555
C18 C13 1_555 1_555
H1 N4 1_555 1_555
H2 C6 1_555 1_555
H3 C7 1_555 1_555
H4 C8 1_555 1_555
H5 C11 1_555 1_555
H6 C11 1_555 1_555
H7 C11 1_555 1_555
H8 C12 1_555 1_555
H9 C12 1_555 1_555
H10 C14 1_555 1_555
H11 C15 1_555 1_555
H12 C16 1_555 1_555
H13 C17 1_555 1_555
H14 C18 1_555 1_555
N3 C10 1_555 1_555
C9 C10 1_555 1_555
C17 C18 1_555 1_555

#END
