
#######################################################################
#
#                 Cambridge Crystallographic Data Centre
#                                CCDC 
#
#######################################################################
#
# If this CIF has been generated from an entry in the Cambridge 
# Structural Database, then it will include bibliographic, chemical, 
# crystal, experimental, refinement or atomic coordinate data resulting 
# from the CCDC's data processing and validation procedures.
#
#######################################################################

data_HUHXIS
_chemical_formula_moiety         'C17 H11 F2 N3 O2 S1'
_chemical_name_systematic        
3-benzenesulfonyl-1,4-difluoro-6-methyl-dipyrido[1,2-a;4',3'-d]imidazole
_symmetry_cell_setting           triclinic
_symmetry_space_group_name_H-M   'P -1'
_symmetry_Int_Tables_number      2
_space_group_name_Hall           '-P 1'
loop_
_symmetry_equiv_pos_site_id
_symmetry_equiv_pos_as_xyz
1 x,y,z
2 -x,-y,-z
_cell_length_a                   8.3285(3)
_cell_length_b                   8.7801(3)
_cell_length_c                   11.6055(4)
_cell_angle_alpha                72.64(2)
_cell_angle_beta                 82.70(2)
_cell_angle_gamma                66.35(1)
_cell_volume                     741.94
_exptl_crystal_colour            'light yellow'
_exptl_crystal_description       plate
_chemical_melting_point          '288-290 deg.C'
_cell_formula_units_Z            2
_exptl_crystal_recrystallization_method acetonitrile
loop_
_atom_site_label
_atom_site_type_symbol
_atom_site_fract_x
_atom_site_fract_y
_atom_site_fract_z
S1 S 0.75298(6) 1.01724(6) 0.27110(4)
F1 F 0.68245(15) 1.01565(16) 0.01815(11)
F2 F 1.28546(15) 0.52209(17) 0.22632(11)
O1 O 0.66052(19) 1.18348(19) 0.19004(14)
O2 O 0.86570(19) 1.0009(2) 0.36135(14)
N1 N 1.0357(2) 0.7513(2) 0.23337(15)
N2 N 0.9314(2) 0.7758(2) -0.11345(14)
N3 N 1.18666(19) 0.5649(2) -0.02780(14)
C1 C 0.8850(2) 0.8774(2) 0.18027(17)
C2 C 0.8353(2) 0.8965(2) 0.06639(17)
C3 C 0.9470(2) 0.7847(2) -0.00055(16)
C4 C 1.1030(2) 0.6568(2) 0.05571(16)
C5 C 1.1384(2) 0.6469(2) 0.17206(17)
C6 C 1.0776(2) 0.6441(2) -0.12850(16)
C7 C 1.1313(2) 0.5807(2) -0.23262(17)
C8 C 1.2896(3) 0.4457(3) -0.22769(18)
C9 C 1.3961(2) 0.3685(3) -0.12288(19)
C10 C 1.3450(2) 0.4270(2) -0.02336(18)
C11 C 1.0133(3) 0.6661(3) -0.34007(18)
C12 C 0.6006(2) 0.9251(2) 0.34098(16)
C13 C 0.4436(2) 0.9748(2) 0.28301(17)
C14 C 0.3269(3) 0.8966(3) 0.33766(19)
C15 C 0.3682(3) 0.7718(3) 0.4476(2)
C16 C 0.5231(3) 0.7249(3) 0.50544(19)
C17 C 0.6415(3) 0.8012(3) 0.45206(18)
H1 H 1.331(4) 0.404(4) -0.295(3)
H2 H 1.506(3) 0.276(3) -0.125(2)
H3 H 1.404(4) 0.385(3) 0.046(2)
H4 H 0.894(4) 0.679(3) -0.314(2)
H5 H 1.020(4) 0.779(4) -0.376(2)
H6 H 1.052(4) 0.598(4) -0.397(3)
H7 H 0.417(3) 1.056(3) 0.208(2)
H8 H 0.221(4) 0.929(4) 0.303(3)
H9 H 0.284(4) 0.722(4) 0.486(3)
H10 H 0.549(4) 0.644(4) 0.580(3)
H11 H 0.748(4) 0.776(4) 0.486(3)
loop_
_geom_bond_atom_site_label_1
_geom_bond_atom_site_label_2
_geom_bond_site_symmetry_1
_geom_bond_site_symmetry_2
S1 O1 1_555 1_555
F1 C2 1_555 1_555
F2 C5 1_555 1_555
O2 S1 1_555 1_555
N1 C1 1_555 1_555
N2 C3 1_555 1_555
N3 C4 1_555 1_555
C1 S1 1_555 1_555
C2 C1 1_555 1_555
C3 C2 1_555 1_555
C4 C3 1_555 1_555
C5 N1 1_555 1_555
C6 N2 1_555 1_555
C7 C6 1_555 1_555
C8 C7 1_555 1_555
C9 C8 1_555 1_555
C10 N3 1_555 1_555
C11 C7 1_555 1_555
C12 S1 1_555 1_555
C13 C12 1_555 1_555
C14 C13 1_555 1_555
C15 C14 1_555 1_555
C16 C15 1_555 1_555
C17 C12 1_555 1_555
H1 C8 1_555 1_555
H2 C9 1_555 1_555
H3 C10 1_555 1_555
H4 C11 1_555 1_555
H5 C11 1_555 1_555
H6 C11 1_555 1_555
H7 C13 1_555 1_555
H8 C14 1_555 1_555
H9 C15 1_555 1_555
H10 C16 1_555 1_555
H11 C17 1_555 1_555
N3 C6 1_555 1_555
C4 C5 1_555 1_555
C9 C10 1_555 1_555
C16 C17 1_555 1_555

#END
