
#######################################################################
#
#                 Cambridge Crystallographic Data Centre
#                                CCDC 
#
#######################################################################
#
# If this CIF has been generated from an entry in the Cambridge 
# Structural Database, then it will include bibliographic, chemical, 
# crystal, experimental, refinement or atomic coordinate data resulting 
# from the CCDC's data processing and validation procedures.
#
#######################################################################

data_HUHXAK
_chemical_formula_moiety         'C11 H6 F3 N3'
_chemical_name_systematic        
1,3,4-trifluoro-9-methyl-dipyrido[1,2-a;3',4'-d]imidazole
_symmetry_cell_setting           orthorhombic
_symmetry_space_group_name_H-M   'P n m a'
_symmetry_Int_Tables_number      62
_space_group_name_Hall           '-P 2ac 2n'
loop_
_symmetry_equiv_pos_site_id
_symmetry_equiv_pos_as_xyz
1 x,y,z
2 1/2-x,-y,1/2+z
3 -x,1/2+y,-z
4 1/2+x,1/2-y,1/2-z
5 -x,-y,-z
6 1/2+x,y,1/2-z
7 x,1/2-y,z
8 1/2-x,1/2+y,1/2+z
_cell_length_a                   13.5814(7)
_cell_length_b                   6.4202(3)
_cell_length_c                   10.6503(5)
_cell_angle_alpha                90
_cell_angle_beta                 90
_cell_angle_gamma                90
_cell_volume                     928.656
_exptl_crystal_colour            colorless
_exptl_crystal_description       prism
_chemical_melting_point          '174-176 deg.C'
_cell_formula_units_Z            4
_exptl_crystal_recrystallization_method acetonitrile
loop_
_atom_site_label
_atom_site_type_symbol
_atom_site_fract_x
_atom_site_fract_y
_atom_site_fract_z
F1 F 0.63982(8) 0.2500 0.46132(10)
F2 F 0.29117(9) 0.2500 0.21634(11)
F3 F 0.46939(9) 0.2500 0.09857(11)
N1 N 0.55196(12) 0.2500 0.28241(16)
N2 N 0.45338(12) 0.2500 0.60629(15)
N3 N 0.30569(11) 0.2500 0.50469(15)
C1 C 0.55146(13) 0.2500 0.40442(18)
C2 C 0.46678(14) 0.2500 0.47822(17)
C3 C 0.37693(13) 0.2500 0.41248(18)
C4 C 0.37524(14) 0.2500 0.28215(18)
C5 C 0.46514(14) 0.2500 0.22480(17)
C6 C 0.35605(14) 0.2500 0.61947(17)
C7 C 0.29994(14) 0.2500 0.73247(18)
C8 C 0.19944(15) 0.2500 0.7221(2)
C9 C 0.15157(14) 0.2500 0.6031(2)
C10 C 0.20371(15) 0.2500 0.49537(19)
C11 C 0.35433(16) 0.2500 0.8547(2)
H1 H 0.1605(16) 0.2500 0.794(2)
H2 H 0.0842(16) 0.2500 0.595(2)
H3 H 0.1812(16) 0.2500 0.417(3)
H4 H 0.4012(12) 0.131(3) 0.8621(14)
H5 H 0.3081(16) 0.2500 0.924(3)
H4F H 0.4012(12) 0.369(3) 0.8621(14)
loop_
_geom_bond_atom_site_label_1
_geom_bond_atom_site_label_2
_geom_bond_site_symmetry_1
_geom_bond_site_symmetry_2
F1 C1 1_555 1_555
F2 C4 1_555 1_555
F3 C5 1_555 1_555
N1 C1 1_555 1_555
N2 C2 1_555 1_555
N3 C3 1_555 1_555
C1 C2 1_555 1_555
C2 C3 1_555 1_555
C3 C4 1_555 1_555
C4 C5 1_555 1_555
C5 N1 1_555 1_555
C6 N2 1_555 1_555
C7 C6 1_555 1_555
C8 C7 1_555 1_555
C9 C8 1_555 1_555
C10 N3 1_555 1_555
C11 C7 1_555 1_555
H1 C8 1_555 1_555
H2 C9 1_555 1_555
H3 C10 1_555 1_555
H4 C11 1_555 1_555
H5 C11 1_555 1_555
H4F C11 1_555 1_555
N3 C6 1_555 1_555
C9 C10 1_555 1_555

#END
