
#######################################################################
#
#                 Cambridge Crystallographic Data Centre
#                                CCDC 
#
#######################################################################
#
# If this CIF has been generated from an entry in the Cambridge 
# Structural Database, then it will include bibliographic, chemical, 
# crystal, experimental, refinement or atomic coordinate data resulting 
# from the CCDC's data processing and validation procedures.
#
#######################################################################

data_HUHYIU
_chemical_formula_moiety         'C9 H9 B1 F3 N3 O2'
_chemical_name_systematic        
(5-(2,5-Dioxo-2,5-dihydro-1H-pyrrol-1-yl)-1,3-dimethyl-1H-imidazol-3-ium-2-yl)(trifluoro)borate
_symmetry_cell_setting           orthorhombic
_symmetry_space_group_name_H-M   'P 21 21 21'
_symmetry_Int_Tables_number      19
_space_group_name_Hall           'P 2ac 2ab'
loop_
_symmetry_equiv_pos_site_id
_symmetry_equiv_pos_as_xyz
1 x,y,z
2 1/2-x,-y,1/2+z
3 1/2+x,1/2-y,-z
4 -x,1/2+y,1/2-z
_cell_length_a                   7.5804(12)
_cell_length_b                   7.9279(13)
_cell_length_c                   18.431(3)
_cell_angle_alpha                90
_cell_angle_beta                 90
_cell_angle_gamma                90
_cell_volume                     1107.64
_exptl_crystal_description       single
_cell_formula_units_Z            4
loop_
_atom_site_label
_atom_site_type_symbol
_atom_site_fract_x
_atom_site_fract_y
_atom_site_fract_z
F1 F 0.6181(7) 0.5752(9) 0.3421(5)
F2 F 0.5834(5) 0.7614(6) 0.4338(2)
F3 F 0.5132(7) 0.8353(8) 0.3212(3)
O1 O -0.0893(7) 0.2770(6) 0.4913(2)
O2 O -0.0811(7) 0.3585(8) 0.2468(2)
N1 N 0.2369(6) 0.4870(6) 0.3659(3)
N2 N 0.1795(6) 0.7358(6) 0.4050(2)
N3 N -0.0524(6) 0.3541(6) 0.3720(3)
C1 C 0.3089(7) 0.6371(7) 0.3805(3)
C2 C 0.0582(7) 0.4932(7) 0.3810(3)
C3 C 0.0212(8) 0.6507(7) 0.4043(3)
H1 H -0.0911 0.6940 0.4176
C4 C 0.3282(8) 0.3354(7) 0.3386(3)
H2 H 0.4540 0.3601 0.3324
H3 H 0.2774 0.3025 0.2918
H4 H 0.3139 0.2430 0.3734
C5 C 0.1965(9) 0.9162(7) 0.4223(4)
H5 H 0.3210 0.9492 0.4198
H6 H 0.1516 0.9371 0.4714
H7 H 0.1283 0.9827 0.3873
C6 C -0.1233(8) 0.2594(7) 0.4284(3)
C7 C -0.2430(8) 0.1338(8) 0.3943(4)
H8 H -0.3099 0.0508 0.4193
C8 C -0.2406(10) 0.1571(9) 0.3224(4)
H9 H -0.3061 0.0932 0.2881
C9 C -0.1203(8) 0.2978(8) 0.3048(3)
B1 B 0.5155(10) 0.6993(10) 0.3687(4)
loop_
_geom_bond_atom_site_label_1
_geom_bond_atom_site_label_2
_geom_bond_site_symmetry_1
_geom_bond_site_symmetry_2
F1 B1 1_555 1_555
F2 B1 1_555 1_555
F3 B1 1_555 1_555
O1 C6 1_555 1_555
O2 C9 1_555 1_555
N1 C1 1_555 1_555
N2 C1 1_555 1_555
N3 C2 1_555 1_555
C1 B1 1_555 1_555
C2 N1 1_555 1_555
C3 N2 1_555 1_555
H1 C3 1_555 1_555
C4 N1 1_555 1_555
H2 C4 1_555 1_555
H3 C4 1_555 1_555
H4 C4 1_555 1_555
C5 N2 1_555 1_555
H5 C5 1_555 1_555
H6 C5 1_555 1_555
H7 C5 1_555 1_555
C6 N3 1_555 1_555
C7 C6 1_555 1_555
H8 C7 1_555 1_555
C8 C7 1_555 1_555
H9 C8 1_555 1_555
C9 N3 1_555 1_555
C2 C3 1_555 1_555
C8 C9 1_555 1_555

#END
