
#######################################################################
#
#                 Cambridge Crystallographic Data Centre
#                                CCDC 
#
#######################################################################
#
# If this CIF has been generated from an entry in the Cambridge 
# Structural Database, then it will include bibliographic, chemical, 
# crystal, experimental, refinement or atomic coordinate data resulting 
# from the CCDC's data processing and validation procedures.
#
#######################################################################

data_HUHYOA
_chemical_formula_moiety         'C25 H17 Br1 O1'
_chemical_name_systematic        
3'-Bromo-3-methyl-2-phenyl-2'H-spiro[indene-1,1'-naphthalen]-2'-one
_symmetry_cell_setting           monoclinic
_symmetry_space_group_name_H-M   'P 21'
_symmetry_Int_Tables_number      4
_space_group_name_Hall           'P 2yb'
loop_
_symmetry_equiv_pos_site_id
_symmetry_equiv_pos_as_xyz
1 x,y,z
2 -x,1/2+y,-z
_cell_length_a                   14.7015(17)
_cell_length_b                   8.9613(10)
_cell_length_c                   15.8849(18)
_cell_angle_alpha                90
_cell_angle_beta                 114.880(2)
_cell_angle_gamma                90
_cell_volume                     1898.52
_exptl_crystal_colour            colorless
_exptl_crystal_description       prismatic
_cell_formula_units_Z            4
loop_
_atom_site_label
_atom_site_type_symbol
_atom_site_fract_x
_atom_site_fract_y
_atom_site_fract_z
Br1 Br 0.75486(5) 1.19032(6) 0.55539(4)
O1 O 0.8643(3) 0.9039(4) 0.6280(3)
C1 C 0.7817(3) 0.8758(5) 0.5674(3)
C2 C 0.7085(3) 0.9930(5) 0.5213(3)
C3 C 0.6152(4) 0.9630(6) 0.4642(3)
H1 H 0.5714 1.0423 0.4383
C4 C 0.5772(3) 0.8128(6) 0.4396(3)
C5 C 0.4760(4) 0.7863(8) 0.3817(3)
H2 H 0.4326 0.8668 0.3586
C6 C 0.4398(4) 0.6437(9) 0.3583(4)
H3 H 0.3726 0.6277 0.3194
C7 C 0.5036(4) 0.5255(8) 0.3927(4)
H4 H 0.4796 0.4288 0.3768
C8 C 0.6030(4) 0.5485(7) 0.4507(3)
H5 H 0.6451 0.4667 0.4742
C9 C 0.6415(3) 0.6911(6) 0.4747(3)
C10 C 0.7527(3) 0.7145(5) 0.5332(3)
C11 C 0.8123(3) 0.6819(6) 0.4762(3)
C12 C 0.7997(3) 0.7342(6) 0.3908(3)
H6 H 0.7486 0.8012 0.3584
C13 C 0.8642(4) 0.6853(8) 0.3540(3)
H7 H 0.8558 0.7179 0.2956
C14 C 0.9416(4) 0.5878(7) 0.4036(4)
H8 H 0.9854 0.5572 0.3785
C15 C 0.9545(4) 0.5358(8) 0.4892(4)
H9 H 1.0066 0.4704 0.5220
C16 C 0.8890(3) 0.5818(5) 0.5264(3)
C17 C 0.8823(3) 0.5410(6) 0.6126(3)
C18 C 0.8007(3) 0.6083(5) 0.6159(3)
C19 C 0.7601(3) 0.5958(5) 0.6860(3)
C20 C 0.7798(4) 0.4727(7) 0.7444(3)
H10 H 0.8200 0.3961 0.7396
C21 C 0.7407(4) 0.4623(8) 0.8093(4)
H11 H 0.7561 0.3798 0.8484
C22 C 0.6796(5) 0.5716(8) 0.8169(4)
H12 H 0.6539 0.5643 0.8612
C23 C 0.6569(4) 0.6914(8) 0.7586(4)
H13 H 0.6146 0.7655 0.7626
C24 C 0.6962(4) 0.7037(7) 0.6939(3)
H14 H 0.6796 0.7861 0.6547
C25 C 0.9607(3) 0.4465(6) 0.6842(4)
H15 H 0.9611 0.4653 0.7439
H16 H 1.0253 0.4705 0.6863
H17 H 0.9463 0.3430 0.6686
Br2 Br 0.27772(5) 0.04351(6) 0.92036(4)
O2 O 0.1491(2) 0.3215(5) 0.8688(2)
C26 C 0.2352(3) 0.3519(5) 0.9217(3)
C27 C 0.3140(4) 0.2417(6) 0.9615(3)
C28 C 0.4031(4) 0.2755(6) 1.0266(3)
H18 H 0.4515 0.2010 1.0481
C29 C 0.4292(3) 0.4240(6) 1.0661(3)
C30 C 0.5196(4) 0.4487(8) 1.1441(4)
H19 H 0.5654 0.3712 1.1676
C31 C 0.5412(4) 0.5862(9) 1.1859(4)
H20 H 0.6013 0.6023 1.2376
C32 C 0.4726(4) 0.7002(9) 1.1504(4)
H21 H 0.4859 0.7928 1.1795
C33 C 0.3849(3) 0.6788(7) 1.0727(3)
H22 H 0.3408 0.7582 1.0485
C34 C 0.3614(3) 0.5417(6) 1.0302(3)
C35 C 0.2677(3) 0.5177(5) 0.9421(3)
C36 C 0.2869(3) 0.5632(6) 0.8578(3)
C37 C 0.3603(4) 0.5202(7) 0.8321(4)
H23 H 0.4093 0.4528 0.8682
C38 C 0.3613(5) 0.5778(8) 0.7517(4)
H24 H 0.4111 0.5486 0.7335
C39 C 0.2893(5) 0.6778(9) 0.6986(4)
H25 H 0.2912 0.7172 0.6452
C40 C 0.2153(5) 0.7196(8) 0.7234(4)
H26 H 0.1653 0.7842 0.6857
C41 C 0.2140(4) 0.6656(6) 0.8059(3)
C42 C 0.1467(4) 0.6924(7) 0.8505(3)
C43 C 0.1783(3) 0.6157(6) 0.9310(3)
C44 C 0.1388(3) 0.6132(6) 1.0022(3)
C45 C 0.0751(4) 0.7249(9) 1.0068(4)
H27 H 0.0549 0.8010 0.9629
C46 C 0.0416(5) 0.7234(11) 1.0764(6)
H28 H -0.0010 0.7986 1.0786
C47 C 0.0702(5) 0.6133(10) 1.1418(5)
H29 H 0.0456 0.6117 1.1869
C48 C 0.1350(5) 0.5061(8) 1.1404(4)
H30 H 0.1568 0.4331 1.1863
C49 C 0.1686(4) 0.5052(7) 1.0709(4)
H31 H 0.2122 0.4304 1.0704
C50 C 0.0564(5) 0.7913(8) 0.8050(5)
H32 H 0.0037 0.7573 0.8209
H33 H 0.0339 0.7877 0.7389
H34 H 0.0739 0.8920 0.8262
loop_
_geom_bond_atom_site_label_1
_geom_bond_atom_site_label_2
_geom_bond_site_symmetry_1
_geom_bond_site_symmetry_2
Br1 C2 1_555 1_555
O1 C1 1_555 1_555
C1 C2 1_555 1_555
C2 C3 1_555 1_555
C3 H1 1_555 1_555
C4 C3 1_555 1_555
C5 C4 1_555 1_555
H2 C5 1_555 1_555
C6 C5 1_555 1_555
H3 C6 1_555 1_555
C7 C6 1_555 1_555
H4 C7 1_555 1_555
C8 C7 1_555 1_555
H5 C8 1_555 1_555
C9 C4 1_555 1_555
C10 C1 1_555 1_555
C11 C10 1_555 1_555
C12 C11 1_555 1_555
H6 C12 1_555 1_555
C13 C12 1_555 1_555
H7 C13 1_555 1_555
C14 C13 1_555 1_555
H8 C14 1_555 1_555
C15 C14 1_555 1_555
H9 C15 1_555 1_555
C16 C11 1_555 1_555
C17 C16 1_555 1_555
C18 C10 1_555 1_555
C19 C18 1_555 1_555
C20 C19 1_555 1_555
H10 C20 1_555 1_555
C21 C20 1_555 1_555
H11 C21 1_555 1_555
C22 C21 1_555 1_555
H12 C22 1_555 1_555
C23 C22 1_555 1_555
H13 C23 1_555 1_555
C24 C19 1_555 1_555
H14 C24 1_555 1_555
C25 C17 1_555 1_555
H15 C25 1_555 1_555
H16 C25 1_555 1_555
H17 C25 1_555 1_555
Br2 C27 1_555 1_555
O2 C26 1_555 1_555
C26 C27 1_555 1_555
C27 C28 1_555 1_555
C28 H18 1_555 1_555
C29 C28 1_555 1_555
C30 C29 1_555 1_555
H19 C30 1_555 1_555
C31 C30 1_555 1_555
H20 C31 1_555 1_555
C32 C31 1_555 1_555
H21 C32 1_555 1_555
C33 C32 1_555 1_555
H22 C33 1_555 1_555
C34 C29 1_555 1_555
C35 C26 1_555 1_555
C36 C35 1_555 1_555
C37 C36 1_555 1_555
H23 C37 1_555 1_555
C38 C37 1_555 1_555
H24 C38 1_555 1_555
C39 C38 1_555 1_555
H25 C39 1_555 1_555
C40 C39 1_555 1_555
H26 C40 1_555 1_555
C41 C36 1_555 1_555
C42 C41 1_555 1_555
C43 C35 1_555 1_555
C44 C43 1_555 1_555
C45 C44 1_555 1_555
H27 C45 1_555 1_555
C46 C45 1_555 1_555
H28 C46 1_555 1_555
C47 C46 1_555 1_555
H29 C47 1_555 1_555
C48 C47 1_555 1_555
H30 C48 1_555 1_555
C49 C44 1_555 1_555
H31 C49 1_555 1_555
C50 C42 1_555 1_555
H32 C50 1_555 1_555
H33 C50 1_555 1_555
H34 C50 1_555 1_555
C8 C9 1_555 1_555
C9 C10 1_555 1_555
C15 C16 1_555 1_555
C17 C18 1_555 1_555
C23 C24 1_555 1_555
C33 C34 1_555 1_555
C34 C35 1_555 1_555
C40 C41 1_555 1_555
C42 C43 1_555 1_555
C48 C49 1_555 1_555

#END
