
#######################################################################
#
#                 Cambridge Crystallographic Data Centre
#                                CCDC 
#
#######################################################################
#
# If this CIF has been generated from an entry in the Cambridge 
# Structural Database, then it will include bibliographic, chemical, 
# crystal, experimental, refinement or atomic coordinate data resulting 
# from the CCDC's data processing and validation procedures.
#
#######################################################################

data_HUHYAL
_chemical_formula_moiety         'C12 H9 F2 N3'
_chemical_name_systematic        
1,3-difluoro-4,9-dimethyl-dipyrido[1,2-a;3',4'-d]imidazole
_symmetry_cell_setting           monoclinic
_symmetry_space_group_name_H-M   'P 21/n'
_symmetry_Int_Tables_number      14
_space_group_name_Hall           '-P 2yn'
loop_
_symmetry_equiv_pos_site_id
_symmetry_equiv_pos_as_xyz
1 x,y,z
2 1/2-x,1/2+y,1/2-z
3 -x,-y,-z
4 1/2+x,1/2-y,1/2+z
_cell_length_a                   6.8959(3)
_cell_length_b                   13.8687(5)
_cell_length_c                   10.8782(4)
_cell_angle_alpha                90
_cell_angle_beta                 107.045(10)
_cell_angle_gamma                90
_cell_volume                     994.662
_exptl_crystal_colour            colorless
_exptl_crystal_description       plate
_chemical_melting_point          '241.1-241.5 deg.C'
_cell_formula_units_Z            4
loop_
_atom_site_label
_atom_site_type_symbol
_atom_site_fract_x
_atom_site_fract_y
_atom_site_fract_z
F1 F 0.68393(13) 1.24883(5) 0.49975(8)
F2 F 0.80024(13) 1.10776(6) 0.88664(7)
N1 N 0.74224(17) 1.17459(8) 0.69122(11)
N2 N 0.71277(17) 1.05960(8) 0.37989(11)
N3 N 0.76827(16) 0.92241(8) 0.50119(10)
C1 C 0.7198(2) 1.16671(10) 0.56871(13)
C2 C 0.73078(19) 1.07991(9) 0.50660(13)
C3 C 0.76543(19) 0.99753(9) 0.58504(13)
C4 C 0.7899(2) 1.00069(9) 0.71785(13)
C5 C 0.7769(2) 1.09322(10) 0.75929(13)
C6 C 0.7356(2) 0.96428(10) 0.37916(12)
C7 C 0.7285(2) 0.90356(10) 0.27216(13)
C8 C 0.7597(2) 0.80727(10) 0.29471(13)
C9 C 0.7944(2) 0.76769(10) 0.42016(14)
C10 C 0.7966(2) 0.82393(10) 0.52137(14)
C11 C 0.6831(3) 0.94901(12) 0.14197(14)
C12 C 0.8215(2) 0.91423(10) 0.80632(14)
H1 H 0.756(2) 0.7649(10) 0.2240(15)
H2 H 0.814(2) 0.6997(12) 0.4339(15)
H3 H 0.813(2) 0.8009(10) 0.6060(14)
H4 H 0.676(3) 0.9018(12) 0.0760(18)
H5 H 0.553(3) 0.9810(13) 0.1203(17)
H6 H 0.785(3) 0.9993(13) 0.1384(17)
H7 H 0.930(2) 0.8785(11) 0.8024(15)
H8 H 0.846(3) 0.9324(12) 0.8875(18)
H9 H 0.708(2) 0.8737(12) 0.7863(16)
loop_
_geom_bond_atom_site_label_1
_geom_bond_atom_site_label_2
_geom_bond_site_symmetry_1
_geom_bond_site_symmetry_2
F1 C1 1_555 1_555
F2 C5 1_555 1_555
N1 C1 1_555 1_555
N2 C2 1_555 1_555
N3 C3 1_555 1_555
C1 C2 1_555 1_555
C2 C3 1_555 1_555
C3 C4 1_555 1_555
C4 C5 1_555 1_555
C5 N1 1_555 1_555
C6 N2 1_555 1_555
C7 C6 1_555 1_555
C8 C7 1_555 1_555
C9 C8 1_555 1_555
C10 N3 1_555 1_555
C11 C7 1_555 1_555
C12 C4 1_555 1_555
H1 C8 1_555 1_555
H2 C9 1_555 1_555
H3 C10 1_555 1_555
H4 C11 1_555 1_555
H5 C11 1_555 1_555
H6 C11 1_555 1_555
H7 C12 1_555 1_555
H8 C12 1_555 1_555
H9 C12 1_555 1_555
N3 C6 1_555 1_555
C9 C10 1_555 1_555

#END
