
#######################################################################
#
#                 Cambridge Crystallographic Data Centre
#                                CCDC 
#
#######################################################################
#
# If this CIF has been generated from an entry in the Cambridge 
# Structural Database, then it will include bibliographic, chemical, 
# crystal, experimental, refinement or atomic coordinate data resulting 
# from the CCDC's data processing and validation procedures.
#
#######################################################################

data_HUHYAM
_chemical_formula_moiety         'C5 H8 B1 F3 N2'
_chemical_name_systematic        
(1,3-Dimethyl-1H-imidazol-3-ium-2-yl)(trifluoro)borate
_symmetry_cell_setting           monoclinic
_symmetry_space_group_name_H-M   'P 21/m'
_symmetry_Int_Tables_number      11
_space_group_name_Hall           '-P 2yb'
loop_
_symmetry_equiv_pos_site_id
_symmetry_equiv_pos_as_xyz
1 x,y,z
2 -x,1/2+y,-z
3 -x,-y,-z
4 x,1/2-y,z
_cell_length_a                   7.169(2)
_cell_length_b                   6.8769(19)
_cell_length_c                   7.474(2)
_cell_angle_alpha                90
_cell_angle_beta                 105.675(3)
_cell_angle_gamma                90
_cell_volume                     354.768
_exptl_crystal_description       single
_cell_formula_units_Z            2
loop_
_atom_site_label
_atom_site_type_symbol
_atom_site_fract_x
_atom_site_fract_y
_atom_site_fract_z
F1 F 0.12852(17) 0.2500 0.53019(15)
C1 C 0.3123(3) 0.2500 1.1517(3)
B1 B 0.2232(3) 0.2500 0.7186(3)
F2 F 0.34039(11) 0.08510(12) 0.76220(12)
C2 C 0.0661(2) 0.2500 0.8427(2)
C3 C -0.2508(3) 0.2500 0.5947(3)
C4 C -0.2017(3) 0.2500 0.9400(3)
H1 H -0.3348 0.2500 0.9380
C5 C -0.0502(3) 0.2500 1.0918(3)
H2 H -0.0553 0.2500 1.2175
N1 N 0.1143(2) 0.2500 1.02964(19)
N2 N -0.1284(2) 0.2500 0.7874(2)
H3 H 0.306(4) 0.2500 1.273(5)
H4 H 0.380(3) 0.139(3) 1.131(2)
H5 H -0.382(4) 0.2500 0.603(4)
H6 H -0.227(2) 0.140(3) 0.527(3)
F2C F 0.34039(11) 0.41490(12) 0.76220(12)
H4C H 0.380(3) 0.361(3) 1.131(2)
H6C H -0.227(2) 0.360(3) 0.527(3)
loop_
_geom_bond_atom_site_label_1
_geom_bond_atom_site_label_2
_geom_bond_site_symmetry_1
_geom_bond_site_symmetry_2
F1 B1 1_555 1_555
C1 N1 1_555 1_555
B1 F2 1_555 1_555
C2 B1 1_555 1_555
C3 N2 1_555 1_555
C4 H1 1_555 1_555
C5 C4 1_555 1_555
H2 C5 1_555 1_555
N1 C2 1_555 1_555
N2 C2 1_555 1_555
H3 C1 1_555 1_555
H4 C1 1_555 1_555
H5 C3 1_555 1_555
H6 C3 1_555 1_555
F2C B1 1_555 1_555
H4C C1 1_555 1_555
H6C C3 1_555 1_555
C4 N2 1_555 1_555
C5 N1 1_555 1_555

#END
