
#######################################################################
#
#                 Cambridge Crystallographic Data Centre
#                                CCDC 
#
#######################################################################
#
# If this CIF has been generated from an entry in the Cambridge 
# Structural Database, then it will include bibliographic, chemical, 
# crystal, experimental, refinement or atomic coordinate data resulting 
# from the CCDC's data processing and validation procedures.
#
#######################################################################

data_HUHYEQ
_chemical_formula_moiety         'C5 H7 B1 F3 N3 O2'
_chemical_name_systematic        
(1,3-Dimethyl-4-nitro-1H-imidazol-3-ium-2-yl)(trifluoro)borate
_symmetry_cell_setting           monoclinic
_symmetry_space_group_name_H-M   'P 21/c'
_symmetry_Int_Tables_number      14
_space_group_name_Hall           '-P 2ybc'
loop_
_symmetry_equiv_pos_site_id
_symmetry_equiv_pos_as_xyz
1 x,y,z
2 -x,1/2+y,1/2-z
3 -x,-y,-z
4 x,1/2-y,1/2+z
_cell_length_a                   7.4533(5)
_cell_length_b                   9.5695(6)
_cell_length_c                   11.8645(8)
_cell_angle_alpha                90
_cell_angle_beta                 105.0490(10)
_cell_angle_gamma                90
_cell_volume                     817.206
_exptl_crystal_description       single
_cell_formula_units_Z            4
loop_
_atom_site_label
_atom_site_type_symbol
_atom_site_fract_x
_atom_site_fract_y
_atom_site_fract_z
F1 F 0.50235(11) -0.11523(8) 0.70893(7)
O1 O 0.81512(14) 0.46021(11) 0.52755(9)
N1 N 0.37963(14) 0.20118(11) 0.52065(9)
C1 C 0.18569(17) 0.19109(15) 0.45065(12)
H1 H 0.1257 0.1146 0.4784
H2 H 0.1832 0.1757 0.3703
H3 H 0.1217 0.2764 0.4575
B1 B 0.3703(2) -0.01165(14) 0.66770(12)
F2 F 0.30370(13) 0.03983(9) 0.75911(7)
O2 O 0.97051(13) 0.31931(12) 0.66152(9)
N2 N 0.64077(13) 0.16712(11) 0.64989(8)
C2 C 0.46557(16) 0.11903(12) 0.61203(9)
F3 F 0.22507(11) -0.06858(9) 0.58143(7)
N3 N 0.82716(14) 0.35793(12) 0.59167(9)
C3 C 0.77818(18) 0.11727(14) 0.75538(11)
H4 H 0.7295 0.0371 0.7862
H5 H 0.8034 0.1902 0.8129
H6 H 0.8910 0.0921 0.7357
C4 C 0.66054(16) 0.27990(12) 0.58168(10)
C5 C 0.49791(17) 0.30107(12) 0.50031(10)
H7 H 0.4723 0.3694 0.4426
loop_
_geom_bond_atom_site_label_1
_geom_bond_atom_site_label_2
_geom_bond_site_symmetry_1
_geom_bond_site_symmetry_2
F1 B1 1_555 1_555
O1 N3 1_555 1_555
N1 C1 1_555 1_555
C1 H1 1_555 1_555
H2 C1 1_555 1_555
H3 C1 1_555 1_555
B1 F2 1_555 1_555
O2 N3 1_555 1_555
N2 C2 1_555 1_555
C2 N1 1_555 1_555
F3 B1 1_555 1_555
N3 C4 1_555 1_555
C3 N2 1_555 1_555
H4 C3 1_555 1_555
H5 C3 1_555 1_555
H6 C3 1_555 1_555
C4 N2 1_555 1_555
C5 N1 1_555 1_555
H7 C5 1_555 1_555
B1 C2 1_555 1_555
C4 C5 1_555 1_555

#END
