
#######################################################################
#
#                 Cambridge Crystallographic Data Centre
#                                CCDC 
#
#######################################################################
#
# If this CIF has been generated from an entry in the Cambridge 
# Structural Database, then it will include bibliographic, chemical, 
# crystal, experimental, refinement or atomic coordinate data resulting 
# from the CCDC's data processing and validation procedures.
#
#######################################################################

data_HUJBEU
_chemical_name_common            Aucubigenin
_chemical_formula_moiety         'C9 H12 O4'
_chemical_name_systematic        
7-(Hydroxymethyl)-1,4a,5,7a-tetrahydrocyclopenta[c]pyran-1,5-diol
_symmetry_cell_setting           monoclinic
_symmetry_space_group_name_H-M   'P 21'
_symmetry_Int_Tables_number      4
_space_group_name_Hall           'P 2yb'
loop_
_symmetry_equiv_pos_site_id
_symmetry_equiv_pos_as_xyz
1 x,y,z
2 -x,1/2+y,-z
_cell_length_a                   5.903(2)
_cell_length_b                   11.043(4)
_cell_length_c                   6.640(2)
_cell_angle_alpha                90
_cell_angle_beta                 94.007(6)
_cell_angle_gamma                90
_cell_volume                     431.782
_exptl_crystal_colour            colorless
_exptl_crystal_description       needle
_chemical_melting_point          '110-111 deg.C'
_cell_formula_units_Z            2
_exptl_crystal_recrystallization_method 'ethyl acetate'
loop_
_atom_site_label
_atom_site_type_symbol
_atom_site_fract_x
_atom_site_fract_y
_atom_site_fract_z
C1 C 0.7517(7) 0.2134(4) 0.3959(6)
H1 H 0.6614 0.2873 0.3738
C2 C 1.0964(8) 0.3028(4) 0.3117(6)
H2 H 1.1871 0.3276 0.2104
C3 C 1.1270(8) 0.3554(4) 0.4893(6)
H3 H 1.2319 0.4181 0.5060
C4 C 0.9979(7) 0.3173(4) 0.6660(6)
H4 H 1.1094 0.2941 0.7754
C5 C 0.8354(7) 0.4103(4) 0.7526(6)
H5 H 0.7678 0.4614 0.6436
C6 C 0.6565(8) 0.3326(4) 0.8350(6)
H6 H 0.5557 0.3595 0.9269
C7 C 0.6582(7) 0.2199(4) 0.7613(5)
C8 C 0.8442(7) 0.2060(4) 0.6173(5)
H7 H 0.9284 0.1305 0.6433
C9 C 0.5059(8) 0.1179(4) 0.8066(7)
H8 H 0.4004 0.1030 0.6907
H9 H 0.5957 0.0452 0.8317
O1 O 0.6211(6) 0.1132(3) 0.3439(4)
H10 H 0.5495 0.1253 0.2355
O2 O 0.9379(5) 0.2131(3) 0.2663(4)
O3 O 0.9456(5) 0.4850(3) 0.9084(4)
H11 H 1.0240 0.5361 0.8568
O4 O 0.3827(5) 0.1434(3) 0.9776(4)
H12 H 0.2900 0.0894 0.9921
loop_
_geom_bond_atom_site_label_1
_geom_bond_atom_site_label_2
_geom_bond_site_symmetry_1
_geom_bond_site_symmetry_2
C1 H1 1_555 1_555
C2 H2 1_555 1_555
C3 C2 1_555 1_555
H3 C3 1_555 1_555
C4 C3 1_555 1_555
H4 C4 1_555 1_555
C5 C4 1_555 1_555
H5 C5 1_555 1_555
C6 C5 1_555 1_555
H6 C6 1_555 1_555
C7 C6 1_555 1_555
C8 C1 1_555 1_555
H7 C8 1_555 1_555
C9 C7 1_555 1_555
H8 C9 1_555 1_555
H9 C9 1_555 1_555
O1 C1 1_555 1_555
H10 O1 1_555 1_555
O2 C1 1_555 1_555
O3 C5 1_555 1_555
H11 O3 1_555 1_555
O4 C9 1_555 1_555
H12 O4 1_555 1_555
C2 O2 1_555 1_555
C4 C8 1_555 1_555
C7 C8 1_555 1_555

#END
