
#######################################################################
#
#                 Cambridge Crystallographic Data Centre
#                                CCDC 
#
#######################################################################
#
# If this CIF has been generated from an entry in the Cambridge 
# Structural Database, then it will include bibliographic, chemical, 
# crystal, experimental, refinement or atomic coordinate data resulting 
# from the CCDC's data processing and validation procedures.
#
#######################################################################

data_HUJBIY
_chemical_compound_source        'seeds of Eucommia ulmoides Oliv'
_chemical_name_common            'Aucubin monohydrate'
_chemical_formula_moiety         'C15 H22 O9,H2 O1'
_chemical_name_systematic        
'2-((5-Hydroxy-7-(hydroxymethyl)-1,4a,5,7a-tetrahydrocyclopenta[c]pyran-1-yl)oxy)-6-(hydroxymethyl)tetrahydro-2H-pyran-3,4,5-triol monohydrate'
_chemical_properties_biological  
'antimicrobial, antitumour and antiviral activities'
_symmetry_cell_setting           orthorhombic
_symmetry_space_group_name_H-M   'P 21 21 21'
_symmetry_Int_Tables_number      19
_space_group_name_Hall           'P 2ac 2ab'
loop_
_symmetry_equiv_pos_site_id
_symmetry_equiv_pos_as_xyz
1 x,y,z
2 1/2-x,-y,1/2+z
3 -x,1/2+y,1/2-z
4 1/2+x,1/2-y,-z
_cell_length_a                   4.7365(5)
_cell_length_b                   7.7760(9)
_cell_length_c                   46.008(5)
_cell_angle_alpha                90
_cell_angle_beta                 90
_cell_angle_gamma                90
_cell_volume                     1694.52
_exptl_crystal_colour            colorless
_exptl_crystal_description       needle
_chemical_melting_point          '181-182 deg.C'
_cell_formula_units_Z            4
_exptl_crystal_recrystallization_method 'ethyl acetate/methanol'
loop_
_atom_site_label
_atom_site_type_symbol
_atom_site_fract_x
_atom_site_fract_y
_atom_site_fract_z
O1 O 0.9674(3) 0.7335(2) 0.38777(3)
C1 C 0.8580(5) 0.6790(3) 0.41459(4)
H1 H 0.6849 0.6127 0.4114
C2 C 0.7651(6) 0.7508(3) 0.36551(4)
H2 H 0.5777 0.7718 0.3738
O2 O 0.7921(4) 0.83413(19) 0.42970(3)
O3 O 0.7923(4) 1.05817(19) 0.35989(3)
H3 H 0.9343 1.0929 0.3682
C3 C 0.8521(5) 0.8995(3) 0.34600(4)
H4 H 1.0562 0.8924 0.3428
O4 O 0.8743(4) 0.2523(3) 0.48564(4)
H5 H 0.7338 0.2586 0.4960
O5 O 0.8424(5) 1.00956(19) 0.29707(3)
H6 H 0.8200 1.1093 0.3024
C4 C 0.7116(6) 0.8071(3) 0.45804(5)
H7 H 0.6042 0.8919 0.4670
C5 C 0.7068(6) 0.8971(3) 0.31685(4)
H8 H 0.5114 0.9355 0.3194
O6 O 1.2697(4) 0.1762(2) 0.38444(4)
H9 H 1.4273 0.1476 0.3789
O7 O 0.5330(4) 0.7202(2) 0.27815(3)
H10 H 0.5978 0.6526 0.2662
C6 C 0.7754(6) 0.6702(3) 0.47330(5)
H11 H 0.7031 0.6594 0.4920
C7 C 0.7040(6) 0.7187(3) 0.30363(4)
H12 H 0.8972 0.6864 0.2983
O8 O 0.7698(4) 0.59162(18) 0.35058(3)
C8 C 0.9606(5) 0.5308(3) 0.46164(5)
H13 H 1.1253 0.5228 0.4745
C9 C 0.5908(6) 0.5900(3) 0.32561(4)
H14 H 0.4005 0.6253 0.3315
O10 O 0.8449(4) 0.3497(2) 0.30389(3)
H15 H 0.8561 0.3694 0.2864
C10 C 0.8299(6) 0.3503(3) 0.45973(5)
H16 H 0.6271 0.3598 0.4558
C11 C 0.5790(6) 0.4069(3) 0.31443(5)
H17 H 0.5177 0.3315 0.3300
H18 H 0.4410 0.3998 0.2989
C12 C 0.9747(5) 0.2740(3) 0.43407(5)
H19 H 0.9722 0.1572 0.4297
C13 C 1.1077(5) 0.3904(3) 0.41803(5)
C14 C 1.0712(5) 0.5694(3) 0.43064(4)
H20 H 1.2537 0.6285 0.4316
C15 C 1.2674(6) 0.3563(3) 0.39054(5)
H21 H 1.1795 0.4176 0.3746
H22 H 1.4597 0.3976 0.3925
O9 O 0.7896(5) 0.4644(2) 0.24767(3)
H23 H 0.671(4) 0.396(3) 0.2413(5)
H24 H 0.907(4) 0.484(3) 0.2346(4)
loop_
_geom_bond_atom_site_label_1
_geom_bond_atom_site_label_2
_geom_bond_site_symmetry_1
_geom_bond_site_symmetry_2
O1 C1 1_555 1_555
C1 H1 1_555 1_555
C2 O1 1_555 1_555
H2 C2 1_555 1_555
O2 C1 1_555 1_555
O3 H3 1_555 1_555
C3 C2 1_555 1_555
H4 C3 1_555 1_555
O4 H5 1_555 1_555
O5 H6 1_555 1_555
C4 O2 1_555 1_555
H7 C4 1_555 1_555
C5 C3 1_555 1_555
H8 C5 1_555 1_555
O6 H9 1_555 1_555
O7 H10 1_555 1_555
C6 C4 1_555 1_555
H11 C6 1_555 1_555
C7 C5 1_555 1_555
H12 C7 1_555 1_555
O8 C2 1_555 1_555
C8 C6 1_555 1_555
H13 C8 1_555 1_555
C9 C7 1_555 1_555
H14 C9 1_555 1_555
O9 H23 1_555 1_555
O10 H15 1_555 1_555
C10 O4 1_555 1_555
H16 C10 1_555 1_555
C11 C9 1_555 1_555
H17 C11 1_555 1_555
H18 C11 1_555 1_555
C12 C10 1_555 1_555
H19 C12 1_555 1_555
C13 C12 1_555 1_555
C14 C1 1_555 1_555
H20 C14 1_555 1_555
C15 O6 1_555 1_555
H21 C15 1_555 1_555
H22 C15 1_555 1_555
H24 O9 1_555 1_555
O3 C3 1_555 1_555
O5 C5 1_555 1_555
O7 C7 1_555 1_555
O8 C9 1_555 1_555
C8 C10 1_555 1_555
C8 C14 1_555 1_555
O10 C11 1_555 1_555
C13 C14 1_555 1_555
C13 C15 1_555 1_555

#END
