
#######################################################################
#
#                 Cambridge Crystallographic Data Centre
#                                CCDC 
#
#######################################################################
#
# If this CIF has been generated from an entry in the Cambridge 
# Structural Database, then it will include bibliographic, chemical, 
# crystal, experimental, refinement or atomic coordinate data resulting 
# from the CCDC's data processing and validation procedures.
#
#######################################################################

data_HUJCIY
_chemical_formula_moiety         'C25 H18 B1 Cl1 N2'
_chemical_name_systematic        
(2-(2'-Pyridyl)-5-chloroindole-N,N')-diphenylborane
_symmetry_cell_setting           monoclinic
_symmetry_space_group_name_H-M   'C 2/c'
_symmetry_Int_Tables_number      15
_space_group_name_Hall           '-C 2yn'
loop_
_symmetry_equiv_pos_site_id
_symmetry_equiv_pos_as_xyz
1 x,y,z
2 1/2+x,1/2+y,z
3 x,-y,1/2+z
4 1/2+x,1/2-y,1/2+z
5 -x,-y,-z
6 1/2-x,1/2-y,-z
7 -x,y,1/2-z
8 1/2-x,1/2+y,1/2-z
_cell_length_a                   18.383(5)
_cell_length_b                   11.632(3)
_cell_length_c                   18.799(5)
_cell_angle_alpha                90
_cell_angle_beta                 98.814(5)
_cell_angle_gamma                90
_cell_volume                     3972.34
_exptl_crystal_colour            'yellowish green'
_exptl_crystal_description       block
_chemical_melting_point          '297-298 deg.C'
_cell_formula_units_Z            8
_exptl_crystal_recrystallization_method 'THF/toluene 1:3'
_exptl_crystal_preparation       'bright green/blue luminescent'
loop_
_atom_site_label
_atom_site_type_symbol
_atom_site_fract_x
_atom_site_fract_y
_atom_site_fract_z
B1 B 0.19513(15) 1.5937(2) 0.30272(15)
N1 N 0.28383(10) 1.59933(17) 0.30138(10)
N2 N 0.19835(10) 1.47239(15) 0.33725(10)
C1 C 0.17417(12) 1.6915(2) 0.35556(13)
C2 C 0.16246(17) 1.8052(3) 0.33389(19)
C3 C 0.1455(2) 1.8899(3) 0.3801(2)
C4 C 0.14031(19) 1.8634(3) 0.4498(2)
C5 C 0.15137(19) 1.7542(3) 0.4726(2)
C6 C 0.16815(15) 1.6696(3) 0.42695(15)
C7 C 0.15279(15) 1.5935(2) 0.22184(14)
C8 C 0.08667(17) 1.6491(3) 0.20070(19)
C9 C 0.0500(3) 1.6438(5) 0.1316(3)
C10 C 0.0784(4) 1.5823(5) 0.0803(3)
C11 C 0.1425(4) 1.5260(4) 0.0994(2)
C12 C 0.1802(2) 1.5307(3) 0.16893(18)
C13 C 0.32103(16) 1.6848(3) 0.27540(15)
C14 C 0.39520(16) 1.6802(3) 0.27898(16)
C15 C 0.43268(17) 1.5867(3) 0.30996(16)
C16 C 0.39575(15) 1.4978(3) 0.33643(15)
C17 C 0.32012(13) 1.5060(2) 0.33136(12)
C18 C 0.26806(13) 1.4273(2) 0.35412(12)
C19 C 0.26773(15) 1.3246(2) 0.38917(13)
C20 C 0.19338(13) 1.3041(2) 0.39631(12)
C21 C 0.15148(13) 1.39719(19) 0.36318(12)
C22 C 0.07586(14) 1.4053(2) 0.36178(14)
C23 C 0.04215(15) 1.3207(2) 0.39533(14)
C24 C 0.08323(15) 1.2297(2) 0.42941(13)
C25 C 0.15731(16) 1.2179(2) 0.42953(14)
Cl1 Cl 0.03766(4) 1.13010(6) 0.47611(4)
H1 H 0.1626(15) 1.824(2) 0.2827(15)
H2 H 0.1403(17) 1.965(3) 0.3625(18)
H3 H 0.1298(16) 1.919(3) 0.4832(16)
H4 H 0.1552(17) 1.736(3) 0.5200(18)
H5 H 0.1741(13) 1.585(2) 0.4450(13)
H6 H 0.0648(17) 1.692(3) 0.2377(17)
H7 H 0.0048(19) 1.687(3) 0.1198(17)
H8 H 0.054(2) 1.581(3) 0.034(3)
H9 H 0.1678(18) 1.480(3) 0.0726(19)
H10 H 0.2242(15) 1.488(2) 0.1816(15)
H11 H 0.2916(12) 1.7471(19) 0.2544(11)
H12 H 0.4192(14) 1.746(2) 0.2601(15)
H13 H 0.4858(14) 1.5888(19) 0.3168(12)
H14 H 0.4187(14) 1.434(2) 0.3577(14)
H15 H 0.3072(11) 1.2816(17) 0.4061(10)
H16 H 0.0478(12) 1.4648(18) 0.3379(11)
H17 H -0.0092(13) 1.3258(19) 0.3967(12)
H18 H 0.1840(12) 1.155(2) 0.4525(12)
loop_
_geom_bond_atom_site_label_1
_geom_bond_atom_site_label_2
_geom_bond_site_symmetry_1
_geom_bond_site_symmetry_2
B1 N1 1_555 1_555
N1 C13 1_555 1_555
N2 B1 1_555 1_555
C1 B1 1_555 1_555
C2 C1 1_555 1_555
C3 C2 1_555 1_555
C4 C3 1_555 1_555
C5 C4 1_555 1_555
C6 C1 1_555 1_555
C7 B1 1_555 1_555
C8 C7 1_555 1_555
C9 C8 1_555 1_555
C10 C9 1_555 1_555
C11 C10 1_555 1_555
C12 C7 1_555 1_555
C13 C14 1_555 1_555
C14 C15 1_555 1_555
C15 C16 1_555 1_555
C16 C17 1_555 1_555
C17 N1 1_555 1_555
C18 N2 1_555 1_555
C19 C18 1_555 1_555
C20 C19 1_555 1_555
C21 N2 1_555 1_555
C22 C21 1_555 1_555
C23 C22 1_555 1_555
C24 C23 1_555 1_555
C25 C20 1_555 1_555
Cl1 C24 1_555 1_555
H1 C2 1_555 1_555
H2 C3 1_555 1_555
H3 C4 1_555 1_555
H4 C5 1_555 1_555
H5 C6 1_555 1_555
H6 C8 1_555 1_555
H7 C9 1_555 1_555
H8 C10 1_555 1_555
H9 C11 1_555 1_555
H10 C12 1_555 1_555
H11 C13 1_555 1_555
H12 C14 1_555 1_555
H13 C15 1_555 1_555
H14 C16 1_555 1_555
H15 C19 1_555 1_555
H16 C22 1_555 1_555
H17 C23 1_555 1_555
H18 C25 1_555 1_555
C5 C6 1_555 1_555
C11 C12 1_555 1_555
C17 C18 1_555 1_555
C20 C21 1_555 1_555
C24 C25 1_555 1_555

#END
