
#######################################################################
#
#                 Cambridge Crystallographic Data Centre
#                                CCDC 
#
#######################################################################
#
# If this CIF has been generated from an entry in the Cambridge 
# Structural Database, then it will include bibliographic, chemical, 
# crystal, experimental, refinement or atomic coordinate data resulting 
# from the CCDC's data processing and validation procedures.
#
#######################################################################

data_HUJDUM
_chemical_formula_moiety         'C16 H14 N2 O1'
_chemical_name_systematic        N-Benzyl-1H-indole-1-carboxamide
_symmetry_cell_setting           monoclinic
_symmetry_space_group_name_H-M   'P 21/c'
_symmetry_Int_Tables_number      14
_space_group_name_Hall           '-P 2ybc'
loop_
_symmetry_equiv_pos_site_id
_symmetry_equiv_pos_as_xyz
1 x,y,z
2 -x,1/2+y,1/2-z
3 -x,-y,-z
4 x,1/2-y,1/2+z
_cell_length_a                   11.3034(11)
_cell_length_b                   13.2485(13)
_cell_length_c                   8.9142(9)
_cell_angle_alpha                90
_cell_angle_beta                 97.277(2)
_cell_angle_gamma                90
_cell_volume                     1324.18
_exptl_crystal_colour            colorless
_exptl_crystal_description       prismatic
_chemical_melting_point          '85-86 deg.C'
_cell_formula_units_Z            4
loop_
_atom_site_label
_atom_site_type_symbol
_atom_site_fract_x
_atom_site_fract_y
_atom_site_fract_z
N1 N 0.71414(16) 0.25439(15) 0.9946(2)
N2 N 0.90124(14) 0.18593(12) 1.06544(19)
O1 O 0.74910(12) 0.15871(11) 1.20634(17)
C1 C 0.78311(19) 0.19760(16) 1.0939(3)
C2 C 0.95983(19) 0.24309(16) 0.9650(3)
H1 H 0.9255 0.2953 0.9047
C3 C 1.0719(2) 0.21157(18) 0.9688(3)
H2 H 1.1285 0.2381 0.9126
C4 C 1.09049(19) 0.12989(17) 1.0742(3)
C5 C 0.98333(18) 0.11492(15) 1.1342(2)
C6 C 0.9703(2) 0.03936(17) 1.2386(3)
H3 H 0.8981 0.0283 1.2757
C7 C 1.0695(3) -0.01835(18) 1.2846(3)
H4 H 1.0641 -0.0688 1.3560
C8 C 1.1768(3) -0.0041(2) 1.2286(3)
H5 H 1.2418 -0.0447 1.2627
C9 C 1.1880(2) 0.06914(19) 1.1234(3)
H6 H 1.2601 0.0783 1.0852
C10 C 0.58742(19) 0.27011(18) 1.0061(3)
H7 H 0.5675 0.3401 0.9832
H8 H 0.5730 0.2573 1.1094
C11 C 0.50687(18) 0.20343(18) 0.9014(2)
C12 C 0.5332(2) 0.1041(2) 0.8819(3)
H9 H 0.6023 0.0770 0.9344
C13 C 0.4595(3) 0.0435(2) 0.7859(4)
H10 H 0.4791 -0.0240 0.7744
C14 C 0.3571(2) 0.0818(3) 0.7069(3)
H11 H 0.3077 0.0413 0.6407
C15 C 0.3292(2) 0.1812(3) 0.7277(3)
H12 H 0.2599 0.2083 0.6760
C16 C 0.4030(2) 0.2407(2) 0.8242(3)
H13 H 0.3824 0.3077 0.8379
H14 H 0.7372(18) 0.2749(16) 0.908(3)
loop_
_geom_bond_atom_site_label_1
_geom_bond_atom_site_label_2
_geom_bond_site_symmetry_1
_geom_bond_site_symmetry_2
N1 C1 1_555 1_555
N2 C1 1_555 1_555
O1 C1 1_555 1_555
C2 N2 1_555 1_555
H1 C2 1_555 1_555
C3 C2 1_555 1_555
H2 C3 1_555 1_555
C4 C3 1_555 1_555
C5 N2 1_555 1_555
C6 C5 1_555 1_555
H3 C6 1_555 1_555
C7 C6 1_555 1_555
H4 C7 1_555 1_555
C8 C7 1_555 1_555
H5 C8 1_555 1_555
C9 C4 1_555 1_555
H6 C9 1_555 1_555
C10 N1 1_555 1_555
H7 C10 1_555 1_555
H8 C10 1_555 1_555
C11 C10 1_555 1_555
C12 C11 1_555 1_555
H9 C12 1_555 1_555
C13 C12 1_555 1_555
H10 C13 1_555 1_555
C14 C13 1_555 1_555
H11 C14 1_555 1_555
C15 C14 1_555 1_555
H12 C15 1_555 1_555
C16 C11 1_555 1_555
H13 C16 1_555 1_555
H14 N1 1_555 1_555
C4 C5 1_555 1_555
C8 C9 1_555 1_555
C15 C16 1_555 1_555

#END
