
#######################################################################
#
#                 Cambridge Crystallographic Data Centre
#                                CCDC 
#
#######################################################################
#
# If this CIF has been generated from an entry in the Cambridge 
# Structural Database, then it will include bibliographic, chemical, 
# crystal, experimental, refinement or atomic coordinate data resulting 
# from the CCDC's data processing and validation procedures.
#
#######################################################################

data_HUJFAU
_chemical_formula_moiety         'C18 H12 Cl1 F1 N2 O4'
_chemical_name_systematic        
5-(4-Chloro-2-fluorophenyl)-3-(3-methoxyphenyl)-3aH-pyrrolo[3,4-d][1,2]oxazole-4,6(5H,6aH)-dione
_chemical_properties_biological  'herbicidal activity'
_symmetry_cell_setting           monoclinic
_symmetry_space_group_name_H-M   'P 21/c'
_symmetry_Int_Tables_number      14
_space_group_name_Hall           '-P 2ybc'
loop_
_symmetry_equiv_pos_site_id
_symmetry_equiv_pos_as_xyz
1 x,y,z
2 -x,1/2+y,1/2-z
3 -x,-y,-z
4 x,1/2-y,1/2+z
_cell_length_a                   15.940(3)
_cell_length_b                   10.991(2)
_cell_length_c                   9.4356(19)
_cell_angle_alpha                90
_cell_angle_beta                 104.72(3)
_cell_angle_gamma                90
_cell_volume                     1598.83
_cell_formula_units_Z            4
loop_
_atom_site_label
_atom_site_type_symbol
_atom_site_fract_x
_atom_site_fract_y
_atom_site_fract_z
Cl1 Cl 1.05100(2) 0.63512(5) 0.30786(5)
F1 F 0.78891(6) 0.60903(11) 0.51071(12)
O1 O 0.76067(6) 1.37389(12) 0.82986(11)
O2 O 0.53433(6) 0.92209(12) 0.34699(11)
O3 O 0.65377(7) 0.73483(14) 0.29140(13)
O4 O 0.80322(6) 0.99290(12) 0.64106(11)
N1 N 0.54474(7) 1.04904(15) 0.36398(13)
N2 N 0.74630(7) 0.84859(14) 0.46739(13)
C1 C 0.62375(8) 1.19916(17) 0.52545(14)
C2 C 0.68383(8) 1.22347(17) 0.65856(15)
H1 H 0.7112 1.1599 0.7175
C3 C 0.70217(8) 1.34263(17) 0.70193(15)
C4 C 0.66126(9) 1.43791(18) 0.61702(15)
H2 H 0.6737 1.5177 0.6480
C5 C 0.60144(9) 1.41404(18) 0.48501(16)
H3 H 0.5737 1.4780 0.4272
C6 C 0.58297(9) 1.29562(18) 0.43937(15)
H4 H 0.5430 1.2801 0.3506
C7 C 0.80953(9) 1.27765(18) 0.91329(16)
H5 H 0.7708 1.2209 0.9410
H6 H 0.8483 1.3105 0.9997
H7 H 0.8424 1.2367 0.8553
C8 C 0.60492(8) 1.07331(16) 0.47954(14)
C9 C 0.64567(8) 0.96163(17) 0.56081(15)
H8 H 0.6351 0.9565 0.6585
C10 C 0.59829(8) 0.86240(17) 0.46016(16)
H9 H 0.5720 0.8029 0.5132
C11 C 0.66562(9) 0.80402(18) 0.39275(16)
C12 C 0.74162(8) 0.94130(17) 0.56596(15)
C13 C 0.82423(8) 0.80225(18) 0.43862(15)
C14 C 0.88018(9) 0.87623(19) 0.38527(18)
H10 H 0.8699 0.9594 0.3742
C15 C 0.95186(10) 0.82468(19) 0.34848(18)
H11 H 0.9903 0.8734 0.3144
C16 C 0.96509(9) 0.70187(18) 0.36294(16)
C17 C 0.91166(9) 0.62640(18) 0.41838(16)
H12 H 0.9221 0.5432 0.4295
C18 C 0.84210(9) 0.68025(19) 0.45649(17)
loop_
_geom_bond_atom_site_label_1
_geom_bond_atom_site_label_2
_geom_bond_site_symmetry_1
_geom_bond_site_symmetry_2
Cl1 C16 1_555 1_555
F1 C18 1_555 1_555
O1 C3 1_555 1_555
O2 N1 1_555 1_555
O3 C11 1_555 1_555
O4 C12 1_555 1_555
N1 C8 1_555 1_555
N2 C11 1_555 1_555
C1 C2 1_555 1_555
C2 H1 1_555 1_555
C3 C2 1_555 1_555
C4 C3 1_555 1_555
H2 C4 1_555 1_555
C5 C4 1_555 1_555
H3 C5 1_555 1_555
C6 C1 1_555 1_555
H4 C6 1_555 1_555
C7 O1 1_555 1_555
H5 C7 1_555 1_555
H6 C7 1_555 1_555
H7 C7 1_555 1_555
C8 C1 1_555 1_555
C9 C8 1_555 1_555
H8 C9 1_555 1_555
C10 O2 1_555 1_555
H9 C10 1_555 1_555
C11 C10 1_555 1_555
C12 N2 1_555 1_555
C13 N2 1_555 1_555
C14 C13 1_555 1_555
H10 C14 1_555 1_555
C15 C14 1_555 1_555
H11 C15 1_555 1_555
C16 C15 1_555 1_555
C17 C16 1_555 1_555
H12 C17 1_555 1_555
C18 C13 1_555 1_555
C5 C6 1_555 1_555
C9 C10 1_555 1_555
C9 C12 1_555 1_555
C17 C18 1_555 1_555

#END
