
#######################################################################
#
#                 Cambridge Crystallographic Data Centre
#                                CCDC 
#
#######################################################################
#
# If this CIF has been generated from an entry in the Cambridge 
# Structural Database, then it will include bibliographic, chemical, 
# crystal, experimental, refinement or atomic coordinate data resulting 
# from the CCDC's data processing and validation procedures.
#
#######################################################################

data_HUJHAX
_chemical_formula_moiety         'C27 H36 B1 F2 N2 O3 P1'
_chemical_name_systematic        
'(diethyl (4-((4-ethyl-3,5-dimethyl-1H-pyrrol-2-yl)(4-ethyl-3,5-dimethyl-2H-pyrrol-2-ylidene)methyl)phenyl)phosphonatato)(difluoro)borate'
_symmetry_cell_setting           monoclinic
_symmetry_space_group_name_H-M   'P 21/n'
_symmetry_Int_Tables_number      14
_space_group_name_Hall           '-P 2yn'
loop_
_symmetry_equiv_pos_site_id
_symmetry_equiv_pos_as_xyz
1 x,y,z
2 1/2-x,1/2+y,1/2-z
3 -x,-y,-z
4 1/2+x,1/2-y,1/2+z
_cell_length_a                   7.4124(6)
_cell_length_b                   12.0959(10)
_cell_length_c                   29.581(3)
_cell_angle_alpha                90
_cell_angle_beta                 93.749(2)
_cell_angle_gamma                90
_cell_volume                     2646.55
_exptl_crystal_colour            red
_exptl_crystal_description       plate
_cell_formula_units_Z            4
loop_
_atom_site_label
_atom_site_type_symbol
_atom_site_fract_x
_atom_site_fract_y
_atom_site_fract_z
N1 N 0.6944(3) -0.1246(2) 0.18618(8)
N2 N 0.5743(3) 0.0625(2) 0.20090(7)
B1 B 0.5506(4) -0.0611(3) 0.21082(12)
F1 F 0.5713(2) -0.07908(16) 0.25724(5)
F2 F 0.3778(2) -0.09583(14) 0.19527(6)
C1 C 0.8213(3) 0.0371(2) 0.15183(9)
C2 C 0.8184(3) -0.0771(2) 0.15774(9)
C3 C 0.9176(3) -0.1650(2) 0.13901(9)
C4 C 0.8521(4) -0.2629(2) 0.15629(9)
C5 C 0.7150(4) -0.2356(2) 0.18507(9)
C6 C 0.7033(3) 0.1069(2) 0.17337(9)
C7 C 0.6866(3) 0.2246(2) 0.17406(9)
C8 C 0.5485(4) 0.2488(3) 0.20213(10)
C9 C 0.4818(4) 0.1480(3) 0.21756(10)
C10 C 1.0656(4) -0.1596(2) 0.10713(10)
H1 H 1.0678 -0.2284 0.0897
H2 H 1.1819 -0.1497 0.1244
H3 H 1.0442 -0.0971 0.0864
C11 C 0.6012(4) -0.3121(3) 0.21033(11)
H4 H 0.5852 -0.2820 0.2406
H5 H 0.6605 -0.3844 0.2132
H6 H 0.4828 -0.3204 0.1939
C12 C 0.7917(4) 0.3088(2) 0.15052(10)
H7 H 0.7745 0.3814 0.1643
H8 H 0.7496 0.3114 0.1184
H9 H 0.9202 0.2893 0.1532
C13 C 0.3307(4) 0.1323(3) 0.24800(11)
H10 H 0.3129 0.0532 0.2533
H11 H 0.2194 0.1641 0.2337
H12 H 0.3605 0.1694 0.2770
C14 C 0.9086(4) -0.3777(2) 0.14460(10)
H13 H 0.8935 -0.4268 0.1709
H14 H 1.0383 -0.3773 0.1385
C15 C 0.7994(5) -0.4235(3) 0.10348(11)
H15 H 0.8474 -0.4960 0.0956
H16 H 0.8080 -0.3729 0.0778
H17 H 0.6726 -0.4311 0.1105
C16 C 0.4757(4) 0.3606(3) 0.21245(12)
H18 H 0.5775 0.4125 0.2187
H19 H 0.4069 0.3561 0.2400
C17 C 0.3524(4) 0.4048(3) 0.17310(13)
H20 H 0.3182 0.4813 0.1795
H21 H 0.2434 0.3590 0.1694
H22 H 0.4166 0.4026 0.1452
C18 C 0.9492(3) 0.0871(2) 0.12090(9)
C19 C 1.1328(3) 0.0926(2) 0.13336(9)
H23 H 1.1790 0.0599 0.1609
C20 C 1.2486(4) 0.1458(2) 0.10570(9)
H24 H 1.3737 0.1509 0.1148
C21 C 1.1839(4) 0.1920(2) 0.06472(9)
C22 C 0.9996(4) 0.1831(2) 0.05186(10)
H25 H 0.9539 0.2126 0.0236
C23 C 0.8844(3) 0.1322(2) 0.07966(9)
H26 H 0.7591 0.1276 0.0707
P1 P 1.33197(10) 0.26511(6) 0.03037(3)
O1 O 1.5212(2) 0.25701(16) 0.04662(7)
O2 O 1.2864(3) 0.22436(17) -0.01973(7)
C24 C 1.3478(4) 0.1159(3) -0.03235(11)
H27 H 1.2481 0.0763 -0.0494
H28 H 1.3823 0.0728 -0.0047
C25 C 1.5067(4) 0.1242(4) -0.06102(12)
H29 H 1.5380 0.0504 -0.0718
H30 H 1.6101 0.1553 -0.0430
H31 H 1.4759 0.1723 -0.0871
O3 O 1.2475(15) 0.3856(5) 0.0353(2)
C26 C 1.3436(8) 0.4842(5) 0.0220(2)
H32 H 1.3496 0.4857 -0.0113
H33 H 1.4687 0.4832 0.0359
C27 C 1.246(4) 0.5859(12) 0.0373(15)
H34 H 1.1208 0.5849 0.0245
H35 H 1.3071 0.6522 0.0270
H36 H 1.2471 0.5864 0.0705
O4? O 1.2531(15) 0.3826(5) 0.0168(2)
C28? C 1.2723(8) 0.4601(5) 0.0540(2)
H37? H 1.3997 0.4645 0.0662
H38? H 1.1958 0.4383 0.0787
C29? C 1.210(4) 0.5709(11) 0.0332(15)
H39? H 1.2870 0.5909 0.0089
H40? H 1.2177 0.6283 0.0567
H41? H 1.0842 0.5643 0.0209
loop_
_geom_bond_atom_site_label_1
_geom_bond_atom_site_label_2
_geom_bond_site_symmetry_1
_geom_bond_site_symmetry_2
N1 B1 1_555 1_555
N2 B1 1_555 1_555
B1 F1 1_555 1_555
F2 B1 1_555 1_555
C1 C2 1_555 1_555
C2 N1 1_555 1_555
C3 C2 1_555 1_555
C4 C3 1_555 1_555
C5 N1 1_555 1_555
C6 N2 1_555 1_555
C7 C6 1_555 1_555
C8 C7 1_555 1_555
C9 N2 1_555 1_555
C10 C3 1_555 1_555
H1 C10 1_555 1_555
H2 C10 1_555 1_555
H3 C10 1_555 1_555
C11 C5 1_555 1_555
H4 C11 1_555 1_555
H5 C11 1_555 1_555
H6 C11 1_555 1_555
C12 C7 1_555 1_555
H7 C12 1_555 1_555
H8 C12 1_555 1_555
H9 C12 1_555 1_555
C13 C9 1_555 1_555
H10 C13 1_555 1_555
H11 C13 1_555 1_555
H12 C13 1_555 1_555
C14 C4 1_555 1_555
H13 C14 1_555 1_555
H14 C14 1_555 1_555
C15 C14 1_555 1_555
H15 C15 1_555 1_555
H16 C15 1_555 1_555
H17 C15 1_555 1_555
C16 C8 1_555 1_555
H18 C16 1_555 1_555
H19 C16 1_555 1_555
C17 C16 1_555 1_555
H20 C17 1_555 1_555
H21 C17 1_555 1_555
H22 C17 1_555 1_555
C18 C1 1_555 1_555
C19 C18 1_555 1_555
H23 C19 1_555 1_555
C20 C19 1_555 1_555
H24 C20 1_555 1_555
C21 C20 1_555 1_555
C22 C21 1_555 1_555
H25 C22 1_555 1_555
C23 C18 1_555 1_555
H26 C23 1_555 1_555
P1 C21 1_555 1_555
O1 P1 1_555 1_555
O2 P1 1_555 1_555
C24 O2 1_555 1_555
H27 C24 1_555 1_555
H28 C24 1_555 1_555
C25 C24 1_555 1_555
H29 C25 1_555 1_555
H30 C25 1_555 1_555
H31 C25 1_555 1_555
O3 P1 1_555 1_555
C26 O3 1_555 1_555
H32 C26 1_555 1_555
H33 C26 1_555 1_555
C27 C26 1_555 1_555
H34 C27 1_555 1_555
H35 C27 1_555 1_555
H36 C27 1_555 1_555
C1 C6 1_555 1_555
C4 C5 1_555 1_555
C8 C9 1_555 1_555
C22 C23 1_555 1_555

#END
