
#######################################################################
#
#                 Cambridge Crystallographic Data Centre
#                                CCDC 
#
#######################################################################
#
# If this CIF has been generated from an entry in the Cambridge 
# Structural Database, then it will include bibliographic, chemical, 
# crystal, experimental, refinement or atomic coordinate data resulting 
# from the CCDC's data processing and validation procedures.
#
#######################################################################

data_HUJLIJ
_chemical_compound_source        'Streptomyces sp.'
_chemical_formula_moiety         'C13 H16 O6'
_chemical_name_systematic        
"2,2'-methylenebis(3-oxocyclopentanecarboxylic acid)"
_chemical_properties_biological  'anticancer activity'
_symmetry_cell_setting           monoclinic
_symmetry_space_group_name_H-M   'C 2'
_symmetry_Int_Tables_number      5
_space_group_name_Hall           'C 2y'
loop_
_symmetry_equiv_pos_site_id
_symmetry_equiv_pos_as_xyz
1 x,y,z
2 -x,y,-z
3 1/2+x,1/2+y,z
4 1/2-x,1/2+y,-z
_cell_length_a                   18.7920(4)
_cell_length_b                   5.82020(10)
_cell_length_c                   5.56990(10)
_cell_angle_alpha                90
_cell_angle_beta                 103.1570(10)
_cell_angle_gamma                90
_cell_volume                     593.206
_exptl_crystal_colour            colorless
_exptl_crystal_description       block
_cell_formula_units_Z            2
loop_
_atom_site_label
_atom_site_type_symbol
_atom_site_fract_x
_atom_site_fract_y
_atom_site_fract_z
C1 C 0.5000 0.8313(6) 1.0000
H1 H 0.4847 0.7306 1.1225
C2 C 0.43362(12) 0.9704(4) 0.8676(4)
H2 H 0.4483 1.0572 0.7316
C3 C 0.30311(14) 0.9976(5) 0.6950(4)
H3 H 0.3025 1.0826 0.5406
H4 H 0.2553 0.9207 0.6807
C4 C 0.40142(13) 1.1428(4) 1.0179(4)
C5 C 0.37594(12) 0.6994(5) 0.5196(4)
C6 C 0.36598(14) 0.8218(4) 0.7486(4)
H5 H 0.3568 0.7065 0.8712
C7 C 0.31987(14) 1.1596(4) 0.9187(4)
H6 H 0.3055 1.3192 0.8684
H7 H 0.2934 1.1105 1.0446
O1 O 0.36143(13) 0.7796(4) 0.3162(4)
O2 O 0.43621(10) 1.2513(3) 1.1928(3)
O3 O 0.40289(13) 0.4886(4) 0.5672(4)
H8 H 0.4135 0.4340 0.4402
H1A H 0.5153 0.7306 0.8775
C2A C 0.56638(12) 0.9704(4) 1.1324(4)
H2A H 0.5517 1.0572 1.2684
C3A C 0.69689(14) 0.9976(5) 1.3050(4)
H3A H 0.6975 1.0826 1.4594
H4A H 0.7447 0.9207 1.3193
C4A C 0.59858(13) 1.1428(4) 0.9821(4)
C5A C 0.62406(12) 0.6994(5) 1.4804(4)
C6A C 0.63402(14) 0.8218(4) 1.2514(4)
H5A H 0.6432 0.7065 1.1288
C7A C 0.68013(14) 1.1596(4) 1.0813(4)
H6A H 0.6945 1.3192 1.1316
H7A H 0.7066 1.1105 0.9554
O1A O 0.63857(13) 0.7796(4) 1.6838(4)
O2A O 0.56379(10) 1.2513(3) 0.8072(3)
O3A O 0.59711(13) 0.4886(4) 1.4328(4)
H8A H 0.5865 0.4340 1.5598
H9? H 0.4847 0.7306 1.1225
loop_
_geom_bond_atom_site_label_1
_geom_bond_atom_site_label_2
_geom_bond_site_symmetry_1
_geom_bond_site_symmetry_2
C1 H1 1_555 1_555
C2 C1 1_555 1_555
H2 C2 1_555 1_555
C3 H3 1_555 1_555
H4 C3 1_555 1_555
C4 C2 1_555 1_555
C5 C6 1_555 1_555
C6 C2 1_555 1_555
H5 C6 1_555 1_555
C7 C3 1_555 1_555
H6 C7 1_555 1_555
H7 C7 1_555 1_555
O1 C5 1_555 1_555
O2 C4 1_555 1_555
O3 C5 1_555 1_555
H8 O3 1_555 1_555
H1A C1 1_555 1_555
C2A C1 1_555 1_555
H2A C2A 1_555 1_555
C3A H3A 1_555 1_555
H4A C3A 1_555 1_555
C4A C2A 1_555 1_555
C5A C6A 1_555 1_555
C6A C2A 1_555 1_555
H5A C6A 1_555 1_555
C7A C3A 1_555 1_555
H6A C7A 1_555 1_555
H7A C7A 1_555 1_555
O1A C5A 1_555 1_555
O2A C4A 1_555 1_555
O3A C5A 1_555 1_555
H8A O3A 1_555 1_555
C3 C6 1_555 1_555
C4 C7 1_555 1_555
C3A C6A 1_555 1_555
C4A C7A 1_555 1_555

#END
