
#######################################################################
#
#                 Cambridge Crystallographic Data Centre
#                                CCDC 
#
#######################################################################
#
# If this CIF has been generated from an entry in the Cambridge 
# Structural Database, then it will include bibliographic, chemical, 
# crystal, experimental, refinement or atomic coordinate data resulting 
# from the CCDC's data processing and validation procedures.
#
#######################################################################

data_HUJMOQ
_chemical_formula_moiety         'C18 H16 O1'
_chemical_name_systematic        
8-methyl-10-phenyl-12-oxatricyclo[6.3.1.0^2,7^]dodeca-2,4,6,9-tetraene
_symmetry_cell_setting           monoclinic
_symmetry_space_group_name_H-M   'P 21/c'
_symmetry_Int_Tables_number      14
_space_group_name_Hall           '-P 2ybc'
loop_
_symmetry_equiv_pos_site_id
_symmetry_equiv_pos_as_xyz
1 x,y,z
2 -x,1/2+y,1/2-z
3 -x,-y,-z
4 x,1/2-y,1/2+z
_cell_length_a                   5.5946(4)
_cell_length_b                   9.1084(7)
_cell_length_c                   26.337(2)
_cell_angle_alpha                90
_cell_angle_beta                 90.820(3)
_cell_angle_gamma                90
_cell_volume                     1341.94
_exptl_crystal_colour            yellow
_exptl_crystal_description       parallelepiped
_cell_formula_units_Z            4
loop_
_atom_site_label
_atom_site_type_symbol
_atom_site_fract_x
_atom_site_fract_y
_atom_site_fract_z
O1 O -0.1532(3) 0.4903(2) 0.10819(7)
C1 C 0.1624(4) 0.6191(2) 0.07622(8)
C2 C 0.3460(4) 0.6620(3) 0.04483(8)
H1 H 0.4609 0.5950 0.0344
C3 C 0.3542(5) 0.8073(3) 0.02927(10)
H2 H 0.4752 0.8379 0.0079
C4 C 0.1861(5) 0.9069(3) 0.04503(10)
H3 H 0.1940 1.0036 0.0339
C5 C 0.0046(5) 0.8648(3) 0.07748(10)
H4 H -0.1072 0.9326 0.0887
C6 C -0.0058(4) 0.7202(3) 0.09264(8)
C7 C -0.1699(4) 0.6379(3) 0.12755(9)
H5 H -0.3340 0.6752 0.1252
C8 C -0.0758(4) 0.6398(3) 0.18174(9)
H6 H -0.0370 0.7403 0.1907
H7 H -0.2028 0.6079 0.2039
C9 C 0.1296(4) 0.5507(2) 0.19159(8)
C10 C 0.2216(4) 0.4622(3) 0.15218(9)
H8 H 0.3510 0.3999 0.1580
C11 C 0.1015(4) 0.4724(3) 0.10008(9)
C12 C 0.1459(6) 0.3399(3) 0.06701(11)
H9 H 0.0669 0.3530 0.0347
H10 H 0.0844 0.2537 0.0833
H11 H 0.3146 0.3287 0.0620
C13 C 0.2445(4) 0.5506(3) 0.24302(8)
C14 C 0.1813(5) 0.6499(3) 0.28023(9)
H12 H 0.0599 0.7171 0.2734
C15 C 0.2942(6) 0.6519(4) 0.32749(10)
H13 H 0.2489 0.7207 0.3516
C16 C 0.4702(6) 0.5542(4) 0.33870(10)
H14 H 0.5470 0.5563 0.3703
C17 C 0.5339(6) 0.4523(4) 0.30304(12)
H15 H 0.6530 0.3842 0.3106
C18 C 0.4219(5) 0.4503(3) 0.25590(10)
H16 H 0.4666 0.3800 0.2322
loop_
_geom_bond_atom_site_label_1
_geom_bond_atom_site_label_2
_geom_bond_site_symmetry_1
_geom_bond_site_symmetry_2
O1 C7 1_555 1_555
C1 C2 1_555 1_555
C2 H1 1_555 1_555
C3 C2 1_555 1_555
H2 C3 1_555 1_555
C4 C3 1_555 1_555
H3 C4 1_555 1_555
C5 C4 1_555 1_555
H4 C5 1_555 1_555
C6 C1 1_555 1_555
C7 C6 1_555 1_555
H5 C7 1_555 1_555
C8 C7 1_555 1_555
H6 C8 1_555 1_555
H7 C8 1_555 1_555
C9 C8 1_555 1_555
C10 C9 1_555 1_555
H8 C10 1_555 1_555
C11 O1 1_555 1_555
C12 C11 1_555 1_555
H9 C12 1_555 1_555
H10 C12 1_555 1_555
H11 C12 1_555 1_555
C13 C9 1_555 1_555
C14 C13 1_555 1_555
H12 C14 1_555 1_555
C15 C14 1_555 1_555
H13 C15 1_555 1_555
C16 C15 1_555 1_555
H14 C16 1_555 1_555
C17 C16 1_555 1_555
H15 C17 1_555 1_555
C18 C13 1_555 1_555
H16 C18 1_555 1_555
C1 C11 1_555 1_555
C5 C6 1_555 1_555
C10 C11 1_555 1_555
C17 C18 1_555 1_555

#END
