
#######################################################################
#
#                 Cambridge Crystallographic Data Centre
#                                CCDC 
#
#######################################################################
#
# If this CIF has been generated from an entry in the Cambridge 
# Structural Database, then it will include bibliographic, chemical, 
# crystal, experimental, refinement or atomic coordinate data resulting 
# from the CCDC's data processing and validation procedures.
#
#######################################################################

data_HUJTUD
_chemical_formula_moiety         'C24 H16 F3 N1'
_chemical_name_systematic        
2-(2-fluorobenzyl)-4,6-bis(2-fluorophenyl)pyridine
_symmetry_cell_setting           triclinic
_symmetry_space_group_name_H-M   'P 1'
_symmetry_Int_Tables_number      1
_space_group_name_Hall           'P 1'
loop_
_symmetry_equiv_pos_site_id
_symmetry_equiv_pos_as_xyz
1 x,y,z
_cell_length_a                   11.219(5)
_cell_length_b                   11.500(6)
_cell_length_c                   14.861(8)
_cell_angle_alpha                72.70(3)
_cell_angle_beta                 89.67(3)
_cell_angle_gamma                77.32(3)
_cell_volume                     1782.31
_exptl_crystal_colour            colorless
_exptl_crystal_description       plate
_cell_formula_units_Z            4
loop_
_atom_site_label
_atom_site_type_symbol
_atom_site_fract_x
_atom_site_fract_y
_atom_site_fract_z
C1 C 0.6728(5) 0.3557(5) 0.8615(5)
C2 C 0.5494(5) 0.4128(6) 0.8575(4)
H1 H 0.5217 0.4623 0.8979
C3 C 0.4662(5) 0.3985(5) 0.7955(4)
C4 C 0.5115(5) 0.3249(6) 0.7366(4)
H2 H 0.4578 0.3133 0.6924
C5 C 0.6345(5) 0.2700(6) 0.7440(4)
C6 C 0.7655(5) 0.3647(6) 0.9277(4)
C7 C 0.7608(5) 0.4681(6) 0.9588(5)
C8 C 0.8480(5) 0.4765(6) 1.0193(5)
H3 H 0.8423 0.5507 1.0365
C9 C 0.9466(5) 0.3722(6) 1.0553(4)
H4 H 1.0066 0.3742 1.0992
C10 C 0.9554(5) 0.2678(6) 1.0267(5)
H5 H 1.0232 0.1986 1.0494
C11 C 0.8655(5) 0.2625(6) 0.9646(4)
H6 H 0.8718 0.1887 0.9468
C12 C 0.3347(5) 0.4551(5) 0.7940(5)
C13 C 0.2622(5) 0.5211(6) 0.7117(5)
C14 C 0.1403(5) 0.5750(6) 0.7076(5)
H7 H 0.0953 0.6187 0.6489
C15 C 0.0838(5) 0.5635(6) 0.7939(5)
H8 H -0.0012 0.5983 0.7939
C16 C 0.1509(5) 0.5025(6) 0.8769(5)
H9 H 0.1120 0.4975 0.9344
C17 C 0.2755(5) 0.4469(6) 0.8802(5)
H10 H 0.3202 0.4041 0.9392
C18 C 0.6912(5) 0.1903(6) 0.6826(4)
H11 H 0.6317 0.2014 0.6301
H12 H 0.7644 0.2184 0.6550
C19 C 0.7275(5) 0.0539(6) 0.7393(5)
C20 C 0.6710(5) -0.0339(6) 0.7257(5)
C21 C 0.7032(5) -0.1597(6) 0.7744(5)
H13 H 0.6617 -0.2165 0.7604
C22 C 0.7963(5) -0.2009(6) 0.8435(5)
H14 H 0.8204 -0.2871 0.8783
C23 C 0.8546(5) -0.1160(6) 0.8619(5)
H15 H 0.9173 -0.1437 0.9112
C24 C 0.8235(5) 0.0076(6) 0.8102(5)
H16 H 0.8677 0.0636 0.8225
F1 F 0.6673(3) 0.5707(3) 0.9235(3)
F2 F 0.3142(4) 0.5307(4) 0.6285(3)
F3 F 0.5767(3) 0.0056(3) 0.6557(3)
N1 N 0.7154(4) 0.2841(4) 0.8046(4)
C25 C 0.7609(5) 0.0023(6) 0.4375(4)
C26 C 0.6658(5) -0.0593(5) 0.4634(5)
H17 H 0.6637 -0.1104 0.5264
C27 C 0.5749(5) -0.0449(5) 0.3962(4)
C28 C 0.5842(5) 0.0297(5) 0.3010(4)
H18 H 0.5245 0.0402 0.2524
C29 C 0.6818(5) 0.0857(5) 0.2823(4)
C30 C 0.8575(5) -0.0003(5) 0.5083(4)
C31 C 0.9079(5) -0.1026(5) 0.5840(4)
C32 C 0.9981(5) -0.1019(6) 0.6467(5)
H19 H 1.0311 -0.1748 0.6977
C33 C 1.0390(5) 0.0044(6) 0.6345(5)
H20 H 1.0997 0.0066 0.6778
C34 C 0.9918(5) 0.1095(6) 0.5588(5)
H21 H 1.0213 0.1833 0.5495
C35 C 0.9010(5) 0.1068(6) 0.4962(4)
H22 H 0.8686 0.1792 0.4447
C36 C 0.4698(5) -0.1008(5) 0.4217(4)
C37 C 0.4205(5) -0.1623(6) 0.3680(5)
C38 C 0.3206(5) -0.2126(6) 0.3910(5)
H23 H 0.2903 -0.2530 0.3518
C39 C 0.2644(5) -0.2034(6) 0.4729(5)
H24 H 0.1950 -0.2379 0.4901
C40 C 0.3087(6) -0.1442(6) 0.5298(5)
H25 H 0.2695 -0.1375 0.5854
C41 C 0.4105(5) -0.0949(6) 0.5049(5)
H26 H 0.4414 -0.0560 0.5450
C42 C 0.6956(5) 0.1695(6) 0.1843(4)
H27 H 0.7803 0.1456 0.1660
H28 H 0.6393 0.1581 0.1382
C43 C 0.6673(5) 0.3045(6) 0.1818(4)
C44 C 0.5653(5) 0.3896(6) 0.1308(4)
C45 C 0.5324(5) 0.5144(6) 0.1266(5)
H29 H 0.4620 0.5690 0.0897
C46 C 0.6058(5) 0.5563(6) 0.1781(5)
H30 H 0.5857 0.6412 0.1775
C47 C 0.7088(5) 0.4752(6) 0.2306(5)
H31 H 0.7583 0.5044 0.2668
C48 C 0.7399(5) 0.3515(6) 0.2306(4)
H32 H 0.8127 0.2980 0.2648
F4 F 0.8724(3) -0.2112(3) 0.5969(3)
F5 F 0.4763(3) -0.1754(3) 0.2885(3)
F6 F 0.4902(3) 0.3497(3) 0.0798(2)
N2 N 0.7682(4) 0.0747(4) 0.3493(3)
C49 C 0.1728(5) 0.3565(5) 0.5732(4)
C50 C 0.0512(5) 0.4190(5) 0.5503(5)
H33 H 0.0251 0.4711 0.4878
C51 C -0.0318(5) 0.4042(5) 0.6202(4)
C52 C 0.0102(5) 0.3240(5) 0.7109(5)
H34 H -0.0448 0.3104 0.7599
C53 C 0.1326(5) 0.2651(5) 0.7278(4)
C54 C 0.2681(5) 0.3611(6) 0.5018(4)
C55 C 0.2677(5) 0.4652(6) 0.4229(5)
C56 C 0.3564(5) 0.4690(6) 0.3584(4)
H35 H 0.3516 0.5417 0.3059
C57 C 0.4530(5) 0.3655(6) 0.3708(5)
H36 H 0.5152 0.3665 0.3271
C58 C 0.4574(5) 0.2601(6) 0.4485(5)
H37 H 0.5233 0.1890 0.4575
C59 C 0.3677(5) 0.2574(6) 0.5124(4)
H38 H 0.3730 0.1844 0.5647
C60 C -0.1619(5) 0.4665(6) 0.5935(4)
C61 C -0.2349(5) 0.5313(5) 0.6484(4)
C62 C -0.3579(5) 0.5882(6) 0.6279(5)
H39 H -0.4029 0.6321 0.6668
C63 C -0.4126(6) 0.5780(6) 0.5474(5)
H40 H -0.4974 0.6139 0.5321
C64 C -0.3476(5) 0.5177(6) 0.4900(5)
H41 H -0.3870 0.5128 0.4353
C65 C -0.2221(5) 0.4629(6) 0.5119(5)
H42 H -0.1771 0.4227 0.4708
C66 C 0.1861(5) 0.1802(6) 0.8265(4)
H43 H 0.2574 0.2080 0.8447
H44 H 0.1238 0.1879 0.8731
C67 C 0.2257(5) 0.0453(6) 0.8290(4)
C68 C 0.1691(5) -0.0452(6) 0.8816(5)
C69 C 0.1975(5) -0.1671(6) 0.8833(5)
H45 H 0.1531 -0.2243 0.9198
C70 C 0.2910(5) -0.2063(6) 0.8316(5)
H46 H 0.3118 -0.2911 0.8317
C71 C 0.3552(5) -0.1211(6) 0.7788(5)
H47 H 0.4207 -0.1474 0.7432
C72 C 0.3226(5) 0.0021(6) 0.7787(5)
H48 H 0.3675 0.0595 0.7432
F7 F 0.1763(3) 0.5701(3) 0.4103(3)
F8 F -0.1830(3) 0.5416(3) 0.7275(3)
F9 F 0.0732(3) -0.0096(3) 0.9338(3)
N3 N 0.2142(4) 0.2791(5) 0.6617(4)
C73 C 0.2512(5) 0.0007(6) 0.1511(4)
C74 C 0.1572(5) -0.0601(6) 0.1583(4)
H49 H 0.1532 -0.1123 0.1200
C75 C 0.0682(5) -0.0447(6) 0.2216(4)
C76 C 0.0771(5) 0.0333(5) 0.2769(4)
H50 H 0.0182 0.0456 0.3214
C77 C 0.1739(5) 0.0919(5) 0.2648(4)
C78 C 0.3508(5) -0.0113(6) 0.0832(4)
C79 C 0.3962(5) -0.1159(6) 0.0575(4)
C80 C 0.4913(6) -0.1293(6) -0.0007(5)
H51 H 0.5210 -0.2054 -0.0148
C81 C 0.5413(5) -0.0264(6) -0.0375(5)
H52 H 0.6056 -0.0312 -0.0791
C82 C 0.4998(5) 0.0816(6) -0.0152(5)
H53 H 0.5351 0.1514 -0.0410
C83 C 0.4051(5) 0.0894(6) 0.0459(5)
H54 H 0.3774 0.1644 0.0621
C84 C -0.0337(4) -0.1157(5) 0.2384(4)
C85 C -0.1077(5) -0.1136(6) 0.1629(4)
H55 H -0.0926 -0.0707 0.1002
C86 C -0.2038(6) -0.1742(8) 0.1793(5)
H56 H -0.2543 -0.1727 0.1278
C87 C -0.2259(6) -0.2369(7) 0.2711(6)
H57 H -0.2915 -0.2783 0.2823
C88 C -0.1519(6) -0.2390(7) 0.3466(5)
H58 H -0.1670 -0.2819 0.4093
C89 C -0.0558(5) -0.1784(6) 0.3302(4)
F10 F -0.0030(4) -0.1836(5) 0.3945(4)
C90 C 0.1889(5) 0.1779(5) 0.3223(4)
H59 H 0.1325 0.1680 0.3741
H60 H 0.2736 0.1524 0.3512
C91 C 0.1636(5) 0.3137(5) 0.2640(4)
C92 C 0.0673(5) 0.4011(6) 0.2792(4)
C93 C 0.0389(5) 0.5250(6) 0.2289(5)
H61 H -0.0293 0.5802 0.2435
C94 C 0.1113(5) 0.5694(6) 0.1557(5)
H62 H 0.0938 0.6554 0.1198
C95 C 0.2094(5) 0.4854(6) 0.1364(5)
H63 H 0.2592 0.5136 0.0863
C96 C 0.2356(5) 0.3592(6) 0.1905(4)
H64 H 0.3039 0.3031 0.1768
F11 F 0.3505(3) -0.2208(3) 0.0961(3)
F12 F -0.0074(3) 0.3616(3) 0.3519(3)
N4 N 0.2602(4) 0.0772(5) 0.2030(4)
C97? C -0.0955(5) -0.1014(6) 0.1434(4)
C98? C -0.1965(6) -0.1538(8) 0.1467(5)
H65? H -0.2397 -0.1466 0.0898
C99? C -0.2343(7) -0.2167(9) 0.2332(6)
H66? H -0.3034 -0.2525 0.2354
C100? C -0.1711(8) -0.2272(9) 0.3164(5)
H67? H -0.1970 -0.2702 0.3756
C101? C -0.0700(7) -0.1749(9) 0.3132(4)
H68? H -0.0268 -0.1821 0.3701
C102? C -0.0322(6) -0.1120(7) 0.2266(5)
F13? F -0.0904(7) -0.0493(8) 0.0740(6)
loop_
_geom_bond_atom_site_label_1
_geom_bond_atom_site_label_2
_geom_bond_site_symmetry_1
_geom_bond_site_symmetry_2
C1 C2 1_555 1_555
C2 H1 1_555 1_555
C3 C2 1_555 1_555
C4 C3 1_555 1_555
H2 C4 1_555 1_555
C5 C4 1_555 1_555
C6 C1 1_555 1_555
C7 C6 1_555 1_555
C8 C7 1_555 1_555
H3 C8 1_555 1_555
C9 C8 1_555 1_555
H4 C9 1_555 1_555
C10 C9 1_555 1_555
H5 C10 1_555 1_555
C11 C6 1_555 1_555
H6 C11 1_555 1_555
C12 C3 1_555 1_555
C13 C12 1_555 1_555
C14 C13 1_555 1_555
H7 C14 1_555 1_555
C15 C14 1_555 1_555
H8 C15 1_555 1_555
C16 C15 1_555 1_555
H9 C16 1_555 1_555
C17 C12 1_555 1_555
H10 C17 1_555 1_555
C18 C5 1_555 1_555
H11 C18 1_555 1_555
H12 C18 1_555 1_555
C19 C18 1_555 1_555
C20 C19 1_555 1_555
C21 C20 1_555 1_555
H13 C21 1_555 1_555
C22 C21 1_555 1_555
H14 C22 1_555 1_555
C23 C22 1_555 1_555
H15 C23 1_555 1_555
C24 C19 1_555 1_555
H16 C24 1_555 1_555
F1 C7 1_555 1_555
F2 C13 1_555 1_555
F3 C20 1_555 1_555
N1 C1 1_555 1_555
C25 C26 1_555 1_555
C26 H17 1_555 1_555
C27 C26 1_555 1_555
C28 C27 1_555 1_555
H18 C28 1_555 1_555
C29 C28 1_555 1_555
C30 C25 1_555 1_555
C31 C30 1_555 1_555
C32 C31 1_555 1_555
H19 C32 1_555 1_555
C33 C32 1_555 1_555
H20 C33 1_555 1_555
C34 C33 1_555 1_555
H21 C34 1_555 1_555
C35 C30 1_555 1_555
H22 C35 1_555 1_555
C36 C27 1_555 1_555
C37 C36 1_555 1_555
C38 C37 1_555 1_555
H23 C38 1_555 1_555
C39 C38 1_555 1_555
H24 C39 1_555 1_555
C40 C39 1_555 1_555
H25 C40 1_555 1_555
C41 C36 1_555 1_555
H26 C41 1_555 1_555
C42 C29 1_555 1_555
H27 C42 1_555 1_555
H28 C42 1_555 1_555
C43 C42 1_555 1_555
C44 C43 1_555 1_555
C45 C44 1_555 1_555
H29 C45 1_555 1_555
C46 C45 1_555 1_555
H30 C46 1_555 1_555
C47 C46 1_555 1_555
H31 C47 1_555 1_555
C48 C43 1_555 1_555
H32 C48 1_555 1_555
F4 C31 1_555 1_555
F5 C37 1_555 1_555
F6 C44 1_555 1_555
N2 C25 1_555 1_555
C49 C50 1_555 1_555
C50 H33 1_555 1_555
C51 C50 1_555 1_555
C52 C51 1_555 1_555
H34 C52 1_555 1_555
C53 C52 1_555 1_555
C54 C49 1_555 1_555
C55 C54 1_555 1_555
C56 C55 1_555 1_555
H35 C56 1_555 1_555
C57 C56 1_555 1_555
H36 C57 1_555 1_555
C58 C57 1_555 1_555
H37 C58 1_555 1_555
C59 C54 1_555 1_555
H38 C59 1_555 1_555
C60 C51 1_555 1_555
C61 C60 1_555 1_555
C62 C61 1_555 1_555
H39 C62 1_555 1_555
C63 C62 1_555 1_555
H40 C63 1_555 1_555
C64 C63 1_555 1_555
H41 C64 1_555 1_555
C65 C60 1_555 1_555
H42 C65 1_555 1_555
C66 C53 1_555 1_555
H43 C66 1_555 1_555
H44 C66 1_555 1_555
C67 C66 1_555 1_555
C68 C67 1_555 1_555
C69 C68 1_555 1_555
H45 C69 1_555 1_555
C70 C69 1_555 1_555
H46 C70 1_555 1_555
C71 C70 1_555 1_555
H47 C71 1_555 1_555
C72 C67 1_555 1_555
H48 C72 1_555 1_555
F7 C55 1_555 1_555
F8 C61 1_555 1_555
F9 C68 1_555 1_555
N3 C49 1_555 1_555
C73 C74 1_555 1_555
C74 H49 1_555 1_555
C75 C74 1_555 1_555
C76 C75 1_555 1_555
H50 C76 1_555 1_555
C77 C76 1_555 1_555
C78 C73 1_555 1_555
C79 C78 1_555 1_555
C80 C79 1_555 1_555
H51 C80 1_555 1_555
C81 C80 1_555 1_555
H52 C81 1_555 1_555
C82 C81 1_555 1_555
H53 C82 1_555 1_555
C83 C78 1_555 1_555
H54 C83 1_555 1_555
C84 C75 1_555 1_555
C85 C84 1_555 1_555
H55 C85 1_555 1_555
C86 C85 1_555 1_555
H56 C86 1_555 1_555
C87 C86 1_555 1_555
H57 C87 1_555 1_555
C88 C87 1_555 1_555
H58 C88 1_555 1_555
C89 C84 1_555 1_555
F10 C89 1_555 1_555
C90 C77 1_555 1_555
H59 C90 1_555 1_555
H60 C90 1_555 1_555
C91 C90 1_555 1_555
C92 C91 1_555 1_555
C93 C92 1_555 1_555
H61 C93 1_555 1_555
C94 C93 1_555 1_555
H62 C94 1_555 1_555
C95 C94 1_555 1_555
H63 C95 1_555 1_555
C96 C91 1_555 1_555
H64 C96 1_555 1_555
F11 C79 1_555 1_555
F12 C92 1_555 1_555
N4 C73 1_555 1_555
C5 N1 1_555 1_555
C10 C11 1_555 1_555
C16 C17 1_555 1_555
C23 C24 1_555 1_555
C29 N2 1_555 1_555
C34 C35 1_555 1_555
C40 C41 1_555 1_555
C47 C48 1_555 1_555
C53 N3 1_555 1_555
C58 C59 1_555 1_555
C64 C65 1_555 1_555
C71 C72 1_555 1_555
C77 N4 1_555 1_555
C82 C83 1_555 1_555
C88 C89 1_555 1_555
C95 C96 1_555 1_555

#END
