
#######################################################################
#
#                 Cambridge Crystallographic Data Centre
#                                CCDC 
#
#######################################################################
#
# If this CIF has been generated from an entry in the Cambridge 
# Structural Database, then it will include bibliographic, chemical, 
# crystal, experimental, refinement or atomic coordinate data resulting 
# from the CCDC's data processing and validation procedures.
#
#######################################################################

data_HUJTEN
_chemical_formula_moiety         'C21 H14 Br1 F2 N1'
_chemical_name_systematic        
N-(2-(4-bromophenyl)vinyl)-1,1-bis(4-fluorophenyl)methanimine
_symmetry_cell_setting           monoclinic
_symmetry_space_group_name_H-M   'C c'
_symmetry_Int_Tables_number      9
_space_group_name_Hall           'C -2yc'
loop_
_symmetry_equiv_pos_site_id
_symmetry_equiv_pos_as_xyz
1 x,y,z
2 x,-y,1/2+z
3 1/2+x,1/2+y,z
4 1/2+x,1/2-y,1/2+z
_cell_length_a                   11.1103(4)
_cell_length_b                   19.8612(7)
_cell_length_c                   8.6893(3)
_cell_angle_alpha                90
_cell_angle_beta                 119.1045(15)
_cell_angle_gamma                90
_cell_volume                     1675.31
_exptl_crystal_colour            yellow
_exptl_crystal_description       block
_cell_formula_units_Z            4
loop_
_atom_site_label
_atom_site_type_symbol
_atom_site_fract_x
_atom_site_fract_y
_atom_site_fract_z
Br1 Br -0.49980(4) 0.55433(2) 0.25015(4)
C1 C 0.2263(4) 0.57442(16) 0.7204(4)
H1 H 0.3195 0.5691 0.8092
C2 C 0.1259(4) 0.55299(15) 0.7531(4)
H2 H 0.1554 0.5318 0.8638
C3 C -0.0234(4) 0.55849(15) 0.6385(4)
C4 C -0.1100(4) 0.51282(16) 0.6629(4)
H3 H -0.0704 0.482 0.7584
C5 C -0.2499(4) 0.51175(16) 0.5522(4)
H4 H -0.3062 0.4801 0.57
C6 C -0.3084(4) 0.55763(15) 0.4136(4)
C7 C -0.2276(4) 0.60602(16) 0.3928(4)
H5 H -0.269 0.639 0.3027
C8 C -0.0868(4) 0.60632(15) 0.5032(4)
H6 H -0.0319 0.6394 0.4875
C9 C 0.2948(3) 0.63485(16) 0.5456(4)
C10 C 0.2612(3) 0.65899(15) 0.3665(4)
C11 C 0.3471(4) 0.70443(15) 0.3427(4)
H7 H 0.4295 0.7195 0.4419
C12 C 0.3133(4) 0.72795(16) 0.1750(4)
H8 H 0.3711 0.7589 0.1584
C13 C 0.1944(4) 0.70494(16) 0.0357(4)
C14 C 0.1068(3) 0.65987(16) 0.0514(4)
H9 H 0.0255 0.6447 -0.0492
C15 C 0.1409(4) 0.63726(16) 0.2189(4)
H10 H 0.0816 0.6065 0.2333
C16 C 0.4352(3) 0.64876(16) 0.6933(4)
C17 C 0.4545(4) 0.68776(15) 0.8370(4)
H11 H 0.3766 0.705 0.8419
C18 C 0.5855(4) 0.70162(16) 0.9727(4)
H12 H 0.5985 0.7292 1.069
C19 C 0.6967(4) 0.67441(18) 0.9650(4)
C20 C 0.6823(4) 0.63569(16) 0.8250(5)
H13 H 0.7606 0.6181 0.822
C21 C 0.5511(3) 0.62321(15) 0.6896(4)
H14 H 0.5392 0.5968 0.5921
F1 F 0.1591(2) 0.72796(10) -0.1296(2)
F2 F 0.8251(2) 0.68652(11) 1.0984(3)
N1 N 0.1986(3) 0.60427(13) 0.5605(3)
loop_
_geom_bond_atom_site_label_1
_geom_bond_atom_site_label_2
_geom_bond_site_symmetry_1
_geom_bond_site_symmetry_2
Br1 C6 1_555 1_555
C1 H1 1_555 1_555
C2 C1 1_555 1_555
H2 C2 1_555 1_555
C3 C2 1_555 1_555
C4 C3 1_555 1_555
H3 C4 1_555 1_555
C5 C4 1_555 1_555
H4 C5 1_555 1_555
C6 C5 1_555 1_555
C7 C6 1_555 1_555
H5 C7 1_555 1_555
C8 C3 1_555 1_555
H6 C8 1_555 1_555
C9 C10 1_555 1_555
C10 C11 1_555 1_555
C11 H7 1_555 1_555
C12 C11 1_555 1_555
H8 C12 1_555 1_555
C13 C12 1_555 1_555
C14 C13 1_555 1_555
H9 C14 1_555 1_555
C15 C10 1_555 1_555
H10 C15 1_555 1_555
C16 C9 1_555 1_555
C17 C16 1_555 1_555
H11 C17 1_555 1_555
C18 C17 1_555 1_555
H12 C18 1_555 1_555
C19 C18 1_555 1_555
C20 C19 1_555 1_555
H13 C20 1_555 1_555
C21 C16 1_555 1_555
H14 C21 1_555 1_555
F1 C13 1_555 1_555
F2 C19 1_555 1_555
N1 C1 1_555 1_555
C7 C8 1_555 1_555
C9 N1 1_555 1_555
C14 C15 1_555 1_555
C20 C21 1_555 1_555

#END
