
#######################################################################
#
#                 Cambridge Crystallographic Data Centre
#                                CCDC 
#
#######################################################################
#
# If this CIF has been generated from an entry in the Cambridge 
# Structural Database, then it will include bibliographic, chemical, 
# crystal, experimental, refinement or atomic coordinate data resulting 
# from the CCDC's data processing and validation procedures.
#
#######################################################################

data_HUKJOO
_chemical_formula_moiety         'C28 H30 N2 O4'
_chemical_name_systematic        
2,2'-(Cyclohexane-1,2-diylbis(nitriloeth-1-yl-1-ylidene))bis(5-(prop-2-yn-1-yloxy)phenol)
_symmetry_cell_setting           monoclinic
_symmetry_space_group_name_H-M   'C 2/c'
_symmetry_Int_Tables_number      15
_space_group_name_Hall           '-C 2yn'
loop_
_symmetry_equiv_pos_site_id
_symmetry_equiv_pos_as_xyz
1 x,y,z
2 -x,y,1/2-z
3 1/2+x,1/2+y,z
4 1/2-x,1/2+y,1/2-z
5 -x,-y,-z
6 x,-y,1/2+z
7 1/2-x,1/2-y,-z
8 1/2+x,1/2-y,1/2+z
_cell_length_a                   30.210(7)
_cell_length_b                   9.636(3)
_cell_length_c                   19.828(7)
_cell_angle_alpha                90
_cell_angle_beta                 116.979(16)
_cell_angle_gamma                90
_cell_volume                     5143.85
_exptl_crystal_colour            'pale yellow'
_exptl_crystal_description       needle
_chemical_melting_point          '469 K'
_cell_formula_units_Z            8
_exptl_crystal_recrystallization_method dichloromethane/methanol
loop_
_atom_site_label
_atom_site_type_symbol
_atom_site_fract_x
_atom_site_fract_y
_atom_site_fract_z
O1 O 0.55193(10) 0.4210(3) 0.73240(19)
O2 O 0.21206(10) 0.3272(3) 0.37398(17)
O3 O 0.49286(9) 0.8731(3) 0.63771(16)
H1 H 0.4731 0.9114 0.5987
O4 O 0.26684(8) 0.7641(3) 0.32901(14)
H2 H 0.2839 0.8306 0.3523
N1 N 0.42915(10) 0.8971(3) 0.50306(19)
N2 N 0.32206(9) 0.9068(3) 0.43932(18)
C1 C 0.66355(16) 0.5887(5) 0.7834(3)
H3 H 0.6897 0.6280 0.7776
C2 C 0.63028(15) 0.5387(5) 0.7908(2)
C3 C 0.58991(15) 0.4743(5) 0.8010(3)
H4 H 0.6033 0.3994 0.8375
H5 H 0.5757 0.5425 0.8215
C4 C 0.52333(13) 0.5145(5) 0.6771(3)
C5 C 0.52361(13) 0.6545(4) 0.6864(2)
H6 H 0.5448 0.6939 0.7327
C6 C 0.49214(12) 0.7393(4) 0.6263(2)
C7 C 0.46087(12) 0.6785(4) 0.5542(2)
C8 C 0.42989(11) 0.7634(4) 0.4910(2)
C9 C 0.39901(12) 0.9992(4) 0.4475(2)
H7 H 0.3890 0.9620 0.3967
C10 C 0.35237(12) 1.0328(4) 0.4568(2)
H8 H 0.3620 1.0614 0.5090
C11 C 0.32125(12) 0.8165(4) 0.4873(2)
C12 C 0.29285(11) 0.6913(4) 0.4568(2)
C13 C 0.26666(11) 0.6706(4) 0.3775(2)
C14 C 0.23964(12) 0.5488(4) 0.3490(2)
H9 H 0.2225 0.5355 0.2970
C15 C 0.23800(13) 0.4491(4) 0.3965(2)
C16 C 0.18126(17) 0.3059(5) 0.2944(3)
H10 H 0.2001 0.3283 0.2672
H11 H 0.1720 0.2088 0.2854
C17 C 0.13624(18) 0.3909(5) 0.2650(3)
C18 C 0.0996(2) 0.4564(6) 0.2414(3)
H12 H 0.0705 0.5085 0.2226
C19 C 0.46223(13) 0.5344(4) 0.5493(3)
H13 H 0.4418 0.4925 0.5033
C20 C 0.49187(14) 0.4512(5) 0.6085(3)
H14 H 0.4911 0.3552 0.6032
C21 C 0.42920(14) 1.1302(4) 0.4577(3)
H15 H 0.4413 1.1636 0.5092
H16 H 0.4578 1.1093 0.4494
C22 C 0.39818(16) 1.2426(5) 0.4028(3)
H17 H 0.4182 1.3256 0.4111
H18 H 0.3880 1.2115 0.3513
C23 C 0.35287(16) 1.2765(5) 0.4126(3)
H19 H 0.3330 1.3450 0.3753
H20 H 0.3629 1.3155 0.4625
C24 C 0.32223(14) 1.1459(4) 0.4031(3)
H21 H 0.2941 1.1682 0.4121
H22 H 0.3095 1.1127 0.3515
C25 C 0.34903(14) 0.8348(5) 0.5725(2)
H23 H 0.3800 0.7855 0.5919
H24 H 0.3293 0.7989 0.5953
H25 H 0.3554 0.9317 0.5844
C26 C 0.26377(13) 0.4675(4) 0.4745(2)
H26 H 0.2628 0.3989 0.5068
C27 C 0.29018(13) 0.5849(4) 0.5035(2)
H27 H 0.3070 0.5956 0.5558
C28 C 0.40069(15) 0.6982(4) 0.4150(2)
H28 H 0.3697 0.6643 0.4111
H29 H 0.4192 0.6225 0.4090
H30 H 0.3944 0.7660 0.3762
loop_
_geom_bond_atom_site_label_1
_geom_bond_atom_site_label_2
_geom_bond_site_symmetry_1
_geom_bond_site_symmetry_2
O1 C3 1_555 1_555
O2 C15 1_555 1_555
O3 H1 1_555 1_555
O4 H2 1_555 1_555
N1 C8 1_555 1_555
N2 C10 1_555 1_555
C1 H3 1_555 1_555
C2 C1 1_555 1_555
C3 C2 1_555 1_555
H4 C3 1_555 1_555
H5 C3 1_555 1_555
C4 O1 1_555 1_555
C5 C4 1_555 1_555
H6 C5 1_555 1_555
C6 O3 1_555 1_555
C7 C6 1_555 1_555
C8 C7 1_555 1_555
C9 N1 1_555 1_555
H7 C9 1_555 1_555
C10 C9 1_555 1_555
H8 C10 1_555 1_555
C11 N2 1_555 1_555
C12 C11 1_555 1_555
C13 O4 1_555 1_555
C14 C13 1_555 1_555
H9 C14 1_555 1_555
C15 C14 1_555 1_555
C16 O2 1_555 1_555
H10 C16 1_555 1_555
H11 C16 1_555 1_555
C17 C16 1_555 1_555
C18 C17 1_555 1_555
H12 C18 1_555 1_555
C19 C7 1_555 1_555
H13 C19 1_555 1_555
C20 C4 1_555 1_555
H14 C20 1_555 1_555
C21 C9 1_555 1_555
H15 C21 1_555 1_555
H16 C21 1_555 1_555
C22 C21 1_555 1_555
H17 C22 1_555 1_555
H18 C22 1_555 1_555
C23 C22 1_555 1_555
H19 C23 1_555 1_555
H20 C23 1_555 1_555
C24 C10 1_555 1_555
H21 C24 1_555 1_555
H22 C24 1_555 1_555
C25 C11 1_555 1_555
H23 C25 1_555 1_555
H24 C25 1_555 1_555
H25 C25 1_555 1_555
C26 C15 1_555 1_555
H26 C26 1_555 1_555
C27 C12 1_555 1_555
H27 C27 1_555 1_555
C28 C8 1_555 1_555
H28 C28 1_555 1_555
H29 C28 1_555 1_555
H30 C28 1_555 1_555
C5 C6 1_555 1_555
C12 C13 1_555 1_555
C19 C20 1_555 1_555
C23 C24 1_555 1_555
C26 C27 1_555 1_555

#END
