
#######################################################################
#
#                 Cambridge Crystallographic Data Centre
#                                CCDC 
#
#######################################################################
#
# If this CIF has been generated from an entry in the Cambridge 
# Structural Database, then it will include bibliographic, chemical, 
# crystal, experimental, refinement or atomic coordinate data resulting 
# from the CCDC's data processing and validation procedures.
#
#######################################################################

data_HUKLEF
_chemical_name_common            (E)-13-(2-Trifluoromethylphenyl)parthenolide
_chemical_formula_moiety         'C22 H23 F3 O3'
_chemical_name_systematic        
1a,5-Dimethyl-8-(2-(trifluoromethyl)benzylidene)-2,3,6,7,7a,8,10a,10b-octahydro-oxireno[9,10]cyclodeca[1,2-b]furan-9(1aH)-one
_symmetry_cell_setting           orthorhombic
_symmetry_space_group_name_H-M   'P 21 21 21'
_symmetry_Int_Tables_number      19
_space_group_name_Hall           'P 2ac 2ab'
loop_
_symmetry_equiv_pos_site_id
_symmetry_equiv_pos_as_xyz
1 x,y,z
2 1/2-x,-y,1/2+z
3 -x,1/2+y,1/2-z
4 1/2+x,1/2-y,-z
_cell_length_a                   8.4424(4)
_cell_length_b                   13.3817(6)
_cell_length_c                   16.9812(8)
_cell_angle_alpha                90
_cell_angle_beta                 90
_cell_angle_gamma                90
_cell_volume                     1918.43
_exptl_crystal_colour            colorless
_exptl_crystal_description       needle
_chemical_melting_point          229-232deg.C
_cell_formula_units_Z            4
_exptl_crystal_recrystallization_method deuterochloroform
loop_
_atom_site_label
_atom_site_type_symbol
_atom_site_fract_x
_atom_site_fract_y
_atom_site_fract_z
F1 F -0.38261(16) 0.42826(11) 1.40188(8)
F2 F -0.24572(16) 0.29393(12) 1.41764(7)
F3 F -0.44603(16) 0.32378(11) 1.49265(7)
O1 O 0.01585(19) 0.21945(12) 0.95728(9)
O2 O -0.01193(18) 0.32399(12) 1.10943(9)
O3 O -0.0781(2) 0.45879(13) 1.18032(9)
C1 C -0.0128(3) 0.11387(19) 0.97514(13)
C2 C -0.0925(3) 0.19372(17) 1.01973(12)
C3 C -0.0542(3) 0.21808(17) 1.10414(13)
C4 C -0.2014(3) 0.20176(16) 1.15739(13)
C5 C -0.1930(3) 0.11229(17) 1.21458(13)
C6 C -0.2864(3) 0.02091(17) 1.18448(14)
C7 C -0.2134(3) -0.02697(18) 1.11308(16)
C8 C -0.2632(3) -0.0044(2) 1.04024(14)
C9 C -0.1919(3) -0.0342(2) 0.96260(15)
C10 C -0.1156(3) 0.05545(19) 0.91909(14)
C11 C 0.1340(3) 0.06260(19) 1.00450(15)
C12 C -0.1017(3) 0.3717(2) 1.16420(14)
C13 C -0.2225(3) 0.30281(17) 1.19575(13)
C14 C -0.3292(3) 0.33486(18) 1.24751(13)
C15 C -0.4635(3) 0.27656(17) 1.28017(13)
C16 C -0.4986(3) 0.27547(17) 1.36104(13)
C17 C -0.6226(3) 0.21787(18) 1.38955(14)
C18 C -0.7148(3) 0.16125(18) 1.33896(15)
C19 C -0.6829(3) 0.16289(18) 1.25944(15)
C20 C -0.5599(3) 0.22043(18) 1.23001(13)
C21 C -0.3955(3) 0.3304(2) 1.41780(14)
C22 C -0.0808(3) -0.09866(18) 1.13205(14)
H1 H -0.2066 0.2029 1.0057
H2 H 0.0358 0.1757 1.1229
H3 H -0.2944 0.1907 1.1220
H4 H -0.3560 0.0356 1.0373
H5 H -0.3184 0.4018 1.2654
H6 H -0.6444 0.2172 1.4444
H7 H -0.7992 0.1217 1.3589
H8 H -0.7458 0.1242 1.2244
H9 H -0.5408 0.2217 1.1749
H10 H -0.0808 0.0931 1.2222
H11 H -0.2359 0.1328 1.2664
H12 H -0.2930 -0.0293 1.2272
H13 H -0.3957 0.0420 1.1715
H14 H -0.2753 -0.0636 0.9288
H15 H -0.1102 -0.0860 0.9717
H16 H -0.0508 0.0309 0.8745
H17 H -0.1996 0.0993 0.8977
H18 H 0.1985 0.0412 0.9596
H19 H 0.1042 0.0041 1.0359
H20 H 0.1952 0.1090 1.0372
H21 H -0.0458 -0.1319 1.0837
H22 H -0.1186 -0.1489 1.1696
H23 H 0.0081 -0.0618 1.1552
loop_
_geom_bond_atom_site_label_1
_geom_bond_atom_site_label_2
_geom_bond_site_symmetry_1
_geom_bond_site_symmetry_2
F1 C21 1_555 1_555
F2 C21 1_555 1_555
F3 C21 1_555 1_555
O1 C1 1_555 1_555
O2 C3 1_555 1_555
O3 C12 1_555 1_555
C1 C2 1_555 1_555
C2 O1 1_555 1_555
C3 C2 1_555 1_555
C4 C3 1_555 1_555
C5 C4 1_555 1_555
C6 C5 1_555 1_555
C7 C6 1_555 1_555
C8 C7 1_555 1_555
C9 C8 1_555 1_555
C10 C1 1_555 1_555
C11 C1 1_555 1_555
C12 O2 1_555 1_555
C13 C4 1_555 1_555
C14 C13 1_555 1_555
C15 C14 1_555 1_555
C16 C15 1_555 1_555
C17 C16 1_555 1_555
C18 C17 1_555 1_555
C19 C18 1_555 1_555
C20 C15 1_555 1_555
C21 C16 1_555 1_555
C22 C7 1_555 1_555
H1 C2 1_555 1_555
H2 C3 1_555 1_555
H3 C4 1_555 1_555
H4 C8 1_555 1_555
H5 C14 1_555 1_555
H6 C17 1_555 1_555
H7 C18 1_555 1_555
H8 C19 1_555 1_555
H9 C20 1_555 1_555
H10 C5 1_555 1_555
H11 C5 1_555 1_555
H12 C6 1_555 1_555
H13 C6 1_555 1_555
H14 C9 1_555 1_555
H15 C9 1_555 1_555
H16 C10 1_555 1_555
H17 C10 1_555 1_555
H18 C11 1_555 1_555
H19 C11 1_555 1_555
H20 C11 1_555 1_555
H21 C22 1_555 1_555
H22 C22 1_555 1_555
H23 C22 1_555 1_555
C9 C10 1_555 1_555
C12 C13 1_555 1_555
C19 C20 1_555 1_555

#END
