
#######################################################################
#
#                 Cambridge Crystallographic Data Centre
#                                CCDC 
#
#######################################################################
#
# If this CIF has been generated from an entry in the Cambridge 
# Structural Database, then it will include bibliographic, chemical, 
# crystal, experimental, refinement or atomic coordinate data resulting 
# from the CCDC's data processing and validation procedures.
#
#######################################################################

data_HUKLAB
_chemical_name_common            (E)-13-(3-Trifluoromethylphenyl)parthenolide
_chemical_formula_moiety         'C22 H23 F3 O3,0.5(C1 H1 Cl3)'
_chemical_name_systematic        
'1a,5-Dimethyl-8-(3-(trifluoromethyl)benzylidene)-2,3,6,7,7a,8,10a,10b-octahydro-oxireno[9,10]cyclodeca[1,2-b]furan-9(1aH)-one chloroform solvate'
_symmetry_cell_setting           tetragonal
_symmetry_space_group_name_H-M   'P 41 21 2'
_symmetry_Int_Tables_number      92
_space_group_name_Hall           'P 4abw 2nw'
loop_
_symmetry_equiv_pos_site_id
_symmetry_equiv_pos_as_xyz
1 x,y,z
2 -x,-y,1/2+z
3 1/2-y,1/2+x,1/4+z
4 1/2+y,1/2-x,3/4+z
5 1/2-x,1/2+y,1/4-z
6 1/2+x,1/2-y,3/4-z
7 y,x,-z
8 -y,-x,1/2-z
_cell_length_a                   9.19830(10)
_cell_length_b                   9.19830(10)
_cell_length_c                   51.2454(11)
_cell_angle_alpha                90
_cell_angle_beta                 90
_cell_angle_gamma                90
_cell_volume                     4335.81
_exptl_crystal_description       plate
_chemical_melting_point          118-123deg.C
_cell_formula_units_Z            8
_exptl_crystal_recrystallization_method chloroform/hexanes
loop_
_atom_site_label
_atom_site_type_symbol
_atom_site_fract_x
_atom_site_fract_y
_atom_site_fract_z
F1 F 1.2647(2) 1.5255(2) 0.42748(3)
F2 F 1.3521(3) 1.6324(3) 0.46040(5)
F3 F 1.4176(2) 1.4186(3) 0.45123(5)
O1 O 0.59253(18) 1.24053(17) 0.35475(3)
O2 O 0.6282(2) 1.0182(2) 0.44290(4)
O3 O 0.59711(18) 1.17214(19) 0.40971(3)
C1 C 0.6875(2) 1.3100(2) 0.37343(4)
C2 C 0.6199(2) 1.3962(2) 0.35262(4)
C3 C 0.7196(3) 1.4464(3) 0.33103(4)
C4 C 0.7903(3) 1.5932(3) 0.33850(4)
C5 C 0.8529(2) 1.5870(2) 0.36571(4)
C6 C 0.8051(2) 1.6547(2) 0.38703(4)
C7 C 0.8696(2) 1.6197(2) 0.41328(4)
C8 C 0.7749(2) 1.5162(2) 0.42977(4)
C9 C 0.7751(2) 1.3584(2) 0.41951(4)
C10 C 0.7681(2) 1.2420(3) 0.44032(4)
C11 C 0.6600(3) 1.1318(3) 0.43238(4)
C12 C 0.6445(2) 1.3170(2) 0.40176(4)
C13 C 0.4851(3) 1.4860(3) 0.35679(5)
C14 C 0.6848(3) 1.7651(3) 0.38769(5)
C16 C 0.8417(3) 1.2224(3) 0.46260(4)
C17 C 0.9633(3) 1.3064(3) 0.47340(4)
C18 C 1.0686(3) 1.3698(2) 0.45775(4)
C19 C 1.1841(3) 1.4456(3) 0.46893(4)
C20 C 1.1941(3) 1.4598(3) 0.49603(5)
C21 C 1.0904(4) 1.3950(3) 0.51149(5)
C22 C 0.9762(3) 1.3182(3) 0.50059(4)
C23 C 1.3019(3) 1.5061(3) 0.45219(5)
H1 H 0.7931 1.2896 0.3706
H2 H 0.9365 1.5277 0.3679
H3 H 0.8665 1.3434 0.4093
H4 H 0.5635 1.3884 0.4042
H5 H 0.6635 1.4578 0.3147
H6 H 0.7963 1.3727 0.3280
H7 H 0.8684 1.6166 0.3259
H8 H 0.7164 1.6713 0.3376
H9 H 0.8839 1.7113 0.4231
H10 H 0.9663 1.5747 0.4107
H11 H 0.6738 1.5529 0.4299
H12 H 0.8109 1.5167 0.4480
H14 H 0.8106 1.1424 0.4729
H15 H 1.0621 1.3615 0.4393
H16 H 1.2715 1.5134 0.5037
H17 H 1.0973 1.4032 0.5299
H18 H 0.9062 1.2732 0.5116
H19 H 0.4269 1.4430 0.3708
H20 H 0.4279 1.4881 0.3407
H21 H 0.5127 1.5853 0.3616
H22 H 0.6550 1.7885 0.3698
H23 H 0.7192 1.8535 0.3964
H24 H 0.6017 1.7253 0.3973
Cl1 Cl 0.28448(13) 0.56002(10) 0.229879(15)
Cl2 Cl 0.17049(12) 0.82951(12) 0.2500
C15 C 0.2655(7) 0.6744(7) 0.25750(10)
H13 H 0.2101 0.6200 0.2712
Cl1G Cl 0.43998(10) 0.71552(13) 0.270121(15)
C15G C 0.3256(7) 0.7345(7) 0.24250(10)
H13G H 0.3800 0.7899 0.2288
loop_
_geom_bond_atom_site_label_1
_geom_bond_atom_site_label_2
_geom_bond_site_symmetry_1
_geom_bond_site_symmetry_2
Cl1 C15 1_555 1_555
Cl2 C15 1_555 1_555
F1 C23 1_555 1_555
F2 C23 1_555 1_555
F3 C23 1_555 1_555
O1 C1 1_555 1_555
O2 C11 1_555 1_555
O3 C11 1_555 1_555
C1 C2 1_555 1_555
C2 O1 1_555 1_555
C3 C2 1_555 1_555
C4 C3 1_555 1_555
C5 C4 1_555 1_555
C6 C5 1_555 1_555
C7 C6 1_555 1_555
C8 C7 1_555 1_555
C9 C8 1_555 1_555
C10 C9 1_555 1_555
C11 C10 1_555 1_555
C12 O3 1_555 1_555
C13 C2 1_555 1_555
C14 C6 1_555 1_555
C15 H13 1_555 1_555
C16 C10 1_555 1_555
C17 C16 1_555 1_555
C18 C17 1_555 1_555
C19 C18 1_555 1_555
C20 C19 1_555 1_555
C21 C20 1_555 1_555
C22 C17 1_555 1_555
C23 C19 1_555 1_555
H1 C1 1_555 1_555
H2 C5 1_555 1_555
H3 C9 1_555 1_555
H4 C12 1_555 1_555
H5 C3 1_555 1_555
H6 C3 1_555 1_555
H7 C4 1_555 1_555
H8 C4 1_555 1_555
H9 C7 1_555 1_555
H10 C7 1_555 1_555
H11 C8 1_555 1_555
H12 C8 1_555 1_555
H14 C16 1_555 1_555
H15 C18 1_555 1_555
H16 C20 1_555 1_555
H17 C21 1_555 1_555
H18 C22 1_555 1_555
H19 C13 1_555 1_555
H20 C13 1_555 1_555
H21 C13 1_555 1_555
H22 C14 1_555 1_555
H23 C14 1_555 1_555
H24 C14 1_555 1_555
Cl1G C15 1_555 1_555
C15G Cl1 1_555 1_555
H13G C15G 1_555 1_555
Cl2 C15G 1_555 1_555
C1 C12 1_555 1_555
C9 C12 1_555 1_555
C15 C15G 1_555 1_555
C21 C22 1_555 1_555
Cl1G C15G 1_555 1_555

#END
