
#######################################################################
#
#                 Cambridge Crystallographic Data Centre
#                                CCDC 
#
#######################################################################
#
# If this CIF has been generated from an entry in the Cambridge 
# Structural Database, then it will include bibliographic, chemical, 
# crystal, experimental, refinement or atomic coordinate data resulting 
# from the CCDC's data processing and validation procedures.
#
#######################################################################

data_HUKMOQ
_chemical_formula_moiety         'C63 H55 O4 P1'
_chemical_name_systematic        
'1-(3,4,5,6-Tetraphenyl-2-(diphenylphosphoryl)phenyl)-naphthalen-2-yl 5-methyl-2-isopropylcyclohexyl carbonate'
_symmetry_cell_setting           orthorhombic
_symmetry_space_group_name_H-M   'P 21 21 21'
_symmetry_Int_Tables_number      19
_space_group_name_Hall           'P 2ac 2ab'
loop_
_symmetry_equiv_pos_site_id
_symmetry_equiv_pos_as_xyz
1 x,y,z
2 1/2-x,-y,1/2+z
3 -x,1/2+y,1/2-z
4 1/2+x,1/2-y,-z
_cell_length_a                   12.486(3)
_cell_length_b                   17.909(4)
_cell_length_c                   22.896(5)
_cell_angle_alpha                90
_cell_angle_beta                 90
_cell_angle_gamma                90
_cell_volume                     5119.82
_exptl_crystal_colour            colorless
_exptl_crystal_description       prism
_chemical_melting_point          282-283deg.C
_cell_formula_units_Z            4
_exptl_crystal_recrystallization_method benzene/n-heptane
loop_
_atom_site_label
_atom_site_type_symbol
_atom_site_fract_x
_atom_site_fract_y
_atom_site_fract_z
P1 P 0.08266(6) 1.11984(4) 0.54467(3)
O1 O 0.05969(19) 1.19997(12) 0.55182(10)
O2 O 0.3583(3) 0.84286(18) 0.5763(2)
O3 O 0.1963(2) 0.84228(17) 0.53229(16)
O4 O 0.24503(19) 0.94074(14) 0.57525(12)
C1 C 0.0555(2) 1.06527(16) 0.61123(11)
C2 C -0.0533(2) 1.05712(15) 0.62775(11)
C3 C -0.0798(2) 1.01125(16) 0.67500(12)
C4 C -0.0003(2) 0.97203(17) 0.70556(12)
C5 C 0.1077(2) 0.98539(16) 0.69245(12)
C6 C 0.1355(2) 1.03247(15) 0.64590(11)
C7 C -0.1427(2) 1.09692(17) 0.59657(12)
C8 C -0.1588(3) 1.17285(19) 0.60548(15)
H1 H -0.1122 1.2000 0.6305
C9 C -0.2430(3) 1.2090(2) 0.57789(17)
H2 H -0.2540 1.2608 0.5843
C10 C -0.3106(3) 1.17055(18) 0.54133(16)
H3 H -0.3673 1.1958 0.5219
C11 C -0.2956(3) 1.0953(2) 0.53303(15)
H4 H -0.3421 1.0687 0.5076
C12 C -0.2136(2) 1.0574(2) 0.56125(13)
H5 H -0.2059 1.0050 0.5565
C13 C -0.1942(2) 1.00367(19) 0.69452(13)
C14 C -0.2437(3) 1.0621(2) 0.72285(14)
H6 H -0.2070 1.1082 0.7274
C15 C -0.3463(3) 1.0544(3) 0.74472(17)
H7 H -0.3790 1.0946 0.7650
C16 C -0.4010(3) 0.9887(4) 0.73720(19)
H8 H -0.4720 0.9837 0.7517
C17 C -0.3531(3) 0.9305(3) 0.70874(19)
H9 H -0.3910 0.8850 0.7035
C18 C -0.2503(3) 0.9372(2) 0.68762(15)
H10 H -0.2176 0.8963 0.6682
C19 C -0.0288(2) 0.91779(15) 0.75203(12)
C20 C -0.0772(3) 0.9397(2) 0.80349(11)
H11 H -0.0933 0.9910 0.8096
C21 C -0.1024(3) 0.8882(2) 0.84620(15)
H12 H -0.1363 0.9040 0.8812
C22 C -0.0783(3) 0.8138(2) 0.83782(17)
H13 H -0.0933 0.7785 0.8677
C23 C -0.0323(4) 0.7907(2) 0.78611(17)
H14 H -0.0177 0.7393 0.7796
C24 C -0.0077(3) 0.84292(15) 0.74379(18)
H15 H 0.0243 0.8269 0.7083
C25 C 0.19409(16) 0.95279(13) 0.73035(9)
C26 C 0.2262(2) 0.99165(14) 0.77990(10)
H16 H 0.1945 1.0385 0.7889
C27 C 0.3046(2) 0.9620(2) 0.81623(10)
H17 H 0.3265 0.9885 0.8501
C28 C 0.3509(2) 0.8935(2) 0.80301(14)
H18 H 0.4044 0.8732 0.8278
C29 C 0.3188(2) 0.85459(15) 0.75345(16)
H19 H 0.3504 0.8078 0.7444
C30 C 0.2404(2) 0.88426(13) 0.71713(12)
H20 H 0.2185 0.8577 0.6833
C31 C 0.2528(2) 1.04342(16) 0.63590(11)
C32 C 0.3073(2) 1.10516(17) 0.66115(12)
C33 C 0.2546(3) 1.16204(19) 0.69264(15)
H21 H 0.1799 1.1579 0.6996
C34 C 0.3083(3) 1.2224(2) 0.71314(19)
H22 H 0.2708 1.2602 0.7339
C35 C 0.4202(3) 1.2294(2) 0.7037(2)
H23 H 0.4571 1.2721 0.7179
C36 C 0.4750(3) 1.1752(2) 0.67416(16)
H24 H 0.5500 1.1800 0.6682
C37 C 0.4200(2) 1.11174(18) 0.65239(12)
C38 C 0.4743(2) 1.05593(19) 0.62039(14)
H25 H 0.5498 1.0593 0.6158
C39 C 0.4211(3) 0.9977(2) 0.59613(15)
H26 H 0.4582 0.9610 0.5740
C40 C 0.3092(2) 0.99288(18) 0.60445(14)
C41 C 0.2760(3) 0.8725(2) 0.5627(2)
C42 C 0.2144(2) 1.0980(3) 0.5144(2)
C43 C 0.2890(3) 1.1551(2) 0.5208(2)
H27 H 0.2725 1.1973 0.5442
C44 C 0.3877(3) 1.1503(3) 0.4930(2)
H28 H 0.4387 1.1893 0.4974
C45 C 0.4119(3) 1.0884(3) 0.4588(2)
H29 H 0.4793 1.0851 0.4398
C46 C 0.3373(3) 1.0314(3) 0.4523(2)
H30 H 0.3538 0.9891 0.4289
C47 C 0.2386(3) 1.0362(3) 0.4802(2)
H31 H 0.1876 0.9972 0.4758
C48 C 0.0078(4) 1.0671(2) 0.49062(15)
C49 C -0.0407(4) 1.1079(3) 0.44623(17)
H32 H -0.0357 1.1608 0.4460
C50 C -0.0964(4) 1.0712(3) 0.40218(15)
H33 H -0.1295 1.0991 0.3718
C51 C -0.1036(4) 0.9938(3) 0.40253(18)
H34 H -0.1417 0.9687 0.3724
C52 C -0.0552(4) 0.9530(3) 0.4469(2)
H35 H -0.0602 0.9001 0.4472
C53 C 0.0005(4) 0.9897(2) 0.49096(18)
H36 H 0.0336 0.9618 0.5213
C54 C 0.2043(4) 0.7665(3) 0.51450(19)
H37 H 0.2807 0.7542 0.5057
C55 C 0.1368(5) 0.7533(2) 0.46097(18)
H38 H 0.0619 0.7648 0.4737
C56 C 0.1353(6) 0.6713(2) 0.4463(3)
H39 H 0.2076 0.6555 0.4335
H40 H 0.0849 0.6624 0.4137
C57 C 0.1018(5) 0.6255(3) 0.4984(2)
H41 H 0.0264 0.6369 0.5082
H42 H 0.1064 0.5718 0.4884
C58 C 0.1713(5) 0.6410(2) 0.5508(2)
H43 H 0.2468 0.6260 0.5422
C59 C 0.1676(5) 0.7227(2) 0.5669(2)
H44 H 0.0938 0.7373 0.5777
H45 H 0.2152 0.7326 0.6006
C60 C 0.1291(8) 0.5960(5) 0.6015(4)
H46 H 0.1740 0.6049 0.6359
H47 H 0.1306 0.5428 0.5915
H48 H 0.0553 0.6112 0.6100
C61 C 0.1574(5) 0.8055(4) 0.4104(2)
H49 H 0.1527 0.8570 0.4270
C62 C 0.2691(5) 0.7984(6) 0.3861(4)
H50 H 0.2777 0.8326 0.3531
H51 H 0.2810 0.7470 0.3729
H52 H 0.3213 0.8109 0.4166
C63 C 0.0718(7) 0.8013(6) 0.3640(3)
H53 H 0.0893 0.8359 0.3323
H54 H 0.0025 0.8151 0.3810
H55 H 0.0680 0.7503 0.3487
C64? C 0.4216(2) 1.1308(3) 0.46836(17)
C65? C 0.3511(3) 1.0759(3) 0.44931(16)
C66? C 0.2499(2) 1.0702(3) 0.47421(18)
C67? C -0.0055(4) 1.0863(3) 0.48811(18)
C68? C -0.0553(4) 1.1358(3) 0.4500(2)
C69? C -0.1143(4) 1.1088(4) 0.40307(18)
C70? C -0.1235(4) 1.0323(4) 0.39419(18)
C71? C -0.0737(5) 0.9828(3) 0.4323(2)
C72? C -0.0148(4) 1.0098(3) 0.4792(2)
C73? C 0.202(4) 0.7661(8) 0.3575(8)
C74? C 0.221(4) 0.8734(15) 0.4276(7)
C75? C 0.21926(19) 1.1193(3) 0.51816(18)
C76? C 0.2898(3) 1.1741(2) 0.53721(18)
C77? C 0.3910(2) 1.1799(2) 0.51231(19)
H56? H 0.4908 1.1348 0.4513
H57? H 0.3720 1.0424 0.4193
H58? H 0.2017 1.0327 0.4612
H59? H -0.0490 1.1881 0.4561
H60? H -0.1483 1.1427 0.3770
H61? H -0.1638 1.0139 0.3621
H62? H -0.0800 0.9305 0.4262
H63? H 0.0192 0.9760 0.5053
H64? H 0.0855 0.8246 0.3984
H65? H 0.2102 0.8020 0.3255
H66? H 0.1526 0.7264 0.3455
H67? H 0.2718 0.7444 0.3671
H68? H 0.2273 0.9072 0.3941
H69? H 0.2930 0.8580 0.4402
H70? H 0.1851 0.8992 0.4598
H71? H 0.2689 1.2077 0.5672
H72? H 0.4392 1.2174 0.5253
loop_
_geom_bond_atom_site_label_1
_geom_bond_atom_site_label_2
_geom_bond_site_symmetry_1
_geom_bond_site_symmetry_2
P1 O1 1_555 1_555
O2 C41 1_555 1_555
O3 C41 1_555 1_555
O4 C40 1_555 1_555
C1 P1 1_555 1_555
C2 C1 1_555 1_555
C3 C2 1_555 1_555
C4 C3 1_555 1_555
C5 C4 1_555 1_555
C6 C1 1_555 1_555
C7 C2 1_555 1_555
C8 C7 1_555 1_555
H1 C8 1_555 1_555
C9 C8 1_555 1_555
H2 C9 1_555 1_555
C10 C9 1_555 1_555
H3 C10 1_555 1_555
C11 C10 1_555 1_555
H4 C11 1_555 1_555
C12 C7 1_555 1_555
H5 C12 1_555 1_555
C13 C3 1_555 1_555
C14 C13 1_555 1_555
H6 C14 1_555 1_555
C15 C14 1_555 1_555
H7 C15 1_555 1_555
C16 C15 1_555 1_555
H8 C16 1_555 1_555
C17 C16 1_555 1_555
H9 C17 1_555 1_555
C18 C13 1_555 1_555
H10 C18 1_555 1_555
C19 C4 1_555 1_555
C20 C19 1_555 1_555
H11 C20 1_555 1_555
C21 C20 1_555 1_555
H12 C21 1_555 1_555
C22 C21 1_555 1_555
H13 C22 1_555 1_555
C23 C22 1_555 1_555
H14 C23 1_555 1_555
C24 C19 1_555 1_555
H15 C24 1_555 1_555
C25 C5 1_555 1_555
C26 C25 1_555 1_555
H16 C26 1_555 1_555
C27 C26 1_555 1_555
H17 C27 1_555 1_555
C28 C27 1_555 1_555
H18 C28 1_555 1_555
C29 C28 1_555 1_555
H19 C29 1_555 1_555
C30 C25 1_555 1_555
H20 C30 1_555 1_555
C31 C6 1_555 1_555
C32 C31 1_555 1_555
C33 C32 1_555 1_555
H21 C33 1_555 1_555
C34 C33 1_555 1_555
H22 C34 1_555 1_555
C35 C34 1_555 1_555
H23 C35 1_555 1_555
C36 C35 1_555 1_555
H24 C36 1_555 1_555
C37 C32 1_555 1_555
C38 C37 1_555 1_555
H25 C38 1_555 1_555
C39 C38 1_555 1_555
H26 C39 1_555 1_555
C40 C31 1_555 1_555
C41 O4 1_555 1_555
C42 P1 1_555 1_555
C43 C42 1_555 1_555
H27 C43 1_555 1_555
C44 C43 1_555 1_555
H28 C44 1_555 1_555
C45 C44 1_555 1_555
H29 C45 1_555 1_555
C46 C45 1_555 1_555
H30 C46 1_555 1_555
C47 C42 1_555 1_555
H31 C47 1_555 1_555
C48 P1 1_555 1_555
C49 C48 1_555 1_555
H32 C49 1_555 1_555
C50 C49 1_555 1_555
H33 C50 1_555 1_555
C51 C50 1_555 1_555
H34 C51 1_555 1_555
C52 C51 1_555 1_555
H35 C52 1_555 1_555
C53 C48 1_555 1_555
H36 C53 1_555 1_555
C54 O3 1_555 1_555
H37 C54 1_555 1_555
C55 C54 1_555 1_555
H38 C55 1_555 1_555
C56 C55 1_555 1_555
H39 C56 1_555 1_555
H40 C56 1_555 1_555
C57 C56 1_555 1_555
H41 C57 1_555 1_555
H42 C57 1_555 1_555
C58 C57 1_555 1_555
H43 C58 1_555 1_555
C59 C54 1_555 1_555
H44 C59 1_555 1_555
H45 C59 1_555 1_555
C60 C58 1_555 1_555
H46 C60 1_555 1_555
H47 C60 1_555 1_555
H48 C60 1_555 1_555
C61 C55 1_555 1_555
H49 C61 1_555 1_555
C62 C61 1_555 1_555
H50 C62 1_555 1_555
H51 C62 1_555 1_555
H52 C62 1_555 1_555
C63 C61 1_555 1_555
H53 C63 1_555 1_555
H54 C63 1_555 1_555
H55 C63 1_555 1_555
C5 C6 1_555 1_555
C11 C12 1_555 1_555
C17 C18 1_555 1_555
C23 C24 1_555 1_555
C29 C30 1_555 1_555
C36 C37 1_555 1_555
C39 C40 1_555 1_555
C46 C47 1_555 1_555
C52 C53 1_555 1_555
C58 C59 1_555 1_555

#END
