
#######################################################################
#
#                 Cambridge Crystallographic Data Centre
#                                CCDC 
#
#######################################################################
#
# If this CIF has been generated from an entry in the Cambridge 
# Structural Database, then it will include bibliographic, chemical, 
# crystal, experimental, refinement or atomic coordinate data resulting 
# from the CCDC's data processing and validation procedures.
#
#######################################################################

data_HUKNIL01
_chemical_formula_moiety         'C8 H7 N5 O1'
_chemical_name_systematic        2-{[(1H-tetrazol-5-yl)imino]methyl}phenol
_symmetry_cell_setting           monoclinic
_symmetry_space_group_name_H-M   'C 2/c'
_symmetry_Int_Tables_number      15
_space_group_name_Hall           '-C 2yn'
loop_
_symmetry_equiv_pos_site_id
_symmetry_equiv_pos_as_xyz
1 x,y,z
2 -x,y,1/2-z
3 1/2+x,1/2+y,z
4 1/2-x,1/2+y,1/2-z
5 -x,-y,-z
6 x,-y,1/2+z
7 1/2-x,1/2-y,-z
8 1/2+x,1/2-y,1/2+z
_cell_length_a                   17.4657(14)
_cell_length_b                   4.9794(3)
_cell_length_c                   21.1968(17)
_cell_angle_alpha                90
_cell_angle_beta                 107.073(9)
_cell_angle_gamma                90
_cell_volume                     1762.22
_exptl_crystal_description       block
_cell_formula_units_Z            8
loop_
_atom_site_label
_atom_site_type_symbol
_atom_site_fract_x
_atom_site_fract_y
_atom_site_fract_z
O1 O 0.20537(13) 1.1140(4) 0.43056(11)
H1 H 0.1840 1.2578 0.4170
N1 N 0.45781(15) 0.6511(5) 0.55368(12)
N2 N 0.34482(15) 0.9006(5) 0.48134(12)
N3 N 0.45633(16) 1.0813(5) 0.56387(12)
N4 N 0.52418(16) 0.7342(5) 0.60151(13)
C1 C 0.41684(17) 0.8730(5) 0.53068(14)
N5 N 0.52420(16) 0.9929(5) 0.60800(13)
C2 C 0.25531(19) 0.7518(6) 0.37978(14)
C3 C 0.1965(2) 0.9432(6) 0.37922(15)
C4 C 0.32832(19) 0.7337(6) 0.43264(14)
H2 H 0.3647 0.5984 0.4318
C5 C 0.1276(2) 0.9580(8) 0.32586(16)
H3 H 0.0885 1.0851 0.3253
C6 C 0.1749(3) 0.5917(8) 0.27275(17)
H4 H 0.1675 0.4761 0.2370
C7 C 0.1179(2) 0.7832(9) 0.27380(18)
H5 H 0.0716 0.7941 0.2383
C8 C 0.2426(2) 0.5758(7) 0.32546(16)
H6 H 0.2810 0.4464 0.3255
H7 H 0.4465(18) 1.265(7) 0.5582(14)
loop_
_geom_bond_atom_site_label_1
_geom_bond_atom_site_label_2
_geom_bond_site_symmetry_1
_geom_bond_site_symmetry_2
O1 H1 1_555 1_555
N1 N4 1_555 1_555
N2 C1 1_555 1_555
N3 C1 1_555 1_555
N4 N5 1_555 1_555
C1 N1 1_555 1_555
N5 N3 1_555 1_555
C2 C3 1_555 1_555
C3 O1 1_555 1_555
C4 N2 1_555 1_555
H2 C4 1_555 1_555
C5 C3 1_555 1_555
H3 C5 1_555 1_555
C6 H4 1_555 1_555
C7 C5 1_555 1_555
H5 C7 1_555 1_555
C8 C2 1_555 1_555
H6 C8 1_555 1_555
H7 N3 1_555 1_555
C2 C4 1_555 1_555
C6 C7 1_555 1_555
C6 C8 1_555 1_555

#END
