
#######################################################################
#
#                 Cambridge Crystallographic Data Centre
#                                CCDC 
#
#######################################################################
#
# If this CIF has been generated from an entry in the Cambridge 
# Structural Database, then it will include bibliographic, chemical, 
# crystal, experimental, refinement or atomic coordinate data resulting 
# from the CCDC's data processing and validation procedures.
#
#######################################################################

data_HUKPEJ
_chemical_name_common            
3,9-Bis(4-(trifluoromethyl)phenyl)tetracyclo-[9.2.1.0$2,10!.0$4,8!]tetradeca-4(8),12-diene
_chemical_formula_moiety         'C28 H24 F6'
_chemical_name_systematic        
(4\a,4a\a,8a\a,9\a)-4,9-bis(4-trifluoromethylphenyl)-2,3,4,4a,5,8,8a,9-octahydro-1H-5\b,8\b-methanocyclopenta[b]naphthalene
_symmetry_cell_setting           triclinic
_symmetry_space_group_name_H-M   'P -1'
_symmetry_Int_Tables_number      2
_space_group_name_Hall           '-P 1'
loop_
_symmetry_equiv_pos_site_id
_symmetry_equiv_pos_as_xyz
1 x,y,z
2 -x,-y,-z
_cell_length_a                   9.0375(10)
_cell_length_b                   10.8019(12)
_cell_length_c                   12.8635(14)
_cell_angle_alpha                74.999(2)
_cell_angle_beta                 72.041(2)
_cell_angle_gamma                72.324(2)
_cell_volume                     1119.11
_cell_formula_units_Z            2
loop_
_atom_site_label
_atom_site_type_symbol
_atom_site_fract_x
_atom_site_fract_y
_atom_site_fract_z
C1 C 0.4547(2) 0.6924(1) 0.7093(1)
H1 H 0.4730 0.5940 0.7270
C2 C 0.3452(2) 0.7448(1) 0.8119(1)
C3 C 0.1644(2) 0.7881(1) 0.8382(1)
H2 H 0.1168 0.7129 0.8493
H3 H 0.1275 0.8584 0.7785
C4 C 0.1219(2) 0.8407(2) 0.9469(1)
H4 H 0.0229 0.8178 0.9978
H5 H 0.1054 0.9380 0.9314
C5 C 0.2663(2) 0.7732(2) 0.9985(1)
H6 H 0.2895 0.8347 1.0331
H7 H 0.2472 0.6940 1.0550
C6 C 0.4006(2) 0.7361(1) 0.8994(1)
C7 C 0.5746(2) 0.6716(1) 0.8991(1)
H8 H 0.5884 0.5740 0.9102
C8 C 0.6852(2) 0.7131(1) 0.7840(1)
H9 H 0.7039 0.8005 0.7818
C9 C 0.8511(2) 0.6118(2) 0.7592(1)
H10 H 0.9003 0.5702 0.8236
C10 C 0.9542(2) 0.6804(2) 0.6570(1)
H11 H 1.0422 0.7121 0.6554
C11 C 0.8994(2) 0.6881(2) 0.5701(1)
H12 H 0.9418 0.7253 0.4952
C12 C 0.7565(2) 0.6265(1) 0.6127(1)
H13 H 0.7266 0.5972 0.5559
C13 C 0.6197(2) 0.7243(1) 0.6816(1)
H14 H 0.6126 0.8160 0.6374
C14 C 0.8108(2) 0.5166(2) 0.7065(1)
H15 H 0.9057 0.4476 0.6787
H16 H 0.7234 0.4759 0.7563
C15 C 0.3863(2) 0.7408(1) 0.6080(1)
C16 C 0.3794(2) 0.6517(1) 0.5497(1)
H17 H 0.4148 0.5595 0.5752
C17 C 0.3215(2) 0.6952(1) 0.4544(1)
H18 H 0.3187 0.6333 0.4147
C18 C 0.2682(2) 0.8294(1) 0.4182(1)
C19 C 0.2718(2) 0.9204(1) 0.4763(1)
H19 H 0.2333 1.0123 0.4519
C20 C 0.3319(2) 0.8760(1) 0.5699(1)
H20 H 0.3362 0.9382 0.6086
C21 C 0.2044(2) 0.8792(1) 0.3167(1)
C22 C 0.6252(2) 0.6966(1) 0.9923(1)
C23 C 0.6207(2) 0.8247(1) 0.9996(1)
H21 H 0.5883 0.8968 0.9442
C24 C 0.6629(2) 0.8480(1) 1.0865(1)
H22 H 0.6588 0.9356 1.0906
C25 C 0.7111(2) 0.7429(1) 1.1675(1)
C26 C 0.7203(2) 0.6149(2) 1.1604(1)
H23 H 0.7558 0.5428 1.2148
C27 C 0.6770(2) 0.5926(1) 1.0730(1)
H24 H 0.6830 0.5047 1.0685
C28 C 0.7565(2) 0.7696(2) 1.2607(1)
F1 F 0.2847(2) 0.9600(1) 0.2396(1)
F2 F 0.2107(2) 0.7838(1) 0.2671(1)
F3 F 0.0518(1) 0.9453(2) 0.3390(1)
F4 F 0.8989(1) 0.7977(2) 1.2286(1)
F5 F 0.7656(2) 0.6671(1) 1.3444(1)
F6 F 0.6510(2) 0.8713(1) 1.3044(1)
loop_
_geom_bond_atom_site_label_1
_geom_bond_atom_site_label_2
_geom_bond_site_symmetry_1
_geom_bond_site_symmetry_2
C1 H1 1_555 1_555
C2 C1 1_555 1_555
C3 C2 1_555 1_555
H2 C3 1_555 1_555
H3 C3 1_555 1_555
C4 C3 1_555 1_555
H4 C4 1_555 1_555
H5 C4 1_555 1_555
C5 C4 1_555 1_555
H6 C5 1_555 1_555
H7 C5 1_555 1_555
C6 C2 1_555 1_555
C7 C6 1_555 1_555
H8 C7 1_555 1_555
C8 C7 1_555 1_555
H9 C8 1_555 1_555
C9 C8 1_555 1_555
H10 C9 1_555 1_555
C10 C9 1_555 1_555
H11 C10 1_555 1_555
C11 C10 1_555 1_555
H12 C11 1_555 1_555
C12 C11 1_555 1_555
H13 C12 1_555 1_555
C13 C1 1_555 1_555
H14 C13 1_555 1_555
C14 C9 1_555 1_555
H15 C14 1_555 1_555
H16 C14 1_555 1_555
C15 C1 1_555 1_555
C16 C15 1_555 1_555
H17 C16 1_555 1_555
C17 C16 1_555 1_555
H18 C17 1_555 1_555
C18 C17 1_555 1_555
C19 C18 1_555 1_555
H19 C19 1_555 1_555
C20 C15 1_555 1_555
H20 C20 1_555 1_555
C21 C18 1_555 1_555
C22 C7 1_555 1_555
C23 C22 1_555 1_555
H21 C23 1_555 1_555
C24 C23 1_555 1_555
H22 C24 1_555 1_555
C25 C24 1_555 1_555
C26 C25 1_555 1_555
H23 C26 1_555 1_555
C27 C22 1_555 1_555
H24 C27 1_555 1_555
C28 C25 1_555 1_555
F1 C21 1_555 1_555
F2 C21 1_555 1_555
F3 C21 1_555 1_555
F4 C28 1_555 1_555
F5 C28 1_555 1_555
F6 C28 1_555 1_555
C5 C6 1_555 1_555
C8 C13 1_555 1_555
C12 C13 1_555 1_555
C12 C14 1_555 1_555
C19 C20 1_555 1_555
C26 C27 1_555 1_555

#END
