
#######################################################################
#
#                 Cambridge Crystallographic Data Centre
#                                CCDC 
#
#######################################################################
#
# If this CIF has been generated from an entry in the Cambridge 
# Structural Database, then it will include bibliographic, chemical, 
# crystal, experimental, refinement or atomic coordinate data resulting 
# from the CCDC's data processing and validation procedures.
#
#######################################################################

data_HUKPIN
_chemical_name_common            
3,9-bis(3,4,5-Trifluorophenyl)tetracyclo-[9.2.1.0$2,10!.0$4,8!]tetradeca-4(8),12-diene
_chemical_formula_moiety         'C26 H20 F6'
_chemical_name_systematic        
(4\a,4a\a,8a\a,9\a)-4,9-bis(3,4,5-trifluorophenyl)-2,3,4,4a,5,8,8a,9-octahydro-1H-5\b,8\b-methanocyclopenta[b]naphthalene
_symmetry_cell_setting           triclinic
_symmetry_space_group_name_H-M   'P 1'
_symmetry_Int_Tables_number      1
_space_group_name_Hall           'P 1'
loop_
_symmetry_equiv_pos_site_id
_symmetry_equiv_pos_as_xyz
1 x,y,z
_cell_length_a                   6.8236(3)
_cell_length_b                   7.4049(3)
_cell_length_c                   10.7696(4)
_cell_angle_alpha                102.834(3)
_cell_angle_beta                 107.013(3)
_cell_angle_gamma                91.727(3)
_cell_volume                     504.706
_cell_formula_units_Z            1
loop_
_atom_site_label
_atom_site_type_symbol
_atom_site_fract_x
_atom_site_fract_y
_atom_site_fract_z
C1 C 0.6667(10) 0.1536(7) 0.4047(5)
H1 H 0.5382 0.2072 0.4080
C2 C 0.6049(10) -0.0540(9) 0.3673(5)
H2 H 0.7323 -0.1150 0.3847
C3 C 0.4735(8) -0.1247(8) 0.4441(6)
H3 H 0.5002 -0.0596 0.5381
C4 C 0.4857(10) -0.3401(9) 0.4126(6)
H4 H 0.5545 -0.4066 0.4731
C5 C 0.3805(9) -0.4121(8) 0.2841(6)
H5 H 0.3637 -0.5370 0.2391
C6 C 0.2922(8) -0.2505(7) 0.2240(5)
H6 H 0.1741 -0.2834 0.1424
C7 C 0.4809(9) -0.1344(9) 0.2185(5)
H7 H 0.5641 -0.2217 0.1793
C8 C 0.4354(9) 0.0095(7) 0.1374(5)
H8 H 0.3304 0.0759 0.1690
C9 C 0.6041(10) 0.1561(8) 0.1691(5)
C10 C 0.6783(9) 0.2531(9) 0.0794(5)
H9 H 0.7028 0.1636 0.0062
H10 H 0.5789 0.3335 0.0431
C11 C 0.8753(11) 0.3643(12) 0.1705(6)
H11 H 0.9921 0.3067 0.1510
H12 H 0.8798 0.4893 0.1569
C12 C 0.8853(10) 0.3717(8) 0.3096(6)
H13 H 0.8592 0.4938 0.3535
H14 H 1.0195 0.3442 0.3595
C13 C 0.7189(9) 0.2248(9) 0.2990(6)
C14 C 0.2545(9) -0.1296(9) 0.3490(6)
H15 H 0.1508 -0.1894 0.3762
H16 H 0.2190 -0.0070 0.3382
C15 C 0.8092(8) 0.2262(7) 0.5456(4)
C16 C 1.0114(9) 0.1875(8) 0.5822(5)
H17 H 1.0648 0.1166 0.5194
C17 C 1.1347(8) 0.2550(8) 0.7135(6)
C18 C 1.0585(10) 0.3536(8) 0.8072(5)
C19 C 0.859(1) 0.3886(7) 0.7702(5)
C20 C 0.7334(9) 0.3292(7) 0.6418(5)
H18 H 0.5976 0.3578 0.6190
C21 C 0.3249(8) -0.0733(6) -0.0101(4)
C22 C 0.1153(8) -0.0490(8) -0.0620(6)
H19 H 0.0478 0.0173 -0.0057
C23 C 0.0113(8) -0.1206(9) -0.1921(6)
C24 C 0.1048(10) -0.2216(8) -0.2777(5)
C25 C 0.3083(10) -0.2484(8) -0.2294(5)
C26 C 0.4203(9) -0.1753(7) -0.0958(5)
H20 H 0.5583 -0.1947 -0.0642
F1 F 1.3356(6) 0.2187(6) 0.7471(4)
F2 F 1.1817(6) 0.4147(5) 0.9348(3)
F3 F 0.7887(7) 0.4900(5) 0.8672(4)
F4 F -0.1836(6) -0.0977(7) -0.2433(5)
F5 F 0.0035(8) -0.2930(6) -0.4073(4)
F6 F 0.4018(7) -0.3462(6) -0.3112(4)
loop_
_geom_bond_atom_site_label_1
_geom_bond_atom_site_label_2
_geom_bond_site_symmetry_1
_geom_bond_site_symmetry_2
C1 H1 1_555 1_555
C2 C1 1_555 1_555
H2 C2 1_555 1_555
C3 C2 1_555 1_555
H3 C3 1_555 1_555
C4 C3 1_555 1_555
H4 C4 1_555 1_555
C5 C4 1_555 1_555
H5 C5 1_555 1_555
C6 C5 1_555 1_555
H6 C6 1_555 1_555
C7 C2 1_555 1_555
H7 C7 1_555 1_555
C8 C7 1_555 1_555
H8 C8 1_555 1_555
C9 C8 1_555 1_555
C10 C9 1_555 1_555
H9 C10 1_555 1_555
H10 C10 1_555 1_555
C11 C10 1_555 1_555
H11 C11 1_555 1_555
H12 C11 1_555 1_555
C12 C11 1_555 1_555
H13 C12 1_555 1_555
H14 C12 1_555 1_555
C13 C1 1_555 1_555
C14 C3 1_555 1_555
H15 C14 1_555 1_555
H16 C14 1_555 1_555
C15 C1 1_555 1_555
C16 C15 1_555 1_555
H17 C16 1_555 1_555
C17 C16 1_555 1_555
C18 C17 1_555 1_555
C19 C18 1_555 1_555
C20 C15 1_555 1_555
H18 C20 1_555 1_555
C21 C8 1_555 1_555
C22 C21 1_555 1_555
H19 C22 1_555 1_555
C23 C22 1_555 1_555
C24 C23 1_555 1_555
C25 C24 1_555 1_555
C26 C21 1_555 1_555
H20 C26 1_555 1_555
F1 C17 1_555 1_555
F2 C18 1_555 1_555
F3 C19 1_555 1_555
F4 C23 1_555 1_555
F5 C24 1_555 1_555
F6 C25 1_555 1_555
C6 C7 1_555 1_555
C6 C14 1_555 1_555
C9 C13 1_555 1_555
C12 C13 1_555 1_555
C19 C20 1_555 1_555
C25 C26 1_555 1_555

#END
