
#######################################################################
#
#                 Cambridge Crystallographic Data Centre
#                                CCDC 
#
#######################################################################
#
# If this CIF has been generated from an entry in the Cambridge 
# Structural Database, then it will include bibliographic, chemical, 
# crystal, experimental, refinement or atomic coordinate data resulting 
# from the CCDC's data processing and validation procedures.
#
#######################################################################

data_HUKSAI
_chemical_formula_moiety         'C8 H12 N2 O2'
_chemical_name_systematic        3-Allyl-5,5-dimethylimidazolidine-2,4-dione
_symmetry_cell_setting           monoclinic
_symmetry_space_group_name_H-M   'P 21/n'
_symmetry_Int_Tables_number      14
_space_group_name_Hall           '-P 2yn'
loop_
_symmetry_equiv_pos_site_id
_symmetry_equiv_pos_as_xyz
1 x,y,z
2 1/2-x,1/2+y,1/2-z
3 -x,-y,-z
4 1/2+x,1/2-y,1/2+z
_cell_length_a                   5.9953(12)
_cell_length_b                   9.837(2)
_cell_length_c                   15.290(3)
_cell_angle_alpha                90
_cell_angle_beta                 100.43(3)
_cell_angle_gamma                90
_cell_volume                     886.84
_exptl_crystal_colour            colorless
_exptl_crystal_description       block
_chemical_melting_point          64-65deg.C
_cell_formula_units_Z            4
_exptl_crystal_recrystallization_method 'petroleum ether'
loop_
_atom_site_label
_atom_site_type_symbol
_atom_site_fract_x
_atom_site_fract_y
_atom_site_fract_z
O1 O -0.01807(17) 0.53695(10) 0.87819(6)
O2 O -0.37057(17) 0.94769(10) 0.87780(7)
N1 N -0.1848(2) 0.64360(11) 0.98421(7)
H1 H -0.1574 0.5820 1.0265
N2 N -0.20229(18) 0.74406(11) 0.85371(7)
C1 C -0.3023(2) 0.77171(13) 0.99326(8)
C2 C -0.1234(2) 0.62996(13) 0.90484(8)
C3 C -0.2997(2) 0.83672(13) 0.90269(8)
C4 C -0.5465(2) 0.74641(16) 1.00476(10)
H2 H -0.6238 0.6903 0.9555
H3 H -0.6257 0.8335 1.0050
H4 H -0.5468 0.6992 1.0612
C5 C -0.1730(2) 0.85866(15) 1.06833(9)
H5 H -0.0173 0.8725 1.0588
H6 H -0.1702 0.8125 1.1253
H7 H -0.2484 0.9469 1.0691
C6 C -0.1580(2) 0.76737(14) 0.76386(8)
H8 H -0.2732 0.8307 0.7320
H9 H -0.1714 0.6803 0.7309
C7 C 0.0733(2) 0.82556(16) 0.76595(8)
H10 H 0.1998 0.7725 0.7927
C8 C 0.1142(3) 0.94402(17) 0.73362(10)
H11 H -0.0080 0.9999 0.7063
H12 H 0.2661 0.9743 0.7374
loop_
_geom_bond_atom_site_label_1
_geom_bond_atom_site_label_2
_geom_bond_site_symmetry_1
_geom_bond_site_symmetry_2
O1 C2 1_555 1_555
O2 C3 1_555 1_555
N1 H1 1_555 1_555
N2 C2 1_555 1_555
C1 N1 1_555 1_555
C2 N1 1_555 1_555
C3 N2 1_555 1_555
C4 C1 1_555 1_555
H2 C4 1_555 1_555
H3 C4 1_555 1_555
H4 C4 1_555 1_555
C5 C1 1_555 1_555
H5 C5 1_555 1_555
H6 C5 1_555 1_555
H7 C5 1_555 1_555
C6 N2 1_555 1_555
H8 C6 1_555 1_555
H9 C6 1_555 1_555
C7 C6 1_555 1_555
H10 C7 1_555 1_555
C8 C7 1_555 1_555
H11 C8 1_555 1_555
H12 C8 1_555 1_555
C1 C3 1_555 1_555

#END
