
#######################################################################
#
#                 Cambridge Crystallographic Data Centre
#                                CCDC 
#
#######################################################################
#
# If this CIF has been generated from an entry in the Cambridge 
# Structural Database, then it will include bibliographic, chemical, 
# crystal, experimental, refinement or atomic coordinate data resulting 
# from the CCDC's data processing and validation procedures.
#
#######################################################################

data_HULBEW
_chemical_formula_moiety         'C14 H19 Br1 N2 O2'
_chemical_name_systematic        
4-Bromo-2-((5-(dimethoxymethyl)-3,3-dimethyl-3,4-dihydro-2H-pyrrol-2-ylidene)methyl)-1H-pyrrole
_symmetry_cell_setting           monoclinic
_symmetry_space_group_name_H-M   'P 21/c'
_symmetry_Int_Tables_number      14
_space_group_name_Hall           '-P 2ybc'
loop_
_symmetry_equiv_pos_site_id
_symmetry_equiv_pos_as_xyz
1 x,y,z
2 -x,1/2+y,1/2-z
3 -x,-y,-z
4 x,1/2-y,1/2+z
_cell_length_a                   20.7578(5)
_cell_length_b                   9.1725(2)
_cell_length_c                   16.9315(4)
_cell_angle_alpha                90
_cell_angle_beta                 113.8900(13)
_cell_angle_gamma                90
_cell_volume                     2947.58
_exptl_crystal_colour            colorless
_exptl_crystal_description       prism
_chemical_melting_point          101-103deg.C
_cell_formula_units_Z            8
_exptl_crystal_recrystallization_method i-propanol
loop_
_atom_site_label
_atom_site_type_symbol
_atom_site_fract_x
_atom_site_fract_y
_atom_site_fract_z
Br1 Br 0.21835(4) 0.23552(7) 0.58762(4)
O1 O 0.4619(2) 0.6478(5) 1.1656(3)
O2 O 0.3561(2) 0.5909(4) 1.1673(3)
N1 N 0.3777(2) 0.3963(5) 1.0121(3)
N2 N 0.3113(3) 0.3732(5) 0.8338(3)
H1 H 0.3229 0.4411 0.8739
C1 C 0.3995(3) 0.4361(6) 1.0916(4)
C2 C 0.4298(3) 0.3137(7) 1.1553(4)
H2 H 0.3989 0.2906 1.1854
H3 H 0.4773 0.3391 1.1988
C3 C 0.4334(3) 0.1864(6) 1.0999(4)
C4 C 0.3892(3) 0.2447(5) 1.0079(4)
C5 C 0.3663(3) 0.1706(6) 0.9351(4)
H4 H 0.3763 0.0691 0.9388
C6 C 0.3266(3) 0.2318(6) 0.8486(4)
C7 C 0.2996(3) 0.1580(7) 0.7698(4)
H5 H 0.3027 0.0566 0.7604
C8 C 0.2669(3) 0.2646(6) 0.7078(4)
C9 C 0.2749(3) 0.3970(7) 0.7473(4)
H6 H 0.2584 0.4882 0.7200
C10 C 0.3949(3) 0.5889(6) 1.1159(4)
H7 H 0.3705 0.6492 1.0629
C11 C 0.4031(3) 0.0465(7) 1.1186(5)
H8 H 0.4341 0.0102 1.1759
H9 H 0.3996 -0.0267 1.0748
H10 H 0.3562 0.0658 1.1170
C12 C 0.5095(3) 0.1593(7) 1.1077(4)
H11 H 0.5382 0.1201 1.1651
H12 H 0.5299 0.2513 1.0994
H13 H 0.5084 0.0892 1.0635
C13 C 0.5017(4) 0.6823(8) 1.1159(5)
H14 H 0.5134 0.5922 1.0935
H15 H 0.5452 0.7326 1.1526
H16 H 0.4737 0.7457 1.0675
C14 C 0.3355(3) 0.7350(6) 1.1809(4)
H17 H 0.3748 0.7825 1.2277
H18 H 0.2950 0.7288 1.1965
H19 H 0.3225 0.7922 1.1277
Br2 Br 0.28850(4) 0.73988(7) 0.36801(4)
O3 O 0.0330(2) 0.3684(5) 0.7043(3)
O4 O 0.1398(2) 0.4199(5) 0.8090(3)
N3 N 0.1209(3) 0.6035(5) 0.6298(3)
N4 N 0.1895(3) 0.6121(5) 0.5155(3)
H20 H 0.1752 0.5456 0.5422
C15 C 0.0997(3) 0.5713(6) 0.6904(4)
C16 C 0.0736(4) 0.6987(7) 0.7237(4)
H21 H 0.1062 0.7227 0.7836
H22 H 0.0262 0.6793 0.7223
C17 C 0.0711(3) 0.8217(7) 0.6616(4)
C18 C 0.1128(3) 0.7551(6) 0.6146(4)
C19 C 0.1390(3) 0.8246(6) 0.5632(4)
H23 H 0.1322 0.9271 0.5574
C20 C 0.1763(3) 0.7587(6) 0.5164(4)
C21 C 0.2077(3) 0.8265(7) 0.4662(4)
H24 H 0.2079 0.9278 0.4547
C22 C 0.2379(3) 0.7184(7) 0.4372(4)
C23 C 0.2267(3) 0.5828(6) 0.4691(4)
H25 H 0.2425 0.4899 0.4595
C24 C 0.1018(3) 0.4195(7) 0.7204(4)
H26 H 0.1247 0.3545 0.6920
C25 C 0.1027(3) 0.9627(7) 0.7058(4)
H27 H 0.1510 0.9451 0.7481
H28 H 0.0744 1.0014 0.7353
H29 H 0.1035 1.0333 0.6627
C26 C -0.0058(3) 0.8496(8) 0.5973(4)
H30 H -0.0319 0.8948 0.6278
H31 H -0.0280 0.7568 0.5720
H32 H -0.0060 0.9148 0.5513
C27 C -0.0055(4) 0.3283(9) 0.6159(5)
H33 H -0.0208 0.4164 0.5805
H34 H -0.0469 0.2708 0.6106
H35 H 0.0247 0.2700 0.5962
C28 C 0.1603(4) 0.2754(7) 0.8446(4)
H36 H 0.1189 0.2233 0.8439
H37 H 0.1956 0.2832 0.9042
H38 H 0.1804 0.2219 0.8098
loop_
_geom_bond_atom_site_label_1
_geom_bond_atom_site_label_2
_geom_bond_site_symmetry_1
_geom_bond_site_symmetry_2
Br1 C8 1_555 1_555
O1 C10 1_555 1_555
O2 C10 1_555 1_555
N1 C1 1_555 1_555
N2 H1 1_555 1_555
C1 C2 1_555 1_555
C2 H2 1_555 1_555
H3 C2 1_555 1_555
C3 C2 1_555 1_555
C4 N1 1_555 1_555
C5 C4 1_555 1_555
H4 C5 1_555 1_555
C6 N2 1_555 1_555
C7 C6 1_555 1_555
H5 C7 1_555 1_555
C8 C7 1_555 1_555
C9 N2 1_555 1_555
H6 C9 1_555 1_555
C10 C1 1_555 1_555
H7 C10 1_555 1_555
C11 C3 1_555 1_555
H8 C11 1_555 1_555
H9 C11 1_555 1_555
H10 C11 1_555 1_555
C12 C3 1_555 1_555
H11 C12 1_555 1_555
H12 C12 1_555 1_555
H13 C12 1_555 1_555
C13 O1 1_555 1_555
H14 C13 1_555 1_555
H15 C13 1_555 1_555
H16 C13 1_555 1_555
C14 O2 1_555 1_555
H17 C14 1_555 1_555
H18 C14 1_555 1_555
H19 C14 1_555 1_555
Br2 C22 1_555 1_555
O3 C24 1_555 1_555
O4 C24 1_555 1_555
N3 C15 1_555 1_555
N4 H20 1_555 1_555
C15 C16 1_555 1_555
C16 H21 1_555 1_555
H22 C16 1_555 1_555
C17 C16 1_555 1_555
C18 N3 1_555 1_555
C19 C18 1_555 1_555
H23 C19 1_555 1_555
C20 N4 1_555 1_555
C21 C20 1_555 1_555
H24 C21 1_555 1_555
C22 C21 1_555 1_555
C23 N4 1_555 1_555
H25 C23 1_555 1_555
C24 C15 1_555 1_555
H26 C24 1_555 1_555
C25 C17 1_555 1_555
H27 C25 1_555 1_555
H28 C25 1_555 1_555
H29 C25 1_555 1_555
C26 C17 1_555 1_555
H30 C26 1_555 1_555
H31 C26 1_555 1_555
H32 C26 1_555 1_555
C27 O3 1_555 1_555
H33 C27 1_555 1_555
H34 C27 1_555 1_555
H35 C27 1_555 1_555
C28 O4 1_555 1_555
H36 C28 1_555 1_555
H37 C28 1_555 1_555
H38 C28 1_555 1_555
C3 C4 1_555 1_555
C5 C6 1_555 1_555
C8 C9 1_555 1_555
C17 C18 1_555 1_555
C19 C20 1_555 1_555
C22 C23 1_555 1_555

#END
