
#######################################################################
#
#                 Cambridge Crystallographic Data Centre
#                                CCDC 
#
#######################################################################
#
# If this CIF has been generated from an entry in the Cambridge 
# Structural Database, then it will include bibliographic, chemical, 
# crystal, experimental, refinement or atomic coordinate data resulting 
# from the CCDC's data processing and validation procedures.
#
#######################################################################

data_HULCAU
_chemical_formula_moiety         'C14 H18 O2'
_chemical_name_systematic        
2-(3,4-dihydro-1H-isochromen-3-yl)-3-methylbut-3-en-2-ol
_symmetry_cell_setting           orthorhombic
_symmetry_space_group_name_H-M   'P 21 21 21'
_symmetry_Int_Tables_number      19
_space_group_name_Hall           'P 2ac 2ab'
loop_
_symmetry_equiv_pos_site_id
_symmetry_equiv_pos_as_xyz
1 x,y,z
2 1/2-x,-y,1/2+z
3 1/2+x,1/2-y,-z
4 -x,1/2+y,1/2-z
_cell_length_a                   15.2428(11)
_cell_length_b                   15.4175(16)
_cell_length_c                   21.1538(12)
_cell_angle_alpha                90
_cell_angle_beta                 90
_cell_angle_gamma                90
_cell_volume                     4971.27
_exptl_crystal_colour            'light colorless'
_exptl_crystal_description       block
_cell_formula_units_Z            16
_exptl_crystal_recrystallization_method 'ethyl acetate'
loop_
_atom_site_label
_atom_site_type_symbol
_atom_site_fract_x
_atom_site_fract_y
_atom_site_fract_z
O1 O -0.51197(18) -0.3437(2) -0.26623(14)
O2 O -0.37311(17) -0.4276(2) -0.34835(18)
H1 H -0.3709 -0.3745 -0.3479
C1 C -0.5605(3) -0.3262(4) -0.2101(2)
H2 H -0.6185 -0.3514 -0.2141
H3 H -0.5675 -0.2640 -0.2057
C2 C -0.5180(3) -0.3611(3) -0.1517(2)
C3 C -0.5445(3) -0.3322(4) -0.0927(2)
H4 H -0.5892 -0.2912 -0.0899
C4 C -0.5063(3) -0.3627(4) -0.0381(2)
H5 H -0.5246 -0.3424 0.0011
C5 C -0.4406(3) -0.4237(4) -0.0424(2)
H6 H -0.4138 -0.4442 -0.0058
C6 C -0.4146(3) -0.4545(4) -0.1006(2)
H7 H -0.3712 -0.4968 -0.1031
C7 C -0.4527(3) -0.4229(3) -0.1559(2)
C8 C -0.4254(3) -0.4572(4) -0.2200(2)
H8 H -0.3688 -0.4330 -0.2313
H9 H -0.4193 -0.5198 -0.2178
C9 C -0.4916(3) -0.4342(3) -0.2706(2)
H10 H -0.5455 -0.4668 -0.2619
C10 C -0.4628(3) -0.4553(4) -0.3392(2)
C11 C -0.5228(3) -0.4117(4) -0.3862(2)
C12 C -0.6205(3) -0.4303(4) -0.3778(3)
H11 H -0.6393 -0.4099 -0.3371
H12 H -0.6306 -0.4916 -0.3808
H13 H -0.6531 -0.4010 -0.4103
C13 C -0.4943(3) -0.3670(4) -0.4342(3)
H14 H -0.4343 -0.3607 -0.4407
H15 H -0.5339 -0.3413 -0.4619
C14 C -0.4610(3) -0.5528(3) -0.3486(3)
H16 H -0.4223 -0.5786 -0.3181
H17 H -0.4405 -0.5658 -0.3904
H18 H -0.5190 -0.5759 -0.3432
O3 O -0.78867(17) -0.6259(2) -0.23409(14)
O4 O -0.70194(17) -0.7560(2) -0.14971(17)
H19 H -0.7555 -0.7594 -0.1523
C15 C -0.8086(3) -0.5813(4) -0.2907(2)
H20 H -0.7873 -0.5222 -0.2872
H21 H -0.8718 -0.5787 -0.2955
C16 C -0.7704(2) -0.6211(3) -0.3484(2)
C17 C -0.8001(3) -0.5970(4) -0.4086(2)
H22 H -0.8453 -0.5568 -0.4124
C18 C -0.7633(3) -0.6319(4) -0.4621(3)
H23 H -0.7838 -0.6157 -0.5019
C19 C -0.6959(4) -0.6909(5) -0.4566(3)
H24 H -0.6704 -0.7143 -0.4927
C20 C -0.6663(3) -0.7155(4) -0.3981(2)
H25 H -0.6216 -0.7564 -0.3949
C21 C -0.7024(3) -0.6798(4) -0.3431(2)
C22 C -0.6692(3) -0.7076(4) -0.2790(2)
H26 H -0.6058 -0.7125 -0.2799
H27 H -0.6934 -0.7639 -0.2682
C23 C -0.6963(3) -0.6412(4) -0.2298(2)
H28 H -0.6655 -0.5867 -0.2386
C24 C -0.6755(3) -0.6691(4) -0.1609(2)
C25 C -0.7178(3) -0.6064(4) -0.1141(2)
C26 C -0.7589(3) -0.6345(5) -0.0624(3)
H29 H -0.7796 -0.5950 -0.0327
H30 H -0.7669 -0.6937 -0.0560
C27 C -0.7052(3) -0.5117(4) -0.1241(3)
H31 H -0.7256 -0.4961 -0.1655
H32 H -0.6441 -0.4977 -0.1203
H33 H -0.7379 -0.4800 -0.0929
C28 C -0.5750(2) -0.6685(4) -0.1508(2)
H34 H -0.5481 -0.7091 -0.1793
H35 H -0.5620 -0.6847 -0.1080
H36 H -0.5526 -0.6114 -0.1589
O5 O -0.20916(16) -0.3611(2) -0.75627(14)
O6 O -0.30070(18) -0.4922(2) -0.83792(18)
H37 H -0.2471 -0.4961 -0.8400
C29 C -0.1863(3) -0.3137(4) -0.7002(2)
H38 H -0.2074 -0.2546 -0.7042
H39 H -0.1229 -0.3115 -0.6966
C30 C -0.2237(3) -0.3532(4) -0.6408(2)
C31 C -0.1906(3) -0.3268(4) -0.5819(2)
H40 H -0.1455 -0.2863 -0.5797
C32 C -0.2258(4) -0.3617(5) -0.5272(3)
H41 H -0.2034 -0.3458 -0.4879
C33 C -0.2933(4) -0.4195(5) -0.5308(3)
H42 H -0.3180 -0.4412 -0.4939
C34 C -0.2910(3) -0.4116(4) -0.6442(2)
C35 C -0.3256(3) -0.4465(4) -0.5886(3)
H43 H -0.3702 -0.4877 -0.5905
C36 C -0.3260(3) -0.4395(4) -0.7073(2)
H44 H -0.3893 -0.4443 -0.7050
H45 H -0.3025 -0.4961 -0.7178
C37 C -0.3016(3) -0.3758(3) -0.7584(2)
H46 H -0.3312 -0.3208 -0.7494
C38 C -0.3248(3) -0.4031(4) -0.8265(2)
C39 C -0.2842(3) -0.3422(4) -0.8747(2)
C40 C -0.2449(3) -0.3726(4) -0.9262(2)
H47 H -0.2235 -0.3343 -0.9565
H48 H -0.2388 -0.4321 -0.9320
C41 C -0.2948(3) -0.2466(4) -0.8645(2)
H49 H -0.2733 -0.2315 -0.8233
H50 H -0.3557 -0.2315 -0.8677
H51 H -0.2620 -0.2157 -0.8961
C42 C -0.4257(2) -0.4013(3) -0.8352(2)
H52 H -0.4521 -0.4443 -0.8085
H53 H -0.4399 -0.4134 -0.8785
H54 H -0.4477 -0.3450 -0.8241
O7 O -0.51191(19) -0.5770(2) -0.76734(15)
O8 O -0.37510(17) -0.6624(2) -0.84857(19)
H55 H -0.3706 -0.6109 -0.8395
C43 C -0.5596(3) -0.5550(4) -0.7128(2)
H56 H -0.6190 -0.5769 -0.7170
H57 H -0.5629 -0.4923 -0.7097
C44 C -0.5197(3) -0.5905(4) -0.6525(2)
C45 C -0.5461(3) -0.5584(4) -0.5944(3)
H58 H -0.5879 -0.5145 -0.5926
C46 C -0.5106(4) -0.5913(4) -0.5386(3)
H59 H -0.5296 -0.5706 -0.4996
C47 C -0.4480(4) -0.6539(5) -0.5419(3)
H60 H -0.4226 -0.6745 -0.5049
C48 C -0.4216(4) -0.6871(4) -0.5989(3)
H61 H -0.3800 -0.7312 -0.5999
C49 C -0.4561(3) -0.6555(4) -0.6557(3)
C50 C -0.4278(3) -0.6891(4) -0.7189(2)
H62 H -0.4203 -0.7515 -0.7165
H63 H -0.3715 -0.6638 -0.7298
C51 C -0.4936(3) -0.6680(4) -0.7707(2)
H64 H -0.5480 -0.6996 -0.7617
C52 C -0.4646(3) -0.6902(4) -0.8386(2)
C53 C -0.5255(3) -0.6482(4) -0.8874(3)
C54 C -0.4972(4) -0.6040(4) -0.9351(3)
H65 H -0.5366 -0.5827 -0.9649
H66 H -0.4374 -0.5936 -0.9397
C55 C -0.6218(3) -0.6659(5) -0.8790(3)
H67 H -0.6405 -0.6446 -0.8386
H68 H -0.6321 -0.7273 -0.8813
H69 H -0.6542 -0.6372 -0.9118
C56 C -0.4632(3) -0.7883(4) -0.8482(3)
H70 H -0.4245 -0.8143 -0.8178
H71 H -0.4430 -0.8013 -0.8901
H72 H -0.5213 -0.8111 -0.8426
loop_
_geom_bond_atom_site_label_1
_geom_bond_atom_site_label_2
_geom_bond_site_symmetry_1
_geom_bond_site_symmetry_2
O1 C1 1_555 1_555
O2 H1 1_555 1_555
C1 H2 1_555 1_555
H3 C1 1_555 1_555
C2 C1 1_555 1_555
C3 C2 1_555 1_555
H4 C3 1_555 1_555
C4 C3 1_555 1_555
H5 C4 1_555 1_555
C5 C4 1_555 1_555
H6 C5 1_555 1_555
C6 C5 1_555 1_555
H7 C6 1_555 1_555
C7 C2 1_555 1_555
C8 C7 1_555 1_555
H8 C8 1_555 1_555
H9 C8 1_555 1_555
C9 O1 1_555 1_555
H10 C9 1_555 1_555
C10 O2 1_555 1_555
C11 C10 1_555 1_555
C12 C11 1_555 1_555
H11 C12 1_555 1_555
H12 C12 1_555 1_555
H13 C12 1_555 1_555
C13 C11 1_555 1_555
H14 C13 1_555 1_555
H15 C13 1_555 1_555
C14 C10 1_555 1_555
H16 C14 1_555 1_555
H17 C14 1_555 1_555
H18 C14 1_555 1_555
O3 C15 1_555 1_555
O4 H19 1_555 1_555
C15 H20 1_555 1_555
H21 C15 1_555 1_555
C16 C15 1_555 1_555
C17 C16 1_555 1_555
H22 C17 1_555 1_555
C18 C17 1_555 1_555
H23 C18 1_555 1_555
C19 C18 1_555 1_555
H24 C19 1_555 1_555
C20 C19 1_555 1_555
H25 C20 1_555 1_555
C21 C16 1_555 1_555
C22 C21 1_555 1_555
H26 C22 1_555 1_555
H27 C22 1_555 1_555
C23 O3 1_555 1_555
H28 C23 1_555 1_555
C24 O4 1_555 1_555
C25 C24 1_555 1_555
C26 C25 1_555 1_555
H29 C26 1_555 1_555
H30 C26 1_555 1_555
C27 C25 1_555 1_555
H31 C27 1_555 1_555
H32 C27 1_555 1_555
H33 C27 1_555 1_555
C28 C24 1_555 1_555
H34 C28 1_555 1_555
H35 C28 1_555 1_555
H36 C28 1_555 1_555
O5 C29 1_555 1_555
O6 H37 1_555 1_555
C29 H38 1_555 1_555
H39 C29 1_555 1_555
C30 C29 1_555 1_555
C31 C30 1_555 1_555
H40 C31 1_555 1_555
C32 C31 1_555 1_555
H41 C32 1_555 1_555
C33 C32 1_555 1_555
H42 C33 1_555 1_555
C34 C30 1_555 1_555
C35 C33 1_555 1_555
H43 C35 1_555 1_555
C36 C34 1_555 1_555
H44 C36 1_555 1_555
H45 C36 1_555 1_555
C37 O5 1_555 1_555
H46 C37 1_555 1_555
C38 O6 1_555 1_555
C39 C38 1_555 1_555
C40 C39 1_555 1_555
H47 C40 1_555 1_555
H48 C40 1_555 1_555
C41 C39 1_555 1_555
H49 C41 1_555 1_555
H50 C41 1_555 1_555
H51 C41 1_555 1_555
C42 C38 1_555 1_555
H52 C42 1_555 1_555
H53 C42 1_555 1_555
H54 C42 1_555 1_555
O7 C43 1_555 1_555
O8 H55 1_555 1_555
C43 H56 1_555 1_555
H57 C43 1_555 1_555
C44 C43 1_555 1_555
C45 C44 1_555 1_555
H58 C45 1_555 1_555
C46 C45 1_555 1_555
H59 C46 1_555 1_555
C47 C46 1_555 1_555
H60 C47 1_555 1_555
C48 C47 1_555 1_555
H61 C48 1_555 1_555
C49 C44 1_555 1_555
C50 C49 1_555 1_555
H62 C50 1_555 1_555
H63 C50 1_555 1_555
C51 O7 1_555 1_555
H64 C51 1_555 1_555
C52 O8 1_555 1_555
C53 C52 1_555 1_555
C54 C53 1_555 1_555
H65 C54 1_555 1_555
H66 C54 1_555 1_555
C55 C53 1_555 1_555
H67 C55 1_555 1_555
H68 C55 1_555 1_555
H69 C55 1_555 1_555
C56 C52 1_555 1_555
H70 C56 1_555 1_555
H71 C56 1_555 1_555
H72 C56 1_555 1_555
C6 C7 1_555 1_555
C8 C9 1_555 1_555
C9 C10 1_555 1_555
C20 C21 1_555 1_555
C22 C23 1_555 1_555
C23 C24 1_555 1_555
C34 C35 1_555 1_555
C36 C37 1_555 1_555
C37 C38 1_555 1_555
C48 C49 1_555 1_555
C50 C51 1_555 1_555
C51 C52 1_555 1_555

#END
