
#######################################################################
#
#                 Cambridge Crystallographic Data Centre
#                                CCDC 
#
#######################################################################
#
# If this CIF has been generated from an entry in the Cambridge 
# Structural Database, then it will include bibliographic, chemical, 
# crystal, experimental, refinement or atomic coordinate data resulting 
# from the CCDC's data processing and validation procedures.
#
#######################################################################

data_HULGIF
_chemical_formula_moiety         'C17 H20 F5 N2 1+,B1 F4 1-'
_chemical_name_systematic        
'1,3-Di-isopropyl-4,5-dimethyl-2-(pentafluorophenyl)-1H-imidazol-3-ium tetrafluoroborate'
_symmetry_cell_setting           monoclinic
_symmetry_space_group_name_H-M   'P 21/n'
_symmetry_Int_Tables_number      14
_space_group_name_Hall           '-P 2yn'
loop_
_symmetry_equiv_pos_site_id
_symmetry_equiv_pos_as_xyz
1 x,y,z
2 1/2-x,1/2+y,1/2-z
3 -x,-y,-z
4 1/2+x,1/2-y,1/2+z
_cell_length_a                   11.0033(17)
_cell_length_b                   10.7206(11)
_cell_length_c                   16.841(3)
_cell_angle_alpha                90
_cell_angle_beta                 101.028(18)
_cell_angle_gamma                90
_cell_volume                     1949.91
_exptl_crystal_colour            colorless
_exptl_crystal_description       cubes
_cell_formula_units_Z            4
_exptl_crystal_recrystallization_method 'acetonitrile/diethyl ether'
loop_
_atom_site_label
_atom_site_type_symbol
_atom_site_fract_x
_atom_site_fract_y
_atom_site_fract_z
C1 C 0.24497(16) 0.39149(17) 0.11590(10)
C2 C 0.14579(17) 0.44849(19) 0.14230(11)
F1 F 0.05648(10) 0.50291(12) 0.08870(7)
C3 C 0.1384(2) 0.4515(2) 0.22261(13)
F2 F 0.04414(15) 0.50816(14) 0.24656(9)
C4 C 0.2287(2) 0.3935(2) 0.27819(12)
F3 F 0.22094(19) 0.39423(15) 0.35607(8)
C5 C 0.3266(2) 0.3339(2) 0.25409(12)
F4 F 0.41232(16) 0.27708(14) 0.30872(8)
C6 C 0.33512(18) 0.33581(19) 0.17393(11)
F5 F 0.43302(11) 0.28170(12) 0.15175(7)
C7 C 0.25241(15) 0.39198(16) 0.02947(10)
N1 N 0.24611(13) 0.29182(14) -0.01876(9)
C8 C 0.25001(16) 0.33239(19) -0.09656(10)
C9 C 0.25962(16) 0.45874(19) -0.09379(10)
N2 N 0.26111(13) 0.49522(14) -0.01478(8)
C10 C 0.23599(18) 0.16049(18) 0.00978(12)
H1 H 0.2363(18) 0.169(2) 0.0637(14)
C11 C 0.3473(2) 0.0842(2) -0.00047(19)
H2 H 0.427(3) 0.124(3) 0.0286(19)
H3 H 0.345(2) 0.063(3) -0.0522(19)
H4 H 0.340(2) 0.011(3) 0.0241(15)
C12 C 0.1138(2) 0.1022(2) -0.02952(18)
H5 H 0.107(2) 0.022(3) 0.0014(16)
H6 H 0.111(3) 0.090(3) -0.088(2)
H7 H 0.043(3) 0.158(3) -0.0345(17)
C13 C 0.2442(3) 0.2491(3) -0.16840(14)
H8 H 0.190(3) 0.180(3) -0.1698(19)
H9 H 0.250(4) 0.305(4) -0.205(3)
H10 H 0.318(4) 0.203(4) -0.163(2)
C14 C 0.2671(2) 0.5458(2) -0.16184(14)
H11 H 0.190(3) 0.592(3) -0.1802(19)
H12 H 0.268(3) 0.507(3) -0.206(2)
H13 H 0.334(4) 0.598(4) -0.149(3)
C15 C 0.28051(17) 0.62270(17) 0.02110(12)
H14 H 0.2688(16) 0.6113(17) 0.0774(12)
C16 C 0.1821(3) 0.7134(3) -0.02023(18)
H15 H 0.187(2) 0.782(3) 0.0094(17)
H16 H 0.202(3) 0.737(3) -0.071(2)
H17 H 0.104(3) 0.677(3) -0.026(2)
C17 C 0.4113(2) 0.6656(3) 0.0217(2)
H18 H 0.420(2) 0.745(3) 0.0540(18)
H19 H 0.432(3) 0.669(3) -0.026(2)
H20 H 0.471(3) 0.608(3) 0.0492(18)
B1 B 1.0273(2) 0.1320(2) 0.22210(14)
F6 F 0.96036(16) 0.23978(17) 0.21575(13)
F7 F 0.95893(19) 0.02672(19) 0.22088(13)
F8 F 1.09108(19) 0.12490(19) 0.15965(12)
F9 F 1.1152(2) 0.13621(18) 0.29093(11)
loop_
_geom_bond_atom_site_label_1
_geom_bond_atom_site_label_2
_geom_bond_site_symmetry_1
_geom_bond_site_symmetry_2
C1 C2 1_555 1_555
C2 F1 1_555 1_555
C3 C2 1_555 1_555
F2 C3 1_555 1_555
C4 C3 1_555 1_555
F3 C4 1_555 1_555
C5 C4 1_555 1_555
F4 C5 1_555 1_555
C6 C1 1_555 1_555
F5 C6 1_555 1_555
C7 C1 1_555 1_555
N1 C7 1_555 1_555
C8 N1 1_555 1_555
C9 C8 1_555 1_555
N2 C7 1_555 1_555
C10 N1 1_555 1_555
H1 C10 1_555 1_555
C11 C10 1_555 1_555
H2 C11 1_555 1_555
H3 C11 1_555 1_555
H4 C11 1_555 1_555
C12 C10 1_555 1_555
H5 C12 1_555 1_555
H6 C12 1_555 1_555
H7 C12 1_555 1_555
C13 C8 1_555 1_555
H8 C13 1_555 1_555
H9 C13 1_555 1_555
H10 C13 1_555 1_555
C14 C9 1_555 1_555
H11 C14 1_555 1_555
H12 C14 1_555 1_555
H13 C14 1_555 1_555
C15 N2 1_555 1_555
H14 C15 1_555 1_555
C16 C15 1_555 1_555
H15 C16 1_555 1_555
H16 C16 1_555 1_555
H17 C16 1_555 1_555
C17 C15 1_555 1_555
H18 C17 1_555 1_555
H19 C17 1_555 1_555
H20 C17 1_555 1_555
B1 F6 1_555 1_555
F7 B1 1_555 1_555
F8 B1 1_555 1_555
F9 B1 1_555 1_555
C5 C6 1_555 1_555
C9 N2 1_555 1_555

#END
