
#######################################################################
#
#                 Cambridge Crystallographic Data Centre
#                                CCDC 
#
#######################################################################
#
# If this CIF has been generated from an entry in the Cambridge 
# Structural Database, then it will include bibliographic, chemical, 
# crystal, experimental, refinement or atomic coordinate data resulting 
# from the CCDC's data processing and validation procedures.
#
#######################################################################

data_HULGUR
_chemical_formula_moiety         'C18 H20 F4 N3 1+,B1 F4 1-,C2 H3 N1'
_chemical_name_systematic        
'2-(4-Cyano-2,3,5,6-tetrafluorophenyl)-1,3-di-isopropyl-4,5-dimethyl-1H-imidazol-3-ium tetrafluoroborate acetonitrile solvate'
_symmetry_cell_setting           orthorhombic
_symmetry_space_group_name_H-M   'P 21 21 21'
_symmetry_Int_Tables_number      19
_space_group_name_Hall           'P 2ac 2ab'
loop_
_symmetry_equiv_pos_site_id
_symmetry_equiv_pos_as_xyz
1 x,y,z
2 1/2-x,-y,1/2+z
3 1/2+x,1/2-y,-z
4 -x,1/2+y,1/2-z
_cell_length_a                   11.2211(9)
_cell_length_b                   11.2211(9)
_cell_length_c                   18.3713(17)
_cell_angle_alpha                90
_cell_angle_beta                 90
_cell_angle_gamma                90
_cell_volume                     2313.19
_exptl_crystal_colour            colorless
_exptl_crystal_description       cube
_cell_formula_units_Z            4
_exptl_crystal_recrystallization_method 'acetonitrile/diethyl ether'
loop_
_atom_site_label
_atom_site_type_symbol
_atom_site_fract_x
_atom_site_fract_y
_atom_site_fract_z
C1 C 0.2263(3) 0.5514(3) 0.93479(18)
C2 C 0.1982(3) 0.7421(3) 0.91211(18)
C3 C 0.2605(3) 0.6950(3) 0.85620(18)
C4 C 0.2313(3) 0.4363(3) 0.97310(19)
C5 C 0.1644(3) 0.3393(3) 0.9512(2)
C6 C 0.1708(3) 0.2323(3) 0.9869(2)
C7 C 0.2452(3) 0.2197(3) 1.04712(19)
C8 C 0.3116(3) 0.3167(3) 1.06971(19)
C9 C 0.3060(3) 0.4222(3) 1.0330(2)
C10 C 0.1028(3) 0.6524(3) 1.0286(2)
H1 H 0.1016 0.5692 1.0481
C11 C 0.1573(4) 0.7296(4) 1.0868(2)
H2 H 0.2391 0.7032 1.0962
H3 H 0.1103 0.7230 1.1316
H4 H 0.1580 0.8127 1.0705
C12 C -0.0263(4) 0.6845(4) 1.0094(3)
H5 H -0.0554 0.6304 0.9715
H6 H -0.0296 0.7668 0.9916
H7 H -0.0764 0.6767 1.0529
C13 C 0.1585(3) 0.8683(3) 0.9221(2)
H8 H 0.1836 0.9159 0.8801
H9 H 0.1943 0.9009 0.9665
H10 H 0.0714 0.8707 0.9263
C14 C 0.3037(4) 0.7584(4) 0.7891(2)
H11 H 0.2811 0.8427 0.7917
H12 H 0.2675 0.7221 0.7459
H13 H 0.3906 0.7519 0.7859
C15 C 0.3410(3) 0.4831(3) 0.8267(2)
H14 H 0.3323 0.4058 0.8533
C16 C 0.2806(5) 0.4673(5) 0.7530(2)
H15 H 0.1958 0.4503 0.7602
H16 H 0.3179 0.4010 0.7268
H17 H 0.2893 0.5406 0.7245
C17 C 0.4741(3) 0.5094(4) 0.8220(3)
H18 H 0.5069 0.5172 0.8712
H19 H 0.4865 0.5839 0.7952
H20 H 0.5143 0.4441 0.7965
C20 C 0.2563(4) 0.1070(3) 1.0833(2)
N1 N 0.1771(2) 0.6503(2) 0.96117(15)
N2 N 0.2773(2) 0.5757(2) 0.87077(15)
N4 N 0.2668(4) 0.0185(3) 1.1125(2)
F5 F 0.1056(2) 0.14039(18) 0.96458(12)
F6 F 0.3826(2) 0.30615(18) 1.12810(11)
F7 F 0.37196(18) 0.51455(17) 1.05621(11)
F8 F 0.0910(2) 0.34982(19) 0.89396(12)
C18 C 0.6138(6) 0.4119(5) 0.2312(3)
H21 H 0.6369 0.4725 0.2669
H22 H 0.5530 0.4448 0.1985
H23 H 0.6838 0.3883 0.2027
C19 C 0.5663(4) 0.3095(6) 0.2684(3)
N3 N 0.5298(5) 0.2303(6) 0.2975(3)
B1 B 0.9451(5) 0.3556(6) 0.1190(3)
F1 F 1.0583(7) 0.3979(6) 0.1276(4)
F2 F 0.9532(4) 0.2475(4) 0.0750(3)
F3 F 0.9167(7) 0.2980(5) 0.1893(3)
F4 F 0.8626(7) 0.4207(7) 0.1003(6)
F9? F 0.9435(5) 0.3850(7) 0.0421(3)
F10? F 0.9274(9) 0.4853(7) 0.1436(4)
F11? F 1.0424(11) 0.3296(15) 0.1438(6)
F12? F 0.8419(9) 0.3170(9) 0.1401(6)
loop_
_geom_bond_atom_site_label_1
_geom_bond_atom_site_label_2
_geom_bond_site_symmetry_1
_geom_bond_site_symmetry_2
C1 C4 1_555 1_555
C2 C3 1_555 1_555
C3 C14 1_555 1_555
C4 C5 1_555 1_555
C5 C6 1_555 1_555
C6 C7 1_555 1_555
C7 C8 1_555 1_555
C8 C9 1_555 1_555
C9 C4 1_555 1_555
C10 H1 1_555 1_555
C11 C10 1_555 1_555
H2 C11 1_555 1_555
H3 C11 1_555 1_555
H4 C11 1_555 1_555
C12 C10 1_555 1_555
H5 C12 1_555 1_555
H6 C12 1_555 1_555
H7 C12 1_555 1_555
C13 C2 1_555 1_555
H8 C13 1_555 1_555
H9 C13 1_555 1_555
H10 C13 1_555 1_555
C14 H11 1_555 1_555
H12 C14 1_555 1_555
H13 C14 1_555 1_555
C15 H14 1_555 1_555
C16 C15 1_555 1_555
H15 C16 1_555 1_555
H16 C16 1_555 1_555
H17 C16 1_555 1_555
C17 C15 1_555 1_555
H18 C17 1_555 1_555
H19 C17 1_555 1_555
H20 C17 1_555 1_555
C18 H21 1_555 1_555
H22 C18 1_555 1_555
H23 C18 1_555 1_555
C19 C18 1_555 1_555
C20 C7 1_555 1_555
N1 C1 1_555 1_555
N2 C1 1_555 1_555
N3 C19 1_555 1_555
N4 C20 1_555 1_555
B1 F1 1_555 1_555
F2 B1 1_555 1_555
F3 B1 1_555 1_555
F4 B1 1_555 1_555
F5 C6 1_555 1_555
F6 C8 1_555 1_555
F7 C9 1_555 1_555
F8 C5 1_555 1_555
C2 N1 1_555 1_555
C3 N2 1_555 1_555
C10 N1 1_555 1_555
C15 N2 1_555 1_555

#END
