
#######################################################################
#
#                 Cambridge Crystallographic Data Centre
#                                CCDC 
#
#######################################################################
#
# If this CIF has been generated from an entry in the Cambridge 
# Structural Database, then it will include bibliographic, chemical, 
# crystal, experimental, refinement or atomic coordinate data resulting 
# from the CCDC's data processing and validation procedures.
#
#######################################################################

data_HULHUT
_chemical_formula_moiety         'C38 H42 O9'
_chemical_name_systematic        
17'-(8,9-dihydroxy-8-methyl-2-oxo-1,6-dioxaspiro[4.4]non-3-yl)-4'-hydroxy-2',6',12'-trimethyl-3H,3'H-spiro[1-benzofuran-2,8'-hexacyclo[14.3.1.0^1,16^.0^2,13^.0^5,12^.0^6,9^]icosa[9,14]diene]-3,3'-dione
_symmetry_cell_setting           monoclinic
_symmetry_space_group_name_H-M   'P 21'
_symmetry_Int_Tables_number      4
_space_group_name_Hall           'P 2yb'
loop_
_symmetry_equiv_pos_site_id
_symmetry_equiv_pos_as_xyz
1 x,y,z
2 -x,1/2+y,-z
_cell_length_a                   12.8123(4)
_cell_length_b                   6.8936(2)
_cell_length_c                   19.3696(6)
_cell_angle_alpha                90
_cell_angle_beta                 104.829(2)
_cell_angle_gamma                90
_cell_volume                     1653.8
_exptl_crystal_colour            colorless
_exptl_crystal_description       prism
_cell_formula_units_Z            2
loop_
_atom_site_label
_atom_site_type_symbol
_atom_site_fract_x
_atom_site_fract_y
_atom_site_fract_z
O1 O 0.4675(2) 0.7143(4) 0.37130(16)
H1 H 0.4712 0.7699 0.4093
O2 O 0.5942(3) 0.6706(6) 0.49875(17)
O3 O 1.17669(19) 0.3379(5) 0.72928(14)
O4 O 1.11118(17) 0.1503(4) 0.80134(12)
O5 O 1.0380(3) -0.1555(5) 0.78830(15)
O6 O 1.0221(3) 0.2279(4) 0.90466(15)
H2 H 1.0250 0.2196 0.9473
O7 O 0.9746(2) -0.2111(6) 0.95454(15)
H3 H 0.9121 -0.2268 0.9313
O8 O 0.52853(17) 0.3610(4) 0.12338(12)
O9 O 0.2512(2) 0.3197(7) 0.11587(16)
C1 C 0.6141(3) 0.0807(4) 0.32416(18)
H4 H 0.6776 0.0001 0.3289
H5 H 0.5697 0.0247 0.3528
C2 C 0.5509(3) 0.0913(5) 0.24657(18)
H6 H 0.5630 0.0032 0.2131
C3 C 0.4777(2) 0.2306(5) 0.22810(18)
C4 C 0.4535(2) 0.3858(5) 0.27584(17)
C5 C 0.5418(2) 0.4005(4) 0.34785(16)
H7 H 0.5111 0.3338 0.3828
C6 C 0.5637(2) 0.6078(5) 0.37619(18)
H8 H 0.6070 0.6749 0.3485
C7 C 0.6292(3) 0.5958(5) 0.45443(18)
C8 C 0.7356(2) 0.4857(5) 0.46840(16)
C9 C 0.7111(2) 0.2844(4) 0.42984(16)
H9 H 0.6626 0.2185 0.4539
C10 C 0.6481(2) 0.2913(4) 0.34987(15)
C11 C 0.8121(2) 0.1614(5) 0.44571(17)
H10 H 0.8287 0.0874 0.4098
C12 C 0.8780(2) 0.1596(5) 0.51222(17)
H11 H 0.9369 0.0758 0.5220
C13 C 0.8612(2) 0.2834(5) 0.56980(16)
C14 C 0.7839(2) 0.4543(5) 0.54848(17)
C15 C 0.8323(4) 0.6234(7) 0.5971(2)
H12 H 0.7769 0.6892 0.6144
H13 H 0.8657 0.7162 0.5718
C16 C 0.9172(3) 0.5319(7) 0.6596(2)
H14 H 0.9771 0.6205 0.6767
H15 H 0.8855 0.5022 0.6988
C17 C 0.9562(2) 0.3460(5) 0.63092(17)
H16 H 1.0150 0.3828 0.6096
C18 C 0.8159(3) 0.6074(5) 0.4399(2)
H17 H 0.7808 0.6559 0.3933
H18 H 0.8762 0.5281 0.4370
H19 H 0.8408 0.7143 0.4716
C19 C 0.7149(2) 0.3739(5) 0.30063(16)
H20 H 0.6883 0.3219 0.2534
H21 H 0.7893 0.3384 0.3189
H22 H 0.7086 0.5127 0.2989
C20 C 0.9995(2) 0.1882(5) 0.68516(16)
H23 H 1.0134 0.0746 0.6584
C21 C 1.1061(2) 0.2391(5) 0.73889(17)
C22 C 0.9323(3) 0.1192(7) 0.73451(19)
H24 H 0.8924 0.2258 0.7481
H25 H 0.8819 0.0191 0.7119
C23 C 1.0149(3) 0.0396(6) 0.79872(17)
C24 C 0.9876(3) 0.0513(6) 0.87131(17)
H26 H 0.9090 0.0442 0.8629
C25 C 1.0364(3) -0.1363(6) 0.90962(19)
C26 C 1.0276(6) -0.2669(8) 0.8458(3)
H27 H 1.0839 -0.3646 0.8567
H28 H 0.9582 -0.3323 0.8341
C27 C 1.1488(3) -0.1114(8) 0.9549(3)
H29 H 1.1482 -0.0281 0.9945
H30 H 1.1929 -0.0546 0.9269
H31 H 1.1778 -0.2356 0.9724
C28 C 0.3422(3) 0.3600(8) 0.2903(2)
H32 H 0.2888 0.3441 0.2458
H33 H 0.3253 0.4725 0.3146
H34 H 0.3429 0.2473 0.3195
C29 C 0.4527(3) 0.5304(6) 0.21446(19)
H35 H 0.5186 0.6057 0.2216
H36 H 0.3897 0.6139 0.2029
C30 C 0.7519(3) 0.2822(7) 0.58640(18)
H37 H 0.6971 0.1957 0.5589
H38 H 0.7501 0.2990 0.6358
C31 C 0.4462(2) 0.3568(6) 0.16160(18)
C32 C 0.3394(2) 0.3335(6) 0.10400(19)
C33 C 0.3685(3) 0.3383(5) 0.03651(18)
C34 C 0.3071(3) 0.3309(6) -0.0349(2)
H39 H 0.2321 0.3241 -0.0462
C35 C 0.3618(3) 0.3341(7) -0.0880(2)
H40 H 0.3231 0.3288 -0.1356
C36 C 0.4737(3) 0.3451(6) -0.07088(19)
H41 H 0.5084 0.3465 -0.1076
C37 C 0.5353(3) 0.3540(5) -0.00067(18)
H42 H 0.6102 0.3604 0.0105
C38 C 0.4799(3) 0.3528(5) 0.05173(17)
loop_
_geom_bond_atom_site_label_1
_geom_bond_atom_site_label_2
_geom_bond_site_symmetry_1
_geom_bond_site_symmetry_2
O1 H1 1_555 1_555
O2 C7 1_555 1_555
O3 C21 1_555 1_555
O4 C21 1_555 1_555
O5 C23 1_555 1_555
O6 H2 1_555 1_555
O7 H3 1_555 1_555
O8 C31 1_555 1_555
O9 C32 1_555 1_555
C1 H4 1_555 1_555
H5 C1 1_555 1_555
C2 C1 1_555 1_555
H6 C2 1_555 1_555
C3 C2 1_555 1_555
C4 C3 1_555 1_555
C5 C4 1_555 1_555
H7 C5 1_555 1_555
C6 O1 1_555 1_555
H8 C6 1_555 1_555
C7 C6 1_555 1_555
C8 C7 1_555 1_555
C9 C8 1_555 1_555
H9 C9 1_555 1_555
C10 C1 1_555 1_555
C11 C9 1_555 1_555
H10 C11 1_555 1_555
C12 C11 1_555 1_555
H11 C12 1_555 1_555
C13 C12 1_555 1_555
C14 C8 1_555 1_555
C15 C14 1_555 1_555
H12 C15 1_555 1_555
H13 C15 1_555 1_555
C16 C15 1_555 1_555
H14 C16 1_555 1_555
H15 C16 1_555 1_555
C17 C13 1_555 1_555
H16 C17 1_555 1_555
C18 C8 1_555 1_555
H17 C18 1_555 1_555
H18 C18 1_555 1_555
H19 C18 1_555 1_555
C19 C10 1_555 1_555
H20 C19 1_555 1_555
H21 C19 1_555 1_555
H22 C19 1_555 1_555
C20 C17 1_555 1_555
H23 C20 1_555 1_555
C21 C20 1_555 1_555
C22 C20 1_555 1_555
H24 C22 1_555 1_555
H25 C22 1_555 1_555
C23 O4 1_555 1_555
C24 O6 1_555 1_555
H26 C24 1_555 1_555
C25 O7 1_555 1_555
C26 O5 1_555 1_555
H27 C26 1_555 1_555
H28 C26 1_555 1_555
C27 C25 1_555 1_555
H29 C27 1_555 1_555
H30 C27 1_555 1_555
H31 C27 1_555 1_555
C28 C4 1_555 1_555
H32 C28 1_555 1_555
H33 C28 1_555 1_555
H34 C28 1_555 1_555
C29 C4 1_555 1_555
H35 C29 1_555 1_555
H36 C29 1_555 1_555
C30 C13 1_555 1_555
H37 C30 1_555 1_555
H38 C30 1_555 1_555
C31 C3 1_555 1_555
C32 C31 1_555 1_555
C33 C32 1_555 1_555
C34 C33 1_555 1_555
H39 C34 1_555 1_555
C35 C34 1_555 1_555
H40 C35 1_555 1_555
C36 C35 1_555 1_555
H41 C36 1_555 1_555
C37 C36 1_555 1_555
H42 C37 1_555 1_555
C38 O8 1_555 1_555
C5 C6 1_555 1_555
C5 C10 1_555 1_555
C9 C10 1_555 1_555
C13 C14 1_555 1_555
C14 C30 1_555 1_555
C16 C17 1_555 1_555
C22 C23 1_555 1_555
C23 C24 1_555 1_555
C24 C25 1_555 1_555
C25 C26 1_555 1_555
C29 C31 1_555 1_555
C33 C38 1_555 1_555
C37 C38 1_555 1_555

#END
