
#######################################################################
#
#                 Cambridge Crystallographic Data Centre
#                                CCDC 
#
#######################################################################
#
# If this CIF has been generated from an entry in the Cambridge 
# Structural Database, then it will include bibliographic, chemical, 
# crystal, experimental, refinement or atomic coordinate data resulting 
# from the CCDC's data processing and validation procedures.
#
#######################################################################

data_HULKUU
_chemical_formula_moiety         'C19 H17 N5 O2,0.5(H2 O1)'
_chemical_name_systematic        
"N,N'-bis(2-(2-Pyridyl)methyl)pyridine-2,6-dicarboxamide hemihydrate"
_symmetry_cell_setting           monoclinic
_symmetry_space_group_name_H-M   'C 2/c'
_symmetry_Int_Tables_number      15
_space_group_name_Hall           '-C 2yn'
loop_
_symmetry_equiv_pos_site_id
_symmetry_equiv_pos_as_xyz
1 x,y,z
2 1/2+x,1/2+y,z
3 x,-y,1/2+z
4 1/2+x,1/2-y,1/2+z
5 -x,-y,-z
6 1/2-x,1/2-y,-z
7 -x,y,1/2-z
8 1/2-x,1/2+y,1/2-z
_cell_length_a                   17.784(3)
_cell_length_b                   17.611(3)
_cell_length_c                   14.217(2)
_cell_angle_alpha                90
_cell_angle_beta                 126.310(3)
_cell_angle_gamma                90
_cell_volume                     3588.08
_exptl_crystal_colour            colorless
_exptl_crystal_description       prism
_cell_formula_units_Z            8
_exptl_crystal_recrystallization_method ethanol/water
loop_
_atom_site_label
_atom_site_type_symbol
_atom_site_fract_x
_atom_site_fract_y
_atom_site_fract_z
O1 O -0.17747(14) 0.54518(10) -0.06191(16)
O2 O 0.23911(14) 0.36132(11) 0.37372(17)
N1 N 0.04155(15) 0.47455(11) 0.17237(17)
N2 N -0.05078(15) 0.60421(11) 0.09148(18)
H1 H 0.0057 0.5982 0.1523
N3 N -0.14649(15) 0.65671(11) 0.17812(18)
N4 N 0.21620(15) 0.48847(12) 0.36406(17)
H2 H 0.1757 0.5242 0.3280
N5 N 0.43655(18) 0.58866(13) 0.50656(19)
C1 C -0.0983(2) 0.54326(16) 0.0289(2)
C2 C -0.04630(18) 0.46983(15) 0.0776(2)
C3 C -0.0898(2) 0.40161(16) 0.0266(2)
H3 H -0.1517 0.4002 -0.0387
C4 C -0.0396(2) 0.33577(17) 0.0746(3)
H4 H -0.0671 0.2891 0.0413
C5 C 0.0518(2) 0.33920(15) 0.1724(3)
H5 H 0.0866 0.2951 0.2061
C6 C 0.09060(19) 0.41007(15) 0.2196(2)
C7 C -0.08897(19) 0.67979(14) 0.0627(2)
H6 H -0.1408 0.6811 -0.0196
H7 H -0.0416 0.7144 0.0744
C8 C -0.12252(16) 0.70828(14) 0.13134(19)
C9 C -0.1300(2) 0.78437(15) 0.1417(2)
H8 H -0.1123 0.8188 0.1086
C10 C -0.1633(2) 0.80942(18) 0.2001(3)
H9 H -0.1681 0.8613 0.2078
C11 C -0.1898(2) 0.7588(2) 0.2479(3)
H10 H -0.2138 0.7773 0.2910
C12 C -0.1798(2) 0.68350(18) 0.2353(2)
H11 H -0.1998 0.6462 0.2687
C13 C 0.1887(2) 0.41797(17) 0.3266(2)
C14 C 0.30969(18) 0.50936(16) 0.4615(2)
H12 H 0.3422 0.4643 0.5071
H13 H 0.3059 0.5444 0.5113
C15 C 0.36524(18) 0.54543(14) 0.4256(2)
C16 C 0.3464(2) 0.53489(16) 0.3180(2)
H14 H 0.2971 0.5040 0.2630
C17 C 0.4007(2) 0.57019(18) 0.2920(3)
H15 H 0.3880 0.5638 0.2189
C18 C 0.4732(2) 0.61461(17) 0.3734(3)
H16 H 0.5106 0.6395 0.3575
C19 C 0.4891(2) 0.62146(17) 0.4794(3)
H17 H 0.5395 0.6507 0.5362
O3 O 0.3046(4) 0.2906(2) 0.5826(4)
H18 H 0.2693 0.2790 0.5106
H19 H 0.3609 0.2882 0.6059
loop_
_geom_bond_atom_site_label_1
_geom_bond_atom_site_label_2
_geom_bond_site_symmetry_1
_geom_bond_site_symmetry_2
O1 C1 1_555 1_555
O2 C13 1_555 1_555
N1 C2 1_555 1_555
N2 H1 1_555 1_555
N3 C8 1_555 1_555
N4 H2 1_555 1_555
N5 C15 1_555 1_555
C1 N2 1_555 1_555
C2 C1 1_555 1_555
C3 C2 1_555 1_555
H3 C3 1_555 1_555
C4 C3 1_555 1_555
H4 C4 1_555 1_555
C5 C4 1_555 1_555
H5 C5 1_555 1_555
C6 N1 1_555 1_555
C7 N2 1_555 1_555
H6 C7 1_555 1_555
H7 C7 1_555 1_555
C8 C7 1_555 1_555
C9 C8 1_555 1_555
H8 C9 1_555 1_555
C10 C9 1_555 1_555
H9 C10 1_555 1_555
C11 C10 1_555 1_555
H10 C11 1_555 1_555
C12 N3 1_555 1_555
H11 C12 1_555 1_555
C13 N4 1_555 1_555
C14 N4 1_555 1_555
H12 C14 1_555 1_555
H13 C14 1_555 1_555
C15 C14 1_555 1_555
C16 C15 1_555 1_555
H14 C16 1_555 1_555
C17 C16 1_555 1_555
H15 C17 1_555 1_555
C18 C17 1_555 1_555
H16 C18 1_555 1_555
C19 N5 1_555 1_555
H17 C19 1_555 1_555
O3 H18 1_555 1_555
H19 O3 1_555 1_555
C5 C6 1_555 1_555
C6 C13 1_555 1_555
C11 C12 1_555 1_555
C18 C19 1_555 1_555

#END
