
#######################################################################
#
#                 Cambridge Crystallographic Data Centre
#                                CCDC 
#
#######################################################################
#
# If this CIF has been generated from an entry in the Cambridge 
# Structural Database, then it will include bibliographic, chemical, 
# crystal, experimental, refinement or atomic coordinate data resulting 
# from the CCDC's data processing and validation procedures.
#
#######################################################################

data_HULVIU
_chemical_formula_moiety         'C36 H34 N6 O2,C1 H4 O1'
_chemical_name_systematic        
"3',6'-bis(Ethylamino)-2',7'-dimethyl-2-((1-(quinoxalin-2-yl)ethylidene)amino)spiro[isoindole-1,9'-xanthen]-3(2H)-one methanol solvate"
_symmetry_cell_setting           triclinic
_symmetry_space_group_name_H-M   'P -1'
_symmetry_Int_Tables_number      2
_space_group_name_Hall           '-P 1'
loop_
_symmetry_equiv_pos_site_id
_symmetry_equiv_pos_as_xyz
1 x,y,z
2 -x,-y,-z
_cell_length_a                   10.023(3)
_cell_length_b                   12.111(3)
_cell_length_c                   15.207(4)
_cell_angle_alpha                102.210(4)
_cell_angle_beta                 96.443(4)
_cell_angle_gamma                113.896(4)
_cell_volume                     1608.59
_exptl_crystal_colour            red
_exptl_crystal_description       block
_cell_formula_units_Z            2
loop_
_atom_site_label
_atom_site_type_symbol
_atom_site_fract_x
_atom_site_fract_y
_atom_site_fract_z
C1 C 0.5910(3) 1.0566(2) 0.15423(17)
C2 C 0.4691(3) 0.9654(2) 0.17247(17)
C3 C 0.3986(3) 1.0076(3) 0.23634(17)
H1 H 0.3148 0.9481 0.2489
C4 C 0.4461(3) 1.1326(3) 0.28190(18)
C5 C 0.3669(4) 1.1708(3) 0.3517(2)
H2 H 0.2834 1.0974 0.3552
H3 H 0.3319 1.2274 0.3335
H4 H 0.4348 1.2122 0.4109
C6 C 0.5726(3) 1.2240(3) 0.26213(18)
C7 C 0.6421(3) 1.1831(3) 0.19726(18)
H5 H 0.7242 1.2417 0.1827
C8 C 0.7547(4) 1.4497(3) 0.2989(2)
H6 H 0.7471 1.5281 0.3183
H7 H 0.7602 1.4354 0.2345
C9 C 0.8951(5) 1.4630(4) 0.3540(3)
H8 H 0.8922 1.4796 0.4182
H9 H 0.9789 1.5316 0.3451
H10 H 0.9051 1.3866 0.3344
C10 C 0.6207(3) 0.9054(2) 0.04187(18)
C11 C 0.7033(3) 0.8867(3) -0.02244(18)
H11 H 0.7837 0.9554 -0.0293
C12 C 0.6668(3) 0.7670(3) -0.07612(18)
C13 C 0.8837(3) 0.8458(3) -0.1479(2)
H12 H 0.9508 0.8933 -0.0879
H13 H 0.8564 0.9028 -0.1732
C14 C 0.9622(4) 0.7927(4) -0.2108(2)
H14 H 0.9928 0.7391 -0.1844
H15 H 1.0487 0.8604 -0.2183
H16 H 0.8953 0.7449 -0.2699
C15 C 0.5425(3) 0.6638(3) -0.06619(18)
C16 C 0.5025(4) 0.5323(3) -0.1221(2)
H17 H 0.4207 0.4735 -0.1036
H18 H 0.5874 0.5149 -0.1121
H19 H 0.4738 0.5243 -0.1864
C17 C 0.4648(3) 0.6882(3) -0.00202(18)
H20 H 0.3830 0.6204 0.0046
C18 C 0.4998(3) 0.8074(2) 0.05377(17)
C19 C 0.4178(3) 0.8269(2) 0.12891(17)
C20 C 0.2496(3) 0.7534(2) 0.09964(17)
C21 C 0.1511(3) 0.7670(3) 0.0368(2)
H21 H 0.1857 0.8238 0.0024
C22 C -0.0003(3) 0.6943(3) 0.0263(2)
H22 H -0.0684 0.7031 -0.0152
C23 C -0.0525(3) 0.6085(3) 0.0762(2)
H23 H -0.1550 0.5611 0.0684
C24 C 0.0444(3) 0.5930(3) 0.1366(2)
H24 H 0.0095 0.5343 0.1695
C25 C 0.1960(3) 0.6659(3) 0.14813(18)
C26 C 0.3221(3) 0.6703(3) 0.21022(19)
C27 C 0.6381(3) 0.8107(3) 0.3199(2)
C28 C 0.5564(4) 0.8318(4) 0.3941(2)
H25 H 0.4887 0.8636 0.3735
H26 H 0.6273 0.8917 0.4490
H27 H 0.5011 0.7536 0.4071
C29 C 0.7897(3) 0.8202(3) 0.3490(2)
C30 C 0.8836(4) 0.8208(4) 0.2863(2)
H28 H 0.8493 0.8174 0.2260
C31 C 1.0597(4) 0.8291(4) 0.3979(2)
C32 C 1.1967(4) 0.8284(4) 0.4261(3)
H29 H 1.2560 0.8242 0.3839
C33 C 1.2442(5) 0.8339(5) 0.5155(3)
H30 H 1.3351 0.8324 0.5336
C34 C 1.1565(4) 0.8417(4) 0.5796(3)
H31 H 1.1901 0.8469 0.6406
C35 C 1.0221(4) 0.8417(4) 0.5533(3)
H32 H 0.9645 0.8473 0.5963
C36 C 0.9705(3) 0.8332(3) 0.4616(2)
N1 N 0.8329(3) 0.8284(3) 0.43577(17)
N2 N 1.0149(3) 0.8257(4) 0.3083(2)
N3 N 0.5929(2) 0.7885(2) 0.23365(15)
N4 N 0.4470(2) 0.7673(2) 0.20232(14)
N5 N 0.6216(3) 1.3491(2) 0.30717(18)
H36 H 0.5689 1.3686 0.3428
N6 N 0.7517(3) 0.7467(3) -0.13741(16)
H37 H 0.7243 0.6712 -0.1709
O1 O 0.6703(2) 1.02971(17) 0.09181(13)
O2 O 0.3189(2) 0.5999(2) 0.25829(15)
C37 C 0.3217(6) 0.4788(5) 0.4333(3)
H33 H 0.3452 0.4400 0.4778
H34 H 0.2166 0.4350 0.4057
H35 H 0.3474 0.5651 0.4635
O3 O 0.4055(4) 0.4734(3) 0.3629(2)
H38 H 0.3885 0.5095 0.3263
loop_
_geom_bond_atom_site_label_1
_geom_bond_atom_site_label_2
_geom_bond_site_symmetry_1
_geom_bond_site_symmetry_2
C1 C2 1_555 1_555
C2 C3 1_555 1_555
C3 H1 1_555 1_555
C4 C3 1_555 1_555
C5 C4 1_555 1_555
H2 C5 1_555 1_555
H3 C5 1_555 1_555
H4 C5 1_555 1_555
C6 C4 1_555 1_555
C7 C1 1_555 1_555
H5 C7 1_555 1_555
C8 H6 1_555 1_555
H7 C8 1_555 1_555
C9 C8 1_555 1_555
H8 C9 1_555 1_555
H9 C9 1_555 1_555
H10 C9 1_555 1_555
C10 C11 1_555 1_555
C11 H11 1_555 1_555
C12 C11 1_555 1_555
C13 H12 1_555 1_555
H13 C13 1_555 1_555
C14 C13 1_555 1_555
H14 C14 1_555 1_555
H15 C14 1_555 1_555
H16 C14 1_555 1_555
C15 C12 1_555 1_555
C16 C15 1_555 1_555
H17 C16 1_555 1_555
H18 C16 1_555 1_555
H19 C16 1_555 1_555
C17 C15 1_555 1_555
H20 C17 1_555 1_555
C18 C10 1_555 1_555
C19 C2 1_555 1_555
C20 C19 1_555 1_555
C21 C20 1_555 1_555
H21 C21 1_555 1_555
C22 C21 1_555 1_555
H22 C22 1_555 1_555
C23 C22 1_555 1_555
H23 C23 1_555 1_555
C24 C23 1_555 1_555
H24 C24 1_555 1_555
C25 C20 1_555 1_555
C26 C25 1_555 1_555
C27 C28 1_555 1_555
C28 H25 1_555 1_555
H26 C28 1_555 1_555
H27 C28 1_555 1_555
C29 C27 1_555 1_555
C30 C29 1_555 1_555
H28 C30 1_555 1_555
C31 C32 1_555 1_555
C32 H29 1_555 1_555
C33 C32 1_555 1_555
H30 C33 1_555 1_555
C34 C33 1_555 1_555
H31 C34 1_555 1_555
C35 C34 1_555 1_555
H32 C35 1_555 1_555
C36 C31 1_555 1_555
C37 H33 1_555 1_555
H34 C37 1_555 1_555
H35 C37 1_555 1_555
N1 C29 1_555 1_555
N2 C30 1_555 1_555
N3 C27 1_555 1_555
N4 C19 1_555 1_555
N5 C6 1_555 1_555
H36 N5 1_555 1_555
N6 C12 1_555 1_555
H37 N6 1_555 1_555
O1 C1 1_555 1_555
O2 C26 1_555 1_555
O3 C37 1_555 1_555
H38 O3 1_555 1_555
C6 C7 1_555 1_555
C8 N5 1_555 1_555
C10 O1 1_555 1_555
C13 N6 1_555 1_555
C17 C18 1_555 1_555
C18 C19 1_555 1_555
C24 C25 1_555 1_555
C26 N4 1_555 1_555
C31 N2 1_555 1_555
C35 C36 1_555 1_555
C36 N1 1_555 1_555
N3 N4 1_555 1_555

#END
