
#######################################################################
#
#                 Cambridge Crystallographic Data Centre
#                                CCDC 
#
#######################################################################
#
# If this CIF has been generated from an entry in the Cambridge 
# Structural Database, then it will include bibliographic, chemical, 
# crystal, experimental, refinement or atomic coordinate data resulting 
# from the CCDC's data processing and validation procedures.
#
#######################################################################

data_HULXUJ
_chemical_compound_source        'Dysoxylum gotadhora'
_chemical_formula_moiety         'C20 H30 O2,0.5(C2 H3 N1)'
_chemical_name_systematic        
'12-hydroxypimara-8(14),15-dien-7-one acetonitrile solvate'
_symmetry_cell_setting           orthorhombic
_symmetry_space_group_name_H-M   'P 21 21 21'
_symmetry_Int_Tables_number      19
_space_group_name_Hall           'P 2ac 2ab'
loop_
_symmetry_equiv_pos_site_id
_symmetry_equiv_pos_as_xyz
1 x,y,z
2 1/2-x,-y,1/2+z
3 1/2+x,1/2-y,-z
4 -x,1/2+y,1/2-z
_cell_length_a                   6.3147(2)
_cell_length_b                   23.2682(9)
_cell_length_c                   25.4495(11)
_cell_angle_alpha                90
_cell_angle_beta                 90
_cell_angle_gamma                90
_cell_volume                     3739.34
_exptl_crystal_colour            'light colorless'
_exptl_crystal_description       block
_cell_formula_units_Z            8
loop_
_atom_site_label
_atom_site_type_symbol
_atom_site_fract_x
_atom_site_fract_y
_atom_site_fract_z
O1 O 0.5856(3) 0.90556(7) 0.20818(8)
O2 O 0.2403(3) 1.14137(9) 0.11387(8)
H1 H 0.3456 1.1598 0.1054
C1 C 0.4566(4) 1.11628(10) 0.31265(10)
H2 H 0.4899 1.1516 0.2942
H3 H 0.3038 1.1121 0.3127
C2 C 0.5327(5) 1.12145(11) 0.36893(11)
H4 H 0.6827 1.1304 0.3692
H5 H 0.4583 1.1527 0.3861
C3 C 0.4951(5) 1.06625(12) 0.39899(11)
H6 H 0.3438 1.0593 0.4011
H7 H 0.5480 1.0708 0.4345
C4 C 0.6023(4) 1.01368(11) 0.37377(10)
C5 C 0.5304(3) 1.01007(9) 0.31576(9)
H8 H 0.3775 1.0029 0.3174
C6 C 0.6225(4) 0.95774(9) 0.28708(9)
H9 H 0.7755 0.9590 0.2904
H10 H 0.5741 0.9234 0.3050
C7 C 0.5694(3) 0.95206(9) 0.23020(10)
C8 C 0.5024(3) 1.00426(9) 0.20057(9)
C9 C 0.4228(3) 1.05559(9) 0.23156(9)
H11 H 0.2793 1.0457 0.2432
C10 C 0.5541(3) 1.06550(8) 0.28227(9)
C11 C 0.3997(4) 1.10846(10) 0.19616(10)
H12 H 0.3105 1.1367 0.2134
H13 H 0.5377 1.1257 0.1905
C12 C 0.3032(4) 1.09227(11) 0.14373(10)
H14 H 0.1734 1.0709 0.1516
C13 C 0.4461(4) 1.05131(11) 0.11199(10)
C14 C 0.5136(3) 1.00351(10) 0.14856(10)
H15 H 0.5682 0.9704 0.1331
C15 C 0.3180(6) 1.02447(14) 0.06816(12)
H16 H 0.1846 1.0115 0.0782
C16 C 0.3615(13) 1.0168(3) 0.02070(18)
H17 H 0.261(7) 0.9901(18) -0.0013(16)
H18 H 0.518(13) 1.028(3) 0.003(3)
C17 C 0.6445(5) 1.08190(14) 0.09103(14)
H19 H 0.7270 1.0959 0.1200
H20 H 0.6029 1.1135 0.0691
H21 H 0.7277 1.0553 0.0709
C18 C 0.8447(5) 1.01718(14) 0.38176(13)
H22 H 0.8953 1.0537 0.3694
H23 H 0.9122 0.9869 0.3624
H24 H 0.8770 1.0131 0.4184
C19 C 0.5240(6) 0.96031(13) 0.40352(12)
H25 H 0.5522 0.9648 0.4404
H26 H 0.5963 0.9269 0.3906
H27 H 0.3743 0.9559 0.3982
C20 C 0.7862(4) 1.07879(11) 0.26708(11)
H28 H 0.7888 1.1086 0.2410
H29 H 0.8513 1.0448 0.2531
H30 H 0.8625 1.0912 0.2977
O3 O 0.0819(3) 0.94618(6) 0.23316(7)
O4 O 0.0980(3) 0.69631(8) 0.33792(9)
H31 H -0.0015 0.6858 0.3562
C21 C -0.0417(4) 0.73017(10) 0.13772(10)
H32 H 0.0321 0.6973 0.1523
H33 H -0.1886 0.7278 0.1486
C22 C -0.0314(5) 0.72712(12) 0.07839(11)
H34 H -0.0964 0.6917 0.0664
H35 H 0.1154 0.7271 0.0672
C23 C -0.1455(5) 0.77809(13) 0.05425(11)
H36 H -0.2940 0.7763 0.0639
H37 H -0.1368 0.7752 0.0163
C24 C -0.0558(4) 0.83650(12) 0.07143(10)
C25 C -0.0447(3) 0.83812(9) 0.13259(9)
H38 H -0.1926 0.8384 0.1442
C26 C 0.0499(4) 0.89393(9) 0.15390(9)
H39 H 0.1910 0.8983 0.1394
H40 H -0.0348 0.9257 0.1410
C27 C 0.0652(3) 0.89904(9) 0.21226(10)
C28 C 0.0717(3) 0.84526(9) 0.24414(8)
C29 C -0.0073(3) 0.79007(9) 0.21913(9)
H41 H -0.1623 0.7917 0.2201
C30 C 0.0563(3) 0.78562(9) 0.16036(9)
C31 C 0.0578(4) 0.73780(10) 0.25216(10)
H42 H -0.0308 0.7054 0.2425
H43 H 0.2030 0.7278 0.2438
C32 C 0.0403(4) 0.74730(10) 0.31029(10)
H44 H -0.1074 0.7564 0.3187
C33 C 0.1808(4) 0.79754(11) 0.32888(10)
C34 C 0.1493(3) 0.84777(10) 0.29265(9)
H45 H 0.1874 0.8838 0.3053
C35 C 0.1245(5) 0.81131(14) 0.38491(12)
H46 H 0.1644 0.7838 0.4095
C36 C 0.0309(8) 0.8549(2) 0.40352(17)
H47 H 0.002(5) 0.8524(15) 0.4413(14)
H48 H 0.003(9) 0.894(2) 0.381(2)
C37 C 0.4186(4) 0.78099(13) 0.32697(13)
H49 H 0.4596 0.7739 0.2912
H50 H 0.4414 0.7469 0.3475
H51 H 0.5020 0.8119 0.3410
C38 C 0.1545(5) 0.84816(14) 0.04337(11)
H52 H 0.2134 0.8837 0.0559
H53 H 0.1305 0.8508 0.0062
H54 H 0.2515 0.8173 0.0505
C39 C -0.2140(5) 0.88316(14) 0.05314(12)
H55 H -0.3395 0.8814 0.0744
H56 H -0.2508 0.8767 0.0170
H57 H -0.1501 0.9204 0.0567
C40 C 0.3001(3) 0.78366(11) 0.15562(10)
H58 H 0.3394 0.7826 0.1192
H59 H 0.3528 0.7499 0.1730
H60 H 0.3598 0.8173 0.1718
N1 N 0.5450(5) 0.72365(14) 0.46063(13)
C41 C 0.5405(5) 0.76774(15) 0.47829(13)
C42 C 0.5331(6) 0.82484(16) 0.49999(17)
H61 H 0.6113 0.8258 0.5323
H62 H 0.3885 0.8354 0.5066
H63 H 0.5945 0.8515 0.4755
loop_
_geom_bond_atom_site_label_1
_geom_bond_atom_site_label_2
_geom_bond_site_symmetry_1
_geom_bond_site_symmetry_2
O1 C7 1_555 1_555
O2 H1 1_555 1_555
C1 H2 1_555 1_555
H3 C1 1_555 1_555
C2 C1 1_555 1_555
H4 C2 1_555 1_555
H5 C2 1_555 1_555
C3 C2 1_555 1_555
H6 C3 1_555 1_555
H7 C3 1_555 1_555
C4 C3 1_555 1_555
C5 C4 1_555 1_555
H8 C5 1_555 1_555
C6 C5 1_555 1_555
H9 C6 1_555 1_555
H10 C6 1_555 1_555
C7 C6 1_555 1_555
C8 C7 1_555 1_555
C9 C8 1_555 1_555
H11 C9 1_555 1_555
C10 C1 1_555 1_555
C11 C9 1_555 1_555
H12 C11 1_555 1_555
H13 C11 1_555 1_555
C12 O2 1_555 1_555
H14 C12 1_555 1_555
C13 C12 1_555 1_555
C14 C8 1_555 1_555
H15 C14 1_555 1_555
C15 C13 1_555 1_555
H16 C15 1_555 1_555
C16 C15 1_555 1_555
H17 C16 1_555 1_555
H18 C16 1_555 1_555
C17 C13 1_555 1_555
H19 C17 1_555 1_555
H20 C17 1_555 1_555
H21 C17 1_555 1_555
C18 C4 1_555 1_555
H22 C18 1_555 1_555
H23 C18 1_555 1_555
H24 C18 1_555 1_555
C19 C4 1_555 1_555
H25 C19 1_555 1_555
H26 C19 1_555 1_555
H27 C19 1_555 1_555
C20 C10 1_555 1_555
H28 C20 1_555 1_555
H29 C20 1_555 1_555
H30 C20 1_555 1_555
O3 C27 1_555 1_555
O4 H31 1_555 1_555
C21 H32 1_555 1_555
H33 C21 1_555 1_555
C22 C21 1_555 1_555
H34 C22 1_555 1_555
H35 C22 1_555 1_555
C23 C22 1_555 1_555
H36 C23 1_555 1_555
H37 C23 1_555 1_555
C24 C23 1_555 1_555
C25 C24 1_555 1_555
H38 C25 1_555 1_555
C26 C25 1_555 1_555
H39 C26 1_555 1_555
H40 C26 1_555 1_555
C27 C26 1_555 1_555
C28 C27 1_555 1_555
C29 C28 1_555 1_555
H41 C29 1_555 1_555
C30 C21 1_555 1_555
C31 C29 1_555 1_555
H42 C31 1_555 1_555
H43 C31 1_555 1_555
C32 O4 1_555 1_555
H44 C32 1_555 1_555
C33 C32 1_555 1_555
C34 C28 1_555 1_555
H45 C34 1_555 1_555
C35 C33 1_555 1_555
H46 C35 1_555 1_555
C36 C35 1_555 1_555
H47 C36 1_555 1_555
H48 C36 1_555 1_555
C37 C33 1_555 1_555
H49 C37 1_555 1_555
H50 C37 1_555 1_555
H51 C37 1_555 1_555
C38 C24 1_555 1_555
H52 C38 1_555 1_555
H53 C38 1_555 1_555
H54 C38 1_555 1_555
C39 C24 1_555 1_555
H55 C39 1_555 1_555
H56 C39 1_555 1_555
H57 C39 1_555 1_555
C40 C30 1_555 1_555
H58 C40 1_555 1_555
H59 C40 1_555 1_555
H60 C40 1_555 1_555
N1 C41 1_555 1_555
C41 C42 1_555 1_555
C42 H61 1_555 1_555
H62 C42 1_555 1_555
H63 C42 1_555 1_555
C5 C10 1_555 1_555
C9 C10 1_555 1_555
C11 C12 1_555 1_555
C13 C14 1_555 1_555
C25 C30 1_555 1_555
C29 C30 1_555 1_555
C31 C32 1_555 1_555
C33 C34 1_555 1_555

#END
