
#######################################################################
#
#                 Cambridge Crystallographic Data Centre
#                                CCDC 
#
#######################################################################
#
# If this CIF has been generated from an entry in the Cambridge 
# Structural Database, then it will include bibliographic, chemical, 
# crystal, experimental, refinement or atomic coordinate data resulting 
# from the CCDC's data processing and validation procedures.
#
#######################################################################

data_HULXIX
_chemical_compound_source        'Dysoxylum gotadhora'
_chemical_formula_moiety         'C30 H48 O4'
_chemical_name_systematic        
23,25-dihydroxy-21,24-epoxy-9,19-cyclolanostan-3-one
_symmetry_cell_setting           monoclinic
_symmetry_space_group_name_H-M   'P 21'
_symmetry_Int_Tables_number      4
_space_group_name_Hall           'P 2yb'
loop_
_symmetry_equiv_pos_site_id
_symmetry_equiv_pos_as_xyz
1 x,y,z
2 -x,1/2+y,-z
_cell_length_a                   9.4572(3)
_cell_length_b                   7.77569(19)
_cell_length_c                   19.2277(5)
_cell_angle_alpha                90
_cell_angle_beta                 103.188(3)
_cell_angle_gamma                90
_cell_volume                     1376.64
_exptl_crystal_colour            'light colorless'
_exptl_crystal_description       needle
_cell_formula_units_Z            2
loop_
_atom_site_label
_atom_site_type_symbol
_atom_site_fract_x
_atom_site_fract_y
_atom_site_fract_z
O1 O -0.3028(4) 1.1273(5) 0.56843(14)
O2 O 0.25237(16) 0.5812(2) 0.13545(8)
O3 O 0.4465(3) 0.8230(3) 0.02177(13)
H1 H 0.508(5) 0.744(8) 0.031(2)
O4 O 0.60303(18) 0.5590(3) 0.08777(11)
H2 H 0.5924 0.4840 0.0571
C1 C -0.1653(3) 0.8972(4) 0.44195(15)
H3 H -0.0712 0.9125 0.4743
H4 H -0.1686 0.7823 0.4219
C2 C -0.2845(4) 0.9156(5) 0.48337(17)
H5 H -0.3763 0.8783 0.4534
H6 H -0.2624 0.8414 0.5250
C3 C -0.2993(3) 1.0979(5) 0.50700(15)
C4 C -0.3083(3) 1.2397(4) 0.45181(13)
C5 C -0.1812(2) 1.2084(3) 0.41293(11)
H7 H -0.0922 1.2136 0.4508
C6 C -0.1645(4) 1.3491(4) 0.36041(17)
H8 H -0.1472 1.4586 0.3850
H9 H -0.2529 1.3585 0.3234
C7 C -0.0373(4) 1.3057(4) 0.32705(18)
H10 H 0.0483 1.2823 0.3645
H11 H -0.0163 1.4034 0.2997
C8 C -0.0726(3) 1.1486(3) 0.27818(12)
H12 H -0.1576 1.1812 0.2409
C9 C -0.1209(2) 0.9928(3) 0.31655(11)
C10 C -0.1836(2) 1.0284(3) 0.38235(11)
C11 C -0.0382(3) 0.8246(3) 0.31528(13)
H13 H -0.0991 0.7313 0.3248
H14 H 0.0473 0.8273 0.3543
C12 C 0.0114(3) 0.7810(3) 0.24577(14)
H15 H 0.1105 0.7388 0.2584
H16 H -0.0493 0.6892 0.2210
C13 C 0.0043(2) 0.9341(3) 0.19466(11)
C14 C 0.0462(2) 1.1014(3) 0.23875(11)
C15 C 0.0607(3) 1.2327(4) 0.18107(13)
H17 H 0.1289 1.3228 0.2011
H18 H -0.0325 1.2847 0.1601
C16 C 0.1170(3) 1.1283(4) 0.12482(13)
H19 H 0.2148 1.1640 0.1239
H20 H 0.0549 1.1465 0.0778
C17 C 0.1157(2) 0.9366(3) 0.14589(11)
H21 H 0.2113 0.9101 0.1762
C18 C -0.1509(2) 0.9436(4) 0.14746(13)
H22 H -0.1596 1.0432 0.1173
H23 H -0.2194 0.9515 0.1773
H24 H -0.1704 0.8421 0.1184
C19 C -0.2822(3) 0.9806(4) 0.31199(13)
H25 H -0.3438 1.0700 0.2859
H26 H -0.3255 0.8668 0.3078
C20 C 0.0929(2) 0.8165(3) 0.08027(11)
H27 H -0.0050 0.8366 0.0510
C21 C 0.1065(2) 0.6261(3) 0.09952(12)
H28 H 0.0411 0.5988 0.1302
H29 H 0.0777 0.5581 0.0563
C22 C 0.2027(3) 0.8523(4) 0.03373(12)
H30 H 0.1719 0.7927 -0.0115
H31 H 0.2041 0.9746 0.0239
C23 C 0.3542(3) 0.7937(4) 0.07031(12)
H32 H 0.3890 0.8628 0.1135
C24 C 0.3527(2) 0.6049(3) 0.09109(11)
H33 H 0.3194 0.5370 0.0475
C25 C 0.5004(3) 0.5327(4) 0.13171(12)
C26 C 0.4897(3) 0.3421(4) 0.14700(16)
H34 H 0.4479 0.2826 0.1034
H35 H 0.4296 0.3259 0.1805
H36 H 0.5850 0.2973 0.1668
C27 C 0.5604(3) 0.6315(5) 0.20035(14)
H37 H 0.6502 0.5804 0.2251
H38 H 0.4918 0.6276 0.2302
H39 H 0.5771 0.7490 0.1891
C28 C -0.2918(4) 1.4149(5) 0.48918(19)
H40 H -0.1930 1.4297 0.5151
H41 H -0.3551 1.4205 0.5217
H42 H -0.3169 1.5044 0.4541
C29 C -0.4589(3) 1.2286(6) 0.40038(19)
H43 H -0.4665 1.3148 0.3640
H44 H -0.5329 1.2472 0.4265
H45 H -0.4713 1.1168 0.3786
C30 C 0.1962(3) 1.0864(5) 0.29110(14)
H46 H 0.1920 1.0002 0.3263
H47 H 0.2219 1.1950 0.3143
H48 H 0.2678 1.0545 0.2652
loop_
_geom_bond_atom_site_label_1
_geom_bond_atom_site_label_2
_geom_bond_site_symmetry_1
_geom_bond_site_symmetry_2
O1 C3 1_555 1_555
O2 C21 1_555 1_555
O3 H1 1_555 1_555
O4 H2 1_555 1_555
C1 H3 1_555 1_555
H4 C1 1_555 1_555
C2 C1 1_555 1_555
H5 C2 1_555 1_555
H6 C2 1_555 1_555
C3 C2 1_555 1_555
C4 C3 1_555 1_555
C5 C4 1_555 1_555
H7 C5 1_555 1_555
C6 C5 1_555 1_555
H8 C6 1_555 1_555
H9 C6 1_555 1_555
C7 C6 1_555 1_555
H10 C7 1_555 1_555
H11 C7 1_555 1_555
C8 C7 1_555 1_555
H12 C8 1_555 1_555
C9 C8 1_555 1_555
C10 C1 1_555 1_555
C11 C9 1_555 1_555
H13 C11 1_555 1_555
H14 C11 1_555 1_555
C12 C11 1_555 1_555
H15 C12 1_555 1_555
H16 C12 1_555 1_555
C13 C12 1_555 1_555
C14 C8 1_555 1_555
C15 C14 1_555 1_555
H17 C15 1_555 1_555
H18 C15 1_555 1_555
C16 C15 1_555 1_555
H19 C16 1_555 1_555
H20 C16 1_555 1_555
C17 C13 1_555 1_555
H21 C17 1_555 1_555
C18 C13 1_555 1_555
H22 C18 1_555 1_555
H23 C18 1_555 1_555
H24 C18 1_555 1_555
C19 C9 1_555 1_555
H25 C19 1_555 1_555
H26 C19 1_555 1_555
C20 C17 1_555 1_555
H27 C20 1_555 1_555
C21 C20 1_555 1_555
H28 C21 1_555 1_555
H29 C21 1_555 1_555
C22 C20 1_555 1_555
H30 C22 1_555 1_555
H31 C22 1_555 1_555
C23 O3 1_555 1_555
H32 C23 1_555 1_555
C24 O2 1_555 1_555
H33 C24 1_555 1_555
C25 O4 1_555 1_555
C26 C25 1_555 1_555
H34 C26 1_555 1_555
H35 C26 1_555 1_555
H36 C26 1_555 1_555
C27 C25 1_555 1_555
H37 C27 1_555 1_555
H38 C27 1_555 1_555
H39 C27 1_555 1_555
C28 C4 1_555 1_555
H40 C28 1_555 1_555
H41 C28 1_555 1_555
H42 C28 1_555 1_555
C29 C4 1_555 1_555
H43 C29 1_555 1_555
H44 C29 1_555 1_555
H45 C29 1_555 1_555
C30 C14 1_555 1_555
H46 C30 1_555 1_555
H47 C30 1_555 1_555
H48 C30 1_555 1_555
C5 C10 1_555 1_555
C9 C10 1_555 1_555
C10 C19 1_555 1_555
C13 C14 1_555 1_555
C16 C17 1_555 1_555
C22 C23 1_555 1_555
C23 C24 1_555 1_555
C24 C25 1_555 1_555

#END
