
#######################################################################
#
#                 Cambridge Crystallographic Data Centre
#                                CCDC 
#
#######################################################################
#
# If this CIF has been generated from an entry in the Cambridge 
# Structural Database, then it will include bibliographic, chemical, 
# crystal, experimental, refinement or atomic coordinate data resulting 
# from the CCDC's data processing and validation procedures.
#
#######################################################################

data_HULYAQ
_chemical_compound_source        'Hypericum monogynum'
_chemical_formula_moiety         'C32 H48 O5'
_chemical_name_systematic        
4-(2-Hydroxypropan-2-yl)-8,11-dimethyl-1-(2-methylbutanoyl)-10-(3-methylbut-2-en-1-yl)-11-(4-methylpent-3-en-1-yl)-3-oxatricyclo[6.3.1.0^2,6^]dodec-2(6)-ene-7,12-dione
_symmetry_cell_setting           monoclinic
_symmetry_space_group_name_H-M   'P 21'
_symmetry_Int_Tables_number      4
_space_group_name_Hall           'P 2yb'
loop_
_symmetry_equiv_pos_site_id
_symmetry_equiv_pos_as_xyz
1 x,y,z
2 -x,1/2+y,-z
_cell_length_a                   10.7801(3)
_cell_length_b                   12.9089(2)
_cell_length_c                   23.4459(7)
_cell_angle_alpha                90
_cell_angle_beta                 101.782(3)
_cell_angle_gamma                90
_cell_volume                     3193.97
_cell_formula_units_Z            4
loop_
_atom_site_label
_atom_site_type_symbol
_atom_site_fract_x
_atom_site_fract_y
_atom_site_fract_z
O1 O 0.75286(16) 0.97459(14) 0.45708(8)
C1 C 0.7728(2) 0.9654(2) 0.35571(11)
O2 O 0.9318(2) 0.86348(17) 0.53521(11)
H1 H 0.9285 0.8049 0.5483
O3 O 0.5631(2) 0.8983(2) 0.31817(13)
O4 O 1.0877(2) 1.15870(19) 0.41667(12)
O5 O 0.7661(2) 1.0741(2) 0.27218(10)
C2 C 0.8166(2) 1.00306(18) 0.41673(12)
C3 C 0.9172(2) 1.06501(19) 0.43634(12)
C4 C 0.9784(2) 0.86511(19) 0.36652(11)
H2 H 0.9969 0.8818 0.4082
C5 C 0.9980(3) 1.10058(19) 0.39987(14)
C6 C 0.8308(2) 0.85446(19) 0.34732(11)
C7 C 0.9695(3) 1.0611(2) 0.33696(13)
C8 C 0.8275(3) 1.0403(2) 0.31667(13)
C9 C 0.7839(3) 0.7750(2) 0.38833(12)
H3 H 0.8514 0.7663 0.4223
H4 H 0.7130 0.8063 0.4016
C10 C 0.6258(3) 0.9713(3) 0.33891(14)
C11 C 1.0332(3) 0.9526(2) 0.33549(13)
H5 H 1.0269 0.9329 0.2951
H6 H 1.1225 0.9593 0.3528
C12 C 0.8452(3) 0.9293(2) 0.55680(14)
C13 C 0.9317(3) 1.0779(2) 0.50135(13)
H7 H 0.9290 1.1503 0.5120
H8 H 1.0103 1.0475 0.5222
C14 C 0.7940(3) 0.8232(2) 0.28303(12)
H9 H 0.7034 0.8203 0.2714
H10 H 0.8290 0.7563 0.2778
H11 H 0.8266 0.8733 0.2596
C15 C 1.1811(3) 0.7637(2) 0.39290(13)
H12 H 1.1908 0.7820 0.4319
C16 C 0.8164(3) 1.0188(2) 0.51344(13)
H13 H 0.7590 1.0676 0.5269
C17 C 1.0493(3) 0.7635(2) 0.35919(13)
H14 H 1.0040 0.7058 0.3718
H15 H 1.0500 0.7535 0.3183
C18 C 1.2871(3) 0.7417(3) 0.37544(17)
C19 C 0.7425(3) 0.6674(2) 0.36545(13)
H16 H 0.6627 0.6724 0.3376
H17 H 0.8052 0.6391 0.3454
C20 C 0.7271(3) 0.5958(2) 0.41378(15)
H18 H 0.7259 0.6261 0.4497
C21 C 0.7151(4) 0.4938(3) 0.41062(19)
C22 C 0.5629(3) 1.0721(3) 0.35017(19)
H19 H 0.6278 1.1226 0.3672
C23 C 0.9078(5) 0.9720(3) 0.61618(16)
H20 H 0.9298 0.9158 0.6432
H21 H 0.8501 1.0177 0.6299
H22 H 0.9830 1.0094 0.6129
C24 C 1.0182(4) 1.1363(3) 0.29607(18)
H23 H 1.1083 1.1440 0.3083
H24 H 0.9781 1.2024 0.2972
H25 H 0.9988 1.1095 0.2571
C25 C 0.7257(4) 0.8719(3) 0.55985(18)
H26 H 0.6652 0.9190 0.5703
H27 H 0.7443 0.8181 0.5886
H28 H 0.6913 0.8417 0.5225
C26 C 1.4135(3) 0.7408(4) 0.4169(2)
H29 H 1.4025 0.7602 0.4551
H30 H 1.4694 0.7892 0.4039
H31 H 1.4492 0.6726 0.4183
C27 C 0.4759(4) 1.0493(5) 0.3938(3)
H32 H 0.4067 1.0053 0.3750
H33 H 0.5241 1.0114 0.4267
C28 C 0.7073(7) 0.4302(4) 0.4635(2)
H34 H 0.7031 0.4754 0.4956
H35 H 0.7811 0.3870 0.4734
H36 H 0.6328 0.3876 0.4553
C29 C 1.2929(5) 0.7124(6) 0.3148(2)
H37 H 1.3095 0.7729 0.2938
H38 H 1.2134 0.6826 0.2961
H39 H 1.3594 0.6627 0.3154
C30 C 0.7183(7) 0.4323(4) 0.3557(2)
H40 H 0.6335 0.4141 0.3368
H41 H 0.7672 0.3703 0.3657
H42 H 0.7563 0.4735 0.3297
C31 C 0.4843(5) 1.1152(5) 0.2930(3)
H43 H 0.4685 1.1876 0.2976
H44 H 0.4050 1.0789 0.2834
H45 H 0.5301 1.1061 0.2623
C32 C 0.4237(8) 1.1411(7) 0.4152(5)
H46 H 0.3890 1.1236 0.4485
H47 H 0.3581 1.1690 0.3852
H48 H 0.4895 1.1918 0.4261
O6 O 0.29749(16) 0.46025(15) 0.04696(8)
O7 O 0.3988(2) 0.56822(17) -0.03594(12)
H49 H 0.3777 0.6293 -0.0394
O8 O 0.2548(2) 0.5434(2) 0.18754(12)
O9 O 0.4973(2) 0.3580(2) 0.22745(10)
C33 C 0.4920(2) 0.57894(18) 0.15266(11)
C34 C 0.4226(2) 0.4690(2) 0.14634(11)
O10 O 0.6683(2) 0.27632(18) 0.07476(12)
C35 C 0.6161(2) 0.56615(19) 0.12938(11)
H50 H 0.5909 0.5501 0.0878
C36 C 0.6961(3) 0.6664(2) 0.13439(13)
H51 H 0.6401 0.7251 0.1233
H52 H 0.7386 0.6760 0.1747
C37 C 0.5970(3) 0.3327(2) 0.09517(14)
C38 C 0.6996(3) 0.4762(2) 0.15761(13)
H53 H 0.7358 0.4949 0.1976
H54 H 0.7692 0.4683 0.1375
C39 C 0.4794(3) 0.3683(2) 0.06181(12)
C40 C 0.4015(2) 0.43085(18) 0.08433(11)
C41 C 0.6332(3) 0.3706(2) 0.15774(13)
C42 C 0.2953(3) 0.4667(3) 0.16779(13)
C43 C 0.5235(3) 0.6097(2) 0.21718(12)
H55 H 0.5663 0.6753 0.2213
H56 H 0.5773 0.5581 0.2390
H57 H 0.4465 0.6150 0.2316
C44 C 0.4060(3) 0.6605(2) 0.11405(12)
H58 H 0.4406 0.6720 0.0795
H59 H 0.3229 0.6296 0.1013
C45 C 0.5146(3) 0.3923(2) 0.18203(13)
C46 C 0.2897(3) 0.5039(2) -0.05449(14)
C47 C 0.7927(3) 0.6645(2) 0.09705(13)
H60 H 0.7618 0.6459 0.0584
C48 C 0.2208(4) 0.3678(3) 0.16305(18)
H61 H 0.2668 0.3134 0.1469
C49 C 0.4268(3) 0.3544(2) -0.00178(13)
H62 H 0.4111 0.2819 -0.0115
H63 H 0.4835 0.3826 -0.0251
C50 C 0.3023(3) 0.4161(2) -0.01062(12)
H64 H 0.2309 0.3683 -0.0222
C51 C 0.7207(4) 0.2929(3) 0.19559(18)
H65 H 0.6797 0.2267 0.1937
H66 H 0.7394 0.3168 0.2352
H67 H 0.7981 0.2866 0.1816
C52 C 0.9155(3) 0.6851(3) 0.11034(16)
C53 C 0.3874(3) 0.7655(2) 0.13989(15)
H68 H 0.3395 0.7575 0.1704
H69 H 0.4693 0.7950 0.1571
C54 C 0.9950(4) 0.6834(4) 0.0654(2)
H70 H 1.0689 0.6418 0.0790
H71 H 1.0203 0.7527 0.0583
H72 H 0.9471 0.6546 0.0299
C55 C 0.2880(5) 0.4608(3) -0.11503(15)
H73 H 0.3679 0.4284 -0.1156
H74 H 0.2739 0.5162 -0.1429
H75 H 0.2213 0.4107 -0.1247
C56 C 0.0909(4) 0.3860(4) 0.1219(2)
H76 H 0.0386 0.4283 0.1418
H77 H 0.1037 0.4238 0.0879
C57 C 0.1701(3) 0.5659(3) -0.05411(18)
H78 H 0.1600 0.6179 -0.0840
H79 H 0.1765 0.5986 -0.0169
H80 H 0.0982 0.5204 -0.0613
C58 C 0.3181(3) 0.8373(3) 0.09384(18)
H81 H 0.2917 0.8082 0.0571
C59 C 0.2899(6) 0.9336(4) 0.0981(3)
C60 C 0.9857(4) 0.7112(5) 0.1708(2)
H82 H 1.0479 0.6586 0.1841
H83 H 0.9271 0.7146 0.1965
H84 H 1.0271 0.7769 0.1703
C61 C 0.2026(5) 0.3355(5) 0.2236(3)
H85 H 0.1540 0.3874 0.2386
H86 H 0.2838 0.3283 0.2492
H87 H 0.1584 0.2705 0.2209
C62 C 0.0222(6) 0.2871(6) 0.1026(4)
H88 H -0.0048 0.2556 0.1351
H89 H 0.0779 0.2407 0.0880
H90 H -0.0503 0.3017 0.0725
C63 C 0.2306(7) 0.9992(5) 0.0487(3)
H91 H 0.2929 1.0455 0.0389
H92 H 0.1632 1.0388 0.0592
H93 H 0.1971 0.9563 0.0157
C64 C 0.3232(11) 0.9872(6) 0.1552(4)
H94 H 0.4109 0.9751 0.1721
H95 H 0.2715 0.9610 0.1808
H96 H 0.3090 1.0602 0.1497
loop_
_geom_bond_atom_site_label_1
_geom_bond_atom_site_label_2
_geom_bond_site_symmetry_1
_geom_bond_site_symmetry_2
O1 C2 1_555 1_555
C1 C2 1_555 1_555
O2 H1 1_555 1_555
O3 C10 1_555 1_555
O4 C5 1_555 1_555
O5 C8 1_555 1_555
C2 C3 1_555 1_555
C3 C5 1_555 1_555
C4 H2 1_555 1_555
C5 C7 1_555 1_555
C6 C1 1_555 1_555
C7 C8 1_555 1_555
C8 C1 1_555 1_555
C9 C6 1_555 1_555
H3 C9 1_555 1_555
H4 C9 1_555 1_555
C10 C1 1_555 1_555
C11 C4 1_555 1_555
H5 C11 1_555 1_555
H6 C11 1_555 1_555
C12 O2 1_555 1_555
C13 C3 1_555 1_555
H7 C13 1_555 1_555
H8 C13 1_555 1_555
C14 C6 1_555 1_555
H9 C14 1_555 1_555
H10 C14 1_555 1_555
H11 C14 1_555 1_555
C15 H12 1_555 1_555
C16 O1 1_555 1_555
H13 C16 1_555 1_555
C17 C4 1_555 1_555
H14 C17 1_555 1_555
H15 C17 1_555 1_555
C18 C15 1_555 1_555
C19 C9 1_555 1_555
H16 C19 1_555 1_555
H17 C19 1_555 1_555
C20 C19 1_555 1_555
H18 C20 1_555 1_555
C21 C20 1_555 1_555
C22 C10 1_555 1_555
H19 C22 1_555 1_555
C23 C12 1_555 1_555
H20 C23 1_555 1_555
H21 C23 1_555 1_555
H22 C23 1_555 1_555
C24 C7 1_555 1_555
H23 C24 1_555 1_555
H24 C24 1_555 1_555
H25 C24 1_555 1_555
C25 C12 1_555 1_555
H26 C25 1_555 1_555
H27 C25 1_555 1_555
H28 C25 1_555 1_555
C26 C18 1_555 1_555
H29 C26 1_555 1_555
H30 C26 1_555 1_555
H31 C26 1_555 1_555
C27 C22 1_555 1_555
H32 C27 1_555 1_555
H33 C27 1_555 1_555
C28 C21 1_555 1_555
H34 C28 1_555 1_555
H35 C28 1_555 1_555
H36 C28 1_555 1_555
C29 C18 1_555 1_555
H37 C29 1_555 1_555
H38 C29 1_555 1_555
H39 C29 1_555 1_555
C30 C21 1_555 1_555
H40 C30 1_555 1_555
H41 C30 1_555 1_555
H42 C30 1_555 1_555
C31 C22 1_555 1_555
H43 C31 1_555 1_555
H44 C31 1_555 1_555
H45 C31 1_555 1_555
C32 C27 1_555 1_555
H46 C32 1_555 1_555
H47 C32 1_555 1_555
H48 C32 1_555 1_555
O6 C40 1_555 1_555
O7 H49 1_555 1_555
O8 C42 1_555 1_555
O9 C45 1_555 1_555
C33 C34 1_555 1_555
C34 C40 1_555 1_555
O10 C37 1_555 1_555
C35 C33 1_555 1_555
H50 C35 1_555 1_555
C36 C35 1_555 1_555
H51 C36 1_555 1_555
H52 C36 1_555 1_555
C37 C39 1_555 1_555
C38 C35 1_555 1_555
H53 C38 1_555 1_555
H54 C38 1_555 1_555
C39 C40 1_555 1_555
C41 C37 1_555 1_555
C42 C34 1_555 1_555
C43 C33 1_555 1_555
H55 C43 1_555 1_555
H56 C43 1_555 1_555
H57 C43 1_555 1_555
C44 C33 1_555 1_555
H58 C44 1_555 1_555
H59 C44 1_555 1_555
C45 C34 1_555 1_555
C46 O7 1_555 1_555
C47 C36 1_555 1_555
H60 C47 1_555 1_555
C48 C42 1_555 1_555
H61 C48 1_555 1_555
C49 C39 1_555 1_555
H62 C49 1_555 1_555
H63 C49 1_555 1_555
C50 O6 1_555 1_555
H64 C50 1_555 1_555
C51 C41 1_555 1_555
H65 C51 1_555 1_555
H66 C51 1_555 1_555
H67 C51 1_555 1_555
C52 C47 1_555 1_555
C53 C44 1_555 1_555
H68 C53 1_555 1_555
H69 C53 1_555 1_555
C54 C52 1_555 1_555
H70 C54 1_555 1_555
H71 C54 1_555 1_555
H72 C54 1_555 1_555
C55 C46 1_555 1_555
H73 C55 1_555 1_555
H74 C55 1_555 1_555
H75 C55 1_555 1_555
C56 C48 1_555 1_555
H76 C56 1_555 1_555
H77 C56 1_555 1_555
C57 C46 1_555 1_555
H78 C57 1_555 1_555
H79 C57 1_555 1_555
H80 C57 1_555 1_555
C58 C53 1_555 1_555
H81 C58 1_555 1_555
C59 C58 1_555 1_555
C60 C52 1_555 1_555
H82 C60 1_555 1_555
H83 C60 1_555 1_555
H84 C60 1_555 1_555
C61 C48 1_555 1_555
H85 C61 1_555 1_555
H86 C61 1_555 1_555
H87 C61 1_555 1_555
C62 C56 1_555 1_555
H88 C62 1_555 1_555
H89 C62 1_555 1_555
H90 C62 1_555 1_555
C63 C59 1_555 1_555
H91 C63 1_555 1_555
H92 C63 1_555 1_555
H93 C63 1_555 1_555
C64 C59 1_555 1_555
H94 C64 1_555 1_555
H95 C64 1_555 1_555
H96 C64 1_555 1_555
C4 C6 1_555 1_555
C7 C11 1_555 1_555
C12 C16 1_555 1_555
C13 C16 1_555 1_555
C15 C17 1_555 1_555
C38 C41 1_555 1_555
C41 C45 1_555 1_555
C46 C50 1_555 1_555
C49 C50 1_555 1_555

#END
