
#######################################################################
#
#                 Cambridge Crystallographic Data Centre
#                                CCDC 
#
#######################################################################
#
# If this CIF has been generated from an entry in the Cambridge 
# Structural Database, then it will include bibliographic, chemical, 
# crystal, experimental, refinement or atomic coordinate data resulting 
# from the CCDC's data processing and validation procedures.
#
#######################################################################

data_HUMCAU
_chemical_formula_moiety         'C15 H39 N7 4+,2.33(H2 O1),4(Cl1 1-)'
_chemical_name_systematic        
'1-Ammonio-8-methyl-3,10,16-triaza-6,13,19-triazoniabicyclo(6.6.6)icosane tetrachloride hydrate'
_symmetry_cell_setting           monoclinic
_symmetry_space_group_name_H-M   'P 21/c'
_symmetry_Int_Tables_number      14
_space_group_name_Hall           '-P 2ybc'
loop_
_symmetry_equiv_pos_site_id
_symmetry_equiv_pos_as_xyz
1 x,y,z
2 -x,1/2+y,1/2-z
3 -x,-y,-z
4 x,1/2-y,1/2+z
_cell_length_a                   20.116(5)
_cell_length_b                   16.196(4)
_cell_length_c                   45.918(11)
_cell_angle_alpha                90
_cell_angle_beta                 99.887(3)
_cell_angle_gamma                90
_cell_volume                     14737.8
_exptl_crystal_colour            colorless
_exptl_crystal_description       prism
_cell_formula_units_Z            24
_exptl_crystal_recrystallization_method ethanol
loop_
_atom_site_label
_atom_site_type_symbol
_atom_site_fract_x
_atom_site_fract_y
_atom_site_fract_z
Cl1 Cl 0.48397(7) 0.42091(8) 0.42883(3)
Cl2 Cl 0.67969(7) -0.08120(8) 0.40101(3)
Cl3 Cl 0.47160(7) 0.70547(9) 0.46739(3)
Cl4 Cl 1.30572(7) 0.80364(9) 0.63414(3)
Cl5 Cl 0.35134(7) 0.55449(8) 0.49695(3)
Cl6 Cl 0.33476(7) 0.07181(8) 0.34661(3)
Cl7 Cl 0.65005(7) 0.40705(9) 0.75938(3)
Cl8 Cl 0.18335(7) 0.42703(8) 0.52404(3)
Cl9 Cl 0.50804(7) 0.94967(8) 0.32260(3)
Cl10 Cl 1.15922(7) 0.40981(9) 0.76220(3)
Cl11 Cl 0.98625(8) 0.93961(8) 0.30824(3)
Cl12 Cl 0.63914(7) 0.79465(10) 0.30111(3)
Cl13 Cl 0.81385(8) 1.05583(9) 0.33068(4)
Cl14 Cl 1.14500(7) 0.82653(9) 0.30331(3)
Cl15 Cl 0.39301(8) -0.02849(10) 0.45627(3)
Cl16 Cl 0.77543(8) 0.47728(10) 0.37439(3)
Cl17 Cl 0.04362(7) 0.52628(9) 0.46045(3)
Cl18 Cl 0.13174(7) 0.00771(9) 0.37139(3)
Cl19 Cl -0.00545(8) 0.44071(9) 0.35510(3)
Cl20 Cl 0.81053(7) 0.74342(11) 0.63633(3)
Cl21 Cl 0.97081(8) 0.77726(9) 0.46061(3)
Cl22 Cl 0.58231(9) 0.53960(11) 0.29315(4)
Cl23 Cl 0.17589(12) -0.05789(12) 0.47494(5)
Cl24 Cl 0.22553(11) 0.56812(13) 0.32914(4)
N1 N 0.2547(2) 0.9064(3) 0.35478(11)
H1 H 0.2402 0.9134 0.3723
H2 H 0.2195 0.8906 0.3407
H3 H 0.2719 0.9549 0.3493
C1 C 0.3090(3) 0.8406(3) 0.35812(12)
C2 C 0.3684(3) 0.8643(3) 0.38195(12)
H4 H 0.3508 0.892 0.3983
H5 H 0.3916 0.8132 0.39
N2 N 0.4182(2) 0.9192(3) 0.37162(10)
H6 H 0.3964 0.9656 0.3633
H7 H 0.4363 0.8924 0.3571
C3 C 0.4744(3) 0.9451(3) 0.39566(12)
H8 H 0.4558 0.9797 0.4101
H9 H 0.507 0.9792 0.387
C4 C 0.5111(3) 0.8720(3) 0.41154(12)
H10 H 0.5503 0.8916 0.4259
H11 H 0.4804 0.8419 0.4226
N3 N 0.5340(2) 0.8166(3) 0.39014(10)
C5 C 0.5663(3) 0.7406(3) 0.40394(12)
H12 H 0.5515 0.7318 0.4232
H13 H 0.6159 0.7486 0.4079
C6 C 0.3294(3) 0.8295(3) 0.32727(12)
H14 H 0.2916 0.8047 0.3134
H15 H 0.3401 0.8839 0.3193
N4 N 0.3884(2) 0.7758(3) 0.33032(10)
C7 C 0.4156(3) 0.7622(4) 0.30323(12)
H16 H 0.4305 0.8151 0.2957
H17 H 0.3806 0.7378 0.2878
C8 C 0.4750(3) 0.7034(4) 0.31071(12)
H18 H 0.4589 0.6496 0.317
H19 H 0.4956 0.694 0.2929
N5 N 0.5264(2) 0.7383(3) 0.33481(10)
H20 H 0.5047 0.7705 0.3467
H21 H 0.5546 0.7722 0.3264
C9 C 0.5693(3) 0.6751(4) 0.35407(12)
H22 H 0.6171 0.6925 0.3566
H23 H 0.5654 0.6213 0.3437
C10 C 0.2747(3) 0.7625(3) 0.36849(12)
H24 H 0.2586 0.7749 0.3872
H25 H 0.235 0.7479 0.3535
N6 N 0.3209(2) 0.6921(3) 0.37301(10)
C11 C 0.3354(3) 0.6618(4) 0.40365(13)
H26 H 0.2924 0.648 0.4103
H27 H 0.3575 0.7063 0.4166
C12 C 0.3807(3) 0.5860(4) 0.40686(15)
H28 H 0.3743 0.5557 0.4249
H29 H 0.3663 0.5492 0.3897
N7 N 0.4549(2) 0.6047(3) 0.40880(10)
H30 H 0.4675 0.6417 0.424
H31 H 0.4788 0.5568 0.4137
C13 C 0.4752(3) 0.6394(3) 0.38126(12)
H32 H 0.4474 0.6889 0.3751
H33 H 0.4651 0.598 0.3653
C14 C 0.5498(3) 0.6633(3) 0.38479(12)
C15 C 0.5955(3) 0.5937(3) 0.39949(13)
H34 H 0.5898 0.588 0.4202
H35 H 0.6427 0.607 0.3987
H36 H 0.5833 0.5417 0.389
H37 H 0.564(3) 0.843(4) 0.3837(16)
H38 H 0.381(4) 0.732(3) 0.3390(15)
H39 H 0.302(4) 0.654(4) 0.3637(15)
N8 N 0.7471(2) 0.8903(3) 0.34605(10)
H40 H 0.7309 0.9007 0.363
H41 H 0.7137 0.8684 0.3323
H42 H 0.762 0.9381 0.339
C16 C 0.8051(3) 0.8295(3) 0.35243(12)
C17 C 0.8624(3) 0.8664(3) 0.37463(12)
H43 H 0.8427 0.8976 0.3896
H44 H 0.8895 0.8208 0.385
N9 N 0.9080(2) 0.9221(3) 0.36172(10)
H45 H 0.8827 0.9637 0.3517
H46 H 0.9273 0.8927 0.3482
C18 C 0.9630(3) 0.9600(3) 0.38371(13)
H47 H 0.9426 0.9934 0.3979
H48 H 0.9899 0.9975 0.3733
C19 C 1.0091(3) 0.8958(3) 0.40044(12)
H49 H 1.047 0.9237 0.4134
H50 H 0.9838 0.8633 0.4132
N10 N 1.0361(2) 0.8400(3) 0.37996(10)
C20 C 1.0780(3) 0.7734(3) 0.39557(13)
H51 H 1.0704 0.7713 0.4163
H52 H 1.1261 0.7868 0.3959
C21 C 0.8258(3) 0.8111(3) 0.32231(12)
H53 H 0.7895 0.7797 0.3098
H54 H 0.8321 0.8637 0.3121
N11 N 0.8887(2) 0.7633(3) 0.32614(10)
C22 C 0.9126(3) 0.7446(4) 0.29844(12)
H55 H 0.9207 0.7963 0.2881
H56 H 0.8785 0.7115 0.2853
C23 C 0.9777(3) 0.6962(4) 0.30643(13)
H57 H 0.968 0.6417 0.3145
H58 H 0.9975 0.6866 0.2884
N12 N 1.0273(2) 0.7416(3) 0.32873(10)
H59 H 1.0038 0.7742 0.3399
H60 H 1.0522 0.7761 0.3188
C24 C 1.0756(3) 0.6876(4) 0.34946(12)
H61 H 1.1222 0.7066 0.3492
H62 H 1.0718 0.6302 0.3419
C25 C 0.7773(3) 0.7530(3) 0.36613(12)
H63 H 0.7598 0.7696 0.3841
H64 H 0.7392 0.7299 0.3519
N13 N 0.8289(2) 0.6893(3) 0.37383(10)
C26 C 0.8477(3) 0.6726(3) 0.40540(12)
H65 H 0.8079 0.6512 0.413
H66 H 0.8617 0.7248 0.4159
C27 C 0.9049(3) 0.6105(4) 0.41196(13)
H67 H 0.9041 0.586 0.4317
H68 H 0.8963 0.5654 0.3972
N14 N 0.9745(2) 0.6443(3) 0.41163(10)
H69 H 0.9791 0.6932 0.422
H70 H 1.0056 0.6078 0.4214
C28 C 0.9905(3) 0.6594(3) 0.38165(12)
H71 H 0.9593 0.702 0.3717
H72 H 0.9822 0.608 0.37
C29 C 1.0632(3) 0.6877(3) 0.38152(12)
C30 C 1.1146(3) 0.6256(4) 0.39804(13)
H73 H 1.1145 0.6293 0.4193
H74 H 1.1598 0.6386 0.3941
H75 H 1.1022 0.5695 0.3912
H76 H 1.056(3) 0.872(4) 0.3701(15)
H77 H 0.882(4) 0.718(3) 0.3341(16)
H78 H 0.813(4) 0.647(3) 0.3660(16)
N15 N 0.4137(2) 0.8848(3) 0.68382(10)
H79 H 0.4312 0.9321 0.6775
H80 H 0.3975 0.895 0.7008
H81 H 0.3796 0.8664 0.6697
C31 C 0.4683(3) 0.8198(3) 0.68960(12)
C32 C 0.5259(3) 0.8490(3) 0.71379(11)
H82 H 0.5064 0.8808 0.7287
H83 H 0.5488 0.8 0.7238
N16 N 0.5769(2) 0.9009(3) 0.70281(9)
H84 H 0.5556 0.9463 0.6935
H85 H 0.595 0.8713 0.689
C33 C 0.6335(3) 0.9299(3) 0.72632(12)
H86 H 0.6148 0.9648 0.7407
H87 H 0.665 0.9642 0.7171
C34 C 0.6719(3) 0.8583(4) 0.74250(12)
H88 H 0.7102 0.8796 0.757
H89 H 0.6417 0.8269 0.7534
N17 N 0.6973(2) 0.8035(3) 0.72135(11)
C35 C 0.7315(3) 0.7305(4) 0.73667(13)
H90 H 0.7186 0.7256 0.7565
H91 H 0.7809 0.7389 0.7395
C36 C 0.4913(3) 0.8043(3) 0.65965(11)
H92 H 0.4545 0.7771 0.6459
H93 H 0.5014 0.8576 0.6508
N18 N 0.5512(2) 0.7520(3) 0.66383(10)
C37 C 0.5777(3) 0.7352(4) 0.63657(12)
H94 H 0.5928 0.7872 0.6284
H95 H 0.5423 0.71 0.6216
C38 C 0.6366(3) 0.6765(4) 0.64429(13)
H96 H 0.6205 0.6236 0.6514
H97 H 0.6565 0.6651 0.6264
N19 N 0.6891(2) 0.7131(3) 0.66780(10)
H98 H 0.6677 0.7481 0.679
H99 H 0.7174 0.7447 0.6587
C39 C 0.7320(3) 0.6543(4) 0.68858(13)
H100 H 0.7798 0.6717 0.6905
H101 H 0.7282 0.5985 0.6797
C40 C 0.4354(3) 0.7430(3) 0.70094(13)
H102 H 0.4174 0.7579 0.719
H103 H 0.3969 0.7253 0.6858
N20 N 0.4822(2) 0.6742(3) 0.70763(10)
C41 C 0.4987(3) 0.6503(4) 0.73877(12)
H104 H 0.4566 0.6375 0.7462
H105 H 0.5209 0.6973 0.7504
C42 C 0.5454(3) 0.5753(4) 0.74324(14)
H106 H 0.5395 0.5472 0.7618
H107 H 0.5315 0.5362 0.7268
N21 N 0.6193(2) 0.5954(3) 0.74479(11)
H108 H 0.6314 0.6337 0.7596
H109 H 0.6439 0.5483 0.7502
C43 C 0.6392(3) 0.6277(4) 0.71743(13)
H110 H 0.6123 0.678 0.7114
H111 H 0.6271 0.5862 0.7016
C44 C 0.7137(3) 0.6490(3) 0.71958(12)
C45 C 0.7588(3) 0.5813(4) 0.73601(13)
H112 H 0.7525 0.5795 0.7567
H113 H 0.8062 0.5935 0.7352
H114 H 0.7465 0.5278 0.7267
H115 H 0.724(3) 0.831(4) 0.7134(16)
H116 H 0.545(4) 0.706(3) 0.6715(16)
H117 H 0.468(4) 0.633(3) 0.6986(15)
N22 N 0.9190(3) 0.8943(3) 0.68725(12)
H118 H 0.9377 0.9434 0.6834
H119 H 0.8993 0.8994 0.7036
H120 H 0.8872 0.8796 0.6715
C46 C 0.9730(3) 0.8289(3) 0.69259(12)
C47 C 1.0262(3) 0.8526(3) 0.71931(12)
H121 H 1.0036 0.8839 0.7334
H122 H 1.0444 0.8013 0.7294
N23 N 1.0834(2) 0.9023(3) 0.71274(10)
H123 H 1.0669 0.9511 0.7041
H124 H 1.1036 0.8743 0.6992
C48 C 1.1361(3) 0.9221(4) 0.73909(14)
H125 H 1.1144 0.9492 0.7544
H126 H 1.1691 0.9614 0.7332
C49 C 1.1729(3) 0.8457(4) 0.75212(13)
H127 H 1.2088 0.8616 0.7688
H128 H 1.141 0.8086 0.7599
N24 N 1.2029(2) 0.8024(3) 0.72965(11)
C50 C 1.2367(3) 0.7250(3) 0.74087(12)
H129 H 1.2235 0.7113 0.7601
H130 H 1.2861 0.7338 0.7443
C51 C 0.9998(3) 0.8231(4) 0.66357(12)
H131 H 0.9647 0.7987 0.6482
H132 H 1.01 0.8792 0.657
N25 N 1.0608(2) 0.7724(3) 0.66694(10)
C52 C 1.0903(3) 0.7669(4) 0.64007(12)
H133 H 1.1055 0.8221 0.6347
H134 H 1.0563 0.7462 0.6235
C53 C 1.1494(3) 0.7084(4) 0.64597(12)
H135 H 1.1331 0.6525 0.65
H136 H 1.171 0.7049 0.6282
N26 N 1.2002(2) 0.7367(3) 0.67181(10)
H137 H 1.1781 0.7665 0.6843
H138 H 1.23 0.7719 0.665
C54 C 1.2401(3) 0.6690(4) 0.68946(12)
H139 H 1.2884 0.6844 0.6928
H140 H 1.235 0.6177 0.6776
C55 C 0.9395(3) 0.7488(3) 0.70116(12)
H141 H 0.9213 0.7579 0.7196
H142 H 0.9014 0.7339 0.6854
N27 N 0.9885(2) 0.6811(3) 0.70547(10)
C56 C 0.9988(3) 0.6420(3) 0.73455(12)
H143 H 0.9548 0.623 0.7389
H144 H 1.0172 0.6832 0.7497
C57 C 1.0469(3) 0.5688(3) 0.73632(13)
H145 H 1.0391 0.5328 0.7528
H146 H 1.0355 0.5363 0.7179
N28 N 1.1207(2) 0.5899(3) 0.74070(10)
H147 H 1.1307 0.6239 0.7569
H148 H 1.1452 0.5421 0.7449
C58 C 1.1435(3) 0.6313(3) 0.71497(11)
H149 H 1.118 0.6835 0.7107
H150 H 1.1321 0.5953 0.6974
C59 C 1.2193(3) 0.6510(3) 0.71954(12)
C60 C 1.2624(3) 0.5776(4) 0.73255(14)
H151 H 1.2553 0.5678 0.7529
H152 H 1.3101 0.5898 0.7326
H153 H 1.2492 0.5284 0.7206
H154 H 1.227(3) 0.834(4) 0.7211(15)
H155 H 1.050(4) 0.725(3) 0.6717(16)
H156 H 0.973(4) 0.642(4) 0.6947(14)
N29 N 0.4212(2) 0.3864(3) 0.48503(10)
H157 H 0.4394 0.3955 0.4685
H158 H 0.4535 0.3662 0.4996
H159 H 0.4049 0.4347 0.4911
C61 C 0.3645(3) 0.3247(3) 0.47821(12)
C62 C 0.3069(3) 0.3611(3) 0.45587(12)
H160 H 0.3265 0.3937 0.4412
H161 H 0.2809 0.3151 0.4452
N30 N 0.2598(2) 0.4146(3) 0.46880(9)
H162 H 0.2841 0.4565 0.4791
H163 H 0.2408 0.3839 0.4821
C63 C 0.2042(3) 0.4519(3) 0.44694(12)
H164 H 0.2241 0.4873 0.4331
H165 H 0.1762 0.4874 0.4576
C64 C 0.1597(3) 0.3869(3) 0.42945(12)
H166 H 0.1212 0.4141 0.4167
H167 H 0.1859 0.3566 0.4165
N31 N 0.1344(2) 0.3289(3) 0.44929(10)
C65 C 0.0931(3) 0.2627(4) 0.43312(13)
H168 H 0.1001 0.2629 0.4123
H169 H 0.0449 0.2746 0.4332
C66 C 0.3439(3) 0.3027(3) 0.50814(11)
H170 H 0.3807 0.2713 0.5204
H171 H 0.3363 0.3539 0.5188
N32 N 0.2821(2) 0.2529(3) 0.50329(10)
C67 C 0.2592(3) 0.2270(4) 0.53030(12)
H172 H 0.249 0.2758 0.5417
H173 H 0.2947 0.1942 0.5428
C68 C 0.1966(3) 0.1755(4) 0.52133(13)
H174 H 0.2083 0.1241 0.5117
H175 H 0.1777 0.1601 0.5391
N33 N 0.1447(2) 0.2230(3) 0.50032(10)
H176 H 0.1669 0.2591 0.4899
H177 H 0.1196 0.2539 0.5112
C69 C 0.0969(3) 0.1715(4) 0.47847(12)
H178 H 0.0502 0.1898 0.4789
H179 H 0.1007 0.1131 0.485
C70 C 0.3941(3) 0.2506(3) 0.46366(12)
H180 H 0.4117 0.2699 0.446
H181 H 0.4323 0.2274 0.4777
N34 N 0.3439(2) 0.1854(3) 0.45485(10)
C71 C 0.3245(3) 0.1732(3) 0.42328(12)
H182 H 0.3648 0.1568 0.4149
H183 H 0.3077 0.2261 0.414
C72 C 0.2702(3) 0.1077(4) 0.41560(13)
H184 H 0.2726 0.086 0.3956
H185 H 0.2805 0.0614 0.4297
N35 N 0.1992(2) 0.1361(3) 0.41598(10)
H186 H 0.1917 0.184 0.4051
H187 H 0.1699 0.0969 0.4068
C73 C 0.1834(3) 0.1517(4) 0.44618(12)
H188 H 0.2133 0.1962 0.4557
H189 H 0.1937 0.1011 0.4582
C74 C 0.1098(3) 0.1763(3) 0.44626(12)
C75 C 0.0598(3) 0.1144(4) 0.42896(13)
H190 H 0.0597 0.1208 0.4077
H191 H 0.0144 0.1251 0.4331
H192 H 0.0734 0.058 0.435
H193 H 0.111(3) 0.350(4) 0.4600(15)
H194 H 0.291(4) 0.211(3) 0.4933(15)
H195 H 0.361(4) 0.144(3) 0.4644(15)
N36 N 0.9015(2) 0.4100(3) 0.46717(10)
H196 H 0.8825 0.4577 0.4722
H197 H 0.9121 0.4153 0.4488
H198 H 0.9397 0.3994 0.4804
C76 C 0.8526(3) 0.3401(3) 0.46732(12)
C77 C 0.7897(3) 0.3552(3) 0.44408(12)
H199 H 0.8037 0.378 0.4261
H200 H 0.7671 0.3016 0.4387
N37 N 0.7404(2) 0.4125(3) 0.45396(10)
H201 H 0.7623 0.4605 0.4606
H202 H 0.7243 0.389 0.4696
C78 C 0.6815(3) 0.4334(3) 0.43007(12)
H203 H 0.6495 0.4689 0.4385
H204 H 0.6979 0.465 0.4143
C79 C 0.6453(3) 0.3572(3) 0.41695(12)
H205 H 0.6046 0.3733 0.4028
H206 H 0.6752 0.3253 0.4061
N38 N 0.6257(2) 0.3057(3) 0.44038(10)
C80 C 0.5951(3) 0.2268(3) 0.42920(12)
H207 H 0.6082 0.2148 0.4098
H208 H 0.5454 0.2323 0.4261
C81 C 0.8364(3) 0.3337(3) 0.49881(13)
H209 H 0.8762 0.3121 0.5124
H210 H 0.8259 0.3892 0.5058
N39 N 0.7788(2) 0.2786(3) 0.49895(10)
C82 C 0.7544(3) 0.2719(4) 0.52696(12)
H211 H 0.7395 0.3266 0.533
H212 H 0.7909 0.2515 0.5426
C83 C 0.6961(3) 0.2123(3) 0.52275(12)
H213 H 0.7122 0.1568 0.5182
H214 H 0.6774 0.2084 0.5413
N40 N 0.6421(2) 0.2400(3) 0.49815(9)
H215 H 0.6619 0.2703 0.485
H216 H 0.6133 0.2747 0.5059
C84 C 0.6006(3) 0.1719(3) 0.48128(12)
H217 H 0.5523 0.1869 0.4792
H218 H 0.6075 0.1207 0.4932
C85 C 0.8891(3) 0.2619(3) 0.45848(13)
H219 H 0.9023 0.2709 0.4389
H220 H 0.9308 0.2528 0.473
N41 N 0.8464(2) 0.1885(3) 0.45721(10)
C86 C 0.8306(3) 0.1505(4) 0.42804(13)
H221 H 0.8731 0.1339 0.4215
H222 H 0.8078 0.1915 0.4137
C87 C 0.7855(3) 0.0754(3) 0.42811(14)
H223 H 0.8003 0.0439 0.4466
H224 H 0.7913 0.0392 0.4114
N42 N 0.7111(2) 0.0963(3) 0.42576(10)
H225 H 0.6992 0.1321 0.4102
H226 H 0.6864 0.0487 0.4215
C88 C 0.6924(3) 0.1344(3) 0.45306(12)
H227 H 0.7181 0.1863 0.4575
H228 H 0.7059 0.0964 0.4699
C89 C 0.6165(3) 0.1534(3) 0.45030(12)
C90 C 0.5734(3) 0.0783(4) 0.43900(13)
H229 H 0.5756 0.0692 0.4181
H230 H 0.5265 0.0882 0.4412
H231 H 0.5906 0.0294 0.4505
H232 H 0.599(3) 0.334(4) 0.4472(16)
H233 H 0.791(4) 0.232(3) 0.4944(16)
H234 H 0.866(3) 0.159(4) 0.4701(13)
O1 O 0.6237(3) 0.4206(3) 0.34384(12)
O2 O 0.03071(19) 0.3585(2) 0.49235(9)
O3 O 0.2486(3) 0.8980(3) 0.42008(9)
O4 O 0.9465(3) 0.0798(4) 0.50024(17)
O5 O 0.7482(2) 0.5494(4) 0.61784(10)
O6 O 0.1299(3) 0.4415(4) 0.68030(14)
O7 O 0.2685(3) 0.4056(3) 0.67801(12)
O8 O 0.5448(3) 0.9080(4) 0.49335(14)
O9 O 0.0793(3) 1.0247(4) 0.54924(15)
O10 O 0.7025(10) 0.9662(11) 0.4985(3)
O11 O 0.5137(6) 0.5404(6) 0.6578(2)
O12 O 1.0882(4) 0.5984(5) 0.5924(2)
O13 O 0.9218(3) 0.4909(4) 0.69567(14)
O14 O 0.6348(4) 0.4331(4) 0.68932(14)
Cl25? Cl 0.2993(8) 0.5677(7) 0.3230(2)
O15? O 0.6827(9) 0.9448(11) 0.4877(3)
O16? O 0.5075(6) 0.5640(7) 0.6434(3)
O17? O 1.0363(4) 0.5953(5) 0.5842(2)
O18? O 0.8753(13) 0.5804(16) 0.6507(6)
loop_
_geom_bond_atom_site_label_1
_geom_bond_atom_site_label_2
_geom_bond_site_symmetry_1
_geom_bond_site_symmetry_2
N1 H1 1_555 1_555
H2 N1 1_555 1_555
H3 N1 1_555 1_555
C1 N1 1_555 1_555
C2 C1 1_555 1_555
H4 C2 1_555 1_555
H5 C2 1_555 1_555
N2 C2 1_555 1_555
H6 N2 1_555 1_555
H7 N2 1_555 1_555
C3 N2 1_555 1_555
H8 C3 1_555 1_555
H9 C3 1_555 1_555
C4 C3 1_555 1_555
H10 C4 1_555 1_555
H11 C4 1_555 1_555
N3 C4 1_555 1_555
C5 N3 1_555 1_555
H12 C5 1_555 1_555
H13 C5 1_555 1_555
C6 C1 1_555 1_555
H14 C6 1_555 1_555
H15 C6 1_555 1_555
N4 C6 1_555 1_555
C7 N4 1_555 1_555
H16 C7 1_555 1_555
H17 C7 1_555 1_555
C8 C7 1_555 1_555
H18 C8 1_555 1_555
H19 C8 1_555 1_555
N5 C8 1_555 1_555
H20 N5 1_555 1_555
H21 N5 1_555 1_555
C9 N5 1_555 1_555
H22 C9 1_555 1_555
H23 C9 1_555 1_555
C10 C1 1_555 1_555
H24 C10 1_555 1_555
H25 C10 1_555 1_555
N6 C10 1_555 1_555
C11 N6 1_555 1_555
H26 C11 1_555 1_555
H27 C11 1_555 1_555
C12 C11 1_555 1_555
H28 C12 1_555 1_555
H29 C12 1_555 1_555
N7 C12 1_555 1_555
H30 N7 1_555 1_555
H31 N7 1_555 1_555
C13 N7 1_555 1_555
H32 C13 1_555 1_555
H33 C13 1_555 1_555
C14 C5 1_555 1_555
C15 C14 1_555 1_555
H34 C15 1_555 1_555
H35 C15 1_555 1_555
H36 C15 1_555 1_555
H37 N3 1_555 1_555
H38 N4 1_555 1_555
H39 N6 1_555 1_555
N8 H40 1_555 1_555
H41 N8 1_555 1_555
H42 N8 1_555 1_555
C16 N8 1_555 1_555
C17 C16 1_555 1_555
H43 C17 1_555 1_555
H44 C17 1_555 1_555
N9 C17 1_555 1_555
H45 N9 1_555 1_555
H46 N9 1_555 1_555
C18 N9 1_555 1_555
H47 C18 1_555 1_555
H48 C18 1_555 1_555
C19 C18 1_555 1_555
H49 C19 1_555 1_555
H50 C19 1_555 1_555
N10 C19 1_555 1_555
C20 N10 1_555 1_555
H51 C20 1_555 1_555
H52 C20 1_555 1_555
C21 C16 1_555 1_555
H53 C21 1_555 1_555
H54 C21 1_555 1_555
N11 C21 1_555 1_555
C22 N11 1_555 1_555
H55 C22 1_555 1_555
H56 C22 1_555 1_555
C23 C22 1_555 1_555
H57 C23 1_555 1_555
H58 C23 1_555 1_555
N12 C23 1_555 1_555
H59 N12 1_555 1_555
H60 N12 1_555 1_555
C24 N12 1_555 1_555
H61 C24 1_555 1_555
H62 C24 1_555 1_555
C25 C16 1_555 1_555
H63 C25 1_555 1_555
H64 C25 1_555 1_555
N13 C25 1_555 1_555
C26 N13 1_555 1_555
H65 C26 1_555 1_555
H66 C26 1_555 1_555
C27 C26 1_555 1_555
H67 C27 1_555 1_555
H68 C27 1_555 1_555
N14 C27 1_555 1_555
H69 N14 1_555 1_555
H70 N14 1_555 1_555
C28 N14 1_555 1_555
H71 C28 1_555 1_555
H72 C28 1_555 1_555
C29 C20 1_555 1_555
C30 C29 1_555 1_555
H73 C30 1_555 1_555
H74 C30 1_555 1_555
H75 C30 1_555 1_555
H76 N10 1_555 1_555
H77 N11 1_555 1_555
H78 N13 1_555 1_555
N15 H79 1_555 1_555
H80 N15 1_555 1_555
H81 N15 1_555 1_555
C31 N15 1_555 1_555
C32 C31 1_555 1_555
H82 C32 1_555 1_555
H83 C32 1_555 1_555
N16 C32 1_555 1_555
H84 N16 1_555 1_555
H85 N16 1_555 1_555
C33 N16 1_555 1_555
H86 C33 1_555 1_555
H87 C33 1_555 1_555
C34 C33 1_555 1_555
H88 C34 1_555 1_555
H89 C34 1_555 1_555
N17 C34 1_555 1_555
C35 N17 1_555 1_555
H90 C35 1_555 1_555
H91 C35 1_555 1_555
C36 C31 1_555 1_555
H92 C36 1_555 1_555
H93 C36 1_555 1_555
N18 C36 1_555 1_555
C37 N18 1_555 1_555
H94 C37 1_555 1_555
H95 C37 1_555 1_555
C38 C37 1_555 1_555
H96 C38 1_555 1_555
H97 C38 1_555 1_555
N19 C38 1_555 1_555
H98 N19 1_555 1_555
H99 N19 1_555 1_555
C39 N19 1_555 1_555
H100 C39 1_555 1_555
H101 C39 1_555 1_555
C40 C31 1_555 1_555
H102 C40 1_555 1_555
H103 C40 1_555 1_555
N20 C40 1_555 1_555
C41 N20 1_555 1_555
H104 C41 1_555 1_555
H105 C41 1_555 1_555
C42 C41 1_555 1_555
H106 C42 1_555 1_555
H107 C42 1_555 1_555
N21 C42 1_555 1_555
H108 N21 1_555 1_555
H109 N21 1_555 1_555
C43 N21 1_555 1_555
H110 C43 1_555 1_555
H111 C43 1_555 1_555
C44 C35 1_555 1_555
C45 C44 1_555 1_555
H112 C45 1_555 1_555
H113 C45 1_555 1_555
H114 C45 1_555 1_555
H115 N17 1_555 1_555
H116 N18 1_555 1_555
H117 N20 1_555 1_555
N22 H118 1_555 1_555
H119 N22 1_555 1_555
H120 N22 1_555 1_555
C46 N22 1_555 1_555
C47 C46 1_555 1_555
H121 C47 1_555 1_555
H122 C47 1_555 1_555
N23 C47 1_555 1_555
H123 N23 1_555 1_555
H124 N23 1_555 1_555
C48 N23 1_555 1_555
H125 C48 1_555 1_555
H126 C48 1_555 1_555
C49 C48 1_555 1_555
H127 C49 1_555 1_555
H128 C49 1_555 1_555
N24 C49 1_555 1_555
C50 N24 1_555 1_555
H129 C50 1_555 1_555
H130 C50 1_555 1_555
C51 C46 1_555 1_555
H131 C51 1_555 1_555
H132 C51 1_555 1_555
N25 C51 1_555 1_555
C52 N25 1_555 1_555
H133 C52 1_555 1_555
H134 C52 1_555 1_555
C53 C52 1_555 1_555
H135 C53 1_555 1_555
H136 C53 1_555 1_555
N26 C53 1_555 1_555
H137 N26 1_555 1_555
H138 N26 1_555 1_555
C54 N26 1_555 1_555
H139 C54 1_555 1_555
H140 C54 1_555 1_555
C55 C46 1_555 1_555
H141 C55 1_555 1_555
H142 C55 1_555 1_555
N27 C55 1_555 1_555
C56 N27 1_555 1_555
H143 C56 1_555 1_555
H144 C56 1_555 1_555
C57 C56 1_555 1_555
H145 C57 1_555 1_555
H146 C57 1_555 1_555
N28 C57 1_555 1_555
H147 N28 1_555 1_555
H148 N28 1_555 1_555
C58 N28 1_555 1_555
H149 C58 1_555 1_555
H150 C58 1_555 1_555
C59 C50 1_555 1_555
C60 C59 1_555 1_555
H151 C60 1_555 1_555
H152 C60 1_555 1_555
H153 C60 1_555 1_555
H154 N24 1_555 1_555
H155 N25 1_555 1_555
H156 N27 1_555 1_555
N29 H157 1_555 1_555
H158 N29 1_555 1_555
H159 N29 1_555 1_555
C61 N29 1_555 1_555
C62 C61 1_555 1_555
H160 C62 1_555 1_555
H161 C62 1_555 1_555
N30 C62 1_555 1_555
H162 N30 1_555 1_555
H163 N30 1_555 1_555
C63 N30 1_555 1_555
H164 C63 1_555 1_555
H165 C63 1_555 1_555
C64 C63 1_555 1_555
H166 C64 1_555 1_555
H167 C64 1_555 1_555
N31 C64 1_555 1_555
C65 N31 1_555 1_555
H168 C65 1_555 1_555
H169 C65 1_555 1_555
C66 C61 1_555 1_555
H170 C66 1_555 1_555
H171 C66 1_555 1_555
N32 C66 1_555 1_555
C67 N32 1_555 1_555
H172 C67 1_555 1_555
H173 C67 1_555 1_555
C68 C67 1_555 1_555
H174 C68 1_555 1_555
H175 C68 1_555 1_555
N33 C68 1_555 1_555
H176 N33 1_555 1_555
H177 N33 1_555 1_555
C69 N33 1_555 1_555
H178 C69 1_555 1_555
H179 C69 1_555 1_555
C70 C61 1_555 1_555
H180 C70 1_555 1_555
H181 C70 1_555 1_555
N34 C70 1_555 1_555
C71 N34 1_555 1_555
H182 C71 1_555 1_555
H183 C71 1_555 1_555
C72 C71 1_555 1_555
H184 C72 1_555 1_555
H185 C72 1_555 1_555
N35 C72 1_555 1_555
H186 N35 1_555 1_555
H187 N35 1_555 1_555
C73 N35 1_555 1_555
H188 C73 1_555 1_555
H189 C73 1_555 1_555
C74 C65 1_555 1_555
C75 C74 1_555 1_555
H190 C75 1_555 1_555
H191 C75 1_555 1_555
H192 C75 1_555 1_555
H193 N31 1_555 1_555
H194 N32 1_555 1_555
H195 N34 1_555 1_555
N36 H196 1_555 1_555
H197 N36 1_555 1_555
H198 N36 1_555 1_555
C76 N36 1_555 1_555
C77 C76 1_555 1_555
H199 C77 1_555 1_555
H200 C77 1_555 1_555
N37 C77 1_555 1_555
H201 N37 1_555 1_555
H202 N37 1_555 1_555
C78 N37 1_555 1_555
H203 C78 1_555 1_555
H204 C78 1_555 1_555
C79 C78 1_555 1_555
H205 C79 1_555 1_555
H206 C79 1_555 1_555
N38 C79 1_555 1_555
C80 N38 1_555 1_555
H207 C80 1_555 1_555
H208 C80 1_555 1_555
C81 C76 1_555 1_555
H209 C81 1_555 1_555
H210 C81 1_555 1_555
N39 C81 1_555 1_555
C82 N39 1_555 1_555
H211 C82 1_555 1_555
H212 C82 1_555 1_555
C83 C82 1_555 1_555
H213 C83 1_555 1_555
H214 C83 1_555 1_555
N40 C83 1_555 1_555
H215 N40 1_555 1_555
H216 N40 1_555 1_555
C84 N40 1_555 1_555
H217 C84 1_555 1_555
H218 C84 1_555 1_555
C85 C76 1_555 1_555
H219 C85 1_555 1_555
H220 C85 1_555 1_555
N41 C85 1_555 1_555
C86 N41 1_555 1_555
H221 C86 1_555 1_555
H222 C86 1_555 1_555
C87 C86 1_555 1_555
H223 C87 1_555 1_555
H224 C87 1_555 1_555
N42 C87 1_555 1_555
H225 N42 1_555 1_555
H226 N42 1_555 1_555
C88 N42 1_555 1_555
H227 C88 1_555 1_555
H228 C88 1_555 1_555
C89 C80 1_555 1_555
C90 C89 1_555 1_555
H229 C90 1_555 1_555
H230 C90 1_555 1_555
H231 C90 1_555 1_555
H232 N38 1_555 1_555
H233 N39 1_555 1_555
H234 N41 1_555 1_555
C9 C14 1_555 1_555
C13 C14 1_555 1_555
C24 C29 1_555 1_555
C28 C29 1_555 1_555
C39 C44 1_555 1_555
C43 C44 1_555 1_555
C54 C59 1_555 1_555
C58 C59 1_555 1_555
C69 C74 1_555 1_555
C73 C74 1_555 1_555
C84 C89 1_555 1_555
C88 C89 1_555 1_555

#END
