
#######################################################################
#
#                 Cambridge Crystallographic Data Centre
#                                CCDC 
#
#######################################################################
#
# If this CIF has been generated from an entry in the Cambridge 
# Structural Database, then it will include bibliographic, chemical, 
# crystal, experimental, refinement or atomic coordinate data resulting 
# from the CCDC's data processing and validation procedures.
#
#######################################################################

data_HUMCIC
_chemical_formula_moiety         'C15 H35 Mg1 N7 2+,2(Cl1 O4 1-),3.5(H2 O1)'
_chemical_name_systematic        
'(8-Methyl-3,6,10,13,16,19-hexa-azabicyclo[6.6.6]icosan-1-amine)-magnesium diperchlorate hydrate'
_symmetry_cell_setting           triclinic
_symmetry_space_group_name_H-M   'P -1'
_symmetry_Int_Tables_number      2
_space_group_name_Hall           '-P 1'
loop_
_symmetry_equiv_pos_site_id
_symmetry_equiv_pos_as_xyz
1 x,y,z
2 -x,-y,-z
_cell_length_a                   9.067(2)
_cell_length_b                   9.326(2)
_cell_length_c                   17.522(4)
_cell_angle_alpha                100.254(3)
_cell_angle_beta                 98.903(3)
_cell_angle_gamma                108.647(3)
_cell_volume                     1345.37
_exptl_crystal_colour            colorless
_exptl_crystal_description       prism
_cell_formula_units_Z            2
loop_
_atom_site_label
_atom_site_type_symbol
_atom_site_fract_x
_atom_site_fract_y
_atom_site_fract_z
Mg1 Mg 0.31652(6) 0.14108(6) 0.24885(3)
C1 C -0.0145(2) 0.3686(2) 0.11836(12)
H1 H 0.0115 0.4745 0.1472
H2 H -0.1241 0.3097 0.1160
H3 H 0.0012 0.3670 0.0653
C2 C 0.0938(2) 0.2966(2) 0.16082(10)
C3 C 0.2679(2) 0.3942(2) 0.16410(12)
H4 H 0.2731 0.4255 0.1144
H5 H 0.3017 0.4882 0.2065
N1 N 0.38121(16) 0.31123(16) 0.17763(8)
H6 H 0.3809 0.2573 0.1289
C4 C 0.5475(2) 0.4180(2) 0.21305(11)
H7 H 0.5502 0.4960 0.2585
H8 H 0.5909 0.4712 0.1742
C5 C 0.6464(2) 0.3247(2) 0.23899(11)
H9 H 0.6494 0.2514 0.1930
H10 H 0.7551 0.3940 0.2642
N2 N 0.57510(16) 0.23905(16) 0.29580(8)
H11 H 0.5937 0.3113 0.3420
C6 C 0.6501(2) 0.1265(2) 0.31516(11)
H12 H 0.7420 0.1806 0.3594
H13 H 0.6888 0.0896 0.2697
C7 C 0.0463(2) 0.1275(2) 0.11221(10)
H14 H -0.0691 0.0834 0.0939
H15 H 0.0914 0.1292 0.0655
N3 N 0.09888(17) 0.02416(16) 0.15635(8)
H16 H 0.0199 -0.0176 0.1810
C8 C 0.1177(2) -0.1082(2) 0.10347(10)
H17 H 0.1817 -0.0704 0.0667
H18 H 0.0138 -0.1805 0.0727
C9 C 0.1980(2) -0.1902(2) 0.15304(11)
H19 H 0.1305 -0.2346 0.1871
H20 H 0.2151 -0.2743 0.1186
N4 N 0.35322(17) -0.07659(16) 0.20234(8)
H21 H 0.4205 -0.0556 0.1689
C10 C 0.4273(2) -0.1407(2) 0.26278(10)
H22 H 0.4879 -0.1974 0.2385
H23 H 0.3432 -0.2146 0.2792
C11 C 0.0626(2) 0.3012(2) 0.24517(11)
H24 H 0.0533 0.4007 0.2661
H25 H -0.0389 0.2201 0.2413
N5 N 0.18826(17) 0.27981(17) 0.30251(8)
H26 H 0.2616 0.3764 0.3269
C12 C 0.1252(2) 0.2099(2) 0.36569(10)
H27 H 0.0307 0.1173 0.3420
H28 H 0.0956 0.2837 0.4007
C13 C 0.2518(2) 0.1675(2) 0.41252(10)
H29 H 0.3438 0.2610 0.4389
H30 H 0.2107 0.1183 0.4530
N6 N 0.30016(16) 0.05898(17) 0.35792(8)
H31 H 0.2182 -0.0347 0.3441
C14 C 0.4440(2) 0.0321(2) 0.39621(10)
H32 H 0.4109 -0.0489 0.4245
H33 H 0.5139 0.1269 0.4351
C15 C 0.5386(2) -0.0161(2) 0.33717(10)
N7 N 0.63295(19) -0.0950(2) 0.37741(10)
H34 H 0.6943 -0.1221 0.3460
H35 H 0.6959 -0.0304 0.4237
Cl1 Cl 0.02035(6) -0.30565(6) 0.40602(3)
O1 O -0.0289(15) -0.4702(13) 0.4097(6)
O2 O -0.1016(13) -0.2573(17) 0.4189(7)
O3 O 0.1637(13) -0.2049(16) 0.4672(7)
O4 O 0.0493(19) -0.292(2) 0.3296(9)
Cl2 Cl 0.4364(9) 0.1861(8) -0.0472(4)
O5 O 0.394(2) 0.0405(15) -0.0970(11)
O6 O 0.5796(11) 0.2443(14) 0.0114(5)
O7 O 0.3135(11) 0.1815(9) -0.0060(6)
O8 O 0.4521(10) 0.3008(7) -0.0983(3)
O9 O 0.46741(18) 0.59682(17) 0.39966(8)
H36 H 0.5406 0.5657 0.4184
H37 H 0.5083 0.6881 0.3930
O10 O 0.33232(18) 0.55232(18) 0.53316(9)
H38 H 0.3506 0.5789 0.4906
H39 H 0.2318 0.5277 0.5270
O11 O 0.8427(2) -0.1585(2) 0.24046(11)
H40 H 0.7804 -0.2050 0.1950
H41 H 0.8869 -0.2219 0.2524
O12 O 0.2223(10) 0.4305(10) -0.0636(5)
Cl3? Cl 0.4253(5) 0.1935(4) -0.05213(17)
O13? O 0.0069(16) -0.4455(13) 0.4218(7)
O14? O -0.1403(14) -0.2956(16) 0.3869(7)
O15? O 0.1079(14) -0.1904(17) 0.4691(7)
O16? O 0.088(2) -0.293(2) 0.3396(9)
O17? O 0.3772(16) 0.0497(18) -0.1135(11)
O18? O 0.5764(11) 0.2585(16) -0.0367(7)
O19? O 0.3571(17) 0.1746(17) 0.0070(7)
O20? O 0.3372(17) 0.2842(15) -0.0828(6)
loop_
_geom_bond_atom_site_label_1
_geom_bond_atom_site_label_2
_geom_bond_site_symmetry_1
_geom_bond_site_symmetry_2
Mg1 N1 1_555 1_555
C1 H1 1_555 1_555
H2 C1 1_555 1_555
H3 C1 1_555 1_555
C2 C1 1_555 1_555
C3 C2 1_555 1_555
H4 C3 1_555 1_555
H5 C3 1_555 1_555
N1 C3 1_555 1_555
H6 N1 1_555 1_555
C4 N1 1_555 1_555
H7 C4 1_555 1_555
H8 C4 1_555 1_555
C5 C4 1_555 1_555
H9 C5 1_555 1_555
H10 C5 1_555 1_555
N2 Mg1 1_555 1_555
H11 N2 1_555 1_555
C6 N2 1_555 1_555
H12 C6 1_555 1_555
H13 C6 1_555 1_555
C7 C2 1_555 1_555
H14 C7 1_555 1_555
H15 C7 1_555 1_555
N3 Mg1 1_555 1_555
H16 N3 1_555 1_555
C8 N3 1_555 1_555
H17 C8 1_555 1_555
H18 C8 1_555 1_555
C9 C8 1_555 1_555
H19 C9 1_555 1_555
H20 C9 1_555 1_555
N4 Mg1 1_555 1_555
H21 N4 1_555 1_555
C10 N4 1_555 1_555
H22 C10 1_555 1_555
H23 C10 1_555 1_555
C11 C2 1_555 1_555
H24 C11 1_555 1_555
H25 C11 1_555 1_555
N5 Mg1 1_555 1_555
H26 N5 1_555 1_555
C12 N5 1_555 1_555
H27 C12 1_555 1_555
H28 C12 1_555 1_555
C13 C12 1_555 1_555
H29 C13 1_555 1_555
H30 C13 1_555 1_555
N6 Mg1 1_555 1_555
H31 N6 1_555 1_555
C14 N6 1_555 1_555
H32 C14 1_555 1_555
H33 C14 1_555 1_555
C15 C6 1_555 1_555
N7 C15 1_555 1_555
H34 N7 1_555 1_555
H35 N7 1_555 1_555
Cl1 O1 1_555 1_555
O2 Cl1 1_555 1_555
O3 Cl1 1_555 1_555
O4 Cl1 1_555 1_555
Cl2 O5 1_555 1_555
O6 Cl2 1_555 1_555
O7 Cl2 1_555 1_555
O8 Cl2 1_555 1_555
O9 H36 1_555 1_555
H37 O9 1_555 1_555
O10 H38 1_555 1_555
H39 O10 1_555 1_555
O11 H40 1_555 1_555
H41 O11 1_555 1_555
C5 N2 1_555 1_555
C7 N3 1_555 1_555
C9 N4 1_555 1_555
C10 C15 1_555 1_555
C11 N5 1_555 1_555
C13 N6 1_555 1_555
C14 C15 1_555 1_555

#END
