
#######################################################################
#
#                 Cambridge Crystallographic Data Centre
#                                CCDC 
#
#######################################################################
#
# If this CIF has been generated from an entry in the Cambridge 
# Structural Database, then it will include bibliographic, chemical, 
# crystal, experimental, refinement or atomic coordinate data resulting 
# from the CCDC's data processing and validation procedures.
#
#######################################################################

data_HUMJUW
_chemical_formula_moiety         'C15 H18 N2 O2 S1,C2 H4 O2'
_chemical_name_systematic        
'2,4,6-Trimethyl-N-(6-methylpyridin-2-yl)benzenesulfonamide acetic acid'
_symmetry_cell_setting           triclinic
_symmetry_space_group_name_H-M   'P -1'
_symmetry_Int_Tables_number      2
_space_group_name_Hall           '-P 1'
loop_
_symmetry_equiv_pos_site_id
_symmetry_equiv_pos_as_xyz
1 x,y,z
2 -x,-y,-z
_cell_length_a                   7.9551(7)
_cell_length_b                   8.8780(8)
_cell_length_c                   13.9793(12)
_cell_angle_alpha                101.2458(12)
_cell_angle_beta                 90.5899(12)
_cell_angle_gamma                115.4199(10)
_cell_volume                     869.65
_exptl_crystal_colour            colorless
_exptl_crystal_description       block
_cell_formula_units_Z            2
loop_
_atom_site_label
_atom_site_type_symbol
_atom_site_fract_x
_atom_site_fract_y
_atom_site_fract_z
S1 S 0.52490(4) 0.15765(4) 0.22346(2)
O1 O 0.51631(14) 0.00817(12) 0.25208(7)
O2 O 0.35314(13) 0.15864(12) 0.19261(7)
N1 N 0.69825(16) 0.56838(14) 0.42558(8)
N2 N 0.62855(17) 0.31180(14) 0.32041(8)
H1 H 0.666(3) 0.282(3) 0.3686(19)
C1 C 0.63794(18) 0.47477(16) 0.33374(9)
C2 C 0.71512(19) 0.72987(17) 0.44860(10)
C3 C 0.6695(2) 0.80161(17) 0.37911(11)
H2 H 0.6795 0.9143 0.3961
C4 C 0.6087(2) 0.70476(18) 0.28371(11)
H3 H 0.5778 0.7520 0.2347
C5 C 0.5929(2) 0.54059(17) 0.25966(10)
H4 H 0.5525 0.4742 0.1945
C6 C 0.7892(2) 0.82699(19) 0.55255(11)
H5 H 0.7260 0.7536 0.5976
H6 H 0.7659 0.9285 0.5657
H7 H 0.9242 0.8622 0.5620
C7 C 0.67861(17) 0.20362(16) 0.13053(9)
C8 C 0.62153(18) 0.22380(17) 0.03947(10)
C9 C 0.74838(19) 0.25246(18) -0.03085(10)
H8 H 0.7121 0.2666 -0.0922
C10 C 0.9248(2) 0.26123(19) -0.01509(11)
C11 C 0.97672(19) 0.24052(19) 0.07510(10)
H9 H 1.0976 0.2467 0.0868
C12 C 0.85743(18) 0.21099(16) 0.14879(10)
C13 C 0.43349(19) 0.21388(19) 0.00909(10)
H10 H 0.4261 0.2190 -0.0601
H11 H 0.4188 0.3101 0.0494
H12 H 0.3337 0.1061 0.0184
C14 C 1.0535(2) 0.2880(3) -0.09517(12)
H13 H 1.0122 0.1811 -0.1448
H14 H 1.1815 0.3229 -0.0670
H15 H 1.0505 0.3773 -0.1257
C15 C 0.92899(19) 0.18510(19) 0.24173(10)
H16 H 1.0566 0.1969 0.2366
H17 H 0.8475 0.0705 0.2512
H18 H 0.9293 0.2711 0.2977
O3 O 0.79216(18) 0.47276(13) 0.57885(8)
H20 H 0.756(4) 0.489(4) 0.529(2)
O4 O 0.75826(18) 0.22701(14) 0.48352(8)
C16 C 0.79743(19) 0.32612(17) 0.56443(10)
C17 C 0.8522(2) 0.28456(19) 0.65526(11)
H21 H 0.7409 0.1999 0.6767
H22 H 0.9086 0.3887 0.7073
H23 H 0.9430 0.2378 0.6412
H19? H 0.737(6) 0.533(6) 0.472(3)
loop_
_geom_bond_atom_site_label_1
_geom_bond_atom_site_label_2
_geom_bond_site_symmetry_1
_geom_bond_site_symmetry_2
S1 O1 1_555 1_555
O2 S1 1_555 1_555
N1 C1 1_555 1_555
N2 S1 1_555 1_555
H1 N2 1_555 1_555
C1 N2 1_555 1_555
C2 N1 1_555 1_555
C3 C2 1_555 1_555
H2 C3 1_555 1_555
C4 C3 1_555 1_555
H3 C4 1_555 1_555
C5 C1 1_555 1_555
H4 C5 1_555 1_555
C6 C2 1_555 1_555
H5 C6 1_555 1_555
H6 C6 1_555 1_555
H7 C6 1_555 1_555
C7 S1 1_555 1_555
C8 C7 1_555 1_555
C9 C8 1_555 1_555
H8 C9 1_555 1_555
C10 C9 1_555 1_555
C11 C10 1_555 1_555
H9 C11 1_555 1_555
C12 C7 1_555 1_555
C13 C8 1_555 1_555
H10 C13 1_555 1_555
H11 C13 1_555 1_555
H12 C13 1_555 1_555
C14 C10 1_555 1_555
H13 C14 1_555 1_555
H14 C14 1_555 1_555
H15 C14 1_555 1_555
C15 C12 1_555 1_555
H16 C15 1_555 1_555
H17 C15 1_555 1_555
H18 C15 1_555 1_555
O3 H20 1_555 1_555
O4 C16 1_555 1_555
C16 O3 1_555 1_555
C17 C16 1_555 1_555
H21 C17 1_555 1_555
H22 C17 1_555 1_555
H23 C17 1_555 1_555
C4 C5 1_555 1_555
C11 C12 1_555 1_555

#END
