
#######################################################################
#
#                 Cambridge Crystallographic Data Centre
#                                CCDC 
#
#######################################################################
#
# If this CIF has been generated from an entry in the Cambridge 
# Structural Database, then it will include bibliographic, chemical, 
# crystal, experimental, refinement or atomic coordinate data resulting 
# from the CCDC's data processing and validation procedures.
#
#######################################################################

data_HUMJEG
_chemical_formula_moiety         'C12 H12 Cl1 N3 O3'
_chemical_name_systematic        
N'-((E)-2-Chlorobenzylidene)-N-methyl-2-oxo-1,3-oxazolidine-4-carbohydrazide
_symmetry_cell_setting           monoclinic
_symmetry_space_group_name_H-M   'P 21/c'
_symmetry_Int_Tables_number      14
_space_group_name_Hall           '-P 2ybc'
loop_
_symmetry_equiv_pos_site_id
_symmetry_equiv_pos_as_xyz
1 x,y,z
2 -x,1/2+y,1/2-z
3 -x,-y,-z
4 x,1/2-y,1/2+z
_cell_length_a                   15.7925(11)
_cell_length_b                   13.7715(4)
_cell_length_c                   11.3887(3)
_cell_angle_alpha                90
_cell_angle_beta                 94.350(7)
_cell_angle_gamma                90
_cell_volume                     2469.75
_exptl_crystal_colour            colorless
_exptl_crystal_description       'cut needle'
_cell_formula_units_Z            8
loop_
_atom_site_label
_atom_site_type_symbol
_atom_site_fract_x
_atom_site_fract_y
_atom_site_fract_z
C1 C -0.08148(9) 0.15608(10) 0.75150(12)
C2 C -0.14794(9) 0.21323(11) 0.78375(12)
H1 H -0.1768 0.1974 0.8515
C3 C -0.17192(9) 0.29331(12) 0.71665(13)
H2 H -0.2177 0.3326 0.7381
C4 C -0.12970(10) 0.31697(11) 0.61792(13)
H3 H -0.1454 0.3732 0.5731
C5 C -0.06473(9) 0.25811(11) 0.58545(12)
H4 H -0.0365 0.2740 0.5172
C6 C -0.03945(8) 0.17575(10) 0.65047(12)
C7 C 0.02752(9) 0.11153(10) 0.61446(12)
H5 H 0.0496 0.0621 0.6663
C8 C 0.15138(10) -0.01736(11) 0.56425(14)
H6 H 0.1055 -0.0621 0.5806
H7 H 0.1746 0.0123 0.6380
H8 H 0.1964 -0.0531 0.5282
C9 C 0.15298(8) 0.07315(10) 0.37916(12)
C10 C 0.11701(8) 0.15820(10) 0.30531(11)
H9 H 0.0546 0.1497 0.2860
C11 C 0.13572(9) 0.25819(10) 0.36310(12)
H10 H 0.0826 0.2957 0.3681
H11 H 0.1636 0.2504 0.4434
C12 C 0.20637(8) 0.24831(10) 0.19538(11)
N1 N 0.05645(7) 0.12174(8) 0.51339(10)
N2 N 0.11838(7) 0.05800(9) 0.48424(10)
N3 N 0.16061(8) 0.16725(9) 0.19918(10)
H12 H 0.1711(11) 0.1198(13) 0.1517(16)
O1 O 0.20897(7) 0.02183(8) 0.34666(9)
O2 O 0.19164(6) 0.30651(7) 0.28724(8)
O3 O 0.25463(6) 0.27309(8) 0.12262(9)
Cl1 Cl -0.04998(2) 0.05875(3) 0.84234(3)
C13 C 0.56251(10) 0.14917(10) 0.42951(13)
C14 C 0.53076(11) 0.15874(11) 0.31362(13)
H13 H 0.5677 0.1741 0.2542
C15 C 0.44561(11) 0.14600(11) 0.28483(13)
H14 H 0.4234 0.1517 0.2052
C16 C 0.39207(11) 0.12482(11) 0.37209(13)
H15 H 0.3330 0.1160 0.3524
C17 C 0.42431(10) 0.11642(11) 0.48793(12)
H16 H 0.3868 0.1028 0.5472
C18 C 0.51063(9) 0.12747(10) 0.51929(12)
C19 C 0.54573(9) 0.11580(10) 0.64101(12)
H17 H 0.6053 0.1098 0.6583
C20 C 0.62059(9) 0.09449(11) 0.86619(13)
H18 H 0.6405 0.0337 0.8330
H19 H 0.6322 0.0937 0.9519
H20 H 0.6503 0.1494 0.8331
C21 C 0.47414(9) 0.11161(9) 0.92288(11)
C22 C 0.38093(8) 0.11961(10) 0.87722(11)
H21 H 0.3716 0.1794 0.8281
C23 C 0.34884(9) 0.02976(11) 0.80753(12)
H22 H 0.3318 0.0472 0.7248
H23 H 0.3937 -0.0205 0.8083
C24 C 0.26361(9) 0.05338(10) 0.95763(11)
N4 N 0.49557(7) 0.11382(8) 0.72380(9)
N5 N 0.52995(7) 0.10439(8) 0.83740(10)
N6 N 0.32536(7) 0.11978(9) 0.97243(10)
H24 H 0.3167(11) 0.1701(13) 1.0160(15)
O4 O 0.49702(7) 0.11180(7) 1.02703(8)
O5 O 0.27691(6) -0.00512(7) 0.86555(8)
O6 O 0.20361(7) 0.04052(8) 1.01606(9)
Cl2 Cl 0.67070(3) 0.16703(4) 0.46267(4)
loop_
_geom_bond_atom_site_label_1
_geom_bond_atom_site_label_2
_geom_bond_site_symmetry_1
_geom_bond_site_symmetry_2
C1 C2 1_555 1_555
C2 H1 1_555 1_555
C3 C2 1_555 1_555
H2 C3 1_555 1_555
C4 C3 1_555 1_555
H3 C4 1_555 1_555
C5 C4 1_555 1_555
H4 C5 1_555 1_555
C6 C1 1_555 1_555
C7 C6 1_555 1_555
H5 C7 1_555 1_555
C8 H6 1_555 1_555
H7 C8 1_555 1_555
H8 C8 1_555 1_555
C9 C10 1_555 1_555
C10 H9 1_555 1_555
C11 C10 1_555 1_555
H10 C11 1_555 1_555
H11 C11 1_555 1_555
C12 N3 1_555 1_555
N1 C7 1_555 1_555
N2 C8 1_555 1_555
N3 C10 1_555 1_555
H12 N3 1_555 1_555
O1 C9 1_555 1_555
O2 C11 1_555 1_555
O3 C12 1_555 1_555
Cl1 C1 1_555 1_555
C13 C14 1_555 1_555
C14 H13 1_555 1_555
C15 C14 1_555 1_555
H14 C15 1_555 1_555
C16 C15 1_555 1_555
H15 C16 1_555 1_555
C17 C16 1_555 1_555
H16 C17 1_555 1_555
C18 C13 1_555 1_555
C19 C18 1_555 1_555
H17 C19 1_555 1_555
C20 H18 1_555 1_555
H19 C20 1_555 1_555
H20 C20 1_555 1_555
C21 C22 1_555 1_555
C22 H21 1_555 1_555
C23 C22 1_555 1_555
H22 C23 1_555 1_555
H23 C23 1_555 1_555
C24 N6 1_555 1_555
N4 C19 1_555 1_555
N5 C20 1_555 1_555
N6 C22 1_555 1_555
H24 N6 1_555 1_555
O4 C21 1_555 1_555
O5 C23 1_555 1_555
O6 C24 1_555 1_555
Cl2 C13 1_555 1_555
C5 C6 1_555 1_555
C9 N2 1_555 1_555
C12 O2 1_555 1_555
N1 N2 1_555 1_555
C17 C18 1_555 1_555
C21 N5 1_555 1_555
C24 O5 1_555 1_555
N4 N5 1_555 1_555

#END
