
#######################################################################
#
#                 Cambridge Crystallographic Data Centre
#                                CCDC 
#
#######################################################################
#
# If this CIF has been generated from an entry in the Cambridge 
# Structural Database, then it will include bibliographic, chemical, 
# crystal, experimental, refinement or atomic coordinate data resulting 
# from the CCDC's data processing and validation procedures.
#
#######################################################################

data_HUMJUW01
_chemical_formula_moiety         'C15 H18 N2 O2 S1,C2 H4 O2'
_chemical_name_systematic        
'2,4,6-Trimethyl-N-(6-methylpyridin-2-yl)benzenesulfonamide acetic acid'
_symmetry_cell_setting           triclinic
_symmetry_space_group_name_H-M   'P -1'
_symmetry_Int_Tables_number      2
_space_group_name_Hall           '-P 1'
loop_
_symmetry_equiv_pos_site_id
_symmetry_equiv_pos_as_xyz
1 x,y,z
2 -x,-y,-z
_cell_length_a                   7.9881(12)
_cell_length_b                   8.9052(13)
_cell_length_c                   14.053(3)
_cell_angle_alpha                101.185(3)
_cell_angle_beta                 90.964(3)
_cell_angle_gamma                114.909(2)
_cell_volume                     883.986
_exptl_crystal_colour            colorless
_exptl_crystal_description       block
_cell_formula_units_Z            2
loop_
_atom_site_label
_atom_site_type_symbol
_atom_site_fract_x
_atom_site_fract_y
_atom_site_fract_z
S1 S 0.52748(5) 0.16246(5) 0.22364(3)
O1 O 0.51955(18) 0.01364(15) 0.25184(9)
O2 O 0.35668(17) 0.16402(16) 0.19319(10)
N1 N 0.6996(2) 0.57015(18) 0.42350(10)
N2 N 0.6307(2) 0.31528(18) 0.31978(11)
H1 H 0.667(4) 0.278(4) 0.3672(18)
C1 C 0.6409(2) 0.4770(2) 0.33241(12)
C2 C 0.7177(2) 0.7309(2) 0.44655(13)
C3 C 0.6746(3) 0.8034(2) 0.37714(14)
H2 H 0.6850 0.9158 0.3939
C4 C 0.6160(3) 0.7080(2) 0.28255(14)
H3 H 0.5871 0.7559 0.2335
C5 C 0.5990(3) 0.5447(2) 0.25870(13)
H4 H 0.5598 0.4795 0.1936
C6 C 0.7877(3) 0.8255(3) 0.55062(15)
H5 H 0.7237 0.7515 0.5945
H6 H 0.7633 0.9262 0.5636
H7 H 0.9216 0.8605 0.5616
C7 C 0.6784(2) 0.2062(2) 0.13074(11)
C8 C 0.6205(2) 0.2249(2) 0.03986(12)
C9 C 0.7443(3) 0.2503(2) -0.03031(13)
H8 H 0.7069 0.2630 -0.0916
C10 C 0.9195(3) 0.2579(3) -0.01488(14)
C11 C 0.9726(2) 0.2397(3) 0.07525(13)
H9 H 1.0928 0.2453 0.0870
C12 C 0.8565(2) 0.2136(2) 0.14879(12)
C13 C 0.4332(3) 0.2157(3) 0.00973(14)
H10 H 0.4249 0.2206 -0.0592
H11 H 0.4184 0.3116 0.0498
H12 H 0.3348 0.1090 0.0190
C14 C 1.0460(3) 0.2821(4) -0.09495(16)
H13 H 1.0294 0.1710 -0.1326
H14 H 1.1754 0.3479 -0.0660
H15 H 1.0152 0.3431 -0.1382
C15 C 0.9301(3) 0.1902(3) 0.24182(13)
H16 H 1.0541 0.1949 0.2352
H17 H 0.8464 0.0798 0.2542
H18 H 0.9376 0.2808 0.2964
O3 O 0.7853(3) 0.46836(19) 0.57647(11)
H20 H 0.751(5) 0.487(5) 0.528(3)
O4 O 0.7520(3) 0.2254(2) 0.48283(11)
C16 C 0.7900(3) 0.3237(2) 0.56335(13)
C17 C 0.8418(3) 0.2804(3) 0.65372(15)
H21 H 0.7307 0.1959 0.6736
H22 H 0.8960 0.3830 0.7061
H23 H 0.9327 0.2339 0.6405
H19? H 0.749(7) 0.535(7) 0.467(3)
loop_
_geom_bond_atom_site_label_1
_geom_bond_atom_site_label_2
_geom_bond_site_symmetry_1
_geom_bond_site_symmetry_2
S1 O1 1_555 1_555
O2 S1 1_555 1_555
N1 C1 1_555 1_555
N2 S1 1_555 1_555
H1 N2 1_555 1_555
C1 N2 1_555 1_555
C2 N1 1_555 1_555
C3 C2 1_555 1_555
H2 C3 1_555 1_555
C4 C3 1_555 1_555
H3 C4 1_555 1_555
C5 C1 1_555 1_555
H4 C5 1_555 1_555
C6 C2 1_555 1_555
H5 C6 1_555 1_555
H6 C6 1_555 1_555
H7 C6 1_555 1_555
C7 S1 1_555 1_555
C8 C7 1_555 1_555
C9 C8 1_555 1_555
H8 C9 1_555 1_555
C10 C9 1_555 1_555
C11 C10 1_555 1_555
H9 C11 1_555 1_555
C12 C7 1_555 1_555
C13 C8 1_555 1_555
H10 C13 1_555 1_555
H11 C13 1_555 1_555
H12 C13 1_555 1_555
C14 C10 1_555 1_555
H13 C14 1_555 1_555
H14 C14 1_555 1_555
H15 C14 1_555 1_555
C15 C12 1_555 1_555
H16 C15 1_555 1_555
H17 C15 1_555 1_555
H18 C15 1_555 1_555
O3 H20 1_555 1_555
O4 C16 1_555 1_555
C16 O3 1_555 1_555
C17 C16 1_555 1_555
H21 C17 1_555 1_555
H22 C17 1_555 1_555
H23 C17 1_555 1_555
C4 C5 1_555 1_555
C11 C12 1_555 1_555

#END
