
#######################################################################
#
#                 Cambridge Crystallographic Data Centre
#                                CCDC 
#
#######################################################################
#
# If this CIF has been generated from an entry in the Cambridge 
# Structural Database, then it will include bibliographic, chemical, 
# crystal, experimental, refinement or atomic coordinate data resulting 
# from the CCDC's data processing and validation procedures.
#
#######################################################################

data_HUMLOR
_chemical_name_common            1,1'-(4,4'-diphenyl)-bis(benzoylthiourea)
_chemical_formula_moiety         'C28 H22 N4 O2 S2'
_chemical_name_systematic        
N,N'-(Biphenyl-4,4'-diyldicarbamothioyl)dibenzamide
_symmetry_cell_setting           triclinic
_symmetry_space_group_name_H-M   'P -1'
_symmetry_Int_Tables_number      2
_space_group_name_Hall           '-P 1'
loop_
_symmetry_equiv_pos_site_id
_symmetry_equiv_pos_as_xyz
1 x,y,z
2 -x,-y,-z
_cell_length_a                   5.3447(11)
_cell_length_b                   10.3086(13)
_cell_length_c                   11.5550(13)
_cell_angle_alpha                98.24(3)
_cell_angle_beta                 96.95(3)
_cell_angle_gamma                99.43(3)
_cell_volume                     614.708
_exptl_crystal_colour            yellow
_exptl_crystal_description       prism
_cell_formula_units_Z            1
loop_
_atom_site_label
_atom_site_type_symbol
_atom_site_fract_x
_atom_site_fract_y
_atom_site_fract_z
S1 S -0.25693(15) 0.16904(7) 0.60638(6)
O1 O -0.4793(4) -0.1070(2) 0.86572(18)
N1 N -0.5036(4) -0.03074(18) 0.68970(18)
H1 H -0.5879 -0.0474 0.6193
N2 N -0.1771(4) 0.10525(19) 0.82191(18)
H2 H -0.2187 0.0489 0.8676
C1 C -1.2009(5) -0.3140(3) 0.5873(3)
H3 H -1.3419 -0.3004 0.5381
C2 C -1.1885(5) -0.4387(3) 0.6116(3)
H4 H -1.3204 -0.5097 0.5784
C3 C -0.9829(6) -0.4596(3) 0.6846(3)
H5 H -0.9738 -0.5450 0.6999
C4 C -0.7891(5) -0.3541(2) 0.7353(2)
H6 H -0.6523 -0.3678 0.7871
C5 C -0.7980(5) -0.2281(2) 0.7092(2)
C6 C -1.0047(5) -0.2078(3) 0.6353(2)
H7 H -1.0126 -0.1232 0.6178
C7 C -0.5814(5) -0.1175(2) 0.7642(2)
C8 C -0.3064(4) 0.0804(2) 0.7132(2)
C9 C 0.0246(4) 0.2163(2) 0.8711(2)
C10 C 0.0131(5) 0.2834(3) 0.9809(2)
H8 H -0.1200 0.2552 1.0217
C11 C 0.2000(5) 0.3936(3) 1.0314(2)
H9 H 0.1896 0.4383 1.1060
C12 C 0.4027(4) 0.4390(2) 0.9734(2)
C13 C 0.4143(5) 0.3657(2) 0.8647(2)
H10 H 0.5510 0.3909 0.8250
C14 C 0.2281(5) 0.2557(2) 0.8133(2)
H11 H 0.2404 0.2085 0.7400
S1A S 1.25693(15) 0.83096(7) 1.39362(6)
O1A O 1.4793(4) 1.1070(2) 1.13428(18)
N1A N 1.5036(4) 1.03074(18) 1.31030(18)
H1A H 1.5879 1.0474 1.3807
N2A N 1.1771(4) 0.89475(19) 1.17809(18)
H2A H 1.2187 0.9511 1.1324
C1A C 2.2009(5) 1.3140(3) 1.4127(3)
H3A H 2.3419 1.3004 1.4619
C2A C 2.1885(5) 1.4387(3) 1.3884(3)
H4A H 2.3204 1.5097 1.4216
C3A C 1.9829(6) 1.4596(3) 1.3154(3)
H5A H 1.9738 1.5450 1.3001
C4A C 1.7891(5) 1.3541(2) 1.2647(2)
H6A H 1.6523 1.3678 1.2129
C5A C 1.7980(5) 1.2281(2) 1.2908(2)
C6A C 2.0047(5) 1.2078(3) 1.3647(2)
H7A H 2.0126 1.1232 1.3822
C7A C 1.5814(5) 1.1175(2) 1.2358(2)
C8A C 1.3064(4) 0.9196(2) 1.2868(2)
C9A C 0.9754(4) 0.7837(2) 1.1289(2)
C10A C 0.9869(5) 0.7166(3) 1.0191(2)
H8A H 1.1200 0.7448 0.9783
C11A C 0.8000(5) 0.6064(3) 0.9686(2)
H9A H 0.8104 0.5617 0.8940
C12A C 0.5973(4) 0.5610(2) 1.0266(2)
C13A C 0.5857(5) 0.6343(2) 1.1353(2)
H10A H 0.4490 0.6091 1.1750
C14A C 0.7719(5) 0.7443(2) 1.1867(2)
H11A H 0.7596 0.7915 1.2600
loop_
_geom_bond_atom_site_label_1
_geom_bond_atom_site_label_2
_geom_bond_site_symmetry_1
_geom_bond_site_symmetry_2
S1 C8 1_555 1_555
O1 C7 1_555 1_555
N1 H1 1_555 1_555
N2 H2 1_555 1_555
C1 H3 1_555 1_555
C2 C1 1_555 1_555
H4 C2 1_555 1_555
C3 C2 1_555 1_555
H5 C3 1_555 1_555
C4 C3 1_555 1_555
H6 C4 1_555 1_555
C5 C4 1_555 1_555
C6 C1 1_555 1_555
H7 C6 1_555 1_555
C7 N1 1_555 1_555
C8 N1 1_555 1_555
C9 N2 1_555 1_555
C10 C9 1_555 1_555
H8 C10 1_555 1_555
C11 C10 1_555 1_555
H9 C11 1_555 1_555
C12 C11 1_555 1_555
C13 C12 1_555 1_555
H10 C13 1_555 1_555
C14 C9 1_555 1_555
H11 C14 1_555 1_555
S1A C8A 1_555 1_555
O1A C7A 1_555 1_555
N1A H1A 1_555 1_555
N2A H2A 1_555 1_555
C1A H3A 1_555 1_555
C2A C1A 1_555 1_555
H4A C2A 1_555 1_555
C3A C2A 1_555 1_555
H5A C3A 1_555 1_555
C4A C3A 1_555 1_555
H6A C4A 1_555 1_555
C5A C4A 1_555 1_555
C6A C1A 1_555 1_555
H7A C6A 1_555 1_555
C7A N1A 1_555 1_555
C8A N1A 1_555 1_555
C9A N2A 1_555 1_555
C10A C9A 1_555 1_555
H8A C10A 1_555 1_555
C11A C10A 1_555 1_555
H9A C11A 1_555 1_555
C12A C12 1_555 1_555
C13A C12A 1_555 1_555
H10A C13A 1_555 1_555
C14A C9A 1_555 1_555
H11A C14A 1_555 1_555
N2 C8 1_555 1_555
C5 C6 1_555 1_555
C5 C7 1_555 1_555
C13 C14 1_555 1_555
N2A C8A 1_555 1_555
C5A C6A 1_555 1_555
C5A C7A 1_555 1_555
C11A C12A 1_555 1_555
C13A C14A 1_555 1_555

#END
