
#######################################################################
#
#                 Cambridge Crystallographic Data Centre
#                                CCDC 
#
#######################################################################
#
# If this CIF has been generated from an entry in the Cambridge 
# Structural Database, then it will include bibliographic, chemical, 
# crystal, experimental, refinement or atomic coordinate data resulting 
# from the CCDC's data processing and validation procedures.
#
#######################################################################

data_HUMLAC
_chemical_formula_moiety         'C26 H30 O7'
_chemical_name_systematic        
1-(3,5-Dimethoxyphenyl)-2-(2-((3,5-dimethoxyphenyl)hydroxymethyl)-4-methoxyphenyl)ethanol
_symmetry_cell_setting           monoclinic
_symmetry_space_group_name_H-M   'P 21/c'
_symmetry_Int_Tables_number      14
_space_group_name_Hall           '-P 2ybc'
loop_
_symmetry_equiv_pos_site_id
_symmetry_equiv_pos_as_xyz
1 x,y,z
2 x,1/2-y,1/2+z
3 -x,-y,-z
4 -x,1/2+y,1/2-z
_cell_length_a                   12.382(9)
_cell_length_b                   23.700(15)
_cell_length_c                   8.664(6)
_cell_angle_alpha                90
_cell_angle_beta                 104.313(12)
_cell_angle_gamma                90
_cell_volume                     2463.56
_exptl_crystal_colour            colorless
_exptl_crystal_description       prism
_chemical_melting_point          409.5-410.5K
_cell_formula_units_Z            4
_exptl_crystal_recrystallization_method ethanol
loop_
_atom_site_label
_atom_site_type_symbol
_atom_site_fract_x
_atom_site_fract_y
_atom_site_fract_z
O1 O 0.13631(15) 0.22374(7) 0.1250(2)
H1 H 0.1092 0.2261 0.2021
O2 O 0.05239(14) 0.21564(7) 0.37502(19)
H2 H 0.0713 0.2340 0.4576
O3 O -0.38208(16) 0.21372(9) -0.1049(2)
O4 O 0.48118(17) 0.07787(10) 0.0136(2)
O5 O 0.46271(16) 0.12714(10) 0.5388(2)
O6 O 0.12277(15) 0.04906(8) 0.7254(2)
O7 O -0.27788(16) 0.04966(10) 0.5200(3)
C1 C 0.2600(2) 0.14343(10) 0.1517(3)
C2 C 0.3207(2) 0.11973(11) 0.0554(3)
H3 H 0.2900 0.1169 -0.0537
C3 C 0.4279(2) 0.09991(11) 0.1211(3)
C4 C 0.4740(2) 0.10325(11) 0.2824(3)
H4 H 0.5459 0.0902 0.3261
C5 C 0.4111(2) 0.12641(12) 0.3785(3)
C6 C 0.3056(2) 0.14732(11) 0.3158(3)
H5 H 0.2654 0.1638 0.3815
C7 C 0.5934(2) 0.05944(16) 0.0700(4)
H6 H 0.6388 0.0904 0.1197
H7 H 0.6204 0.0458 -0.0179
H8 H 0.5967 0.0297 0.1461
C8 C 0.4006(3) 0.14650(19) 0.6460(4)
H9 H 0.3792 0.1851 0.6223
H10 H 0.4455 0.1438 0.7532
H11 H 0.3350 0.1237 0.6348
C9 C 0.1437(2) 0.16530(10) 0.0837(3)
H12 H 0.1288 0.1630 -0.0326
C10 C 0.0560(2) 0.12933(10) 0.1353(3)
H13 H 0.0568 0.0917 0.0916
H14 H 0.0763 0.1261 0.2505
C11 C -0.06072(19) 0.15270(10) 0.0832(3)
C12 C -0.1212(2) 0.14265(11) -0.0733(3)
H15 H -0.0883 0.1216 -0.1400
C13 C -0.2270(2) 0.16257(11) -0.1319(3)
H16 H -0.2653 0.1545 -0.2362
C14 C -0.2770(2) 0.19470(11) -0.0359(3)
C15 C -0.2191(2) 0.20578(10) 0.1194(3)
H17 H -0.2523 0.2277 0.1840
C16 C -0.1122(2) 0.18461(9) 0.1805(3)
C17 C -0.4397(3) 0.24400(17) -0.0078(4)
H18 H -0.4454 0.2209 0.0810
H19 H -0.5130 0.2536 -0.0695
H20 H -0.3995 0.2779 0.0306
C18 C -0.0585(2) 0.19563(10) 0.3566(3)
H21 H -0.1014 0.2254 0.3931
C19 C -0.06277(19) 0.14303(10) 0.4562(3)
C20 C 0.0313(2) 0.11843(11) 0.5499(3)
H22 H 0.1007 0.1347 0.5569
C21 C 0.0236(2) 0.06924(10) 0.6345(3)
C22 C -0.0781(2) 0.04401(10) 0.6261(3)
H23 H -0.0830 0.0105 0.6797
C23 C -0.1721(2) 0.06995(11) 0.5358(3)
C24 C -0.1657(2) 0.11900(11) 0.4515(3)
H24 H -0.2305 0.1358 0.3917
C25 C 0.1209(3) -0.00009(13) 0.8181(4)
H25 H 0.0742 0.0063 0.8898
H26 H 0.1952 -0.0087 0.8781
H27 H 0.0920 -0.0312 0.7491
C26 C -0.2938(3) 0.00098(19) 0.6032(6)
H28 H -0.2536 -0.0299 0.5719
H29 H -0.3718 -0.0080 0.5792
H30 H -0.2669 0.0074 0.7156
loop_
_geom_bond_atom_site_label_1
_geom_bond_atom_site_label_2
_geom_bond_site_symmetry_1
_geom_bond_site_symmetry_2
O1 H1 1_555 1_555
O2 H2 1_555 1_555
O3 C14 1_555 1_555
O4 C3 1_555 1_555
O5 C5 1_555 1_555
O6 C21 1_555 1_555
O7 C23 1_555 1_555
C1 C2 1_555 1_555
C2 H3 1_555 1_555
C3 C2 1_555 1_555
C4 C3 1_555 1_555
H4 C4 1_555 1_555
C5 C4 1_555 1_555
C6 C1 1_555 1_555
H5 C6 1_555 1_555
C7 O4 1_555 1_555
H6 C7 1_555 1_555
H7 C7 1_555 1_555
H8 C7 1_555 1_555
C8 O5 1_555 1_555
H9 C8 1_555 1_555
H10 C8 1_555 1_555
H11 C8 1_555 1_555
C9 O1 1_555 1_555
H12 C9 1_555 1_555
C10 C9 1_555 1_555
H13 C10 1_555 1_555
H14 C10 1_555 1_555
C11 C10 1_555 1_555
C12 C11 1_555 1_555
H15 C12 1_555 1_555
C13 C12 1_555 1_555
H16 C13 1_555 1_555
C14 C13 1_555 1_555
C15 C14 1_555 1_555
H17 C15 1_555 1_555
C16 C11 1_555 1_555
C17 O3 1_555 1_555
H18 C17 1_555 1_555
H19 C17 1_555 1_555
H20 C17 1_555 1_555
C18 O2 1_555 1_555
H21 C18 1_555 1_555
C19 C18 1_555 1_555
C20 C19 1_555 1_555
H22 C20 1_555 1_555
C21 C20 1_555 1_555
C22 C21 1_555 1_555
H23 C22 1_555 1_555
C23 C22 1_555 1_555
C24 C19 1_555 1_555
H24 C24 1_555 1_555
C25 O6 1_555 1_555
H25 C25 1_555 1_555
H26 C25 1_555 1_555
H27 C25 1_555 1_555
C26 O7 1_555 1_555
H28 C26 1_555 1_555
H29 C26 1_555 1_555
H30 C26 1_555 1_555
C1 C9 1_555 1_555
C5 C6 1_555 1_555
C15 C16 1_555 1_555
C16 C18 1_555 1_555
C23 C24 1_555 1_555

#END
