
#######################################################################
#
#                 Cambridge Crystallographic Data Centre
#                                CCDC 
#
#######################################################################
#
# If this CIF has been generated from an entry in the Cambridge 
# Structural Database, then it will include bibliographic, chemical, 
# crystal, experimental, refinement or atomic coordinate data resulting 
# from the CCDC's data processing and validation procedures.
#
#######################################################################

data_HUMLEH
_chemical_formula_moiety         'C17 H14 N4 O2 S1,C3 H7 N1 O1'
_chemical_name_systematic        
'5-((2-(Phenoxymethyl)-1H-benzimidazol-1-yl)methyl)-1,3,4-oxadiazole-2(3H)-thione dimethylformamide solvate'
_chemical_properties_biological  
'tested for growth inhibition activity against B.subtilis'
_symmetry_cell_setting           monoclinic
_symmetry_space_group_name_H-M   'P 21/c'
_symmetry_Int_Tables_number      14
_space_group_name_Hall           '-P 2ybc'
loop_
_symmetry_equiv_pos_site_id
_symmetry_equiv_pos_as_xyz
1 x,y,z
2 -x,1/2+y,1/2-z
3 -x,-y,-z
4 x,1/2-y,1/2+z
_cell_length_a                   11.5484(13)
_cell_length_b                   16.5319(19)
_cell_length_c                   11.3595(14)
_cell_angle_alpha                90
_cell_angle_beta                 108.755(2)
_cell_angle_gamma                90
_cell_volume                     2053.57
_cell_formula_units_Z            4
loop_
_atom_site_label
_atom_site_type_symbol
_atom_site_fract_x
_atom_site_fract_y
_atom_site_fract_z
C1 C 0.2717(3) 0.59436(19) 0.2735(3)
H1 H 0.2905 0.6436 0.2445
C2 C 0.1574(3) 0.5789(2) 0.2819(4)
H2 H 0.0977 0.6188 0.2578
C3 C 0.1287(3) 0.5065(2) 0.3247(4)
H3 H 0.0503 0.4990 0.3288
C4 C 0.2117(3) 0.4450(2) 0.3615(3)
H4 H 0.1918 0.3959 0.3901
C5 C 0.3268(2) 0.45964(16) 0.3539(2)
C6 C 0.3583(3) 0.53218(16) 0.3107(3)
C7 C 0.7368(3) 0.35287(19) 0.2503(3)
C8 C 0.7217(4) 0.3236(2) 0.1330(4)
H5 H 0.6455 0.3248 0.0718
C9 C 0.8230(6) 0.2923(3) 0.1082(5)
H6 H 0.8155 0.2740 0.0287
C10 C 0.9347(5) 0.2882(3) 0.2007(7)
H7 H 1.0021 0.2664 0.1841
C11 C 0.9453(4) 0.3159(3) 0.3155(6)
H8 H 1.0203 0.3120 0.3781
C12 C 0.8486(3) 0.3495(2) 0.3416(4)
H9 H 0.8583 0.3700 0.4205
C13 C 0.2931(3) 0.17670(16) 0.2401(2)
C14 C 0.4140(3) 0.26440(16) 0.3619(2)
C15 C 0.4470(3) 0.33477(16) 0.4472(3)
H10 H 0.3971 0.3337 0.5014
H11 H 0.5317 0.3293 0.4990
C16 C 0.6437(3) 0.42867(19) 0.3738(3)
H12 H 0.6997 0.4738 0.3830
H13 H 0.6734 0.3940 0.4462
C17 C 0.5190(2) 0.45777(16) 0.3593(2)
N1 N 0.4092(2) 0.15706(13) 0.2661(2)
H21 H 0.4339 0.1144 0.2380
N2 N 0.4866(2) 0.21216(14) 0.3429(2)
N3 N 0.4315(2) 0.41311(12) 0.3847(2)
N4 N 0.4793(2) 0.52947(14) 0.3147(2)
O1 O 0.29407(17) 0.24777(11) 0.30265(17)
O2 O 0.63302(19) 0.38519(17) 0.2644(2)
S1 S 0.16876(8) 0.12999(6) 0.15550(9)
C18 C 0.3499(9) 0.1278(5) 0.5536(6)
H14 H 0.4221 0.1001 0.5615
C19 C 0.1391(9) 0.1214(10) 0.5053(12)
H15 H 0.1533 0.1773 0.5284
H16 H 0.1034 0.0949 0.5605
H17 H 0.0843 0.1176 0.4216
C20 C 0.2076(17) 0.0130(5) 0.4707(8)
H18 H 0.1924 -0.0176 0.5360
H19 H 0.2644 -0.0157 0.4403
H20 H 0.1323 0.0207 0.4042
N5 N 0.2534(3) 0.0830(2) 0.5135(3)
O3 O 0.3654(3) 0.19678(18) 0.5824(3)
C21? C 0.3612(10) 0.0382(6) 0.5013(9)
C22? C 0.2610(8) 0.1555(5) 0.5476(9)
H22? H 0.4351 0.0637 0.5521
H23? H 0.3587 0.0389 0.4160
H24? H 0.3590 -0.0167 0.5279
H25? H 0.1819 0.1744 0.5460
H26? H 0.2897 0.1877 0.4923
H27? H 0.3172 0.1599 0.6306
loop_
_geom_bond_atom_site_label_1
_geom_bond_atom_site_label_2
_geom_bond_site_symmetry_1
_geom_bond_site_symmetry_2
C1 H1 1_555 1_555
C2 C1 1_555 1_555
H2 C2 1_555 1_555
C3 C2 1_555 1_555
H3 C3 1_555 1_555
C4 C3 1_555 1_555
H4 C4 1_555 1_555
C5 C4 1_555 1_555
C6 C1 1_555 1_555
C7 C8 1_555 1_555
C8 H5 1_555 1_555
C9 C8 1_555 1_555
H6 C9 1_555 1_555
C10 C9 1_555 1_555
H7 C10 1_555 1_555
C11 C10 1_555 1_555
H8 C11 1_555 1_555
C12 C7 1_555 1_555
H9 C12 1_555 1_555
C13 N1 1_555 1_555
C14 C15 1_555 1_555
C15 H10 1_555 1_555
H11 C15 1_555 1_555
C16 H12 1_555 1_555
H13 C16 1_555 1_555
C17 C16 1_555 1_555
C18 H14 1_555 1_555
C19 H15 1_555 1_555
H16 C19 1_555 1_555
H17 C19 1_555 1_555
C20 H18 1_555 1_555
H19 C20 1_555 1_555
H20 C20 1_555 1_555
N1 H21 1_555 1_555
N2 C14 1_555 1_555
N3 C5 1_555 1_555
N4 C6 1_555 1_555
N5 C18 1_555 1_555
O1 C13 1_555 1_555
O2 C7 1_555 1_555
O3 C18 1_555 1_555
S1 C13 1_555 1_555
C5 C6 1_555 1_555
C11 C12 1_555 1_555
C14 O1 1_555 1_555
C15 N3 1_555 1_555
C16 O2 1_555 1_555
C17 N3 1_555 1_555
C17 N4 1_555 1_555
C19 N5 1_555 1_555
C20 N5 1_555 1_555
N1 N2 1_555 1_555

#END
