
#######################################################################
#
#                 Cambridge Crystallographic Data Centre
#                                CCDC 
#
#######################################################################
#
# If this CIF has been generated from an entry in the Cambridge 
# Structural Database, then it will include bibliographic, chemical, 
# crystal, experimental, refinement or atomic coordinate data resulting 
# from the CCDC's data processing and validation procedures.
#
#######################################################################

data_HUMMAD04
_chemical_formula_moiety         'C10 H10 I1 N2 1+,B1 F4 1-'
_chemical_name_systematic        'bis(pyridine)iodonium tetrafluoroborate'
_symmetry_cell_setting           monoclinic
_symmetry_space_group_name_H-M   'P 21/n'
_symmetry_Int_Tables_number      14
_space_group_name_Hall           '-P 2yn'
loop_
_symmetry_equiv_pos_site_id
_symmetry_equiv_pos_as_xyz
1 x,y,z
2 1/2-x,1/2+y,1/2-z
3 -x,-y,-z
4 1/2+x,1/2-y,1/2+z
_cell_length_a                   12.1812(2)
_cell_length_b                   15.7817(2)
_cell_length_c                   14.6363(2)
_cell_angle_alpha                90
_cell_angle_beta                 113.497(2)
_cell_angle_gamma                90
_cell_volume                     2580.38
_exptl_crystal_colour            colorless
_exptl_crystal_description       block
_cell_formula_units_Z            8
loop_
_atom_site_label
_atom_site_type_symbol
_atom_site_fract_x
_atom_site_fract_y
_atom_site_fract_z
I1 I 0.0000 0.0000 0.0000
N1 N -0.0698(2) 0.11555(14) 0.05029(16)
C1 C -0.0947(2) 0.18550(19) -0.0067(2)
C2 C -0.1372(4) 0.25770(19) 0.0212(4)
C3 C -0.1534(3) 0.2576(2) 0.1103(4)
C4 C -0.1273(3) 0.1853(2) 0.1672(2)
C5 C -0.0857(2) 0.11469(19) 0.1354(2)
H1 H -0.0838 0.1849 -0.0662
H2 H -0.1548 0.3051 -0.0199
H3 H -0.1826 0.3049 0.1298
H4 H -0.1377 0.1839 0.2272
H5 H -0.0684 0.0657 0.1738
N1B N 0.0698(2) -0.11555(14) -0.05029(16)
C1B C 0.0947(2) -0.18550(19) 0.0067(2)
C2B C 0.1372(4) -0.25770(19) -0.0212(4)
C3B C 0.1534(3) -0.2576(2) -0.1103(4)
C4B C 0.1273(3) -0.1853(2) -0.1672(2)
C5B C 0.0857(2) -0.11469(19) -0.1354(2)
H1B H 0.0838 -0.1849 0.0662
H2B H 0.1548 -0.3051 0.0199
H3B H 0.1826 -0.3049 -0.1298
H4B H 0.1377 -0.1839 -0.2272
H5B H 0.0684 -0.0657 -0.1738
I2 I 0.5000 0.0000 0.5000
N2 N 0.57380(19) 0.09738(14) 0.42645(16)
C6 C 0.6132(2) 0.17267(17) 0.47061(19)
C7 C 0.6540(3) 0.2341(2) 0.4249(3)
C8 C 0.6547(2) 0.21846(19) 0.3322(2)
C9 C 0.6155(3) 0.14025(18) 0.28808(19)
C10 C 0.5755(3) 0.08121(17) 0.3369(2)
H6 H 0.6124 0.1828 0.5328
H7 H 0.6820 0.2862 0.4564
H8 H 0.6810 0.2599 0.2994
H9 H 0.6147 0.1267 0.2264
H10 H 0.5494 0.0286 0.3077
N2B N 0.42620(19) -0.09738(14) 0.57355(16)
C6B C 0.3868(2) -0.17267(17) 0.52939(19)
C7B C 0.3460(3) -0.2341(2) 0.5751(3)
C8B C 0.3453(2) -0.21846(19) 0.6678(2)
C9B C 0.3845(3) -0.14025(18) 0.71192(19)
C10B C 0.4245(3) -0.08121(17) 0.6631(2)
H6B H 0.3876 -0.1828 0.4672
H7B H 0.3180 -0.2862 0.5436
H8B H 0.3190 -0.2599 0.7006
H9B H 0.3853 -0.1267 0.7736
H10B H 0.4506 -0.0286 0.6923
I3 I 1.003138(17) 0.246007(13) 0.49232(2)
N3 N 1.07916(19) 0.35128(15) 0.43088(16)
C11 C 1.1069(3) 0.42675(18) 0.4768(2)
C12 C 1.1511(3) 0.4915(2) 0.4389(3)
C13 C 1.1673(3) 0.4793(2) 0.3513(2)
C14 C 1.1395(3) 0.40056(19) 0.3047(2)
C15 C 1.0956(2) 0.33811(17) 0.3466(2)
N4 N 0.92878(19) 0.13726(15) 0.54994(16)
C16 C 0.8898(2) 0.06834(19) 0.4926(2)
C17 C 0.8478(3) -0.00135(18) 0.5253(3)
C18 C 0.8471(3) -0.00037(19) 0.6201(3)
C19 C 0.8871(3) 0.0711(2) 0.6777(2)
C20 C 0.9279(2) 0.1395(2) 0.6412(2)
H11 H 1.0964 0.4342 0.5356
H12 H 1.1715 0.5431 0.4716
H13 H 1.1975 0.5227 0.3243
H14 H 1.1489 0.3904 0.2466
H15 H 1.0780 0.2855 0.3153
H16 H 0.8918 0.0676 0.4298
H17 H 0.8207 -0.0480 0.4846
H18 H 0.8181 -0.0461 0.6438
H19 H 0.8860 0.0733 0.7404
H20 H 0.9546 0.1881 0.6794
B1 B 0.7632(3) 0.2991(2) 0.7196(2)
F1 F 0.8465(3) 0.24211(18) 0.7807(2)
F2 F 0.7954(2) 0.32220(12) 0.64206(14)
F3 F 0.7628(4) 0.36916(16) 0.7758(2)
F4 F 0.6523(2) 0.26077(17) 0.6821(2)
B2 B 0.7358(3) 0.4461(2) 0.2737(2)
F5 F 0.6929(2) 0.41921(12) 0.34385(14)
F6 F 0.6721(2) 0.51766(17) 0.22605(18)
F7 F 0.7169(3) 0.38362(17) 0.20320(19)
F8 F 0.85520(19) 0.46746(16) 0.32006(18)
loop_
_geom_bond_atom_site_label_1
_geom_bond_atom_site_label_2
_geom_bond_site_symmetry_1
_geom_bond_site_symmetry_2
I1 N1 1_555 1_555
N1 C1 1_555 1_555
C1 C2 1_555 1_555
C2 C3 1_555 1_555
C3 C4 1_555 1_555
C4 C5 1_555 1_555
C5 N1 1_555 1_555
H1 C1 1_555 1_555
H2 C2 1_555 1_555
H3 C3 1_555 1_555
H4 C4 1_555 1_555
H5 C5 1_555 1_555
I2 N2 1_555 1_555
N2 C6 1_555 1_555
C6 C7 1_555 1_555
C7 C8 1_555 1_555
C8 C9 1_555 1_555
C9 C10 1_555 1_555
C10 N2 1_555 1_555
H6 C6 1_555 1_555
H7 C7 1_555 1_555
H8 C8 1_555 1_555
H9 C9 1_555 1_555
H10 C10 1_555 1_555
I3 N3 1_555 1_555
N3 C11 1_555 1_555
C11 C12 1_555 1_555
C12 C13 1_555 1_555
C13 C14 1_555 1_555
C14 C15 1_555 1_555
C15 N3 1_555 1_555
N4 I3 1_555 1_555
C16 N4 1_555 1_555
C17 C16 1_555 1_555
C18 C17 1_555 1_555
C19 C18 1_555 1_555
C20 N4 1_555 1_555
H11 C11 1_555 1_555
H12 C12 1_555 1_555
H13 C13 1_555 1_555
H14 C14 1_555 1_555
H15 C15 1_555 1_555
H16 C16 1_555 1_555
H17 C17 1_555 1_555
H18 C18 1_555 1_555
H19 C19 1_555 1_555
H20 C20 1_555 1_555
B1 F1 1_555 1_555
F2 B1 1_555 1_555
F3 B1 1_555 1_555
F4 B1 1_555 1_555
B2 F5 1_555 1_555
F6 B2 1_555 1_555
F7 B2 1_555 1_555
F8 B2 1_555 1_555
N1B I1 1_555 1_555
C1B N1B 1_555 1_555
C2B C1B 1_555 1_555
C3B C2B 1_555 1_555
C4B C3B 1_555 1_555
C5B N1B 1_555 1_555
H1B C1B 1_555 1_555
H2B C2B 1_555 1_555
H3B C3B 1_555 1_555
H4B C4B 1_555 1_555
H5B C5B 1_555 1_555
N2B I2 1_555 1_555
C6B N2B 1_555 1_555
C7B C6B 1_555 1_555
C8B C7B 1_555 1_555
C9B C8B 1_555 1_555
C10B N2B 1_555 1_555
H6B C6B 1_555 1_555
H7B C7B 1_555 1_555
H8B C8B 1_555 1_555
H9B C9B 1_555 1_555
H10B C10B 1_555 1_555
C19 C20 1_555 1_555
C4B C5B 1_555 1_555
C9B C10B 1_555 1_555

#END
