
#######################################################################
#
#                 Cambridge Crystallographic Data Centre
#                                CCDC 
#
#######################################################################
#
# If this CIF has been generated from an entry in the Cambridge 
# Structural Database, then it will include bibliographic, chemical, 
# crystal, experimental, refinement or atomic coordinate data resulting 
# from the CCDC's data processing and validation procedures.
#
#######################################################################

data_HUMMEH
_chemical_name_common            2,2-Pentamethylene-4,5-imidazolidinedione
_chemical_formula_moiety         'C8 H12 N2 O2'
_chemical_name_systematic        1,4-Diazaspiro(4.5)decane-2,3-dione
_symmetry_cell_setting           monoclinic
_symmetry_space_group_name_H-M   'P 21/c'
_symmetry_Int_Tables_number      14
_space_group_name_Hall           '-P 2ybc'
loop_
_symmetry_equiv_pos_site_id
_symmetry_equiv_pos_as_xyz
1 x,y,z
2 x,1/2-y,1/2+z
3 -x,-y,-z
4 -x,1/2+y,1/2-z
_cell_length_a                   13.671(3)
_cell_length_b                   10.641(2)
_cell_length_c                   11.781(2)
_cell_angle_alpha                90
_cell_angle_beta                 96.60(3)
_cell_angle_gamma                90
_cell_volume                     1702.46
_exptl_crystal_colour            colorless
_exptl_crystal_description       'oblong prism'
_chemical_melting_point          300deg.C(dec.)
_cell_formula_units_Z            8
_exptl_crystal_recrystallization_method acetonitrile
loop_
_atom_site_label
_atom_site_type_symbol
_atom_site_fract_x
_atom_site_fract_y
_atom_site_fract_z
C1 C 0.32731(12) 0.86746(16) 0.12085(14)
C2 C 0.33565(14) 0.72644(17) 0.10294(18)
H1 H 0.2812 0.6845 0.1331
H2 H 0.3312 0.7088 0.0217
C3 C 0.43173(17) 0.6751(2) 0.1613(2)
H3 H 0.4327 0.5845 0.1522
H4 H 0.4860 0.7098 0.1252
C4 C 0.44498(19) 0.7072(2) 0.2868(2)
H5 H 0.5088 0.6775 0.3209
H6 H 0.3948 0.6650 0.3245
C5 C 0.43793(16) 0.8474(2) 0.30485(18)
H7 H 0.4921 0.8889 0.2737
H8 H 0.4434 0.8652 0.3861
C6 C 0.34097(14) 0.8994(2) 0.24759(16)
H9 H 0.3400 0.9900 0.2571
H10 H 0.2869 0.8644 0.2839
C7 C 0.35490(12) 1.01554(15) -0.01835(14)
C8 C 0.24401(12) 1.00212(16) -0.01507(14)
O1 O 0.39473(9) 1.08625(12) -0.08078(11)
O2 O 0.18071(9) 1.06051(13) -0.07319(12)
N1 N 0.39717(9) 0.93657(13) 0.05961(12)
H11 H 0.4599 0.9270 0.0728
N2 N 0.23482(10) 0.91574(14) 0.06483(13)
H12 H 0.1785 0.8906 0.0819
C9 C 0.08781(11) 0.19799(14) 0.63932(14)
C10 C 0.19343(12) 0.23222(16) 0.68478(15)
H13 H 0.2096 0.3134 0.6544
H14 H 0.1987 0.2392 0.7674
C11 C 0.26666(13) 0.1351(2) 0.65232(17)
H15 H 0.2560 0.0565 0.6908
H16 H 0.3330 0.1633 0.6779
C12 C 0.25660(14) 0.11315(19) 0.52413(17)
H17 H 0.2728 0.1897 0.4857
H18 H 0.3023 0.0482 0.5065
C13 C 0.15236(14) 0.07371(19) 0.48163(17)
H19 H 0.1463 0.0630 0.3993
H20 H 0.1382 -0.0064 0.5155
C14 C 0.07863(13) 0.17054(17) 0.51187(14)
H21 H 0.0126 0.1405 0.4872
H22 H 0.0884 0.2478 0.4709
C15 C -0.02114(11) 0.12538(15) 0.76330(14)
C16 C -0.04380(12) 0.26304(15) 0.73739(15)
O3 O -0.06356(8) 0.06075(10) 0.82871(11)
O4 O -0.10632(9) 0.32540(11) 0.77781(12)
N3 N 0.05108(9) 0.09383(12) 0.70384(12)
H23 H 0.0745 0.0189 0.7030
N4 N 0.01973(10) 0.29677(13) 0.66560(13)
H24 H 0.0207 0.3710 0.6369
loop_
_geom_bond_atom_site_label_1
_geom_bond_atom_site_label_2
_geom_bond_site_symmetry_1
_geom_bond_site_symmetry_2
C1 C2 1_555 1_555
C2 H1 1_555 1_555
H2 C2 1_555 1_555
C3 C2 1_555 1_555
H3 C3 1_555 1_555
H4 C3 1_555 1_555
C4 C3 1_555 1_555
H5 C4 1_555 1_555
H6 C4 1_555 1_555
C5 C4 1_555 1_555
H7 C5 1_555 1_555
H8 C5 1_555 1_555
C6 C1 1_555 1_555
H9 C6 1_555 1_555
H10 C6 1_555 1_555
C7 C8 1_555 1_555
C8 O2 1_555 1_555
O1 C7 1_555 1_555
N1 C1 1_555 1_555
H11 N1 1_555 1_555
N2 C1 1_555 1_555
H12 N2 1_555 1_555
C9 C10 1_555 1_555
C10 H13 1_555 1_555
H14 C10 1_555 1_555
C11 C10 1_555 1_555
H15 C11 1_555 1_555
H16 C11 1_555 1_555
C12 C11 1_555 1_555
H17 C12 1_555 1_555
H18 C12 1_555 1_555
C13 C12 1_555 1_555
H19 C13 1_555 1_555
H20 C13 1_555 1_555
C14 C9 1_555 1_555
H21 C14 1_555 1_555
H22 C14 1_555 1_555
C15 C16 1_555 1_555
C16 O4 1_555 1_555
O3 C15 1_555 1_555
N3 C9 1_555 1_555
H23 N3 1_555 1_555
N4 C9 1_555 1_555
H24 N4 1_555 1_555
C5 C6 1_555 1_555
C7 N1 1_555 1_555
C8 N2 1_555 1_555
C13 C14 1_555 1_555
C15 N3 1_555 1_555
C16 N4 1_555 1_555

#END
