
#######################################################################
#
#                 Cambridge Crystallographic Data Centre
#                                CCDC 
#
#######################################################################
#
# If this CIF has been generated from an entry in the Cambridge 
# Structural Database, then it will include bibliographic, chemical, 
# crystal, experimental, refinement or atomic coordinate data resulting 
# from the CCDC's data processing and validation procedures.
#
#######################################################################

data_HUMNIM
_chemical_formula_moiety         'C14 H11 N1 O2'
_chemical_name_systematic        1-(6-Methylpyridin-2-yl)-2-phenylethanedione
_symmetry_cell_setting           triclinic
_symmetry_space_group_name_H-M   'P -1'
_symmetry_Int_Tables_number      2
_space_group_name_Hall           '-P 1'
loop_
_symmetry_equiv_pos_site_id
_symmetry_equiv_pos_as_xyz
1 x,y,z
2 -x,-y,-z
_cell_length_a                   7.9526(9)
_cell_length_b                   8.0441(10)
_cell_length_c                   9.1229(11)
_cell_angle_alpha                90.953(2)
_cell_angle_beta                 101.247(2)
_cell_angle_gamma                93.647(2)
_cell_volume                     570.987
_exptl_crystal_colour            'pale yellow'
_exptl_crystal_description       slab
_chemical_melting_point          350K
_cell_formula_units_Z            2
_exptl_crystal_recrystallization_method 'petroleum ether/ethyl acetate'
loop_
_atom_site_label
_atom_site_type_symbol
_atom_site_fract_x
_atom_site_fract_y
_atom_site_fract_z
O1 O 0.0776(3) 0.9106(2) 0.1841(2)
O2 O 0.1615(2) 0.6692(2) 0.42875(19)
N1 N 0.2555(2) 0.5407(2) 0.10166(18)
C1 C 0.2743(3) 0.4382(3) -0.0108(2)
C2 C 0.2237(3) 0.4800(3) -0.1595(3)
H1 H 0.243(3) 0.401(3) -0.233(3)
C3 C 0.1502(3) 0.6274(4) -0.1943(3)
H2 H 0.113(3) 0.658(3) -0.297(3)
C4 C 0.1258(3) 0.7324(3) -0.0802(3)
H3 H 0.078(3) 0.833(3) -0.094(3)
C5 C 0.1817(3) 0.6842(3) 0.0652(2)
C6 C 0.1616(3) 0.7896(3) 0.1950(2)
C7 C 0.2508(3) 0.7381(3) 0.3509(2)
C8 C 0.4364(3) 0.7800(3) 0.3982(2)
C9 C 0.5270(3) 0.7074(3) 0.5248(3)
H4 H 0.464(3) 0.633(3) 0.579(3)
C10 C 0.7019(4) 0.7391(4) 0.5670(3)
H5 H 0.764(4) 0.681(4) 0.657(3)
C11 C 0.7882(4) 0.8452(4) 0.4860(3)
H6 H 0.908(4) 0.869(3) 0.515(3)
C12 C 0.6999(4) 0.9220(3) 0.3632(3)
H7 H 0.753(3) 1.000(3) 0.304(3)
C13 C 0.5240(3) 0.8883(3) 0.3185(3)
H8 H 0.464(3) 0.945(3) 0.234(3)
C14 C 0.3501(4) 0.2755(3) 0.0323(3)
H9 H 0.4281 0.2897 0.1269
H10 H 0.4109 0.2398 -0.0425
H11 H 0.2598 0.1931 0.0400
loop_
_geom_bond_atom_site_label_1
_geom_bond_atom_site_label_2
_geom_bond_site_symmetry_1
_geom_bond_site_symmetry_2
O1 C6 1_555 1_555
O2 C7 1_555 1_555
N1 C1 1_555 1_555
C1 C2 1_555 1_555
C2 H1 1_555 1_555
C3 C2 1_555 1_555
H2 C3 1_555 1_555
C4 C3 1_555 1_555
H3 C4 1_555 1_555
C5 N1 1_555 1_555
C6 C5 1_555 1_555
C7 C6 1_555 1_555
C8 C7 1_555 1_555
C9 C8 1_555 1_555
H4 C9 1_555 1_555
C10 C9 1_555 1_555
H5 C10 1_555 1_555
C11 C10 1_555 1_555
H6 C11 1_555 1_555
C12 C11 1_555 1_555
H7 C12 1_555 1_555
C13 C8 1_555 1_555
H8 C13 1_555 1_555
C14 C1 1_555 1_555
H9 C14 1_555 1_555
H10 C14 1_555 1_555
H11 C14 1_555 1_555
C4 C5 1_555 1_555
C12 C13 1_555 1_555

#END
