
#######################################################################
#
#                 Cambridge Crystallographic Data Centre
#                                CCDC 
#
#######################################################################
#
# If this CIF has been generated from an entry in the Cambridge 
# Structural Database, then it will include bibliographic, chemical, 
# crystal, experimental, refinement or atomic coordinate data resulting 
# from the CCDC's data processing and validation procedures.
#
#######################################################################

data_HUMQEL
_chemical_formula_moiety         'C13 H15 N1 O3'
_chemical_name_systematic        
'Ethyl (E)-2-acetyl-3-amino-3-phenyl-2-propenoate'
_symmetry_cell_setting           orthorhombic
_symmetry_space_group_name_H-M   'P b c a'
_symmetry_Int_Tables_number      61
_space_group_name_Hall           '-P 2ac 2ab'
loop_
_symmetry_equiv_pos_site_id
_symmetry_equiv_pos_as_xyz
1 x,y,z
2 1/2-x,-y,1/2+z
3 -x,1/2+y,1/2-z
4 1/2+x,1/2-y,-z
5 -x,-y,-z
6 1/2+x,y,1/2-z
7 x,1/2-y,1/2+z
8 1/2-x,1/2+y,z
_cell_length_a                   17.158(3)
_cell_length_b                   7.6070(12)
_cell_length_c                   18.823(3)
_cell_angle_alpha                90
_cell_angle_beta                 90
_cell_angle_gamma                90
_cell_volume                     2456.8
_exptl_crystal_colour            colorless
_exptl_crystal_description       block
_cell_formula_units_Z            8
_exptl_crystal_recrystallization_method 'ethyl acetate/hexane'
loop_
_atom_site_label
_atom_site_type_symbol
_atom_site_fract_x
_atom_site_fract_y
_atom_site_fract_z
O1 O 0.14627(8) 0.10722(15) 0.23232(7)
O2 O 0.07113(7) 0.29759(15) 0.29087(6)
O3 O 0.16365(9) 0.5175(2) 0.08088(6)
N1 N 0.15867(9) 0.72069(18) 0.19130(7)
H1 H 0.1603 0.7161 0.1457
H2 H 0.1626 0.8202 0.2127
C1 C 0.14337(9) 0.4088(2) 0.19660(8)
C2 C 0.15009(9) 0.5743(2) 0.22871(8)
C3 C 0.15158(10) 0.6015(2) 0.30711(8)
C4 C 0.09829(12) 0.7123(2) 0.33890(9)
H3 H 0.0603 0.7672 0.3116
C5 C 0.10137(15) 0.7419(2) 0.41122(10)
H4 H 0.0647 0.8149 0.4325
C6 C 0.15778(14) 0.6649(3) 0.45182(10)
H5 H 0.1598 0.6865 0.5004
C7 C 0.21172(13) 0.5552(3) 0.42060(9)
H6 H 0.2503 0.5030 0.4481
C8 C 0.20845(11) 0.5228(2) 0.34860(8)
H7 H 0.2446 0.4476 0.3278
C9 C 0.12282(11) 0.2559(2) 0.24018(9)
C10 C 0.05537(13) 0.1672(3) 0.34468(10)
H8 H 0.1033 0.1090 0.3587
H9 H 0.0196 0.0792 0.3266
C11 C 0.02021(16) 0.2600(3) 0.40655(10)
H10 H 0.0581 0.3375 0.4272
H11 H 0.0039 0.1753 0.4413
H12 H -0.0240 0.3269 0.3910
C12 C 0.15219(11) 0.3890(2) 0.12037(10)
C13 C 0.14568(14) 0.2117(3) 0.08559(10)
H13 H 0.1473 0.2254 0.0349
H14 H 0.0973 0.1577 0.0990
H15 H 0.1883 0.1388 0.1006
loop_
_geom_bond_atom_site_label_1
_geom_bond_atom_site_label_2
_geom_bond_site_symmetry_1
_geom_bond_site_symmetry_2
O1 C9 1_555 1_555
O2 C9 1_555 1_555
O3 C12 1_555 1_555
N1 H1 1_555 1_555
H2 N1 1_555 1_555
C1 C2 1_555 1_555
C2 N1 1_555 1_555
C3 C2 1_555 1_555
C4 C3 1_555 1_555
H3 C4 1_555 1_555
C5 C4 1_555 1_555
H4 C5 1_555 1_555
C6 C5 1_555 1_555
H5 C6 1_555 1_555
C7 C6 1_555 1_555
H6 C7 1_555 1_555
C8 C3 1_555 1_555
H7 C8 1_555 1_555
C9 C1 1_555 1_555
C10 O2 1_555 1_555
H8 C10 1_555 1_555
H9 C10 1_555 1_555
C11 C10 1_555 1_555
H10 C11 1_555 1_555
H11 C11 1_555 1_555
H12 C11 1_555 1_555
C12 C1 1_555 1_555
C13 C12 1_555 1_555
H13 C13 1_555 1_555
H14 C13 1_555 1_555
H15 C13 1_555 1_555
C7 C8 1_555 1_555

#END
