
#######################################################################
#
#                 Cambridge Crystallographic Data Centre
#                                CCDC 
#
#######################################################################
#
# If this CIF has been generated from an entry in the Cambridge 
# Structural Database, then it will include bibliographic, chemical, 
# crystal, experimental, refinement or atomic coordinate data resulting 
# from the CCDC's data processing and validation procedures.
#
#######################################################################

data_HUMSUD
_chemical_formula_moiety         'C10 H16 N2 O4 S2,H2 O1'
_chemical_name_systematic        
"S,S'-(But-2-yne-1,4-diyl)bis(L-cysteine) monohydrate"
_symmetry_cell_setting           trigonal
_symmetry_space_group_name_H-M   'P 32 2 1'
_symmetry_Int_Tables_number      154
_space_group_name_Hall           'P 32 2"'
loop_
_symmetry_equiv_pos_site_id
_symmetry_equiv_pos_as_xyz
1 x,y,z
2 -y,x-y,2/3+z
3 -x+y,-x,1/3+z
4 y,x,-z
5 x-y,-y,1/3-z
6 -x,-x+y,2/3-z
_cell_length_a                   5.3906(10)
_cell_length_b                   5.3906(10)
_cell_length_c                   40.964(15)
_cell_angle_alpha                90
_cell_angle_beta                 90
_cell_angle_gamma                120
_cell_volume                     1030.88
_exptl_crystal_colour            colorless
_exptl_crystal_description       prism
_chemical_melting_point          '513-515 K(dec.)'
_cell_formula_units_Z            3
loop_
_atom_site_label
_atom_site_type_symbol
_atom_site_fract_x
_atom_site_fract_y
_atom_site_fract_z
S1 S 0.4329(2) 0.60161(18) 0.11571(2)
N1 N 0.5174(8) 0.7537(6) 0.04095(6)
H1 H 0.570(10) 0.815(9) 0.0216(4)
H2 H 0.339(2) 0.661(13) 0.0450(13)
H3 H 0.550(13) 0.615(8) 0.0394(15)
O1 O 0.5828(5) 1.2629(5) 0.02738(6)
O2 O 0.9418(5) 1.4985(5) 0.06143(6)
C1 C 0.7454(7) 1.2771(7) 0.04912(7)
C2 C 0.6984(7) 0.9922(7) 0.06362(6)
H4 H 0.8840 1.0027 0.0664
C3 C 0.5517(7) 0.9436(7) 0.09668(7)
H5 H 0.3870 0.9691 0.0941
H6 H 0.6833 1.0915 0.1115
C4 C 0.7612(9) 0.6594(8) 0.13492(9)
H7 H 0.7220 0.4870 0.1466
H8 H 0.9007 0.6922 0.1181
C5 C 0.8852(8) 0.9004(8) 0.15759(8)
C5D C 0.9848(11) 1.0996(8) 0.17574(8)
C4D C 1.1018(12) 1.3406(8) 0.19841(9)
S1D S 0.83129(27) 1.39839(18) 0.21762(2)
C3D C 0.6081(10) 1.0564(7) 0.23665(7)
C2D C 0.7062(10) 1.0078(7) 0.26971(6)
N1D N 0.7637(10) 1.2463(6) 0.29238(6)
H1D H 0.755(13) 1.185(9) 0.3117(4)
H2D H 0.678(13) 1.339(13) 0.2883(13)
H3D H 0.935(15) 1.385(8) 0.2939(15)
C1D C 0.4683(10) 0.7229(7) 0.28421(7)
O1D O 0.3199(7) 0.7371(5) 0.30595(6)
O2D O 0.4433(7) 0.5015(5) 0.27190(6)
H4D H 0.8813 0.9973 0.2669
H5D H 0.4179 1.0309 0.2392
H6D H 0.5918 0.9085 0.2218
H7D H 1.2350 1.5130 0.1867
H8D H 1.2085 1.3078 0.2152
O3 O 0.0310(6) 1.0310(6) 0.0000
H9 H 0.1962 1.0769 0.0103
H9C H 0.0769 1.1962 -0.0103
loop_
_geom_bond_atom_site_label_1
_geom_bond_atom_site_label_2
_geom_bond_site_symmetry_1
_geom_bond_site_symmetry_2
S1 C3 1_555 1_555
N1 H1 1_555 1_555
H2 N1 1_555 1_555
H3 N1 1_555 1_555
O1 C1 1_555 1_555
O2 C1 1_555 1_555
C1 C2 1_555 1_555
C2 N1 1_555 1_555
H4 C2 1_555 1_555
C3 C2 1_555 1_555
H5 C3 1_555 1_555
H6 C3 1_555 1_555
C4 S1 1_555 1_555
H7 C4 1_555 1_555
H8 C4 1_555 1_555
C5 C4 1_555 1_555
O3 H9 1_555 1_555
C5D C5 1_555 1_555
C4D C5D 1_555 1_555
S1D C4D 1_555 1_555
C3D S1D 1_555 1_555
C2D C3D 1_555 1_555
N1D C2D 1_555 1_555
H1D N1D 1_555 1_555
H2D N1D 1_555 1_555
H3D N1D 1_555 1_555
C1D C2D 1_555 1_555
O1D C1D 1_555 1_555
O2D C1D 1_555 1_555
H4D C2D 1_555 1_555
H5D C3D 1_555 1_555
H6D C3D 1_555 1_555
H7D C4D 1_555 1_555
H8D C4D 1_555 1_555
H9C O3 1_555 1_555

#END
