
#######################################################################
#
#                 Cambridge Crystallographic Data Centre
#                                CCDC 
#
#######################################################################
#
# If this CIF has been generated from an entry in the Cambridge 
# Structural Database, then it will include bibliographic, chemical, 
# crystal, experimental, refinement or atomic coordinate data resulting 
# from the CCDC's data processing and validation procedures.
#
#######################################################################

data_HUMTIS
_chemical_formula_moiety         'C16 H12 Cl2 O2'
_chemical_name_systematic        
"2a',8a'-Dichloro-3,8-dioxo-1',2',2a',8a'-tetrahydrodispiro(cyclopropane-1,1'- cyclobuta(b)napthalene-2',1''-cyclopropane)"
_symmetry_cell_setting           triclinic
_symmetry_space_group_name_H-M   'P -1'
_symmetry_Int_Tables_number      2
_space_group_name_Hall           '-P 1'
loop_
_symmetry_equiv_pos_site_id
_symmetry_equiv_pos_as_xyz
1 x,y,z
2 -x,-y,-z
_cell_length_a                   7.24300(10)
_cell_length_b                   10.0455(2)
_cell_length_c                   10.0831(2)
_cell_angle_alpha                85.47
_cell_angle_beta                 73.3060(10)
_cell_angle_gamma                69.4010(10)
_cell_volume                     657.593
_exptl_crystal_colour            colorless
_exptl_crystal_description       block
_chemical_melting_point          '432.0 K'
_cell_formula_units_Z            2
_exptl_crystal_recrystallization_method 'petroleum ether/ethyl acetate'
loop_
_atom_site_label
_atom_site_type_symbol
_atom_site_fract_x
_atom_site_fract_y
_atom_site_fract_z
Cl1 Cl 0.31434(9) 0.53664(6) 0.65750(6)
Cl2 Cl -0.16104(9) 0.62238(6) 0.71342(6)
O1 O 0.4263(3) 0.7817(2) 0.55929(18)
O2 O -0.3803(3) 0.9268(2) 0.7387(2)
C1 C 0.1680(3) 0.7113(2) 0.7254(2)
C2 C 0.2534(3) 0.8177(2) 0.6358(2)
C3 C 0.1157(3) 0.9690(2) 0.6523(2)
C4 C 0.2023(4) 1.0760(3) 0.6184(2)
H1 H 0.3443 1.0519 0.5916
C5 C 0.0775(5) 1.2176(3) 0.6247(3)
H2 H 0.1358 1.2883 0.6039
C6 C -0.1353(4) 1.2540(3) 0.6622(3)
H3 H -0.2185 1.3489 0.6637
C7 C -0.2237(4) 1.1492(3) 0.6975(2)
H4 H -0.3658 1.1740 0.7231
C8 C -0.0991(3) 1.0066(2) 0.6943(2)
C9 C -0.1990(3) 0.8973(2) 0.7288(2)
C10 C -0.0734(3) 0.7485(2) 0.7655(2)
C11 C -0.0781(3) 0.7471(2) 0.9195(2)
C12 C 0.1463(3) 0.7288(2) 0.8804(2)
C13 C -0.2507(4) 0.8345(3) 1.0358(2)
H5 H -0.3788 0.8904 1.0157
H6 H -0.2157 0.8774 1.1036
C14 C -0.1908(4) 0.6749(3) 1.0331(2)
H7 H -0.1199 0.6220 1.0993
H8 H -0.2830 0.6350 1.0114
C15 C 0.2465(4) 0.8102(3) 0.9380(3)
H9 H 0.1640 0.8720 1.0184
H10 H 0.3474 0.8439 0.8730
C16 C 0.3007(4) 0.6517(3) 0.9566(3)
H11 H 0.4344 0.5904 0.9030
H12 H 0.2511 0.6185 1.0484
loop_
_geom_bond_atom_site_label_1
_geom_bond_atom_site_label_2
_geom_bond_site_symmetry_1
_geom_bond_site_symmetry_2
Cl1 C1 1_555 1_555
Cl2 C10 1_555 1_555
O1 C2 1_555 1_555
O2 C9 1_555 1_555
C1 C2 1_555 1_555
C2 C3 1_555 1_555
C3 C4 1_555 1_555
C4 H1 1_555 1_555
C5 C4 1_555 1_555
H2 C5 1_555 1_555
C6 C5 1_555 1_555
H3 C6 1_555 1_555
C7 C6 1_555 1_555
H4 C7 1_555 1_555
C8 C3 1_555 1_555
C9 C8 1_555 1_555
C10 C1 1_555 1_555
C11 C10 1_555 1_555
C12 C1 1_555 1_555
C13 C11 1_555 1_555
H5 C13 1_555 1_555
H6 C13 1_555 1_555
C14 C11 1_555 1_555
H7 C14 1_555 1_555
H8 C14 1_555 1_555
C15 C12 1_555 1_555
H9 C15 1_555 1_555
H10 C15 1_555 1_555
C16 C12 1_555 1_555
H11 C16 1_555 1_555
H12 C16 1_555 1_555
C7 C8 1_555 1_555
C9 C10 1_555 1_555
C11 C12 1_555 1_555
C13 C14 1_555 1_555
C15 C16 1_555 1_555

#END
