
#######################################################################
#
#                 Cambridge Crystallographic Data Centre
#                                CCDC 
#
#######################################################################
#
# If this CIF has been generated from an entry in the Cambridge 
# Structural Database, then it will include bibliographic, chemical, 
# crystal, experimental, refinement or atomic coordinate data resulting 
# from the CCDC's data processing and validation procedures.
#
#######################################################################

data_HUMZAQ
_chemical_formula_moiety         'C20 H30 N4 O6'
_chemical_name_systematic        
3,3'-(Hexane-1,6-diyl)bis(1-acetyl-5,5-dimethylhydantoin)
_chemical_properties_biological  
'inducer of differentiation of certain types of tumours to nonmalignant phenotypes'
_symmetry_cell_setting           triclinic
_symmetry_space_group_name_H-M   'P -1'
_symmetry_Int_Tables_number      2
_space_group_name_Hall           '-P 1'
loop_
_symmetry_equiv_pos_site_id
_symmetry_equiv_pos_as_xyz
1 x,y,z
2 -x,-y,-z
_cell_length_a                   8.330(2)
_cell_length_b                   8.468(2)
_cell_length_c                   16.017(3)
_cell_angle_alpha                97.30(3)
_cell_angle_beta                 92.33(3)
_cell_angle_gamma                103.94(3)
_cell_volume                     1084.67
_exptl_crystal_colour            colorless
_cell_formula_units_Z            2
loop_
_atom_site_label
_atom_site_type_symbol
_atom_site_fract_x
_atom_site_fract_y
_atom_site_fract_z
O1 O 0.6809(2) 0.5079(2) 0.2268(1)
O2 O 0.8480(2) 0.0329(2) 0.2293(1)
O3 O 0.7576(2) 0.0799(2) -0.0251(1)
N1 N 0.7697(2) 0.1573(2) 0.1158(1)
N2 N 0.7612(2) 0.2734(2) 0.2488(1)
C1 C 0.9204(2) 0.4427(2) 0.4781(1)
C2 C 0.7872(2) 0.0483(2) 0.0450(1)
C3 C 0.8414(3) -0.1034(2) 0.0593(1)
C4 C 0.8355(2) 0.4298(2) 0.0618(1)
C5 C 0.5357(2) 0.2724(3) 0.0681(1)
C10 C 0.7141(2) 0.3090(2) 0.1074(1)
C11 C 0.7162(2) 0.3808(2) 0.2001(1)
C12 C 0.7994(2) 0.1401(2) 0.2006(1)
C13 C 0.7672(2) 0.2944(2) 0.3414(1)
C14 C 0.9260(2) 0.4115(2) 0.3825(1)
C1A C 1.0796(2) 0.5573(2) 0.5219(1)
C14A C 1.0740(2) 0.5885(2) 0.6175(1)
C13A C 1.2328(2) 0.7056(2) 0.6586(1)
N2A N 1.2388(2) 0.7266(2) 0.7512(1)
C11A C 1.2838(2) 0.6192(2) 0.7999(1)
O1A O 1.3191(2) 0.4921(2) 0.7732(1)
C10A C 1.2859(2) 0.6910(2) 0.8926(1)
N1A N 1.2303(2) 0.8427(2) 0.8842(1)
C2A C 1.2128(2) 0.9517(2) 0.9550(1)
O3A O 1.2424(2) 0.9201(2) 1.0251(1)
C3A C 1.1586(3) 1.1034(2) 0.9407(1)
C12A C 1.2006(2) 0.8599(2) 0.7994(1)
O2A O 1.1520(2) 0.9671(2) 0.7707(1)
C4A C 1.1645(2) 0.5702(2) 0.9382(1)
C5A C 1.4643(2) 0.7276(3) 0.9319(1)
O4 O 0.4745(2) 0.9833(2) 0.3419(1)
O5 O 0.4593(2) 0.4657(2) 0.3972(1)
O6 O 0.1785(2) 0.4136(2) 0.1687(1)
N3 N 0.3345(2) 0.5571(2) 0.2844(1)
C6 C 0.3354(2) 0.7205(2) 0.2587(1)
C7 C 0.4434(2) 0.8350(2) 0.3315(1)
C8 C 0.4352(2) 0.5735(2) 0.3590(1)
C9 C 0.6176(2) 0.8079(3) 0.4591(1)
N4 N 0.5011(2) 0.7404(2) 0.3840(1)
C15 C 0.7965(2) 0.8647(2) 0.4356(1)
C16 C 0.9118(2) 0.9621(2) 0.5113(1)
C17 C 0.2580(2) 0.4094(2) 0.2334(1)
C18 C 0.2766(2) 0.2504(2) 0.2599(1)
C19 C 0.1624(2) 0.7547(3) 0.2548(2)
C20 C 0.4226(3) 0.7454(3) 0.1773(1)
C16A C 1.0882(2) 1.0379(2) 0.4887(1)
C15A C 1.2035(2) 1.1353(2) 0.5644(1)
C9A C 1.3824(2) 1.1921(3) 0.5409(1)
N4A N 1.4989(2) 1.2596(2) 0.6160(1)
C7A C 1.5566(2) 1.1650(2) 0.6685(1)
O4A O 1.5255(2) 1.0167(2) 0.6581(1)
C6A C 1.6646(2) 1.2795(2) 0.7413(1)
N3A N 1.6655(2) 1.4429(2) 0.7156(1)
C8A C 1.5648(2) 1.4265(2) 0.6410(1)
O5A O 1.5407(2) 1.5343(2) 0.6028(1)
C17A C 1.7420(2) 1.5906(2) 0.7666(1)
O6A O 1.8215(2) 1.5864(2) 0.8313(1)
C18A C 1.7234(2) 1.7496(2) 0.7401(1)
C19A C 1.8376(2) 1.2453(3) 0.7452(2)
C20A C 1.5774(3) 1.2546(3) 0.8227(1)
loop_
_geom_bond_atom_site_label_1
_geom_bond_atom_site_label_2
_geom_bond_site_symmetry_1
_geom_bond_site_symmetry_2
O1 C11 1_555 1_555
O2 C12 1_555 1_555
O3 C2 1_555 1_555
O4 C7 1_555 1_555
O5 C8 1_555 1_555
O6 C17 1_555 1_555
N1 C2 1_555 1_555
N2 C11 1_555 1_555
N3 C6 1_555 1_555
C1 C14 1_555 1_555
C2 C3 1_555 1_555
C4 C10 1_555 1_555
C5 C10 1_555 1_555
C6 C7 1_555 1_555
C7 N4 1_555 1_555
C8 N3 1_555 1_555
C9 N4 1_555 1_555
N4 C8 1_555 1_555
C10 N1 1_555 1_555
C11 C10 1_555 1_555
C12 N1 1_555 1_555
C13 N2 1_555 1_555
C14 C13 1_555 1_555
C15 C9 1_555 1_555
C16 C15 1_555 1_555
C17 N3 1_555 1_555
C18 C17 1_555 1_555
C19 C6 1_555 1_555
C20 C6 1_555 1_555
C1A C1 1_555 1_555
C14A C1A 1_555 1_555
C13A C14A 1_555 1_555
N2A C13A 1_555 1_555
C11A N2A 1_555 1_555
O1A C11A 1_555 1_555
C10A C11A 1_555 1_555
N1A C10A 1_555 1_555
C2A N1A 1_555 1_555
O3A C2A 1_555 1_555
C3A C2A 1_555 1_555
C12A N2A 1_555 1_555
O2A C12A 1_555 1_555
C4A C10A 1_555 1_555
C5A C10A 1_555 1_555
C16A C16 1_555 1_555
C15A C16A 1_555 1_555
C9A C15A 1_555 1_555
N4A C9A 1_555 1_555
C7A N4A 1_555 1_555
O4A C7A 1_555 1_555
C6A C7A 1_555 1_555
N3A C6A 1_555 1_555
C8A N4A 1_555 1_555
O5A C8A 1_555 1_555
C17A N3A 1_555 1_555
O6A C17A 1_555 1_555
C18A C17A 1_555 1_555
C19A C6A 1_555 1_555
C20A C6A 1_555 1_555
N2 C12 1_555 1_555
N1A C12A 1_555 1_555
N3A C8A 1_555 1_555

#END
