
#######################################################################
#
#                 Cambridge Crystallographic Data Centre
#                                CCDC 
#
#######################################################################
#
# If this CIF has been generated from an entry in the Cambridge 
# Structural Database, then it will include bibliographic, chemical, 
# crystal, experimental, refinement or atomic coordinate data resulting 
# from the CCDC's data processing and validation procedures.
#
#######################################################################

data_HUNDEA
_chemical_formula_moiety         'C13 H15 N1 O4'
_chemical_name_systematic        
(3S,6S)-3-((Benzyloxy)methyl)-6-methylmorpholine-2,5-dione
_symmetry_cell_setting           orthorhombic
_symmetry_space_group_name_H-M   'P 21 21 21'
_symmetry_Int_Tables_number      19
_space_group_name_Hall           'P 2ac 2ab'
loop_
_symmetry_equiv_pos_site_id
_symmetry_equiv_pos_as_xyz
1 x,y,z
2 1/2-x,-y,1/2+z
3 -x,1/2+y,1/2-z
4 1/2+x,1/2-y,-z
_cell_length_a                   7.5787(17)
_cell_length_b                   10.186(2)
_cell_length_c                   16.542(4)
_cell_angle_alpha                90
_cell_angle_beta                 90
_cell_angle_gamma                90
_cell_volume                     1276.99
_exptl_crystal_colour            colorless
_exptl_crystal_description       block
_cell_formula_units_Z            4
_exptl_crystal_recrystallization_method 'ethyl acetate'
loop_
_atom_site_label
_atom_site_type_symbol
_atom_site_fract_x
_atom_site_fract_y
_atom_site_fract_z
O1 O 0.5025(3) 0.29347(18) 0.09201(13)
O2 O 0.2567(2) 0.35832(16) 0.03576(12)
O3 O 0.1243(2) 0.67872(18) -0.03455(11)
O4 O 0.3262(2) 0.53612(19) 0.19683(10)
N1 N 0.3732(3) 0.61608(19) 0.02888(12)
H1 H 0.422(3) 0.688(2) 0.0207(15)
C1 C 0.4142(3) 0.3836(2) 0.06774(15)
C2 C 0.1336(3) 0.4599(2) 0.01235(15)
H2 H 0.0848 0.4339 -0.0401
C3 C -0.0187(3) 0.4626(3) 0.07116(18)
H3 H 0.0254 0.4763 0.1249
H4 H -0.0807 0.3805 0.0689
H5 H -0.0976 0.5327 0.0571
C4 C 0.2125(3) 0.5949(2) 0.00115(14)
C5 C 0.4794(3) 0.5230(2) 0.07379(14)
H6 H 0.5986 0.5253 0.0509
C6 C 0.4946(3) 0.5581(3) 0.16257(15)
H7 H 0.5825 0.5035 0.1887
H8 H 0.5287 0.6494 0.1688
C7 C 0.3241(4) 0.5365(4) 0.28262(16)
H9 H 0.3543 0.6231 0.3026
H10 H 0.4103 0.4744 0.3031
C8 C 0.1433(4) 0.4990(3) 0.31097(14)
C9 C 0.0854(4) 0.3704(3) 0.30520(16)
H11 H 0.1594 0.3069 0.2832
C10 C -0.0809(4) 0.3351(3) 0.33161(17)
H12 H -0.1177 0.2483 0.3277
C11 C -0.1914(4) 0.4276(4) 0.36352(18)
H13 H -0.3032 0.4039 0.3815
C12 C -0.1369(5) 0.5548(3) 0.36884(19)
H14 H -0.2124 0.6181 0.3900
C13 C 0.0296(5) 0.5905(3) 0.34314(17)
H15 H 0.0653 0.6776 0.3476
loop_
_geom_bond_atom_site_label_1
_geom_bond_atom_site_label_2
_geom_bond_site_symmetry_1
_geom_bond_site_symmetry_2
O1 C1 1_555 1_555
O2 C1 1_555 1_555
O3 C4 1_555 1_555
O4 C6 1_555 1_555
N1 H1 1_555 1_555
C1 C5 1_555 1_555
C2 O2 1_555 1_555
H2 C2 1_555 1_555
C3 C2 1_555 1_555
H3 C3 1_555 1_555
H4 C3 1_555 1_555
H5 C3 1_555 1_555
C4 N1 1_555 1_555
C5 N1 1_555 1_555
H6 C5 1_555 1_555
C6 C5 1_555 1_555
H7 C6 1_555 1_555
H8 C6 1_555 1_555
C7 O4 1_555 1_555
H9 C7 1_555 1_555
H10 C7 1_555 1_555
C8 C7 1_555 1_555
C9 C8 1_555 1_555
H11 C9 1_555 1_555
C10 C9 1_555 1_555
H12 C10 1_555 1_555
C11 C10 1_555 1_555
H13 C11 1_555 1_555
C12 C11 1_555 1_555
H14 C12 1_555 1_555
C13 C8 1_555 1_555
H15 C13 1_555 1_555
C2 C4 1_555 1_555
C12 C13 1_555 1_555

#END
