
#######################################################################
#
#                 Cambridge Crystallographic Data Centre
#                                CCDC 
#
#######################################################################
#
# If this CIF has been generated from an entry in the Cambridge 
# Structural Database, then it will include bibliographic, chemical, 
# crystal, experimental, refinement or atomic coordinate data resulting 
# from the CCDC's data processing and validation procedures.
#
#######################################################################

data_HUNMEJ
_chemical_compound_source        'soft coral Sinularia nanlobata'
_chemical_name_common            N\nolobatolide
_chemical_formula_moiety         'C18 H26 O3'
_chemical_name_systematic        
14-Hydroxy-3-isopropyl-6,14-dimethyl-13-oxatetracyclo[7.4.1.0^1,7^.0^7,11^]tetradec-2-en-12-one
_symmetry_cell_setting           monoclinic
_symmetry_space_group_name_H-M   'P 21'
_symmetry_Int_Tables_number      4
_space_group_name_Hall           'P 2yb'
loop_
_symmetry_equiv_pos_site_id
_symmetry_equiv_pos_as_xyz
1 x,y,z
2 -x,1/2+y,-z
_cell_length_a                   6.7635(11)
_cell_length_b                   13.1016(23)
_cell_length_c                   9.4936(16)
_cell_angle_alpha                90
_cell_angle_beta                 99.898(14)
_cell_angle_gamma                90
_cell_volume                     828.731
_exptl_crystal_colour            colorless
_exptl_crystal_description       prism
_chemical_melting_point          102-103deg.C
_cell_formula_units_Z            2
loop_
_atom_site_label
_atom_site_type_symbol
_atom_site_fract_x
_atom_site_fract_y
_atom_site_fract_z
O1 O 0.9369(3) 0.68519(16) 0.0680(3)
O2 O 0.6954(3) 0.93061(17) -0.0354(3)
H1 H 0.809(6) 0.960(4) -0.015(4)
O3 O 0.9051(4) 0.5204(2) 0.0139(4)
C1 C 0.6101(4) 0.7206(2) 0.1271(3)
C2 C 0.6150(5) 0.6998(3) 0.2852(3)
H2 H 0.7479 0.6720 0.3236
C3 C 0.5869(6) 0.7958(3) 0.3719(4)
H3 H 0.4437 0.8073 0.3641
H4 H 0.6384 0.7808 0.4715
C4 C 0.6814(6) 0.8960(3) 0.3357(4)
H5 H 0.5950 0.9260 0.2540
H6 H 0.6830 0.9423 0.4157
C5 C 0.8919(5) 0.8902(3) 0.3022(3)
C6 C 0.9364(4) 0.8371(2) 0.1939(3)
H7 H 1.0694 0.8410 0.1807
C7 C 0.8037(4) 0.7719(2) 0.0901(3)
C8 C 0.7232(4) 0.8248(2) -0.0584(3)
C9 C 0.5126(5) 0.7797(3) -0.0983(4)
H8 H 0.4268 0.8160 -0.1761
C10 C 0.5227(6) 0.6641(3) -0.1215(4)
H9 H 0.6098 0.6476 -0.1895
H10 H 0.3903 0.6359 -0.1549
C11 C 0.6113(5) 0.6245(2) 0.0311(4)
H11 H 0.5351 0.5673 0.0614
C12 C 0.4367(4) 0.7834(3) 0.0436(4)
H12 H 0.3075 0.7502 0.0391
H13 H 0.4315 0.8522 0.0803
C13 C 0.4593(6) 0.6207(3) 0.3139(4)
H14 H 0.3275 0.6429 0.2704
H15 H 0.4648 0.6135 0.4151
H16 H 0.4881 0.5561 0.2740
C14 C 1.0568(6) 0.9547(3) 0.3909(4)
H17 H 1.1796 0.9453 0.3505
C15 C 1.1009(9) 0.9203(5) 0.5452(5)
H18 H 0.9882 0.9358 0.5908
H19 H 1.2178 0.9552 0.5939
H20 H 1.1247 0.8480 0.5489
C16 C 1.0032(8) 1.0679(3) 0.3800(5)
H21 H 0.8888 1.0802 0.4251
H22 H 0.9722 1.0874 0.2812
H23 H 1.1151 1.1074 0.4270
C17 C 0.8592(6) 0.8123(3) -0.1707(4)
H24 H 0.7973 0.8439 -0.2585
H25 H 0.8792 0.7410 -0.1870
H26 H 0.9865 0.8441 -0.1371
C18 C 0.8278(5) 0.6004(3) 0.0370(4)
loop_
_geom_bond_atom_site_label_1
_geom_bond_atom_site_label_2
_geom_bond_site_symmetry_1
_geom_bond_site_symmetry_2
O1 C7 1_555 1_555
O2 H1 1_555 1_555
O3 C18 1_555 1_555
C1 C2 1_555 1_555
C2 H2 1_555 1_555
C3 C2 1_555 1_555
H3 C3 1_555 1_555
H4 C3 1_555 1_555
C4 C3 1_555 1_555
H5 C4 1_555 1_555
H6 C4 1_555 1_555
C5 C4 1_555 1_555
C6 C5 1_555 1_555
H7 C6 1_555 1_555
C7 C1 1_555 1_555
C8 O2 1_555 1_555
C9 C8 1_555 1_555
H8 C9 1_555 1_555
C10 C9 1_555 1_555
H9 C10 1_555 1_555
H10 C10 1_555 1_555
C11 C1 1_555 1_555
H11 C11 1_555 1_555
C12 C1 1_555 1_555
H12 C12 1_555 1_555
H13 C12 1_555 1_555
C13 C2 1_555 1_555
H14 C13 1_555 1_555
H15 C13 1_555 1_555
H16 C13 1_555 1_555
C14 C5 1_555 1_555
H17 C14 1_555 1_555
C15 C14 1_555 1_555
H18 C15 1_555 1_555
H19 C15 1_555 1_555
H20 C15 1_555 1_555
C16 C14 1_555 1_555
H21 C16 1_555 1_555
H22 C16 1_555 1_555
H23 C16 1_555 1_555
C17 C8 1_555 1_555
H24 C17 1_555 1_555
H25 C17 1_555 1_555
H26 C17 1_555 1_555
C18 O1 1_555 1_555
C6 C7 1_555 1_555
C7 C8 1_555 1_555
C9 C12 1_555 1_555
C10 C11 1_555 1_555
C11 C18 1_555 1_555

#END
