
#######################################################################
#
#                 Cambridge Crystallographic Data Centre
#                                CCDC 
#
#######################################################################
#
# If this CIF has been generated from an entry in the Cambridge 
# Structural Database, then it will include bibliographic, chemical, 
# crystal, experimental, refinement or atomic coordinate data resulting 
# from the CCDC's data processing and validation procedures.
#
#######################################################################

data_HUNNOU01
_chemical_name_common            (-)-Jiadifenolide
_chemical_formula_moiety         'C15 H18 O7'
_chemical_name_systematic        
6,9-Dihydroxy-2,11-dimethyl-4,8,14-trioxapentacyclo[7.4.2.1^7,10^.0^1,10^.0^2,6^]hexadecane-5,15-dione
_symmetry_cell_setting           monoclinic
_symmetry_space_group_name_H-M   'P 21'
_symmetry_Int_Tables_number      4
_space_group_name_Hall           'P 2yb'
loop_
_symmetry_equiv_pos_site_id
_symmetry_equiv_pos_as_xyz
1 x,y,z
2 -x,1/2+y,-z
_cell_length_a                   7.1468(5)
_cell_length_b                   8.6959(7)
_cell_length_c                   11.0063(8)
_cell_angle_alpha                90
_cell_angle_beta                 98.150(5)
_cell_angle_gamma                90
_cell_volume                     677.11
_exptl_crystal_colour            colorless
_exptl_crystal_description       block
_cell_formula_units_Z            2
_exptl_crystal_recrystallization_method dichloromethane/methanol
loop_
_atom_site_label
_atom_site_type_symbol
_atom_site_fract_x
_atom_site_fract_y
_atom_site_fract_z
O1 O 0.27647(19) 0.5314(2) 0.90822(13)
O2 O 0.3384(2) 0.4789(2) 0.72028(14)
O3 O 0.6714(2) 0.39862(18) 0.94558(14)
H1 H 0.6079 0.3920 1.0040
O4 O 0.5422(2) 0.79854(18) 0.87882(13)
O5 O 0.5647(2) 0.7383(2) 0.62424(12)
O6 O 0.6582(2) 1.0370(2) 0.83539(14)
H2 H 0.6949 1.0413 0.9113
O7 O 0.4121(2) 0.9628(2) 0.62315(15)
C1 C 0.3902(3) 0.5140(3) 0.83780(19)
C2 C 0.6056(3) 0.5244(3) 0.86985(19)
C3 C 0.6618(3) 0.6752(3) 0.93658(18)
H3 H 0.6500 0.6668 1.0258
C4 C 0.8604(3) 0.7202(3) 0.91902(18)
H4 H 0.9455 0.6300 0.9225
H5 H 0.9144 0.7978 0.9799
C5 C 0.8201(3) 0.7875(3) 0.78951(19)
C6 C 0.9912(3) 0.8576(3) 0.73810(19)
H6 H 1.1035 0.7947 0.7725
C7 C 0.9544(3) 0.8222(3) 0.6008(2)
H7 H 0.8624 0.8954 0.5571
H8 H 1.0729 0.8261 0.5640
C8 C 0.8742(3) 0.6600(3) 0.59708(19)
H9 H 0.9754 0.5833 0.6203
H10 H 0.8078 0.6349 0.5143
C9 C 0.7362(3) 0.6645(3) 0.69154(18)
C10 C 0.6782(3) 0.5072(3) 0.74248(19)
C11 C 0.5039(3) 0.4391(3) 0.6628(2)
H11 H 0.4916 0.4820 0.5788
H12 H 0.5162 0.3260 0.6576
C12 C 0.6448(3) 0.8864(3) 0.79877(19)
C13 C 0.5260(3) 0.8732(3) 0.67303(19)
C14 C 1.0427(3) 1.0228(3) 0.7676(2)
H13 H 1.1659 1.0455 0.7424
H14 H 1.0492 1.0398 0.8561
H15 H 0.9466 1.0905 0.7234
C15 C 0.8396(3) 0.3910(3) 0.7473(2)
H16 H 0.8070 0.2979 0.7898
H17 H 0.9553 0.4360 0.7916
H18 H 0.8600 0.3648 0.6636
loop_
_geom_bond_atom_site_label_1
_geom_bond_atom_site_label_2
_geom_bond_site_symmetry_1
_geom_bond_site_symmetry_2
O1 C1 1_555 1_555
O2 C1 1_555 1_555
O3 H1 1_555 1_555
O4 C3 1_555 1_555
O5 C9 1_555 1_555
O6 H2 1_555 1_555
O7 C13 1_555 1_555
C1 C2 1_555 1_555
C2 O3 1_555 1_555
C3 C2 1_555 1_555
H3 C3 1_555 1_555
C4 C3 1_555 1_555
H4 C4 1_555 1_555
H5 C4 1_555 1_555
C5 C4 1_555 1_555
C6 C5 1_555 1_555
H6 C6 1_555 1_555
C7 C6 1_555 1_555
H7 C7 1_555 1_555
H8 C7 1_555 1_555
C8 C7 1_555 1_555
H9 C8 1_555 1_555
H10 C8 1_555 1_555
C9 C5 1_555 1_555
C10 C2 1_555 1_555
C11 O2 1_555 1_555
H11 C11 1_555 1_555
H12 C11 1_555 1_555
C12 O4 1_555 1_555
C13 O5 1_555 1_555
C14 C6 1_555 1_555
H13 C14 1_555 1_555
H14 C14 1_555 1_555
H15 C14 1_555 1_555
C15 C10 1_555 1_555
H16 C15 1_555 1_555
H17 C15 1_555 1_555
H18 C15 1_555 1_555
O6 C12 1_555 1_555
C5 C12 1_555 1_555
C8 C9 1_555 1_555
C9 C10 1_555 1_555
C10 C11 1_555 1_555
C12 C13 1_555 1_555

#END
