
#######################################################################
#
#                 Cambridge Crystallographic Data Centre
#                                CCDC 
#
#######################################################################
#
# If this CIF has been generated from an entry in the Cambridge 
# Structural Database, then it will include bibliographic, chemical, 
# crystal, experimental, refinement or atomic coordinate data resulting 
# from the CCDC's data processing and validation procedures.
#
#######################################################################

data_HUPCIF
_chemical_formula_moiety         'C15 H21 N1 O4'
_chemical_name_systematic        
'Methyl cis-3-((4-methoxyphenyl)amino)-4,4-dimethyltetrahydrofuran-2-carboxylate'
_symmetry_cell_setting           monoclinic
_symmetry_space_group_name_H-M   'P 21/c'
_symmetry_Int_Tables_number      14
_space_group_name_Hall           '-P 2ybc'
loop_
_symmetry_equiv_pos_site_id
_symmetry_equiv_pos_as_xyz
1 x,y,z
2 -x,1/2+y,1/2-z
3 -x,-y,-z
4 x,1/2-y,1/2+z
_cell_length_a                   9.1695(16)
_cell_length_b                   11.727(2)
_cell_length_c                   13.807(2)
_cell_angle_alpha                90
_cell_angle_beta                 96.189(2)
_cell_angle_gamma                90
_cell_volume                     1476.02
_exptl_crystal_colour            colorless
_exptl_crystal_description       'cubic prism'
_cell_formula_units_Z            4
loop_
_atom_site_label
_atom_site_type_symbol
_atom_site_fract_x
_atom_site_fract_y
_atom_site_fract_z
N1 N 0.67395(7) 0.91900(5) 0.11566(5)
H1 H 0.5892(13) 0.9171(10) 0.0823(8)
O1 O 0.51871(7) 1.14565(6) 0.12620(5)
C1 C 0.67164(8) 1.12588(6) 0.13364(6)
H2 H 0.7247(12) 1.1860(10) 0.1741(8)
O2 O 0.64589(7) 1.13128(6) -0.04295(4)
C2 C 0.69746(8) 1.01063(6) 0.18613(5)
H3 H 0.7973(13) 1.0043(10) 0.2163(8)
O3 O 0.86974(6) 1.12546(5) 0.04148(5)
C3 C 0.58392(9) 1.02090(6) 0.26184(5)
O4 O 0.93885(8) 0.48952(5) 0.16027(5)
C4 C 0.45670(9) 1.08212(7) 0.20131(6)
H4 H 0.3846 1.0259 0.1718
H5 H 0.4062 1.1343 0.2432
C5 C 0.72290(8) 1.12700(6) 0.03323(6)
C6 C 0.93480(11) 1.12923(10) -0.04933(8)
H6 H 1.0418 1.1243 -0.0360
H7 H 0.9081 1.2010 -0.0831
H8 H 0.8986 1.0649 -0.0905
C7 C 0.53495(10) 0.90667(7) 0.30037(7)
H9 H 0.4577 0.9195 0.3430
H10 H 0.6187 0.8690 0.3373
H11 H 0.4970 0.8582 0.2456
C8 C 0.64879(11) 1.09634(8) 0.34678(6)
H12 H 0.5797 1.1005 0.3961
H13 H 0.6664 1.1731 0.3226
H14 H 0.7416 1.0635 0.3758
C9 C 0.73545(7) 0.81067(6) 0.13125(5)
C10 C 0.69815(8) 0.72602(6) 0.06146(5)
H15 H 0.6273 0.7422 0.0079
C11 C 0.76295(9) 0.61834(6) 0.06907(6)
H16 H 0.7360 0.5622 0.0209
C12 C 0.86708(9) 0.59295(6) 0.14718(6)
C13 C 0.90348(9) 0.67559(6) 0.21791(6)
H17 H 0.9734 0.6586 0.2719
C14 C 0.83834(8) 0.78306(6) 0.21035(5)
H18 H 0.8640 0.8384 0.2595
C15 C 0.89605(11) 0.40266(7) 0.09114(8)
H19 H 0.9500 0.3324 0.1095
H20 H 0.9181 0.4271 0.0264
H21 H 0.7905 0.3886 0.0899
loop_
_geom_bond_atom_site_label_1
_geom_bond_atom_site_label_2
_geom_bond_site_symmetry_1
_geom_bond_site_symmetry_2
N1 H1 1_555 1_555
O1 C1 1_555 1_555
C1 H2 1_555 1_555
O2 C5 1_555 1_555
C2 N1 1_555 1_555
H3 C2 1_555 1_555
O3 C5 1_555 1_555
C3 C2 1_555 1_555
O4 C12 1_555 1_555
C4 O1 1_555 1_555
H4 C4 1_555 1_555
H5 C4 1_555 1_555
C5 C1 1_555 1_555
C6 O3 1_555 1_555
H6 C6 1_555 1_555
H7 C6 1_555 1_555
H8 C6 1_555 1_555
C7 C3 1_555 1_555
H9 C7 1_555 1_555
H10 C7 1_555 1_555
H11 C7 1_555 1_555
C8 C3 1_555 1_555
H12 C8 1_555 1_555
H13 C8 1_555 1_555
H14 C8 1_555 1_555
C9 N1 1_555 1_555
C10 C9 1_555 1_555
H15 C10 1_555 1_555
C11 C10 1_555 1_555
H16 C11 1_555 1_555
C12 C11 1_555 1_555
C13 C12 1_555 1_555
H17 C13 1_555 1_555
C14 C9 1_555 1_555
H18 C14 1_555 1_555
C15 O4 1_555 1_555
H19 C15 1_555 1_555
H20 C15 1_555 1_555
H21 C15 1_555 1_555
C1 C2 1_555 1_555
C3 C4 1_555 1_555
C13 C14 1_555 1_555

#END
