
#######################################################################
#
#                 Cambridge Crystallographic Data Centre
#                                CCDC 
#
#######################################################################
#
# If this CIF has been generated from an entry in the Cambridge 
# Structural Database, then it will include bibliographic, chemical, 
# crystal, experimental, refinement or atomic coordinate data resulting 
# from the CCDC's data processing and validation procedures.
#
#######################################################################

data_HUPQEO01
_chemical_formula_moiety         'C20 H22 N2'
_chemical_name_systematic        
1-Phenyl-2,3,3a,3b,4,5,6,11b-octahydro-1H-dipyrrolo[1,2-a:3',2'-c]quinoline
_symmetry_cell_setting           triclinic
_symmetry_space_group_name_H-M   'P -1'
_symmetry_Int_Tables_number      2
_space_group_name_Hall           '-P 1'
loop_
_symmetry_equiv_pos_site_id
_symmetry_equiv_pos_as_xyz
1 x,y,z
2 -x,-y,-z
_cell_length_a                   7.49870(10)
_cell_length_b                   7.90730(10)
_cell_length_c                   14.5997(10)
_cell_angle_alpha                77.721(6)
_cell_angle_beta                 79.566(6)
_cell_angle_gamma                69.529(5)
_cell_volume                     787.056
_exptl_crystal_colour            colorless
_exptl_crystal_description       block
_cell_formula_units_Z            2
loop_
_atom_site_label
_atom_site_type_symbol
_atom_site_fract_x
_atom_site_fract_y
_atom_site_fract_z
N1 N 0.2603(2) -0.0512(2) 0.16128(10)
N2 N -0.0511(2) 0.1812(2) 0.39161(10)
C1 C -0.3427(3) 0.1753(4) 0.48221(16)
H1 H -0.3341 0.0923 0.5418
H2 H -0.4695 0.2660 0.4834
C2 C -0.3047(3) 0.0710(3) 0.40057(15)
H3 H -0.4219 0.0956 0.3735
H4 H -0.2516 -0.0596 0.4214
C3 C -0.1614(2) 0.1409(3) 0.32925(13)
H5 H -0.2320 0.2567 0.2926
C4 C -0.0327(2) 0.0161(2) 0.26061(12)
H6 H -0.0427 -0.1066 0.2827
C5 C 0.1787(2) 0.0022(2) 0.25336(11)
H7 H 0.2393 -0.0975 0.3020
C6 C 0.4462(2) -0.1654(2) 0.14422(12)
C7 C 0.5796(3) -0.2099(3) 0.20853(14)
H8 H 0.5439 -0.1606 0.2641
C8 C 0.7637(3) -0.3262(3) 0.19028(17)
H9 H 0.8502 -0.3550 0.2340
C9 C 0.8210(3) -0.4003(3) 0.10821(18)
H10 H 0.9452 -0.4787 0.0964
C10 C 0.1112(3) -0.0316(3) 0.10400(13)
H11 H 0.1078 -0.1503 0.0980
H12 H 0.1322 0.0356 0.0415
C11 C -0.0717(3) 0.0734(3) 0.15776(13)
H13 H -0.1793 0.0409 0.1480
H14 H -0.0986 0.2042 0.1383
C12 C 0.2040(2) 0.1759(2) 0.26767(11)
C13 C 0.0898(2) 0.2568(2) 0.34431(11)
C14 C -0.1892(3) 0.2674(3) 0.46540(14)
H15 H -0.2432 0.3981 0.4450
H16 H -0.1298 0.2468 0.5223
C15 C 0.1234(3) 0.4035(3) 0.36866(14)
H17 H 0.0531 0.4545 0.4212
C16 C 0.2610(3) 0.4730(3) 0.31481(16)
H18 H 0.2831 0.5702 0.3318
C17 C 0.3656(3) 0.4010(3) 0.23669(15)
H19 H 0.4542 0.4521 0.1994
C18 C 0.3378(2) 0.2507(2) 0.21378(12)
H20 H 0.4101 0.2001 0.1615
C19 C 0.5078(3) -0.2407(3) 0.06085(13)
H21 H 0.4234 -0.2122 0.0161
C20 C 0.6924(3) -0.3567(3) 0.04447(16)
H22 H 0.7303 -0.4062 -0.0110
loop_
_geom_bond_atom_site_label_1
_geom_bond_atom_site_label_2
_geom_bond_site_symmetry_1
_geom_bond_site_symmetry_2
N1 C5 1_555 1_555
N2 C3 1_555 1_555
C1 H1 1_555 1_555
H2 C1 1_555 1_555
C2 C1 1_555 1_555
H3 C2 1_555 1_555
H4 C2 1_555 1_555
C3 C2 1_555 1_555
H5 C3 1_555 1_555
C4 C3 1_555 1_555
H6 C4 1_555 1_555
C5 C4 1_555 1_555
H7 C5 1_555 1_555
C6 N1 1_555 1_555
C7 C6 1_555 1_555
H8 C7 1_555 1_555
C8 C7 1_555 1_555
H9 C8 1_555 1_555
C9 C8 1_555 1_555
H10 C9 1_555 1_555
C10 N1 1_555 1_555
H11 C10 1_555 1_555
H12 C10 1_555 1_555
C11 C4 1_555 1_555
H13 C11 1_555 1_555
H14 C11 1_555 1_555
C12 C5 1_555 1_555
C13 N2 1_555 1_555
C14 N2 1_555 1_555
H15 C14 1_555 1_555
H16 C14 1_555 1_555
C15 C13 1_555 1_555
H17 C15 1_555 1_555
C16 C15 1_555 1_555
H18 C16 1_555 1_555
C17 C16 1_555 1_555
H19 C17 1_555 1_555
C18 C12 1_555 1_555
H20 C18 1_555 1_555
C19 C6 1_555 1_555
H21 C19 1_555 1_555
C20 C9 1_555 1_555
H22 C20 1_555 1_555
C1 C14 1_555 1_555
C10 C11 1_555 1_555
C12 C13 1_555 1_555
C17 C18 1_555 1_555
C19 C20 1_555 1_555

#END
