
#######################################################################
#
#                 Cambridge Crystallographic Data Centre
#                                CCDC 
#
#######################################################################
#
# If this CIF has been generated from an entry in the Cambridge 
# Structural Database, then it will include bibliographic, chemical, 
# crystal, experimental, refinement or atomic coordinate data resulting 
# from the CCDC's data processing and validation procedures.
#
#######################################################################

data_HUPVUL
_chemical_formula_moiety         'C20 H19 B1 F2 N4'
_chemical_name_systematic        
6-(3,5-Dimethyl-1H-pyrrol-2-yl)-11,11-difluoro-7,9-dimethyl-11H-12\l^5^,11\l^5^-pyrrolo[1',2':3,4][1,3,2]diazaborolo[1,5-a]quinoxaline
_symmetry_cell_setting           triclinic
_symmetry_space_group_name_H-M   'P -1'
_symmetry_Int_Tables_number      2
_space_group_name_Hall           '-P 1'
loop_
_symmetry_equiv_pos_site_id
_symmetry_equiv_pos_as_xyz
1 x,y,z
2 -x,-y,-z
_cell_length_a                   8.6636(9)
_cell_length_b                   9.9831(10)
_cell_length_c                   11.0281(11)
_cell_angle_alpha                97.3640(10)
_cell_angle_beta                 91.1370(10)
_cell_angle_gamma                108.7930(10)
_cell_volume                     893.618
_exptl_crystal_colour            red
_exptl_crystal_description       block
_cell_formula_units_Z            2
_exptl_crystal_preparation       Luminescent
loop_
_atom_site_label
_atom_site_type_symbol
_atom_site_fract_x
_atom_site_fract_y
_atom_site_fract_z
B1 B 1.22302(18) 0.40722(18) 0.44655(15)
C1 C 1.27998(17) 0.60201(16) 0.29152(14)
C2 C 1.17452(18) 0.62687(16) 0.20835(14)
H1 H 1.2030 0.6989 0.1590
C3 C 1.01787(17) 0.52700(15) 0.20959(13)
C4 C 1.03369(16) 0.43930(15) 0.29520(12)
C5 C 0.94291(16) 0.32335(14) 0.35556(12)
C6 C 0.77478(16) 0.23156(15) 0.33663(12)
C7 C 0.67632(16) 0.22902(15) 0.22592(13)
C8 C 0.69348(17) 0.18047(16) 0.10633(14)
C9 C 0.56020(18) 0.19178(17) 0.03658(14)
H2 H 0.5390 0.1654 -0.0476
C10 C 0.46804(18) 0.24779(18) 0.11356(15)
C11 C 1.45740(19) 0.6784(2) 0.32337(19)
H3 H 1.4767 0.6995 0.4108
H4 H 1.4905 0.7659 0.2885
H5 H 1.5192 0.6191 0.2912
C12 C 0.87108(19) 0.52851(18) 0.13725(15)
H6 H 0.8424 0.4514 0.0704
H7 H 0.8950 0.6178 0.1057
H8 H 0.7814 0.5174 0.1891
C13 C 0.8265(2) 0.1269(2) 0.05938(16)
H9 H 0.9109 0.2036 0.0317
H10 H 0.7828 0.0512 -0.0076
H11 H 0.8713 0.0916 0.1238
C14 C 0.3206(2) 0.2885(3) 0.08731(19)
H12 H 0.2375 0.2482 0.1410
H13 H 0.2802 0.2528 0.0038
H14 H 0.3494 0.3908 0.1003
C15 C 0.80375(17) 0.13159(15) 0.51073(13)
C16 C 0.7332(2) 0.03647(17) 0.59339(15)
H15 H 0.6213 -0.0121 0.5864
C17 C 0.8289(2) 0.01556(18) 0.68389(16)
H16 H 0.7818 -0.0462 0.7394
C18 C 0.9980(2) 0.08669(18) 0.69372(16)
H17 H 1.0621 0.0694 0.7546
C19 C 1.07081(19) 0.18083(17) 0.61566(14)
H18 H 1.1831 0.2276 0.6234
C20 C 0.97347(17) 0.20585(15) 0.52371(13)
F1 F 1.27327(11) 0.48988(10) 0.55855(8)
F2 F 1.32438(10) 0.32781(10) 0.41728(9)
N1 N 1.19427(13) 0.48856(13) 0.34490(11)
N2 N 1.03770(13) 0.30268(12) 0.44548(10)
N3 N 0.70840(14) 0.14405(13) 0.41441(11)
N4 N 0.53802(15) 0.26790(14) 0.22944(11)
H19 H 0.5011 0.3000 0.2947
loop_
_geom_bond_atom_site_label_1
_geom_bond_atom_site_label_2
_geom_bond_site_symmetry_1
_geom_bond_site_symmetry_2
B1 F1 1_555 1_555
C1 C2 1_555 1_555
C2 H1 1_555 1_555
C3 C2 1_555 1_555
C4 C3 1_555 1_555
C5 C4 1_555 1_555
C6 C5 1_555 1_555
C7 C6 1_555 1_555
C8 C7 1_555 1_555
C9 C8 1_555 1_555
H2 C9 1_555 1_555
C10 C9 1_555 1_555
C11 C1 1_555 1_555
H3 C11 1_555 1_555
H4 C11 1_555 1_555
H5 C11 1_555 1_555
C12 C3 1_555 1_555
H6 C12 1_555 1_555
H7 C12 1_555 1_555
H8 C12 1_555 1_555
C13 C8 1_555 1_555
H9 C13 1_555 1_555
H10 C13 1_555 1_555
H11 C13 1_555 1_555
C14 C10 1_555 1_555
H12 C14 1_555 1_555
H13 C14 1_555 1_555
H14 C14 1_555 1_555
C15 C16 1_555 1_555
C16 H15 1_555 1_555
C17 C16 1_555 1_555
H16 C17 1_555 1_555
C18 C17 1_555 1_555
H17 C18 1_555 1_555
C19 C18 1_555 1_555
H18 C19 1_555 1_555
C20 C15 1_555 1_555
F2 B1 1_555 1_555
N1 B1 1_555 1_555
N2 B1 1_555 1_555
N3 C6 1_555 1_555
N4 C7 1_555 1_555
H19 N4 1_555 1_555
C1 N1 1_555 1_555
C4 N1 1_555 1_555
C5 N2 1_555 1_555
C10 N4 1_555 1_555
C15 N3 1_555 1_555
C19 C20 1_555 1_555
C20 N2 1_555 1_555

#END
