
#######################################################################
#
#                 Cambridge Crystallographic Data Centre
#                                CCDC 
#
#######################################################################
#
# If this CIF has been generated from an entry in the Cambridge 
# Structural Database, then it will include bibliographic, chemical, 
# crystal, experimental, refinement or atomic coordinate data resulting 
# from the CCDC's data processing and validation procedures.
#
#######################################################################

data_HUPWAS
_chemical_formula_moiety         'C24 H27 B1 F2 N4'
_chemical_name_systematic        
8-Ethyl-6-(4-ethyl-3,5-dimethyl-1H-pyrrol-2-yl)-11,11-difluoro-7,9-dimethyl-11H-12\l^5^,11\l^5^-pyrrolo[1',2':3,4][1,3,2]diazaborolo[1,5-a]quinoxaline
_symmetry_cell_setting           triclinic
_symmetry_space_group_name_H-M   'P -1'
_symmetry_Int_Tables_number      2
_space_group_name_Hall           '-P 1'
loop_
_symmetry_equiv_pos_site_id
_symmetry_equiv_pos_as_xyz
1 x,y,z
2 -x,-y,-z
_cell_length_a                   8.7229(14)
_cell_length_b                   9.6603(15)
_cell_length_c                   15.144(2)
_cell_angle_alpha                91.398(2)
_cell_angle_beta                 106.187(2)
_cell_angle_gamma                112.231(2)
_cell_volume                     1122.26
_exptl_crystal_colour            red
_exptl_crystal_description       block
_cell_formula_units_Z            2
_exptl_crystal_preparation       Luminescent
loop_
_atom_site_label
_atom_site_type_symbol
_atom_site_fract_x
_atom_site_fract_y
_atom_site_fract_z
B1 B -0.2090(6) 0.5727(5) 0.5498(3)
C1 C -0.2213(5) 0.3795(5) 0.6739(3)
C2 C -0.0893(6) 0.3623(4) 0.7425(3)
C3 C 0.0711(5) 0.4683(4) 0.7383(3)
C4 C 0.0305(5) 0.5514(4) 0.6678(3)
C5 C 0.1054(5) 0.6699(4) 0.6194(3)
C6 C 0.2834(5) 0.7710(4) 0.6316(3)
C7 C 0.1941(5) 0.8692(4) 0.4976(3)
C8 C 0.2372(5) 0.9670(4) 0.4335(3)
H1 H 0.3534 1.0207 0.4377
C9 C 0.1091(6) 0.9834(4) 0.3650(3)
H2 H 0.1376 1.0495 0.3229
C10 C -0.0636(6) 0.9019(5) 0.3579(3)
H3 H -0.1494 0.9151 0.3108
C11 C -0.1128(5) 0.8030(5) 0.4172(3)
H4 H -0.2298 0.7491 0.4113
C12 C 0.0183(5) 0.7851(4) 0.4872(3)
C13 C 0.4254(4) 0.7796(4) 0.7146(3)
C14 C 0.4624(5) 0.8392(4) 0.8043(3)
C15 C 0.6205(5) 0.8306(4) 0.8564(3)
C16 C 0.6758(5) 0.7668(4) 0.7971(3)
C17 C -0.4149(5) 0.2971(4) 0.6483(3)
H5 H -0.4574 0.3391 0.6894
H6 H -0.4436 0.1920 0.6536
H7 H -0.4679 0.3072 0.5855
C18 C -0.1172(5) 0.2502(5) 0.8102(3)
H8 H -0.0238 0.2150 0.8238
H9 H -0.2260 0.1636 0.7816
C19 C -0.1225(8) 0.3169(6) 0.9002(3)
H10 H -0.0168 0.4049 0.9277
H11 H -0.1336 0.2434 0.9422
H12 H -0.2203 0.3446 0.8878
C20 C 0.2437(5) 0.4765(5) 0.7962(3)
H13 H 0.3229 0.5023 0.7602
H14 H 0.2310 0.3803 0.8160
H15 H 0.2887 0.5524 0.8496
C21 C 0.3543(6) 0.9015(5) 0.8407(3)
H16 H 0.4270 1.0007 0.8751
H17 H 0.3030 0.8363 0.8808
H18 H 0.2638 0.9075 0.7896
C22 C 0.7107(5) 0.8795(5) 0.9598(3)
H19 H 0.8341 0.9039 0.9728
H20 H 0.6981 0.9704 0.9785
C23 C 0.6390(7) 0.7602(6) 1.0168(3)
H21 H 0.5172 0.7368 1.0052
H22 H 0.7001 0.7971 1.0816
H23 H 0.6538 0.6707 0.9999
C24 C 0.8306(5) 0.7281(5) 0.8138(3)
H24 H 0.9259 0.8001 0.8631
H25 H 0.8632 0.7308 0.7582
H26 H 0.8025 0.6287 0.8311
F1 F -0.3005(3) 0.4818(2) 0.46512(15)
F2 F -0.3006(2) 0.6531(2) 0.56870(14)
N1 N -0.1494(4) 0.4933(4) 0.6282(2)
N2 N -0.0206(4) 0.6863(3) 0.5497(2)
N3 N 0.3248(4) 0.8622(3) 0.5710(2)
N4 N 0.5564(4) 0.7374(3) 0.7102(2)
H27 H 0.5631 0.6982 0.6606
loop_
_geom_bond_atom_site_label_1
_geom_bond_atom_site_label_2
_geom_bond_site_symmetry_1
_geom_bond_site_symmetry_2
B1 F1 1_555 1_555
C1 C2 1_555 1_555
C2 C3 1_555 1_555
C3 C4 1_555 1_555
C4 C5 1_555 1_555
C5 C6 1_555 1_555
C6 C13 1_555 1_555
C7 C8 1_555 1_555
C8 H1 1_555 1_555
C9 C8 1_555 1_555
H2 C9 1_555 1_555
C10 C9 1_555 1_555
H3 C10 1_555 1_555
C11 C10 1_555 1_555
H4 C11 1_555 1_555
C12 C7 1_555 1_555
C13 C14 1_555 1_555
C14 C15 1_555 1_555
C15 C16 1_555 1_555
C16 C24 1_555 1_555
C17 C1 1_555 1_555
H5 C17 1_555 1_555
H6 C17 1_555 1_555
H7 C17 1_555 1_555
C18 C2 1_555 1_555
H8 C18 1_555 1_555
H9 C18 1_555 1_555
C19 C18 1_555 1_555
H10 C19 1_555 1_555
H11 C19 1_555 1_555
H12 C19 1_555 1_555
C20 C3 1_555 1_555
H13 C20 1_555 1_555
H14 C20 1_555 1_555
H15 C20 1_555 1_555
C21 C14 1_555 1_555
H16 C21 1_555 1_555
H17 C21 1_555 1_555
H18 C21 1_555 1_555
C22 C15 1_555 1_555
H19 C22 1_555 1_555
H20 C22 1_555 1_555
C23 C22 1_555 1_555
H21 C23 1_555 1_555
H22 C23 1_555 1_555
H23 C23 1_555 1_555
C24 H24 1_555 1_555
H25 C24 1_555 1_555
H26 C24 1_555 1_555
F2 B1 1_555 1_555
N1 B1 1_555 1_555
N2 B1 1_555 1_555
N3 C6 1_555 1_555
N4 C13 1_555 1_555
H27 N4 1_555 1_555
C1 N1 1_555 1_555
C4 N1 1_555 1_555
C5 N2 1_555 1_555
C7 N3 1_555 1_555
C11 C12 1_555 1_555
C12 N2 1_555 1_555
C16 N4 1_555 1_555

#END
