
#######################################################################
#
#                 Cambridge Crystallographic Data Centre
#                                CCDC 
#
#######################################################################
#
# If this CIF has been generated from an entry in the Cambridge 
# Structural Database, then it will include bibliographic, chemical, 
# crystal, experimental, refinement or atomic coordinate data resulting 
# from the CCDC's data processing and validation procedures.
#
#######################################################################

data_HUQMIR
_chemical_formula_moiety         'C16 H20 O6'
_chemical_name_systematic        
1,9,9-trimethoxy-4,4-dimethyltricyclo[5.2.2.0^2,6^]undec-10-ene-3,5,8-trione
_symmetry_cell_setting           monoclinic
_symmetry_space_group_name_H-M   'P 21/n'
_symmetry_Int_Tables_number      14
_space_group_name_Hall           '-P 2yn'
loop_
_symmetry_equiv_pos_site_id
_symmetry_equiv_pos_as_xyz
1 x,y,z
2 1/2-x,1/2+y,1/2-z
3 -x,-y,-z
4 1/2+x,1/2-y,1/2+z
_cell_length_a                   11.5436(4)
_cell_length_b                   9.1664(3)
_cell_length_c                   14.9308(5)
_cell_angle_alpha                90
_cell_angle_beta                 94.259(2)
_cell_angle_gamma                90
_cell_volume                     1575.51
_exptl_crystal_colour            colorless
_exptl_crystal_description       lamellar
_cell_formula_units_Z            4
loop_
_atom_site_label
_atom_site_type_symbol
_atom_site_fract_x
_atom_site_fract_y
_atom_site_fract_z
C1 C 0.6560(2) 0.1932(3) 0.02340(18)
H1 H 0.6847 0.2139 -0.0340
H2 H 0.6027 0.1129 0.0177
H3 H 0.7198 0.1685 0.0656
C2 C 0.7355(2) 0.3434(3) 0.2214(2)
H4 H 0.7824 0.3000 0.2701
H5 H 0.7195 0.4432 0.2357
H6 H 0.7765 0.3398 0.1678
C3 C 0.54868(16) 0.3126(2) 0.13780(13)
C4 C 0.50709(19) 0.4713(2) 0.15147(14)
C5 C 0.37779(18) 0.4796(2) 0.15915(14)
H7 H 0.3518 0.5795 0.1695
C6 C 0.35349(19) 0.3794(3) 0.23505(14)
H8 H 0.3173 0.4118 0.2850
C7 C 0.38651(17) 0.2430(2) 0.22665(14)
H9 H 0.3764 0.1728 0.2704
C8 C 0.44219(16) 0.2091(2) 0.14054(13)
C9 C 0.4897(2) -0.0348(3) 0.19813(19)
H10 H 0.5116 -0.1289 0.1768
H11 H 0.4181 -0.0430 0.2266
H12 H 0.5494 0.0011 0.2407
C10 C 0.35446(16) 0.25316(19) 0.06192(13)
H13 H 0.3892 0.2369 0.0048
C11 C 0.32189(17) 0.4156(2) 0.07003(13)
H14 H 0.3485 0.4703 0.0190
C12 C 0.19067(19) 0.4211(2) 0.06823(13)
C13 C 0.23887(17) 0.1718(2) 0.06123(13)
C14 C 0.13891(17) 0.2760(2) 0.03731(14)
C15 C 0.1233(2) 0.2824(3) -0.06672(17)
H15 H 0.0901 0.1924 -0.0893
H16 H 0.1976 0.2968 -0.0904
H17 H 0.0727 0.3618 -0.0848
C16 C 0.0273(2) 0.2366(3) 0.0777(2)
H18 H 0.0402 0.2333 0.1419
H19 H 0.0012 0.1429 0.0558
H20 H -0.0308 0.3087 0.0612
O1 O 0.57163(15) 0.57473(17) 0.15281(13)
O2 O 0.62798(12) 0.26434(16) 0.20727(10)
O3 O 0.59732(12) 0.31982(14) 0.05474(9)
O4 O 0.47496(12) 0.06298(14) 0.12509(10)
O5 O 0.22632(13) 0.04414(16) 0.07727(11)
O6 O 0.13590(14) 0.52606(18) 0.08946(12)
loop_
_geom_bond_atom_site_label_1
_geom_bond_atom_site_label_2
_geom_bond_site_symmetry_1
_geom_bond_site_symmetry_2
C1 H1 1_555 1_555
H2 C1 1_555 1_555
H3 C1 1_555 1_555
C2 H4 1_555 1_555
H5 C2 1_555 1_555
H6 C2 1_555 1_555
C3 C4 1_555 1_555
C4 C5 1_555 1_555
C5 H7 1_555 1_555
C6 C5 1_555 1_555
H8 C6 1_555 1_555
C7 C6 1_555 1_555
H9 C7 1_555 1_555
C8 C3 1_555 1_555
C9 H10 1_555 1_555
H11 C9 1_555 1_555
H12 C9 1_555 1_555
C10 C8 1_555 1_555
H13 C10 1_555 1_555
C11 C5 1_555 1_555
H14 C11 1_555 1_555
C12 C11 1_555 1_555
C13 C10 1_555 1_555
C14 C12 1_555 1_555
C15 C14 1_555 1_555
H15 C15 1_555 1_555
H16 C15 1_555 1_555
H17 C15 1_555 1_555
C16 C14 1_555 1_555
H18 C16 1_555 1_555
H19 C16 1_555 1_555
H20 C16 1_555 1_555
O1 C4 1_555 1_555
O2 C2 1_555 1_555
O3 C1 1_555 1_555
O4 C8 1_555 1_555
O5 C13 1_555 1_555
O6 C12 1_555 1_555
C3 O2 1_555 1_555
C3 O3 1_555 1_555
C7 C8 1_555 1_555
C9 O4 1_555 1_555
C10 C11 1_555 1_555
C13 C14 1_555 1_555

#END
