
#######################################################################
#
#                 Cambridge Crystallographic Data Centre
#                                CCDC 
#
#######################################################################
#
# If this CIF has been generated from an entry in the Cambridge 
# Structural Database, then it will include bibliographic, chemical, 
# crystal, experimental, refinement or atomic coordinate data resulting 
# from the CCDC's data processing and validation procedures.
#
#######################################################################

data_HUQMOX
_chemical_formula_moiety         'C22 H22 S7 Si2'
_chemical_name_systematic        
(sulfanediylbis(bisthieno[2,3-b:3',2'-d]thiene-4,2-diyl))bis(trimethylsilane)
_symmetry_cell_setting           monoclinic
_symmetry_space_group_name_H-M   'P 21/c'
_symmetry_Int_Tables_number      14
_space_group_name_Hall           '-P 2ybc'
loop_
_symmetry_equiv_pos_site_id
_symmetry_equiv_pos_as_xyz
1 x,y,z
2 -x,1/2+y,1/2-z
3 -x,-y,-z
4 x,1/2-y,1/2+z
_cell_length_a                   12.846(5)
_cell_length_b                   10.521(4)
_cell_length_c                   20.355(7)
_cell_angle_alpha                90
_cell_angle_beta                 103.438(6)
_cell_angle_gamma                90
_cell_volume                     2675.72
_cell_formula_units_Z            4
loop_
_atom_site_label
_atom_site_type_symbol
_atom_site_fract_x
_atom_site_fract_y
_atom_site_fract_z
S1 S 0.43157(4) 0.28349(5) 0.35364(3)
S2 S 0.66282(5) 0.39745(6) 0.41148(3)
S3 S 0.53740(4) 0.74841(5) 0.46621(3)
S4 S 0.19396(4) 0.37711(5) 0.34564(3)
Si1 Si 0.05140(5) 0.61027(6) 0.37056(3)
S5 S 0.21719(6) 1.05554(6) 0.33696(3)
S6 S 0.17952(6) 1.09417(6) 0.48324(3)
S7 S 0.36613(7) 0.88507(7) 0.27154(3)
Si2 Si 0.24601(6) 1.01797(7) 0.63536(4)
C1 C 0.36727(16) 0.50428(17) 0.39001(9)
C2 C 0.52544(17) 0.39835(19) 0.38832(10)
C3 C 0.33102(17) 0.38763(18) 0.36295(10)
C4 C 0.32693(17) 0.95820(18) 0.45098(10)
C5 C 0.48146(16) 0.50998(17) 0.40502(9)
C6 C 0.37447(17) 0.90883(18) 0.39906(10)
C7 C 0.33933(18) 0.94404(19) 0.52216(11)
H1 H 0.3927 0.8948 0.5491
C8 C 0.56271(16) 0.59867(19) 0.43518(10)
C9 C 0.4594(2) 0.7977(2) 0.32860(12)
H2 H 0.5070 0.7414 0.3159
C10 C 0.3215(2) 0.9529(2) 0.33652(10)
C11 C 0.45622(18) 0.81934(18) 0.39388(10)
C12 C 0.66263(17) 0.5513(2) 0.44128(11)
H3 H 0.7246 0.5969 0.4596
C13 C 0.28101(17) 0.58420(18) 0.39654(10)
H4 H 0.2911 0.6660 0.4141
C14 C 0.18252(18) 0.53112(19) 0.37493(11)
C15 C 0.2428(2) 1.1876(3) 0.65929(14)
H5 H 0.2331 1.1938 0.7045
H6 H 0.1847 1.2295 0.6288
H7 H 0.3091 1.2274 0.6569
C16 C 0.2650(2) 1.0101(2) 0.54684(12)
C17 C 0.2426(2) 1.0383(2) 0.42388(11)
C18 C 0.3585(3) 0.9324(3) 0.69150(15)
H8 H 0.3501 0.9355 0.7371
H9 H 0.4249 0.9719 0.6892
H10 H 0.3587 0.8454 0.6773
C19 C 0.0587(3) 0.6879(5) 0.45307(19)
H11 H 0.0684 0.6245 0.4879
H12 H -0.0065 0.7336 0.4516
H13 H 0.1179 0.7460 0.4625
C20 C 0.0326(3) 0.7297(3) 0.3018(2)
H14 H 0.0288 0.6873 0.2595
H15 H 0.0918 0.7877 0.3105
H16 H -0.0326 0.7757 0.2997
C21 C 0.1168(4) 0.9413(5) 0.6381(2)
H17 H 0.1065 0.9452 0.6833
H18 H 0.1178 0.8541 0.6244
H19 H 0.0592 0.9851 0.6081
C22 C -0.0572(2) 0.4905(3) 0.3509(2)
H20 H -0.0471 0.4290 0.3866
H21 H -0.0556 0.4487 0.3092
H22 H -0.1250 0.5319 0.3466
loop_
_geom_bond_atom_site_label_1
_geom_bond_atom_site_label_2
_geom_bond_site_symmetry_1
_geom_bond_site_symmetry_2
S1 C2 1_555 1_555
S2 C2 1_555 1_555
S3 C8 1_555 1_555
S4 C3 1_555 1_555
Si1 C14 1_555 1_555
S5 C10 1_555 1_555
S6 C16 1_555 1_555
S7 C9 1_555 1_555
Si2 C15 1_555 1_555
C1 C3 1_555 1_555
C2 C5 1_555 1_555
C3 S1 1_555 1_555
C4 C6 1_555 1_555
C5 C1 1_555 1_555
C6 C10 1_555 1_555
C7 C4 1_555 1_555
H1 C7 1_555 1_555
C8 C5 1_555 1_555
C9 H2 1_555 1_555
C10 S7 1_555 1_555
C11 S3 1_555 1_555
C12 S2 1_555 1_555
H3 C12 1_555 1_555
C13 C1 1_555 1_555
H4 C13 1_555 1_555
C14 S4 1_555 1_555
C15 H5 1_555 1_555
H6 C15 1_555 1_555
H7 C15 1_555 1_555
C16 Si2 1_555 1_555
C17 S5 1_555 1_555
C18 Si2 1_555 1_555
H8 C18 1_555 1_555
H9 C18 1_555 1_555
H10 C18 1_555 1_555
C19 Si1 1_555 1_555
H11 C19 1_555 1_555
H12 C19 1_555 1_555
H13 C19 1_555 1_555
C20 Si1 1_555 1_555
H14 C20 1_555 1_555
H15 C20 1_555 1_555
H16 C20 1_555 1_555
C21 Si2 1_555 1_555
H17 C21 1_555 1_555
H18 C21 1_555 1_555
H19 C21 1_555 1_555
C22 Si1 1_555 1_555
H20 C22 1_555 1_555
H21 C22 1_555 1_555
H22 C22 1_555 1_555
S6 C17 1_555 1_555
C4 C17 1_555 1_555
C6 C11 1_555 1_555
C7 C16 1_555 1_555
C8 C12 1_555 1_555
C9 C11 1_555 1_555
C13 C14 1_555 1_555

#END
