
#######################################################################
#
#                 Cambridge Crystallographic Data Centre
#                                CCDC 
#
#######################################################################
#
# If this CIF has been generated from an entry in the Cambridge 
# Structural Database, then it will include bibliographic, chemical, 
# crystal, experimental, refinement or atomic coordinate data resulting 
# from the CCDC's data processing and validation procedures.
#
#######################################################################

data_HUQQUH
_chemical_formula_moiety         '2(C44 H40 S14 Si5),5(C1 H1 Cl3)'
_chemical_name_systematic        
"2,2',10,10'-tetrakis(trimethylsilyl)-12,12'-spirobi[bisthieno[3'',2'':4',5']thieno[3',2':4,5]thieno[2,3-b:3',2'-e][1,4]thiasiline] chloroform solvate"
_symmetry_cell_setting           monoclinic
_symmetry_space_group_name_H-M   'P 21/c'
_symmetry_Int_Tables_number      14
_space_group_name_Hall           '-P 2ybc'
loop_
_symmetry_equiv_pos_site_id
_symmetry_equiv_pos_as_xyz
1 x,y,z
2 -x,1/2+y,1/2-z
3 -x,-y,-z
4 x,1/2-y,1/2+z
_cell_length_a                   21.032(3)
_cell_length_b                   29.029(5)
_cell_length_c                   21.783(3)
_cell_angle_alpha                90
_cell_angle_beta                 93.949(3)
_cell_angle_gamma                90
_cell_volume                     13267.8
_exptl_crystal_colour            colorless
_exptl_crystal_description       block
_cell_formula_units_Z            4
loop_
_atom_site_label
_atom_site_type_symbol
_atom_site_fract_x
_atom_site_fract_y
_atom_site_fract_z
Si1 Si 0.41917(10) 0.70860(8) 0.46759(10)
Si2 Si 0.55118(17) 0.59479(13) 0.25419(15)
Si3 Si 0.45997(19) 0.93346(11) 0.43169(16)
Si4 Si 0.15944(14) 0.58954(11) 0.43245(16)
Si5 Si 0.55642(14) 0.70171(12) 0.74044(13)
S1 S 0.65106(13) 0.66012(12) 0.32326(14)
S2 S 0.67605(13) 0.73546(12) 0.42559(15)
S3 S 0.59638(12) 0.78541(10) 0.52139(12)
S4 S 0.47348(13) 0.79689(9) 0.57262(11)
S5 S 0.35298(13) 0.78471(9) 0.62720(10)
S6 S 0.22203(12) 0.73389(10) 0.62458(11)
S7 S 0.15256(12) 0.65620(10) 0.54467(13)
S8 S 0.53075(15) 0.60041(11) 0.69136(15)
S9 S 0.47690(17) 0.53936(10) 0.58006(17)
S10 S 0.40846(14) 0.55674(9) 0.45054(15)
S11 S 0.35876(12) 0.62310(9) 0.36042(12)
S12 S 0.31035(13) 0.70017(10) 0.28715(11)
S13 S 0.31078(15) 0.80524(11) 0.26367(13)
S14 S 0.37413(16) 0.89224(10) 0.32551(14)
C1 C 0.5731(4) 0.6383(4) 0.3148(4)
C2 C 0.5373(4) 0.6587(3) 0.3572(4)
H1 H 0.4947 0.6511 0.3608
C3 C 0.5695(4) 0.6925(3) 0.3955(4)
C4 C 0.6319(4) 0.6953(4) 0.3813(4)
C5 C 0.5549(4) 0.7227(3) 0.4442(4)
C6 C 0.6089(4) 0.7470(3) 0.4635(4)
C7 C 0.4995(4) 0.7346(3) 0.4775(3)
C8 C 0.5170(4) 0.7673(3) 0.5203(4)
C9 C 0.4013(4) 0.7683(3) 0.5690(4)
C10 C 0.3752(4) 0.7349(3) 0.5304(3)
C11 C 0.3131(4) 0.7224(3) 0.5481(4)
C12 C 0.2966(4) 0.7475(3) 0.5990(4)
C13 C 0.2636(4) 0.6909(3) 0.5283(4)
C14 C 0.2127(4) 0.6932(3) 0.5659(4)
C15 C 0.2505(4) 0.6579(3) 0.4815(4)
H2 H 0.2786 0.6519 0.4513
C16 C 0.1935(4) 0.6356(3) 0.4835(5)
C17 C 0.1771(6) 0.6009(4) 0.3521(5)
H3 H 0.2224 0.6008 0.3489
H4 H 0.1601 0.6304 0.3396
H5 H 0.1579 0.5773 0.3259
C18 C 0.6289(6) 0.7275(5) 0.7127(6)
H6 H 0.6607 0.7041 0.7093
H7 H 0.6448 0.7507 0.7412
H8 H 0.6191 0.7413 0.6731
C19 C 0.4939(5) 0.7458(4) 0.7484(5)
H9 H 0.4852 0.7612 0.7098
H10 H 0.5084 0.7678 0.7792
H11 H 0.4558 0.7312 0.7605
C20 C 0.5732(7) 0.6714(5) 0.8148(5)
H12 H 0.6059 0.6488 0.8105
H13 H 0.5351 0.6565 0.8264
H14 H 0.5872 0.6933 0.8459
C21 C 0.5253(4) 0.6592(3) 0.6814(4)
C22 C 0.4972(4) 0.6693(3) 0.6237(4)
H15 H 0.4898 0.6992 0.6099
C23 C 0.4806(4) 0.6296(3) 0.5870(4)
C24 C 0.4966(5) 0.5900(4) 0.6183(5)
C25 C 0.4461(5) 0.5723(3) 0.5192(5)
C26 C 0.4510(4) 0.6196(3) 0.5275(4)
C27 C 0.4233(4) 0.6451(3) 0.4763(4)
C28 C 0.3984(4) 0.6147(3) 0.4317(4)
C29 C 0.3792(4) 0.7183(3) 0.3900(4)
C30 C 0.3546(4) 0.6825(3) 0.3547(4)
C31 C 0.3648(4) 0.7616(3) 0.3588(4)
C32 C 0.3278(4) 0.7561(3) 0.3055(4)
C33 C 0.3803(4) 0.8094(3) 0.3686(4)
C34 C 0.3545(5) 0.8354(4) 0.3202(4)
C35 C 0.4175(4) 0.8378(3) 0.4111(4)
H16 H 0.4387 0.8264 0.4468
C36 C 0.4189(5) 0.8824(4) 0.3949(4)
C37 C 0.3988(8) 0.9793(5) 0.4369(7)
H17 H 0.3830 0.9882 0.3963
H18 H 0.4176 1.0055 0.4580
H19 H 0.3643 0.9679 0.4592
C38 C 0.5213(8) 0.9554(5) 0.3821(7)
H20 H 0.5538 0.9325 0.3788
H21 H 0.5399 0.9830 0.3999
H22 H 0.5019 0.9622 0.3420
C39 C 0.0719(5) 0.5894(5) 0.4358(8)
H23 H 0.0613 0.5832 0.4772
H24 H 0.0537 0.5661 0.4088
H25 H 0.0552 0.6190 0.4232
C40 C 0.4927(8) 0.9151(4) 0.5100(6)
H26 H 0.5245 0.8917 0.5060
H27 H 0.4589 0.9030 0.5327
H28 H 0.5117 0.9411 0.5314
C41 C 0.1942(7) 0.5342(4) 0.4584(7)
H29 H 0.2396 0.5353 0.4562
H30 H 0.1768 0.5099 0.4325
H31 H 0.1843 0.5286 0.5001
C42 C 0.5994(10) 0.6014(8) 0.1894(10)
H32 H 0.6431 0.5950 0.2021
H33 H 0.5956 0.6323 0.1742
H34 H 0.5850 0.5803 0.1575
C43 C 0.4710(8) 0.6091(7) 0.2210(8)
H35 H 0.4584 0.5872 0.1894
H36 H 0.4712 0.6395 0.2036
H37 H 0.4414 0.6080 0.2526
C44 C 0.5450(17) 0.5411(6) 0.2876(9)
H38 H 0.5858 0.5321 0.3064
H39 H 0.5313 0.5190 0.2567
H40 H 0.5145 0.5423 0.3184
Si6 Si 1.01314(10) 0.70905(8) 0.06991(10)
Si7 Si 1.25957(15) 0.57745(12) 0.11382(16)
Si8 Si 0.97425(18) 0.93580(11) 0.10777(16)
Si9 Si 0.87543(14) 0.69908(11) -0.20335(12)
Si10 Si 0.86238(18) 0.59894(13) 0.27489(17)
S15 S 0.77111(13) 0.66917(11) 0.20461(14)
S16 S 0.75639(12) 0.74599(11) 0.10290(14)
S17 S 0.84287(12) 0.79112(9) 0.00884(12)
S18 S 0.96881(13) 0.79753(9) -0.03796(11)
S19 S 1.08793(13) 0.77780(9) -0.09136(10)
S20 S 1.21591(13) 0.72209(11) -0.08335(12)
S21 S 1.27797(12) 0.64317(12) -0.00011(14)
S22 S 0.88759(16) 0.59921(10) -0.14645(14)
S23 S 0.93368(17) 0.54029(10) -0.03042(16)
S24 S 1.00534(15) 0.55856(9) 0.09756(14)
S25 S 1.06807(12) 0.62483(9) 0.18060(11)
S26 S 1.12128(13) 0.70164(10) 0.25023(11)
S27 S 1.12520(15) 0.80675(11) 0.27166(13)
S28 S 1.06181(17) 0.89376(10) 0.21072(15)
C45 C 0.8466(5) 0.6446(3) 0.2166(4)
C46 C 0.8870(4) 0.6636(3) 0.1764(4)
H41 H 0.9291 0.6541 0.1747
C47 C 0.8598(4) 0.6984(3) 0.1381(4)
C48 C 0.7958(4) 0.7045(3) 0.1486(4)
C49 C 0.8775(4) 0.7286(3) 0.0886(4)
C50 C 0.8265(4) 0.7549(3) 0.0671(4)
C51 C 0.9339(4) 0.7377(3) 0.0570(3)
C52 C 0.9206(4) 0.7702(3) 0.0129(4)
C53 C 1.0374(4) 0.7650(3) -0.0341(4)
C54 C 1.0601(4) 0.7313(3) 0.0069(4)
C55 C 1.1420(4) 0.7380(3) -0.0602(4)
C56 C 1.1220(4) 0.7153(3) -0.0097(4)
C57 C 1.1692(4) 0.6825(4) 0.0112(4)
C58 C 1.2205(4) 0.6822(3) -0.0239(4)
C59 C 1.1772(4) 0.6489(3) 0.0593(4)
H42 H 1.1467 0.6441 0.0876
C60 C 1.2329(4) 0.6242(4) 0.0608(5)
C61 C 1.2621(7) 0.6000(4) 0.1928(5)
H43 H 1.2930 0.6244 0.1972
H44 H 1.2739 0.5758 0.2213
H45 H 1.2209 0.6117 0.2011
C62 C 0.9397(6) 0.7414(4) -0.2119(6)
H46 H 0.9766 0.7260 -0.2255
H47 H 0.9503 0.7560 -0.1731
H48 H 0.9255 0.7642 -0.2417
C63 C 0.8619(7) 0.6672(5) -0.2765(5)
H49 H 0.8289 0.6447 -0.2726
H50 H 0.9005 0.6519 -0.2859
H51 H 0.8492 0.6883 -0.3089
C64 C 0.8039(6) 0.7284(5) -0.1775(6)
H52 H 0.7706 0.7062 -0.1735
H53 H 0.7898 0.7513 -0.2071
H54 H 0.8141 0.7428 -0.1384
C65 C 0.9024(4) 0.6581(3) -0.1404(4)
C66 C 0.9318(4) 0.6679(3) -0.0840(4)
H55 H 0.9436 0.6976 -0.0720
C67 C 0.9426(4) 0.6298(3) -0.0458(4)
C68 C 0.9214(5) 0.5905(4) -0.0731(5)
C69 C 0.9716(4) 0.6204(3) 0.0150(4)
C70 C 0.9694(5) 0.5743(3) 0.0262(5)
C71 C 1.0046(4) 0.6458(3) 0.0648(4)
C72 C 1.0247(4) 0.6161(3) 0.1106(4)
C73 C 1.0516(3) 0.7194(3) 0.1483(3)
C74 C 1.0760(4) 0.6843(3) 0.1842(3)
C75 C 1.0688(4) 0.7631(3) 0.1777(4)
C76 C 1.1056(4) 0.7576(3) 0.2321(4)
C77 C 1.0809(5) 0.8373(3) 0.2157(5)
C78 C 1.0538(4) 0.8105(3) 0.1687(4)
C79 C 1.0158(4) 0.8393(3) 0.1270(4)
H56 H 0.9933 0.8279 0.0920
C80 C 1.0151(5) 0.8850(3) 0.1429(4)
C81 C 0.9282(7) 0.9641(5) 0.1695(6)
H57 H 0.8950 0.9438 0.1810
H58 H 0.9096 0.9923 0.1539
H59 H 0.9565 0.9706 0.2049
C82 C 0.9218(6) 0.9170(4) 0.0413(6)
H60 H 0.8902 0.8962 0.0549
H61 H 0.9467 0.9017 0.0121
H62 H 0.9011 0.9433 0.0223
C83 C 1.0387(7) 0.9774(4) 0.0875(6)
H63 H 1.0625 0.9644 0.0557
H64 H 1.0668 0.9832 0.1233
H65 H 1.0196 1.0058 0.0733
C84 C 1.1984(7) 0.5293(4) 0.1095(8)
H66 H 1.1956 0.5163 0.0689
H67 H 1.1576 0.5414 0.1185
H68 H 1.2110 0.5059 0.1390
C85 C 0.8403(13) 0.6205(8) 0.3492(7)
H69 H 0.8484 0.5972 0.3800
H70 H 0.7959 0.6284 0.3466
H71 H 0.8652 0.6474 0.3603
C86 C 1.3393(7) 0.5574(7) 0.0976(8)
H72 H 1.3686 0.5828 0.1006
H73 H 1.3381 0.5447 0.0568
H74 H 1.3530 0.5341 0.1269
C87 C 0.9417(12) 0.5862(9) 0.2816(12)
H75 H 0.9541 0.5732 0.2437
H76 H 0.9500 0.5643 0.3143
H77 H 0.9657 0.6138 0.2906
C88 C 0.8061(13) 0.5539(10) 0.2558(14)
H78 H 0.8157 0.5400 0.2175
H79 H 0.7638 0.5666 0.2519
H80 H 0.8086 0.5311 0.2877
C89 C 0.8486(10) 0.4227(7) 0.0955(8)
H81 H 0.8286 0.4052 0.0608
Cl1 Cl 0.8504(7) 0.4736(3) 0.0749(5)
Cl2 Cl 0.8058(3) 0.4120(2) 0.1566(3)
Cl3 Cl 0.9200(3) 0.3989(4) 0.1123(4)
Cl4 Cl 0.3395(3) 0.8904(2) 0.1476(3)
Cl5 Cl 0.2896(4) 0.9757(3) 0.1082(3)
Cl6 Cl 0.2285(4) 0.9206(3) 0.1903(4)
C90 C 0.2774(9) 0.9206(6) 0.1330(10)
H82 H 0.2538 0.9051 0.0986
Cl7 Cl 0.6570(4) 0.6422(3) 0.5594(4)
Cl8 Cl 0.7389(3) 0.5948(3) 0.4876(4)
Cl9 Cl 0.6183(4) 0.5683(3) 0.4897(6)
C91 C 0.6672(10) 0.6037(8) 0.5060(14)
H83 H 0.6553 0.6241 0.4712
Cl10 Cl 0.7609(5) 0.6559(3) -0.0289(4)
Cl11 Cl 0.7501(14) 0.5984(5) 0.0579(5)
Cl12 Cl 0.6941(6) 0.5834(5) -0.0314(10)
C92 C 0.7815(16) 0.6007(11) 0.005(2)
H84 H 0.8206 0.5837 -0.0021
Cl13 Cl 0.6957(5) 0.9358(4) 0.2828(4)
Cl14 Cl 0.6463(5) 0.9975(3) 0.2057(6)
Cl15 Cl 0.7579(6) 0.9678(6) 0.1943(10)
C93 C 0.6960(12) 0.9456(9) 0.2125(12)
H85 H 0.6808 0.9200 0.1860
loop_
_geom_bond_atom_site_label_1
_geom_bond_atom_site_label_2
_geom_bond_site_symmetry_1
_geom_bond_site_symmetry_2
Si1 C7 1_555 1_555
Si2 C1 1_555 1_555
Si3 C36 1_555 1_555
Si4 C16 1_555 1_555
Si5 C18 1_555 1_555
S1 C1 1_555 1_555
S2 C4 1_555 1_555
S3 C6 1_555 1_555
S4 C8 1_555 1_555
S5 C9 1_555 1_555
S6 C12 1_555 1_555
S7 C14 1_555 1_555
S8 C21 1_555 1_555
S9 C24 1_555 1_555
S10 C25 1_555 1_555
S11 C28 1_555 1_555
S12 C30 1_555 1_555
S13 C32 1_555 1_555
S14 C34 1_555 1_555
C1 C2 1_555 1_555
C2 H1 1_555 1_555
C3 C2 1_555 1_555
C4 S1 1_555 1_555
C5 C3 1_555 1_555
C6 S2 1_555 1_555
C7 C5 1_555 1_555
C8 S3 1_555 1_555
C9 S4 1_555 1_555
C10 Si1 1_555 1_555
C11 C10 1_555 1_555
C12 S5 1_555 1_555
C13 C11 1_555 1_555
C14 S6 1_555 1_555
C15 C13 1_555 1_555
H2 C15 1_555 1_555
C16 S7 1_555 1_555
C17 Si4 1_555 1_555
H3 C17 1_555 1_555
H4 C17 1_555 1_555
H5 C17 1_555 1_555
C18 H6 1_555 1_555
H7 C18 1_555 1_555
H8 C18 1_555 1_555
C19 Si5 1_555 1_555
H9 C19 1_555 1_555
H10 C19 1_555 1_555
H11 C19 1_555 1_555
C20 Si5 1_555 1_555
H12 C20 1_555 1_555
H13 C20 1_555 1_555
H14 C20 1_555 1_555
C21 Si5 1_555 1_555
C22 C21 1_555 1_555
H15 C22 1_555 1_555
C23 C22 1_555 1_555
C24 S8 1_555 1_555
C25 S9 1_555 1_555
C26 C23 1_555 1_555
C27 Si1 1_555 1_555
C28 S10 1_555 1_555
C29 Si1 1_555 1_555
C30 S11 1_555 1_555
C31 C29 1_555 1_555
C32 S12 1_555 1_555
C33 C31 1_555 1_555
C34 S13 1_555 1_555
C35 C33 1_555 1_555
H16 C35 1_555 1_555
C36 S14 1_555 1_555
C37 Si3 1_555 1_555
H17 C37 1_555 1_555
H18 C37 1_555 1_555
H19 C37 1_555 1_555
C38 Si3 1_555 1_555
H20 C38 1_555 1_555
H21 C38 1_555 1_555
H22 C38 1_555 1_555
C39 Si4 1_555 1_555
H23 C39 1_555 1_555
H24 C39 1_555 1_555
H25 C39 1_555 1_555
C40 Si3 1_555 1_555
H26 C40 1_555 1_555
H27 C40 1_555 1_555
H28 C40 1_555 1_555
C41 Si4 1_555 1_555
H29 C41 1_555 1_555
H30 C41 1_555 1_555
H31 C41 1_555 1_555
C42 Si2 1_555 1_555
H32 C42 1_555 1_555
H33 C42 1_555 1_555
H34 C42 1_555 1_555
C43 Si2 1_555 1_555
H35 C43 1_555 1_555
H36 C43 1_555 1_555
H37 C43 1_555 1_555
C44 Si2 1_555 1_555
H38 C44 1_555 1_555
H39 C44 1_555 1_555
H40 C44 1_555 1_555
Si6 C51 1_555 1_555
Si7 C60 1_555 1_555
Si8 C80 1_555 1_555
Si9 C62 1_555 1_555
Si10 C45 1_555 1_555
S15 C45 1_555 1_555
S16 C48 1_555 1_555
S17 C50 1_555 1_555
S18 C52 1_555 1_555
S19 C53 1_555 1_555
S20 C55 1_555 1_555
S21 C58 1_555 1_555
S22 C65 1_555 1_555
S23 C68 1_555 1_555
S24 C70 1_555 1_555
S25 C72 1_555 1_555
S26 C74 1_555 1_555
S27 C76 1_555 1_555
S28 C77 1_555 1_555
C45 C46 1_555 1_555
C46 H41 1_555 1_555
C47 C46 1_555 1_555
C48 S15 1_555 1_555
C49 C47 1_555 1_555
C50 S16 1_555 1_555
C51 C49 1_555 1_555
C52 S17 1_555 1_555
C53 S18 1_555 1_555
C54 Si6 1_555 1_555
C55 S19 1_555 1_555
C56 C54 1_555 1_555
C57 C56 1_555 1_555
C58 S20 1_555 1_555
C59 C57 1_555 1_555
H42 C59 1_555 1_555
C60 S21 1_555 1_555
C61 Si7 1_555 1_555
H43 C61 1_555 1_555
H44 C61 1_555 1_555
H45 C61 1_555 1_555
C62 H46 1_555 1_555
H47 C62 1_555 1_555
H48 C62 1_555 1_555
C63 Si9 1_555 1_555
H49 C63 1_555 1_555
H50 C63 1_555 1_555
H51 C63 1_555 1_555
C64 Si9 1_555 1_555
H52 C64 1_555 1_555
H53 C64 1_555 1_555
H54 C64 1_555 1_555
C65 Si9 1_555 1_555
C66 C65 1_555 1_555
H55 C66 1_555 1_555
C67 C66 1_555 1_555
C68 S22 1_555 1_555
C69 C67 1_555 1_555
C70 S23 1_555 1_555
C71 Si6 1_555 1_555
C72 S24 1_555 1_555
C73 Si6 1_555 1_555
C74 S25 1_555 1_555
C75 C73 1_555 1_555
C76 S26 1_555 1_555
C77 S27 1_555 1_555
C78 C75 1_555 1_555
C79 C78 1_555 1_555
H56 C79 1_555 1_555
C80 S28 1_555 1_555
C81 Si8 1_555 1_555
H57 C81 1_555 1_555
H58 C81 1_555 1_555
H59 C81 1_555 1_555
C82 Si8 1_555 1_555
H60 C82 1_555 1_555
H61 C82 1_555 1_555
H62 C82 1_555 1_555
C83 Si8 1_555 1_555
H63 C83 1_555 1_555
H64 C83 1_555 1_555
H65 C83 1_555 1_555
C84 Si7 1_555 1_555
H66 C84 1_555 1_555
H67 C84 1_555 1_555
H68 C84 1_555 1_555
C85 Si10 1_555 1_555
H69 C85 1_555 1_555
H70 C85 1_555 1_555
H71 C85 1_555 1_555
C86 Si7 1_555 1_555
H72 C86 1_555 1_555
H73 C86 1_555 1_555
H74 C86 1_555 1_555
C87 Si10 1_555 1_555
H75 C87 1_555 1_555
H76 C87 1_555 1_555
H77 C87 1_555 1_555
C88 Si10 1_555 1_555
H78 C88 1_555 1_555
H79 C88 1_555 1_555
H80 C88 1_555 1_555
C89 H81 1_555 1_555
Cl1 C89 1_555 1_555
Cl2 C89 1_555 1_555
Cl3 C89 1_555 1_555
Cl4 C90 1_555 1_555
Cl5 C90 1_555 1_555
Cl6 C90 1_555 1_555
C90 H82 1_555 1_555
Cl7 C91 1_555 1_555
Cl8 C91 1_555 1_555
Cl9 C91 1_555 1_555
C91 H83 1_555 1_555
Cl10 C92 1_555 1_555
Cl11 C92 1_555 1_555
Cl12 C92 1_555 1_555
C92 H84 1_555 1_555
Cl13 C93 1_555 1_555
Cl14 C93 1_555 1_555
Cl15 C93 1_555 1_555
C93 H85 1_555 1_555
C3 C4 1_555 1_555
C5 C6 1_555 1_555
C7 C8 1_555 1_555
C9 C10 1_555 1_555
C11 C12 1_555 1_555
C13 C14 1_555 1_555
C15 C16 1_555 1_555
C23 C24 1_555 1_555
C25 C26 1_555 1_555
C26 C27 1_555 1_555
C27 C28 1_555 1_555
C29 C30 1_555 1_555
C31 C32 1_555 1_555
C33 C34 1_555 1_555
C35 C36 1_555 1_555
C47 C48 1_555 1_555
C49 C50 1_555 1_555
C51 C52 1_555 1_555
C53 C54 1_555 1_555
C55 C56 1_555 1_555
C57 C58 1_555 1_555
C59 C60 1_555 1_555
C67 C68 1_555 1_555
C69 C70 1_555 1_555
C69 C71 1_555 1_555
C71 C72 1_555 1_555
C73 C74 1_555 1_555
C75 C76 1_555 1_555
C77 C78 1_555 1_555
C79 C80 1_555 1_555

#END
