
#######################################################################
#
#                 Cambridge Crystallographic Data Centre
#                                CCDC 
#
#######################################################################
#
# If this CIF has been generated from an entry in the Cambridge 
# Structural Database, then it will include bibliographic, chemical, 
# crystal, experimental, refinement or atomic coordinate data resulting 
# from the CCDC's data processing and validation procedures.
#
#######################################################################

data_HURCOO
_chemical_name_common            
(E)-2-benzylidene-3-phenyl-2,3-dihydro-1H-inden-1-one
_chemical_formula_moiety         'C22 H16 O1'
_chemical_name_systematic        (E)-2-benzylidene-3-phenylindan-1-one
_symmetry_cell_setting           monoclinic
_symmetry_space_group_name_H-M   'P 21/c'
_symmetry_Int_Tables_number      14
_space_group_name_Hall           '-P 2ybc'
loop_
_symmetry_equiv_pos_site_id
_symmetry_equiv_pos_as_xyz
1 x,y,z
2 -x,1/2+y,1/2-z
3 -x,-y,-z
4 x,1/2-y,1/2+z
_cell_length_a                   16.0902(14)
_cell_length_b                   5.6098(5)
_cell_length_c                   17.2424(13)
_cell_angle_alpha                90
_cell_angle_beta                 94.430(3)
_cell_angle_gamma                90
_cell_volume                     1551.7
_exptl_crystal_colour            colorless
_exptl_crystal_description       Rectangular
_chemical_melting_point          '416-418 K'
_cell_formula_units_Z            4
_exptl_crystal_recrystallization_method dichloromethane
loop_
_atom_site_label
_atom_site_type_symbol
_atom_site_fract_x
_atom_site_fract_y
_atom_site_fract_z
C1 C 0.55285(17) 0.3630(6) 0.09817(16)
H1 H 0.5388 0.2355 0.0653
C2 C 0.49189(18) 0.5159(7) 0.12184(18)
H2 H 0.4365 0.4905 0.1041
C3 C 0.51174(19) 0.7057(7) 0.17143(18)
H3 H 0.4698 0.8046 0.1871
C4 C 0.59266(18) 0.7475(6) 0.19718(16)
H4 H 0.6065 0.8749 0.2302
C5 C 0.65420(16) 0.5959(5) 0.17308(13)
C6 C 0.74435(16) 0.6057(5) 0.19215(13)
C7 C 0.78173(15) 0.4000(5) 0.15280(13)
C8 C 0.71231(14) 0.2682(5) 0.10547(13)
H5 H 0.7090 0.1044 0.1248
C9 C 0.63485(15) 0.4041(5) 0.12446(13)
C10 C 0.86360(16) 0.3597(5) 0.16465(13)
H6 H 0.8912 0.4725 0.1967
C11 C 0.91847(15) 0.1759(5) 0.13787(13)
C12 C 1.00326(16) 0.1941(6) 0.16041(15)
H7 H 1.0225 0.3214 0.1913
C13 C 1.05905(18) 0.0266(7) 0.13766(17)
H8 H 1.1155 0.0423 0.1529
C14 C 1.03158(18) -0.1631(6) 0.09266(17)
H9 H 1.0693 -0.2765 0.0776
C15 C 0.94852(17) -0.1854(6) 0.06992(16)
H10 H 0.9299 -0.3140 0.0393
C16 C 0.89247(16) -0.0178(5) 0.09227(15)
H11 H 0.8362 -0.0350 0.0765
C17 C 0.71945(14) 0.2634(5) 0.01809(13)
C18 C 0.75404(16) 0.4524(5) -0.01940(14)
H12 H 0.7753 0.5819 0.0094
C19 C 0.75741(17) 0.4511(6) -0.09946(15)
H13 H 0.7807 0.5799 -0.1239
C20 C 0.72693(19) 0.2630(6) -0.14254(16)
H14 H 0.7296 0.2627 -0.1962
C21 C 0.6923(2) 0.0741(6) -0.10642(17)
H15 H 0.6714 -0.0547 -0.1357
C22 C 0.68835(17) 0.0736(6) -0.02627(15)
H16 H 0.6646 -0.0553 -0.0023
O1 O 0.78134(12) 0.7548(4) 0.23332(11)
loop_
_geom_bond_atom_site_label_1
_geom_bond_atom_site_label_2
_geom_bond_site_symmetry_1
_geom_bond_site_symmetry_2
C1 H1 1_555 1_555
C2 C1 1_555 1_555
H2 C2 1_555 1_555
C3 C2 1_555 1_555
H3 C3 1_555 1_555
C4 C3 1_555 1_555
H4 C4 1_555 1_555
C5 C4 1_555 1_555
C6 C5 1_555 1_555
C7 C6 1_555 1_555
C8 C7 1_555 1_555
H5 C8 1_555 1_555
C9 C1 1_555 1_555
C10 C7 1_555 1_555
H6 C10 1_555 1_555
C11 C10 1_555 1_555
C12 C11 1_555 1_555
H7 C12 1_555 1_555
C13 C12 1_555 1_555
H8 C13 1_555 1_555
C14 C13 1_555 1_555
H9 C14 1_555 1_555
C15 C14 1_555 1_555
H10 C15 1_555 1_555
C16 C11 1_555 1_555
H11 C16 1_555 1_555
C17 C8 1_555 1_555
C18 C17 1_555 1_555
H12 C18 1_555 1_555
C19 C18 1_555 1_555
H13 C19 1_555 1_555
C20 C19 1_555 1_555
H14 C20 1_555 1_555
C21 C20 1_555 1_555
H15 C21 1_555 1_555
C22 C17 1_555 1_555
H16 C22 1_555 1_555
O1 C6 1_555 1_555
C5 C9 1_555 1_555
C8 C9 1_555 1_555
C15 C16 1_555 1_555
C21 C22 1_555 1_555

#END
