
#######################################################################
#
#                 Cambridge Crystallographic Data Centre
#                                CCDC 
#
#######################################################################
#
# If this CIF has been generated from an entry in the Cambridge 
# Structural Database, then it will include bibliographic, chemical, 
# crystal, experimental, refinement or atomic coordinate data resulting 
# from the CCDC's data processing and validation procedures.
#
#######################################################################

data_HURCUU
_chemical_name_common            
(E)-2-(4-chlorobenzylidene)-3-phenyl-2,3-dihydro-1H-inden-1-one
_chemical_formula_moiety         'C22 H15 Cl1 O1'
_chemical_name_systematic        
(E)-2-(4-chlorobenzylidene)-3-phenylindan-1-one
_symmetry_cell_setting           triclinic
_symmetry_space_group_name_H-M   'P -1'
_symmetry_Int_Tables_number      2
_space_group_name_Hall           '-P 1'
loop_
_symmetry_equiv_pos_site_id
_symmetry_equiv_pos_as_xyz
1 x,y,z
2 -x,-y,-z
_cell_length_a                   6.5461(2)
_cell_length_b                   8.9980(4)
_cell_length_c                   14.2101(5)
_cell_angle_alpha                92.224(2)
_cell_angle_beta                 101.2532(19)
_cell_angle_gamma                92.809(2)
_cell_volume                     818.922
_exptl_crystal_colour            colorless
_exptl_crystal_description       Block
_chemical_melting_point          '471-473 K'
_cell_formula_units_Z            2
_exptl_crystal_recrystallization_method dichloromethane
loop_
_atom_site_label
_atom_site_type_symbol
_atom_site_fract_x
_atom_site_fract_y
_atom_site_fract_z
C1 C 0.3410(3) 0.58587(19) 0.10001(12)
H1 H 0.1995 0.5572 0.0843
C2 C 0.4334(4) 0.6725(2) 0.03982(13)
H2 H 0.3523 0.7017 -0.0170
C3 C 0.6435(4) 0.7169(2) 0.06192(14)
H3 H 0.7014 0.7750 0.0200
C4 C 0.7668(3) 0.6755(2) 0.14538(14)
H4 H 0.9079 0.7051 0.1609
C5 C 0.6743(3) 0.58810(18) 0.20607(12)
C6 C 0.7720(2) 0.52944(18) 0.29832(12)
C7 C 0.6053(2) 0.44377(18) 0.33449(11)
C8 C 0.4031(2) 0.44412(17) 0.26022(10)
H5 H 0.2959 0.4906 0.2889
C9 C 0.4644(3) 0.54261(17) 0.18452(11)
C10 C 0.6512(2) 0.38432(18) 0.42037(11)
H6 H 0.7900 0.4010 0.4511
C11 C 0.5242(2) 0.29843(18) 0.47469(11)
C12 C 0.6240(3) 0.2380(2) 0.55938(12)
H7 H 0.7681 0.2525 0.5781
C13 C 0.5153(3) 0.1578(2) 0.61600(13)
H8 H 0.5851 0.1176 0.6718
C14 C 0.3015(3) 0.13778(19) 0.58882(12)
C15 C 0.1974(3) 0.1966(2) 0.50605(12)
H9 H 0.0531 0.1828 0.4884
C16 C 0.3073(2) 0.2758(2) 0.44974(11)
H10 H 0.2360 0.3151 0.3939
C17 C 0.3199(2) 0.29103(17) 0.21499(10)
C18 C 0.4533(3) 0.18306(19) 0.19968(12)
H11 H 0.5964 0.2022 0.2200
C19 C 0.3788(3) 0.0466(2) 0.15461(13)
H12 H 0.4716 -0.0247 0.1447
C20 C 0.1676(3) 0.0163(2) 0.12437(12)
H13 H 0.1170 -0.0752 0.0938
C21 C 0.0320(3) 0.1223(2) 0.13965(13)
H14 H -0.1111 0.1021 0.1200
C22 C 0.1072(3) 0.2592(2) 0.18418(13)
H15 H 0.0142 0.3306 0.1936
Cl1 Cl 0.15916(8) 0.04191(6) 0.66094(3)
O1 O 0.95620(18) 0.54573(15) 0.33717(9)
loop_
_geom_bond_atom_site_label_1
_geom_bond_atom_site_label_2
_geom_bond_site_symmetry_1
_geom_bond_site_symmetry_2
C1 H1 1_555 1_555
C2 C1 1_555 1_555
H2 C2 1_555 1_555
C3 C2 1_555 1_555
H3 C3 1_555 1_555
C4 C3 1_555 1_555
H4 C4 1_555 1_555
C5 C4 1_555 1_555
C6 C5 1_555 1_555
C7 C6 1_555 1_555
C8 C7 1_555 1_555
H5 C8 1_555 1_555
C9 C1 1_555 1_555
C10 C7 1_555 1_555
H6 C10 1_555 1_555
C11 C10 1_555 1_555
C12 C11 1_555 1_555
H7 C12 1_555 1_555
C13 C12 1_555 1_555
H8 C13 1_555 1_555
C14 C13 1_555 1_555
C15 C14 1_555 1_555
H9 C15 1_555 1_555
C16 C11 1_555 1_555
H10 C16 1_555 1_555
C17 C8 1_555 1_555
C18 C17 1_555 1_555
H11 C18 1_555 1_555
C19 C18 1_555 1_555
H12 C19 1_555 1_555
C20 C19 1_555 1_555
H13 C20 1_555 1_555
C21 C20 1_555 1_555
H14 C21 1_555 1_555
C22 C17 1_555 1_555
H15 C22 1_555 1_555
Cl1 C14 1_555 1_555
O1 C6 1_555 1_555
C5 C9 1_555 1_555
C8 C9 1_555 1_555
C15 C16 1_555 1_555
C21 C22 1_555 1_555

#END
