
#######################################################################
#
#                 Cambridge Crystallographic Data Centre
#                                CCDC 
#
#######################################################################
#
# If this CIF has been generated from an entry in the Cambridge 
# Structural Database, then it will include bibliographic, chemical, 
# crystal, experimental, refinement or atomic coordinate data resulting 
# from the CCDC's data processing and validation procedures.
#
#######################################################################

data_HURCII
_chemical_name_common            
(E)-2-benzylidene-6-bromo-3-phenyl-2,3-dihydro-1H-inden-1-one
_chemical_formula_moiety         'C22 H15 Br1 O1'
_chemical_name_systematic        (E)-2-benzylidene-6-bromo-3-phenylindan-1-one
_symmetry_cell_setting           monoclinic
_symmetry_space_group_name_H-M   'P 21/c'
_symmetry_Int_Tables_number      14
_space_group_name_Hall           '-P 2ybc'
loop_
_symmetry_equiv_pos_site_id
_symmetry_equiv_pos_as_xyz
1 x,y,z
2 -x,1/2+y,1/2-z
3 -x,-y,-z
4 x,1/2-y,1/2+z
_cell_length_a                   6.2530(12)
_cell_length_b                   15.418(3)
_cell_length_c                   17.593(4)
_cell_angle_alpha                90
_cell_angle_beta                 92.180(7)
_cell_angle_gamma                90
_cell_volume                     1694.89
_exptl_crystal_colour            colorless
_exptl_crystal_description       rectangular
_chemical_melting_point          '451-453 K'
_cell_formula_units_Z            4
_exptl_crystal_recrystallization_method deuterochloroform
loop_
_atom_site_label
_atom_site_type_symbol
_atom_site_fract_x
_atom_site_fract_y
_atom_site_fract_z
Br1 Br 0.43307(5) 0.38539(2) 0.07090(2)
C1 C 0.8594(4) 0.34768(15) 0.29083(12)
C2 C 0.9336(4) 0.32027(16) 0.22144(13)
H1 H 1.0675 0.2945 0.2185
C3 C 0.8041(5) 0.33208(17) 0.15682(13)
H2 H 0.8512 0.3140 0.1099
C4 C 0.6057(4) 0.37042(16) 0.16140(13)
C5 C 0.5295(4) 0.39830(16) 0.22944(13)
H3 H 0.3958 0.4243 0.2322
C6 C 0.6609(4) 0.38589(15) 0.29379(12)
C7 C 0.6180(4) 0.40890(15) 0.37319(13)
C8 C 0.8093(4) 0.38372(15) 0.42018(12)
C9 C 0.9695(4) 0.33975(15) 0.36955(12)
H4 H 1.1032 0.3730 0.3708
C10 C 0.8188(4) 0.40373(15) 0.49462(13)
H5 H 0.6970 0.4315 0.5111
C11 C 0.9825(4) 0.39034(16) 0.55424(12)
C12 C 0.9346(5) 0.41516(17) 0.62801(13)
H6 H 0.8004 0.4381 0.6370
C13 C 1.0816(5) 0.40643(19) 0.68747(15)
H7 H 1.0469 0.4238 0.7361
C14 C 1.2801(5) 0.37207(19) 0.67516(14)
H8 H 1.3792 0.3655 0.7155
C15 C 1.3318(5) 0.34733(18) 0.60293(15)
H9 H 1.4665 0.3245 0.5945
C16 C 1.1843(4) 0.35627(17) 0.54295(14)
H10 H 1.2207 0.3393 0.4944
C17 C 1.0179(4) 0.24540(15) 0.38731(11)
C18 C 0.8631(4) 0.19129(17) 0.41492(14)
H11 H 0.7296 0.2136 0.4259
C19 C 0.9052(5) 0.10430(19) 0.42633(16)
H12 H 0.7999 0.0685 0.4453
C20 C 1.1001(5) 0.07015(18) 0.41006(14)
H13 H 1.1261 0.0112 0.4169
C21 C 1.2563(5) 0.12292(19) 0.38370(14)
H14 H 1.3899 0.1002 0.3735
C22 C 1.2155(4) 0.21022(18) 0.37219(13)
H15 H 1.3223 0.2458 0.3540
O1 O 0.4534(3) 0.44164(12) 0.39514(9)
loop_
_geom_bond_atom_site_label_1
_geom_bond_atom_site_label_2
_geom_bond_site_symmetry_1
_geom_bond_site_symmetry_2
Br1 C4 1_555 1_555
C1 C2 1_555 1_555
C2 H1 1_555 1_555
C3 C2 1_555 1_555
H2 C3 1_555 1_555
C4 C3 1_555 1_555
C5 C4 1_555 1_555
H3 C5 1_555 1_555
C6 C1 1_555 1_555
C7 C6 1_555 1_555
C8 C7 1_555 1_555
C9 C1 1_555 1_555
H4 C9 1_555 1_555
C10 C8 1_555 1_555
H5 C10 1_555 1_555
C11 C10 1_555 1_555
C12 C11 1_555 1_555
H6 C12 1_555 1_555
C13 C12 1_555 1_555
H7 C13 1_555 1_555
C14 C13 1_555 1_555
H8 C14 1_555 1_555
C15 C14 1_555 1_555
H9 C15 1_555 1_555
C16 C11 1_555 1_555
H10 C16 1_555 1_555
C17 C9 1_555 1_555
C18 C17 1_555 1_555
H11 C18 1_555 1_555
C19 C18 1_555 1_555
H12 C19 1_555 1_555
C20 C19 1_555 1_555
H13 C20 1_555 1_555
C21 C20 1_555 1_555
H14 C21 1_555 1_555
C22 C17 1_555 1_555
H15 C22 1_555 1_555
O1 C7 1_555 1_555
C5 C6 1_555 1_555
C8 C9 1_555 1_555
C15 C16 1_555 1_555
C21 C22 1_555 1_555

#END
