
#######################################################################
#
#                 Cambridge Crystallographic Data Centre
#                                CCDC 
#
#######################################################################
#
# If this CIF has been generated from an entry in the Cambridge 
# Structural Database, then it will include bibliographic, chemical, 
# crystal, experimental, refinement or atomic coordinate data resulting 
# from the CCDC's data processing and validation procedures.
#
#######################################################################

data_HURCAY
_chemical_name_common            'Wogonin methanol solvate'
_chemical_formula_moiety         'C16 H12 O5,C1 H4 O1'
_chemical_name_systematic        
'5,7-Dihydroxy-8-methoxyflavone methanol solvate'
_symmetry_cell_setting           monoclinic
_symmetry_space_group_name_H-M   'P 21/n'
_symmetry_Int_Tables_number      14
_space_group_name_Hall           '-P 2yn'
loop_
_symmetry_equiv_pos_site_id
_symmetry_equiv_pos_as_xyz
1 x,y,z
2 1/2+x,1/2-y,1/2+z
3 -x,-y,-z
4 1/2-x,1/2+y,1/2-z
_cell_length_a                   4.4455(5)
_cell_length_b                   18.893(2)
_cell_length_c                   17.0155(19)
_cell_angle_alpha                90
_cell_angle_beta                 95.533(2)
_cell_angle_gamma                90
_cell_volume                     1422.45
_exptl_crystal_colour            yellow
_exptl_crystal_description       block
_cell_formula_units_Z            4
loop_
_atom_site_label
_atom_site_type_symbol
_atom_site_fract_x
_atom_site_fract_y
_atom_site_fract_z
O1 O 0.2166(17) 0.4781(4) 0.4192(4)
C1 C 0.5378(18) 0.4841(4) 0.4249(4)
O3 O -0.0486(5) 0.76280(12) 0.31686(13)
O4 O 0.2206(7) 0.84150(16) 0.11184(16)
O5 O 0.5228(7) 0.72589(17) 0.09522(16)
H1 H 0.4869 0.7682 0.0893
O6 O 0.4773(8) 0.54864(14) 0.28756(18)
H2 H 0.4221 0.5423 0.3316
O7 O 0.1018(7) 0.63096(13) 0.37187(15)
C2 C -0.1354(8) 0.82886(18) 0.2915(2)
C3 C -0.0502(9) 0.85494(19) 0.2229(2)
H3 H -0.1176 0.8996 0.2064
C4 C 0.1379(9) 0.8167(2) 0.1753(2)
C5 C 0.4186(9) 0.7033(2) 0.1632(2)
C6 C 0.4983(10) 0.6377(2) 0.1917(2)
H4 H 0.6209 0.6087 0.1643
C7 C 0.3957(10) 0.6144(2) 0.2620(2)
C8 C 0.2129(9) 0.65694(18) 0.3046(2)
C9 C 0.1337(8) 0.72291(17) 0.2739(2)
C10 C 0.2313(8) 0.74766(19) 0.2033(2)
C11 C 0.2606(12) 0.6553(2) 0.4440(2)
H5 H 0.1714 0.6350 0.4880
H6 H 0.2481 0.7060 0.4466
H7 H 0.4687 0.6413 0.4459
C12 C -0.3196(8) 0.86413(19) 0.3467(2)
C13 C -0.3779(9) 0.8319(2) 0.4164(3)
H8 H -0.2989 0.7872 0.4284
C14 C -0.5519(10) 0.8650(3) 0.4689(3)
H9 H -0.5880 0.8426 0.5157
C15 C -0.6708(10) 0.9308(3) 0.4514(3)
H10 H -0.7905 0.9529 0.4860
C16 C -0.6127(12) 0.9638(3) 0.3829(3)
H11 H -0.6909 1.0087 0.3716
C17 C -0.4408(10) 0.9314(2) 0.3309(3)
H12 H -0.4041 0.9545 0.2845
O2? O 0.855(6) 0.4937(12) 0.4298(14)
loop_
_geom_bond_atom_site_label_1
_geom_bond_atom_site_label_2
_geom_bond_site_symmetry_1
_geom_bond_site_symmetry_2
O1 C1 1_555 1_555
O3 C2 1_555 1_555
O4 C4 1_555 1_555
O5 H1 1_555 1_555
O6 H2 1_555 1_555
O7 C8 1_555 1_555
C2 C3 1_555 1_555
C3 H3 1_555 1_555
C4 C3 1_555 1_555
C5 O5 1_555 1_555
C6 C5 1_555 1_555
H4 C6 1_555 1_555
C7 O6 1_555 1_555
C8 C7 1_555 1_555
C9 O3 1_555 1_555
C10 C4 1_555 1_555
C11 O7 1_555 1_555
H5 C11 1_555 1_555
H6 C11 1_555 1_555
H7 C11 1_555 1_555
C12 C2 1_555 1_555
C13 C12 1_555 1_555
H8 C13 1_555 1_555
C14 C13 1_555 1_555
H9 C14 1_555 1_555
C15 C14 1_555 1_555
H10 C15 1_555 1_555
C16 C15 1_555 1_555
H11 C16 1_555 1_555
C17 C12 1_555 1_555
H12 C17 1_555 1_555
C5 C10 1_555 1_555
C6 C7 1_555 1_555
C8 C9 1_555 1_555
C9 C10 1_555 1_555
C16 C17 1_555 1_555

#END
