
#######################################################################
#
#                 Cambridge Crystallographic Data Centre
#                                CCDC 
#
#######################################################################
#
# If this CIF has been generated from an entry in the Cambridge 
# Structural Database, then it will include bibliographic, chemical, 
# crystal, experimental, refinement or atomic coordinate data resulting 
# from the CCDC's data processing and validation procedures.
#
#######################################################################

data_HURJEL
_chemical_formula_moiety         'C21 H16 F2 O1'
_chemical_name_systematic        
6-fluoro-9-(4-fluorophenyl)-9-(prop-2-yn-1-yl)-2,3,4,9-tetrahydroindeno[2,1-b]pyran
_symmetry_cell_setting           triclinic
_symmetry_space_group_name_H-M   'P -1'
_symmetry_Int_Tables_number      2
_space_group_name_Hall           '-P 1'
loop_
_symmetry_equiv_pos_site_id
_symmetry_equiv_pos_as_xyz
1 x,y,z
2 -x,-y,-z
_cell_length_a                   8.2834(12)
_cell_length_b                   10.8217(16)
_cell_length_c                   18.382(3)
_cell_angle_alpha                78.708(14)
_cell_angle_beta                 82.706(14)
_cell_angle_gamma                89.789(12)
_cell_volume                     1602.42
_exptl_crystal_colour            'light colorless'
_exptl_crystal_description       block
_cell_formula_units_Z            4
loop_
_atom_site_label
_atom_site_type_symbol
_atom_site_fract_x
_atom_site_fract_y
_atom_site_fract_z
F1 F 0.6081(3) 1.39856(19) 0.05478(14)
F2 F -0.0322(2) 0.82886(19) 0.46241(14)
O1 O 0.5915(3) 0.74603(19) 0.23625(14)
C1 C 0.5588(4) 0.9540(3) 0.27242(19)
C2 C 0.5680(4) 1.0842(3) 0.22197(19)
C3 C 0.5526(4) 1.2021(3) 0.2398(2)
H1 H 0.5336 1.2105 0.2896
C4 C 0.5656(5) 1.3078(3) 0.1830(2)
H2 H 0.5547 1.3879 0.1941
C5 C 0.5946(5) 1.2932(3) 0.1104(2)
C6 C 0.6125(4) 1.1771(3) 0.0898(2)
H3 H 0.6326 1.1701 0.0398
C7 C 0.5990(4) 1.0717(3) 0.1470(2)
C8 C 0.6107(4) 0.9380(3) 0.14371(19)
C9 C 0.6375(5) 0.8764(3) 0.0769(2)
H4 H 0.7498 0.8885 0.0539
H5 H 0.5676 0.9129 0.0402
C10 C 0.5973(5) 0.7368(3) 0.1041(2)
H6 H 0.4802 0.7240 0.1101
H7 H 0.6447 0.6910 0.0665
C11 C 0.6587(5) 0.6848(3) 0.1762(2)
H8 H 0.6317 0.5954 0.1902
H9 H 0.7763 0.6942 0.1695
C12 C 0.5871(4) 0.8725(3) 0.2138(2)
C13 C 0.3965(4) 0.9210(3) 0.32239(18)
C14 C 0.3763(4) 0.8072(3) 0.3735(2)
H10 H 0.4627 0.7521 0.3766
C15 C 0.2319(4) 0.7733(3) 0.4198(2)
H11 H 0.2191 0.6961 0.4529
C16 C 0.1079(4) 0.8585(3) 0.4151(2)
C17 C 0.1206(4) 0.9713(3) 0.3654(2)
H12 H 0.0342 1.0264 0.3631
C18 C 0.2651(4) 1.0010(3) 0.3188(2)
H13 H 0.2748 1.0766 0.2841
C19 C 0.7028(4) 0.9366(3) 0.3197(2)
H14 H 0.7115 0.8476 0.3405
H15 H 0.8028 0.9638 0.2870
C20 C 0.6867(4) 1.0065(3) 0.3811(2)
C21 C 0.6713(5) 1.0597(4) 0.4305(3)
H16 H 0.6591 1.1024 0.4700
F3 F 0.1297(3) 0.90291(18) 0.06028(13)
F4 F 0.5523(3) 0.3276(2) 0.46317(14)
O2 O 0.0572(3) 0.24772(19) 0.23591(14)
C22 C 0.0668(4) 0.4548(3) 0.27414(19)
C23 C 0.0850(4) 0.5853(3) 0.22436(19)
C24 C 0.0852(4) 0.7015(3) 0.2442(2)
H17 H 0.0743 0.7081 0.2943
C25 C 0.1020(5) 0.8092(3) 0.1878(2)
H18 H 0.1042 0.8889 0.1996
C26 C 0.1153(4) 0.7958(3) 0.1148(2)
C27 C 0.1152(4) 0.6819(3) 0.0927(2)
H19 H 0.1248 0.6765 0.0425
C28 C 0.1002(4) 0.5748(3) 0.14913(19)
C29 C 0.0943(4) 0.4410(3) 0.1447(2)
C30 C 0.0750(4) 0.3742(3) 0.2149(2)
C31 C 0.0225(5) 0.1900(3) 0.1745(2)
H20 H -0.0904 0.2038 0.1669
H21 H 0.0370 0.0997 0.1879
C32 C 0.1283(5) 0.2405(3) 0.1035(2)
H22 H 0.1019 0.1968 0.0650
H23 H 0.2411 0.2244 0.1105
C33 C 0.1076(5) 0.3819(3) 0.0774(2)
H24 H 0.2006 0.4176 0.0421
H25 H 0.0103 0.3972 0.0530
C34 C 0.2017(4) 0.4211(3) 0.32387(18)
C35 C 0.3330(4) 0.5013(3) 0.3211(2)
H26 H 0.3406 0.5780 0.2874
C36 C 0.4533(4) 0.4709(3) 0.3669(2)
H27 H 0.5407 0.5258 0.3645
C37 C 0.4396(4) 0.3573(3) 0.4158(2)
C38 C 0.3145(4) 0.2727(3) 0.4201(2)
H28 H 0.3102 0.1952 0.4529
C39 C 0.1946(4) 0.3058(3) 0.37411(19)
H29 H 0.1078 0.2502 0.3768
C40 C -0.1037(4) 0.4336(3) 0.3218(2)
H30 H -0.1869 0.4594 0.2895
H31 H -0.1207 0.3444 0.3427
C41 C -0.1218(4) 0.5042(3) 0.3830(2)
C42 C -0.1360(4) 0.5576(4) 0.4330(2)
H32 H -0.1472 0.6000 0.4727
loop_
_geom_bond_atom_site_label_1
_geom_bond_atom_site_label_2
_geom_bond_site_symmetry_1
_geom_bond_site_symmetry_2
F1 C5 1_555 1_555
F2 C16 1_555 1_555
O1 C11 1_555 1_555
C1 C2 1_555 1_555
C2 C3 1_555 1_555
C3 H1 1_555 1_555
C4 C3 1_555 1_555
H2 C4 1_555 1_555
C5 C4 1_555 1_555
C6 C5 1_555 1_555
H3 C6 1_555 1_555
C7 C2 1_555 1_555
C8 C7 1_555 1_555
C9 C8 1_555 1_555
H4 C9 1_555 1_555
H5 C9 1_555 1_555
C10 C9 1_555 1_555
H6 C10 1_555 1_555
H7 C10 1_555 1_555
C11 C10 1_555 1_555
H8 C11 1_555 1_555
H9 C11 1_555 1_555
C12 O1 1_555 1_555
C13 C1 1_555 1_555
C14 C13 1_555 1_555
H10 C14 1_555 1_555
C15 C14 1_555 1_555
H11 C15 1_555 1_555
C16 C15 1_555 1_555
C17 C16 1_555 1_555
H12 C17 1_555 1_555
C18 C13 1_555 1_555
H13 C18 1_555 1_555
C19 C1 1_555 1_555
H14 C19 1_555 1_555
H15 C19 1_555 1_555
C20 C19 1_555 1_555
C21 C20 1_555 1_555
H16 C21 1_555 1_555
F3 C26 1_555 1_555
F4 C37 1_555 1_555
O2 C30 1_555 1_555
C22 C23 1_555 1_555
C23 C24 1_555 1_555
C24 H17 1_555 1_555
C25 C24 1_555 1_555
H18 C25 1_555 1_555
C26 C25 1_555 1_555
C27 C26 1_555 1_555
H19 C27 1_555 1_555
C28 C23 1_555 1_555
C29 C28 1_555 1_555
C30 C22 1_555 1_555
C31 O2 1_555 1_555
H20 C31 1_555 1_555
H21 C31 1_555 1_555
C32 C31 1_555 1_555
H22 C32 1_555 1_555
H23 C32 1_555 1_555
C33 C29 1_555 1_555
H24 C33 1_555 1_555
H25 C33 1_555 1_555
C34 C22 1_555 1_555
C35 C34 1_555 1_555
H26 C35 1_555 1_555
C36 C35 1_555 1_555
H27 C36 1_555 1_555
C37 C36 1_555 1_555
C38 C37 1_555 1_555
H28 C38 1_555 1_555
C39 C34 1_555 1_555
H29 C39 1_555 1_555
C40 C22 1_555 1_555
H30 C40 1_555 1_555
H31 C40 1_555 1_555
C41 C40 1_555 1_555
C42 C41 1_555 1_555
H32 C42 1_555 1_555
C1 C12 1_555 1_555
C6 C7 1_555 1_555
C8 C12 1_555 1_555
C17 C18 1_555 1_555
C27 C28 1_555 1_555
C29 C30 1_555 1_555
C32 C33 1_555 1_555
C38 C39 1_555 1_555

#END
