
#######################################################################
#
#                 Cambridge Crystallographic Data Centre
#                                CCDC 
#
#######################################################################
#
# If this CIF has been generated from an entry in the Cambridge 
# Structural Database, then it will include bibliographic, chemical, 
# crystal, experimental, refinement or atomic coordinate data resulting 
# from the CCDC's data processing and validation procedures.
#
#######################################################################

data_HURSIW
_chemical_formula_moiety         'C11 H10 F2 N1 P1 S1'
_chemical_name_systematic        
5,8-Difluoro-7-((dimethyl)thiophosphano)quinoline
_symmetry_cell_setting           orthorhombic
_symmetry_space_group_name_H-M   'I m a 2'
_symmetry_Int_Tables_number      46
_space_group_name_Hall           'I 2 -2a'
loop_
_symmetry_equiv_pos_site_id
_symmetry_equiv_pos_as_xyz
1 x,y,z
2 -x,-y,z
3 1/2+x,-y,z
4 1/2-x,y,z
5 1/2+x,1/2+y,1/2+z
6 1/2-x,1/2-y,1/2+z
7 x,1/2-y,1/2+z
8 -x,1/2+y,1/2+z
_cell_length_a                   6.9146(2)
_cell_length_b                   19.0277(6)
_cell_length_c                   8.6981(2)
_cell_angle_alpha                90
_cell_angle_beta                 90
_cell_angle_gamma                90
_cell_volume                     1144.4
_chemical_melting_point          173-175deg.C
_cell_formula_units_Z            4
_exptl_crystal_recrystallization_method benzene/hexane
loop_
_atom_site_label
_atom_site_type_symbol
_atom_site_fract_x
_atom_site_fract_y
_atom_site_fract_z
S1 S 0.2500 0.74501(5) 0.05954(10)
P1 P 0.2500 0.65065(4) 0.14650(9)
F1 F 0.2500 0.57352(11) -0.4225(2)
F2 F 0.2500 0.49115(10) 0.1759(2)
N1 N 0.2500 0.39070(16) -0.0465(3)
C1 C 0.2500 0.3438(2) -0.1566(5)
H2 H 0.2500 0.2956 -0.1286
C2 C 0.2500 0.3607(2) -0.3133(5)
H3 H 0.2500 0.3244 -0.3883
C3 C 0.2500 0.42869(17) -0.3570(5)
H4 H 0.2500 0.4408 -0.4630
C4 C 0.2500 0.48135(17) -0.2435(4)
C5 C 0.2500 0.45973(18) -0.0872(4)
C6 C 0.2500 0.51263(18) 0.0268(3)
C7 C 0.2500 0.58270(16) -0.0045(4)
C8 C 0.2500 0.60399(17) -0.1611(4)
H5 H 0.2500 0.6525 -0.1873
C9 C 0.2500 0.55432(19) -0.2721(4)
C10 C 0.0419(3) 0.63291(12) 0.2646(3)
H6 H 0.0500 0.5849 0.3049
H7 H -0.0758 0.6379 0.2029
H8 H 0.0383 0.6663 0.3504
C10C C 0.4581(3) 0.63291(12) 0.2646(3)
H6C H 0.4500 0.5849 0.3049
H7C H 0.5758 0.6379 0.2029
H8C H 0.4617 0.6663 0.3504
H1? H 0.2500 0.3780 0.0508
loop_
_geom_bond_atom_site_label_1
_geom_bond_atom_site_label_2
_geom_bond_site_symmetry_1
_geom_bond_site_symmetry_2
S1 P1 1_555 1_555
P1 C7 1_555 1_555
F1 C9 1_555 1_555
F2 C6 1_555 1_555
N1 C1 1_555 1_555
C1 H2 1_555 1_555
C2 C1 1_555 1_555
H3 C2 1_555 1_555
C3 C2 1_555 1_555
H4 C3 1_555 1_555
C4 C3 1_555 1_555
C5 N1 1_555 1_555
C6 C5 1_555 1_555
C7 C6 1_555 1_555
C8 C7 1_555 1_555
H5 C8 1_555 1_555
C9 C4 1_555 1_555
C10 P1 1_555 1_555
H6 C10 1_555 1_555
H7 C10 1_555 1_555
H8 C10 1_555 1_555
C10C P1 1_555 1_555
H6C C10C 1_555 1_555
H7C C10C 1_555 1_555
H8C C10C 1_555 1_555
C4 C5 1_555 1_555
C8 C9 1_555 1_555

#END
