
#######################################################################
#
#                 Cambridge Crystallographic Data Centre
#                                CCDC 
#
#######################################################################
#
# If this CIF has been generated from an entry in the Cambridge 
# Structural Database, then it will include bibliographic, chemical, 
# crystal, experimental, refinement or atomic coordinate data resulting 
# from the CCDC's data processing and validation procedures.
#
#######################################################################

data_HURSES
_chemical_formula_moiety         'C12 H9 F5 N1 P1 S1'
_chemical_name_systematic        
5,8-Difluoro-6-trifluoromethyl-7-((dimethyl)thiophosphano)-quinoline
_symmetry_cell_setting           orthorhombic
_symmetry_space_group_name_H-M   'P b c a'
_symmetry_Int_Tables_number      61
_space_group_name_Hall           '-P 2ac 2ab'
loop_
_symmetry_equiv_pos_site_id
_symmetry_equiv_pos_as_xyz
1 x,y,z
2 1/2+x,y,1/2-z
3 x,1/2-y,1/2+z
4 1/2-x,1/2+y,z
5 -x,-y,-z
6 1/2-x,-y,1/2+z
7 -x,1/2+y,1/2-z
8 1/2+x,1/2-y,-z
_cell_length_a                   13.391(3)
_cell_length_b                   6.6520(10)
_cell_length_c                   28.616(6)
_cell_angle_alpha                90
_cell_angle_beta                 90
_cell_angle_gamma                90
_cell_volume                     2549.03
_chemical_melting_point          155-156deg.C
_cell_formula_units_Z            8
_exptl_crystal_recrystallization_method benzene/hexane
loop_
_atom_site_label
_atom_site_type_symbol
_atom_site_fract_x
_atom_site_fract_y
_atom_site_fract_z
S1 S 0.38404(6) 0.61764(13) 0.86989(3)
P1 P 0.43368(6) 0.89449(12) 0.86728(3)
F1 F 0.53573(13) 0.8601(3) 0.95616(6)
F2 F 0.82117(13) 0.9286(3) 0.82354(6)
F3 F 0.70165(14) 0.8215(3) 0.76407(6)
F4 F 0.55029(14) 0.7611(3) 0.78212(6)
F5 F 0.59886(14) 1.0677(3) 0.77139(6)
N1 N 0.72442(19) 0.8636(4) 0.98289(8)
C1 C 0.8196(3) 0.8623(4) 0.99454(11)
H1 H 0.8357 0.8502 1.0267
C2 C 0.8989(2) 0.8778(5) 0.96253(11)
H2 H 0.9660 0.8735 0.9732
C3 C 0.8791(2) 0.8992(4) 0.91603(11)
H3 H 0.9316 0.9123 0.8939
C4 C 0.7779(2) 0.9012(4) 0.90180(10)
C5 C 0.7045(2) 0.8813(4) 0.93646(10)
C6 C 0.6031(2) 0.8823(4) 0.92150(10)
C7 C 0.5715(2) 0.8983(4) 0.87630(10)
C8 C 0.6491(2) 0.9043(4) 0.84097(10)
C9 C 0.7467(2) 0.9126(4) 0.85500(10)
C10 C 0.6254(2) 0.8912(5) 0.78964(11)
C11 C 0.3828(2) 1.0604(5) 0.91101(10)
H4 H 0.4114 1.1949 0.9072
H5 H 0.3991 1.0088 0.9422
H6 H 0.3101 1.0675 0.9074
C12 C 0.3980(2) 1.0306(5) 0.81563(11)
H7 H 0.4255 1.1669 0.8170
H8 H 0.3250 1.0377 0.8138
H9 H 0.4239 0.9613 0.7879
loop_
_geom_bond_atom_site_label_1
_geom_bond_atom_site_label_2
_geom_bond_site_symmetry_1
_geom_bond_site_symmetry_2
S1 P1 1_555 1_555
P1 C7 1_555 1_555
F1 C6 1_555 1_555
F2 C9 1_555 1_555
F3 C10 1_555 1_555
F4 C10 1_555 1_555
F5 C10 1_555 1_555
N1 C1 1_555 1_555
C1 H1 1_555 1_555
C2 C1 1_555 1_555
H2 C2 1_555 1_555
C3 C2 1_555 1_555
H3 C3 1_555 1_555
C4 C3 1_555 1_555
C5 N1 1_555 1_555
C6 C5 1_555 1_555
C7 C6 1_555 1_555
C8 C7 1_555 1_555
C9 C4 1_555 1_555
C10 C8 1_555 1_555
C11 P1 1_555 1_555
H4 C11 1_555 1_555
H5 C11 1_555 1_555
H6 C11 1_555 1_555
C12 P1 1_555 1_555
H7 C12 1_555 1_555
H8 C12 1_555 1_555
H9 C12 1_555 1_555
C4 C5 1_555 1_555
C8 C9 1_555 1_555

#END
