
#######################################################################
#
#                 Cambridge Crystallographic Data Centre
#                                CCDC 
#
#######################################################################
#
# If this CIF has been generated from an entry in the Cambridge 
# Structural Database, then it will include bibliographic, chemical, 
# crystal, experimental, refinement or atomic coordinate data resulting 
# from the CCDC's data processing and validation procedures.
#
#######################################################################

data_HURSAO
_chemical_formula_moiety         'C11 H9 F3 N1 P1 S1'
_chemical_name_systematic        
7-((Dimethyl)thiophosphano)-5,6,8-trifluoroquinoline
_symmetry_cell_setting           triclinic
_symmetry_space_group_name_H-M   'P -1'
_symmetry_Int_Tables_number      2
_space_group_name_Hall           '-P 1'
loop_
_symmetry_equiv_pos_site_id
_symmetry_equiv_pos_as_xyz
1 x,y,z
2 -x,-y,-z
_cell_length_a                   6.5290(10)
_cell_length_b                   12.879(3)
_cell_length_c                   14.483(3)
_cell_angle_alpha                101.03(3)
_cell_angle_beta                 100.69(3)
_cell_angle_gamma                100.82(3)
_cell_volume                     1142.7
_chemical_melting_point          150-152deg.C
_cell_formula_units_Z            4
_exptl_crystal_recrystallization_method benzene/hexane
loop_
_atom_site_label
_atom_site_type_symbol
_atom_site_fract_x
_atom_site_fract_y
_atom_site_fract_z
S1 S -0.11543(10) 0.62170(5) 0.34674(4)
P1 P 0.18880(9) 0.62260(4) 0.36906(4)
F1 F 0.3122(2) 0.25139(9) 0.20261(9)
F2 F 0.2787(2) 0.38983(9) 0.35613(8)
F3 F 0.21674(19) 0.65428(9) 0.17410(8)
N1 N 0.2437(3) 0.51885(13) 0.01426(12)
C1 C 0.2459(3) 0.44644(17) -0.06340(15)
H1 H 0.2376 0.4687 -0.1226
C2 C 0.2596(3) 0.33848(17) -0.06446(16)
H2 H 0.2580 0.2904 -0.1233
C3 C 0.2751(3) 0.30284(17) 0.01847(15)
H3 H 0.2863 0.2305 0.0191
C4 C 0.2741(3) 0.37728(16) 0.10390(14)
C5 C 0.2866(3) 0.35125(15) 0.19411(15)
C6 C 0.2704(3) 0.42281(16) 0.27289(14)
C7 C 0.2436(3) 0.52817(15) 0.26981(14)
C8 C 0.2410(3) 0.55446(15) 0.18249(14)
C9 C 0.2543(3) 0.48329(16) 0.09787(14)
C10 C 0.2944(4) 0.5889(2) 0.48031(15)
H4 H 0.4472 0.5910 0.4865
H5 H 0.2179 0.5157 0.4803
H6 H 0.2755 0.6415 0.5348
C11 C 0.3649(4) 0.75131(17) 0.37842(17)
H7 H 0.5135 0.7437 0.3895
H8 H 0.3483 0.8053 0.4325
H9 H 0.3290 0.7751 0.3183
S2 S 0.35793(9) 0.96734(5) 0.60273(4)
P2 P 0.09960(9) 0.94692(4) 0.65299(4)
F4 F 0.24320(19) 0.66532(9) 0.84870(8)
F5 F 0.1672(2) 0.73274(9) 0.68571(8)
F6 F 0.16166(18) 1.07972(9) 0.86239(8)
N2 N 0.2542(3) 1.02153(13) 1.03018(12)
C12 C 0.3008(3) 0.98844(17) 1.11098(15)
H10 H 0.3246 1.0401 1.1705
C13 C 0.3176(3) 0.88209(17) 1.11469(15)
H11 H 0.3498 0.8636 1.1753
C14 C 0.2877(3) 0.80586(17) 1.03158(15)
H12 H 0.2967 0.7333 1.0328
C15 C 0.2428(3) 0.83734(16) 0.94344(14)
C16 C 0.2207(3) 0.76812(16) 0.85286(15)
C17 C 0.1801(3) 0.80231(16) 0.76995(14)
C18 C 0.1508(3) 0.90797(15) 0.76850(14)
C19 C 0.1772(3) 0.97557(15) 0.85702(14)
C20 C 0.2238(3) 0.94531(16) 0.94561(14)
C21 C -0.0107(4) 1.06475(17) 0.66909(15)
H13 H -0.1395 1.0491 0.6944
H14 H -0.0483 1.0839 0.6068
H15 H 0.0953 1.1256 0.7149
C22 C -0.1243(3) 0.84346(17) 0.57735(15)
H16 H -0.2456 0.8393 0.6085
H17 H -0.0844 0.7732 0.5675
H18 H -0.1649 0.8615 0.5147
loop_
_geom_bond_atom_site_label_1
_geom_bond_atom_site_label_2
_geom_bond_site_symmetry_1
_geom_bond_site_symmetry_2
S1 P1 1_555 1_555
P1 C7 1_555 1_555
F1 C5 1_555 1_555
F2 C6 1_555 1_555
F3 C8 1_555 1_555
N1 C1 1_555 1_555
C1 H1 1_555 1_555
C2 C1 1_555 1_555
H2 C2 1_555 1_555
C3 C2 1_555 1_555
H3 C3 1_555 1_555
C4 C3 1_555 1_555
C5 C4 1_555 1_555
C6 C5 1_555 1_555
C7 C6 1_555 1_555
C8 C7 1_555 1_555
C9 N1 1_555 1_555
C10 P1 1_555 1_555
H4 C10 1_555 1_555
H5 C10 1_555 1_555
H6 C10 1_555 1_555
C11 P1 1_555 1_555
H7 C11 1_555 1_555
H8 C11 1_555 1_555
H9 C11 1_555 1_555
S2 P2 1_555 1_555
P2 C18 1_555 1_555
F4 C16 1_555 1_555
F5 C17 1_555 1_555
F6 C19 1_555 1_555
N2 C12 1_555 1_555
C12 H10 1_555 1_555
C13 C12 1_555 1_555
H11 C13 1_555 1_555
C14 C13 1_555 1_555
H12 C14 1_555 1_555
C15 C14 1_555 1_555
C16 C15 1_555 1_555
C17 C16 1_555 1_555
C18 C17 1_555 1_555
C19 C18 1_555 1_555
C20 N2 1_555 1_555
C21 P2 1_555 1_555
H13 C21 1_555 1_555
H14 C21 1_555 1_555
H15 C21 1_555 1_555
C22 P2 1_555 1_555
H16 C22 1_555 1_555
H17 C22 1_555 1_555
H18 C22 1_555 1_555
C4 C9 1_555 1_555
C8 C9 1_555 1_555
C15 C20 1_555 1_555
C19 C20 1_555 1_555

#END
