
#######################################################################
#
#                 Cambridge Crystallographic Data Centre
#                                CCDC 
#
#######################################################################
#
# If this CIF has been generated from an entry in the Cambridge 
# Structural Database, then it will include bibliographic, chemical, 
# crystal, experimental, refinement or atomic coordinate data resulting 
# from the CCDC's data processing and validation procedures.
#
#######################################################################

data_HURTOF
_chemical_formula_moiety         'C35 H30 Br1 F1 N4 O4'
_chemical_name_systematic        
't-butyl (1-benzyl-3-(3-(4-bromophenyl)-4-fluoro-5-oxo-1-phenyl-4,5-dihydro-1H-pyrazol-4-yl)-2-oxo-2,3-dihydro-1H-indol-3-yl)carbamate'
_symmetry_cell_setting           triclinic
_symmetry_space_group_name_H-M   'P 1'
_symmetry_Int_Tables_number      1
_space_group_name_Hall           'P 1'
loop_
_symmetry_equiv_pos_site_id
_symmetry_equiv_pos_as_xyz
1 x,y,z
_cell_length_a                   8.4125(4)
_cell_length_b                   9.7659(5)
_cell_length_c                   11.5692(6)
_cell_angle_alpha                108.577(3)
_cell_angle_beta                 95.876(3)
_cell_angle_gamma                110.228(3)
_cell_volume                     820.896
_exptl_crystal_colour            white
_exptl_crystal_description       block
_cell_formula_units_Z            1
loop_
_atom_site_label
_atom_site_type_symbol
_atom_site_fract_x
_atom_site_fract_y
_atom_site_fract_z
F1 F 0.2356(3) -0.2324(3) 0.2517(2)
Br1 Br 0.10382(6) 0.37543(5) 0.07384(5)
O1 O 0.5136(4) -0.3541(3) 0.2478(3)
O2 O 0.7925(4) 0.0386(4) 0.3123(3)
O3 O 0.7142(4) 0.1262(3) 0.6149(3)
O4 O 0.6720(4) -0.1199(3) 0.6088(2)
N1 N 0.5148(5) -0.2716(4) 0.0817(3)
N2 N 0.4578(4) -0.1722(4) 0.0423(3)
N3 N 0.6797(4) 0.2285(4) 0.3642(3)
N4 N 0.5338(4) -0.0966(4) 0.4513(3)
H1 H 0.4749 -0.1964 0.4283
C1 C 0.5862(6) -0.3688(5) 0.0035(4)
C2 C 0.4946(7) -0.4704(6) -0.1154(4)
H2 H 0.3863 -0.4756 -0.1486
C3 C 0.5695(11) -0.5679(7) -0.1867(5)
H3 H 0.5093 -0.6389 -0.2679
C4 C 0.3919(5) -0.1033(4) 0.1269(3)
C5 C 0.3216(5) 0.0098(4) 0.1120(3)
C6 C 0.1717(5) 0.0142(5) 0.1497(4)
H4 H 0.1136 -0.0575 0.1839
C7 C 0.1070(6) 0.1205(6) 0.1382(4)
H5 H 0.0058 0.1210 0.1635
C8 C 0.1930(6) 0.2261(5) 0.0889(4)
C9 C 0.3438(6) 0.2263(5) 0.0491(5)
H6 H 0.4001 0.2986 0.0148
C10 C 0.4085(6) 0.1190(5) 0.0608(4)
H7 H 0.5095 0.1186 0.0349
C11 C 0.4015(4) -0.1518(4) 0.2382(3)
C12 C 0.4840(5) -0.2725(4) 0.1948(4)
C13 C 0.5078(5) -0.0180(4) 0.3675(3)
C14 C 0.6812(5) 0.0839(4) 0.3453(3)
C15 C 0.8206(6) 0.3580(5) 0.3526(4)
H8 H 0.7699 0.4128 0.3138
H9 H 0.8843 0.3143 0.2967
C16 C 0.9484(5) 0.4767(5) 0.4752(4)
C17 C 0.9538(6) 0.4507(5) 0.5861(5)
H10 H 0.8724 0.3583 0.5871
C18 C 1.0762(6) 0.5579(6) 0.6944(5)
H11 H 1.0778 0.5360 0.7669
C19 C 1.1971(6) 0.6979(7) 0.6972(6)
H12 H 1.2798 0.7709 0.7707
C20 C 1.1915(6) 0.7257(6) 0.5885(6)
H13 H 1.2710 0.8198 0.5888
C21 C 1.0713(6) 0.6183(6) 0.4793(5)
H14 H 1.0718 0.6403 0.4067
C22 C 0.5328(5) 0.2416(5) 0.4069(3)
C23 C 0.4875(6) 0.3697(5) 0.4389(4)
H15 H 0.5574 0.4645 0.4344
C24 C 0.3327(7) 0.3510(7) 0.4781(5)
H16 H 0.2981 0.4348 0.4991
C25 C 0.2307(7) 0.2133(7) 0.4863(5)
H17 H 0.1289 0.2047 0.5138
C26 C 0.2779(6) 0.0862(5) 0.4541(4)
H18 H 0.2084 -0.0075 0.4603
C27 C 0.4268(5) 0.0992(4) 0.4133(3)
C28 C 0.6497(5) -0.0149(5) 0.5653(3)
C29 C 0.7921(6) -0.0683(6) 0.7321(4)
C30 C 0.7818(9) -0.2232(7) 0.7366(6)
H19 H 0.8283 -0.2728 0.6710
H20 H 0.6622 -0.2906 0.7253
H21 H 0.8482 -0.2053 0.8166
C31 C 0.9731(7) 0.0357(8) 0.7325(5)
H22 H 0.9736 0.1331 0.7298
H23 H 1.0074 -0.0170 0.6604
H24 H 1.0536 0.0572 0.8075
C32 C 0.7200(7) 0.0131(6) 0.8339(4)
H25 H 0.7283 0.1116 0.8293
H26 H 0.7858 0.0321 0.9145
H27 H 0.5999 -0.0527 0.8229
C33 C 0.7264(11) -0.5591(8) -0.1382(7)
H28 H 0.7747 -0.6234 -0.1859
C34 C 0.7453(8) -0.3608(8) 0.0518(6)
H29 H 0.8076 -0.2911 0.1330
C35 C 0.8125(11) -0.4586(11) -0.0223(8)
H30 H 0.9211 -0.4536 0.0101
loop_
_geom_bond_atom_site_label_1
_geom_bond_atom_site_label_2
_geom_bond_site_symmetry_1
_geom_bond_site_symmetry_2
F1 C11 1_555 1_555
Br1 C8 1_555 1_555
O1 C12 1_555 1_555
O2 C14 1_555 1_555
O3 C28 1_555 1_555
O4 C28 1_555 1_555
N1 N2 1_555 1_555
N2 C4 1_555 1_555
N3 C14 1_555 1_555
N4 H1 1_555 1_555
C1 N1 1_555 1_555
C2 C1 1_555 1_555
H2 C2 1_555 1_555
C3 C2 1_555 1_555
H3 C3 1_555 1_555
C4 C5 1_555 1_555
C5 C6 1_555 1_555
C6 H4 1_555 1_555
C7 C6 1_555 1_555
H5 C7 1_555 1_555
C8 C7 1_555 1_555
C9 C8 1_555 1_555
H6 C9 1_555 1_555
C10 C5 1_555 1_555
H7 C10 1_555 1_555
C11 C4 1_555 1_555
C12 N1 1_555 1_555
C13 N4 1_555 1_555
C14 C13 1_555 1_555
C15 N3 1_555 1_555
H8 C15 1_555 1_555
H9 C15 1_555 1_555
C16 C15 1_555 1_555
C17 C16 1_555 1_555
H10 C17 1_555 1_555
C18 C17 1_555 1_555
H11 C18 1_555 1_555
C19 C18 1_555 1_555
H12 C19 1_555 1_555
C20 C19 1_555 1_555
H13 C20 1_555 1_555
C21 C16 1_555 1_555
H14 C21 1_555 1_555
C22 N3 1_555 1_555
C23 C22 1_555 1_555
H15 C23 1_555 1_555
C24 C23 1_555 1_555
H16 C24 1_555 1_555
C25 C24 1_555 1_555
H17 C25 1_555 1_555
C26 C25 1_555 1_555
H18 C26 1_555 1_555
C27 C13 1_555 1_555
C28 N4 1_555 1_555
C29 O4 1_555 1_555
C30 C29 1_555 1_555
H19 C30 1_555 1_555
H20 C30 1_555 1_555
H21 C30 1_555 1_555
C31 C29 1_555 1_555
H22 C31 1_555 1_555
H23 C31 1_555 1_555
H24 C31 1_555 1_555
C32 C29 1_555 1_555
H25 C32 1_555 1_555
H26 C32 1_555 1_555
H27 C32 1_555 1_555
C33 C3 1_555 1_555
H28 C33 1_555 1_555
C34 C1 1_555 1_555
H29 C34 1_555 1_555
C35 C33 1_555 1_555
H30 C35 1_555 1_555
C9 C10 1_555 1_555
C11 C12 1_555 1_555
C11 C13 1_555 1_555
C20 C21 1_555 1_555
C22 C27 1_555 1_555
C26 C27 1_555 1_555
C34 C35 1_555 1_555

#END
