
#######################################################################
#
#                 Cambridge Crystallographic Data Centre
#                                CCDC 
#
#######################################################################
#
# If this CIF has been generated from an entry in the Cambridge 
# Structural Database, then it will include bibliographic, chemical, 
# crystal, experimental, refinement or atomic coordinate data resulting 
# from the CCDC's data processing and validation procedures.
#
#######################################################################

data_HURWUM
_chemical_formula_moiety         'C24 H22 N2 O3'
_chemical_name_systematic        
"3-(3,3-Dimethylspiro(2,3-dihydro-1H-indole-2,3'-(3'H-naphtho(2,1-b)(1,4)oxazin))-1-yl)propionic acid"
_symmetry_cell_setting           monoclinic
_symmetry_space_group_name_H-M   'P 21/n'
_symmetry_Int_Tables_number      14
_space_group_name_Hall           '-P 2yn'
loop_
_symmetry_equiv_pos_site_id
_symmetry_equiv_pos_as_xyz
1 x,y,z
2 1/2+x,1/2-y,1/2+z
3 -x,-y,-z
4 1/2-x,1/2+y,1/2-z
_cell_length_a                   13.373(5)
_cell_length_b                   11.527(4)
_cell_length_c                   13.485(5)
_cell_angle_alpha                90
_cell_angle_beta                 111.538(6)
_cell_angle_gamma                90
_cell_volume                     1933.57
_exptl_crystal_colour            'pale yellow'
_exptl_crystal_description       plate
_cell_formula_units_Z            4
_exptl_crystal_recrystallization_method chloroform-ethanol
loop_
_atom_site_label
_atom_site_type_symbol
_atom_site_fract_x
_atom_site_fract_y
_atom_site_fract_z
O1 O 0.80725(12) 0.00877(12) 0.12839(11)
N1 N 0.84053(15) 0.17499(14) 0.23458(13)
C1 C 0.72245(19) 0.18821(19) 0.04688(18)
H1 H 0.7149 0.2674 0.0551
O2 O 1.05049(14) -0.03606(15) 0.14008(14)
H2 H 1.0431 -0.0626 0.0790
O3 O 0.97452(14) 0.12205(14) 0.04836(14)
C2 C 0.71755(18) 0.03272(19) -0.05998(18)
C3 C 0.68406(18) -0.0158(2) -0.16406(18)
C4 C 0.63130(19) 0.0496(2) -0.25736(19)
H3 H 0.6185 0.1281 -0.2517
C5 C 0.5990(2) -0.0006(3) -0.3552(2)
H4 H 0.5644 0.0439 -0.4157
C6 C 0.6174(2) -0.1187(3) -0.3659(2)
H5 H 0.5938 -0.1526 -0.4331
C7 C 0.6694(2) -0.1837(2) -0.2785(2)
H6 H 0.6818 -0.2619 -0.2863
C8 C 0.70496(19) -0.1343(2) -0.17560(19)
C9 C 0.7620(2) -0.1993(2) -0.0833(2)
H7 H 0.7769 -0.2770 -0.0904
C10 C 0.7958(2) -0.1513(2) 0.0158(2)
H8 H 0.8347 -0.1951 0.0755
C11 C 0.77120(18) -0.03513(19) 0.02675(18)
N2 N 0.69979(15) 0.15171(16) -0.04820(14)
C12 C 0.76019(17) 0.11648(18) 0.14733(16)
C13 C 0.67162(18) 0.08711(19) 0.19386(18)
C14 C 0.73999(19) 0.07577(18) 0.31076(17)
C15 C 0.7180(2) 0.0261(2) 0.39361(19)
H9 H 0.6525 -0.0104 0.3812
C16 C 0.7956(2) 0.0315(2) 0.4962(2)
H10 H 0.7826 -0.0031 0.5527
C17 C 0.8908(2) 0.0875(2) 0.5141(2)
H11 H 0.9412 0.0921 0.5833
C18 C 0.91385(19) 0.1378(2) 0.43153(18)
H12 H 0.9790 0.1752 0.4443
C19 C 0.83749(18) 0.13055(18) 0.33018(17)
C20 C 0.94125(18) 0.21569(19) 0.22868(18)
H13 H 0.9729 0.2715 0.2855
H14 H 0.9252 0.2563 0.1616
C21 C 1.02480(19) 0.1224(2) 0.23696(18)
H15 H 1.0959 0.1563 0.2685
H16 H 1.0190 0.0618 0.2845
C22 C 1.01360(19) 0.0692(2) 0.1328(2)
C23 C 0.5937(2) 0.1893(2) 0.1783(2)
H17 H 0.5402 0.1696 0.2073
H18 H 0.5594 0.2057 0.1037
H19 H 0.6328 0.2564 0.2144
C24 C 0.6085(2) -0.0223(2) 0.1449(2)
H20 H 0.5550 -0.0362 0.1754
H21 H 0.6566 -0.0873 0.1594
H22 H 0.5741 -0.0123 0.0693
loop_
_geom_bond_atom_site_label_1
_geom_bond_atom_site_label_2
_geom_bond_site_symmetry_1
_geom_bond_site_symmetry_2
O1 C11 1_555 1_555
N1 C12 1_555 1_555
C1 H1 1_555 1_555
O2 H2 1_555 1_555
O3 C22 1_555 1_555
C2 C3 1_555 1_555
C3 C4 1_555 1_555
C4 H3 1_555 1_555
C5 C4 1_555 1_555
H4 C5 1_555 1_555
C6 C5 1_555 1_555
H5 C6 1_555 1_555
C7 C6 1_555 1_555
H6 C7 1_555 1_555
C8 C3 1_555 1_555
C9 C8 1_555 1_555
H7 C9 1_555 1_555
C10 C9 1_555 1_555
H8 C10 1_555 1_555
C11 C2 1_555 1_555
N2 C1 1_555 1_555
C12 O1 1_555 1_555
C13 C12 1_555 1_555
C14 C13 1_555 1_555
C15 C14 1_555 1_555
H9 C15 1_555 1_555
C16 C15 1_555 1_555
H10 C16 1_555 1_555
C17 C16 1_555 1_555
H11 C17 1_555 1_555
C18 C17 1_555 1_555
H12 C18 1_555 1_555
C19 N1 1_555 1_555
C20 N1 1_555 1_555
H13 C20 1_555 1_555
H14 C20 1_555 1_555
C21 C20 1_555 1_555
H15 C21 1_555 1_555
H16 C21 1_555 1_555
C22 O2 1_555 1_555
C23 C13 1_555 1_555
H17 C23 1_555 1_555
H18 C23 1_555 1_555
H19 C23 1_555 1_555
C24 C13 1_555 1_555
H20 C24 1_555 1_555
H21 C24 1_555 1_555
H22 C24 1_555 1_555
C1 C12 1_555 1_555
C2 N2 1_555 1_555
C7 C8 1_555 1_555
C10 C11 1_555 1_555
C14 C19 1_555 1_555
C18 C19 1_555 1_555
C21 C22 1_555 1_555

#END
