
#######################################################################
#
#                 Cambridge Crystallographic Data Centre
#                                CCDC 
#
#######################################################################
#
# If this CIF has been generated from an entry in the Cambridge 
# Structural Database, then it will include bibliographic, chemical, 
# crystal, experimental, refinement or atomic coordinate data resulting 
# from the CCDC's data processing and validation procedures.
#
#######################################################################

data_HURXAV
_chemical_formula_moiety         'C15 H19 Br1 O2'
_chemical_name_systematic        
4-(4-bromophenyl)-5-cyclopropyl-2,2-dimethyl-1,3-dioxane
_symmetry_cell_setting           orthorhombic
_symmetry_space_group_name_H-M   'P 21 21 21'
_symmetry_Int_Tables_number      19
_space_group_name_Hall           'P 2ac 2ab'
loop_
_symmetry_equiv_pos_site_id
_symmetry_equiv_pos_as_xyz
1 x,y,z
2 1/2-x,-y,1/2+z
3 1/2+x,1/2-y,-z
4 -x,1/2+y,1/2-z
_cell_length_a                   7.6418(10)
_cell_length_b                   12.183(2)
_cell_length_c                   15.688(2)
_cell_angle_alpha                90
_cell_angle_beta                 90
_cell_angle_gamma                90
_cell_volume                     1460.55
_exptl_crystal_colour            colorless
_exptl_crystal_description       prisms
_cell_formula_units_Z            4
loop_
_atom_site_label
_atom_site_type_symbol
_atom_site_fract_x
_atom_site_fract_y
_atom_site_fract_z
C1 C 0.5865(4) 0.0906(2) 0.89628(19)
C2 C 0.4925(4) 0.1588(3) 0.84247(19)
H1 H 0.4126 0.1289 0.8023
C3 C 0.5169(4) 0.2715(3) 0.84808(19)
H2 H 0.4550 0.3188 0.8106
C4 C 0.6311(4) 0.3161(2) 0.90812(18)
C5 C 0.7249(4) 0.2453(3) 0.9613(2)
H3 H 0.8035 0.2750 1.0022
C6 C 0.7049(4) 0.1317(3) 0.9553(2)
H4 H 0.7706 0.0837 0.9908
C7 C 0.6623(4) 0.4383(3) 0.91408(17)
H5 H 0.7125 0.4558 0.9714
C8 C 0.7847(4) 0.4835(3) 0.8449(2)
H6 H 0.7315 0.4688 0.7878
C9 C 0.7953(4) 0.6076(3) 0.8583(2)
H7 H 0.8513 0.6231 0.9139
H8 H 0.8689 0.6405 0.8130
C10 C 0.9651(4) 0.4330(3) 0.8473(2)
H9 H 1.0301 0.4425 0.9021
C11 C 1.0024(5) 0.3279(3) 0.7999(3)
H10 H 1.0842 0.2750 0.8264
H11 H 0.9055 0.2943 0.7672
C12 C 1.0766(5) 0.4345(3) 0.7677(2)
H12 H 1.0251 0.4662 0.7154
H13 H 1.2039 0.4469 0.7746
C13 C 0.5012(4) 0.6094(3) 0.9145(2)
C14 C 0.5412(5) 0.6429(3) 1.0066(2)
H14 H 0.6570 0.6153 1.0228
H15 H 0.4526 0.6117 1.0447
H16 H 0.5397 0.7231 1.0112
C15 C 0.3235(4) 0.6506(3) 0.8852(3)
H17 H 0.3212 0.7309 0.8879
H18 H 0.2322 0.6207 0.9225
H19 H 0.3024 0.6266 0.8265
O1 O 0.4956(3) 0.49239(18) 0.90565(14)
O2 O 0.6243(3) 0.65672(18) 0.85629(14)
Br1 Br 0.55387(4) -0.06490(2) 0.88849(2)
loop_
_geom_bond_atom_site_label_1
_geom_bond_atom_site_label_2
_geom_bond_site_symmetry_1
_geom_bond_site_symmetry_2
C1 C2 1_555 1_555
C2 H1 1_555 1_555
C3 C2 1_555 1_555
H2 C3 1_555 1_555
C4 C3 1_555 1_555
C5 C4 1_555 1_555
H3 C5 1_555 1_555
C6 C1 1_555 1_555
H4 C6 1_555 1_555
C7 C4 1_555 1_555
H5 C7 1_555 1_555
C8 C7 1_555 1_555
H6 C8 1_555 1_555
C9 C8 1_555 1_555
H7 C9 1_555 1_555
H8 C9 1_555 1_555
C10 C8 1_555 1_555
H9 C10 1_555 1_555
C11 C10 1_555 1_555
H10 C11 1_555 1_555
H11 C11 1_555 1_555
C12 C10 1_555 1_555
H12 C12 1_555 1_555
H13 C12 1_555 1_555
C13 C14 1_555 1_555
C14 H14 1_555 1_555
H15 C14 1_555 1_555
H16 C14 1_555 1_555
C15 C13 1_555 1_555
H17 C15 1_555 1_555
H18 C15 1_555 1_555
H19 C15 1_555 1_555
O1 C7 1_555 1_555
O2 C9 1_555 1_555
Br1 C1 1_555 1_555
C5 C6 1_555 1_555
C11 C12 1_555 1_555
C13 O1 1_555 1_555
C13 O2 1_555 1_555

#END
