
#######################################################################
#
#                 Cambridge Crystallographic Data Centre
#                                CCDC 
#
#######################################################################
#
# If this CIF has been generated from an entry in the Cambridge 
# Structural Database, then it will include bibliographic, chemical, 
# crystal, experimental, refinement or atomic coordinate data resulting 
# from the CCDC's data processing and validation procedures.
#
#######################################################################

data_HUSBAY
_chemical_formula_moiety         'C22 H18 Br2 N2 O2 S1'
_chemical_name_systematic        
2-Bromo-N-(3-bromo-1-(phenylsulfonyl)indol-2-ylmethyl)-4-methylaniline
_symmetry_cell_setting           triclinic
_symmetry_space_group_name_H-M   'P -1'
_symmetry_Int_Tables_number      2
_space_group_name_Hall           '-P 1'
loop_
_symmetry_equiv_pos_site_id
_symmetry_equiv_pos_as_xyz
1 x,y,z
2 -x,-y,-z
_cell_length_a                   12.436(3)
_cell_length_b                   12.715(3)
_cell_length_c                   16.073(3)
_cell_angle_alpha                70.13(3)
_cell_angle_beta                 69.23(3)
_cell_angle_gamma                66.22(3)
_cell_volume                     2116.24
_exptl_crystal_colour            colorless
_exptl_crystal_description       prism
_cell_formula_units_Z            4
_exptl_crystal_recrystallization_method 'ethyl acetate-hexane'
loop_
_atom_site_label
_atom_site_type_symbol
_atom_site_fract_x
_atom_site_fract_y
_atom_site_fract_z
Br1 Br 0.50694(8) 0.02260(7) 0.32919(6)
Br2 Br -0.01052(8) 0.31929(9) 0.37830(6)
S1 S 0.3273(2) 0.36634(19) 0.52996(14)
O1 O 0.2403(5) 0.3152(5) 0.5962(3)
O2 O 0.3971(5) 0.4071(5) 0.5583(4)
N1 N 0.4279(5) 0.2627(5) 0.4743(4)
N2 N 0.1945(5) 0.1853(5) 0.4776(4)
H1 H 0.1916 0.2489 0.4304
C1 C 0.5354(7) 0.2803(6) 0.4075(5)
C2 C 0.5984(8) 0.3552(7) 0.3956(6)
H2 H 0.5712 0.4072 0.4357
C3 C 0.7001(8) 0.3521(8) 0.3244(7)
H3 H 0.7453 0.4029 0.3151
C4 C 0.7408(8) 0.2778(9) 0.2664(7)
H4 H 0.8122 0.2788 0.2170
C5 C 0.6795(7) 0.2038(7) 0.2784(5)
H5 H 0.7084 0.1510 0.2387
C6 C 0.5735(7) 0.2060(6) 0.3497(5)
C7 C 0.4898(6) 0.1421(6) 0.3804(5)
C8 C 0.4022(6) 0.1766(7) 0.4536(5)
C9 C 0.3039(6) 0.1246(7) 0.5100(5)
H6 H 0.2854 0.1289 0.5723
H7 H 0.3320 0.0429 0.5086
C10 C 0.0944(7) 0.1457(7) 0.5185(5)
C11 C 0.0924(8) 0.0534(8) 0.5954(5)
H8 H 0.1621 0.0143 0.6203
C12 C -0.0081(10) 0.0168(9) 0.6369(6)
H9 H -0.0077 -0.0458 0.6911
C13 C -0.1096(9) 0.0676(9) 0.6034(7)
C14 C -0.1072(7) 0.1564(8) 0.5260(6)
H10 H -0.1757 0.1922 0.4997
C15 C -0.0075(7) 0.1963(7) 0.4847(5)
C16 C -0.2230(10) 0.0303(12) 0.6493(9)
H11 H -0.2101 -0.0328 0.7022
H12 H -0.2397 0.0039 0.6073
H13 H -0.2906 0.0964 0.6675
C17 C 0.2608(7) 0.4782(7) 0.4482(5)
C18 C 0.3095(9) 0.5685(8) 0.3950(6)
H14 H 0.3805 0.5709 0.4043
C19 C 0.2553(11) 0.6523(9) 0.3300(7)
H15 H 0.2904 0.7132 0.2924
C20 C 0.1533(10) 0.6532(9) 0.3169(6)
H16 H 0.1168 0.7143 0.2708
C21 C 0.1022(9) 0.5661(8) 0.3692(6)
H17 H 0.0299 0.5661 0.3603
C22 C 0.1567(8) 0.4784(7) 0.4350(5)
H18 H 0.1222 0.4170 0.4719
Br3 Br 0.27014(8) 0.30022(8) 0.21782(6)
Br4 Br 0.46958(8) 0.20930(9) -0.23130(6)
S2 S 0.71865(18) 0.16883(19) -0.03088(14)
O3 O 0.6861(5) 0.0913(5) -0.0570(4)
O4 O 0.7783(5) 0.2465(5) -0.0989(3)
N3 N 0.5901(5) 0.2539(5) 0.0251(4)
N4 N 0.4314(6) 0.1543(6) -0.0252(5)
H19 H 0.4945 0.1204 -0.0674
C23 C 0.5907(7) 0.3439(6) 0.0560(5)
C24 C 0.6717(8) 0.4060(7) 0.0276(6)
H20 H 0.7433 0.3902 -0.0216
C25 C 0.6444(10) 0.4948(8) 0.0730(7)
H21 H 0.7004 0.5378 0.0548
C26 C 0.5421(9) 0.5216(8) 0.1419(7)
H22 H 0.5272 0.5814 0.1721
C27 C 0.4620(9) 0.4618(8) 0.1673(6)
H23 H 0.3877 0.4823 0.2134
C28 C 0.4861(7) 0.3706(6) 0.1256(5)
C29 C 0.4228(6) 0.2928(6) 0.1364(5)
C30 C 0.4824(7) 0.2226(6) 0.0796(5)
C31 C 0.4499(7) 0.1307(7) 0.0642(5)
H24 H 0.3769 0.1225 0.1096
H25 H 0.5130 0.0563 0.0737
C32 C 0.3250(7) 0.2247(6) -0.0508(5)
C33 C 0.2143(7) 0.2615(7) 0.0104(6)
H26 H 0.2099 0.2374 0.0747
C34 C 0.1101(8) 0.3311(7) -0.0190(7)
H27 H 0.0351 0.3557 0.0254
C35 C 0.1104(8) 0.3661(7) -0.1108(6)
C36 C 0.2205(8) 0.3286(7) -0.1710(6)
H28 H 0.2254 0.3503 -0.2353
C37 C 0.3228(7) 0.2607(7) -0.1416(5)
C38 C -0.0031(9) 0.4418(11) -0.1427(8)
H29 H 0.0147 0.4575 -0.2080
H30 H -0.0344 0.5151 -0.1241
H31 H -0.0625 0.4016 -0.1154
C39 C 0.8056(7) 0.0869(7) 0.0491(5)
C40 C 0.8956(7) 0.1223(8) 0.0503(6)
H32 H 0.9101 0.1928 0.0087
C41 C 0.9647(8) 0.0547(9) 0.1126(7)
H33 H 1.0288 0.0780 0.1131
C42 C 0.9440(9) -0.0428(10) 0.1728(7)
H34 H 0.9935 -0.0880 0.2153
C43 C 0.8536(10) -0.0789(8) 0.1737(6)
H35 H 0.8381 -0.1479 0.2174
C44 C 0.7840(8) -0.0134(8) 0.1099(6)
H36 H 0.7215 -0.0382 0.1085
loop_
_geom_bond_atom_site_label_1
_geom_bond_atom_site_label_2
_geom_bond_site_symmetry_1
_geom_bond_site_symmetry_2
Br1 C7 1_555 1_555
Br2 C15 1_555 1_555
S1 O1 1_555 1_555
O2 S1 1_555 1_555
N1 S1 1_555 1_555
N2 H1 1_555 1_555
C1 N1 1_555 1_555
C2 C1 1_555 1_555
H2 C2 1_555 1_555
C3 C2 1_555 1_555
H3 C3 1_555 1_555
C4 C3 1_555 1_555
H4 C4 1_555 1_555
C5 C4 1_555 1_555
H5 C5 1_555 1_555
C6 C1 1_555 1_555
C7 C6 1_555 1_555
C8 N1 1_555 1_555
C9 N2 1_555 1_555
H6 C9 1_555 1_555
H7 C9 1_555 1_555
C10 N2 1_555 1_555
C11 C10 1_555 1_555
H8 C11 1_555 1_555
C12 C11 1_555 1_555
H9 C12 1_555 1_555
C13 C12 1_555 1_555
C14 C13 1_555 1_555
H10 C14 1_555 1_555
C15 C10 1_555 1_555
C16 C13 1_555 1_555
H11 C16 1_555 1_555
H12 C16 1_555 1_555
H13 C16 1_555 1_555
C17 S1 1_555 1_555
C18 C17 1_555 1_555
H14 C18 1_555 1_555
C19 C18 1_555 1_555
H15 C19 1_555 1_555
C20 C19 1_555 1_555
H16 C20 1_555 1_555
C21 C20 1_555 1_555
H17 C21 1_555 1_555
C22 C17 1_555 1_555
H18 C22 1_555 1_555
Br3 C29 1_555 1_555
Br4 C37 1_555 1_555
S2 O3 1_555 1_555
O4 S2 1_555 1_555
N3 S2 1_555 1_555
N4 H19 1_555 1_555
C23 N3 1_555 1_555
C24 C23 1_555 1_555
H20 C24 1_555 1_555
C25 C24 1_555 1_555
H21 C25 1_555 1_555
C26 C25 1_555 1_555
H22 C26 1_555 1_555
C27 C26 1_555 1_555
H23 C27 1_555 1_555
C28 C23 1_555 1_555
C29 C28 1_555 1_555
C30 N3 1_555 1_555
C31 N4 1_555 1_555
H24 C31 1_555 1_555
H25 C31 1_555 1_555
C32 N4 1_555 1_555
C33 C32 1_555 1_555
H26 C33 1_555 1_555
C34 C33 1_555 1_555
H27 C34 1_555 1_555
C35 C34 1_555 1_555
C36 C35 1_555 1_555
H28 C36 1_555 1_555
C37 C32 1_555 1_555
C38 C35 1_555 1_555
H29 C38 1_555 1_555
H30 C38 1_555 1_555
H31 C38 1_555 1_555
C39 S2 1_555 1_555
C40 C39 1_555 1_555
H32 C40 1_555 1_555
C41 C40 1_555 1_555
H33 C41 1_555 1_555
C42 C41 1_555 1_555
H34 C42 1_555 1_555
C43 C42 1_555 1_555
H35 C43 1_555 1_555
C44 C39 1_555 1_555
H36 C44 1_555 1_555
C5 C6 1_555 1_555
C7 C8 1_555 1_555
C8 C9 1_555 1_555
C14 C15 1_555 1_555
C21 C22 1_555 1_555
C27 C28 1_555 1_555
C29 C30 1_555 1_555
C30 C31 1_555 1_555
C36 C37 1_555 1_555
C43 C44 1_555 1_555

#END
