
#######################################################################
#
#                 Cambridge Crystallographic Data Centre
#                                CCDC 
#
#######################################################################
#
# If this CIF has been generated from an entry in the Cambridge 
# Structural Database, then it will include bibliographic, chemical, 
# crystal, experimental, refinement or atomic coordinate data resulting 
# from the CCDC's data processing and validation procedures.
#
#######################################################################

data_HUSCEF
_chemical_formula_moiety         'C44 H44 B1 N1'
_chemical_name_systematic        
N,N-dibenzyl-2'-(dimesitylboryl)biphenyl-2-amine
_symmetry_cell_setting           triclinic
_symmetry_space_group_name_H-M   'P -1'
_symmetry_Int_Tables_number      2
_space_group_name_Hall           '-P 1'
loop_
_symmetry_equiv_pos_site_id
_symmetry_equiv_pos_as_xyz
1 x,y,z
2 -x,-y,-z
_cell_length_a                   8.512(2)
_cell_length_b                   12.728(4)
_cell_length_c                   17.319(5)
_cell_angle_alpha                70.654(6)
_cell_angle_beta                 81.590(6)
_cell_angle_gamma                89.144(6)
_cell_volume                     1750.24
_exptl_crystal_description       block
_cell_formula_units_Z            2
loop_
_atom_site_label
_atom_site_type_symbol
_atom_site_fract_x
_atom_site_fract_y
_atom_site_fract_z
N1 N 0.4824(3) 1.2055(2) 0.08113(18)
C1 C 0.2863(4) 0.7417(3) 0.3963(2)
C2 C 0.2321(5) 0.6561(3) 0.3723(2)
C3 C 0.2132(5) 0.5474(3) 0.4266(3)
H1 H 0.1738 0.4926 0.4094
C4 C 0.2511(5) 0.5185(3) 0.5053(3)
C5 C 0.3042(5) 0.6017(4) 0.5298(3)
H2 H 0.3297 0.5839 0.5829
C6 C 0.3211(4) 0.7118(3) 0.4779(3)
C7 C 0.3803(6) 0.7948(4) 0.5123(3)
H3 H 0.3790 0.7607 0.5709
H4 H 0.3130 0.8576 0.5021
H5 H 0.4870 0.8192 0.4861
C8 C 0.1831(5) 0.6769(3) 0.2877(3)
H6 H 0.1493 0.6077 0.2835
H7 H 0.2719 0.7088 0.2455
H8 H 0.0973 0.7274 0.2808
C9 C 0.2349(6) 0.3982(4) 0.5625(3)
H9 H 0.1329 0.3672 0.5623
H10 H 0.2446 0.3953 0.6177
H11 H 0.3171 0.3559 0.5437
C10 C 0.2554(4) 0.9699(3) 0.3553(2)
C11 C 0.0904(5) 0.9839(3) 0.3700(2)
C12 C 0.0364(5) 1.0846(4) 0.3771(3)
H12 H -0.0726 1.0945 0.3848
C13 C 0.1373(7) 1.1696(4) 0.3730(3)
C14 C 0.2976(6) 1.1515(4) 0.3645(2)
H13 H 0.3676 1.2069 0.3645
C15 C 0.3585(5) 1.0542(3) 0.3559(2)
C16 C 0.5352(4) 1.0395(3) 0.3545(2)
H14 H 0.5907 1.1096 0.3247
H15 H 0.5687 0.9861 0.3278
H16 H 0.5584 1.0134 0.4102
C17 C 0.0727(7) 1.2805(4) 0.3773(4)
H17 H 0.0718 1.3314 0.3222
H18 H 0.1392 1.3112 0.4053
H19 H -0.0336 1.2686 0.4070
C18 C -0.0314(5) 0.8960(3) 0.3770(3)
H20 H -0.1188 0.8959 0.4188
H21 H 0.0157 0.8243 0.3917
H22 H -0.0690 0.9113 0.3249
C19 C 0.4370(4) 0.8790(3) 0.2517(2)
C20 C 0.5619(5) 0.8052(3) 0.2592(3)
H23 H 0.5638 0.7498 0.3100
C21 C 0.6817(5) 0.8103(4) 0.1955(3)
H24 H 0.7639 0.7607 0.2039
C22 C 0.6787(5) 0.8894(3) 0.1194(3)
H25 H 0.7578 0.8928 0.0754
C23 C 0.5584(4) 0.9634(3) 0.1087(2)
H26 H 0.5571 1.0163 0.0567
C24 C 0.4379(4) 0.9620(3) 0.1731(2)
C25 C 0.3058(4) 1.0401(3) 0.1513(2)
C26 C 0.1512(4) 0.9964(3) 0.1711(2)
H27 H 0.1338 0.9215 0.2027
C27 C 0.0223(4) 1.0582(4) 0.1465(3)
H28 H -0.0798 1.0260 0.1622
C28 C 0.0470(4) 1.1672(4) 0.0990(2)
H29 H -0.0382 1.2096 0.0801
C29 C 0.1983(4) 1.2150(3) 0.0787(2)
H30 H 0.2130 1.2899 0.0468
C30 C 0.3292(4) 1.1546(3) 0.1044(2)
C31 C 0.5758(4) 1.1999(3) 0.1462(2)
H31 H 0.6855 1.1890 0.1266
H32 H 0.5393 1.1345 0.1934
C32 C 0.5720(5) 1.2994(3) 0.1756(2)
C33 C 0.4364(6) 1.3595(4) 0.1807(3)
H33 H 0.3446 1.3396 0.1649
C34 C 0.4367(8) 1.4493(4) 0.2093(3)
H34 H 0.3452 1.4897 0.2117
C35 C 0.5686(9) 1.4788(5) 0.2337(3)
H35 H 0.5676 1.5389 0.2530
C36 C 0.7029(7) 1.4197(5) 0.2296(3)
H36 H 0.7933 1.4387 0.2472
C37 C 0.7049(5) 1.3319(4) 0.1995(3)
H37 H 0.7982 1.2939 0.1953
C38 C 0.5117(4) 1.3035(3) 0.0068(2)
H38 H 0.4759 1.3689 0.0203
H39 H 0.4508 1.2954 -0.0342
C39 C 0.6859(4) 1.3200(3) -0.0293(2)
C40 C 0.7725(5) 1.4129(3) -0.0349(2)
H40 H 0.7243 1.4658 -0.0138
C41 C 0.9309(5) 1.4295(4) -0.0715(3)
H41 H 0.9878 1.4935 -0.0757
C42 C 1.0024(5) 1.3504(4) -0.1013(2)
H42 H 1.1084 1.3607 -0.1256
C43 C 0.9186(5) 1.2568(4) -0.0955(2)
H43 H 0.9681 1.2031 -0.1153
C44 C 0.7609(5) 1.2416(3) -0.0605(2)
H44 H 0.7041 1.1782 -0.0578
B1 B 0.3197(5) 0.8640(4) 0.3345(3)
loop_
_geom_bond_atom_site_label_1
_geom_bond_atom_site_label_2
_geom_bond_site_symmetry_1
_geom_bond_site_symmetry_2
N1 C30 1_555 1_555
C1 C2 1_555 1_555
C2 C3 1_555 1_555
C3 H1 1_555 1_555
C4 C3 1_555 1_555
C5 C4 1_555 1_555
H2 C5 1_555 1_555
C6 C1 1_555 1_555
C7 C6 1_555 1_555
H3 C7 1_555 1_555
H4 C7 1_555 1_555
H5 C7 1_555 1_555
C8 C2 1_555 1_555
H6 C8 1_555 1_555
H7 C8 1_555 1_555
H8 C8 1_555 1_555
C9 C4 1_555 1_555
H9 C9 1_555 1_555
H10 C9 1_555 1_555
H11 C9 1_555 1_555
C10 C11 1_555 1_555
C11 C12 1_555 1_555
C12 H12 1_555 1_555
C13 C12 1_555 1_555
C14 C13 1_555 1_555
H13 C14 1_555 1_555
C15 C10 1_555 1_555
C16 C15 1_555 1_555
H14 C16 1_555 1_555
H15 C16 1_555 1_555
H16 C16 1_555 1_555
C17 C13 1_555 1_555
H17 C17 1_555 1_555
H18 C17 1_555 1_555
H19 C17 1_555 1_555
C18 C11 1_555 1_555
H20 C18 1_555 1_555
H21 C18 1_555 1_555
H22 C18 1_555 1_555
C19 C20 1_555 1_555
C20 H23 1_555 1_555
C21 C20 1_555 1_555
H24 C21 1_555 1_555
C22 C21 1_555 1_555
H25 C22 1_555 1_555
C23 C22 1_555 1_555
H26 C23 1_555 1_555
C24 C19 1_555 1_555
C25 C24 1_555 1_555
C26 C25 1_555 1_555
H27 C26 1_555 1_555
C27 C26 1_555 1_555
H28 C27 1_555 1_555
C28 C27 1_555 1_555
H29 C28 1_555 1_555
C29 C28 1_555 1_555
H30 C29 1_555 1_555
C30 C25 1_555 1_555
C31 N1 1_555 1_555
H31 C31 1_555 1_555
H32 C31 1_555 1_555
C32 C31 1_555 1_555
C33 C32 1_555 1_555
H33 C33 1_555 1_555
C34 C33 1_555 1_555
H34 C34 1_555 1_555
C35 C34 1_555 1_555
H35 C35 1_555 1_555
C36 C35 1_555 1_555
H36 C36 1_555 1_555
C37 C32 1_555 1_555
H37 C37 1_555 1_555
C38 N1 1_555 1_555
H38 C38 1_555 1_555
H39 C38 1_555 1_555
C39 C38 1_555 1_555
C40 C39 1_555 1_555
H40 C40 1_555 1_555
C41 C40 1_555 1_555
H41 C41 1_555 1_555
C42 C41 1_555 1_555
H42 C42 1_555 1_555
C43 C42 1_555 1_555
H43 C43 1_555 1_555
C44 C39 1_555 1_555
H44 C44 1_555 1_555
B1 C1 1_555 1_555
C5 C6 1_555 1_555
C10 B1 1_555 1_555
C14 C15 1_555 1_555
C19 B1 1_555 1_555
C23 C24 1_555 1_555
C29 C30 1_555 1_555
C36 C37 1_555 1_555
C43 C44 1_555 1_555

#END
