
#######################################################################
#
#                 Cambridge Crystallographic Data Centre
#                                CCDC 
#
#######################################################################
#
# If this CIF has been generated from an entry in the Cambridge 
# Structural Database, then it will include bibliographic, chemical, 
# crystal, experimental, refinement or atomic coordinate data resulting 
# from the CCDC's data processing and validation procedures.
#
#######################################################################

data_HUSDIJ
_chemical_formula_moiety         'C17 H21 F1 N4 O1'
_chemical_name_systematic        
N-Ethyl-5-fluoro-6-phenoxy-2-(piperidin-1-yl)pyrimidin-4-amine
_symmetry_cell_setting           monoclinic
_symmetry_space_group_name_H-M   'P 21/n'
_symmetry_Int_Tables_number      14
_space_group_name_Hall           '-P 2yn'
loop_
_symmetry_equiv_pos_site_id
_symmetry_equiv_pos_as_xyz
1 x,y,z
2 1/2-x,1/2+y,1/2-z
3 -x,-y,-z
4 1/2+x,1/2-y,1/2+z
_cell_length_a                   15.164(3)
_cell_length_b                   6.5763(13)
_cell_length_c                   16.377(3)
_cell_angle_alpha                90
_cell_angle_beta                 93.29(3)
_cell_angle_gamma                90
_cell_volume                     1630.47
_exptl_crystal_colour            colorless
_exptl_crystal_description       block
_chemical_melting_point          78-80deg.C
_cell_formula_units_Z            4
loop_
_atom_site_label
_atom_site_type_symbol
_atom_site_fract_x
_atom_site_fract_y
_atom_site_fract_z
O1 O 0.82255(5) 0.50463(11) 0.12317(4)
F1 F 0.76260(4) 0.79026(10) 0.22426(4)
N1 N 0.96002(6) 0.49804(13) 0.19504(5)
N2 N 0.98458(5) 0.71638(13) 0.31273(5)
N3 N 1.09631(6) 0.51346(13) 0.26579(5)
N4 N 0.87379(6) 0.93810(14) 0.34969(6)
C1 C 1.01003(6) 0.57703(15) 0.25832(6)
C2 C 0.90241(6) 0.79011(15) 0.30051(6)
C3 C 0.84657(6) 0.71685(15) 0.23604(6)
C4 C 0.87872(6) 0.57123(15) 0.18592(6)
C5 C 0.85089(6) 0.34695(15) 0.07280(6)
C6 C 0.88687(8) 0.39569(18) -0.00001(7)
C7 C 0.90768(9) 0.2404(2) -0.05318(7)
C8 C 0.89225(9) 0.04071(19) -0.03286(7)
C9 C 0.85490(10) -0.00572(18) 0.04042(8)
C10 C 0.83423(9) 0.14853(18) 0.09406(7)
C11 C 1.12381(7) 0.33498(16) 0.22016(6)
C12 C 1.11749(7) 0.14292(17) 0.27179(7)
C13 C 1.17122(9) 0.16755(18) 0.35307(8)
C14 C 1.14493(8) 0.36100(18) 0.39796(7)
C15 C 1.14973(7) 0.54576(16) 0.34197(7)
C16 C 0.92432(7) 1.01518(17) 0.42106(6)
C17 C 0.89357(9) 1.2274(2) 0.44181(9)
H1 H 0.8186(11) 0.974(2) 0.3421(9)
H2 H 0.8980(11) 0.538(3) -0.0132(10)
H3 H 0.9320(12) 0.276(3) -0.1035(12)
H4 H 0.9078(11) -0.066(3) -0.0688(10)
H5 H 0.8449(12) -0.150(3) 0.0543(11)
H6 H 0.8086(12) 0.117(3) 0.1460(11)
H7 H 1.1868(9) 0.357(2) 0.2071(8)
H8 H 1.0845(10) 0.327(2) 0.1683(9)
H9 H 1.1381(10) 0.022(2) 0.2410(9)
H10 H 1.0551(10) 0.120(2) 0.2802(9)
H11 H 1.2336(11) 0.176(2) 0.3431(9)
H12 H 1.1656(11) 0.042(3) 0.3871(10)
H13 H 1.0812(10) 0.351(2) 0.4137(9)
H14 H 1.1837(10) 0.383(2) 0.4477(10)
H15 H 1.1306(10) 0.672(2) 0.3683(9)
H16 H 1.2121(10) 0.567(2) 0.3265(9)
H17 H 0.9869(9) 1.015(2) 0.4094(8)
H18 H 0.9179(10) 0.922(2) 0.4680(9)
H19 H 0.9278(12) 1.277(3) 0.4903(11)
H20 H 0.8315(13) 1.227(3) 0.4540(11)
H21 H 0.9004(14) 1.321(3) 0.3939(13)
loop_
_geom_bond_atom_site_label_1
_geom_bond_atom_site_label_2
_geom_bond_site_symmetry_1
_geom_bond_site_symmetry_2
O1 C4 1_555 1_555
F1 C3 1_555 1_555
N1 C1 1_555 1_555
N2 C1 1_555 1_555
N3 C1 1_555 1_555
N4 C2 1_555 1_555
C2 N2 1_555 1_555
C3 C2 1_555 1_555
C4 N1 1_555 1_555
C5 O1 1_555 1_555
C6 C5 1_555 1_555
C7 C6 1_555 1_555
C8 C7 1_555 1_555
C9 C8 1_555 1_555
C10 C5 1_555 1_555
C11 N3 1_555 1_555
C12 C11 1_555 1_555
C13 C12 1_555 1_555
C14 C13 1_555 1_555
C15 N3 1_555 1_555
C16 N4 1_555 1_555
C17 C16 1_555 1_555
H1 N4 1_555 1_555
H2 C6 1_555 1_555
H3 C7 1_555 1_555
H4 C8 1_555 1_555
H5 C9 1_555 1_555
H6 C10 1_555 1_555
H7 C11 1_555 1_555
H8 C11 1_555 1_555
H9 C12 1_555 1_555
H10 C12 1_555 1_555
H11 C13 1_555 1_555
H12 C13 1_555 1_555
H13 C14 1_555 1_555
H14 C14 1_555 1_555
H15 C15 1_555 1_555
H16 C15 1_555 1_555
H17 C16 1_555 1_555
H18 C16 1_555 1_555
H19 C17 1_555 1_555
H20 C17 1_555 1_555
H21 C17 1_555 1_555
C3 C4 1_555 1_555
C9 C10 1_555 1_555
C14 C15 1_555 1_555

#END
