
#######################################################################
#
#                 Cambridge Crystallographic Data Centre
#                                CCDC 
#
#######################################################################
#
# If this CIF has been generated from an entry in the Cambridge 
# Structural Database, then it will include bibliographic, chemical, 
# crystal, experimental, refinement or atomic coordinate data resulting 
# from the CCDC's data processing and validation procedures.
#
#######################################################################

data_HUSDAC
_chemical_formula_moiety         'C25 H31 N2 O5 P1 S1,0.5(C1 H1 Cl3)'
_chemical_name_systematic        
"diethyl (1-benzyl-5'-butyl-2-oxo-2'-thioxo-1,2-dihydrospiro[indole-3,4'-[1,3]oxazolidin]-5'-yl)phosphonate chloroform solvate"
_symmetry_cell_setting           monoclinic
_symmetry_space_group_name_H-M   'P 21'
_symmetry_Int_Tables_number      4
_space_group_name_Hall           'P 2yb'
loop_
_symmetry_equiv_pos_site_id
_symmetry_equiv_pos_as_xyz
1 x,y,z
2 -x,1/2+y,-z
_cell_length_a                   13.5437(9)
_cell_length_b                   13.0346(8)
_cell_length_c                   16.0277(11)
_cell_angle_alpha                90
_cell_angle_beta                 102.411(2)
_cell_angle_gamma                90
_cell_volume                     2763.36
_exptl_crystal_colour            colorless
_exptl_crystal_description       Block
_cell_formula_units_Z            4
loop_
_atom_site_label
_atom_site_type_symbol
_atom_site_fract_x
_atom_site_fract_y
_atom_site_fract_z
C1 C 0.3378(4) 1.1172(4) 0.7386(3)
H1 H 0.3632 1.1584 0.7882
H2 H 0.3057 1.0570 0.7550
H3 H 0.2895 1.1561 0.6982
C2 C 0.4243(3) 1.0857(4) 0.6984(3)
H4 H 0.4735 1.0482 0.7402
H5 H 0.4571 1.1469 0.6832
C3 C 0.3918(3) 1.0193(3) 0.6190(2)
H6 H 0.3408 1.0552 0.5774
H7 H 0.3624 0.9559 0.6340
C4 C 0.4412(3) 0.7739(3) 0.6108(2)
C5 C 0.1439(3) 0.6278(3) 0.4787(2)
C6 C -0.0211(3) 0.5537(3) 0.4709(2)
H8 H -0.0634 0.4967 0.4637
C7 C -0.0595(3) 0.6495(4) 0.4846(3)
H9 H -0.1274 0.6570 0.4863
C8 C 0.1567(3) 0.8602(3) 0.2985(3)
H10 H 0.0945 0.8742 0.2585
H11 H 0.1523 0.7947 0.3248
H12 H 0.2114 0.8595 0.2691
C9 C 0.1752(3) 0.9418(3) 0.3657(2)
H13 H 0.1778 1.0084 0.3392
H14 H 0.1201 0.9426 0.3956
C10 C 0.4449(3) 0.9996(3) 0.2762(3)
H15 H 0.3970 1.0344 0.2314
H16 H 0.4849 1.0513 0.3119
C11 C 0.5115(4) 0.9332(4) 0.2381(3)
H17 H 0.5475 0.9743 0.2047
H18 H 0.4715 0.8830 0.2021
H19 H 0.5589 0.8992 0.2827
C12 C 0.3215(3) 0.6634(3) 0.6612(3)
H20 H 0.2651 0.6208 0.6503
C13 C 0.3736(3) 0.6840(3) 0.7443(3)
H21 H 0.3506 0.6558 0.7899
C14 C 0.4588(3) 0.7457(3) 0.7605(3)
H22 H 0.4928 0.7575 0.8166
C15 C 0.4941(3) 0.7900(3) 0.6936(2)
H23 H 0.5524 0.8299 0.7043
C16 C 0.0041(3) 0.7336(3) 0.4956(3)
H24 H -0.0212 0.7979 0.5050
C17 C 0.3574(3) 0.7093(3) 0.5955(2)
C18 C 0.4630(3) 0.8053(3) 0.5250(2)
C19 C 0.4666(2) 0.9233(3) 0.5030(2)
C20 C 0.3837(2) 0.7401(3) 0.4618(2)
C21 C 0.6111(2) 0.8440(3) 0.4794(2)
C22 C 0.0800(3) 0.5426(3) 0.4680(2)
H25 H 0.1053 0.4782 0.4589
C23 C 0.1057(3) 0.7231(3) 0.4929(3)
H26 H 0.1478 0.7802 0.5007
C24 C 0.2524(3) 0.6116(3) 0.4711(3)
H27 H 0.2765 0.5477 0.4993
H28 H 0.2537 0.6043 0.4112
C25 C 0.4830(3) 0.9952(3) 0.5802(2)
H29 H 0.5351 0.9656 0.6247
H30 H 0.5091 1.0596 0.5636
N1 N 0.3221(2) 0.6934(2) 0.5074(2)
N2 N 0.5640(2) 0.7752(2) 0.51655(18)
H31 H 0.5906 0.7171 0.5344
O1 O 0.38212(19) 0.72830(19) 0.38634(16)
O2 O 0.55815(18) 0.93235(19) 0.46803(16)
O3 O 0.3686(2) 1.0908(2) 0.41958(17)
O4 O 0.3900(2) 0.9368(2) 0.32799(16)
O5 O 0.27114(18) 0.92239(19) 0.42685(16)
P1 P 0.36967(7) 0.97765(7) 0.41438(6)
S1 S 0.72101(6) 0.83214(7) 0.45040(6)
C26 C 0.4409(3) 0.9228(6) 0.9628(4)
H32 H 0.3736 0.9422 0.9568
C27 C 0.4700(4) 0.8242(7) 0.9867(3)
H33 H 0.4221 0.7769 0.9960
C28 C 0.5708(3) 0.7947(5) 0.9971(3)
H34 H 0.5905 0.7280 1.0135
C29 C 0.6414(3) 0.8659(3) 0.9827(2)
C30 C 0.7504(3) 0.8326(3) 0.9915(3)
H35 H 0.7619 0.7706 1.0257
H36 H 0.7621 0.8164 0.9353
C31 C 0.8074(3) 1.2927(3) 1.1555(2)
H37 H 0.7350 1.2956 1.1516
H38 H 0.8376 1.2589 1.2088
C32 C 0.8481(3) 1.4013(3) 1.1575(3)
H39 H 0.8329 1.4372 1.2056
H40 H 0.8170 1.4362 1.1058
H41 H 0.9200 1.3993 1.1626
C33 C 1.0529(4) 1.1449(4) 0.7363(3)
H42 H 1.1081 1.1762 0.7170
H43 H 0.9905 1.1757 0.7074
H44 H 1.0514 1.0728 0.7241
C34 C 1.1314(2) 1.0622(3) 1.0547(2)
C35 C 0.5117(4) 0.9935(5) 0.9475(4)
H45 H 0.4919 1.0599 0.9304
C36 C 0.6120(3) 0.9647(4) 0.9579(3)
H46 H 0.6597 1.0120 0.9483
C37 C 0.7844(3) 0.9105(3) 1.1769(3)
H47 H 0.7278 0.8685 1.1618
C38 C 0.8176(3) 0.9448(3) 1.2604(3)
H48 H 0.7824 0.9261 1.3019
C39 C 0.9029(3) 1.0067(3) 1.2826(2)
H49 H 0.9243 1.0288 1.3388
C40 C 0.9566(3) 1.0360(3) 1.2214(2)
H50 H 1.0143 1.0763 1.2365
C41 C 0.7408(3) 1.1424(3) 0.8174(2)
H51 H 0.7042 1.0801 0.7972
H52 H 0.7774 1.1642 0.7747
C42 C 0.6677(3) 1.2241(3) 0.8292(3)
H53 H 0.6216 1.2370 0.7758
H54 H 0.7039 1.2859 0.8488
H55 H 0.6305 1.2019 0.8706
C43 C 0.8382(3) 0.9407(3) 1.1171(2)
C44 C 0.9227(3) 1.0042(3) 1.1380(2)
C45 C 0.9647(2) 1.0213(2) 1.0583(2)
C46 C 0.9719(2) 1.1367(3) 1.0284(2)
C47 C 0.8277(3) 1.2284(3) 1.0817(2)
H56 H 0.7958 1.2604 1.0280
H57 H 0.7983 1.1608 1.0835
C48 C 1.0663(3) 1.1606(3) 0.8305(2)
H58 H 1.1295 1.1302 0.8602
H59 H 1.0682 1.2334 0.8435
C49 C 0.8967(2) 0.9474(2) 0.9931(2)
C50 C 0.9416(2) 1.2180(3) 1.0865(2)
H60 H 0.9671 1.2839 1.0724
H61 H 0.9745 1.2023 1.1451
N3 N 1.0694(2) 0.9898(2) 1.06915(19)
H62 H 1.0894 0.9285 1.0839
N4 N 0.8224(2) 0.9108(2) 1.03086(19)
O6 O 0.91115(18) 0.92427(18) 0.92400(15)
O7 O 1.08142(17) 1.15049(18) 1.03403(15)
O8 O 0.9233(2) 1.2838(2) 0.90517(16)
O9 O 0.81278(18) 1.12166(19) 0.89856(16)
O10 O 0.9811(2) 1.1121(2) 0.85845(16)
P2 P 0.92029(7) 1.17135(6) 0.91616(5)
S2 S 1.25522(6) 1.05260(7) 1.06138(6)
C51 C 0.8461(4) 0.8271(5) 0.7432(4)
Cl1 Cl 0.92661(9) 0.78582(10) 0.67823(7)
Cl2 Cl 0.77691(8) 0.71427(9) 0.76894(7)
Cl3 Cl 0.75860(9) 0.91606(8) 0.69126(7)
C52? C 0.7930(8) 0.7802(9) 0.6847(7)
loop_
_geom_bond_atom_site_label_1
_geom_bond_atom_site_label_2
_geom_bond_site_symmetry_1
_geom_bond_site_symmetry_2
C1 H1 1_555 1_555
H2 C1 1_555 1_555
H3 C1 1_555 1_555
C2 C1 1_555 1_555
H4 C2 1_555 1_555
H5 C2 1_555 1_555
C3 C2 1_555 1_555
H6 C3 1_555 1_555
H7 C3 1_555 1_555
C4 C15 1_555 1_555
C5 C22 1_555 1_555
C6 H8 1_555 1_555
C7 C6 1_555 1_555
H9 C7 1_555 1_555
C8 H10 1_555 1_555
H11 C8 1_555 1_555
H12 C8 1_555 1_555
C9 C8 1_555 1_555
H13 C9 1_555 1_555
H14 C9 1_555 1_555
C10 H15 1_555 1_555
H16 C10 1_555 1_555
C11 C10 1_555 1_555
H17 C11 1_555 1_555
H18 C11 1_555 1_555
H19 C11 1_555 1_555
C12 H20 1_555 1_555
C13 C12 1_555 1_555
H21 C13 1_555 1_555
C14 C13 1_555 1_555
H22 C14 1_555 1_555
C15 C14 1_555 1_555
H23 C15 1_555 1_555
C16 C7 1_555 1_555
H24 C16 1_555 1_555
C17 C4 1_555 1_555
C18 C4 1_555 1_555
C19 C18 1_555 1_555
C20 C18 1_555 1_555
C21 N2 1_555 1_555
C22 C6 1_555 1_555
H25 C22 1_555 1_555
C23 C5 1_555 1_555
H26 C23 1_555 1_555
C24 C5 1_555 1_555
H27 C24 1_555 1_555
H28 C24 1_555 1_555
C25 C3 1_555 1_555
H29 C25 1_555 1_555
H30 C25 1_555 1_555
N1 C17 1_555 1_555
N2 C18 1_555 1_555
H31 N2 1_555 1_555
O1 C20 1_555 1_555
O2 C19 1_555 1_555
O3 P1 1_555 1_555
O4 C10 1_555 1_555
O5 C9 1_555 1_555
P1 C19 1_555 1_555
S1 C21 1_555 1_555
C26 H32 1_555 1_555
C27 C26 1_555 1_555
H33 C27 1_555 1_555
C28 C27 1_555 1_555
H34 C28 1_555 1_555
C29 C28 1_555 1_555
C30 C29 1_555 1_555
H35 C30 1_555 1_555
H36 C30 1_555 1_555
C31 H37 1_555 1_555
H38 C31 1_555 1_555
C32 C31 1_555 1_555
H39 C32 1_555 1_555
H40 C32 1_555 1_555
H41 C32 1_555 1_555
C33 H42 1_555 1_555
H43 C33 1_555 1_555
H44 C33 1_555 1_555
C34 N3 1_555 1_555
C35 C26 1_555 1_555
H45 C35 1_555 1_555
C36 C29 1_555 1_555
H46 C36 1_555 1_555
C37 H47 1_555 1_555
C38 C37 1_555 1_555
H48 C38 1_555 1_555
C39 C38 1_555 1_555
H49 C39 1_555 1_555
C40 C39 1_555 1_555
H50 C40 1_555 1_555
C41 H51 1_555 1_555
H52 C41 1_555 1_555
C42 C41 1_555 1_555
H53 C42 1_555 1_555
H54 C42 1_555 1_555
H55 C42 1_555 1_555
C43 C37 1_555 1_555
C44 C40 1_555 1_555
C45 C44 1_555 1_555
C46 C45 1_555 1_555
C47 C31 1_555 1_555
H56 C47 1_555 1_555
H57 C47 1_555 1_555
C48 C33 1_555 1_555
H58 C48 1_555 1_555
H59 C48 1_555 1_555
C49 C45 1_555 1_555
C50 C46 1_555 1_555
H60 C50 1_555 1_555
H61 C50 1_555 1_555
N3 C45 1_555 1_555
H62 N3 1_555 1_555
N4 C30 1_555 1_555
O6 C49 1_555 1_555
O7 C34 1_555 1_555
O8 P2 1_555 1_555
O9 C41 1_555 1_555
O10 C48 1_555 1_555
P2 C46 1_555 1_555
S2 C34 1_555 1_555
C51 Cl1 1_555 1_555
Cl2 C51 1_555 1_555
Cl3 C51 1_555 1_555
C12 C17 1_555 1_555
C16 C23 1_555 1_555
C19 C25 1_555 1_555
C20 N1 1_555 1_555
C21 O2 1_555 1_555
C24 N1 1_555 1_555
O4 P1 1_555 1_555
O5 P1 1_555 1_555
C35 C36 1_555 1_555
C43 C44 1_555 1_555
C43 N4 1_555 1_555
C46 O7 1_555 1_555
C47 C50 1_555 1_555
C49 N4 1_555 1_555
O9 P2 1_555 1_555
O10 P2 1_555 1_555

#END
