
#######################################################################
#
#                 Cambridge Crystallographic Data Centre
#                                CCDC 
#
#######################################################################
#
# If this CIF has been generated from an entry in the Cambridge 
# Structural Database, then it will include bibliographic, chemical, 
# crystal, experimental, refinement or atomic coordinate data resulting 
# from the CCDC's data processing and validation procedures.
#
#######################################################################

data_HUSFIL
_chemical_formula_moiety         'C14 H16 F1 N3 O2'
_chemical_name_systematic        
2-Ethoxy-N-ethyl-5-fluoro-6-phenoxypyrimidin-4-amine
_symmetry_cell_setting           orthorhombic
_symmetry_space_group_name_H-M   'P b c a'
_symmetry_Int_Tables_number      61
_space_group_name_Hall           '-P 2ac 2ab'
loop_
_symmetry_equiv_pos_site_id
_symmetry_equiv_pos_as_xyz
1 x,y,z
2 1/2-x,-y,1/2+z
3 -x,1/2+y,1/2-z
4 1/2+x,1/2-y,-z
5 -x,-y,-z
6 1/2+x,y,1/2-z
7 x,1/2-y,1/2+z
8 1/2-x,1/2+y,z
_cell_length_a                   10.7762(2)
_cell_length_b                   8.9759(2)
_cell_length_c                   28.1543(6)
_cell_angle_alpha                90
_cell_angle_beta                 90
_cell_angle_gamma                90
_cell_volume                     2723.26
_exptl_crystal_colour            colorless
_exptl_crystal_description       plate
_chemical_melting_point          109-110deg.C
_cell_formula_units_Z            8
_exptl_crystal_recrystallization_method methanol
loop_
_atom_site_label
_atom_site_type_symbol
_atom_site_fract_x
_atom_site_fract_y
_atom_site_fract_z
F1 F 0.63947(7) 0.10137(8) 0.61719(2)
O1 O 0.48553(8) 0.65887(10) 0.59121(3)
O2 O 0.43589(8) 0.20143(9) 0.66483(3)
N1 N 0.45731(9) 0.43690(11) 0.63059(3)
N2 N 0.61797(9) 0.47753(11) 0.57279(3)
N3 N 0.75202(10) 0.28541(12) 0.55150(3)
C1 C 0.52028(10) 0.51737(13) 0.59924(4)
C2 C 0.65808(10) 0.33653(13) 0.57811(4)
C3 C 0.59854(11) 0.24329(12) 0.61155(4)
C4 C 0.49955(11) 0.29737(13) 0.63610(4)
C5 C 0.38028(12) 0.71525(15) 0.61764(5)
C6 C 0.36459(14) 0.87505(16) 0.60302(6)
C7 C 0.81571(14) 0.37958(16) 0.51701(5)
C8 C 0.89832(14) 0.28766(17) 0.48506(5)
C9 C 0.40500(11) 0.24499(13) 0.71103(4)
C10 C 0.47175(12) 0.35166(14) 0.73594(4)
C11 C 0.44125(13) 0.37699(15) 0.78329(4)
C12 C 0.34702(13) 0.29676(16) 0.80511(4)
C13 C 0.28110(12) 0.19127(15) 0.77946(4)
C14 C 0.30957(12) 0.16461(14) 0.73196(4)
H1 H 0.7841(16) 0.198(2) 0.5586(6)
H2 H 0.3979(14) 0.7049(17) 0.6510(5)
H3 H 0.3075(15) 0.6559(18) 0.6102(5)
H4 H 0.4389(16) 0.9345(19) 0.6104(5)
H5 H 0.3504(16) 0.8807(19) 0.5685(6)
H6 H 0.293(2) 0.919(2) 0.6204(7)
H7 H 0.8633(18) 0.457(2) 0.5332(6)
H8 H 0.7516(19) 0.432(2) 0.4974(6)
H9 H 0.9409(17) 0.353(2) 0.4626(6)
H10 H 0.8476(18) 0.215(2) 0.4673(7)
H11 H 0.9603(18) 0.235(2) 0.5036(7)
H12 H 0.5382(15) 0.4055(18) 0.7205(6)
H13 H 0.4869(15) 0.4500(18) 0.8011(5)
H14 H 0.3270(17) 0.3110(19) 0.8387(6)
H15 H 0.2151(16) 0.1333(18) 0.7938(6)
H16 H 0.2650(15) 0.0913(18) 0.7137(5)
loop_
_geom_bond_atom_site_label_1
_geom_bond_atom_site_label_2
_geom_bond_site_symmetry_1
_geom_bond_site_symmetry_2
F1 C3 1_555 1_555
O1 C1 1_555 1_555
O2 C4 1_555 1_555
N1 C1 1_555 1_555
N2 C1 1_555 1_555
N3 C2 1_555 1_555
C2 N2 1_555 1_555
C3 C2 1_555 1_555
C4 N1 1_555 1_555
C5 O1 1_555 1_555
C6 C5 1_555 1_555
C7 N3 1_555 1_555
C8 C7 1_555 1_555
C9 O2 1_555 1_555
C10 C9 1_555 1_555
C11 C10 1_555 1_555
C12 C11 1_555 1_555
C13 C12 1_555 1_555
C14 C9 1_555 1_555
H1 N3 1_555 1_555
H2 C5 1_555 1_555
H3 C5 1_555 1_555
H4 C6 1_555 1_555
H5 C6 1_555 1_555
H6 C6 1_555 1_555
H7 C7 1_555 1_555
H8 C7 1_555 1_555
H9 C8 1_555 1_555
H10 C8 1_555 1_555
H11 C8 1_555 1_555
H12 C10 1_555 1_555
H13 C11 1_555 1_555
H14 C12 1_555 1_555
H15 C13 1_555 1_555
H16 C14 1_555 1_555
C3 C4 1_555 1_555
C13 C14 1_555 1_555

#END
