
#######################################################################
#
#                 Cambridge Crystallographic Data Centre
#                                CCDC 
#
#######################################################################
#
# If this CIF has been generated from an entry in the Cambridge 
# Structural Database, then it will include bibliographic, chemical, 
# crystal, experimental, refinement or atomic coordinate data resulting 
# from the CCDC's data processing and validation procedures.
#
#######################################################################

data_HUSYOL
_chemical_formula_moiety         'C31 H22 Cl1 F1 N2 O2'
_chemical_name_systematic        
"ethyl 6'-chloro-3-(4-fluorophenyl)-1-phenyl-1H,1'H-2,3'-biindole-2'-carboxylate unknown solvate"
_symmetry_cell_setting           triclinic
_symmetry_space_group_name_H-M   'P -1'
_symmetry_Int_Tables_number      2
_space_group_name_Hall           '-P 1'
loop_
_symmetry_equiv_pos_site_id
_symmetry_equiv_pos_as_xyz
1 x,y,z
2 -x,-y,-z
_cell_length_a                   11.0486(6)
_cell_length_b                   12.6909(7)
_cell_length_c                   13.1892(6)
_cell_angle_alpha                114.043(2)
_cell_angle_beta                 97.343(2)
_cell_angle_gamma                102.677(3)
_cell_volume                     1598.01
_exptl_crystal_colour            colorless
_cell_formula_units_Z            2
loop_
_atom_site_label
_atom_site_type_symbol
_atom_site_fract_x
_atom_site_fract_y
_atom_site_fract_z
Cl1 Cl 0.15496(5) 0.81330(4) 0.35308(4)
F1 F -0.24437(15) 0.07506(15) 0.01542(17)
O1 O 0.5545(2) 0.37401(17) 0.40090(11)
O2 O 0.50707(14) 0.25125(12) 0.21322(10)
N1 N 0.46695(14) 0.31344(13) 0.00734(11)
N2 N 0.40616(17) 0.51259(15) 0.35854(12)
C1 C 0.2384(2) 0.07074(17) -0.24416(15)
C2 C 0.3122(2) 0.04178(18) -0.32390(15)
C3 C 0.4418(2) 0.10438(19) -0.29668(16)
C4 C 0.5038(2) 0.19607(18) -0.18786(15)
C5 C 0.43073(18) 0.22443(15) -0.10678(14)
C6 C 0.29856(18) 0.16558(15) -0.13305(13)
C7 C 0.35766(17) 0.30964(15) 0.05104(13)
C8 C 0.25289(17) 0.22092(15) -0.03201(13)
C9 C 0.59379(17) 0.39274(15) 0.06810(13)
C10 C 0.69576(18) 0.34476(17) 0.06816(15)
C11 C 0.81864(19) 0.42152(19) 0.12972(16)
C12 C 0.8390(2) 0.54470(19) 0.19278(16)
C13 C 0.7370(2) 0.59249(17) 0.19219(15)
C14 C 0.61460(18) 0.51711(16) 0.12903(14)
C15 C 0.12229(18) 0.18652(15) -0.01775(14)
C16 C 0.01611(19) 0.16212(17) -0.10271(17)
C17 C -0.1079(2) 0.12530(19) -0.0914(2)
C18 C -0.1231(2) 0.11404(19) 0.0061(2)
C19 C -0.0215(2) 0.13789(19) 0.0924(2)
C20 C 0.1010(2) 0.17382(16) 0.07993(16)
C21 C 0.35969(17) 0.39737(15) 0.16718(13)
C22 C 0.29670(17) 0.48926(15) 0.19119(13)
C23 C 0.21786(17) 0.51995(15) 0.12151(13)
C24 C 0.17422(17) 0.61822(16) 0.17255(14)
C25 C 0.20971(18) 0.68681(16) 0.29284(14)
C26 C 0.28522(19) 0.65999(17) 0.36464(14)
C27 C 0.32847(18) 0.55986(16) 0.31150(14)
C28 C 0.4251(2) 0.41410(16) 0.27260(14)
C29 C 0.5025(2) 0.34659(18) 0.30312(14)
C30 C 0.5836(2) 0.17738(19) 0.23214(18)
C31 C 0.5295(4) 0.0576(4) 0.1239(4)
H1 H 0.27330 -0.02220 -0.39870
H2 H 0.48860 0.08370 -0.35390
H3 H 0.59220 0.23800 -0.16910
H4 H 0.68160 0.26020 0.02650
H5 H 0.88870 0.38930 0.12850
H6 H 0.43900 0.54060 0.43220
H7 H 0.15010 0.02790 -0.26390
H8 H 0.54540 0.55010 0.12730
H9 H 0.02850 0.17070 -0.16920
H10 H -0.18000 0.10840 -0.14940
H11 H -0.03510 0.12990 0.15890
H12 H 0.17220 0.19020 0.13860
H13 H 0.19520 0.47360 0.04060
H14 H 0.12050 0.63970 0.12690
H15 H 0.30670 0.70660 0.44550
H16 H 0.57290 0.16660 0.30100
H17 H 0.67550 0.21420 0.24080
H18 H 0.44250 0.01760 0.12300
H19 H 0.58360 0.00550 0.12260
H20 H 0.52780 0.07260 0.05660
H21 H 0.92240 0.59640 0.23630
H22 H 0.75110 0.67690 0.23510
C32? C 0.7251(5) 0.2422(5) 0.2884(4)
H23? H 0.57560 0.10910 0.15730
H24? H 0.54660 0.14270 0.28040
H25? H 0.76390 0.27530 0.24080
H26? H 0.76750 0.18480 0.29650
H27? H 0.73510 0.30810 0.36420
loop_
_geom_bond_atom_site_label_1
_geom_bond_atom_site_label_2
_geom_bond_site_symmetry_1
_geom_bond_site_symmetry_2
Cl1 C25 1_555 1_555
F1 C18 1_555 1_555
O1 C29 1_555 1_555
O2 C29 1_555 1_555
N1 C5 1_555 1_555
N2 C27 1_555 1_555
C1 C2 1_555 1_555
C2 C3 1_555 1_555
C3 C4 1_555 1_555
C4 C5 1_555 1_555
C5 C6 1_555 1_555
C6 C1 1_555 1_555
C7 N1 1_555 1_555
C8 C6 1_555 1_555
C9 N1 1_555 1_555
C10 C9 1_555 1_555
C11 C10 1_555 1_555
C12 C11 1_555 1_555
C13 C12 1_555 1_555
C14 C9 1_555 1_555
C15 C8 1_555 1_555
C16 C15 1_555 1_555
C17 C16 1_555 1_555
C18 C17 1_555 1_555
C19 C18 1_555 1_555
C20 C15 1_555 1_555
C21 C7 1_555 1_555
C22 C21 1_555 1_555
C23 C22 1_555 1_555
C24 C23 1_555 1_555
C25 C24 1_555 1_555
C26 C25 1_555 1_555
C27 C22 1_555 1_555
C28 N2 1_555 1_555
C29 C28 1_555 1_555
C30 O2 1_555 1_555
C31 C30 1_555 1_555
H1 C2 1_555 1_555
H2 C3 1_555 1_555
H3 C4 1_555 1_555
H4 C10 1_555 1_555
H5 C11 1_555 1_555
H6 N2 1_555 1_555
H7 C1 1_555 1_555
H8 C14 1_555 1_555
H9 C16 1_555 1_555
H10 C17 1_555 1_555
H11 C19 1_555 1_555
H12 C20 1_555 1_555
H13 C23 1_555 1_555
H14 C24 1_555 1_555
H15 C26 1_555 1_555
H16 C30 1_555 1_555
H17 C30 1_555 1_555
H18 C31 1_555 1_555
H19 C31 1_555 1_555
H20 C31 1_555 1_555
H21 C12 1_555 1_555
H22 C13 1_555 1_555
C7 C8 1_555 1_555
C13 C14 1_555 1_555
C19 C20 1_555 1_555
C21 C28 1_555 1_555
C26 C27 1_555 1_555

#END
