
#######################################################################
#
#                 Cambridge Crystallographic Data Centre
#                                CCDC 
#
#######################################################################
#
# If this CIF has been generated from an entry in the Cambridge 
# Structural Database, then it will include bibliographic, chemical, 
# crystal, experimental, refinement or atomic coordinate data resulting 
# from the CCDC's data processing and validation procedures.
#
#######################################################################

data_HUSYIF
_chemical_formula_moiety         'C32 H24 Cl2 N2 O2'
_chemical_name_systematic        
"ethyl 6'-chloro-1-(4-chlorobenzyl)-3-phenyl-1H,1'H-2,3'-biindole-2'-carboxylate"
_symmetry_cell_setting           triclinic
_symmetry_space_group_name_H-M   'P -1'
_symmetry_Int_Tables_number      2
_space_group_name_Hall           '-P 1'
loop_
_symmetry_equiv_pos_site_id
_symmetry_equiv_pos_as_xyz
1 x,y,z
2 -x,-y,-z
_cell_length_a                   10.3181(5)
_cell_length_b                   11.9613(5)
_cell_length_c                   13.2737(6)
_cell_angle_alpha                115.551(2)
_cell_angle_beta                 90.435(2)
_cell_angle_gamma                113.632(2)
_cell_volume                     1321.37
_exptl_crystal_colour            'pale yellow'
_cell_formula_units_Z            2
loop_
_atom_site_label
_atom_site_type_symbol
_atom_site_fract_x
_atom_site_fract_y
_atom_site_fract_z
Cl1 Cl 0.40879(7) 1.61291(5) 0.71231(5)
Cl2 Cl -0.15558(8) 0.71387(8) -0.26458(6)
O1 O -0.04155(13) 0.75352(12) 0.24234(11)
O2 O -0.18739(15) 0.85622(16) 0.27842(17)
N1 N 0.04235(16) 1.10563(15) 0.43269(13)
N2 N 0.32432(15) 0.94058(14) 0.21208(12)
C1 C 0.4640(2) 1.40127(19) 0.57317(16)
C2 C 0.3555(2) 1.44162(18) 0.60854(15)
C3 C 0.2103(2) 1.35351(18) 0.56746(15)
C4 C 0.17473(18) 1.21686(17) 0.48792(14)
C5 C 0.28108(17) 1.17166(16) 0.45102(13)
C6 C 0.42756(19) 1.26652(18) 0.49420(15)
C7 C 0.06112(18) 0.99145(17) 0.36248(14)
C8 C 0.20671(17) 1.02692(16) 0.37119(14)
C9 C 0.27473(16) 0.93791(16) 0.30870(13)
C10 C 0.29739(17) 0.84244(17) 0.32755(14)
C11 C 0.36131(17) 0.78013(17) 0.23709(14)
C12 C 0.37675(17) 0.84387(17) 0.16738(14)
C13 C 0.26569(17) 0.81119(18) 0.42289(15)
C14 C 0.1993(2) 0.6747(2) 0.40364(18)
C15 C 0.1729(3) 0.6451(3) 0.4935(2)
C16 C 0.2116(3) 0.7511(3) 0.6043(2)
C17 C 0.2782(2) 0.8866(3) 0.62499(19)
C18 C 0.3054(2) 0.9168(2) 0.53559(16)
C19 C 0.3142(2) 1.02264(19) 0.16080(16)
C20 C 0.19620(19) 0.94176(18) 0.05338(15)
C21 C 0.1977(2) 0.9980(2) -0.01913(19)
C22 C 0.0899(3) 0.9285(2) -0.11661(19)
C23 C -0.0196(2) 0.8017(2) -0.14172(17)
C24 C -0.0245(2) 0.7429(2) -0.07236(18)
C25 C 0.0841(2) 0.8136(2) 0.02537(17)
C26 C 0.4116(2) 0.6799(2) 0.21036(17)
C27 C 0.4721(2) 0.6463(2) 0.11609(18)
C28 C 0.4846(2) 0.7095(2) 0.04765(19)
C29 C 0.4377(2) 0.8094(2) 0.07144(17)
C30 C -0.06999(19) 0.86111(19) 0.29076(16)
C31 C -0.1609(2) 0.6224(2) 0.16139(19)
C32 C -0.1064(3) 0.5165(3) 0.1285(3)
H1 H -0.041(2) 1.106(2) 0.4400(17)
H2 H 0.564(2) 1.467(2) 0.6000(17)
H3 H 0.140(2) 1.383(2) 0.5922(17)
H4 H 0.502(2) 1.235(2) 0.4687(16)
H5 H 0.170(2) 0.600(2) 0.3266(19)
H6 H 0.128(3) 0.551(3) 0.476(2)
H7 H 0.194(3) 0.733(2) 0.669(2)
H8 H 0.305(3) 0.961(2) 0.700(2)
H9 H 0.355(2) 1.012(2) 0.5519(16)
H10 H 0.409(2) 1.063(2) 0.1425(18)
H11 H 0.297(2) 1.095(2) 0.2162(17)
H12 H 0.274(3) 1.087(2) 0.0024(19)
H13 H 0.092(3) 0.967(3) -0.165(2)
H14 H -0.103(3) 0.653(3) -0.0940(19)
H15 H 0.081(2) 0.774(2) 0.0732(18)
H16 H 0.405(2) 0.638(2) 0.2579(19)
H17 H 0.508(3) 0.578(2) 0.098(2)
H18 H 0.524(3) 0.683(2) -0.018(2)
H19 H 0.448(2) 0.855(2) 0.0257(18)
H20 H -0.187(2) 0.634(2) 0.097(2)
H21 H -0.244(3) 0.602(2) 0.1967(19)
H22 H -0.097(4) 0.496(4) 0.192(3)
H23 H -0.018(4) 0.543(3) 0.102(3)
H24 H -0.175(4) 0.432(4) 0.069(3)
loop_
_geom_bond_atom_site_label_1
_geom_bond_atom_site_label_2
_geom_bond_site_symmetry_1
_geom_bond_site_symmetry_2
Cl1 C2 1_555 1_555
Cl2 C23 1_555 1_555
O1 C30 1_555 1_555
O2 C30 1_555 1_555
N1 C4 1_555 1_555
N2 C9 1_555 1_555
C1 C2 1_555 1_555
C2 C3 1_555 1_555
C3 C4 1_555 1_555
C4 C5 1_555 1_555
C5 C6 1_555 1_555
C6 C1 1_555 1_555
C7 N1 1_555 1_555
C8 C5 1_555 1_555
C9 C8 1_555 1_555
C10 C9 1_555 1_555
C11 C10 1_555 1_555
C12 N2 1_555 1_555
C13 C10 1_555 1_555
C14 C13 1_555 1_555
C15 C14 1_555 1_555
C16 C15 1_555 1_555
C17 C16 1_555 1_555
C18 C13 1_555 1_555
C19 N2 1_555 1_555
C20 C19 1_555 1_555
C21 C20 1_555 1_555
C22 C21 1_555 1_555
C23 C22 1_555 1_555
C24 C23 1_555 1_555
C25 C20 1_555 1_555
C26 C11 1_555 1_555
C27 C26 1_555 1_555
C28 C27 1_555 1_555
C29 C12 1_555 1_555
C30 C7 1_555 1_555
C31 O1 1_555 1_555
C32 C31 1_555 1_555
H1 N1 1_555 1_555
H2 C1 1_555 1_555
H3 C3 1_555 1_555
H4 C6 1_555 1_555
H5 C14 1_555 1_555
H6 C15 1_555 1_555
H7 C16 1_555 1_555
H8 C17 1_555 1_555
H9 C18 1_555 1_555
H10 C19 1_555 1_555
H11 C19 1_555 1_555
H12 C21 1_555 1_555
H13 C22 1_555 1_555
H14 C24 1_555 1_555
H15 C25 1_555 1_555
H16 C26 1_555 1_555
H17 C27 1_555 1_555
H18 C28 1_555 1_555
H19 C29 1_555 1_555
H20 C31 1_555 1_555
H21 C31 1_555 1_555
H22 C32 1_555 1_555
H23 C32 1_555 1_555
H24 C32 1_555 1_555
C7 C8 1_555 1_555
C11 C12 1_555 1_555
C17 C18 1_555 1_555
C24 C25 1_555 1_555
C28 C29 1_555 1_555

#END
