
#######################################################################
#
#                 Cambridge Crystallographic Data Centre
#                                CCDC 
#
#######################################################################
#
# If this CIF has been generated from an entry in the Cambridge 
# Structural Database, then it will include bibliographic, chemical, 
# crystal, experimental, refinement or atomic coordinate data resulting 
# from the CCDC's data processing and validation procedures.
#
#######################################################################

data_HUSYUR
_chemical_formula_moiety         'C20 H17 Cl2 N1 O3'
_chemical_name_systematic        
'ethyl 6-chloro-3-(3-(4-chlorophenyl)propanoyl)-1H-indole-2-carboxylate'
_symmetry_cell_setting           triclinic
_symmetry_space_group_name_H-M   'P -1'
_symmetry_Int_Tables_number      2
_space_group_name_Hall           '-P 1'
loop_
_symmetry_equiv_pos_site_id
_symmetry_equiv_pos_as_xyz
1 x,y,z
2 -x,-y,-z
_cell_length_a                   5.4489(2)
_cell_length_b                   12.6809(4)
_cell_length_c                   13.6651(4)
_cell_angle_alpha                85.0829(13)
_cell_angle_beta                 78.8518(13)
_cell_angle_gamma                86.7201(15)
_cell_volume                     922.192
_exptl_crystal_colour            colorless
_cell_formula_units_Z            2
loop_
_atom_site_label
_atom_site_type_symbol
_atom_site_fract_x
_atom_site_fract_y
_atom_site_fract_z
Cl1 Cl -0.24426(10) 1.41969(4) 0.44395(4)
Cl2 Cl 0.83966(9) 0.55190(4) -0.18510(4)
O1 O 0.3960(2) 0.80166(9) 0.31921(9)
O2 O 0.5537(2) 0.88711(9) 0.42804(8)
O3 O -0.2223(2) 0.96169(10) 0.18992(9)
N1 N 0.2277(2) 1.05352(11) 0.41553(10)
C1 C -0.3108(3) 1.26142(14) 0.33099(12)
C2 C -0.1782(3) 1.29334(13) 0.40138(13)
C3 C 0.0041(3) 1.22979(13) 0.43677(12)
C4 C 0.0540(3) 1.13110(12) 0.39687(11)
C5 C -0.0684(3) 1.09686(12) 0.32382(11)
C6 C -0.2580(3) 1.16436(13) 0.29199(12)
C7 C 0.2298(3) 0.97313(12) 0.35492(11)
C8 C 0.0493(3) 0.99653(12) 0.29522(11)
C9 C 0.4091(3) 0.88403(13) 0.37103(11)
C10 C 0.5918(4) 0.71784(14) 0.32447(14)
C11 C 0.5794(7) 0.6453(2) 0.2473(3)
C12 C -0.0154(3) 0.94293(13) 0.21151(11)
C13 C 0.1752(3) 0.87118(13) 0.14979(12)
C14 C 0.1244(4) 0.86423(16) 0.04447(13)
C15 C 0.3015(3) 0.78525(14) -0.01270(12)
C16 C 0.2363(3) 0.68111(15) -0.01540(13)
C17 C 0.3986(3) 0.60861(14) -0.06817(13)
C18 C 0.6309(3) 0.64126(14) -0.11787(12)
C19 C 0.7020(3) 0.74405(14) -0.11674(13)
C20 C 0.5360(3) 0.81513(14) -0.06427(13)
H1 H 0.317(4) 1.0551(16) 0.4549(16)
H2 H -0.43800 1.30730 0.31020
H3 H 0.09050 1.25160 0.48520
H4 H -0.34760 1.14310 0.24440
H5 H 0.56360 0.67920 0.39150
H6 H 0.75850 0.74900 0.31230
H7 H 0.70870 0.58850 0.24880
H8 H 0.60730 0.68450 0.18140
H9 H 0.41410 0.61470 0.26040
H10 H 0.17300 0.79930 0.18440
H11 H 0.34440 0.89820 0.14490
H12 H -0.05000 0.84330 0.04910
H13 H 0.14210 0.93490 0.00760
H14 H 0.07710 0.65930 0.01970
H15 H 0.35130 0.53800 -0.07020
H16 H 0.86190 0.76540 -0.15140
H17 H 0.58320 0.88600 -0.06340
loop_
_geom_bond_atom_site_label_1
_geom_bond_atom_site_label_2
_geom_bond_site_symmetry_1
_geom_bond_site_symmetry_2
Cl1 C2 1_555 1_555
Cl2 C18 1_555 1_555
O1 C9 1_555 1_555
O2 C9 1_555 1_555
O3 C12 1_555 1_555
N1 C4 1_555 1_555
C1 C2 1_555 1_555
C2 C3 1_555 1_555
C3 C4 1_555 1_555
C4 C5 1_555 1_555
C5 C6 1_555 1_555
C6 C1 1_555 1_555
C7 N1 1_555 1_555
C8 C5 1_555 1_555
C9 C7 1_555 1_555
C10 O1 1_555 1_555
C11 C10 1_555 1_555
C12 C8 1_555 1_555
C13 C12 1_555 1_555
C14 C13 1_555 1_555
C15 C14 1_555 1_555
C16 C15 1_555 1_555
C17 C16 1_555 1_555
C18 C17 1_555 1_555
C19 C18 1_555 1_555
C20 C15 1_555 1_555
H1 N1 1_555 1_555
H2 C1 1_555 1_555
H3 C3 1_555 1_555
H4 C6 1_555 1_555
H5 C10 1_555 1_555
H6 C10 1_555 1_555
H7 C11 1_555 1_555
H8 C11 1_555 1_555
H9 C11 1_555 1_555
H10 C13 1_555 1_555
H11 C13 1_555 1_555
H12 C14 1_555 1_555
H13 C14 1_555 1_555
H14 C16 1_555 1_555
H15 C17 1_555 1_555
H16 C19 1_555 1_555
H17 C20 1_555 1_555
C7 C8 1_555 1_555
C19 C20 1_555 1_555

#END
