
#######################################################################
#
#                 Cambridge Crystallographic Data Centre
#                                CCDC 
#
#######################################################################
#
# If this CIF has been generated from an entry in the Cambridge 
# Structural Database, then it will include bibliographic, chemical, 
# crystal, experimental, refinement or atomic coordinate data resulting 
# from the CCDC's data processing and validation procedures.
#
#######################################################################

data_HUTHUB
_chemical_formula_moiety         'C14 H12 N4 O5'
_chemical_name_systematic        
2-(((2,4-dinitrophenyl)hydrazono)methyl)-4-methylphenol
_symmetry_cell_setting           monoclinic
_symmetry_space_group_name_H-M   'P 21/n'
_symmetry_Int_Tables_number      14
_space_group_name_Hall           '-P 2yn'
loop_
_symmetry_equiv_pos_site_id
_symmetry_equiv_pos_as_xyz
1 x,y,z
2 1/2-x,1/2+y,1/2-z
3 -x,-y,-z
4 1/2+x,1/2-y,1/2+z
_cell_length_a                   14.016(11)
_cell_length_b                   4.489(3)
_cell_length_c                   21.970(17)
_cell_angle_alpha                90
_cell_angle_beta                 94.23(3)
_cell_angle_gamma                90
_cell_volume                     1378.54
_cell_formula_units_Z            4
loop_
_atom_site_label
_atom_site_type_symbol
_atom_site_fract_x
_atom_site_fract_y
_atom_site_fract_z
C1 C 0.9862(2) 0.8961(7) 0.84306(14)
C2 C 0.7578(2) 0.2292(7) 0.91766(14)
N1 N 0.93964(19) 0.7732(6) 0.88852(12)
H1 H 0.9539 0.8267 0.9257
C3 C 1.0608(2) 1.1084(7) 0.85282(14)
C4 C 0.9627(2) 0.8109(7) 0.78213(15)
H2 H 0.9124 0.6789 0.7734
C5 C 0.6448(2) -0.0866(7) 0.86118(15)
H3 H 0.6181 -0.1601 0.8242
C6 C 1.0860(2) 1.1183(7) 0.74784(14)
C7 C 0.7168(2) 0.1237(7) 0.86171(14)
C8 C 1.1096(2) 1.2174(7) 0.80542(14)
H4 H 1.1581 1.3571 0.8127
C9 C 1.0117(2) 0.9166(7) 0.73598(15)
H5 H 0.9957 0.8543 0.6962
C10 C 0.7236(2) 0.1174(7) 0.97109(14)
H6 H 0.7509 0.1863 1.0083
C11 C 0.6126(3) -0.1876(7) 0.91478(17)
H7 H 0.5631 -0.3260 0.9133
N2 N 1.0886(2) 1.2265(7) 0.91230(13)
C12 C 0.6514(2) -0.0898(7) 0.97149(15)
N3 N 0.86931(18) 0.5620(6) 0.87575(12)
C13 C 0.8333(2) 0.4508(7) 0.92283(15)
H8 H 0.8563 0.5145 0.9614
N4 N 1.1384(2) 1.2317(8) 0.69797(14)
O1 O 1.1974(2) 1.4267(7) 0.70885(12)
O2 O 1.1210(2) 1.1250(7) 0.64772(12)
O3 O 0.74492(18) 0.2174(5) 0.80738(10)
H9 H 0.7845 0.3511 0.8130
C14 C 0.6164(3) -0.2043(9) 1.02970(17)
H10 H 0.6288 -0.4142 1.0330
H11 H 0.5488 -0.1696 1.0298
H12 H 0.6489 -0.1028 1.0636
O4 O 1.04943(18) 1.1301(6) 0.95699(10)
O5 O 1.14900(18) 1.4222(6) 0.91753(11)
loop_
_geom_bond_atom_site_label_1
_geom_bond_atom_site_label_2
_geom_bond_site_symmetry_1
_geom_bond_site_symmetry_2
C1 N1 1_555 1_555
C2 C7 1_555 1_555
N1 H1 1_555 1_555
C3 C1 1_555 1_555
C4 C1 1_555 1_555
H2 C4 1_555 1_555
C5 H3 1_555 1_555
C6 C8 1_555 1_555
C7 C5 1_555 1_555
C8 C3 1_555 1_555
H4 C8 1_555 1_555
C9 C4 1_555 1_555
H5 C9 1_555 1_555
C10 C2 1_555 1_555
H6 C10 1_555 1_555
C11 C5 1_555 1_555
H7 C11 1_555 1_555
N2 C3 1_555 1_555
C12 C10 1_555 1_555
N3 N1 1_555 1_555
C13 C2 1_555 1_555
H8 C13 1_555 1_555
N4 C6 1_555 1_555
O1 N4 1_555 1_555
O2 N4 1_555 1_555
O3 C7 1_555 1_555
H9 O3 1_555 1_555
C14 C12 1_555 1_555
H10 C14 1_555 1_555
H11 C14 1_555 1_555
H12 C14 1_555 1_555
O4 N2 1_555 1_555
O5 N2 1_555 1_555
C6 C9 1_555 1_555
C11 C12 1_555 1_555
N3 C13 1_555 1_555

#END
