
#######################################################################
#
#                 Cambridge Crystallographic Data Centre
#                                CCDC 
#
#######################################################################
#
# If this CIF has been generated from an entry in the Cambridge 
# Structural Database, then it will include bibliographic, chemical, 
# crystal, experimental, refinement or atomic coordinate data resulting 
# from the CCDC's data processing and validation procedures.
#
#######################################################################

data_HUTMIT
_chemical_formula_moiety         'C13 H19 N1 O4 S1'
_chemical_name_systematic        
4-Methoxy-1-(methylsulfonyl)-4-phenylpiperidin-3-ol
_symmetry_cell_setting           triclinic
_symmetry_space_group_name_H-M   'P -1'
_symmetry_Int_Tables_number      2
_space_group_name_Hall           '-P 1'
loop_
_symmetry_equiv_pos_site_id
_symmetry_equiv_pos_as_xyz
1 x,y,z
2 -x,-y,-z
_cell_length_a                   8.9619(11)
_cell_length_b                   9.1409(12)
_cell_length_c                   10.4231(13)
_cell_angle_alpha                114.047(2)
_cell_angle_beta                 100.523(2)
_cell_angle_gamma                106.581(2)
_cell_volume                     702.395
_exptl_crystal_colour            colorless
_cell_formula_units_Z            2
loop_
_atom_site_label
_atom_site_type_symbol
_atom_site_fract_x
_atom_site_fract_y
_atom_site_fract_z
C1 C 1.01388(19) 0.67034(19) 0.82621(17)
C2 C 1.1027(2) 0.7156(3) 0.7430(2)
H1 H 1.0461 0.7023 0.6521
C3 C 1.2742(2) 0.7805(3) 0.7925(3)
H2 H 1.3319 0.8118 0.7357
C4 C 1.3593(2) 0.7984(2) 0.9268(2)
H3 H 1.4743 0.8397 0.9596
C5 C 1.2738(2) 0.7552(2) 1.0109(2)
H4 H 1.3310 0.7676 1.1011
C6 C 1.1015(2) 0.6929(2) 0.9627(2)
H5 H 1.0447 0.6661 1.0218
C7 C 0.82447(19) 0.59597(19) 0.76588(16)
C8 C 0.7456(2) 0.5981(2) 0.88436(17)
H6 H 0.7827 0.5348 0.9296
H7 H 0.7815 0.7179 0.9623
C9 C 0.5579(2) 0.5155(2) 0.81789(19)
H8 H 0.5110 0.5167 0.8950
H9 H 0.5193 0.5813 0.7768
C10 C 0.5668(2) 0.3220(2) 0.57545(17)
H10 H 0.5251 0.3820 0.5292
H11 H 0.5287 0.2005 0.5002
C11 C 0.75617(19) 0.4059(2) 0.63666(17)
H12 H 0.7967 0.4064 0.5556
C12 C 0.8116(3) 0.8665(2) 0.7878(2)
H13 H 0.7546 0.8796 0.8587
H14 H 0.7796 0.9170 0.7284
H15 H 0.9289 0.9250 0.8401
C13 C 0.1779(2) 0.2769(3) 0.6140(3)
H16 H 0.0677 0.1946 0.5869
H17 H 0.1899 0.2926 0.5302
H18 H 0.1974 0.3869 0.6965
N1 N 0.50442(16) 0.33325(17) 0.69865(15)
O1 O 0.82258(16) 0.31271(15) 0.69400(15)
H19 H 0.7865 0.2100 0.6292
O2 O 0.76934(15) 0.68538(15) 0.69311(13)
O3 O 0.29155(18) 0.03488(17) 0.53946(17)
O4 O 0.3166(2) 0.2000(2) 0.80286(17)
S1 S 0.32210(5) 0.19722(5) 0.66584(5)
loop_
_geom_bond_atom_site_label_1
_geom_bond_atom_site_label_2
_geom_bond_site_symmetry_1
_geom_bond_site_symmetry_2
C1 C2 1_555 1_555
C2 H1 1_555 1_555
C3 C2 1_555 1_555
H2 C3 1_555 1_555
C4 C3 1_555 1_555
H3 C4 1_555 1_555
C5 C4 1_555 1_555
H4 C5 1_555 1_555
C6 C1 1_555 1_555
H5 C6 1_555 1_555
C7 C1 1_555 1_555
C8 C7 1_555 1_555
H6 C8 1_555 1_555
H7 C8 1_555 1_555
C9 C8 1_555 1_555
H8 C9 1_555 1_555
H9 C9 1_555 1_555
C10 H10 1_555 1_555
H11 C10 1_555 1_555
C11 C7 1_555 1_555
H12 C11 1_555 1_555
C12 H13 1_555 1_555
H14 C12 1_555 1_555
H15 C12 1_555 1_555
C13 H16 1_555 1_555
H17 C13 1_555 1_555
H18 C13 1_555 1_555
N1 C9 1_555 1_555
O1 C11 1_555 1_555
H19 O1 1_555 1_555
O2 C7 1_555 1_555
O3 S1 1_555 1_555
O4 S1 1_555 1_555
S1 C13 1_555 1_555
C5 C6 1_555 1_555
C10 C11 1_555 1_555
C10 N1 1_555 1_555
C12 O2 1_555 1_555
N1 S1 1_555 1_555

#END
