
#######################################################################
#
#                 Cambridge Crystallographic Data Centre
#                                CCDC 
#
#######################################################################
#
# If this CIF has been generated from an entry in the Cambridge 
# Structural Database, then it will include bibliographic, chemical, 
# crystal, experimental, refinement or atomic coordinate data resulting 
# from the CCDC's data processing and validation procedures.
#
#######################################################################

data_HUTMOZ
_chemical_formula_moiety         'C20 H25 N1 O4 S1'
_chemical_name_systematic        
4-(Methoxy(diphenyl)methyl)-1-(methylsulfonyl)piperidin-4-ol
_symmetry_cell_setting           monoclinic
_symmetry_space_group_name_H-M   'C 2/c'
_symmetry_Int_Tables_number      15
_space_group_name_Hall           '-C 2yn'
loop_
_symmetry_equiv_pos_site_id
_symmetry_equiv_pos_as_xyz
1 x,y,z
2 -x,y,1/2-z
3 1/2+x,1/2+y,z
4 1/2-x,1/2+y,1/2-z
5 -x,-y,-z
6 x,-y,1/2+z
7 1/2-x,1/2-y,-z
8 1/2+x,1/2-y,1/2+z
_cell_length_a                   26.6109(4)
_cell_length_b                   7.06180(10)
_cell_length_c                   23.9712(6)
_cell_angle_alpha                90
_cell_angle_beta                 121.4790(10)
_cell_angle_gamma                90
_cell_volume                     3841.74
_exptl_crystal_colour            colorless
_exptl_crystal_description       columnar
_cell_formula_units_Z            8
loop_
_atom_site_label
_atom_site_type_symbol
_atom_site_fract_x
_atom_site_fract_y
_atom_site_fract_z
C1 C 0.13299(8) -0.2591(2) 0.19357(9)
H1 H 0.1615 -0.2466 0.1802
H2 H 0.1257 -0.3928 0.1955
C2 C 0.15700(8) -0.1696(2) 0.26046(8)
H3 H 0.1935 -0.2319 0.2919
H4 H 0.1291 -0.1886 0.2744
C3 C 0.16822(7) 0.0414(2) 0.25966(7)
C4 C 0.11033(8) 0.1333(2) 0.20711(8)
H5 H 0.0813 0.1223 0.2198
H6 H 0.1169 0.2670 0.2040
C5 C 0.08662(8) 0.0406(2) 0.14075(8)
H7 H 0.0495 0.0989 0.1088
H8 H 0.1143 0.0581 0.1264
C6 C 0.19423(7) 0.1398(2) 0.32899(8)
C7 C 0.24458(7) 0.0287(2) 0.38604(8)
C8 C 0.28926(7) -0.0540(3) 0.38018(9)
H9 H 0.2866 -0.0515 0.3400
C9 C 0.33738(8) -0.1398(3) 0.43305(10)
H10 H 0.3665 -0.1943 0.4278
C10 C 0.34255(10) -0.1451(4) 0.49252(11)
H11 H 0.3747 -0.2039 0.5278
C11 C 0.30013(11) -0.0635(5) 0.49953(11)
H12 H 0.3036 -0.0659 0.5402
C12 C 0.25147(9) 0.0238(4) 0.44718(9)
H13 H 0.2232 0.0797 0.4535
C13 C 0.14394(7) 0.1885(2) 0.34008(8)
C14 C 0.12027(8) 0.3705(3) 0.32720(10)
H14 H 0.1363 0.4637 0.3137
C15 C 0.07308(10) 0.4147(4) 0.33431(12)
H15 H 0.0579 0.5370 0.3257
C16 C 0.04873(10) 0.2800(4) 0.35390(13)
H16 H 0.0175 0.3110 0.3593
C17 C 0.07056(10) 0.0981(4) 0.36568(12)
H17 H 0.0535 0.0055 0.3782
C18 C 0.11788(8) 0.0523(3) 0.35897(9)
H18 H 0.1324 -0.0709 0.3672
C19 C 0.25721(8) 0.4213(3) 0.37573(10)
H19 H 0.2374 0.4594 0.3978
H20 H 0.2696 0.5317 0.3626
H21 H 0.2911 0.3462 0.4047
C20 C 0.06503(9) -0.2510(3) 0.02806(9)
H22 H 0.0423 -0.3235 -0.0113
H23 H 0.1049 -0.2965 0.0514
H24 H 0.0646 -0.1201 0.0171
N1 N 0.07772(6) -0.1635(2) 0.14591(7)
O1 O 0.21017(6) 0.0592(2) 0.23955(6)
H25 H 0.2261 0.1632 0.2506
O2 O 0.21804(5) 0.31225(17) 0.31930(6)
O3 O 0.03619(7) -0.4708(2) 0.09336(7)
O4 O -0.02052(6) -0.1776(2) 0.04501(7)
S1 S 0.034642(19) -0.27479(6) 0.07718(2)
loop_
_geom_bond_atom_site_label_1
_geom_bond_atom_site_label_2
_geom_bond_site_symmetry_1
_geom_bond_site_symmetry_2
C1 H1 1_555 1_555
H2 C1 1_555 1_555
C2 C1 1_555 1_555
H3 C2 1_555 1_555
H4 C2 1_555 1_555
C3 C2 1_555 1_555
C4 C3 1_555 1_555
H5 C4 1_555 1_555
H6 C4 1_555 1_555
C5 C4 1_555 1_555
H7 C5 1_555 1_555
H8 C5 1_555 1_555
C6 C3 1_555 1_555
C7 C6 1_555 1_555
C8 C7 1_555 1_555
H9 C8 1_555 1_555
C9 C8 1_555 1_555
H10 C9 1_555 1_555
C10 C9 1_555 1_555
H11 C10 1_555 1_555
C11 C10 1_555 1_555
H12 C11 1_555 1_555
C12 C7 1_555 1_555
H13 C12 1_555 1_555
C13 C6 1_555 1_555
C14 C13 1_555 1_555
H14 C14 1_555 1_555
C15 C14 1_555 1_555
H15 C15 1_555 1_555
C16 C15 1_555 1_555
H16 C16 1_555 1_555
C17 C16 1_555 1_555
H17 C17 1_555 1_555
C18 C13 1_555 1_555
H18 C18 1_555 1_555
C19 H19 1_555 1_555
H20 C19 1_555 1_555
H21 C19 1_555 1_555
C20 H22 1_555 1_555
H23 C20 1_555 1_555
H24 C20 1_555 1_555
N1 C1 1_555 1_555
O1 C3 1_555 1_555
H25 O1 1_555 1_555
O2 C6 1_555 1_555
O3 S1 1_555 1_555
O4 S1 1_555 1_555
S1 C20 1_555 1_555
C5 N1 1_555 1_555
C11 C12 1_555 1_555
C17 C18 1_555 1_555
C19 O2 1_555 1_555
N1 S1 1_555 1_555

#END
