
#######################################################################
#
#                 Cambridge Crystallographic Data Centre
#                                CCDC 
#
#######################################################################
#
# If this CIF has been generated from an entry in the Cambridge 
# Structural Database, then it will include bibliographic, chemical, 
# crystal, experimental, refinement or atomic coordinate data resulting 
# from the CCDC's data processing and validation procedures.
#
#######################################################################

data_HUTMUF
_chemical_formula_moiety         'C19 H23 N1 O4 S1'
_chemical_name_systematic        
4-(Hydroxy(diphenyl)methyl)-1-(methylsulfonyl)piperidin-4-ol
_symmetry_cell_setting           monoclinic
_symmetry_space_group_name_H-M   'P 21/c'
_symmetry_Int_Tables_number      14
_space_group_name_Hall           '-P 2ybc'
loop_
_symmetry_equiv_pos_site_id
_symmetry_equiv_pos_as_xyz
1 x,y,z
2 -x,1/2+y,1/2-z
3 -x,-y,-z
4 x,1/2-y,1/2+z
_cell_length_a                   17.7230(16)
_cell_length_b                   10.0237(9)
_cell_length_c                   10.5462(10)
_cell_angle_alpha                90
_cell_angle_beta                 93.0380(10)
_cell_angle_gamma                90
_cell_volume                     1870.9
_exptl_crystal_colour            colorless
_cell_formula_units_Z            4
loop_
_atom_site_label
_atom_site_type_symbol
_atom_site_fract_x
_atom_site_fract_y
_atom_site_fract_z
C1 C 0.61390(9) 0.65801(16) 0.88923(16)
H1 H 0.5944 0.5774 0.8484
H2 H 0.6265 0.6380 0.9778
C2 C 0.68406(9) 0.70503(15) 0.82510(15)
H3 H 0.6717 0.7170 0.7351
H4 H 0.7226 0.6365 0.8341
C3 C 0.71597(8) 0.83578(14) 0.88014(13)
C4 C 0.65210(8) 0.93941(15) 0.87469(15)
H5 H 0.6700 1.0203 0.9168
H6 H 0.6391 0.9612 0.7866
C5 C 0.58177(9) 0.89108(16) 0.93681(17)
H7 H 0.5928 0.8788 1.0271
H8 H 0.5421 0.9574 0.9259
C6 C 0.78491(8) 0.88976(15) 0.80466(13)
C7 C 0.85130(9) 0.79325(16) 0.79270(14)
C8 C 0.86653(10) 0.6812(2) 0.86811(18)
H9 H 0.8344 0.6589 0.9317
C9 C 0.92981(11) 0.6023(2) 0.8485(2)
H10 H 0.9389 0.5270 0.8985
C10 C 0.97876(11) 0.6342(2) 0.7566(2)
H11 H 1.0206 0.5808 0.7441
C11 C 0.96528(11) 0.7456(2) 0.6833(2)
H12 H 0.9986 0.7687 0.6218
C12 C 0.90204(10) 0.82384(19) 0.70059(17)
H13 H 0.8934 0.8985 0.6495
C13 C 0.81411(9) 1.01845(16) 0.86845(14)
C14 C 0.86472(10) 1.01393(19) 0.97343(16)
H14 H 0.8843 0.9322 1.0009
C15 C 0.88669(12) 1.1294(2) 1.0382(2)
H15 H 0.9208 1.1243 1.1081
C16 C 0.85832(14) 1.2508(2) 0.9995(2)
H16 H 0.8719 1.3277 1.0446
C17 C 0.80984(14) 1.2583(2) 0.8940(2)
H17 H 0.7917 1.3410 0.8664
C18 C 0.78719(11) 1.14303(19) 0.82719(19)
H18 H 0.7544 1.1494 0.7557
C19 C 0.45858(14) 0.7007(2) 1.0642(2)
H19 H 0.4693 0.7832 1.1077
H20 H 0.4932 0.6334 1.0958
H21 H 0.4078 0.6736 1.0784
N1 N 0.55602(7) 0.76432(14) 0.87946(13)
O1 O 0.73947(6) 0.80936(12) 1.01022(10)
H22 H 0.7524 0.8793 1.0453
O2 O 0.75588(7) 0.92443(12) 0.67931(10)
H23 H 0.7464 0.8562 0.6386
O3 O 0.45547(8) 0.59786(16) 0.83771(14)
O4 O 0.42284(8) 0.83532(16) 0.86170(15)
S1 S 0.46867(2) 0.72280(5) 0.90060(4)
loop_
_geom_bond_atom_site_label_1
_geom_bond_atom_site_label_2
_geom_bond_site_symmetry_1
_geom_bond_site_symmetry_2
C1 H1 1_555 1_555
H2 C1 1_555 1_555
C2 C1 1_555 1_555
H3 C2 1_555 1_555
H4 C2 1_555 1_555
C3 C2 1_555 1_555
C4 C3 1_555 1_555
H5 C4 1_555 1_555
H6 C4 1_555 1_555
C5 C4 1_555 1_555
H7 C5 1_555 1_555
H8 C5 1_555 1_555
C6 C3 1_555 1_555
C7 C6 1_555 1_555
C8 C7 1_555 1_555
H9 C8 1_555 1_555
C9 C8 1_555 1_555
H10 C9 1_555 1_555
C10 C9 1_555 1_555
H11 C10 1_555 1_555
C11 C10 1_555 1_555
H12 C11 1_555 1_555
C12 C7 1_555 1_555
H13 C12 1_555 1_555
C13 C6 1_555 1_555
C14 C13 1_555 1_555
H14 C14 1_555 1_555
C15 C14 1_555 1_555
H15 C15 1_555 1_555
C16 C15 1_555 1_555
H16 C16 1_555 1_555
C17 C16 1_555 1_555
H17 C17 1_555 1_555
C18 C13 1_555 1_555
H18 C18 1_555 1_555
C19 H19 1_555 1_555
H20 C19 1_555 1_555
H21 C19 1_555 1_555
N1 C1 1_555 1_555
O1 C3 1_555 1_555
H22 O1 1_555 1_555
O2 C6 1_555 1_555
H23 O2 1_555 1_555
O3 S1 1_555 1_555
O4 S1 1_555 1_555
S1 C19 1_555 1_555
C5 N1 1_555 1_555
C11 C12 1_555 1_555
C17 C18 1_555 1_555
N1 S1 1_555 1_555

#END
