
#######################################################################
#
#                 Cambridge Crystallographic Data Centre
#                                CCDC 
#
#######################################################################
#
# If this CIF has been generated from an entry in the Cambridge 
# Structural Database, then it will include bibliographic, chemical, 
# crystal, experimental, refinement or atomic coordinate data resulting 
# from the CCDC's data processing and validation procedures.
#
#######################################################################

data_HUTNAM
_chemical_formula_moiety         'C18 H18 F3 N1 O4 S1'
_chemical_name_systematic        
1-(Phenylsulfonyl)-4-(3-(trifluoromethyl)phenyl)piperidine-3,4-diol
_symmetry_cell_setting           orthorhombic
_symmetry_space_group_name_H-M   'P b c a'
_symmetry_Int_Tables_number      61
_space_group_name_Hall           '-P 2ac 2ab'
loop_
_symmetry_equiv_pos_site_id
_symmetry_equiv_pos_as_xyz
1 x,y,z
2 1/2-x,-y,1/2+z
3 -x,1/2+y,1/2-z
4 1/2+x,1/2-y,-z
5 -x,-y,-z
6 1/2+x,y,1/2-z
7 x,1/2-y,1/2+z
8 1/2-x,1/2+y,z
_cell_length_a                   12.9596(3)
_cell_length_b                   9.6116(3)
_cell_length_c                   30.5006(8)
_cell_angle_alpha                90
_cell_angle_beta                 90
_cell_angle_gamma                90
_cell_volume                     3799.23
_exptl_crystal_colour            colorless
_exptl_crystal_description       tabular
_cell_formula_units_Z            8
loop_
_atom_site_label
_atom_site_type_symbol
_atom_site_fract_x
_atom_site_fract_y
_atom_site_fract_z
C1 C 0.69241(16) 0.2427(2) 0.50380(7)
H1 H 0.7061 0.3347 0.4921
H2 H 0.7444 0.1793 0.4927
C2 C 0.69505(15) 0.2460(2) 0.55354(6)
H3 H 0.7619 0.2842 0.5625
C3 C 0.60980(15) 0.34088(19) 0.57265(7)
C4 C 0.50480(15) 0.3020(2) 0.55312(6)
H4 H 0.4833 0.2128 0.5649
H5 H 0.4542 0.3709 0.5620
C5 C 0.50694(16) 0.2935(2) 0.50353(7)
H6 H 0.4408 0.2612 0.4927
H7 H 0.5204 0.3847 0.4912
C6 C 0.62285(18) 0.2125(2) 0.40223(7)
C7 C 0.5597(2) 0.3143(3) 0.38531(8)
H8 H 0.4939 0.3282 0.3967
C8 C 0.5957(3) 0.3962(3) 0.35091(10)
H9 H 0.5541 0.4656 0.3391
C9 C 0.6926(3) 0.3743(4) 0.33450(10)
H10 H 0.7163 0.4284 0.3113
C10 C 0.7543(3) 0.2743(4) 0.35172(10)
H11 H 0.8203 0.2614 0.3405
C11 C 0.7204(2) 0.1917(3) 0.38579(9)
H12 H 0.7628 0.1229 0.3974
C12 C 0.61228(16) 0.3312(2) 0.62269(7)
C13 C 0.6665(2) 0.4270(3) 0.64739(8)
H13 H 0.7000 0.5002 0.6334
C14 C 0.6717(3) 0.4159(4) 0.69250(10)
H14 H 0.7082 0.4821 0.7085
C15 C 0.6239(3) 0.3089(4) 0.71400(9)
H15 H 0.6281 0.3013 0.7443
C16 C 0.5693(2) 0.2125(3) 0.68986(8)
C17 C 0.56353(19) 0.2230(3) 0.64477(7)
H16 H 0.5266 0.1569 0.6290
C18 C 0.5169(3) 0.0970(5) 0.71276(11)
N1 N 0.58906(12) 0.19586(17) 0.49062(5)
O1 O 0.47135(13) 0.08100(17) 0.43903(5)
O2 O 0.64906(15) -0.00800(16) 0.44890(6)
O3 O 0.68779(11) 0.10794(13) 0.57050(5)
H17 H 0.6378 0.0686 0.5596
O4 O 0.62787(12) 0.47913(14) 0.55777(5)
H18 H 0.6875 0.5014 0.5633
S1 S 0.57932(5) 0.10708(5) 0.445557(18)
F1 F 0.5763(3) 0.0224(4) 0.73891(12)
F2 F 0.4628(4) 0.0142(4) 0.68792(11)
F3 F 0.4403(3) 0.1490(5) 0.73959(17)
F4? F 0.5356(15) 0.0917(18) 0.7527(5)
F5? F 0.5470(13) -0.0321(14) 0.6905(4)
F6? F 0.4275(13) 0.074(3) 0.7121(8)
loop_
_geom_bond_atom_site_label_1
_geom_bond_atom_site_label_2
_geom_bond_site_symmetry_1
_geom_bond_site_symmetry_2
C1 H1 1_555 1_555
H2 C1 1_555 1_555
C2 C1 1_555 1_555
H3 C2 1_555 1_555
C3 C2 1_555 1_555
C4 C3 1_555 1_555
H4 C4 1_555 1_555
H5 C4 1_555 1_555
C5 C4 1_555 1_555
H6 C5 1_555 1_555
H7 C5 1_555 1_555
C6 C7 1_555 1_555
C7 H8 1_555 1_555
C8 C7 1_555 1_555
H9 C8 1_555 1_555
C9 C8 1_555 1_555
H10 C9 1_555 1_555
C10 C9 1_555 1_555
H11 C10 1_555 1_555
C11 C6 1_555 1_555
H12 C11 1_555 1_555
C12 C3 1_555 1_555
C13 C12 1_555 1_555
H13 C13 1_555 1_555
C14 C13 1_555 1_555
H14 C14 1_555 1_555
C15 C14 1_555 1_555
H15 C15 1_555 1_555
C16 C15 1_555 1_555
C17 C12 1_555 1_555
H16 C17 1_555 1_555
C18 C16 1_555 1_555
N1 C1 1_555 1_555
O1 S1 1_555 1_555
O2 S1 1_555 1_555
O3 C2 1_555 1_555
H17 O3 1_555 1_555
O4 C3 1_555 1_555
H18 O4 1_555 1_555
S1 C6 1_555 1_555
F1 C18 1_555 1_555
F2 C18 1_555 1_555
F3 C18 1_555 1_555
C5 N1 1_555 1_555
C10 C11 1_555 1_555
C16 C17 1_555 1_555
N1 S1 1_555 1_555

#END
