
#######################################################################
#
#                 Cambridge Crystallographic Data Centre
#                                CCDC 
#
#######################################################################
#
# If this CIF has been generated from an entry in the Cambridge 
# Structural Database, then it will include bibliographic, chemical, 
# crystal, experimental, refinement or atomic coordinate data resulting 
# from the CCDC's data processing and validation procedures.
#
#######################################################################

data_HUVGIQ
_chemical_formula_moiety         'C12 H10 N4,C4 H6 O4'
_chemical_name_systematic        
'1,4-bis(1H-imidazol-1-yl)benzene succinic acid solvate'
_symmetry_cell_setting           triclinic
_symmetry_space_group_name_H-M   'P -1'
_symmetry_Int_Tables_number      2
_space_group_name_Hall           '-P 1'
loop_
_symmetry_equiv_pos_site_id
_symmetry_equiv_pos_as_xyz
1 x,y,z
2 -x,-y,-z
_cell_length_a                   4.9923(10)
_cell_length_b                   7.9082(16)
_cell_length_c                   10.307(2)
_cell_angle_alpha                109.52(3)
_cell_angle_beta                 93.49(3)
_cell_angle_gamma                101.22(3)
_cell_volume                     372.699
_exptl_crystal_colour            yellow
_exptl_crystal_description       block
_cell_formula_units_Z            1
_exptl_crystal_recrystallization_method Methanol/dioxane
loop_
_atom_site_label
_atom_site_type_symbol
_atom_site_fract_x
_atom_site_fract_y
_atom_site_fract_z
C1 C 0.6200(3) 0.7610(3) 0.39379(17)
H1 H 0.6753 0.8338 0.4869
C2 C 0.6063(4) 0.6475(3) 0.17489(17)
H2 H 0.6538 0.6272 0.0860
C3 C 0.3794(4) 0.5526(3) 0.20445(17)
H3 H 0.2442 0.4573 0.1417
C4 C 0.1920(3) 0.5623(2) 0.42463(15)
C5 C 0.1973(4) 0.6614(3) 0.56363(17)
H4 H 0.3304 0.7700 0.6073
C6 C -0.0049(4) 0.4005(3) 0.36202(17)
H5 H -0.0083 0.3324 0.2686
N1 N 0.7576(3) 0.7775(2) 0.29269(14)
N2 N 0.3875(3) 0.6250(2) 0.34632(13)
C1A C -0.6200(3) 0.2390(3) 0.60621(17)
H1A H -0.6753 0.1662 0.5131
C2A C -0.6063(4) 0.3525(3) 0.82511(17)
H2A H -0.6538 0.3728 0.9140
C3A C -0.3794(4) 0.4474(3) 0.79555(17)
H3A H -0.2442 0.5427 0.8583
C4A C -0.1920(3) 0.4377(2) 0.57537(15)
C5A C -0.1973(4) 0.3386(3) 0.43637(17)
H4A H -0.3304 0.2300 0.3927
C6A C 0.0049(4) 0.5995(3) 0.63798(17)
H5A H 0.0083 0.6676 0.7314
N1A N -0.7576(3) 0.2225(2) 0.70731(14)
N2A N -0.3875(3) 0.3750(2) 0.65368(13)
C7 C 0.2279(3) 0.9264(2) 0.10710(16)
C8 C 0.4868(3) 1.0309(2) 0.07655(15)
H6 H 0.6450 1.0145 0.1265
H7 H 0.4880 1.1613 0.1102
O1 O 0.2076(2) 0.98116(19) 0.24215(11)
H8 H 0.0670 0.9191 0.2551
O2 O 0.0573(2) 0.80714(18) 0.01940(12)
C7A C 0.7721(3) 1.0736(2) -0.10710(16)
C8A C 0.5132(3) 0.9691(2) -0.07655(15)
H6A H 0.3550 0.9855 -0.1265
H7A H 0.5120 0.8387 -0.1102
O1A O 0.7924(2) 1.01884(19) -0.24215(11)
H8A H 0.9330 1.0809 -0.2551
O2A O 0.9427(2) 1.19286(18) -0.01940(12)
loop_
_geom_bond_atom_site_label_1
_geom_bond_atom_site_label_2
_geom_bond_site_symmetry_1
_geom_bond_site_symmetry_2
C1 H1 1_555 1_555
C2 H2 1_555 1_555
C3 C2 1_555 1_555
H3 C3 1_555 1_555
C4 C5 1_555 1_555
C5 H4 1_555 1_555
C6 C4 1_555 1_555
H5 C6 1_555 1_555
N1 C1 1_555 1_555
N2 C1 1_555 1_555
C7 C8 1_555 1_555
C8 H6 1_555 1_555
H7 C8 1_555 1_555
O1 C7 1_555 1_555
H8 O1 1_555 1_555
O2 C7 1_555 1_555
C1A H1A 1_555 1_555
C2A H2A 1_555 1_555
C3A C2A 1_555 1_555
H3A C3A 1_555 1_555
C4A C5A 1_555 1_555
C5A C6 1_555 1_555
H4A C5A 1_555 1_555
C6A C5 1_555 1_555
H5A C6A 1_555 1_555
N1A C1A 1_555 1_555
N2A C1A 1_555 1_555
C7A C8A 1_555 1_555
C8A C8 1_555 1_555
H6A C8A 1_555 1_555
H7A C8A 1_555 1_555
O1A C7A 1_555 1_555
H8A O1A 1_555 1_555
O2A C7A 1_555 1_555
C2 N1 1_555 1_555
C3 N2 1_555 1_555
C4 N2 1_555 1_555
C2A N1A 1_555 1_555
C3A N2A 1_555 1_555
C4A C6A 1_555 1_555
C4A N2A 1_555 1_555

#END
