
#######################################################################
#
#                 Cambridge Crystallographic Data Centre
#                                CCDC 
#
#######################################################################
#
# If this CIF has been generated from an entry in the Cambridge 
# Structural Database, then it will include bibliographic, chemical, 
# crystal, experimental, refinement or atomic coordinate data resulting 
# from the CCDC's data processing and validation procedures.
#
#######################################################################

data_HUVGIO
_chemical_formula_moiety         'C36 H32 N6 O12 P2'
_chemical_name_systematic        
'bis(2,5-bis(o-phenylene)-1,3,4-oxadiaxole) bis(N-(1-methoxycarbonylethyl)phosphoramidate)'
_symmetry_cell_setting           monoclinic
_symmetry_space_group_name_H-M   'C 2'
_symmetry_Int_Tables_number      5
_space_group_name_Hall           'C 2y'
loop_
_symmetry_equiv_pos_site_id
_symmetry_equiv_pos_as_xyz
1 x,y,z
2 -x,y,-z
3 1/2+x,1/2+y,z
4 1/2-x,1/2+y,-z
_cell_length_a                   25.7299(5)
_cell_length_b                   9.3305(3)
_cell_length_c                   17.6271(4)
_cell_angle_alpha                90
_cell_angle_beta                 117.4834(13)
_cell_angle_gamma                90
_cell_volume                     3754.21
_exptl_crystal_colour            colorless
_exptl_crystal_description       block
_cell_formula_units_Z            4
_exptl_crystal_recrystallization_method chloroform/acetone
loop_
_atom_site_label
_atom_site_type_symbol
_atom_site_fract_x
_atom_site_fract_y
_atom_site_fract_z
P1 P 0.1809(1) 0.1703(1) 0.1326(1)
O1 O 0.2425(1) 0.1343(2) 0.1848(1)
O2 O 0.1604(1) 0.1829(2) 0.0327(1)
O3 O 0.1368(1) 0.0471(2) 0.1281(1)
O4 O -0.0159(1) -0.0670(2) 0.1341(1)
O5 O 0.0985(1) 0.3999(3) 0.2379(1)
O6 O 0.0255(1) 0.4818(2) 0.1167(1)
N1 N 0.1628(1) 0.3212(3) 0.1559(1)
N2 N 0.0234(1) 0.1245(3) 0.1085(1)
N3 N -0.0376(1) 0.1449(3) 0.0720(1)
C1 C 0.1671(1) 0.0676(3) -0.0124(1)
C2 C 0.2226(1) 0.0326(3) -0.0012(2)
C3 C 0.2295(1) -0.0735(4) -0.0494(2)
C4 C 0.1815(1) -0.1455(3) -0.1091(2)
C5 C 0.1267(1) -0.1133(3) -0.1191(2)
C6 C 0.1180(1) -0.0051(3) -0.0715(1)
C7 C 0.1407(1) -0.0415(3) 0.1938(1)
C8 C 0.1932(1) -0.1032(4) 0.2502(2)
C9 C 0.1941(1) -0.2011(4) 0.3098(2)
C10 C 0.1435(1) -0.2380(4) 0.3119(2)
C11 C 0.0914(1) -0.1736(3) 0.2572(2)
C12 C 0.0894(1) -0.0738(3) 0.1974(1)
C13 C 0.0340(1) 0.0002(3) 0.1443(1)
C14 C 0.0586(1) 0.0322(3) -0.0886(1)
C15 C 0.1080(1) 0.3983(3) 0.1085(1)
C16 C 0.1191(1) 0.5429(4) 0.0776(2)
C17 C 0.0784(1) 0.4232(3) 0.1636(2)
C18 C -0.0091(1) 0.5098(4) 0.1601(2)
H1 H 0.2552 0.0814 0.0391
H2 H 0.2667 -0.0968 -0.0417
H3 H 0.1861 -0.2161 -0.1427
H4 H 0.0946 -0.1648 -0.1584
H5 H 0.2276 -0.0791 0.2483
H6 H 0.2294 -0.2421 0.3485
H7 H 0.1442 -0.3069 0.3505
H8 H 0.0573 -0.1970 0.2602
H9 H 0.0821 0.3411 0.0588
H10 H 0.1467 0.5971 0.1256
H11 H 0.0830 0.5950 0.0496
H12 H 0.1347 0.5273 0.0381
H13 H -0.0293 0.4240 0.1612
H14 H -0.0371 0.5837 0.1303
H15 H 0.0160 0.5404 0.2175
H16 H 0.1869(11) 0.3590(30) 0.1982(16)
O4A O 0.0159(1) -0.0670(2) -0.1341(1)
C13A C -0.0340(1) 0.0002(3) -0.1443(1)
N2A N -0.0234(1) 0.1245(3) -0.1085(1)
N3A N 0.0376(1) 0.1449(3) -0.0720(1)
C12A C -0.0894(1) -0.0738(3) -0.1974(1)
C7A C -0.1407(1) -0.0415(3) -0.1938(1)
O3A O -0.1368(1) 0.0471(2) -0.1281(1)
P1A P -0.1809(1) 0.1703(1) -0.1326(1)
O1A O -0.2425(1) 0.1343(2) -0.1848(1)
O2A O -0.1604(1) 0.1829(2) -0.0327(1)
C1A C -0.1671(1) 0.0676(3) 0.0124(1)
C2A C -0.2226(1) 0.0326(3) 0.0012(2)
C3A C -0.2295(1) -0.0735(4) 0.0494(2)
C4A C -0.1815(1) -0.1455(3) 0.1091(2)
C5A C -0.1267(1) -0.1133(3) 0.1191(2)
C6A C -0.1180(1) -0.0051(3) 0.0715(1)
C14A C -0.0586(1) 0.0322(3) 0.0886(1)
H4A H -0.0946 -0.1648 0.1584
H3A H -0.1861 -0.2161 0.1427
H2A H -0.2667 -0.0968 0.0417
H1A H -0.2552 0.0814 -0.0391
N1A N -0.1628(1) 0.3212(3) -0.1559(1)
C15A C -0.1080(1) 0.3983(3) -0.1085(1)
C16A C -0.1191(1) 0.5429(4) -0.0776(2)
H10A H -0.1467 0.5971 -0.1256
H11A H -0.0830 0.5950 -0.0496
H12A H -0.1347 0.5273 -0.0381
C17A C -0.0784(1) 0.4232(3) -0.1636(2)
O5A O -0.0985(1) 0.3999(3) -0.2379(1)
O6A O -0.0255(1) 0.4818(2) -0.1167(1)
C18A C 0.0091(1) 0.5098(4) -0.1601(2)
H13A H 0.0293 0.4240 -0.1612
H14A H 0.0371 0.5837 -0.1303
H15A H -0.0160 0.5404 -0.2175
H9A H -0.0821 0.3411 -0.0588
H16A H -0.1869(11) 0.3590(30) -0.1982(16)
C8A C -0.1932(1) -0.1032(4) -0.2502(2)
C9A C -0.1941(1) -0.2011(4) -0.3098(2)
C10A C -0.1435(1) -0.2380(4) -0.3119(2)
C11A C -0.0914(1) -0.1736(3) -0.2572(2)
H8A H -0.0573 -0.1970 -0.2602
H7A H -0.1442 -0.3069 -0.3505
H6A H -0.2294 -0.2421 -0.3485
H5A H -0.2276 -0.0791 -0.2483
P2 P 0.3215(1) 0.4044(1) 0.3582(1)
O7 O 0.2605(1) 0.4428(2) 0.3022(1)
O8 O 0.3379(1) 0.3803(2) 0.4557(1)
O9 O 0.3672(1) 0.5288(2) 0.3708(1)
O10 O 0.5216(1) 0.6128(2) 0.3569(1)
O11 O 0.3383(1) 0.0019(3) 0.4032(2)
O12 O 0.4303(1) 0.0156(4) 0.4898(2)
N4 N 0.3425(1) 0.2612(2) 0.3307(1)
N5 N 0.4805(1) 0.4432(3) 0.3951(2)
N6 N 0.5411(1) 0.4153(3) 0.4318(2)
C19 C 0.3285(1) 0.4858(3) 0.5045(1)
C20 C 0.2717(1) 0.5184(3) 0.4875(2)
C21 C 0.2623(1) 0.6160(3) 0.5392(2)
C22 C 0.3090(1) 0.6782(3) 0.6075(2)
C23 C 0.3653(1) 0.6459(3) 0.6238(2)
C24 C 0.3760(1) 0.5494(3) 0.5723(1)
C25 C 0.3653(1) 0.6153(3) 0.3048(1)
C26 C 0.3145(1) 0.6881(3) 0.2511(2)
C27 C 0.3154(1) 0.7791(3) 0.1900(2)
C28 C 0.3654(1) 0.8000(4) 0.1824(2)
C29 C 0.4156(1) 0.7298(3) 0.2367(2)
C30 C 0.4167(1) 0.6345(3) 0.2981(1)
C31 C 0.4713(1) 0.5584(3) 0.3523(1)
C32 C 0.4367(1) 0.5178(3) 0.5914(1)
C33 C 0.3963(1) 0.1826(3) 0.3824(1)
C34 C 0.4236(1) 0.1294(4) 0.3273(2)
C35 C 0.3840(1) 0.0580(3) 0.4253(2)
C36 C 0.4224(3) -0.1111(7) 0.5336(5)
H17 H 0.2402 0.4754 0.4418
H18 H 0.2242 0.6394 0.5277
H19 H 0.3024 0.7421 0.6426
H20 H 0.3966 0.6890 0.6698
H21 H 0.2804 0.6758 0.2562
H22 H 0.2814 0.8272 0.1533
H23 H 0.3653 0.8614 0.1408
H24 H 0.4498 0.7461 0.2324
H25 H 0.4241 0.2469 0.4264
H26 H 0.3966 0.0662 0.2840
H27 H 0.4591 0.0787 0.3624
H28 H 0.4321 0.2095 0.3008
H29 H 0.3929 -0.0912 0.5512
H30 H 0.4587 -0.1330 0.5830
H31 H 0.4105 -0.1915 0.4953
H32 H 0.3175(11) 0.2140(30) 0.3014(16)
O10A O 0.4784(1) 0.6128(2) 0.6431(1)
C31A C 0.5287(1) 0.5584(3) 0.6477(1)
N5A N 0.5195(1) 0.4432(3) 0.6049(2)
N6A N 0.4589(1) 0.4153(3) 0.5682(2)
C30A C 0.5833(1) 0.6345(3) 0.7019(1)
C25A C 0.6347(1) 0.6153(3) 0.6952(1)
O9A O 0.6328(1) 0.5288(2) 0.6292(1)
P2A P 0.6785(1) 0.4044(1) 0.6418(1)
O7A O 0.7395(1) 0.4428(2) 0.6978(1)
O8A O 0.6621(1) 0.3803(2) 0.5443(1)
C19A C 0.6715(1) 0.4858(3) 0.4955(1)
C20A C 0.7283(1) 0.5184(3) 0.5125(2)
C21A C 0.7377(1) 0.6160(3) 0.4608(2)
C22A C 0.6910(1) 0.6782(3) 0.3925(2)
C23A C 0.6347(1) 0.6459(3) 0.3762(2)
C24A C 0.6240(1) 0.5494(3) 0.4277(1)
C32A C 0.5633(1) 0.5178(3) 0.4086(1)
H20A H 0.6034 0.6890 0.3302
H19A H 0.6976 0.7421 0.3574
H18A H 0.7758 0.6394 0.4723
H17A H 0.7598 0.4754 0.5582
N4A N 0.6575(1) 0.2612(2) 0.6693(1)
C33A C 0.6037(1) 0.1826(3) 0.6176(1)
C34A C 0.5764(1) 0.1294(4) 0.6727(2)
H26A H 0.6034 0.0662 0.7160
H27A H 0.5409 0.0787 0.6376
H28A H 0.5679 0.2095 0.6992
C35A C 0.6160(1) 0.0580(3) 0.5747(2)
O11A O 0.6617(1) 0.0019(3) 0.5968(2)
O12A O 0.5697(1) 0.0156(4) 0.5102(2)
C36A C 0.5776(3) -0.1111(7) 0.4664(5)
H29A H 0.6071 -0.0912 0.4488
H30A H 0.5413 -0.1330 0.4170
H31A H 0.5895 -0.1915 0.5047
H25A H 0.5759 0.2469 0.5736
H32A H 0.6825(11) 0.2140(30) 0.6986(16)
C26A C 0.6855(1) 0.6881(3) 0.7489(2)
C27A C 0.6846(1) 0.7791(3) 0.8100(2)
C28A C 0.6346(1) 0.8000(4) 0.8176(2)
C29A C 0.5844(1) 0.7298(3) 0.7633(2)
H24A H 0.5502 0.7461 0.7676
H23A H 0.6347 0.8614 0.8592
H22A H 0.7186 0.8272 0.8467
H21A H 0.7196 0.6758 0.7438
loop_
_geom_bond_atom_site_label_1
_geom_bond_atom_site_label_2
_geom_bond_site_symmetry_1
_geom_bond_site_symmetry_2
P1 O1 1_555 1_555
O2 P1 1_555 1_555
O3 P1 1_555 1_555
O4 C13 1_555 1_555
O5 C17 1_555 1_555
O6 C17 1_555 1_555
N1 P1 1_555 1_555
N2 N3 1_555 1_555
N3 C14A 1_555 1_555
C1 O2 1_555 1_555
C2 C1 1_555 1_555
C3 C2 1_555 1_555
C4 C3 1_555 1_555
C5 C4 1_555 1_555
C6 C1 1_555 1_555
C7 O3 1_555 1_555
C8 C7 1_555 1_555
C9 C8 1_555 1_555
C10 C9 1_555 1_555
C11 C10 1_555 1_555
C12 C7 1_555 1_555
C13 N2 1_555 1_555
C14 C6 1_555 1_555
C15 N1 1_555 1_555
C16 C15 1_555 1_555
C17 C15 1_555 1_555
C18 O6 1_555 1_555
P2 O7 1_555 1_555
O8 P2 1_555 1_555
O9 P2 1_555 1_555
O10 C31 1_555 1_555
O11 C35 1_555 1_555
O12 C35 1_555 1_555
N4 P2 1_555 1_555
N5 N6 1_555 1_555
N6 C32A 1_555 1_555
C19 O8 1_555 1_555
C20 C19 1_555 1_555
C21 C20 1_555 1_555
C22 C21 1_555 1_555
C23 C22 1_555 1_555
C24 C19 1_555 1_555
C25 O9 1_555 1_555
C26 C25 1_555 1_555
C27 C26 1_555 1_555
C28 C27 1_555 1_555
C29 C28 1_555 1_555
C30 C25 1_555 1_555
C31 N5 1_555 1_555
C32 C24 1_555 1_555
C33 N4 1_555 1_555
C34 C33 1_555 1_555
C35 C33 1_555 1_555
C36 O12 1_555 1_555
H1 C2 1_555 1_555
H2 C3 1_555 1_555
H3 C4 1_555 1_555
H4 C5 1_555 1_555
H5 C8 1_555 1_555
H6 C9 1_555 1_555
H7 C10 1_555 1_555
H8 C11 1_555 1_555
H9 C15 1_555 1_555
H10 C16 1_555 1_555
H11 C16 1_555 1_555
H12 C16 1_555 1_555
H13 C18 1_555 1_555
H14 C18 1_555 1_555
H15 C18 1_555 1_555
H16 N1 1_555 1_555
H17 C20 1_555 1_555
H18 C21 1_555 1_555
H19 C22 1_555 1_555
H20 C23 1_555 1_555
H21 C26 1_555 1_555
H22 C27 1_555 1_555
H23 C28 1_555 1_555
H24 C29 1_555 1_555
H25 C33 1_555 1_555
H26 C34 1_555 1_555
H27 C34 1_555 1_555
H28 C34 1_555 1_555
H29 C36 1_555 1_555
H30 C36 1_555 1_555
H31 C36 1_555 1_555
H32 N4 1_555 1_555
O4A C14 1_555 1_555
C13A O4A 1_555 1_555
N2A C13A 1_555 1_555
N3A C14 1_555 1_555
C12A C13A 1_555 1_555
C7A C12A 1_555 1_555
O3A C7A 1_555 1_555
P1A O3A 1_555 1_555
O1A P1A 1_555 1_555
O2A P1A 1_555 1_555
C1A O2A 1_555 1_555
C2A C1A 1_555 1_555
C3A C2A 1_555 1_555
C4A C3A 1_555 1_555
C5A C4A 1_555 1_555
C6A C1A 1_555 1_555
C14A O4 1_555 1_555
H4A C5A 1_555 1_555
H3A C4A 1_555 1_555
H2A C3A 1_555 1_555
H1A C2A 1_555 1_555
N1A P1A 1_555 1_555
C15A N1A 1_555 1_555
C16A C15A 1_555 1_555
H10A C16A 1_555 1_555
H11A C16A 1_555 1_555
H12A C16A 1_555 1_555
C17A C15A 1_555 1_555
O5A C17A 1_555 1_555
O6A C17A 1_555 1_555
C18A O6A 1_555 1_555
H13A C18A 1_555 1_555
H14A C18A 1_555 1_555
H15A C18A 1_555 1_555
H9A C15A 1_555 1_555
H16A N1A 1_555 1_555
C8A C7A 1_555 1_555
C9A C8A 1_555 1_555
C10A C9A 1_555 1_555
C11A C12A 1_555 1_555
H8A C11A 1_555 1_555
H7A C10A 1_555 1_555
H6A C9A 1_555 1_555
H5A C8A 1_555 1_555
O10A C32 1_555 1_555
C31A O10A 1_555 1_555
N5A C31A 1_555 1_555
N6A C32 1_555 1_555
C30A C31A 1_555 1_555
C25A C30A 1_555 1_555
O9A C25A 1_555 1_555
P2A O9A 1_555 1_555
O7A P2A 1_555 1_555
O8A P2A 1_555 1_555
C19A O8A 1_555 1_555
C20A C19A 1_555 1_555
C21A C20A 1_555 1_555
C22A C21A 1_555 1_555
C23A C22A 1_555 1_555
C24A C19A 1_555 1_555
C32A O10 1_555 1_555
H20A C23A 1_555 1_555
H19A C22A 1_555 1_555
H18A C21A 1_555 1_555
H17A C20A 1_555 1_555
N4A P2A 1_555 1_555
C33A N4A 1_555 1_555
C34A C33A 1_555 1_555
H26A C34A 1_555 1_555
H27A C34A 1_555 1_555
H28A C34A 1_555 1_555
C35A C33A 1_555 1_555
O11A C35A 1_555 1_555
O12A C35A 1_555 1_555
C36A O12A 1_555 1_555
H29A C36A 1_555 1_555
H30A C36A 1_555 1_555
H31A C36A 1_555 1_555
H25A C33A 1_555 1_555
H32A N4A 1_555 1_555
C26A C25A 1_555 1_555
C27A C26A 1_555 1_555
C28A C27A 1_555 1_555
C29A C30A 1_555 1_555
H24A C29A 1_555 1_555
H23A C28A 1_555 1_555
H22A C27A 1_555 1_555
H21A C26A 1_555 1_555
C5 C6 1_555 1_555
C11 C12 1_555 1_555
C12 C13 1_555 1_555
C23 C24 1_555 1_555
C29 C30 1_555 1_555
C30 C31 1_555 1_555
N2A N3A 1_555 1_555
C5A C6A 1_555 1_555
C6A C14A 1_555 1_555
C10A C11A 1_555 1_555
N5A N6A 1_555 1_555
C23A C24A 1_555 1_555
C24A C32A 1_555 1_555
C28A C29A 1_555 1_555

#END
