
#######################################################################
#
#                 Cambridge Crystallographic Data Centre
#                                CCDC 
#
#######################################################################
#
# If this CIF has been generated from an entry in the Cambridge 
# Structural Database, then it will include bibliographic, chemical, 
# crystal, experimental, refinement or atomic coordinate data resulting 
# from the CCDC's data processing and validation procedures.
#
#######################################################################

data_HUVLIU
_chemical_name_common            04020a
_chemical_formula_moiety         'C45 H49 N4 O9 1+,Cl1 O4 1-'
_chemical_name_systematic        
'(6-(3,4,5-Trimethoxyphenyl)pyridin-2-yl)-N,N-bis((6-(3,4,5-trimethoxyphenyl)pyridin-2-yl)methyl)methanaminium perchlorate'
_symmetry_cell_setting           monoclinic
_symmetry_space_group_name_H-M   'P 21/n'
_symmetry_Int_Tables_number      14
_space_group_name_Hall           '-P 2yn'
loop_
_symmetry_equiv_pos_site_id
_symmetry_equiv_pos_as_xyz
1 x,y,z
2 1/2-x,1/2+y,1/2-z
3 -x,-y,-z
4 1/2+x,1/2-y,1/2+z
_cell_length_a                   13.7244(16)
_cell_length_b                   11.3897(13)
_cell_length_c                   27.094(3)
_cell_angle_alpha                90
_cell_angle_beta                 95.030(2)
_cell_angle_gamma                90
_cell_volume                     4218.94
_exptl_crystal_colour            colorless
_exptl_crystal_description       block
_cell_formula_units_Z            4
loop_
_atom_site_label
_atom_site_type_symbol
_atom_site_fract_x
_atom_site_fract_y
_atom_site_fract_z
N1 N 0.2319(2) 0.1969(3) 0.12753(10)
H1 H 0.2358 0.2701 0.1428
C1 C 0.2840(3) 0.2035(3) 0.08142(13)
H2 H 0.2426 0.2465 0.0557
H3 H 0.2939 0.1230 0.0690
C2 C 0.3812(3) 0.2638(3) 0.08965(13)
C3 C 0.4468(3) 0.2556(4) 0.05370(14)
H4 H 0.4310 0.2121 0.0242
C4 C 0.5347(3) 0.3117(4) 0.06172(14)
H5 H 0.5807 0.3083 0.0375
C5 C 0.5564(3) 0.3733(4) 0.10500(14)
H6 H 0.6178 0.4112 0.1112
C6 C 0.4874(3) 0.3793(3) 0.13949(13)
N2 N 0.3998(2) 0.3242(3) 0.13161(10)
C7 C 0.5079(3) 0.4419(3) 0.18737(13)
C8 C 0.5773(3) 0.5310(3) 0.19160(14)
H7 H 0.6078 0.5562 0.1633
C9 C 0.6017(3) 0.5830(4) 0.23709(15)
C10 C 0.5566(3) 0.5466(4) 0.27874(14)
C11 C 0.4853(3) 0.4599(3) 0.27387(13)
C12 C 0.4609(3) 0.4075(3) 0.22815(13)
H8 H 0.4121 0.3482 0.2249
O1 O 0.66807(19) 0.6712(3) 0.24530(10)
C13 C 0.7109(3) 0.7179(4) 0.20302(17)
H9 H 0.7542 0.7835 0.2134
H10 H 0.6591 0.7457 0.1786
H11 H 0.7488 0.6565 0.1881
O2 O 0.57969(19) 0.5975(3) 0.32407(10)
C14 C 0.6671(3) 0.5500(5) 0.34867(17)
H12 H 0.6863 0.5964 0.3784
H13 H 0.7195 0.5524 0.3263
H14 H 0.6555 0.4685 0.3582
O3 O 0.4439(2) 0.4322(3) 0.31630(9)
C15 C 0.3770(3) 0.3370(4) 0.31378(15)
H15 H 0.3515 0.3261 0.3462
H16 H 0.4104 0.2653 0.3046
H17 H 0.3227 0.3539 0.2888
C16 C 0.2804(3) 0.1094(3) 0.16222(13)
H18 H 0.3522 0.1179 0.1621
H19 H 0.2628 0.0295 0.1501
C17 C 0.2531(3) 0.1213(3) 0.21468(13)
C18 C 0.2999(3) 0.0481(4) 0.25049(14)
H20 H 0.3504 -0.0036 0.2423
C19 C 0.2716(3) 0.0519(4) 0.29820(15)
H21 H 0.3009 0.0017 0.3233
C20 C 0.2004(3) 0.1300(4) 0.30842(14)
H22 H 0.1792 0.1337 0.3408
C21 C 0.1591(3) 0.2036(3) 0.27159(13)
N3 N 0.1858(2) 0.1989(3) 0.22456(11)
C22 C 0.0859(3) 0.2927(3) 0.28192(14)
C23 C 0.0870(3) 0.3420(4) 0.32927(15)
H23 H 0.1334 0.3158 0.3550
C24 C 0.0214(3) 0.4276(4) 0.33869(14)
C25 C -0.0487(3) 0.4638(4) 0.30208(15)
C26 C -0.0521(3) 0.4132(4) 0.25498(15)
C27 C 0.0162(3) 0.3290(4) 0.24489(15)
H24 H 0.0154 0.2962 0.2126
O4 O 0.0301(2) 0.4848(3) 0.38390(11)
C28 C -0.0325(4) 0.4425(5) 0.41768(18)
H25 H -0.0194 0.4835 0.4494
H26 H -0.0217 0.3581 0.4226
H27 H -0.1005 0.4562 0.4048
O5 O -0.1168(2) 0.5464(3) 0.31209(12)
C29 C -0.0958(4) 0.6592(4) 0.2942(2)
H28 H -0.1464 0.7145 0.3028
H29 H -0.0947 0.6563 0.2581
H30 H -0.0319 0.6851 0.3093
O6 O -0.1253(2) 0.4514(3) 0.22223(11)
C30 C -0.1287(4) 0.4094(5) 0.17328(16)
H31 H -0.1835 0.4462 0.1534
H32 H -0.1377 0.3240 0.1732
H33 H -0.0673 0.4286 0.1591
C31 C 0.1267(3) 0.1679(3) 0.11530(13)
H34 H 0.0980 0.1421 0.1458
H35 H 0.1214 0.1019 0.0914
C32 C 0.0696(3) 0.2715(3) 0.09330(12)
C33 C -0.0261(3) 0.2540(3) 0.07491(13)
H36 H -0.0548 0.1781 0.0752
C34 C -0.0795(3) 0.3492(4) 0.05605(13)
H37 H -0.1462 0.3406 0.0439
C35 C -0.0343(3) 0.4561(3) 0.05520(12)
H38 H -0.0694 0.5225 0.0419
C36 C 0.0628(3) 0.4678(3) 0.07368(12)
N4 N 0.1141(2) 0.3755(3) 0.09360(10)
C37 C 0.1151(2) 0.5808(3) 0.06959(12)
C38 C 0.0627(3) 0.6855(3) 0.06629(13)
H39 H -0.0054 0.6852 0.0702
C39 C 0.1096(3) 0.7901(3) 0.05728(13)
C40 C 0.2096(3) 0.7918(3) 0.05304(12)
C41 C 0.2622(3) 0.6872(3) 0.05665(12)
C42 C 0.2148(3) 0.5817(3) 0.06455(12)
H40 H 0.2508 0.5103 0.0665
O7 O 0.0640(2) 0.8964(2) 0.05181(11)
C43 C -0.0401(3) 0.8949(4) 0.0498(2)
H41 H -0.0656 0.9732 0.0408
H42 H -0.0606 0.8727 0.0823
H43 H -0.0658 0.8379 0.0249
O8 O 0.25524(19) 0.8979(2) 0.04708(9)
C44 C 0.2793(4) 0.9211(4) -0.00162(16)
H44 H 0.3011 1.0027 -0.0039
H45 H 0.2216 0.9084 -0.0250
H46 H 0.3319 0.8682 -0.0098
O9 O 0.35965(18) 0.6976(2) 0.05109(10)
C45 C 0.4172(3) 0.5944(4) 0.05764(17)
H47 H 0.4857 0.6133 0.0536
H48 H 0.3939 0.5358 0.0329
H49 H 0.4119 0.5628 0.0909
Cl1 Cl -0.25432(7) 0.68166(10) 0.05914(4)
O10 O -0.1796(2) 0.6800(3) 0.09914(11)
O11 O -0.2815(3) 0.7997(4) 0.04763(17)
O12 O -0.2148(3) 0.6402(4) 0.01624(12)
O13 O -0.3343(4) 0.6248(6) 0.0729(2)
loop_
_geom_bond_atom_site_label_1
_geom_bond_atom_site_label_2
_geom_bond_site_symmetry_1
_geom_bond_site_symmetry_2
N1 H1 1_555 1_555
C1 N1 1_555 1_555
H2 C1 1_555 1_555
H3 C1 1_555 1_555
C2 C1 1_555 1_555
C3 C2 1_555 1_555
H4 C3 1_555 1_555
C4 C3 1_555 1_555
H5 C4 1_555 1_555
C5 C4 1_555 1_555
H6 C5 1_555 1_555
C6 C5 1_555 1_555
N2 C2 1_555 1_555
C7 C6 1_555 1_555
C8 C7 1_555 1_555
H7 C8 1_555 1_555
C9 C8 1_555 1_555
C10 C9 1_555 1_555
C11 C10 1_555 1_555
C12 C7 1_555 1_555
H8 C12 1_555 1_555
O1 C9 1_555 1_555
C13 O1 1_555 1_555
H9 C13 1_555 1_555
H10 C13 1_555 1_555
H11 C13 1_555 1_555
O2 C10 1_555 1_555
C14 O2 1_555 1_555
H12 C14 1_555 1_555
H13 C14 1_555 1_555
H14 C14 1_555 1_555
O3 C11 1_555 1_555
C15 O3 1_555 1_555
H15 C15 1_555 1_555
H16 C15 1_555 1_555
H17 C15 1_555 1_555
C16 N1 1_555 1_555
H18 C16 1_555 1_555
H19 C16 1_555 1_555
C17 C16 1_555 1_555
C18 C17 1_555 1_555
H20 C18 1_555 1_555
C19 C18 1_555 1_555
H21 C19 1_555 1_555
C20 C19 1_555 1_555
H22 C20 1_555 1_555
C21 C20 1_555 1_555
N3 C17 1_555 1_555
C22 C21 1_555 1_555
C23 C22 1_555 1_555
H23 C23 1_555 1_555
C24 C23 1_555 1_555
C25 C24 1_555 1_555
C26 C25 1_555 1_555
C27 C22 1_555 1_555
H24 C27 1_555 1_555
O4 C24 1_555 1_555
C28 O4 1_555 1_555
H25 C28 1_555 1_555
H26 C28 1_555 1_555
H27 C28 1_555 1_555
O5 C25 1_555 1_555
C29 O5 1_555 1_555
H28 C29 1_555 1_555
H29 C29 1_555 1_555
H30 C29 1_555 1_555
O6 C26 1_555 1_555
C30 O6 1_555 1_555
H31 C30 1_555 1_555
H32 C30 1_555 1_555
H33 C30 1_555 1_555
C31 N1 1_555 1_555
H34 C31 1_555 1_555
H35 C31 1_555 1_555
C32 C31 1_555 1_555
C33 C32 1_555 1_555
H36 C33 1_555 1_555
C34 C33 1_555 1_555
H37 C34 1_555 1_555
C35 C34 1_555 1_555
H38 C35 1_555 1_555
C36 C35 1_555 1_555
N4 C32 1_555 1_555
C37 C36 1_555 1_555
C38 C37 1_555 1_555
H39 C38 1_555 1_555
C39 C38 1_555 1_555
C40 C39 1_555 1_555
C41 C40 1_555 1_555
C42 C37 1_555 1_555
H40 C42 1_555 1_555
O7 C39 1_555 1_555
C43 O7 1_555 1_555
H41 C43 1_555 1_555
H42 C43 1_555 1_555
H43 C43 1_555 1_555
O8 C40 1_555 1_555
C44 O8 1_555 1_555
H44 C44 1_555 1_555
H45 C44 1_555 1_555
H46 C44 1_555 1_555
O9 C41 1_555 1_555
C45 O9 1_555 1_555
H47 C45 1_555 1_555
H48 C45 1_555 1_555
H49 C45 1_555 1_555
Cl1 O10 1_555 1_555
O11 Cl1 1_555 1_555
O12 Cl1 1_555 1_555
O13 Cl1 1_555 1_555
C6 N2 1_555 1_555
C11 C12 1_555 1_555
C21 N3 1_555 1_555
C26 C27 1_555 1_555
C36 N4 1_555 1_555
C41 C42 1_555 1_555

#END
