
#######################################################################
#
#                 Cambridge Crystallographic Data Centre
#                                CCDC 
#
#######################################################################
#
# If this CIF has been generated from an entry in the Cambridge 
# Structural Database, then it will include bibliographic, chemical, 
# crystal, experimental, refinement or atomic coordinate data resulting 
# from the CCDC's data processing and validation procedures.
#
#######################################################################

data_HUVWAX
_chemical_formula_moiety         'C40 H36 O6 P2,2(C1 H1 Cl3)'
_chemical_name_systematic        
"(3,3',6,6'-Tetramethoxybiphenyl-2,2'-diyl)bis(diphenylphosphine) dioxide chloroform solvate"
_symmetry_cell_setting           triclinic
_symmetry_space_group_name_H-M   'P -1'
_symmetry_Int_Tables_number      2
_space_group_name_Hall           '-P 1'
loop_
_symmetry_equiv_pos_site_id
_symmetry_equiv_pos_as_xyz
1 x,y,z
2 -x,-y,-z
_cell_length_a                   8.8500(9)
_cell_length_b                   12.3336(18)
_cell_length_c                   21.653(3)
_cell_angle_alpha                86.688(16)
_cell_angle_beta                 78.168(14)
_cell_angle_gamma                68.993(11)
_cell_volume                     2159.19
_exptl_crystal_colour            colorless
_exptl_crystal_description       block
_cell_formula_units_Z            2
loop_
_atom_site_label
_atom_site_type_symbol
_atom_site_fract_x
_atom_site_fract_y
_atom_site_fract_z
Cl1 Cl 0.2739(6) 0.2829(4) 0.1490(2)
Cl2 Cl 0.5376(4) 0.3641(3) 0.1288(3)
Cl3 Cl 0.3804(5) 0.3257(3) 0.25480(16)
C41 C 0.3564(7) 0.3722(5) 0.1780(3)
Cl4 Cl 0.9608(8) 0.1727(5) 0.24514(18)
Cl5 Cl 0.7056(4) 0.2171(4) 0.3508(2)
Cl6 Cl 1.0371(6) 0.1340(3) 0.3698(3)
C42 C 0.9077(7) 0.1276(5) 0.3221(3)
P1 P 1.11481(17) 0.73226(12) 0.14063(6)
P2 P 0.98781(17) 0.76773(11) 0.35939(6)
O1 O 0.9407(5) 0.9635(3) 0.09638(19)
O2 O 0.6085(6) 0.8731(5) 0.3252(2)
O3 O 1.0006(5) 0.5362(3) 0.40369(19)
O4 O 0.8040(8) 0.6282(5) 0.1752(2)
O5 O 1.1880(5) 0.6337(3) 0.18075(19)
O6 O 1.0013(5) 0.8667(3) 0.31942(19)
C1 C 0.8301(6) 0.8096(4) 0.2362(2)
C2 C 0.9172(6) 0.8357(4) 0.1790(2)
C3 C 0.8568(7) 0.9467(4) 0.1543(2)
C4 C 0.7183(7) 1.0311(5) 0.1858(3)
H1 H 0.6805 1.1050 0.1692
C5 C 0.6351(7) 1.0047(5) 0.2429(3)
H2 H 0.5418 1.0619 0.2648
C6 C 0.6884(7) 0.8958(5) 0.2675(3)
C7 C 0.8758(6) 0.6906(4) 0.2641(2)
C8 C 0.9318(6) 0.6647(4) 0.3209(2)
C9 C 0.9580(6) 0.5535(5) 0.3457(2)
C10 C 0.9354(7) 0.4685(5) 0.3137(3)
H3 H 0.9553 0.3944 0.3301
C11 C 0.8825(8) 0.4955(5) 0.2570(3)
H4 H 0.8681 0.4385 0.2350
C12 C 0.8512(7) 0.6037(5) 0.2328(3)
C13 C 0.9318(13) 1.0767(6) 0.0788(4)
H5 H 0.8227 1.1210 0.0722
H6 H 1.0106 1.0737 0.0406
H7 H 0.9559 1.1129 0.1118
C14 C 0.4584(12) 0.8634(10) 0.3284(4)
H8 H 0.3798 0.9377 0.3208
H9 H 0.4222 0.8375 0.3695
H10 H 0.4675 0.8083 0.2970
C15 C 1.0831(12) 0.4230(7) 0.4216(4)
H11 H 1.0069 0.3825 0.4318
H12 H 1.1287 0.4256 0.4578
H13 H 1.1705 0.3832 0.3874
C16 C 0.6500(10) 0.6376(10) 0.1714(4)
H14 H 0.6297 0.5692 0.1880
H15 H 0.6386 0.6459 0.1280
H16 H 0.5718 0.7045 0.1953
C17 C 1.2489(7) 0.8168(5) 0.1203(3)
C18 C 1.2609(9) 0.8805(6) 0.1683(3)
H17 H 1.1992 0.8814 0.2087
C19 C 1.3668(10) 0.9433(7) 0.1553(4)
H18 H 1.3739 0.9875 0.1872
C20 C 1.4592(10) 0.9410(8) 0.0970(4)
H19 H 1.5300 0.9828 0.0890
C21 C 1.4478(9) 0.8764(7) 0.0496(4)
H20 H 1.5118 0.8742 0.0095
C22 C 1.3432(8) 0.8154(6) 0.0609(3)
H21 H 1.3355 0.7727 0.0284
C23 C 1.0911(8) 0.6838(5) 0.0672(3)
C24 C 0.9523(9) 0.7316(6) 0.0416(3)
H22 H 0.8630 0.7936 0.0618
C25 C 0.9467(11) 0.6867(8) -0.0147(4)
H23 H 0.8540 0.7202 -0.0327
C26 C 1.0755(15) 0.5938(10) -0.0442(4)
H24 H 1.0692 0.5638 -0.0817
C27 C 1.2104(13) 0.5460(8) -0.0193(4)
H25 H 1.2978 0.4831 -0.0397
C28 C 1.2215(9) 0.5894(6) 0.0368(3)
H26 H 1.3156 0.5555 0.0539
C29 C 0.8422(7) 0.8164(5) 0.4326(3)
C30 C 0.8467(9) 0.9112(6) 0.4635(3)
H27 H 0.9238 0.9454 0.4464
C31 C 0.7370(12) 0.9545(8) 0.5193(4)
H28 H 0.7398 1.0178 0.5398
C32 C 0.6245(11) 0.9037(10) 0.5442(4)
H29 H 0.5509 0.9328 0.5818
C33 C 0.6181(9) 0.8102(8) 0.5145(4)
H30 H 0.5417 0.7759 0.5324
C34 C 0.7252(8) 0.7674(6) 0.4581(3)
H31 H 0.7187 0.7058 0.4373
C35 C 1.1851(7) 0.6842(5) 0.3797(3)
C36 C 1.2183(8) 0.6863(6) 0.4389(3)
H32 H 1.1361 0.7300 0.4713
C37 C 1.3755(9) 0.6226(7) 0.4503(4)
H33 H 1.3967 0.6227 0.4906
C38 C 1.4969(9) 0.5611(8) 0.4036(4)
H34 H 1.6024 0.5215 0.4114
C39 C 1.4649(9) 0.5569(7) 0.3451(4)
H35 H 1.5482 0.5115 0.3135
C40 C 1.3104(8) 0.6190(6) 0.3315(3)
H36 H 1.2908 0.6171 0.2911
Cl7? Cl 1.037(4) 0.163(3) 0.2607(8)
Cl8? Cl 0.7237(15) 0.2275(16) 0.3119(9)
Cl9? Cl 0.914(2) 0.1649(13) 0.3967(7)
loop_
_geom_bond_atom_site_label_1
_geom_bond_atom_site_label_2
_geom_bond_site_symmetry_1
_geom_bond_site_symmetry_2
Cl1 C41 1_555 1_555
Cl2 C41 1_555 1_555
Cl3 C41 1_555 1_555
Cl4 C42 1_555 1_555
Cl5 C42 1_555 1_555
Cl6 C42 1_555 1_555
P1 O5 1_555 1_555
P2 O6 1_555 1_555
O1 C3 1_555 1_555
O2 C6 1_555 1_555
O3 C9 1_555 1_555
O4 C12 1_555 1_555
C1 C2 1_555 1_555
C2 P1 1_555 1_555
C3 C2 1_555 1_555
C4 C3 1_555 1_555
H1 C4 1_555 1_555
C5 C4 1_555 1_555
H2 C5 1_555 1_555
C6 C1 1_555 1_555
C7 C1 1_555 1_555
C8 P2 1_555 1_555
C9 C8 1_555 1_555
C10 C9 1_555 1_555
H3 C10 1_555 1_555
C11 C10 1_555 1_555
H4 C11 1_555 1_555
C12 C7 1_555 1_555
C13 O1 1_555 1_555
H5 C13 1_555 1_555
H6 C13 1_555 1_555
H7 C13 1_555 1_555
C14 O2 1_555 1_555
H8 C14 1_555 1_555
H9 C14 1_555 1_555
H10 C14 1_555 1_555
C15 O3 1_555 1_555
H11 C15 1_555 1_555
H12 C15 1_555 1_555
H13 C15 1_555 1_555
C16 O4 1_555 1_555
H14 C16 1_555 1_555
H15 C16 1_555 1_555
H16 C16 1_555 1_555
C17 P1 1_555 1_555
C18 C17 1_555 1_555
H17 C18 1_555 1_555
C19 C18 1_555 1_555
H18 C19 1_555 1_555
C20 C19 1_555 1_555
H19 C20 1_555 1_555
C21 C20 1_555 1_555
H20 C21 1_555 1_555
C22 C17 1_555 1_555
H21 C22 1_555 1_555
C23 P1 1_555 1_555
C24 C23 1_555 1_555
H22 C24 1_555 1_555
C25 C24 1_555 1_555
H23 C25 1_555 1_555
C26 C25 1_555 1_555
H24 C26 1_555 1_555
C27 C26 1_555 1_555
H25 C27 1_555 1_555
C28 C23 1_555 1_555
H26 C28 1_555 1_555
C29 P2 1_555 1_555
C30 C29 1_555 1_555
H27 C30 1_555 1_555
C31 C30 1_555 1_555
H28 C31 1_555 1_555
C32 C31 1_555 1_555
H29 C32 1_555 1_555
C33 C32 1_555 1_555
H30 C33 1_555 1_555
C34 C29 1_555 1_555
H31 C34 1_555 1_555
C35 P2 1_555 1_555
C36 C35 1_555 1_555
H32 C36 1_555 1_555
C37 C36 1_555 1_555
H33 C37 1_555 1_555
C38 C37 1_555 1_555
H34 C38 1_555 1_555
C39 C38 1_555 1_555
H35 C39 1_555 1_555
C40 C35 1_555 1_555
H36 C40 1_555 1_555
C5 C6 1_555 1_555
C7 C8 1_555 1_555
C11 C12 1_555 1_555
C21 C22 1_555 1_555
C27 C28 1_555 1_555
C33 C34 1_555 1_555
C39 C40 1_555 1_555

#END
