
#######################################################################
#
#                 Cambridge Crystallographic Data Centre
#                                CCDC 
#
#######################################################################
#
# If this CIF has been generated from an entry in the Cambridge 
# Structural Database, then it will include bibliographic, chemical, 
# crystal, experimental, refinement or atomic coordinate data resulting 
# from the CCDC's data processing and validation procedures.
#
#######################################################################

data_HUVXUS
_chemical_compound_source        'Swertia mileensis'
_chemical_name_common            
6-Methyl-8-(1-oxo-3,4-dihydro-1H-isochromen-5-yl)-4,5,6,8-tetrahydro-1H,3H-pyrano[3,4-c]pyran-3-one
_chemical_formula_moiety         'C18 H18 O5'
_chemical_name_systematic        'Swerilactone E'
_chemical_properties_biological  'tested for anti-hepatitis B virus activity'
_symmetry_cell_setting           monoclinic
_symmetry_space_group_name_H-M   'P 21/c'
_symmetry_Int_Tables_number      14
_space_group_name_Hall           '-P 2ybc'
loop_
_symmetry_equiv_pos_site_id
_symmetry_equiv_pos_as_xyz
1 x,y,z
2 -x,1/2+y,1/2-z
3 -x,-y,-z
4 x,1/2-y,1/2+z
_cell_length_a                   14.644(3)
_cell_length_b                   8.7736(16)
_cell_length_c                   12.536(2)
_cell_angle_alpha                90
_cell_angle_beta                 104.544(3)
_cell_angle_gamma                90
_cell_volume                     1559.02
_exptl_crystal_colour            colorless
_exptl_crystal_description       block
_chemical_melting_point          '232-233 deg.C'
_cell_formula_units_Z            4
loop_
_atom_site_label
_atom_site_type_symbol
_atom_site_fract_x
_atom_site_fract_y
_atom_site_fract_z
O1 O 0.45727(15) 0.4769(3) 0.22356(19)
O2 O 0.42614(15) 0.2905(3) 0.1036(2)
O3 O 0.72970(12) 0.1276(2) -0.05053(15)
O4 O 0.85596(15) 0.6021(2) -0.16371(18)
O5 O 1.00353(16) 0.6188(3) -0.1691(2)
C1 C 0.8229(2) 0.0956(3) 0.0169(2)
H1 H 0.8332 0.1532 0.0858
C2 C 0.71341(18) 0.2872(3) -0.0714(2)
H2 H 0.6572 0.2957 -0.1330
C3 C 0.79309(19) 0.3611(3) -0.1086(2)
C4 C 0.87577(19) 0.2936(3) -0.0972(2)
C5 C 0.9509(2) 0.3702(4) -0.1413(3)
H3 H 1.0116 0.3514 -0.0902
H4 H 0.9521 0.3222 -0.2107
C6 C 0.9400(2) 0.5371(5) -0.1597(2)
C7 C 0.8969(2) 0.1412(4) -0.0431(3)
H5 H 0.9584 0.1444 0.0089
H6 H 0.8993 0.0652 -0.0985
C8 C 0.8245(2) -0.0739(4) 0.0423(3)
H7 H 0.7750 -0.0974 0.0775
H8 H 0.8843 -0.1006 0.0904
H9 H 0.8150 -0.1308 -0.0250
C9 C 0.7730(2) 0.5118(4) -0.1651(3)
H10 H 0.7389 0.4946 -0.2411
H11 H 0.7320 0.5697 -0.1301
C10 C 0.4854(2) 0.3946(4) 0.1606(3)
C11 C 0.4646(2) 0.1759(4) 0.0441(3)
H12 H 0.4128 0.1222 -0.0050
H13 H 0.4996 0.1024 0.0964
C12 C 0.52769(19) 0.2382(3) -0.0216(2)
H14 H 0.4908 0.2968 -0.0831
H15 H 0.5576 0.1550 -0.0510
C13 C 0.68975(18) 0.3650(3) 0.0272(2)
C14 C 0.7541(2) 0.4598(3) 0.0972(2)
H16 H 0.8129 0.4768 0.0835
C15 C 0.7323(2) 0.5297(4) 0.1874(2)
H17 H 0.7764 0.5924 0.2334
C16 C 0.6460(2) 0.5059(4) 0.2082(2)
H18 H 0.6309 0.5539 0.2677
C17 C 0.58072(18) 0.4097(3) 0.1402(2)
C18 C 0.60199(18) 0.3383(3) 0.0493(2)
loop_
_geom_bond_atom_site_label_1
_geom_bond_atom_site_label_2
_geom_bond_site_symmetry_1
_geom_bond_site_symmetry_2
O1 C10 1_555 1_555
O2 C10 1_555 1_555
O3 C1 1_555 1_555
O4 C6 1_555 1_555
O5 C6 1_555 1_555
C1 H1 1_555 1_555
C2 O3 1_555 1_555
H2 C2 1_555 1_555
C3 C2 1_555 1_555
C4 C3 1_555 1_555
C5 C4 1_555 1_555
H3 C5 1_555 1_555
H4 C5 1_555 1_555
C6 C5 1_555 1_555
C7 C1 1_555 1_555
H5 C7 1_555 1_555
H6 C7 1_555 1_555
C8 C1 1_555 1_555
H7 C8 1_555 1_555
H8 C8 1_555 1_555
H9 C8 1_555 1_555
C9 O4 1_555 1_555
H10 C9 1_555 1_555
H11 C9 1_555 1_555
C10 C17 1_555 1_555
C11 O2 1_555 1_555
H12 C11 1_555 1_555
H13 C11 1_555 1_555
C12 C11 1_555 1_555
H14 C12 1_555 1_555
H15 C12 1_555 1_555
C13 C2 1_555 1_555
C14 C13 1_555 1_555
H16 C14 1_555 1_555
C15 C14 1_555 1_555
H17 C15 1_555 1_555
C16 C15 1_555 1_555
H18 C16 1_555 1_555
C17 C16 1_555 1_555
C18 C12 1_555 1_555
C3 C9 1_555 1_555
C4 C7 1_555 1_555
C13 C18 1_555 1_555
C17 C18 1_555 1_555

#END
