
#######################################################################
#
#                 Cambridge Crystallographic Data Centre
#                                CCDC 
#
#######################################################################
#
# If this CIF has been generated from an entry in the Cambridge 
# Structural Database, then it will include bibliographic, chemical, 
# crystal, experimental, refinement or atomic coordinate data resulting 
# from the CCDC's data processing and validation procedures.
#
#######################################################################

data_HUVXAY
_chemical_formula_moiety         'C16 H17 Br1 N2 O4 S1'
_chemical_name_systematic        
N-(2-Bromo-2-nitro-1-phenylpropyl)-4-methylbenzenesulfonamide
_symmetry_cell_setting           orthorhombic
_symmetry_space_group_name_H-M   'P b c a'
_symmetry_Int_Tables_number      61
_space_group_name_Hall           '-P 2ac 2ab'
loop_
_symmetry_equiv_pos_site_id
_symmetry_equiv_pos_as_xyz
1 x,y,z
2 1/2-x,-y,1/2+z
3 -x,1/2+y,1/2-z
4 1/2+x,1/2-y,-z
5 -x,-y,-z
6 1/2+x,y,1/2-z
7 x,1/2-y,1/2+z
8 1/2-x,1/2+y,z
_cell_length_a                   7.8529(12)
_cell_length_b                   19.548(3)
_cell_length_c                   22.668(4)
_cell_angle_alpha                90
_cell_angle_beta                 90
_cell_angle_gamma                90
_cell_volume                     3479.73
_chemical_melting_point          '175-176 deg.C'
_cell_formula_units_Z            8
loop_
_atom_site_label
_atom_site_type_symbol
_atom_site_fract_x
_atom_site_fract_y
_atom_site_fract_z
Br1 Br 0.33181(5) 0.09710(2) 0.495924(15)
C1 C 0.6769(3) 0.28591(13) 0.30891(12)
C2 C 0.7310(4) 0.32817(15) 0.35509(13)
H1 H 0.7861 0.3097 0.3877
C3 C 0.7014(4) 0.39774(16) 0.35149(14)
H2 H 0.7370 0.4261 0.3820
C4 C 0.6182(5) 0.42618(16) 0.30238(15)
C5 C 0.5621(4) 0.38244(16) 0.25816(13)
H3 H 0.5045 0.4007 0.2260
C6 C 0.5891(4) 0.31281(14) 0.26046(14)
H4 H 0.5500 0.2844 0.2305
C7 C 0.5971(5) 0.50235(15) 0.29693(16)
H5 H 0.6353 0.5240 0.3326
H6 H 0.4792 0.5130 0.2905
H7 H 0.6634 0.5187 0.2643
C8 C 0.4842(4) 0.16839(14) 0.39910(13)
H8 H 0.5893 0.1631 0.4220
C9 C 0.4050(4) 0.23629(14) 0.41682(13)
C10 C 0.2944(4) 0.27151(15) 0.38079(13)
H9 H 0.2639 0.2525 0.3447
C11 C 0.2275(4) 0.33417(15) 0.39654(13)
H10 H 0.1523 0.3570 0.3717
C12 C 0.2761(4) 0.36307(15) 0.45152(13)
H11 H 0.2350 0.4058 0.4627
C13 C 0.3851(4) 0.32725(15) 0.48830(13)
H12 H 0.4139 0.3454 0.5249
C14 C 0.4518(4) 0.26452(15) 0.47125(13)
H13 H 0.5271 0.2414 0.4958
C15 C 0.3715(4) 0.10610(15) 0.41234(14)
C16 C 0.1960(4) 0.10184(16) 0.37932(14)
H14 H 0.2150 0.1032 0.3375
H15 H 0.1259 0.1398 0.3907
H16 H 0.1399 0.0598 0.3895
N1 N 0.5305(3) 0.16213(13) 0.33563(11)
H17 H 0.445(5) 0.1808(17) 0.3145(15)
N2 N 0.4807(4) 0.04275(13) 0.39926(12)
O1 O 0.7312(3) 0.17259(10) 0.25393(10)
O2 O 0.8347(3) 0.18439(11) 0.35721(11)
O3 O 0.4151(3) 0.00009(11) 0.36769(11)
O4 O 0.6221(3) 0.04136(12) 0.41969(10)
S1 S 0.70893(9) 0.19770(3) 0.31330(3)
loop_
_geom_bond_atom_site_label_1
_geom_bond_atom_site_label_2
_geom_bond_site_symmetry_1
_geom_bond_site_symmetry_2
Br1 C15 1_555 1_555
C1 C2 1_555 1_555
C2 H1 1_555 1_555
C3 C2 1_555 1_555
H2 C3 1_555 1_555
C4 C3 1_555 1_555
C5 C4 1_555 1_555
H3 C5 1_555 1_555
C6 C1 1_555 1_555
H4 C6 1_555 1_555
C7 C4 1_555 1_555
H5 C7 1_555 1_555
H6 C7 1_555 1_555
H7 C7 1_555 1_555
C8 H8 1_555 1_555
C9 C8 1_555 1_555
C10 C9 1_555 1_555
H9 C10 1_555 1_555
C11 C10 1_555 1_555
H10 C11 1_555 1_555
C12 C11 1_555 1_555
H11 C12 1_555 1_555
C13 C12 1_555 1_555
H12 C13 1_555 1_555
C14 C9 1_555 1_555
H13 C14 1_555 1_555
C15 C8 1_555 1_555
C16 C15 1_555 1_555
H14 C16 1_555 1_555
H15 C16 1_555 1_555
H16 C16 1_555 1_555
N1 C8 1_555 1_555
H17 N1 1_555 1_555
N2 C15 1_555 1_555
O1 S1 1_555 1_555
O2 S1 1_555 1_555
O3 N2 1_555 1_555
O4 N2 1_555 1_555
S1 C1 1_555 1_555
C5 C6 1_555 1_555
C13 C14 1_555 1_555
N1 S1 1_555 1_555

#END
