
#######################################################################
#
#                 Cambridge Crystallographic Data Centre
#                                CCDC 
#
#######################################################################
#
# If this CIF has been generated from an entry in the Cambridge 
# Structural Database, then it will include bibliographic, chemical, 
# crystal, experimental, refinement or atomic coordinate data resulting 
# from the CCDC's data processing and validation procedures.
#
#######################################################################

data_HUVYAZ
_chemical_compound_source        'Swertia mileensis'
_chemical_name_common            
'1,2,8,9-Tetrahydro-4H,11H-isochromeno[7,6-f]isochromene-4,11-dione benzene solvate'
_chemical_formula_moiety         'C16 H12 O4,C6 H6'
_chemical_name_systematic        'Swerilactone G benzene solvate'
_chemical_properties_biological  'tested for anti-hepatitis B virus activity'
_symmetry_cell_setting           orthorhombic
_symmetry_space_group_name_H-M   'P n m a'
_symmetry_Int_Tables_number      62
_space_group_name_Hall           '-P 2ac 2n'
loop_
_symmetry_equiv_pos_site_id
_symmetry_equiv_pos_as_xyz
1 x,y,z
2 1/2-x,-y,1/2+z
3 1/2+x,1/2-y,1/2-z
4 -x,1/2+y,-z
5 -x,-y,-z
6 1/2+x,y,1/2-z
7 1/2-x,1/2+y,1/2+z
8 x,1/2-y,z
_cell_length_a                   12.875(3)
_cell_length_b                   7.2896(18)
_cell_length_c                   18.856(5)
_cell_angle_alpha                90
_cell_angle_beta                 90
_cell_angle_gamma                90
_cell_volume                     1769.7
_exptl_crystal_colour            colorless
_exptl_crystal_description       block
_cell_formula_units_Z            4
loop_
_atom_site_label
_atom_site_type_symbol
_atom_site_fract_x
_atom_site_fract_y
_atom_site_fract_z
O1 O 0.7172(3) 0.2500 0.6924(2)
O2 O 0.5936(3) 0.2500 0.6124(2)
O3 O 1.2824(3) 0.2500 0.5812(2)
O4 O 1.3135(3) 0.2500 0.4665(2)
C1 C 0.6948(4) 0.2500 0.6307(3)
C2 C 0.5678(6) 0.2500 0.5413(5)
H1 H 0.5231 0.1439 0.5355
C3 C 0.6270(4) 0.2500 0.4845(4)
H2 H 0.6104 0.3573 0.4563
C4 C 0.7412(4) 0.2500 0.4992(3)
C5 C 0.8166(4) 0.2500 0.4476(3)
H3 H 0.7962 0.2500 0.4003
C6 C 1.0017(4) 0.2500 0.4101(2)
H4 H 0.9820 0.2500 0.3626
C7 C 1.1034(4) 0.2500 0.4267(3)
H5 H 1.1529 0.2500 0.3909
C8 C 1.1356(4) 0.2500 0.4990(3)
C9 C 1.2488(5) 0.2500 0.5130(4)
C10 C 1.2118(5) 0.2500 0.6338(3)
H6 H 1.2285 0.3562 0.6626
C11 C 1.1040(4) 0.2500 0.6284(3)
H7 H 1.0771 0.3574 0.6525
C12 C 1.0643(3) 0.2500 0.5528(2)
C13 C 0.8768(4) 0.2500 0.5882(3)
H8 H 0.8962 0.2500 0.6358
C14 C 0.7730(3) 0.2500 0.5716(3)
C15 C 0.9239(4) 0.2500 0.4634(2)
C16 C 0.9548(3) 0.2500 0.5363(2)
H1G H 0.5231 0.3561 0.5355
H2G H 0.6104 0.1427 0.4563
H6G H 1.2285 0.1438 0.6626
H7G H 1.0771 0.1426 0.6525
C17 C 0.9362(5) 0.5649(7) 0.7832(3)
H9 H 0.9360 0.4373 0.7837
C18 C 0.8489(4) 0.6577(7) 0.7632(2)
H10 H 0.7897 0.5936 0.7496
C19 C 1.0228(4) 0.6572(7) 0.8023(3)
H11 H 1.0823 0.5933 0.8154
C17G C 0.9362(5) 0.9351(7) 0.7832(3)
H9G H 0.9360 1.0627 0.7837
C18G C 0.8489(4) 0.8423(7) 0.7632(2)
H10G H 0.7897 0.9064 0.7496
C19G C 1.0228(4) 0.8428(7) 0.8023(3)
H11G H 1.0823 0.9067 0.8154
loop_
_geom_bond_atom_site_label_1
_geom_bond_atom_site_label_2
_geom_bond_site_symmetry_1
_geom_bond_site_symmetry_2
O1 C1 1_555 1_555
O2 C1 1_555 1_555
O3 C9 1_555 1_555
O4 C9 1_555 1_555
C1 C14 1_555 1_555
C2 O2 1_555 1_555
H1 C2 1_555 1_555
C3 C2 1_555 1_555
H2 C3 1_555 1_555
C4 C3 1_555 1_555
C5 C4 1_555 1_555
H3 C5 1_555 1_555
C6 H4 1_555 1_555
C7 C6 1_555 1_555
H5 C7 1_555 1_555
C8 C7 1_555 1_555
C9 C8 1_555 1_555
C10 O3 1_555 1_555
H6 C10 1_555 1_555
C11 C10 1_555 1_555
H7 C11 1_555 1_555
C12 C8 1_555 1_555
C13 H8 1_555 1_555
C14 C4 1_555 1_555
C15 C5 1_555 1_555
C16 C12 1_555 1_555
C17 H9 1_555 1_555
C18 C17 1_555 1_555
H10 C18 1_555 1_555
C19 C17 1_555 1_555
H11 C19 1_555 1_555
H1G C2 1_555 1_555
H2G C3 1_555 1_555
H6G C10 1_555 1_555
H7G C11 1_555 1_555
C17G H9G 1_555 1_555
C18G C18 1_555 1_555
H10G C18G 1_555 1_555
C19G C19 1_555 1_555
H11G C19G 1_555 1_555
C6 C15 1_555 1_555
C11 C12 1_555 1_555
C13 C14 1_555 1_555
C13 C16 1_555 1_555
C15 C16 1_555 1_555
C17G C18G 1_555 1_555
C17G C19G 1_555 1_555

#END
