
#######################################################################
#
#                 Cambridge Crystallographic Data Centre
#                                CCDC 
#
#######################################################################
#
# If this CIF has been generated from an entry in the Cambridge 
# Structural Database, then it will include bibliographic, chemical, 
# crystal, experimental, refinement or atomic coordinate data resulting 
# from the CCDC's data processing and validation procedures.
#
#######################################################################

data_HUWBAE
_chemical_formula_moiety         'C23 H16 Cl1 N3 O1'
_chemical_name_systematic        
6-chloro-1-(4-methylphenyl)-2-phenylpyrazolo[5,1-b]quinazolin-9(1H)-one
_symmetry_cell_setting           monoclinic
_symmetry_space_group_name_H-M   'C 2/c'
_symmetry_Int_Tables_number      15
_space_group_name_Hall           '-C 2yn'
loop_
_symmetry_equiv_pos_site_id
_symmetry_equiv_pos_as_xyz
1 x,y,z
2 -x,y,1/2-z
3 1/2+x,1/2+y,z
4 1/2-x,1/2+y,1/2-z
5 -x,-y,-z
6 x,-y,1/2+z
7 1/2-x,1/2-y,-z
8 1/2+x,1/2-y,1/2+z
_cell_length_a                   21.2894(13)
_cell_length_b                   9.7191(7)
_cell_length_c                   18.8536(13)
_cell_angle_alpha                90
_cell_angle_beta                 99.671(4)
_cell_angle_gamma                90
_cell_volume                     3845.63
_exptl_crystal_colour            colorless
_exptl_crystal_description       block
_cell_formula_units_Z            8
loop_
_atom_site_label
_atom_site_type_symbol
_atom_site_fract_x
_atom_site_fract_y
_atom_site_fract_z
O1 O 0.72931(8) 0.76756(19) 0.10958(9)
Cl1 Cl 1.02975(4) 0.87085(12) 0.05515(5)
N1 N 0.88761(9) 0.9215(2) 0.24317(11)
N2 N 0.77827(8) 0.85689(19) 0.21660(10)
N3 N 0.72845(8) 0.82956(19) 0.25541(10)
C1 C 0.77701(12) 0.8177(2) 0.14544(13)
C2 C 0.83820(11) 0.8425(2) 0.12305(13)
C3 C 0.84554(13) 0.8105(3) 0.05245(14)
H1 H 0.8105 0.7809 0.0198
C4 C 0.90362(14) 0.8225(3) 0.03092(15)
H2 H 0.9084 0.8008 -0.0159
C5 C 0.95535(12) 0.8677(3) 0.08052(15)
C6 C 0.95004(12) 0.9033(3) 0.14920(15)
H3 H 0.9854 0.9357 0.1805
C7 C 0.89063(11) 0.8909(2) 0.17258(14)
C8 C 0.83213(11) 0.9025(2) 0.26250(13)
C9 C 0.81343(11) 0.9136(3) 0.33100(13)
H4 H 0.8390 0.9455 0.3727
C10 C 0.75278(11) 0.8706(2) 0.32598(13)
C11 C 0.66501(11) 0.8751(2) 0.22262(12)
C12 C 0.65251(12) 1.0132(3) 0.21294(14)
H5 H 0.6848 1.0776 0.2257
C13 C 0.59161(13) 1.0555(3) 0.18416(16)
H6 H 0.5834 1.1489 0.1772
C14 C 0.54261(12) 0.9624(3) 0.16549(16)
C15 C 0.55693(13) 0.8251(3) 0.17513(17)
H7 H 0.5249 0.7604 0.1622
C16 C 0.61750(12) 0.7803(3) 0.20340(15)
H8 H 0.6260 0.6868 0.2094
C17 C 0.71400(11) 0.8569(2) 0.38323(13)
C18 C 0.67544(13) 0.7432(3) 0.38686(15)
H9 H 0.6711 0.6773 0.3506
C19 C 0.64358(15) 0.7280(3) 0.44424(17)
H10 H 0.6180 0.6513 0.4469
C20 C 0.64958(14) 0.8258(3) 0.49748(16)
H11 H 0.6282 0.8146 0.5363
C21 C 0.68654(14) 0.9388(3) 0.49389(15)
H12 H 0.6898 1.0055 0.5297
C22 C 0.71915(13) 0.9547(3) 0.43718(14)
H13 H 0.7448 1.0316 0.4352
C23 C 0.47562(15) 1.0081(4) 0.1351(2)
H14 H 0.4484 0.9289 0.1263
H15 H 0.4758 1.0567 0.0908
H16 H 0.4601 1.0676 0.1689
loop_
_geom_bond_atom_site_label_1
_geom_bond_atom_site_label_2
_geom_bond_site_symmetry_1
_geom_bond_site_symmetry_2
O1 C1 1_555 1_555
Cl1 C5 1_555 1_555
N1 C7 1_555 1_555
N2 N3 1_555 1_555
N3 C10 1_555 1_555
C1 N2 1_555 1_555
C2 C1 1_555 1_555
C3 C2 1_555 1_555
H1 C3 1_555 1_555
C4 C3 1_555 1_555
H2 C4 1_555 1_555
C5 C4 1_555 1_555
C6 C5 1_555 1_555
H3 C6 1_555 1_555
C7 C2 1_555 1_555
C8 N1 1_555 1_555
C9 C8 1_555 1_555
H4 C9 1_555 1_555
C10 C9 1_555 1_555
C11 N3 1_555 1_555
C12 C11 1_555 1_555
H5 C12 1_555 1_555
C13 C12 1_555 1_555
H6 C13 1_555 1_555
C14 C13 1_555 1_555
C15 C14 1_555 1_555
H7 C15 1_555 1_555
C16 C11 1_555 1_555
H8 C16 1_555 1_555
C17 C10 1_555 1_555
C18 C17 1_555 1_555
H9 C18 1_555 1_555
C19 C18 1_555 1_555
H10 C19 1_555 1_555
C20 C19 1_555 1_555
H11 C20 1_555 1_555
C21 C20 1_555 1_555
H12 C21 1_555 1_555
C22 C17 1_555 1_555
H13 C22 1_555 1_555
C23 C14 1_555 1_555
H14 C23 1_555 1_555
H15 C23 1_555 1_555
H16 C23 1_555 1_555
N2 C8 1_555 1_555
C6 C7 1_555 1_555
C15 C16 1_555 1_555
C21 C22 1_555 1_555

#END
