
#######################################################################
#
#                 Cambridge Crystallographic Data Centre
#                                CCDC 
#
#######################################################################
#
# If this CIF has been generated from an entry in the Cambridge 
# Structural Database, then it will include bibliographic, chemical, 
# crystal, experimental, refinement or atomic coordinate data resulting 
# from the CCDC's data processing and validation procedures.
#
#######################################################################

data_HUWHEN
_chemical_formula_moiety         'C24 H40 N4 O4 S2,0.5(H2 O1)'
_chemical_name_systematic        
'25,25,26,26-Tetramethyl-3,8-dithia-4,7,16,19-tetra-azapentacyclo[20.2.1.1^10,13^.0^1,20^.0^10,15^]hexacosa-15,19-diene 3,3,8,8-tetraoxide hemihydrate'
_symmetry_cell_setting           monoclinic
_symmetry_space_group_name_H-M   'P 21'
_symmetry_Int_Tables_number      4
_space_group_name_Hall           'P 2yb'
loop_
_symmetry_equiv_pos_site_id
_symmetry_equiv_pos_as_xyz
1 x,y,z
2 -x,1/2+y,-z
_cell_length_a                   8.9463(11)
_cell_length_b                   28.733(3)
_cell_length_c                   11.1330(12)
_cell_angle_alpha                90
_cell_angle_beta                 90.905(2)
_cell_angle_gamma                90
_cell_volume                     2861.43
_cell_formula_units_Z            4
_exptl_crystal_recrystallization_method dichloromethane/n-hexane
loop_
_atom_site_label
_atom_site_type_symbol
_atom_site_fract_x
_atom_site_fract_y
_atom_site_fract_z
C1 C 0.0882(2) 0.68644(7) 0.4006(2)
C2 C 0.0257(2) 0.65326(7) 0.49224(18)
C3 C -0.1317(2) 0.66866(8) 0.51220(19)
H1 H -0.2015 0.6437 0.4938
H2 H -0.1450 0.6783 0.5949
C4 C -0.1546(3) 0.70804(9) 0.4300(2)
H3 H -0.2594 0.7151 0.4106
C5 C -0.0636(3) 0.74928(9) 0.4845(2)
H4 H -0.0835 0.7780 0.4415
H5 H -0.0854 0.7536 0.5689
C6 C 0.1001(3) 0.73274(8) 0.4671(2)
H6 H 0.1553 0.7552 0.4202
H7 H 0.1506 0.7287 0.5441
C7 C -0.0590(3) 0.69465(8) 0.3216(2)
C8 C -0.1109(3) 0.65000(9) 0.2584(2)
H8 H -0.0831 0.6235 0.3064
H9 H -0.0646 0.6478 0.1814
H10 H -0.2176 0.6507 0.2477
C9 C -0.0334(3) 0.73195(9) 0.2226(2)
H11 H 0.0348 0.7200 0.1644
H12 H 0.0080 0.7595 0.2586
H13 H -0.1270 0.7393 0.1837
C10 C 0.2213(2) 0.67175(8) 0.33033(18)
H14 H 0.2303 0.6932 0.2636
H15 H 0.1990 0.6414 0.2963
C11 C 0.4415(3) 0.58009(8) 0.4025(2)
H16 H 0.5430 0.5833 0.3742
H17 H 0.3761 0.5824 0.3324
C12 C 0.4266(3) 0.53141(8) 0.45045(19)
H18 H 0.3409 0.5172 0.4107
H19 H 0.5142 0.5140 0.4264
C13 C 0.6034(2) 0.57103(8) 0.72749(18)
H20 H 0.7090 0.5701 0.7483
H21 H 0.5902 0.5943 0.6651
C14 C 0.5185(3) 0.58736(8) 0.8384(2)
C15 C 0.3569(2) 0.59962(7) 0.82860(18)
C16 C 0.3202(3) 0.63037(8) 0.9394(2)
H22 H 0.2776 0.6601 0.9154
H23 H 0.2524 0.6147 0.9932
C17 C 0.4706(3) 0.63602(9) 0.9946(2)
H24 H 0.4801 0.6636 1.0458
C18 C 0.5075(3) 0.58935(9) 1.0616(2)
H25 H 0.4234 0.5786 1.1080
H26 H 0.5945 0.5926 1.1141
C19 C 0.5395(2) 0.55586(8) 0.95363(18)
H27 H 0.4696 0.5301 0.9522
H28 H 0.6405 0.5436 0.9590
C20 C 0.5840(3) 0.63492(7) 0.88940(19)
C21 C 0.7476(3) 0.63389(9) 0.9220(2)
H29 H 0.7725 0.6608 0.9692
H30 H 0.8053 0.6339 0.8500
H31 H 0.7695 0.6063 0.9675
C22 C 0.5529(3) 0.67553(8) 0.7984(2)
H32 H 0.4488 0.6757 0.7761
H33 H 0.6119 0.6711 0.7281
H34 H 0.5790 0.7047 0.8354
C23 C 0.1131(2) 0.60129(8) 0.75190(19)
H35 H 0.1099 0.6344 0.7690
H36 H 0.0627 0.5850 0.8159
C24 C 0.0354(3) 0.59151(10) 0.6331(2)
H37 H 0.0471 0.5589 0.6126
H38 H -0.0706 0.5980 0.6396
N1 N 0.4131(2) 0.61794(6) 0.47333(17)
H77 H 0.4014 0.6156 0.5496
N2 N 0.4100(2) 0.52519(7) 0.57822(16)
H78 H 0.3223 0.5266 0.6085
N3 N 0.0994(2) 0.62076(7) 0.53801(16)
N4 N 0.2705(2) 0.58556(6) 0.74568(15)
O1 O 0.41288(18) 0.70372(6) 0.49235(14)
O2 O 0.50790(18) 0.66567(6) 0.30459(14)
O3 O 0.50714(17) 0.48684(5) 0.75805(13)
O4 O 0.66912(19) 0.50240(6) 0.59197(15)
S1 S 0.40303(5) 0.667832(17) 0.40278(5)
S4 S 0.55234(6) 0.515601(18) 0.66530(4)
C25 C -0.0162(2) 0.95062(7) 1.04693(18)
C26 C 0.1503(2) 0.93794(7) 1.03556(18)
C27 C 0.1809(3) 0.90457(9) 1.1405(2)
H39 H 0.2132 0.8744 1.1119
H40 H 0.2567 0.9170 1.1949
C28 C 0.0299(3) 0.90107(9) 1.2021(2)
H41 H 0.0185 0.8737 1.2537
C29 C 0.0011(3) 0.94796(9) 1.2646(2)
H42 H -0.0850 0.9459 1.3162
H43 H 0.0874 0.9574 1.3125
C30 C -0.0277(3) 0.98207(8) 1.1631(2)
H44 H 0.0469 1.0066 1.1631
H45 H -0.1261 0.9960 1.1689
C31 C -0.0818(3) 0.90309(8) 1.0918(2)
C32 C -0.0584(3) 0.86302(8) 1.0034(2)
H46 H -0.0922 0.8345 1.0385
H47 H 0.0460 0.8605 0.9855
H48 H -0.1142 0.8690 0.9307
C33 C -0.2478(3) 0.90624(9) 1.1311(2)
H49 H -0.2558 0.9279 1.1964
H50 H -0.2812 0.8761 1.1565
H51 H -0.3087 0.9167 1.0646
C34 C -0.0991(2) 0.96856(8) 0.9354(2)
H52 H -0.2046 0.9700 0.9539
H53 H -0.0879 0.9455 0.8724
C35 C 0.0962(3) 1.01233(9) 0.6643(2)
H54 H 0.1967 1.0192 0.6381
H55 H 0.0309 1.0362 0.6311
C36 C 0.0488(3) 0.96501(9) 0.6087(2)
H56 H -0.0590 0.9654 0.5977
H57 H 0.0919 0.9629 0.5295
C37 C 0.2809(2) 0.87603(7) 0.52683(19)
H58 H 0.2712 0.8567 0.4556
H59 H 0.3010 0.9075 0.4998
C38 C 0.4190(2) 0.85916(7) 0.59815(19)
C39 C 0.4765(3) 0.89141(8) 0.6972(2)
C40 C 0.6360(3) 0.87715(8) 0.7147(2)
H60 H 0.6535 0.8659 0.7959
H61 H 0.7023 0.9032 0.7002
C41 C 0.6622(3) 0.83816(7) 0.6230(2)
H62 H 0.7671 0.8327 0.6030
C42 C 0.5592(2) 0.85552(8) 0.5145(2)
C43 C 0.5794(2) 0.79612(8) 0.6650(2)
H63 H 0.6065 0.7888 0.7477
H64 H 0.6015 0.7694 0.6151
C44 C 0.4103(2) 0.80941(7) 0.65398(18)
H65 H 0.3563 0.7881 0.6015
H66 H 0.3633 0.8100 0.7319
C45 C 0.4718(2) 0.94777(9) 0.8476(2)
H67 H 0.4653 0.9809 0.8317
H68 H 0.5765 0.9394 0.8557
C46 C 0.3916(2) 0.93636(8) 0.96180(19)
H69 H 0.3958 0.9030 0.9755
H70 H 0.4419 0.9516 1.0288
C47 C 0.6115(3) 0.90185(8) 0.4662(2)
H71 H 0.7183 0.9015 0.4590
H72 H 0.5831 0.9262 0.5202
H73 H 0.5662 0.9072 0.3887
C48 C 0.5431(3) 0.82039(8) 0.4127(2)
H74 H 0.4932 0.8348 0.3454
H75 H 0.4854 0.7943 0.4394
H76 H 0.6403 0.8100 0.3893
N5 N 0.0944(2) 1.01613(7) 0.79238(17)
H79 H 0.1792 1.0135 0.8291
N6 N 0.0872(2) 0.92406(7) 0.67205(16)
H80 H 0.1753 0.9292 0.7098
N7 N 0.23205(19) 0.95157(6) 0.95638(16)
N8 N 0.40153(19) 0.92131(7) 0.74656(16)
O5 O 0.00252(18) 1.05333(6) 0.97089(14)
O6 O -0.16334(18) 1.03989(6) 0.79585(15)
O7 O 0.09698(18) 0.83929(6) 0.68654(16)
O8 O -0.00919(17) 0.87879(6) 0.50302(14)
S2 S 0.10156(6) 0.876475(19) 0.60011(5)
S3 S -0.04602(6) 1.024665(17) 0.87420(4)
O9 O 0.5768(5) 0.27436(12) 0.8922(4)
H81 H 0.6585 0.2789 0.9303
H82 H 0.5905 0.2546 0.8365
O10 O 0.7468(5) 0.24816(15) 0.0208(4)
H83 H 0.6640 0.2508 -0.0172
H84 H 0.8057 0.2696 -0.0011
O11 O 0.0091(7) 0.2475(2) 0.1407(5)
H85 H 0.1020 0.2475 0.1257
H86 H -0.0110 0.2245 0.1859
loop_
_geom_bond_atom_site_label_1
_geom_bond_atom_site_label_2
_geom_bond_site_symmetry_1
_geom_bond_site_symmetry_2
C1 C2 1_555 1_555
C2 C3 1_555 1_555
C3 H1 1_555 1_555
H2 C3 1_555 1_555
C4 C3 1_555 1_555
H3 C4 1_555 1_555
C5 C4 1_555 1_555
H4 C5 1_555 1_555
H5 C5 1_555 1_555
C6 C1 1_555 1_555
H6 C6 1_555 1_555
H7 C6 1_555 1_555
C7 C1 1_555 1_555
C8 C7 1_555 1_555
H8 C8 1_555 1_555
H9 C8 1_555 1_555
H10 C8 1_555 1_555
C9 C7 1_555 1_555
H11 C9 1_555 1_555
H12 C9 1_555 1_555
H13 C9 1_555 1_555
C10 C1 1_555 1_555
H14 C10 1_555 1_555
H15 C10 1_555 1_555
C11 H16 1_555 1_555
H17 C11 1_555 1_555
C12 C11 1_555 1_555
H18 C12 1_555 1_555
H19 C12 1_555 1_555
C13 H20 1_555 1_555
H21 C13 1_555 1_555
C14 C13 1_555 1_555
C15 C14 1_555 1_555
C16 C15 1_555 1_555
H22 C16 1_555 1_555
H23 C16 1_555 1_555
C17 C16 1_555 1_555
H24 C17 1_555 1_555
C18 C17 1_555 1_555
H25 C18 1_555 1_555
H26 C18 1_555 1_555
C19 C14 1_555 1_555
H27 C19 1_555 1_555
H28 C19 1_555 1_555
C20 C14 1_555 1_555
C21 C20 1_555 1_555
H29 C21 1_555 1_555
H30 C21 1_555 1_555
H31 C21 1_555 1_555
C22 C20 1_555 1_555
H32 C22 1_555 1_555
H33 C22 1_555 1_555
H34 C22 1_555 1_555
C23 H35 1_555 1_555
H36 C23 1_555 1_555
C24 C23 1_555 1_555
H37 C24 1_555 1_555
H38 C24 1_555 1_555
C25 C26 1_555 1_555
C26 C27 1_555 1_555
C27 H39 1_555 1_555
H40 C27 1_555 1_555
C28 C27 1_555 1_555
H41 C28 1_555 1_555
C29 C28 1_555 1_555
H42 C29 1_555 1_555
H43 C29 1_555 1_555
C30 C25 1_555 1_555
H44 C30 1_555 1_555
H45 C30 1_555 1_555
C31 C25 1_555 1_555
C32 C31 1_555 1_555
H46 C32 1_555 1_555
H47 C32 1_555 1_555
H48 C32 1_555 1_555
C33 C31 1_555 1_555
H49 C33 1_555 1_555
H50 C33 1_555 1_555
H51 C33 1_555 1_555
C34 C25 1_555 1_555
H52 C34 1_555 1_555
H53 C34 1_555 1_555
C35 H54 1_555 1_555
H55 C35 1_555 1_555
C36 C35 1_555 1_555
H56 C36 1_555 1_555
H57 C36 1_555 1_555
C37 H58 1_555 1_555
H59 C37 1_555 1_555
C38 C37 1_555 1_555
C39 C38 1_555 1_555
C40 C39 1_555 1_555
H60 C40 1_555 1_555
H61 C40 1_555 1_555
C41 C40 1_555 1_555
H62 C41 1_555 1_555
C42 C38 1_555 1_555
C43 C41 1_555 1_555
H63 C43 1_555 1_555
H64 C43 1_555 1_555
C44 C38 1_555 1_555
H65 C44 1_555 1_555
H66 C44 1_555 1_555
C45 H67 1_555 1_555
H68 C45 1_555 1_555
C46 C45 1_555 1_555
H69 C46 1_555 1_555
H70 C46 1_555 1_555
C47 C42 1_555 1_555
H71 C47 1_555 1_555
H72 C47 1_555 1_555
H73 C47 1_555 1_555
C48 C42 1_555 1_555
H74 C48 1_555 1_555
H75 C48 1_555 1_555
H76 C48 1_555 1_555
N1 C11 1_555 1_555
H77 N1 1_555 1_555
N2 C12 1_555 1_555
H78 N2 1_555 1_555
N3 C2 1_555 1_555
N4 C15 1_555 1_555
N5 C35 1_555 1_555
H79 N5 1_555 1_555
N6 C36 1_555 1_555
H80 N6 1_555 1_555
N7 C26 1_555 1_555
N8 C39 1_555 1_555
O1 S1 1_555 1_555
O2 S1 1_555 1_555
O3 S4 1_555 1_555
O4 S4 1_555 1_555
O5 S3 1_555 1_555
O6 S3 1_555 1_555
O7 S2 1_555 1_555
O8 S2 1_555 1_555
O9 H81 1_555 1_555
H82 O9 1_555 1_555
O10 H83 1_555 1_555
H84 O10 1_555 1_555
O11 H85 1_555 1_555
H86 O11 1_555 1_555
S1 C10 1_555 1_555
S2 C37 1_555 1_555
S3 C34 1_555 1_555
S4 C13 1_555 1_555
C4 C7 1_555 1_555
C5 C6 1_555 1_555
C17 C20 1_555 1_555
C18 C19 1_555 1_555
C23 N4 1_555 1_555
C24 N3 1_555 1_555
C28 C31 1_555 1_555
C29 C30 1_555 1_555
C41 C42 1_555 1_555
C43 C44 1_555 1_555
C45 N8 1_555 1_555
C46 N7 1_555 1_555
N1 S1 1_555 1_555
N2 S4 1_555 1_555
N5 S3 1_555 1_555
N6 S2 1_555 1_555

#END
