
#######################################################################
#
#                 Cambridge Crystallographic Data Centre
#                                CCDC 
#
#######################################################################
#
# If this CIF has been generated from an entry in the Cambridge 
# Structural Database, then it will include bibliographic, chemical, 
# crystal, experimental, refinement or atomic coordinate data resulting 
# from the CCDC's data processing and validation procedures.
#
#######################################################################

data_HUWPOG
_chemical_formula_moiety         'C24 H22 N4 O4'
_chemical_name_systematic        
5a-Hydroxy-2-isopropyl-4-(4-oxoquinazolin-3(4H)-yl)-4,5,5a,9c-tetrahydro-3H-2a,9b-diazacyclopenta[jk]fluorene-1,3(2H)-dione
_symmetry_cell_setting           orthorhombic
_symmetry_space_group_name_H-M   'P 21 21 21'
_symmetry_Int_Tables_number      19
_space_group_name_Hall           'P 2ac 2ab'
loop_
_symmetry_equiv_pos_site_id
_symmetry_equiv_pos_as_xyz
1 x,y,z
2 1/2-x,-y,1/2+z
3 1/2+x,1/2-y,-z
4 -x,1/2+y,1/2-z
_cell_length_a                   7.6889(2)
_cell_length_b                   15.5382(5)
_cell_length_c                   16.4272(6)
_cell_angle_alpha                90
_cell_angle_beta                 90
_cell_angle_gamma                90
_cell_volume                     1962.58
_exptl_crystal_description       pillar
_cell_formula_units_Z            4
loop_
_atom_site_label
_atom_site_type_symbol
_atom_site_fract_x
_atom_site_fract_y
_atom_site_fract_z
O1 O -0.0093(2) 0.60135(10) 0.36947(11)
O2 O 0.0621(2) 0.68723(10) 0.52151(10)
O3 O 0.6732(2) 0.60632(10) 0.45943(12)
H1 H 0.7417 0.5870 0.4258
O4 O 0.2911(2) 0.41237(12) 0.68856(11)
N1 N 0.2009(3) 0.70545(12) 0.36777(12)
N2 N 0.2702(3) 0.58993(12) 0.55736(12)
N3 N 0.4595(3) 0.48505(13) 0.59506(13)
N4 N 0.1894(3) 0.82711(12) 0.28043(13)
C1 C 0.1982(3) 0.64952(14) 0.50763(15)
C2 C 0.0402(3) 0.67172(15) 0.34488(15)
C3 C 0.0214(3) 0.80303(15) 0.25883(15)
C4 C 0.5346(3) 0.42174(15) 0.54361(15)
C5 C 0.2665(3) 0.77934(15) 0.33336(15)
H2 H 0.3769 0.7964 0.3499
C6 C 0.3151(3) 0.47351(16) 0.64420(15)
C7 C 0.1858(3) 0.54764(15) 0.62677(15)
H3 H 0.1784 0.5868 0.6734
C8 C 0.5251(3) 0.55118(15) 0.46466(16)
C9 C -0.0584(3) 0.72857(16) 0.29013(15)
C10 C 0.5709(3) 0.45645(15) 0.46762(15)
C11 C 0.3060(3) 0.66237(14) 0.43012(14)
H4 H 0.4022 0.7011 0.4439
C12 C 0.4527(3) 0.56695(15) 0.55161(15)
H5 H 0.5240 0.6099 0.5798
C13 C -0.0721(3) 0.85532(15) 0.20445(16)
H6 H -0.0206 0.9044 0.1828
C14 C 0.0056(3) 0.51132(15) 0.60525(15)
H7 H -0.0633 0.5583 0.5818
C15 C 0.6392(3) 0.28575(16) 0.50192(17)
H8 H 0.6635 0.2283 0.5129
C16 C -0.2298(3) 0.70833(16) 0.26840(15)
H9 H -0.2832 0.6597 0.2900
C17 C 0.5658(3) 0.33611(15) 0.56261(16)
H10 H 0.5389 0.3136 0.6135
C18 C -0.3186(3) 0.76013(17) 0.21529(16)
H11 H -0.4319 0.7462 0.2005
C19 C 0.6774(3) 0.31839(16) 0.42562(16)
H12 H 0.7260 0.2828 0.3862
C20 C -0.2398(3) 0.83399(16) 0.18319(15)
H13 H -0.3012 0.8689 0.1473
C21 C 0.6431(3) 0.40460(15) 0.40766(16)
H14 H 0.6682 0.4269 0.3564
C22 C 0.3865(3) 0.57707(15) 0.40203(16)
H15 H 0.4391 0.5839 0.3487
H16 H 0.2976 0.5329 0.3985
C23 C -0.0883(3) 0.48011(17) 0.68182(17)
H17 H -0.0281 0.4313 0.7039
H18 H -0.2053 0.4640 0.6682
H19 H -0.0905 0.5255 0.7215
C24 C 0.0182(4) 0.43998(17) 0.54131(17)
H20 H 0.0711 0.4624 0.4928
H21 H -0.0962 0.4191 0.5288
H22 H 0.0878 0.3937 0.5622
loop_
_geom_bond_atom_site_label_1
_geom_bond_atom_site_label_2
_geom_bond_site_symmetry_1
_geom_bond_site_symmetry_2
O1 C2 1_555 1_555
O2 C1 1_555 1_555
O3 H1 1_555 1_555
O4 C6 1_555 1_555
N1 C2 1_555 1_555
N2 C1 1_555 1_555
N3 C4 1_555 1_555
N4 C3 1_555 1_555
C1 C11 1_555 1_555
C2 C9 1_555 1_555
C3 C9 1_555 1_555
C4 C10 1_555 1_555
C5 N1 1_555 1_555
H2 C5 1_555 1_555
C6 N3 1_555 1_555
C7 N2 1_555 1_555
H3 C7 1_555 1_555
C8 O3 1_555 1_555
C9 C16 1_555 1_555
C10 C8 1_555 1_555
C11 N1 1_555 1_555
H4 C11 1_555 1_555
C12 N2 1_555 1_555
H5 C12 1_555 1_555
C13 C3 1_555 1_555
H6 C13 1_555 1_555
C14 C7 1_555 1_555
H7 C14 1_555 1_555
C15 H8 1_555 1_555
C16 H9 1_555 1_555
C17 C4 1_555 1_555
H10 C17 1_555 1_555
C18 C16 1_555 1_555
H11 C18 1_555 1_555
C19 C15 1_555 1_555
H12 C19 1_555 1_555
C20 C13 1_555 1_555
H13 C20 1_555 1_555
C21 C10 1_555 1_555
H14 C21 1_555 1_555
C22 C8 1_555 1_555
H15 C22 1_555 1_555
H16 C22 1_555 1_555
C23 C14 1_555 1_555
H17 C23 1_555 1_555
H18 C23 1_555 1_555
H19 C23 1_555 1_555
C24 C14 1_555 1_555
H20 C24 1_555 1_555
H21 C24 1_555 1_555
H22 C24 1_555 1_555
N3 C12 1_555 1_555
N4 C5 1_555 1_555
C6 C7 1_555 1_555
C8 C12 1_555 1_555
C11 C22 1_555 1_555
C15 C17 1_555 1_555
C18 C20 1_555 1_555
C19 C21 1_555 1_555

#END
