
#######################################################################
#
#                 Cambridge Crystallographic Data Centre
#                                CCDC 
#
#######################################################################
#
# If this CIF has been generated from an entry in the Cambridge 
# Structural Database, then it will include bibliographic, chemical, 
# crystal, experimental, refinement or atomic coordinate data resulting 
# from the CCDC's data processing and validation procedures.
#
#######################################################################

data_HUWWOL
_chemical_formula_moiety         'C36 H36 N6 O1 Si2'
_chemical_name_systematic        
1,1,3,3-Tetramethyl-1,3-bis(4'-(bis(2-pyridyl)amino)phenyl)disiloxane
_symmetry_cell_setting           monoclinic
_symmetry_space_group_name_H-M   'P 21/n'
_symmetry_Int_Tables_number      14
_space_group_name_Hall           '-P 2yn'
loop_
_symmetry_equiv_pos_site_id
_symmetry_equiv_pos_as_xyz
1 x,y,z
2 1/2+x,1/2-y,1/2+z
3 -x,-y,-z
4 1/2-x,1/2+y,1/2-z
_cell_length_a                   17.694(4)
_cell_length_b                   8.967(2)
_cell_length_c                   21.017(5)
_cell_angle_alpha                90
_cell_angle_beta                 90.969(4)
_cell_angle_gamma                90
_cell_volume                     3334.12
_exptl_crystal_colour            colorless
_exptl_crystal_description       plate
_chemical_melting_point          145-147deg.C
_cell_formula_units_Z            4
_exptl_crystal_recrystallization_method THF/hexanes
_exptl_crystal_preparation       'violet luminescent'
loop_
_atom_site_label
_atom_site_type_symbol
_atom_site_fract_x
_atom_site_fract_y
_atom_site_fract_z
Si1 Si -0.18098(5) 0.31359(9) -0.18243(4)
Si2 Si -0.08934(5) 0.09016(9) -0.09616(4)
O1 O -0.14931(10) 0.16443(18) -0.14659(7)
N1 N -0.10876(13) 0.2598(2) -0.46480(9)
N2 N -0.01091(17) 0.1813(3) -0.53326(13)
N3 N -0.23159(16) 0.1708(3) -0.48717(11)
N4 N -0.17191(12) 0.3260(2) 0.16699(9)
N5 N -0.05852(14) 0.2645(3) 0.21676(10)
N6 N -0.26666(14) 0.3788(3) 0.23794(11)
C1 C -0.1350(2) 0.4827(3) -0.14959(15)
H1 H -0.1542 0.5691 -0.1715
H2 H -0.0814 0.4761 -0.1551
H3 H -0.1457 0.4908 -0.1051
C2 C -0.28404(18) 0.3249(4) -0.17268(16)
H4 H -0.2952 0.3335 -0.1283
H5 H -0.3074 0.2365 -0.1897
H6 H -0.3033 0.4107 -0.1950
C3 C -0.15933(15) 0.2948(3) -0.26855(11)
C4 C -0.19607(15) 0.3816(3) -0.31418(13)
H7 H -0.2333 0.4479 -0.3015
C5 C -0.17877(16) 0.3720(3) -0.37828(12)
H8 H -0.2036 0.4335 -0.4075
C6 C -0.12532(15) 0.2726(3) -0.39885(12)
C7 C -0.08863(15) 0.1852(3) -0.35440(12)
H9 H -0.0522 0.1174 -0.3674
C8 C -0.10524(15) 0.1972(3) -0.29058(12)
H10 H -0.0791 0.1375 -0.2615
C9 C -0.03310(16) 0.2675(3) -0.48354(12)
C10 C 0.01471(17) 0.3527(3) -0.45039(11)
H11 H -0.0019 0.4080 -0.4159
C11 C 0.0879(2) 0.3576(3) -0.46764(15)
H12 H 0.1214 0.4184 -0.4450
C12 C 0.11377(18) 0.2765(4) -0.51698(16)
H13 H 0.1644 0.2791 -0.5281
C13 C 0.0634(2) 0.1918(4) -0.54956(16)
H14 H 0.0799 0.1382 -0.5846
C14 C -0.16873(17) 0.2382(3) -0.50892(14)
C15 C -0.16288(16) 0.2870(3) -0.56923(12)
H15 H -0.1186 0.3322 -0.5827
C16 C -0.2218(2) 0.2695(3) -0.60987(15)
H16 H -0.2177 0.3010 -0.6518
C17 C -0.2877(2) 0.2061(4) -0.59017(17)
H17 H -0.3289 0.1963 -0.6179
C18 C -0.29151(18) 0.1576(3) -0.52907(17)
H18 H -0.3361 0.1142 -0.5152
C19 C -0.10045(17) -0.1133(3) -0.10158(13)
H19 H -0.1512 -0.1401 -0.0910
H20 H -0.0657 -0.1607 -0.0724
H21 H -0.0902 -0.1454 -0.1442
C20 C 0.00791(16) 0.1433(4) -0.11684(14)
H22 H 0.0188 0.1080 -0.1588
H23 H 0.0429 0.0997 -0.0868
H24 H 0.0127 0.2499 -0.1157
C21 C -0.11204(15) 0.1574(3) -0.01451(11)
C22 C -0.07481(15) 0.2773(3) 0.01382(12)
H25 H -0.0358 0.3229 -0.0080
C23 C -0.09334(16) 0.3319(3) 0.07329(12)
H26 H -0.0673 0.4132 0.0903
C24 C -0.15016(15) 0.2660(3) 0.10717(11)
C25 C -0.18695(15) 0.1433(3) 0.08156(12)
H27 H -0.2244 0.0954 0.1044
C26 C -0.16788(15) 0.0920(3) 0.02176(12)
H28 H -0.1937 0.0100 0.0052
C27 C -0.11438(16) 0.3626(3) 0.21211(11)
C28 C -0.11534(17) 0.4948(3) 0.24624(13)
H29 H -0.1548 0.5624 0.2410
C29 C -0.0570(2) 0.5231(4) 0.28769(15)
H30 H -0.0561 0.6111 0.3111
C30 C 0.0003(2) 0.4218(4) 0.29465(15)
H31 H 0.0398 0.4384 0.3235
C31 C -0.00185(17) 0.2957(4) 0.25826(15)
H32 H 0.0377 0.2280 0.2623
C32 C -0.24731(16) 0.3627(3) 0.17798(13)
C33 C -0.29875(17) 0.3845(3) 0.12806(13)
H33 H -0.2842 0.3711 0.0861
C34 C -0.37101(17) 0.4259(3) 0.14159(16)
H34 H -0.4062 0.4403 0.1088
C35 C -0.39125(18) 0.4459(3) 0.20304(18)
H35 H -0.4400 0.4746 0.2133
C36 C -0.3373(2) 0.4223(4) 0.24921(16)
H36 H -0.3506 0.4375 0.2913
loop_
_geom_bond_atom_site_label_1
_geom_bond_atom_site_label_2
_geom_bond_site_symmetry_1
_geom_bond_site_symmetry_2
Si1 O1 1_555 1_555
Si2 O1 1_555 1_555
N1 C6 1_555 1_555
N2 C9 1_555 1_555
N3 C14 1_555 1_555
N4 C24 1_555 1_555
N5 C27 1_555 1_555
N6 C32 1_555 1_555
C1 Si1 1_555 1_555
H1 C1 1_555 1_555
H2 C1 1_555 1_555
H3 C1 1_555 1_555
C2 Si1 1_555 1_555
H4 C2 1_555 1_555
H5 C2 1_555 1_555
H6 C2 1_555 1_555
C3 Si1 1_555 1_555
C4 C3 1_555 1_555
H7 C4 1_555 1_555
C5 C4 1_555 1_555
H8 C5 1_555 1_555
C6 C5 1_555 1_555
C7 C6 1_555 1_555
H9 C7 1_555 1_555
C8 C3 1_555 1_555
H10 C8 1_555 1_555
C9 N1 1_555 1_555
C10 C9 1_555 1_555
H11 C10 1_555 1_555
C11 C10 1_555 1_555
H12 C11 1_555 1_555
C12 C11 1_555 1_555
H13 C12 1_555 1_555
C13 N2 1_555 1_555
H14 C13 1_555 1_555
C14 N1 1_555 1_555
C15 C14 1_555 1_555
H15 C15 1_555 1_555
C16 C15 1_555 1_555
H16 C16 1_555 1_555
C17 C16 1_555 1_555
H17 C17 1_555 1_555
C18 N3 1_555 1_555
H18 C18 1_555 1_555
C19 Si2 1_555 1_555
H19 C19 1_555 1_555
H20 C19 1_555 1_555
H21 C19 1_555 1_555
C20 Si2 1_555 1_555
H22 C20 1_555 1_555
H23 C20 1_555 1_555
H24 C20 1_555 1_555
C21 Si2 1_555 1_555
C22 C21 1_555 1_555
H25 C22 1_555 1_555
C23 C22 1_555 1_555
H26 C23 1_555 1_555
C24 C23 1_555 1_555
C25 C24 1_555 1_555
H27 C25 1_555 1_555
C26 C21 1_555 1_555
H28 C26 1_555 1_555
C27 N4 1_555 1_555
C28 C27 1_555 1_555
H29 C28 1_555 1_555
C29 C28 1_555 1_555
H30 C29 1_555 1_555
C30 C29 1_555 1_555
H31 C30 1_555 1_555
C31 N5 1_555 1_555
H32 C31 1_555 1_555
C32 N4 1_555 1_555
C33 C32 1_555 1_555
H33 C33 1_555 1_555
C34 C33 1_555 1_555
H34 C34 1_555 1_555
C35 C34 1_555 1_555
H35 C35 1_555 1_555
C36 N6 1_555 1_555
H36 C36 1_555 1_555
C7 C8 1_555 1_555
C12 C13 1_555 1_555
C17 C18 1_555 1_555
C25 C26 1_555 1_555
C30 C31 1_555 1_555
C35 C36 1_555 1_555

#END
