
#######################################################################
#
#                 Cambridge Crystallographic Data Centre
#                                CCDC 
#
#######################################################################
#
# If this CIF has been generated from an entry in the Cambridge 
# Structural Database, then it will include bibliographic, chemical, 
# crystal, experimental, refinement or atomic coordinate data resulting 
# from the CCDC's data processing and validation procedures.
#
#######################################################################

data_HUWYAB
_chemical_formula_moiety         'C18 H16 N2 O2 S2'
_chemical_name_systematic        
2-(3-methoxy-2-thienyl)-1-((3-methoxy-2-thienyl)methyl)-1H-benzimidazole
_symmetry_cell_setting           triclinic
_symmetry_space_group_name_H-M   'P -1'
_symmetry_Int_Tables_number      2
_space_group_name_Hall           '-P 1'
loop_
_symmetry_equiv_pos_site_id
_symmetry_equiv_pos_as_xyz
1 x,y,z
2 -x,-y,-z
_cell_length_a                   8.851(3)
_cell_length_b                   10.064(3)
_cell_length_c                   10.464(3)
_cell_angle_alpha                94.068(5)
_cell_angle_beta                 100.081(6)
_cell_angle_gamma                113.635(5)
_cell_volume                     830.374
_exptl_crystal_colour            yellow
_exptl_crystal_description       block
_cell_formula_units_Z            2
loop_
_atom_site_label
_atom_site_type_symbol
_atom_site_fract_x
_atom_site_fract_y
_atom_site_fract_z
S1 S 0.00694(6) 0.04395(4) 0.25895(4)
S2 S 0.23826(5) 0.65610(4) 0.06305(4)
O1 O 0.2146(2) 0.33653(14) 0.05236(14)
O2 O 0.52966(16) 0.82591(13) 0.40364(12)
N1 N 0.08082(14) 0.45617(12) 0.27824(11)
N2 N -0.17104(15) 0.26475(13) 0.24923(12)
C1 C 0.3027(3) 0.3352(2) -0.0467(2)
H1 H 0.4109 0.3379 -0.0084
H2 H 0.3186 0.4194 -0.0897
H3 H 0.2389 0.2474 -0.1097
C2 C 0.1636(2) 0.21881(17) 0.11500(16)
C3 C 0.05920(19) 0.20795(15) 0.19983(14)
C4 C -0.01245(17) 0.30795(15) 0.24012(13)
C5 C 0.26315(17) 0.53764(15) 0.30097(14)
H4 H 0.3113 0.4706 0.2775
H5 H 0.3078 0.5751 0.3941
C6 C 0.31968(17) 0.66338(15) 0.22596(13)
C7 C 0.44853(18) 0.79751(15) 0.27500(14)
C8 C 0.6604(2) 0.9675(2) 0.4500(2)
H6 H 0.7510 0.9817 0.4060
H7 H 0.7017 0.9773 0.5429
H8 H 0.6176 1.0398 0.4326
C9 C 0.1290(2) -0.0051(2) 0.17352(19)
H9 H 0.1415 -0.0924 0.1765
C10 C 0.2051(2) 0.09683(19) 0.10143(18)
H10 H 0.2765 0.0884 0.0490
C11 C -0.18303(18) 0.39158(16) 0.29721(14)
C12 C -0.02661(18) 0.51164(16) 0.31680(13)
C13 C 0.0010(2) 0.65242(17) 0.37038(16)
H11 H 0.1068 0.7310 0.3849
C14 C -0.1361(3) 0.6694(2) 0.40068(18)
H12 H -0.1224 0.7616 0.4371
C15 C -0.2939(3) 0.5524(2) 0.37822(18)
H13 H -0.3842 0.5686 0.3981
C16 C -0.3207(2) 0.4120(2) 0.32688(17)
H14 H -0.4269 0.3340 0.3127
C17 C 0.4833(2) 0.89474(16) 0.18116(16)
H15 H 0.5683 0.9899 0.1990
C18 C 0.3776(2) 0.83161(16) 0.06297(16)
H16 H 0.3805 0.8787 -0.0105
loop_
_geom_bond_atom_site_label_1
_geom_bond_atom_site_label_2
_geom_bond_site_symmetry_1
_geom_bond_site_symmetry_2
S1 C3 1_555 1_555
S2 C6 1_555 1_555
O1 C1 1_555 1_555
O2 C7 1_555 1_555
N1 C4 1_555 1_555
N2 C4 1_555 1_555
C1 H1 1_555 1_555
H2 C1 1_555 1_555
H3 C1 1_555 1_555
C2 O1 1_555 1_555
C3 C2 1_555 1_555
C4 C3 1_555 1_555
C5 N1 1_555 1_555
H4 C5 1_555 1_555
H5 C5 1_555 1_555
C6 C5 1_555 1_555
C7 C6 1_555 1_555
C8 O2 1_555 1_555
H6 C8 1_555 1_555
H7 C8 1_555 1_555
H8 C8 1_555 1_555
C9 S1 1_555 1_555
H9 C9 1_555 1_555
C10 C2 1_555 1_555
H10 C10 1_555 1_555
C11 N2 1_555 1_555
C12 N1 1_555 1_555
C13 C12 1_555 1_555
H11 C13 1_555 1_555
C14 C13 1_555 1_555
H12 C14 1_555 1_555
C15 C14 1_555 1_555
H13 C15 1_555 1_555
C16 C11 1_555 1_555
H14 C16 1_555 1_555
C17 C7 1_555 1_555
H15 C17 1_555 1_555
C18 S2 1_555 1_555
H16 C18 1_555 1_555
C9 C10 1_555 1_555
C11 C12 1_555 1_555
C15 C16 1_555 1_555
C17 C18 1_555 1_555

#END
