
#######################################################################
#
#                 Cambridge Crystallographic Data Centre
#                                CCDC 
#
#######################################################################
#
# If this CIF has been generated from an entry in the Cambridge 
# Structural Database, then it will include bibliographic, chemical, 
# crystal, experimental, refinement or atomic coordinate data resulting 
# from the CCDC's data processing and validation procedures.
#
#######################################################################

data_HUXBEI
_chemical_formula_moiety         'C24 H40 P2'
_chemical_name_systematic        
1,1'-(1,2-Phenylenebis(methylene))bis-cis,cis-(2,2,3,4,4-pentamethylphosphetane)
_symmetry_cell_setting           triclinic
_symmetry_space_group_name_H-M   'P -1'
_symmetry_Int_Tables_number      2
_space_group_name_Hall           '-P 1'
loop_
_symmetry_equiv_pos_site_id
_symmetry_equiv_pos_as_xyz
1 x,y,z
2 -x,-y,-z
_cell_length_a                   6.0343(3)
_cell_length_b                   13.2316(8)
_cell_length_c                   15.4746(10)
_cell_angle_alpha                83.084(3)
_cell_angle_beta                 79.072(3)
_cell_angle_gamma                87.465(3)
_cell_volume                     1204.02
_exptl_crystal_colour            colorless
_exptl_crystal_description       needle
_cell_formula_units_Z            2
loop_
_atom_site_label
_atom_site_type_symbol
_atom_site_fract_x
_atom_site_fract_y
_atom_site_fract_z
P1 P 0.71947(19) 0.14837(8) 0.21184(7)
P2 P 0.5569(2) 0.46902(8) 0.29381(9)
C1 C 0.5822(8) 0.2156(3) 0.3773(3)
C2 C 0.3884(8) 0.2781(3) 0.3721(3)
C3 C 0.2033(9) 0.2645(4) 0.4430(3)
H1 H 0.0715 0.3062 0.4413
C4 C 0.2086(10) 0.1927(4) 0.5143(4)
H2 H 0.0806 0.1847 0.5607
C5 C 0.3978(12) 0.1323(4) 0.5190(4)
H3 H 0.4020 0.0828 0.5685
C6 C 0.5828(10) 0.1447(3) 0.4503(3)
H4 H 0.7139 0.1030 0.4537
C7 C 0.7796(8) 0.2201(3) 0.3011(3)
H5 H 0.9159 0.1905 0.3222
H6 H 0.8098 0.2920 0.2771
C8 C 0.9402(7) 0.1842(3) 0.1105(3)
C9 C 1.0089(7) 0.0689(3) 0.1096(3)
H7 H 0.9163 0.0401 0.0716
C10 C 0.9059(8) 0.0301(3) 0.2078(3)
C11 C 0.8454(9) 0.2294(4) 0.0295(3)
H8 H 0.7907 0.2992 0.0370
H9 H 0.7203 0.1881 0.0226
H10 H 0.9643 0.2300 -0.0234
C12 C 1.1278(8) 0.2516(4) 0.1235(3)
H11 H 1.2431 0.2591 0.0694
H12 H 1.1963 0.2202 0.1730
H13 H 1.0643 0.3188 0.1364
C13 C 1.2538(8) 0.0419(4) 0.0742(4)
H14 H 1.3503 0.0667 0.1111
H15 H 1.2969 0.0737 0.0131
H16 H 1.2723 -0.0322 0.0756
C14 C 1.0772(8) 0.0159(4) 0.2707(3)
H17 H 0.9962 0.0044 0.3321
H18 H 1.1676 0.0772 0.2630
H19 H 1.1767 -0.0429 0.2571
C15 C 0.7757(9) -0.0687(3) 0.2154(4)
H20 H 0.8798 -0.1231 0.1940
H21 H 0.6574 -0.0580 0.1795
H22 H 0.7068 -0.0882 0.2775
C16 C 0.3776(8) 0.3576(3) 0.2956(3)
H23 H 0.2190 0.3815 0.2981
H24 H 0.4262 0.3264 0.2398
C17 C 0.3661(9) 0.5754(4) 0.3401(4)
C18 C 0.4459(17) 0.6387(6) 0.2496(6)
H25 H 0.5870 0.6725 0.2549
C19 C 0.5208(10) 0.5547(4) 0.1905(4)
C20 C 0.4481(15) 0.6236(6) 0.4110(6)
H26 H 0.3726 0.6901 0.4175
H27 H 0.6117 0.6325 0.3945
H28 H 0.4135 0.5796 0.4673
C21 C 0.1204(13) 0.5544(6) 0.3686(7)
H29 H 0.0970 0.5075 0.4234
H30 H 0.0663 0.5237 0.3221
H31 H 0.0367 0.6183 0.3790
C22 C 0.2867(14) 0.7244(5) 0.2207(6)
H32 H 0.1425 0.6957 0.2168
H33 H 0.3551 0.7586 0.1627
H34 H 0.2607 0.7737 0.2642
C23 C 0.7448(16) 0.5811(8) 0.1289(6)
H35 H 0.7949 0.5250 0.0935
H36 H 0.8584 0.5921 0.1643
H37 H 0.7249 0.6433 0.0896
C24 C 0.3713(14) 0.5196(5) 0.1331(5)
H38 H 0.3458 0.5755 0.0882
H39 H 0.2263 0.4986 0.1698
H40 H 0.4441 0.4618 0.1039
loop_
_geom_bond_atom_site_label_1
_geom_bond_atom_site_label_2
_geom_bond_site_symmetry_1
_geom_bond_site_symmetry_2
P1 C7 1_555 1_555
P2 C16 1_555 1_555
C1 C2 1_555 1_555
C2 C3 1_555 1_555
C3 H1 1_555 1_555
C4 C3 1_555 1_555
H2 C4 1_555 1_555
C5 C4 1_555 1_555
H3 C5 1_555 1_555
C6 C1 1_555 1_555
H4 C6 1_555 1_555
C7 C1 1_555 1_555
H5 C7 1_555 1_555
H6 C7 1_555 1_555
C8 P1 1_555 1_555
C9 C8 1_555 1_555
H7 C9 1_555 1_555
C10 P1 1_555 1_555
C11 C8 1_555 1_555
H8 C11 1_555 1_555
H9 C11 1_555 1_555
H10 C11 1_555 1_555
C12 C8 1_555 1_555
H11 C12 1_555 1_555
H12 C12 1_555 1_555
H13 C12 1_555 1_555
C13 C9 1_555 1_555
H14 C13 1_555 1_555
H15 C13 1_555 1_555
H16 C13 1_555 1_555
C14 C10 1_555 1_555
H17 C14 1_555 1_555
H18 C14 1_555 1_555
H19 C14 1_555 1_555
C15 C10 1_555 1_555
H20 C15 1_555 1_555
H21 C15 1_555 1_555
H22 C15 1_555 1_555
C16 C2 1_555 1_555
H23 C16 1_555 1_555
H24 C16 1_555 1_555
C17 P2 1_555 1_555
C18 C17 1_555 1_555
H25 C18 1_555 1_555
C19 P2 1_555 1_555
C20 C17 1_555 1_555
H26 C20 1_555 1_555
H27 C20 1_555 1_555
H28 C20 1_555 1_555
C21 C17 1_555 1_555
H29 C21 1_555 1_555
H30 C21 1_555 1_555
H31 C21 1_555 1_555
C22 C18 1_555 1_555
H32 C22 1_555 1_555
H33 C22 1_555 1_555
H34 C22 1_555 1_555
C23 C19 1_555 1_555
H35 C23 1_555 1_555
H36 C23 1_555 1_555
H37 C23 1_555 1_555
C24 C19 1_555 1_555
H38 C24 1_555 1_555
H39 C24 1_555 1_555
H40 C24 1_555 1_555
C5 C6 1_555 1_555
C9 C10 1_555 1_555
C18 C19 1_555 1_555

#END
