
#######################################################################
#
#                 Cambridge Crystallographic Data Centre
#                                CCDC 
#
#######################################################################
#
# If this CIF has been generated from an entry in the Cambridge 
# Structural Database, then it will include bibliographic, chemical, 
# crystal, experimental, refinement or atomic coordinate data resulting 
# from the CCDC's data processing and validation procedures.
#
#######################################################################

data_HUXGUE
_chemical_formula_moiety         'C18 H18 N2 O2 S1'
_chemical_name_systematic        
5-((4-Methylphenyl)sulfonyl)-3,4,5,6-tetrahydro-1H-azepino[5,4,3-cd]indole
_symmetry_cell_setting           monoclinic
_symmetry_space_group_name_H-M   'P 21/n'
_symmetry_Int_Tables_number      14
_space_group_name_Hall           '-P 2yn'
loop_
_symmetry_equiv_pos_site_id
_symmetry_equiv_pos_as_xyz
1 x,y,z
2 1/2-x,1/2+y,1/2-z
3 -x,-y,-z
4 1/2+x,1/2-y,1/2+z
_cell_length_a                   14.5042(10)
_cell_length_b                   7.8669(7)
_cell_length_c                   15.0384(15)
_cell_angle_alpha                90
_cell_angle_beta                 113.906(6)
_cell_angle_gamma                90
_cell_volume                     1568.72
_exptl_crystal_colour            colorless
_exptl_crystal_description       prism
_cell_formula_units_Z            4
loop_
_atom_site_label
_atom_site_type_symbol
_atom_site_fract_x
_atom_site_fract_y
_atom_site_fract_z
S1 S 0.02464(3) 0.29524(5) 0.24771(3)
O1 O -0.01461(9) 0.21848(17) 0.15214(9)
O2 O -0.00376(9) 0.46714(16) 0.25744(9)
N1 N -0.01081(11) 0.17459(19) 0.31605(10)
N2 N -0.26063(12) -0.1962(2) 0.38102(12)
H1 H -0.313(2) -0.248(4) 0.383(2)
C1 C 0.02038(13) -0.0078(2) 0.32176(13)
H2 H 0.0600 -0.0389 0.3906
H3 H 0.0641 -0.0231 0.2861
C2 C -0.07061(14) -0.1252(2) 0.27874(13)
H4 H -0.1101 -0.0929 0.2101
H5 H -0.0466 -0.2432 0.2794
C3 C -0.13828(13) -0.1200(2) 0.33212(12)
C4 C -0.20491(15) -0.2460(3) 0.33015(14)
H6 H -0.2115 -0.3524 0.2982
C5 C -0.23331(13) -0.0340(3) 0.41485(13)
C6 C -0.15437(11) 0.0186(2) 0.38732(11)
C7 C -0.27202(14) 0.0699(3) 0.46666(15)
H7 H -0.3244 0.0316 0.4843
C8 C -0.23095(15) 0.2317(3) 0.49145(15)
H8 H -0.2567 0.3067 0.5254
C9 C -0.15132(15) 0.2863(2) 0.46683(14)
H9 H -0.1244 0.3972 0.4851
C10 C -0.11120(13) 0.1821(2) 0.41657(12)
C11 C -0.01877(13) 0.2451(2) 0.40299(12)
H10 H -0.0214 0.3706 0.3981
H11 H 0.0424 0.2140 0.4610
C12 C 0.15791(12) 0.2855(2) 0.29377(11)
C13 C 0.21359(12) 0.3480(2) 0.38717(12)
H12 H 0.1801 0.3934 0.4246
C14 C 0.31859(12) 0.3433(2) 0.42519(12)
H13 H 0.3564 0.3861 0.4887
C15 C 0.36903(12) 0.2765(2) 0.37096(12)
C16 C 0.31196(13) 0.2148(2) 0.27748(13)
H14 H 0.3454 0.1696 0.2399
C17 C 0.20633(13) 0.2185(2) 0.23825(12)
H15 H 0.1682 0.1760 0.1747
C18 C 0.48309(13) 0.2729(3) 0.41337(14)
H16 H 0.5057 0.1906 0.3776
H17 H 0.5088 0.2398 0.4820
H18 H 0.5086 0.3861 0.4080
loop_
_geom_bond_atom_site_label_1
_geom_bond_atom_site_label_2
_geom_bond_site_symmetry_1
_geom_bond_site_symmetry_2
S1 O1 1_555 1_555
O2 S1 1_555 1_555
N1 S1 1_555 1_555
N2 H1 1_555 1_555
C1 N1 1_555 1_555
H2 C1 1_555 1_555
H3 C1 1_555 1_555
C2 C1 1_555 1_555
H4 C2 1_555 1_555
H5 C2 1_555 1_555
C3 C2 1_555 1_555
C4 N2 1_555 1_555
H6 C4 1_555 1_555
C5 N2 1_555 1_555
C6 C3 1_555 1_555
C7 C5 1_555 1_555
H7 C7 1_555 1_555
C8 C7 1_555 1_555
H8 C8 1_555 1_555
C9 C8 1_555 1_555
H9 C9 1_555 1_555
C10 C6 1_555 1_555
C11 N1 1_555 1_555
H10 C11 1_555 1_555
H11 C11 1_555 1_555
C12 S1 1_555 1_555
C13 C12 1_555 1_555
H12 C13 1_555 1_555
C14 C13 1_555 1_555
H13 C14 1_555 1_555
C15 C14 1_555 1_555
C16 C15 1_555 1_555
H14 C16 1_555 1_555
C17 C12 1_555 1_555
H15 C17 1_555 1_555
C18 C15 1_555 1_555
H16 C18 1_555 1_555
H17 C18 1_555 1_555
H18 C18 1_555 1_555
C3 C4 1_555 1_555
C5 C6 1_555 1_555
C9 C10 1_555 1_555
C10 C11 1_555 1_555
C16 C17 1_555 1_555

#END
