
#######################################################################
#
#                 Cambridge Crystallographic Data Centre
#                                CCDC 
#
#######################################################################
#
# If this CIF has been generated from an entry in the Cambridge 
# Structural Database, then it will include bibliographic, chemical, 
# crystal, experimental, refinement or atomic coordinate data resulting 
# from the CCDC's data processing and validation procedures.
#
#######################################################################

data_HUXJOA
_chemical_formula_moiety         'C24 H17 N1 O1'
_chemical_name_systematic        
8-Methyl-6-phenylbenzo[a]phenanthridin-5(6H)-one
_symmetry_cell_setting           monoclinic
_symmetry_space_group_name_H-M   'P 21/c'
_symmetry_Int_Tables_number      14
_space_group_name_Hall           '-P 2ybc'
loop_
_symmetry_equiv_pos_site_id
_symmetry_equiv_pos_as_xyz
1 x,y,z
2 -x,1/2+y,1/2-z
3 -x,-y,-z
4 x,1/2-y,1/2+z
_cell_length_a                   11.7093(19)
_cell_length_b                   17.477(3)
_cell_length_c                   9.2337(15)
_cell_angle_alpha                90
_cell_angle_beta                 109.781(2)
_cell_angle_gamma                90
_cell_volume                     1778.12
_exptl_crystal_colour            colorless
_exptl_crystal_description       plate
_chemical_melting_point          '166-168 deg.C'
_cell_formula_units_Z            4
_exptl_crystal_recrystallization_method acetone/hexane
loop_
_atom_site_label
_atom_site_type_symbol
_atom_site_fract_x
_atom_site_fract_y
_atom_site_fract_z
N1 N -0.06083(11) 0.14963(7) 0.40158(15)
C1 C -0.19151(14) 0.15839(9) 0.33631(19)
C2 C -0.24176(16) 0.19710(11) 0.2006(2)
H1 H -0.1925 0.2186 0.1507
C3 C -0.26400(16) 0.12803(11) 0.4116(2)
H2 H -0.2294 0.1031 0.5052
C4 C -0.38842(18) 0.13473(13) 0.3475(3)
H3 H -0.4377 0.1138 0.3979
C5 C -0.43976(17) 0.17186(13) 0.2110(3)
H4 H -0.5237 0.1755 0.1674
C6 C -0.36678(17) 0.20379(12) 0.1385(2)
H5 H -0.4016 0.2302 0.0467
C7 C 0.12252(13) 0.08371(8) 0.40514(18)
C8 C -0.00314(13) 0.08926(8) 0.35215(17)
C9 C 0.10254(15) -0.02658(9) 0.22904(18)
C10 C -0.02588(15) -0.02553(9) 0.19615(18)
C11 C 0.17672(14) 0.02998(9) 0.32825(18)
C12 C -0.07535(14) 0.03332(9) 0.25154(19)
H6 H -0.1594 0.0368 0.2223
C13 C 0.15813(18) -0.08116(10) 0.1611(2)
H7 H 0.1112 -0.1200 0.1008
C14 C 0.29965(15) 0.03352(10) 0.3384(2)
H8 H 0.3484 0.0726 0.3952
C15 C -0.10615(17) -0.08600(10) 0.0961(2)
H9 H -0.1889 -0.0767 0.0880
H10 H -0.0815 -0.1355 0.1411
H11 H -0.0992 -0.0844 -0.0045
C16 C 0.27854(19) -0.07799(12) 0.1822(3)
H12 H 0.3139 -0.1155 0.1396
C17 C 0.34885(18) -0.01882(12) 0.2671(3)
H13 H 0.4300 -0.0149 0.2756
C18 C 0.13231(14) 0.19373(9) 0.57569(18)
C19 C 0.19099(13) 0.13143(9) 0.53548(18)
C20 C 0.19449(16) 0.24183(10) 0.6978(2)
H14 H 0.1552 0.2843 0.7193
C21 C 0.31191(17) 0.22736(11) 0.7859(2)
H15 H 0.3535 0.2603 0.8653
C22 C 0.36839(17) 0.16259(12) 0.7550(2)
H16 H 0.4471 0.1509 0.8176
C23 C 0.30984(15) 0.11574(10) 0.6337(2)
H17 H 0.3495 0.0726 0.6159
C24 C 0.00188(14) 0.20627(9) 0.50095(19)
O1 O -0.05175(10) 0.26134(7) 0.52987(15)
loop_
_geom_bond_atom_site_label_1
_geom_bond_atom_site_label_2
_geom_bond_site_symmetry_1
_geom_bond_site_symmetry_2
N1 C1 1_555 1_555
C1 C2 1_555 1_555
C2 H1 1_555 1_555
C3 C1 1_555 1_555
H2 C3 1_555 1_555
C4 C3 1_555 1_555
H3 C4 1_555 1_555
C5 C4 1_555 1_555
H4 C5 1_555 1_555
C6 C2 1_555 1_555
H5 C6 1_555 1_555
C7 C8 1_555 1_555
C8 N1 1_555 1_555
C9 C10 1_555 1_555
C10 C12 1_555 1_555
C11 C7 1_555 1_555
C12 C8 1_555 1_555
H6 C12 1_555 1_555
C13 C9 1_555 1_555
H7 C13 1_555 1_555
C14 C11 1_555 1_555
H8 C14 1_555 1_555
C15 C10 1_555 1_555
H9 C15 1_555 1_555
H10 C15 1_555 1_555
H11 C15 1_555 1_555
C16 C13 1_555 1_555
H12 C16 1_555 1_555
C17 C14 1_555 1_555
H13 C17 1_555 1_555
C18 C19 1_555 1_555
C19 C7 1_555 1_555
C20 C18 1_555 1_555
H14 C20 1_555 1_555
C21 C20 1_555 1_555
H15 C21 1_555 1_555
C22 C21 1_555 1_555
H16 C22 1_555 1_555
C23 C19 1_555 1_555
H17 C23 1_555 1_555
C24 N1 1_555 1_555
O1 C24 1_555 1_555
C5 C6 1_555 1_555
C9 C11 1_555 1_555
C16 C17 1_555 1_555
C18 C24 1_555 1_555
C22 C23 1_555 1_555

#END
