
#######################################################################
#
#                 Cambridge Crystallographic Data Centre
#                                CCDC 
#
#######################################################################
#
# If this CIF has been generated from an entry in the Cambridge 
# Structural Database, then it will include bibliographic, chemical, 
# crystal, experimental, refinement or atomic coordinate data resulting 
# from the CCDC's data processing and validation procedures.
#
#######################################################################

data_HUXXAB
_chemical_formula_moiety         'C30 H33 B1 N2'
_chemical_name_systematic        
3,4-dimesityl-7,9-dimethyl-3H-benzo[e]imidazo[1,2-a][1,3]azaborinin-10-ium-4-uide
_symmetry_cell_setting           triclinic
_symmetry_space_group_name_H-M   'P -1'
_symmetry_Int_Tables_number      2
_space_group_name_Hall           '-P 1'
loop_
_symmetry_equiv_pos_site_id
_symmetry_equiv_pos_as_xyz
1 x,y,z
2 -x,-y,-z
_cell_length_a                   8.2097(14)
_cell_length_b                   8.2252(14)
_cell_length_c                   18.409(3)
_cell_angle_alpha                84.775(2)
_cell_angle_beta                 79.812(2)
_cell_angle_gamma                86.349(3)
_cell_volume                     1216.97
_exptl_crystal_colour            colorless
_exptl_crystal_description       block
_cell_formula_units_Z            2
loop_
_atom_site_label
_atom_site_type_symbol
_atom_site_fract_x
_atom_site_fract_y
_atom_site_fract_z
B1 B 0.7521(3) 0.8154(3) 0.20419(12)
N1 N 0.63178(19) 0.52116(17) 0.24422(8)
N2 N 0.85293(18) 0.53441(17) 0.15780(8)
C1 C 0.7426(2) 0.6289(2) 0.20484(9)
C2 C 0.8877(2) 0.8747(2) 0.14783(10)
H1 H 0.9011 0.9893 0.1406
C3 C 0.6693(3) 0.3662(2) 0.22173(11)
H2 H 0.6108 0.2711 0.2407
C4 C 0.8024(3) 0.3733(2) 0.16851(11)
H3 H 0.8541 0.2842 0.1423
C5 C 1.0016(2) 0.7718(2) 0.10281(10)
C6 C 1.1362(2) 0.8396(2) 0.05252(10)
H4 H 1.1440 0.9550 0.0473
C7 C 1.2552(2) 0.7463(2) 0.01116(10)
C8 C 1.2426(2) 0.5766(2) 0.02013(10)
H5 H 1.3260 0.5107 -0.0076
C9 C 1.1152(2) 0.4999(2) 0.06713(10)
C10 C 0.9905(2) 0.5997(2) 0.10776(9)
C11 C 1.1253(2) 0.3147(2) 0.07194(11)
H6 H 1.2319 0.2764 0.0443
H7 H 1.0349 0.2758 0.0507
H8 H 1.1156 0.2720 0.1239
C12 C 1.3977(2) 0.8231(3) -0.04089(12)
H9 H 1.3582 0.9257 -0.0649
H10 H 1.4435 0.7481 -0.0786
H11 H 1.4838 0.8453 -0.0130
C13 C 0.6325(2) 0.9245(2) 0.26062(10)
C14 C 0.6929(2) 0.9916(2) 0.31835(10)
C15 C 0.5851(3) 1.0728(2) 0.37187(11)
H12 H 0.6281 1.1133 0.4110
C16 C 0.4172(3) 1.0965(2) 0.37010(11)
C17 C 0.3599(2) 1.0410(2) 0.31072(11)
H13 H 0.2464 1.0606 0.3069
C18 C 0.4635(2) 0.9574(2) 0.25657(10)
C19 C 0.3897(2) 0.9076(2) 0.19255(11)
H14 H 0.2794 0.8664 0.2112
H15 H 0.4614 0.8217 0.1681
H16 H 0.3807 1.0025 0.1570
C20 C 0.3014(3) 1.1803(3) 0.43008(12)
H17 H 0.3076 1.1210 0.4782
H18 H 0.1876 1.1813 0.4204
H19 H 0.3336 1.2928 0.4305
C21 C 0.8761(2) 0.9852(3) 0.32211(12)
H20 H 0.8906 0.9935 0.3733
H21 H 0.9285 1.0764 0.2904
H22 H 0.9277 0.8816 0.3050
C22 C 0.4983(2) 0.5599(2) 0.30370(9)
C23 C 0.3355(2) 0.5552(2) 0.29336(10)
C24 C 0.2116(2) 0.6047(2) 0.34998(11)
H23 H 0.0993 0.6036 0.3438
C25 C 0.2464(2) 0.6555(2) 0.41497(11)
C26 C 0.4112(2) 0.6474(2) 0.42515(10)
H24 H 0.4366 0.6766 0.4705
C27 C 0.5391(2) 0.5977(2) 0.37047(10)
C28 C 0.7153(2) 0.5823(2) 0.38391(10)
H25 H 0.7167 0.5919 0.4365
H26 H 0.7786 0.6693 0.3540
H27 H 0.7652 0.4757 0.3700
C29 C 0.1099(3) 0.7194(3) 0.47322(12)
H28 H 0.0090 0.6610 0.4741
H29 H 0.0879 0.8365 0.4615
H30 H 0.1441 0.7022 0.5218
C30 C 0.2899(3) 0.4985(3) 0.22418(11)
H31 H 0.1761 0.5372 0.2203
H32 H 0.2981 0.3788 0.2266
H33 H 0.3659 0.5427 0.1807
loop_
_geom_bond_atom_site_label_1
_geom_bond_atom_site_label_2
_geom_bond_site_symmetry_1
_geom_bond_site_symmetry_2
B1 C1 1_555 1_555
N1 C1 1_555 1_555
N2 C1 1_555 1_555
C2 B1 1_555 1_555
H1 C2 1_555 1_555
C3 N1 1_555 1_555
H2 C3 1_555 1_555
C4 N2 1_555 1_555
H3 C4 1_555 1_555
C5 C2 1_555 1_555
C6 C5 1_555 1_555
H4 C6 1_555 1_555
C7 C6 1_555 1_555
C8 C7 1_555 1_555
H5 C8 1_555 1_555
C9 C8 1_555 1_555
C10 N2 1_555 1_555
C11 C9 1_555 1_555
H6 C11 1_555 1_555
H7 C11 1_555 1_555
H8 C11 1_555 1_555
C12 C7 1_555 1_555
H9 C12 1_555 1_555
H10 C12 1_555 1_555
H11 C12 1_555 1_555
C13 B1 1_555 1_555
C14 C13 1_555 1_555
C15 C14 1_555 1_555
H12 C15 1_555 1_555
C16 C15 1_555 1_555
C17 C16 1_555 1_555
H13 C17 1_555 1_555
C18 C13 1_555 1_555
C19 C18 1_555 1_555
H14 C19 1_555 1_555
H15 C19 1_555 1_555
H16 C19 1_555 1_555
C20 C16 1_555 1_555
H17 C20 1_555 1_555
H18 C20 1_555 1_555
H19 C20 1_555 1_555
C21 C14 1_555 1_555
H20 C21 1_555 1_555
H21 C21 1_555 1_555
H22 C21 1_555 1_555
C22 N1 1_555 1_555
C23 C22 1_555 1_555
C24 C23 1_555 1_555
H23 C24 1_555 1_555
C25 C24 1_555 1_555
C26 C25 1_555 1_555
H24 C26 1_555 1_555
C27 C22 1_555 1_555
C28 C27 1_555 1_555
H25 C28 1_555 1_555
H26 C28 1_555 1_555
H27 C28 1_555 1_555
C29 C25 1_555 1_555
H28 C29 1_555 1_555
H29 C29 1_555 1_555
H30 C29 1_555 1_555
C30 C23 1_555 1_555
H31 C30 1_555 1_555
H32 C30 1_555 1_555
H33 C30 1_555 1_555
C3 C4 1_555 1_555
C5 C10 1_555 1_555
C9 C10 1_555 1_555
C17 C18 1_555 1_555
C26 C27 1_555 1_555

#END
