
#######################################################################
#
#                 Cambridge Crystallographic Data Centre
#                                CCDC 
#
#######################################################################
#
# If this CIF has been generated from an entry in the Cambridge 
# Structural Database, then it will include bibliographic, chemical, 
# crystal, experimental, refinement or atomic coordinate data resulting 
# from the CCDC's data processing and validation procedures.
#
#######################################################################

data_HUXXIJ
_chemical_formula_moiety         'C39 H45 B1 N2'
_chemical_name_systematic        
3,4,4-trimesityl-7,9-dimethyl-4,5-dihydro-3H-benzo[e]imidazo[1,2-a][1,3]azaborinin-10-ium-4-uide
_symmetry_cell_setting           orthorhombic
_symmetry_space_group_name_H-M   'P 21 21 21'
_symmetry_Int_Tables_number      19
_space_group_name_Hall           'P 2ac 2ab'
loop_
_symmetry_equiv_pos_site_id
_symmetry_equiv_pos_as_xyz
1 x,y,z
2 1/2+x,1/2-y,-z
3 -x,1/2+y,1/2-z
4 1/2-x,-y,1/2+z
_cell_length_a                   12.9207(12)
_cell_length_b                   14.0222(13)
_cell_length_c                   17.7632(17)
_cell_angle_alpha                90
_cell_angle_beta                 90
_cell_angle_gamma                90
_cell_volume                     3218.28
_exptl_crystal_colour            colorless
_exptl_crystal_description       block
_cell_formula_units_Z            4
loop_
_atom_site_label
_atom_site_type_symbol
_atom_site_fract_x
_atom_site_fract_y
_atom_site_fract_z
B1 B 0.80628(17) 0.41143(16) 0.15756(12)
N1 N 0.72637(13) 0.51223(13) 0.03315(9)
N2 N 0.88052(13) 0.45591(12) 0.02370(8)
C1 C 0.80196(15) 0.46792(14) 0.07420(11)
C2 C 0.86218(15) 0.31240(13) 0.12517(11)
H1 H 0.8686 0.2653 0.1664
H2 H 0.8188 0.2841 0.0851
C3 C 0.75817(18) 0.52430(17) -0.04087(11)
H3 H 0.7188 0.5526 -0.0801
C4 C 0.85338(17) 0.48937(16) -0.04723(11)
H4 H 0.8947 0.4876 -0.0915
C5 C 0.96744(15) 0.33524(14) 0.09435(10)
C6 C 1.05758(15) 0.28806(15) 0.11521(11)
H5 H 1.0537 0.2373 0.1505
C7 C 1.15303(16) 0.31350(16) 0.08563(11)
C8 C 1.15787(16) 0.38933(17) 0.03641(12)
H6 H 1.2234 0.4071 0.0166
C9 C 1.07125(16) 0.44096(16) 0.01454(11)
C10 C 0.97595(15) 0.41042(14) 0.04325(10)
C11 C 1.08432(19) 0.52708(18) -0.03516(13)
H7 H 1.1543 0.5528 -0.0290
H8 H 1.0335 0.5758 -0.0210
H9 H 1.0736 0.5087 -0.0878
C12 C 1.24954(18) 0.2568(2) 0.10601(15)
H10 H 1.3111 0.2906 0.0879
H11 H 1.2461 0.1936 0.0824
H12 H 1.2535 0.2495 0.1608
C13 C 0.68692(15) 0.40433(15) 0.19220(10)
C14 C 0.64365(16) 0.48605(15) 0.22746(10)
C15 C 0.54065(17) 0.48685(19) 0.25183(11)
H13 H 0.5143 0.5433 0.2744
C16 C 0.47593(17) 0.4095(2) 0.24461(11)
C17 C 0.51937(17) 0.32695(18) 0.21575(12)
H14 H 0.4781 0.2710 0.2132
C18 C 0.62175(15) 0.32279(15) 0.19019(11)
C19 C 0.65437(16) 0.22537(16) 0.16145(13)
H15 H 0.5972 0.1802 0.1679
H16 H 0.7147 0.2031 0.1899
H17 H 0.6723 0.2299 0.1080
C20 C 0.70415(18) 0.57634(16) 0.23992(13)
H18 H 0.6562 0.6292 0.2493
H19 H 0.7457 0.5903 0.1951
H20 H 0.7499 0.5683 0.2835
C21 C 0.36214(19) 0.4155(2) 0.26423(14)
H21 H 0.3488 0.4745 0.2920
H22 H 0.3429 0.3606 0.2955
H23 H 0.3210 0.4150 0.2179
C22 C 0.62479(17) 0.54475(16) 0.05693(11)
C23 C 0.6112(2) 0.64050(18) 0.07458(13)
C24 C 0.5127(3) 0.6688(2) 0.09590(14)
H24 H 0.5018 0.7334 0.1102
C25 C 0.4300(2) 0.6070(2) 0.09710(14)
C26 C 0.44506(18) 0.5124(2) 0.07438(12)
H25 H 0.3882 0.4694 0.0741
C27 C 0.54243(16) 0.48069(17) 0.05218(11)
C28 C 0.55510(18) 0.38324(18) 0.01901(12)
H26 H 0.4976 0.3425 0.0352
H27 H 0.6206 0.3556 0.0362
H28 H 0.5554 0.3878 -0.0360
C29 C 0.6982(3) 0.71197(19) 0.06978(18)
H29 H 0.6762 0.7722 0.0928
H30 H 0.7160 0.7229 0.0169
H31 H 0.7588 0.6873 0.0966
C30 C 0.3228(2) 0.6379(3) 0.12358(18)
H32 H 0.3083 0.7025 0.1053
H33 H 0.3204 0.6373 0.1787
H34 H 0.2707 0.5938 0.1037
C31 C 0.89161(15) 0.45389(13) 0.22010(10)
C32 C 0.95928(16) 0.53265(14) 0.21167(10)
C33 C 1.03774(16) 0.55089(15) 0.26379(11)
H35 H 1.0825 0.6035 0.2551
C34 C 1.05329(14) 0.49601(16) 0.32726(10)
C35 C 0.98465(15) 0.42169(15) 0.33850(10)
H36 H 0.9913 0.3838 0.3826
C36 C 0.90611(14) 0.40045(13) 0.28746(10)
C37 C 0.83717(16) 0.31749(14) 0.30957(11)
H37 H 0.8580 0.2937 0.3592
H38 H 0.8440 0.2663 0.2723
H39 H 0.7650 0.3389 0.3115
C38 C 0.95292(19) 0.60610(16) 0.14905(12)
H40 H 0.9533 0.6703 0.1709
H41 H 0.8888 0.5966 0.1205
H42 H 1.0125 0.5988 0.1154
C39 C 1.14005(16) 0.5167(2) 0.38177(12)
H43 H 1.2031 0.5323 0.3537
H44 H 1.1526 0.4604 0.4132
H45 H 1.1208 0.5707 0.4138
loop_
_geom_bond_atom_site_label_1
_geom_bond_atom_site_label_2
_geom_bond_site_symmetry_1
_geom_bond_site_symmetry_2
B1 C1 1_555 1_555
N1 C1 1_555 1_555
N2 C1 1_555 1_555
C2 B1 1_555 1_555
H1 C2 1_555 1_555
H2 C2 1_555 1_555
C3 N1 1_555 1_555
H3 C3 1_555 1_555
C4 N2 1_555 1_555
H4 C4 1_555 1_555
C5 C2 1_555 1_555
C6 C5 1_555 1_555
H5 C6 1_555 1_555
C7 C6 1_555 1_555
C8 C7 1_555 1_555
H6 C8 1_555 1_555
C9 C8 1_555 1_555
C10 N2 1_555 1_555
C11 C9 1_555 1_555
H7 C11 1_555 1_555
H8 C11 1_555 1_555
H9 C11 1_555 1_555
C12 C7 1_555 1_555
H10 C12 1_555 1_555
H11 C12 1_555 1_555
H12 C12 1_555 1_555
C13 B1 1_555 1_555
C14 C13 1_555 1_555
C15 C14 1_555 1_555
H13 C15 1_555 1_555
C16 C15 1_555 1_555
C17 C16 1_555 1_555
H14 C17 1_555 1_555
C18 C13 1_555 1_555
C19 C18 1_555 1_555
H15 C19 1_555 1_555
H16 C19 1_555 1_555
H17 C19 1_555 1_555
C20 C14 1_555 1_555
H18 C20 1_555 1_555
H19 C20 1_555 1_555
H20 C20 1_555 1_555
C21 C16 1_555 1_555
H21 C21 1_555 1_555
H22 C21 1_555 1_555
H23 C21 1_555 1_555
C22 N1 1_555 1_555
C23 C22 1_555 1_555
C24 C23 1_555 1_555
H24 C24 1_555 1_555
C25 C24 1_555 1_555
C26 C25 1_555 1_555
H25 C26 1_555 1_555
C27 C22 1_555 1_555
C28 C27 1_555 1_555
H26 C28 1_555 1_555
H27 C28 1_555 1_555
H28 C28 1_555 1_555
C29 C23 1_555 1_555
H29 C29 1_555 1_555
H30 C29 1_555 1_555
H31 C29 1_555 1_555
C30 C25 1_555 1_555
H32 C30 1_555 1_555
H33 C30 1_555 1_555
H34 C30 1_555 1_555
C31 B1 1_555 1_555
C32 C31 1_555 1_555
C33 C32 1_555 1_555
H35 C33 1_555 1_555
C34 C33 1_555 1_555
C35 C34 1_555 1_555
H36 C35 1_555 1_555
C36 C31 1_555 1_555
C37 C36 1_555 1_555
H37 C37 1_555 1_555
H38 C37 1_555 1_555
H39 C37 1_555 1_555
C38 C32 1_555 1_555
H40 C38 1_555 1_555
H41 C38 1_555 1_555
H42 C38 1_555 1_555
C39 C34 1_555 1_555
H43 C39 1_555 1_555
H44 C39 1_555 1_555
H45 C39 1_555 1_555
C3 C4 1_555 1_555
C5 C10 1_555 1_555
C9 C10 1_555 1_555
C17 C18 1_555 1_555
C26 C27 1_555 1_555
C35 C36 1_555 1_555

#END
