
#######################################################################
#
#                 Cambridge Crystallographic Data Centre
#                                CCDC 
#
#######################################################################
#
# If this CIF has been generated from an entry in the Cambridge 
# Structural Database, then it will include bibliographic, chemical, 
# crystal, experimental, refinement or atomic coordinate data resulting 
# from the CCDC's data processing and validation procedures.
#
#######################################################################

data_HUXZAC
_chemical_formula_moiety         'C33 H44 N2 O6'
_chemical_name_systematic        
4-Hydroxy-2'-((6-hydroxy-5-(hydroxymethyl)-5,8a-dimethyl-2-methylenedecahydronaphthalen-1-yl)methyl)-1''-methyl-4,5,5',6',7',7a'-hexahydrodispiro[furan-3,1'-pyrrolizine-3',3''-indole]-2,2''(1''H)-dione
_symmetry_cell_setting           orthorhombic
_symmetry_space_group_name_H-M   'P 21 21 21'
_symmetry_Int_Tables_number      19
_space_group_name_Hall           'P 2ac 2ab'
loop_
_symmetry_equiv_pos_site_id
_symmetry_equiv_pos_as_xyz
1 x,y,z
2 1/2-x,-y,1/2+z
3 -x,1/2+y,1/2-z
4 1/2+x,1/2-y,-z
_cell_length_a                   19.755(4)
_cell_length_b                   8.398(2)
_cell_length_c                   17.661(4)
_cell_angle_alpha                90
_cell_angle_beta                 90
_cell_angle_gamma                90
_cell_volume                     2930
_exptl_crystal_colour            colorless
_exptl_crystal_description       block
_chemical_melting_point          '208-210 deg.C'
_cell_formula_units_Z            4
loop_
_atom_site_label
_atom_site_type_symbol
_atom_site_fract_x
_atom_site_fract_y
_atom_site_fract_z
C1 C 0.94126(11) 0.2109(2) 0.47893(10)
C2 C 0.98581(12) 0.1194(3) 0.53436(11)
C3 C 0.95844(11) 0.1250(3) 0.61440(11)
C4 C 0.94845(9) 0.2959(3) 0.64401(10)
C5 C 0.90587(9) 0.3908(2) 0.58419(9)
C6 C 0.88777(14) 0.5584(3) 0.61063(13)
C7 C 0.83642(14) 0.6359(3) 0.55759(14)
C8 C 0.86128(10) 0.6290(2) 0.47681(12)
C9 C 0.87380(9) 0.4601(2) 0.44988(9)
C10 C 0.93164(8) 0.3862(2) 0.50067(9)
C11 C 0.88513(9) 0.4483(2) 0.36331(10)
C12 C 0.85365(8) 0.30419(19) 0.32302(8)
C13 C 0.87764(8) 0.2805(2) 0.24089(9)
C14 C 0.88734(10) 0.4263(3) 0.18907(10)
C15 C 0.94069(13) 0.3675(4) 0.13390(13)
C16 C 0.94766(10) 0.2066(3) 0.23762(12)
C17 C 0.77462(8) 0.29457(19) 0.31713(9)
C18 C 0.74370(9) 0.2219(2) 0.38759(10)
C19 C 0.75051(12) 0.0731(3) 0.41956(12)
C20 C 0.71950(16) 0.0415(4) 0.48868(15)
C21 C 0.68281(14) 0.1586(5) 0.52486(15)
C22 C 0.67551(12) 0.3086(4) 0.49403(14)
C23 C 0.70578(9) 0.3377(3) 0.42426(11)
C24 C 0.74274(9) 0.4618(2) 0.31772(13)
C25 C 0.71366(11) 0.0866(3) 0.23747(13)
C26 C 0.75585(17) -0.0628(3) 0.2240(2)
C27 C 0.82962(13) -0.0102(3) 0.22922(15)
C28 C 0.82485(10) 0.1660(2) 0.20884(10)
C29 C 0.87571(15) 0.7598(3) 0.43785(18)
C30 C 0.99746(9) 0.4793(3) 0.48774(12)
C31 C 1.01712(10) 0.3738(3) 0.66175(12)
C32 C 0.90738(12) 0.2855(4) 0.71820(11)
C33 C 0.67102(16) 0.6240(4) 0.4034(2)
N1 N 0.70623(9) 0.4786(2) 0.38254(12)
N2 N 0.76144(8) 0.22016(19) 0.24329(9)
O1 O 0.98096(9) 0.2562(3) 0.17549(11)
O2 O 0.83081(11) 0.4751(3) 0.14696(11)
O3 O 0.97263(9) 0.1177(3) 0.28209(12)
O4 O 1.04568(10) 0.3220(3) 0.73225(10)
O5 O 1.00503(11) 0.0400(3) 0.66258(11)
O6 O 0.74920(9) 0.5631(2) 0.26906(13)
H1 H 0.9002(14) 0.159(3) 0.4737(16)
H2 H 0.9580(16) 0.195(4) 0.4314(19)
H3 H 0.8053(16) 0.504(4) 0.1807(19)
H4 H 0.9147(13) 0.074(3) 0.6153(14)
H5 H 1.0492(19) 0.223(5) 0.723(2)
H6 H 0.8610(11) 0.333(3) 0.5831(13)
H7 H 0.9871(18) -0.036(5) 0.685(2)
H8 H 0.9254(19) 0.619(5) 0.613(2)
H9 H 0.8675(16) 0.556(4) 0.6616(19)
H10 H 0.822(2) 0.744(5) 0.574(2)
H11 H 0.7936(16) 0.581(4) 0.5607(18)
H12 H 0.8372(13) 0.398(3) 0.4602(13)
H13 H 0.8676(15) 0.544(3) 0.3427(16)
H14 H 0.9327(14) 0.454(3) 0.3519(14)
H15 H 0.8651(12) 0.214(3) 0.3500(14)
H16 H 0.9046(14) 0.508(3) 0.2215(16)
H17 H 0.975(2) 0.452(5) 0.115(2)
H18 H 0.9187(16) 0.311(4) 0.0943(19)
H19 H 0.7814(18) -0.012(4) 0.3938(18)
H20 H 0.719(2) -0.057(5) 0.510(2)
H21 H 1.0261(19) 0.157(4) 0.5369(19)
H22 H 0.9882(17) 0.014(4) 0.5195(19)
H23 H 0.6604(19) 0.130(5) 0.566(2)
H24 H 0.647(2) 0.385(5) 0.510(2)
H25 H 0.6844(19) 0.102(5) 0.194(2)
H26 H 0.6846(17) 0.082(4) 0.283(2)
H27 H 0.746(2) -0.108(7) 0.183(3)
H28 H 0.750(2) -0.138(7) 0.254(3)
H29 H 0.8480(16) -0.013(4) 0.281(2)
H30 H 0.8600(18) -0.065(4) 0.195(2)
H31 H 0.8178(15) 0.179(4) 0.1558(18)
H32 H 0.8935(16) 0.767(4) 0.391(2)
H33 H 0.870(2) 0.866(5) 0.462(2)
H34 H 1.005(2) 0.519(5) 0.436(2)
H35 H 1.0339(18) 0.431(4) 0.5114(19)
H36 H 0.998(3) 0.595(7) 0.505(3)
H37 H 1.0531(14) 0.350(4) 0.6206(16)
H38 H 1.013(2) 0.482(6) 0.666(2)
H39 H 0.9249(17) 0.209(4) 0.7540(18)
H40 H 0.8608(16) 0.272(4) 0.7093(18)
H41 H 0.9065(19) 0.388(5) 0.745(2)
H42 H 0.687(3) 0.712(6) 0.367(3)
H43 H 0.691(2) 0.667(5) 0.454(2)
H44 H 0.619(2) 0.616(6) 0.409(3)
loop_
_geom_bond_atom_site_label_1
_geom_bond_atom_site_label_2
_geom_bond_site_symmetry_1
_geom_bond_site_symmetry_2
C1 C2 1_555 1_555
C2 C3 1_555 1_555
C3 C4 1_555 1_555
C4 C5 1_555 1_555
C5 C6 1_555 1_555
C6 C7 1_555 1_555
C7 C8 1_555 1_555
C8 C9 1_555 1_555
C9 C10 1_555 1_555
C10 C1 1_555 1_555
C11 C9 1_555 1_555
C12 C11 1_555 1_555
C13 C12 1_555 1_555
C14 C13 1_555 1_555
C15 C14 1_555 1_555
C16 C13 1_555 1_555
C17 C12 1_555 1_555
C18 C17 1_555 1_555
C19 C18 1_555 1_555
C20 C19 1_555 1_555
C21 C20 1_555 1_555
C22 C21 1_555 1_555
C23 C18 1_555 1_555
C24 C17 1_555 1_555
C25 C26 1_555 1_555
C26 C27 1_555 1_555
C27 C28 1_555 1_555
C28 C13 1_555 1_555
C29 C8 1_555 1_555
C30 C10 1_555 1_555
C31 C4 1_555 1_555
C32 C4 1_555 1_555
C33 N1 1_555 1_555
N1 C23 1_555 1_555
N2 C17 1_555 1_555
O1 C15 1_555 1_555
O2 C14 1_555 1_555
O3 C16 1_555 1_555
O4 C31 1_555 1_555
O5 C3 1_555 1_555
O6 C24 1_555 1_555
H1 C1 1_555 1_555
H2 C1 1_555 1_555
H3 O2 1_555 1_555
H4 C3 1_555 1_555
H5 O4 1_555 1_555
H6 C5 1_555 1_555
H7 O5 1_555 1_555
H8 C6 1_555 1_555
H9 C6 1_555 1_555
H10 C7 1_555 1_555
H11 C7 1_555 1_555
H12 C9 1_555 1_555
H13 C11 1_555 1_555
H14 C11 1_555 1_555
H15 C12 1_555 1_555
H16 C14 1_555 1_555
H17 C15 1_555 1_555
H18 C15 1_555 1_555
H19 C19 1_555 1_555
H20 C20 1_555 1_555
H21 C2 1_555 1_555
H22 C2 1_555 1_555
H23 C21 1_555 1_555
H24 C22 1_555 1_555
H25 C25 1_555 1_555
H26 C25 1_555 1_555
H27 C26 1_555 1_555
H28 C26 1_555 1_555
H29 C27 1_555 1_555
H30 C27 1_555 1_555
H31 C28 1_555 1_555
H32 C29 1_555 1_555
H33 C29 1_555 1_555
H34 C30 1_555 1_555
H35 C30 1_555 1_555
H36 C30 1_555 1_555
H37 C31 1_555 1_555
H38 C31 1_555 1_555
H39 C32 1_555 1_555
H40 C32 1_555 1_555
H41 C32 1_555 1_555
H42 C33 1_555 1_555
H43 C33 1_555 1_555
H44 C33 1_555 1_555
C5 C10 1_555 1_555
C16 O1 1_555 1_555
C22 C23 1_555 1_555
C24 N1 1_555 1_555
C25 N2 1_555 1_555
C28 N2 1_555 1_555

#END
