
#######################################################################
#
#                 Cambridge Crystallographic Data Centre
#                                CCDC 
#
#######################################################################
#
# If this CIF has been generated from an entry in the Cambridge 
# Structural Database, then it will include bibliographic, chemical, 
# crystal, experimental, refinement or atomic coordinate data resulting 
# from the CCDC's data processing and validation procedures.
#
#######################################################################

data_HUXZOQ
_chemical_formula_moiety         'C23 H22 N2 O2 S1'
_chemical_name_systematic        
2,2'-(2-((4-Methylphenyl)sulfonyl)-1-phenylethane-1,1-diyl)bis(1H-pyrrole)
_symmetry_cell_setting           monoclinic
_symmetry_space_group_name_H-M   'C 2/c'
_symmetry_Int_Tables_number      15
_space_group_name_Hall           '-C 2yn'
loop_
_symmetry_equiv_pos_site_id
_symmetry_equiv_pos_as_xyz
1 x,y,z
2 -x,y,1/2-z
3 1/2+x,1/2+y,z
4 1/2-x,1/2+y,1/2-z
5 -x,-y,-z
6 x,-y,1/2+z
7 1/2-x,1/2-y,-z
8 1/2+x,1/2-y,1/2+z
_cell_length_a                   41.797(10)
_cell_length_b                   9.486(2)
_cell_length_c                   41.828(10)
_cell_angle_alpha                90
_cell_angle_beta                 166.078(4)
_cell_angle_gamma                90
_cell_volume                     3990.18
_chemical_melting_point          '186-187 deg.C'
_cell_formula_units_Z            8
loop_
_atom_site_label
_atom_site_type_symbol
_atom_site_fract_x
_atom_site_fract_y
_atom_site_fract_z
C1 C 0.3333(9) -0.0314(7) 0.0639(9)
H1 H 0.2722 -0.0806 -0.0090
H2 H 0.4025 -0.0945 0.1377
H3 H 0.3716 0.0463 0.0897
N1 N 0.3012(3) -0.0684(3) 0.1591(3)
H4 H 0.3521 0.0045 0.2086
O1 O 0.0160(3) 0.3429(3) -0.1359(3)
S1 S 0.02500(9) 0.19303(11) -0.12181(9)
C2 C 0.2600(7) 0.0234(6) 0.0219(7)
N2 N -0.1008(3) -0.0337(3) -0.1846(3)
H5 H -0.1206 -0.0166 -0.2234
O2 O -0.0986(2) 0.1162(3) -0.2403(2)
C3 C 0.3006(5) 0.1415(5) 0.0776(5)
H6 H 0.3762 0.1891 0.1442
C4 C 0.2328(4) 0.1908(5) 0.0380(4)
H7 H 0.2634 0.2702 0.0784
C5 C 0.1193(4) 0.1233(4) -0.0618(4)
C6 C 0.0752(5) 0.0022(5) -0.1201(5)
H8 H 0.0013 -0.0473 -0.1846
C7 C 0.1462(8) -0.0411(6) -0.0777(7)
H9 H 0.1149 -0.1188 -0.1193
C8 C 0.1160(3) 0.1770(3) 0.0026(3)
H10 H 0.2023 0.2191 0.0825
H11 H 0.0716 0.2371 -0.0249
C9 C 0.1429(3) 0.0332(3) 0.0462(3)
C10 C 0.1858(3) -0.0797(3) 0.0643(3)
C11 C 0.1319(4) -0.2091(4) 0.0058(4)
H12 H 0.0532 -0.2450 -0.0620
C12 C 0.2200(5) -0.2800(5) 0.0692(5)
H13 H 0.2090 -0.3700 0.0501
C13 C 0.3254(4) -0.1870(4) 0.1650(4)
H14 H 0.3973 -0.2031 0.2213
C14 C 0.0225(3) -0.0169(4) -0.0514(3)
C15 C 0.0143(4) -0.0578(4) -0.0283(4)
H15 H 0.0834 -0.0583 0.0536
C16 C -0.1179(5) -0.0991(5) -0.1507(6)
H16 H -0.1521 -0.1320 -0.1646
C17 C -0.1868(4) -0.0821(5) -0.2453(5)
H17 H -0.2769 -0.1004 -0.3356
C18 C 0.2545(3) 0.0610(4) 0.1787(3)
C19 C 0.2727(4) 0.1886(4) 0.2116(4)
H18 H 0.2191 0.2645 0.1539
C20 C 0.3670(5) 0.2069(6) 0.3261(5)
H19 H 0.3763 0.2937 0.3452
C21 C 0.4454(5) 0.1003(6) 0.4102(5)
H20 H 0.5114 0.1137 0.4894
C22 C 0.4310(4) -0.0268(5) 0.3825(4)
H21 H 0.4854 -0.1010 0.4417
C23 C 0.3369(3) -0.0482(4) 0.2682(3)
H22 H 0.3283 -0.1366 0.2504
loop_
_geom_bond_atom_site_label_1
_geom_bond_atom_site_label_2
_geom_bond_site_symmetry_1
_geom_bond_site_symmetry_2
C1 H1 1_555 1_555
H2 C1 1_555 1_555
H3 C1 1_555 1_555
N1 H4 1_555 1_555
O1 S1 1_555 1_555
S1 O2 1_555 1_555
C2 C1 1_555 1_555
N2 H5 1_555 1_555
C3 C2 1_555 1_555
H6 C3 1_555 1_555
C4 C3 1_555 1_555
H7 C4 1_555 1_555
C5 S1 1_555 1_555
C6 C5 1_555 1_555
H8 C6 1_555 1_555
C7 C2 1_555 1_555
H9 C7 1_555 1_555
C8 S1 1_555 1_555
H10 C8 1_555 1_555
H11 C8 1_555 1_555
C9 C8 1_555 1_555
C10 N1 1_555 1_555
C11 C10 1_555 1_555
H12 C11 1_555 1_555
C12 C11 1_555 1_555
H13 C12 1_555 1_555
C13 N1 1_555 1_555
H14 C13 1_555 1_555
C14 N2 1_555 1_555
C15 C14 1_555 1_555
H15 C15 1_555 1_555
C16 C15 1_555 1_555
H16 C16 1_555 1_555
C17 N2 1_555 1_555
H17 C17 1_555 1_555
C18 C9 1_555 1_555
C19 C18 1_555 1_555
H18 C19 1_555 1_555
C20 C19 1_555 1_555
H19 C20 1_555 1_555
C21 C20 1_555 1_555
H20 C21 1_555 1_555
C22 C21 1_555 1_555
H21 C22 1_555 1_555
C23 C18 1_555 1_555
H22 C23 1_555 1_555
C4 C5 1_555 1_555
C6 C7 1_555 1_555
C9 C10 1_555 1_555
C9 C14 1_555 1_555
C12 C13 1_555 1_555
C16 C17 1_555 1_555
C22 C23 1_555 1_555

#END
