
#######################################################################
#
#                 Cambridge Crystallographic Data Centre
#                                CCDC 
#
#######################################################################
#
# If this CIF has been generated from an entry in the Cambridge 
# Structural Database, then it will include bibliographic, chemical, 
# crystal, experimental, refinement or atomic coordinate data resulting 
# from the CCDC's data processing and validation procedures.
#
#######################################################################

data_HUYCAG
_chemical_name_common            
"2'-oxabicyclo[3.1.0]hexyl cytosine monohydrate"
_chemical_formula_moiety         'C10 H13 N3 O3,H2 O1'
_chemical_name_systematic        
'4-Amino-1-(5-(hydroxymethyl)-3-oxabicyclo[3.1.0]hex-2-yl)pyrimidin-2(1H)-one monohydrate'
_symmetry_cell_setting           orthorhombic
_symmetry_space_group_name_H-M   'P 21 21 21'
_symmetry_Int_Tables_number      19
_space_group_name_Hall           'P 2ac 2ab'
loop_
_symmetry_equiv_pos_site_id
_symmetry_equiv_pos_as_xyz
1 x,y,z
2 1/2-x,-y,1/2+z
3 -x,1/2+y,1/2-z
4 1/2+x,1/2-y,-z
_cell_length_a                   9.4008(14)
_cell_length_b                   10.5659(15)
_cell_length_c                   11.2820(16)
_cell_angle_alpha                90
_cell_angle_beta                 90
_cell_angle_gamma                90
_cell_volume                     1120.62
_exptl_crystal_colour            colorless
_exptl_crystal_description       block
_cell_formula_units_Z            4
_exptl_crystal_recrystallization_method '50% methanol'
loop_
_atom_site_label
_atom_site_type_symbol
_atom_site_fract_x
_atom_site_fract_y
_atom_site_fract_z
O1 O 0.98106(12) 0.35343(10) 0.34689(9)
N1 N 0.86093(13) 0.51866(12) 0.42622(11)
O2 O 0.68998(13) 0.13641(11) 0.82910(9)
N2 N 0.86142(13) 0.31719(11) 0.51993(10)
N3 N 0.73913(15) 0.68404(12) 0.50877(12)
O4 O 1.05353(11) 0.20054(10) 0.60227(11)
C1 C 0.80100(18) 0.04485(15) 0.81556(14)
C2 C 0.92972(16) 0.19162(13) 0.52992(13)
C3 C 1.01587(18) 0.16449(16) 0.72156(14)
C4 C 0.89531(16) 0.07122(14) 0.71041(13)
C5 C 0.91528(19) -0.02772(14) 0.61545(14)
C6 C 0.83671(16) 0.09279(13) 0.58654(13)
H2 H 0.763(2) -0.0423(19) 0.8136(17)
H3 H 0.990(2) 0.2396(18) 0.7712(17)
H4 H 0.628(2) 0.122(2) 0.778(2)
H5 H 0.7500(17) 0.3024(16) 0.6667(15)
H6 H 0.6680(19) 0.5106(17) 0.6636(16)
H7 H 1.102(2) 0.1268(17) 0.7588(16)
H8 H 0.685(2) 0.720(2) 0.566(2)
H9 H 0.771(2) 0.7315(18) 0.4507(18)
H10 H 1.012(2) -0.0412(19) 0.5822(17)
H11 H 0.858(2) -0.100(2) 0.6201(18)
H12 H 0.9609(18) 0.1693(16) 0.4517(15)
H13 H 0.858(2) 0.0512(19) 0.8899(18)
H15 H 0.738(2) 0.0956(17) 0.5677(16)
C7 C 0.90337(15) 0.39688(13) 0.42689(12)
C8 C 0.77576(15) 0.56284(13) 0.51271(12)
C9 C 0.72734(16) 0.48241(13) 0.60698(13)
C10 C 0.77451(15) 0.36214(13) 0.60758(13)
O3 O 0.91565(13) 0.16742(12) 0.17890(11)
H1 H 0.986(3) 0.124(2) 0.1548(19)
H14 H 0.943(2) 0.214(2) 0.234(2)
loop_
_geom_bond_atom_site_label_1
_geom_bond_atom_site_label_2
_geom_bond_site_symmetry_1
_geom_bond_site_symmetry_2
O1 C7 1_555 1_555
N1 C7 1_555 1_555
O2 C1 1_555 1_555
O3 H1 1_555 1_555
N2 C2 1_555 1_555
N3 H8 1_555 1_555
O4 C2 1_555 1_555
C1 C4 1_555 1_555
C2 C6 1_555 1_555
C3 O4 1_555 1_555
C4 C3 1_555 1_555
C5 C4 1_555 1_555
C6 C4 1_555 1_555
H2 C1 1_555 1_555
H3 C3 1_555 1_555
H4 O2 1_555 1_555
H5 C10 1_555 1_555
H6 C9 1_555 1_555
H7 C3 1_555 1_555
H9 N3 1_555 1_555
H10 C5 1_555 1_555
H11 C5 1_555 1_555
H12 C2 1_555 1_555
H13 C1 1_555 1_555
H14 O3 1_555 1_555
H15 C6 1_555 1_555
C7 N2 1_555 1_555
C8 N1 1_555 1_555
C9 C8 1_555 1_555
C10 N2 1_555 1_555
N3 C8 1_555 1_555
C5 C6 1_555 1_555
C9 C10 1_555 1_555

#END
