
#######################################################################
#
#                 Cambridge Crystallographic Data Centre
#                                CCDC 
#
#######################################################################
#
# If this CIF has been generated from an entry in the Cambridge 
# Structural Database, then it will include bibliographic, chemical, 
# crystal, experimental, refinement or atomic coordinate data resulting 
# from the CCDC's data processing and validation procedures.
#
#######################################################################

data_HUYGEP
_chemical_formula_moiety         'C18 H15 N1 O1'
_chemical_name_systematic        
2-(4-Methoxyphenyl)-5-phenylpenta-2,4-dienenitrile
_symmetry_cell_setting           orthorhombic
_symmetry_space_group_name_H-M   'P c a 21'
_symmetry_Int_Tables_number      29
_space_group_name_Hall           'P 2c -2ac'
loop_
_symmetry_equiv_pos_site_id
_symmetry_equiv_pos_as_xyz
1 x,y,z
2 -x,-y,1/2+z
3 1/2+x,-y,z
4 1/2-x,y,1/2+z
_cell_length_a                   11.5814(10)
_cell_length_b                   32.118(4)
_cell_length_c                   7.5521(11)
_cell_angle_alpha                90
_cell_angle_beta                 90
_cell_angle_gamma                90
_cell_volume                     2809.17
_exptl_crystal_colour            'light yellow'
_exptl_crystal_description       plate
_cell_formula_units_Z            8
loop_
_atom_site_label
_atom_site_type_symbol
_atom_site_fract_x
_atom_site_fract_y
_atom_site_fract_z
O1 O -0.3359(4) -0.40185(14) -0.2414(7)
N1 N -0.2127(6) -0.61800(19) -0.2916(13)
C1 C -0.4674(8) -0.5044(2) -0.1493(13)
H1 H -0.5318 -0.5158 -0.0940
C2 C -0.4560(6) -0.46130(19) -0.1566(10)
H2 H -0.5132 -0.4443 -0.1095
C3 C -0.3591(6) -0.4439(2) -0.2345(10)
C4 C -0.2767(7) -0.4695(2) -0.3053(10)
H3 H -0.2117 -0.4579 -0.3583
C5 C -0.2886(7) -0.5126(2) -0.2994(10)
H4 H -0.2311 -0.5293 -0.3478
C6 C -0.3849(6) -0.5311(2) -0.2224(9)
C7 C -0.3955(6) -0.5766(2) -0.2104(10)
C8 C -0.4899(6) -0.5979(2) -0.1603(10)
H5 H -0.5563 -0.5825 -0.1375
C9 C -0.4973(6) -0.6422(2) -0.1388(10)
H6 H -0.4328 -0.6583 -0.1661
C10 C -0.5936(6) -0.66179(19) -0.0806(10)
H7 H -0.6583 -0.6451 -0.0637
C11 C -0.6079(7) -0.7064(2) -0.0410(10)
C12 C -0.7062(6) -0.7185(2) 0.0464(11)
H8 H -0.7630 -0.6990 0.0725
C13 C -0.7211(7) -0.7597(2) 0.0958(11)
H9 H -0.7868 -0.7676 0.1580
C14 C -0.6375(7) -0.7896(3) 0.0527(11)
H10 H -0.6468 -0.8174 0.0836
C15 C -0.5401(7) -0.7759(3) -0.0384(11)
H11 H -0.4843 -0.7953 -0.0711
C16 C -0.5238(8) -0.7349(2) -0.0815(10)
H12 H -0.4562 -0.7264 -0.1377
C17 C -0.4153(7) -0.3744(2) -0.1554(11)
H13 H -0.4911 -0.3784 -0.2039
H14 H -0.3915 -0.3461 -0.1738
H15 H -0.4166 -0.3803 -0.0308
C18 C -0.2945(8) -0.5998(2) -0.2537(13)
O2 O -0.4202(5) -1.09870(16) 0.2613(8)
N2 N -0.5422(6) -0.8832(2) 0.2544(12)
C19 C -0.4647(6) -0.9886(2) 0.3009(10)
H16 H -0.5210 -0.9711 0.3477
C20 C -0.4780(7) -1.0306(2) 0.3132(11)
H17 H -0.5429 -1.0415 0.3689
C21 C -0.3956(6) -1.0574(2) 0.2436(10)
C22 C -0.2980(6) -1.0413(2) 0.1657(10)
H18 H -0.2414 -1.0589 0.1208
C23 C -0.2849(7) -0.99820(17) 0.1550(12)
H19 H -0.2184 -0.9874 0.1032
C24 C -0.3672(5) -0.9712(2) 0.2187(9)
C25 C -0.3553(6) -0.9256(2) 0.2026(10)
C26 C -0.2584(7) -0.9040(2) 0.1614(10)
H20 H -0.1904 -0.9191 0.1481
C27 C -0.2519(7) -0.8592(2) 0.1365(10)
H21 H -0.3185 -0.8436 0.1540
C28 C -0.1554(6) -0.8393(2) 0.0898(9)
H22 H -0.0891 -0.8554 0.0794
C29 C -0.1425(6) -0.7950(2) 0.0533(9)
C30 C -0.2247(7) -0.7647(2) 0.1031(10)
H23 H -0.2892 -0.7730 0.1676
C31 C -0.2125(7) -0.7233(2) 0.0594(11)
H24 H -0.2688 -0.7040 0.0909
C32 C -0.1169(7) -0.7111(2) -0.0305(13)
H25 H -0.1088 -0.6832 -0.0604
C33 C -0.0326(8) -0.7382(3) -0.0783(12)
H26 H 0.0323 -0.7288 -0.1388
C34 C -0.0435(7) -0.7801(3) -0.0364(11)
H27 H 0.0148 -0.7986 -0.0677
C35 C -0.3387(7) -1.1280(2) 0.1933(13)
H28 H -0.3282 -1.1234 0.0687
H29 H -0.3669 -1.1558 0.2123
H30 H -0.2661 -1.1246 0.2531
C36 C -0.4591(8) -0.9018(2) 0.2311(12)
loop_
_geom_bond_atom_site_label_1
_geom_bond_atom_site_label_2
_geom_bond_site_symmetry_1
_geom_bond_site_symmetry_2
O1 C3 1_555 1_555
N1 C18 1_555 1_555
C1 H1 1_555 1_555
C2 C1 1_555 1_555
H2 C2 1_555 1_555
C3 C2 1_555 1_555
C4 C3 1_555 1_555
H3 C4 1_555 1_555
C5 C4 1_555 1_555
H4 C5 1_555 1_555
C6 C1 1_555 1_555
C7 C6 1_555 1_555
C8 C7 1_555 1_555
H5 C8 1_555 1_555
C9 C8 1_555 1_555
H6 C9 1_555 1_555
C10 C9 1_555 1_555
H7 C10 1_555 1_555
C11 C10 1_555 1_555
C12 C11 1_555 1_555
H8 C12 1_555 1_555
C13 C12 1_555 1_555
H9 C13 1_555 1_555
C14 C13 1_555 1_555
H10 C14 1_555 1_555
C15 C14 1_555 1_555
H11 C15 1_555 1_555
C16 C11 1_555 1_555
H12 C16 1_555 1_555
C17 O1 1_555 1_555
H13 C17 1_555 1_555
H14 C17 1_555 1_555
H15 C17 1_555 1_555
C18 C7 1_555 1_555
O2 C21 1_555 1_555
N2 C36 1_555 1_555
C19 H16 1_555 1_555
C20 C19 1_555 1_555
H17 C20 1_555 1_555
C21 C20 1_555 1_555
C22 C21 1_555 1_555
H18 C22 1_555 1_555
C23 C22 1_555 1_555
H19 C23 1_555 1_555
C24 C19 1_555 1_555
C25 C24 1_555 1_555
C26 C25 1_555 1_555
H20 C26 1_555 1_555
C27 C26 1_555 1_555
H21 C27 1_555 1_555
C28 C27 1_555 1_555
H22 C28 1_555 1_555
C29 C28 1_555 1_555
C30 C29 1_555 1_555
H23 C30 1_555 1_555
C31 C30 1_555 1_555
H24 C31 1_555 1_555
C32 C31 1_555 1_555
H25 C32 1_555 1_555
C33 C32 1_555 1_555
H26 C33 1_555 1_555
C34 C29 1_555 1_555
H27 C34 1_555 1_555
C35 O2 1_555 1_555
H28 C35 1_555 1_555
H29 C35 1_555 1_555
H30 C35 1_555 1_555
C36 C25 1_555 1_555
C5 C6 1_555 1_555
C15 C16 1_555 1_555
C23 C24 1_555 1_555
C33 C34 1_555 1_555

#END
