
#######################################################################
#
#                 Cambridge Crystallographic Data Centre
#                                CCDC 
#
#######################################################################
#
# If this CIF has been generated from an entry in the Cambridge 
# Structural Database, then it will include bibliographic, chemical, 
# crystal, experimental, refinement or atomic coordinate data resulting 
# from the CCDC's data processing and validation procedures.
#
#######################################################################

data_HUYLUK
_chemical_formula_moiety         'C21 H22 N2'
_chemical_name_systematic        
1-Mesityl-5,7-dimethyl-1H-imidazo[1,2-a]indole
_symmetry_cell_setting           orthorhombic
_symmetry_space_group_name_H-M   'P 21 21 21'
_symmetry_Int_Tables_number      19
_space_group_name_Hall           'P 2ac 2ab'
loop_
_symmetry_equiv_pos_site_id
_symmetry_equiv_pos_as_xyz
1 x,y,z
2 1/2+x,1/2-y,-z
3 -x,1/2+y,1/2-z
4 1/2-x,-y,1/2+z
_cell_length_a                   7.9052(2)
_cell_length_b                   13.0273(5)
_cell_length_c                   16.0225(6)
_cell_angle_alpha                90
_cell_angle_beta                 90
_cell_angle_gamma                90
_cell_volume                     1650.05
_exptl_crystal_colour            colorless
_exptl_crystal_description       'thin plate'
_cell_formula_units_Z            4
loop_
_atom_site_label
_atom_site_type_symbol
_atom_site_fract_x
_atom_site_fract_y
_atom_site_fract_z
N1 N 0.0756(2) 0.44776(11) 0.85659(10)
N2 N 0.2338(2) 0.30801(11) 0.85916(11)
C1 C 0.2336(2) 0.41090(14) 0.87733(12)
C2 C 0.3350(3) 0.48729(15) 0.90774(13)
H1 H 0.4485 0.4812 0.9266
C3 C 0.0754(3) 0.28368(16) 0.82628(13)
H2 H 0.0416 0.2174 0.8080
C4 C -0.0218(3) 0.36756(15) 0.82431(12)
H3 H -0.1351 0.3718 0.8048
C5 C 0.0715(2) 0.55249(14) 0.87328(12)
C6 C 0.2343(2) 0.57792(14) 0.90526(12)
C7 C 0.2639(3) 0.68142(14) 0.92667(12)
H4 H 0.3705 0.7014 0.9487
C8 C 0.1382(3) 0.75379(15) 0.91576(12)
C9 C -0.0205(3) 0.72371(15) 0.88438(13)
H5 H -0.1057 0.7745 0.8780
C10 C -0.0579(2) 0.62380(15) 0.86251(13)
C11 C -0.2281(3) 0.59281(16) 0.82882(15)
H6 H -0.3050 0.6518 0.8307
H7 H -0.2744 0.5369 0.8628
H8 H -0.2158 0.5695 0.7710
C12 C 0.1709(3) 0.86520(15) 0.93644(15)
H9 H 0.2854 0.8726 0.9590
H10 H 0.0885 0.8885 0.9780
H11 H 0.1598 0.9067 0.8857
C13 C 0.3767(2) 0.24050(14) 0.86218(13)
C14 C 0.3796(3) 0.16256(14) 0.92139(12)
C15 C 0.5161(3) 0.09505(14) 0.92038(13)
H12 H 0.5207 0.0416 0.9606
C16 C 0.6456(2) 0.10352(14) 0.86241(13)
C17 C 0.6380(3) 0.18248(15) 0.80439(12)
H13 H 0.7263 0.1890 0.7645
C18 C 0.5055(3) 0.25212(14) 0.80276(12)
C19 C 0.4980(3) 0.33524(15) 0.73750(13)
H14 H 0.5862 0.3234 0.6956
H15 H 0.5159 0.4022 0.7640
H16 H 0.3868 0.3342 0.7104
C20 C 0.2405(3) 0.15154(17) 0.98518(13)
H17 H 0.2282 0.2160 1.0161
H18 H 0.2691 0.0961 1.0241
H19 H 0.1340 0.1353 0.9569
C21 C 0.7921(3) 0.03012(15) 0.86226(15)
H20 H 0.7635 -0.0303 0.8958
H21 H 0.8918 0.0639 0.8860
H22 H 0.8165 0.0089 0.8048
loop_
_geom_bond_atom_site_label_1
_geom_bond_atom_site_label_2
_geom_bond_site_symmetry_1
_geom_bond_site_symmetry_2
N1 C1 1_555 1_555
N2 C1 1_555 1_555
C1 C2 1_555 1_555
C2 H1 1_555 1_555
C3 N2 1_555 1_555
H2 C3 1_555 1_555
C4 N1 1_555 1_555
H3 C4 1_555 1_555
C5 N1 1_555 1_555
C6 C2 1_555 1_555
C7 C6 1_555 1_555
H4 C7 1_555 1_555
C8 C7 1_555 1_555
C9 C8 1_555 1_555
H5 C9 1_555 1_555
C10 C5 1_555 1_555
C11 C10 1_555 1_555
H6 C11 1_555 1_555
H7 C11 1_555 1_555
H8 C11 1_555 1_555
C12 C8 1_555 1_555
H9 C12 1_555 1_555
H10 C12 1_555 1_555
H11 C12 1_555 1_555
C13 N2 1_555 1_555
C14 C13 1_555 1_555
C15 C14 1_555 1_555
H12 C15 1_555 1_555
C16 C15 1_555 1_555
C17 C16 1_555 1_555
H13 C17 1_555 1_555
C18 C13 1_555 1_555
C19 C18 1_555 1_555
H14 C19 1_555 1_555
H15 C19 1_555 1_555
H16 C19 1_555 1_555
C20 C14 1_555 1_555
H17 C20 1_555 1_555
H18 C20 1_555 1_555
H19 C20 1_555 1_555
C21 C16 1_555 1_555
H20 C21 1_555 1_555
H21 C21 1_555 1_555
H22 C21 1_555 1_555
C3 C4 1_555 1_555
C5 C6 1_555 1_555
C9 C10 1_555 1_555
C17 C18 1_555 1_555

#END
