
#######################################################################
#
#                 Cambridge Crystallographic Data Centre
#                                CCDC 
#
#######################################################################
#
# If this CIF has been generated from an entry in the Cambridge 
# Structural Database, then it will include bibliographic, chemical, 
# crystal, experimental, refinement or atomic coordinate data resulting 
# from the CCDC's data processing and validation procedures.
#
#######################################################################

data_HUYVIH
_chemical_formula_moiety         'C20 H36 S3 Si4'
_chemical_name_systematic        
Dithieno[3,4-b:3',4'-d]thiophene-1,3,5,7-tetrayltetrakis(trimethylsilane)
_symmetry_cell_setting           monoclinic
_symmetry_space_group_name_H-M   'P 21/n'
_symmetry_Int_Tables_number      14
_space_group_name_Hall           '-P 2yn'
loop_
_symmetry_equiv_pos_site_id
_symmetry_equiv_pos_as_xyz
1 x,y,z
2 1/2-x,1/2+y,1/2-z
3 -x,-y,-z
4 1/2+x,1/2-y,1/2+z
_cell_length_a                   12.050(3)
_cell_length_b                   10.985(2)
_cell_length_c                   22.369(5)
_cell_angle_alpha                90
_cell_angle_beta                 102.362(4)
_cell_angle_gamma                90
_cell_volume                     2892.32
_exptl_crystal_colour            colorless
_exptl_crystal_description       block
_chemical_melting_point          '90-91 deg.C'
_cell_formula_units_Z            4
loop_
_atom_site_label
_atom_site_type_symbol
_atom_site_fract_x
_atom_site_fract_y
_atom_site_fract_z
S1 S 0.49638(4) 0.40660(5) 0.21402(2)
S2 S 0.37147(4) 0.41729(5) 0.37619(2)
S3 S 0.59685(5) 0.17890(6) 0.48984(2)
Si1 Si 0.63399(5) 0.17370(5) 0.23415(3)
Si2 Si 0.79556(5) 0.18775(6) 0.42623(3)
Si3 Si 0.30787(5) 0.59167(6) 0.22785(3)
Si4 Si 0.37211(5) 0.27470(6) 0.52483(3)
C1 C 0.56729(15) 0.30498(17) 0.26792(8)
C2 C 0.44032(15) 0.41131(17) 0.31444(8)
C3 C 0.53047(14) 0.32416(16) 0.32186(8)
C4 C 0.46581(15) 0.30767(17) 0.41505(9)
C5 C 0.55330(15) 0.27255(16) 0.38402(8)
C6 C 0.63875(17) 0.20622(18) 0.42185(9)
C7 C 0.47257(17) 0.26081(19) 0.47234(9)
C8 C 0.41291(16) 0.46984(18) 0.25924(9)
C9 C 0.8436(2) 0.3247(3) 0.39027(15)
H1 H 0.9235 0.3185 0.3916
H2 H 0.8290 0.3961 0.4121
H3 H 0.8030 0.3303 0.3485
C10 C 0.8373(2) 0.0430(3) 0.39415(13)
H4 H 0.9182 0.0412 0.3983
H5 H 0.8009 0.0374 0.3516
H6 H 0.8143 -0.0245 0.4160
C11 C 0.5917(2) 0.0318(2) 0.26892(12)
H7 H 0.6242 -0.0373 0.2527
H8 H 0.5104 0.0247 0.2595
H9 H 0.6187 0.0346 0.3125
C12 C 0.7896(2) 0.1858(2) 0.24047(13)
H10 H 0.8161 0.1156 0.2222
H11 H 0.8271 0.1903 0.2828
H12 H 0.8061 0.2579 0.2197
C13 C 0.8668(3) 0.1862(4) 0.50863(14)
H13 H 0.9472 0.1767 0.5125
H14 H 0.8380 0.1197 0.5287
H15 H 0.8519 0.2615 0.5273
C14 C 0.2363(2) 0.6452(3) 0.28880(14)
H16 H 0.1826 0.7078 0.2727
H17 H 0.2920 0.6771 0.3224
H18 H 0.1973 0.5783 0.3028
C15 C 0.3881(2) 0.7183(3) 0.20272(18)
H19 H 0.4247 0.6901 0.1712
H20 H 0.4444 0.7472 0.2368
H21 H 0.3368 0.7833 0.1871
C16 C 0.2387(3) 0.1981(3) 0.48891(14)
H22 H 0.2531 0.1133 0.4836
H23 H 0.2085 0.2343 0.4497
H24 H 0.1847 0.2068 0.5146
C17 C 0.3422(3) 0.4363(3) 0.53578(18)
H25 H 0.2906 0.4432 0.5629
H26 H 0.3086 0.4722 0.4970
H27 H 0.4117 0.4778 0.5532
C18 C 0.4377(3) 0.2013(4) 0.59801(13)
H28 H 0.4520 0.1171 0.5910
H29 H 0.3873 0.2074 0.6258
H30 H 0.5081 0.2412 0.6154
C19 C 0.5713(3) 0.1710(3) 0.15086(11)
H31 H 0.6035 0.1050 0.1322
H32 H 0.5873 0.2465 0.1328
H33 H 0.4905 0.1602 0.1445
C20 C 0.2027(2) 0.5274(3) 0.16323(13)
H34 H 0.2407 0.5004 0.1320
H35 H 0.1479 0.5887 0.1467
H36 H 0.1649 0.4597 0.1773
loop_
_geom_bond_atom_site_label_1
_geom_bond_atom_site_label_2
_geom_bond_site_symmetry_1
_geom_bond_site_symmetry_2
S1 C1 1_555 1_555
S2 C2 1_555 1_555
S3 C6 1_555 1_555
Si1 C1 1_555 1_555
Si2 C6 1_555 1_555
Si3 C8 1_555 1_555
Si4 C7 1_555 1_555
C1 C3 1_555 1_555
C2 C3 1_555 1_555
C3 C5 1_555 1_555
C4 S2 1_555 1_555
C5 C4 1_555 1_555
C6 C5 1_555 1_555
C7 S3 1_555 1_555
C8 S1 1_555 1_555
C9 Si2 1_555 1_555
H1 C9 1_555 1_555
H2 C9 1_555 1_555
H3 C9 1_555 1_555
C10 Si2 1_555 1_555
H4 C10 1_555 1_555
H5 C10 1_555 1_555
H6 C10 1_555 1_555
C11 Si1 1_555 1_555
H7 C11 1_555 1_555
H8 C11 1_555 1_555
H9 C11 1_555 1_555
C12 Si1 1_555 1_555
H10 C12 1_555 1_555
H11 C12 1_555 1_555
H12 C12 1_555 1_555
C13 Si2 1_555 1_555
H13 C13 1_555 1_555
H14 C13 1_555 1_555
H15 C13 1_555 1_555
C14 Si3 1_555 1_555
H16 C14 1_555 1_555
H17 C14 1_555 1_555
H18 C14 1_555 1_555
C15 Si3 1_555 1_555
H19 C15 1_555 1_555
H20 C15 1_555 1_555
H21 C15 1_555 1_555
C16 Si4 1_555 1_555
H22 C16 1_555 1_555
H23 C16 1_555 1_555
H24 C16 1_555 1_555
C17 Si4 1_555 1_555
H25 C17 1_555 1_555
H26 C17 1_555 1_555
H27 C17 1_555 1_555
C18 Si4 1_555 1_555
H28 C18 1_555 1_555
H29 C18 1_555 1_555
H30 C18 1_555 1_555
C19 Si1 1_555 1_555
H31 C19 1_555 1_555
H32 C19 1_555 1_555
H33 C19 1_555 1_555
C20 Si3 1_555 1_555
H34 C20 1_555 1_555
H35 C20 1_555 1_555
H36 C20 1_555 1_555
C2 C8 1_555 1_555
C4 C7 1_555 1_555

#END
