
#######################################################################
#
#                 Cambridge Crystallographic Data Centre
#                                CCDC 
#
#######################################################################
#
# If this CIF has been generated from an entry in the Cambridge 
# Structural Database, then it will include bibliographic, chemical, 
# crystal, experimental, refinement or atomic coordinate data resulting 
# from the CCDC's data processing and validation procedures.
#
#######################################################################

data_HUYYIJ
_chemical_formula_moiety         'C18 H16 N2 S4'
_chemical_name_systematic        1,4-bis(2-Mercaptobenzothiazolyl)butane
_symmetry_cell_setting           monoclinic
_symmetry_space_group_name_H-M   'P 21/c'
_symmetry_Int_Tables_number      14
_space_group_name_Hall           '-P 2ybc'
loop_
_symmetry_equiv_pos_site_id
_symmetry_equiv_pos_as_xyz
1 x,y,z
2 x,1/2-y,1/2+z
3 -x,-y,-z
4 -x,1/2+y,1/2-z
_cell_length_a                   10.9072(18)
_cell_length_b                   4.9003(8)
_cell_length_c                   16.767(3)
_cell_angle_alpha                90
_cell_angle_beta                 104.868(3)
_cell_angle_gamma                90
_cell_volume                     866.168
_exptl_crystal_colour            colorless
_exptl_crystal_description       block
_cell_formula_units_Z            2
_exptl_crystal_recrystallization_method chloroform
loop_
_atom_site_label
_atom_site_type_symbol
_atom_site_fract_x
_atom_site_fract_y
_atom_site_fract_z
S1 S 0.18452(6) 0.44087(13) 0.50542(4)
S2 S 0.06435(6) 0.06905(13) 0.60430(4)
N1 N 0.30799(18) 0.1533(3) 0.64017(11)
C1 C 0.3415(3) 0.5880(5) 0.52488(19)
C2 C 0.4362(2) 0.4279(5) 0.49193(18)
C3 C 0.2027(2) 0.2190(4) 0.58924(14)
C4 C 0.2856(2) -0.0360(4) 0.69731(14)
C5 C 0.3778(3) -0.1570(5) 0.75961(15)
C6 C 0.3417(3) -0.3499(5) 0.80885(16)
C7 C 0.2159(3) -0.4198(5) 0.79782(17)
C8 C 0.1227(3) -0.3018(5) 0.73710(16)
C9 C 0.1582(2) -0.1086(4) 0.68654(13)
H1 H 0.462(2) -0.111(4) 0.7654(13)
H2 H 0.405(2) -0.434(4) 0.8495(14)
H3 H 0.198(2) -0.546(4) 0.8316(14)
H4 H 0.0397(19) -0.353(4) 0.7272(12)
H5 H 0.374(2) 0.621(4) 0.5844(14)
H6 H 0.325(2) 0.756(5) 0.4976(14)
H7 H 0.4468(18) 0.250(4) 0.5191(12)
H8 H 0.402(2) 0.398(4) 0.4328(14)
C2B C 0.5638(2) 0.5721(5) 0.50807(18)
C1B C 0.6585(3) 0.4120(5) 0.47512(19)
S1B S 0.81548(6) 0.55913(13) 0.49458(4)
C3B C 0.7973(2) 0.7810(4) 0.41076(14)
S2B S 0.93565(6) 0.93095(13) 0.39570(4)
C9B C 0.8418(2) 1.1086(4) 0.31346(13)
C4B C 0.7144(2) 1.0360(4) 0.30269(14)
N1B N 0.69201(18) 0.8467(3) 0.35983(11)
C5B C 0.6222(3) 1.1570(5) 0.24039(15)
C6B C 0.6583(3) 1.3499(5) 0.19115(16)
C7B C 0.7841(3) 1.4198(5) 0.20218(17)
C8B C 0.8773(3) 1.3018(5) 0.26290(16)
H4B H 0.9603(19) 1.353(4) 0.2728(12)
H3B H 0.802(2) 1.546(4) 0.1684(14)
H2B H 0.595(2) 1.434(4) 0.1505(14)
H1B H 0.538(2) 1.111(4) 0.2346(13)
H5B H 0.626(2) 0.379(4) 0.4156(14)
H6B H 0.675(2) 0.244(5) 0.5024(14)
H7B H 0.5532(18) 0.750(4) 0.4809(12)
H8B H 0.598(2) 0.602(4) 0.5672(14)
loop_
_geom_bond_atom_site_label_1
_geom_bond_atom_site_label_2
_geom_bond_site_symmetry_1
_geom_bond_site_symmetry_2
S1 C1 1_555 1_555
S2 C3 1_555 1_555
N1 C3 1_555 1_555
C1 C2 1_555 1_555
C2 H7 1_555 1_555
C3 S1 1_555 1_555
C4 N1 1_555 1_555
C5 C4 1_555 1_555
C6 C5 1_555 1_555
C7 C6 1_555 1_555
C8 C7 1_555 1_555
C9 S2 1_555 1_555
H1 C5 1_555 1_555
H2 C6 1_555 1_555
H3 C7 1_555 1_555
H4 C8 1_555 1_555
H5 C1 1_555 1_555
H6 C1 1_555 1_555
H8 C2 1_555 1_555
C2B C2 1_555 1_555
C1B C2B 1_555 1_555
S1B C1B 1_555 1_555
C3B S1B 1_555 1_555
S2B C3B 1_555 1_555
C9B S2B 1_555 1_555
C4B C9B 1_555 1_555
N1B C3B 1_555 1_555
C5B C4B 1_555 1_555
C6B C5B 1_555 1_555
C7B C6B 1_555 1_555
C8B C9B 1_555 1_555
H4B C8B 1_555 1_555
H3B C7B 1_555 1_555
H2B C6B 1_555 1_555
H1B C5B 1_555 1_555
H5B C1B 1_555 1_555
H6B C1B 1_555 1_555
H7B C2B 1_555 1_555
H8B C2B 1_555 1_555
C4 C9 1_555 1_555
C8 C9 1_555 1_555
C4B N1B 1_555 1_555
C7B C8B 1_555 1_555

#END
