
#######################################################################
#
#                 Cambridge Crystallographic Data Centre
#                                CCDC 
#
#######################################################################
#
# If this CIF has been generated from an entry in the Cambridge 
# Structural Database, then it will include bibliographic, chemical, 
# crystal, experimental, refinement or atomic coordinate data resulting 
# from the CCDC's data processing and validation procedures.
#
#######################################################################

data_HUYZUY
_chemical_formula_moiety         'C19 H18 O2'
_chemical_name_systematic        6,7-Dimethoxy-1-methyl-4-phenylnaphthalene
_symmetry_cell_setting           orthorhombic
_symmetry_space_group_name_H-M   'P b c a'
_symmetry_Int_Tables_number      61
_space_group_name_Hall           '-P 2ac 2ab'
loop_
_symmetry_equiv_pos_site_id
_symmetry_equiv_pos_as_xyz
1 x,y,z
2 1/2+x,1/2-y,-z
3 -x,1/2+y,1/2-z
4 1/2-x,-y,1/2+z
5 -x,-y,-z
6 1/2-x,1/2+y,z
7 x,1/2-y,1/2+z
8 1/2+x,y,1/2-z
_cell_length_a                   19.3499(10)
_cell_length_b                   7.3574(3)
_cell_length_c                   21.7394(10)
_cell_angle_alpha                90
_cell_angle_beta                 90
_cell_angle_gamma                90
_cell_volume                     3094.93
_exptl_crystal_colour            colorless
_exptl_crystal_description       Tabular
_cell_formula_units_Z            8
loop_
_atom_site_label
_atom_site_type_symbol
_atom_site_fract_x
_atom_site_fract_y
_atom_site_fract_z
O1 O 0.15239(6) 0.27980(19) 0.13800(6)
O2 O 0.24357(7) 0.3686(2) 0.21716(5)
C1 C 0.09923(11) 0.2502(3) 0.09362(12)
H1 H 0.1040 0.3363 0.0607
H2 H 0.0549 0.2652 0.1128
H3 H 0.1030 0.1291 0.0775
C2 C 0.21880(9) 0.2656(2) 0.11776(9)
C3 C 0.26951(9) 0.3136(2) 0.16197(8)
C4 C 0.33743(9) 0.3046(2) 0.14757(8)
H4 H 0.3700 0.3369 0.1771
C5 C 0.36035(9) 0.2474(2) 0.08886(8)
C6 C 0.43234(10) 0.2392(2) 0.07378(9)
C7 C 0.48706(10) 0.2749(3) 0.11977(10)
C8 C 0.53924(11) 0.4012(3) 0.10802(12)
H5 H 0.5394 0.4650 0.0711
C9 C 0.59045(13) 0.4320(4) 0.15072(17)
H6 H 0.6248 0.5168 0.1423
C10 C 0.59162(14) 0.3397(5) 0.20558(17)
H7 H 0.6259 0.3631 0.2345
C11 C 0.23913(11) 0.2128(2) 0.06062(9)
H8 H 0.2057 0.1829 0.0316
C12 C 0.30981(11) 0.2021(2) 0.04412(8)
C13 C 0.29160(12) 0.4203(4) 0.26291(9)
H9 H 0.3210 0.3191 0.2725
H10 H 0.2672 0.4576 0.2993
H11 H 0.3192 0.5195 0.2480
C14 C 0.54144(13) 0.2121(4) 0.21699(13)
H12 H 0.5425 0.1466 0.2536
C15 C 0.48955(11) 0.1800(3) 0.17490(11)
H13 H 0.4558 0.0937 0.1836
C16 C 0.45011(14) 0.1942(3) 0.01476(11)
H14 H 0.4965 0.1945 0.0037
C17 C 0.40100(16) 0.1483(3) -0.02894(10)
H15 H 0.4156 0.1169 -0.0683
C18 C 0.33155(14) 0.1477(3) -0.01612(8)
C19 C 0.27925(16) 0.0892(4) -0.06326(10)
H16 H 0.3027 0.0445 -0.0991
H17 H 0.2509 0.1910 -0.0744
H18 H 0.2508 -0.0053 -0.0464
loop_
_geom_bond_atom_site_label_1
_geom_bond_atom_site_label_2
_geom_bond_site_symmetry_1
_geom_bond_site_symmetry_2
O1 C1 1_555 1_555
O2 C3 1_555 1_555
C1 H1 1_555 1_555
H2 C1 1_555 1_555
H3 C1 1_555 1_555
C2 O1 1_555 1_555
C3 C2 1_555 1_555
C4 C3 1_555 1_555
H4 C4 1_555 1_555
C5 C4 1_555 1_555
C6 C5 1_555 1_555
C7 C6 1_555 1_555
C8 C7 1_555 1_555
H5 C8 1_555 1_555
C9 C8 1_555 1_555
H6 C9 1_555 1_555
C10 C9 1_555 1_555
H7 C10 1_555 1_555
C11 C2 1_555 1_555
H8 C11 1_555 1_555
C12 C5 1_555 1_555
C13 O2 1_555 1_555
H9 C13 1_555 1_555
H10 C13 1_555 1_555
H11 C13 1_555 1_555
C14 C10 1_555 1_555
H12 C14 1_555 1_555
C15 C7 1_555 1_555
H13 C15 1_555 1_555
C16 C6 1_555 1_555
H14 C16 1_555 1_555
C17 C16 1_555 1_555
H15 C17 1_555 1_555
C18 C12 1_555 1_555
C19 C18 1_555 1_555
H16 C19 1_555 1_555
H17 C19 1_555 1_555
H18 C19 1_555 1_555
C11 C12 1_555 1_555
C14 C15 1_555 1_555
C17 C18 1_555 1_555

#END
