
#######################################################################
#
#                 Cambridge Crystallographic Data Centre
#                                CCDC 
#
#######################################################################
#
# If this CIF has been generated from an entry in the Cambridge 
# Structural Database, then it will include bibliographic, chemical, 
# crystal, experimental, refinement or atomic coordinate data resulting 
# from the CCDC's data processing and validation procedures.
#
#######################################################################

data_HUYZEI
_chemical_formula_moiety         'C25 H22 O2'
_chemical_name_systematic        4-(6,7-Dimethoxy-4-methyl-1-naphthyl)biphenyl
_symmetry_cell_setting           orthorhombic
_symmetry_space_group_name_H-M   'P b c n'
_symmetry_Int_Tables_number      60
_space_group_name_Hall           '-P 2n 2ab'
loop_
_symmetry_equiv_pos_site_id
_symmetry_equiv_pos_as_xyz
1 x,y,z
2 1/2+x,1/2-y,-z
3 -x,y,1/2-z
4 1/2-x,1/2-y,1/2+z
5 -x,-y,-z
6 1/2-x,1/2+y,z
7 x,-y,1/2+z
8 1/2+x,1/2+y,1/2-z
_cell_length_a                   16.4136(16)
_cell_length_b                   7.3384(7)
_cell_length_c                   31.061(3)
_cell_angle_alpha                90
_cell_angle_beta                 90
_cell_angle_gamma                90
_cell_volume                     3741.28
_exptl_crystal_colour            colorless
_cell_formula_units_Z            8
loop_
_atom_site_label
_atom_site_type_symbol
_atom_site_fract_x
_atom_site_fract_y
_atom_site_fract_z
O1 O 0.32242(6) 0.50318(17) 0.47900(4)
O2 O 0.33242(6) 0.22779(17) 0.42936(4)
C1 C 0.63115(11) -0.3642(3) 0.17261(6)
H1 H 0.6334 -0.4527 0.1503
C2 C 0.68305(11) -0.3768(3) 0.20756(6)
H2 H 0.7213 -0.4737 0.2090
C3 C 0.67980(9) -0.2498(2) 0.24044(5)
H3 H 0.7146 -0.2621 0.2647
C4 C 0.62547(9) -0.1032(2) 0.23818(5)
C5 C 0.62080(8) 0.0343(2) 0.27297(5)
C6 C 0.60430(9) 0.2166(2) 0.26394(5)
H4 H 0.5987 0.2546 0.2348
C7 C 0.59591(9) 0.3435(2) 0.29673(5)
H5 H 0.5847 0.4671 0.2898
C8 C 0.60374(9) 0.2919(2) 0.33993(5)
C9 C 0.59834(9) 0.4335(2) 0.37421(5)
C10 C 0.53001(9) 0.4479(2) 0.40253(5)
C11 C 0.46478(9) 0.3198(2) 0.40172(5)
H6 H 0.4677 0.2180 0.3829
C12 C 0.39788(9) 0.3411(2) 0.42766(5)
C13 C 0.39248(9) 0.4942(2) 0.45574(5)
C14 C 0.31212(10) 0.6618(3) 0.50522(6)
H7 H 0.3542 0.6638 0.5276
H8 H 0.2582 0.6590 0.5187
H9 H 0.3170 0.7711 0.4873
C15 C 0.33424(11) 0.0694(2) 0.40263(6)
H10 H 0.3356 0.1064 0.3723
H11 H 0.2854 -0.0042 0.4080
H12 H 0.3829 -0.0027 0.4093
C16 C 0.65985(9) 0.5600(2) 0.37731(5)
H13 H 0.7058 0.5497 0.3589
C17 C 0.65665(9) 0.7038(2) 0.40694(5)
H14 H 0.7012 0.7861 0.4089
C18 C 0.59011(9) 0.7281(2) 0.43329(5)
C19 C 0.52545(9) 0.5973(2) 0.43130(5)
C20 C 0.45472(9) 0.6171(2) 0.45754(5)
H15 H 0.4509 0.7178 0.4766
C21 C 0.58496(10) 0.8896(2) 0.46281(5)
H16 H 0.6332 0.9664 0.4589
H17 H 0.5824 0.8476 0.4927
H18 H 0.5359 0.9602 0.4561
C22 C 0.62915(9) -0.0161(2) 0.31614(5)
H19 H 0.6412 -0.1392 0.3231
C23 C 0.62012(9) 0.1102(2) 0.34895(5)
H20 H 0.6252 0.0720 0.3780
C24 C 0.57605(10) -0.2222(3) 0.17027(5)
H21 H 0.5394 -0.2143 0.1467
C25 C 0.57433(9) -0.0918(2) 0.20238(5)
H22 H 0.5376 0.0077 0.2000
loop_
_geom_bond_atom_site_label_1
_geom_bond_atom_site_label_2
_geom_bond_site_symmetry_1
_geom_bond_site_symmetry_2
O1 C13 1_555 1_555
O2 C12 1_555 1_555
C1 H1 1_555 1_555
C2 C1 1_555 1_555
H2 C2 1_555 1_555
C3 C2 1_555 1_555
H3 C3 1_555 1_555
C4 C3 1_555 1_555
C5 C4 1_555 1_555
C6 C5 1_555 1_555
H4 C6 1_555 1_555
C7 C6 1_555 1_555
H5 C7 1_555 1_555
C8 C7 1_555 1_555
C9 C8 1_555 1_555
C10 C9 1_555 1_555
C11 C10 1_555 1_555
H6 C11 1_555 1_555
C12 C11 1_555 1_555
C13 C12 1_555 1_555
C14 O1 1_555 1_555
H7 C14 1_555 1_555
H8 C14 1_555 1_555
H9 C14 1_555 1_555
C15 O2 1_555 1_555
H10 C15 1_555 1_555
H11 C15 1_555 1_555
H12 C15 1_555 1_555
C16 C9 1_555 1_555
H13 C16 1_555 1_555
C17 C16 1_555 1_555
H14 C17 1_555 1_555
C18 C17 1_555 1_555
C19 C10 1_555 1_555
C20 C13 1_555 1_555
H15 C20 1_555 1_555
C21 C18 1_555 1_555
H16 C21 1_555 1_555
H17 C21 1_555 1_555
H18 C21 1_555 1_555
C22 C5 1_555 1_555
H19 C22 1_555 1_555
C23 C8 1_555 1_555
H20 C23 1_555 1_555
C24 C1 1_555 1_555
H21 C24 1_555 1_555
C25 C4 1_555 1_555
H22 C25 1_555 1_555
C18 C19 1_555 1_555
C19 C20 1_555 1_555
C22 C23 1_555 1_555
C24 C25 1_555 1_555

#END
