
#######################################################################
#
#                 Cambridge Crystallographic Data Centre
#                                CCDC 
#
#######################################################################
#
# If this CIF has been generated from an entry in the Cambridge 
# Structural Database, then it will include bibliographic, chemical, 
# crystal, experimental, refinement or atomic coordinate data resulting 
# from the CCDC's data processing and validation procedures.
#
#######################################################################

data_HUYZOS
_chemical_formula_moiety         'C25 H22 O2'
_chemical_name_systematic        4-(5,7-Dimethoxy-4-methyl-1-naphthyl)biphenyl
_symmetry_cell_setting           orthorhombic
_symmetry_space_group_name_H-M   'P b c n'
_symmetry_Int_Tables_number      60
_space_group_name_Hall           '-P 2n 2ab'
loop_
_symmetry_equiv_pos_site_id
_symmetry_equiv_pos_as_xyz
1 x,y,z
2 1/2+x,1/2-y,-z
3 -x,y,1/2-z
4 1/2-x,1/2-y,1/2+z
5 -x,-y,-z
6 1/2-x,1/2+y,z
7 x,-y,1/2+z
8 1/2+x,1/2+y,1/2-z
_cell_length_a                   16.2538(12)
_cell_length_b                   7.9215(5)
_cell_length_c                   29.884(2)
_cell_angle_alpha                90
_cell_angle_beta                 90
_cell_angle_gamma                90
_cell_volume                     3847.7
_exptl_crystal_colour            colorless
_cell_formula_units_Z            8
loop_
_atom_site_label
_atom_site_type_symbol
_atom_site_fract_x
_atom_site_fract_y
_atom_site_fract_z
O1 O 0.32331(8) 0.69331(17) 0.42156(5)
O2 O 0.41849(9) 1.20774(16) 0.47998(5)
C1 C 0.62832(14) 0.1142(3) 0.18113(8)
H1 H 0.6287 0.0264 0.1605
C2 C 0.68031(14) 0.1114(2) 0.21713(8)
H2 H 0.7167 0.0217 0.2207
C3 C 0.67933(11) 0.2404(2) 0.24822(7)
H3 H 0.7144 0.2359 0.2728
C4 C 0.62666(10) 0.3765(2) 0.24323(6)
C5 C 0.62241(9) 0.5141(2) 0.27687(6)
C6 C 0.60458(11) 0.6798(2) 0.26481(6)
H4 H 0.5991 0.7071 0.2347
C7 C 0.59486(11) 0.8041(2) 0.29654(6)
H5 H 0.5829 0.9136 0.2874
C8 C 0.60256(10) 0.7697(2) 0.34165(6)
C9 C 0.59136(11) 0.9069(2) 0.37521(6)
C10 C 0.51864(10) 0.91928(19) 0.40154(5)
C11 C 0.45685(11) 0.7929(2) 0.39806(6)
H6 H 0.4648 0.7006 0.3793
C12 C 0.38667(11) 0.8068(2) 0.42196(6)
C13 C 0.33207(14) 0.5492(3) 0.39357(9)
H7 H 0.3369 0.5847 0.3630
H8 H 0.2847 0.4778 0.3968
H9 H 0.3806 0.4878 0.4020
C14 C 0.34342(15) 1.2194(3) 0.50438(8)
H10 H 0.2980 1.2220 0.4839
H11 H 0.3435 1.3207 0.5220
H12 H 0.3381 1.1232 0.5237
C15 C 0.43047(12) 1.0690(2) 0.45393(6)
C16 C 0.50767(11) 1.0609(2) 0.43062(5)
C17 C 0.57572(13) 0.2476(3) 0.17578(7)
H13 H 0.5400 0.2502 0.1515
C18 C 0.57557(11) 0.3779(2) 0.20628(6)
H14 H 0.5403 0.4688 0.2019
C19 C 0.63169(11) 0.4808(2) 0.32213(6)
H15 H 0.6449 0.3720 0.3313
C20 C 0.62184(11) 0.6053(2) 0.35377(6)
H16 H 0.6282 0.5788 0.3839
C21 C 0.65062(13) 1.0287(2) 0.37975(7)
H17 H 0.6984 1.0218 0.3627
C22 C 0.64047(13) 1.1623(2) 0.40941(7)
H18 H 0.6829 1.2402 0.4123
C23 C 0.57130(13) 1.1845(2) 0.43437(6)
C24 C 0.56757(15) 1.3382(2) 0.46409(7)
H19 H 0.6199 1.3943 0.4638
H20 H 0.5545 1.3043 0.4941
H21 H 0.5259 1.4138 0.4533
C25 C 0.37317(12) 0.9459(2) 0.44972(6)
H22 H 0.3241 0.9541 0.4656
loop_
_geom_bond_atom_site_label_1
_geom_bond_atom_site_label_2
_geom_bond_site_symmetry_1
_geom_bond_site_symmetry_2
O1 C12 1_555 1_555
O2 C14 1_555 1_555
C1 H1 1_555 1_555
C2 C1 1_555 1_555
H2 C2 1_555 1_555
C3 C2 1_555 1_555
H3 C3 1_555 1_555
C4 C3 1_555 1_555
C5 C4 1_555 1_555
C6 C5 1_555 1_555
H4 C6 1_555 1_555
C7 C6 1_555 1_555
H5 C7 1_555 1_555
C8 C7 1_555 1_555
C9 C8 1_555 1_555
C10 C9 1_555 1_555
C11 C10 1_555 1_555
H6 C11 1_555 1_555
C12 C11 1_555 1_555
C13 O1 1_555 1_555
H7 C13 1_555 1_555
H8 C13 1_555 1_555
H9 C13 1_555 1_555
C14 H10 1_555 1_555
H11 C14 1_555 1_555
H12 C14 1_555 1_555
C15 O2 1_555 1_555
C16 C10 1_555 1_555
C17 C1 1_555 1_555
H13 C17 1_555 1_555
C18 C4 1_555 1_555
H14 C18 1_555 1_555
C19 C5 1_555 1_555
H15 C19 1_555 1_555
C20 C8 1_555 1_555
H16 C20 1_555 1_555
C21 C9 1_555 1_555
H17 C21 1_555 1_555
C22 C21 1_555 1_555
H18 C22 1_555 1_555
C23 C16 1_555 1_555
C24 C23 1_555 1_555
H19 C24 1_555 1_555
H20 C24 1_555 1_555
H21 C24 1_555 1_555
C25 C12 1_555 1_555
H22 C25 1_555 1_555
C15 C16 1_555 1_555
C15 C25 1_555 1_555
C17 C18 1_555 1_555
C19 C20 1_555 1_555
C22 C23 1_555 1_555

#END
