
#######################################################################
#
#                 Cambridge Crystallographic Data Centre
#                                CCDC 
#
#######################################################################
#
# If this CIF has been generated from an entry in the Cambridge 
# Structural Database, then it will include bibliographic, chemical, 
# crystal, experimental, refinement or atomic coordinate data resulting 
# from the CCDC's data processing and validation procedures.
#
#######################################################################

data_HUYZEG
_chemical_formula_moiety         'C19 H18 Cl2 O2'
_chemical_name_systematic        
r-2,c-6-bis(4-Chlorophenyl)-t-3,t-5-dimethyltetrahydropyran-4-one
_symmetry_cell_setting           orthorhombic
_symmetry_space_group_name_H-M   'P b c a'
_symmetry_Int_Tables_number      61
_space_group_name_Hall           '-P 2ac 2ab'
loop_
_symmetry_equiv_pos_site_id
_symmetry_equiv_pos_as_xyz
1 x,y,z
2 1/2+x,y,1/2-z
3 1/2-x,1/2+y,z
4 x,1/2-y,1/2+z
5 -x,-y,-z
6 1/2-x,-y,1/2+z
7 1/2+x,1/2-y,-z
8 -x,1/2+y,1/2-z
_cell_length_a                   15.0130(10)
_cell_length_b                   9.1230(16)
_cell_length_c                   25.462(4)
_cell_angle_alpha                90
_cell_angle_beta                 90
_cell_angle_gamma                90
_cell_volume                     3487.37
_exptl_crystal_colour            colorless
_exptl_crystal_description       plate
_chemical_melting_point          463-464K
_cell_formula_units_Z            8
_exptl_crystal_recrystallization_method ethanol
loop_
_atom_site_label
_atom_site_type_symbol
_atom_site_fract_x
_atom_site_fract_y
_atom_site_fract_z
Cl1 Cl -0.23836(7) 0.02833(16) 0.01666(4)
Cl2 Cl -0.08127(7) 0.15480(12) 0.46889(3)
O1 O 0.02534(12) 0.1605(2) 0.21639(7)
O2 O 0.24462(15) 0.3915(3) 0.18791(9)
C1 C 0.06250(18) 0.1593(3) 0.16462(10)
H1 H 0.1069 0.0808 0.1622
C2 C 0.10719(19) 0.3064(3) 0.15152(11)
H2 H 0.0599 0.3802 0.1494
C3 C 0.16895(19) 0.3520(4) 0.19549(11)
C4 C 0.12892(19) 0.3420(3) 0.24983(11)
H3 H 0.0795 0.4120 0.2516
C5 C 0.08960(18) 0.1865(3) 0.25631(10)
H4 H 0.1376 0.1141 0.2533
C6 C 0.1531(2) 0.3028(5) 0.09841(12)
H5 H 0.1804 0.3961 0.0917
H6 H 0.1100 0.2823 0.0715
H7 H 0.1979 0.2277 0.0984
C7 C 0.1958(2) 0.3839(5) 0.29223(13)
H8 H 0.2177 0.4811 0.2857
H9 H 0.2446 0.3160 0.2918
H10 H 0.1673 0.3811 0.3260
C8 C -0.01328(19) 0.1260(3) 0.12766(10)
C9 C -0.0038(2) 0.0220(4) 0.08873(11)
H11 H 0.0498 -0.0283 0.0853
C10 C -0.0732(2) -0.0083(4) 0.05471(12)
H12 H -0.0665 -0.0795 0.0289
C11 C -0.1515(2) 0.0666(4) 0.05918(11)
C12 C -0.1623(2) 0.1733(4) 0.09694(12)
H13 H -0.2154 0.2256 0.0993
C13 C -0.09288(19) 0.2017(4) 0.13140(12)
H14 H -0.0999 0.2724 0.1574
C14 C 0.04384(18) 0.1679(3) 0.30830(10)
C15 C 0.08966(19) 0.1095(4) 0.35091(11)
H15 H 0.1473 0.0745 0.3462
C16 C 0.0508(2) 0.1028(4) 0.40025(11)
H16 H 0.0822 0.0648 0.4286
C17 C -0.0341(2) 0.1526(3) 0.40650(11)
C18 C -0.0826(2) 0.2061(4) 0.36463(12)
H17 H -0.1412 0.2365 0.3692
C19 C -0.04284(18) 0.2138(3) 0.31581(11)
H18 H -0.0750 0.2505 0.2875
loop_
_geom_bond_atom_site_label_1
_geom_bond_atom_site_label_2
_geom_bond_site_symmetry_1
_geom_bond_site_symmetry_2
Cl1 C11 1_555 1_555
Cl2 C17 1_555 1_555
O1 C1 1_555 1_555
O2 C3 1_555 1_555
C1 H1 1_555 1_555
C2 C1 1_555 1_555
H2 C2 1_555 1_555
C3 C2 1_555 1_555
C4 C3 1_555 1_555
H3 C4 1_555 1_555
C5 O1 1_555 1_555
H4 C5 1_555 1_555
C6 C2 1_555 1_555
H5 C6 1_555 1_555
H6 C6 1_555 1_555
H7 C6 1_555 1_555
C7 C4 1_555 1_555
H8 C7 1_555 1_555
H9 C7 1_555 1_555
H10 C7 1_555 1_555
C8 C1 1_555 1_555
C9 C8 1_555 1_555
H11 C9 1_555 1_555
C10 C9 1_555 1_555
H12 C10 1_555 1_555
C11 C10 1_555 1_555
C12 C11 1_555 1_555
H13 C12 1_555 1_555
C13 C8 1_555 1_555
H14 C13 1_555 1_555
C14 C5 1_555 1_555
C15 C14 1_555 1_555
H15 C15 1_555 1_555
C16 C15 1_555 1_555
H16 C16 1_555 1_555
C17 C16 1_555 1_555
C18 C17 1_555 1_555
H17 C18 1_555 1_555
C19 C14 1_555 1_555
H18 C19 1_555 1_555
C4 C5 1_555 1_555
C12 C13 1_555 1_555
C18 C19 1_555 1_555

#END
