
#######################################################################
#
#                 Cambridge Crystallographic Data Centre
#                                CCDC 
#
#######################################################################
#
# If this CIF has been generated from an entry in the Cambridge 
# Structural Database, then it will include bibliographic, chemical, 
# crystal, experimental, refinement or atomic coordinate data resulting 
# from the CCDC's data processing and validation procedures.
#
#######################################################################

data_HUZBAH
_chemical_formula_moiety         'C26 H24 O3'
_chemical_name_systematic        
4-(5,6,7-Trimethoxy-4-methyl-1-naphthyl)biphenyl
_symmetry_cell_setting           triclinic
_symmetry_space_group_name_H-M   'P -1'
_symmetry_Int_Tables_number      2
_space_group_name_Hall           '-P 1'
loop_
_symmetry_equiv_pos_site_id
_symmetry_equiv_pos_as_xyz
1 x,y,z
2 -x,-y,-z
_cell_length_a                   11.3146(10)
_cell_length_b                   12.9922(12)
_cell_length_c                   15.7027(14)
_cell_angle_alpha                103.986(2)
_cell_angle_beta                 104.556(2)
_cell_angle_gamma                104.868(2)
_cell_volume                     2040.5
_exptl_crystal_colour            colorless
_exptl_crystal_description       Tabular
_cell_formula_units_Z            4
loop_
_atom_site_label
_atom_site_type_symbol
_atom_site_fract_x
_atom_site_fract_y
_atom_site_fract_z
C1 C 0.7567(3) 0.3148(3) 0.2489(2)
C2 C 0.6836(3) 0.3894(3) 0.2367(2)
C3 C 0.7162(3) 0.4990(3) 0.3003(2)
C4 C 0.6526(3) 0.5714(3) 0.2824(2)
C5 C 0.5463(3) 0.5368(3) 0.1995(2)
C6 C 0.5080(3) 0.4311(3) 0.1374(2)
H1 H 0.4379 0.4087 0.0830
C7 C 0.5736(3) 0.3548(3) 0.1546(2)
C8 C 0.5329(3) 0.2446(3) 0.0875(2)
C9 C 0.6051(3) 0.1768(3) 0.1037(2)
H2 H 0.5798 0.1048 0.0613
C10 C 0.7152(3) 0.2129(3) 0.1818(2)
H3 H 0.7628 0.1649 0.1884
C11 C 0.4165(3) 0.1992(2) 0.0020(2)
C12 C 0.2948(3) 0.1997(3) 0.0019(2)
H4 H 0.2842 0.2353 0.0571
C13 C 0.1881(3) 0.1484(3) -0.0785(2)
H5 H 0.1075 0.1505 -0.0758
C14 C 0.1971(3) 0.0940(3) -0.1632(2)
C15 C 0.3198(4) 0.0952(3) -0.1624(2)
H6 H 0.3305 0.0602 -0.2177
C16 C 0.4272(3) 0.1465(3) -0.0825(2)
H7 H 0.5081 0.1458 -0.0854
C17 C 0.0823(3) 0.0365(3) -0.2487(2)
C18 C -0.0245(4) 0.0715(3) -0.2619(2)
H8 H -0.0229 0.1336 -0.2167
C19 C -0.1333(4) 0.0168(4) -0.3403(3)
H9 H -0.2044 0.0413 -0.3465
C20 C -0.1371(5) -0.0727(4) -0.4085(3)
H10 H -0.2107 -0.1102 -0.4611
C21 C -0.0299(5) -0.1073(4) -0.3985(3)
H11 H -0.0308 -0.1676 -0.4452
C22 C 0.0785(4) -0.0525(3) -0.3195(3)
H12 H 0.1502 -0.0762 -0.3139
C23 C 0.8801(3) 0.3456(3) 0.3296(2)
H13 H 0.9171 0.2868 0.3198
H14 H 0.8605 0.3545 0.3864
H15 H 0.9408 0.4150 0.3336
C24 C 0.7817(4) 0.5388(4) 0.4626(2)
H16 H 0.7326 0.5887 0.4697
H17 H 0.8577 0.5647 0.5167
H18 H 0.7293 0.4642 0.4553
C25 C 0.7725(4) 0.7625(3) 0.3278(3)
H19 H 0.8525 0.7481 0.3319
H20 H 0.7895 0.8340 0.3727
H21 H 0.7333 0.7636 0.2664
C26 C 0.3806(4) 0.5843(3) 0.1080(3)
H22 H 0.4039 0.5625 0.0533
H23 H 0.3497 0.6466 0.1079
H24 H 0.3135 0.5219 0.1083
O1 O 0.8193(2) 0.53705(18) 0.38225(15)
O2 O 0.6872(2) 0.6764(2) 0.34625(15)
O3 O 0.4909(2) 0.61664(19) 0.18839(16)
C27 C -0.2331(4) 0.6909(3) 0.7372(2)
C28 C -0.1680(3) 0.6134(3) 0.7588(2)
C29 C -0.2062(3) 0.4983(3) 0.7020(2)
C30 C -0.1393(3) 0.4293(3) 0.7241(2)
C31 C -0.0286(3) 0.4704(3) 0.8041(2)
C32 C 0.0119(3) 0.5792(3) 0.8595(2)
H25 H 0.0866 0.6060 0.9114
C33 C -0.0565(3) 0.6535(3) 0.8405(2)
C34 C -0.0095(3) 0.7679(3) 0.8994(2)
C35 C -0.0708(4) 0.8390(3) 0.8727(2)
H26 H -0.0391 0.9148 0.9086
C36 C -0.1793(4) 0.8002(3) 0.7931(2)
H27 H -0.2171 0.8517 0.7773
C37 C 0.0993(3) 0.8126(3) 0.9888(2)
C38 C 0.1055(3) 0.7603(3) 1.0562(2)
H28 H 0.0411 0.6923 1.0438
C39 C 0.2045(3) 0.8063(3) 1.1415(2)
H29 H 0.2050 0.7687 1.1850
C40 C 0.3030(3) 0.9073(3) 1.1631(2)
C41 C 0.2955(3) 0.9610(3) 1.0962(2)
H30 H 0.3587 1.0298 1.1088
C42 C 0.1965(3) 0.9146(3) 1.0116(2)
H31 H 0.1950 0.9529 0.9685
C43 C 0.4104(3) 0.9555(3) 1.2532(2)
C44 C 0.4450(4) 0.8880(3) 1.3040(3)
H32 H 0.3991 0.8111 1.2811
C45 C 0.5446(4) 0.9315(4) 1.3870(3)
H33 H 0.5654 0.8839 1.4195
C46 C 0.6139(5) 1.0439(4) 1.4226(3)
H34 H 0.6813 1.0736 1.4794
C47 C 0.5824(4) 1.1126(4) 1.3730(3)
H35 H 0.6292 1.1894 1.3964
C48 C 0.4831(4) 1.0693(3) 1.2897(3)
H36 H 0.4640 1.1171 1.2569
C49 C -0.3589(4) 0.6577(4) 0.6581(3)
H37 H -0.3843 0.7228 0.6582
H38 H -0.4254 0.6016 0.6660
H39 H -0.3469 0.6278 0.6000
C50 C -0.4161(4) 0.3691(3) 0.6036(3)
H40 H -0.4009 0.2996 0.5821
H41 H -0.4895 0.3707 0.5579
H42 H -0.4331 0.3751 0.6612
C51 C -0.1125(4) 0.3021(3) 0.6026(3)
H43 H -0.1435 0.3306 0.5535
H44 H -0.1279 0.2230 0.5767
H45 H -0.0212 0.3412 0.6336
C52 C 0.1528(3) 0.4352(3) 0.8902(2)
H46 H 0.2128 0.4952 0.8810
H47 H 0.1874 0.3752 0.8915
H48 H 0.1393 0.4628 0.9482
O4 O -0.3053(2) 0.4605(2) 0.61775(15)
O5 O -0.1789(2) 0.3190(2) 0.66727(17)
O6 O 0.0322(2) 0.39403(18) 0.81580(15)
loop_
_geom_bond_atom_site_label_1
_geom_bond_atom_site_label_2
_geom_bond_site_symmetry_1
_geom_bond_site_symmetry_2
C1 C2 1_555 1_555
C2 C3 1_555 1_555
C3 C4 1_555 1_555
C4 C5 1_555 1_555
C5 C6 1_555 1_555
C6 H1 1_555 1_555
C7 C2 1_555 1_555
C8 C7 1_555 1_555
C9 C8 1_555 1_555
H2 C9 1_555 1_555
C10 C1 1_555 1_555
H3 C10 1_555 1_555
C11 C8 1_555 1_555
C12 C11 1_555 1_555
H4 C12 1_555 1_555
C13 C12 1_555 1_555
H5 C13 1_555 1_555
C14 C13 1_555 1_555
C15 C14 1_555 1_555
H6 C15 1_555 1_555
C16 C11 1_555 1_555
H7 C16 1_555 1_555
C17 C14 1_555 1_555
C18 C17 1_555 1_555
H8 C18 1_555 1_555
C19 C18 1_555 1_555
H9 C19 1_555 1_555
C20 C19 1_555 1_555
H10 C20 1_555 1_555
C21 C20 1_555 1_555
H11 C21 1_555 1_555
C22 C17 1_555 1_555
H12 C22 1_555 1_555
C23 C1 1_555 1_555
H13 C23 1_555 1_555
H14 C23 1_555 1_555
H15 C23 1_555 1_555
C24 H16 1_555 1_555
H17 C24 1_555 1_555
H18 C24 1_555 1_555
C25 H19 1_555 1_555
H20 C25 1_555 1_555
H21 C25 1_555 1_555
C26 H22 1_555 1_555
H23 C26 1_555 1_555
H24 C26 1_555 1_555
O1 C3 1_555 1_555
O2 C4 1_555 1_555
O3 C5 1_555 1_555
C27 C28 1_555 1_555
C28 C29 1_555 1_555
C29 C30 1_555 1_555
C30 C31 1_555 1_555
C31 C32 1_555 1_555
C32 H25 1_555 1_555
C33 C28 1_555 1_555
C34 C33 1_555 1_555
C35 C34 1_555 1_555
H26 C35 1_555 1_555
C36 C27 1_555 1_555
H27 C36 1_555 1_555
C37 C34 1_555 1_555
C38 C37 1_555 1_555
H28 C38 1_555 1_555
C39 C38 1_555 1_555
H29 C39 1_555 1_555
C40 C39 1_555 1_555
C41 C40 1_555 1_555
H30 C41 1_555 1_555
C42 C37 1_555 1_555
H31 C42 1_555 1_555
C43 C40 1_555 1_555
C44 C43 1_555 1_555
H32 C44 1_555 1_555
C45 C44 1_555 1_555
H33 C45 1_555 1_555
C46 C45 1_555 1_555
H34 C46 1_555 1_555
C47 C46 1_555 1_555
H35 C47 1_555 1_555
C48 C43 1_555 1_555
H36 C48 1_555 1_555
C49 C27 1_555 1_555
H37 C49 1_555 1_555
H38 C49 1_555 1_555
H39 C49 1_555 1_555
C50 H40 1_555 1_555
H41 C50 1_555 1_555
H42 C50 1_555 1_555
C51 H43 1_555 1_555
H44 C51 1_555 1_555
H45 C51 1_555 1_555
C52 H46 1_555 1_555
H47 C52 1_555 1_555
H48 C52 1_555 1_555
O4 C29 1_555 1_555
O5 C30 1_555 1_555
O6 C31 1_555 1_555
C6 C7 1_555 1_555
C9 C10 1_555 1_555
C15 C16 1_555 1_555
C21 C22 1_555 1_555
C24 O1 1_555 1_555
C25 O2 1_555 1_555
C26 O3 1_555 1_555
C32 C33 1_555 1_555
C35 C36 1_555 1_555
C41 C42 1_555 1_555
C47 C48 1_555 1_555
C50 O4 1_555 1_555
C51 O5 1_555 1_555
C52 O6 1_555 1_555

#END
