
#######################################################################
#
#                 Cambridge Crystallographic Data Centre
#                                CCDC 
#
#######################################################################
#
# If this CIF has been generated from an entry in the Cambridge 
# Structural Database, then it will include bibliographic, chemical, 
# crystal, experimental, refinement or atomic coordinate data resulting 
# from the CCDC's data processing and validation procedures.
#
#######################################################################

data_HUZBUB
_chemical_formula_moiety         
'3(C18 H8 Cl2 N6 O4),2(C3 H7 N1 O1),C2 H3 O2 1-,C4 H12 N1 1+'
_chemical_name_systematic        
'tetramethylammonium tris(5,17-dichloro-2,8,14,20-tetraoxa-4,6,16,18,26,28-hexaazapentacyclo[19.3.1.1^3,7^.1^9,13^.1^15,19^]octacosa-1(25),3(28),4,6,9(27),10,12,15(26),16,18,21,23-dodecaene) acetate N,N-dimethylformamide solvate'
_symmetry_cell_setting           rhombohedral
_symmetry_space_group_name_H-M   'R 3'
_symmetry_Int_Tables_number      146
_space_group_name_Hall           'R 3'
loop_
_symmetry_equiv_pos_site_id
_symmetry_equiv_pos_as_xyz
1 x,y,z
2 -y,x-y,z
3 -x+y,-x,z
4 2/3+x,1/3+y,1/3+z
5 2/3-y,1/3+x-y,1/3+z
6 2/3-x+y,1/3-x,1/3+z
7 1/3+x,2/3+y,2/3+z
8 1/3-y,2/3+x-y,2/3+z
9 1/3-x+y,2/3-x,2/3+z
_cell_length_a                   18.950(3)
_cell_length_b                   18.950(3)
_cell_length_c                   17.429(4)
_cell_angle_alpha                90
_cell_angle_beta                 90
_cell_angle_gamma                120
_cell_volume                     5420.28
_exptl_crystal_colour            colorless
_exptl_crystal_description       plate
_cell_formula_units_Z            3
loop_
_atom_site_label
_atom_site_type_symbol
_atom_site_fract_x
_atom_site_fract_y
_atom_site_fract_z
O5 O 0.7068(7) 0.7226(5) 0.4603(5)
N7 N 0.6685(10) 0.8222(8) 0.4694(7)
C19 C 0.6536(8) 0.7440(7) 0.4714(6)
H9 H 0.6005 0.7032 0.4816
C20 C 0.7390(12) 0.8799(12) 0.4521(13)
H10 H 0.7794 0.8702 0.4752
H11 H 0.7454 0.9304 0.4707
H12 H 0.7455 0.8826 0.3974
C21 C 0.5957(8) 0.8320(8) 0.4844(9)
H13 H 0.5777 0.8436 0.4371
H14 H 0.6105 0.8760 0.5198
H15 H 0.5526 0.7825 0.5060
N8 N 0.3333 0.6667 0.2248(8)
C22 C 0.3333 0.6667 0.3093(14)
H16 H 0.3873 0.7034 0.3277
C23 C 0.287(2) 0.689(3) 0.188(2)
H17 H 0.2948 0.7420 0.2055
H18 H 0.2984 0.6952 0.1317
H19 H 0.2274 0.6499 0.1928
H16A H 0.2966 0.6839 0.3277
C23A C 0.311(3) 0.598(4) 0.188(2)
H17A H 0.2580 0.5528 0.2055
H18A H 0.3048 0.6032 0.1317
H19A H 0.3501 0.5775 0.1928
H16B H 0.3161 0.6127 0.3277
C23B C 0.402(4) 0.713(2) 0.188(2)
H17B H 0.4472 0.7052 0.2055
H18B H 0.3968 0.7016 0.1317
H19B H 0.4225 0.7726 0.1928
Cl1 Cl 0.70262(17) 0.86428(13) 0.67855(13)
Cl2 Cl 0.71804(15) 0.46493(16) 0.15485(11)
O1 O 0.5936(3) 0.5800(3) 0.6224(3)
O2 O 0.8703(3) 0.7505(3) 0.6066(4)
O3 O 0.8694(3) 0.6098(3) 0.3771(2)
O4 O 0.5980(3) 0.4217(3) 0.4080(3)
N1 N 0.6463(4) 0.7108(4) 0.6497(3)
N2 N 0.7899(4) 0.7997(4) 0.6412(4)
N3 N 0.7323(3) 0.6587(3) 0.6140(3)
N4 N 0.7955(4) 0.5400(3) 0.2765(3)
N5 N 0.6555(4) 0.4420(4) 0.2924(3)
N6 N 0.7346(3) 0.5174(3) 0.4000(3)
C1 C 0.6616(4) 0.6525(4) 0.6286(3)
C2 C 0.7149(5) 0.7826(4) 0.6537(4)
C3 C 0.7936(4) 0.7344(4) 0.6198(4)
C4 C 0.8858(4) 0.6944(4) 0.5680(4)
C5 C 0.9364(4) 0.6726(5) 0.6034(4)
H1 H 0.9532 0.6879 0.6538
C6 C 0.9625(4) 0.6266(5) 0.5616(5)
H2 H 0.9977 0.6117 0.5841
C7 C 0.9366(4) 0.6036(4) 0.4884(4)
H3 H 0.9534 0.5726 0.4607
C8 C 0.8855(3) 0.6268(3) 0.4558(3)
C9 C 0.8571(3) 0.6716(4) 0.4936(3)
H4 H 0.8213 0.6856 0.4710
C10 C 0.7964(4) 0.5537(4) 0.3523(3)
C11 C 0.7230(4) 0.4841(4) 0.2520(4)
C12 C 0.6658(4) 0.4633(3) 0.3656(3)
C13 C 0.5993(3) 0.4358(4) 0.4870(3)
C14 C 0.5848(4) 0.3723(4) 0.5354(5)
H5 H 0.5783 0.3238 0.5156
C15 C 0.5800(4) 0.3812(4) 0.6132(4)
H6 H 0.5725 0.3395 0.6462
C16 C 0.5865(5) 0.4519(5) 0.6422(5)
H7 H 0.5833 0.4582 0.6948
C17 C 0.5977(3) 0.5130(4) 0.5921(4)
C18 C 0.6057(3) 0.5076(4) 0.5148(4)
H8 H 0.6150 0.5502 0.4821
O6? O 0.631(2) 0.811(3) 0.473(2)
O7? O 0.724(2) 0.767(2) 0.4559(17)
C24? C 0.749(3) 0.916(2) 0.463(2)
H20? H 0.7340 0.9355 0.4185
H21? H 0.8061 0.9340 0.4610
H22? H 0.7370 0.9363 0.5084
C25? C 0.701(2) 0.824(2) 0.464(3)
H23? H 0.3873 0.7034 0.3277
H24? H 0.3873 0.7034 0.3277
loop_
_geom_bond_atom_site_label_1
_geom_bond_atom_site_label_2
_geom_bond_site_symmetry_1
_geom_bond_site_symmetry_2
Cl1 C2 1_555 1_555
Cl2 C11 1_555 1_555
O1 C1 1_555 1_555
O2 C3 1_555 1_555
O3 C8 1_555 1_555
O4 C12 1_555 1_555
N1 C1 1_555 1_555
N2 C2 1_555 1_555
N3 C1 1_555 1_555
N4 C10 1_555 1_555
N5 C11 1_555 1_555
N6 C10 1_555 1_555
C2 N1 1_555 1_555
C3 N2 1_555 1_555
C4 O2 1_555 1_555
C5 C4 1_555 1_555
H1 C5 1_555 1_555
C6 C5 1_555 1_555
H2 C6 1_555 1_555
C7 C6 1_555 1_555
H3 C7 1_555 1_555
C8 C7 1_555 1_555
C9 C4 1_555 1_555
H4 C9 1_555 1_555
C10 O3 1_555 1_555
C11 N4 1_555 1_555
C12 N5 1_555 1_555
C13 O4 1_555 1_555
C14 C13 1_555 1_555
H5 C14 1_555 1_555
C15 C14 1_555 1_555
H6 C15 1_555 1_555
C16 C15 1_555 1_555
H7 C16 1_555 1_555
C17 O1 1_555 1_555
C18 C13 1_555 1_555
H8 C18 1_555 1_555
O5 C19 1_555 1_555
N7 C19 1_555 1_555
C19 H9 1_555 1_555
C20 N7 1_555 1_555
H10 C20 1_555 1_555
H11 C20 1_555 1_555
H12 C20 1_555 1_555
C21 N7 1_555 1_555
H13 C21 1_555 1_555
H14 C21 1_555 1_555
H15 C21 1_555 1_555
N8 C22 1_555 1_555
C22 H16 1_555 1_555
C23 N8 1_555 1_555
H17 C23 1_555 1_555
H18 C23 1_555 1_555
H19 C23 1_555 1_555
H16A C22 1_555 1_555
C23A N8 1_555 1_555
H17A C23A 1_555 1_555
H18A C23A 1_555 1_555
H19A C23A 1_555 1_555
H16B C22 1_555 1_555
C23B N8 1_555 1_555
H17B C23B 1_555 1_555
H18B C23B 1_555 1_555
H19B C23B 1_555 1_555
N3 C3 1_555 1_555
N6 C12 1_555 1_555
C8 C9 1_555 1_555
C16 C17 1_555 1_555
C17 C18 1_555 1_555

#END
