
#######################################################################
#
#                 Cambridge Crystallographic Data Centre
#                                CCDC 
#
#######################################################################
#
# If this CIF has been generated from an entry in the Cambridge 
# Structural Database, then it will include bibliographic, chemical, 
# crystal, experimental, refinement or atomic coordinate data resulting 
# from the CCDC's data processing and validation procedures.
#
#######################################################################

data_HUZCOU
_chemical_formula_moiety         'C19 H29 Br1 N1 O3 P1'
_chemical_name_systematic        
3-Bromo-4-(dicyclohexylphosphinoyl)-2,6-dimethoxypyridine
_symmetry_cell_setting           monoclinic
_symmetry_space_group_name_H-M   'P 21/n'
_symmetry_Int_Tables_number      14
_space_group_name_Hall           '-P 2yn'
loop_
_symmetry_equiv_pos_site_id
_symmetry_equiv_pos_as_xyz
1 x,y,z
2 1/2+x,1/2-y,1/2+z
3 -x,-y,-z
4 1/2-x,1/2+y,1/2-z
_cell_length_a                   9.2025(12)
_cell_length_b                   18.759(2)
_cell_length_c                   23.761(3)
_cell_angle_alpha                90
_cell_angle_beta                 92.009(3)
_cell_angle_gamma                90
_cell_volume                     4099.33
_exptl_crystal_colour            colorless
_exptl_crystal_description       prism
_cell_formula_units_Z            8
_exptl_crystal_recrystallization_method hexane/dichloromethane
loop_
_atom_site_label
_atom_site_type_symbol
_atom_site_fract_x
_atom_site_fract_y
_atom_site_fract_z
Br1 Br 0.37202(5) 0.30717(3) 0.55442(2)
P1 P 0.22148(13) 0.35103(7) 0.41928(5)
O1 O 0.1201(3) 0.36109(17) 0.37024(11)
O2 O 0.1533(3) 0.22404(17) 0.61400(13)
O3 O -0.2073(4) 0.20364(19) 0.47620(12)
N1 N -0.0290(4) 0.21495(19) 0.54593(14)
C1 C 0.3831(5) 0.2989(2) 0.40401(18)
H1 H 0.4315 0.2889 0.4405
C2 C 0.4918(6) 0.3365(3) 0.3703(2)
H2 H 0.5296 0.3769 0.3918
H3 H 0.4439 0.3550 0.3364
C3 C 0.6155(6) 0.2907(3) 0.3543(3)
H4 H 0.6778 0.2825 0.3875
H5 H 0.6722 0.3163 0.3272
C4 C 0.5727(7) 0.2203(3) 0.3297(3)
H6 H 0.5306 0.2275 0.2921
H7 H 0.6587 0.1909 0.3266
C5 C 0.4682(7) 0.1835(3) 0.3639(3)
H8 H 0.5180 0.1668 0.3981
H9 H 0.4327 0.1419 0.3434
C6 C 0.3402(6) 0.2279(3) 0.3798(2)
H10 H 0.2774 0.2353 0.3467
H11 H 0.2850 0.2021 0.4073
C7 C 0.2827(5) 0.4360(2) 0.44960(16)
H12 H 0.3785 0.4286 0.4680
C8 C 0.1816(5) 0.4673(3) 0.49314(19)
H13 H 0.0846 0.4720 0.4763
H14 H 0.1765 0.4348 0.5247
C9 C 0.2329(5) 0.5393(3) 0.51426(19)
H15 H 0.1632 0.5581 0.5401
H16 H 0.3252 0.5338 0.5348
C10 C 0.2508(6) 0.5915(3) 0.4669(2)
H17 H 0.2910 0.6357 0.4818
H18 H 0.1565 0.6018 0.4492
C11 C 0.3509(6) 0.5613(3) 0.4233(2)
H19 H 0.3556 0.5944 0.3920
H20 H 0.4482 0.5566 0.4400
C12 C 0.3001(5) 0.4890(2) 0.40137(18)
H21 H 0.3701 0.4706 0.3755
H22 H 0.2078 0.4945 0.3809
C13 C 0.1291(5) 0.2984(2) 0.47399(16)
C14 C 0.1844(4) 0.2811(2) 0.52684(18)
C15 C 0.1003(5) 0.2396(2) 0.56209(18)
C16 C -0.0792(5) 0.2307(3) 0.4938(2)
C17 C -0.0032(5) 0.2738(2) 0.45722(19)
H23 H -0.0430 0.2855 0.4219
C18 C 0.0722(5) 0.1757(3) 0.64868(19)
H24 H 0.1228 0.1696 0.6844
H25 H 0.0627 0.1304 0.6301
H26 H -0.0227 0.1951 0.6545
C19 C -0.2789(6) 0.1560(3) 0.5116(2)
H27 H -0.3690 0.1412 0.4936
H28 H -0.2981 0.1792 0.5466
H29 H -0.2185 0.1150 0.5187
Br2 Br 0.85647(5) 0.04305(3) 0.747128(18)
P2 P 0.49520(12) 0.07662(7) 0.69441(4)
O4 O 0.3660(3) 0.08126(16) 0.65554(11)
O5 O 1.0107(3) -0.03275(18) 0.65904(12)
O6 O 0.6551(4) -0.04846(18) 0.51877(12)
N2 N 0.8342(4) -0.04124(19) 0.58850(15)
C20 C 0.4615(5) 0.0253(2) 0.75805(16)
H30 H 0.5261 0.0436 0.7884
C21 C 0.4891(6) -0.0536(2) 0.75249(19)
H31 H 0.5902 -0.0611 0.7439
H32 H 0.4296 -0.0722 0.7213
C22 C 0.4556(7) -0.0946(3) 0.8055(2)
H33 H 0.5215 -0.0796 0.8359
H34 H 0.4708 -0.1451 0.7992
C23 C 0.3000(7) -0.0823(3) 0.8222(2)
H35 H 0.2337 -0.1029 0.7939
H36 H 0.2837 -0.1057 0.8578
C24 C 0.2700(7) -0.0042(4) 0.8275(2)
H37 H 0.3274 0.0146 0.8592
H38 H 0.1682 0.0025 0.8354
C25 C 0.3048(6) 0.0376(3) 0.7749(2)
H39 H 0.2899 0.0880 0.7817
H40 H 0.2390 0.0232 0.7442
C26 C 0.5657(4) 0.1628(2) 0.71600(16)
H41 H 0.6390 0.1547 0.7462
C27 C 0.4483(5) 0.2098(2) 0.73966(19)
H42 H 0.4069 0.1862 0.7717
H43 H 0.3712 0.2164 0.7112
C28 C 0.5077(6) 0.2828(3) 0.7581(2)
H44 H 0.4287 0.3121 0.7710
H45 H 0.5775 0.2767 0.7893
C29 C 0.5806(6) 0.3203(3) 0.7099(2)
H46 H 0.6225 0.3649 0.7231
H47 H 0.5088 0.3309 0.6802
C30 C 0.6997(6) 0.2730(3) 0.6867(2)
H48 H 0.7418 0.2964 0.6547
H49 H 0.7760 0.2664 0.7153
C31 C 0.6401(5) 0.2011(2) 0.66855(19)
H50 H 0.7191 0.1717 0.6557
H51 H 0.5710 0.2076 0.6372
C32 C 0.6408(5) 0.0305(2) 0.65661(15)
C33 C 0.7819(5) 0.0158(2) 0.67508(16)
C34 C 0.8745(5) -0.0190(2) 0.63953(19)
C35 C 0.6992(6) -0.0269(2) 0.57106(18)
C36 C 0.5997(5) 0.0085(2) 0.60255(17)
H52 H 0.5065 0.0176 0.5879
C37 C 1.1078(5) -0.0689(3) 0.6223(2)
H53 H 1.2005 -0.0754 0.6414
H54 H 1.1198 -0.0408 0.5890
H55 H 1.0678 -0.1145 0.6121
C38 C 0.7538(6) -0.0878(3) 0.4870(2)
H56 H 0.7090 -0.0999 0.4512
H57 H 0.7804 -0.1307 0.5069
H58 H 0.8392 -0.0597 0.4814
loop_
_geom_bond_atom_site_label_1
_geom_bond_atom_site_label_2
_geom_bond_site_symmetry_1
_geom_bond_site_symmetry_2
Br1 C14 1_555 1_555
P1 O1 1_555 1_555
O2 C15 1_555 1_555
O3 C16 1_555 1_555
N1 C15 1_555 1_555
C1 P1 1_555 1_555
H1 C1 1_555 1_555
C2 C1 1_555 1_555
H2 C2 1_555 1_555
H3 C2 1_555 1_555
C3 C2 1_555 1_555
H4 C3 1_555 1_555
H5 C3 1_555 1_555
C4 C3 1_555 1_555
H6 C4 1_555 1_555
H7 C4 1_555 1_555
C5 C4 1_555 1_555
H8 C5 1_555 1_555
H9 C5 1_555 1_555
C6 C1 1_555 1_555
H10 C6 1_555 1_555
H11 C6 1_555 1_555
C7 P1 1_555 1_555
H12 C7 1_555 1_555
C8 C7 1_555 1_555
H13 C8 1_555 1_555
H14 C8 1_555 1_555
C9 C8 1_555 1_555
H15 C9 1_555 1_555
H16 C9 1_555 1_555
C10 C9 1_555 1_555
H17 C10 1_555 1_555
H18 C10 1_555 1_555
C11 C10 1_555 1_555
H19 C11 1_555 1_555
H20 C11 1_555 1_555
C12 C7 1_555 1_555
H21 C12 1_555 1_555
H22 C12 1_555 1_555
C13 P1 1_555 1_555
C14 C13 1_555 1_555
C15 C14 1_555 1_555
C16 N1 1_555 1_555
C17 C13 1_555 1_555
H23 C17 1_555 1_555
C18 O2 1_555 1_555
H24 C18 1_555 1_555
H25 C18 1_555 1_555
H26 C18 1_555 1_555
C19 O3 1_555 1_555
H27 C19 1_555 1_555
H28 C19 1_555 1_555
H29 C19 1_555 1_555
Br2 C33 1_555 1_555
P2 O4 1_555 1_555
O5 C34 1_555 1_555
O6 C35 1_555 1_555
N2 C34 1_555 1_555
C20 P2 1_555 1_555
H30 C20 1_555 1_555
C21 C20 1_555 1_555
H31 C21 1_555 1_555
H32 C21 1_555 1_555
C22 C21 1_555 1_555
H33 C22 1_555 1_555
H34 C22 1_555 1_555
C23 C22 1_555 1_555
H35 C23 1_555 1_555
H36 C23 1_555 1_555
C24 C23 1_555 1_555
H37 C24 1_555 1_555
H38 C24 1_555 1_555
C25 C20 1_555 1_555
H39 C25 1_555 1_555
H40 C25 1_555 1_555
C26 P2 1_555 1_555
H41 C26 1_555 1_555
C27 C26 1_555 1_555
H42 C27 1_555 1_555
H43 C27 1_555 1_555
C28 C27 1_555 1_555
H44 C28 1_555 1_555
H45 C28 1_555 1_555
C29 C28 1_555 1_555
H46 C29 1_555 1_555
H47 C29 1_555 1_555
C30 C29 1_555 1_555
H48 C30 1_555 1_555
H49 C30 1_555 1_555
C31 C26 1_555 1_555
H50 C31 1_555 1_555
H51 C31 1_555 1_555
C32 P2 1_555 1_555
C33 C32 1_555 1_555
C34 C33 1_555 1_555
C35 N2 1_555 1_555
C36 C32 1_555 1_555
H52 C36 1_555 1_555
C37 O5 1_555 1_555
H53 C37 1_555 1_555
H54 C37 1_555 1_555
H55 C37 1_555 1_555
C38 O6 1_555 1_555
H56 C38 1_555 1_555
H57 C38 1_555 1_555
H58 C38 1_555 1_555
C5 C6 1_555 1_555
C11 C12 1_555 1_555
C16 C17 1_555 1_555
C24 C25 1_555 1_555
C30 C31 1_555 1_555
C35 C36 1_555 1_555

#END
