
#######################################################################
#
#                 Cambridge Crystallographic Data Centre
#                                CCDC 
#
#######################################################################
#
# If this CIF has been generated from an entry in the Cambridge 
# Structural Database, then it will include bibliographic, chemical, 
# crystal, experimental, refinement or atomic coordinate data resulting 
# from the CCDC's data processing and validation procedures.
#
#######################################################################

data_HUZFEN
_chemical_formula_moiety         'C25 H21 N1'
_chemical_name_systematic        14-n-Butyldibenz(a,h)acridine
_symmetry_cell_setting           monoclinic
_symmetry_space_group_name_H-M   'C 2/c'
_symmetry_Int_Tables_number      15
_space_group_name_Hall           '-C 2yn'
loop_
_symmetry_equiv_pos_site_id
_symmetry_equiv_pos_as_xyz
1 x,y,z
2 1/2+x,1/2+y,z
3 x,-y,1/2+z
4 1/2+x,1/2-y,1/2+z
5 -x,-y,-z
6 1/2-x,1/2-y,-z
7 -x,y,1/2-z
8 1/2-x,1/2+y,1/2-z
_cell_length_a                   19.5507(11)
_cell_length_b                   12.7195(7)
_cell_length_c                   14.7732(8)
_cell_angle_alpha                90
_cell_angle_beta                 93.3220(10)
_cell_angle_gamma                90
_cell_volume                     3667.55
_exptl_crystal_colour            yellow
_exptl_crystal_description       block
_cell_formula_units_Z            8
_exptl_crystal_recrystallization_method 'chloroform-petroleum ether'
loop_
_atom_site_label
_atom_site_type_symbol
_atom_site_fract_x
_atom_site_fract_y
_atom_site_fract_z
N1 N 0.20712(7) 0.94371(11) 0.12336(9)
C1 C 0.24753(8) 0.97813(12) 0.05954(10)
C2 C 0.30655(8) 0.92382(12) 0.03031(10)
C3 C 0.31644(8) 0.82032(12) 0.06486(10)
C4 C 0.27295(8) 0.78358(12) 0.13108(10)
C5 C 0.21998(8) 0.84883(12) 0.16050(10)
C6 C 0.17452(9) 0.81306(13) 0.22835(11)
C7 C 0.18200(9) 0.71022(14) 0.26268(11)
C8 C 0.23510(10) 0.64576(14) 0.23078(12)
H1 H 0.2400 0.5777 0.2532
C9 C 0.27818(10) 0.67897(13) 0.16997(11)
H2 H 0.3124 0.6339 0.1521
C10 C 0.13686(11) 0.67508(17) 0.32735(13)
H3 H 0.1411 0.6069 0.3498
C11 C 0.08733(12) 0.7390(2) 0.35754(15)
H4 H 0.0584 0.7148 0.4008
C12 C 0.08009(11) 0.8407(2) 0.32361(15)
H5 H 0.0460 0.8842 0.3440
C13 C 0.12285(9) 0.87702(17) 0.26036(13)
H6 H 0.1175 0.9452 0.2384
C14 C 0.34738(8) 0.97676(12) -0.03665(10)
C15 C 0.32027(9) 1.06796(13) -0.08092(11)
C16 C 0.25865(10) 1.11449(14) -0.05257(12)
H7 H 0.2411 1.1737 -0.0826
C17 C 0.22571(9) 1.07480(14) 0.01609(12)
H8 H 0.1879 1.1102 0.0364
C18 C 0.35498(11) 1.11460(16) -0.15061(13)
H9 H 0.3357 1.1727 -0.1805
C19 C 0.41616(12) 1.07725(18) -0.17583(14)
H10 H 0.4375 1.1070 -0.2243
C20 C 0.44616(11) 0.99406(18) -0.12793(15)
H11 H 0.4893 0.9705 -0.1421
C21 C 0.41315(9) 0.94612(15) -0.05999(13)
H12 H 0.4350 0.8914 -0.0282
C22 C 0.36725(9) 0.74302(13) 0.02976(10)
H13 H 0.3795 0.7660 -0.0298
H14 H 0.3450 0.6751 0.0225
C23 C 0.43282(9) 0.72905(14) 0.08958(12)
H15 H 0.4211 0.7182 0.1518
H16 H 0.4600 0.7927 0.0876
C24 C 0.47531(11) 0.63607(17) 0.05943(14)
H17 H 0.4473 0.5731 0.0600
H18 H 0.4872 0.6479 -0.0026
C25 C 0.53920(12) 0.6175(2) 0.1164(2)
H19 H 0.5611 0.5547 0.0965
H20 H 0.5283 0.6096 0.1786
H21 H 0.5696 0.6762 0.1110
loop_
_geom_bond_atom_site_label_1
_geom_bond_atom_site_label_2
_geom_bond_site_symmetry_1
_geom_bond_site_symmetry_2
N1 C1 1_555 1_555
C1 C2 1_555 1_555
C2 C3 1_555 1_555
C3 C4 1_555 1_555
C4 C5 1_555 1_555
C5 N1 1_555 1_555
C6 C5 1_555 1_555
C7 C6 1_555 1_555
C8 C7 1_555 1_555
H1 C8 1_555 1_555
C9 C4 1_555 1_555
H2 C9 1_555 1_555
C10 C7 1_555 1_555
H3 C10 1_555 1_555
C11 C10 1_555 1_555
H4 C11 1_555 1_555
C12 C11 1_555 1_555
H5 C12 1_555 1_555
C13 C6 1_555 1_555
H6 C13 1_555 1_555
C14 C2 1_555 1_555
C15 C14 1_555 1_555
C16 C15 1_555 1_555
H7 C16 1_555 1_555
C17 C1 1_555 1_555
H8 C17 1_555 1_555
C18 C15 1_555 1_555
H9 C18 1_555 1_555
C19 C18 1_555 1_555
H10 C19 1_555 1_555
C20 C19 1_555 1_555
H11 C20 1_555 1_555
C21 C14 1_555 1_555
H12 C21 1_555 1_555
C22 C3 1_555 1_555
H13 C22 1_555 1_555
H14 C22 1_555 1_555
C23 C22 1_555 1_555
H15 C23 1_555 1_555
H16 C23 1_555 1_555
C24 C23 1_555 1_555
H17 C24 1_555 1_555
H18 C24 1_555 1_555
C25 C24 1_555 1_555
H19 C25 1_555 1_555
H20 C25 1_555 1_555
H21 C25 1_555 1_555
C8 C9 1_555 1_555
C12 C13 1_555 1_555
C16 C17 1_555 1_555
C20 C21 1_555 1_555

#END
