
#######################################################################
#
#                 Cambridge Crystallographic Data Centre
#                                CCDC 
#
#######################################################################
#
# If this CIF has been generated from an entry in the Cambridge 
# Structural Database, then it will include bibliographic, chemical, 
# crystal, experimental, refinement or atomic coordinate data resulting 
# from the CCDC's data processing and validation procedures.
#
#######################################################################

data_HUZGOA
_chemical_formula_moiety         'C30 H20 Cl2'
_chemical_name_systematic        9,10-bis(2-(4-chlorophenyl)vinyl)anthracene
_symmetry_cell_setting           triclinic
_symmetry_space_group_name_H-M   'P -1'
_symmetry_Int_Tables_number      2
_space_group_name_Hall           '-P 1'
loop_
_symmetry_equiv_pos_site_id
_symmetry_equiv_pos_as_xyz
1 x,y,z
2 -x,-y,-z
_cell_length_a                   6.9264(14)
_cell_length_b                   9.7188(19)
_cell_length_c                   9.951(2)
_cell_angle_alpha                64.11(3)
_cell_angle_beta                 71.29(3)
_cell_angle_gamma                76.17(3)
_cell_volume                     566.923
_exptl_crystal_colour            yellow
_exptl_crystal_description       Prism
_cell_formula_units_Z            1
loop_
_atom_site_label
_atom_site_type_symbol
_atom_site_fract_x
_atom_site_fract_y
_atom_site_fract_z
Cl1 Cl -1.41453(19) 0.92035(18) 0.32653(18)
C1 C -0.8922(6) 0.6532(5) 0.2558(5)
H1 H -0.8518 0.5488 0.2777
C2 C -1.0981(7) 0.7022(6) 0.3021(6)
H2 H -1.1947 0.6323 0.3538
C3 C -1.1564(6) 0.8572(6) 0.2696(5)
C4 C -1.0154(7) 0.9611(5) 0.1940(5)
H3 H -1.0566 1.0653 0.1728
C5 C -0.8100(7) 0.9086(5) 0.1494(5)
H4 H -0.7137 0.9787 0.0990
C6 C -0.7448(6) 0.7537(5) 0.1783(5)
C7 C -0.5256(6) 0.7076(5) 0.1221(5)
H5 H -0.4393 0.7836 0.0827
C8 C -0.4363(6) 0.5729(5) 0.1205(5)
H6 H -0.5183 0.4938 0.1620
C9 C -0.2130(6) 0.5377(5) 0.0568(5)
C10 C -0.0999(6) 0.4184(5) 0.1537(5)
C11 C -0.1933(7) 0.3356(5) 0.3135(5)
H7 H -0.3335 0.3568 0.3513
C12 C -0.0820(7) 0.2274(5) 0.4103(5)
H8 H -0.1460 0.1742 0.5129
C13 C 0.1310(6) 0.1955(5) 0.3553(5)
H9 H 0.2076 0.1238 0.4232
C14 C 0.2262(6) 0.2678(5) 0.2049(5)
H10 H 0.3664 0.2426 0.1710
C15 C -0.1158(6) 0.6183(5) -0.0975(5)
Cl1A Cl 1.41453(19) 0.07965(18) -0.32653(18)
C1A C 0.8922(6) 0.3468(5) -0.2558(5)
H1A H 0.8518 0.4512 -0.2777
C2A C 1.0981(7) 0.2978(6) -0.3021(6)
H2A H 1.1947 0.3677 -0.3538
C3A C 1.1564(6) 0.1428(6) -0.2696(5)
C4A C 1.0154(7) 0.0389(5) -0.1940(5)
H3A H 1.0566 -0.0653 -0.1728
C5A C 0.8100(7) 0.0914(5) -0.1494(5)
H4A H 0.7137 0.0213 -0.0990
C6A C 0.7448(6) 0.2463(5) -0.1783(5)
C7A C 0.5256(6) 0.2924(5) -0.1221(5)
H5A H 0.4393 0.2164 -0.0827
C8A C 0.4363(6) 0.4271(5) -0.1205(5)
H6A H 0.5183 0.5062 -0.1620
C9A C 0.2130(6) 0.4623(5) -0.0568(5)
C10A C 0.0999(6) 0.5816(5) -0.1537(5)
C11A C 0.1933(7) 0.6644(5) -0.3135(5)
H7A H 0.3335 0.6432 -0.3513
C12A C 0.0820(7) 0.7726(5) -0.4103(5)
H8A H 0.1460 0.8258 -0.5129
C13A C -0.1310(6) 0.8045(5) -0.3553(5)
H9A H -0.2076 0.8762 -0.4232
C14A C -0.2262(6) 0.7322(5) -0.2049(5)
H10A H -0.3664 0.7574 -0.1710
C15A C 0.1158(6) 0.3817(5) 0.0975(5)
loop_
_geom_bond_atom_site_label_1
_geom_bond_atom_site_label_2
_geom_bond_site_symmetry_1
_geom_bond_site_symmetry_2
Cl1 C3 1_555 1_555
C1 H1 1_555 1_555
C2 C1 1_555 1_555
H2 C2 1_555 1_555
C3 C2 1_555 1_555
C4 C3 1_555 1_555
H3 C4 1_555 1_555
C5 C4 1_555 1_555
H4 C5 1_555 1_555
C6 C1 1_555 1_555
C7 C6 1_555 1_555
H5 C7 1_555 1_555
C8 C7 1_555 1_555
H6 C8 1_555 1_555
C9 C8 1_555 1_555
C10 C9 1_555 1_555
C11 C10 1_555 1_555
H7 C11 1_555 1_555
C12 C11 1_555 1_555
H8 C12 1_555 1_555
C13 C12 1_555 1_555
H9 C13 1_555 1_555
C14 C13 1_555 1_555
H10 C14 1_555 1_555
C15 C9 1_555 1_555
Cl1A C3A 1_555 1_555
C1A H1A 1_555 1_555
C2A C1A 1_555 1_555
H2A C2A 1_555 1_555
C3A C2A 1_555 1_555
C4A C3A 1_555 1_555
H3A C4A 1_555 1_555
C5A C4A 1_555 1_555
H4A C5A 1_555 1_555
C6A C1A 1_555 1_555
C7A C6A 1_555 1_555
H5A C7A 1_555 1_555
C8A C7A 1_555 1_555
H6A C8A 1_555 1_555
C9A C8A 1_555 1_555
C10A C15 1_555 1_555
C11A C10A 1_555 1_555
H7A C11A 1_555 1_555
C12A C11A 1_555 1_555
H8A C12A 1_555 1_555
C13A C12A 1_555 1_555
H9A C13A 1_555 1_555
C14A C15 1_555 1_555
H10A C14A 1_555 1_555
C15A C10 1_555 1_555
C5 C6 1_555 1_555
C14 C15A 1_555 1_555
C5A C6A 1_555 1_555
C9A C10A 1_555 1_555
C9A C15A 1_555 1_555
C13A C14A 1_555 1_555

#END
