
#######################################################################
#
#                 Cambridge Crystallographic Data Centre
#                                CCDC 
#
#######################################################################
#
# If this CIF has been generated from an entry in the Cambridge 
# Structural Database, then it will include bibliographic, chemical, 
# crystal, experimental, refinement or atomic coordinate data resulting 
# from the CCDC's data processing and validation procedures.
#
#######################################################################

data_HUZHIT
_chemical_formula_moiety         'C16 H11 Cl1 N3 O2 1+,I3 1-'
_chemical_name_systematic        
"1-(4-Chloro-2-nitrophenyl)-4,4'-bipyridinium tri-iodide"
_symmetry_cell_setting           monoclinic
_symmetry_space_group_name_H-M   'P 21/c'
_symmetry_Int_Tables_number      14
_space_group_name_Hall           '-P 2ybc'
loop_
_symmetry_equiv_pos_site_id
_symmetry_equiv_pos_as_xyz
1 x,y,z
2 x,1/2-y,1/2+z
3 -x,-y,-z
4 -x,1/2+y,1/2-z
_cell_length_a                   13.658(3)
_cell_length_b                   7.5018(15)
_cell_length_c                   19.936(4)
_cell_angle_alpha                90
_cell_angle_beta                 93.37(3)
_cell_angle_gamma                90
_cell_volume                     2039.1
_exptl_crystal_colour            brown
_exptl_crystal_description       block
_cell_formula_units_Z            4
loop_
_atom_site_label
_atom_site_type_symbol
_atom_site_fract_x
_atom_site_fract_y
_atom_site_fract_z
I1 I 0.34154(7) 0.32262(13) 0.04415(5)
I2 I 0.54058(7) 0.18600(14) 0.07512(5)
I3 I 0.14284(8) 0.46258(16) 0.00871(5)
Cl1 Cl 1.2060(3) -0.0665(7) -0.1076(3)
N1 N 0.7899(7) 0.1578(14) -0.1588(5)
N2 N 0.2776(8) 0.3053(16) -0.2077(6)
N3 N 0.9568(9) 0.4131(17) -0.1877(6)
O1 O 1.0300(8) 0.5022(16) -0.1952(7)
O2 O 0.8750(8) 0.4686(15) -0.1980(7)
C1 C 0.9118(11) -0.053(2) -0.1212(9)
H1 H 0.8602 -0.1286 -0.1121
C2 C 1.0096(11) -0.109(2) -0.1084(9)
H2 H 1.0235 -0.2216 -0.0904
C3 C 1.0838(10) 0.004(2) -0.1229(8)
C4 C 1.0664(9) 0.170(2) -0.1515(6)
H3 H 1.1184 0.2406 -0.1637
C5 C 0.9707(9) 0.2305(19) -0.1616(6)
C6 C 0.8935(9) 0.1144(19) -0.1473(7)
C7 C 0.7328(9) 0.1680(18) -0.1050(7)
H4 H 0.7612 0.1566 -0.0616
C8 C 0.7507(9) 0.1808(19) -0.2232(6)
H5 H 0.7909 0.1757 -0.2592
C9 C 0.6344(9) 0.195(2) -0.1146(7)
H6 H 0.5959 0.1973 -0.0777
C10 C 0.6506(8) 0.2117(19) -0.2343(7)
H7 H 0.6235 0.2280 -0.2778
C11 C 0.5903(9) 0.2181(18) -0.1790(6)
C12 C 0.4819(9) 0.2482(17) -0.1899(6)
C13 C 0.4296(9) 0.3306(19) -0.1401(6)
H8 H 0.4613 0.3666 -0.0998
C14 C 0.4290(10) 0.1933(19) -0.2487(7)
H9 H 0.4607 0.1365 -0.2828
C15 C 0.3286(10) 0.358(2) -0.1522(8)
H10 H 0.2951 0.4163 -0.1194
C16 C 0.3291(9) 0.2248(19) -0.2554(7)
H11 H 0.2952 0.1887 -0.2950
loop_
_geom_bond_atom_site_label_1
_geom_bond_atom_site_label_2
_geom_bond_site_symmetry_1
_geom_bond_site_symmetry_2
I1 I2 1_555 1_555
I3 I1 1_555 1_555
Cl1 C3 1_555 1_555
N1 C6 1_555 1_555
N2 C15 1_555 1_555
N3 O1 1_555 1_555
O2 N3 1_555 1_555
C1 H1 1_555 1_555
C2 C1 1_555 1_555
H2 C2 1_555 1_555
C3 C2 1_555 1_555
C4 C3 1_555 1_555
H3 C4 1_555 1_555
C5 N3 1_555 1_555
C6 C1 1_555 1_555
C7 N1 1_555 1_555
H4 C7 1_555 1_555
C8 N1 1_555 1_555
H5 C8 1_555 1_555
C9 C7 1_555 1_555
H6 C9 1_555 1_555
C10 C8 1_555 1_555
H7 C10 1_555 1_555
C11 C9 1_555 1_555
C12 C11 1_555 1_555
C13 C12 1_555 1_555
H8 C13 1_555 1_555
C14 C12 1_555 1_555
H9 C14 1_555 1_555
C15 C13 1_555 1_555
H10 C15 1_555 1_555
C16 N2 1_555 1_555
H11 C16 1_555 1_555
C4 C5 1_555 1_555
C5 C6 1_555 1_555
C10 C11 1_555 1_555
C14 C16 1_555 1_555

#END
