
#######################################################################
#
#                 Cambridge Crystallographic Data Centre
#                                CCDC 
#
#######################################################################
#
# If this CIF has been generated from an entry in the Cambridge 
# Structural Database, then it will include bibliographic, chemical, 
# crystal, experimental, refinement or atomic coordinate data resulting 
# from the CCDC's data processing and validation procedures.
#
#######################################################################

data_HUZJOB
_chemical_compound_source        
'roots of Helicteres angustifolia (Sterculiaceae)'
_chemical_name_common            'Mansonone H'
_chemical_formula_moiety         'C15 H14 O4'
_chemical_name_systematic        
4-Hydroxy-3,6,9-trimethyl-2,3-dihydrobenzo(de)chromene-7,8-dione
_chemical_properties_biological  
'source plant is an antiinflammatory and antitumour medicine'
_symmetry_cell_setting           orthorhombic
_symmetry_space_group_name_H-M   'P 21 21 2'
_symmetry_Int_Tables_number      18
_space_group_name_Hall           'P 2 2ab'
loop_
_symmetry_equiv_pos_site_id
_symmetry_equiv_pos_as_xyz
1 x,y,z
2 -x,-y,z
3 1/2-x,1/2+y,-z
4 1/2+x,1/2-y,-z
_cell_length_a                   17.9170(10)
_cell_length_b                   18.1260(10)
_cell_length_c                   7.6680(10)
_cell_angle_alpha                90
_cell_angle_beta                 90
_cell_angle_gamma                90
_cell_volume                     2490.29
_exptl_crystal_colour            red
_exptl_crystal_description       plate
_cell_formula_units_Z            8
_exptl_crystal_recrystallization_method chloroform/methanol
loop_
_atom_site_label
_atom_site_type_symbol
_atom_site_fract_x
_atom_site_fract_y
_atom_site_fract_z
O1 O 0.15330(11) 0.50699(11) 0.0388(4)
H1 H 0.1878 0.5367 0.0326
O2 O 0.02737(10) 0.26301(11) -0.0102(4)
O3 O 0.21760(12) 0.09143(11) -0.0064(5)
O4 O 0.31836(13) 0.19491(14) -0.0393(8)
C1 C 0.28303(16) 0.35125(17) 0.0013(6)
C2 C 0.25568(17) 0.42257(16) 0.0183(6)
H2 H 0.2894 0.4614 0.0278
C3 C 0.18026(16) 0.43793(15) 0.0215(5)
C4 C 0.12793(15) 0.38068(15) 0.0105(5)
C5 C 0.15449(15) 0.30889(15) -0.0055(5)
C6 C 0.10020(15) 0.24810(15) -0.0057(5)
C7 C 0.11884(16) 0.17541(16) 0.0072(5)
C8 C 0.19548(16) 0.15581(16) -0.0037(6)
C9 C 0.25504(17) 0.21539(17) -0.0189(7)
C10 C 0.23180(15) 0.29275(16) -0.0088(6)
C11 C 0.36618(16) 0.3408(2) -0.0053(8)
H3 H 0.3903 0.3880 0.0011
H4 H 0.3796 0.3169 -0.1126
H5 H 0.3818 0.3109 0.0913
C12 C 0.04522(15) 0.39532(16) 0.0200(5)
H6 H 0.0353 0.4420 -0.0403
C13 C 0.00502(18) 0.33484(16) -0.0771(5)
H7 H -0.0485 0.3409 -0.0635
H8 H 0.0167 0.3379 -0.2004
C14 C 0.0173(2) 0.4026(2) 0.2046(5)
H9 H 0.0441 0.4414 0.2625
H10 H 0.0251 0.3570 0.2655
H11 H -0.0350 0.4141 0.2034
C15 C 0.05877(17) 0.11781(16) 0.0249(6)
H12 H 0.0262 0.1201 -0.0744
H13 H 0.0306 0.1268 0.1292
H14 H 0.0812 0.0698 0.0312
O5 O 0.00578(11) 0.15361(12) 0.5081(4)
H15 H -0.0229 0.1879 0.4889
O6 O 0.24898(11) 0.02368(11) 0.4260(4)
O7 O 0.42882(11) 0.20679(13) 0.4607(4)
O8 O 0.32678(13) 0.30978(13) 0.4978(6)
C16 C 0.16801(16) 0.27748(15) 0.5045(5)
C17 C 0.09484(16) 0.25227(17) 0.5101(5)
H16 H 0.0564 0.2865 0.5208
C18 C 0.07713(15) 0.17825(17) 0.5003(5)
C19 C 0.13349(16) 0.12540(15) 0.4788(5)
C20 C 0.20691(16) 0.14961(16) 0.4682(5)
C21 C 0.26698(16) 0.09563(16) 0.4452(5)
C22 C 0.34097(17) 0.11184(17) 0.4436(5)
C23 C 0.36360(16) 0.18669(18) 0.4626(5)
C24 C 0.30421(16) 0.24721(17) 0.4826(6)
C25 C 0.22533(15) 0.22597(16) 0.4826(5)
C26 C 0.18078(19) 0.35934(17) 0.5210(7)
H17 H 0.1336 0.3842 0.5295
H18 H 0.2072 0.3769 0.4202
H19 H 0.2097 0.3692 0.6237
C27 C 0.11541(16) 0.04380(16) 0.4685(5)
H20 H 0.0678 0.0384 0.4067
C28 C 0.17469(17) 0.00636(19) 0.3623(5)
H21 H 0.1671 -0.0466 0.3666
H22 H 0.1704 0.0219 0.2417
C29 C 0.1069(2) 0.0093(2) 0.6477(6)
H23 H 0.0953 -0.0421 0.6354
H24 H 0.0673 0.0336 0.7095
H25 H 0.1526 0.0147 0.7115
C30 C 0.39940(18) 0.05296(19) 0.4155(6)
H26 H 0.3923 0.0139 0.4985
H27 H 0.4482 0.0740 0.4306
H28 H 0.3949 0.0336 0.2994
loop_
_geom_bond_atom_site_label_1
_geom_bond_atom_site_label_2
_geom_bond_site_symmetry_1
_geom_bond_site_symmetry_2
O1 H1 1_555 1_555
O2 C6 1_555 1_555
O3 C8 1_555 1_555
O4 C9 1_555 1_555
C1 C2 1_555 1_555
C2 H2 1_555 1_555
C3 O1 1_555 1_555
C4 C3 1_555 1_555
C5 C4 1_555 1_555
C6 C5 1_555 1_555
C7 C6 1_555 1_555
C8 C7 1_555 1_555
C9 C8 1_555 1_555
C10 C1 1_555 1_555
C11 C1 1_555 1_555
H3 C11 1_555 1_555
H4 C11 1_555 1_555
H5 C11 1_555 1_555
C12 C4 1_555 1_555
H6 C12 1_555 1_555
C13 O2 1_555 1_555
H7 C13 1_555 1_555
H8 C13 1_555 1_555
C14 C12 1_555 1_555
H9 C14 1_555 1_555
H10 C14 1_555 1_555
H11 C14 1_555 1_555
C15 C7 1_555 1_555
H12 C15 1_555 1_555
H13 C15 1_555 1_555
H14 C15 1_555 1_555
O5 H15 1_555 1_555
O6 C21 1_555 1_555
O7 C23 1_555 1_555
O8 C24 1_555 1_555
C16 C17 1_555 1_555
C17 H16 1_555 1_555
C18 O5 1_555 1_555
C19 C18 1_555 1_555
C20 C19 1_555 1_555
C21 C20 1_555 1_555
C22 C21 1_555 1_555
C23 C22 1_555 1_555
C24 C23 1_555 1_555
C25 C16 1_555 1_555
C26 C16 1_555 1_555
H17 C26 1_555 1_555
H18 C26 1_555 1_555
H19 C26 1_555 1_555
C27 C19 1_555 1_555
H20 C27 1_555 1_555
C28 O6 1_555 1_555
H21 C28 1_555 1_555
H22 C28 1_555 1_555
C29 C27 1_555 1_555
H23 C29 1_555 1_555
H24 C29 1_555 1_555
H25 C29 1_555 1_555
C30 C22 1_555 1_555
H26 C30 1_555 1_555
H27 C30 1_555 1_555
H28 C30 1_555 1_555
C2 C3 1_555 1_555
C5 C10 1_555 1_555
C9 C10 1_555 1_555
C12 C13 1_555 1_555
C17 C18 1_555 1_555
C20 C25 1_555 1_555
C24 C25 1_555 1_555
C27 C28 1_555 1_555

#END
