
#######################################################################
#
#                 Cambridge Crystallographic Data Centre
#                                CCDC 
#
#######################################################################
#
# If this CIF has been generated from an entry in the Cambridge 
# Structural Database, then it will include bibliographic, chemical, 
# crystal, experimental, refinement or atomic coordinate data resulting 
# from the CCDC's data processing and validation procedures.
#
#######################################################################

data_HUZKOC
_chemical_formula_moiety         'C14 H20 Cl1 N1 O3,C2 H2 O4,H2 O1'
_chemical_name_systematic        
'Methyl (+-)-(1\a,2\b,8\a,9\a,10\b)-2-chloro-4-aza-3-oxatetracyclo(8.4.0.0^2,9^.0^4,8^)tetradecane-9-carboxylate oxalic acid monohydrate'
_symmetry_cell_setting           triclinic
_symmetry_space_group_name_H-M   'P -1'
_symmetry_Int_Tables_number      2
_space_group_name_Hall           '-P 1'
loop_
_symmetry_equiv_pos_site_id
_symmetry_equiv_pos_as_xyz
1 x,y,z
2 -x,-y,-z
_cell_length_a                   6.6133(2)
_cell_length_b                   8.0737(2)
_cell_length_c                   17.8848(5)
_cell_angle_alpha                77.7460(10)
_cell_angle_beta                 83.2110(10)
_cell_angle_gamma                80.1690(10)
_cell_volume                     916.139
_exptl_crystal_colour            colorless
_exptl_crystal_description       block
_cell_formula_units_Z            2
_exptl_crystal_recrystallization_method 'diethyl ether'
loop_
_atom_site_label
_atom_site_type_symbol
_atom_site_fract_x
_atom_site_fract_y
_atom_site_fract_z
Cl1 Cl -0.09069(5) 0.02471(4) 0.163575(19)
O1 O -0.45991(14) -0.02751(11) 0.22730(5)
O2 O -0.06398(14) -0.55704(11) 0.24933(5)
O3 O 0.08735(14) -0.35793(12) 0.16422(6)
N1 N -0.41902(16) -0.11384(13) 0.30664(6)
C1 C -0.62385(19) -0.10868(17) 0.35159(8)
C2 C -0.71691(19) -0.25532(18) 0.33415(8)
C3 C -0.52807(19) -0.39647(16) 0.33350(8)
C4 C -0.34408(18) -0.29981(15) 0.30182(7)
C5 C -0.26763(17) -0.29163(15) 0.21625(7)
C6 C -0.42686(18) -0.30992(16) 0.15951(7)
C7 C -0.4024(2) -0.46438(17) 0.12020(8)
C8 C -0.2486(2) -0.45580(18) 0.04882(8)
C9 C -0.2821(2) -0.27937(19) -0.00365(8)
C10 C -0.2398(2) -0.14239(18) 0.03772(8)
C11 C -0.3909(2) -0.13198(17) 0.10907(7)
C12 C -0.29973(19) -0.09861(16) 0.17885(7)
C13 C -0.05962(18) -0.40003(16) 0.20571(7)
C14 C 0.1218(2) -0.68069(18) 0.24252(9)
H1 H -0.593(2) -0.134(2) 0.4052(10)
H2 H -0.704(3) 0.003(2) 0.3391(9)
H3 H -0.773(2) -0.2169(19) 0.2834(9)
H4 H -0.825(3) -0.289(2) 0.3741(11)
H5 H -0.508(2) -0.458(2) 0.3860(10)
H6 H -0.540(2) -0.483(2) 0.3035(10)
H7 H -0.231(2) -0.341(2) 0.3330(9)
H8 H -0.562(2) -0.2980(19) 0.1868(9)
H9 H -0.535(3) -0.466(2) 0.1042(10)
H10 H -0.370(2) -0.572(2) 0.1588(9)
H11 H -0.108(2) -0.4761(19) 0.0627(9)
H12 H -0.264(2) -0.547(2) 0.0234(10)
H13 H -0.194(3) -0.277(2) -0.0507(11)
H14 H -0.422(3) -0.253(2) -0.0200(10)
H15 H -0.103(2) -0.1732(19) 0.0534(9)
H16 H -0.248(3) -0.027(2) 0.0034(11)
H17 H -0.514(3) -0.054(2) 0.0970(9)
H18 H 0.167(3) -0.678(2) 0.1889(11)
H19 H 0.223(3) -0.657(2) 0.2676(10)
H20 H 0.081(3) -0.793(2) 0.2680(11)
O4 O 0.05205(15) 0.17594(14) 0.43769(7)
O5 O -0.23363(15) 0.34249(12) 0.47483(6)
O6 O -0.45876(16) 0.16682(17) 0.41118(9)
O7 O -0.16835(14) 0.03342(12) 0.35997(5)
C15 C -0.14498(19) 0.22915(16) 0.44224(7)
C16 C -0.2716(2) 0.13487(17) 0.40170(8)
H23 H 0.116(4) 0.236(3) 0.4653(14)
H24 H -0.287(4) -0.037(3) 0.3342(14)
O8 O 0.26688(16) 0.31727(14) 0.50902(6)
H21 H 0.243(3) 0.426(3) 0.5090(12)
H22 H 0.381(4) 0.294(3) 0.4852(13)
loop_
_geom_bond_atom_site_label_1
_geom_bond_atom_site_label_2
_geom_bond_site_symmetry_1
_geom_bond_site_symmetry_2
Cl1 C12 1_555 1_555
O1 N1 1_555 1_555
O2 C13 1_555 1_555
O3 C13 1_555 1_555
O4 C15 1_555 1_555
O5 C15 1_555 1_555
O6 C16 1_555 1_555
O7 C16 1_555 1_555
O8 H21 1_555 1_555
N1 C1 1_555 1_555
C1 C2 1_555 1_555
C2 C3 1_555 1_555
C3 C4 1_555 1_555
C4 N1 1_555 1_555
C5 C4 1_555 1_555
C6 C5 1_555 1_555
C7 C6 1_555 1_555
C8 C7 1_555 1_555
C9 C8 1_555 1_555
C10 C9 1_555 1_555
C11 C6 1_555 1_555
C12 O1 1_555 1_555
C13 C5 1_555 1_555
C14 O2 1_555 1_555
C15 C16 1_555 1_555
H1 C1 1_555 1_555
H2 C1 1_555 1_555
H3 C2 1_555 1_555
H4 C2 1_555 1_555
H5 C3 1_555 1_555
H6 C3 1_555 1_555
H7 C4 1_555 1_555
H8 C6 1_555 1_555
H9 C7 1_555 1_555
H10 C7 1_555 1_555
H11 C8 1_555 1_555
H12 C8 1_555 1_555
H13 C9 1_555 1_555
H14 C9 1_555 1_555
H15 C10 1_555 1_555
H16 C10 1_555 1_555
H17 C11 1_555 1_555
H18 C14 1_555 1_555
H19 C14 1_555 1_555
H20 C14 1_555 1_555
H22 O8 1_555 1_555
H23 O4 1_555 1_555
H24 O7 1_555 1_555
C5 C12 1_555 1_555
C10 C11 1_555 1_555
C11 C12 1_555 1_555

#END
