
#######################################################################
#
#                 Cambridge Crystallographic Data Centre
#                                CCDC 
#
#######################################################################
#
# If this CIF has been generated from an entry in the Cambridge 
# Structural Database, then it will include bibliographic, chemical, 
# crystal, experimental, refinement or atomic coordinate data resulting 
# from the CCDC's data processing and validation procedures.
#
#######################################################################

data_HUZPOJ
_chemical_name_common            'bis(propranololium) fumaric acid fumarate'
_chemical_formula_moiety         '2(C16 H22 N1 O2 1+),C4 H4 O4,C4 H2 O4 2-'
_chemical_name_systematic        
'bis(2-hydroxy-N-isopropyl-3-(1-naphthyloxy)propan-1-aminium) fumaric acid fumarate'
_symmetry_cell_setting           triclinic
_symmetry_space_group_name_H-M   'P -1'
_symmetry_Int_Tables_number      2
_space_group_name_Hall           '-P 1'
loop_
_symmetry_equiv_pos_site_id
_symmetry_equiv_pos_as_xyz
1 x,y,z
2 -x,-y,-z
_cell_length_a                   8.6157(2)
_cell_length_b                   9.9155(2)
_cell_length_c                   13.1345(4)
_cell_angle_alpha                97.3910(10)
_cell_angle_beta                 102.2400(10)
_cell_angle_gamma                109.8990(10)
_cell_volume                     1006.17
_exptl_crystal_colour            colorless
_exptl_crystal_description       prism
_cell_formula_units_Z            1
loop_
_atom_site_label
_atom_site_type_symbol
_atom_site_fract_x
_atom_site_fract_y
_atom_site_fract_z
O1 O 0.62720(14) -0.25019(11) 0.39789(8)
O2 O 0.57395(17) -0.22786(11) 0.55603(8)
C1 C 0.53203(19) -0.46476(15) 0.46522(10)
H1 H 0.5477 -0.5183 0.4074
C2 C 0.58065(18) -0.30279(15) 0.47499(10)
O1A O 0.37280(14) -0.74981(11) 0.60211(8)
O2A O 0.42605(17) -0.77214(11) 0.44397(8)
C1A C 0.46797(19) -0.53524(15) 0.53478(10)
H1A H 0.4523 -0.4817 0.5926
C2A C 0.41935(18) -0.69721(15) 0.52501(10)
O3 O 0.46135(15) -0.31761(12) 0.13828(8)
O4 O 0.63857(16) -0.40669(13) 0.23217(9)
C3 C 0.54288(19) -0.39613(15) 0.14370(11)
C4 C 0.5452(2) -0.49419(16) 0.04832(12)
H2 H 0.6136 -0.5492 0.0579
H3 H 0.629(3) -0.348(3) 0.292(2)
O3A O 0.53865(15) -0.68239(12) -0.13828(8)
O4A O 0.36143(16) -0.59331(13) -0.23217(9)
C3A C 0.45712(19) -0.60387(15) -0.14370(11)
C4A C 0.4548(2) -0.50581(16) -0.04832(12)
H2A H 0.3864 -0.4508 -0.0579
H3A H 0.371(3) -0.652(3) -0.292(2)
O5 O 0.13442(12) -0.00209(10) 0.22085(8)
O6 O 0.30058(14) -0.06360(11) 0.41212(8)
N1 N 0.61786(15) 0.01837(14) 0.36235(9)
C5 C 0.45557(17) -0.01991(15) 0.27788(10)
H4 H 0.4637 -0.0690 0.2115
H5 H 0.4386 0.0694 0.2664
C6 C 0.01382(17) 0.15507(14) 0.14820(10)
C7 C -0.00138(17) 0.00765(14) 0.15119(10)
C8 C 0.13710(18) -0.14394(14) 0.22603(11)
H6 H 0.1341 -0.1947 0.1569
H7 H 0.0387 -0.2026 0.2473
C9 C 0.77544(19) 0.11370(17) 0.33506(12)
H8 H 0.7693 0.0718 0.2619
C10 C -0.12153(18) 0.17654(17) 0.07834(11)
C11 C -0.26758(19) 0.05342(19) 0.01629(11)
H9 H -0.3581 0.0672 -0.0279
C12 C 0.30258(18) -0.11956(14) 0.30825(10)
H10 H 0.3130 -0.2151 0.3075
C13 C -0.14181(18) -0.10980(16) 0.08825(11)
H11 H -0.1487 -0.2052 0.0897
C14 C 0.15804(19) 0.27810(15) 0.21210(11)
H12 H 0.2460 0.2643 0.2588
C15 C -0.27622(19) -0.08521(18) 0.02103(12)
H13 H -0.3724 -0.1652 -0.0208
C16 C -0.1045(2) 0.32295(18) 0.07271(12)
H14 H -0.1910 0.3393 0.0266
C17 C 0.1686(2) 0.41759(17) 0.20545(13)
H15 H 0.2631 0.4982 0.2482
C18 C 0.9330(2) 0.1090(2) 0.40880(15)
H16 H 0.9235 0.0088 0.4033
H17 H 0.9426 0.1510 0.4810
H18 H 1.0332 0.1641 0.3890
C19 C 0.0367(2) 0.43934(18) 0.13403(14)
H19 H 0.0464 0.5343 0.1287
C20 C 0.7790(3) 0.2674(2) 0.3392(2)
H20 H 0.6759 0.2638 0.2913
H21 H 0.8768 0.3252 0.3184
H22 H 0.7866 0.3112 0.4106
H23 H 0.610(2) 0.0610(19) 0.4217(15)
H24 H 0.628(2) -0.066(2) 0.3756(14)
H25 H 0.319(3) 0.041(3) 0.4169(18)
loop_
_geom_bond_atom_site_label_1
_geom_bond_atom_site_label_2
_geom_bond_site_symmetry_1
_geom_bond_site_symmetry_2
O1 C2 1_555 1_555
O2 C2 1_555 1_555
C1 H1 1_555 1_555
C2 C1 1_555 1_555
O3 C3 1_555 1_555
O4 C3 1_555 1_555
C3 C4 1_555 1_555
C4 H2 1_555 1_555
H3 O4 1_555 1_555
O5 C7 1_555 1_555
O6 C12 1_555 1_555
N1 C5 1_555 1_555
C5 H4 1_555 1_555
H5 C5 1_555 1_555
C6 C7 1_555 1_555
C7 C13 1_555 1_555
C8 O5 1_555 1_555
H6 C8 1_555 1_555
H7 C8 1_555 1_555
C9 N1 1_555 1_555
H8 C9 1_555 1_555
C10 C6 1_555 1_555
C11 C10 1_555 1_555
H9 C11 1_555 1_555
C12 C5 1_555 1_555
H10 C12 1_555 1_555
C13 H11 1_555 1_555
C14 C6 1_555 1_555
H12 C14 1_555 1_555
C15 C11 1_555 1_555
H13 C15 1_555 1_555
C16 C10 1_555 1_555
H14 C16 1_555 1_555
C17 C14 1_555 1_555
H15 C17 1_555 1_555
C18 C9 1_555 1_555
H16 C18 1_555 1_555
H17 C18 1_555 1_555
H18 C18 1_555 1_555
C19 C16 1_555 1_555
H19 C19 1_555 1_555
C20 C9 1_555 1_555
H20 C20 1_555 1_555
H21 C20 1_555 1_555
H22 C20 1_555 1_555
H23 N1 1_555 1_555
H24 N1 1_555 1_555
H25 O6 1_555 1_555
O1A C2A 1_555 1_555
O2A C2A 1_555 1_555
C1A C1 1_555 1_555
H1A C1A 1_555 1_555
C2A C1A 1_555 1_555
O3A C3A 1_555 1_555
O4A C3A 1_555 1_555
C3A C4A 1_555 1_555
C4A C4 1_555 1_555
H2A C4A 1_555 1_555
H3A O4A 1_555 1_555
C8 C12 1_555 1_555
C13 C15 1_555 1_555
C17 C19 1_555 1_555

#END
