
#######################################################################
#
#                 Cambridge Crystallographic Data Centre
#                                CCDC 
#
#######################################################################
#
# If this CIF has been generated from an entry in the Cambridge 
# Structural Database, then it will include bibliographic, chemical, 
# crystal, experimental, refinement or atomic coordinate data resulting 
# from the CCDC's data processing and validation procedures.
#
#######################################################################

data_HUZPUP
_chemical_name_common            'bis(propranololium) fumarate'
_chemical_formula_moiety         '2(C16 H22 N1 O2 1+),C4 H2 O4 2-'
_chemical_name_systematic        
'bis(2-hydroxy-N-isopropyl-3-(1-naphthyloxy)propan-1-aminium) fumarate'
_symmetry_cell_setting           triclinic
_symmetry_space_group_name_H-M   'P -1'
_symmetry_Int_Tables_number      2
_space_group_name_Hall           '-P 1'
loop_
_symmetry_equiv_pos_site_id
_symmetry_equiv_pos_as_xyz
1 x,y,z
2 -x,-y,-z
_cell_length_a                   7.7989(3)
_cell_length_b                   9.1669(4)
_cell_length_c                   12.4724(6)
_cell_angle_alpha                89.470(2)
_cell_angle_beta                 75.754(2)
_cell_angle_gamma                76.412(3)
_cell_volume                     838.946
_exptl_crystal_colour            colorless
_exptl_crystal_description       Prism
_cell_formula_units_Z            1
loop_
_atom_site_label
_atom_site_type_symbol
_atom_site_fract_x
_atom_site_fract_y
_atom_site_fract_z
C1 C 0.4132(2) 1.04192(19) 0.86501(12)
C2 C 0.3086(2) 0.9676(2) 0.93912(14)
H1 H 0.3211 0.8651 0.9277
C3 C 0.1811(2) 1.0471(2) 1.03341(15)
H2 H 0.1118 0.9955 1.0844
C4 C 0.1580(2) 1.1965(2) 1.05087(14)
H3 H 0.0720 1.2470 1.1127
C5 C 0.2461(3) 1.4317(2) 0.99050(18)
H4 H 0.1599 1.4850 1.0511
C6 C 0.3531(4) 1.5042(3) 0.9175(2)
H5 H 0.3400 1.6067 0.9293
C7 C 0.4826(3) 1.4276(2) 0.8250(2)
H6 H 0.5540 1.4795 0.7756
C8 C 0.5046(2) 1.2774(2) 0.80668(15)
H7 H 0.5914 1.2268 0.7452
C9 C 0.3958(2) 1.19854(18) 0.88092(13)
C10 C 0.2647(2) 1.2762(2) 0.97505(14)
O1 O 0.53914(15) 0.97560(13) 0.77034(9)
C11 C 0.5706(2) 0.81686(19) 0.75479(14)
H8 H 0.4638 0.7912 0.7410
H9 H 0.5951 0.7684 0.8207
C12 C 0.7330(2) 0.7641(2) 0.65653(13)
H10 H 0.7335 0.6568 0.6422
C13 C 0.70276(19) 0.83826(17) 0.55200(12)
H11 H 0.5835 0.8346 0.5436
H12 H 0.7066 0.9429 0.5570
N1 N 0.84587(16) 0.76026(15) 0.45386(10)
H13 H 0.837(2) 0.660(2) 0.4511(14)
H14 H 0.966(3) 0.758(2) 0.4652(15)
C14 C 0.8335(2) 0.82706(17) 0.34424(12)
H15 H 0.7076 0.8432 0.3380
C15 C 0.9569(2) 0.7149(2) 0.25257(13)
H16 H 0.9199 0.6218 0.2597
H17 H 1.0805 0.6980 0.2582
H18 H 0.9482 0.7541 0.1819
C16 C 0.8851(3) 0.9764(2) 0.33775(15)
H19 H 0.8042 1.0439 0.3969
H20 H 0.8758 1.0182 0.2680
H21 H 1.0081 0.9619 0.3442
O2 O 0.8836(3) 0.7543(3) 0.68325(18)
H22 H 0.9777 0.6923 0.6364
C17 C 0.5412(2) 0.44467(17) 0.52562(14)
H25 H 0.4718 0.3897 0.5840
C18 C 0.7441(2) 0.38363(17) 0.49703(14)
O4 O 0.80236(15) 0.26279(13) 0.53866(11)
O5 O 0.84243(14) 0.45615(12) 0.43321(10)
C17A C 0.4588(2) 0.55533(17) 0.47438(14)
H25A H 0.5282 0.6103 0.4160
C18A C 0.2559(2) 0.61637(17) 0.50297(14)
O4A O 0.19764(15) 0.73721(13) 0.46134(11)
O5A O 0.15757(14) 0.54385(12) 0.56679(10)
H23? H 0.8335 0.8022 0.6741
O3? O 0.7884(3) 0.6188(2) 0.65425(18)
H24? H 0.9183 0.5875 0.6239
loop_
_geom_bond_atom_site_label_1
_geom_bond_atom_site_label_2
_geom_bond_site_symmetry_1
_geom_bond_site_symmetry_2
C1 C2 1_555 1_555
C2 H1 1_555 1_555
C3 C2 1_555 1_555
H2 C3 1_555 1_555
C4 C3 1_555 1_555
H3 C4 1_555 1_555
C5 H4 1_555 1_555
C6 C5 1_555 1_555
H5 C6 1_555 1_555
C7 C6 1_555 1_555
H6 C7 1_555 1_555
C8 C7 1_555 1_555
H7 C8 1_555 1_555
C9 C1 1_555 1_555
C10 C4 1_555 1_555
O1 C1 1_555 1_555
C11 O1 1_555 1_555
H8 C11 1_555 1_555
H9 C11 1_555 1_555
C12 C11 1_555 1_555
H10 C12 1_555 1_555
C13 C12 1_555 1_555
H11 C13 1_555 1_555
H12 C13 1_555 1_555
N1 C13 1_555 1_555
H13 N1 1_555 1_555
H14 N1 1_555 1_555
C14 N1 1_555 1_555
H15 C14 1_555 1_555
C15 C14 1_555 1_555
H16 C15 1_555 1_555
H17 C15 1_555 1_555
H18 C15 1_555 1_555
C16 C14 1_555 1_555
H19 C16 1_555 1_555
H20 C16 1_555 1_555
H21 C16 1_555 1_555
O2 C12 1_555 1_555
H22 O2 1_555 1_555
C17 H25 1_555 1_555
C18 C17 1_555 1_555
O4 C18 1_555 1_555
O5 C18 1_555 1_555
C17A C17 1_555 1_555
H25A C17A 1_555 1_555
C18A C17A 1_555 1_555
O4A C18A 1_555 1_555
O5A C18A 1_555 1_555
C5 C10 1_555 1_555
C8 C9 1_555 1_555
C9 C10 1_555 1_555

#END
