
#######################################################################
#
#                 Cambridge Crystallographic Data Centre
#                                CCDC 
#
#######################################################################
#
# If this CIF has been generated from an entry in the Cambridge 
# Structural Database, then it will include bibliographic, chemical, 
# crystal, experimental, refinement or atomic coordinate data resulting 
# from the CCDC's data processing and validation procedures.
#
#######################################################################

data_HUZQIE
_chemical_name_common            'bis(propranololium) oxalate methanol solvate'
_chemical_formula_moiety         '2(C16 H22 N1 O2 1+),C2 O4 2-,0.9(C1 H4 O1)'
_chemical_name_systematic        
'bis(2-hydroxy-N-isopropyl-3-(1-naphthyloxy)propan-1-aminium) oxalate methanol solvate'
_symmetry_cell_setting           orthorhombic
_symmetry_space_group_name_H-M   'P b n 21'
_symmetry_Int_Tables_number      33
_space_group_name_Hall           'P 2c -2ab'
loop_
_symmetry_equiv_pos_site_id
_symmetry_equiv_pos_as_xyz
1 x,y,z
2 -x,-y,1/2+z
3 1/2-x,1/2+y,z
4 1/2+x,1/2-y,1/2+z
_cell_length_a                   10.7741(2)
_cell_length_b                   11.3507(2)
_cell_length_c                   28.2413(6)
_cell_angle_alpha                90
_cell_angle_beta                 90
_cell_angle_gamma                90
_cell_volume                     3453.73
_exptl_crystal_colour            colorless
_exptl_crystal_description       needle
_cell_formula_units_Z            4
loop_
_atom_site_label
_atom_site_type_symbol
_atom_site_fract_x
_atom_site_fract_y
_atom_site_fract_z
O1 O 0.3203(2) 0.6872(2) 0.40627(10)
O2 O 0.4351(2) 0.8217(2) 0.33952(11)
H1 H 0.4801 0.8537 0.3200
N1 N 0.6946(2) 0.7555(2) 0.36095(10)
H2 H 0.6765 0.8316 0.3554
H3 H 0.7147 0.7224 0.3330
C1 C 0.8056(3) 0.7498(3) 0.39290(14)
H4 H 0.8168 0.6682 0.4034
C2 C 0.0607(3) 0.6707(3) 0.48937(14)
C3 C 0.1669(3) 0.7112(3) 0.46449(14)
C4 C 0.2112(3) 0.6453(3) 0.42561(13)
C5 C 0.5812(3) 0.6959(3) 0.37972(13)
H5 H 0.5580 0.7320 0.4096
H6 H 0.5999 0.6137 0.3858
C6 C 0.4731(3) 0.7037(3) 0.34578(14)
H7 H 0.4988 0.6717 0.3151
C7 C 0.7849(4) 0.8264(3) 0.43577(14)
H8 H 0.7161 0.7964 0.4537
H9 H 0.7672 0.9055 0.4258
H10 H 0.8582 0.8261 0.4551
C8 C 0.2227(3) 0.8197(3) 0.47890(14)
H11 H 0.2914 0.8482 0.4626
C9 C 0.0734(4) 0.8405(3) 0.54189(14)
H12 H 0.0431 0.8826 0.5677
C10 C 0.1761(3) 0.8822(3) 0.51639(15)
H13 H 0.2130 0.9531 0.5250
C11 C 0.1486(3) 0.5491(3) 0.40962(15)
H14 H 0.1763 0.5081 0.3831
C12 C -0.0008(3) 0.5690(3) 0.47248(15)
H15 H -0.0706 0.5411 0.4883
C13 C 0.3619(3) 0.6342(3) 0.36349(14)
H16 H 0.2961 0.6355 0.3400
H17 H 0.3852 0.5529 0.3692
C14 C 0.0405(3) 0.5127(3) 0.43407(16)
H18 H -0.0030 0.4475 0.4230
C15 C 0.0183(3) 0.7376(3) 0.52854(14)
H19 H -0.0495 0.7104 0.5457
C16 C 0.9188(3) 0.7866(3) 0.36478(15)
H20 H 0.9111 0.8678 0.3558
H21 H 0.9254 0.7386 0.3369
H22 H 0.9918 0.7766 0.3839
O3 O 0.31622(19) 0.7604(2) 0.14174(9)
O4 O 0.4360(2) 0.8935(2) 0.20944(10)
H23 H 0.4888 0.9261 0.2257
N2 N 0.6911(2) 0.8177(2) 0.18800(11)
H24 H 0.7106 0.7793 0.2149
H25 H 0.6751 0.8931 0.1957
C17 C 0.0587(3) 0.7431(3) 0.05771(14)
C18 C 0.2094(3) 0.7179(3) 0.12214(14)
C19 C 0.4695(3) 0.7738(3) 0.20237(14)
H26 H 0.4954 0.7404 0.2328
C20 C 0.2199(3) 0.8900(3) 0.06854(13)
H27 H 0.2879 0.9186 0.0853
C21 C -0.0018(3) 0.6404(3) 0.07415(15)
H28 H -0.0704 0.6115 0.0579
C22 C 0.1461(3) 0.6205(3) 0.13774(14)
H29 H 0.1737 0.5793 0.1642
C23 C 0.3564(3) 0.7068(3) 0.18490(14)
H30 H 0.3775 0.6248 0.1795
H31 H 0.2907 0.7102 0.2083
C24 C 0.8021(3) 0.8150(3) 0.15556(14)
H32 H 0.8121 0.7346 0.1435
C25 C 0.1654(3) 0.7836(3) 0.08227(13)
C26 C 0.0391(3) 0.5836(3) 0.11340(15)
H33 H -0.0047 0.5187 0.1245
C27 C 0.0731(3) 0.9105(3) 0.00542(14)
H34 H 0.0440 0.9525 -0.0206
C28 C 0.7835(3) 0.8969(3) 0.11388(14)
H35 H 0.7685 0.9754 0.1252
H36 H 0.7137 0.8708 0.0956
H37 H 0.8566 0.8964 0.0944
C29 C 0.1751(3) 0.9527(3) 0.03098(14)
H38 H 0.2123 1.0234 0.0224
C30 C 0.0162(3) 0.8084(3) 0.01845(14)
H39 H -0.0516 0.7813 0.0012
C31 C 0.5766(3) 0.7645(3) 0.16795(14)
H40 H 0.5917 0.6822 0.1606
H41 H 0.5551 0.8045 0.1387
C32 C 0.9168(3) 0.8470(3) 0.18386(15)
H42 H 0.9236 0.7957 0.2107
H43 H 0.9103 0.9272 0.1945
H44 H 0.9890 0.8386 0.1643
O5 O 0.7195(2) 1.0060(2) 0.33348(9)
O6 O 0.7638(2) 1.1836(2) 0.26875(9)
O7 O 0.7064(2) 1.05777(18) 0.21265(9)
O8 O 0.5884(2) 0.9292(2) 0.28089(9)
C33 C 0.7172(3) 1.0877(3) 0.25460(13)
C34 C 0.6727(3) 1.0013(3) 0.29361(13)
O9 O 0.2004(4) 0.9639(5) 0.2437(3)
H45 H 0.2750 0.9728 0.2482
C35 C 0.1530(5) 0.8885(6) 0.2774(3)
H46 H 0.1501 0.8100 0.2649
H47 H 0.0708 0.9132 0.2859
H48 H 0.2052 0.8898 0.3050
loop_
_geom_bond_atom_site_label_1
_geom_bond_atom_site_label_2
_geom_bond_site_symmetry_1
_geom_bond_site_symmetry_2
O1 C4 1_555 1_555
O2 H1 1_555 1_555
N1 H2 1_555 1_555
H3 N1 1_555 1_555
C1 N1 1_555 1_555
H4 C1 1_555 1_555
C2 C3 1_555 1_555
C3 C4 1_555 1_555
C4 C11 1_555 1_555
C5 N1 1_555 1_555
H5 C5 1_555 1_555
H6 C5 1_555 1_555
C6 O2 1_555 1_555
H7 C6 1_555 1_555
C7 C1 1_555 1_555
H8 C7 1_555 1_555
H9 C7 1_555 1_555
H10 C7 1_555 1_555
C8 C3 1_555 1_555
H11 C8 1_555 1_555
C9 H12 1_555 1_555
C10 C8 1_555 1_555
H13 C10 1_555 1_555
C11 H14 1_555 1_555
C12 C2 1_555 1_555
H15 C12 1_555 1_555
C13 O1 1_555 1_555
H16 C13 1_555 1_555
H17 C13 1_555 1_555
C14 C11 1_555 1_555
H18 C14 1_555 1_555
C15 C2 1_555 1_555
H19 C15 1_555 1_555
C16 C1 1_555 1_555
H20 C16 1_555 1_555
H21 C16 1_555 1_555
H22 C16 1_555 1_555
O3 C18 1_555 1_555
O4 H23 1_555 1_555
N2 H24 1_555 1_555
H25 N2 1_555 1_555
C17 C21 1_555 1_555
C18 C22 1_555 1_555
C19 O4 1_555 1_555
H26 C19 1_555 1_555
C20 H27 1_555 1_555
C21 H28 1_555 1_555
C22 H29 1_555 1_555
C23 O3 1_555 1_555
H30 C23 1_555 1_555
H31 C23 1_555 1_555
C24 N2 1_555 1_555
H32 C24 1_555 1_555
C25 C17 1_555 1_555
C26 C21 1_555 1_555
H33 C26 1_555 1_555
C27 H34 1_555 1_555
C28 C24 1_555 1_555
H35 C28 1_555 1_555
H36 C28 1_555 1_555
H37 C28 1_555 1_555
C29 C20 1_555 1_555
H38 C29 1_555 1_555
C30 C17 1_555 1_555
H39 C30 1_555 1_555
C31 N2 1_555 1_555
H40 C31 1_555 1_555
H41 C31 1_555 1_555
C32 C24 1_555 1_555
H42 C32 1_555 1_555
H43 C32 1_555 1_555
H44 C32 1_555 1_555
O5 C34 1_555 1_555
O6 C33 1_555 1_555
O7 C33 1_555 1_555
O8 C34 1_555 1_555
C33 C34 1_555 1_555
O9 H45 1_555 1_555
C35 O9 1_555 1_555
H46 C35 1_555 1_555
H47 C35 1_555 1_555
H48 C35 1_555 1_555
C5 C6 1_555 1_555
C6 C13 1_555 1_555
C9 C10 1_555 1_555
C9 C15 1_555 1_555
C12 C14 1_555 1_555
C18 C25 1_555 1_555
C19 C23 1_555 1_555
C19 C31 1_555 1_555
C20 C25 1_555 1_555
C22 C26 1_555 1_555
C27 C29 1_555 1_555
C27 C30 1_555 1_555

#END
