
#######################################################################
#
#                 Cambridge Crystallographic Data Centre
#                                CCDC 
#
#######################################################################
#
# If this CIF has been generated from an entry in the Cambridge 
# Structural Database, then it will include bibliographic, chemical, 
# crystal, experimental, refinement or atomic coordinate data resulting 
# from the CCDC's data processing and validation procedures.
#
#######################################################################

data_HUZQAW
_chemical_name_common            'propranololium (hydrogen maleate)'
_chemical_formula_moiety         'C16 H22 N1 O2 1+,C4 H3 O4 1-'
_chemical_name_systematic        
'2-hydroxy-N-isopropyl-3-(1-naphthyloxy)propan-1-aminium (hydrogen maleate)'
_symmetry_cell_setting           monoclinic
_symmetry_space_group_name_H-M   'P 21/n'
_symmetry_Int_Tables_number      14
_space_group_name_Hall           '-P 2yn'
loop_
_symmetry_equiv_pos_site_id
_symmetry_equiv_pos_as_xyz
1 x,y,z
2 1/2-x,1/2+y,1/2-z
3 -x,-y,-z
4 1/2+x,1/2-y,1/2+z
_cell_length_a                   9.2010(3)
_cell_length_b                   8.7153(3)
_cell_length_c                   24.7710(11)
_cell_angle_alpha                90
_cell_angle_beta                 94.6180(10)
_cell_angle_gamma                90
_cell_volume                     1979.92
_exptl_crystal_colour            colorless
_exptl_crystal_description       Needle
_cell_formula_units_Z            4
loop_
_atom_site_label
_atom_site_type_symbol
_atom_site_fract_x
_atom_site_fract_y
_atom_site_fract_z
O1 O 0.3214(2) 0.0712(2) 0.08706(10)
O2 O 0.1373(2) 0.1898(3) 0.16726(11)
H1 H 0.140(4) 0.152(4) 0.2048(18)
N1 N 0.1922(3) 0.5097(3) 0.14558(13)
H2 H 0.105(3) 0.488(3) 0.1591(14)
H3 H 0.260(3) 0.538(3) 0.1756(14)
C1 C 0.3935(3) -0.2324(3) -0.00981(15)
C2 C 0.3278(3) -0.1053(3) 0.01509(15)
C3 C 0.2572(3) 0.3762(3) 0.11910(14)
H4 H 0.3503 0.4053 0.1063
H5 H 0.1934 0.3438 0.0881
C4 C 0.3938(3) -0.0494(3) 0.06514(14)
C5 C 0.1980(3) -0.0419(4) -0.01023(15)
H6 H 0.1550 0.0416 0.0056
C6 C 0.5184(3) -0.1143(3) 0.08895(15)
H7 H 0.5603 -0.0770 0.1218
C7 C 0.1992(4) -0.2289(4) -0.08183(16)
H8 H 0.1559 -0.2703 -0.1138
C8 C 0.2791(3) 0.2446(3) 0.15914(14)
H9 H 0.3233 0.2851 0.1935
C9 C 0.5825(3) -0.2385(4) 0.06311(16)
H10 H 0.6669 -0.2828 0.0794
C10 C 0.3244(4) -0.2908(4) -0.05841(15)
H11 H 0.3657 -0.3742 -0.0749
C11 C 0.1346(4) -0.1018(4) -0.05773(16)
H12 H 0.0495 -0.0588 -0.0739
C12 C 0.5243(4) -0.2950(4) 0.01528(16)
H13 H 0.5703 -0.3753 -0.0012
C13 C 0.3773(3) 0.1219(4) 0.13949(14)
H14 H 0.4750 0.1624 0.1377
H15 H 0.3822 0.0362 0.1645
C14 C 0.1666(4) 0.6489(4) 0.11039(16)
H16 H 0.2584 0.6745 0.0950
C15 C 0.1256(4) 0.7816(4) 0.14535(17)
H17 H 0.2015 0.7981 0.1737
H18 H 0.0360 0.7585 0.1610
H19 H 0.1133 0.8725 0.1236
C16 C 0.0534(4) 0.6164(4) 0.06407(18)
H20 H 0.0852 0.5321 0.0431
H21 H 0.0408 0.7058 0.0415
H22 H -0.0376 0.5908 0.0783
O3 O 0.8207(3) 0.5046(3) 0.17480(12)
H23 H 0.705(5) 0.517(5) 0.1709(19)
O4 O 0.3936(2) 0.5865(3) 0.23046(10)
O5 O 0.5576(3) 0.5158(3) 0.17478(11)
O6 O 1.0071(3) 0.5378(3) 0.23441(12)
C17 C 0.8772(4) 0.5488(4) 0.22126(19)
C18 C 0.5223(4) 0.5738(4) 0.21881(17)
C19 C 0.6378(4) 0.6291(5) 0.25932(18)
H24 H 0.6033 0.6791 0.2889
C20 C 0.7827(4) 0.6196(6) 0.26056(19)
H25 H 0.8326 0.6643 0.2907
loop_
_geom_bond_atom_site_label_1
_geom_bond_atom_site_label_2
_geom_bond_site_symmetry_1
_geom_bond_site_symmetry_2
O1 C4 1_555 1_555
O2 H1 1_555 1_555
N1 H2 1_555 1_555
H3 N1 1_555 1_555
C1 C2 1_555 1_555
C2 C4 1_555 1_555
C3 N1 1_555 1_555
H4 C3 1_555 1_555
H5 C3 1_555 1_555
C4 C6 1_555 1_555
C5 C2 1_555 1_555
H6 C5 1_555 1_555
C6 H7 1_555 1_555
C7 H8 1_555 1_555
C8 O2 1_555 1_555
H9 C8 1_555 1_555
C9 C6 1_555 1_555
H10 C9 1_555 1_555
C10 C1 1_555 1_555
H11 C10 1_555 1_555
C11 C5 1_555 1_555
H12 C11 1_555 1_555
C12 C1 1_555 1_555
H13 C12 1_555 1_555
C13 O1 1_555 1_555
H14 C13 1_555 1_555
H15 C13 1_555 1_555
C14 N1 1_555 1_555
H16 C14 1_555 1_555
C15 C14 1_555 1_555
H17 C15 1_555 1_555
H18 C15 1_555 1_555
H19 C15 1_555 1_555
C16 C14 1_555 1_555
H20 C16 1_555 1_555
H21 C16 1_555 1_555
H22 C16 1_555 1_555
O3 H23 1_555 1_555
O4 C18 1_555 1_555
O5 C18 1_555 1_555
O6 C17 1_555 1_555
C17 O3 1_555 1_555
C18 C19 1_555 1_555
C19 H24 1_555 1_555
C20 C17 1_555 1_555
H25 C20 1_555 1_555
C3 C8 1_555 1_555
C7 C10 1_555 1_555
C7 C11 1_555 1_555
C8 C13 1_555 1_555
C9 C12 1_555 1_555
C19 C20 1_555 1_555

#END
