
#######################################################################
#
#                 Cambridge Crystallographic Data Centre
#                                CCDC 
#
#######################################################################
#
# If this CIF has been generated from an entry in the Cambridge 
# Structural Database, then it will include bibliographic, chemical, 
# crystal, experimental, refinement or atomic coordinate data resulting 
# from the CCDC's data processing and validation procedures.
#
#######################################################################

data_HUZXAB
_chemical_formula_moiety         'C11 H22 N1 O1 1+,I1 1-'
_chemical_name_systematic        
'(R,R,S)-cis-7-Hydroxy-1,1-dimethyl-decahydroquinolinium iodide'
_symmetry_cell_setting           monoclinic
_symmetry_space_group_name_H-M   'P 21'
_symmetry_Int_Tables_number      4
_space_group_name_Hall           'P 2yb'
loop_
_symmetry_equiv_pos_site_id
_symmetry_equiv_pos_as_xyz
1 x,y,z
2 -x,1/2+y,-z
_cell_length_a                   13.2985(1)
_cell_length_b                   13.3833(3)
_cell_length_c                   7.455(1)
_cell_angle_alpha                90
_cell_angle_beta                 92.263(1)
_cell_angle_gamma                90
_cell_volume                     1325.79
_cell_formula_units_Z            4
_exptl_crystal_recrystallization_method 'absolute ethanol'
loop_
_atom_site_label
_atom_site_type_symbol
_atom_site_fract_x
_atom_site_fract_y
_atom_site_fract_z
C1 C 0.1023(4) 0.2951(4) 0.0747(8)
H1 H 0.1483(4) 0.3343(4) 0.0054(8)
H2 H 0.0409(4) 0.2860(4) 0.0022(8)
C2 C 0.0790(5) 0.3509(5) 0.2391(9)
H3 H 0.0465(5) 0.4135(5) 0.2058(9)
H4 H 0.1412(5) 0.3664(5) 0.3058(9)
C3 C 0.0112(5) 0.2922(4) 0.3573(9)
H5 H -0.0537(5) 0.2827(4) 0.2959(9)
H6 H 0.0008(5) 0.3293(4) 0.4668(9)
C4 C 0.0577(4) 0.1906(4) 0.4038(6)
H7 H 0.1211(4) 0.2023(4) 0.4719(6)
C5 C -0.0090(5) 0.1251(5) 0.5183(7)
H8 H 0.0298(5) 0.0678(5) 0.5605(7)
H9 H -0.0279(5) 0.1630(5) 0.6227(7)
C6 C -0.1030(4) 0.0888(5) 0.4203(7)
H10 H -0.1400(4) 0.0454(5) 0.4984(7)
H11 H -0.1456(4) 0.1453(5) 0.3882(7)
C7 C -0.0775(4) 0.0328(4) 0.2536(6)
H12 H -0.0398(4) -0.0274(4) 0.2890(6)
C8 C -0.0128(4) 0.0956(4) 0.1339(6)
H13 H 0.0060(4) 0.0561(4) 0.0315(6)
H14 H -0.0515(4) 0.1525(4) 0.0894(6)
C9 C 0.0814(3) 0.1323(3) 0.2340(5)
H15 H 0.1201(3) 0.0732(3) 0.2721(5)
C10 C 0.2519(4) 0.2083(5) 0.2025(8)
H16 H 0.2457(4) 0.2420(5) 0.3153(8)
H17 H 0.2928(4) 0.2475(5) 0.1260(8)
H18 H 0.2827(4) 0.1442(5) 0.2226(8)
C11 C 0.1641(5) 0.1414(5) -0.0596(8)
H19 H 0.1938(5) 0.0772(5) -0.0356(8)
H20 H 0.2080(5) 0.1802(5) -0.1315(8)
H21 H 0.1004(5) 0.1329(5) -0.1229(8)
N1 N 0.1487(3) 0.1945(3) 0.1139(5)
O1 O -0.1629(3) 0.0037(3) 0.1459(5)
H22 H -0.2142(3) 0.0229(3) 0.1929(5)
I1 I -0.17271(2) 0.32438(2) -0.14001(4)
C12 C 0.4398(4) 0.6505(4) 0.1209(7)
H23 H 0.4957(4) 0.6895(4) 0.1708(7)
H24 H 0.3866(4) 0.6966(4) 0.0842(7)
C13 C 0.4734(5) 0.5952(5) -0.0407(7)
H25 H 0.4159(5) 0.5630(5) -0.1002(7)
H26 H 0.5014(5) 0.6421(5) -0.1245(7)
C14 C 0.5514(5) 0.5176(5) 0.0103(7)
H27 H 0.6115(5) 0.5503(5) 0.0595(7)
H28 H 0.5694(5) 0.4809(5) -0.0959(7)
C15 C 0.5115(4) 0.4453(3) 0.1484(6)
H29 H 0.4522(4) 0.4120(3) 0.0940(8)
C16 C 0.5876(5) 0.3638(4) 0.2070(7)
H30 H 0.5530(5) 0.3129(4) 0.2738(7)
H31 H 0.6132(5) 0.3324(4) 0.1008(7)
C17 C 0.6754(5) 0.4029(4) 0.3217(8)
H32 H 0.7181(5) 0.3476(4) 0.3606(8)
H33 H 0.7152(5) 0.4479(4) 0.2511(8)
C18 C 0.6392(4) 0.4571(4) 0.4819(7)
H34 H 0.6034(4) 0.4092(4) 0.5558(7)
C19 C 0.5671(4) 0.5410(4) 0.4301(7)
H35 H 0.6022(4) 0.5914(4) 0.3631(7)
H36 H 0.5427(4) 0.5720(4) 0.5376(7)
C20 C 0.4782(3) 0.5009(3) 0.3158(5)
H37 H 0.4435(3) 0.4523(3) 0.3896(5)
C21 C 0.3049(4) 0.5337(5) 0.1975(6)
H38 H 0.3176(4) 0.4926(5) 0.0953(8)
H39 H 0.2569(4) 0.5845(5) 0.1637(8)
H40 H 0.2786(4) 0.4932(5) 0.2911(8)
C22 C 0.3769(5) 0.6449(5) 0.4221(8)
H41 H 0.3526(5) 0.6030(5) 0.5154(8)
H42 H 0.3260(5) 0.6926(5) 0.3866(8)
H43 H 0.4362(5) 0.6796(5) 0.4657(8)
N2 N 0.4020(3) 0.5821(3) 0.2643(5)
O2 O 0.7175(4) 0.5007(3) 0.5902(7)
H44 H 0.7718(4) 0.4892(3) 0.5460(7)
I2 I 0.34031(2) 0.34018(2) 0.68161(4)
loop_
_geom_bond_atom_site_label_1
_geom_bond_atom_site_label_2
_geom_bond_site_symmetry_1
_geom_bond_site_symmetry_2
C1 H1 1_555 1_555
H2 C1 1_555 1_555
C2 C1 1_555 1_555
H3 C2 1_555 1_555
H4 C2 1_555 1_555
C3 C2 1_555 1_555
H5 C3 1_555 1_555
H6 C3 1_555 1_555
C4 C3 1_555 1_555
H7 C4 1_555 1_555
C5 C4 1_555 1_555
H8 C5 1_555 1_555
H9 C5 1_555 1_555
C6 C5 1_555 1_555
H10 C6 1_555 1_555
H11 C6 1_555 1_555
C7 C6 1_555 1_555
H12 C7 1_555 1_555
C8 C7 1_555 1_555
H13 C8 1_555 1_555
H14 C8 1_555 1_555
C9 C4 1_555 1_555
H15 C9 1_555 1_555
C10 H16 1_555 1_555
H17 C10 1_555 1_555
H18 C10 1_555 1_555
C11 H19 1_555 1_555
H20 C11 1_555 1_555
H21 C11 1_555 1_555
N1 C1 1_555 1_555
O1 C7 1_555 1_555
H22 O1 1_555 1_555
C12 H23 1_555 1_555
H24 C12 1_555 1_555
C13 C12 1_555 1_555
H25 C13 1_555 1_555
H26 C13 1_555 1_555
C14 C13 1_555 1_555
H27 C14 1_555 1_555
H28 C14 1_555 1_555
C15 C14 1_555 1_555
H29 C15 1_555 1_555
C16 C15 1_555 1_555
H30 C16 1_555 1_555
H31 C16 1_555 1_555
C17 C16 1_555 1_555
H32 C17 1_555 1_555
H33 C17 1_555 1_555
C18 C17 1_555 1_555
H34 C18 1_555 1_555
C19 C18 1_555 1_555
H35 C19 1_555 1_555
H36 C19 1_555 1_555
C20 C15 1_555 1_555
H37 C20 1_555 1_555
C21 H38 1_555 1_555
H39 C21 1_555 1_555
H40 C21 1_555 1_555
C22 H41 1_555 1_555
H42 C22 1_555 1_555
H43 C22 1_555 1_555
N2 C12 1_555 1_555
O2 C18 1_555 1_555
H44 O2 1_555 1_555
C8 C9 1_555 1_555
C9 N1 1_555 1_555
C10 N1 1_555 1_555
C11 N1 1_555 1_555
C19 C20 1_555 1_555
C20 N2 1_555 1_555
C21 N2 1_555 1_555
C22 N2 1_555 1_555

#END
