
#######################################################################
#
#                 Cambridge Crystallographic Data Centre
#                                CCDC 
#
#######################################################################
#
# If this CIF has been generated from an entry in the Cambridge 
# Structural Database, then it will include bibliographic, chemical, 
# crystal, experimental, refinement or atomic coordinate data resulting 
# from the CCDC's data processing and validation procedures.
#
#######################################################################

data_HXMAZB
_chemical_formula_moiety         'C18 H22 N2'
_chemical_name_systematic        2,2',4,4',6,6'-Hexamethylazobenzene
_symmetry_cell_setting           monoclinic
_symmetry_space_group_name_H-M   'P 21/c'
_symmetry_Int_Tables_number      14
_space_group_name_Hall           '-P 2ybc'
loop_
_symmetry_equiv_pos_site_id
_symmetry_equiv_pos_as_xyz
1 x,y,z
2 -x,1/2+y,1/2-z
3 -x,-y,-z
4 x,1/2-y,1/2+z
_cell_length_a                   4.870(2)
_cell_length_b                   10.017(2)
_cell_length_c                   16.431(4)
_cell_angle_alpha                90
_cell_angle_beta                 108.05(2)
_cell_angle_gamma                90
_cell_volume                     762.103
_cell_formula_units_Z            2
loop_
_atom_site_label
_atom_site_type_symbol
_atom_site_fract_x
_atom_site_fract_y
_atom_site_fract_z
N1 N 0.00330 0.48984 0.46379
C1 C 0.18820 0.38338 0.45303
C2 C 0.17170 0.36410 0.36685
C3 C 0.34290 0.26660 0.34675
C4 C 0.52830 0.18765 0.40850
C5 C 0.54040 0.20722 0.49338
C6 C 0.37390 0.30327 0.51738
C7 C -0.03150 0.44416 0.29567
C8 C 0.71350 0.08242 0.38466
C9 C 0.40090 0.31353 0.61111
H1 H 0.33000 0.25480 0.28090
H2 H 0.68900 0.14430 0.54100
H3 H -0.00100 0.41740 0.23740
H4 H 0.01300 0.54580 0.30670
H5 H -0.22700 0.44020 0.29490
H6 H 0.73400 0.00100 0.41430
H7 H 0.90700 0.09500 0.40740
H8 H 0.68400 0.08500 0.32310
H9 H 0.55300 0.24560 0.64470
H10 H 0.46100 0.40830 0.63530
H11 H 0.21700 0.29920 0.62350
N1B N -0.00330 0.51016 0.53621
C1B C -0.18820 0.61662 0.54697
C2B C -0.17170 0.63590 0.63315
C6B C -0.37390 0.69673 0.48262
C3B C -0.34290 0.73340 0.65325
C7B C 0.03150 0.55584 0.70433
C5B C -0.54040 0.79278 0.50662
C9B C -0.40090 0.68647 0.38889
C4B C -0.52830 0.81235 0.59150
H1B H -0.33000 0.74520 0.71910
H3B H 0.00100 0.58260 0.76260
H4B H -0.01300 0.45420 0.69330
H5B H 0.22700 0.55980 0.70510
H2B H -0.68900 0.85570 0.45900
H9B H -0.55300 0.75440 0.35530
H10B H -0.46100 0.59170 0.36470
H11B H -0.21700 0.70080 0.37650
C8B C -0.71350 0.91758 0.61534
H6B H -0.73400 0.99900 0.58570
H7B H -0.90700 0.90500 0.59260
H8B H -0.68400 0.91500 0.67690
loop_
_geom_bond_atom_site_label_1
_geom_bond_atom_site_label_2
_geom_bond_site_symmetry_1
_geom_bond_site_symmetry_2
N1 C1 1_555 1_555
C1 C2 1_555 1_555
C2 C3 1_555 1_555
C3 C4 1_555 1_555
C4 C5 1_555 1_555
C5 C6 1_555 1_555
C6 C1 1_555 1_555
C7 C2 1_555 1_555
C8 C4 1_555 1_555
C9 C6 1_555 1_555
H1 C3 1_555 1_555
H2 C5 1_555 1_555
H3 C7 1_555 1_555
H4 C7 1_555 1_555
H5 C7 1_555 1_555
H6 C8 1_555 1_555
H7 C8 1_555 1_555
H8 C8 1_555 1_555
H9 C9 1_555 1_555
H10 C9 1_555 1_555
H11 C9 1_555 1_555
N1B N1 1_555 1_555
C1B N1B 1_555 1_555
C2B C1B 1_555 1_555
C6B C1B 1_555 1_555
C3B C2B 1_555 1_555
C7B C2B 1_555 1_555
C5B C6B 1_555 1_555
C9B C6B 1_555 1_555
C4B C3B 1_555 1_555
H1B C3B 1_555 1_555
H3B C7B 1_555 1_555
H4B C7B 1_555 1_555
H5B C7B 1_555 1_555
H2B C5B 1_555 1_555
H9B C9B 1_555 1_555
H10B C9B 1_555 1_555
H11B C9B 1_555 1_555
C8B C4B 1_555 1_555
H6B C8B 1_555 1_555
H7B C8B 1_555 1_555
H8B C8B 1_555 1_555
C5B C4B 1_555 1_555

#END
