
#######################################################################
#
#                 Cambridge Crystallographic Data Centre
#                                CCDC 
#
#######################################################################
#
# If this CIF has been generated from an entry in the Cambridge 
# Structural Database, then it will include bibliographic, chemical, 
# crystal, experimental, refinement or atomic coordinate data resulting 
# from the CCDC's data processing and validation procedures.
#
#######################################################################

data_HXMCOU
_chemical_formula_moiety         'C10 H8 O4'
_chemical_name_systematic        7-Hydroxy-6-methoxycoumarin
_symmetry_cell_setting           triclinic
_symmetry_space_group_name_H-M   'P -1'
_symmetry_Int_Tables_number      2
_space_group_name_Hall           '-P 1'
loop_
_symmetry_equiv_pos_site_id
_symmetry_equiv_pos_as_xyz
1 x,y,z
2 -x,-y,-z
_cell_length_a                   7.614(4)
_cell_length_b                   8.800(6)
_cell_length_c                   6.984(2)
_cell_angle_alpha                88.96(4)
_cell_angle_beta                 99.36(4)
_cell_angle_gamma                70.03(5)
_cell_volume                     432.585
_cell_formula_units_Z            2
loop_
_atom_site_label
_atom_site_type_symbol
_atom_site_fract_x
_atom_site_fract_y
_atom_site_fract_z
O1 O 0.03640 -0.28290 0.24880
C2 C 0.22850 -0.36860 0.28810
C3 C 0.35230 -0.27700 0.32060
C4 C 0.28440 -0.11440 0.30740
C41 C 0.08480 -0.02680 0.26580
C5 C 0.00340 0.14310 0.25330
C6 C -0.19030 0.21650 0.21960
C7 C -0.30840 0.12270 0.19920
C8 C -0.23110 -0.04370 0.20550
C81 C -0.03590 -0.11540 0.23950
O9 O 0.27330 -0.51510 0.29150
O10 O -0.28710 0.38020 0.20220
O11 O -0.50000 0.19360 0.17080
C12 C -0.17530 0.48280 0.21330
H3 H 0.49200 -0.33800 0.35300
H4 H 0.36500 -0.05600 0.33200
H5 H 0.07800 0.20500 0.27100
H8 H -0.31200 -0.11100 0.18600
H11 H -0.54500 0.28500 0.20400
H121 H -0.26300 0.58100 0.17200
H122 H -0.09200 0.45600 0.10900
H123 H -0.11100 0.47200 0.35200
loop_
_geom_bond_atom_site_label_1
_geom_bond_atom_site_label_2
_geom_bond_site_symmetry_1
_geom_bond_site_symmetry_2
O1 C2 1_555 1_555
C2 C3 1_555 1_555
C3 C4 1_555 1_555
C4 C41 1_555 1_555
C41 C5 1_555 1_555
C5 C6 1_555 1_555
C6 C7 1_555 1_555
C7 C8 1_555 1_555
C8 C81 1_555 1_555
C81 O1 1_555 1_555
O9 C2 1_555 1_555
O10 C6 1_555 1_555
O11 C7 1_555 1_555
C12 O10 1_555 1_555
H3 C3 1_555 1_555
H4 C4 1_555 1_555
H5 C5 1_555 1_555
H8 C8 1_555 1_555
H11 O11 1_555 1_555
H121 C12 1_555 1_555
H122 C12 1_555 1_555
H123 C12 1_555 1_555
C41 C81 1_555 1_555

#END
