
#######################################################################
#
#                 Cambridge Crystallographic Data Centre
#                                CCDC 
#
#######################################################################
#
# If this CIF has been generated from an entry in the Cambridge 
# Structural Database, then it will include bibliographic, chemical, 
# crystal, experimental, refinement or atomic coordinate data resulting 
# from the CCDC's data processing and validation procedures.
#
#######################################################################

data_HXQUIN15
_chemical_formula_moiety         'C9 H7 N1 O1'
_chemical_name_systematic        quinolin-8-ol
_symmetry_cell_setting           triclinic
_symmetry_space_group_name_H-M   'P -1'
_symmetry_Int_Tables_number      2
_space_group_name_Hall           '-P 1'
loop_
_symmetry_equiv_pos_site_id
_symmetry_equiv_pos_as_xyz
1 x,y,z
2 -x,-y,-z
_cell_length_a                   6.5775(5)
_cell_length_b                   7.8285(6)
_cell_length_c                   14.4617(13)
_cell_angle_alpha                96.099(2)
_cell_angle_beta                 92.4700(10)
_cell_angle_gamma                106.171(3)
_cell_volume                     709.088
_exptl_crystal_colour            colorless
_exptl_crystal_description       block
_cell_formula_units_Z            4
loop_
_atom_site_label
_atom_site_type_symbol
_atom_site_fract_x
_atom_site_fract_y
_atom_site_fract_z
N1 N 0.3601(8) 0.6320(8) 0.5743(4)
O1 O 0.2754(7) 0.2663(6) 0.5322(4)
H1 H 0.3772 0.3477 0.5214
C1 C 0.3953(12) 0.8061(10) 0.5950(5)
H2 H 0.5228 0.8812 0.5799
C2 C 0.2521(12) 0.8846(11) 0.6385(5)
H3 H 0.2824 1.0087 0.6491
C3 C 0.0737(11) 0.7818(11) 0.6643(5)
H4 H -0.0191 0.8341 0.6953
C4 C 0.0213(10) 0.5915(9) 0.6455(4)
C5 C 0.1731(9) 0.5254(9) 0.5991(4)
C6 C 0.1326(10) 0.3372(10) 0.5778(4)
C7 C -0.0462(10) 0.2282(10) 0.6016(5)
H5 H -0.0716 0.1050 0.5877
C8 C -0.1958(11) 0.2939(10) 0.6468(5)
H6 H -0.3181 0.2134 0.6631
C9 C -0.1686(10) 0.4725(10) 0.6679(5)
H7 H -0.2723 0.5149 0.6963
N2 N 0.1680(8) 0.4060(8) 0.0737(4)
O2 O 0.2354(7) 0.7482(6) 0.0327(4)
H8 H 0.1295 0.6617 0.0230
C10 C 0.1391(11) 0.2395(10) 0.0936(5)
H9 H 0.0073 0.1568 0.0770
C11 C 0.2965(11) 0.1820(10) 0.1383(5)
H10 H 0.2683 0.0640 0.1511
C12 C 0.4908(11) 0.2997(10) 0.1631(5)
H11 H 0.5977 0.2632 0.1921
C13 C 0.5275(10) 0.4783(9) 0.1439(4)
C14 C 0.3622(9) 0.5250(9) 0.0986(4)
C15 C 0.3935(11) 0.7012(10) 0.0794(5)
C16 C 0.5843(11) 0.8277(9) 0.1025(5)
H12 H 0.6050 0.9443 0.0885
C17 C 0.7468(11) 0.7785(11) 0.1473(5)
H13 H 0.8764 0.8646 0.1634
C18 C 0.7231(11) 0.6085(11) 0.1685(5)
H14 H 0.8345 0.5795 0.1987
loop_
_geom_bond_atom_site_label_1
_geom_bond_atom_site_label_2
_geom_bond_site_symmetry_1
_geom_bond_site_symmetry_2
N1 C1 1_555 1_555
O1 H1 1_555 1_555
C1 H2 1_555 1_555
C2 C1 1_555 1_555
H3 C2 1_555 1_555
C3 C2 1_555 1_555
H4 C3 1_555 1_555
C4 C3 1_555 1_555
C5 N1 1_555 1_555
C6 O1 1_555 1_555
C7 C6 1_555 1_555
H5 C7 1_555 1_555
C8 C7 1_555 1_555
H6 C8 1_555 1_555
C9 C4 1_555 1_555
H7 C9 1_555 1_555
N2 C10 1_555 1_555
O2 H8 1_555 1_555
C10 H9 1_555 1_555
C11 C10 1_555 1_555
H10 C11 1_555 1_555
C12 C11 1_555 1_555
H11 C12 1_555 1_555
C13 C12 1_555 1_555
C14 N2 1_555 1_555
C15 O2 1_555 1_555
C16 C15 1_555 1_555
H12 C16 1_555 1_555
C17 C16 1_555 1_555
H13 C17 1_555 1_555
C18 C13 1_555 1_555
H14 C18 1_555 1_555
C4 C5 1_555 1_555
C5 C6 1_555 1_555
C8 C9 1_555 1_555
C13 C14 1_555 1_555
C14 C15 1_555 1_555
C17 C18 1_555 1_555

#END
