
#######################################################################
#
#                 Cambridge Crystallographic Data Centre
#                                CCDC 
#
#######################################################################
#
# If this CIF has been generated from an entry in the Cambridge 
# Structural Database, then it will include bibliographic, chemical, 
# crystal, experimental, refinement or atomic coordinate data resulting 
# from the CCDC's data processing and validation procedures.
#
#######################################################################

data_HXQUIN03
_chemical_formula_moiety         'C9 H7 N1 O1'
_chemical_name_systematic        8-Hydroxy-quinoline
_chemical_properties_biological  'disinfectant, antiseptic agent'
_symmetry_cell_setting           orthorhombic
_symmetry_space_group_name_H-M   'F d d 2'
_symmetry_Int_Tables_number      43
_space_group_name_Hall           'F 2 -2d'
loop_
_symmetry_equiv_pos_site_id
_symmetry_equiv_pos_as_xyz
1 x,y,z
2 x,1/2+y,1/2+z
3 1/2+x,y,1/2+z
4 1/2+x,1/2+y,z
5 1/4-x,1/4+y,1/4+z
6 1/4-x,3/4+y,3/4+z
7 3/4-x,1/4+y,3/4+z
8 3/4-x,3/4+y,1/4+z
9 1/4+x,1/4-y,1/4+z
10 1/4+x,3/4-y,3/4+z
11 3/4+x,1/4-y,3/4+z
12 3/4+x,3/4-y,1/4+z
13 1/2-x,-y,1/2+z
14 1/2-x,1/2-y,z
15 -x,-y,z
16 -x,1/2-y,1/2+z
_cell_length_a                   28.770(7)
_cell_length_b                   25.055(12)
_cell_length_c                   3.857(5)
_cell_angle_alpha                90
_cell_angle_beta                 90
_cell_angle_gamma                90
_cell_volume                     2780.25
_exptl_crystal_colour            colorless
_cell_formula_units_Z            16
loop_
_atom_site_label
_atom_site_type_symbol
_atom_site_fract_x
_atom_site_fract_y
_atom_site_fract_z
O1 O 0.2182(1) 0.31655(9) 0.501(1)
N1 N 0.2997(1) 0.2837(1) 0.200(1)
C1 C 0.3392(1) 0.2695(2) 0.046(1)
C2 C 0.3747(1) 0.3050(2) -0.034(2)
C3 C 0.3699(2) 0.3575(2) 0.045(2)
C4 C 0.3215(2) 0.4289(1) 0.303(1)
C5 C 0.2809(2) 0.4432(1) 0.461(2)
C6 C 0.2455(1) 0.4049(2) 0.533(2)
C7 C 0.2527(1) 0.3528(2) 0.438(1)
C8 C 0.2940(1) 0.3367(1) 0.281(1)
C9 C 0.3292(1) 0.3753(2) 0.208(2)
H1 H 0.339(2) 0.227(1) -0.02(1)
H2 H 0.401(1) 0.288(1) -0.13(1)
H3 H 0.395(1) 0.390(1) 0.02(1)
H4 H 0.343(1) 0.456(1) 0.25(1)
H5 H 0.278(1) 0.481(1) 0.55(1)
H6 H 0.216(1) 0.415(1) 0.64(1)
H7 H 0.220(1) 0.280(1) 0.40(1)
loop_
_geom_bond_atom_site_label_1
_geom_bond_atom_site_label_2
_geom_bond_site_symmetry_1
_geom_bond_site_symmetry_2
O1 C7 1_555 1_555
N1 C1 1_555 1_555
C1 C2 1_555 1_555
C2 C3 1_555 1_555
C3 C9 1_555 1_555
C4 C5 1_555 1_555
C5 C6 1_555 1_555
C6 C7 1_555 1_555
C7 C8 1_555 1_555
C8 N1 1_555 1_555
C9 C4 1_555 1_555
H1 C1 1_555 1_555
H2 C2 1_555 1_555
H3 C3 1_555 1_555
H4 C4 1_555 1_555
H5 C5 1_555 1_555
H6 C6 1_555 1_555
H7 O1 1_555 1_555
C8 C9 1_555 1_555

#END
