
#######################################################################
#
#                 Cambridge Crystallographic Data Centre
#                                CCDC 
#
#######################################################################
#
# If this CIF has been generated from an entry in the Cambridge 
# Structural Database, then it will include bibliographic, chemical, 
# crystal, experimental, refinement or atomic coordinate data resulting 
# from the CCDC's data processing and validation procedures.
#
#######################################################################

data_HXQUIN11
_chemical_formula_moiety         'C9 H7 N1 O1'
_chemical_name_systematic        8-Hydroxyquinoline
_symmetry_cell_setting           orthorhombic
_symmetry_space_group_name_H-M   'F d d 2'
_symmetry_Int_Tables_number      43
_space_group_name_Hall           'F 2 -2d'
loop_
_symmetry_equiv_pos_site_id
_symmetry_equiv_pos_as_xyz
1 x,y,z
2 -x,-y,z
3 1/4+x,1/4-y,1/4+z
4 1/4-x,1/4+y,1/4+z
5 x,1/2+y,1/2+z
6 -x,1/2-y,1/2+z
7 1/4+x,3/4-y,3/4+z
8 1/4-x,3/4+y,3/4+z
9 1/2+x,y,1/2+z
10 1/2-x,-y,1/2+z
11 3/4+x,1/4-y,3/4+z
12 3/4-x,1/4+y,3/4+z
13 1/2+x,1/2+y,z
14 1/2-x,1/2-y,z
15 3/4+x,3/4-y,1/4+z
16 3/4-x,3/4+y,1/4+z
_cell_length_a                   24.8857(15)
_cell_length_b                   28.5456(12)
_cell_length_c                   3.8110(2)
_cell_angle_alpha                90
_cell_angle_beta                 90
_cell_angle_gamma                90
_cell_volume                     2707.25
_exptl_crystal_colour            yellow
_exptl_crystal_description       block
_cell_formula_units_Z            16
loop_
_atom_site_label
_atom_site_type_symbol
_atom_site_fract_x
_atom_site_fract_y
_atom_site_fract_z
N1 N 0.03331(5) -0.05013(4) -0.2073(5)
C1 C 0.01883(6) -0.08916(6) -0.3628(6)
H1 H -0.0202(7) -0.0911(6) -0.420(7)
C2 C 0.05453(7) -0.12567(5) -0.4453(6)
H2 H 0.0399(8) -0.1543(7) -0.555(7)
C3 C 0.10736(7) -0.12075(6) -0.3632(6)
H3 H 0.1338(8) -0.1455(7) -0.410(9)
C4 C 0.12539(6) -0.07930(5) -0.2001(6)
C5 C 0.17925(7) -0.07150(6) -0.1046(6)
H4 H 0.2053(8) -0.0960(7) -0.154(8)
C6 C 0.19325(6) -0.03074(6) 0.0564(6)
H5 H 0.2315(8) -0.0252(8) 0.119(9)
C7 C 0.15504(7) 0.00436(6) 0.1253(6)
H6 H 0.1674(8) 0.0336(8) 0.233(8)
C8 C 0.10251(6) -0.00201(5) 0.0330(6)
C9 C 0.08626(6) -0.04449(5) -0.1292(5)
O1 O 0.06669(5) 0.03232(4) 0.0972(5)
H7 H 0.0318(12) 0.0244(9) 0.011(12)
loop_
_geom_bond_atom_site_label_1
_geom_bond_atom_site_label_2
_geom_bond_site_symmetry_1
_geom_bond_site_symmetry_2
N1 C1 1_555 1_555
C1 H1 1_555 1_555
C2 C1 1_555 1_555
H2 C2 1_555 1_555
C3 C2 1_555 1_555
H3 C3 1_555 1_555
C4 C3 1_555 1_555
C5 C4 1_555 1_555
H4 C5 1_555 1_555
C6 C5 1_555 1_555
H5 C6 1_555 1_555
C7 C6 1_555 1_555
H6 C7 1_555 1_555
C8 C7 1_555 1_555
C9 N1 1_555 1_555
O1 C8 1_555 1_555
H7 O1 1_555 1_555
C4 C9 1_555 1_555
C8 C9 1_555 1_555

#END
