
#######################################################################
#
#                 Cambridge Crystallographic Data Centre
#                                CCDC 
#
#######################################################################
#
# If this CIF has been generated from an entry in the Cambridge 
# Structural Database, then it will include bibliographic, chemical, 
# crystal, experimental, refinement or atomic coordinate data resulting 
# from the CCDC's data processing and validation procedures.
#
#######################################################################

data_HYMOLA
_chemical_formula_moiety         'C21 H30 O8'
_chemical_name_systematic        Hymenolane
_symmetry_cell_setting           orthorhombic
_symmetry_space_group_name_H-M   'P 21 21 21'
_symmetry_Int_Tables_number      19
_space_group_name_Hall           'P 2ac 2ab'
loop_
_symmetry_equiv_pos_site_id
_symmetry_equiv_pos_as_xyz
1 x,y,z
2 1/2+x,1/2-y,-z
3 -x,1/2+y,1/2-z
4 1/2-x,-y,1/2+z
_cell_length_a                   8.963(3)
_cell_length_b                   9.265(4)
_cell_length_c                   26.292(11)
_cell_angle_alpha                90
_cell_angle_beta                 90
_cell_angle_gamma                90
_cell_volume                     2183.35
_chemical_melting_point          216deg.C
_cell_formula_units_Z            4
loop_
_atom_site_label
_atom_site_type_symbol
_atom_site_fract_x
_atom_site_fract_y
_atom_site_fract_z
C1 C 0.19960 0.48820 0.09130
C2 C 0.10830 0.61620 0.07110
C3 C 0.09490 0.72190 0.11610
C4 C 0.14510 0.63180 0.16170
C5 C 0.27540 0.54320 0.14110
C6 C 0.31850 0.41860 0.17820
C7 C 0.24980 0.27380 0.16630
C8 C 0.31650 0.20080 0.11830
C9 C 0.39800 0.29660 0.08040
C10 C 0.30270 0.41130 0.05340
C11 C 0.27680 0.15600 0.20680
C12 C 0.41400 0.08130 0.18830
C13 C 0.28670 0.20270 0.26250
C14 C 0.40990 0.64010 0.13040
C15 C 0.21060 0.34720 0.01010
C16 C -0.12030 0.62690 0.02340
C17 C -0.26790 0.56120 0.01810
C18 C -0.08370 0.91100 0.11080
C19 C -0.24460 0.94590 0.11900
C20 C 0.14430 0.68850 0.25080
C21 C 0.19710 0.79790 0.28780
O1 O 0.43020 0.10130 0.13780
O2 O 0.50110 0.00810 0.21220
O3 O -0.03750 0.55790 0.05820
O4 O -0.07870 0.73270 0.00190
O5 O -0.05450 0.77330 0.12380
O6 O 0.00660 0.99150 0.09480
O7 O 0.18640 0.72600 0.20300
O8 O 0.07440 0.58220 0.26050
H1 H 0.12500 0.43100 0.09900
H2 H 0.15800 0.66300 0.04100
H3 H 0.29900 0.45100 0.21300
H4 H 0.12500 0.28100 0.16500
H5 H 0.23300 0.14700 0.10200
H6 H 0.49200 0.34700 0.10300
H7 H 0.43400 0.23600 0.05700
H8 H 0.36700 0.47100 0.04100
H9 H 0.19300 0.08300 0.20400
H10 H 0.20000 0.24100 0.27200
H11 H 0.35600 0.25200 0.26800
H12 H 0.29300 0.12700 0.28400
H13 H 0.39300 0.72100 0.11100
H14 H 0.50000 0.59200 0.11900
H15 H 0.43900 0.67800 0.16200
H16 H 0.13900 0.41400 -0.01000
H17 H 0.15900 0.26400 0.02100
H18 H 0.26300 0.30400 -0.00700
H19 H -0.32900 0.54100 0.05700
H20 H -0.26900 0.47900 0.02000
H21 H -0.30000 0.57700 -0.01100
H22 H -0.26900 0.93500 0.15600
H23 H -0.29100 0.89000 0.10100
H24 H -0.26900 1.04100 0.11000
H25 H 0.15700 0.87000 0.28400
H26 H 0.28600 0.82800 0.27600
H27 H 0.17800 0.75600 0.31700
H28 H 0.15600 0.80100 0.11300
H29 H 0.06500 0.57000 0.17200
H30 H 0.42900 0.41400 0.17800
loop_
_geom_bond_atom_site_label_1
_geom_bond_atom_site_label_2
_geom_bond_site_symmetry_1
_geom_bond_site_symmetry_2
C1 C2 1_555 1_555
C2 C3 1_555 1_555
C3 C4 1_555 1_555
C4 C5 1_555 1_555
C5 C1 1_555 1_555
C6 C5 1_555 1_555
C7 C6 1_555 1_555
C8 C7 1_555 1_555
C9 C8 1_555 1_555
C10 C1 1_555 1_555
C11 C7 1_555 1_555
C12 C11 1_555 1_555
C13 C11 1_555 1_555
C14 C5 1_555 1_555
C15 C10 1_555 1_555
C16 C17 1_555 1_555
C17 H19 1_555 1_555
C18 C19 1_555 1_555
C19 H22 1_555 1_555
C20 C21 1_555 1_555
C21 H25 1_555 1_555
O1 C8 1_555 1_555
O2 C12 1_555 1_555
O3 C2 1_555 1_555
O4 C16 1_555 1_555
O5 C3 1_555 1_555
O6 C18 1_555 1_555
O7 C4 1_555 1_555
O8 C20 1_555 1_555
H1 C1 1_555 1_555
H2 C2 1_555 1_555
H3 C6 1_555 1_555
H4 C7 1_555 1_555
H5 C8 1_555 1_555
H6 C9 1_555 1_555
H7 C9 1_555 1_555
H8 C10 1_555 1_555
H9 C11 1_555 1_555
H10 C13 1_555 1_555
H11 C13 1_555 1_555
H12 C13 1_555 1_555
H13 C14 1_555 1_555
H14 C14 1_555 1_555
H15 C14 1_555 1_555
H16 C15 1_555 1_555
H17 C15 1_555 1_555
H18 C15 1_555 1_555
H20 C17 1_555 1_555
H21 C17 1_555 1_555
H23 C19 1_555 1_555
H24 C19 1_555 1_555
H26 C21 1_555 1_555
H27 C21 1_555 1_555
H28 C3 1_555 1_555
H29 C4 1_555 1_555
H30 C6 1_555 1_555
C9 C10 1_555 1_555
C12 O1 1_555 1_555
C16 O3 1_555 1_555
C18 O5 1_555 1_555
C20 O7 1_555 1_555

#END
