
#######################################################################
#
#                 Cambridge Crystallographic Data Centre
#                                CCDC 
#
#######################################################################
#
# If this CIF has been generated from an entry in the Cambridge 
# Structural Database, then it will include bibliographic, chemical, 
# crystal, experimental, refinement or atomic coordinate data resulting 
# from the CCDC's data processing and validation procedures.
#
#######################################################################

data_IBACIA
_chemical_formula_moiety         'C19 H12 F3 N3 O2'
_chemical_name_systematic        
'methyl 6-(trifluoromethyl)-7H-quinoxalino[2,3-d][1]benzazepine-7-carboxylate'
_symmetry_cell_setting           triclinic
_symmetry_space_group_name_H-M   'P -1'
_symmetry_Int_Tables_number      2
_space_group_name_Hall           '-P 1'
loop_
_symmetry_equiv_pos_site_id
_symmetry_equiv_pos_as_xyz
1 x,y,z
2 -x,-y,-z
_cell_length_a                   7.828(9)
_cell_length_b                   10.579(11)
_cell_length_c                   20.74(2)
_cell_angle_alpha                89.827(14)
_cell_angle_beta                 81.363(15)
_cell_angle_gamma                89.786(15)
_cell_volume                     1698.03
_cell_formula_units_Z            4
loop_
_atom_site_label
_atom_site_type_symbol
_atom_site_fract_x
_atom_site_fract_y
_atom_site_fract_z
C1 C 0.1943(10) 0.7933(8) 1.1042(4)
C2 C 0.1749(12) 0.8489(9) 1.1669(4)
H1 H 0.1293 0.9300 1.1730
C3 C 0.2217(14) 0.7854(11) 1.2175(5)
H2 H 0.2084 0.8233 1.2584
C4 C 0.2901(15) 0.6634(11) 1.2099(5)
H3 H 0.3232 0.6215 1.2455
C5 C 0.3087(14) 0.6049(11) 1.1505(4)
H4 H 0.3543 0.5236 1.1458
C6 C 0.2588(11) 0.6681(9) 1.0966(4)
C7 C 0.2272(9) 0.6706(7) 0.9890(4)
C8 C 0.2306(9) 0.6008(7) 0.9262(4)
C9 C 0.1871(11) 0.4739(8) 0.9292(4)
H5 H 0.1556 0.4367 0.9700
C10 C 0.1885(12) 0.4008(9) 0.8745(5)
H6 H 0.1565 0.3163 0.8781
C11 C 0.2385(13) 0.4552(10) 0.8136(5)
H7 H 0.2394 0.4072 0.7760
C12 C 0.2862(13) 0.5788(9) 0.8091(4)
H8 H 0.3227 0.6137 0.7681
C13 C 0.2820(9) 0.6551(8) 0.8645(4)
C14 C 0.2750(10) 0.8712(8) 0.8863(4)
C15 C 0.1222(10) 0.8705(7) 0.9383(4)
H9 H 0.0999 0.9583 0.9521
C16 C 0.1693(9) 0.7993(7) 0.9959(4)
C17 C 0.3622(12) 0.9990(10) 0.8692(5)
C18 C -0.0392(11) 0.8228(8) 0.9142(4)
C19 C -0.3247(13) 0.7507(12) 0.9493(7)
H10 H -0.3533 0.8019 0.9140
H11 H -0.4076 0.7655 0.9876
H12 H -0.3267 0.6631 0.9375
F1 F 0.4176(10) 1.0450(6) 0.9217(3)
F2 F 0.2436(9) 1.0809(6) 0.8538(4)
F3 F 0.4854(9) 0.9974(6) 0.8209(4)
N1 N 0.1522(8) 0.8596(6) 1.0531(3)
N2 N 0.2751(9) 0.6083(7) 1.0377(3)
N3 N 0.3455(9) 0.7792(7) 0.8528(3)
O1 O -0.1547(7) 0.7832(6) 0.9623(3)
O2 O -0.0596(9) 0.8299(7) 0.8576(3)
C20 C 0.3053(10) 0.2926(8) 0.3952(4)
C21 C 0.3263(11) 0.3487(10) 0.3331(4)
H13 H 0.3709 0.4300 0.3273
C22 C 0.2820(13) 0.2853(11) 0.2818(4)
H14 H 0.2985 0.3225 0.2406
C23 C 0.2111(15) 0.1634(11) 0.2901(5)
H15 H 0.1785 0.1219 0.2544
C24 C 0.1892(13) 0.1043(10) 0.3498(4)
H16 H 0.1412 0.0240 0.3551
C25 C 0.2418(10) 0.1693(9) 0.4032(4)
C26 C 0.2742(9) 0.1721(7) 0.5110(4)
C27 C 0.2698(9) 0.1017(7) 0.5738(4)
C28 C 0.3121(11) -0.0258(9) 0.5701(5)
H17 H 0.3423 -0.0630 0.5294
C29 C 0.3104(13) -0.0982(9) 0.6253(6)
H18 H 0.3422 -0.1830 0.6216
C30 C 0.2611(13) -0.0449(10) 0.6869(5)
H19 H 0.2612 -0.0932 0.7244
C31 C 0.2123(13) 0.0803(9) 0.6909(4)
H20 H 0.1749 0.1154 0.7317
C32 C 0.2175(9) 0.1552(8) 0.6358(4)
C33 C 0.2255(10) 0.3732(8) 0.6146(4)
C34 C 0.3779(10) 0.3705(7) 0.5615(4)
H21 H 0.3989 0.4580 0.5469
C35 C 0.3307(9) 0.2981(7) 0.5039(4)
C36 C 0.1412(12) 0.4987(9) 0.6303(5)
C37 C 0.5394(10) 0.3254(8) 0.5854(4)
C38 C 0.8218(13) 0.2477(12) 0.5524(6)
H22 H 0.8573 0.3067 0.5829
H23 H 0.9041 0.2480 0.5131
H24 H 0.8156 0.1645 0.5712
F4 F 0.0143(9) 0.4983(6) 0.6792(3)
F5 F 0.0809(10) 0.5448(6) 0.5782(3)
F6 F 0.2530(9) 0.5822(5) 0.6460(3)
N4 N 0.3486(8) 0.3590(6) 0.4468(3)
N5 N 0.2252(9) 0.1080(7) 0.4623(3)
N6 N 0.1554(8) 0.2789(7) 0.6473(3)
O3 O 0.6543(7) 0.2839(6) 0.5375(3)
O4 O 0.5584(8) 0.3286(7) 0.6423(3)
loop_
_geom_bond_atom_site_label_1
_geom_bond_atom_site_label_2
_geom_bond_site_symmetry_1
_geom_bond_site_symmetry_2
C1 C2 1_555 1_555
C2 H1 1_555 1_555
C3 C2 1_555 1_555
H2 C3 1_555 1_555
C4 C3 1_555 1_555
H3 C4 1_555 1_555
C5 C4 1_555 1_555
H4 C5 1_555 1_555
C6 C1 1_555 1_555
C7 C8 1_555 1_555
C8 C9 1_555 1_555
C9 H5 1_555 1_555
C10 C9 1_555 1_555
H6 C10 1_555 1_555
C11 C10 1_555 1_555
H7 C11 1_555 1_555
C12 C11 1_555 1_555
H8 C12 1_555 1_555
C13 C8 1_555 1_555
C14 C15 1_555 1_555
C15 H9 1_555 1_555
C16 C7 1_555 1_555
C17 C14 1_555 1_555
C18 C15 1_555 1_555
C19 H10 1_555 1_555
H11 C19 1_555 1_555
H12 C19 1_555 1_555
F1 C17 1_555 1_555
F2 C17 1_555 1_555
F3 C17 1_555 1_555
N1 C1 1_555 1_555
N2 C6 1_555 1_555
N3 C13 1_555 1_555
O1 C18 1_555 1_555
O2 C18 1_555 1_555
C20 C21 1_555 1_555
C21 H13 1_555 1_555
C22 C21 1_555 1_555
H14 C22 1_555 1_555
C23 C22 1_555 1_555
H15 C23 1_555 1_555
C24 C23 1_555 1_555
H16 C24 1_555 1_555
C25 C20 1_555 1_555
C26 C27 1_555 1_555
C27 C28 1_555 1_555
C28 H17 1_555 1_555
C29 C28 1_555 1_555
H18 C29 1_555 1_555
C30 C29 1_555 1_555
H19 C30 1_555 1_555
C31 C30 1_555 1_555
H20 C31 1_555 1_555
C32 C27 1_555 1_555
C33 C34 1_555 1_555
C34 H21 1_555 1_555
C35 C26 1_555 1_555
C36 C33 1_555 1_555
C37 C34 1_555 1_555
C38 H22 1_555 1_555
H23 C38 1_555 1_555
H24 C38 1_555 1_555
F4 C36 1_555 1_555
F5 C36 1_555 1_555
F6 C36 1_555 1_555
N4 C20 1_555 1_555
N5 C25 1_555 1_555
N6 C32 1_555 1_555
O3 C37 1_555 1_555
O4 C37 1_555 1_555
C5 C6 1_555 1_555
C7 N2 1_555 1_555
C12 C13 1_555 1_555
C14 N3 1_555 1_555
C15 C16 1_555 1_555
C16 N1 1_555 1_555
C19 O1 1_555 1_555
C24 C25 1_555 1_555
C26 N5 1_555 1_555
C31 C32 1_555 1_555
C33 N6 1_555 1_555
C34 C35 1_555 1_555
C35 N4 1_555 1_555
C38 O3 1_555 1_555

#END
