
#######################################################################
#
#                 Cambridge Crystallographic Data Centre
#                                CCDC 
#
#######################################################################
#
# If this CIF has been generated from an entry in the Cambridge 
# Structural Database, then it will include bibliographic, chemical, 
# crystal, experimental, refinement or atomic coordinate data resulting 
# from the CCDC's data processing and validation procedures.
#
#######################################################################

data_IBACAR
_chemical_formula_moiety         'C20 H23 F1 O4'
_chemical_name_systematic        
'Methyl 2-fluoro-2-(hydroxy(4-methoxyphenyl)methyl)-3-phenylpentanoate'
_symmetry_cell_setting           monoclinic
_symmetry_space_group_name_H-M   'P 21'
_symmetry_Int_Tables_number      4
_space_group_name_Hall           'P 2yb'
loop_
_symmetry_equiv_pos_site_id
_symmetry_equiv_pos_as_xyz
1 x,y,z
2 -x,1/2+y,-z
_cell_length_a                   13.68(2)
_cell_length_b                   5.848(4)
_cell_length_c                   13.699(18)
_cell_angle_alpha                90
_cell_angle_beta                 111.89(6)
_cell_angle_gamma                90
_cell_volume                     1016.91
_exptl_crystal_colour            colorless
_cell_formula_units_Z            2
loop_
_atom_site_label
_atom_site_type_symbol
_atom_site_fract_x
_atom_site_fract_y
_atom_site_fract_z
C1 C 0.3475(8) 0.625(2) 0.9627(7)
H1 H 0.3227 0.4938 0.9184
H2 H 0.2999 0.6592 0.9975
H3 H 0.4163 0.5946 1.0142
C2 C 0.4165(6) 0.8077(15) 0.8366(6)
C3 C 0.4073(7) 0.9874(15) 0.7657(7)
H4 H 0.3626 1.1094 0.7624
C4 C 0.4658(6) 0.9845(12) 0.6988(6)
H5 H 0.4571 1.1016 0.6503
C5 C 0.5386(6) 0.8003(12) 0.7059(6)
C6 C 0.5477(7) 0.6213(14) 0.7781(6)
H6 H 0.5931 0.5002 0.7821
C7 C 0.4875(6) 0.6223(15) 0.8466(6)
H7 H 0.4952 0.5058 0.8951
C8 C 0.6031(6) 0.7956(12) 0.6348(5)
H8 H 0.6287 0.6393 0.6344
C9 C 0.7022(6) 0.9630(11) 0.6711(5)
C10 C 0.7623(7) 0.9281(15) 0.7919(6)
C11 C 0.8589(9) 0.644(2) 0.9214(6)
H9 H 0.9221 0.7329 0.9511
H10 H 0.8767 0.4844 0.9262
H11 H 0.8139 0.6730 0.9595
C12 C 0.7787(6) 0.9395(14) 0.6073(5)
H12 H 0.7795 0.7768 0.5906
C13 C 0.7358(7) 1.0695(19) 0.4982(7)
H13 H 0.6621 1.0315 0.4616
H14 H 0.7406 1.2330 0.5110
C14 C 0.7981(10) 1.007(3) 0.4265(8)
H15 H 0.8557 1.1120 0.4398
H16 H 0.7519 1.0178 0.3540
H17 H 0.8248 0.8544 0.4417
C15 C 0.8952(6) 1.0069(13) 0.6710(6)
C16 C 0.9200(7) 1.2234(14) 0.7251(7)
H18 H 0.8667 1.3246 0.7226
C17 C 1.0298(8) 1.2808(16) 0.7836(7)
H19 H 1.0464 1.4229 0.8160
C18 C 1.1125(7) 1.126(2) 0.7924(7)
H20 H 1.1823 1.1624 0.8315
C19 C 1.0846(8) 0.909(2) 0.7389(8)
H21 H 1.1369 0.8032 0.7436
C20 C 0.9780(7) 0.8568(16) 0.6791(7)
H22 H 0.9621 0.7178 0.6437
O1 O 0.3530(5) 0.8238(12) 0.8977(5)
O2 O 0.5382(4) 0.8588(10) 0.5258(4)
H23 H 0.5104 0.7438 0.4928
O3 O 0.7722(6) 1.0685(10) 0.8594(5)
O4 O 0.8033(5) 0.7079(9) 0.8091(4)
F1 F 0.6619(3) 1.1951(6) 0.6597(3)
loop_
_geom_bond_atom_site_label_1
_geom_bond_atom_site_label_2
_geom_bond_site_symmetry_1
_geom_bond_site_symmetry_2
C1 H1 1_555 1_555
H2 C1 1_555 1_555
H3 C1 1_555 1_555
C2 C3 1_555 1_555
C3 H4 1_555 1_555
C4 C3 1_555 1_555
H5 C4 1_555 1_555
C5 C4 1_555 1_555
C6 C5 1_555 1_555
H6 C6 1_555 1_555
C7 C2 1_555 1_555
H7 C7 1_555 1_555
C8 C5 1_555 1_555
H8 C8 1_555 1_555
C9 C8 1_555 1_555
C10 C9 1_555 1_555
C11 H9 1_555 1_555
H10 C11 1_555 1_555
H11 C11 1_555 1_555
C12 C9 1_555 1_555
H12 C12 1_555 1_555
C13 C12 1_555 1_555
H13 C13 1_555 1_555
H14 C13 1_555 1_555
C14 C13 1_555 1_555
H15 C14 1_555 1_555
H16 C14 1_555 1_555
H17 C14 1_555 1_555
C15 C12 1_555 1_555
C16 C15 1_555 1_555
H18 C16 1_555 1_555
C17 C16 1_555 1_555
H19 C17 1_555 1_555
C18 C17 1_555 1_555
H20 C18 1_555 1_555
C19 C18 1_555 1_555
H21 C19 1_555 1_555
C20 C15 1_555 1_555
H22 C20 1_555 1_555
O1 C1 1_555 1_555
O2 C8 1_555 1_555
H23 O2 1_555 1_555
O3 C10 1_555 1_555
O4 C10 1_555 1_555
F1 C9 1_555 1_555
C2 O1 1_555 1_555
C6 C7 1_555 1_555
C11 O4 1_555 1_555
C19 C20 1_555 1_555

#END
