
#######################################################################
#
#                 Cambridge Crystallographic Data Centre
#                                CCDC 
#
#######################################################################
#
# If this CIF has been generated from an entry in the Cambridge 
# Structural Database, then it will include bibliographic, chemical, 
# crystal, experimental, refinement or atomic coordinate data resulting 
# from the CCDC's data processing and validation procedures.
#
#######################################################################

data_IBALUT01
_chemical_formula_moiety         'C30 H24 N2'
_chemical_name_systematic        N,N,N',N'-Tetraphenyl-1,4-benzenediamine
_symmetry_cell_setting           triclinic
_symmetry_space_group_name_H-M   'P -1'
_symmetry_Int_Tables_number      2
_space_group_name_Hall           '-P 1'
loop_
_symmetry_equiv_pos_site_id
_symmetry_equiv_pos_as_xyz
1 x,y,z
2 -x,-y,-z
_cell_length_a                   8.4352(16)
_cell_length_b                   10.4102(11)
_cell_length_c                   13.802(2)
_cell_angle_alpha                106.367(14)
_cell_angle_beta                 99.843(16)
_cell_angle_gamma                96.037(18)
_cell_volume                     1130.58
_exptl_crystal_colour            white
_exptl_crystal_description       prism
_cell_formula_units_Z            2
_exptl_crystal_recrystallization_method 'ethyl acetate'
loop_
_atom_site_label
_atom_site_type_symbol
_atom_site_fract_x
_atom_site_fract_y
_atom_site_fract_z
C1 C 0.2608(3) 0.4565(2) 0.20063(15)
C2 C 0.1566(3) 0.3552(2) 0.12103(18)
C3 C 0.0030(3) 0.3093(3) 0.1327(2)
C4 C -0.0466(3) 0.3589(3) 0.2232(2)
C5 C 0.0557(3) 0.4589(3) 0.3024(2)
C6 C 0.2081(3) 0.5086(3) 0.29192(17)
C7 C 0.5450(3) 0.5567(2) 0.28266(15)
C8 C 0.5756(3) 0.4775(3) 0.34746(18)
C9 C 0.6937(3) 0.5273(4) 0.4366(2)
C10 C 0.7838(4) 0.6538(4) 0.4616(2)
C11 C 0.7564(3) 0.7314(3) 0.3974(2)
C12 C 0.6365(3) 0.6836(3) 0.30772(18)
C13 C 0.4582(3) 0.5031(2) 0.09464(14)
C14 C 0.6114(3) 0.4804(2) 0.07736(16)
C15 C 0.3474(3) 0.5237(2) 0.01606(16)
N1 N 0.4191(2) 0.50669(18) 0.19163(12)
H1 H 0.194(2) 0.3185(19) 0.0559(14)
H2 H -0.065(3) 0.245(2) 0.0750(17)
H3 H -0.152(3) 0.327(2) 0.2299(17)
H4 H 0.027(3) 0.498(2) 0.3667(16)
H5 H 0.286(2) 0.578(2) 0.3461(15)
H6 H 0.511(2) 0.387(2) 0.3257(14)
H7 H 0.711(3) 0.471(3) 0.4819(19)
H8 H 0.866(3) 0.684(3) 0.524(2)
H9 H 0.814(3) 0.821(3) 0.4126(19)
H10 H 0.611(2) 0.737(2) 0.2622(15)
H11 H 0.692(2) 0.4617(19) 0.1302(14)
H12 H 0.237(2) 0.5416(18) 0.0245(13)
C1A C 0.7392(3) 0.5435(2) -0.20063(15)
C2A C 0.8434(3) 0.6448(2) -0.12103(18)
C3A C 0.9970(3) 0.6907(3) -0.1327(2)
C4A C 1.0466(3) 0.6411(3) -0.2232(2)
C5A C 0.9443(3) 0.5411(3) -0.3024(2)
C6A C 0.7919(3) 0.4914(3) -0.29192(17)
C7A C 0.4550(3) 0.4433(2) -0.28266(15)
C8A C 0.4244(3) 0.5225(3) -0.34746(18)
C9A C 0.3063(3) 0.4727(4) -0.4366(2)
C10A C 0.2162(4) 0.3462(4) -0.4616(2)
C11A C 0.2436(3) 0.2686(3) -0.3974(2)
C12A C 0.3635(3) 0.3164(3) -0.30772(18)
C13A C 0.5418(3) 0.4969(2) -0.09464(14)
C14A C 0.3886(3) 0.5196(2) -0.07736(16)
C15A C 0.6526(3) 0.4763(2) -0.01606(16)
N1A N 0.5809(2) 0.49331(18) -0.19163(12)
H1A H 0.806(2) 0.6815(19) -0.0559(14)
H2A H 1.065(3) 0.755(2) -0.0750(17)
H3A H 1.152(3) 0.673(2) -0.2299(17)
H4A H 0.973(3) 0.502(2) -0.3667(16)
H5A H 0.714(2) 0.422(2) -0.3461(15)
H6A H 0.489(2) 0.613(2) -0.3257(14)
H7A H 0.289(3) 0.529(3) -0.4819(19)
H8A H 0.134(3) 0.316(3) -0.524(2)
H9A H 0.186(3) 0.179(3) -0.4126(19)
H10A H 0.389(2) 0.263(2) -0.2622(15)
H11A H 0.308(2) 0.5383(19) -0.1302(14)
H12A H 0.763(2) 0.4584(18) -0.0245(13)
C16 C 0.2472(3) -0.0578(2) 0.18094(15)
C17 C 0.2142(3) -0.1649(3) 0.2188(2)
C18 C 0.0541(4) -0.2235(3) 0.2071(2)
C19 C -0.0720(4) -0.1781(3) 0.1584(2)
C20 C -0.0399(3) -0.0725(3) 0.1210(2)
C21 C 0.1185(3) -0.0125(3) 0.13259(19)
C22 C 0.5217(3) 0.0545(2) 0.28314(16)
C23 C 0.4686(4) 0.0992(3) 0.37460(19)
C24 C 0.5812(4) 0.1477(3) 0.4670(2)
C25 C 0.7444(4) 0.1552(3) 0.4709(2)
C26 C 0.7961(4) 0.1121(3) 0.3805(2)
C27 C 0.6875(3) 0.0630(3) 0.2876(2)
C28 C 0.4574(3) 0.0020(2) 0.09350(15)
C29 C 0.4389(3) -0.1181(3) 0.01559(17)
C30 C 0.5175(3) 0.1208(3) 0.07710(18)
N2 N 0.4101(2) 0.0021(2) 0.18812(13)
H13 H 0.299(3) -0.196(3) 0.2520(19)
H14 H 0.035(3) -0.299(3) 0.2329(18)
H15 H -0.186(3) -0.219(3) 0.1511(17)
H16 H -0.130(3) -0.038(2) 0.0879(17)
H17 H 0.147(3) 0.063(2) 0.1107(17)
H18 H 0.351(3) 0.093(3) 0.3746(18)
H19 H 0.541(3) 0.181(2) 0.5294(19)
H20 H 0.824(3) 0.182(3) 0.535(2)
H21 H 0.910(3) 0.113(2) 0.3780(17)
H22 H 0.725(3) 0.031(2) 0.2255(18)
H23 H 0.399(3) -0.208(2) 0.0233(16)
H24 H 0.527(3) 0.204(2) 0.1307(16)
C16A C 0.7528(3) 0.0578(2) -0.18094(15)
C17A C 0.7858(3) 0.1649(3) -0.2188(2)
C18A C 0.9459(4) 0.2235(3) -0.2071(2)
C19A C 1.0720(4) 0.1781(3) -0.1584(2)
C20A C 1.0399(3) 0.0725(3) -0.1210(2)
C21A C 0.8815(3) 0.0125(3) -0.13259(19)
C22A C 0.4783(3) -0.0545(2) -0.28314(16)
C23A C 0.5314(4) -0.0992(3) -0.37460(19)
C24A C 0.4188(4) -0.1477(3) -0.4670(2)
C25A C 0.2556(4) -0.1552(3) -0.4709(2)
C26A C 0.2039(4) -0.1121(3) -0.3805(2)
C27A C 0.3125(3) -0.0630(3) -0.2876(2)
C28A C 0.5426(3) -0.0020(2) -0.09350(15)
C29A C 0.5611(3) 0.1181(3) -0.01559(17)
C30A C 0.4825(3) -0.1208(3) -0.07710(18)
N2A N 0.5899(2) -0.0021(2) -0.18812(13)
H13A H 0.701(3) 0.196(3) -0.2520(19)
H14A H 0.965(3) 0.299(3) -0.2329(18)
H15A H 1.186(3) 0.219(3) -0.1511(17)
H16A H 1.130(3) 0.038(2) -0.0879(17)
H17A H 0.853(3) -0.063(2) -0.1107(17)
H18A H 0.649(3) -0.093(3) -0.3746(18)
H19A H 0.459(3) -0.181(2) -0.5294(19)
H20A H 0.176(3) -0.182(3) -0.535(2)
H21A H 0.090(3) -0.113(2) -0.3780(17)
H22A H 0.275(3) -0.031(2) -0.2255(18)
H23A H 0.601(3) 0.208(2) -0.0233(16)
H24A H 0.473(3) -0.204(2) -0.1307(16)
loop_
_geom_bond_atom_site_label_1
_geom_bond_atom_site_label_2
_geom_bond_site_symmetry_1
_geom_bond_site_symmetry_2
C1 C2 1_555 1_555
C2 C3 1_555 1_555
C3 C4 1_555 1_555
C4 C5 1_555 1_555
C5 C6 1_555 1_555
C6 C1 1_555 1_555
C7 C8 1_555 1_555
C8 C9 1_555 1_555
C9 C10 1_555 1_555
C10 C11 1_555 1_555
C11 C12 1_555 1_555
C12 C7 1_555 1_555
C13 C14 1_555 1_555
C14 H11 1_555 1_555
C15 C13 1_555 1_555
N1 C1 1_555 1_555
H1 C2 1_555 1_555
H2 C3 1_555 1_555
H3 C4 1_555 1_555
H4 C5 1_555 1_555
H5 C6 1_555 1_555
H6 C8 1_555 1_555
H7 C9 1_555 1_555
H8 C10 1_555 1_555
H9 C11 1_555 1_555
H10 C12 1_555 1_555
H12 C15 1_555 1_555
C16 C17 1_555 1_555
C17 C18 1_555 1_555
C18 C19 1_555 1_555
C19 C20 1_555 1_555
C20 C21 1_555 1_555
C21 C16 1_555 1_555
C22 C23 1_555 1_555
C23 C24 1_555 1_555
C24 C25 1_555 1_555
C25 C26 1_555 1_555
C26 C27 1_555 1_555
C27 C22 1_555 1_555
C28 C29 1_555 1_555
C29 H23 1_555 1_555
C30 C28 1_555 1_555
N2 C16 1_555 1_555
H13 C17 1_555 1_555
H14 C18 1_555 1_555
H15 C19 1_555 1_555
H16 C20 1_555 1_555
H17 C21 1_555 1_555
H18 C23 1_555 1_555
H19 C24 1_555 1_555
H20 C25 1_555 1_555
H21 C26 1_555 1_555
H22 C27 1_555 1_555
H24 C30 1_555 1_555
C1A C2A 1_555 1_555
C2A C3A 1_555 1_555
C3A C4A 1_555 1_555
C4A C5A 1_555 1_555
C5A C6A 1_555 1_555
C6A C1A 1_555 1_555
C7A C8A 1_555 1_555
C8A C9A 1_555 1_555
C9A C10A 1_555 1_555
C10A C11A 1_555 1_555
C11A C12A 1_555 1_555
C12A C7A 1_555 1_555
C13A C14A 1_555 1_555
C14A C15 1_555 1_555
C15A C14 1_555 1_555
N1A C1A 1_555 1_555
H1A C2A 1_555 1_555
H2A C3A 1_555 1_555
H3A C4A 1_555 1_555
H4A C5A 1_555 1_555
H5A C6A 1_555 1_555
H6A C8A 1_555 1_555
H7A C9A 1_555 1_555
H8A C10A 1_555 1_555
H9A C11A 1_555 1_555
H10A C12A 1_555 1_555
H11A C14A 1_555 1_555
H12A C15A 1_555 1_555
C16A C17A 1_555 1_555
C17A C18A 1_555 1_555
C18A C19A 1_555 1_555
C19A C20A 1_555 1_555
C20A C21A 1_555 1_555
C21A C16A 1_555 1_555
C22A C23A 1_555 1_555
C23A C24A 1_555 1_555
C24A C25A 1_555 1_555
C25A C26A 1_555 1_555
C26A C27A 1_555 1_555
C27A C22A 1_555 1_555
C28A C29A 1_555 1_555
C29A C30 1_555 1_555
C30A C29 1_555 1_555
N2A C16A 1_555 1_555
H13A C17A 1_555 1_555
H14A C18A 1_555 1_555
H15A C19A 1_555 1_555
H16A C20A 1_555 1_555
H17A C21A 1_555 1_555
H18A C23A 1_555 1_555
H19A C24A 1_555 1_555
H20A C25A 1_555 1_555
H21A C26A 1_555 1_555
H22A C27A 1_555 1_555
H23A C29A 1_555 1_555
H24A C30A 1_555 1_555
C7 N1 1_555 1_555
C13 N1 1_555 1_555
C22 N2 1_555 1_555
C28 N2 1_555 1_555
C7A N1A 1_555 1_555
C13A C15A 1_555 1_555
C13A N1A 1_555 1_555
C22A N2A 1_555 1_555
C28A C30A 1_555 1_555
C28A N2A 1_555 1_555

#END
