
#######################################################################
#
#                 Cambridge Crystallographic Data Centre
#                                CCDC 
#
#######################################################################
#
# If this CIF has been generated from an entry in the Cambridge 
# Structural Database, then it will include bibliographic, chemical, 
# crystal, experimental, refinement or atomic coordinate data resulting 
# from the CCDC's data processing and validation procedures.
#
#######################################################################

data_IBANOR
_chemical_formula_moiety         'C23 H14 N2 O3'
_chemical_name_systematic        
3-phenyl-2-(pyridin-2-ylamino)naphtho[2,3-b]furan-4,9-dione
_symmetry_cell_setting           monoclinic
_symmetry_space_group_name_H-M   'P 21/c'
_symmetry_Int_Tables_number      14
_space_group_name_Hall           '-P 2ybc'
loop_
_symmetry_equiv_pos_site_id
_symmetry_equiv_pos_as_xyz
1 x,y,z
2 -x,1/2+y,1/2-z
3 -x,-y,-z
4 x,1/2-y,1/2+z
_cell_length_a                   11.24281(14)
_cell_length_b                   20.5340(2)
_cell_length_c                   7.58179(10)
_cell_angle_alpha                90
_cell_angle_beta                 100.5891(12)
_cell_angle_gamma                90
_cell_volume                     1720.52
_exptl_crystal_colour            red
_exptl_crystal_description       prism
_cell_formula_units_Z            4
loop_
_atom_site_label
_atom_site_type_symbol
_atom_site_fract_x
_atom_site_fract_y
_atom_site_fract_z
O1 O 0.76017(7) 0.35648(4) 0.49146(11)
O2 O 0.96440(8) 0.27843(5) 0.63463(15)
O3 O 0.56341(8) 0.17458(4) 0.22178(12)
N1 N 0.61333(9) 0.43768(4) 0.42039(14)
N2 N 0.63225(9) 0.54611(5) 0.49016(15)
C1 C 0.76655(10) 0.29071(5) 0.46836(16)
C2 C 0.87224(10) 0.25392(6) 0.54965(16)
C3 C 0.85595(11) 0.18190(6) 0.52245(16)
C4 C 0.94778(12) 0.14050(6) 0.60478(19)
H1 H 1.0184 0.1580 0.6775
C5 C 0.93596(13) 0.07375(7) 0.5805(2)
H2 H 0.9987 0.0456 0.6364
C6 C 0.83298(14) 0.04788(6) 0.4749(2)
H3 H 0.8255 0.0021 0.4591
C7 C 0.74097(13) 0.08842(6) 0.39246(19)
H4 H 0.6707 0.0705 0.3201
C8 C 0.75165(11) 0.15580(5) 0.41574(16)
C9 C 0.64988(10) 0.19775(5) 0.32267(15)
C10 C 0.66277(10) 0.26813(5) 0.36315(15)
C11 C 0.58603(10) 0.32300(5) 0.31150(15)
C12 C 0.64901(10) 0.37489(5) 0.39868(15)
C13 C 0.46593(10) 0.32706(5) 0.19462(15)
C14 C 0.44009(11) 0.37911(6) 0.07453(16)
H5 H 0.5008 0.4106 0.0665
C15 C 0.32660(12) 0.38509(7) -0.03282(18)
H6 H 0.3103 0.4203 -0.1149
C16 C 0.23701(12) 0.33991(7) -0.02084(19)
H7 H 0.1592 0.3442 -0.0939
C17 C 0.26135(11) 0.28832(6) 0.09828(19)
H8 H 0.1997 0.2575 0.1073
C18 C 0.37518(11) 0.28143(6) 0.20444(17)
H9 H 0.3915 0.2455 0.2842
C19 C 0.68711(10) 0.49239(5) 0.44508(15)
C20 C 0.80643(11) 0.49250(6) 0.41837(18)
H10 H 0.8435 0.4535 0.3879
C21 C 0.86954(11) 0.55054(6) 0.4372(2)
H11 H 0.9507 0.5520 0.4181
C22 C 0.81442(12) 0.60639(6) 0.48374(18)
H12 H 0.8568 0.6466 0.4996
C23 C 0.69589(13) 0.60185(6) 0.50643(19)
H13 H 0.6569 0.6404 0.5353
H14 H 0.5340(16) 0.4431(8) 0.433(2)
loop_
_geom_bond_atom_site_label_1
_geom_bond_atom_site_label_2
_geom_bond_site_symmetry_1
_geom_bond_site_symmetry_2
O1 C1 1_555 1_555
O2 C2 1_555 1_555
O3 C9 1_555 1_555
N1 C12 1_555 1_555
N2 C19 1_555 1_555
C1 C2 1_555 1_555
C2 C3 1_555 1_555
C3 C4 1_555 1_555
C4 H1 1_555 1_555
C5 C4 1_555 1_555
H2 C5 1_555 1_555
C6 C5 1_555 1_555
H3 C6 1_555 1_555
C7 C6 1_555 1_555
H4 C7 1_555 1_555
C8 C3 1_555 1_555
C9 C8 1_555 1_555
C10 C1 1_555 1_555
C11 C10 1_555 1_555
C12 O1 1_555 1_555
C13 C11 1_555 1_555
C14 C13 1_555 1_555
H5 C14 1_555 1_555
C15 C14 1_555 1_555
H6 C15 1_555 1_555
C16 C15 1_555 1_555
H7 C16 1_555 1_555
C17 C16 1_555 1_555
H8 C17 1_555 1_555
C18 C13 1_555 1_555
H9 C18 1_555 1_555
C19 N1 1_555 1_555
C20 C19 1_555 1_555
H10 C20 1_555 1_555
C21 C20 1_555 1_555
H11 C21 1_555 1_555
C22 C21 1_555 1_555
H12 C22 1_555 1_555
C23 N2 1_555 1_555
H13 C23 1_555 1_555
H14 N1 1_555 1_555
C7 C8 1_555 1_555
C9 C10 1_555 1_555
C11 C12 1_555 1_555
C17 C18 1_555 1_555
C22 C23 1_555 1_555

#END
