
#######################################################################
#
#                 Cambridge Crystallographic Data Centre
#                                CCDC 
#
#######################################################################
#
# If this CIF has been generated from an entry in the Cambridge 
# Structural Database, then it will include bibliographic, chemical, 
# crystal, experimental, refinement or atomic coordinate data resulting 
# from the CCDC's data processing and validation procedures.
#
#######################################################################

data_IBEHIG
_chemical_formula_moiety         'C17 H23 N1 O3'
_chemical_name_systematic        
'(+-)-Methyl 7\b-hydroxy-3\a-(p-tolyl)tropane-2\b-carboxylate'
_chemical_properties_biological  
'slight inhibition of ($3!H)mazindol binding and inhibition of the uptake of radiolabelled dopamine, 5-HT and norepinephrine'
_symmetry_cell_setting           monoclinic
_symmetry_space_group_name_H-M   'P 21/n'
_symmetry_Int_Tables_number      14
_space_group_name_Hall           '-P 2yn'
loop_
_symmetry_equiv_pos_site_id
_symmetry_equiv_pos_as_xyz
1 x,y,z
2 1/2-x,1/2+y,1/2-z
3 -x,-y,-z
4 1/2+x,1/2-y,1/2+z
_cell_length_a                   6.4762(4)
_cell_length_b                   10.0181(8)
_cell_length_c                   24.7351(16)
_cell_angle_alpha                90
_cell_angle_beta                 95.093(5)
_cell_angle_gamma                90
_cell_volume                     1598.46
_chemical_melting_point          118-119deg.C
_cell_formula_units_Z            4
loop_
_atom_site_label
_atom_site_type_symbol
_atom_site_fract_x
_atom_site_fract_y
_atom_site_fract_z
C1 C 0.1961(4) 0.5633(2) 0.2842(1)
C2 C 0.2037(4) 0.5938(3) 0.3460(1)
C3 C 0.3986(5) 0.5449(3) 0.3747(1)
C4 C 0.5765(12) 0.4101(10) 0.4388(4)
O1 O 0.3725(6) 0.4624(4) 0.4127(2)
O2 O 0.5665(4) 0.5758(5) 0.3643(1)
C5 C 0.1652(5) 0.7416(3) 0.3567(1)
C6 C 0.1423(5) 0.7703(3) 0.4162(1)
C7 C 0.2857(7) 0.8476(4) 0.4453(1)
C8 C 0.2642(9) 0.8794(5) 0.4989(2)
C9 C 0.1065(10) 0.8365(5) 0.5255(2)
C10 C -0.0337(8) 0.7581(7) 0.4970(2)
C11 C -0.0170(6) 0.7256(5) 0.4434(2)
C12 C 0.0819(13) 0.8728(7) 0.5841(2)
C13 C -0.0183(4) 0.7924(3) 0.3191(1)
C14 C -0.0175(4) 0.7365(3) 0.2611(1)
C15 C -0.1534(4) 0.6128(3) 0.2508(1)
C16 C -0.0110(4) 0.4943(3) 0.2654(1)
O3 O 0.0036(3) 0.4109(2) 0.2195(1)
N1 N 0.1953(3) 0.6909(2) 0.2541(1)
C17 C 0.2352(5) 0.6729(3) 0.1966(1)
H1 H 0.3139 0.5077 0.2760
H2 H 0.0903 0.5438 0.3603
H3 H 0.5508 0.3487 0.4673
H4 H 0.6587 0.4832 0.4538
H5 H 0.6495 0.3651 0.4121
H6 H 0.2882 0.7903 0.3472
H7 H 0.3996 0.8794 0.4289
H8 H 0.3644 0.9332 0.5173
H9 H -0.1453 0.7250 0.5141
H10 H -0.1177 0.6715 0.4255
H11 H 0.1950 0.9289 0.5977
H12 H 0.0816 0.7929 0.6055
H13 H -0.0466 0.9196 0.5862
H14 H -0.0135 0.8891 0.3177
H15 H -0.1465 0.7669 0.3338
H16 H -0.0591 0.8060 0.2344
H17 H -0.2684 0.6141 0.2734
H18 H -0.2080 0.6083 0.2130
H19 H -0.0618 0.4433 0.2953
H20 H -0.1094 0.3764 0.2109
H21 H 0.2331 0.7582 0.1789
H22 H 0.1298 0.6167 0.1789
H23 H 0.3684 0.6320 0.1947
loop_
_geom_bond_atom_site_label_1
_geom_bond_atom_site_label_2
_geom_bond_site_symmetry_1
_geom_bond_site_symmetry_2
C1 C2 1_555 1_555
C2 C3 1_555 1_555
C3 O1 1_555 1_555
C4 O1 1_555 1_555
O2 C3 1_555 1_555
C5 C2 1_555 1_555
C6 C5 1_555 1_555
C7 C6 1_555 1_555
C8 C7 1_555 1_555
C9 C8 1_555 1_555
C10 C9 1_555 1_555
C11 C6 1_555 1_555
C12 C9 1_555 1_555
C13 C5 1_555 1_555
C14 C13 1_555 1_555
C15 C14 1_555 1_555
C16 C1 1_555 1_555
O3 C16 1_555 1_555
N1 C1 1_555 1_555
C17 N1 1_555 1_555
H1 C1 1_555 1_555
H2 C2 1_555 1_555
H3 C4 1_555 1_555
H4 C4 1_555 1_555
H5 C4 1_555 1_555
H6 C5 1_555 1_555
H7 C7 1_555 1_555
H8 C8 1_555 1_555
H9 C10 1_555 1_555
H10 C11 1_555 1_555
H11 C12 1_555 1_555
H12 C12 1_555 1_555
H13 C12 1_555 1_555
H14 C13 1_555 1_555
H15 C13 1_555 1_555
H16 C14 1_555 1_555
H17 C15 1_555 1_555
H18 C15 1_555 1_555
H19 C16 1_555 1_555
H20 O3 1_555 1_555
H21 C17 1_555 1_555
H22 C17 1_555 1_555
H23 C17 1_555 1_555
C10 C11 1_555 1_555
C14 N1 1_555 1_555
C15 C16 1_555 1_555

#END
