
#######################################################################
#
#                 Cambridge Crystallographic Data Centre
#                                CCDC 
#
#######################################################################
#
# If this CIF has been generated from an entry in the Cambridge 
# Structural Database, then it will include bibliographic, chemical, 
# crystal, experimental, refinement or atomic coordinate data resulting 
# from the CCDC's data processing and validation procedures.
#
#######################################################################

data_IBEHAA01
_chemical_compound_source        'root bark of Periploca sepium'
_chemical_name_common            'Periploside F'
_chemical_formula_moiety         'C63 H104 O23'
_chemical_name_systematic        
20-((5-((5-((5-((5-((3,5-dihydroxy-4-methoxy-6-methyltetrahydro-2H-pyran-2-yl)oxy)-4-methoxy-6-methyltetrahydro-2H-pyran-2-yl)oxy)-4-methoxy-6-methyltetrahydro-2H-pyran-2-yl)oxy)-4-methoxy-6-methyltetrahydro-2H-pyran-2-yl)oxy)-4-methoxy-6,6'-dimethyloctahydro-6'H-spiro[pyran-2,4'-pyrano[3,4-f][1,3,5]trioxepin]-8'-yl)oxy)pregn-5-ene-3,17-diol
_symmetry_cell_setting           triclinic
_symmetry_space_group_name_H-M   'P 1'
_symmetry_Int_Tables_number      1
_space_group_name_Hall           'P 1'
loop_
_symmetry_equiv_pos_site_id
_symmetry_equiv_pos_as_xyz
1 x,y,z
_cell_length_a                   11.5223(5)
_cell_length_b                   11.5593(5)
_cell_length_c                   14.8540(6)
_cell_angle_alpha                109.544(2)
_cell_angle_beta                 94.088(2)
_cell_angle_gamma                113.055(2)
_cell_volume                     1668.16
_exptl_crystal_colour            'blackish black'
_exptl_crystal_description       needle
_cell_formula_units_Z            1
loop_
_atom_site_label
_atom_site_type_symbol
_atom_site_fract_x
_atom_site_fract_y
_atom_site_fract_z
O1 O 1.6127(3) 1.0161(3) 1.93067(19)
O2 O 1.4616(2) 0.8053(3) 1.59059(16)
O3 O 1.3932(2) 0.7174(2) 1.32659(16)
O4 O 1.3189(2) 0.5155(2) 1.19384(16)
O5 O 1.0595(2) 0.4257(2) 0.99043(19)
O6 O 1.0234(3) 0.5422(3) 0.90427(18)
O7 O 0.9509(2) 0.4340(2) 0.63742(18)
O8 O 0.7672(2) 0.2842(2) 0.51768(16)
O9 O 0.5203(2) 0.3093(2) 0.36506(15)
O10 O 0.4825(2) 0.2957(2) 0.21546(16)
O11 O 0.4218(2) 0.2494(2) -0.04054(17)
O12 O 0.2889(3) 0.0735(3) -0.18063(18)
O13 O -0.1375(3) -0.2586(3) -1.06908(18)
O14 O 1.6513(3) 0.7845(3) 1.86463(19)
H1 H 1.6998 0.7575 1.8876
O15 O 1.5135(3) 1.0358(3) 1.75878(18)
H2 H 1.4948 1.0694 1.8119
O16 O 1.2876(3) 0.5414(3) 1.4748(2)
O17 O 0.9024(2) 0.3829(3) 0.3790(2)
O18 O 0.3287(2) 0.0549(2) -0.36747(17)
H3 H 0.3797 0.0445 -0.3310
O19 O 0.3316(2) -0.0082(2) 0.10746(17)
O20 O 0.5126(2) 0.1199(2) 0.23860(16)
O21 O 0.7708(2) 0.4582(3) 0.81601(18)
O22 O 1.3896(3) 0.6158(3) 1.0485(2)
O23 O 1.6235(2) 0.7757(2) 1.66259(16)
C1 C 1.7089(6) 1.0909(7) 2.0191(4)
H4 H 1.7671 1.1802 2.0201
H5 H 1.7588 1.0404 2.0238
H6 H 1.6678 1.1042 2.0748
C2 C 1.6614(4) 0.9862(4) 1.8452(3)
H7 H 1.7276 1.0744 1.8462
C3 C 1.5461(3) 0.9296(4) 1.7605(2)
H8 H 1.4702 0.8560 1.7682
C4 C 1.5767(3) 0.8725(4) 1.6624(2)
H9 H 1.6423 0.9481 1.6486
C5 C 1.4722(4) 0.7456(4) 1.4914(2)
H10 H 1.5656 0.7825 1.4888
C6 C 1.4002(4) 0.7878(4) 1.4286(2)
H11 H 1.3102 0.7620 1.4390
C7 C 1.3280(4) 0.5732(3) 1.2950(3)
H12 H 1.2393 0.5454 1.3081
C8 C 1.2321(4) 0.5376(4) 1.1351(2)
H13 H 1.1734 0.5634 1.1753
C9 C 1.1500(4) 0.4049(4) 1.0469(3)
H14 H 1.2075 0.3787 1.0054
C10 C 1.1212(4) 0.5303(4) 0.9560(3)
H15 H 1.1762 0.5047 0.9117
C11 C 0.9718(4) 0.4473(4) 0.8039(2)
H16 H 1.0131 0.3835 0.7904
C12 C 1.0069(4) 0.5273(4) 0.7382(3)
H17 H 0.9713 0.5961 0.7544
C13 C 0.8139(4) 0.3656(3) 0.6183(2)
H18 H 0.7781 0.4341 0.6369
C14 C 0.7236(3) 0.3410(3) 0.4577(2)
H19 H 0.7621 0.4427 0.4925
C15 C 0.5764(3) 0.2799(3) 0.4399(2)
H20 H 0.5412 0.1783 0.4176
C16 C 0.5522(3) 0.2624(3) 0.2749(2)
C17 C 0.4583(3) 0.2233(3) 0.1116(2)
H21 H 0.5308 0.1994 0.0950
C18 C 0.4491(3) 0.3191(3) 0.0643(2)
H22 H 0.3770 0.3431 0.0824
C19 C 0.3001(4) 0.1321(4) -0.0795(2)
H23 H 0.2284 0.1590 -0.0666
C20 C 0.2086(4) 0.0987(4) -0.2447(3)
H24 H 0.1194 0.0681 -0.2325
C21 C 0.2029(3) 0.0047(4) -0.3481(2)
C22 C 0.1071(3) -0.0108(3) -0.4357(2)
C23 C 0.1530(3) 0.0996(3) -0.4775(2)
H25 H 0.1554 0.1851 -0.4302
H26 H 0.2421 0.1190 -0.4862
C24 C 0.0635(4) 0.0551(3) -0.5761(3)
H27 H 0.1002 0.1265 -0.6026
H28 H -0.0220 0.0493 -0.5649
C25 C 0.0430(3) -0.0829(3) -0.6536(2)
H29 H 0.1291 -0.0688 -0.6695
C26 C -0.0523(3) -0.1294(3) -0.7523(2)
C27 C -0.0762(3) -0.2730(3) -0.8209(2)
C28 C -0.1377(3) -0.3190(3) -0.9274(2)
H30 H -0.2294 -0.3349 -0.9337
H31 H -0.1369 -0.4070 -0.9656
C29 C -0.0691(3) -0.2160(3) -0.9704(2)
H32 H 0.0205 -0.2079 -0.9709
C30 C 1.7256(3) 0.8904(4) 1.8371(3)
H33 H 1.8130 0.9443 1.8836
C31 C 1.4147(4) 0.5912(4) 1.4579(3)
H34 H 1.4707 0.5665 1.4949
C32 C 1.4041(4) 0.5252(4) 1.3476(3)
H35 H 1.4917 0.5518 1.3342
H36 H 1.3596 0.4242 1.3244
C33 C 1.4641(4) 0.9378(4) 1.4493(3)
H37 H 1.5511 0.9631 1.4366
H38 H 1.4707 0.9906 1.5182
H39 H 1.4122 0.9575 1.4066
C34 C 0.7668(3) 0.3032(3) 0.3620(2)
H40 H 0.7466 0.2040 0.3361
C35 C 0.6967(3) 0.3303(4) 0.2866(2)
H41 H 0.7272 0.4302 0.3075
H42 H 0.7178 0.2954 0.2225
C36 C 0.5262(4) 0.3335(4) 0.5294(3)
H43 H 0.5656 0.4337 0.5554
H44 H 0.5489 0.3042 0.5800
H45 H 0.4317 0.2971 0.5103
C37 C 0.1574(4) -0.1444(4) -0.3562(3)
H46 H 0.2333 -0.1609 -0.3416
H47 H 0.1036 -0.1607 -0.3086
C38 C 0.0776(4) -0.2408(4) -0.4618(3)
H48 H 0.1101 -0.3089 -0.4921
H49 H -0.0153 -0.2894 -0.4632
C39 C 0.0985(3) -0.1427(3) -0.5147(2)
H50 H 0.1871 -0.1196 -0.5277
C40 C -0.0242(4) -0.0295(4) -0.4100(3)
H51 H -0.0508 -0.0966 -0.3800
H52 H -0.0896 -0.0620 -0.4700
H53 H -0.0160 0.0583 -0.3637
C41 C 0.0066(3) -0.1950(3) -0.6133(2)
H54 H -0.0841 -0.2215 -0.6043
C42 C 0.0141(3) -0.3204(3) -0.6865(2)
H55 H 0.1061 -0.3028 -0.6808
H56 H -0.0309 -0.4000 -0.6694
C43 C -0.0451(3) -0.3548(3) -0.7899(2)
H57 H -0.0621 -0.4419 -0.8374
C44 C -0.1841(3) -0.1316(4) -0.7362(3)
H58 H -0.2175 -0.1836 -0.6958
H59 H -0.2459 -0.1749 -0.7998
H60 H -0.1725 -0.0376 -0.7026
C45 C 0.0103(3) -0.0304(3) -0.8033(2)
H61 H 0.0140 0.0598 -0.7645
H62 H 0.1006 -0.0175 -0.8022
C46 C -0.0602(4) -0.0781(4) -0.9089(3)
H63 H -0.1485 -0.0842 -0.9105
H64 H -0.0130 -0.0108 -0.9363
C47 C 0.2643(4) 0.2496(4) -0.2262(3)
H65 H 0.2840 0.3040 -0.1556
H66 H 0.2008 0.2662 -0.2609
H67 H 0.3439 0.2760 -0.2501
C48 C 0.2947(4) 0.0297(4) -0.0365(3)
H68 H 0.3555 -0.0084 -0.0599
H69 H 0.2061 -0.0466 -0.0596
C49 C 0.3298(3) 0.0944(3) 0.0750(2)
H70 H 0.2605 0.1200 0.0981
C50 C 0.3765(3) 0.0383(4) 0.2097(3)
H71 H 0.3543 -0.0411 0.2282
H72 H 0.3330 0.0927 0.2445
C51 C 0.5733(4) 0.4483(4) 0.0944(3)
H73 H 0.6430 0.4251 0.0738
H74 H 0.5959 0.4973 0.1660
H75 H 0.5617 0.5066 0.0631
C52 C 0.7733(4) 0.2756(3) 0.6761(3)
H76 H 0.6775 0.2269 0.6616
H77 H 0.8072 0.2065 0.6568
C53 C 0.8266(4) 0.3642(4) 0.7846(3)
H78 H 0.8076 0.3050 0.8229
C54 C 0.6437(4) 0.3976(5) 0.8307(3)
H79 H 0.5852 0.3251 0.7685
H80 H 0.6125 0.4676 0.8540
H81 H 0.6458 0.3585 0.8797
C55 C 1.1511(4) 0.5995(5) 0.7491(3)
H82 H 1.1873 0.5333 0.7379
H83 H 1.1917 0.6708 0.8156
H84 H 1.1683 0.6413 0.7010
C56 C 1.2028(4) 0.6656(4) 1.0402(3)
H85 H 1.1470 0.6945 1.0810
H86 H 1.2470 0.7362 1.0147
C57 C 1.3041(4) 0.6511(4) 1.1030(3)
H87 H 1.3545 0.7386 1.1618
C58 C 1.4866(6) 0.7274(8) 1.0365(6)
H88 H 1.4477 0.7519 0.9893
H89 H 1.5535 0.7017 1.0120
H90 H 1.5259 0.8059 1.0998
C59 C 1.0719(5) 0.2889(5) 1.0744(4)
H91 H 1.0133 0.3130 1.1131
H92 H 1.1304 0.2714 1.1134
H93 H 1.0211 0.2066 1.0147
C60 C 1.7446(3) 0.8392(4) 1.7333(2)
H94 H 1.8065 0.9189 1.7215
C61 C 1.7962(4) 0.7334(4) 1.7143(3)
H95 H 1.7351 0.6539 1.7242
H96 H 1.8804 0.7731 1.7599
H97 H 1.8065 0.7048 1.6466
C62 C 1.2713(9) 0.4808(10) 1.5407(6)
H98 H 1.3002 0.4087 1.5213
H99 H 1.1794 0.4409 1.5420
H100 H 1.3226 0.5495 1.6063
C63 C 0.9807(10) 0.3238(12) 0.3852(10)
H101 H -0.152(4) -0.347(5) -1.107(4)
C64? C 0.9642(10) 0.3125(13) 0.3198(11)
loop_
_geom_bond_atom_site_label_1
_geom_bond_atom_site_label_2
_geom_bond_site_symmetry_1
_geom_bond_site_symmetry_2
O1 C1 1_555 1_555
O2 C4 1_555 1_555
O3 C6 1_555 1_555
O4 C7 1_555 1_555
O5 C9 1_555 1_555
O6 C10 1_555 1_555
O7 C12 1_555 1_555
O8 C13 1_555 1_555
O9 C15 1_555 1_555
O10 C16 1_555 1_555
O11 C18 1_555 1_555
O12 C19 1_555 1_555
O13 C29 1_555 1_555
O14 H1 1_555 1_555
O15 H2 1_555 1_555
O16 C31 1_555 1_555
O17 C34 1_555 1_555
O18 H3 1_555 1_555
O19 C49 1_555 1_555
O20 C16 1_555 1_555
O21 C53 1_555 1_555
O22 C57 1_555 1_555
O23 C4 1_555 1_555
C1 H4 1_555 1_555
H5 C1 1_555 1_555
H6 C1 1_555 1_555
C2 O1 1_555 1_555
H7 C2 1_555 1_555
C3 O15 1_555 1_555
H8 C3 1_555 1_555
C4 C3 1_555 1_555
H9 C4 1_555 1_555
C5 O2 1_555 1_555
H10 C5 1_555 1_555
C6 C5 1_555 1_555
H11 C6 1_555 1_555
C7 O3 1_555 1_555
H12 C7 1_555 1_555
C8 O4 1_555 1_555
H13 C8 1_555 1_555
C9 C8 1_555 1_555
H14 C9 1_555 1_555
C10 O5 1_555 1_555
H15 C10 1_555 1_555
C11 O6 1_555 1_555
H16 C11 1_555 1_555
C12 C11 1_555 1_555
H17 C12 1_555 1_555
C13 O7 1_555 1_555
H18 C13 1_555 1_555
C14 O8 1_555 1_555
H19 C14 1_555 1_555
C15 C14 1_555 1_555
H20 C15 1_555 1_555
C16 O9 1_555 1_555
C17 O10 1_555 1_555
H21 C17 1_555 1_555
C18 C17 1_555 1_555
H22 C18 1_555 1_555
C19 O11 1_555 1_555
H23 C19 1_555 1_555
C20 O12 1_555 1_555
H24 C20 1_555 1_555
C21 O18 1_555 1_555
C22 C21 1_555 1_555
C23 C22 1_555 1_555
H25 C23 1_555 1_555
H26 C23 1_555 1_555
C24 C23 1_555 1_555
H27 C24 1_555 1_555
H28 C24 1_555 1_555
C25 C24 1_555 1_555
H29 C25 1_555 1_555
C26 C25 1_555 1_555
C27 C26 1_555 1_555
C28 C27 1_555 1_555
H30 C28 1_555 1_555
H31 C28 1_555 1_555
C29 C28 1_555 1_555
H32 C29 1_555 1_555
C30 O14 1_555 1_555
H33 C30 1_555 1_555
C31 C5 1_555 1_555
H34 C31 1_555 1_555
C32 C7 1_555 1_555
H35 C32 1_555 1_555
H36 C32 1_555 1_555
C33 C6 1_555 1_555
H37 C33 1_555 1_555
H38 C33 1_555 1_555
H39 C33 1_555 1_555
C34 C14 1_555 1_555
H40 C34 1_555 1_555
C35 C16 1_555 1_555
H41 C35 1_555 1_555
H42 C35 1_555 1_555
C36 C15 1_555 1_555
H43 C36 1_555 1_555
H44 C36 1_555 1_555
H45 C36 1_555 1_555
C37 C21 1_555 1_555
H46 C37 1_555 1_555
H47 C37 1_555 1_555
C38 C37 1_555 1_555
H48 C38 1_555 1_555
H49 C38 1_555 1_555
C39 C22 1_555 1_555
H50 C39 1_555 1_555
C40 C22 1_555 1_555
H51 C40 1_555 1_555
H52 C40 1_555 1_555
H53 C40 1_555 1_555
C41 C25 1_555 1_555
H54 C41 1_555 1_555
C42 C41 1_555 1_555
H55 C42 1_555 1_555
H56 C42 1_555 1_555
C43 C27 1_555 1_555
H57 C43 1_555 1_555
C44 C26 1_555 1_555
H58 C44 1_555 1_555
H59 C44 1_555 1_555
H60 C44 1_555 1_555
C45 C26 1_555 1_555
H61 C45 1_555 1_555
H62 C45 1_555 1_555
C46 C29 1_555 1_555
H63 C46 1_555 1_555
H64 C46 1_555 1_555
C47 C20 1_555 1_555
H65 C47 1_555 1_555
H66 C47 1_555 1_555
H67 C47 1_555 1_555
C48 C19 1_555 1_555
H68 C48 1_555 1_555
H69 C48 1_555 1_555
C49 C17 1_555 1_555
H70 C49 1_555 1_555
C50 O19 1_555 1_555
H71 C50 1_555 1_555
H72 C50 1_555 1_555
C51 C18 1_555 1_555
H73 C51 1_555 1_555
H74 C51 1_555 1_555
H75 C51 1_555 1_555
C52 C13 1_555 1_555
H76 C52 1_555 1_555
H77 C52 1_555 1_555
C53 C11 1_555 1_555
H78 C53 1_555 1_555
C54 O21 1_555 1_555
H79 C54 1_555 1_555
H80 C54 1_555 1_555
H81 C54 1_555 1_555
C55 C12 1_555 1_555
H82 C55 1_555 1_555
H83 C55 1_555 1_555
H84 C55 1_555 1_555
C56 C10 1_555 1_555
H85 C56 1_555 1_555
H86 C56 1_555 1_555
C57 C8 1_555 1_555
H87 C57 1_555 1_555
C58 O22 1_555 1_555
H88 C58 1_555 1_555
H89 C58 1_555 1_555
H90 C58 1_555 1_555
C59 C9 1_555 1_555
H91 C59 1_555 1_555
H92 C59 1_555 1_555
H93 C59 1_555 1_555
C60 O23 1_555 1_555
H94 C60 1_555 1_555
C61 C60 1_555 1_555
H95 C61 1_555 1_555
H96 C61 1_555 1_555
H97 C61 1_555 1_555
C62 O16 1_555 1_555
H98 C62 1_555 1_555
H99 C62 1_555 1_555
H100 C62 1_555 1_555
C63 O17 1_555 1_555
H101 O13 1_555 1_555
O20 C50 1_555 1_555
C2 C3 1_555 1_555
C2 C30 1_555 1_555
C20 C21 1_555 1_555
C30 C60 1_555 1_555
C31 C32 1_555 1_555
C34 C35 1_555 1_555
C38 C39 1_555 1_555
C39 C41 1_555 1_555
C42 C43 1_555 1_555
C45 C46 1_555 1_555
C48 C49 1_555 1_555
C52 C53 1_555 1_555
C56 C57 1_555 1_555

#END
