
#######################################################################
#
#                 Cambridge Crystallographic Data Centre
#                                CCDC 
#
#######################################################################
#
# If this CIF has been generated from an entry in the Cambridge 
# Structural Database, then it will include bibliographic, chemical, 
# crystal, experimental, refinement or atomic coordinate data resulting 
# from the CCDC's data processing and validation procedures.
#
#######################################################################

data_IBEHOM
_chemical_formula_moiety         'C23 H37 N1 O3 Si1'
_chemical_name_systematic        
'(+-)-Methyl 7\b-(t-butyl(dimethyl)silyloxy)-3\a-(p-tolyl)tropane-2\b-carboxylate'
_chemical_properties_biological  
'derivative of compound which strongly inhibits ($3!H)mazindol binding and ($3!H)dopamine uptake'
_symmetry_cell_setting           triclinic
_symmetry_space_group_name_H-M   'P -1'
_symmetry_Int_Tables_number      2
_space_group_name_Hall           '-P 1'
loop_
_symmetry_equiv_pos_site_id
_symmetry_equiv_pos_as_xyz
1 x,y,z
2 -x,-y,-z
_cell_length_a                   10.2669(10)
_cell_length_b                   12.6820(12)
_cell_length_c                   19.634(2)
_cell_angle_alpha                107.290(7)
_cell_angle_beta                 97.536(12)
_cell_angle_gamma                90.078(10)
_cell_volume                     2417.64
_chemical_melting_point          96-97deg.C
_cell_formula_units_Z            4
loop_
_atom_site_label
_atom_site_type_symbol
_atom_site_fract_x
_atom_site_fract_y
_atom_site_fract_z
C1 C 0.7168(4) 0.2086(4) 0.7865(2)
O1 O 0.8623(2) 0.1982(2) 0.9347(2)
O2 O 0.9779(4) 0.1071(3) 0.8515(2)
C2 C 0.8503(4) 0.2576(3) 0.8322(2)
C3 C 0.9064(4) 0.1806(3) 0.8722(2)
C4 C 0.9084(7) 0.1256(5) 0.9768(3)
C5 C 0.9506(4) 0.2799(3) 0.7850(2)
C6 C 1.0611(4) 0.3613(3) 0.8292(2)
C7 C 1.0392(4) 0.4664(4) 0.8686(3)
C8 C 1.1404(5) 0.5408(4) 0.9076(3)
C9 C 1.2690(4) 0.5118(4) 0.9077(3)
C10 C 1.2902(4) 0.4073(5) 0.8682(3)
C11 C 1.1902(4) 0.3330(4) 0.8304(2)
C12 C 1.3779(6) 0.5949(6) 0.9496(4)
C13 C 0.8813(4) 0.3187(4) 0.7234(2)
C14 C 0.7469(4) 0.2596(4) 0.6901(2)
C15 C 0.6372(4) 0.3319(4) 0.7192(3)
Si1 Si 0.4416(1) 0.4056(1) 0.6407(1)
O3 O 0.5203(3) 0.3099(2) 0.6674(2)
C16 C 0.3003(4) 0.3273(3) 0.5741(2)
C17 C 0.2178(5) 0.4081(5) 0.5431(3)
C18 C 0.3504(5) 0.2408(4) 0.5121(3)
C19 C 0.2145(5) 0.2704(5) 0.6108(3)
C20 C 0.5522(5) 0.4776(4) 0.5996(3)
C21 C 0.3840(5) 0.5092(4) 0.7174(3)
C22 C 0.6170(5) 0.2995(5) 0.7849(3)
N1 N 0.7386(3) 0.1606(3) 0.7116(2)
C23 C 0.6332(5) 0.0822(4) 0.6675(3)
H1 H 0.6802 0.1523 0.8046
H2 H 0.8347 0.3278 0.8674
H3 H 0.8707 0.1455 1.0209
H4 H 1.0025 0.1328 0.9875
H5 H 0.8823 0.0505 0.9499
H6 H 0.9902 0.2096 0.7635
H7 H 0.9530 0.4889 0.8693
H8 H 1.1208 0.6115 0.9342
H9 H 1.3764 0.3851 0.8667
H10 H 1.2101 0.2618 0.8050
H11 H 1.4614 0.5617 0.9440
H12 H 1.3671 0.6183 0.9996
H13 H 1.3746 0.6578 0.9317
H14 H 0.9376 0.3068 0.6860
H15 H 0.8692 0.3975 0.7413
H16 H 0.7369 0.2409 0.6375
H17 H 0.6652 0.4101 0.7328
H18 H 0.1455 0.3680 0.5091
H19 H 0.2718 0.4438 0.5194
H20 H 0.1846 0.4627 0.5815
H21 H 0.2771 0.2016 0.4786
H22 H 0.4022 0.1898 0.5305
H23 H 0.4036 0.2767 0.4881
H24 H 0.1426 0.2305 0.5765
H25 H 0.1810 0.3247 0.6492
H26 H 0.2657 0.2198 0.6301
H27 H 0.6226 0.5163 0.6356
H28 H 0.5033 0.5294 0.5805
H29 H 0.5878 0.4244 0.5615
H30 H 0.4584 0.5477 0.7503
H31 H 0.3321 0.4728 0.7417
H32 H 0.3316 0.5610 0.7002
H33 H 0.5277 0.2710 0.7810
H34 H 0.6347 0.3621 0.8281
H35 H 0.6535 0.0539 0.6192
H36 H 0.5517 0.1192 0.6671
H37 H 0.6255 0.0223 0.6874
C24 C 0.9205(4) -0.2969(4) 0.7842(2)
O4 O 0.8326(3) -0.2901(3) 0.9366(2)
O5 O 0.6973(4) -0.3993(3) 0.8478(2)
C25 C 0.8092(3) -0.2459(3) 0.8287(2)
C26 C 0.7704(3) -0.3201(3) 0.8702(2)
C27 C 0.8003(7) -0.3543(5) 0.9826(3)
C28 C 0.6863(3) -0.2267(3) 0.7793(2)
C29 C 0.5947(3) -0.1485(3) 0.8235(2)
C30 C 0.6269(4) -0.0376(3) 0.8540(2)
C31 C 0.5440(5) 0.0328(4) 0.8938(3)
C32 C 0.4251(4) -0.0040(4) 0.9048(2)
C33 C 0.3927(4) -0.1140(5) 0.8745(3)
C34 C 0.4759(4) -0.1858(4) 0.8347(2)
C35 C 0.3329(6) 0.0748(5) 0.9475(3)
C36 C 0.7260(4) -0.1877(4) 0.7180(2)
C37 C 0.8472(4) -0.2441(3) 0.6878(2)
C38 C 0.9709(4) -0.1709(3) 0.7198(2)
C39 C 1.2385(4) -0.1672(3) 0.5781(2)
C40 C 1.2280(5) 0.0104(4) 0.7231(3)
C41 C 0.9997(5) -0.0191(4) 0.6046(3)
C42 C 1.1574(5) -0.2536(5) 0.5157(3)
C43 C 1.3434(5) -0.2254(5) 0.6143(3)
C44 C 1.3043(5) -0.0864(5) 0.5473(3)
Si2 Si 1.1308(1) -0.0914(1) 0.6451(1)
O6 O 1.0652(3) -0.1892(2) 0.6700(2)
C45 C 1.0226(5) -0.2086(5) 0.7846(3)
N2 N 0.8645(3) -0.3439(3) 0.7088(2)
C46 C 0.9509(5) -0.4213(4) 0.6658(3)
H38 H 0.9630 -0.3540 0.8026
H39 H 0.8419 -0.1746 0.8629
H40 H 0.8509 -0.3255 1.0293
H41 H 0.8204 -0.4301 0.9619
H42 H 0.7083 -0.3497 0.9870
H43 H 0.6382 -0.2981 0.7574
H44 H 0.7066 -0.0096 0.8476
H45 H 0.5692 0.1073 0.9137
H46 H 0.3127 -0.1416 0.8808
H47 H 0.4509 -0.2603 0.8152
H48 H 0.2551 0.0343 0.9494
H49 H 0.3092 0.1304 0.9245
H50 H 0.3761 0.1093 0.9955
H51 H 0.7441 -0.1085 0.7354
H52 H 0.6527 -0.2024 0.6794
H53 H 0.8348 -0.2622 0.6352
H54 H 0.9494 -0.0928 0.7351
H55 H 1.1704 0.0478 0.7565
H56 H 1.2720 0.0632 0.7067
H57 H 1.2920 -0.0272 0.7465
H58 H 0.9469 0.0185 0.6406
H59 H 0.9454 -0.0720 0.5660
H60 H 1.0390 0.0336 0.5862
H61 H 1.2139 -0.2917 0.4819
H62 H 1.0913 -0.2180 0.4922
H63 H 1.1160 -0.3057 0.5338
H64 H 1.3983 -0.2641 0.5798
H65 H 1.3018 -0.2771 0.6326
H66 H 1.3960 -0.1717 0.6532
H67 H 1.3592 -0.1260 0.5131
H68 H 1.3570 -0.0317 0.5857
H69 H 1.2381 -0.0507 0.5239
H70 H 1.0289 -0.1476 0.8288
H71 H 1.1085 -0.2393 0.7797
H72 H 0.9089 -0.4493 0.6169
H73 H 0.9674 -0.4816 0.6855
H74 H 1.0326 -0.3835 0.6670
loop_
_geom_bond_atom_site_label_1
_geom_bond_atom_site_label_2
_geom_bond_site_symmetry_1
_geom_bond_site_symmetry_2
C1 C2 1_555 1_555
O1 C3 1_555 1_555
O2 C3 1_555 1_555
C2 C3 1_555 1_555
C4 O1 1_555 1_555
C5 C2 1_555 1_555
C6 C5 1_555 1_555
C7 C6 1_555 1_555
C8 C7 1_555 1_555
C9 C8 1_555 1_555
C10 C9 1_555 1_555
C11 C6 1_555 1_555
C12 C9 1_555 1_555
C13 C5 1_555 1_555
C14 C13 1_555 1_555
C15 C14 1_555 1_555
Si1 O3 1_555 1_555
O3 C15 1_555 1_555
C16 Si1 1_555 1_555
C17 C16 1_555 1_555
C18 C16 1_555 1_555
C19 C16 1_555 1_555
C20 Si1 1_555 1_555
C21 Si1 1_555 1_555
C22 C1 1_555 1_555
N1 C1 1_555 1_555
C23 N1 1_555 1_555
C24 C25 1_555 1_555
O4 C26 1_555 1_555
O5 C26 1_555 1_555
C25 C26 1_555 1_555
C27 O4 1_555 1_555
C28 C25 1_555 1_555
C29 C28 1_555 1_555
C30 C29 1_555 1_555
C31 C30 1_555 1_555
C32 C31 1_555 1_555
C33 C32 1_555 1_555
C34 C29 1_555 1_555
C35 C32 1_555 1_555
C36 C28 1_555 1_555
C37 C36 1_555 1_555
C38 C37 1_555 1_555
C39 C42 1_555 1_555
C40 Si2 1_555 1_555
C41 Si2 1_555 1_555
C42 H61 1_555 1_555
C43 C39 1_555 1_555
C44 C39 1_555 1_555
Si2 C39 1_555 1_555
O6 C38 1_555 1_555
C45 C24 1_555 1_555
N2 C24 1_555 1_555
C46 N2 1_555 1_555
H1 C1 1_555 1_555
H2 C2 1_555 1_555
H3 C4 1_555 1_555
H4 C4 1_555 1_555
H5 C4 1_555 1_555
H6 C5 1_555 1_555
H7 C7 1_555 1_555
H8 C8 1_555 1_555
H9 C10 1_555 1_555
H10 C11 1_555 1_555
H11 C12 1_555 1_555
H12 C12 1_555 1_555
H13 C12 1_555 1_555
H14 C13 1_555 1_555
H15 C13 1_555 1_555
H16 C14 1_555 1_555
H17 C15 1_555 1_555
H18 C17 1_555 1_555
H19 C17 1_555 1_555
H20 C17 1_555 1_555
H21 C18 1_555 1_555
H22 C18 1_555 1_555
H23 C18 1_555 1_555
H24 C19 1_555 1_555
H25 C19 1_555 1_555
H26 C19 1_555 1_555
H27 C20 1_555 1_555
H28 C20 1_555 1_555
H29 C20 1_555 1_555
H30 C21 1_555 1_555
H31 C21 1_555 1_555
H32 C21 1_555 1_555
H33 C22 1_555 1_555
H34 C22 1_555 1_555
H35 C23 1_555 1_555
H36 C23 1_555 1_555
H37 C23 1_555 1_555
H38 C24 1_555 1_555
H39 C25 1_555 1_555
H40 C27 1_555 1_555
H41 C27 1_555 1_555
H42 C27 1_555 1_555
H43 C28 1_555 1_555
H44 C30 1_555 1_555
H45 C31 1_555 1_555
H46 C33 1_555 1_555
H47 C34 1_555 1_555
H48 C35 1_555 1_555
H49 C35 1_555 1_555
H50 C35 1_555 1_555
H51 C36 1_555 1_555
H52 C36 1_555 1_555
H53 C37 1_555 1_555
H54 C38 1_555 1_555
H55 C40 1_555 1_555
H56 C40 1_555 1_555
H57 C40 1_555 1_555
H58 C41 1_555 1_555
H59 C41 1_555 1_555
H60 C41 1_555 1_555
H62 C42 1_555 1_555
H63 C42 1_555 1_555
H64 C43 1_555 1_555
H65 C43 1_555 1_555
H66 C43 1_555 1_555
H67 C44 1_555 1_555
H68 C44 1_555 1_555
H69 C44 1_555 1_555
H70 C45 1_555 1_555
H71 C45 1_555 1_555
H72 C46 1_555 1_555
H73 C46 1_555 1_555
H74 C46 1_555 1_555
C10 C11 1_555 1_555
C14 N1 1_555 1_555
C15 C22 1_555 1_555
C33 C34 1_555 1_555
C37 N2 1_555 1_555
C38 C45 1_555 1_555
Si2 O6 1_555 1_555

#END
