
#######################################################################
#
#                 Cambridge Crystallographic Data Centre
#                                CCDC 
#
#######################################################################
#
# If this CIF has been generated from an entry in the Cambridge 
# Structural Database, then it will include bibliographic, chemical, 
# crystal, experimental, refinement or atomic coordinate data resulting 
# from the CCDC's data processing and validation procedures.
#
#######################################################################

data_IBEHAA
_chemical_compound_source        'Periploca sepium'
_chemical_name_common            'Periploside F'
_chemical_formula_moiety         'C63 H104 O23'
_chemical_name_systematic        
20-((5-((5-((5-((5-((3,5-Dihydroxy-4-methoxy-6-methyltetrahydro-2H-pyran-2-yl)oxy)-4-methoxy-6-methyltetrahydro-2H-pyran-2-yl)oxy)-4-methoxy-6-methyltetrahydro-2H-pyran-2-yl)oxy)-4-methoxy-6-methyltetrahydro-2H-pyran-2-yl)oxy)-4-methoxy-6,6'-dimethyloctahydro-6'H-spiro[pyran-2,4'-pyrano[3,4-f][1,3,5]trioxepin]-8'-yl)oxy)pregn-5-ene-3,17-diol
_chemical_properties_biological  
'Tested for immunosuppressive activity: showed significant activity against the proliferation of T lymphocytes in vitro'
_symmetry_cell_setting           triclinic
_symmetry_space_group_name_H-M   'P 1'
_symmetry_Int_Tables_number      1
_space_group_name_Hall           'P 1'
loop_
_symmetry_equiv_pos_site_id
_symmetry_equiv_pos_as_xyz
1 x,y,z
_cell_length_a                   11.5609(13)
_cell_length_b                   11.6537(12)
_cell_length_c                   14.7887(16)
_cell_angle_alpha                94.035(2)
_cell_angle_beta                 109.436(2)
_cell_angle_gamma                112.512(2)
_cell_volume                     1690.41
_exptl_crystal_colour            colorless
_exptl_crystal_description       prismatic
_cell_formula_units_Z            1
loop_
_atom_site_label
_atom_site_type_symbol
_atom_site_fract_x
_atom_site_fract_y
_atom_site_fract_z
O1 O 1.5216(4) 1.4229(4) 1.6147(2)
H1 H 1.6042 1.4493 1.6433
O2 O 1.2122(4) 0.9583(3) 0.9167(2)
H2 H 1.2366 0.9128 0.8902
O3 O 1.1877(4) 0.9910(4) 0.7269(2)
O4 O 1.0164(4) 0.8611(3) 0.5882(2)
O5 O 1.2728(3) 0.9495(3) 0.4396(2)
O6 O 1.1486(3) 0.7742(3) 0.3081(2)
O7 O 0.9724(3) 0.8024(3) 0.3313(2)
O8 O 0.9609(3) 0.7666(3) 0.1819(2)
O9 O 0.8835(4) 0.3902(3) 0.1675(3)
O10 O 0.9835(3) 0.5228(3) 0.0275(2)
O11 O 0.8339(4) 0.3413(4) -0.0894(2)
O12 O 0.8058(4) 0.5122(4) -0.2718(2)
O13 O 0.7240(3) 0.2638(4) -0.3557(2)
O14 O 0.8392(4) 0.2263(3) -0.4422(3)
O15 O 0.6534(5) -0.0966(4) -0.4978(3)
O16 O 0.7519(4) -0.0292(4) -0.6443(2)
O17 O 0.5505(3) -0.1043(3) -0.7778(2)
O18 O 0.7254(4) -0.0031(4) -0.9279(3)
O19 O 0.4637(4) -0.1752(3) -1.0426(2)
O20 O 0.4941(3) -0.3344(3) -1.1127(2)
O21 O 0.2308(4) -0.2286(4) -1.2088(3)
H3 H 0.2008 -0.2066 -1.2596
O22 O 0.2428(6) -0.3331(4) -1.3793(3)
O23 O 0.4775(5) -0.3668(4) -1.3164(3)
H4 H 0.5238 -0.4049 -1.3179
C1 C 1.2947(5) 1.2763(6) 1.3478(4)
H5 H 1.2831 1.1892 1.3468
H6 H 1.2064 1.2730 1.3101
C2 C 1.3421(5) 1.3457(6) 1.4553(4)
H7 H 1.3452 1.4302 1.4571
H8 H 1.2781 1.2988 1.4832
C3 C 1.4793(5) 1.3559(5) 1.5141(3)
H9 H 1.4733 1.2698 1.5147
C4 C 1.5787(5) 1.4227(5) 1.4708(3)
H10 H 1.6656 1.4234 1.5087
H11 H 1.5916 1.5105 1.4759
C5 C 1.5352(5) 1.3621(4) 1.3646(3)
C6 C 1.6164(5) 1.3325(5) 1.3333(4)
H12 H 1.7016 1.3490 1.3798
C7 C 1.5832(5) 1.2746(5) 1.2291(3)
H13 H 1.5693 1.1864 1.2239
H14 H 1.6597 1.3196 1.2117
C8 C 1.4571(5) 1.2792(4) 1.1569(3)
H15 H 1.4803 1.3661 1.1469
C9 C 1.3467(4) 1.2432(4) 1.1982(3)
H16 H 1.3348 1.1605 1.2146
C10 C 1.3911(5) 1.3374(5) 1.2964(3)
C11 C 1.2079(5) 1.2218(5) 1.1208(4)
H17 H 1.1389 1.1869 1.1475
H18 H 1.2118 1.3036 1.1083
C12 C 1.1654(5) 1.1325(5) 1.0235(3)
H19 H 1.1490 1.0474 1.0338
H20 H 1.0812 1.1285 0.9768
C13 C 1.2732(5) 1.1768(4) 0.9814(3)
C14 C 1.4053(5) 1.1877(5) 1.0578(3)
H21 H 1.3849 1.1029 1.0721
C15 C 1.5008(5) 1.2063(5) 1.0049(3)
H22 H 1.5685 1.1760 1.0356
H23 H 1.5466 1.2954 1.0045
C16 C 1.4063(5) 1.1259(6) 0.9003(4)
H24 H 1.4246 1.0533 0.8872
H25 H 1.4199 1.1766 0.8523
C17 C 1.2594(5) 1.0807(5) 0.8944(3)
C18 C 1.2867(6) 1.3024(5) 0.9509(4)
H26 H 1.1989 1.2935 0.9084
H27 H 1.3468 1.3239 0.9166
H28 H 1.3229 1.3689 1.0085
C19 C 1.3904(6) 1.4648(5) 1.2784(4)
H29 H 1.4357 1.5263 1.3400
H30 H 1.2981 1.4536 1.2483
H31 H 1.4368 1.4944 1.2356
C20 C 1.1622(6) 1.0704(6) 0.7907(4)
H32 H 1.1888 1.1554 0.7763
C21 C 1.0131(6) 1.0150(7) 0.7741(4)
H33 H 0.9597 1.0067 0.7065
H34 H 0.9986 1.0705 0.8158
H35 H 0.9866 0.9326 0.7896
C22 C 1.1319(6) 0.9806(5) 0.6262(3)
H36 H 1.1046 1.0495 0.6128
C23 C 1.2351(6) 0.9870(6) 0.5849(3)
H37 H 1.2737 0.9289 0.6087
H38 H 1.3081 1.0727 0.6071
C24 C 1.1702(5) 0.9512(5) 0.4714(3)
H39 H 1.1444 1.0180 0.4480
C25 C 1.0449(5) 0.8273(4) 0.4362(3)
H40 H 1.0696 0.7576 0.4529
C26 C 0.9494(5) 0.8349(4) 0.4829(3)
H41 H 0.9254 0.9046 0.4651
C27 C 0.8216(6) 0.7146(6) 0.4537(4)
H42 H 0.8437 0.6476 0.4763
H43 H 0.7757 0.6912 0.3833
H44 H 0.7634 0.7279 0.4826
C28 C 1.2278(5) 0.9072(5) 0.3381(3)
H45 H 1.3057 0.9295 0.3200
H46 H 1.1742 0.9495 0.3043
C29 C 1.0059(5) 0.7336(4) 0.2706(3)
C30 C 0.9405(5) 0.5930(4) 0.2610(3)
H47 H 0.8435 0.5640 0.2426
H48 H 0.9772 0.5734 0.3240
C31 C 0.9653(5) 0.5231(4) 0.1838(3)
H49 H 1.0614 0.5397 0.2084
C32 C 0.9282(5) 0.5671(5) 0.0878(3)
H50 H 0.8291 0.5314 0.0540
C33 C 0.9887(5) 0.7105(5) 0.1060(3)
H51 H 1.0875 0.7429 0.1274
C34 C 0.9370(7) 0.7613(5) 0.0168(4)
H52 H 0.8403 0.7315 -0.0048
H53 H 0.9579 0.7316 -0.0352
H54 H 0.9800 0.8528 0.0341
C35 C 0.9330(18) 0.3030(15) 0.1453(14)
H55 H 1.0131 0.3154 0.2005
H56 H 0.9550 0.3169 0.0887
H57 H 0.8646 0.2175 0.1317
C36 C 0.9008(5) 0.4748(5) -0.0730(3)
H58 H 0.8338 0.5099 -0.0916
C37 C 0.9883(5) 0.5113(5) -0.1317(4)
H59 H 1.0557 0.4778 -0.1125
H60 H 1.0356 0.6034 -0.1190
C38 C 0.8993(5) 0.4574(6) -0.2400(4)
H61 H 0.9562 0.4741 -0.2784
C39 C 0.8194(5) 0.3164(5) -0.2562(3)
H62 H 0.8823 0.2765 -0.2426
C40 C 0.7426(6) 0.2852(5) -0.1892(4)
H63 H 0.6753 0.3202 -0.2057
C41 C 0.6703(7) 0.1436(6) -0.1985(5)
H64 H 0.7317 0.1057 -0.1955
H65 H 0.5935 0.1061 -0.2603
H66 H 0.6398 0.1289 -0.1456
C42 C 0.8664(8) 0.6392(6) -0.2842(5)
H67 H 0.9095 0.6983 -0.2215
H68 H 0.7974 0.6585 -0.3281
H69 H 0.9330 0.6463 -0.3112
C43 C 0.7385(5) 0.1692(5) -0.4064(4)
H70 H 0.7644 0.1166 -0.3622
C44 C 0.6030(5) 0.0877(5) -0.4903(4)
H71 H 0.5732 0.1409 -0.5308
H72 H 0.5350 0.0452 -0.4643
C45 C 0.6193(5) -0.0111(5) -0.5521(4)
H73 H 0.5338 -0.0595 -0.6094
C46 C 0.7296(5) 0.0571(5) -0.5868(3)
H74 H 0.7041 0.1138 -0.6267
C47 C 0.8598(5) 0.1356(5) -0.4995(4)
H75 H 0.8851 0.0795 -0.4588
C48 C 0.9740(7) 0.2100(7) -0.5284(5)
H76 H 0.9469 0.2602 -0.5724
H77 H 0.9967 0.1524 -0.5608
H78 H 1.0519 0.2653 -0.4707
C49 C 0.5464(12) -0.1963(9) -0.4838(10)
H79 H 0.5022 -0.1603 -0.4538
H80 H 0.5832 -0.2435 -0.4418
H81 H 0.4816 -0.2523 -0.5463
C50 C 0.6932(5) -0.0398(5) -0.7473(3)
H82 H 0.7183 0.0453 -0.7613
C51 C 0.7442(6) -0.1133(6) -0.7982(4)
H83 H 0.7228 -0.1963 -0.7823
H84 H 0.8422 -0.0680 -0.7768
C52 C 0.6747(6) -0.1289(6) -0.9106(4)
H85 H 0.6986 -0.1843 -0.9465
C53 C 0.5255(5) -0.1821(5) -0.9413(3)
H86 H 0.4909 -0.2718 -0.9371
C54 C 0.4795(5) -0.1137(5) -0.8823(3)
H87 H 0.5023 -0.0275 -0.8941
C55 C 0.3323(6) -0.1767(7) -0.9003(4)
H88 H 0.3111 -0.2580 -0.8831
H89 H 0.2789 -0.1886 -0.9687
H90 H 0.3121 -0.1241 -0.8609
C56 C 0.7859(13) 0.0125(12) -0.9938(8)
H91 H 0.8648 -0.0039 -0.9696
H92 H 0.8127 0.0984 -1.0026
H93 H 0.7230 -0.0459 -1.0558
C57 C 0.3977(5) -0.2874(5) -1.1121(3)
H94 H 0.3258 -0.3496 -1.0965
C58 C 0.3372(6) -0.2614(5) -1.2109(3)
H95 H 0.4069 -0.1896 -1.2216
C59 C 0.2808(6) -0.3763(5) -1.2918(4)
H96 H 0.1981 -0.4401 -1.2885
C60 C 0.3776(6) -0.4363(5) -1.2852(4)
H97 H 0.3252 -0.5213 -1.3294
C61 C 0.4318(5) -0.4532(4) -1.1814(3)
H98 H 0.3555 -0.5120 -1.1680
C62 C 0.5368(6) -0.5051(6) -1.1633(4)
H99 H 0.6186 -0.4419 -1.1650
H100 H 0.5024 -0.5803 -1.2135
H101 H 0.5563 -0.5261 -1.1000
C63 C 0.1636(12) -0.4332(9) -1.4654(5)
H102 H 0.2061 -0.4897 -1.4654
H103 H 0.1569 -0.3979 -1.5226
H104 H 0.0742 -0.4798 -1.4664
C64? C 0.947(2) 0.3265(17) 0.2192(18)
H105? H 0.9032 0.2387 0.1847
H106? H 0.9414 0.3318 0.2827
H107? H 1.0401 0.3632 0.2271
loop_
_geom_bond_atom_site_label_1
_geom_bond_atom_site_label_2
_geom_bond_site_symmetry_1
_geom_bond_site_symmetry_2
O1 H1 1_555 1_555
O2 H2 1_555 1_555
O3 C20 1_555 1_555
O4 C22 1_555 1_555
O5 C24 1_555 1_555
O6 C28 1_555 1_555
O7 C25 1_555 1_555
O8 C29 1_555 1_555
O9 C31 1_555 1_555
O10 C32 1_555 1_555
O11 C36 1_555 1_555
O12 C38 1_555 1_555
O13 C39 1_555 1_555
O14 C43 1_555 1_555
O15 C45 1_555 1_555
O16 C46 1_555 1_555
O17 C50 1_555 1_555
O18 C52 1_555 1_555
O19 C53 1_555 1_555
O20 C57 1_555 1_555
O21 H3 1_555 1_555
O22 C59 1_555 1_555
O23 H4 1_555 1_555
C1 H5 1_555 1_555
H6 C1 1_555 1_555
C2 C1 1_555 1_555
H7 C2 1_555 1_555
H8 C2 1_555 1_555
C3 O1 1_555 1_555
H9 C3 1_555 1_555
C4 C3 1_555 1_555
H10 C4 1_555 1_555
H11 C4 1_555 1_555
C5 C4 1_555 1_555
C6 C5 1_555 1_555
H12 C6 1_555 1_555
C7 C6 1_555 1_555
H13 C7 1_555 1_555
H14 C7 1_555 1_555
C8 C7 1_555 1_555
H15 C8 1_555 1_555
C9 C8 1_555 1_555
H16 C9 1_555 1_555
C10 C1 1_555 1_555
C11 C9 1_555 1_555
H17 C11 1_555 1_555
H18 C11 1_555 1_555
C12 C11 1_555 1_555
H19 C12 1_555 1_555
H20 C12 1_555 1_555
C13 C12 1_555 1_555
C14 C8 1_555 1_555
H21 C14 1_555 1_555
C15 C14 1_555 1_555
H22 C15 1_555 1_555
H23 C15 1_555 1_555
C16 C15 1_555 1_555
H24 C16 1_555 1_555
H25 C16 1_555 1_555
C17 O2 1_555 1_555
C18 C13 1_555 1_555
H26 C18 1_555 1_555
H27 C18 1_555 1_555
H28 C18 1_555 1_555
C19 C10 1_555 1_555
H29 C19 1_555 1_555
H30 C19 1_555 1_555
H31 C19 1_555 1_555
C20 C17 1_555 1_555
H32 C20 1_555 1_555
C21 C20 1_555 1_555
H33 C21 1_555 1_555
H34 C21 1_555 1_555
H35 C21 1_555 1_555
C22 O3 1_555 1_555
H36 C22 1_555 1_555
C23 C22 1_555 1_555
H37 C23 1_555 1_555
H38 C23 1_555 1_555
C24 C23 1_555 1_555
H39 C24 1_555 1_555
C25 C24 1_555 1_555
H40 C25 1_555 1_555
C26 O4 1_555 1_555
H41 C26 1_555 1_555
C27 C26 1_555 1_555
H42 C27 1_555 1_555
H43 C27 1_555 1_555
H44 C27 1_555 1_555
C28 O5 1_555 1_555
H45 C28 1_555 1_555
H46 C28 1_555 1_555
C29 O6 1_555 1_555
C30 C29 1_555 1_555
H47 C30 1_555 1_555
H48 C30 1_555 1_555
C31 C30 1_555 1_555
H49 C31 1_555 1_555
C32 C31 1_555 1_555
H50 C32 1_555 1_555
C33 O8 1_555 1_555
H51 C33 1_555 1_555
C34 C33 1_555 1_555
H52 C34 1_555 1_555
H53 C34 1_555 1_555
H54 C34 1_555 1_555
C35 O9 1_555 1_555
H55 C35 1_555 1_555
H56 C35 1_555 1_555
H57 C35 1_555 1_555
C36 O10 1_555 1_555
H58 C36 1_555 1_555
C37 C36 1_555 1_555
H59 C37 1_555 1_555
H60 C37 1_555 1_555
C38 C37 1_555 1_555
H61 C38 1_555 1_555
C39 C38 1_555 1_555
H62 C39 1_555 1_555
C40 O11 1_555 1_555
H63 C40 1_555 1_555
C41 C40 1_555 1_555
H64 C41 1_555 1_555
H65 C41 1_555 1_555
H66 C41 1_555 1_555
C42 O12 1_555 1_555
H67 C42 1_555 1_555
H68 C42 1_555 1_555
H69 C42 1_555 1_555
C43 O13 1_555 1_555
H70 C43 1_555 1_555
C44 C43 1_555 1_555
H71 C44 1_555 1_555
H72 C44 1_555 1_555
C45 C44 1_555 1_555
H73 C45 1_555 1_555
C46 C45 1_555 1_555
H74 C46 1_555 1_555
C47 O14 1_555 1_555
H75 C47 1_555 1_555
C48 C47 1_555 1_555
H76 C48 1_555 1_555
H77 C48 1_555 1_555
H78 C48 1_555 1_555
C49 O15 1_555 1_555
H79 C49 1_555 1_555
H80 C49 1_555 1_555
H81 C49 1_555 1_555
C50 O16 1_555 1_555
H82 C50 1_555 1_555
C51 C50 1_555 1_555
H83 C51 1_555 1_555
H84 C51 1_555 1_555
C52 C51 1_555 1_555
H85 C52 1_555 1_555
C53 C52 1_555 1_555
H86 C53 1_555 1_555
C54 O17 1_555 1_555
H87 C54 1_555 1_555
C55 C54 1_555 1_555
H88 C55 1_555 1_555
H89 C55 1_555 1_555
H90 C55 1_555 1_555
C56 O18 1_555 1_555
H91 C56 1_555 1_555
H92 C56 1_555 1_555
H93 C56 1_555 1_555
C57 O19 1_555 1_555
H94 C57 1_555 1_555
C58 O21 1_555 1_555
H95 C58 1_555 1_555
C59 C58 1_555 1_555
H96 C59 1_555 1_555
C60 O23 1_555 1_555
H97 C60 1_555 1_555
C61 O20 1_555 1_555
H98 C61 1_555 1_555
C62 C61 1_555 1_555
H99 C62 1_555 1_555
H100 C62 1_555 1_555
H101 C62 1_555 1_555
C63 O22 1_555 1_555
H102 C63 1_555 1_555
H103 C63 1_555 1_555
H104 C63 1_555 1_555
O7 C29 1_555 1_555
C2 C3 1_555 1_555
C5 C10 1_555 1_555
C9 C10 1_555 1_555
C13 C14 1_555 1_555
C13 C17 1_555 1_555
C16 C17 1_555 1_555
C25 C26 1_555 1_555
C32 C33 1_555 1_555
C39 C40 1_555 1_555
C46 C47 1_555 1_555
C53 C54 1_555 1_555
C57 C58 1_555 1_555
C59 C60 1_555 1_555
C60 C61 1_555 1_555

#END
