
#######################################################################
#
#                 Cambridge Crystallographic Data Centre
#                                CCDC 
#
#######################################################################
#
# If this CIF has been generated from an entry in the Cambridge 
# Structural Database, then it will include bibliographic, chemical, 
# crystal, experimental, refinement or atomic coordinate data resulting 
# from the CCDC's data processing and validation procedures.
#
#######################################################################

data_IBENIP
_chemical_formula_moiety         'C29 H24 O3'
_chemical_name_systematic        2,7-bis(4-ethoxyphenyl)-9H-fluoren-9-one
_symmetry_cell_setting           orthorhombic
_symmetry_space_group_name_H-M   'P n m a'
_symmetry_Int_Tables_number      62
_space_group_name_Hall           '-P 2ac 2n'
loop_
_symmetry_equiv_pos_site_id
_symmetry_equiv_pos_as_xyz
1 x,y,z
2 1/2-x,-y,1/2+z
3 1/2+x,1/2-y,1/2-z
4 -x,1/2+y,-z
5 -x,-y,-z
6 1/2+x,y,1/2-z
7 1/2-x,1/2+y,1/2+z
8 x,1/2-y,z
_cell_length_a                   11.5953(17)
_cell_length_b                   7.1473(18)
_cell_length_c                   26.346(3)
_cell_angle_alpha                90
_cell_angle_beta                 90
_cell_angle_gamma                90
_cell_volume                     2183.43
_exptl_crystal_colour            orange
_exptl_crystal_description       block
_cell_formula_units_Z            4
loop_
_atom_site_label
_atom_site_type_symbol
_atom_site_fract_x
_atom_site_fract_y
_atom_site_fract_z
O1 O 0.8276(6) 0.2500 0.5229(3)
O2 O 0.6738(6) 0.2500 0.1783(2)
O3 O 0.6476(6) 0.2500 0.8653(2)
C1 C 0.7246(8) 0.2500 0.5222(4)
C2 C 0.6456(8) 0.2500 0.5674(3)
C3 C 0.6703(8) 0.2500 0.6186(3)
H1 H 0.7462 0.2500 0.6299
C4 C 0.5780(7) 0.2500 0.6533(3)
C5 C 0.4639(7) 0.2500 0.6343(3)
H2 H 0.4027 0.2500 0.6571
C6 C 0.4409(8) 0.2500 0.5834(3)
H3 H 0.3651 0.2500 0.5718
C7 C 0.5311(7) 0.2500 0.5495(3)
C8 C 0.5336(7) 0.2500 0.4930(3)
C9 C 0.4458(8) 0.2500 0.4587(3)
H4 H 0.3695 0.2500 0.4696
C10 C 0.4714(8) 0.2500 0.4075(3)
H5 H 0.4114 0.2500 0.3841
C11 C 0.5863(8) 0.2500 0.3896(3)
C12 C 0.6742(8) 0.2500 0.4257(3)
H6 H 0.7510 0.2500 0.4154
C13 C 0.6473(8) 0.2500 0.4767(3)
C14 C 0.5975(7) 0.2500 0.7089(3)
C15 C 0.6906(10) 0.333(2) 0.7307(4)
H7 H 0.7462 0.3877 0.7100
C16 C 0.7051(10) 0.347(2) 0.7822(4)
H8 H 0.7673 0.4123 0.7959
C17 C 0.6249(8) 0.2500 0.8142(3)
C18 C 0.5307(10) 0.170(2) 0.7949(4)
H9 H 0.4745 0.1205 0.8162
C19 C 0.5180(10) 0.162(2) 0.7422(4)
H10 H 0.4571 0.0936 0.7287
C20 C 0.5680(10) 0.2500 0.9006(4)
H11 H 0.5197 0.1407 0.8956
C21 C 0.6081(12) 0.2500 0.9534(4)
C22 C 0.6086(8) 0.2500 0.3348(3)
C23 C 0.7093(10) 0.166(2) 0.3133(4)
H12 H 0.7622 0.1069 0.3344
C24 C 0.7281(11) 0.170(2) 0.2612(4)
H13 H 0.7955 0.1191 0.2479
C25 C 0.6465(8) 0.2500 0.2294(3)
C26 C 0.5476(10) 0.316(2) 0.2487(4)
H14 H 0.4909 0.3585 0.2265
C27 C 0.5284(10) 0.327(2) 0.3006(4)
H15 H 0.4630 0.3869 0.3129
C28 C 0.5927(12) 0.2500 0.1438(4)
H16 H 0.5446 0.3594 0.1490
C29 C 0.6328(13) 0.2500 0.0907(4)
C15G C 0.6906(10) 0.167(2) 0.7307(4)
H7G H 0.7462 0.1123 0.7100
C16G C 0.7051(10) 0.153(2) 0.7822(4)
H8G H 0.7673 0.0877 0.7959
C18G C 0.5307(10) 0.330(2) 0.7949(4)
H9G H 0.4745 0.3795 0.8162
C19G C 0.5180(10) 0.338(2) 0.7422(4)
H10G H 0.4571 0.4064 0.7287
H11G H 0.5197 0.3593 0.8956
C23G C 0.7093(10) 0.334(2) 0.3133(4)
H12G H 0.7622 0.3931 0.3344
C24G C 0.7281(11) 0.330(2) 0.2612(4)
H13G H 0.7955 0.3809 0.2479
C26G C 0.5476(10) 0.184(2) 0.2487(4)
H14G H 0.4909 0.1415 0.2265
C27G C 0.5284(10) 0.173(2) 0.3006(4)
H15G H 0.4630 0.1131 0.3129
H16G H 0.5446 0.1406 0.1490
H17? H 0.5197 0.1407 0.8956
H18? H 0.5446 0.3594 0.1490
H19? H 0.6942 0.3390 0.0869
H20? H 0.5701 0.2835 0.0687
H21? H 0.6602 0.1275 0.0819
H22? H 0.6621 0.1498 0.9583
H23? H 0.5435 0.2330 0.9757
H24? H 0.6449 0.3672 0.9608
loop_
_geom_bond_atom_site_label_1
_geom_bond_atom_site_label_2
_geom_bond_site_symmetry_1
_geom_bond_site_symmetry_2
O1 C1 1_555 1_555
O2 C25 1_555 1_555
O3 C17 1_555 1_555
C1 C2 1_555 1_555
C2 C3 1_555 1_555
C3 H1 1_555 1_555
C4 C3 1_555 1_555
C5 C4 1_555 1_555
H2 C5 1_555 1_555
C6 C5 1_555 1_555
H3 C6 1_555 1_555
C7 C2 1_555 1_555
C8 C7 1_555 1_555
C9 C8 1_555 1_555
H4 C9 1_555 1_555
C10 C9 1_555 1_555
H5 C10 1_555 1_555
C11 C10 1_555 1_555
C12 C11 1_555 1_555
H6 C12 1_555 1_555
C13 C1 1_555 1_555
C14 C4 1_555 1_555
C15 C14 1_555 1_555
H7 C15 1_555 1_555
C16 C15 1_555 1_555
H8 C16 1_555 1_555
C17 C16 1_555 1_555
C18 C17 1_555 1_555
H9 C18 1_555 1_555
C19 C14 1_555 1_555
H10 C19 1_555 1_555
C20 O3 1_555 1_555
H11 C20 1_555 1_555
C21 C20 1_555 1_555
C22 C11 1_555 1_555
C23 C22 1_555 1_555
H12 C23 1_555 1_555
C24 C23 1_555 1_555
H13 C24 1_555 1_555
C25 C24 1_555 1_555
C26 C25 1_555 1_555
H14 C26 1_555 1_555
C27 C22 1_555 1_555
H15 C27 1_555 1_555
C28 O2 1_555 1_555
H16 C28 1_555 1_555
C29 C28 1_555 1_555
C15G C14 1_555 1_555
H7G C15G 1_555 1_555
C16G C16 1_555 1_555
H8G C16G 1_555 1_555
C18G C17 1_555 1_555
H9G C18G 1_555 1_555
C19G C14 1_555 1_555
H10G C19G 1_555 1_555
H11G C20 1_555 1_555
C23G C22 1_555 1_555
H12G C23G 1_555 1_555
C24G C24 1_555 1_555
H13G C24G 1_555 1_555
C26G C25 1_555 1_555
H14G C26G 1_555 1_555
C27G C22 1_555 1_555
H15G C27G 1_555 1_555
H16G C28 1_555 1_555
C6 C7 1_555 1_555
C8 C13 1_555 1_555
C12 C13 1_555 1_555
C15 C15G 1_555 1_555
C17 C16G 1_555 1_555
C18 C19 1_555 1_555
C18 C18G 1_555 1_555
C19 C19G 1_555 1_555
C23 C23G 1_555 1_555
C25 C24G 1_555 1_555
C26 C27 1_555 1_555
C26 C26G 1_555 1_555
C26 C27G 1_555 1_555
C27 C26G 1_555 1_555
C27 C27G 1_555 1_555
C15G C16G 1_555 1_555
C18G C19G 1_555 1_555
C23G C24G 1_555 1_555
C26G C27G 1_555 1_555

#END
