
#######################################################################
#
#                 Cambridge Crystallographic Data Centre
#                                CCDC 
#
#######################################################################
#
# If this CIF has been generated from an entry in the Cambridge 
# Structural Database, then it will include bibliographic, chemical, 
# crystal, experimental, refinement or atomic coordinate data resulting 
# from the CCDC's data processing and validation procedures.
#
#######################################################################

data_IBEQEN
_chemical_name_common            
Phenyl((1R*,5R*,6R*)-6-styryl-3-tosyl-3-azabicyclo[3.1.0]hexan-1-yl)methanone
_chemical_formula_moiety         'C27 H25 N1 O3 S1'
_chemical_name_systematic        
((1R*,5R*,6R*)-3-((4-Methylphenyl)sulfonyl)-6-(2-phenylvinyl)-3-azabicyclo[3.1.0]hex-1-yl)(phenyl)methanone
_symmetry_cell_setting           monoclinic
_symmetry_space_group_name_H-M   'P 21/c'
_symmetry_Int_Tables_number      14
_space_group_name_Hall           '-P 2ybc'
loop_
_symmetry_equiv_pos_site_id
_symmetry_equiv_pos_as_xyz
1 x,y,z
2 -x,1/2+y,1/2-z
3 -x,-y,-z
4 x,1/2-y,1/2+z
_cell_length_a                   12.7395(4)
_cell_length_b                   5.5981(2)
_cell_length_c                   32.0262(11)
_cell_angle_alpha                90
_cell_angle_beta                 96.383(1)
_cell_angle_gamma                90
_cell_volume                     2269.85
_exptl_crystal_colour            colorless
_exptl_crystal_description       needle
_chemical_melting_point          '163-166 deg.C'
_cell_formula_units_Z            4
loop_
_atom_site_label
_atom_site_type_symbol
_atom_site_fract_x
_atom_site_fract_y
_atom_site_fract_z
S1 S 0.22865(4) 0.50150(10) -0.002812(18)
O1 O 0.30855(13) 0.6519(3) 0.01772(5)
O2 O 0.13812(13) 0.6016(3) -0.02691(5)
O3 O 0.19059(12) -0.2860(3) 0.12499(5)
N1 N 0.18418(12) 0.3410(3) 0.03367(5)
C1 C 0.4183(3) -0.2614(5) -0.10383(10)
H1 H 0.3640 -0.3284 -0.1236
H2 H 0.4442 -0.3817 -0.0839
H3 H 0.4752 -0.2050 -0.1185
C2 C 0.3737(2) -0.0569(4) -0.08111(8)
C3 C 0.2684(2) 0.0051(5) -0.08941(8)
H4 H 0.2262 -0.0742 -0.1106
C4 C 0.22483(18) 0.1823(5) -0.06691(7)
H5 H 0.1539 0.2217 -0.0729
C5 C 0.28674(16) 0.3006(4) -0.03550(6)
C6 C 0.39268(17) 0.2459(4) -0.02771(7)
H6 H 0.4353 0.3266 -0.0069
C7 C 0.43468(19) 0.0714(5) -0.05094(8)
H7 H 0.5066 0.0390 -0.0461
C8 C 0.3421(2) 0.1764(5) 0.17006(7)
H8 H 0.2888 0.2903 0.1665
C9 C 0.4312(3) 0.2175(6) 0.19743(8)
H9 H 0.4369 0.3578 0.2131
C10 C 0.5112(3) 0.0548(8) 0.20188(10)
H10 H 0.5713 0.0852 0.2204
C11 C 0.5035(2) -0.1523(7) 0.17941(12)
H11 H 0.5590 -0.2612 0.1821
C12 C 0.41373(19) -0.2007(5) 0.15262(9)
H12 H 0.4078 -0.3439 0.1378
C13 C 0.33254(16) -0.0361(4) 0.14781(6)
C14 C -0.1676(2) 0.4300(5) 0.19915(9)
H13 H -0.1791 0.5631 0.1819
C15 C -0.2240(2) 0.4041(6) 0.23350(9)
H14 H -0.2732 0.5195 0.2390
C16 C -0.2078(2) 0.2102(6) 0.25919(9)
H15 H -0.2452 0.1939 0.2823
C17 C -0.1363(2) 0.0404(5) 0.25072(8)
H16 H -0.1259 -0.0930 0.2680
C18 C -0.07931(19) 0.0648(5) 0.21672(7)
H17 H -0.0302 -0.0514 0.2116
C19 C -0.09426(16) 0.2600(4) 0.19025(7)
C20 C -0.03358(17) 0.2973(4) 0.15441(7)
H18 H -0.0364 0.4508 0.1432
C21 C 0.02413(16) 0.1435(4) 0.13604(7)
H19 H 0.0299 -0.0121 0.1462
C22 C 0.08003(15) 0.2093(4) 0.09981(6)
H20 H 0.0748 0.3791 0.0924
C23 C 0.18585(15) 0.0923(3) 0.09197(6)
C24 C 0.08700(15) 0.0466(4) 0.06323(6)
H21 H 0.0539 -0.1114 0.0632
C25 C 0.09922(15) 0.1656(4) 0.02199(6)
H22 H 0.1197 0.0517 0.0016
H23 H 0.0344 0.2442 0.0107
C26 C 0.25757(15) 0.2451(4) 0.06843(6)
H24 H 0.2896 0.3723 0.0861
H25 H 0.3128 0.1502 0.0580
C27 C 0.23272(16) -0.0933(4) 0.12130(6)
loop_
_geom_bond_atom_site_label_1
_geom_bond_atom_site_label_2
_geom_bond_site_symmetry_1
_geom_bond_site_symmetry_2
S1 O1 1_555 1_555
O2 S1 1_555 1_555
O3 C27 1_555 1_555
N1 S1 1_555 1_555
C1 H1 1_555 1_555
H2 C1 1_555 1_555
H3 C1 1_555 1_555
C2 C1 1_555 1_555
C3 C2 1_555 1_555
H4 C3 1_555 1_555
C4 C3 1_555 1_555
H5 C4 1_555 1_555
C5 S1 1_555 1_555
C6 C5 1_555 1_555
H6 C6 1_555 1_555
C7 C2 1_555 1_555
H7 C7 1_555 1_555
C8 H8 1_555 1_555
C9 C8 1_555 1_555
H9 C9 1_555 1_555
C10 C9 1_555 1_555
H10 C10 1_555 1_555
C11 C10 1_555 1_555
H11 C11 1_555 1_555
C12 C11 1_555 1_555
H12 C12 1_555 1_555
C13 C8 1_555 1_555
C14 H13 1_555 1_555
C15 C14 1_555 1_555
H14 C15 1_555 1_555
C16 C15 1_555 1_555
H15 C16 1_555 1_555
C17 C16 1_555 1_555
H16 C17 1_555 1_555
C18 C17 1_555 1_555
H17 C18 1_555 1_555
C19 C14 1_555 1_555
C20 C19 1_555 1_555
H18 C20 1_555 1_555
C21 C20 1_555 1_555
H19 C21 1_555 1_555
C22 C21 1_555 1_555
H20 C22 1_555 1_555
C23 C22 1_555 1_555
C24 C22 1_555 1_555
H21 C24 1_555 1_555
C25 N1 1_555 1_555
H22 C25 1_555 1_555
H23 C25 1_555 1_555
C26 N1 1_555 1_555
H24 C26 1_555 1_555
H25 C26 1_555 1_555
C27 C13 1_555 1_555
C4 C5 1_555 1_555
C6 C7 1_555 1_555
C12 C13 1_555 1_555
C18 C19 1_555 1_555
C23 C24 1_555 1_555
C23 C26 1_555 1_555
C23 C27 1_555 1_555
C24 C25 1_555 1_555

#END
