
#######################################################################
#
#                 Cambridge Crystallographic Data Centre
#                                CCDC 
#
#######################################################################
#
# If this CIF has been generated from an entry in the Cambridge 
# Structural Database, then it will include bibliographic, chemical, 
# crystal, experimental, refinement or atomic coordinate data resulting 
# from the CCDC's data processing and validation procedures.
#
#######################################################################

data_IBEVAP
_chemical_name_common            Dihydrocanadensolide
_chemical_formula_moiety         'C11 H16 O4'
_chemical_name_systematic        
6-butyl-3-methyltetrahydrofuro[3,4-b]furan-2,4-dione
_chemical_properties_biological  'anti-ulcer activity'
_symmetry_cell_setting           monoclinic
_symmetry_space_group_name_H-M   'C 2'
_symmetry_Int_Tables_number      5
_space_group_name_Hall           'C 2y'
loop_
_symmetry_equiv_pos_site_id
_symmetry_equiv_pos_as_xyz
1 x,y,z
2 -x,y,-z
3 1/2+x,1/2+y,z
4 1/2-x,1/2+y,-z
_cell_length_a                   10.008(2)
_cell_length_b                   8.6505(17)
_cell_length_c                   13.474(3)
_cell_angle_alpha                90
_cell_angle_beta                 103.03(3)
_cell_angle_gamma                90
_cell_volume                     1136.47
_exptl_crystal_colour            colorless
_exptl_crystal_description       block
_cell_formula_units_Z            4
_exptl_crystal_recrystallization_method 'hexane/ethyl acetate'
loop_
_atom_site_label
_atom_site_type_symbol
_atom_site_fract_x
_atom_site_fract_y
_atom_site_fract_z
O1 O 0.10804(13) 0.04526(19) 0.27789(10)
O2 O -0.00177(17) 0.1717(2) 0.13990(13)
O3 O 0.39213(12) 0.04112(19) 0.23436(9)
O4 O 0.46495(17) 0.23413(19) 0.15115(13)
C1 C 0.28353(19) -0.0745(2) 0.21624(14)
H1 H 0.3168 -0.1770 0.2023
C2 C 0.17837(19) -0.0109(2) 0.12663(13)
H2 H 0.1303 -0.0932 0.0827
C3 C 0.2097(2) -0.0771(3) 0.30298(15)
H3 H 0.1615 -0.1760 0.3011
C4 C 0.3811(2) 0.1351(2) 0.15301(15)
C5 C 0.08280(19) 0.0796(3) 0.17808(14)
C6 C 0.2950(2) -0.0533(3) 0.40910(15)
H4 H 0.3405 0.0462 0.4121
H5 H 0.3655 -0.1323 0.4233
C7 C 0.2129(2) -0.0588(4) 0.49185(15)
H6 H 0.1488 0.0269 0.4821
H7 H 0.1601 -0.1538 0.4848
C8 C 0.25896(18) 0.0933(2) 0.07077(13)
H8 H 0.2055 0.1863 0.0466
C9 C 0.3017(3) -0.0507(4) 0.59735(16)
H9 H 0.3569 0.0424 0.6033
H10 H 0.3637 -0.1384 0.6077
C10 C 0.2220(3) -0.0504(5) 0.68024(19)
H11 H 0.1646 0.0397 0.6733
H12 H 0.2847 -0.0492 0.7457
H13 H 0.1660 -0.1415 0.6744
C11 C 0.3062(2) 0.0168(3) -0.01704(14)
H14 H 0.3571 0.0898 -0.0475
H15 H 0.2277 -0.0177 -0.0671
H16 H 0.3635 -0.0702 0.0080
loop_
_geom_bond_atom_site_label_1
_geom_bond_atom_site_label_2
_geom_bond_site_symmetry_1
_geom_bond_site_symmetry_2
O1 C3 1_555 1_555
O2 C5 1_555 1_555
O3 C1 1_555 1_555
O4 C4 1_555 1_555
C1 H1 1_555 1_555
C2 C1 1_555 1_555
H2 C2 1_555 1_555
C3 C1 1_555 1_555
H3 C3 1_555 1_555
C4 O3 1_555 1_555
C5 O1 1_555 1_555
C6 C3 1_555 1_555
H4 C6 1_555 1_555
H5 C6 1_555 1_555
C7 C6 1_555 1_555
H6 C7 1_555 1_555
H7 C7 1_555 1_555
C8 C2 1_555 1_555
H8 C8 1_555 1_555
C9 C7 1_555 1_555
H9 C9 1_555 1_555
H10 C9 1_555 1_555
C10 C9 1_555 1_555
H11 C10 1_555 1_555
H12 C10 1_555 1_555
H13 C10 1_555 1_555
C11 C8 1_555 1_555
H14 C11 1_555 1_555
H15 C11 1_555 1_555
H16 C11 1_555 1_555
C2 C5 1_555 1_555
C4 C8 1_555 1_555

#END
