
#######################################################################
#
#                 Cambridge Crystallographic Data Centre
#                                CCDC 
#
#######################################################################
#
# If this CIF has been generated from an entry in the Cambridge 
# Structural Database, then it will include bibliographic, chemical, 
# crystal, experimental, refinement or atomic coordinate data resulting 
# from the CCDC's data processing and validation procedures.
#
#######################################################################

data_IBEWOB
_chemical_name_common            
"(O,O,O',O'-Tetramethyl-S,S'-(2-N,N-dimethylaminotrimethylene)-bisphosphonodithioate) oxalate"
_chemical_formula_moiety         'C9 H24 N1 O4 P2 S4 1+,C2 H1 O4 1-'
_chemical_name_systematic        'Shacanlin oxalate'
_chemical_properties_biological  insecticide
_symmetry_cell_setting           triclinic
_symmetry_space_group_name_H-M   'P -1'
_symmetry_Int_Tables_number      2
_space_group_name_Hall           '-P 1'
loop_
_symmetry_equiv_pos_site_id
_symmetry_equiv_pos_as_xyz
1 x,y,z
2 -x,-y,-z
_cell_length_a                   7.4342(5)
_cell_length_b                   11.057(4)
_cell_length_c                   14.5295(11)
_cell_angle_alpha                98.018(11)
_cell_angle_beta                 101.012(4)
_cell_angle_gamma                96.224(10)
_cell_volume                     1149.61
_cell_formula_units_Z            2
loop_
_atom_site_label
_atom_site_type_symbol
_atom_site_fract_x
_atom_site_fract_y
_atom_site_fract_z
P1 P -0.2739(1) 0.4754(1) 0.6517(1)
P2 P 0.2802(1) 0.0125(1) 0.6802(1)
S1 S -0.0633(1) 0.4954(1) 0.7702(1)
S2 S -0.2386(2) 0.6129(1) 0.5887(1)
S3 S 0.3285(1) 0.1763(1) 0.7749(1)
S4 S 0.5062(1) -0.0561(1) 0.6864(1)
O1 O -0.4613(3) 0.4520(2) 0.6846(2)
O2 O -0.3199(5) 0.3425(3) 0.5958(3)
O3 O 0.1755(3) 0.0396(2) 0.5823(1)
O4 O 0.1121(3) -0.0704(2) 0.7006(1)
N1 N 0.0399(2) 0.2067(2) 0.9109(1)
C1 C -0.1188(3) 0.3557(2) 0.8204(2)
C2 C 0.0571(3) 0.2948(2) 0.8419(1)
C3 C 0.1023(3) 0.2313(2) 0.7514(2)
C4 C -0.1121(3) 0.1016(2) 0.8763(2)
C5 C 0.0294(3) 0.2711(2) 1.0074(2)
C6 C -0.5310(7) 0.5503(6) 0.7354(4)
C7 C -0.2203(8) 0.3099(5) 0.5164(3)
C8 C 0.2630(5) 0.1181(4) 0.5284(2)
C9 C 0.1335(6) -0.1536(3) 0.7679(2)
O5 O -0.4419(2) -0.3422(1) 1.0078(1)
O6 O -0.7165(2) -0.4540(1) 0.9762(2)
C10 C -0.5509(3) -0.4428(2) 0.9948(1)
C10A C -0.4491(3) -0.5572(2) 1.0052(1)
O5A O -0.5581(2) -0.6578(1) 0.9922(1)
O6A O -0.2835(2) -0.5460(1) 1.0238(2)
O7 O -0.2928(2) -0.0606(1) 1.0218(1)
O8 O -0.5819(2) -0.1555(1) 0.9880(1)
C11 C -0.4601(3) -0.0618(2) 1.0032(1)
C11A C -0.5399(3) 0.0618(2) 0.9968(1)
O7A O -0.7072(2) 0.0606(1) 0.9782(1)
O8A O -0.4181(2) 0.1555(1) 1.0120(1)
loop_
_geom_bond_atom_site_label_1
_geom_bond_atom_site_label_2
_geom_bond_site_symmetry_1
_geom_bond_site_symmetry_2
P1 S1 1_555 1_555
P2 S3 1_555 1_555
S1 C1 1_555 1_555
S2 P1 1_555 1_555
S3 C3 1_555 1_555
S4 P2 1_555 1_555
O1 P1 1_555 1_555
O2 P1 1_555 1_555
O3 P2 1_555 1_555
O4 P2 1_555 1_555
N1 C2 1_555 1_555
C1 C2 1_555 1_555
C2 C3 1_555 1_555
C4 N1 1_555 1_555
C5 N1 1_555 1_555
C6 O1 1_555 1_555
C7 O2 1_555 1_555
C8 O3 1_555 1_555
C9 O4 1_555 1_555
O5 C10 1_555 1_555
O6 C10 1_555 1_555
C10 C10A 1_555 1_555
O7 C11 1_555 1_555
O8 C11 1_555 1_555
C11 C11A 1_555 1_555
C10A O5A 1_555 1_555
O6A C10A 1_555 1_555
C11A O7A 1_555 1_555
O8A C11A 1_555 1_555

#END
