
#######################################################################
#
#                 Cambridge Crystallographic Data Centre
#                                CCDC 
#
#######################################################################
#
# If this CIF has been generated from an entry in the Cambridge 
# Structural Database, then it will include bibliographic, chemical, 
# crystal, experimental, refinement or atomic coordinate data resulting 
# from the CCDC's data processing and validation procedures.
#
#######################################################################

data_IBEZUN
_chemical_formula_moiety         'C22 H12 F4 S2'
_chemical_name_systematic        
2-(4-(2-(2,3-difluoro-4-(2-thienyl)phenyl)vinyl)-2,3-difluorophenyl)thiophene
_symmetry_cell_setting           monoclinic
_symmetry_space_group_name_H-M   'P 21/n'
_symmetry_Int_Tables_number      14
_space_group_name_Hall           '-P 2yn'
loop_
_symmetry_equiv_pos_site_id
_symmetry_equiv_pos_as_xyz
1 x,y,z
2 1/2-x,1/2+y,1/2-z
3 -x,-y,-z
4 1/2+x,1/2-y,1/2+z
_cell_length_a                   6.538(3)
_cell_length_b                   22.320(9)
_cell_length_c                   17.876(7)
_cell_angle_alpha                90
_cell_angle_beta                 95.624(5)
_cell_angle_gamma                90
_cell_volume                     2596.06
_exptl_crystal_colour            yellow
_exptl_crystal_description       plate
_cell_formula_units_Z            6
loop_
_atom_site_label
_atom_site_type_symbol
_atom_site_fract_x
_atom_site_fract_y
_atom_site_fract_z
S1 S 0.9530(4) 0.35417(12) 0.88255(13)
S2 S -0.0530(6) 0.3038(2) 0.13113(19)
F1 F 0.6307(8) 0.3818(3) 0.7790(3)
F2 F 0.4004(7) 0.3823(3) 0.6514(3)
F3 F -0.0544(8) 0.3945(2) 0.4669(3)
F4 F -0.2790(7) 0.3897(2) 0.3380(3)
C1 C 1.1756(16) 0.3336(5) 0.9317(5)
H1 H 1.2049 0.3408 0.9828
C2 C 1.3077(16) 0.3055(4) 0.8892(5)
H2 H 1.4346 0.2908 0.9092
C3 C 1.2358(12) 0.3003(3) 0.8112(4)
H3 H 1.3069 0.2832 0.7739
C4 C 1.0300(13) 0.3268(3) 0.8007(4)
C5 C 0.9014(12) 0.3289(3) 0.7287(4)
C6 C 0.9648(13) 0.3031(3) 0.6633(5)
H4 H 1.0933 0.2849 0.6657
C7 C 0.8446(13) 0.3036(4) 0.5961(5)
H5 H 0.8942 0.2855 0.5546
C8 C 0.6510(12) 0.3301(4) 0.5874(5)
C9 C 0.5884(12) 0.3560(4) 0.6523(5)
C10 C 0.7077(13) 0.3551(3) 0.7198(5)
C11 C 0.5257(13) 0.3268(4) 0.5143(5)
H6 H 0.5903 0.3089 0.4760
C12 C 0.3380(13) 0.3452(4) 0.4949(5)
H7 H 0.2706 0.3630 0.5326
C13 C 0.2213(13) 0.3410(4) 0.4209(5)
C14 C 0.2920(13) 0.3119(4) 0.3596(6)
H8 H 0.4201 0.2934 0.3645
C15 C 0.1716(13) 0.3104(4) 0.2908(5)
H9 H 0.2248 0.2914 0.2507
C16 C -0.0262(12) 0.3361(3) 0.2783(4)
C17 C -0.0934(12) 0.3639(4) 0.3414(4)
C18 C 0.0260(12) 0.3661(4) 0.4098(4)
C19 C -0.1455(10) 0.3336(3) 0.2079(4)
C20 C -0.3450(18) 0.3543(7) 0.1789(6)
H10 H -0.4307 0.3735 0.2099
C21 C -0.4088(15) 0.3447(4) 0.1012(4)
H11 H -0.5336 0.3564 0.0760
C22 C -0.2691(13) 0.3179(5) 0.0730(5)
H12 H -0.2818 0.3062 0.0229
S4 S -0.0124(4) 0.47451(11) 0.62957(13)
F5 F -0.2238(7) 0.5592(2) 0.8431(3)
F6 F 0.0123(7) 0.5617(2) 0.9685(3)
C24 C -0.2351(16) 0.4870(4) 0.5762(5)
H16 H -0.2543 0.4780 0.5251
C25 C -0.3804(14) 0.5108(4) 0.6136(5)
H17 H -0.5102 0.5197 0.5902
C26 C -0.3251(10) 0.5225(3) 0.6947(4)
H18 H -0.4075 0.5390 0.7290
C27 C -0.1090(13) 0.5020(4) 0.7091(5)
C28 C 0.0192(12) 0.5031(3) 0.7806(5)
C29 C 0.2163(13) 0.4754(4) 0.7898(5)
H19 H 0.2622 0.4554 0.7490
C30 C 0.3422(13) 0.4770(4) 0.8562(5)
H20 H 0.4698 0.4582 0.8588
C31 C 0.2807(12) 0.5067(4) 0.9209(5)
C32 C 0.0865(12) 0.5323(4) 0.9099(4)
C33 C -0.0379(11) 0.5310(4) 0.8440(5)
C34 C 0.4035(13) 0.5104(4) 0.9920(5)
H21 H 0.3436 0.5290 1.0310
S4B S 1.0124(4) 0.52549(11) 1.37043(13)
F5B F 1.2238(7) 0.4408(2) 1.1569(3)
F6B F 0.9877(7) 0.4383(2) 1.0315(3)
C24B C 1.2351(16) 0.5130(4) 1.4238(5)
H16B H 1.2543 0.5220 1.4749
C25B C 1.3804(14) 0.4892(4) 1.3864(5)
H17B H 1.5102 0.4803 1.4098
C26B C 1.3251(10) 0.4775(3) 1.3053(4)
H18B H 1.4075 0.4610 1.2710
C27B C 1.1090(13) 0.4980(4) 1.2909(5)
C28B C 0.9808(12) 0.4969(3) 1.2194(5)
C29B C 0.7837(13) 0.5246(4) 1.2102(5)
H19B H 0.7378 0.5446 1.2510
C30B C 0.6578(13) 0.5230(4) 1.1438(5)
H20B H 0.5302 0.5418 1.1412
C31B C 0.7193(12) 0.4933(4) 1.0791(5)
C32B C 0.9135(12) 0.4677(4) 1.0901(4)
C33B C 1.0379(11) 0.4690(4) 1.1560(5)
C34B C 0.5965(13) 0.4896(4) 1.0080(5)
H21B H 0.6564 0.4710 0.9690
H13? H -0.5275 0.3555 0.0713
H14? H -0.2645 0.3048 0.0239
S3? S -0.3842(9) 0.3614(3) 0.1935(3)
C23? C -0.119(3) 0.3126(13) 0.1349(6)
H15? H 0.0052 0.2943 0.1272
loop_
_geom_bond_atom_site_label_1
_geom_bond_atom_site_label_2
_geom_bond_site_symmetry_1
_geom_bond_site_symmetry_2
S1 C1 1_555 1_555
S2 C19 1_555 1_555
F1 C10 1_555 1_555
F2 C9 1_555 1_555
F3 C18 1_555 1_555
F4 C17 1_555 1_555
C1 H1 1_555 1_555
C2 C1 1_555 1_555
H2 C2 1_555 1_555
C3 C2 1_555 1_555
H3 C3 1_555 1_555
C4 S1 1_555 1_555
C5 C4 1_555 1_555
C6 C5 1_555 1_555
H4 C6 1_555 1_555
C7 C6 1_555 1_555
H5 C7 1_555 1_555
C8 C7 1_555 1_555
C9 C8 1_555 1_555
C10 C5 1_555 1_555
C11 C8 1_555 1_555
H6 C11 1_555 1_555
C12 C11 1_555 1_555
H7 C12 1_555 1_555
C13 C12 1_555 1_555
C14 C13 1_555 1_555
H8 C14 1_555 1_555
C15 C14 1_555 1_555
H9 C15 1_555 1_555
C16 C15 1_555 1_555
C17 C16 1_555 1_555
C18 C13 1_555 1_555
C19 C16 1_555 1_555
C20 C19 1_555 1_555
H10 C20 1_555 1_555
C21 C20 1_555 1_555
H11 C21 1_555 1_555
C22 S2 1_555 1_555
H12 C22 1_555 1_555
S4 C24 1_555 1_555
F5 C33 1_555 1_555
F6 C32 1_555 1_555
C24 H16 1_555 1_555
C25 C24 1_555 1_555
H17 C25 1_555 1_555
C26 C25 1_555 1_555
H18 C26 1_555 1_555
C27 S4 1_555 1_555
C28 C27 1_555 1_555
C29 C28 1_555 1_555
H19 C29 1_555 1_555
C30 C29 1_555 1_555
H20 C30 1_555 1_555
C31 C30 1_555 1_555
C32 C31 1_555 1_555
C33 C28 1_555 1_555
C34 C31 1_555 1_555
H21 C34 1_555 1_555
S4B C24B 1_555 1_555
F5B C33B 1_555 1_555
F6B C32B 1_555 1_555
C24B H16B 1_555 1_555
C25B C24B 1_555 1_555
H17B C25B 1_555 1_555
C26B C25B 1_555 1_555
H18B C26B 1_555 1_555
C27B S4B 1_555 1_555
C28B C27B 1_555 1_555
C29B C28B 1_555 1_555
H19B C29B 1_555 1_555
C30B C29B 1_555 1_555
H20B C30B 1_555 1_555
C31B C30B 1_555 1_555
C32B C31B 1_555 1_555
C33B C28B 1_555 1_555
C34B C34 1_555 1_555
H21B C34B 1_555 1_555
C3 C4 1_555 1_555
C9 C10 1_555 1_555
C17 C18 1_555 1_555
C21 C22 1_555 1_555
C26 C27 1_555 1_555
C32 C33 1_555 1_555
C26B C27B 1_555 1_555
C31B C34B 1_555 1_555
C32B C33B 1_555 1_555

#END
