
#######################################################################
#
#                 Cambridge Crystallographic Data Centre
#                                CCDC 
#
#######################################################################
#
# If this CIF has been generated from an entry in the Cambridge 
# Structural Database, then it will include bibliographic, chemical, 
# crystal, experimental, refinement or atomic coordinate data resulting 
# from the CCDC's data processing and validation procedures.
#
#######################################################################

data_IBIDII
_chemical_formula_moiety         
'C40 H56 Li2 N24 O18 2+,4(Cl1 1-),2(H3 O1 1+),10(H2 O1)'
_chemical_name_systematic        
"(\m~2~-\a,\a',\f,\f'-Tetramethylcucurbit(6)uril)-hexa-aqua-di-lithium dioxonium tetrachloride decahydrate"
_symmetry_cell_setting           triclinic
_symmetry_space_group_name_H-M   'P -1'
_symmetry_Int_Tables_number      2
_space_group_name_Hall           '-P 1'
loop_
_symmetry_equiv_pos_site_id
_symmetry_equiv_pos_as_xyz
1 x,y,z
2 -x,-y,-z
_cell_length_a                   11.085(2)
_cell_length_b                   12.567(3)
_cell_length_c                   13.011(3)
_cell_angle_alpha                70.445(7)
_cell_angle_beta                 69.832(7)
_cell_angle_gamma                80.217(7)
_cell_volume                     1600.19
_exptl_crystal_colour            colorless
_exptl_crystal_description       block
_cell_formula_units_Z            1
loop_
_atom_site_label
_atom_site_type_symbol
_atom_site_fract_x
_atom_site_fract_y
_atom_site_fract_z
Cl1 Cl -0.2009(3) -0.0699(2) 0.9804(2)
Cl2 Cl 0.2184(3) 0.8467(2) -0.2235(2)
O2 O -0.3665(6) -0.0097(5) 0.8133(6)
O3 O -0.5602(6) 0.2031(5) 0.8258(5)
O4 O -0.3712(7) 0.1892(8) 0.5764(6)
Li1 Li -0.3991(13) 0.1502(13) 0.7398(13)
C1 C 0.0365(6) 0.4232(6) 0.1781(6)
C2 C 0.2284(6) 0.5128(5) 0.0633(6)
C3 C 0.2631(6) 0.3834(5) 0.1213(6)
C4 C 0.3489(6) 0.4971(6) 0.1863(6)
C5 C 0.1079(7) 0.2244(6) 0.2545(6)
H1 H 0.0215 0.2145 0.2557
H2 H 0.1692 0.1787 0.2090
C6 C 0.3999(7) 0.2923(6) 0.2571(6)
H3 H 0.4303 0.2336 0.2182
H4 H 0.4747 0.3151 0.2667
C7 C 0.0098(7) 0.1560(6) 0.4665(6)
C8 C 0.2354(6) 0.1497(6) 0.3949(6)
H5 H 0.2868 0.0908 0.3601
C9 C 0.1907(6) 0.1057(6) 0.5283(6)
H6 H 0.2252 0.0272 0.5562
C10 C 0.3180(6) 0.2594(6) 0.4661(6)
C11 C -0.0308(7) 0.0708(6) 0.6750(6)
H7 H -0.1138 0.0559 0.6728
H8 H 0.0071 -0.0011 0.7137
C12 C 0.2534(6) 0.1633(6) 0.6729(6)
H9 H 0.3289 0.1999 0.6650
H10 H 0.2680 0.0817 0.7064
C13 C -0.1671(7) 0.2079(6) 0.7717(6)
C14 C 0.0246(6) 0.1423(6) 0.8130(6)
H11 H 0.0432 0.0633 0.8563
C15 C -0.0577(6) 0.2127(6) 0.8937(6)
H12 H -0.0803 0.1678 0.9757
C16 C 0.1395(6) 0.2941(6) 0.7878(6)
C17 C -0.2833(7) 0.3069(6) 0.9116(7)
H13 H -0.2967 0.2753 0.9943
H14 H -0.3577 0.2904 0.8965
C18 C -0.0065(7) 0.3793(6) 0.9368(6)
H15 H 0.0748 0.4033 0.9332
H16 H -0.0485 0.3367 1.0166
C19 C 0.2890(7) 0.5548(6) -0.0676(6)
H17 H 0.3820 0.5490 -0.0868
H18 H 0.2598 0.6331 -0.0962
H19 H 0.2632 0.5089 -0.1025
C20 C 0.3289(8) 0.3161(7) 0.0391(7)
H20 H 0.4118 0.3459 -0.0091
H21 H 0.2761 0.3212 -0.0085
H22 H 0.3414 0.2376 0.0818
N1 N 0.0896(5) 0.5194(4) 0.0971(5)
N2 N 0.1355(5) 0.3426(5) 0.1972(5)
N3 N 0.2788(5) 0.5710(4) 0.1200(5)
N4 N 0.3452(5) 0.3900(5) 0.1843(5)
N5 N 0.1137(6) 0.1817(5) 0.3694(5)
N6 N 0.0532(5) 0.1117(5) 0.5583(5)
N7 N 0.3106(5) 0.2450(5) 0.3687(5)
N8 N 0.2424(5) 0.1840(5) 0.5608(5)
N9 N -0.0531(5) 0.1480(5) 0.7410(5)
N10 N -0.1718(5) 0.2512(5) 0.8534(5)
N11 N 0.1416(5) 0.2041(5) 0.7506(5)
N12 N 0.0214(5) 0.3054(5) 0.8664(5)
O5 O -0.0789(5) 0.4082(4) 0.2234(5)
O6 O -0.1029(5) 0.1697(5) 0.4678(5)
O7 O -0.2522(5) 0.2227(4) 0.7253(5)
O8 O 0.4094(5) 0.5254(5) 0.2351(5)
O9 O 0.3808(5) 0.3291(4) 0.4694(5)
O10 O 0.2298(4) 0.3551(4) 0.7572(5)
O2A O 0.3665(6) 1.0097(5) 0.1867(6)
O3A O 0.5602(6) 0.7969(5) 0.1742(5)
O4A O 0.3712(7) 0.8108(8) 0.4236(6)
Li1A Li 0.3991(13) 0.8498(13) 0.2602(13)
C1A C -0.0365(6) 0.5768(6) 0.8219(6)
C2A C -0.2284(6) 0.4872(5) 0.9367(6)
C3A C -0.2631(6) 0.6166(5) 0.8787(6)
C4A C -0.3489(6) 0.5029(6) 0.8137(6)
C5A C -0.1079(7) 0.7756(6) 0.7455(6)
H1A H -0.0215 0.7855 0.7443
H2A H -0.1692 0.8213 0.7910
C6A C -0.3999(7) 0.7077(6) 0.7429(6)
H3A H -0.4303 0.7664 0.7818
H4A H -0.4747 0.6849 0.7333
C7A C -0.0098(7) 0.8440(6) 0.5335(6)
C8A C -0.2354(6) 0.8503(6) 0.6051(6)
H5A H -0.2868 0.9092 0.6399
C9A C -0.1907(6) 0.8943(6) 0.4717(6)
H6A H -0.2252 0.9728 0.4438
C10A C -0.3180(6) 0.7406(6) 0.5339(6)
C11A C 0.0308(7) 0.9292(6) 0.3250(6)
H7A H 0.1138 0.9441 0.3272
H8A H -0.0071 1.0011 0.2863
C12A C -0.2534(6) 0.8367(6) 0.3271(6)
H9A H -0.3289 0.8001 0.3350
H10A H -0.2680 0.9183 0.2936
C13A C 0.1671(7) 0.7921(6) 0.2283(6)
C14A C -0.0246(6) 0.8577(6) 0.1870(6)
H11A H -0.0432 0.9367 0.1437
C15A C 0.0577(6) 0.7873(6) 0.1063(6)
H12A H 0.0803 0.8322 0.0243
C16A C -0.1395(6) 0.7059(6) 0.2122(6)
C17A C 0.2833(7) 0.6931(6) 0.0884(7)
H13A H 0.2967 0.7247 0.0057
H14A H 0.3577 0.7096 0.1035
C18A C 0.0065(7) 0.6207(6) 0.0632(6)
H15A H -0.0748 0.5967 0.0668
H16A H 0.0485 0.6633 -0.0166
C19A C -0.2890(7) 0.4452(6) 1.0676(6)
H17A H -0.3820 0.4510 1.0868
H18A H -0.2598 0.3669 1.0962
H19A H -0.2632 0.4911 1.1025
C20A C -0.3289(8) 0.6839(7) 0.9609(7)
H20A H -0.4118 0.6541 1.0091
H21A H -0.2761 0.6788 1.0085
H22A H -0.3414 0.7624 0.9182
N1A N -0.0896(5) 0.4806(4) 0.9029(5)
N2A N -0.1355(5) 0.6574(5) 0.8028(5)
N3A N -0.2788(5) 0.4290(4) 0.8800(5)
N4A N -0.3452(5) 0.6100(5) 0.8157(5)
N5A N -0.1137(6) 0.8183(5) 0.6306(5)
N6A N -0.0532(5) 0.8883(5) 0.4417(5)
N7A N -0.3106(5) 0.7550(5) 0.6313(5)
N8A N -0.2424(5) 0.8160(5) 0.4392(5)
N9A N 0.0531(5) 0.8520(5) 0.2590(5)
N10A N 0.1718(5) 0.7488(5) 0.1466(5)
N11A N -0.1416(5) 0.7959(5) 0.2494(5)
N12A N -0.0214(5) 0.6946(5) 0.1336(5)
O5A O 0.0789(5) 0.5918(4) 0.7766(5)
O6A O 0.1029(5) 0.8303(5) 0.5322(5)
O7A O 0.2522(5) 0.7773(4) 0.2747(5)
O8A O -0.4094(5) 0.4746(5) 0.7649(5)
O9A O -0.3808(5) 0.6709(4) 0.5306(5)
O10A O -0.2298(4) 0.6449(4) 0.2428(5)
O1 O 0.3942(6) 0.9135(6) -0.1147(7)
Cl3? Cl 0.136(3) 0.866(2) -0.169(2)
loop_
_geom_bond_atom_site_label_1
_geom_bond_atom_site_label_2
_geom_bond_site_symmetry_1
_geom_bond_site_symmetry_2
O2 Li1 1_555 1_555
O3 Li1 1_555 1_555
O4 Li1 1_555 1_555
Li1 O7 1_555 1_555
C1 N1 1_555 1_555
C2 C3 1_555 1_555
C3 C20 1_555 1_555
C4 N3 1_555 1_555
C5 H1 1_555 1_555
H2 C5 1_555 1_555
C6 H3 1_555 1_555
H4 C6 1_555 1_555
C7 N5 1_555 1_555
C8 H5 1_555 1_555
C9 C8 1_555 1_555
H6 C9 1_555 1_555
C10 N7 1_555 1_555
C11 H7 1_555 1_555
H8 C11 1_555 1_555
C12 H9 1_555 1_555
H10 C12 1_555 1_555
C13 N9 1_555 1_555
C14 H11 1_555 1_555
C15 C14 1_555 1_555
H12 C15 1_555 1_555
C16 N11 1_555 1_555
C17 H13 1_555 1_555
H14 C17 1_555 1_555
C18 H15 1_555 1_555
H16 C18 1_555 1_555
C19 C2 1_555 1_555
H17 C19 1_555 1_555
H18 C19 1_555 1_555
H19 C19 1_555 1_555
C20 H20 1_555 1_555
H21 C20 1_555 1_555
H22 C20 1_555 1_555
N1 C2 1_555 1_555
N2 C1 1_555 1_555
N3 C2 1_555 1_555
N4 C3 1_555 1_555
N5 C5 1_555 1_555
N6 C7 1_555 1_555
N7 C6 1_555 1_555
N8 C9 1_555 1_555
N9 C11 1_555 1_555
N10 C13 1_555 1_555
N11 C12 1_555 1_555
N12 C15 1_555 1_555
O5 C1 1_555 1_555
O6 C7 1_555 1_555
O7 C13 1_555 1_555
O8 C4 1_555 1_555
O9 C10 1_555 1_555
O10 C16 1_555 1_555
O2A Li1A 1_555 1_555
O3A Li1A 1_555 1_555
O4A Li1A 1_555 1_555
Li1A O7A 1_555 1_555
C1A N1A 1_555 1_555
C2A C3A 1_555 1_555
C3A C20A 1_555 1_555
C4A N3A 1_555 1_555
C5A H1A 1_555 1_555
H2A C5A 1_555 1_555
C6A H3A 1_555 1_555
H4A C6A 1_555 1_555
C7A N5A 1_555 1_555
C8A H5A 1_555 1_555
C9A C8A 1_555 1_555
H6A C9A 1_555 1_555
C10A N7A 1_555 1_555
C11A H7A 1_555 1_555
H8A C11A 1_555 1_555
C12A H9A 1_555 1_555
H10A C12A 1_555 1_555
C13A N9A 1_555 1_555
C14A H11A 1_555 1_555
C15A C14A 1_555 1_555
H12A C15A 1_555 1_555
C16A N11A 1_555 1_555
C17A N3 1_555 1_555
H13A C17A 1_555 1_555
H14A C17A 1_555 1_555
C18A N1 1_555 1_555
H15A C18A 1_555 1_555
H16A C18A 1_555 1_555
C19A C2A 1_555 1_555
H17A C19A 1_555 1_555
H18A C19A 1_555 1_555
H19A C19A 1_555 1_555
C20A H20A 1_555 1_555
H21A C20A 1_555 1_555
H22A C20A 1_555 1_555
N1A C18 1_555 1_555
N2A C1A 1_555 1_555
N3A C17 1_555 1_555
N4A C3A 1_555 1_555
N5A C5A 1_555 1_555
N6A C7A 1_555 1_555
N7A C6A 1_555 1_555
N8A C9A 1_555 1_555
N9A C11A 1_555 1_555
N10A C13A 1_555 1_555
N11A C12A 1_555 1_555
N12A C15A 1_555 1_555
O5A C1A 1_555 1_555
O6A C7A 1_555 1_555
O7A C13A 1_555 1_555
O8A C4A 1_555 1_555
O9A C10A 1_555 1_555
O10A C16A 1_555 1_555
C3 N2 1_555 1_555
C4 N4 1_555 1_555
C5 N2 1_555 1_555
C6 N4 1_555 1_555
C8 N5 1_555 1_555
C8 N7 1_555 1_555
C9 N6 1_555 1_555
C10 N8 1_555 1_555
C11 N6 1_555 1_555
C12 N8 1_555 1_555
C14 N9 1_555 1_555
C14 N11 1_555 1_555
C15 N10 1_555 1_555
C16 N12 1_555 1_555
C17 N10 1_555 1_555
C18 N12 1_555 1_555
C2A N1A 1_555 1_555
C2A N3A 1_555 1_555
C3A N2A 1_555 1_555
C4A N4A 1_555 1_555
C5A N2A 1_555 1_555
C6A N4A 1_555 1_555
C8A N5A 1_555 1_555
C8A N7A 1_555 1_555
C9A N6A 1_555 1_555
C10A N8A 1_555 1_555
C11A N6A 1_555 1_555
C12A N8A 1_555 1_555
C14A N9A 1_555 1_555
C14A N11A 1_555 1_555
C15A N10A 1_555 1_555
C16A N12A 1_555 1_555
C17A N10A 1_555 1_555
C18A N12A 1_555 1_555

#END
