
#######################################################################
#
#                 Cambridge Crystallographic Data Centre
#                                CCDC 
#
#######################################################################
#
# If this CIF has been generated from an entry in the Cambridge 
# Structural Database, then it will include bibliographic, chemical, 
# crystal, experimental, refinement or atomic coordinate data resulting 
# from the CCDC's data processing and validation procedures.
#
#######################################################################

data_IBIFUW
_chemical_formula_moiety         'C40 H60 K2 N24 O20 2+,2(I1 1-),11(H2 O1)'
_chemical_name_systematic        
"(\m~2~-\a,\a',\f,\f'-tetramethylcucurbit(6)uril)-octa-aqua-di-potassium di-iodide undecahydrate"
_symmetry_cell_setting           triclinic
_symmetry_space_group_name_H-M   'P -1'
_symmetry_Int_Tables_number      2
_space_group_name_Hall           '-P 1'
loop_
_symmetry_equiv_pos_site_id
_symmetry_equiv_pos_as_xyz
1 x,y,z
2 -x,-y,-z
_cell_length_a                   11.8214(14)
_cell_length_b                   12.9387(8)
_cell_length_c                   13.0732(8)
_cell_angle_alpha                117.784(2)
_cell_angle_beta                 94.009(3)
_cell_angle_gamma                104.474(3)
_cell_volume                     1671.86
_exptl_crystal_colour            colorless
_exptl_crystal_description       block
_cell_formula_units_Z            1
loop_
_atom_site_label
_atom_site_type_symbol
_atom_site_fract_x
_atom_site_fract_y
_atom_site_fract_z
I1 I 0.42954(3) 1.65495(3) 0.49250(3)
O1 O 0.0873(4) 0.8181(5) -0.0596(4)
O3 O 0.3298(4) 0.7912(4) 0.0861(4)
O4 O 0.1359(4) 0.6058(4) 0.1453(4)
K1 K 0.09739(10) 0.80730(11) 0.14458(10)
O5 O 0.0007(10) 0.9928(10) 0.1055(9)
C1 C 0.2864(3) 1.1324(3) 0.2827(3)
C2 C 0.3352(3) 1.3182(3) 0.2807(3)
H1 H 0.4162 1.3776 0.3138
C3 C 0.2650(3) 1.3280(3) 0.3790(3)
H2 H 0.3133 1.3919 0.4578
C4 C 0.1684(3) 1.3766(3) 0.2530(3)
C5 C 0.1882(3) 1.1795(3) 0.4526(3)
H3 H 0.2222 1.2517 0.5306
H4 H 0.2129 1.1131 0.4517
C6 C 0.0849(3) 1.3999(3) 0.4285(3)
H5 H 0.1318 1.4469 0.5092
H6 H 0.0529 1.4547 0.4133
C7 C -0.0086(3) 1.0234(3) 0.3777(3)
C8 C -0.0120(3) 1.2286(3) 0.4770(3)
C9 C -0.1452(3) 1.1347(3) 0.4294(3)
C10 C -0.1217(3) 1.2626(3) 0.3445(3)
C11 C -0.2177(3) 0.8953(3) 0.3101(3)
H7 H -0.2843 0.8987 0.3495
H8 H -0.1862 0.8344 0.3139
C12 C -0.3209(3) 1.1091(3) 0.2797(3)
H9 H -0.3703 1.0886 0.3280
H10 H -0.3443 1.1709 0.2691
C13 C -0.2307(3) 0.7660(3) 0.0957(3)
C14 C -0.3658(3) 0.8768(3) 0.1470(3)
H11 H -0.4332 0.8542 0.1803
C15 C -0.3934(3) 0.7942(3) 0.0111(3)
H12 H -0.4739 0.7339 -0.0193
C16 C -0.3551(3) 0.9998(3) 0.0592(3)
C17 C 0.3078(3) 1.3727(3) 0.1199(3)
H13 H 0.2619 1.4184 0.1045
H14 H 0.3904 1.4257 0.1526
C18 C 0.4214(3) 1.1537(3) 0.1531(3)
H15 H 0.4966 1.2207 0.1861
H16 H 0.4361 1.0845 0.1559
C19 C 0.0283(3) 1.3128(3) 0.6111(3)
H17 H 0.0288 1.2638 0.6480
H18 H -0.0260 1.3588 0.6394
H19 H 0.1074 1.3687 0.6301
C20 C -0.2184(3) 1.1474(4) 0.5231(3)
H20 H -0.2305 1.2264 0.5572
H21 H -0.1764 1.1403 0.5839
H22 H -0.2946 1.0835 0.4874
N1 N 0.3370(3) 1.1922(3) 0.2255(3)
N2 N 0.2364(3) 1.2063(3) 0.3657(3)
N3 N 0.2636(3) 1.3441(3) 0.2068(3)
N4 N 0.1633(3) 1.3579(3) 0.3478(3)
N5 N 0.0589(3) 1.1447(2) 0.4330(3)
N6 N -0.1253(3) 1.0145(2) 0.3743(3)
N7 N -0.0137(3) 1.3004(2) 0.4181(3)
N8 N -0.1963(3) 1.1619(2) 0.3426(2)
N9 N -0.2619(3) 0.8547(3) 0.1869(3)
N10 N 0.3015(3) 1.2650(3) 0.0086(3)
N11 N -0.3444(3) 0.9993(3) 0.1644(3)
N12 N 0.3811(3) 1.1182(3) 0.0308(3)
O6 O 0.2879(2) 1.0301(2) 0.2619(2)
O7 O 0.0308(2) 0.9367(2) 0.3408(2)
O8 O -0.1536(2) 0.7212(2) 0.1051(2)
O9 O 0.1002(2) 1.4147(2) 0.2159(2)
O10 O -0.1465(2) 1.3127(2) 0.2901(2)
O11 O -0.3451(2) 1.0912(2) 0.0494(2)
O1A O -0.0873(4) 1.1819(5) 0.0596(4)
O3A O -0.3298(4) 1.2088(4) -0.0861(4)
O4A O -0.1359(4) 1.3942(4) -0.1453(4)
K1A K -0.09739(10) 1.19270(11) -0.14458(10)
O5A O -0.0007(10) 1.0072(10) -0.1055(9)
C1A C -0.2864(3) 0.8676(3) -0.2827(3)
C2A C -0.3352(3) 0.6818(3) -0.2807(3)
H1A H -0.4162 0.6224 -0.3138
C3A C -0.2650(3) 0.6720(3) -0.3790(3)
H2A H -0.3133 0.6081 -0.4578
C4A C -0.1684(3) 0.6234(3) -0.2530(3)
C5A C -0.1882(3) 0.8205(3) -0.4526(3)
H3A H -0.2222 0.7483 -0.5306
H4A H -0.2129 0.8869 -0.4517
C6A C -0.0849(3) 0.6001(3) -0.4285(3)
H5A H -0.1318 0.5531 -0.5092
H6A H -0.0529 0.5453 -0.4133
C7A C 0.0086(3) 0.9766(3) -0.3777(3)
C8A C 0.0120(3) 0.7714(3) -0.4770(3)
C9A C 0.1452(3) 0.8653(3) -0.4294(3)
C10A C 0.1217(3) 0.7374(3) -0.3445(3)
C11A C 0.2177(3) 1.1047(3) -0.3101(3)
H7A H 0.2843 1.1013 -0.3495
H8A H 0.1862 1.1656 -0.3139
C12A C 0.3209(3) 0.8909(3) -0.2797(3)
H9A H 0.3703 0.9114 -0.3280
H10A H 0.3443 0.8291 -0.2691
C13A C 0.2307(3) 1.2340(3) -0.0957(3)
C14A C 0.3658(3) 1.1232(3) -0.1470(3)
H11A H 0.4332 1.1458 -0.1803
C15A C 0.3934(3) 1.2058(3) -0.0111(3)
H12A H 0.4739 1.2661 0.0193
C16A C 0.3551(3) 1.0002(3) -0.0592(3)
C17A C -0.3078(3) 0.6273(3) -0.1199(3)
H13A H -0.2619 0.5816 -0.1045
H14A H -0.3904 0.5743 -0.1526
C18A C -0.4214(3) 0.8463(3) -0.1531(3)
H15A H -0.4966 0.7793 -0.1861
H16A H -0.4361 0.9155 -0.1559
C19A C -0.0283(3) 0.6872(3) -0.6111(3)
H17A H -0.0288 0.7362 -0.6480
H18A H 0.0260 0.6412 -0.6394
H19A H -0.1074 0.6313 -0.6301
C20A C 0.2184(3) 0.8526(4) -0.5231(3)
H20A H 0.2305 0.7736 -0.5572
H21A H 0.1764 0.8597 -0.5839
H22A H 0.2946 0.9165 -0.4874
N1A N -0.3370(3) 0.8078(3) -0.2255(3)
N2A N -0.2364(3) 0.7937(3) -0.3657(3)
N3A N -0.2636(3) 0.6559(3) -0.2068(3)
N4A N -0.1633(3) 0.6421(3) -0.3478(3)
N5A N -0.0589(3) 0.8553(2) -0.4330(3)
N6A N 0.1253(3) 0.9855(2) -0.3743(3)
N7A N 0.0137(3) 0.6996(2) -0.4181(3)
N8A N 0.1963(3) 0.8381(2) -0.3426(2)
N9A N 0.2619(3) 1.1453(3) -0.1869(3)
N10A N -0.3015(3) 0.7350(3) -0.0086(3)
N11A N 0.3444(3) 1.0007(3) -0.1644(3)
N12A N -0.3811(3) 0.8818(3) -0.0308(3)
O6A O -0.2879(2) 0.9699(2) -0.2619(2)
O7A O -0.0308(2) 1.0633(2) -0.3408(2)
O8A O 0.1536(2) 1.2788(2) -0.1051(2)
O9A O -0.1002(2) 0.5853(2) -0.2159(2)
O10A O 0.1465(2) 0.6873(2) -0.2901(2)
O11A O 0.3451(2) 0.9088(2) -0.0494(2)
O2? O 0.1223(15) 0.7440(16) -0.0658(11)
I2? I 0.444(2) 1.665(2) 0.464(3)
loop_
_geom_bond_atom_site_label_1
_geom_bond_atom_site_label_2
_geom_bond_site_symmetry_1
_geom_bond_site_symmetry_2
O1 K1 1_555 1_555
O3 K1 1_555 1_555
O4 K1 1_555 1_555
K1 O5 1_555 1_555
C1 N1 1_555 1_555
C2 H1 1_555 1_555
C3 C2 1_555 1_555
H2 C3 1_555 1_555
C4 N3 1_555 1_555
C5 H3 1_555 1_555
H4 C5 1_555 1_555
C6 H5 1_555 1_555
H6 C6 1_555 1_555
C7 N5 1_555 1_555
C8 C9 1_555 1_555
C9 C20 1_555 1_555
C10 N7 1_555 1_555
C11 H7 1_555 1_555
H8 C11 1_555 1_555
C12 H9 1_555 1_555
H10 C12 1_555 1_555
C13 N9 1_555 1_555
C14 H11 1_555 1_555
C15 C14 1_555 1_555
H12 C15 1_555 1_555
C16 N11 1_555 1_555
C17 H13 1_555 1_555
H14 C17 1_555 1_555
C18 H15 1_555 1_555
H16 C18 1_555 1_555
C19 C8 1_555 1_555
H17 C19 1_555 1_555
H18 C19 1_555 1_555
H19 C19 1_555 1_555
C20 H20 1_555 1_555
H21 C20 1_555 1_555
H22 C20 1_555 1_555
N1 C2 1_555 1_555
N2 C1 1_555 1_555
N3 C2 1_555 1_555
N4 C3 1_555 1_555
N5 C5 1_555 1_555
N6 C7 1_555 1_555
N7 C6 1_555 1_555
N8 C9 1_555 1_555
N9 C11 1_555 1_555
N10 C17 1_555 1_555
N11 C12 1_555 1_555
N12 C18 1_555 1_555
O6 K1 1_555 1_555
O7 K1 1_555 1_555
O8 K1 1_555 1_555
O9 C4 1_555 1_555
O10 C10 1_555 1_555
O11 C16 1_555 1_555
O1A K1A 1_555 1_555
O3A K1A 1_555 1_555
O4A K1A 1_555 1_555
K1A O5A 1_555 1_555
C1A N1A 1_555 1_555
C2A H1A 1_555 1_555
C3A C2A 1_555 1_555
H2A C3A 1_555 1_555
C4A N3A 1_555 1_555
C5A H3A 1_555 1_555
H4A C5A 1_555 1_555
C6A H5A 1_555 1_555
H6A C6A 1_555 1_555
C7A N5A 1_555 1_555
C8A C9A 1_555 1_555
C9A C20A 1_555 1_555
C10A N7A 1_555 1_555
C11A H7A 1_555 1_555
H8A C11A 1_555 1_555
C12A H9A 1_555 1_555
H10A C12A 1_555 1_555
C13A N10 1_555 1_555
C14A H11A 1_555 1_555
C15A N10 1_555 1_555
H12A C15A 1_555 1_555
C16A N12 1_555 1_555
C17A H13A 1_555 1_555
H14A C17A 1_555 1_555
C18A H15A 1_555 1_555
H16A C18A 1_555 1_555
C19A C8A 1_555 1_555
H17A C19A 1_555 1_555
H18A C19A 1_555 1_555
H19A C19A 1_555 1_555
C20A H20A 1_555 1_555
H21A C20A 1_555 1_555
H22A C20A 1_555 1_555
N1A C2A 1_555 1_555
N2A C1A 1_555 1_555
N3A C2A 1_555 1_555
N4A C3A 1_555 1_555
N5A C5A 1_555 1_555
N6A C7A 1_555 1_555
N7A C6A 1_555 1_555
N8A C9A 1_555 1_555
N9A C11A 1_555 1_555
N10A C13 1_555 1_555
N11A C12A 1_555 1_555
N12A C15 1_555 1_555
O6A K1A 1_555 1_555
O7A K1A 1_555 1_555
O8A K1A 1_555 1_555
O9A C4A 1_555 1_555
O10A C10A 1_555 1_555
O11A C16A 1_555 1_555
C1 O6 1_555 1_555
C3 N2 1_555 1_555
C4 N4 1_555 1_555
C5 N2 1_555 1_555
C6 N4 1_555 1_555
C7 O7 1_555 1_555
C8 N5 1_555 1_555
C8 N7 1_555 1_555
C9 N6 1_555 1_555
C10 N8 1_555 1_555
C11 N6 1_555 1_555
C12 N8 1_555 1_555
C13 O8 1_555 1_555
C14 N9 1_555 1_555
C14 N11 1_555 1_555
C15 N10A 1_555 1_555
C16 N12A 1_555 1_555
C17 N3 1_555 1_555
C18 N1 1_555 1_555
N12 C15A 1_555 1_555
C1A O6A 1_555 1_555
C3A N2A 1_555 1_555
C4A N4A 1_555 1_555
C5A N2A 1_555 1_555
C6A N4A 1_555 1_555
C7A O7A 1_555 1_555
C8A N5A 1_555 1_555
C8A N7A 1_555 1_555
C9A N6A 1_555 1_555
C10A N8A 1_555 1_555
C11A N6A 1_555 1_555
C12A N8A 1_555 1_555
C13A N9A 1_555 1_555
C13A O8A 1_555 1_555
C14A C15A 1_555 1_555
C14A N9A 1_555 1_555
C14A N11A 1_555 1_555
C16A N11A 1_555 1_555
C17A N3A 1_555 1_555
C17A N10A 1_555 1_555
C18A N1A 1_555 1_555
C18A N12A 1_555 1_555

#END
