
#######################################################################
#
#                 Cambridge Crystallographic Data Centre
#                                CCDC 
#
#######################################################################
#
# If this CIF has been generated from an entry in the Cambridge 
# Structural Database, then it will include bibliographic, chemical, 
# crystal, experimental, refinement or atomic coordinate data resulting 
# from the CCDC's data processing and validation procedures.
#
#######################################################################

data_IBIGIL
_chemical_formula_moiety         'C40 H48 Cs1 N24 O14 1+,Cl1 1-,9(H2 O1)'
_chemical_name_systematic        
"(\a,\a',\f,\f'-tetramethylcucurbit(6)uril)-diaqua-cesium chloride nonahydrate"
_symmetry_cell_setting           monoclinic
_symmetry_space_group_name_H-M   'P 21'
_symmetry_Int_Tables_number      4
_space_group_name_Hall           'P 2yb'
loop_
_symmetry_equiv_pos_site_id
_symmetry_equiv_pos_as_xyz
1 x,y,z
2 -x,1/2+y,-z
_cell_length_a                   13.0365(18)
_cell_length_b                   16.629(2)
_cell_length_c                   13.4697(18)
_cell_angle_alpha                90
_cell_angle_beta                 100.572(2)
_cell_angle_gamma                90
_cell_volume                     2870.45
_exptl_crystal_colour            colorless
_exptl_crystal_description       block
_cell_formula_units_Z            2
loop_
_atom_site_label
_atom_site_type_symbol
_atom_site_fract_x
_atom_site_fract_y
_atom_site_fract_z
O1 O 0.0095(6) 0.3341(6) 0.2389(7)
O2 O 0.2725(10) 0.0752(7) 0.0935(12)
Cs1 Cs 0.19126(3) 0.23985(2) 0.15564(2)
C1 C 0.1603(3) 0.2706(2) -0.1432(3)
C2 C 0.2671(3) 0.2416(3) -0.2614(3)
C3 C 0.1655(3) 0.1851(2) -0.2815(3)
C4 C 0.3155(3) 0.1041(3) -0.2340(3)
C5 C 0.0049(3) 0.1850(3) -0.1928(3)
H1 H -0.0305 0.2290 -0.1643
H2 H -0.0358 0.1725 -0.2596
C6 C 0.1494(3) 0.0286(2) -0.2728(3)
H3 H 0.0912 0.0339 -0.3300
H4 H 0.1943 -0.0151 -0.2886
C7 C -0.0182(3) 0.1190(3) -0.0337(3)
C8 C 0.0082(3) 0.0341(2) -0.1658(3)
H5 H -0.0474 0.0257 -0.2257
C9 C -0.0106(3) -0.0180(2) -0.0753(3)
H6 H -0.0705 -0.0550 -0.0943
C10 C 0.1500(3) -0.0546(3) -0.1189(3)
C11 C -0.0535(3) 0.0240(3) 0.0941(3)
H7 H -0.1051 -0.0195 0.0869
H8 H -0.0849 0.0714 0.1197
C12 C 0.0944(3) -0.1341(2) 0.0153(3)
H9 H 0.1418 -0.1726 -0.0080
H10 H 0.0250 -0.1587 0.0055
C13 C 0.0766(3) 0.0462(3) 0.2502(3)
C14 C 0.0658(3) -0.0837(2) 0.1880(3)
H11 H 0.0025 -0.1164 0.1887
C15 C 0.1372(3) -0.0838(2) 0.2923(3)
H12 H 0.1084 -0.1175 0.3411
C16 C 0.2289(3) -0.1394(2) 0.1747(3)
C17 C 0.1797(3) 0.0304(3) 0.4219(3)
H13 H 0.1429 0.0802 0.4322
H14 H 0.1642 -0.0091 0.4711
C18 C 0.3214(3) -0.1354(3) 0.3528(3)
H15 H 0.3643 -0.1763 0.3276
H16 H 0.2941 -0.1590 0.4093
C19 C 0.3280(3) 0.1224(2) 0.4447(3)
C20 C 0.3728(3) -0.0136(2) 0.4730(3)
C21 C 0.4761(3) 0.0380(2) 0.4902(3)
C22 C 0.4786(3) -0.0511(2) 0.3547(3)
C23 C 0.4965(3) 0.1945(2) 0.4850(3)
H17 H 0.4532 0.2393 0.5006
H18 H 0.5550 0.1888 0.5417
C24 C 0.6309(3) 0.0345(3) 0.3952(3)
H19 H 0.6613 -0.0105 0.3635
H20 H 0.6739 0.0430 0.4620
C25 C 0.4941(3) 0.2753(3) 0.3318(3)
C26 C 0.6360(3) 0.1870(3) 0.3752(3)
H21 H 0.6928 0.1942 0.4344
C27 C 0.6535(2) 0.2402(3) 0.2841(3)
H22 H 0.7175 0.2733 0.3010
C28 C 0.6593(3) 0.1049(3) 0.2396(3)
C29 C 0.5442(3) 0.3560(2) 0.1947(3)
H23 H 0.4942 0.3938 0.2152
H24 H 0.6106 0.3844 0.1981
C30 C 0.6982(3) 0.2027(3) 0.1136(3)
H25 H 0.7327 0.1558 0.0903
H26 H 0.7501 0.2457 0.1285
C31 C 0.4074(3) 0.3496(2) 0.0437(3)
C32 C 0.5737(3) 0.3109(3) 0.0222(3)
H27 H 0.6301 0.3509 0.0234
C33 C 0.5004(3) 0.3087(3) -0.0804(3)
H28 H 0.5245 0.3451 -0.1295
C34 C 0.5750(3) 0.1810(3) -0.0477(4)
C35 C 0.3132(3) 0.3564(3) -0.1327(3)
H29 H 0.3378 0.3853 -0.1873
H30 H 0.2687 0.3933 -0.1027
C36 C 0.4623(3) 0.1990(3) -0.2140(4)
H31 H 0.5012 0.1510 -0.2272
H32 H 0.4758 0.2410 -0.2610
C37 C 0.2837(4) 0.2919(3) -0.3497(3)
H33 H 0.2944 0.2570 -0.4046
H34 H 0.3446 0.3258 -0.3298
H35 H 0.2228 0.3254 -0.3718
C38 C 0.1004(3) 0.1923(3) -0.3879(3)
H36 H 0.1409 0.1734 -0.4368
H37 H 0.0813 0.2481 -0.4017
H38 H 0.0377 0.1600 -0.3926
C39 C 0.3537(4) -0.0619(3) 0.5645(3)
H39 H 0.3438 -0.0253 0.6181
H40 H 0.4133 -0.0962 0.5881
H41 H 0.2917 -0.0947 0.5455
C40 C 0.5466(4) 0.0282(3) 0.5933(3)
H42 H 0.5097 0.0457 0.6457
H43 H 0.6089 0.0606 0.5958
H44 H 0.5662 -0.0278 0.6038
N1 N 0.2507(2) 0.2878(2) -0.1755(2)
N2 N 0.1090(3) 0.2121(2) -0.2044(3)
N3 N 0.3512(2) 0.1803(2) -0.2344(3)
N4 N 0.2095(2) 0.1039(2) -0.2622(3)
N5 N 0.0069(2) 0.1147(2) -0.1283(3)
N6 N -0.0300(3) 0.0421(2) -0.0021(3)
N7 N 0.1083(3) 0.0068(2) -0.1841(3)
N8 N 0.0893(2) -0.0618(2) -0.0463(3)
N9 N 0.0393(2) -0.0005(2) 0.1683(3)
N10 N 0.1396(3) 0.0004(2) 0.3202(3)
N11 N 0.1302(2) -0.1194(2) 0.1228(3)
N12 N 0.2347(2) -0.1154(2) 0.2732(3)
N13 N 0.2903(3) 0.0461(2) 0.4414(3)
N14 N 0.4341(2) 0.1207(2) 0.4765(3)
N15 N 0.3871(3) -0.0675(2) 0.3898(3)
N16 N 0.5278(2) 0.0124(2) 0.4077(3)
N17 N 0.5368(3) 0.2141(2) 0.3963(3)
N18 N 0.5595(2) 0.2895(2) 0.2651(3)
N19 N 0.6360(3) 0.1067(2) 0.3343(3)
N20 N 0.6613(3) 0.1817(2) 0.2057(3)
N21 N 0.5063(3) 0.3315(2) 0.0918(2)
N22 N 0.4020(2) 0.3347(2) -0.0569(3)
N23 N 0.6145(2) 0.2292(2) 0.0330(2)
N24 N 0.5015(2) 0.2259(2) -0.1120(3)
O3 O 0.1281(2) 0.30290(18) -0.0733(2)
O4 O -0.0316(2) 0.17965(19) 0.0118(2)
O5 O 0.0563(2) 0.11852(18) 0.2580(2)
O6 O 0.2751(2) 0.18382(18) 0.4257(2)
O7 O 0.4129(2) 0.31124(19) 0.3358(3)
O8 O 0.3366(2) 0.3744(2) 0.0832(2)
O9 O 0.3714(2) 0.04372(19) -0.2169(2)
O10 O 0.2263(2) -0.09300(18) -0.1261(2)
O11 O 0.2954(2) -0.17615(18) 0.1413(2)
O12 O 0.5094(2) -0.08800(18) 0.2877(2)
O13 O 0.6783(3) 0.0442(2) 0.1940(3)
O14 O 0.6009(2) 0.1131(2) -0.0617(3)
Cl1 Cl -0.11398(13) 0.32959(13) 0.45258(17)
loop_
_geom_bond_atom_site_label_1
_geom_bond_atom_site_label_2
_geom_bond_site_symmetry_1
_geom_bond_site_symmetry_2
O1 Cs1 1_555 1_555
O2 Cs1 1_555 1_555
Cs1 O3 1_555 1_555
C1 N1 1_555 1_555
C2 C3 1_555 1_555
C3 C38 1_555 1_555
C4 N3 1_555 1_555
C5 H1 1_555 1_555
H2 C5 1_555 1_555
C6 H3 1_555 1_555
H4 C6 1_555 1_555
C7 N5 1_555 1_555
C8 H5 1_555 1_555
C9 C8 1_555 1_555
H6 C9 1_555 1_555
C10 N7 1_555 1_555
C11 H7 1_555 1_555
H8 C11 1_555 1_555
C12 H9 1_555 1_555
H10 C12 1_555 1_555
C13 N9 1_555 1_555
C14 H11 1_555 1_555
C15 C14 1_555 1_555
H12 C15 1_555 1_555
C16 N11 1_555 1_555
C17 H13 1_555 1_555
H14 C17 1_555 1_555
C18 H15 1_555 1_555
H16 C18 1_555 1_555
C19 N13 1_555 1_555
C20 C21 1_555 1_555
C21 C40 1_555 1_555
C22 N15 1_555 1_555
C23 H17 1_555 1_555
H18 C23 1_555 1_555
C24 H19 1_555 1_555
H20 C24 1_555 1_555
C25 N17 1_555 1_555
C26 H21 1_555 1_555
C27 C26 1_555 1_555
H22 C27 1_555 1_555
C28 N19 1_555 1_555
C29 H23 1_555 1_555
H24 C29 1_555 1_555
C30 H25 1_555 1_555
H26 C30 1_555 1_555
C31 N21 1_555 1_555
C32 H27 1_555 1_555
C33 C32 1_555 1_555
H28 C33 1_555 1_555
C34 N23 1_555 1_555
C35 H29 1_555 1_555
H30 C35 1_555 1_555
C36 H31 1_555 1_555
H32 C36 1_555 1_555
C37 C2 1_555 1_555
H33 C37 1_555 1_555
H34 C37 1_555 1_555
H35 C37 1_555 1_555
C38 H36 1_555 1_555
H37 C38 1_555 1_555
H38 C38 1_555 1_555
C39 C20 1_555 1_555
H39 C39 1_555 1_555
H40 C39 1_555 1_555
H41 C39 1_555 1_555
C40 H42 1_555 1_555
H43 C40 1_555 1_555
H44 C40 1_555 1_555
N1 C2 1_555 1_555
N2 C1 1_555 1_555
N3 C2 1_555 1_555
N4 C3 1_555 1_555
N5 C5 1_555 1_555
N6 C7 1_555 1_555
N7 C6 1_555 1_555
N8 C9 1_555 1_555
N9 C11 1_555 1_555
N10 C13 1_555 1_555
N11 C12 1_555 1_555
N12 C15 1_555 1_555
N13 C17 1_555 1_555
N14 C19 1_555 1_555
N15 C18 1_555 1_555
N16 C21 1_555 1_555
N17 C23 1_555 1_555
N18 C25 1_555 1_555
N19 C24 1_555 1_555
N20 C27 1_555 1_555
N21 C29 1_555 1_555
N22 C31 1_555 1_555
N23 C30 1_555 1_555
N24 C33 1_555 1_555
O3 C1 1_555 1_555
O4 Cs1 1_555 1_555
O5 Cs1 1_555 1_555
O6 Cs1 1_555 1_555
O7 Cs1 1_555 1_555
O8 Cs1 1_555 1_555
O9 C4 1_555 1_555
O10 C10 1_555 1_555
O11 C16 1_555 1_555
O12 C22 1_555 1_555
O13 C28 1_555 1_555
O14 C34 1_555 1_555
C3 N2 1_555 1_555
C4 N4 1_555 1_555
C5 N2 1_555 1_555
C6 N4 1_555 1_555
C7 O4 1_555 1_555
C8 N5 1_555 1_555
C8 N7 1_555 1_555
C9 N6 1_555 1_555
C10 N8 1_555 1_555
C11 N6 1_555 1_555
C12 N8 1_555 1_555
C13 O5 1_555 1_555
C14 N9 1_555 1_555
C14 N11 1_555 1_555
C15 N10 1_555 1_555
C16 N12 1_555 1_555
C17 N10 1_555 1_555
C18 N12 1_555 1_555
C19 O6 1_555 1_555
C20 N13 1_555 1_555
C20 N15 1_555 1_555
C21 N14 1_555 1_555
C22 N16 1_555 1_555
C23 N14 1_555 1_555
C24 N16 1_555 1_555
C25 O7 1_555 1_555
C26 N17 1_555 1_555
C26 N19 1_555 1_555
C27 N18 1_555 1_555
C28 N20 1_555 1_555
C29 N18 1_555 1_555
C30 N20 1_555 1_555
C31 O8 1_555 1_555
C32 N21 1_555 1_555
C32 N23 1_555 1_555
C33 N22 1_555 1_555
C34 N24 1_555 1_555
C35 N1 1_555 1_555
C35 N22 1_555 1_555
C36 N3 1_555 1_555
C36 N24 1_555 1_555

#END
