
#######################################################################
#
#                 Cambridge Crystallographic Data Centre
#                                CCDC 
#
#######################################################################
#
# If this CIF has been generated from an entry in the Cambridge 
# Structural Database, then it will include bibliographic, chemical, 
# crystal, experimental, refinement or atomic coordinate data resulting 
# from the CCDC's data processing and validation procedures.
#
#######################################################################

data_IBIMIS
_chemical_formula_moiety         'C24 H20 N2'
_chemical_name_systematic        N-mesityl-5H-indolo[1,2-a]indol-5-imine
_symmetry_cell_setting           monoclinic
_symmetry_space_group_name_H-M   'P 21/n'
_symmetry_Int_Tables_number      14
_space_group_name_Hall           '-P 2yn'
loop_
_symmetry_equiv_pos_site_id
_symmetry_equiv_pos_as_xyz
1 x,y,z
2 1/2-x,1/2+y,1/2-z
3 -x,-y,-z
4 1/2+x,1/2-y,1/2+z
_cell_length_a                   11.4623(7)
_cell_length_b                   8.8095(4)
_cell_length_c                   18.4406(12)
_cell_angle_alpha                90
_cell_angle_beta                 91.503(5)
_cell_angle_gamma                90
_cell_volume                     1861.44
_cell_formula_units_Z            4
loop_
_atom_site_label
_atom_site_type_symbol
_atom_site_fract_x
_atom_site_fract_y
_atom_site_fract_z
C1 C 0.61642(14) 0.95930(19) 0.05636(9)
C2 C 0.62404(14) 1.19661(19) 0.11039(8)
C3 C 0.54728(14) 1.10133(19) 0.15410(9)
N1 N 0.66318(12) 1.10715(16) 0.05344(7)
C4 C 0.57201(16) 0.7028(2) 0.02892(10)
H1 H 0.5799 0.6177 -0.0004
C5 C 0.48786(15) 0.8192(2) 0.13347(10)
H2 H 0.4408 0.8135 0.1737
N2 N 0.49084(12) 1.13126(16) 0.21163(7)
C6 C 0.73570(14) 1.1916(2) 0.01081(9)
C7 C 0.50162(16) 0.6940(2) 0.08868(10)
H3 H 0.4633 0.6037 0.0989
C8 C 0.59773(14) 1.3145(2) 0.28837(9)
C9 C 0.67073(14) 1.33897(19) 0.10513(9)
H4 H 0.6586 1.4202 0.1362
C10 C 0.74220(14) 1.3386(2) 0.04214(9)
C11 C 0.63142(15) 0.8354(2) 0.01145(9)
H5 H 0.6790 0.8404 -0.0286
C12 C 0.54529(14) 0.95196(19) 0.11712(9)
C13 C 0.60071(15) 1.4561(2) 0.32132(9)
H6 H 0.6634 1.4799 0.3523
C14 C 0.41263(14) 1.3846(2) 0.22960(9)
C15 C 0.50214(14) 1.27972(19) 0.24187(8)
C16 C 0.42005(15) 1.5248(2) 0.26388(9)
H7 H 0.3605 1.5950 0.2558
C17 C 0.81282(15) 1.4486(2) 0.01002(9)
H8 H 0.8185 1.5458 0.0295
C18 C 0.51849(19) 1.7164(2) 0.34656(12)
H9 H 0.5194 1.7026 0.3982
H10 H 0.4513 1.7751 0.3320
H11 H 0.5880 1.7687 0.3329
C19 C 0.87382(16) 1.4104(2) -0.05104(10)
H12 H 0.9212 1.4823 -0.0725
C20 C 0.79728(16) 1.1533(2) -0.05104(9)
H13 H 0.7926 1.0566 -0.0711
C21 C 0.51329(16) 1.5637(2) 0.30974(10)
C22 C 0.30967(15) 1.3469(2) 0.18022(10)
H14 H 0.3293 1.3666 0.1308
H15 H 0.2441 1.4084 0.1929
H16 H 0.2900 1.2416 0.1855
C23 C 0.69204(16) 1.1980(2) 0.30359(10)
H17 H 0.7381 1.1855 0.2613
H18 H 0.6568 1.1028 0.3158
H19 H 0.7411 1.2318 0.3434
C24 C 0.86507(17) 1.2647(2) -0.08099(10)
H20 H 0.9063 1.2425 -0.1224
loop_
_geom_bond_atom_site_label_1
_geom_bond_atom_site_label_2
_geom_bond_site_symmetry_1
_geom_bond_site_symmetry_2
C1 N1 1_555 1_555
C2 C3 1_555 1_555
C3 N2 1_555 1_555
N1 C2 1_555 1_555
C4 H1 1_555 1_555
C5 H2 1_555 1_555
N2 C15 1_555 1_555
C6 N1 1_555 1_555
C7 C4 1_555 1_555
H3 C7 1_555 1_555
C8 C13 1_555 1_555
C9 C2 1_555 1_555
H4 C9 1_555 1_555
C10 C6 1_555 1_555
C11 C1 1_555 1_555
H5 C11 1_555 1_555
C12 C1 1_555 1_555
C13 H6 1_555 1_555
C14 C15 1_555 1_555
C15 C8 1_555 1_555
C16 C14 1_555 1_555
H7 C16 1_555 1_555
C17 C10 1_555 1_555
H8 C17 1_555 1_555
C18 H9 1_555 1_555
H10 C18 1_555 1_555
H11 C18 1_555 1_555
C19 C17 1_555 1_555
H12 C19 1_555 1_555
C20 C6 1_555 1_555
H13 C20 1_555 1_555
C21 C13 1_555 1_555
C22 C14 1_555 1_555
H14 C22 1_555 1_555
H15 C22 1_555 1_555
H16 C22 1_555 1_555
C23 C8 1_555 1_555
H17 C23 1_555 1_555
H18 C23 1_555 1_555
H19 C23 1_555 1_555
C24 C19 1_555 1_555
H20 C24 1_555 1_555
C3 C12 1_555 1_555
C4 C11 1_555 1_555
C5 C7 1_555 1_555
C5 C12 1_555 1_555
C9 C10 1_555 1_555
C16 C21 1_555 1_555
C18 C21 1_555 1_555
C20 C24 1_555 1_555

#END
