
#######################################################################
#
#                 Cambridge Crystallographic Data Centre
#                                CCDC 
#
#######################################################################
#
# If this CIF has been generated from an entry in the Cambridge 
# Structural Database, then it will include bibliographic, chemical, 
# crystal, experimental, refinement or atomic coordinate data resulting 
# from the CCDC's data processing and validation procedures.
#
#######################################################################

data_IBINAL
_chemical_formula_moiety         'C30 H34 O5'
_chemical_name_systematic        
9-benzoyl-4,4,8,8-tetramethyl-11-(3-methyl-2-oxobut-3-en-1-yl)tetracyclo[7.3.1.1^7,11^.0^1,5^]tetradecane-10,12,13-trione
_symmetry_cell_setting           orthorhombic
_symmetry_space_group_name_H-M   'P 21 21 21'
_symmetry_Int_Tables_number      19
_space_group_name_Hall           'P 2ac 2ab'
loop_
_symmetry_equiv_pos_site_id
_symmetry_equiv_pos_as_xyz
1 x,y,z
2 1/2+x,1/2-y,-z
3 -x,1/2+y,1/2-z
4 1/2-x,-y,1/2+z
_cell_length_a                   11.7889(2)
_cell_length_b                   12.8803(2)
_cell_length_c                   16.4523(3)
_cell_angle_alpha                90
_cell_angle_beta                 90
_cell_angle_gamma                90
_cell_volume                     2498.19
_exptl_crystal_colour            colorless
_exptl_crystal_description       prism
_cell_formula_units_Z            4
loop_
_atom_site_label
_atom_site_type_symbol
_atom_site_fract_x
_atom_site_fract_y
_atom_site_fract_z
O1 O 0.80039(10) 0.32248(10) 0.69223(8)
O2 O 0.71088(9) 0.46487(9) 0.52388(7)
O3 O 0.34882(9) 0.56557(9) 0.58757(7)
O4 O 0.32461(9) 0.36852(9) 0.67457(8)
O5 O 0.53933(10) 0.37976(9) 0.76364(7)
C1 C 0.11380(15) 0.51653(16) 0.77827(11)
H1 H 0.0355 0.5141 0.7918
H2 H 0.1580 0.5754 0.7928
C2 C 0.16241(14) 0.43629(14) 0.73825(10)
C3 C 0.28532(14) 0.43771(13) 0.71612(10)
C4 C 0.36044(14) 0.52425(14) 0.74805(10)
H3 H 0.3783 0.5103 0.8058
H4 H 0.3180 0.5905 0.7455
C5 C 0.47093(13) 0.53622(12) 0.70106(9)
C6 C 0.55116(13) 0.44591(12) 0.71215(9)
C7 C 0.65901(13) 0.45365(12) 0.66204(9)
C8 C 0.71447(13) 0.34456(13) 0.65605(10)
C9 C 0.65736(14) 0.26640(13) 0.60253(9)
C10 C 0.72429(15) 0.18684(14) 0.57038(11)
H5 H 0.8029 0.1842 0.5830
C11 C 0.67763(17) 0.11192(14) 0.52047(12)
H6 H 0.7242 0.0590 0.4980
C12 C 0.56213(17) 0.11436(14) 0.50337(10)
H7 H 0.5294 0.0622 0.4699
C13 C 0.54248(14) 0.26927(12) 0.58306(10)
H8 H 0.4964 0.3242 0.6029
C14 C 0.49492(15) 0.19237(14) 0.53486(10)
H9 H 0.4159 0.1934 0.5235
C15 C 0.64283(13) 0.49229(12) 0.57419(9)
C16 C 0.54518(13) 0.56519(12) 0.55323(9)
C17 C 0.51105(14) 0.55540(13) 0.46275(9)
H10 H 0.5679 0.5141 0.4325
H11 H 0.4362 0.5212 0.4576
C18 C 0.50608(14) 0.66678(13) 0.42979(10)
H12 H 0.5221 0.6679 0.3707
H13 H 0.4303 0.6975 0.4393
C19 C 0.59738(14) 0.72683(13) 0.47664(10)
C20 C 0.57829(13) 0.68454(12) 0.56408(9)
H14 H 0.5079 0.7195 0.5842
C21 C 0.66896(14) 0.70810(12) 0.62711(10)
H15 H 0.6643 0.7827 0.6411
H16 H 0.7441 0.6960 0.6020
C22 C 0.66278(13) 0.64490(12) 0.70661(9)
H17 H 0.6999 0.6898 0.7485
C23 C 0.53983(13) 0.63065(12) 0.73676(9)
H18 H 0.4974 0.6950 0.7244
H19 H 0.5418 0.6233 0.7966
C24 C 0.44534(13) 0.55333(12) 0.61065(10)
C25 C 0.09967(14) 0.34203(15) 0.71341(11)
H20 H 0.1273 0.2823 0.7446
H21 H 0.1116 0.3295 0.6553
H22 H 0.0186 0.3518 0.7239
C26 C 0.73192(13) 0.54085(13) 0.70774(10)
C27 C 0.84858(14) 0.55369(13) 0.66748(11)
H23 H 0.8872 0.6141 0.6908
H24 H 0.8388 0.5639 0.6089
H25 H 0.8942 0.4913 0.6771
C28 C 0.75249(15) 0.51139(14) 0.79714(11)
H26 H 0.7913 0.4442 0.7997
H27 H 0.6796 0.5067 0.8256
H28 H 0.7997 0.5646 0.8231
C29 C 0.71593(14) 0.70265(14) 0.44333(10)
H29 H 0.7196 0.7222 0.3858
H30 H 0.7312 0.6282 0.4489
H31 H 0.7727 0.7421 0.4740
C30 C 0.57700(16) 0.84369(14) 0.47500(11)
H32 H 0.5826 0.8689 0.4189
H33 H 0.6341 0.8785 0.5086
H34 H 0.5012 0.8588 0.4964
loop_
_geom_bond_atom_site_label_1
_geom_bond_atom_site_label_2
_geom_bond_site_symmetry_1
_geom_bond_site_symmetry_2
O1 C8 1_555 1_555
O2 C15 1_555 1_555
O3 C24 1_555 1_555
O4 C3 1_555 1_555
O5 C6 1_555 1_555
C1 H1 1_555 1_555
H2 C1 1_555 1_555
C2 C1 1_555 1_555
C3 C2 1_555 1_555
C4 C3 1_555 1_555
H3 C4 1_555 1_555
H4 C4 1_555 1_555
C5 C4 1_555 1_555
C6 C5 1_555 1_555
C7 C6 1_555 1_555
C8 C7 1_555 1_555
C9 C8 1_555 1_555
C10 C9 1_555 1_555
H5 C10 1_555 1_555
C11 C10 1_555 1_555
H6 C11 1_555 1_555
C12 C11 1_555 1_555
H7 C12 1_555 1_555
C13 C9 1_555 1_555
H8 C13 1_555 1_555
C14 C12 1_555 1_555
H9 C14 1_555 1_555
C15 C7 1_555 1_555
C16 C15 1_555 1_555
C17 C16 1_555 1_555
H10 C17 1_555 1_555
H11 C17 1_555 1_555
C18 C17 1_555 1_555
H12 C18 1_555 1_555
H13 C18 1_555 1_555
C19 C18 1_555 1_555
C20 C16 1_555 1_555
H14 C20 1_555 1_555
C21 C20 1_555 1_555
H15 C21 1_555 1_555
H16 C21 1_555 1_555
C22 C21 1_555 1_555
H17 C22 1_555 1_555
C23 C5 1_555 1_555
H18 C23 1_555 1_555
H19 C23 1_555 1_555
C24 C5 1_555 1_555
C25 C2 1_555 1_555
H20 C25 1_555 1_555
H21 C25 1_555 1_555
H22 C25 1_555 1_555
C26 C7 1_555 1_555
C27 C26 1_555 1_555
H23 C27 1_555 1_555
H24 C27 1_555 1_555
H25 C27 1_555 1_555
C28 C26 1_555 1_555
H26 C28 1_555 1_555
H27 C28 1_555 1_555
H28 C28 1_555 1_555
C29 C19 1_555 1_555
H29 C29 1_555 1_555
H30 C29 1_555 1_555
H31 C29 1_555 1_555
C30 C19 1_555 1_555
H32 C30 1_555 1_555
H33 C30 1_555 1_555
H34 C30 1_555 1_555
C13 C14 1_555 1_555
C16 C24 1_555 1_555
C19 C20 1_555 1_555
C22 C23 1_555 1_555
C22 C26 1_555 1_555

#END
