
#######################################################################
#
#                 Cambridge Crystallographic Data Centre
#                                CCDC 
#
#######################################################################
#
# If this CIF has been generated from an entry in the Cambridge 
# Structural Database, then it will include bibliographic, chemical, 
# crystal, experimental, refinement or atomic coordinate data resulting 
# from the CCDC's data processing and validation procedures.
#
#######################################################################

data_IBIVUL
_chemical_formula_moiety         'C24 H26 O5 Se2'
_chemical_name_systematic        
'bis(5-t-Butyl-7-formyl-2,3-dihydro(2,1)benzoxaselenol-3-yl) ether'
_symmetry_cell_setting           triclinic
_symmetry_space_group_name_H-M   'P -1'
_symmetry_Int_Tables_number      2
_space_group_name_Hall           '-P 1'
loop_
_symmetry_equiv_pos_site_id
_symmetry_equiv_pos_as_xyz
1 x,y,z
2 -x,-y,-z
_cell_length_a                   8.783(3)
_cell_length_b                   8.714(3)
_cell_length_c                   14.740(4)
_cell_angle_alpha                88.829(6)
_cell_angle_beta                 81.012(5)
_cell_angle_gamma                81.278(5)
_cell_volume                     1101.38
_exptl_crystal_colour            yellow
_exptl_crystal_description       block
_cell_formula_units_Z            2
_exptl_crystal_recrystallization_method 'dichloromethane/petroleum ether'
loop_
_atom_site_label
_atom_site_type_symbol
_atom_site_fract_x
_atom_site_fract_y
_atom_site_fract_z
Se1 Se 0.24606(3) -0.02510(3) 0.193870(18)
Se2 Se 0.27582(3) 0.67790(3) 0.392510(19)
O1 O 0.2734(2) 0.31191(19) 0.30482(11)
O2 O 0.1417(2) 0.1756(2) 0.21477(13)
O3 O 0.4666(2) -0.2481(2) 0.12941(13)
O4 O 0.1581(2) 0.5718(2) 0.32763(13)
O5 O 0.4035(2) 0.7521(2) 0.51913(13)
C1 C 0.4196(3) 0.0654(3) 0.14589(16)
C2 C 0.3989(3) 0.2239(3) 0.16038(16)
C3 C 0.5202(3) 0.3048(3) 0.13197(16)
H1 H 0.5059 0.4136 0.1426
C4 C 0.6652(3) 0.2303(3) 0.08752(16)
C5 C 0.7969(3) 0.3253(3) 0.05776(16)
C6 C 0.9484(3) 0.2241(3) 0.01791(18)
H2 H 0.9806 0.1487 0.0641
H3 H 1.0296 0.2895 0.0003
H4 H 0.9326 0.1689 -0.0363
C7 C 0.8248(3) 0.4118(3) 0.14195(17)
H5 H 0.8528 0.3365 0.1891
H6 H 0.7296 0.4815 0.1665
H7 H 0.9099 0.4725 0.1239
C8 C 0.7482(3) 0.4412(3) -0.01514(17)
H8 H 0.7360 0.3849 -0.0698
H9 H 0.8283 0.5082 -0.0315
H10 H 0.6489 0.5049 0.0091
C9 C 0.6825(3) 0.0709(3) 0.07339(16)
H11 H 0.7790 0.0180 0.0431
C10 C 0.5607(3) -0.0124(3) 0.10290(16)
C11 C 0.2436(3) 0.2865(3) 0.21569(17)
H12 H 0.1992 0.3865 0.1888
C12 C 0.5728(3) -0.1796(3) 0.09536(18)
H13 H 0.6654 -0.2371 0.0632
C13 C 0.2553(3) 0.5233(3) 0.48007(17)
C14 C 0.1869(3) 0.4040(3) 0.45388(16)
C15 C 0.1700(3) 0.2790(3) 0.51169(17)
H14 H 0.1227 0.1961 0.4933
C16 C 0.2216(3) 0.2727(3) 0.59702(16)
C17 C 0.2114(3) 0.1326(3) 0.66073(17)
C18 C 0.1300(3) 0.1874(3) 0.75655(17)
H15 H 0.1908 0.2572 0.7816
H16 H 0.1215 0.0974 0.7970
H17 H 0.0255 0.2427 0.7525
C19 C 0.3765(3) 0.0517(3) 0.66542(18)
H18 H 0.4279 0.0181 0.6037
H19 H 0.3722 -0.0389 0.7057
H20 H 0.4354 0.1239 0.6899
C20 C 0.1172(3) 0.0172(3) 0.62676(18)
H21 H 0.1693 -0.0238 0.5666
H22 H 0.0122 0.0700 0.6214
H23 H 0.1098 -0.0685 0.6706
C21 C 0.2923(3) 0.3956(3) 0.62104(17)
H24 H 0.3294 0.3930 0.6783
C22 C 0.3100(3) 0.5220(3) 0.56307(18)
C23 C 0.1525(3) 0.4179(3) 0.35756(17)
H25 H 0.0479 0.3883 0.3542
C24 C 0.3888(3) 0.6523(3) 0.57811(19)
H26 H 0.4289 0.6599 0.6338
loop_
_geom_bond_atom_site_label_1
_geom_bond_atom_site_label_2
_geom_bond_site_symmetry_1
_geom_bond_site_symmetry_2
Se1 O2 1_555 1_555
Se2 O4 1_555 1_555
O1 C11 1_555 1_555
O2 C11 1_555 1_555
O3 C12 1_555 1_555
O4 C23 1_555 1_555
O5 C24 1_555 1_555
C1 Se1 1_555 1_555
C2 C1 1_555 1_555
C3 C2 1_555 1_555
H1 C3 1_555 1_555
C4 C3 1_555 1_555
C5 C4 1_555 1_555
C6 C5 1_555 1_555
H2 C6 1_555 1_555
H3 C6 1_555 1_555
H4 C6 1_555 1_555
C7 C5 1_555 1_555
H5 C7 1_555 1_555
H6 C7 1_555 1_555
H7 C7 1_555 1_555
C8 C5 1_555 1_555
H8 C8 1_555 1_555
H9 C8 1_555 1_555
H10 C8 1_555 1_555
C9 C4 1_555 1_555
H11 C9 1_555 1_555
C10 C1 1_555 1_555
C11 C2 1_555 1_555
H12 C11 1_555 1_555
C12 C10 1_555 1_555
H13 C12 1_555 1_555
C13 Se2 1_555 1_555
C14 C13 1_555 1_555
C15 C14 1_555 1_555
H14 C15 1_555 1_555
C16 C15 1_555 1_555
C17 C16 1_555 1_555
C18 C17 1_555 1_555
H15 C18 1_555 1_555
H16 C18 1_555 1_555
H17 C18 1_555 1_555
C19 C17 1_555 1_555
H18 C19 1_555 1_555
H19 C19 1_555 1_555
H20 C19 1_555 1_555
C20 C17 1_555 1_555
H21 C20 1_555 1_555
H22 C20 1_555 1_555
H23 C20 1_555 1_555
C21 C16 1_555 1_555
H24 C21 1_555 1_555
C22 C13 1_555 1_555
C23 O1 1_555 1_555
H25 C23 1_555 1_555
C24 C22 1_555 1_555
H26 C24 1_555 1_555
C9 C10 1_555 1_555
C14 C23 1_555 1_555
C21 C22 1_555 1_555

#END
