
#######################################################################
#
#                 Cambridge Crystallographic Data Centre
#                                CCDC 
#
#######################################################################
#
# If this CIF has been generated from an entry in the Cambridge 
# Structural Database, then it will include bibliographic, chemical, 
# crystal, experimental, refinement or atomic coordinate data resulting 
# from the CCDC's data processing and validation procedures.
#
#######################################################################

data_IBIYOK
_chemical_formula_moiety         'C15 H17 N3 O8'
_chemical_name_systematic        
6-butoxy-5-methoxy-3,10-dinitro-12,13-dioxa-11-azatricyclo[7.3.1.0^2,7^]trideca-2,4,6,10-tetraene
_symmetry_cell_setting           orthorhombic
_symmetry_space_group_name_H-M   'P 21 21 21'
_symmetry_Int_Tables_number      19
_space_group_name_Hall           'P 2ac 2ab'
loop_
_symmetry_equiv_pos_site_id
_symmetry_equiv_pos_as_xyz
1 x,y,z
2 1/2+x,1/2-y,-z
3 -x,1/2+y,1/2-z
4 1/2-x,-y,1/2+z
_cell_length_a                   4.6736(6)
_cell_length_b                   17.606(2)
_cell_length_c                   19.170(3)
_cell_angle_alpha                90
_cell_angle_beta                 90
_cell_angle_gamma                90
_cell_volume                     1577.37
_exptl_crystal_colour            colorless
_cell_formula_units_Z            4
loop_
_atom_site_label
_atom_site_type_symbol
_atom_site_fract_x
_atom_site_fract_y
_atom_site_fract_z
O1 O 0.6364(3) 0.34211(8) 0.16923(8)
O2 O 0.5951(3) 0.30877(9) 0.48618(9)
O3 O 0.5038(3) 0.22860(8) 0.40263(8)
O4 O 0.0379(3) 0.45591(8) 0.40380(7)
O5 O -0.1639(3) 0.35898(8) 0.33665(8)
O6 O -0.1011(3) 0.58832(9) 0.32861(9)
O7 O 0.0451(4) 0.64924(9) 0.23758(9)
O8 O 0.7241(3) 0.48111(8) 0.11418(8)
N1 N 0.4671(4) 0.28918(10) 0.43360(9)
N2 N 0.2308(4) 0.40463(10) 0.43235(9)
N3 N 0.0346(4) 0.59163(10) 0.27392(9)
C1 C 0.5936(5) 0.09912(12) 0.03950(13)
H1 H 0.8028 0.0999 0.0359
H2 H 0.5126 0.0756 -0.0024
H3 H 0.5370 0.0698 0.0807
C2 C 0.4825(5) 0.18007(11) 0.04622(11)
H4 H 0.2714 0.1786 0.0505
H5 H 0.5295 0.2082 0.0030
C3 C 0.6050(5) 0.22312(12) 0.10846(11)
H6 H 0.5493 0.1968 0.1520
H7 H 0.8165 0.2229 0.1056
C4 C 0.5006(5) 0.30423(11) 0.11111(11)
H8 H 0.5489 0.3306 0.0671
H9 H 0.2902 0.3052 0.1169
C5 C 0.4849(5) 0.40315(11) 0.19435(11)
C6 C 0.2883(4) 0.39099(12) 0.24807(11)
C7 C 0.2377(5) 0.31064(12) 0.27210(11)
H10 H 0.4232 0.2840 0.2768
H11 H 0.1218 0.2833 0.2369
C8 C 0.0825(4) 0.31026(12) 0.34177(11)
H12 H 0.0186 0.2574 0.3527
C9 C 0.2538(4) 0.34055(12) 0.40177(11)
C10 C -0.0783(4) 0.43547(12) 0.33584(11)
H13 H -0.2516 0.4674 0.3272
C11 C 0.1384(4) 0.45186(12) 0.27799(11)
C12 C 0.1913(5) 0.52403(12) 0.24965(11)
C13 C 0.3825(5) 0.53664(12) 0.19536(11)
H14 H 0.4104 0.5865 0.1778
C14 C 0.5326(5) 0.47602(11) 0.16694(11)
C15 C 0.7551(6) 0.55408(12) 0.08058(12)
H15 H 0.5689 0.5708 0.0628
H16 H 0.8905 0.5497 0.0418
H17 H 0.8269 0.5912 0.1144
loop_
_geom_bond_atom_site_label_1
_geom_bond_atom_site_label_2
_geom_bond_site_symmetry_1
_geom_bond_site_symmetry_2
O1 C4 1_555 1_555
O2 N1 1_555 1_555
O3 N1 1_555 1_555
O4 N2 1_555 1_555
O5 C8 1_555 1_555
O6 N3 1_555 1_555
O7 N3 1_555 1_555
O8 C14 1_555 1_555
N1 C9 1_555 1_555
N2 C9 1_555 1_555
N3 C12 1_555 1_555
C1 H1 1_555 1_555
H2 C1 1_555 1_555
H3 C1 1_555 1_555
C2 C1 1_555 1_555
H4 C2 1_555 1_555
H5 C2 1_555 1_555
C3 C2 1_555 1_555
H6 C3 1_555 1_555
H7 C3 1_555 1_555
C4 C3 1_555 1_555
H8 C4 1_555 1_555
H9 C4 1_555 1_555
C5 O1 1_555 1_555
C6 C5 1_555 1_555
C7 C6 1_555 1_555
H10 C7 1_555 1_555
H11 C7 1_555 1_555
C8 C7 1_555 1_555
H12 C8 1_555 1_555
C9 C8 1_555 1_555
C10 O4 1_555 1_555
H13 C10 1_555 1_555
C11 C6 1_555 1_555
C12 C11 1_555 1_555
C13 C12 1_555 1_555
H14 C13 1_555 1_555
C14 C5 1_555 1_555
C15 O8 1_555 1_555
H15 C15 1_555 1_555
H16 C15 1_555 1_555
H17 C15 1_555 1_555
O5 C10 1_555 1_555
C10 C11 1_555 1_555
C13 C14 1_555 1_555

#END
