
#######################################################################
#
#                 Cambridge Crystallographic Data Centre
#                                CCDC 
#
#######################################################################
#
# If this CIF has been generated from an entry in the Cambridge 
# Structural Database, then it will include bibliographic, chemical, 
# crystal, experimental, refinement or atomic coordinate data resulting 
# from the CCDC's data processing and validation procedures.
#
#######################################################################

data_IBODUZ
_chemical_formula_moiety         'C16 H30 B20 S3'
_chemical_name_systematic        
1,3-bis(2-Phenyl-1,2-dicarba-closo-dodecaboran-1-yl)trisulfide
_symmetry_cell_setting           orthorhombic
_symmetry_space_group_name_H-M   'P 21 21 21'
_symmetry_Int_Tables_number      19
_space_group_name_Hall           'P 2ac 2ab'
loop_
_symmetry_equiv_pos_site_id
_symmetry_equiv_pos_as_xyz
1 x,y,z
2 1/2-x,-y,1/2+z
3 1/2+x,1/2-y,-z
4 -x,1/2+y,1/2-z
_cell_length_a                   8.0923(3)
_cell_length_b                   14.8660(7)
_cell_length_c                   24.1238(8)
_cell_angle_alpha                90
_cell_angle_beta                 90
_cell_angle_gamma                90
_cell_volume                     2902.1
_exptl_crystal_colour            colorless
_exptl_crystal_description       block
_chemical_melting_point          '160-161 deg.C'
_cell_formula_units_Z            4
_exptl_crystal_recrystallization_method 'petroleum ether'
loop_
_atom_site_label
_atom_site_type_symbol
_atom_site_fract_x
_atom_site_fract_y
_atom_site_fract_z
C1 C 0.9249(3) 0.85725(15) 0.24548(9)
C2 C 0.9244(3) 0.74132(15) 0.23858(9)
B1 B 0.8783(5) 0.81097(19) 0.18246(11)
H1 H 0.7549 0.8145 0.1635
B2 B 1.0087(5) 0.9072(2) 0.18833(13)
H2 H 0.9719 0.9733 0.1720
B3 B 1.1204(4) 0.8967(2) 0.25120(13)
H3 H 1.1554 0.9560 0.2758
B4 B 1.0623(4) 0.79331(19) 0.28344(12)
H4 H 1.0571 0.7858 0.3288
B5 B 1.0082(4) 0.7151(2) 0.17607(12)
H5 H 0.9706 0.6564 0.1514
B6 B 1.0639(6) 0.8181(2) 0.14402(14)
H6 H 1.0631 0.8262 0.0987
B7 B 1.2155(6) 0.8702(2) 0.18701(16)
H7 H 1.3151 0.9119 0.1696
B8 B 1.2486(5) 0.8005(2) 0.24599(16)
H8 H 1.3690 0.7974 0.2671
B9 B 1.1218(4) 0.7033(2) 0.23890(13)
H9 H 1.1585 0.6372 0.2553
B10 B 1.2157(5) 0.7513(2) 0.17914(15)
H10 H 1.3146 0.7162 0.1566
C3 C 0.7828(3) 0.68850(14) 0.26193(9)
C4 C 0.7644(4) 0.67363(17) 0.31821(10)
H11 H 0.8412 0.6972 0.3429
C5 C 0.6329(4) 0.62401(19) 0.33786(13)
H12 H 0.6209 0.6148 0.3758
C6 C 0.5198(4) 0.5882(2) 0.30186(14)
H13 H 0.4316 0.5547 0.3154
C7 C 0.5362(4) 0.6017(2) 0.24628(14)
H14 H 0.4591 0.5774 0.2219
C8 C 0.6671(4) 0.65137(17) 0.22609(11)
H15 H 0.6779 0.6601 0.1881
S1 S 0.74514(8) 0.90532(4) 0.27690(2)
C9 C 0.5996(3) 0.91664(16) 0.43585(9)
C10 C 0.5688(3) 0.99656(15) 0.48747(9)
B11 B 0.4920(4) 1.0131(2) 0.42145(11)
H16 H 0.5385 1.0661 0.3937
B12 B 0.4284(4) 0.9065(2) 0.39586(12)
H17 H 0.4308 0.8908 0.3513
B13 B 0.4775(4) 0.8244(2) 0.44677(13)
H18 H 0.5110 0.7551 0.4354
B14 B 0.5739(4) 0.88207(19) 0.50317(11)
H19 H 0.6730 0.8510 0.5278
B15 B 0.3727(4) 1.0376(2) 0.48200(12)
H20 H 0.3378 1.1067 0.4932
B16 B 0.2814(4) 0.9814(2) 0.42492(13)
H21 H 0.1869 1.0142 0.3991
B17 B 0.2728(4) 0.8645(2) 0.44097(13)
H22 H 0.1721 0.8213 0.4259
B18 B 0.3651(4) 0.8495(2) 0.50765(13)
H23 H 0.3255 0.7959 0.5362
B19 B 0.4245(4) 0.9563(2) 0.53273(12)
H24 H 0.4241 0.9723 0.5772
B20 B 0.2403(4) 0.9451(2) 0.49433(14)
H25 H 0.1183 0.9537 0.5138
C11 C 0.7131(3) 1.05119(15) 0.50694(9)
C12 C 0.7795(5) 1.12002(19) 0.47560(12)
H26 H 0.7347 1.1332 0.4410
C13 C 0.9121(5) 1.1697(2) 0.49505(16)
H27 H 0.9579 1.2145 0.4730
C14 C 0.9758(5) 1.1534(2) 0.54619(13)
H28 H 1.0626 1.1881 0.5596
C15 C 0.9118(4) 1.0859(2) 0.57753(12)
H29 H 0.9559 1.0741 0.6124
C16 C 0.7817(4) 1.03452(19) 0.55813(10)
H30 H 0.7401 0.9882 0.5799
S2 S 0.80636(8) 0.89883(5) 0.41237(2)
S3 S 0.83111(9) 0.97622(4) 0.34318(3)
loop_
_geom_bond_atom_site_label_1
_geom_bond_atom_site_label_2
_geom_bond_site_symmetry_1
_geom_bond_site_symmetry_2
C1 C2 1_555 1_555
C2 B1 1_555 1_555
B1 C1 1_555 1_555
H1 B1 1_555 1_555
B2 C1 1_555 1_555
H2 B2 1_555 1_555
B3 C1 1_555 1_555
H3 B3 1_555 1_555
B4 C1 1_555 1_555
H4 B4 1_555 1_555
B5 C2 1_555 1_555
H5 B5 1_555 1_555
B6 B1 1_555 1_555
H6 B6 1_555 1_555
B7 B2 1_555 1_555
H7 B7 1_555 1_555
B8 B3 1_555 1_555
H8 B8 1_555 1_555
B9 C2 1_555 1_555
H9 B9 1_555 1_555
B10 B5 1_555 1_555
H10 B10 1_555 1_555
C3 C2 1_555 1_555
C4 C3 1_555 1_555
H11 C4 1_555 1_555
C5 C4 1_555 1_555
H12 C5 1_555 1_555
C6 C5 1_555 1_555
H13 C6 1_555 1_555
C7 C6 1_555 1_555
H14 C7 1_555 1_555
C8 C3 1_555 1_555
H15 C8 1_555 1_555
S1 C1 1_555 1_555
C9 C10 1_555 1_555
C10 B11 1_555 1_555
B11 C9 1_555 1_555
H16 B11 1_555 1_555
B12 C9 1_555 1_555
H17 B12 1_555 1_555
B13 C9 1_555 1_555
H18 B13 1_555 1_555
B14 C9 1_555 1_555
H19 B14 1_555 1_555
B15 C10 1_555 1_555
H20 B15 1_555 1_555
B16 B11 1_555 1_555
H21 B16 1_555 1_555
B17 B12 1_555 1_555
H22 B17 1_555 1_555
B18 B13 1_555 1_555
H23 B18 1_555 1_555
B19 C10 1_555 1_555
H24 B19 1_555 1_555
B20 B15 1_555 1_555
H25 B20 1_555 1_555
C11 C10 1_555 1_555
C12 C11 1_555 1_555
H26 C12 1_555 1_555
C13 C12 1_555 1_555
H27 C13 1_555 1_555
C14 C13 1_555 1_555
H28 C14 1_555 1_555
C15 C14 1_555 1_555
H29 C15 1_555 1_555
C16 C11 1_555 1_555
H30 C16 1_555 1_555
S2 C9 1_555 1_555
S3 S1 1_555 1_555
C2 B4 1_555 1_555
B1 B5 1_555 1_555
B1 B2 1_555 1_555
B2 B6 1_555 1_555
B2 B3 1_555 1_555
B3 B7 1_555 1_555
B3 B4 1_555 1_555
B4 B9 1_555 1_555
B4 B8 1_555 1_555
B5 B9 1_555 1_555
B5 B6 1_555 1_555
B6 B10 1_555 1_555
B6 B7 1_555 1_555
B7 B8 1_555 1_555
B7 B10 1_555 1_555
B8 B9 1_555 1_555
B8 B10 1_555 1_555
B9 B10 1_555 1_555
C7 C8 1_555 1_555
C10 B14 1_555 1_555
B11 B15 1_555 1_555
B11 B12 1_555 1_555
B12 B16 1_555 1_555
B12 B13 1_555 1_555
B13 B17 1_555 1_555
B13 B14 1_555 1_555
B14 B19 1_555 1_555
B14 B18 1_555 1_555
B15 B19 1_555 1_555
B15 B16 1_555 1_555
B16 B20 1_555 1_555
B16 B17 1_555 1_555
B17 B18 1_555 1_555
B17 B20 1_555 1_555
B18 B19 1_555 1_555
B18 B20 1_555 1_555
B19 B20 1_555 1_555
C15 C16 1_555 1_555
S2 S3 1_555 1_555

#END
