
#######################################################################
#
#                 Cambridge Crystallographic Data Centre
#                                CCDC 
#
#######################################################################
#
# If this CIF has been generated from an entry in the Cambridge 
# Structural Database, then it will include bibliographic, chemical, 
# crystal, experimental, refinement or atomic coordinate data resulting 
# from the CCDC's data processing and validation procedures.
#
#######################################################################

data_IBOGAK
_chemical_formula_moiety         'C16 H17 N3 O8'
_chemical_name_systematic        
6-(cyclopentoxy)-5-methoxy-3,10-dinitro-12,13-dioxa-11-azatricyclo[7.3.1.0^2,7^]trideca-2,4,6,10-tetraene
_symmetry_cell_setting           orthorhombic
_symmetry_space_group_name_H-M   'P n a 21'
_symmetry_Int_Tables_number      33
_space_group_name_Hall           'P 2c -2n'
loop_
_symmetry_equiv_pos_site_id
_symmetry_equiv_pos_as_xyz
1 x,y,z
2 -x,-y,1/2+z
3 1/2+x,1/2-y,z
4 1/2-x,1/2+y,1/2+z
_cell_length_a                   20.8281(11)
_cell_length_b                   4.7751(2)
_cell_length_c                   16.9177(8)
_cell_angle_alpha                90
_cell_angle_beta                 90
_cell_angle_gamma                90
_cell_volume                     1682.57
_exptl_crystal_colour            colorless
_cell_formula_units_Z            4
loop_
_atom_site_label
_atom_site_type_symbol
_atom_site_fract_x
_atom_site_fract_y
_atom_site_fract_z
C1 C 0.3773(2) 0.7555(8) 0.4805(3)
C2 C 0.4251(2) 0.9273(9) 0.4351(2)
H1 H 0.4052 0.9924 0.3860
C3 C 0.48706(18) 0.7808(9) 0.4159(2)
H2 H 0.5124 0.8965 0.3806
H3 H 0.4780 0.6053 0.3893
C4 C 0.52469(18) 0.7243(8) 0.4904(2)
C5 C 0.57508(18) 0.5329(8) 0.4872(3)
C6 C 0.6101(2) 0.4679(10) 0.5556(3)
C7 C 0.5944(2) 0.6032(12) 0.6250(3)
H4 H 0.6176 0.5654 0.6708
C8 C 0.5451(2) 0.7931(10) 0.6272(2)
C9 C 0.5086(2) 0.8621(8) 0.5605(2)
C10 C 0.4546(2) 1.0739(9) 0.5609(2)
H5 H 0.4684 1.2370 0.5917
C11 C 0.6263(4) 0.540(2) 0.3641(5)
H6 H 0.6138 0.7379 0.3622
C12 C 0.6183(5) 0.411(3) 0.2827(6)
H7 H 0.6198 0.2082 0.2849
H8 H 0.5785 0.4697 0.2580
C13 C 0.6733(6) 0.524(3) 0.2425(7)
H9 H 0.6639 0.7116 0.2234
H10 H 0.6843 0.4079 0.1975
C14 C 0.7305(6) 0.533(3) 0.3021(8)
H11 H 0.7591 0.3757 0.2943
H12 H 0.7547 0.7058 0.2968
C15 C 0.6981(5) 0.518(3) 0.3814(8)
H13 H 0.7121 0.6703 0.4152
H14 H 0.7079 0.3416 0.4074
C16 C 0.6996(3) 0.2341(15) 0.6122(4)
H15 H 0.7234 0.4035 0.6209
H16 H 0.7288 0.0841 0.6005
H17 H 0.6755 0.1889 0.6589
N1 N 0.33966(18) 0.5477(9) 0.4346(3)
N2 N 0.5337(3) 0.9253(12) 0.7039(2)
N3 N 0.36224(18) 0.7694(9) 0.5525(3)
O1 O 0.3526(2) 0.5322(8) 0.3650(3)
O2 O 0.29943(19) 0.4059(10) 0.4687(4)
O3 O 0.4929(3) 1.1019(11) 0.7120(3)
O4 O 0.5641(5) 0.851(2) 0.7576(3)
O5 O 0.39756(16) 0.9559(8) 0.59855(19)
O6 O 0.43860(14) 1.1644(5) 0.48462(19)
O7 O 0.58565(13) 0.3955(6) 0.41796(17)
O8 O 0.65695(15) 0.2722(8) 0.5477(2)
C17? C 0.6467(4) 0.359(2) 0.3811(6)
H18? H 0.6703 0.2046 0.4057
C18? C 0.6360(7) 0.303(3) 0.2945(7)
H19? H 0.6328 0.1029 0.2853
H20? H 0.5963 0.3898 0.2773
C19? C 0.6902(8) 0.419(4) 0.2501(9)
H21? H 0.6759 0.4999 0.2006
H22? H 0.7218 0.2749 0.2389
C20? C 0.7190(8) 0.649(4) 0.3053(10)
H23? H 0.7648 0.6201 0.3116
H24? H 0.7121 0.8328 0.2827
C21? C 0.6860(8) 0.627(3) 0.3838(9)
H25? H 0.6584 0.7877 0.3924
H26? H 0.7173 0.6187 0.4262
loop_
_geom_bond_atom_site_label_1
_geom_bond_atom_site_label_2
_geom_bond_site_symmetry_1
_geom_bond_site_symmetry_2
C1 C2 1_555 1_555
C2 H1 1_555 1_555
C3 C2 1_555 1_555
H2 C3 1_555 1_555
H3 C3 1_555 1_555
C4 C3 1_555 1_555
C5 C4 1_555 1_555
C6 C5 1_555 1_555
C7 C6 1_555 1_555
H4 C7 1_555 1_555
C8 C7 1_555 1_555
C9 C4 1_555 1_555
C10 C9 1_555 1_555
H5 C10 1_555 1_555
C11 H6 1_555 1_555
C12 C11 1_555 1_555
H7 C12 1_555 1_555
H8 C12 1_555 1_555
C13 C12 1_555 1_555
H9 C13 1_555 1_555
H10 C13 1_555 1_555
C14 C13 1_555 1_555
H11 C14 1_555 1_555
H12 C14 1_555 1_555
C15 C11 1_555 1_555
H13 C15 1_555 1_555
H14 C15 1_555 1_555
C16 H15 1_555 1_555
H16 C16 1_555 1_555
H17 C16 1_555 1_555
N1 C1 1_555 1_555
N2 C8 1_555 1_555
N3 C1 1_555 1_555
O1 N1 1_555 1_555
O2 N1 1_555 1_555
O3 N2 1_555 1_555
O4 N2 1_555 1_555
O5 C10 1_555 1_555
O6 C2 1_555 1_555
O7 C5 1_555 1_555
O8 C6 1_555 1_555
C8 C9 1_555 1_555
C10 O6 1_555 1_555
C11 O7 1_555 1_555
C14 C15 1_555 1_555
C16 O8 1_555 1_555
N3 O5 1_555 1_555

#END
