
#######################################################################
#
#                 Cambridge Crystallographic Data Centre
#                                CCDC 
#
#######################################################################
#
# If this CIF has been generated from an entry in the Cambridge 
# Structural Database, then it will include bibliographic, chemical, 
# crystal, experimental, refinement or atomic coordinate data resulting 
# from the CCDC's data processing and validation procedures.
#
#######################################################################

data_IBOJIV
_chemical_formula_moiety         'C33 H21 N1 O1 S1'
_chemical_name_systematic        
5,6,12-triphenyl-8H-thieno[3',2':4,5]pyrido[2,1-a]isoquinolin-8-one
_symmetry_cell_setting           monoclinic
_symmetry_space_group_name_H-M   'P 21/c'
_symmetry_Int_Tables_number      14
_space_group_name_Hall           '-P 2ybc'
loop_
_symmetry_equiv_pos_site_id
_symmetry_equiv_pos_as_xyz
1 x,y,z
2 -x,1/2+y,1/2-z
3 -x,-y,-z
4 x,1/2-y,1/2+z
_cell_length_a                   22.035(3)
_cell_length_b                   10.8485(12)
_cell_length_c                   22.733(3)
_cell_angle_alpha                90
_cell_angle_beta                 114.590(4)
_cell_angle_gamma                90
_cell_volume                     4941.41
_exptl_crystal_colour            yellow
_exptl_crystal_description       needle
_cell_formula_units_Z            8
loop_
_atom_site_label
_atom_site_type_symbol
_atom_site_fract_x
_atom_site_fract_y
_atom_site_fract_z
S1 S 0.50946(3) 0.30044(7) 0.22433(3)
C1 C 0.55907(11) 0.5034(2) 0.18457(11)
N1 N 0.59655(8) 0.53976(16) 0.14962(8)
C2 C 0.59738(10) 0.46948(19) 0.09741(10)
O1 O 0.54319(9) 0.57779(17) 0.21583(9)
C3 C 0.70943(12) 0.80528(18) 0.15640(10)
C4 C 0.77543(12) 0.7758(2) 0.19273(11)
H1 H 0.7877 0.6934 0.2008
C5 C 0.58754(11) 0.26027(19) 0.04532(11)
C6 C 0.55912(10) 0.2977(2) 0.13936(11)
C7 C 0.63741(10) 0.66186(19) 0.06539(10)
C8 C 0.58259(10) 0.3467(2) 0.09408(10)
C9 C 0.59024(10) 0.5034(2) -0.01482(10)
H2 H 0.5701 0.4267 -0.0272
C10 C 0.65865(10) 0.70527(18) 0.13150(10)
C11 C 0.66543(12) 0.6724(2) 0.24200(11)
C12 C 0.54573(11) 0.3745(2) 0.18030(11)
C13 C 0.64638(11) 0.7342(2) 0.01855(11)
H3 H 0.6648 0.8126 0.0294
C14 C 0.62829(11) 0.6905(2) -0.04315(11)
H4 H 0.6347 0.7390 -0.0739
C15 C 0.64849(12) 0.2335(2) 0.04444(13)
H5 H 0.6872 0.2696 0.0746
C16 C 0.63733(11) 0.64640(19) 0.17112(10)
C17 C 0.60926(9) 0.54332(19) 0.04886(9)
C18 C 0.69301(15) 0.9292(2) 0.14496(13)
H6 H 0.6492 0.9525 0.1197
C19 C 0.54107(13) 0.1736(2) 0.14628(13)
H7 H 0.5471 0.1073 0.1233
C20 C 0.60075(11) 0.5751(2) -0.05942(11)
H8 H 0.5891 0.5452 -0.1011
C21 C 0.53145(14) 0.2043(3) 0.00056(15)
H9 H 0.4902 0.2194 0.0012
C22 C 0.82367(15) 0.8655(2) 0.21738(12)
H10 H 0.8680 0.8433 0.2411
C23 C 0.66165(15) 0.7882(3) 0.26523(13)
H11 H 0.6370 0.8503 0.2373
C24 C 0.7426(2) 1.0190(2) 0.17147(15)
H12 H 0.7312 1.1020 0.1645
C25 C 0.51454(14) 0.1634(3) 0.18958(14)
H13 H 0.5003 0.0889 0.1997
C26 C 0.69583(19) 0.8103(4) 0.33207(18)
H14 H 0.6947 0.8882 0.3487
C27 C 0.70081(14) 0.5804(3) 0.28452(12)
H15 H 0.7027 0.5020 0.2688
C28 C 0.65179(19) 0.1534(3) -0.00091(19)
H16 H 0.6931 0.1356 -0.0009
C29 C 0.80661(19) 0.9868(3) 0.20702(13)
H17 H 0.8391 1.0473 0.2245
C30 C 0.73309(17) 0.6035(4) 0.34940(15)
H18 H 0.7567 0.5407 0.3775
C31 C 0.5961(3) 0.0996(3) -0.0458(2)
H19 H 0.5990 0.0456 -0.0763
C32 C 0.5357(2) 0.1265(3) -0.04505(19)
H20 H 0.4970 0.0915 -0.0759
C33 C 0.73095(17) 0.7164(5) 0.37285(16)
H21 H 0.7534 0.7312 0.4170
S2 S 0.70889(3) 0.20694(7) 0.29840(3)
O2 O 0.85138(9) 0.23614(16) 0.30389(7)
N2 N 0.90300(8) 0.23491(14) 0.41525(8)
C34 C 0.90337(10) 0.18752(16) 0.47380(9)
C35 C 0.84630(11) 0.22500(19) 0.35518(10)
C36 C 0.96946(10) 0.15144(16) 0.52268(9)
C37 C 1.08272(10) 0.32876(17) 0.46382(10)
C38 C 1.02140(10) 0.27120(17) 0.46377(10)
C39 C 0.96138(10) 0.29010(17) 0.41446(10)
C40 C 1.09579(11) 0.07852(19) 0.61360(10)
H22 H 1.1377 0.0564 0.6445
C41 C 1.08988(10) 0.15635(19) 0.56422(10)
H23 H 1.1283 0.1862 0.5616
C42 C 1.12303(11) 0.2611(2) 0.44279(11)
H24 H 1.1112 0.1806 0.4286
C43 C 0.85759(15) 0.2017(2) 0.64906(12)
H25 H 0.8772 0.2548 0.6840
C44 C 0.97707(11) 0.06804(17) 0.57266(9)
H26 H 0.9393 0.0360 0.5756
C45 C 0.95329(11) 0.38367(18) 0.36355(10)
C46 C 0.98530(13) 0.3718(2) 0.32309(12)
H27 H 1.0078 0.2992 0.3232
C47 C 0.83733(10) 0.14453(18) 0.54023(10)
C48 C 0.84355(10) 0.17071(17) 0.47848(10)
C49 C 1.03892(11) 0.03300(18) 0.61716(10)
H28 H 1.0426 -0.0218 0.6500
C50 C 1.02748(10) 0.19204(16) 0.51761(9)
C51 C 0.91895(15) 0.4903(2) 0.36101(12)
H29 H 0.8957 0.4984 0.3868
C52 C 1.18019(13) 0.3104(2) 0.44238(13)
H30 H 1.2065 0.2637 0.4277
C53 C 1.10190(12) 0.44725(19) 0.48528(10)
H31 H 1.0757 0.4948 0.4997
C54 C 0.86585(12) 0.2228(2) 0.59300(11)
H32 H 0.8908 0.2901 0.5905
C55 C 0.78304(10) 0.18235(19) 0.42087(10)
C56 C 0.78598(11) 0.20473(19) 0.36255(11)
C57 C 1.15996(14) 0.4957(2) 0.48540(13)
H33 H 1.1729 0.5754 0.5006
C58 C 0.80031(11) 0.0453(2) 0.54579(12)
H34 H 0.7807 -0.0087 0.5112
C59 C 0.71534(12) 0.1698(2) 0.41225(13)
H35 H 0.7027 0.1553 0.4459
C60 C 0.82095(15) 0.1039(3) 0.65376(15)
H36 H 0.8155 0.0904 0.6917
C61 C 0.9183(2) 0.5858(3) 0.32063(15)
H37 H 0.8952 0.6579 0.3198
C62 C 0.98403(16) 0.4672(4) 0.28245(14)
H38 H 1.0055 0.4584 0.2550
C63 C 1.19839(14) 0.4277(3) 0.46347(14)
H39 H 1.2370 0.4615 0.4629
C64 C 0.79225(13) 0.0259(3) 0.60234(15)
H40 H 0.7671 -0.0408 0.6053
C65 C 0.67186(13) 0.1811(3) 0.35005(14)
H41 H 0.6259 0.1755 0.3364
C66 C 0.9514(2) 0.5748(3) 0.28224(16)
H42 H 0.9520 0.6400 0.2559
loop_
_geom_bond_atom_site_label_1
_geom_bond_atom_site_label_2
_geom_bond_site_symmetry_1
_geom_bond_site_symmetry_2
S1 C12 1_555 1_555
C1 N1 1_555 1_555
N1 C2 1_555 1_555
C2 C8 1_555 1_555
O1 C1 1_555 1_555
C3 C4 1_555 1_555
C4 H1 1_555 1_555
C5 C8 1_555 1_555
C6 C8 1_555 1_555
C7 C10 1_555 1_555
C9 H2 1_555 1_555
C10 C3 1_555 1_555
C11 C16 1_555 1_555
C12 C1 1_555 1_555
C13 C7 1_555 1_555
H3 C13 1_555 1_555
C14 C13 1_555 1_555
H4 C14 1_555 1_555
C15 C5 1_555 1_555
H5 C15 1_555 1_555
C16 N1 1_555 1_555
C17 C2 1_555 1_555
C18 C3 1_555 1_555
H6 C18 1_555 1_555
C19 C6 1_555 1_555
H7 C19 1_555 1_555
C20 C9 1_555 1_555
H8 C20 1_555 1_555
C21 C5 1_555 1_555
H9 C21 1_555 1_555
C22 C4 1_555 1_555
H10 C22 1_555 1_555
C23 C11 1_555 1_555
H11 C23 1_555 1_555
C24 C18 1_555 1_555
H12 C24 1_555 1_555
C25 S1 1_555 1_555
H13 C25 1_555 1_555
C26 C23 1_555 1_555
H14 C26 1_555 1_555
C27 C11 1_555 1_555
H15 C27 1_555 1_555
C28 C15 1_555 1_555
H16 C28 1_555 1_555
C29 C22 1_555 1_555
H17 C29 1_555 1_555
C30 C27 1_555 1_555
H18 C30 1_555 1_555
C31 C28 1_555 1_555
H19 C31 1_555 1_555
C32 C21 1_555 1_555
H20 C32 1_555 1_555
C33 C26 1_555 1_555
H21 C33 1_555 1_555
S2 C56 1_555 1_555
O2 C35 1_555 1_555
N2 C34 1_555 1_555
C34 C36 1_555 1_555
C35 N2 1_555 1_555
C36 C44 1_555 1_555
C37 C38 1_555 1_555
C38 C39 1_555 1_555
C39 N2 1_555 1_555
C40 H22 1_555 1_555
C41 C40 1_555 1_555
H23 C41 1_555 1_555
C42 C37 1_555 1_555
H24 C42 1_555 1_555
C43 H25 1_555 1_555
C44 H26 1_555 1_555
C45 C39 1_555 1_555
C46 C45 1_555 1_555
H27 C46 1_555 1_555
C47 C48 1_555 1_555
C48 C34 1_555 1_555
C49 C40 1_555 1_555
H28 C49 1_555 1_555
C50 C36 1_555 1_555
C51 C45 1_555 1_555
H29 C51 1_555 1_555
C52 C42 1_555 1_555
H30 C52 1_555 1_555
C53 C37 1_555 1_555
H31 C53 1_555 1_555
C54 C43 1_555 1_555
H32 C54 1_555 1_555
C55 C48 1_555 1_555
C56 C35 1_555 1_555
C57 C53 1_555 1_555
H33 C57 1_555 1_555
C58 C47 1_555 1_555
H34 C58 1_555 1_555
C59 C55 1_555 1_555
H35 C59 1_555 1_555
C60 C43 1_555 1_555
H36 C60 1_555 1_555
C61 C51 1_555 1_555
H37 C61 1_555 1_555
C62 C46 1_555 1_555
H38 C62 1_555 1_555
C63 C52 1_555 1_555
H39 C63 1_555 1_555
C64 C58 1_555 1_555
H40 C64 1_555 1_555
C65 S2 1_555 1_555
H41 C65 1_555 1_555
C66 C61 1_555 1_555
H42 C66 1_555 1_555
C6 C12 1_555 1_555
C7 C17 1_555 1_555
C9 C17 1_555 1_555
C10 C16 1_555 1_555
C14 C20 1_555 1_555
C19 C25 1_555 1_555
C24 C29 1_555 1_555
C30 C33 1_555 1_555
C31 C32 1_555 1_555
C38 C50 1_555 1_555
C41 C50 1_555 1_555
C44 C49 1_555 1_555
C47 C54 1_555 1_555
C55 C56 1_555 1_555
C57 C63 1_555 1_555
C59 C65 1_555 1_555
C60 C64 1_555 1_555
C62 C66 1_555 1_555

#END
