
#######################################################################
#
#                 Cambridge Crystallographic Data Centre
#                                CCDC 
#
#######################################################################
#
# If this CIF has been generated from an entry in the Cambridge 
# Structural Database, then it will include bibliographic, chemical, 
# crystal, experimental, refinement or atomic coordinate data resulting 
# from the CCDC's data processing and validation procedures.
#
#######################################################################

data_IBOJER
_chemical_formula_moiety         'C35 H22 F1 N1 O1'
_chemical_name_systematic        
9-fluoro-5,6,13-triphenyl-8H-isoquinolino[3,2-a]isoquinolin-8-one
_symmetry_cell_setting           monoclinic
_symmetry_space_group_name_H-M   'P 21/c'
_symmetry_Int_Tables_number      14
_space_group_name_Hall           '-P 2ybc'
loop_
_symmetry_equiv_pos_site_id
_symmetry_equiv_pos_as_xyz
1 x,y,z
2 -x,1/2+y,1/2-z
3 -x,-y,-z
4 x,1/2-y,1/2+z
_cell_length_a                   17.6372(12)
_cell_length_b                   11.5066(9)
_cell_length_c                   12.8191(9)
_cell_angle_alpha                90
_cell_angle_beta                 107.487(2)
_cell_angle_gamma                90
_cell_volume                     2481.33
_exptl_crystal_colour            yellow
_exptl_crystal_description       block
_cell_formula_units_Z            4
loop_
_atom_site_label
_atom_site_type_symbol
_atom_site_fract_x
_atom_site_fract_y
_atom_site_fract_z
O1 O 0.84466(9) 0.66967(13) 0.36842(13)
F1 F 0.98244(9) 0.66429(13) 0.32500(13)
N1 N 0.78040(9) 0.49622(14) 0.35750(13)
C1 C 0.63891(11) 0.49169(17) 0.31986(15)
C2 C 0.70336(11) 0.54184(16) 0.30361(15)
C3 C 0.69887(11) 0.63572(17) 0.22142(15)
C4 C 0.55537(12) 0.51801(18) 0.25290(16)
C5 C 0.72370(12) 0.34595(17) 0.44286(15)
C6 C 0.92032(11) 0.37520(18) 0.37673(15)
C7 C 0.78845(11) 0.38125(16) 0.39902(15)
C8 C 0.84868(12) 0.56456(18) 0.36548(16)
C9 C 0.85924(11) 0.18981(17) 0.42299(17)
C10 C 0.91835(11) 0.49658(18) 0.36299(15)
C11 C 0.64921(12) 0.40027(17) 0.40202(16)
C12 C 0.73317(12) 0.6205(2) 0.13815(16)
H1 H 0.7595 0.5516 0.1336
C13 C 0.85445(11) 0.31790(17) 0.40222(16)
C14 C 0.65915(13) 0.73820(19) 0.22542(18)
H2 H 0.6355 0.7494 0.2804
C15 C 0.73539(14) 0.26669(19) 0.52865(17)
H3 H 0.7853 0.2336 0.5590
C16 C 0.81428(12) 0.1154(2) 0.34395(19)
H4 H 0.7792 0.1457 0.2804
C17 C 0.98435(14) 0.5489(2) 0.34305(18)
C18 C 0.58737(14) 0.3659(2) 0.44280(19)
H5 H 0.5372 0.3988 0.4140
C19 C 0.98708(12) 0.3134(2) 0.36911(18)
H6 H 0.9885 0.2331 0.3772
C20 C 0.65424(14) 0.8242(2) 0.1487(2)
H7 H 0.6273 0.8928 0.1522
C21 C 0.72836(14) 0.7075(2) 0.06189(18)
H8 H 0.7520 0.6970 0.0068
C22 C 0.91010(14) 0.1400(2) 0.5165(2)
H9 H 0.9416 0.1878 0.5710
C23 C 0.68912(15) 0.8087(2) 0.0669(2)
H10 H 0.6860 0.8669 0.0154
C24 C 1.04938(14) 0.4886(3) 0.3366(2)
H11 H 1.0921 0.5267 0.3235
C25 C 0.67386(15) 0.2368(2) 0.56905(19)
H12 H 0.6825 0.1842 0.6265
C26 C 1.05007(14) 0.3694(3) 0.3499(2)
H13 H 1.0939 0.3267 0.3459
C27 C 0.82079(15) -0.0046(2) 0.3583(2)
H14 H 0.7906 -0.0538 0.3040
C28 C 0.50602(14) 0.5921(2) 0.2861(2)
H15 H 0.5263 0.6367 0.3489
C29 C 0.59954(15) 0.2850(2) 0.5242(2)
H16 H 0.5576 0.2623 0.5495
C30 C 0.87147(15) -0.0502(2) 0.4520(3)
H17 H 0.8759 -0.1303 0.4616
C31 C 0.91481(16) 0.0215(2) 0.5304(2)
H18 H 0.9484 -0.0095 0.5947
C32 C 0.39544(15) 0.5371(3) 0.1354(2)
H19 H 0.3417 0.5424 0.0967
C33 C 0.52290(14) 0.4567(2) 0.1588(2)
H20 H 0.5554 0.4078 0.1332
C34 C 0.42620(15) 0.6012(3) 0.2270(2)
H21 H 0.3936 0.6518 0.2504
C35 C 0.44387(16) 0.4651(3) 0.1009(2)
H22 H 0.4234 0.4213 0.0377
loop_
_geom_bond_atom_site_label_1
_geom_bond_atom_site_label_2
_geom_bond_site_symmetry_1
_geom_bond_site_symmetry_2
O1 C8 1_555 1_555
F1 C17 1_555 1_555
N1 C2 1_555 1_555
C1 C2 1_555 1_555
C2 C3 1_555 1_555
C3 C12 1_555 1_555
C4 C1 1_555 1_555
C5 C7 1_555 1_555
C6 C10 1_555 1_555
C7 N1 1_555 1_555
C8 N1 1_555 1_555
C9 C13 1_555 1_555
C10 C8 1_555 1_555
C11 C1 1_555 1_555
C12 H1 1_555 1_555
C13 C6 1_555 1_555
C14 C3 1_555 1_555
H2 C14 1_555 1_555
C15 C5 1_555 1_555
H3 C15 1_555 1_555
C16 C9 1_555 1_555
H4 C16 1_555 1_555
C17 C10 1_555 1_555
C18 C11 1_555 1_555
H5 C18 1_555 1_555
C19 C6 1_555 1_555
H6 C19 1_555 1_555
C20 C14 1_555 1_555
H7 C20 1_555 1_555
C21 C12 1_555 1_555
H8 C21 1_555 1_555
C22 C9 1_555 1_555
H9 C22 1_555 1_555
C23 C20 1_555 1_555
H10 C23 1_555 1_555
C24 C17 1_555 1_555
H11 C24 1_555 1_555
C25 C15 1_555 1_555
H12 C25 1_555 1_555
C26 C19 1_555 1_555
H13 C26 1_555 1_555
C27 C16 1_555 1_555
H14 C27 1_555 1_555
C28 C4 1_555 1_555
H15 C28 1_555 1_555
C29 C18 1_555 1_555
H16 C29 1_555 1_555
C30 C27 1_555 1_555
H17 C30 1_555 1_555
C31 C22 1_555 1_555
H18 C31 1_555 1_555
C32 H19 1_555 1_555
C33 C4 1_555 1_555
H20 C33 1_555 1_555
C34 C28 1_555 1_555
H21 C34 1_555 1_555
C35 C32 1_555 1_555
H22 C35 1_555 1_555
C5 C11 1_555 1_555
C7 C13 1_555 1_555
C21 C23 1_555 1_555
C24 C26 1_555 1_555
C25 C29 1_555 1_555
C30 C31 1_555 1_555
C32 C34 1_555 1_555
C33 C35 1_555 1_555

#END
