
#######################################################################
#
#                 Cambridge Crystallographic Data Centre
#                                CCDC 
#
#######################################################################
#
# If this CIF has been generated from an entry in the Cambridge 
# Structural Database, then it will include bibliographic, chemical, 
# crystal, experimental, refinement or atomic coordinate data resulting 
# from the CCDC's data processing and validation procedures.
#
#######################################################################

data_IBOPAQ
_chemical_formula_moiety         'C22 H24 O6'
_chemical_name_systematic        
(1b,2b,3a,6a,7b,8b,9a,10a,13a,14a)-Dimethyl-16-isopropylidene-15,18-dioxahexacyclo(6.6.1.1^3,6^.1^10,1^.0^2,7^.0^9,14^)octadeca-4,11-diene-2,7-dicarboxylate
_symmetry_cell_setting           monoclinic
_symmetry_space_group_name_H-M   'P 21/c'
_symmetry_Int_Tables_number      14
_space_group_name_Hall           '-P 2ybc'
loop_
_symmetry_equiv_pos_site_id
_symmetry_equiv_pos_as_xyz
1 x,y,z
2 x,1/2-y,1/2+z
3 -x,-y,-z
4 -x,1/2+y,1/2-z
_cell_length_a                   13.473(2)
_cell_length_b                   8.059(4)
_cell_length_c                   17.442(2)
_cell_angle_alpha                90
_cell_angle_beta                 99.420(9)
_cell_angle_gamma                90
_cell_volume                     1868.3
_exptl_crystal_colour            colorless
_exptl_crystal_description       block
_chemical_melting_point          179-180deg.C
_cell_formula_units_Z            4
loop_
_atom_site_label
_atom_site_type_symbol
_atom_site_fract_x
_atom_site_fract_y
_atom_site_fract_z
O1 O 0.1104(1) 0.2540(2) -0.07003(8)
O2 O 0.0595(1) 0.5012(2) -0.1173(1)
O3 O 0.1972(1) 0.8109(2) -0.1996(1)
O4 O 0.2330(1) 0.6922(2) -0.08341(9)
O5 O 0.34374(9) 0.4050(2) -0.08336(7)
O6 O 0.5231(1) 0.1442(2) -0.18746(8)
C1 C 0.2886(1) 0.2678(2) -0.1219(1)
C2 C 0.1158(2) 0.3866(3) -0.1154(1)
C3 C 0.1954(1) 0.3615(2) -0.1671(1)
C4 C 0.0328(3) 0.2552(5) -0.0213(2)
C5 C 0.1396(1) 0.2929(3) -0.2477(1)
C6 C 0.0604(2) 0.4211(3) -0.2791(1)
C7 C 0.1069(2) 0.5528(4) -0.3001(1)
C8 C 0.2198(2) 0.5188(3) -0.2831(1)
C9 C 0.2203(2) 0.6899(3) -0.1607(1)
C10 C 0.2483(1) 0.5238(2) -0.1923(1)
C11 C 0.2089(3) 0.8432(4) -0.0467(2)
C12 C 0.3597(1) 0.4893(3) -0.1528(1)
C13 C 0.4104(1) 0.3596(3) -0.1966(1)
C14 C 0.5242(2) 0.3192(3) -0.1700(1)
C15 C 0.5492(2) 0.3179(3) -0.0829(1)
C16 C 0.5063(2) 0.1833(3) -0.0611(1)
C17 C 0.4554(2) 0.1002(3) -0.1344(1)
C18 C 0.3604(1) 0.1993(3) -0.1727(1)
C19 C 0.2139(1) 0.3339(3) -0.3013(1)
C20 C 0.3209(2) 0.3066(5) -0.4033(2)
C21 C 0.2476(1) 0.2414(3) -0.3540(1)
C22 C 0.2200(2) 0.0618(4) -0.3661(2)
H1 H 0.272(1) 0.195(2) -0.0836(9)
H2 H 0.039(2) 0.354(4) 0.010(2)
H3 H -0.032(2) 0.261(4) -0.051(2)
H4 H 0.044(3) 0.155(5) 0.010(2)
H5 H 0.118(1) 0.181(2) -0.245(1)
H6 H -0.008(2) 0.408(3) -0.277(1)
H7 H 0.081(2) 0.661(3) -0.318(1)
H8 H 0.261(1) 0.587(2) -0.310(1)
H9 H 0.145(2) 0.877(4) -0.072(2)
H10 H 0.208(2) 0.822(4) 0.008(2)
H11 H 0.241(3) 0.923(5) -0.062(2)
H12 H 0.398(1) 0.591(2) -0.138(1)
H13 H 0.400(1) 0.381(2) -0.250(1)
H14 H 0.570(1) 0.377(3) -0.201(1)
H15 H 0.582(2) 0.406(3) -0.052(1)
H16 H 0.498(2) 0.151(3) -0.011(1)
H17 H 0.446(1) -0.023(3) -0.135(1)
H18 H 0.329(1) 0.137(2) -0.215(1)
H19 H 0.163(2) 0.027(4) -0.345(2)
H20 H 0.339(2) 0.431(4) -0.396(1)
H21 H 0.385(3) 0.233(4) -0.391(2)
H22 H 0.305(2) 0.278(3) -0.455(2)
H23 H 0.205(2) 0.035(3) -0.420(2)
H24 H 0.278(2) -0.021(4) -0.344(2)
loop_
_geom_bond_atom_site_label_1
_geom_bond_atom_site_label_2
_geom_bond_site_symmetry_1
_geom_bond_site_symmetry_2
O1 C2 1_555 1_555
O2 C2 1_555 1_555
O3 C9 1_555 1_555
O4 C9 1_555 1_555
O5 C1 1_555 1_555
O6 C14 1_555 1_555
C1 C3 1_555 1_555
C2 C3 1_555 1_555
C3 C5 1_555 1_555
C4 O1 1_555 1_555
C5 C6 1_555 1_555
C6 C7 1_555 1_555
C7 C8 1_555 1_555
C8 C10 1_555 1_555
C9 C10 1_555 1_555
C10 C3 1_555 1_555
C11 O4 1_555 1_555
C12 O5 1_555 1_555
C13 C12 1_555 1_555
C14 C13 1_555 1_555
C15 C14 1_555 1_555
C16 C15 1_555 1_555
C17 O6 1_555 1_555
C18 C1 1_555 1_555
C19 C5 1_555 1_555
C20 C21 1_555 1_555
C21 C19 1_555 1_555
C22 C21 1_555 1_555
H1 C1 1_555 1_555
H2 C4 1_555 1_555
H3 C4 1_555 1_555
H4 C4 1_555 1_555
H5 C5 1_555 1_555
H6 C6 1_555 1_555
H7 C7 1_555 1_555
H8 C8 1_555 1_555
H9 C11 1_555 1_555
H10 C11 1_555 1_555
H11 C11 1_555 1_555
H12 C12 1_555 1_555
H13 C13 1_555 1_555
H14 C14 1_555 1_555
H15 C15 1_555 1_555
H16 C16 1_555 1_555
H17 C17 1_555 1_555
H18 C18 1_555 1_555
H19 C22 1_555 1_555
H20 C20 1_555 1_555
H21 C20 1_555 1_555
H22 C20 1_555 1_555
H23 C22 1_555 1_555
H24 C22 1_555 1_555
C8 C19 1_555 1_555
C10 C12 1_555 1_555
C13 C18 1_555 1_555
C16 C17 1_555 1_555
C17 C18 1_555 1_555

#END
