
#######################################################################
#
#                 Cambridge Crystallographic Data Centre
#                                CCDC 
#
#######################################################################
#
# If this CIF has been generated from an entry in the Cambridge 
# Structural Database, then it will include bibliographic, chemical, 
# crystal, experimental, refinement or atomic coordinate data resulting 
# from the CCDC's data processing and validation procedures.
#
#######################################################################

data_IBOTUP
_chemical_formula_moiety         'C10 H9 F1 N2 O1'
_chemical_name_systematic        5-Fluoro-1-methyl-4-phenylpyrazine-3-one
_symmetry_cell_setting           monoclinic
_symmetry_space_group_name_H-M   'P 21/n'
_symmetry_Int_Tables_number      14
_space_group_name_Hall           '-P 2yn'
loop_
_symmetry_equiv_pos_site_id
_symmetry_equiv_pos_as_xyz
1 x,y,z
2 1/2+x,1/2-y,1/2+z
3 -x,-y,-z
4 1/2-x,1/2+y,1/2-z
_cell_length_a                   5.6690(7)
_cell_length_b                   16.1696(16)
_cell_length_c                   10.2241(11)
_cell_angle_alpha                90
_cell_angle_beta                 101.841(9)
_cell_angle_gamma                90
_cell_volume                     917.254
_exptl_crystal_colour            colorless
_exptl_crystal_description       block
_chemical_melting_point          182-183deg.C
_cell_formula_units_Z            4
loop_
_atom_site_label
_atom_site_type_symbol
_atom_site_fract_x
_atom_site_fract_y
_atom_site_fract_z
F1 F 0.0817(3) 0.50506(11) 0.38579(15)
O1 O 0.6563(4) 0.42081(13) 0.13355(18)
N1 N 0.1877(4) 0.53969(14) 0.1905(2)
N2 N 0.3515(4) 0.51800(14) 0.1155(2)
H1 H 0.3675 0.5393 0.0407
C1 C 0.4799(5) 0.45770(17) 0.1815(2)
C2 C 0.4088(5) 0.43809(15) 0.3029(2)
C3 C 0.2238(5) 0.49329(16) 0.2990(2)
C4 C 0.0142(3) 0.60487(10) 0.14850(15)
H2 H -0.0851 0.6113 0.2134
H3 H -0.0850 0.5909 0.0635
H4 H 0.0975 0.6557 0.1406
C5 C 0.5038(3) 0.37606(10) 0.40475(15)
C6 C 0.7085(3) 0.33061(10) 0.39867(15)
H5 H 0.7882 0.3398 0.3291
C7 C 0.7959(6) 0.27179(19) 0.4946(3)
H6 H 0.9334 0.2418 0.4890
C8 C 0.6804(7) 0.2575(2) 0.5983(3)
H7 H 0.7385 0.2177 0.6626
C9 C 0.4803(7) 0.3022(2) 0.6058(3)
H8 H 0.4026 0.2929 0.6762
C10 C 0.3905(6) 0.3611(2) 0.5106(3)
H9 H 0.2532 0.3908 0.5174
loop_
_geom_bond_atom_site_label_1
_geom_bond_atom_site_label_2
_geom_bond_site_symmetry_1
_geom_bond_site_symmetry_2
F1 C3 1_555 1_555
O1 C1 1_555 1_555
N1 N2 1_555 1_555
N2 H1 1_555 1_555
C1 N2 1_555 1_555
C2 C1 1_555 1_555
C3 N1 1_555 1_555
C4 N1 1_555 1_555
H2 C4 1_555 1_555
H3 C4 1_555 1_555
H4 C4 1_555 1_555
C5 C2 1_555 1_555
C6 C5 1_555 1_555
H5 C6 1_555 1_555
C7 C6 1_555 1_555
H6 C7 1_555 1_555
C8 C7 1_555 1_555
H7 C8 1_555 1_555
C9 C8 1_555 1_555
H8 C9 1_555 1_555
C10 C5 1_555 1_555
H9 C10 1_555 1_555
C2 C3 1_555 1_555
C9 C10 1_555 1_555

#END
