
#######################################################################
#
#                 Cambridge Crystallographic Data Centre
#                                CCDC 
#
#######################################################################
#
# If this CIF has been generated from an entry in the Cambridge 
# Structural Database, then it will include bibliographic, chemical, 
# crystal, experimental, refinement or atomic coordinate data resulting 
# from the CCDC's data processing and validation procedures.
#
#######################################################################

data_IBOTOJ
_chemical_formula_moiety         'C21 H31 Br1 O2'
_chemical_name_systematic        
(R)-5-((R)-2-((1R,4E,3aR,7aR)-4-Bromomethylene-7a-methylperhydroinden-1-yl)propyl)-4,4-dimethyl-3-methylenedihydrofuran-2-one
_symmetry_cell_setting           monoclinic
_symmetry_space_group_name_H-M   'P 21'
_symmetry_Int_Tables_number      4
_space_group_name_Hall           'P 2yb'
loop_
_symmetry_equiv_pos_site_id
_symmetry_equiv_pos_as_xyz
1 x,y,z
2 -x,1/2+y,-z
_cell_length_a                   11.1370(9)
_cell_length_b                   7.6090(6)
_cell_length_c                   12.433(1)
_cell_angle_alpha                90
_cell_angle_beta                 100.022(4)
_cell_angle_gamma                90
_cell_volume                     1037.51
_exptl_crystal_colour            colorless
_exptl_crystal_description       block
_chemical_melting_point          '390 K'
_cell_formula_units_Z            2
_exptl_crystal_recrystallization_method 'diethyl ether/hexane'
loop_
_atom_site_label
_atom_site_type_symbol
_atom_site_fract_x
_atom_site_fract_y
_atom_site_fract_z
Br1 Br -0.57687(7) -0.2088(3) -0.94008(7)
O1 O -0.9852(5) 0.1640(8) -0.2908(4)
O2 O -1.1392(5) 0.0814(9) -0.2111(5)
C1 C -0.6112(6) -0.169(1) -0.7975(6)
C2 C -0.5855(6) -0.024(1) -0.7429(6)
C3 C -0.6141(7) -0.0053(9) -0.6308(6)
C4 C -0.6986(6) 0.1558(9) -0.6198(6)
C5 C -0.6332(7) 0.322(1) -0.6524(5)
C6 C -0.5994(7) 0.304(1) -0.7677(5)
C7 C -0.5263(7) 0.138(1) -0.7811(7)
C8 C -0.6711(7) -0.1499(9) -0.5733(6)
C9 C -0.7154(8) -0.056(1) -0.4773(7)
C10 C -0.7061(7) 0.141(1) -0.4967(6)
C11 C -0.8248(7) 0.131(1) -0.6930(6)
C12 C -0.8046(7) 0.245(1) -0.4506(6)
C13 C -0.7808(7) 0.221(1) -0.3254(6)
C14 C -0.8811(5) 0.291(1) -0.2666(5)
C15 C -0.8510(6) 0.296(2) -0.1412(5)
C16 C -0.772(1) 0.135(2) -0.0905(9)
C17 C -0.794(1) 0.472(2) -0.102(1)
C18 C -0.9794(6) 0.268(1) -0.1169(5)
C19 C -1.0461(7) 0.161(1) -0.2063(6)
C20 C -1.0278(8) 0.326(1) -0.0334(7)
C21 C -0.802(1) 0.449(1) -0.4773(8)
H1 H -1.1115 0.3074 -0.0314
H2 H -0.9885 0.3454 0.0476
H3 H -0.6892 0.2636 -0.8316
H4 H -0.5592 0.4386 -0.7776
H5 H -0.5096 0.1185 -0.8663
H6 H -0.4256 0.1155 -0.7263
H7 H -0.7564 -0.2020 -0.6289
H8 H -0.6194 -0.2120 -0.5559
H9 H -0.8619 0.2421 -0.6972
H10 H -0.7969 0.0841 -0.7682
H11 H -0.8719 0.0451 -0.6422
H12 H -0.8872 0.2116 -0.4815
H13 H -0.7075 0.2814 -0.2971
H14 H -0.9195 0.4095 -0.2921
H15 H -0.5605 0.3393 -0.6008
H16 H -0.6853 0.4209 -0.6510
H17 H -0.6147 0.1955 -0.4505
H18 H -0.6658 -0.0874 -0.4099
H19 H -0.7977 -0.0868 -0.4757
H20 H -0.5385 0.0206 -0.5852
H21 H -0.7704 0.0988 -0.3098
H22 H -0.7220 0.4909 -0.1323
H23 H -0.7743 0.4758 -0.0249
H24 H -0.8515 0.5617 -0.1272
H25 H -0.8058 0.0287 -0.1222
H26 H -0.7705 0.1325 -0.0139
H27 H -0.6910 0.1479 -0.1043
H28 H -0.6503 -0.2596 -0.7639
H29 H -0.7231 0.4944 -0.4498
H30 H -0.8607 0.5081 -0.4438
H31 H -0.8200 0.4655 -0.5541
loop_
_geom_bond_atom_site_label_1
_geom_bond_atom_site_label_2
_geom_bond_site_symmetry_1
_geom_bond_site_symmetry_2
Br1 C1 1_555 1_555
O1 C14 1_555 1_555
O2 C19 1_555 1_555
C1 C2 1_555 1_555
C2 C3 1_555 1_555
C3 C4 1_555 1_555
C4 C5 1_555 1_555
C5 C6 1_555 1_555
C6 C7 1_555 1_555
C7 C2 1_555 1_555
C8 C3 1_555 1_555
C9 C8 1_555 1_555
C10 C4 1_555 1_555
C11 C4 1_555 1_555
C12 C10 1_555 1_555
C13 C12 1_555 1_555
C14 C13 1_555 1_555
C15 C14 1_555 1_555
C16 C15 1_555 1_555
C17 C15 1_555 1_555
C18 C15 1_555 1_555
C19 O1 1_555 1_555
C20 C18 1_555 1_555
C21 C12 1_555 1_555
H1 C20 1_555 1_555
H2 C20 1_555 1_555
H3 C6 1_555 1_555
H4 C6 1_555 1_555
H5 C7 1_555 1_555
H6 C7 1_555 1_555
H7 C8 1_555 1_555
H8 C8 1_555 1_555
H9 C11 1_555 1_555
H10 C11 1_555 1_555
H11 C11 1_555 1_555
H12 C12 1_555 1_555
H13 C13 1_555 1_555
H14 C14 1_555 1_555
H15 C5 1_555 1_555
H16 C5 1_555 1_555
H17 C10 1_555 1_555
H18 C9 1_555 1_555
H19 C9 1_555 1_555
H20 C3 1_555 1_555
H21 C13 1_555 1_555
H22 C17 1_555 1_555
H23 C17 1_555 1_555
H24 C17 1_555 1_555
H25 C16 1_555 1_555
H26 C16 1_555 1_555
H27 C16 1_555 1_555
H28 C1 1_555 1_555
H29 C21 1_555 1_555
H30 C21 1_555 1_555
H31 C21 1_555 1_555
C9 C10 1_555 1_555
C18 C19 1_555 1_555

#END
