
#######################################################################
#
#                 Cambridge Crystallographic Data Centre
#                                CCDC 
#
#######################################################################
#
# If this CIF has been generated from an entry in the Cambridge 
# Structural Database, then it will include bibliographic, chemical, 
# crystal, experimental, refinement or atomic coordinate data resulting 
# from the CCDC's data processing and validation procedures.
#
#######################################################################

data_IBOWIG
_chemical_formula_moiety         'C18 H23 N2 1+,C7 H7 O3 S1 1-,H2 O1'
_chemical_name_systematic        
'4-(4-(N,N-Diethylamino)styryl)-N-methylpyridinium p-toluenesulfonate monohydrate'
_symmetry_cell_setting           triclinic
_symmetry_space_group_name_H-M   'P -1'
_symmetry_Int_Tables_number      2
_space_group_name_Hall           '-P 1'
loop_
_symmetry_equiv_pos_site_id
_symmetry_equiv_pos_as_xyz
1 x,y,z
2 -x,-y,-z
_cell_length_a                   8.0990(7)
_cell_length_b                   9.8189(8)
_cell_length_c                   15.7819(13)
_cell_angle_alpha                94.385(2)
_cell_angle_beta                 100.196(1)
_cell_angle_gamma                99.775(2)
_cell_volume                     1209.91
_exptl_crystal_colour            red
_exptl_crystal_description       needle
_cell_formula_units_Z            2
loop_
_atom_site_label
_atom_site_type_symbol
_atom_site_fract_x
_atom_site_fract_y
_atom_site_fract_z
S1 S 0.67096(16) 0.33061(13) 0.15862(10)
O1 O 0.6383(5) 0.4549(4) 0.1193(3)
O2 O 0.5575(4) 0.2892(4) 0.2170(3)
O3 O 0.6793(5) 0.2200(4) 0.0957(3)
C19 C 0.8801(6) 0.3758(4) 0.2229(3)
C20 C 1.0193(6) 0.3968(5) 0.1826(3)
H26 H 1.0032 0.3904 0.1225
C21 C 1.1837(6) 0.4274(5) 0.2323(4)
H27 H 1.2764 0.4429 0.2047
C22 C 1.2126(6) 0.4353(5) 0.3208(4)
C23 C 1.0714(7) 0.4177(5) 0.3601(3)
H28 H 1.0875 0.4273 0.4202
C24 C 0.9070(6) 0.3859(5) 0.3117(3)
H29 H 0.8144 0.3714 0.3395
C25 C 1.3930(6) 0.4667(6) 0.3735(4)
H30 H 1.3893 0.4683 0.4340
H31 H 1.4502 0.5556 0.3624
H32 H 1.4539 0.3961 0.3574
O4 O 0.3153(5) 0.5240(4) 0.0552(3)
H1 H 0.4257 0.5127 0.0981
H2 H 0.3186 0.5511 -0.0020
N1 N -0.1447(5) 0.8736(5) 0.0703(3)
N2 N 1.1700(5) 0.9312(4) 0.3714(3)
C1 C 0.1065(6) 1.0206(5) 0.1429(3)
H3 H 0.1616 1.1096 0.1672
C2 C -0.0610(6) 0.9990(6) 0.1031(3)
H4 H -0.1172 1.0741 0.0989
C3 C -0.0638(6) 0.7641(6) 0.0720(4)
H5 H -0.1230 0.6767 0.0468
C4 C 0.1056(6) 0.7809(5) 0.1105(4)
H6 H 0.1598 0.7046 0.1117
C5 C 0.1965(6) 0.9112(5) 0.1478(3)
C6 C 0.3753(5) 0.9380(5) 0.1915(3)
H7 H 0.4283 1.0305 0.2068
C7 C 0.4699(6) 0.8412(5) 0.2116(3)
H8 H 0.4167 0.7489 0.1958
C8 C 0.6463(6) 0.8664(5) 0.2554(3)
C9 C 0.7320(6) 0.7539(5) 0.2686(3)
H9 H 0.6731 0.6637 0.2503
C10 C 0.9020(6) 0.7757(5) 0.3084(3)
H10 H 0.9538 0.6990 0.3173
C11 C 0.9984(6) 0.9075(5) 0.3355(3)
C12 C 0.9116(6) 1.0202(5) 0.3238(3)
H11 H 0.9702 1.1102 0.3431
C13 C 0.7422(5) 0.9990(5) 0.2844(3)
H12 H 0.6898 1.0756 0.2769
C14 C -0.3279(6) 0.8501(6) 0.0260(4)
H13 H -0.3672 0.7531 0.0065
H14 H -0.3388 0.9029 -0.0228
H15 H -0.3952 0.8793 0.0658
C15 C 1.2708(6) 1.0712(6) 0.3974(3)
H16 H 1.2349 1.1312 0.3544
H17 H 1.3899 1.0679 0.3975
C16 C 1.2560(8) 1.1343(6) 0.4846(4)
H18 H 1.3253 1.2256 0.4970
H19 H 1.2942 1.0771 0.5280
H20 H 1.1390 1.1404 0.4848
C17 C 1.2553(6) 0.8141(5) 0.3956(4)
H21 H 1.3774 0.8435 0.4001
H22 H 1.2165 0.7380 0.3496
C18 C 1.2229(7) 0.7617(6) 0.4799(4)
H23 H 1.2819 0.6862 0.4913
H24 H 1.1025 0.7300 0.4757
H25 H 1.2635 0.8356 0.5262
loop_
_geom_bond_atom_site_label_1
_geom_bond_atom_site_label_2
_geom_bond_site_symmetry_1
_geom_bond_site_symmetry_2
S1 O1 1_555 1_555
O2 S1 1_555 1_555
O3 S1 1_555 1_555
O4 H1 1_555 1_555
H2 O4 1_555 1_555
N1 C2 1_555 1_555
N2 C11 1_555 1_555
C1 H3 1_555 1_555
C2 C1 1_555 1_555
H4 C2 1_555 1_555
C3 N1 1_555 1_555
H5 C3 1_555 1_555
C4 C3 1_555 1_555
H6 C4 1_555 1_555
C5 C1 1_555 1_555
C6 C5 1_555 1_555
H7 C6 1_555 1_555
C7 C6 1_555 1_555
H8 C7 1_555 1_555
C8 C7 1_555 1_555
C9 C8 1_555 1_555
H9 C9 1_555 1_555
C10 C9 1_555 1_555
H10 C10 1_555 1_555
C11 C10 1_555 1_555
C12 C11 1_555 1_555
H11 C12 1_555 1_555
C13 C8 1_555 1_555
H12 C13 1_555 1_555
C14 N1 1_555 1_555
H13 C14 1_555 1_555
H14 C14 1_555 1_555
H15 C14 1_555 1_555
C15 N2 1_555 1_555
H16 C15 1_555 1_555
H17 C15 1_555 1_555
C16 C15 1_555 1_555
H18 C16 1_555 1_555
H19 C16 1_555 1_555
H20 C16 1_555 1_555
C17 N2 1_555 1_555
H21 C17 1_555 1_555
H22 C17 1_555 1_555
C18 C17 1_555 1_555
H23 C18 1_555 1_555
H24 C18 1_555 1_555
H25 C18 1_555 1_555
C19 S1 1_555 1_555
C20 C19 1_555 1_555
H26 C20 1_555 1_555
C21 C20 1_555 1_555
H27 C21 1_555 1_555
C22 C21 1_555 1_555
C23 C22 1_555 1_555
H28 C23 1_555 1_555
C24 C19 1_555 1_555
H29 C24 1_555 1_555
C25 C22 1_555 1_555
H30 C25 1_555 1_555
H31 C25 1_555 1_555
H32 C25 1_555 1_555
C4 C5 1_555 1_555
C12 C13 1_555 1_555
C23 C24 1_555 1_555

#END
