
#######################################################################
#
#                 Cambridge Crystallographic Data Centre
#                                CCDC 
#
#######################################################################
#
# If this CIF has been generated from an entry in the Cambridge 
# Structural Database, then it will include bibliographic, chemical, 
# crystal, experimental, refinement or atomic coordinate data resulting 
# from the CCDC's data processing and validation procedures.
#
#######################################################################

data_IBUCAM
_chemical_formula_moiety         'C21 H13 N1 O1 S1'
_chemical_name_systematic        
2-(1,3-benzothiazol-2-yl)-5-(phenylethynyl)phenol
_symmetry_cell_setting           monoclinic
_symmetry_space_group_name_H-M   'P 21/n'
_symmetry_Int_Tables_number      14
_space_group_name_Hall           '-P 2yn'
loop_
_symmetry_equiv_pos_site_id
_symmetry_equiv_pos_as_xyz
1 x,y,z
2 1/2-x,1/2+y,1/2-z
3 -x,-y,-z
4 1/2+x,1/2-y,1/2+z
_cell_length_a                   9.8881(8)
_cell_length_b                   8.1673(7)
_cell_length_c                   20.0011(18)
_cell_angle_alpha                90
_cell_angle_beta                 97.2630(10)
_cell_angle_gamma                90
_cell_volume                     1602.31
_cell_formula_units_Z            4
loop_
_atom_site_label
_atom_site_type_symbol
_atom_site_fract_x
_atom_site_fract_y
_atom_site_fract_z
N1 N 0.4489(3) 0.7250(3) 0.54868(13)
O1 O 0.1993(2) 0.8180(3) 0.56169(12)
H1 H 0.2717 0.8169 0.5457
S1 S 0.59964(9) 0.54602(12) 0.63403(5)
C1 C 0.4501(3) 0.6502(4) 0.60635(16)
C2 C 0.5698(3) 0.6986(4) 0.52199(17)
C3 C 0.6647(3) 0.6030(4) 0.56160(16)
C4 C 0.7891(4) 0.5671(4) 0.5407(2)
H2 H 0.8525 0.5030 0.5673
C5 C 0.8176(4) 0.6271(5) 0.4804(2)
H3 H 0.9009 0.6026 0.4658
C6 C 0.7252(4) 0.7236(5) 0.44052(18)
H4 H 0.7467 0.7643 0.3998
C7 C 0.6018(4) 0.7589(5) 0.46125(18)
H5 H 0.5392 0.8236 0.4345
C8 C 0.3338(3) 0.6518(4) 0.64377(15)
C9 C 0.2129(3) 0.7325(4) 0.61965(17)
C10 C 0.1034(3) 0.7277(4) 0.65546(17)
H6 H 0.0242 0.7832 0.6388
C11 C 0.1071(3) 0.6429(4) 0.71552(17)
C12 C 0.2269(3) 0.5610(4) 0.73984(17)
H7 H 0.2324 0.5034 0.7802
C13 C 0.3363(3) 0.5651(4) 0.70452(17)
H8 H 0.4150 0.5086 0.7212
C14 C -0.0079(4) 0.6406(4) 0.75173(17)
C15 C -0.1053(4) 0.6397(4) 0.78172(17)
C16 C -0.2189(3) 0.6328(4) 0.81888(16)
C17 C -0.3314(3) 0.7324(4) 0.80397(17)
H9 H -0.3344 0.8055 0.7682
C18 C -0.4382(4) 0.7256(5) 0.8406(2)
H10 H -0.5137 0.7926 0.8293
C19 C -0.4349(4) 0.6201(5) 0.8943(2)
H11 H -0.5073 0.6161 0.9197
C20 C -0.3237(4) 0.5208(4) 0.90991(18)
H12 H -0.3208 0.4490 0.9462
C21 C -0.2177(3) 0.5265(4) 0.87279(17)
H13 H -0.1432 0.4578 0.8838
loop_
_geom_bond_atom_site_label_1
_geom_bond_atom_site_label_2
_geom_bond_site_symmetry_1
_geom_bond_site_symmetry_2
N1 C1 1_555 1_555
O1 H1 1_555 1_555
S1 C1 1_555 1_555
C1 C8 1_555 1_555
C2 N1 1_555 1_555
C3 S1 1_555 1_555
C4 C3 1_555 1_555
H2 C4 1_555 1_555
C5 C4 1_555 1_555
H3 C5 1_555 1_555
C6 C5 1_555 1_555
H4 C6 1_555 1_555
C7 C2 1_555 1_555
H5 C7 1_555 1_555
C8 C9 1_555 1_555
C9 O1 1_555 1_555
C10 C9 1_555 1_555
H6 C10 1_555 1_555
C11 C10 1_555 1_555
C12 C11 1_555 1_555
H7 C12 1_555 1_555
C13 C8 1_555 1_555
H8 C13 1_555 1_555
C14 C11 1_555 1_555
C15 C14 1_555 1_555
C16 C15 1_555 1_555
C17 C16 1_555 1_555
H9 C17 1_555 1_555
C18 C17 1_555 1_555
H10 C18 1_555 1_555
C19 C18 1_555 1_555
H11 C19 1_555 1_555
C20 C19 1_555 1_555
H12 C20 1_555 1_555
C21 C16 1_555 1_555
H13 C21 1_555 1_555
C2 C3 1_555 1_555
C6 C7 1_555 1_555
C12 C13 1_555 1_555
C20 C21 1_555 1_555

#END
