
#######################################################################
#
#                 Cambridge Crystallographic Data Centre
#                                CCDC 
#
#######################################################################
#
# If this CIF has been generated from an entry in the Cambridge 
# Structural Database, then it will include bibliographic, chemical, 
# crystal, experimental, refinement or atomic coordinate data resulting 
# from the CCDC's data processing and validation procedures.
#
#######################################################################

data_IBUFOD
_chemical_compound_source        
'isolated from a soil fungus Curvularia borreriae (Pleosporaceae) strain HS-FG-237'
_chemical_formula_moiety         'C21 H28 O3'
_chemical_name_systematic        
4\a-methyl-9\a-methoxyandrosta-8(14),15-diene-3,17-dione
_chemical_properties_biological  
'poor cytotoxicity toward HCT-116 cells by CCK-8 assay and weak anti-inflammatory activity in an ANA-1 murine macrophages model'
_symmetry_cell_setting           orthorhombic
_symmetry_space_group_name_H-M   'P 21 21 21'
_symmetry_Int_Tables_number      19
_space_group_name_Hall           'P 2ac 2ab'
loop_
_symmetry_equiv_pos_site_id
_symmetry_equiv_pos_as_xyz
1 x,y,z
2 1/2-x,-y,1/2+z
3 -x,1/2+y,1/2-z
4 1/2+x,1/2-y,-z
_cell_length_a                   7.33780(10)
_cell_length_b                   9.77280(10)
_cell_length_c                   24.4566(3)
_cell_angle_alpha                90
_cell_angle_beta                 90
_cell_angle_gamma                90
_cell_volume                     1753.8
_exptl_crystal_colour            colorless
_exptl_crystal_description       prismatic
_chemical_melting_point          '248-252 deg.C'
_cell_formula_units_Z            4
loop_
_atom_site_label
_atom_site_type_symbol
_atom_site_fract_x
_atom_site_fract_y
_atom_site_fract_z
O1 O 0.8807(3) -0.01965(19) 0.02610(9)
O2 O 0.8819(2) 0.51471(13) 0.04200(5)
O3 O 0.6616(3) 0.96612(18) 0.20017(8)
C1 C 0.6617(3) 0.2823(2) 0.06203(8)
H1 H 0.5400 0.3180 0.0680
H2 H 0.7010 0.3112 0.0260
C2 C 0.6547(3) 0.1260(2) 0.06362(10)
H3 H 0.5974 0.0965 0.0974
H4 H 0.5815 0.0929 0.0334
C3 C 0.8423(4) 0.0658(2) 0.05997(9)
C4 C 0.9788(3) 0.1206(2) 0.10080(9)
H5 H 0.9337 0.0973 0.1374
C5 C 0.9833(3) 0.2788(2) 0.09677(8)
H6 H 1.0219 0.3013 0.0595
C6 C 1.1236(3) 0.3421(2) 0.13532(9)
H7 H 1.0932 0.3176 0.1727
H8 H 1.2427 0.3042 0.1272
C7 C 1.1326(3) 0.4976(2) 0.13066(10)
H9 H 1.2117 0.5334 0.1590
H10 H 1.1844 0.5224 0.0955
C8 C 0.9463(2) 0.5607(2) 0.13610(8)
C9 C 0.8062(2) 0.50236(19) 0.09630(7)
C10 C 0.7906(2) 0.3437(2) 0.10490(7)
C11 C 0.6195(3) 0.5755(2) 0.09940(8)
H11 H 0.5672 0.5771 0.0630
H12 H 0.5394 0.5213 0.1223
C12 C 0.6215(3) 0.7219(2) 0.12143(8)
H13 H 0.6824 0.7815 0.0955
H14 H 0.4974 0.7542 0.1259
C13 C 0.7202(3) 0.7270(2) 0.17624(8)
C14 C 0.9060(2) 0.6624(2) 0.17048(8)
C15 C 1.0333(3) 0.7493(3) 0.20047(9)
H15 H 1.1527 0.7249 0.2087
C16 C 0.9568(4) 0.8683(3) 0.21457(9)
H16 H 1.0159 0.9391 0.2327
C17 C 0.7662(3) 0.8705(2) 0.19718(8)
C18 C 0.6082(3) 0.6606(2) 0.22256(9)
H17 H 0.5763 0.5688 0.2124
H18 H 0.4991 0.7128 0.2286
H19 H 0.6793 0.6590 0.2555
C19 C 0.7161(3) 0.3141(2) 0.16277(8)
H20 H 0.5893 0.3381 0.1643
H21 H 0.7826 0.3672 0.1891
H22 H 0.7301 0.2186 0.1709
C20 C 1.1645(4) 0.0521(3) 0.09413(12)
H23 H 1.1487 -0.0452 0.0917
H24 H 1.2396 0.0734 0.1251
H25 H 1.2218 0.0851 0.0614
C21 C 0.9093(4) 0.6492(2) 0.02166(9)
H26 H 0.7934 0.6914 0.0149
H27 H 0.9776 0.6450 -0.0118
H28 H 0.9755 0.7020 0.0481
loop_
_geom_bond_atom_site_label_1
_geom_bond_atom_site_label_2
_geom_bond_site_symmetry_1
_geom_bond_site_symmetry_2
O1 C3 1_555 1_555
O2 C9 1_555 1_555
O3 C17 1_555 1_555
C1 H1 1_555 1_555
H2 C1 1_555 1_555
C2 C1 1_555 1_555
H3 C2 1_555 1_555
H4 C2 1_555 1_555
C3 C2 1_555 1_555
C4 C3 1_555 1_555
H5 C4 1_555 1_555
C5 C4 1_555 1_555
H6 C5 1_555 1_555
C6 C5 1_555 1_555
H7 C6 1_555 1_555
H8 C6 1_555 1_555
C7 C6 1_555 1_555
H9 C7 1_555 1_555
H10 C7 1_555 1_555
C8 C7 1_555 1_555
C9 C8 1_555 1_555
C10 C1 1_555 1_555
C11 C9 1_555 1_555
H11 C11 1_555 1_555
H12 C11 1_555 1_555
C12 C11 1_555 1_555
H13 C12 1_555 1_555
H14 C12 1_555 1_555
C13 C12 1_555 1_555
C14 C8 1_555 1_555
C15 C14 1_555 1_555
H15 C15 1_555 1_555
C16 C15 1_555 1_555
H16 C16 1_555 1_555
C17 C13 1_555 1_555
C18 C13 1_555 1_555
H17 C18 1_555 1_555
H18 C18 1_555 1_555
H19 C18 1_555 1_555
C19 C10 1_555 1_555
H20 C19 1_555 1_555
H21 C19 1_555 1_555
H22 C19 1_555 1_555
C20 C4 1_555 1_555
H23 C20 1_555 1_555
H24 C20 1_555 1_555
H25 C20 1_555 1_555
C21 O2 1_555 1_555
H26 C21 1_555 1_555
H27 C21 1_555 1_555
H28 C21 1_555 1_555
C5 C10 1_555 1_555
C9 C10 1_555 1_555
C13 C14 1_555 1_555
C16 C17 1_555 1_555

#END
