
#######################################################################
#
#                 Cambridge Crystallographic Data Centre
#                                CCDC 
#
#######################################################################
#
# If this CIF has been generated from an entry in the Cambridge 
# Structural Database, then it will include bibliographic, chemical, 
# crystal, experimental, refinement or atomic coordinate data resulting 
# from the CCDC's data processing and validation procedures.
#
#######################################################################

data_IBUHIW
_chemical_formula_moiety         'C9 H8 Cl2 O3'
_chemical_name_systematic        'rac-2-(2,4-Dichlorophenoxy)propanoic acid'
_symmetry_cell_setting           triclinic
_symmetry_space_group_name_H-M   'P -1'
_symmetry_Int_Tables_number      2
_space_group_name_Hall           '-P 1'
loop_
_symmetry_equiv_pos_site_id
_symmetry_equiv_pos_as_xyz
1 x,y,z
2 -x,-y,-z
_cell_length_a                   4.4721(5)
_cell_length_b                   10.5356(8)
_cell_length_c                   11.4259(11)
_cell_angle_alpha                80.601(7)
_cell_angle_beta                 82.071(9)
_cell_angle_gamma                82.447(8)
_cell_volume                     522.763
_exptl_crystal_colour            colorless
_exptl_crystal_description       block
_cell_formula_units_Z            2
_exptl_crystal_recrystallization_method dichloromethane/hexane
loop_
_atom_site_label
_atom_site_type_symbol
_atom_site_fract_x
_atom_site_fract_y
_atom_site_fract_z
Cl1 Cl 0.3739(3) 0.82864(11) 0.95849(9)
Cl2 Cl -0.2396(4) 1.18351(10) 0.66088(15)
O1 O 0.1833(7) 0.4462(2) 0.6034(3)
H1 H 0.290(12) 0.435(4) 0.547(4)
O2 O 0.5095(6) 0.5858(2) 0.6086(2)
O3 O 0.2233(6) 0.6457(2) 0.82258(19)
C1 C 0.2954(9) 0.5280(3) 0.6531(3)
C2 C 0.1318(9) 0.5406(3) 0.7767(3)
H2 H -0.0884 0.5529 0.7742
C3 C 0.2189(12) 0.4183(4) 0.8622(3)
H3 H 0.1070 0.4235 0.9396
H4 H 0.4326 0.4103 0.8685
H5 H 0.1718 0.3441 0.8324
C4 C 0.1076(8) 0.7686(3) 0.7783(3)
C5 C 0.1699(9) 0.8670(3) 0.8371(3)
C6 C 0.0658(10) 0.9938(3) 0.8008(4)
H6 H 0.1076 1.0588 0.8402
C7 C -0.0998(11) 1.0236(3) 0.7062(4)
C8 C -0.1671(10) 0.9283(4) 0.6470(4)
H7 H -0.2830 0.9495 0.5835
C9 C -0.0588(9) 0.8009(3) 0.6840(3)
H8 H -0.1001 0.7362 0.6441
loop_
_geom_bond_atom_site_label_1
_geom_bond_atom_site_label_2
_geom_bond_site_symmetry_1
_geom_bond_site_symmetry_2
Cl1 C5 1_555 1_555
Cl2 C7 1_555 1_555
O1 H1 1_555 1_555
O2 C1 1_555 1_555
O3 C2 1_555 1_555
C1 O1 1_555 1_555
C2 C1 1_555 1_555
H2 C2 1_555 1_555
C3 C2 1_555 1_555
H3 C3 1_555 1_555
H4 C3 1_555 1_555
H5 C3 1_555 1_555
C4 O3 1_555 1_555
C5 C4 1_555 1_555
C6 C5 1_555 1_555
H6 C6 1_555 1_555
C7 C6 1_555 1_555
C8 C7 1_555 1_555
H7 C8 1_555 1_555
C9 C4 1_555 1_555
H8 C9 1_555 1_555
C8 C9 1_555 1_555

#END
