
#######################################################################
#
#                 Cambridge Crystallographic Data Centre
#                                CCDC 
#
#######################################################################
#
# If this CIF has been generated from an entry in the Cambridge 
# Structural Database, then it will include bibliographic, chemical, 
# crystal, experimental, refinement or atomic coordinate data resulting 
# from the CCDC's data processing and validation procedures.
#
#######################################################################

data_IBUHAR
_chemical_formula_moiety         'C68 H46 N4,1.5(C1 H2 Cl2)'
_chemical_name_systematic        
"(1E,1'E,1''E,1'''E)-N,N',N'',N'''-(pyrene-1,3,6,8-tetrayltetrakis(benzene-4,1-diyl))tetrakis(1-phenylmethanimine) dichloromethane solvate"
_symmetry_cell_setting           triclinic
_symmetry_space_group_name_H-M   'P -1'
_symmetry_Int_Tables_number      2
_space_group_name_Hall           '-P 1'
loop_
_symmetry_equiv_pos_site_id
_symmetry_equiv_pos_as_xyz
1 x,y,z
2 -x,-y,-z
_cell_length_a                   10.7899(8)
_cell_length_b                   15.7375(10)
_cell_length_c                   17.8183(13)
_cell_angle_alpha                72.675(2)
_cell_angle_beta                 80.347(3)
_cell_angle_gamma                70.518(3)
_cell_volume                     2715.15
_exptl_crystal_colour            yellow
_exptl_crystal_description       rod
_cell_formula_units_Z            2
loop_
_atom_site_label
_atom_site_type_symbol
_atom_site_fract_x
_atom_site_fract_y
_atom_site_fract_z
Cl1 Cl 0.50110(12) 0.60050(8) 0.10143(7)
Cl2 Cl 0.32402(14) 0.61740(9) -0.01033(10)
C1 C 0.4657(5) 0.6377(3) 0.0036(3)
H1 H 0.5410 0.6049 -0.0279
H2 H 0.4551 0.7054 -0.0160
Cl3 Cl 0.9714(2) 0.59593(14) 0.08512(16)
Cl4 Cl 0.8223(2) 0.63384(18) -0.04701(15)
C2 C 0.8406(10) 0.6130(13) 0.0404(7)
H3 H 0.8122 0.5566 0.0654
H4 H 0.7723 0.6646 0.0582
N1 N 0.4682(2) 0.15234(15) 0.07988(12)
N2 N 1.3605(2) -0.44585(15) 0.41174(13)
N3 N 1.0988(2) -0.13157(15) 0.96834(12)
N4 N 0.0625(2) 0.39411(15) 0.66283(13)
C3 C 0.4999(2) 0.16681(17) 0.51074(14)
C4 C 0.4898(3) 0.17000(17) 0.43306(14)
H5 H 0.4141 0.2123 0.4074
C5 C 0.5867(3) 0.11349(17) 0.39147(14)
C6 C 0.6962(2) 0.04761(17) 0.42995(14)
C7 C 0.7953(3) -0.01683(17) 0.39253(14)
H6 H 0.7899 -0.0126 0.3388
C8 C 0.8956(3) -0.08307(17) 0.43147(14)
H7 H 0.9588 -0.1246 0.4045
C9 C 0.9101(2) -0.09301(17) 0.51217(14)
C10 C 1.0108(2) -0.16517(17) 0.55505(14)
C11 C 1.0250(2) -0.16539(17) 0.63118(14)
H8 H 1.0941 -0.2135 0.6592
C12 C 0.9419(2) -0.09785(17) 0.66830(14)
C13 C 0.8364(2) -0.02782(17) 0.62820(14)
C14 C 0.7422(3) 0.04132(17) 0.66315(14)
H9 H 0.7548 0.0432 0.7141
C15 C 0.6370(3) 0.10329(17) 0.62655(14)
H10 H 0.5769 0.1473 0.6524
C16 C 0.6127(2) 0.10481(17) 0.54904(14)
C17 C 0.7098(2) 0.04299(16) 0.50939(14)
C18 C 0.8197(2) -0.02594(17) 0.54985(14)
C19 C 0.5619(2) 0.12026(17) 0.30973(14)
C20 C 0.6473(3) 0.14167(17) 0.24365(14)
H11 H 0.7284 0.1490 0.2502
C21 C 0.6145(3) 0.15224(17) 0.16867(14)
H12 H 0.6728 0.1676 0.1242
C22 C 0.4974(3) 0.14057(17) 0.15796(14)
C23 C 0.4114(3) 0.11931(17) 0.22352(14)
H13 H 0.3306 0.1116 0.2170
C24 C 0.4445(3) 0.10957(17) 0.29794(15)
H14 H 0.3854 0.0952 0.3422
C25 C 0.4036(3) 0.10213(18) 0.07104(15)
H15 H 0.3786 0.0599 0.1168
C26 C 0.3649(3) 0.10496(18) -0.00473(15)
C27 C 0.3996(3) 0.1609(2) -0.07603(16)
H16 H 0.4458 0.2031 -0.0769
C28 C 0.3670(3) 0.1553(2) -0.14592(16)
H17 H 0.3911 0.1937 -0.1947
C29 C 0.2997(3) 0.0943(2) -0.14508(16)
H18 H 0.2795 0.0897 -0.1933
C30 C 0.2615(3) 0.04004(19) -0.07466(16)
H19 H 0.2138 -0.0012 -0.0740
C31 C 0.2936(3) 0.04644(18) -0.00492(16)
H20 H 0.2661 0.0099 0.0438
C32 C 1.1021(3) -0.24176(17) 0.52160(14)
C33 C 1.2377(3) -0.26946(17) 0.52910(14)
H21 H 1.2710 -0.2411 0.5581
C34 C 1.3245(3) -0.33748(18) 0.49509(15)
H22 H 1.4163 -0.3549 0.5007
C35 C 1.2778(3) -0.38051(17) 0.45269(14)
C36 C 1.1420(3) -0.35890(17) 0.45083(14)
H23 H 1.1083 -0.3921 0.4267
C37 C 1.0557(3) -0.29000(17) 0.48353(14)
H24 H 0.9636 -0.2751 0.4802
C38 C 1.4638(3) -0.42915(19) 0.37229(16)
H25 H 1.4829 -0.3749 0.3736
C39 C 1.5544(3) -0.4898(2) 0.32499(16)
C40 C 1.6684(3) -0.4706(3) 0.2885(2)
H26 H 1.6884 -0.4187 0.2944
C41 C 1.7547(3) -0.5271(4) 0.2428(2)
H27 H 1.8341 -0.5142 0.2184
C42 C 1.7256(4) -0.6007(3) 0.2332(2)
H28 H 1.7846 -0.6390 0.2020
C43 C 1.6112(4) -0.6200(2) 0.26854(19)
H29 H 1.5911 -0.6713 0.2614
C44 C 1.5251(4) -0.5651(2) 0.31447(17)
H30 H 1.4461 -0.5786 0.3388
C45 C 0.9688(2) -0.10425(17) 0.74932(14)
C46 C 0.9829(2) -0.02860(18) 0.76892(14)
H31 H 0.9652 0.0306 0.7315
C47 C 1.0219(2) -0.03806(18) 0.84147(14)
H32 H 1.0322 0.0142 0.8531
C48 C 1.0464(2) -0.12379(18) 0.89801(14)
C49 C 1.0296(3) -0.19938(18) 0.88000(15)
H33 H 1.0446 -0.2580 0.9182
C50 C 0.9911(3) -0.18951(18) 0.80681(15)
H34 H 0.9797 -0.2416 0.7954
C51 C 1.0615(3) -0.17974(18) 1.03326(15)
H35 H 0.9948 -0.2072 1.0344
C52 C 1.1190(3) -0.19431(17) 1.10737(14)
C53 C 1.0576(3) -0.23071(18) 1.17838(15)
H36 H 0.9814 -0.2485 1.1790
C54 C 1.1071(3) -0.24143(18) 1.24907(15)
H37 H 1.0641 -0.2659 1.2978
C55 C 1.2178(3) -0.21673(18) 1.24838(15)
H38 H 1.2512 -0.2236 1.2966
C56 C 1.2808(3) -0.1818(2) 1.17734(16)
H39 H 1.3576 -0.1649 1.1769
C57 C 1.2324(3) -0.17144(19) 1.10690(15)
H40 H 1.2771 -0.1486 1.0582
C58 C 0.3887(2) 0.22746(17) 0.55041(14)
C59 C 0.3327(3) 0.19222(18) 0.62456(15)
H41 H 0.3685 0.1286 0.6517
C60 C 0.2255(3) 0.24886(18) 0.65924(15)
H42 H 0.1872 0.2231 0.7093
C61 C 0.1726(2) 0.34315(18) 0.62185(15)
C62 C 0.2259(3) 0.37868(18) 0.54733(15)
H43 H 0.1891 0.4422 0.5202
C63 C 0.3323(3) 0.32197(18) 0.51241(15)
H44 H 0.3682 0.3475 0.4615
C64 C 0.0397(3) 0.48141(18) 0.65201(15)
H45 H 0.0977 0.5116 0.6166
C65 C -0.0736(3) 0.53666(19) 0.69267(15)
C66 C -0.0878(3) 0.63035(19) 0.68150(16)
H46 H -0.0256 0.6573 0.6471
C67 C -0.1919(3) 0.68510(19) 0.71999(17)
H47 H -0.2011 0.7493 0.7119
C68 C -0.2821(3) 0.6460(2) 0.77009(19)
H48 H -0.3534 0.6832 0.7967
C69 C -0.2683(3) 0.5523(2) 0.7814(2)
H49 H -0.3304 0.5253 0.8159
C70 C -0.1648(3) 0.4982(2) 0.74291(19)
H50 H -0.1559 0.4341 0.7509
loop_
_geom_bond_atom_site_label_1
_geom_bond_atom_site_label_2
_geom_bond_site_symmetry_1
_geom_bond_site_symmetry_2
Cl1 C1 1_555 1_555
Cl2 C1 1_555 1_555
C1 H1 1_555 1_555
H2 C1 1_555 1_555
Cl3 C2 1_555 1_555
Cl4 C2 1_555 1_555
C2 H3 1_555 1_555
H4 C2 1_555 1_555
N1 C22 1_555 1_555
N2 C35 1_555 1_555
N3 C48 1_555 1_555
N4 C61 1_555 1_555
C3 C4 1_555 1_555
C4 H5 1_555 1_555
C5 C4 1_555 1_555
C6 C5 1_555 1_555
C7 C6 1_555 1_555
H6 C7 1_555 1_555
C8 C7 1_555 1_555
H7 C8 1_555 1_555
C9 C8 1_555 1_555
C10 C9 1_555 1_555
C11 C10 1_555 1_555
H8 C11 1_555 1_555
C12 C11 1_555 1_555
C13 C12 1_555 1_555
C14 C13 1_555 1_555
H9 C14 1_555 1_555
C15 C14 1_555 1_555
H10 C15 1_555 1_555
C16 C3 1_555 1_555
C17 C6 1_555 1_555
C18 C9 1_555 1_555
C19 C5 1_555 1_555
C20 C19 1_555 1_555
H11 C20 1_555 1_555
C21 C20 1_555 1_555
H12 C21 1_555 1_555
C22 C21 1_555 1_555
C23 C22 1_555 1_555
H13 C23 1_555 1_555
C24 C19 1_555 1_555
H14 C24 1_555 1_555
C25 N1 1_555 1_555
H15 C25 1_555 1_555
C26 C25 1_555 1_555
C27 C26 1_555 1_555
H16 C27 1_555 1_555
C28 C27 1_555 1_555
H17 C28 1_555 1_555
C29 C28 1_555 1_555
H18 C29 1_555 1_555
C30 C29 1_555 1_555
H19 C30 1_555 1_555
C31 C26 1_555 1_555
H20 C31 1_555 1_555
C32 C10 1_555 1_555
C33 C32 1_555 1_555
H21 C33 1_555 1_555
C34 C33 1_555 1_555
H22 C34 1_555 1_555
C35 C34 1_555 1_555
C36 C35 1_555 1_555
H23 C36 1_555 1_555
C37 C32 1_555 1_555
H24 C37 1_555 1_555
C38 N2 1_555 1_555
H25 C38 1_555 1_555
C39 C38 1_555 1_555
C40 C39 1_555 1_555
H26 C40 1_555 1_555
C41 C40 1_555 1_555
H27 C41 1_555 1_555
C42 C41 1_555 1_555
H28 C42 1_555 1_555
C43 C42 1_555 1_555
H29 C43 1_555 1_555
C44 C39 1_555 1_555
H30 C44 1_555 1_555
C45 C12 1_555 1_555
C46 C45 1_555 1_555
H31 C46 1_555 1_555
C47 C46 1_555 1_555
H32 C47 1_555 1_555
C48 C47 1_555 1_555
C49 C48 1_555 1_555
H33 C49 1_555 1_555
C50 C45 1_555 1_555
H34 C50 1_555 1_555
C51 N3 1_555 1_555
H35 C51 1_555 1_555
C52 C51 1_555 1_555
C53 C52 1_555 1_555
H36 C53 1_555 1_555
C54 C53 1_555 1_555
H37 C54 1_555 1_555
C55 C54 1_555 1_555
H38 C55 1_555 1_555
C56 C55 1_555 1_555
H39 C56 1_555 1_555
C57 C52 1_555 1_555
H40 C57 1_555 1_555
C58 C3 1_555 1_555
C59 C58 1_555 1_555
H41 C59 1_555 1_555
C60 C59 1_555 1_555
H42 C60 1_555 1_555
C61 C60 1_555 1_555
C62 C61 1_555 1_555
H43 C62 1_555 1_555
C63 C58 1_555 1_555
H44 C63 1_555 1_555
C64 N4 1_555 1_555
H45 C64 1_555 1_555
C65 C64 1_555 1_555
C66 C65 1_555 1_555
H46 C66 1_555 1_555
C67 C66 1_555 1_555
H47 C67 1_555 1_555
C68 C67 1_555 1_555
H48 C68 1_555 1_555
C69 C68 1_555 1_555
H49 C69 1_555 1_555
C70 C65 1_555 1_555
H50 C70 1_555 1_555
C13 C18 1_555 1_555
C15 C16 1_555 1_555
C16 C17 1_555 1_555
C17 C18 1_555 1_555
C23 C24 1_555 1_555
C30 C31 1_555 1_555
C36 C37 1_555 1_555
C43 C44 1_555 1_555
C49 C50 1_555 1_555
C56 C57 1_555 1_555
C62 C63 1_555 1_555
C69 C70 1_555 1_555

#END
