
#######################################################################
#
#                 Cambridge Crystallographic Data Centre
#                                CCDC 
#
#######################################################################
#
# If this CIF has been generated from an entry in the Cambridge 
# Structural Database, then it will include bibliographic, chemical, 
# crystal, experimental, refinement or atomic coordinate data resulting 
# from the CCDC's data processing and validation procedures.
#
#######################################################################

data_IBUJAQ
_chemical_formula_moiety         'C9 H8 Cl2 O3,C9 H8 Cl1 N1 O5'
_chemical_name_systematic        
'(R)-2-(2,4-Dichlorophenoxy)propanoic acid (S)-2-(2-chloro-4-nitrophenoxy)propanoic acid'
_symmetry_cell_setting           triclinic
_symmetry_space_group_name_H-M   'P 1'
_symmetry_Int_Tables_number      1
_space_group_name_Hall           'P 1'
loop_
_symmetry_equiv_pos_site_id
_symmetry_equiv_pos_as_xyz
1 x,y,z
_cell_length_a                   4.5617(10)
_cell_length_b                   10.4684(19)
_cell_length_c                   11.3660(19)
_cell_angle_alpha                80.311(13)
_cell_angle_beta                 82.186(14)
_cell_angle_gamma                82.383(16)
_cell_volume                     526.706
_exptl_crystal_colour            colorless
_exptl_crystal_description       block
_chemical_melting_point          '131-132 deg.C'
_cell_formula_units_Z            1
_exptl_crystal_recrystallization_method acetone/hexane
loop_
_atom_site_label
_atom_site_type_symbol
_atom_site_fract_x
_atom_site_fract_y
_atom_site_fract_z
Cl1 Cl 0.3652(5) 0.83278(16) 0.95181(15)
Cl2 Cl -0.2573(9) 1.1792(2) 0.6495(3)
O1 O 0.1854(13) 0.4458(4) 0.5998(4)
H1 H 0.2813 0.4421 0.5337
O2 O 0.5140(15) 0.5777(4) 0.6136(4)
O3 O 0.2148(12) 0.6413(3) 0.8237(4)
C1 C 0.298(2) 0.5236(5) 0.6552(6)
C2 C 0.132(2) 0.5339(5) 0.7772(6)
H2 H -0.0834 0.5429 0.7739
C3 C 0.230(3) 0.4114(6) 0.8641(7)
H3 H 0.1191 0.4148 0.9419
H4 H 0.4385 0.4077 0.8705
H5 H 0.1925 0.3352 0.8344
C4 C 0.1020(16) 0.7636(5) 0.7734(5)
C5 C 0.1607(19) 0.8645(6) 0.8300(6)
C6 C 0.051(3) 0.9927(7) 0.7912(9)
H6 H 0.0885 1.0604 0.8286
C7 C -0.114(2) 1.0165(6) 0.6967(8)
C8 C -0.182(2) 0.9208(6) 0.6441(7)
H7 H -0.3023 0.9403 0.5821
C9 C -0.0724(18) 0.7914(6) 0.6828(7)
H8 H -0.1189 0.7246 0.6465
Cl3 Cl 0.6545(5) 0.16244(16) 0.04656(15)
O4 O 0.8135(13) 0.5578(4) 0.3958(4)
H9 H 0.7220 0.5621 0.4625
O5 O 0.4886(13) 0.4183(4) 0.3865(4)
O6 O 0.7900(11) 0.3555(3) 0.1747(3)
O7 O 1.2417(15) -0.2347(4) 0.2842(6)
O8 O 1.4464(17) -0.1640(5) 0.4222(5)
N1 N 1.2849(18) -0.1492(5) 0.3384(7)
C10 C 0.702(2) 0.4770(5) 0.3448(6)
C11 C 0.8636(19) 0.4651(5) 0.2201(6)
H10 H 1.0790 0.4569 0.2232
C12 C 0.774(2) 0.5837(5) 0.1315(6)
H11 H 0.8835 0.5765 0.0542
H12 H 0.8167 0.6606 0.1586
H13 H 0.5645 0.5894 0.1255
C13 C 0.9152(19) 0.2342(5) 0.2192(6)
C14 C 0.8644(17) 0.1307(5) 0.1659(6)
C15 C 0.9800(19) 0.0060(6) 0.2058(7)
H14 H 0.9432 -0.0630 0.1700
C16 C 1.1504(19) -0.0163(6) 0.2990(7)
C17 C 1.199(2) 0.0842(6) 0.3589(7)
H15 H 1.3084 0.0673 0.4241
C18 C 1.081(2) 0.2063(6) 0.3188(7)
H16 H 1.1089 0.2742 0.3579
loop_
_geom_bond_atom_site_label_1
_geom_bond_atom_site_label_2
_geom_bond_site_symmetry_1
_geom_bond_site_symmetry_2
Cl1 C5 1_555 1_555
Cl2 C7 1_555 1_555
O1 H1 1_555 1_555
O2 C1 1_555 1_555
O3 C2 1_555 1_555
C1 O1 1_555 1_555
C2 C1 1_555 1_555
H2 C2 1_555 1_555
C3 C2 1_555 1_555
H3 C3 1_555 1_555
H4 C3 1_555 1_555
H5 C3 1_555 1_555
C4 O3 1_555 1_555
C5 C4 1_555 1_555
C6 C5 1_555 1_555
H6 C6 1_555 1_555
C7 C6 1_555 1_555
C8 C7 1_555 1_555
H7 C8 1_555 1_555
C9 C4 1_555 1_555
H8 C9 1_555 1_555
Cl3 C14 1_555 1_555
O4 H9 1_555 1_555
O5 C10 1_555 1_555
O6 C11 1_555 1_555
O7 N1 1_555 1_555
O8 N1 1_555 1_555
N1 C16 1_555 1_555
C10 O4 1_555 1_555
C11 C10 1_555 1_555
H10 C11 1_555 1_555
C12 C11 1_555 1_555
H11 C12 1_555 1_555
H12 C12 1_555 1_555
H13 C12 1_555 1_555
C13 O6 1_555 1_555
C14 C13 1_555 1_555
C15 C14 1_555 1_555
H14 C15 1_555 1_555
C16 C15 1_555 1_555
C17 C16 1_555 1_555
H15 C17 1_555 1_555
C18 C13 1_555 1_555
H16 C18 1_555 1_555
C8 C9 1_555 1_555
C17 C18 1_555 1_555

#END
