
#######################################################################
#
#                 Cambridge Crystallographic Data Centre
#                                CCDC 
#
#######################################################################
#
# If this CIF has been generated from an entry in the Cambridge 
# Structural Database, then it will include bibliographic, chemical, 
# crystal, experimental, refinement or atomic coordinate data resulting 
# from the CCDC's data processing and validation procedures.
#
#######################################################################

data_IBULOJ
_chemical_compound_source        'seeds of Celastrus monospermus'
_chemical_name_common            
(1R,2R,4R,5S,6R,7R,8S,9R,10S)-1,2,6,8-Tetraacetoxy-9-benzoyloxy-beta-dihydroagarofuran
_chemical_formula_moiety         'C30 H38 O11'
_chemical_name_systematic        
'4,5,8,12-tetraacetoxy-2,6,10,10-tetramethyl-11-oxatricyclo[7.2.1.0^1,6^]dodecan-7-yl benzoate'
_chemical_properties_biological  'Lifespan-extending effects'
_symmetry_cell_setting           monoclinic
_symmetry_space_group_name_H-M   'P 21'
_symmetry_Int_Tables_number      4
_space_group_name_Hall           'P 2yb'
loop_
_symmetry_equiv_pos_site_id
_symmetry_equiv_pos_as_xyz
1 x,y,z
2 -x,1/2+y,-z
_cell_length_a                   9.4232(2)
_cell_length_b                   8.8867(2)
_cell_length_c                   18.0421(4)
_cell_angle_alpha                90
_cell_angle_beta                 104.3560(10)
_cell_angle_gamma                90
_cell_volume                     1463.69
_exptl_crystal_colour            colorless
_exptl_crystal_description       block
_cell_formula_units_Z            2
loop_
_atom_site_label
_atom_site_type_symbol
_atom_site_fract_x
_atom_site_fract_y
_atom_site_fract_z
O1 O 0.57029(17) 1.01526(18) 0.60401(9)
O2 O 0.38413(15) 0.65008(17) 0.74379(8)
O3 O 0.97393(19) 0.7786(3) 1.00731(11)
O4 O 0.93238(15) 0.64398(18) 0.89875(8)
O5 O 0.68866(16) 0.61279(16) 0.74887(8)
O6 O 0.40309(15) 0.98878(17) 0.70941(8)
O7 O 0.26633(17) 0.8804(2) 0.60204(9)
O8 O 0.7124(3) 1.2181(3) 0.60974(12)
O9 O 0.16873(17) 0.7005(2) 0.77192(10)
O10 O 0.42042(15) 0.48624(18) 0.86514(8)
O11 O 0.51132(19) 0.4042(2) 0.98564(9)
C1 C 0.5155(4) 1.1741(4) 0.49799(18)
H1 H 0.4309 1.2291 0.5033
H2 H 0.4851 1.0810 0.4718
H3 H 0.5685 1.2328 0.4691
C2 C 0.6117(3) 1.1419(3) 0.57518(15)
C3 C 0.6412(2) 0.9778(3) 0.68285(12)
H4 H 0.6677 1.0697 0.7131
C4 C 0.5263(2) 0.8903(2) 0.71080(12)
H5 H 0.4932 0.8050 0.6765
C5 C 0.5817(2) 0.8317(2) 0.79343(12)
C6 C 0.4648(2) 0.7233(2) 0.81274(11)
H6 H 0.3956 0.7844 0.8325
C7 C 0.2365(2) 0.6438(3) 0.73061(13)
C8 C 0.1709(2) 0.5593(3) 0.65938(13)
C9 C 0.2542(3) 0.5127(3) 0.60953(13)
H7 H 0.3542 0.5329 0.6211
C10 C 0.1885(3) 0.4369(3) 0.54310(14)
H8 H 0.2443 0.4071 0.5098
C11 C 0.0397(3) 0.4048(3) 0.52578(15)
H9 H -0.0038 0.3523 0.4813
C12 C 1.1729(2) 0.6514(3) 0.97197(14)
H10 H 1.2367 0.7096 1.0113
H11 H 1.1990 0.6667 0.9244
H12 H 1.1825 0.5467 0.9854
C13 C 1.0181(2) 0.6999(3) 0.96398(12)
C14 C 0.7787(2) 0.6804(2) 0.87977(12)
H13 H 0.7559 0.7503 0.9172
C15 C 0.6824(2) 0.5404(3) 0.87154(12)
H14 H 0.7192 0.4689 0.9132
C16 C 0.6947(2) 0.4765(2) 0.79401(12)
C17 C 0.7276(2) 0.7439(2) 0.79825(11)
C18 C 0.2812(2) 0.9742(3) 0.65138(12)
C19 C 0.1690(3) 1.0882(3) 0.65963(15)
H15 H 0.0868 1.0834 0.6159
H16 H 0.2113 1.1870 0.6632
H17 H 0.1369 1.0673 0.7051
C20 C 0.7767(2) 0.8823(3) 0.68642(12)
H18 H 0.8483 0.9409 0.6684
H19 H 0.7504 0.7958 0.6531
C21 C 0.8444(2) 0.8286(2) 0.76850(12)
H20 H 0.9185 0.7536 0.7647
C22 C 0.9275(2) 0.9569(3) 0.81844(13)
H21 H 0.8781 1.0506 0.8031
H22 H 1.0256 0.9625 0.8121
H23 H 0.9307 0.9376 0.8712
C23 C 0.5996(2) 0.9631(3) 0.85065(12)
H24 H 0.6842 1.0213 0.8483
H25 H 0.6117 0.9240 0.9015
H26 H 0.5140 1.0258 0.8379
C24 C 0.0213(3) 0.5283(3) 0.64129(14)
H27 H -0.0353 0.5597 0.6740
C25 C -0.0437(3) 0.4510(3) 0.57482(15)
H28 H -0.1435 0.4301 0.5632
C26 C 0.5308(2) 0.6031(2) 0.87403(12)
H29 H 0.5407 0.6492 0.9244
C27 C 0.4261(2) 0.3919(3) 0.92418(13)
C28 C 0.3112(3) 0.2722(3) 0.90212(15)
H30 H 0.3475 0.1796 0.9272
H31 H 0.2876 0.2580 0.8477
H32 H 0.2248 0.3024 0.9174
C29 C 0.8402(2) 0.3941(3) 0.79884(13)
H33 H 0.8385 0.3491 0.7502
H34 H 0.8534 0.3172 0.8373
H35 H 0.9197 0.4646 0.8120
C30 C 0.5719(2) 0.3711(3) 0.75314(13)
H36 H 0.4788 0.4171 0.7510
H37 H 0.5788 0.2778 0.7806
H38 H 0.5809 0.3522 0.7021
loop_
_geom_bond_atom_site_label_1
_geom_bond_atom_site_label_2
_geom_bond_site_symmetry_1
_geom_bond_site_symmetry_2
O1 C2 1_555 1_555
O2 C6 1_555 1_555
O3 C13 1_555 1_555
O4 C13 1_555 1_555
O5 C16 1_555 1_555
O6 C4 1_555 1_555
O7 C18 1_555 1_555
O8 C2 1_555 1_555
O9 C7 1_555 1_555
O10 C26 1_555 1_555
O11 C27 1_555 1_555
C1 H1 1_555 1_555
H2 C1 1_555 1_555
H3 C1 1_555 1_555
C2 C1 1_555 1_555
C3 O1 1_555 1_555
H4 C3 1_555 1_555
C4 C3 1_555 1_555
H5 C4 1_555 1_555
C5 C4 1_555 1_555
C6 C5 1_555 1_555
H6 C6 1_555 1_555
C7 O2 1_555 1_555
C8 C7 1_555 1_555
C9 C8 1_555 1_555
H7 C9 1_555 1_555
C10 C9 1_555 1_555
H8 C10 1_555 1_555
C11 C10 1_555 1_555
H9 C11 1_555 1_555
C12 H10 1_555 1_555
H11 C12 1_555 1_555
H12 C12 1_555 1_555
C13 C12 1_555 1_555
C14 O4 1_555 1_555
H13 C14 1_555 1_555
C15 C14 1_555 1_555
H14 C15 1_555 1_555
C16 C15 1_555 1_555
C17 O5 1_555 1_555
C18 O6 1_555 1_555
C19 C18 1_555 1_555
H15 C19 1_555 1_555
H16 C19 1_555 1_555
H17 C19 1_555 1_555
C20 C3 1_555 1_555
H18 C20 1_555 1_555
H19 C20 1_555 1_555
C21 C17 1_555 1_555
H20 C21 1_555 1_555
C22 C21 1_555 1_555
H21 C22 1_555 1_555
H22 C22 1_555 1_555
H23 C22 1_555 1_555
C23 C5 1_555 1_555
H24 C23 1_555 1_555
H25 C23 1_555 1_555
H26 C23 1_555 1_555
C24 C8 1_555 1_555
H27 C24 1_555 1_555
C25 C11 1_555 1_555
H28 C25 1_555 1_555
C26 C6 1_555 1_555
H29 C26 1_555 1_555
C27 O10 1_555 1_555
C28 C27 1_555 1_555
H30 C28 1_555 1_555
H31 C28 1_555 1_555
H32 C28 1_555 1_555
C29 C16 1_555 1_555
H33 C29 1_555 1_555
H34 C29 1_555 1_555
H35 C29 1_555 1_555
C30 C16 1_555 1_555
H36 C30 1_555 1_555
H37 C30 1_555 1_555
H38 C30 1_555 1_555
C5 C17 1_555 1_555
C14 C17 1_555 1_555
C15 C26 1_555 1_555
C20 C21 1_555 1_555
C24 C25 1_555 1_555

#END
