
#######################################################################
#
#                 Cambridge Crystallographic Data Centre
#                                CCDC 
#
#######################################################################
#
# If this CIF has been generated from an entry in the Cambridge 
# Structural Database, then it will include bibliographic, chemical, 
# crystal, experimental, refinement or atomic coordinate data resulting 
# from the CCDC's data processing and validation procedures.
#
#######################################################################

data_IBUMOI
_chemical_formula_moiety         'C16 H14 O2 S1'
_chemical_name_systematic        
(1R,4'S)-4'-Phenylspiro(1,3-dihydroisobenzofuran-1,2'-(1,3)oxathiolane)
_symmetry_cell_setting           orthorhombic
_symmetry_space_group_name_H-M   'P 21 21 21'
_symmetry_Int_Tables_number      19
_space_group_name_Hall           'P 2ac 2ab'
loop_
_symmetry_equiv_pos_site_id
_symmetry_equiv_pos_as_xyz
1 x,y,z
2 1/2-x,-y,1/2+z
3 1/2+x,1/2-y,-z
4 -x,1/2+y,1/2-z
_cell_length_a                   5.9913(1)
_cell_length_b                   8.5129(2)
_cell_length_c                   26.1203(7)
_cell_angle_alpha                90
_cell_angle_beta                 90
_cell_angle_gamma                90
_cell_volume                     1332.22
_exptl_crystal_colour            colorless
_exptl_crystal_description       tablet
_chemical_melting_point          '120.4-124.0 deg.C'
_cell_formula_units_Z            4
_exptl_crystal_recrystallization_method 'diethyl ether/hexane'
loop_
_atom_site_label
_atom_site_type_symbol
_atom_site_fract_x
_atom_site_fract_y
_atom_site_fract_z
S1 S 0.07449(9) -0.11203(6) 0.62727(2)
O1 O -0.0663(2) 0.14122(15) 0.58100(5)
O2 O 0.3226(2) 0.10449(19) 0.58279(5)
C1 C 0.1115(3) 0.0332(2) 0.57602(8)
C2 C -0.1795(3) -0.0183(2) 0.65033(7)
H1 H -0.3104 -0.0651 0.6321
C3 C -0.1475(3) 0.1496(2) 0.63201(8)
H2 H -0.2911 0.2072 0.6330
H3 H -0.0391 0.2051 0.6542
C4 C 0.4237(4) 0.1349(3) 0.53337(8)
H4 H 0.5834 0.1049 0.5335
H5 H 0.4113 0.2475 0.5243
C5 C 0.3259(4) 0.0061(2) 0.44480(8)
H6 H 0.4531 0.0457 0.4273
C6 C 0.1674(4) -0.0821(2) 0.41937(8)
H7 H 0.1855 -0.1026 0.3839
C7 C -0.0181(3) -0.1413(2) 0.44476(8)
H8 H -0.1259 -0.2003 0.4263
C8 C -0.0479(3) -0.1153(2) 0.49655(8)
H9 H -0.1728 -0.1575 0.5143
C9 C 0.1113(3) -0.0254(2) 0.52180(7)
C10 C 0.2943(3) 0.0352(2) 0.49658(8)
C11 C -0.2129(3) -0.0364(3) 0.70727(8)
C12 C -0.0612(4) 0.0242(3) 0.74234(9)
H10 H 0.0703 0.0754 0.7307
C13 C -0.1025(5) 0.0097(3) 0.79464(9)
H11 H 0.0002 0.0526 0.8186
C14 C -0.2895(5) -0.0656(4) 0.81183(10)
H12 H -0.3160 -0.0764 0.8475
C15 C -0.4382(5) -0.1253(4) 0.77718(11)
H13 H -0.5688 -0.1771 0.7890
C16 C -0.4013(4) -0.1112(3) 0.72527(9)
H14 H -0.5065 -0.1533 0.7018
loop_
_geom_bond_atom_site_label_1
_geom_bond_atom_site_label_2
_geom_bond_site_symmetry_1
_geom_bond_site_symmetry_2
S1 C1 1_555 1_555
O1 C1 1_555 1_555
O2 C1 1_555 1_555
C1 C9 1_555 1_555
C2 S1 1_555 1_555
H1 C2 1_555 1_555
C3 O1 1_555 1_555
H2 C3 1_555 1_555
H3 C3 1_555 1_555
C4 O2 1_555 1_555
H4 C4 1_555 1_555
H5 C4 1_555 1_555
C5 H6 1_555 1_555
C6 C5 1_555 1_555
H7 C6 1_555 1_555
C7 C6 1_555 1_555
H8 C7 1_555 1_555
C8 C7 1_555 1_555
H9 C8 1_555 1_555
C9 C8 1_555 1_555
C10 C4 1_555 1_555
C11 C2 1_555 1_555
C12 C11 1_555 1_555
H10 C12 1_555 1_555
C13 C12 1_555 1_555
H11 C13 1_555 1_555
C14 C13 1_555 1_555
H12 C14 1_555 1_555
C15 C14 1_555 1_555
H13 C15 1_555 1_555
C16 C11 1_555 1_555
H14 C16 1_555 1_555
C2 C3 1_555 1_555
C5 C10 1_555 1_555
C9 C10 1_555 1_555
C15 C16 1_555 1_555

#END
