
#######################################################################
#
#                 Cambridge Crystallographic Data Centre
#                                CCDC 
#
#######################################################################
#
# If this CIF has been generated from an entry in the Cambridge 
# Structural Database, then it will include bibliographic, chemical, 
# crystal, experimental, refinement or atomic coordinate data resulting 
# from the CCDC's data processing and validation procedures.
#
#######################################################################

data_IBUNEZ
_chemical_formula_moiety         'C13 H16 O2 S1'
_chemical_name_systematic        
(2R,5R)-2-Phenyl-1,6-dioxa-4-thiaspiro(4.5)decane
_symmetry_cell_setting           orthorhombic
_symmetry_space_group_name_H-M   'P 21 21 21'
_symmetry_Int_Tables_number      19
_space_group_name_Hall           'P 2ac 2ab'
loop_
_symmetry_equiv_pos_site_id
_symmetry_equiv_pos_as_xyz
1 x,y,z
2 1/2-x,-y,1/2+z
3 1/2+x,1/2-y,-z
4 -x,1/2+y,1/2-z
_cell_length_a                   6.3724(1)
_cell_length_b                   8.8038(2)
_cell_length_c                   21.2774(5)
_cell_angle_alpha                90
_cell_angle_beta                 90
_cell_angle_gamma                90
_cell_volume                     1193.69
_exptl_crystal_colour            colorless
_exptl_crystal_description       plate
_chemical_melting_point          '55.6-56.9 deg.C'
_cell_formula_units_Z            4
_exptl_crystal_recrystallization_method 'diethyl ether/methanol'
loop_
_atom_site_label
_atom_site_type_symbol
_atom_site_fract_x
_atom_site_fract_y
_atom_site_fract_z
S1 S 0.23469(7) 0.44289(5) 0.486654(18)
O1 O 0.34636(16) 0.42465(13) 0.36930(5)
O2 O 0.00665(17) 0.48240(12) 0.38122(5)
C1 C 0.3885(3) 0.27521(17) 0.39507(8)
H1 H 0.5391 0.2713 0.4082
C2 C 0.2527(3) 0.25461(16) 0.45316(7)
H2 H 0.3189 0.1831 0.4831
H3 H 0.1120 0.2157 0.4417
C3 C 0.2096(2) 0.51304(17) 0.40504(7)
C4 C -0.1571(2) 0.57764(19) 0.40648(9)
H4 H -0.1707 0.5589 0.4522
H5 H -0.2924 0.5513 0.3864
C5 C -0.1096(3) 0.74422(19) 0.39532(9)
H6 H -0.2211 0.8075 0.4144
H7 H -0.1067 0.7651 0.3496
C6 C 0.1009(3) 0.78458(19) 0.42414(9)
H8 H 0.0935 0.7743 0.4704
H9 H 0.1367 0.8913 0.4141
C7 C 0.2688(3) 0.67901(17) 0.39816(8)
H10 H 0.2915 0.7022 0.3531
H11 H 0.4025 0.6977 0.4206
C8 C 0.3541(2) 0.15693(18) 0.34481(8)
C9 C 0.1610(3) 0.1467(2) 0.31429(9)
H12 H 0.0507 0.2144 0.3252
C10 C 0.1298(3) 0.0385(2) 0.26816(8)
H13 H -0.0019 0.0321 0.2474
C11 C 0.2893(3) -0.0606(2) 0.25212(8)
H14 H 0.2669 -0.1348 0.2204
C12 C 0.4817(3) -0.0518(2) 0.28219(8)
H15 H 0.5915 -0.1199 0.2712
C13 C 0.5131(3) 0.0575(2) 0.32860(8)
H16 H 0.6450 0.0638 0.3493
loop_
_geom_bond_atom_site_label_1
_geom_bond_atom_site_label_2
_geom_bond_site_symmetry_1
_geom_bond_site_symmetry_2
S1 C2 1_555 1_555
O1 C1 1_555 1_555
O2 C3 1_555 1_555
C1 H1 1_555 1_555
C2 C1 1_555 1_555
H2 C2 1_555 1_555
H3 C2 1_555 1_555
C3 S1 1_555 1_555
C4 O2 1_555 1_555
H4 C4 1_555 1_555
H5 C4 1_555 1_555
C5 C4 1_555 1_555
H6 C5 1_555 1_555
H7 C5 1_555 1_555
C6 C5 1_555 1_555
H8 C6 1_555 1_555
H9 C6 1_555 1_555
C7 C3 1_555 1_555
H10 C7 1_555 1_555
H11 C7 1_555 1_555
C8 C1 1_555 1_555
C9 C8 1_555 1_555
H12 C9 1_555 1_555
C10 C9 1_555 1_555
H13 C10 1_555 1_555
C11 C10 1_555 1_555
H14 C11 1_555 1_555
C12 C11 1_555 1_555
H15 C12 1_555 1_555
C13 C8 1_555 1_555
H16 C13 1_555 1_555
O1 C3 1_555 1_555
C6 C7 1_555 1_555
C12 C13 1_555 1_555

#END
