
#######################################################################
#
#                 Cambridge Crystallographic Data Centre
#                                CCDC 
#
#######################################################################
#
# If this CIF has been generated from an entry in the Cambridge 
# Structural Database, then it will include bibliographic, chemical, 
# crystal, experimental, refinement or atomic coordinate data resulting 
# from the CCDC's data processing and validation procedures.
#
#######################################################################

data_IBUVUY
_chemical_formula_moiety         'C12 H11 N5 O3,H2 O1'
_chemical_name_systematic        
"1-Methyl-4-nitro-N'-(pyridin-2-ylmethylene)-1H-pyrrole-2-carbohydrazide hydrate"
_symmetry_cell_setting           triclinic
_symmetry_space_group_name_H-M   'P -1'
_symmetry_Int_Tables_number      2
_space_group_name_Hall           '-P 1'
loop_
_symmetry_equiv_pos_site_id
_symmetry_equiv_pos_as_xyz
1 x,y,z
2 -x,-y,-z
_cell_length_a                   7.2750(8)
_cell_length_b                   7.5246(6)
_cell_length_c                   13.6360(13)
_cell_angle_alpha                100.5400(10)
_cell_angle_beta                 99.3280(10)
_cell_angle_gamma                108.548(2)
_cell_volume                     676.033
_exptl_crystal_colour            yellow
_exptl_crystal_description       block
_cell_formula_units_Z            2
loop_
_atom_site_label
_atom_site_type_symbol
_atom_site_fract_x
_atom_site_fract_y
_atom_site_fract_z
N1 N 0.7926(2) 0.5096(2) 0.54237(11)
N2 N 0.6849(2) 0.4777(2) 0.44452(11)
H1 H 0.7005 0.5701 0.4140
N3 N 1.1578(2) 0.9092(2) 0.72834(13)
N4 N 0.3084(2) 0.1006(2) 0.23107(12)
N5 N 0.2768(3) 0.3989(3) 0.05997(13)
O1 O 0.5270(2) 0.1613(2) 0.43682(11)
O2 O 0.1537(2) 0.2927(2) -0.01905(11)
O3 O 0.3589(3) 0.5741(2) 0.07203(12)
C1 C 0.9168(3) 0.6804(3) 0.58358(14)
H4 H 0.9318 0.7758 0.5476
C2 C 1.0360(3) 0.7251(3) 0.68844(14)
C3 C 1.0214(3) 0.5853(3) 0.74296(15)
H5 H 0.9359 0.4582 0.7131
C4 C 1.1342(3) 0.6358(3) 0.84153(16)
H6 H 1.1276 0.5433 0.8790
C5 C 1.2566(3) 0.8249(4) 0.88379(16)
H7 H 1.3329 0.8637 0.9509
C6 C 1.2643(3) 0.9558(3) 0.82515(16)
H8 H 1.3481 1.0838 0.8542
C7 C 0.5532(3) 0.2969(3) 0.39703(15)
C8 C 0.4458(3) 0.2776(3) 0.29188(14)
C9 C 0.4553(3) 0.4125(3) 0.23666(14)
H9 H 0.5341 0.5433 0.2582
C10 C 0.3231(3) 0.3152(3) 0.14115(14)
C11 C 0.2350(3) 0.1248(3) 0.13993(15)
H10 H 0.1408 0.0291 0.0855
C12 C 0.2432(4) -0.0861(3) 0.25767(19)
H11 H 0.1400 -0.1800 0.2019
H12 H 0.1926 -0.0721 0.3183
H13 H 0.3543 -0.1283 0.2702
O4 O 0.7067(3) 0.8375(2) 0.39916(12)
H2 H 0.7483 0.9137 0.3620
H3 H 0.6380 0.8790 0.4359
loop_
_geom_bond_atom_site_label_1
_geom_bond_atom_site_label_2
_geom_bond_site_symmetry_1
_geom_bond_site_symmetry_2
N1 N2 1_555 1_555
N2 H1 1_555 1_555
N3 C2 1_555 1_555
N4 C8 1_555 1_555
N5 O2 1_555 1_555
O1 C7 1_555 1_555
O3 N5 1_555 1_555
O4 H2 1_555 1_555
H3 O4 1_555 1_555
C1 N1 1_555 1_555
H4 C1 1_555 1_555
C2 C1 1_555 1_555
C3 C2 1_555 1_555
H5 C3 1_555 1_555
C4 C3 1_555 1_555
H6 C4 1_555 1_555
C5 C4 1_555 1_555
H7 C5 1_555 1_555
C6 N3 1_555 1_555
H8 C6 1_555 1_555
C7 N2 1_555 1_555
C8 C7 1_555 1_555
C9 C8 1_555 1_555
H9 C9 1_555 1_555
C10 N5 1_555 1_555
C11 N4 1_555 1_555
H10 C11 1_555 1_555
C12 N4 1_555 1_555
H11 C12 1_555 1_555
H12 C12 1_555 1_555
H13 C12 1_555 1_555
C5 C6 1_555 1_555
C9 C10 1_555 1_555
C10 C11 1_555 1_555

#END
