
#######################################################################
#
#                 Cambridge Crystallographic Data Centre
#                                CCDC 
#
#######################################################################
#
# If this CIF has been generated from an entry in the Cambridge 
# Structural Database, then it will include bibliographic, chemical, 
# crystal, experimental, refinement or atomic coordinate data resulting 
# from the CCDC's data processing and validation procedures.
#
#######################################################################

data_IBUYAI
_chemical_formula_moiety         'C3 H1 I1 O1'
_chemical_name_systematic        3-iodoprop-2-ynal
_symmetry_cell_setting           monoclinic
_symmetry_space_group_name_H-M   'P 21/m'
_symmetry_Int_Tables_number      11
_space_group_name_Hall           '-P 2yb'
loop_
_symmetry_equiv_pos_site_id
_symmetry_equiv_pos_as_xyz
1 x,y,z
2 -x,1/2+y,-z
3 -x,-y,-z
4 x,1/2-y,z
_cell_length_a                   4.1361(10)
_cell_length_b                   6.4222(16)
_cell_length_c                   8.2352(19)
_cell_angle_alpha                90
_cell_angle_beta                 99.543(8)
_cell_angle_gamma                90
_cell_volume                     215.723
_exptl_crystal_colour            'light yellow'
_exptl_crystal_description       block
_cell_formula_units_Z            2
loop_
_atom_site_label
_atom_site_type_symbol
_atom_site_fract_x
_atom_site_fract_y
_atom_site_fract_z
I1 I 0.78128(5) 0.2500 0.11004(2)
O1 O 0.8478(7) 0.2500 0.7703(3)
C1 C 0.7174(8) 0.2500 0.3454(4)
C2 C 0.6758(9) 0.2500 0.4863(4)
C3 C 0.6238(9) 0.2500 0.6553(4)
H1 H 0.4054 0.2500 0.6771
loop_
_geom_bond_atom_site_label_1
_geom_bond_atom_site_label_2
_geom_bond_site_symmetry_1
_geom_bond_site_symmetry_2
I1 C1 1_555 1_555
O1 C3 1_555 1_555
C1 C2 1_555 1_555
C2 C3 1_555 1_555
C3 H1 1_555 1_555

#END
