
#######################################################################
#
#                 Cambridge Crystallographic Data Centre
#                                CCDC 
#
#######################################################################
#
# If this CIF has been generated from an entry in the Cambridge 
# Structural Database, then it will include bibliographic, chemical, 
# crystal, experimental, refinement or atomic coordinate data resulting 
# from the CCDC's data processing and validation procedures.
#
#######################################################################

data_IBUZAJ
_chemical_formula_moiety         'C128 H164 N12 O8,4.5(C6 H6),8(C1 H4 O1)'
_chemical_name_systematic        
'(17s,18s,19s,20s)-3^2^,7^2^,11^2^,15^2^-tetrakis(quinuclidin-4-yl)-17,18,19,20-tetraundecyl-2,4,6,8,10,12,14,16-octaoxa-3,7,11,15(5,6)-tetrabenzimidazola-1,5,9,13(1,2,4,5)tetrabenzenapentacyclo(11.3.1.1^1,5^.1^5,9^.1^9,13^)icosaphane benzene methanol solvate'
_symmetry_cell_setting           triclinic
_symmetry_space_group_name_H-M   'P -1'
_symmetry_Int_Tables_number      2
_space_group_name_Hall           '-P 1'
loop_
_symmetry_equiv_pos_site_id
_symmetry_equiv_pos_as_xyz
1 x,y,z
2 -x,-y,-z
_cell_length_a                   15.4146(4)
_cell_length_b                   17.0678(4)
_cell_length_c                   30.9770(8)
_cell_angle_alpha                74.425(2)
_cell_angle_beta                 86.852(2)
_cell_angle_gamma                79.962(2)
_cell_volume                     7730.12
_exptl_crystal_colour            'light brown'
_exptl_crystal_description       block
_cell_formula_units_Z            2
loop_
_atom_site_label
_atom_site_type_symbol
_atom_site_fract_x
_atom_site_fract_y
_atom_site_fract_z
O1 O -0.1484(3) 0.3609(3) 0.12653(14)
H1 H -0.1075 0.3800 0.1103
C1 C -0.2162(6) 0.4232(6) 0.1274(4)
H2 H -0.2321 0.4546 0.0967
H3 H -0.1983 0.4597 0.1436
H4 H -0.2671 0.4001 0.1426
O2 O 0.2636(4) 0.2787(3) 0.01394(16)
H5 H 0.2847 0.2317 0.0299
C2 C 0.3244(10) 0.3071(11) -0.0163(4)
H6 H 0.3003 0.3624 -0.0344
H7 H 0.3400 0.2700 -0.0358
H8 H 0.3771 0.3095 -0.0007
O3 O -0.1247(3) 0.5256(3) 0.19315(17)
H9 H -0.1401 0.5669 0.1716
C3 C -0.1662(5) 0.5382(4) 0.2317(3)
H10 H -0.2292 0.5580 0.2259
H11 H -0.1407 0.5795 0.2413
H12 H -0.1584 0.4863 0.2553
O4 O 0.6550(7) -0.0169(9) 0.0761(3)
H13 H 0.6698 -0.0419 0.0561
C4 C 0.5810(11) -0.0348(17) 0.0936(7)
H14 H 0.5326 0.0011 0.0751
H15 H 0.5756 -0.0266 0.1239
H16 H 0.5784 -0.0925 0.0953
O5 O 0.2983(3) -0.1533(3) 0.18235(14)
H17 H 0.2619 -0.1574 0.2037
C5 C 0.3705(5) -0.2154(5) 0.1940(3)
H18 H 0.4109 -0.2130 0.1683
H19 H 0.3507 -0.2690 0.2026
H20 H 0.4009 -0.2079 0.2192
O6 O -0.1048(2) -0.0489(2) 0.30799(14)
H21 H -0.1119 0.0005 0.2927
C6 C -0.1860(6) -0.0691(7) 0.3256(4)
H22 H -0.2313 -0.0461 0.3025
H23 H -0.2019 -0.0462 0.3513
H24 H -0.1816 -0.1292 0.3352
O7 O 0.1970(7) 0.7469(4) 0.0970(3)
H25 H 0.1669 0.7317 0.0799
C7 C 0.2473(6) 0.6848(6) 0.1201(3)
H26 H 0.2926 0.6639 0.1007
H27 H 0.2127 0.6416 0.1344
H28 H 0.2755 0.7009 0.1433
C8 C -0.1111(5) 0.6097(5) 0.3446(2)
H29 H -0.1632 0.5963 0.3353
C9 C -0.1170(5) 0.6706(5) 0.3672(2)
H30 H -0.1730 0.6988 0.3735
C10 C -0.0408(6) 0.6902(4) 0.3807(2)
H31 H -0.0448 0.7318 0.3962
C11 C 0.0412(5) 0.6489(5) 0.3716(3)
H32 H 0.0933 0.6623 0.3808
C12 C 0.0471(5) 0.5880(5) 0.3489(3)
H33 H 0.1031 0.5598 0.3427
C13 C -0.0291(6) 0.5684(4) 0.3354(2)
H34 H -0.0251 0.5268 0.3199
O8 O 0.50977(19) 0.2132(2) 0.16151(10)
O9 O 0.52122(18) 0.0616(2) 0.22061(10)
O10 O 0.36793(19) -0.07265(18) 0.35058(10)
O11 O 0.2183(2) -0.03023(18) 0.39505(9)
O12 O 0.1527(2) 0.51058(17) 0.18339(9)
N1 N 0.1249(3) 0.3693(2) 0.04648(12)
H35 H 0.1611 0.3497 0.0275
O13 O -0.01274(18) 0.36455(18) 0.30478(10)
O14 O 0.00228(18) 0.21555(19) 0.36666(9)
C14 C 0.5428(5) 0.6551(5) 0.6189(3)
H36 H 0.5553 0.7115 0.6124
H37 H 0.5983 0.6161 0.6225
H38 H 0.5078 0.6433 0.6466
C15 C 0.4940(7) 0.6470(5) 0.5822(3)
H39 H 0.5304 0.6605 0.5547
H40 H 0.4405 0.6896 0.5781
C16 C 0.4662(4) 0.5676(4) 0.58498(19)
H41 H 0.5197 0.5249 0.5890
H42 H 0.4300 0.5538 0.6125
C17 C 0.4163(6) 0.5601(5) 0.5476(2)
H43 H 0.4533 0.5718 0.5202
H44 H 0.3636 0.6037 0.5430
C18 C 0.3866(5) 0.4807(5) 0.5517(2)
H45 H 0.3488 0.4686 0.5788
H46 H 0.4388 0.4365 0.5561
C19 C 0.3367(6) 0.4783(6) 0.5123(3)
H47 H 0.2842 0.5221 0.5084
H48 H 0.3742 0.4922 0.4853
C20 C 0.3075(7) 0.4007(5) 0.5141(3)
H49 H 0.2727 0.3856 0.5421
H50 H 0.3604 0.3577 0.5166
C21 C 0.2520(6) 0.3974(5) 0.4749(3)
H51 H 0.1973 0.4384 0.4731
H52 H 0.2854 0.4141 0.4467
C22 C 0.2288(7) 0.3203(6) 0.4780(2)
H53 H 0.2042 0.3003 0.5084
H54 H 0.2836 0.2817 0.4755
C23 C 0.1652(4) 0.3138(4) 0.44523(16)
H55 H 0.1062 0.3411 0.4525
H56 H 0.1622 0.2547 0.4497
C24 C 0.1837(3) 0.3498(3) 0.39648(15)
H57 H 0.2476 0.3356 0.3907
H58 H 0.1688 0.4107 0.3896
C25 C 0.1320(3) 0.3195(3) 0.36467(14)
H59 H 0.0684 0.3310 0.3731
C26 C 0.1399(3) 0.3658(2) 0.31602(13)
C27 C 0.2171(3) 0.3926(2) 0.29690(14)
H60 H 0.2679 0.3783 0.3152
C28 C 0.2250(3) 0.4385(2) 0.25324(14)
C29 C 0.3109(3) 0.4646(3) 0.23389(15)
H61 H 0.2950 0.5135 0.2077
C30 C 0.3644(3) 0.3976(3) 0.21512(14)
C31 C 0.4205(3) 0.3312(3) 0.24142(14)
H62 H 0.4252 0.3286 0.2722
C32 C 0.4702(3) 0.2684(3) 0.22559(14)
C33 C 0.4613(3) 0.2732(3) 0.17968(14)
C34 C 0.4604(3) 0.1562(3) 0.15300(15)
C35 C 0.4117(3) 0.1775(3) 0.11430(16)
H63 H 0.4105 0.2294 0.0930
C36 C 0.3638(3) 0.1184(3) 0.10802(15)
N2 N 0.3098(3) 0.1214(3) 0.07279(13)
C37 C 0.2824(3) 0.0492(3) 0.08337(16)
C38 C 0.2249(4) 0.0217(3) 0.05524(17)
C39 C 0.2739(5) -0.0568(4) 0.0431(2)
H64 H 0.2869 -0.1023 0.0707
H65 H 0.3302 -0.0461 0.0277
C40 C 0.2141(5) -0.0813(4) 0.0120(2)
H66 H 0.2434 -0.0768 -0.0177
H67 H 0.2072 -0.1396 0.0247
N3 N 0.1277(4) -0.0307(3) 0.00584(17)
C41 C 0.1402(5) 0.0028(6) 0.0789(2)
H68 H 0.1045 0.0538 0.0838
H69 H 0.1530 -0.0371 0.1085
C42 C 0.0875(5) -0.0345(5) 0.0494(2)
H70 H 0.0846 -0.0928 0.0652
H71 H 0.0265 -0.0039 0.0456
C43 C 0.3678(3) 0.0430(3) 0.13944(15)
N4 N 0.3155(3) -0.0003(3) 0.12312(13)
H72 H 0.3055 -0.0506 0.1360
C44 C 0.4182(3) 0.0209(3) 0.17817(15)
H73 H 0.4205 -0.0313 0.1993
C45 C 0.4645(3) 0.0798(3) 0.18393(15)
C46 C 0.4812(3) 0.0622(3) 0.26232(14)
C47 C 0.4854(3) 0.1284(3) 0.28031(14)
C48 C 0.4469(3) 0.1246(3) 0.32247(14)
H74 H 0.4491 0.1686 0.3355
C49 C 0.4056(3) 0.0599(3) 0.34639(14)
C50 C 0.4039(3) -0.0035(3) 0.32657(14)
C51 C 0.2881(3) -0.0828(3) 0.33511(16)
C52 C 0.2112(3) -0.0623(3) 0.35847(15)
C53 C 0.1984(3) 0.0561(3) 0.38583(13)
C54 C 0.2663(3) 0.1009(3) 0.38488(13)
C55 C 0.3618(3) 0.0580(3) 0.39166(14)
H75 H 0.3606 -0.0012 0.4074
C56 C 0.4126(3) 0.0925(3) 0.42181(14)
H76 H 0.4744 0.0634 0.4242
H77 H 0.4135 0.1516 0.4075
C57 C 0.3736(3) 0.0835(3) 0.46864(14)
H78 H 0.3122 0.1134 0.4663
H79 H 0.3717 0.0244 0.4828
C58 C 0.4242(3) 0.1159(3) 0.49852(15)
H80 H 0.4843 0.0833 0.5024
H81 H 0.4299 0.1736 0.4832
C59 C 0.3838(3) 0.1134(4) 0.54424(16)
H82 H 0.3839 0.0551 0.5609
H83 H 0.3216 0.1410 0.5404
C60 C 0.4298(4) 0.1537(4) 0.57214(17)
H84 H 0.4332 0.2110 0.5548
H85 H 0.4908 0.1236 0.5778
C61 C 0.3847(4) 0.1555(5) 0.6165(2)
H86 H 0.3217 0.1790 0.6111
H87 H 0.3881 0.0981 0.6354
C62 C 0.4236(4) 0.2049(5) 0.6421(2)
H88 H 0.4182 0.2627 0.6238
H89 H 0.4872 0.1827 0.6466
C63 C 0.3797(6) 0.2037(7) 0.6876(3)
H90 H 0.3855 0.1460 0.7062
H91 H 0.3161 0.2259 0.6833
C64 C 0.2421(3) 0.1852(3) 0.37762(13)
H92 H 0.2873 0.2170 0.3767
C65 C 0.1553(3) 0.2265(3) 0.37151(13)
C66 C 0.1502(3) 0.4596(2) 0.22753(14)
C67 C 0.1487(3) 0.4716(3) 0.14931(14)
C68 C 0.2270(3) 0.4489(3) 0.12761(14)
O15 O 0.3052(2) 0.46583(18) 0.14146(10)
C69 C 0.3585(3) 0.3987(3) 0.17002(14)
C70 C 0.4067(3) 0.3385(3) 0.15272(14)
H93 H 0.4025 0.3420 0.1218
C71 C 0.5331(3) 0.1989(3) 0.25478(15)
H94 H 0.5761 0.1761 0.2341
C72 C 0.5872(3) 0.2300(3) 0.28529(15)
H95 H 0.5465 0.2620 0.3026
H96 H 0.6208 0.1821 0.3069
C73 C 0.6506(4) 0.2837(4) 0.25860(18)
H97 H 0.6228 0.3152 0.2296
H98 H 0.7040 0.2473 0.2519
C74 C 0.6787(4) 0.3442(4) 0.2808(2)
H99 H 0.7210 0.3745 0.2607
H100 H 0.6264 0.3850 0.2841
C75 C 0.7204(4) 0.3061(4) 0.32594(19)
H101 H 0.7684 0.2604 0.3238
H102 H 0.6759 0.2827 0.3476
C76 C 0.7576(4) 0.3694(4) 0.3430(2)
H103 H 0.8030 0.3913 0.3215
H104 H 0.7097 0.4160 0.3436
C77 C 0.7979(4) 0.3367(5) 0.3888(2)
H105 H 0.8408 0.2859 0.3896
H106 H 0.7511 0.3219 0.4112
C78 C 0.8438(5) 0.3982(6) 0.4014(3)
H107 H 0.8931 0.4091 0.3800
H108 H 0.8018 0.4506 0.3973
C79 C 0.8795(6) 0.3757(7) 0.4474(3)
H109 H 0.9266 0.3268 0.4512
H110 H 0.8321 0.3610 0.4695
C80 C 0.3626(3) 0.4935(3) 0.26632(16)
H111 H 0.3819 0.4460 0.2921
H112 H 0.4161 0.5122 0.2507
C81 C 0.3106(4) 0.5622(3) 0.28354(19)
H113 H 0.2568 0.5436 0.2988
H114 H 0.2918 0.6098 0.2577
C82 C 0.3605(4) 0.5907(4) 0.3159(2)
H115 H 0.3968 0.5417 0.3354
H116 H 0.4012 0.6264 0.2983
C83 C 0.3054(4) 0.6368(4) 0.3452(2)
H117 H 0.2668 0.5999 0.3638
H118 H 0.2667 0.6839 0.3256
C84 C 0.3527(5) 0.6696(4) 0.3759(2)
H119 H 0.3960 0.6239 0.3935
H120 H 0.3861 0.7115 0.3574
C85 C 0.2951(5) 0.7078(4) 0.4080(2)
H121 H 0.2648 0.6649 0.4279
H122 H 0.2493 0.7510 0.3906
C86 C 0.3423(5) 0.7461(4) 0.4371(2)
H123 H 0.3881 0.7030 0.4545
H124 H 0.3726 0.7891 0.4172
C87 C 0.2851(6) 0.7836(4) 0.4686(2)
H125 H 0.2548 0.7406 0.4884
H126 H 0.2393 0.8267 0.4511
C88 C 0.3310(6) 0.8214(5) 0.4973(3)
H127 H 0.3749 0.7775 0.5157
H128 H 0.3637 0.8623 0.4774
C89 C 0.2285(3) 0.4145(3) 0.09204(15)
H129 H 0.2816 0.4006 0.0766
C90 C 0.1476(3) 0.4014(3) 0.08007(15)
C91 C 0.0360(3) 0.3739(3) 0.04860(15)
N5 N -0.0005(3) 0.4066(2) 0.08073(13)
C92 C 0.0688(3) 0.4247(3) 0.10099(15)
C93 C 0.0680(3) 0.4618(3) 0.13582(15)
H130 H 0.0146 0.4797 0.1498
C94 C -0.0143(3) 0.3432(3) 0.01787(15)
C95 C -0.1014(4) 0.4013(4) 0.0056(2)
H131 H -0.0906 0.4581 -0.0085
H132 H -0.1379 0.4018 0.0329
C96 C -0.1495(5) 0.3705(4) -0.0273(2)
H133 H -0.2102 0.3652 -0.0161
H134 H -0.1539 0.4121 -0.0567
N6 N -0.1053(3) 0.2916(3) -0.03337(14)
C97 C -0.0205(5) 0.3041(5) -0.0533(2)
H135 H -0.0290 0.3416 -0.0839
H136 H 0.0128 0.2506 -0.0562
C98 C 0.0343(5) 0.3409(5) -0.02568(19)
H137 H 0.0932 0.3066 -0.0195
H138 H 0.0420 0.3974 -0.0427
C99 C -0.0953(6) 0.2330(4) 0.0117(2)
H139 H -0.0712 0.1770 0.0086
H140 H -0.1539 0.2310 0.0263
C100 C -0.0344(5) 0.2576(3) 0.0411(2)
H141 H -0.0631 0.2577 0.0705
H142 H 0.0210 0.2172 0.0464
C101 C 0.0713(3) 0.4355(2) 0.24397(14)
H143 H 0.0204 0.4517 0.2256
C102 C 0.0674(3) 0.3878(3) 0.28732(14)
C103 C -0.0368(3) 0.2989(3) 0.29224(15)
C104 C -0.0311(3) 0.2225(3) 0.32416(14)
C105 C 0.0910(3) 0.1781(3) 0.37209(13)
C106 C 0.1119(3) 0.0944(3) 0.38014(13)
H144 H 0.0666 0.0624 0.3818
C107 C -0.0604(3) 0.1565(3) 0.31597(15)
H145 H -0.0584 0.1057 0.3384
C108 C -0.0930(3) 0.1670(3) 0.27343(15)
C109 C -0.0960(3) 0.2414(3) 0.24109(15)
C110 C -0.0703(3) 0.3103(3) 0.24975(15)
H146 H -0.0754 0.3620 0.2279
N7 N -0.1316(2) 0.2314(2) 0.20347(13)
H147 H -0.1415 0.2688 0.1777
C111 C -0.1483(3) 0.1540(3) 0.21367(16)
C112 C -0.1858(3) 0.1188(3) 0.18045(16)
C113 C -0.2318(4) 0.0452(4) 0.2050(2)
H148 H -0.1889 0.0015 0.2242
H149 H -0.2798 0.0636 0.2245
C114 C -0.2697(4) 0.0109(4) 0.1704(2)
H150 H -0.2448 -0.0483 0.1753
H151 H -0.3344 0.0157 0.1744
N8 N -0.2493(3) 0.0561(3) 0.12361(15)
C115 C -0.2876(4) 0.1427(4) 0.1164(2)
H152 H -0.3525 0.1478 0.1183
H153 H -0.2721 0.1732 0.0858
C116 C -0.2557(3) 0.1822(4) 0.15056(19)
H154 H -0.2302 0.2317 0.1347
H155 H -0.3059 0.1995 0.1691
C117 C -0.1535(4) 0.0490(4) 0.1184(2)
H156 H -0.1389 0.0768 0.0872
H157 H -0.1269 -0.0100 0.1243
C118 C -0.1137(3) 0.0881(4) 0.15084(19)
H158 H -0.0683 0.0466 0.1696
H159 H -0.0851 0.1346 0.1334
N9 N -0.1259(2) 0.1115(2) 0.25535(13)
C119 C 0.1309(3) -0.0768(3) 0.34758(17)
H160 H 0.0787 -0.0641 0.3638
C120 C 0.1305(3) -0.1106(3) 0.31184(17)
C121 C 0.2059(3) -0.1315(3) 0.28836(17)
C122 C 0.2873(3) -0.1195(3) 0.30047(16)
H161 H 0.3401 -0.1359 0.2855
N10 N 0.1844(3) -0.1648(3) 0.25416(14)
C123 C 0.0990(3) -0.1632(3) 0.25822(18)
N11 N 0.0621(3) -0.1313(2) 0.29166(14)
H162 H 0.0060 -0.1249 0.2992
C124 C 0.0464(3) -0.1962(3) 0.22977(17)
C125 C 0.0871(4) -0.2849(3) 0.2313(2)
H163 H 0.0891 -0.3193 0.2627
H164 H 0.1482 -0.2869 0.2194
C126 C 0.0306(4) -0.3181(3) 0.2027(2)
H165 H 0.0690 -0.3399 0.1805
H166 H 0.0046 -0.3644 0.2224
N12 N -0.0395(3) -0.2556(3) 0.17949(17)
C127 C -0.0983(4) -0.2279(4) 0.2139(2)
H167 H -0.1248 -0.2750 0.2323
H168 H -0.1467 -0.1847 0.1989
C128 C -0.0496(4) -0.1940(4) 0.2444(2)
H169 H -0.0774 -0.1365 0.2430
H170 H -0.0532 -0.2274 0.2757
C129 C -0.0024(5) -0.1846(4) 0.1524(2)
H171 H -0.0507 -0.1427 0.1363
H172 H 0.0381 -0.2025 0.1296
C130 C 0.0481(5) -0.1448(4) 0.1801(2)
H173 H 0.0198 -0.0870 0.1773
H174 H 0.1097 -0.1450 0.1691
C131 C 0.4421(3) -0.0034(3) 0.28543(14)
H175 H 0.4414 -0.0486 0.2730
C132 C 0.2018(5) 0.0869(4) 0.0105(2)
H176 H 0.1719 0.1394 0.0161
H177 H 0.2561 0.0971 -0.0072
C133 C 0.1406(5) 0.0539(4) -0.0156(2)
H178 H 0.0825 0.0904 -0.0189
H179 H 0.1655 0.0566 -0.0460
C134 C 0.4209(7) 0.2547(9) 0.7121(4)
H180 H 0.4801 0.2241 0.7222
H181 H 0.4296 0.3067 0.6899
C135 C 0.3748(13) 0.2764(12) 0.7505(5)
H182 H 0.3151 0.3077 0.7421
H183 H 0.4077 0.3104 0.7628
C136 C 0.3693(17) 0.1952(13) 0.7846(6)
H184 H 0.3102 0.1970 0.7980
H185 H 0.4130 0.1856 0.8080
H186 H 0.3810 0.1504 0.7697
C137 C 0.2743(8) 0.8625(6) 0.5276(3)
H187 H 0.2398 0.9136 0.5090
H188 H 0.2318 0.8260 0.5423
C138 C 0.3171(10) 0.8844(7) 0.5629(3)
H189 H 0.3623 0.9177 0.5494
H190 H 0.3447 0.8340 0.5844
H191 H 0.2730 0.9161 0.5784
C139 C 0.9173(8) 0.4480(7) 0.4564(4)
H192 H 0.9666 0.4609 0.4352
H193 H 0.8710 0.4976 0.4510
C140 C 0.8859(14) 0.4724(17) 0.5297(10)
H194 H 0.9055 0.4602 0.5607
H195 H 0.8809 0.5318 0.5157
H196 H 0.8284 0.4556 0.5294
C141 C 0.9504(9) 0.4271(8) 0.5045(4)
H197 H 0.9561 0.3670 0.5183
H198 H 1.0088 0.4435 0.5047
O8A O 1.49023(19) 0.7868(2) 0.83849(10)
O9A O 1.47878(18) 0.9384(2) 0.77939(10)
O10A O 1.63207(19) 1.07265(18) 0.64942(10)
O11A O 1.7817(2) 1.03023(18) 0.60495(9)
O12A O 1.8473(2) 0.48942(17) 0.81661(9)
N1A N 1.8751(3) 0.6307(2) 0.95352(12)
H35A H 1.8389 0.6503 0.9725
O13A O 2.01274(18) 0.63545(18) 0.69522(10)
O14A O 1.99772(18) 0.78445(19) 0.63334(9)
C14A C 1.4572(5) 0.3449(5) 0.3811(3)
H36A H 1.4447 0.2885 0.3876
H37A H 1.4017 0.3839 0.3775
H38A H 1.4922 0.3567 0.3534
C15A C 1.5060(7) 0.3530(5) 0.4178(3)
H39A H 1.4696 0.3395 0.4453
H40A H 1.5595 0.3104 0.4219
C16A C 1.5338(4) 0.4324(4) 0.41502(19)
H41A H 1.4803 0.4751 0.4110
H42A H 1.5700 0.4462 0.3875
C17A C 1.5837(6) 0.4399(5) 0.4524(2)
H43A H 1.5467 0.4282 0.4798
H44A H 1.6364 0.3963 0.4570
C18A C 1.6134(5) 0.5193(5) 0.4483(2)
H45A H 1.6512 0.5314 0.4212
H46A H 1.5612 0.5635 0.4439
C19A C 1.6633(6) 0.5217(6) 0.4877(3)
H47A H 1.7158 0.4779 0.4916
H48A H 1.6258 0.5078 0.5147
C20A C 1.6925(7) 0.5993(5) 0.4859(3)
H49A H 1.7273 0.6144 0.4579
H50A H 1.6396 0.6423 0.4834
C21A C 1.7480(6) 0.6026(5) 0.5251(3)
H51A H 1.8027 0.5616 0.5269
H52A H 1.7146 0.5859 0.5533
C22A C 1.7712(7) 0.6797(6) 0.5220(2)
H53A H 1.7958 0.6997 0.4916
H54A H 1.7164 0.7183 0.5245
C23A C 1.8348(4) 0.6862(4) 0.55477(16)
H55A H 1.8938 0.6589 0.5475
H56A H 1.8378 0.7453 0.5503
C24A C 1.8163(3) 0.6502(3) 0.60352(15)
H57A H 1.7524 0.6644 0.6093
H58A H 1.8312 0.5893 0.6104
C25A C 1.8680(3) 0.6805(3) 0.63533(14)
H59A H 1.9316 0.6690 0.6269
C26A C 1.8601(3) 0.6342(2) 0.68398(13)
C27A C 1.7829(3) 0.6074(2) 0.70310(14)
H60A H 1.7321 0.6217 0.6848
C28A C 1.7750(3) 0.5615(2) 0.74676(14)
C29A C 1.6891(3) 0.5354(3) 0.76611(15)
H61A H 1.7050 0.4865 0.7923
C30A C 1.6356(3) 0.6024(3) 0.78488(14)
C31A C 1.5795(3) 0.6688(3) 0.75858(14)
H62A H 1.5748 0.6714 0.7278
C32A C 1.5298(3) 0.7316(3) 0.77441(14)
C33A C 1.5387(3) 0.7268(3) 0.82032(14)
C34A C 1.5396(3) 0.8438(3) 0.84700(15)
C35A C 1.5883(3) 0.8225(3) 0.88570(16)
H63A H 1.5895 0.7706 0.9070
C36A C 1.6362(3) 0.8816(3) 0.89198(15)
N2A N 1.6902(3) 0.8786(3) 0.92721(13)
C37A C 1.7176(3) 0.9508(3) 0.91663(16)
C38A C 1.7751(4) 0.9783(3) 0.94476(17)
C39A C 1.7261(5) 1.0568(4) 0.9569(2)
H64A H 1.7131 1.1023 0.9293
H65A H 1.6698 1.0461 0.9723
C40A C 1.7859(5) 1.0813(4) 0.9880(2)
H66A H 1.7566 1.0768 1.0177
H67A H 1.7928 1.1396 0.9753
N3A N 1.8723(4) 1.0307(3) 0.99416(17)
C41A C 1.8598(5) 0.9972(6) 0.9211(2)
H68A H 1.8955 0.9462 0.9162
H69A H 1.8470 1.0371 0.8915
C42A C 1.9125(5) 1.0345(5) 0.9506(2)
H70A H 1.9154 1.0928 0.9348
H71A H 1.9735 1.0039 0.9544
C43A C 1.6322(3) 0.9570(3) 0.86056(15)
N4A N 1.6845(3) 1.0003(3) 0.87688(13)
H72A H 1.6945 1.0506 0.8640
C44A C 1.5818(3) 0.9791(3) 0.82183(15)
H73A H 1.5795 1.0313 0.8007
C45A C 1.5355(3) 0.9202(3) 0.81607(15)
C46A C 1.5188(3) 0.9378(3) 0.73768(14)
C47A C 1.5146(3) 0.8716(3) 0.71969(14)
C48A C 1.5531(3) 0.8754(3) 0.67753(14)
H74A H 1.5509 0.8314 0.6645
C49A C 1.5944(3) 0.9401(3) 0.65361(14)
C50A C 1.5961(3) 1.0035(3) 0.67343(14)
C51A C 1.7119(3) 1.0828(3) 0.66489(16)
C52A C 1.7888(3) 1.0623(3) 0.64153(15)
C53A C 1.8016(3) 0.9439(3) 0.61417(13)
C54A C 1.7337(3) 0.8991(3) 0.61512(13)
C55A C 1.6382(3) 0.9420(3) 0.60834(14)
H75A H 1.6394 1.0012 0.5926
C56A C 1.5874(3) 0.9075(3) 0.57819(14)
H76A H 1.5256 0.9366 0.5758
H77A H 1.5865 0.8484 0.5925
C57A C 1.6264(3) 0.9165(3) 0.53136(14)
H78A H 1.6878 0.8866 0.5337
H79A H 1.6283 0.9756 0.5172
C58A C 1.5758(3) 0.8841(3) 0.50148(15)
H80A H 1.5157 0.9167 0.4976
H81A H 1.5701 0.8264 0.5168
C59A C 1.6162(3) 0.8866(4) 0.45576(16)
H82A H 1.6161 0.9449 0.4391
H83A H 1.6784 0.8590 0.4596
C60A C 1.5702(4) 0.8463(4) 0.42786(17)
H84A H 1.5668 0.7890 0.4452
H85A H 1.5092 0.8764 0.4222
C61A C 1.6153(4) 0.8445(5) 0.3835(2)
H86A H 1.6783 0.8210 0.3889
H87A H 1.6119 0.9019 0.3646
C62A C 1.5764(4) 0.7951(5) 0.3579(2)
H88A H 1.5818 0.7373 0.3762
H89A H 1.5128 0.8173 0.3534
C63A C 1.6203(6) 0.7963(7) 0.3124(3)
H90A H 1.6145 0.8540 0.2938
H91A H 1.6839 0.7741 0.3167
C64A C 1.7579(3) 0.8148(3) 0.62238(13)
H92A H 1.7127 0.7830 0.6233
C65A C 1.8447(3) 0.7735(3) 0.62849(13)
C66A C 1.8498(3) 0.5404(2) 0.77247(14)
C67A C 1.8513(3) 0.5284(3) 0.85069(14)
C68A C 1.7730(3) 0.5511(3) 0.87239(14)
O15A O 1.6948(2) 0.53417(18) 0.85854(10)
C69A C 1.6415(3) 0.6013(3) 0.82998(14)
C70A C 1.5933(3) 0.6615(3) 0.84728(14)
H93A H 1.5975 0.6580 0.8782
C71A C 1.4669(3) 0.8011(3) 0.74522(15)
H94A H 1.4239 0.8239 0.7659
C72A C 1.4128(3) 0.7700(3) 0.71471(15)
H95A H 1.4535 0.7380 0.6974
H96A H 1.3792 0.8179 0.6931
C73A C 1.3494(4) 0.7163(4) 0.74140(18)
H97A H 1.3772 0.6848 0.7704
H98A H 1.2960 0.7527 0.7481
C74A C 1.3213(4) 0.6558(4) 0.7192(2)
H99A H 1.2790 0.6255 0.7393
H100A H 1.3736 0.6150 0.7159
C75A C 1.2796(4) 0.6939(4) 0.67406(19)
H101A H 1.2316 0.7396 0.6762
H102A H 1.3241 0.7173 0.6524
C76A C 1.2424(4) 0.6306(4) 0.6570(2)
H103A H 1.1970 0.6087 0.6785
H104A H 1.2903 0.5840 0.6564
C77A C 1.2021(4) 0.6633(5) 0.6112(2)
H105A H 1.1592 0.7141 0.6104
H106A H 1.2489 0.6781 0.5888
C78A C 1.1562(5) 0.6018(6) 0.5986(3)
H107A H 1.1069 0.5909 0.6200
H108A H 1.1982 0.5494 0.6027
C79A C 1.1205(6) 0.6243(7) 0.5526(3)
H109A H 1.0734 0.6732 0.5488
H110A H 1.1679 0.6390 0.5305
C80A C 1.6374(3) 0.5065(3) 0.73368(16)
H111A H 1.6181 0.5540 0.7079
H112A H 1.5839 0.4878 0.7493
C81A C 1.6894(4) 0.4378(3) 0.71646(19)
H113A H 1.7432 0.4564 0.7012
H114A H 1.7082 0.3902 0.7423
C82A C 1.6395(4) 0.4093(4) 0.6841(2)
H115A H 1.6032 0.4583 0.6646
H116A H 1.5988 0.3736 0.7017
C83A C 1.6946(4) 0.3632(4) 0.6548(2)
H117A H 1.7332 0.4001 0.6362
H118A H 1.7333 0.3161 0.6744
C84A C 1.6473(5) 0.3304(4) 0.6241(2)
H119A H 1.6040 0.3761 0.6065
H120A H 1.6139 0.2885 0.6426
C85A C 1.7049(5) 0.2922(4) 0.5920(2)
H121A H 1.7352 0.3351 0.5721
H122A H 1.7507 0.2490 0.6094
C86A C 1.6577(5) 0.2539(4) 0.5629(2)
H123A H 1.6119 0.2970 0.5455
H124A H 1.6274 0.2109 0.5828
C87A C 1.7149(6) 0.2164(4) 0.5314(2)
H125A H 1.7452 0.2594 0.5116
H126A H 1.7607 0.1733 0.5489
C88A C 1.6690(6) 0.1786(5) 0.5027(3)
H127A H 1.6251 0.2225 0.4843
H128A H 1.6363 0.1377 0.5226
C89A C 1.7715(3) 0.5855(3) 0.90796(15)
H129A H 1.7184 0.5994 0.9234
C90A C 1.8524(3) 0.5986(3) 0.91993(15)
C91A C 1.9640(3) 0.6261(3) 0.95140(15)
N5A N 2.0005(3) 0.5934(2) 0.91927(13)
C92A C 1.9312(3) 0.5753(3) 0.89901(15)
C93A C 1.9320(3) 0.5382(3) 0.86418(15)
H130A H 1.9854 0.5203 0.8502
C94A C 2.0143(3) 0.6568(3) 0.98213(15)
C95A C 2.1014(4) 0.5987(4) 0.9944(2)
H131A H 2.0906 0.5419 1.0085
H132A H 2.1379 0.5982 0.9671
C96A C 2.1495(5) 0.6295(4) 1.0273(2)
H133A H 2.2102 0.6348 1.0161
H134A H 2.1539 0.5879 1.0567
N6A N 2.1053(3) 0.7084(3) 1.03337(14)
C97A C 2.0205(5) 0.6959(5) 1.0533(2)
H135A H 2.0290 0.6584 1.0839
H136A H 1.9872 0.7494 1.0562
C98A C 1.9657(5) 0.6591(5) 1.02568(19)
H137A H 1.9068 0.6934 1.0195
H138A H 1.9580 0.6026 1.0427
C99A C 2.0953(6) 0.7670(4) 0.9883(2)
H139A H 2.0712 0.8230 0.9914
H140A H 2.1539 0.7690 0.9737
C100A C 2.0344(5) 0.7424(3) 0.9589(2)
H141A H 2.0631 0.7423 0.9295
H142A H 1.9790 0.7828 0.9536
C101A C 1.9287(3) 0.5645(2) 0.75603(14)
H143A H 1.9796 0.5483 0.7744
C102A C 1.9326(3) 0.6122(3) 0.71268(14)
C103A C 2.0368(3) 0.7011(3) 0.70776(15)
C104A C 2.0311(3) 0.7775(3) 0.67584(14)
C105A C 1.9090(3) 0.8219(3) 0.62791(13)
C106A C 1.8881(3) 0.9056(3) 0.61986(13)
H144A H 1.9334 0.9376 0.6182
C107A C 2.0604(3) 0.8435(3) 0.68403(15)
H145A H 2.0584 0.8943 0.6616
C108A C 2.0930(3) 0.8330(3) 0.72657(15)
C109A C 2.0960(3) 0.7586(3) 0.75891(15)
C110A C 2.0703(3) 0.6897(3) 0.75025(15)
H146A H 2.0754 0.6380 0.7721
N7A N 2.1316(2) 0.7686(2) 0.79653(13)
H147A H 2.1415 0.7312 0.8223
C111A C 2.1483(3) 0.8460(3) 0.78633(16)
C112A C 2.1858(3) 0.8812(3) 0.81955(16)
C113A C 2.2318(4) 0.9548(4) 0.7950(2)
H148A H 2.1889 0.9985 0.7758
H149A H 2.2798 0.9364 0.7755
C114A C 2.2697(4) 0.9891(4) 0.8296(2)
H150A H 2.2448 1.0483 0.8247
H151A H 2.3344 0.9843 0.8256
N8A N 2.2493(3) 0.9439(3) 0.87639(15)
C115A C 2.2876(4) 0.8573(4) 0.8836(2)
H152A H 2.3525 0.8522 0.8817
H153A H 2.2721 0.8268 0.9142
C116A C 2.2557(3) 0.8178(4) 0.84944(19)
H154A H 2.2302 0.7683 0.8653
H155A H 2.3059 0.8005 0.8309
C117A C 2.1535(4) 0.9510(4) 0.8816(2)
H156A H 2.1389 0.9232 0.9128
H157A H 2.1269 1.0100 0.8757
C118A C 2.1137(3) 0.9119(4) 0.84916(19)
H158A H 2.0683 0.9534 0.8304
H159A H 2.0851 0.8654 0.8666
N9A N 2.1259(2) 0.8885(2) 0.74465(13)
C119A C 1.8691(3) 1.0768(3) 0.65242(17)
H160A H 1.9213 1.0641 0.6362
C120A C 1.8695(3) 1.1106(3) 0.68816(17)
C121A C 1.7941(3) 1.1315(3) 0.71164(17)
C122A C 1.7127(3) 1.1195(3) 0.69953(16)
H161A H 1.6599 1.1359 0.7145
N10A N 1.8156(3) 1.1648(3) 0.74584(14)
C123A C 1.9010(3) 1.1632(3) 0.74178(18)
N11A N 1.9379(3) 1.1313(2) 0.70834(14)
H162A H 1.9940 1.1249 0.7008
C124A C 1.9536(3) 1.1962(3) 0.77023(17)
C125A C 1.9129(4) 1.2849(3) 0.7687(2)
H163A H 1.9109 1.3193 0.7373
H164A H 1.8518 1.2869 0.7806
C126A C 1.9694(4) 1.3181(3) 0.7973(2)
H165A H 1.9310 1.3399 0.8195
H166A H 1.9954 1.3644 0.7776
N12A N 2.0395(3) 1.2556(3) 0.82051(17)
C127A C 2.0983(4) 1.2279(4) 0.7861(2)
H167A H 2.1248 1.2750 0.7677
H168A H 2.1467 1.1847 0.8011
C128A C 2.0496(4) 1.1940(4) 0.7556(2)
H169A H 2.0774 1.1365 0.7570
H170A H 2.0532 1.2274 0.7243
C129A C 2.0024(5) 1.1846(4) 0.8476(2)
H171A H 2.0507 1.1427 0.8637
H172A H 1.9619 1.2025 0.8704
C130A C 1.9519(5) 1.1448(4) 0.8199(2)
H173A H 1.9802 1.0870 0.8227
H174A H 1.8903 1.1450 0.8309
C131A C 1.5579(3) 1.0034(3) 0.71457(14)
H175A H 1.5586 1.0486 0.7270
C132A C 1.7982(5) 0.9131(4) 0.9895(2)
H176A H 1.8281 0.8606 0.9839
H177A H 1.7439 0.9029 1.0072
C133A C 1.8594(5) 0.9461(4) 1.0156(2)
H178A H 1.9175 0.9096 1.0189
H179A H 1.8345 0.9434 1.0460
C134A C 1.5791(7) 0.7453(9) 0.2879(4)
H180A H 1.5199 0.7759 0.2778
H181A H 1.5704 0.6933 0.3101
C135A C 1.6252(13) 0.7236(12) 0.2495(5)
H182A H 1.6849 0.6923 0.2579
H183A H 1.5923 0.6896 0.2372
C136A C 1.6307(17) 0.8048(13) 0.2154(6)
H184A H 1.6898 0.8030 0.2020
H185A H 1.5870 0.8144 0.1920
H186A H 1.6190 0.8496 0.2303
C137A C 1.7257(8) 0.1375(6) 0.4724(3)
H187A H 1.7602 0.0864 0.4910
H188A H 1.7682 0.1740 0.4577
C138A C 1.6829(10) 0.1156(7) 0.4371(3)
H189A H 1.6377 0.0823 0.4506
H190A H 1.6553 0.1660 0.4156
H191A H 1.7270 0.0839 0.4216
C139A C 1.0827(8) 0.5520(7) 0.5436(4)
H192A H 1.0334 0.5391 0.5648
H193A H 1.1290 0.5024 0.5490
C140A C 1.1141(14) 0.5276(17) 0.4703(10)
H194A H 1.0945 0.5398 0.4393
H195A H 1.1191 0.4682 0.4843
H196A H 1.1716 0.5444 0.4706
C141A C 1.0496(9) 0.5729(8) 0.4955(4)
H197A H 1.0439 0.6330 0.4817
H198A H 0.9912 0.5565 0.4953
O16 O -0.1373(4) 0.6759(3) 0.13409(18)
H204 H -0.0967 0.6962 0.1418
C143 C -0.1996(6) 0.7404(7) 0.1077(3)
H205 H -0.1682 0.7784 0.0855
H206 H -0.2353 0.7704 0.1271
H207 H -0.2379 0.7167 0.0922
C144 C 0.2158(6) 0.2229(5) 0.2139(3)
H208 H 0.2476 0.2650 0.2154
C145 C 0.1870(7) 0.2195(5) 0.1728(3)
H209 H 0.1991 0.2593 0.1462
C146 C 0.1404(6) 0.1579(6) 0.1706(2)
H210 H 0.1207 0.1556 0.1425
C147 C 0.1227(5) 0.0997(5) 0.2096(3)
H211 H 0.0908 0.0576 0.2081
C148 C 0.1515(6) 0.1030(5) 0.2507(2)
H212 H 0.1394 0.0632 0.2773
C149 C 0.1981(6) 0.1647(5) 0.2528(2)
H213 H 0.2178 0.1670 0.2809
C156 C 0.9938(17) 0.1578(17) 0.5581(7)
H220 H 0.9562 0.1834 0.5775
C157 C 0.9714(15) 0.1728(16) 0.5134(8)
H221 H 0.9184 0.2086 0.5023
C158 C 1.0264(17) 0.1355(18) 0.4850(6)
H222 H 1.0111 0.1458 0.4544
C159 C 1.1039(17) 0.0832(17) 0.5012(8)
H223 H 1.1416 0.0576 0.4818
C160 C 1.1264(15) 0.0682(17) 0.5459(8)
H224 H 1.1794 0.0324 0.5570
C161 C 1.0713(18) 0.1055(18) 0.5743(6)
H225 H 1.0867 0.0952 0.6048
C156A C 1.0062(17) -0.1578(17) 0.4419(7)
H220A H 1.0438 -0.1834 0.4225
C157A C 1.0286(15) -0.1728(16) 0.4866(8)
H221A H 1.0816 -0.2086 0.4977
C158A C 0.9736(17) -0.1355(18) 0.5150(6)
H222A H 0.9889 -0.1458 0.5456
C159A C 0.8961(17) -0.0832(17) 0.4988(8)
H223A H 0.8584 -0.0576 0.5182
C160A C 0.8736(15) -0.0682(17) 0.4541(8)
H224A H 0.8206 -0.0324 0.4430
C161A C 0.9287(18) -0.1055(18) 0.4257(6)
H225A H 0.9133 -0.0952 0.3952
C162 C 0.4978(5) 0.6476(5) 0.1185(3)
H226 H 0.4576 0.6864 0.0979
C163 C 0.4816(4) 0.5676(5) 0.1363(3)
H227 H 0.4303 0.5517 0.1279
C164 C 0.5404(4) 0.5109(4) 0.1664(3)
H228 H 0.5293 0.4562 0.1786
C165 C 0.6155(4) 0.5342(4) 0.1787(3)
H229 H 0.6557 0.4954 0.1993
C166 C 0.6317(4) 0.6142(5) 0.1609(3)
H230 H 0.6830 0.6301 0.1693
C167 C 0.5729(5) 0.6709(4) 0.1308(3)
H231 H 0.5840 0.7256 0.1186
C168 C 0.4205(6) 0.6831(7) -0.0347(5)
H232 H 0.4338 0.7373 -0.0453
C169 C 0.4111(8) 0.6487(10) 0.0111(5)
H233 H 0.4181 0.6794 0.0317
C170 C 0.3915(7) 0.5694(10) 0.0266(3)
H234 H 0.3851 0.5459 0.0578
C171 C 0.3813(8) 0.5244(7) -0.0036(5)
H235 H 0.3679 0.4702 0.0070
C172 C 0.3907(8) 0.5588(9) -0.0493(4)
H236 H 0.3837 0.5281 -0.0700
C173 C 0.4102(6) 0.6382(9) -0.0649(3)
H237 H 0.4166 0.6617 -0.0961
H199? H 0.9008 0.4275 0.5262
H200? H 0.9890 0.3726 0.5127
C142? C 1.000(2) 0.494(2) 0.5024(8)
H201? H 1.0248 0.4876 0.5319
H202? H 1.0477 0.4930 0.4803
H203? H 0.9603 0.5475 0.4937
C150? C 1.120(2) 0.052(3) 0.5688(11)
H214? H 1.1678 0.0303 0.5891
C151? C 1.084(3) 0.135(3) 0.5602(12)
H215? H 1.1061 0.1700 0.5746
C152? C 1.014(3) 0.168(2) 0.5305(13)
H216? H 0.9890 0.2243 0.5246
C153? C 0.981(2) 0.117(3) 0.5093(11)
H217? H 0.9335 0.1388 0.4890
C154? C 1.018(3) 0.034(3) 0.5179(12)
H218? H 0.9952 -0.0009 0.5035
C155? C 1.087(3) 0.002(2) 0.5476(12)
H219? H 1.1124 -0.0552 0.5535
loop_
_geom_bond_atom_site_label_1
_geom_bond_atom_site_label_2
_geom_bond_site_symmetry_1
_geom_bond_site_symmetry_2
O1 H1 1_555 1_555
C1 O1 1_555 1_555
H2 C1 1_555 1_555
H3 C1 1_555 1_555
H4 C1 1_555 1_555
O2 H5 1_555 1_555
C2 O2 1_555 1_555
H6 C2 1_555 1_555
H7 C2 1_555 1_555
H8 C2 1_555 1_555
O3 H9 1_555 1_555
C3 O3 1_555 1_555
H10 C3 1_555 1_555
H11 C3 1_555 1_555
H12 C3 1_555 1_555
O4 H13 1_555 1_555
C4 O4 1_555 1_555
H14 C4 1_555 1_555
H15 C4 1_555 1_555
H16 C4 1_555 1_555
O5 H17 1_555 1_555
C5 O5 1_555 1_555
H18 C5 1_555 1_555
H19 C5 1_555 1_555
H20 C5 1_555 1_555
O6 H21 1_555 1_555
C6 O6 1_555 1_555
H22 C6 1_555 1_555
H23 C6 1_555 1_555
H24 C6 1_555 1_555
O7 H25 1_555 1_555
C7 O7 1_555 1_555
H26 C7 1_555 1_555
H27 C7 1_555 1_555
H28 C7 1_555 1_555
C8 H29 1_555 1_555
C9 C8 1_555 1_555
H30 C9 1_555 1_555
C10 C9 1_555 1_555
H31 C10 1_555 1_555
C11 C10 1_555 1_555
H32 C11 1_555 1_555
C12 C11 1_555 1_555
H33 C12 1_555 1_555
C13 C8 1_555 1_555
H34 C13 1_555 1_555
O8 C33 1_555 1_555
O9 C45 1_555 1_555
O10 C50 1_555 1_555
O11 C52 1_555 1_555
O12 C66 1_555 1_555
N1 H35 1_555 1_555
O13 C102 1_555 1_555
O14 C104 1_555 1_555
C14 H36 1_555 1_555
H37 C14 1_555 1_555
H38 C14 1_555 1_555
C15 C14 1_555 1_555
H39 C15 1_555 1_555
H40 C15 1_555 1_555
C16 C15 1_555 1_555
H41 C16 1_555 1_555
H42 C16 1_555 1_555
C17 C16 1_555 1_555
H43 C17 1_555 1_555
H44 C17 1_555 1_555
C18 C17 1_555 1_555
H45 C18 1_555 1_555
H46 C18 1_555 1_555
C19 C18 1_555 1_555
H47 C19 1_555 1_555
H48 C19 1_555 1_555
C20 C19 1_555 1_555
H49 C20 1_555 1_555
H50 C20 1_555 1_555
C21 C20 1_555 1_555
H51 C21 1_555 1_555
H52 C21 1_555 1_555
C22 C21 1_555 1_555
H53 C22 1_555 1_555
H54 C22 1_555 1_555
C23 C22 1_555 1_555
H55 C23 1_555 1_555
H56 C23 1_555 1_555
C24 C23 1_555 1_555
H57 C24 1_555 1_555
H58 C24 1_555 1_555
C25 C24 1_555 1_555
H59 C25 1_555 1_555
C26 C25 1_555 1_555
C27 C26 1_555 1_555
H60 C27 1_555 1_555
C28 C27 1_555 1_555
C29 C28 1_555 1_555
H61 C29 1_555 1_555
C30 C29 1_555 1_555
C31 C30 1_555 1_555
H62 C31 1_555 1_555
C32 C31 1_555 1_555
C33 C32 1_555 1_555
C34 O8 1_555 1_555
C35 C34 1_555 1_555
H63 C35 1_555 1_555
C36 C35 1_555 1_555
N2 C36 1_555 1_555
C37 N2 1_555 1_555
C38 C37 1_555 1_555
C39 C38 1_555 1_555
H64 C39 1_555 1_555
H65 C39 1_555 1_555
C40 C39 1_555 1_555
H66 C40 1_555 1_555
H67 C40 1_555 1_555
N3 C40 1_555 1_555
C41 C38 1_555 1_555
H68 C41 1_555 1_555
H69 C41 1_555 1_555
C42 N3 1_555 1_555
H70 C42 1_555 1_555
H71 C42 1_555 1_555
C43 C36 1_555 1_555
N4 C37 1_555 1_555
H72 N4 1_555 1_555
C44 C43 1_555 1_555
H73 C44 1_555 1_555
C45 C34 1_555 1_555
C46 O9 1_555 1_555
C47 C46 1_555 1_555
C48 C47 1_555 1_555
H74 C48 1_555 1_555
C49 C48 1_555 1_555
C50 C49 1_555 1_555
C51 O10 1_555 1_555
C52 C51 1_555 1_555
C53 O11 1_555 1_555
C54 C53 1_555 1_555
C55 C49 1_555 1_555
H75 C55 1_555 1_555
C56 C55 1_555 1_555
H76 C56 1_555 1_555
H77 C56 1_555 1_555
C57 C56 1_555 1_555
H78 C57 1_555 1_555
H79 C57 1_555 1_555
C58 C57 1_555 1_555
H80 C58 1_555 1_555
H81 C58 1_555 1_555
C59 C58 1_555 1_555
H82 C59 1_555 1_555
H83 C59 1_555 1_555
C60 C59 1_555 1_555
H84 C60 1_555 1_555
H85 C60 1_555 1_555
C61 C60 1_555 1_555
H86 C61 1_555 1_555
H87 C61 1_555 1_555
C62 C61 1_555 1_555
H88 C62 1_555 1_555
H89 C62 1_555 1_555
C63 C62 1_555 1_555
H90 C63 1_555 1_555
H91 C63 1_555 1_555
C64 C54 1_555 1_555
H92 C64 1_555 1_555
C65 C25 1_555 1_555
C66 C28 1_555 1_555
C67 O12 1_555 1_555
C68 C67 1_555 1_555
O15 C68 1_555 1_555
C69 C30 1_555 1_555
C70 C33 1_555 1_555
H93 C70 1_555 1_555
C71 C32 1_555 1_555
H94 C71 1_555 1_555
C72 C71 1_555 1_555
H95 C72 1_555 1_555
H96 C72 1_555 1_555
C73 C72 1_555 1_555
H97 C73 1_555 1_555
H98 C73 1_555 1_555
C74 C73 1_555 1_555
H99 C74 1_555 1_555
H100 C74 1_555 1_555
C75 C74 1_555 1_555
H101 C75 1_555 1_555
H102 C75 1_555 1_555
C76 C75 1_555 1_555
H103 C76 1_555 1_555
H104 C76 1_555 1_555
C77 C76 1_555 1_555
H105 C77 1_555 1_555
H106 C77 1_555 1_555
C78 C77 1_555 1_555
H107 C78 1_555 1_555
H108 C78 1_555 1_555
C79 C78 1_555 1_555
H109 C79 1_555 1_555
H110 C79 1_555 1_555
C80 C29 1_555 1_555
H111 C80 1_555 1_555
H112 C80 1_555 1_555
C81 C80 1_555 1_555
H113 C81 1_555 1_555
H114 C81 1_555 1_555
C82 C81 1_555 1_555
H115 C82 1_555 1_555
H116 C82 1_555 1_555
C83 C82 1_555 1_555
H117 C83 1_555 1_555
H118 C83 1_555 1_555
C84 C83 1_555 1_555
H119 C84 1_555 1_555
H120 C84 1_555 1_555
C85 C84 1_555 1_555
H121 C85 1_555 1_555
H122 C85 1_555 1_555
C86 C85 1_555 1_555
H123 C86 1_555 1_555
H124 C86 1_555 1_555
C87 C86 1_555 1_555
H125 C87 1_555 1_555
H126 C87 1_555 1_555
C88 C87 1_555 1_555
H127 C88 1_555 1_555
H128 C88 1_555 1_555
C89 C68 1_555 1_555
H129 C89 1_555 1_555
C90 N1 1_555 1_555
C91 N1 1_555 1_555
N5 C91 1_555 1_555
C92 C90 1_555 1_555
C93 C67 1_555 1_555
H130 C93 1_555 1_555
C94 C91 1_555 1_555
C95 C94 1_555 1_555
H131 C95 1_555 1_555
H132 C95 1_555 1_555
C96 C95 1_555 1_555
H133 C96 1_555 1_555
H134 C96 1_555 1_555
N6 C96 1_555 1_555
C97 N6 1_555 1_555
H135 C97 1_555 1_555
H136 C97 1_555 1_555
C98 C94 1_555 1_555
H137 C98 1_555 1_555
H138 C98 1_555 1_555
C99 N6 1_555 1_555
H139 C99 1_555 1_555
H140 C99 1_555 1_555
C100 C94 1_555 1_555
H141 C100 1_555 1_555
H142 C100 1_555 1_555
C101 C66 1_555 1_555
H143 C101 1_555 1_555
C102 C26 1_555 1_555
C103 O13 1_555 1_555
C104 C103 1_555 1_555
C105 O14 1_555 1_555
C106 C53 1_555 1_555
H144 C106 1_555 1_555
C107 C104 1_555 1_555
H145 C107 1_555 1_555
C108 C107 1_555 1_555
C109 C108 1_555 1_555
C110 C103 1_555 1_555
H146 C110 1_555 1_555
N7 C109 1_555 1_555
H147 N7 1_555 1_555
C111 N7 1_555 1_555
C112 C111 1_555 1_555
C113 C112 1_555 1_555
H148 C113 1_555 1_555
H149 C113 1_555 1_555
C114 C113 1_555 1_555
H150 C114 1_555 1_555
H151 C114 1_555 1_555
N8 C114 1_555 1_555
C115 N8 1_555 1_555
H152 C115 1_555 1_555
H153 C115 1_555 1_555
C116 C112 1_555 1_555
H154 C116 1_555 1_555
H155 C116 1_555 1_555
C117 N8 1_555 1_555
H156 C117 1_555 1_555
H157 C117 1_555 1_555
C118 C112 1_555 1_555
H158 C118 1_555 1_555
H159 C118 1_555 1_555
N9 C108 1_555 1_555
C119 C52 1_555 1_555
H160 C119 1_555 1_555
C120 C119 1_555 1_555
C121 C120 1_555 1_555
C122 C51 1_555 1_555
H161 C122 1_555 1_555
N10 C121 1_555 1_555
C123 N10 1_555 1_555
N11 C120 1_555 1_555
H162 N11 1_555 1_555
C124 C123 1_555 1_555
C125 C124 1_555 1_555
H163 C125 1_555 1_555
H164 C125 1_555 1_555
C126 C125 1_555 1_555
H165 C126 1_555 1_555
H166 C126 1_555 1_555
N12 C126 1_555 1_555
C127 N12 1_555 1_555
H167 C127 1_555 1_555
H168 C127 1_555 1_555
C128 C124 1_555 1_555
H169 C128 1_555 1_555
H170 C128 1_555 1_555
C129 N12 1_555 1_555
H171 C129 1_555 1_555
H172 C129 1_555 1_555
C130 C124 1_555 1_555
H173 C130 1_555 1_555
H174 C130 1_555 1_555
C131 C46 1_555 1_555
H175 C131 1_555 1_555
C132 C38 1_555 1_555
H176 C132 1_555 1_555
H177 C132 1_555 1_555
C133 N3 1_555 1_555
H178 C133 1_555 1_555
H179 C133 1_555 1_555
C134 C63 1_555 1_555
H180 C134 1_555 1_555
H181 C134 1_555 1_555
C135 C134 1_555 1_555
H182 C135 1_555 1_555
H183 C135 1_555 1_555
C136 C135 1_555 1_555
H184 C136 1_555 1_555
H185 C136 1_555 1_555
H186 C136 1_555 1_555
C137 C88 1_555 1_555
H187 C137 1_555 1_555
H188 C137 1_555 1_555
C138 C137 1_555 1_555
H189 C138 1_555 1_555
H190 C138 1_555 1_555
H191 C138 1_555 1_555
C139 C79 1_555 1_555
H192 C139 1_555 1_555
H193 C139 1_555 1_555
C140 H194 1_555 1_555
H195 C140 1_555 1_555
H196 C140 1_555 1_555
C141 C139 1_555 1_555
H197 C141 1_555 1_555
H198 C141 1_555 1_555
O16 H204 1_555 1_555
C143 O16 1_555 1_555
H205 C143 1_555 1_555
H206 C143 1_555 1_555
H207 C143 1_555 1_555
C144 H208 1_555 1_555
C145 C144 1_555 1_555
H209 C145 1_555 1_555
C146 C145 1_555 1_555
H210 C146 1_555 1_555
C147 C146 1_555 1_555
H211 C147 1_555 1_555
C148 C147 1_555 1_555
H212 C148 1_555 1_555
C149 C144 1_555 1_555
H213 C149 1_555 1_555
C156 H220 1_555 1_555
C157 C156 1_555 1_555
H221 C157 1_555 1_555
C158 C157 1_555 1_555
H222 C158 1_555 1_555
C159 C158 1_555 1_555
H223 C159 1_555 1_555
C160 C159 1_555 1_555
H224 C160 1_555 1_555
C161 C156 1_555 1_555
H225 C161 1_555 1_555
C162 H226 1_555 1_555
C163 C162 1_555 1_555
H227 C163 1_555 1_555
C164 C163 1_555 1_555
H228 C164 1_555 1_555
C165 C164 1_555 1_555
H229 C165 1_555 1_555
C166 C165 1_555 1_555
H230 C166 1_555 1_555
C167 C162 1_555 1_555
H231 C167 1_555 1_555
C168 H232 1_555 1_555
C169 C168 1_555 1_555
H233 C169 1_555 1_555
C170 C169 1_555 1_555
H234 C170 1_555 1_555
C171 C170 1_555 1_555
H235 C171 1_555 1_555
C172 C171 1_555 1_555
H236 C172 1_555 1_555
C173 C168 1_555 1_555
H237 C173 1_555 1_555
O8A C33A 1_555 1_555
O9A C45A 1_555 1_555
O10A C50A 1_555 1_555
O11A C52A 1_555 1_555
O12A C66A 1_555 1_555
N1A H35A 1_555 1_555
O13A C102A 1_555 1_555
O14A C104A 1_555 1_555
C14A H36A 1_555 1_555
H37A C14A 1_555 1_555
H38A C14A 1_555 1_555
C15A C14A 1_555 1_555
H39A C15A 1_555 1_555
H40A C15A 1_555 1_555
C16A C15A 1_555 1_555
H41A C16A 1_555 1_555
H42A C16A 1_555 1_555
C17A C16A 1_555 1_555
H43A C17A 1_555 1_555
H44A C17A 1_555 1_555
C18A C17A 1_555 1_555
H45A C18A 1_555 1_555
H46A C18A 1_555 1_555
C19A C18A 1_555 1_555
H47A C19A 1_555 1_555
H48A C19A 1_555 1_555
C20A C19A 1_555 1_555
H49A C20A 1_555 1_555
H50A C20A 1_555 1_555
C21A C20A 1_555 1_555
H51A C21A 1_555 1_555
H52A C21A 1_555 1_555
C22A C21A 1_555 1_555
H53A C22A 1_555 1_555
H54A C22A 1_555 1_555
C23A C22A 1_555 1_555
H55A C23A 1_555 1_555
H56A C23A 1_555 1_555
C24A C23A 1_555 1_555
H57A C24A 1_555 1_555
H58A C24A 1_555 1_555
C25A C24A 1_555 1_555
H59A C25A 1_555 1_555
C26A C25A 1_555 1_555
C27A C26A 1_555 1_555
H60A C27A 1_555 1_555
C28A C27A 1_555 1_555
C29A C28A 1_555 1_555
H61A C29A 1_555 1_555
C30A C29A 1_555 1_555
C31A C30A 1_555 1_555
H62A C31A 1_555 1_555
C32A C31A 1_555 1_555
C33A C32A 1_555 1_555
C34A O8A 1_555 1_555
C35A C34A 1_555 1_555
H63A C35A 1_555 1_555
C36A C35A 1_555 1_555
N2A C36A 1_555 1_555
C37A N2A 1_555 1_555
C38A C37A 1_555 1_555
C39A C38A 1_555 1_555
H64A C39A 1_555 1_555
H65A C39A 1_555 1_555
C40A C39A 1_555 1_555
H66A C40A 1_555 1_555
H67A C40A 1_555 1_555
N3A C40A 1_555 1_555
C41A C38A 1_555 1_555
H68A C41A 1_555 1_555
H69A C41A 1_555 1_555
C42A N3A 1_555 1_555
H70A C42A 1_555 1_555
H71A C42A 1_555 1_555
C43A C36A 1_555 1_555
N4A C37A 1_555 1_555
H72A N4A 1_555 1_555
C44A C43A 1_555 1_555
H73A C44A 1_555 1_555
C45A C34A 1_555 1_555
C46A O9A 1_555 1_555
C47A C46A 1_555 1_555
C48A C47A 1_555 1_555
H74A C48A 1_555 1_555
C49A C48A 1_555 1_555
C50A C49A 1_555 1_555
C51A O10A 1_555 1_555
C52A C51A 1_555 1_555
C53A O11A 1_555 1_555
C54A C53A 1_555 1_555
C55A C49A 1_555 1_555
H75A C55A 1_555 1_555
C56A C55A 1_555 1_555
H76A C56A 1_555 1_555
H77A C56A 1_555 1_555
C57A C56A 1_555 1_555
H78A C57A 1_555 1_555
H79A C57A 1_555 1_555
C58A C57A 1_555 1_555
H80A C58A 1_555 1_555
H81A C58A 1_555 1_555
C59A C58A 1_555 1_555
H82A C59A 1_555 1_555
H83A C59A 1_555 1_555
C60A C59A 1_555 1_555
H84A C60A 1_555 1_555
H85A C60A 1_555 1_555
C61A C60A 1_555 1_555
H86A C61A 1_555 1_555
H87A C61A 1_555 1_555
C62A C61A 1_555 1_555
H88A C62A 1_555 1_555
H89A C62A 1_555 1_555
C63A C62A 1_555 1_555
H90A C63A 1_555 1_555
H91A C63A 1_555 1_555
C64A C54A 1_555 1_555
H92A C64A 1_555 1_555
C65A C25A 1_555 1_555
C66A C28A 1_555 1_555
C67A O12A 1_555 1_555
C68A C67A 1_555 1_555
O15A C68A 1_555 1_555
C69A C30A 1_555 1_555
C70A C33A 1_555 1_555
H93A C70A 1_555 1_555
C71A C32A 1_555 1_555
H94A C71A 1_555 1_555
C72A C71A 1_555 1_555
H95A C72A 1_555 1_555
H96A C72A 1_555 1_555
C73A C72A 1_555 1_555
H97A C73A 1_555 1_555
H98A C73A 1_555 1_555
C74A C73A 1_555 1_555
H99A C74A 1_555 1_555
H100A C74A 1_555 1_555
C75A C74A 1_555 1_555
H101A C75A 1_555 1_555
H102A C75A 1_555 1_555
C76A C75A 1_555 1_555
H103A C76A 1_555 1_555
H104A C76A 1_555 1_555
C77A C76A 1_555 1_555
H105A C77A 1_555 1_555
H106A C77A 1_555 1_555
C78A C77A 1_555 1_555
H107A C78A 1_555 1_555
H108A C78A 1_555 1_555
C79A C78A 1_555 1_555
H109A C79A 1_555 1_555
H110A C79A 1_555 1_555
C80A C29A 1_555 1_555
H111A C80A 1_555 1_555
H112A C80A 1_555 1_555
C81A C80A 1_555 1_555
H113A C81A 1_555 1_555
H114A C81A 1_555 1_555
C82A C81A 1_555 1_555
H115A C82A 1_555 1_555
H116A C82A 1_555 1_555
C83A C82A 1_555 1_555
H117A C83A 1_555 1_555
H118A C83A 1_555 1_555
C84A C83A 1_555 1_555
H119A C84A 1_555 1_555
H120A C84A 1_555 1_555
C85A C84A 1_555 1_555
H121A C85A 1_555 1_555
H122A C85A 1_555 1_555
C86A C85A 1_555 1_555
H123A C86A 1_555 1_555
H124A C86A 1_555 1_555
C87A C86A 1_555 1_555
H125A C87A 1_555 1_555
H126A C87A 1_555 1_555
C88A C87A 1_555 1_555
H127A C88A 1_555 1_555
H128A C88A 1_555 1_555
C89A C68A 1_555 1_555
H129A C89A 1_555 1_555
C90A N1A 1_555 1_555
C91A N1A 1_555 1_555
N5A C91A 1_555 1_555
C92A C90A 1_555 1_555
C93A C67A 1_555 1_555
H130A C93A 1_555 1_555
C94A C91A 1_555 1_555
C95A C94A 1_555 1_555
H131A C95A 1_555 1_555
H132A C95A 1_555 1_555
C96A C95A 1_555 1_555
H133A C96A 1_555 1_555
H134A C96A 1_555 1_555
N6A C96A 1_555 1_555
C97A N6A 1_555 1_555
H135A C97A 1_555 1_555
H136A C97A 1_555 1_555
C98A C94A 1_555 1_555
H137A C98A 1_555 1_555
H138A C98A 1_555 1_555
C99A N6A 1_555 1_555
H139A C99A 1_555 1_555
H140A C99A 1_555 1_555
C100A C94A 1_555 1_555
H141A C100A 1_555 1_555
H142A C100A 1_555 1_555
C101A C66A 1_555 1_555
H143A C101A 1_555 1_555
C102A C26A 1_555 1_555
C103A O13A 1_555 1_555
C104A C103A 1_555 1_555
C105A O14A 1_555 1_555
C106A C53A 1_555 1_555
H144A C106A 1_555 1_555
C107A C104A 1_555 1_555
H145A C107A 1_555 1_555
C108A C107A 1_555 1_555
C109A C108A 1_555 1_555
C110A C103A 1_555 1_555
H146A C110A 1_555 1_555
N7A C109A 1_555 1_555
H147A N7A 1_555 1_555
C111A N7A 1_555 1_555
C112A C111A 1_555 1_555
C113A C112A 1_555 1_555
H148A C113A 1_555 1_555
H149A C113A 1_555 1_555
C114A C113A 1_555 1_555
H150A C114A 1_555 1_555
H151A C114A 1_555 1_555
N8A C114A 1_555 1_555
C115A N8A 1_555 1_555
H152A C115A 1_555 1_555
H153A C115A 1_555 1_555
C116A C112A 1_555 1_555
H154A C116A 1_555 1_555
H155A C116A 1_555 1_555
C117A N8A 1_555 1_555
H156A C117A 1_555 1_555
H157A C117A 1_555 1_555
C118A C112A 1_555 1_555
H158A C118A 1_555 1_555
H159A C118A 1_555 1_555
N9A C108A 1_555 1_555
C119A C52A 1_555 1_555
H160A C119A 1_555 1_555
C120A C119A 1_555 1_555
C121A C120A 1_555 1_555
C122A C51A 1_555 1_555
H161A C122A 1_555 1_555
N10A C121A 1_555 1_555
C123A N10A 1_555 1_555
N11A C120A 1_555 1_555
H162A N11A 1_555 1_555
C124A C123A 1_555 1_555
C125A C124A 1_555 1_555
H163A C125A 1_555 1_555
H164A C125A 1_555 1_555
C126A C125A 1_555 1_555
H165A C126A 1_555 1_555
H166A C126A 1_555 1_555
N12A C126A 1_555 1_555
C127A N12A 1_555 1_555
H167A C127A 1_555 1_555
H168A C127A 1_555 1_555
C128A C124A 1_555 1_555
H169A C128A 1_555 1_555
H170A C128A 1_555 1_555
C129A N12A 1_555 1_555
H171A C129A 1_555 1_555
H172A C129A 1_555 1_555
C130A C124A 1_555 1_555
H173A C130A 1_555 1_555
H174A C130A 1_555 1_555
C131A C46A 1_555 1_555
H175A C131A 1_555 1_555
C132A C38A 1_555 1_555
H176A C132A 1_555 1_555
H177A C132A 1_555 1_555
C133A N3A 1_555 1_555
H178A C133A 1_555 1_555
H179A C133A 1_555 1_555
C134A C63A 1_555 1_555
H180A C134A 1_555 1_555
H181A C134A 1_555 1_555
C135A C134A 1_555 1_555
H182A C135A 1_555 1_555
H183A C135A 1_555 1_555
C136A C135A 1_555 1_555
H184A C136A 1_555 1_555
H185A C136A 1_555 1_555
H186A C136A 1_555 1_555
C137A C88A 1_555 1_555
H187A C137A 1_555 1_555
H188A C137A 1_555 1_555
C138A C137A 1_555 1_555
H189A C138A 1_555 1_555
H190A C138A 1_555 1_555
H191A C138A 1_555 1_555
C139A C79A 1_555 1_555
H192A C139A 1_555 1_555
H193A C139A 1_555 1_555
C140A H194A 1_555 1_555
H195A C140A 1_555 1_555
H196A C140A 1_555 1_555
C141A C139A 1_555 1_555
H197A C141A 1_555 1_555
H198A C141A 1_555 1_555
C156A H220A 1_555 1_555
C157A C156A 1_555 1_555
H221A C157A 1_555 1_555
C158A C157A 1_555 1_555
H222A C158A 1_555 1_555
C159A C158A 1_555 1_555
H223A C159A 1_555 1_555
C160A C159A 1_555 1_555
H224A C160A 1_555 1_555
C161A C156A 1_555 1_555
H225A C161A 1_555 1_555
C12 C13 1_555 1_555
C41 C42 1_555 1_555
C43 N4 1_555 1_555
C44 C45 1_555 1_555
C47 C71 1_555 1_555
C50 C131 1_555 1_555
C54 C55 1_555 1_555
C64 C65 1_555 1_555
C65 C105 1_555 1_555
O15 C69 1_555 1_555
C69 C70 1_555 1_555
C89 C90 1_555 1_555
N5 C92 1_555 1_555
C92 C93 1_555 1_555
C97 C98 1_555 1_555
C99 C100 1_555 1_555
C101 C102 1_555 1_555
C105 C106 1_555 1_555
C109 C110 1_555 1_555
C111 N9 1_555 1_555
C115 C116 1_555 1_555
C117 C118 1_555 1_555
C121 C122 1_555 1_555
C123 N11 1_555 1_555
C127 C128 1_555 1_555
C129 C130 1_555 1_555
C132 C133 1_555 1_555
C140 C141 1_555 1_555
C148 C149 1_555 1_555
C160 C161 1_555 1_555
C166 C167 1_555 1_555
C172 C173 1_555 1_555
C41A C42A 1_555 1_555
C43A N4A 1_555 1_555
C44A C45A 1_555 1_555
C47A C71A 1_555 1_555
C50A C131A 1_555 1_555
C54A C55A 1_555 1_555
C64A C65A 1_555 1_555
C65A C105A 1_555 1_555
O15A C69A 1_555 1_555
C69A C70A 1_555 1_555
C89A C90A 1_555 1_555
N5A C92A 1_555 1_555
C92A C93A 1_555 1_555
C97A C98A 1_555 1_555
C99A C100A 1_555 1_555
C101A C102A 1_555 1_555
C105A C106A 1_555 1_555
C109A C110A 1_555 1_555
C111A N9A 1_555 1_555
C115A C116A 1_555 1_555
C117A C118A 1_555 1_555
C121A C122A 1_555 1_555
C123A N11A 1_555 1_555
C127A C128A 1_555 1_555
C129A C130A 1_555 1_555
C132A C133A 1_555 1_555
C140A C141A 1_555 1_555
C160A C161A 1_555 1_555

#END
