
#######################################################################
#
#                 Cambridge Crystallographic Data Centre
#                                CCDC 
#
#######################################################################
#
# If this CIF has been generated from an entry in the Cambridge 
# Structural Database, then it will include bibliographic, chemical, 
# crystal, experimental, refinement or atomic coordinate data resulting 
# from the CCDC's data processing and validation procedures.
#
#######################################################################

data_ICACOH
_chemical_name_common            
13,14,37,38,61,62-hexabutoxycyclo[d.e.d.e.d.e.d.e.d.e.d.e]dodecakisbenzene
_chemical_formula_moiety         'C72 H72 O6'
_chemical_name_systematic        
4,5,14,15,24,25-hexabutoxytridecacyclo[26.18.2.0^3,44^.0^6,43^.0^8,41^.0^11,40^.0^13,38^.0^16,37^.0^18,35^.0^21,34^.0^23,32^.0^26,31^.0^29,46^]octatetraconta-1(46),2,4,6(43),7,9,11,13,15,17,19,21(34),22,24,26,28,30,32,35,37,39,41,44,47-tetracosaene
_symmetry_cell_setting           triclinic
_symmetry_space_group_name_H-M   'P -1'
_symmetry_Int_Tables_number      2
_space_group_name_Hall           '-P 1'
loop_
_symmetry_equiv_pos_site_id
_symmetry_equiv_pos_as_xyz
1 x,y,z
2 -x,-y,-z
_cell_length_a                   10.170(4)
_cell_length_b                   15.915(3)
_cell_length_c                   17.61(3)
_cell_angle_alpha                107.210(10)
_cell_angle_beta                 90.590(10)
_cell_angle_gamma                98.420(10)
_cell_volume                     2688.97
_exptl_crystal_colour            yellow
_exptl_crystal_description       block
_cell_formula_units_Z            2
loop_
_atom_site_label
_atom_site_type_symbol
_atom_site_fract_x
_atom_site_fract_y
_atom_site_fract_z
O1 O -0.20481(8) 0.85535(6) 0.44939(5)
O2 O -0.13344(8) 0.95090(5) 0.61319(5)
O3 O 0.63604(8) 0.51394(5) 0.88910(5)
O4 O 0.54021(9) 0.67239(5) 0.96392(5)
O5 O 0.37598(8) 0.16234(5) 0.23443(5)
O6 O 0.15268(8) 0.20111(6) 0.16217(5)
C1 C -0.00179(11) 0.83898(8) 0.62185(7)
C2 C 0.03825(11) 0.88524(8) 0.70169(7)
H1 H 0.0056 0.9391 0.7268
C3 C 0.12553(11) 0.85364(8) 0.74538(7)
C4 C 0.17735(11) 0.77472(7) 0.70740(7)
C5 C 0.13631(11) 0.72926(8) 0.62825(7)
H2 H 0.1708 0.6762 0.6028
C6 C 0.04678(11) 0.75822(7) 0.58469(7)
C7 C 0.00089(11) 0.70686(8) 0.50310(7)
C8 C 0.03895(11) 0.62478(8) 0.46647(7)
H3 H 0.0957 0.6020 0.4960
C9 C -0.00184(11) 0.57410(8) 0.38843(7)
C10 C -0.09151(11) 0.60626(8) 0.34498(7)
C11 C -0.13258(12) 0.68877(8) 0.38165(7)
H4 H -0.1927 0.7103 0.3530
C12 C -0.08696(11) 0.74010(8) 0.45951(7)
C13 C -0.12915(11) 0.82528(8) 0.49793(7)
C14 C -0.08941(11) 0.87161(8) 0.57530(7)
C15 C 0.16267(12) 0.89788(8) 0.82899(7)
H5 H 0.1310 0.9519 0.8548
C16 C 0.24149(12) 0.86395(8) 0.87128(7)
H6 H 0.2618 0.8942 0.9263
C17 C -0.32300(11) 0.89168(8) 0.47958(7)
H7 H -0.2992 0.9551 0.5111
H8 H -0.3675 0.8585 0.5142
C18 C -0.41437(12) 0.88248(8) 0.40803(8)
H9 H -0.5009 0.8991 0.4271
H10 H -0.4308 0.8191 0.3754
C19 C -0.36134(13) 0.93903(9) 0.35483(8)
H11 H -0.2719 0.9256 0.3387
H12 H -0.4205 0.9217 0.3059
C20 C -0.35170(15) 1.03893(9) 0.39427(9)
H13 H -0.3196 1.0707 0.3565
H14 H -0.2895 1.0574 0.4412
H15 H -0.4398 1.0530 0.4105
C21 C -0.04910(12) 1.02933(8) 0.60674(8)
H16 H -0.0631 1.0362 0.5533
H17 H 0.0457 1.0244 0.6146
C22 C -0.08506(13) 1.10857(8) 0.67014(8)
H18 H -0.0230 1.1625 0.6698
H19 H -0.0734 1.0995 0.7229
C23 C -0.22852(13) 1.12404(9) 0.65865(8)
H20 H -0.2392 1.1363 0.6072
H21 H -0.2906 1.0692 0.6565
C24 C -0.26484(15) 1.20152(9) 0.72554(8)
H22 H -0.3553 1.2109 0.7145
H23 H -0.2020 1.2556 0.7290
H24 H -0.2605 1.1878 0.7761
C25 C 0.53979(11) 0.51078(7) 0.76166(7)
C26 C 0.59904(11) 0.43714(8) 0.72079(7)
H25 H 0.6581 0.4148 0.7494
C27 C 0.57309(11) 0.39562(8) 0.63866(7)
C28 C 0.47828(11) 0.42619(7) 0.59723(7)
C29 C 0.42552(12) 0.50181(8) 0.63774(7)
H26 H 0.3661 0.5240 0.6092
C30 C 0.45583(11) 0.54638(7) 0.71804(7)
C31 C 0.40180(11) 0.62683(7) 0.75795(7)
C32 C 0.32178(11) 0.66425(7) 0.71640(7)
H27 H 0.3043 0.6366 0.6608
C33 C 0.26636(11) 0.73994(7) 0.75235(7)
C34 C 0.29545(11) 0.78313(7) 0.83508(7)
C35 C 0.37579(11) 0.74606(8) 0.87802(7)
H28 H 0.3950 0.7744 0.9334
C36 C 0.42815(11) 0.66834(7) 0.84101(7)
C37 C 0.50992(11) 0.62822(8) 0.88434(7)
C38 C 0.56217(11) 0.55333(8) 0.84675(7)
C39 C 0.63952(12) 0.32407(8) 0.59373(7)
H29 H 0.7064 0.3052 0.6200
C40 C 0.60920(11) 0.28285(8) 0.51476(7)
H30 H 0.6576 0.2375 0.4869
C41 C 0.77601(12) 0.55216(8) 0.90025(8)
H31 H 0.7876 0.6125 0.9390
H32 H 0.8100 0.5573 0.8491
C42 C 0.85286(13) 0.49351(9) 0.93047(9)
H33 H 0.8145 0.4863 0.9800
H34 H 0.9462 0.5235 0.9439
C43 C 0.85231(14) 0.40213(9) 0.87155(9)
H35 H 0.8850 0.4091 0.8206
H36 H 0.7597 0.3702 0.8610
C44 C 0.93917(18) 0.34618(11) 0.90155(12)
H37 H 0.9348 0.2877 0.8618
H38 H 0.9067 0.3385 0.9516
H39 H 1.0316 0.3766 0.9104
C45 C 0.47057(14) 0.63286(9) 1.01812(8)
H40 H 0.4822 0.5696 1.0058
H41 H 0.3743 0.6357 1.0138
C46 C 0.52851(13) 0.68499(9) 1.10175(7)
H42 H 0.5196 0.7484 1.1118
H43 H 0.4756 0.6628 1.1407
C47 C 0.67301(15) 0.67869(11) 1.11580(8)
H44 H 0.7253 0.6957 1.0741
H45 H 0.6813 0.6162 1.1113
C48 C 0.73018(19) 0.73810(12) 1.19674(10)
H46 H 0.8234 0.7312 1.2035
H47 H 0.6791 0.7213 1.2383
H48 H 0.7251 0.8003 1.2008
C49 C 0.14781(11) 0.33149(8) 0.27402(7)
C50 C 0.04939(11) 0.36017(8) 0.23556(7)
H49 H 0.0157 0.3249 0.1836
C51 C -0.00070(11) 0.43904(8) 0.27141(7)
C52 C 0.04637(11) 0.49034(7) 0.35053(7)
C53 C 0.14191(12) 0.46045(8) 0.38870(7)
H50 H 0.1730 0.4945 0.4415
C54 C 0.19395(11) 0.38317(8) 0.35315(7)
C55 C 0.29735(11) 0.35583(8) 0.39438(7)
C56 C 0.33686(12) 0.40032(8) 0.47393(7)
H51 H 0.2919 0.4474 0.5021
C57 C 0.43963(11) 0.37844(7) 0.51373(7)
C58 C 0.50464(11) 0.30649(7) 0.47206(7)
C59 C 0.46394(12) 0.25964(8) 0.39235(7)
H52 H 0.5073 0.2115 0.3645
C60 C 0.36031(11) 0.28277(8) 0.35314(7)
C61 C 0.31200(12) 0.23255(8) 0.27248(7)
C62 C 0.20783(11) 0.25398(8) 0.23596(7)
C63 C -0.09592(11) 0.47276(8) 0.23098(7)
H53 H -0.1303 0.4385 0.1789
C64 C -0.13757(12) 0.55194(8) 0.26537(7)
H54 H -0.1987 0.5721 0.2362
C65 C 0.30425(15) 0.07654(8) 0.23268(8)
H55 H 0.2207 0.0629 0.1990
H56 H 0.2815 0.0762 0.2871
C66 C 0.39365(15) 0.00819(9) 0.19867(8)
H57 H 0.3487 -0.0508 0.2000
H58 H 0.4768 0.0234 0.2329
C67 C 0.42923(13) 0.00184(8) 0.11376(7)
H59 H 0.4792 0.0597 0.1127
H60 H 0.3463 -0.0102 0.0798
C68 C 0.51270(16) -0.07111(9) 0.07980(9)
H61 H 0.5356 -0.0716 0.0258
H62 H 0.4618 -0.1289 0.0782
H63 H 0.5945 -0.0598 0.1136
C69 C 0.23666(12) 0.19925(8) 0.09592(7)
H64 H 0.3182 0.1748 0.1035
H65 H 0.2632 0.2603 0.0924
C70 C 0.15836(13) 0.14106(9) 0.02045(7)
H66 H 0.1285 0.0814 0.0263
H67 H 0.2179 0.1337 -0.0244
C71 C 0.03710(13) 0.17798(9) -0.00004(8)
H68 H 0.0665 0.2375 -0.0064
H69 H -0.0229 0.1853 0.0446
C72 C -0.03967(16) 0.11753(10) -0.07628(9)
H70 H -0.1202 0.1414 -0.0848
H71 H -0.0646 0.0576 -0.0714
H72 H 0.0165 0.1148 -0.1216
loop_
_geom_bond_atom_site_label_1
_geom_bond_atom_site_label_2
_geom_bond_site_symmetry_1
_geom_bond_site_symmetry_2
O1 C13 1_555 1_555
O2 C14 1_555 1_555
O3 C38 1_555 1_555
O4 C37 1_555 1_555
O5 C61 1_555 1_555
O6 C62 1_555 1_555
C1 C2 1_555 1_555
C2 H1 1_555 1_555
C3 C2 1_555 1_555
C4 C3 1_555 1_555
C5 C4 1_555 1_555
H2 C5 1_555 1_555
C6 C1 1_555 1_555
C7 C6 1_555 1_555
C8 C7 1_555 1_555
H3 C8 1_555 1_555
C9 C8 1_555 1_555
C10 C9 1_555 1_555
C11 C10 1_555 1_555
H4 C11 1_555 1_555
C12 C7 1_555 1_555
C13 C12 1_555 1_555
C14 C1 1_555 1_555
C15 C3 1_555 1_555
H5 C15 1_555 1_555
C16 C15 1_555 1_555
H6 C16 1_555 1_555
C17 O1 1_555 1_555
H7 C17 1_555 1_555
H8 C17 1_555 1_555
C18 C17 1_555 1_555
H9 C18 1_555 1_555
H10 C18 1_555 1_555
C19 C18 1_555 1_555
H11 C19 1_555 1_555
H12 C19 1_555 1_555
C20 C19 1_555 1_555
H13 C20 1_555 1_555
H14 C20 1_555 1_555
H15 C20 1_555 1_555
C21 O2 1_555 1_555
H16 C21 1_555 1_555
H17 C21 1_555 1_555
C22 C21 1_555 1_555
H18 C22 1_555 1_555
H19 C22 1_555 1_555
C23 C22 1_555 1_555
H20 C23 1_555 1_555
H21 C23 1_555 1_555
C24 C23 1_555 1_555
H22 C24 1_555 1_555
H23 C24 1_555 1_555
H24 C24 1_555 1_555
C25 C26 1_555 1_555
C26 H25 1_555 1_555
C27 C26 1_555 1_555
C28 C27 1_555 1_555
C29 C28 1_555 1_555
H26 C29 1_555 1_555
C30 C25 1_555 1_555
C31 C30 1_555 1_555
C32 C31 1_555 1_555
H27 C32 1_555 1_555
C33 C4 1_555 1_555
C34 C16 1_555 1_555
C35 C34 1_555 1_555
H28 C35 1_555 1_555
C36 C31 1_555 1_555
C37 C36 1_555 1_555
C38 C25 1_555 1_555
C39 C27 1_555 1_555
H29 C39 1_555 1_555
C40 C39 1_555 1_555
H30 C40 1_555 1_555
C41 O3 1_555 1_555
H31 C41 1_555 1_555
H32 C41 1_555 1_555
C42 C41 1_555 1_555
H33 C42 1_555 1_555
H34 C42 1_555 1_555
C43 C42 1_555 1_555
H35 C43 1_555 1_555
H36 C43 1_555 1_555
C44 C43 1_555 1_555
H37 C44 1_555 1_555
H38 C44 1_555 1_555
H39 C44 1_555 1_555
C45 O4 1_555 1_555
H40 C45 1_555 1_555
H41 C45 1_555 1_555
C46 C45 1_555 1_555
H42 C46 1_555 1_555
H43 C46 1_555 1_555
C47 C46 1_555 1_555
H44 C47 1_555 1_555
H45 C47 1_555 1_555
C48 C47 1_555 1_555
H46 C48 1_555 1_555
H47 C48 1_555 1_555
H48 C48 1_555 1_555
C49 C50 1_555 1_555
C50 H49 1_555 1_555
C51 C50 1_555 1_555
C52 C9 1_555 1_555
C53 C52 1_555 1_555
H50 C53 1_555 1_555
C54 C49 1_555 1_555
C55 C54 1_555 1_555
C56 C55 1_555 1_555
H51 C56 1_555 1_555
C57 C28 1_555 1_555
C58 C40 1_555 1_555
C59 C58 1_555 1_555
H52 C59 1_555 1_555
C60 C55 1_555 1_555
C61 C60 1_555 1_555
C62 C49 1_555 1_555
C63 C51 1_555 1_555
H53 C63 1_555 1_555
C64 C10 1_555 1_555
H54 C64 1_555 1_555
C65 O5 1_555 1_555
H55 C65 1_555 1_555
H56 C65 1_555 1_555
C66 C65 1_555 1_555
H57 C66 1_555 1_555
H58 C66 1_555 1_555
C67 C66 1_555 1_555
H59 C67 1_555 1_555
H60 C67 1_555 1_555
C68 C67 1_555 1_555
H61 C68 1_555 1_555
H62 C68 1_555 1_555
H63 C68 1_555 1_555
C69 O6 1_555 1_555
H64 C69 1_555 1_555
H65 C69 1_555 1_555
C70 C69 1_555 1_555
H66 C70 1_555 1_555
H67 C70 1_555 1_555
C71 C70 1_555 1_555
H68 C71 1_555 1_555
H69 C71 1_555 1_555
C72 C71 1_555 1_555
H70 C72 1_555 1_555
H71 C72 1_555 1_555
H72 C72 1_555 1_555
C5 C6 1_555 1_555
C11 C12 1_555 1_555
C13 C14 1_555 1_555
C29 C30 1_555 1_555
C32 C33 1_555 1_555
C33 C34 1_555 1_555
C35 C36 1_555 1_555
C37 C38 1_555 1_555
C51 C52 1_555 1_555
C53 C54 1_555 1_555
C56 C57 1_555 1_555
C57 C58 1_555 1_555
C59 C60 1_555 1_555
C61 C62 1_555 1_555
C63 C64 1_555 1_555

#END
