
#######################################################################
#
#                 Cambridge Crystallographic Data Centre
#                                CCDC 
#
#######################################################################
#
# If this CIF has been generated from an entry in the Cambridge 
# Structural Database, then it will include bibliographic, chemical, 
# crystal, experimental, refinement or atomic coordinate data resulting 
# from the CCDC's data processing and validation procedures.
#
#######################################################################

data_ICACEX
_chemical_formula_moiety         'C72 H72 Br6 O6,C1 H1 Cl3,0.5(C1 H4 O1)'
_chemical_name_systematic        
'1^3^,1^6^,4^3^,4^6^,7^3^,7^6^-hexabromo-1^9^,1^10^,4^9^,4^10^,7^9^,7^10^-hexabutoxy-1,4,7(2,7)-triphenanthrenacyclononaphane-2,5,8-triene chloroform methanol solvate'
_symmetry_cell_setting           triclinic
_symmetry_space_group_name_H-M   'P -1'
_symmetry_Int_Tables_number      2
_space_group_name_Hall           '-P 1'
loop_
_symmetry_equiv_pos_site_id
_symmetry_equiv_pos_as_xyz
1 x,y,z
2 -x,-y,-z
_cell_length_a                   12.586(4)
_cell_length_b                   13.660(5)
_cell_length_c                   21.052(7)
_cell_angle_alpha                90.22(5)
_cell_angle_beta                 95.84(5)
_cell_angle_gamma                96.16(5)
_cell_volume                     3579.39
_exptl_crystal_colour            yellow
_exptl_crystal_description       plate
_cell_formula_units_Z            2
loop_
_atom_site_label
_atom_site_type_symbol
_atom_site_fract_x
_atom_site_fract_y
_atom_site_fract_z
Cl1 Cl 0.0394(5) 0.1906(5) 0.3142(3)
Cl2 Cl 0.2134(6) 0.0846(4) 0.3605(3)
Cl3 Cl 0.1905(6) 0.1431(6) 0.2279(3)
C73 C 0.1686(16) 0.1737(16) 0.3060(9)
H73 H 0.2132 0.2375 0.3176
Br1 Br 0.7771(2) 0.33734(15) 1.05980(9)
Br2 Br 0.6897(2) 0.83959(12) 0.91732(9)
Br3 Br 0.8054(2) 0.10113(16) 0.90435(9)
Br4 Br 0.70186(16) 0.11463(12) 0.53771(8)
Br5 Br 0.21736(17) 0.33357(15) 0.44791(13)
Br6 Br 0.2710(2) 0.82001(12) 0.63921(9)
C1 C 0.4731(19) 0.3773(12) 0.9174(8)
C2 C 0.4922(19) 0.2853(11) 0.9447(7)
H1 H 0.4393 0.2312 0.9343
C3 C 0.582(2) 0.2677(12) 0.9856(8)
C4 C 0.658(2) 0.3505(13) 1.0034(8)
C5 C 0.640(2) 0.4437(12) 0.9789(7)
H2 H 0.6892 0.4992 0.9930
C6 C 0.5540(19) 0.4572(11) 0.9351(8)
C7 C 0.539(2) 0.5536(13) 0.9075(8)
C8 C 0.6078(17) 0.6399(10) 0.9226(7)
H3 H 0.6678 0.6385 0.9537
C9 C 0.5894(18) 0.7251(12) 0.8929(8)
C10 C 0.510(2) 0.7355(10) 0.8451(8)
C11 C 0.4322(18) 0.6534(11) 0.8312(7)
H4 H 0.3705 0.6576 0.8018
C12 C 0.4507(18) 0.5632(11) 0.8636(8)
C13 C 0.3741(19) 0.4768(12) 0.8467(8)
C14 C 0.3837(17) 0.3892(11) 0.8741(8)
C15 C 0.5949(18) 0.1700(11) 1.0082(8)
H5 H 0.6048 0.1624 1.0531
C16 C 0.594(2) 0.0882(12) 0.9722(7)
H6 H 0.6066 0.0286 0.9935
C17 C 0.4577(16) 0.0807(10) 0.8012(8)
C18 C 0.475(2) 0.0786(11) 0.8693(9)
H7 H 0.4142 0.0727 0.8932
C19 C 0.5749(18) 0.0848(11) 0.9004(8)
C20 C 0.6602(16) 0.0930(10) 0.8652(8)
C21 C 0.6462(17) 0.0946(11) 0.7978(8)
H8 H 0.7066 0.0987 0.7739
C22 C 0.5447(17) 0.0900(10) 0.7677(8)
C23 C 0.5256(16) 0.0944(10) 0.6943(8)
C24 C 0.6065(13) 0.1000(9) 0.6548(6)
H9 H 0.6785 0.0984 0.6730
C25 C 0.5861(13) 0.1079(10) 0.5893(7)
C26 C 0.4859(12) 0.1157(9) 0.5631(7)
C27 C 0.4040(13) 0.1081(9) 0.5999(8)
H10 H 0.3330 0.1111 0.5804
C28 C 0.4215(16) 0.0951(10) 0.6698(8)
C29 C 0.3324(15) 0.0870(12) 0.7029(10)
C30 C 0.3482(15) 0.0752(10) 0.7709(8)
C31 C 0.4568(13) 0.1373(10) 0.4915(7)
H11 H 0.4612 0.0868 0.4610
C32 C 0.4265(11) 0.2211(10) 0.4707(7)
H12 H 0.4002 0.2235 0.4268
C33 C 0.5220(13) 0.4313(9) 0.5890(6)
C34 C 0.5124(13) 0.3418(9) 0.5515(6)
H13 H 0.5690 0.3010 0.5576
C35 C 0.4294(13) 0.3126(9) 0.5090(7)
C36 C 0.3455(13) 0.3728(10) 0.5021(8)
C37 C 0.3480(13) 0.4607(10) 0.5360(8)
H14 H 0.2896 0.4994 0.5299
C38 C 0.4403(13) 0.4926(10) 0.5805(6)
C39 C 0.4489(15) 0.5864(9) 0.6160(7)
C40 C 0.3728(13) 0.6521(10) 0.6093(7)
H15 H 0.3146 0.6406 0.5768
C41 C 0.3787(19) 0.7341(11) 0.6486(8)
C42 C 0.463(2) 0.7509(10) 0.6971(8)
C43 C 0.5422(16) 0.6898(11) 0.7022(6)
H16 H 0.6022 0.7042 0.7332
C44 C 0.5370(15) 0.6049(10) 0.6620(7)
C45 C 0.6207(16) 0.5410(11) 0.6712(6)
C46 C 0.6134(14) 0.4543(11) 0.6347(7)
C47 C 0.4710(18) 0.8349(11) 0.7454(7)
H17 H 0.4608 0.8986 0.7296
C48 C 0.4914(18) 0.8258(11) 0.8086(8)
H18 H 0.4943 0.8847 0.8332
O1 O 0.2845(13) 0.4889(8) 0.8044(6)
O2 O 0.3136(14) 0.3069(8) 0.8554(6)
O3 O 0.2294(12) 0.0842(9) 0.6748(7)
O4 O 0.2654(11) 0.0624(8) 0.8086(6)
O5 O 0.7094(10) 0.5677(8) 0.7157(5)
O6 O 0.6834(12) 0.3877(9) 0.6426(7)
C49 C 0.297(2) 0.4559(14) 0.7397(8)
H19 H 0.3171 0.3876 0.7405
H20 H 0.3554 0.4988 0.7221
C50 C 0.192(2) 0.460(2) 0.6985(14)
H21 H 0.2023 0.4405 0.6544
H22 H 0.1380 0.4108 0.7142
C51 C 0.146(2) 0.558(2) 0.6955(13)
H23 H 0.2060 0.6115 0.6959
H24 H 0.1088 0.5662 0.7339
C52 C 0.067(2) 0.566(2) 0.6347(13)
H25 H 0.0703 0.6345 0.6204
H26 H -0.0066 0.5444 0.6446
H27 H 0.0855 0.5240 0.6007
C53 C 0.223(3) 0.283(3) 0.886(2)
H28 H 0.2475 0.2720 0.9314
H29 H 0.1890 0.2186 0.8682
C54 C 0.136(3) 0.349(3) 0.8859(19)
H30 H 0.1041 0.3588 0.8417
H31 H 0.1638 0.4135 0.9054
C55 C 0.054(3) 0.297(3) 0.9244(19)
H32 H 0.0839 0.2861 0.9687
H33 H 0.0227 0.2327 0.9045
C56 C -0.028(4) 0.369(4) 0.922(3)
H34 H -0.0884 0.3437 0.9451
H35 H -0.0543 0.3802 0.8772
H36 H 0.0052 0.4320 0.9414
C57 C 0.185(2) 0.1798(17) 0.6771(15)
H37 H 0.2360 0.2339 0.6631
H38 H 0.1675 0.1951 0.7206
C58 C 0.083(3) 0.163(3) 0.6296(13)
H39 H 0.0453 0.2226 0.6310
H40 H 0.0356 0.1085 0.6466
C59 C 0.089(5) 0.138(5) 0.5581(16)
H41 H 0.0170 0.1575 0.5431
H42 H 0.1379 0.1974 0.5501
C60 C 0.104(2) 0.083(2) 0.4958(12)
H43 H 0.1626 0.1188 0.4752
H44 H 0.0373 0.0804 0.4669
H45 H 0.1207 0.0165 0.5058
C61 C 0.203(2) -0.0324(18) 0.7984(14)
H46 H 0.2511 -0.0831 0.7915
H47 H 0.1518 -0.0303 0.7595
C62 C 0.140(3) -0.061(3) 0.8555(16)
H48 H 0.0675 -0.0822 0.8342
H49 H 0.1695 -0.1224 0.8693
C63 C 0.114(5) -0.018(5) 0.919(2)
H50 H 0.0870 0.0469 0.9143
H51 H 0.1753 -0.0156 0.9526
C64 C 0.025(5) -0.102(5) 0.929(3)
H52 H -0.0039 -0.0915 0.9697
H53 H 0.0545 -0.1655 0.9293
H54 H -0.0332 -0.1021 0.8940
C65 C 0.6977(19) 0.5149(16) 0.7742(10)
H55 H 0.7038 0.4440 0.7679
H56 H 0.6273 0.5225 0.7897
C66 C 0.790(2) 0.562(3) 0.8211(13)
H57 H 0.7724 0.6282 0.8336
H58 H 0.7940 0.5221 0.8601
C67 C 0.901(2) 0.575(3) 0.7970(13)
H59 H 0.8972 0.6066 0.7549
H60 H 0.9266 0.5091 0.7918
C68 C 0.982(2) 0.638(3) 0.8449(13)
H61 H 1.0250 0.5945 0.8709
H62 H 0.9420 0.6751 0.8727
H63 H 1.0285 0.6835 0.8217
C69 C 0.790(2) 0.4163(16) 0.6401(9)
H64 H 0.8171 0.4698 0.6715
H65 H 0.8055 0.4382 0.5969
C70 C 0.838(2) 0.3231(18) 0.6573(12)
H66 H 0.9119 0.3308 0.6438
H67 H 0.7969 0.2703 0.6299
C71 C 0.848(4) 0.284(3) 0.7244(15)
H68 H 0.7740 0.2634 0.7354
H69 H 0.8778 0.3395 0.7535
C72 C 0.914(3) 0.199(2) 0.7390(16)
H70 H 0.9123 0.1721 0.6956
H71 H 0.8939 0.1453 0.7679
H72 H 0.9874 0.2285 0.7532
H74? H 0.2188 0.2109 0.8794
H75? H 0.1708 0.3037 0.8516
C74? C 0.149(7) 0.280(7) 0.938(3)
H76? H 0.1729 0.2196 0.9579
H77? H 0.0834 0.2551 0.9101
C75? C 0.091(5) 0.309(4) 0.993(3)
H78? H 0.0167 0.3172 0.9740
H79? H 0.0840 0.2500 1.0199
C76? C 0.1223 0.3946 1.038(3)
H80? H 0.1733 0.3765 1.0734
H81? H 0.0589 0.4159 1.0555
H82? H 0.1564 0.4485 1.0142
H83? H 0.1513 0.1808 0.5450
H84? H 0.1077 0.0697 0.5565
C77? C -0.004(4) 0.145(4) 0.505(2)
H85? H -0.0255 0.2118 0.5045
H86? H -0.0648 0.0977 0.5128
H87? H 0.0206 0.1302 0.4634
H88? H 0.8204 0.4257 0.6854
H89? H 0.7932 0.4831 0.6218
C78? C 0.874(3) 0.366(3) 0.6085(15)
H90? H 0.9463 0.3995 0.6235
H91? H 0.8716 0.2971 0.6226
C79? C 0.860(3) 0.367(3) 0.5367(14)
H92? H 0.7835 0.3450 0.5247
H93? H 0.8704 0.4375 0.5254
C80? C 0.919(4) 0.316(3) 0.491(2)
H94? H 0.8718 0.2969 0.4515
H95? H 0.9440 0.2568 0.5107
H96? H 0.9806 0.3605 0.4800
O7? O -0.108(3) 0.013(2) 0.4579(14)
H97? H -0.1109 -0.0022 0.4189
C81? C -0.040(3) 0.102(3) 0.471(2)
H98? H -0.0765 0.1474 0.4950
H99? H -0.0223 0.1322 0.4306
H100? H 0.0264 0.0878 0.4961
loop_
_geom_bond_atom_site_label_1
_geom_bond_atom_site_label_2
_geom_bond_site_symmetry_1
_geom_bond_site_symmetry_2
Br1 C4 1_555 1_555
Br2 C9 1_555 1_555
Br3 C20 1_555 1_555
Br4 C25 1_555 1_555
Br5 C36 1_555 1_555
Br6 C41 1_555 1_555
C1 C2 1_555 1_555
C2 H1 1_555 1_555
C3 C2 1_555 1_555
C4 C3 1_555 1_555
C5 C4 1_555 1_555
H2 C5 1_555 1_555
C6 C1 1_555 1_555
C7 C6 1_555 1_555
C8 C7 1_555 1_555
H3 C8 1_555 1_555
C9 C8 1_555 1_555
C10 C9 1_555 1_555
C11 C10 1_555 1_555
H4 C11 1_555 1_555
C12 C7 1_555 1_555
C13 C12 1_555 1_555
C14 C1 1_555 1_555
C15 C3 1_555 1_555
H5 C15 1_555 1_555
C16 C15 1_555 1_555
H6 C16 1_555 1_555
C17 C18 1_555 1_555
C18 H7 1_555 1_555
C19 C16 1_555 1_555
C20 C19 1_555 1_555
C21 C20 1_555 1_555
H8 C21 1_555 1_555
C22 C17 1_555 1_555
C23 C22 1_555 1_555
C24 C23 1_555 1_555
H9 C24 1_555 1_555
C25 C24 1_555 1_555
C26 C25 1_555 1_555
C27 C26 1_555 1_555
H10 C27 1_555 1_555
C28 C23 1_555 1_555
C29 C28 1_555 1_555
C30 C17 1_555 1_555
C31 C26 1_555 1_555
H11 C31 1_555 1_555
C32 C31 1_555 1_555
H12 C32 1_555 1_555
C33 C34 1_555 1_555
C34 H13 1_555 1_555
C35 C32 1_555 1_555
C36 C35 1_555 1_555
C37 C36 1_555 1_555
H14 C37 1_555 1_555
C38 C33 1_555 1_555
C39 C38 1_555 1_555
C40 C39 1_555 1_555
H15 C40 1_555 1_555
C41 C40 1_555 1_555
C42 C41 1_555 1_555
C43 C42 1_555 1_555
H16 C43 1_555 1_555
C44 C39 1_555 1_555
C45 C44 1_555 1_555
C46 C33 1_555 1_555
C47 C42 1_555 1_555
H17 C47 1_555 1_555
C48 C10 1_555 1_555
H18 C48 1_555 1_555
O1 C13 1_555 1_555
O2 C14 1_555 1_555
O3 C29 1_555 1_555
O4 C30 1_555 1_555
O5 C45 1_555 1_555
O6 C46 1_555 1_555
C49 O1 1_555 1_555
H19 C49 1_555 1_555
H20 C49 1_555 1_555
C50 C49 1_555 1_555
H21 C50 1_555 1_555
H22 C50 1_555 1_555
C51 C50 1_555 1_555
H23 C51 1_555 1_555
H24 C51 1_555 1_555
C52 C51 1_555 1_555
H25 C52 1_555 1_555
H26 C52 1_555 1_555
H27 C52 1_555 1_555
C53 O2 1_555 1_555
H28 C53 1_555 1_555
H29 C53 1_555 1_555
C54 C53 1_555 1_555
H30 C54 1_555 1_555
H31 C54 1_555 1_555
C55 C54 1_555 1_555
H32 C55 1_555 1_555
H33 C55 1_555 1_555
C56 C55 1_555 1_555
H34 C56 1_555 1_555
H35 C56 1_555 1_555
H36 C56 1_555 1_555
C57 O3 1_555 1_555
H37 C57 1_555 1_555
H38 C57 1_555 1_555
C58 C57 1_555 1_555
H39 C58 1_555 1_555
H40 C58 1_555 1_555
C59 C58 1_555 1_555
H41 C59 1_555 1_555
H42 C59 1_555 1_555
C60 C59 1_555 1_555
H43 C60 1_555 1_555
H44 C60 1_555 1_555
H45 C60 1_555 1_555
C61 O4 1_555 1_555
H46 C61 1_555 1_555
H47 C61 1_555 1_555
C62 C61 1_555 1_555
H48 C62 1_555 1_555
H49 C62 1_555 1_555
C63 C62 1_555 1_555
H50 C63 1_555 1_555
H51 C63 1_555 1_555
C64 C63 1_555 1_555
H52 C64 1_555 1_555
H53 C64 1_555 1_555
H54 C64 1_555 1_555
C65 O5 1_555 1_555
H55 C65 1_555 1_555
H56 C65 1_555 1_555
C66 C65 1_555 1_555
H57 C66 1_555 1_555
H58 C66 1_555 1_555
C67 C66 1_555 1_555
H59 C67 1_555 1_555
H60 C67 1_555 1_555
C68 C67 1_555 1_555
H61 C68 1_555 1_555
H62 C68 1_555 1_555
H63 C68 1_555 1_555
C69 O6 1_555 1_555
H64 C69 1_555 1_555
H65 C69 1_555 1_555
C70 C69 1_555 1_555
H66 C70 1_555 1_555
H67 C70 1_555 1_555
C71 C70 1_555 1_555
H68 C71 1_555 1_555
H69 C71 1_555 1_555
C72 C71 1_555 1_555
H70 C72 1_555 1_555
H71 C72 1_555 1_555
H72 C72 1_555 1_555
Cl1 C73 1_555 1_555
Cl2 C73 1_555 1_555
Cl3 C73 1_555 1_555
C73 H73 1_555 1_555
C5 C6 1_555 1_555
C11 C12 1_555 1_555
C13 C14 1_555 1_555
C18 C19 1_555 1_555
C21 C22 1_555 1_555
C27 C28 1_555 1_555
C29 C30 1_555 1_555
C34 C35 1_555 1_555
C37 C38 1_555 1_555
C43 C44 1_555 1_555
C45 C46 1_555 1_555
C47 C48 1_555 1_555

#END
