
#######################################################################
#
#                 Cambridge Crystallographic Data Centre
#                                CCDC 
#
#######################################################################
#
# If this CIF has been generated from an entry in the Cambridge 
# Structural Database, then it will include bibliographic, chemical, 
# crystal, experimental, refinement or atomic coordinate data resulting 
# from the CCDC's data processing and validation procedures.
#
#######################################################################

data_ICACAT
_chemical_formula_moiety         'C96 H96 Br8 O8,C1 H2 Cl2'
_chemical_name_systematic        
'(2Z,5Z,8Z,11Z)-1^3^,1^6^,4^3^,4^6^,7^3^,7^6^,10^3^,10^6^-octabromo-1^9^,1^10^,4^9^,4^10^,7^9^,7^10^,10^9^,10^10^-octabutoxy-1,4,7,10(2,7)-tetraphenanthrenacyclododecaphane-2,5,8,11-tetraene dichloromethane solvate'
_symmetry_cell_setting           monoclinic
_symmetry_space_group_name_H-M   'C 2/c'
_symmetry_Int_Tables_number      15
_space_group_name_Hall           '-C 2yn'
loop_
_symmetry_equiv_pos_site_id
_symmetry_equiv_pos_as_xyz
1 x,y,z
2 -x,y,1/2-z
3 1/2+x,1/2+y,z
4 1/2-x,1/2+y,1/2-z
5 -x,-y,-z
6 x,-y,1/2+z
7 1/2-x,1/2-y,-z
8 1/2+x,1/2-y,1/2+z
_cell_length_a                   12.833(4)
_cell_length_b                   38.184(9)
_cell_length_c                   18.658(4)
_cell_angle_alpha                90
_cell_angle_beta                 103.77(4)
_cell_angle_gamma                90
_cell_volume                     8879.93
_exptl_crystal_colour            yellow
_exptl_crystal_description       block
_cell_formula_units_Z            4
loop_
_atom_site_label
_atom_site_type_symbol
_atom_site_fract_x
_atom_site_fract_y
_atom_site_fract_z
Br1 Br 0.62387(13) 0.81282(3) 0.59556(7)
Br2 Br 0.38186(16) 0.68405(2) 0.28799(5)
Br3 Br 0.2292(4) 0.39671(5) 0.63688(10)
Br4 Br 0.02407(6) 0.54086(2) 0.35817(4)
C1 C 0.2846(4) 0.68099(11) 0.5145(2)
C2 C 0.2482(4) 0.65463(12) 0.4615(2)
H1 H 0.2033 0.6367 0.4725
C3 C 0.2754(4) 0.65386(11) 0.3939(2)
C4 C 0.3405(4) 0.68138(11) 0.3797(2)
C5 C 0.3792(4) 0.70719(11) 0.4304(2)
H2 H 0.4236 0.7251 0.4185
C6 C 0.3539(4) 0.70742(10) 0.4999(2)
C7 C 0.3934(3) 0.73379(10) 0.5553(2)
C8 C 0.4739(4) 0.75804(11) 0.5489(2)
H3 H 0.5050 0.7569 0.5075
C9 C 0.5073(4) 0.78315(11) 0.6018(2)
C10 C 0.4619(4) 0.78687(10) 0.6630(2)
C11 C 0.3864(4) 0.76240(11) 0.6713(2)
H4 H 0.3562 0.7639 0.7130
C12 C 0.3526(4) 0.73523(11) 0.6193(2)
C13 C 0.2763(5) 0.70938(13) 0.6301(3)
C14 C 0.2476(5) 0.68243(13) 0.5818(3)
C15 C 0.4879(4) 0.81735(10) 0.7133(2)
H5 H 0.4871 0.8396 0.6904
C16 C 0.2315(4) 0.62749(12) 0.3371(2)
H6 H 0.2175 0.6358 0.2877
C17 C 0.2082(4) 0.59370(12) 0.3442(2)
H7 H 0.1682 0.5828 0.3005
C18 C 0.3669(4) 0.54640(11) 0.5151(2)
C19 C 0.3353(4) 0.57121(12) 0.4590(2)
H8 H 0.3843 0.5892 0.4543
C20 C 0.2354(4) 0.57061(11) 0.4101(2)
C21 C 0.1648(4) 0.54400(12) 0.4212(2)
C22 C 0.1928(4) 0.51923(11) 0.4752(2)
H9 H 0.1421 0.5019 0.4808
C23 C 0.2959(3) 0.51911(10) 0.5227(2)
C24 C 0.3331(4) 0.49120(11) 0.5752(2)
C25 C 0.2686(4) 0.46282(11) 0.5854(2)
H10 H 0.1952 0.4624 0.5597
C26 C 0.3099(5) 0.43577(12) 0.6317(3)
C27 C 0.4188(6) 0.43494(13) 0.6708(4)
C28 C 0.4810(5) 0.46332(13) 0.6625(4)
H11 H 0.5539 0.4637 0.6893
C29 C 0.4417(4) 0.49170(12) 0.6162(3)
C30 C 0.5085(4) 0.52141(13) 0.6107(4)
C31 C 0.4719(4) 0.54745(12) 0.5643(3)
C32 C 0.4647(7) 0.40457(14) 0.7174(4)
H12 H 0.4405 0.3822 0.6982
O1 O 0.2234(4) 0.71485(12) 0.6868(2)
C33 C 0.2619(8) 0.6902(3) 0.7475(4)
H13 H 0.3385 0.6949 0.7706
H14 H 0.2555 0.6659 0.7284
C34 C 0.1959(8) 0.6944(2) 0.8044(5)
H15 H 0.1187 0.6919 0.7804
H16 H 0.2157 0.6760 0.8426
C35 C 0.2163(9) 0.7295(2) 0.8390(5)
H17 H 0.2057 0.7477 0.8001
H18 H 0.2915 0.7309 0.8682
C36 C 0.1403(10) 0.7361(5) 0.8891(7)
H19 H 0.1563 0.7589 0.9131
H20 H 0.1497 0.7177 0.9267
H21 H 0.0661 0.7359 0.8596
O2 O 0.1843(4) 0.65521(10) 0.5963(2)
C37 C 0.0752(6) 0.66237(19) 0.5741(5)
H22 H 0.0554 0.6682 0.5208
H23 H 0.0571 0.6826 0.6020
C38 C 0.0131(6) 0.62954(18) 0.5888(4)
H24 H 0.0306 0.6248 0.6425
H25 H -0.0649 0.6342 0.5728
C39 C 0.0398(6) 0.59798(18) 0.5492(4)
H26 H 0.1177 0.5933 0.5653
H27 H 0.0223 0.6027 0.4955
C40 C -0.0225(7) 0.56552(19) 0.5644(4)
H28 H -0.0038 0.5454 0.5372
H29 H -0.0997 0.5700 0.5482
H30 H -0.0038 0.5604 0.6173
O3 O 0.5354(3) 0.57638(10) 0.5610(2)
C41 C 0.6137(8) 0.5774(3) 0.5217(6)
H31 H 0.5820 0.5701 0.4702
H32 H 0.6708 0.5605 0.5435
C42 C 0.6641(8) 0.6140(3) 0.5211(5)
H33 H 0.7015 0.6207 0.5720
H34 H 0.7176 0.6135 0.4907
C43 C 0.5826(5) 0.63947(16) 0.4917(5)
H35 H 0.5348 0.6429 0.5256
H36 H 0.5388 0.6317 0.4432
C44 C 0.6413(5) 0.67270(17) 0.4838(4)
H37 H 0.7186 0.6690 0.5023
H38 H 0.6175 0.6914 0.5122
H39 H 0.6261 0.6794 0.4317
O4 O 0.5939(5) 0.52310(17) 0.6757(4)
C45 C 0.6912(9) 0.5143(4) 0.6582(6)
H40 H 0.7140 0.5332 0.6289
H41 H 0.6836 0.4923 0.6293
C46 C 0.7748(10) 0.5097(3) 0.7339(6)
H42 H 0.7418 0.5098 0.7768
H43 H 0.8210 0.4888 0.7355
C47 C 0.832(2) 0.5441(3) 0.725(2)
H44 H 0.8988 0.5411 0.7634
H45 H 0.8535 0.5390 0.6781
C48 C 0.8269(12) 0.5841(3) 0.7204(8)
H46 H 0.8894 0.5930 0.7044
H47 H 0.8269 0.5937 0.7691
H48 H 0.7611 0.5913 0.6848
Br1A Br 0.37613(13) 0.81282(3) 0.90444(7)
Br2A Br 0.61814(16) 0.68405(2) 1.21201(5)
Br3A Br 0.7708(4) 0.39671(5) 0.86312(10)
Br4A Br 0.97593(6) 0.54086(2) 1.14183(4)
C1A C 0.7154(4) 0.68099(11) 0.9855(2)
C2A C 0.7518(4) 0.65463(12) 1.0385(2)
H1A H 0.7967 0.6367 1.0275
C3A C 0.7246(4) 0.65386(11) 1.1061(2)
C4A C 0.6595(4) 0.68138(11) 1.1203(2)
C5A C 0.6208(4) 0.70719(11) 1.0696(2)
H2A H 0.5764 0.7251 1.0815
C6A C 0.6461(4) 0.70742(10) 1.0001(2)
C7A C 0.6066(3) 0.73379(10) 0.9447(2)
C8A C 0.5261(4) 0.75804(11) 0.9511(2)
H3A H 0.4950 0.7569 0.9925
C9A C 0.4927(4) 0.78315(11) 0.8982(2)
C10A C 0.5381(4) 0.78687(10) 0.8370(2)
C11A C 0.6136(4) 0.76240(11) 0.8287(2)
H4A H 0.6438 0.7639 0.7870
C12A C 0.6474(4) 0.73523(11) 0.8807(2)
C13A C 0.7237(5) 0.70938(13) 0.8699(3)
C14A C 0.7524(5) 0.68243(13) 0.9182(3)
C15A C 0.5121(4) 0.81735(10) 0.7867(2)
H5A H 0.5129 0.8396 0.8096
C16A C 0.7685(4) 0.62749(12) 1.1629(2)
H6A H 0.7825 0.6358 1.2123
C17A C 0.7918(4) 0.59370(12) 1.1558(2)
H7A H 0.8318 0.5828 1.1995
C18A C 0.6331(4) 0.54640(11) 0.9849(2)
C19A C 0.6647(4) 0.57121(12) 1.0410(2)
H8A H 0.6157 0.5892 1.0457
C20A C 0.7646(4) 0.57061(11) 1.0899(2)
C21A C 0.8352(4) 0.54400(12) 1.0788(2)
C22A C 0.8072(4) 0.51923(11) 1.0248(2)
H9A H 0.8579 0.5019 1.0192
C23A C 0.7041(3) 0.51911(10) 0.9773(2)
C24A C 0.6669(4) 0.49120(11) 0.9248(2)
C25A C 0.7314(4) 0.46282(11) 0.9146(2)
H10A H 0.8048 0.4624 0.9403
C26A C 0.6901(5) 0.43577(12) 0.8683(3)
C27A C 0.5812(6) 0.43494(13) 0.8292(4)
C28A C 0.5190(5) 0.46332(13) 0.8375(4)
H11A H 0.4461 0.4637 0.8107
C29A C 0.5583(4) 0.49170(12) 0.8838(3)
C30A C 0.4915(4) 0.52141(13) 0.8893(4)
C31A C 0.5281(4) 0.54745(12) 0.9357(3)
C32A C 0.5353(7) 0.40457(14) 0.7826(4)
H12A H 0.5595 0.3822 0.8018
O1A O 0.7766(4) 0.71485(12) 0.8132(2)
C33A C 0.7381(8) 0.6902(3) 0.7525(4)
H13A H 0.6615 0.6949 0.7294
H14A H 0.7445 0.6659 0.7716
C34A C 0.8041(8) 0.6944(2) 0.6956(5)
H15A H 0.8813 0.6919 0.7196
H16A H 0.7843 0.6760 0.6574
C35A C 0.7837(9) 0.7295(2) 0.6610(5)
H17A H 0.7943 0.7477 0.6999
H18A H 0.7085 0.7309 0.6318
C36A C 0.8597(10) 0.7361(5) 0.6109(7)
H19A H 0.8437 0.7589 0.5869
H20A H 0.8503 0.7177 0.5733
H21A H 0.9339 0.7359 0.6404
O2A O 0.8157(4) 0.65521(10) 0.9037(2)
C37A C 0.9248(6) 0.66237(19) 0.9259(5)
H22A H 0.9446 0.6682 0.9792
H23A H 0.9429 0.6826 0.8980
C38A C 0.9869(6) 0.62954(18) 0.9112(4)
H24A H 0.9694 0.6248 0.8575
H25A H 1.0649 0.6342 0.9272
C39A C 0.9602(6) 0.59798(18) 0.9508(4)
H26A H 0.8823 0.5933 0.9347
H27A H 0.9777 0.6027 1.0045
C40A C 1.0225(7) 0.56552(19) 0.9356(4)
H28A H 1.0038 0.5454 0.9628
H29A H 1.0997 0.5700 0.9518
H30A H 1.0038 0.5604 0.8827
O3A O 0.4646(3) 0.57638(10) 0.9390(2)
C41A C 0.3863(8) 0.5774(3) 0.9783(6)
H31A H 0.4180 0.5701 1.0298
H32A H 0.3292 0.5605 0.9565
C42A C 0.3359(8) 0.6140(3) 0.9789(5)
H33A H 0.2985 0.6207 0.9280
H34A H 0.2824 0.6135 1.0093
C43A C 0.4174(5) 0.63947(16) 1.0083(5)
H35A H 0.4652 0.6429 0.9744
H36A H 0.4612 0.6317 1.0568
C44A C 0.3587(5) 0.67270(17) 1.0162(4)
H37A H 0.2814 0.6690 0.9977
H38A H 0.3825 0.6914 0.9878
H39A H 0.3739 0.6794 1.0683
O4A O 0.4061(5) 0.52310(17) 0.8243(4)
C45A C 0.3088(9) 0.5143(4) 0.8418(6)
H40A H 0.2860 0.5332 0.8711
H41A H 0.3164 0.4923 0.8707
C46A C 0.2252(10) 0.5097(3) 0.7661(6)
H42A H 0.2582 0.5098 0.7232
H43A H 0.1790 0.4888 0.7645
C47A C 0.168(2) 0.5441(3) 0.775(2)
H44A H 0.1012 0.5411 0.7366
H45A H 0.1465 0.5390 0.8219
C48A C 0.1731(12) 0.5841(3) 0.7796(8)
H46A H 0.1106 0.5930 0.7956
H47A H 0.1731 0.5937 0.7309
H48A H 0.2389 0.5913 0.8152
C49 C 0.5000 0.6683(9) 0.7500
Cl1 Cl 0.4880(10) 0.6459(3) 0.6712(8)
Cl1A Cl 0.5120(10) 0.6459(3) 0.8288(8)
Br5? Br 0.5916(8) 0.82040(19) 0.5747(5)
Br6? Br 0.3464(9) 0.6880(2) 0.2824(4)
Br7? Br 0.1932(3) 0.39976(5) 0.64292(10)
Br8? Br 0.0210(6) 0.5580(3) 0.3778(4)
O5? O 0.2732(12) 0.7060(4) 0.7071(7)
C50? C 0.3621(19) 0.6911(6) 0.7636(13)
H49? H 0.3291 0.6845 0.8046
H50? H 0.4092 0.7113 0.7820
C51? C 0.4409(14) 0.6605(4) 0.7594(10)
H51? H 0.3960 0.6475 0.7174
H52? H 0.4924 0.6734 0.7372
C52? C 0.5143(19) 0.6306(7) 0.7958(17)
H53? H 0.4760 0.6253 0.8347
H54? H 0.4867 0.6127 0.7576
C53? C 0.6186(10) 0.6118(4) 0.8318(8)
H55? H 0.6688 0.6136 0.7997
H56? H 0.6036 0.5870 0.8391
H57? H 0.6505 0.6226 0.8796
C54? C 0.5195(8) 0.6048(3) 0.6029(5)
H58? H 0.5378 0.5988 0.6561
H59? H 0.4438 0.6126 0.5887
C55? C 0.5940(8) 0.6331(3) 0.5866(5)
H60? H 0.6690 0.6266 0.6104
H61? H 0.5778 0.6554 0.6087
H62? H 0.6147 0.6195 0.4708
H63? H 0.5062 0.6415 0.4653
O6? O 0.6218(6) 0.52124(19) 0.6388(4)
C56? C 0.6340(8) 0.5353(3) 0.7127(6)
H64? H 0.5814 0.5243 0.7368
H65? H 0.6210 0.5609 0.7103
C57? C 0.7484(8) 0.5276(4) 0.7567(7)
H66? H 0.7565 0.5020 0.7647
H67? H 0.7600 0.5389 0.8056
C58? C 0.835(4) 0.5404(7) 0.718(3)
H68? H 0.8132 0.5398 0.6636
H69? H 0.9067 0.5301 0.7374
C59? C 0.8172(19) 0.5761(6) 0.7528(13)
H70? H 0.8203 0.5949 0.7177
H71? H 0.8734 0.5797 0.7980
H72? H 0.7469 0.5762 0.7647
H73? H 0.4365 0.6837 0.7440
H74? H 0.4365 0.6837 0.7440
Cl2? Cl 0.138(2) 0.7386(7) 0.8889(11)
Cl3? Cl 0.0964(8) 0.6750(2) 0.7994(6)
C60? C 0.1177(16) 0.7190(4) 0.8046(9)
H75? H 0.0552 0.7304 0.7714
H76? H 0.1810 0.7240 0.7847
Cl4? Cl 0.779(2) 0.5393(6) 0.7900(11)
H77? H 0.5966 0.5304 0.7379
C61? C 0.647(5) 0.550(3) 0.743(5)
H78? H 0.6433 0.5609 0.6937
Cl5? Cl 0.6249(13) 0.5817(9) 0.8075(8)
loop_
_geom_bond_atom_site_label_1
_geom_bond_atom_site_label_2
_geom_bond_site_symmetry_1
_geom_bond_site_symmetry_2
Br1 C9 1_555 1_555
Br2 C4 1_555 1_555
Br3 C26 1_555 1_555
Br4 C21 1_555 1_555
C1 C2 1_555 1_555
C2 H1 1_555 1_555
C3 C2 1_555 1_555
C4 C3 1_555 1_555
C5 C4 1_555 1_555
H2 C5 1_555 1_555
C6 C1 1_555 1_555
C7 C6 1_555 1_555
C8 C7 1_555 1_555
H3 C8 1_555 1_555
C9 C8 1_555 1_555
C10 C9 1_555 1_555
C11 C10 1_555 1_555
H4 C11 1_555 1_555
C12 C7 1_555 1_555
C13 C12 1_555 1_555
C14 C1 1_555 1_555
C15 C10 1_555 1_555
H5 C15 1_555 1_555
C16 C3 1_555 1_555
H6 C16 1_555 1_555
C17 C16 1_555 1_555
H7 C17 1_555 1_555
C18 C19 1_555 1_555
C19 H8 1_555 1_555
C20 C17 1_555 1_555
C21 C20 1_555 1_555
C22 C21 1_555 1_555
H9 C22 1_555 1_555
C23 C18 1_555 1_555
C24 C23 1_555 1_555
C25 C24 1_555 1_555
H10 C25 1_555 1_555
C26 C25 1_555 1_555
C27 C26 1_555 1_555
C28 C27 1_555 1_555
H11 C28 1_555 1_555
C29 C24 1_555 1_555
C30 C29 1_555 1_555
C31 C18 1_555 1_555
C32 C27 1_555 1_555
H12 C32 1_555 1_555
O1 C13 1_555 1_555
C33 O1 1_555 1_555
H13 C33 1_555 1_555
H14 C33 1_555 1_555
C34 C33 1_555 1_555
H15 C34 1_555 1_555
H16 C34 1_555 1_555
C35 C34 1_555 1_555
H17 C35 1_555 1_555
H18 C35 1_555 1_555
C36 C35 1_555 1_555
H19 C36 1_555 1_555
H20 C36 1_555 1_555
H21 C36 1_555 1_555
O2 C14 1_555 1_555
C37 O2 1_555 1_555
H22 C37 1_555 1_555
H23 C37 1_555 1_555
C38 C37 1_555 1_555
H24 C38 1_555 1_555
H25 C38 1_555 1_555
C39 C38 1_555 1_555
H26 C39 1_555 1_555
H27 C39 1_555 1_555
C40 C39 1_555 1_555
H28 C40 1_555 1_555
H29 C40 1_555 1_555
H30 C40 1_555 1_555
O3 C31 1_555 1_555
C41 O3 1_555 1_555
H31 C41 1_555 1_555
H32 C41 1_555 1_555
C42 C41 1_555 1_555
H33 C42 1_555 1_555
H34 C42 1_555 1_555
C43 C42 1_555 1_555
H35 C43 1_555 1_555
H36 C43 1_555 1_555
C44 C43 1_555 1_555
H37 C44 1_555 1_555
H38 C44 1_555 1_555
H39 C44 1_555 1_555
O4 C30 1_555 1_555
C45 O4 1_555 1_555
H40 C45 1_555 1_555
H41 C45 1_555 1_555
C46 C45 1_555 1_555
H42 C46 1_555 1_555
H43 C46 1_555 1_555
C47 C46 1_555 1_555
H44 C47 1_555 1_555
H45 C47 1_555 1_555
C48 C47 1_555 1_555
H46 C48 1_555 1_555
H47 C48 1_555 1_555
H48 C48 1_555 1_555
C49 Cl1 1_555 1_555
Br1A C9A 1_555 1_555
Br2A C4A 1_555 1_555
Br3A C26A 1_555 1_555
Br4A C21A 1_555 1_555
C1A C2A 1_555 1_555
C2A H1A 1_555 1_555
C3A C2A 1_555 1_555
C4A C3A 1_555 1_555
C5A C4A 1_555 1_555
H2A C5A 1_555 1_555
C6A C1A 1_555 1_555
C7A C6A 1_555 1_555
C8A C7A 1_555 1_555
H3A C8A 1_555 1_555
C9A C8A 1_555 1_555
C10A C9A 1_555 1_555
C11A C10A 1_555 1_555
H4A C11A 1_555 1_555
C12A C7A 1_555 1_555
C13A C12A 1_555 1_555
C14A C1A 1_555 1_555
C15A C15 1_555 1_555
H5A C15A 1_555 1_555
C16A C3A 1_555 1_555
H6A C16A 1_555 1_555
C17A C16A 1_555 1_555
H7A C17A 1_555 1_555
C18A C19A 1_555 1_555
C19A H8A 1_555 1_555
C20A C17A 1_555 1_555
C21A C20A 1_555 1_555
C22A C21A 1_555 1_555
H9A C22A 1_555 1_555
C23A C18A 1_555 1_555
C24A C23A 1_555 1_555
C25A C24A 1_555 1_555
H10A C25A 1_555 1_555
C26A C25A 1_555 1_555
C27A C26A 1_555 1_555
C28A C27A 1_555 1_555
H11A C28A 1_555 1_555
C29A C24A 1_555 1_555
C30A C29A 1_555 1_555
C31A C18A 1_555 1_555
C32A C32 1_555 1_555
H12A C32A 1_555 1_555
O1A C13A 1_555 1_555
C33A O1A 1_555 1_555
H13A C33A 1_555 1_555
H14A C33A 1_555 1_555
C34A C33A 1_555 1_555
H15A C34A 1_555 1_555
H16A C34A 1_555 1_555
C35A C34A 1_555 1_555
H17A C35A 1_555 1_555
H18A C35A 1_555 1_555
C36A C35A 1_555 1_555
H19A C36A 1_555 1_555
H20A C36A 1_555 1_555
H21A C36A 1_555 1_555
O2A C14A 1_555 1_555
C37A O2A 1_555 1_555
H22A C37A 1_555 1_555
H23A C37A 1_555 1_555
C38A C37A 1_555 1_555
H24A C38A 1_555 1_555
H25A C38A 1_555 1_555
C39A C38A 1_555 1_555
H26A C39A 1_555 1_555
H27A C39A 1_555 1_555
C40A C39A 1_555 1_555
H28A C40A 1_555 1_555
H29A C40A 1_555 1_555
H30A C40A 1_555 1_555
O3A C31A 1_555 1_555
C41A O3A 1_555 1_555
H31A C41A 1_555 1_555
H32A C41A 1_555 1_555
C42A C41A 1_555 1_555
H33A C42A 1_555 1_555
H34A C42A 1_555 1_555
C43A C42A 1_555 1_555
H35A C43A 1_555 1_555
H36A C43A 1_555 1_555
C44A C43A 1_555 1_555
H37A C44A 1_555 1_555
H38A C44A 1_555 1_555
H39A C44A 1_555 1_555
O4A C30A 1_555 1_555
C45A O4A 1_555 1_555
H40A C45A 1_555 1_555
H41A C45A 1_555 1_555
C46A C45A 1_555 1_555
H42A C46A 1_555 1_555
H43A C46A 1_555 1_555
C47A C46A 1_555 1_555
H44A C47A 1_555 1_555
H45A C47A 1_555 1_555
C48A C47A 1_555 1_555
H46A C48A 1_555 1_555
H47A C48A 1_555 1_555
H48A C48A 1_555 1_555
Cl1A C49 1_555 1_555
C5 C6 1_555 1_555
C11 C12 1_555 1_555
C13 C14 1_555 1_555
C19 C20 1_555 1_555
C22 C23 1_555 1_555
C28 C29 1_555 1_555
C30 C31 1_555 1_555
C5A C6A 1_555 1_555
C10A C15A 1_555 1_555
C11A C12A 1_555 1_555
C13A C14A 1_555 1_555
C19A C20A 1_555 1_555
C22A C23A 1_555 1_555
C27A C32A 1_555 1_555
C28A C29A 1_555 1_555
C30A C31A 1_555 1_555

#END
