
#######################################################################
#
#                 Cambridge Crystallographic Data Centre
#                                CCDC 
#
#######################################################################
#
# If this CIF has been generated from an entry in the Cambridge 
# Structural Database, then it will include bibliographic, chemical, 
# crystal, experimental, refinement or atomic coordinate data resulting 
# from the CCDC's data processing and validation procedures.
#
#######################################################################

data_ICACIB
_chemical_formula_moiety         'C48 H48 Br4 O4'
_chemical_name_systematic        
(2Z,5Z)-1^3^,1^6^,4^3^,4^6^-tetrabromo-1^9^,1^10^,4^9^,4^10^-tetrabutoxy-1,4(2,7)-diphenanthrenacyclohexaphane-2,5-diene
_symmetry_cell_setting           monoclinic
_symmetry_space_group_name_H-M   'P 21/c'
_symmetry_Int_Tables_number      14
_space_group_name_Hall           '-P 2ybc'
loop_
_symmetry_equiv_pos_site_id
_symmetry_equiv_pos_as_xyz
1 x,y,z
2 -x,1/2+y,1/2-z
3 -x,-y,-z
4 x,1/2-y,1/2+z
_cell_length_a                   14.689(4)
_cell_length_b                   12.756(4)
_cell_length_c                   23.281(7)
_cell_angle_alpha                90
_cell_angle_beta                 103.25(3)
_cell_angle_gamma                90
_cell_volume                     4246.1
_exptl_crystal_colour            colorless
_exptl_crystal_description       block
_cell_formula_units_Z            4
loop_
_atom_site_label
_atom_site_type_symbol
_atom_site_fract_x
_atom_site_fract_y
_atom_site_fract_z
Br1 Br 0.84281(2) -0.01353(2) 0.53980(2)
Br2 Br 1.09867(2) 0.17417(2) 0.30387(2)
Br3 Br 0.87982(2) 0.10634(2) 0.19278(2)
Br4 Br 0.60861(2) -0.06732(2) 0.41755(2)
O1 O 0.77979(11) 0.51473(12) 0.48841(7)
O2 O 0.85844(11) 0.57731(12) 0.39673(7)
O3 O 0.65887(11) 0.52716(12) 0.28378(7)
O4 O 0.57640(12) 0.45867(12) 0.38091(7)
C1 C 0.91744(16) 0.40175(17) 0.38863(10)
C2 C 0.94192(16) 0.42779(19) 0.33525(10)
H1 H 0.9273 0.4958 0.3191
C3 C 0.98627(16) 0.35800(19) 0.30567(10)
C4 C 1.01865(16) 0.26366(18) 0.33526(10)
C5 C 0.99210(16) 0.23318(18) 0.38608(10)
H2 H 1.0116 0.1671 0.4035
C6 C 0.93626(16) 0.29944(18) 0.41220(10)
C7 C 0.89085(16) 0.26521(18) 0.45832(10)
C8 C 0.89544(17) 0.16104(18) 0.47934(10)
H3 H 0.9402 0.1139 0.4702
C9 C 0.83550(17) 0.12779(18) 0.51292(10)
C10 C 0.76594(16) 0.19298(18) 0.52661(10)
C11 C 0.77142(16) 0.29810(18) 0.51350(10)
H4 H 0.7325 0.3464 0.5277
C12 C 0.83269(16) 0.33611(18) 0.47983(10)
C13 C 0.82922(16) 0.44477(18) 0.46230(10)
C14 C 0.86846(16) 0.47569(18) 0.41763(10)
C15 C 0.68121(17) 0.14898(18) 0.54321(11)
H5 H 0.6826 0.1335 0.5833
C16 C 0.60353(18) 0.13144(18) 0.50162(11)
H6 H 0.5497 0.1037 0.5123
C17 C 0.82842(17) 0.54425(19) 0.54786(10)
H7 H 0.8869 0.5819 0.5468
H8 H 0.8447 0.4808 0.5726
C18 C 0.76466(17) 0.61430(17) 0.57349(10)
H9 H 0.7929 0.6256 0.6159
H10 H 0.7041 0.5781 0.5704
C19 C 0.74665(17) 0.72033(18) 0.54312(10)
H11 H 0.7267 0.7098 0.4999
H12 H 0.8054 0.7614 0.5513
C20 C 0.67126(18) 0.7819(2) 0.56430(11)
H13 H 0.6647 0.8516 0.5461
H14 H 0.6892 0.7892 0.6073
H15 H 0.6116 0.7445 0.5531
C21 C 0.94192(17) 0.63888(18) 0.41844(11)
H16 H 0.9972 0.6013 0.4112
H17 H 0.9512 0.6501 0.4615
C22 C 0.93140(17) 0.74293(17) 0.38693(11)
H18 H 0.9153 0.7301 0.3438
H19 H 0.9923 0.7798 0.3966
C23 C 0.85725(19) 0.81390(18) 0.40242(12)
H20 H 0.8702 0.8225 0.4458
H21 H 0.7953 0.7800 0.3895
C24 C 0.8540(2) 0.9219(2) 0.37362(13)
H22 H 0.8106 0.9671 0.3885
H23 H 0.8326 0.9147 0.3307
H24 H 0.9166 0.9531 0.3832
C25 C 0.61924(16) 0.28606(18) 0.36480(10)
C26 C 0.59498(16) 0.25710(19) 0.41799(10)
H25 H 0.5739 0.3099 0.4406
C27 C 0.60070(16) 0.15507(19) 0.43836(10)
C28 C 0.61763(16) 0.07730(18) 0.39881(11)
C29 C 0.64382(16) 0.10210(18) 0.34762(10)
H26 H 0.6569 0.0477 0.3228
C30 C 0.65155(16) 0.20780(19) 0.33157(10)
C31 C 0.69892(16) 0.23902(18) 0.28566(10)
C32 C 0.74989(16) 0.16895(19) 0.25875(10)
H27 H 0.7430 0.0956 0.2633
C33 C 0.80973(16) 0.20599(19) 0.22587(10)
C34 C 0.82381(16) 0.31389(19) 0.21820(10)
C35 C 0.76519(16) 0.38166(18) 0.23875(10)
H28 H 0.7663 0.4539 0.2291
C36 C 0.70390(16) 0.34806(19) 0.27337(10)
C37 C 0.65601(16) 0.42366(18) 0.30154(10)
C38 C 0.61789(16) 0.39548(18) 0.34758(10)
C39 C 0.90862(17) 0.35375(19) 0.20069(10)
H29 H 0.9079 0.3645 0.1602
C40 C 0.98576(17) 0.37435(18) 0.24196(11)
H30 H 1.0403 0.3993 0.2310
C41 C 0.58637(17) 0.55260(19) 0.23227(10)
H31 H 0.5249 0.5558 0.2428
H32 H 0.5834 0.4982 0.2016
C42 C 0.60950(18) 0.65706(19) 0.20958(10)
H33 H 0.5649 0.6710 0.1715
H34 H 0.6729 0.6532 0.2018
C43 C 0.6066(2) 0.74913(19) 0.25094(11)
H35 H 0.6501 0.7355 0.2894
H36 H 0.5427 0.7556 0.2578
C44 C 0.6337(2) 0.8523(2) 0.22543(13)
H37 H 0.6279 0.9102 0.2521
H38 H 0.5920 0.8649 0.1867
H39 H 0.6984 0.8479 0.2212
C45 C 0.59504(17) 0.57082(17) 0.38465(10)
H40 H 0.5632 0.6063 0.3477
H41 H 0.6631 0.5845 0.3917
C46 C 0.55708(17) 0.60943(18) 0.43596(10)
H42 H 0.5641 0.6866 0.4386
H43 H 0.5953 0.5793 0.4729
C47 C 0.45470(17) 0.5819(2) 0.43185(11)
H44 H 0.4356 0.6113 0.4666
H45 H 0.4486 0.5047 0.4333
C48 C 0.38808(19) 0.6227(2) 0.37586(11)
H46 H 0.3233 0.6118 0.3788
H47 H 0.3992 0.5847 0.3415
H48 H 0.3992 0.6977 0.3714
loop_
_geom_bond_atom_site_label_1
_geom_bond_atom_site_label_2
_geom_bond_site_symmetry_1
_geom_bond_site_symmetry_2
Br1 C9 1_555 1_555
Br2 C4 1_555 1_555
Br3 C33 1_555 1_555
Br4 C28 1_555 1_555
O1 C13 1_555 1_555
O2 C14 1_555 1_555
O3 C37 1_555 1_555
O4 C38 1_555 1_555
C1 C2 1_555 1_555
C2 H1 1_555 1_555
C3 C2 1_555 1_555
C4 C3 1_555 1_555
C5 C4 1_555 1_555
H2 C5 1_555 1_555
C6 C1 1_555 1_555
C7 C6 1_555 1_555
C8 C7 1_555 1_555
H3 C8 1_555 1_555
C9 C8 1_555 1_555
C10 C9 1_555 1_555
C11 C10 1_555 1_555
H4 C11 1_555 1_555
C12 C7 1_555 1_555
C13 C12 1_555 1_555
C14 C1 1_555 1_555
C15 C10 1_555 1_555
H5 C15 1_555 1_555
C16 C15 1_555 1_555
H6 C16 1_555 1_555
C17 O1 1_555 1_555
H7 C17 1_555 1_555
H8 C17 1_555 1_555
C18 C17 1_555 1_555
H9 C18 1_555 1_555
H10 C18 1_555 1_555
C19 C18 1_555 1_555
H11 C19 1_555 1_555
H12 C19 1_555 1_555
C20 C19 1_555 1_555
H13 C20 1_555 1_555
H14 C20 1_555 1_555
H15 C20 1_555 1_555
C21 O2 1_555 1_555
H16 C21 1_555 1_555
H17 C21 1_555 1_555
C22 C21 1_555 1_555
H18 C22 1_555 1_555
H19 C22 1_555 1_555
C23 C22 1_555 1_555
H20 C23 1_555 1_555
H21 C23 1_555 1_555
C24 C23 1_555 1_555
H22 C24 1_555 1_555
H23 C24 1_555 1_555
H24 C24 1_555 1_555
C25 C26 1_555 1_555
C26 H25 1_555 1_555
C27 C16 1_555 1_555
C28 C27 1_555 1_555
C29 C28 1_555 1_555
H26 C29 1_555 1_555
C30 C25 1_555 1_555
C31 C30 1_555 1_555
C32 C31 1_555 1_555
H27 C32 1_555 1_555
C33 C32 1_555 1_555
C34 C33 1_555 1_555
C35 C34 1_555 1_555
H28 C35 1_555 1_555
C36 C31 1_555 1_555
C37 C36 1_555 1_555
C38 C25 1_555 1_555
C39 C34 1_555 1_555
H29 C39 1_555 1_555
C40 C3 1_555 1_555
H30 C40 1_555 1_555
C41 O3 1_555 1_555
H31 C41 1_555 1_555
H32 C41 1_555 1_555
C42 C41 1_555 1_555
H33 C42 1_555 1_555
H34 C42 1_555 1_555
C43 C42 1_555 1_555
H35 C43 1_555 1_555
H36 C43 1_555 1_555
C44 C43 1_555 1_555
H37 C44 1_555 1_555
H38 C44 1_555 1_555
H39 C44 1_555 1_555
C45 O4 1_555 1_555
H40 C45 1_555 1_555
H41 C45 1_555 1_555
C46 C45 1_555 1_555
H42 C46 1_555 1_555
H43 C46 1_555 1_555
C47 C46 1_555 1_555
H44 C47 1_555 1_555
H45 C47 1_555 1_555
C48 C47 1_555 1_555
H46 C48 1_555 1_555
H47 C48 1_555 1_555
H48 C48 1_555 1_555
C5 C6 1_555 1_555
C11 C12 1_555 1_555
C13 C14 1_555 1_555
C26 C27 1_555 1_555
C29 C30 1_555 1_555
C35 C36 1_555 1_555
C37 C38 1_555 1_555
C39 C40 1_555 1_555

#END
