
#######################################################################
#
#                 Cambridge Crystallographic Data Centre
#                                CCDC 
#
#######################################################################
#
# If this CIF has been generated from an entry in the Cambridge 
# Structural Database, then it will include bibliographic, chemical, 
# crystal, experimental, refinement or atomic coordinate data resulting 
# from the CCDC's data processing and validation procedures.
#
#######################################################################

data_ICAPOR08
_chemical_formula_moiety         'C19 H18 N2 O1'
_chemical_name_systematic        
2-(3-(2-(4-Hydroxyphenyl)vinyl)-5,5-dimethylcyclohex-2-en-1-ylidene)-malononitrile
_symmetry_cell_setting           orthorhombic
_symmetry_space_group_name_H-M   'P n a 21'
_symmetry_Int_Tables_number      33
_space_group_name_Hall           'P 2c -2n'
loop_
_symmetry_equiv_pos_site_id
_symmetry_equiv_pos_as_xyz
1 x,y,z
2 -x,-y,1/2+z
3 1/2+x,1/2-y,z
4 1/2-x,1/2+y,1/2+z
_cell_length_a                   15.393(3)
_cell_length_b                   10.798(2)
_cell_length_c                   9.5855(19)
_cell_angle_alpha                90
_cell_angle_beta                 90
_cell_angle_gamma                90
_cell_volume                     1593.24
_exptl_crystal_colour            red
_exptl_crystal_description       block
_chemical_melting_point          '485 K'
_cell_formula_units_Z            4
loop_
_atom_site_label
_atom_site_type_symbol
_atom_site_fract_x
_atom_site_fract_y
_atom_site_fract_z
O1 O 0.54710(12) -0.15451(18) -0.35328(18)
N1 N 0.58394(8) 0.22576(11) 0.72119(12)
N2 N 0.84148(8) 0.25414(11) 0.92338(12)
C1 C 0.59629(9) -0.11643(13) -0.24380(13)
C2 C 0.69237(8) -0.03859(13) -0.00973(13)
C3 C 0.68606(9) -0.13433(13) -0.24015(13)
C4 C 0.55473(10) -0.05929(15) -0.13164(14)
C5 C 0.73291(9) -0.09484(13) -0.12493(13)
C6 C 0.60199(9) -0.02086(14) -0.01610(15)
C7 C 0.74524(8) -0.00567(12) 0.11032(17)
C8 C 0.71662(9) 0.03305(13) 0.23688(13)
C9 C 0.77269(9) 0.06164(13) 0.35365(13)
C10 C 0.73668(9) 0.10472(14) 0.47466(14)
C11 C 0.78797(9) 0.14296(13) 0.59142(13)
C12 C 0.74971(8) 0.18921(14) 0.71020(14)
C13 C 0.65802(9) 0.20752(13) 0.71854(14)
C14 C 0.80026(10) 0.22568(14) 0.82796(14)
C15 C 0.91716(9) 0.03468(14) 0.48099(14)
C16 C 0.86969(8) 0.04639(13) 0.34051(13)
C17 C 0.88551(9) 0.13836(15) 0.57848(14)
C18 C 1.01502(10) 0.0513(2) 0.45755(16)
C19 C 0.90014(11) -0.09323(15) 0.54605(15)
H1 H 0.5833(2) -0.1875(3) -0.4274(3)
H2 H 0.7185(2) -0.1796(4) -0.3270(3)
H3 H 0.4847(2) -0.0436(5) -0.1351(4)
H4 H 0.80267(19) -0.1091(3) -0.1217(3)
H5 H 0.5678(2) 0.0245(4) 0.0693(4)
H6 H 0.81492(18) -0.0172(3) 0.0952(3)
H7 H 0.6476(2) 0.0447(4) 0.2546(3)
H8 H 0.66619(18) 0.1131(3) 0.4823(3)
H9 H 0.88518(19) -0.0360(3) 0.2777(3)
H10 H 0.8954(2) 0.1276(3) 0.2827(3)
H11 H 0.9060(2) 0.2290(3) 0.5362(4)
H12 H 0.9161(2) 0.1302(4) 0.6819(3)
H13 H 1.0491(2) 0.0469(5) 0.5574(4)
H14 H 1.0396(3) -0.0216(4) 0.3905(4)
H15 H 1.0298(2) 0.1406(4) 0.4104(4)
H16 H 0.9318(3) -0.1003(4) 0.6475(4)
H17 H 0.8309(3) -0.1104(3) 0.5600(4)
H18 H 0.9265(2) -0.1672(3) 0.4804(4)
loop_
_geom_bond_atom_site_label_1
_geom_bond_atom_site_label_2
_geom_bond_site_symmetry_1
_geom_bond_site_symmetry_2
O1 C1 1_555 1_555
N1 C13 1_555 1_555
N2 C14 1_555 1_555
C1 C3 1_555 1_555
C2 C5 1_555 1_555
C3 C5 1_555 1_555
C4 C1 1_555 1_555
C5 H4 1_555 1_555
C6 C2 1_555 1_555
C7 C2 1_555 1_555
C8 C7 1_555 1_555
C9 C8 1_555 1_555
C10 C9 1_555 1_555
C11 C10 1_555 1_555
C12 C11 1_555 1_555
C13 C12 1_555 1_555
C14 C12 1_555 1_555
C15 C16 1_555 1_555
C16 C9 1_555 1_555
C17 C11 1_555 1_555
C18 C15 1_555 1_555
C19 C15 1_555 1_555
H1 O1 1_555 1_555
H2 C3 1_555 1_555
H3 C4 1_555 1_555
H5 C6 1_555 1_555
H6 C7 1_555 1_555
H7 C8 1_555 1_555
H8 C10 1_555 1_555
H9 C16 1_555 1_555
H10 C16 1_555 1_555
H11 C17 1_555 1_555
H12 C17 1_555 1_555
H13 C18 1_555 1_555
H14 C18 1_555 1_555
H15 C18 1_555 1_555
H16 C19 1_555 1_555
H17 C19 1_555 1_555
H18 C19 1_555 1_555
C4 C6 1_555 1_555
C15 C17 1_555 1_555

#END
