
#######################################################################
#
#                 Cambridge Crystallographic Data Centre
#                                CCDC 
#
#######################################################################
#
# If this CIF has been generated from an entry in the Cambridge 
# Structural Database, then it will include bibliographic, chemical, 
# crystal, experimental, refinement or atomic coordinate data resulting 
# from the CCDC's data processing and validation procedures.
#
#######################################################################

data_ICAPOR06
_chemical_formula_moiety         'C19 H18 N2 O1'
_chemical_name_systematic        
2-(3-(2-(4-Hydroxyphenyl)vinyl)-5,5-dimethylcyclohex-2-en-1-ylidene)-malononitrile
_symmetry_cell_setting           orthorhombic
_symmetry_space_group_name_H-M   'P n a 21'
_symmetry_Int_Tables_number      33
_space_group_name_Hall           'P 2c -2n'
loop_
_symmetry_equiv_pos_site_id
_symmetry_equiv_pos_as_xyz
1 x,y,z
2 -x,-y,1/2+z
3 1/2+x,1/2-y,z
4 1/2-x,1/2+y,1/2+z
_cell_length_a                   15.399(5)
_cell_length_b                   10.820(4)
_cell_length_c                   9.613(3)
_cell_angle_alpha                90
_cell_angle_beta                 90
_cell_angle_gamma                90
_cell_volume                     1601.69
_exptl_crystal_colour            red
_exptl_crystal_description       block
_chemical_melting_point          '485 K'
_cell_formula_units_Z            4
loop_
_atom_site_label
_atom_site_type_symbol
_atom_site_fract_x
_atom_site_fract_y
_atom_site_fract_z
O1 O 0.54674(4) -0.15486(9) -0.35378(8)
N1 N 0.58388(5) 0.22558(5) 0.72047(7)
N2 N 0.84148(4) 0.25341(5) 0.92294(8)
C1 C 0.59630(3) -0.11697(5) -0.24453(7)
C2 C 0.69233(3) -0.03953(4) -0.00996(6)
C3 C 0.68620(3) -0.13441(5) -0.24067(7)
C4 C 0.55458(3) -0.05973(6) -0.13164(8)
C5 C 0.73308(3) -0.09523(4) -0.12492(7)
C6 C 0.60185(3) -0.02179(6) -0.01622(8)
C7 C 0.74523(3) -0.00633(3) 0.11033(6)
C8 C 0.71672(3) 0.03262(4) 0.236289
C9 C 0.77278(2) 0.06091(3) 0.35322(6)
C10 C 0.73659(3) 0.10441(3) 0.47402(6)
C11 C 0.78814(3) 0.14248(3) 0.59073(6)
C12 C 0.74961(3) 0.18884(3) 0.70953(6)
C13 C 0.65792(4) 0.20732(4) 0.71785(7)
C14 C 0.80001(4) 0.22519(4) 0.82732(7)
C15 C 0.91699(3) 0.03460(5) 0.48083(7)
C16 C 0.86960(3) 0.04597(5) 0.34044(7)
C17 C 0.88515(3) 0.13782(6) 0.57798(8)
C18 C 1.01474(4) 0.05105(9) 0.45713(9)
C19 C 0.89996(5) -0.09313(7) 0.54585(8)
H1 H 0.583288 -0.187508 -0.427427
H2 H 0.718491 -0.179567 -0.327009
H3 H 0.484684 -0.043614 -0.135102
H4 H 0.802665 -0.109057 -0.121699
H5 H 0.567796 0.024531 0.069336
H6 H 0.814917 -0.017233 0.095218
H7 H 0.647564 0.044728 0.254621
H8 H 0.66619 0.113067 0.482296
H9 H 0.88518 -0.036005 0.277722
H10 H 0.89536 0.127607 0.282657
H11 H 0.90598 0.229036 0.536214
H12 H 0.916101 0.130167 0.68194
H13 H 1.049085 0.046855 0.557393
H14 H 1.03964 -0.021635 0.390501
H15 H 1.029752 0.1406 0.410379
H16 H 0.931763 -0.100306 0.647458
H17 H 0.830942 -0.110425 0.560032
H18 H 0.926476 -0.16725 0.480447
loop_
_geom_bond_atom_site_label_1
_geom_bond_atom_site_label_2
_geom_bond_site_symmetry_1
_geom_bond_site_symmetry_2
O1 C1 1_555 1_555
N1 C13 1_555 1_555
N2 C14 1_555 1_555
C1 C3 1_555 1_555
C2 C5 1_555 1_555
C3 C5 1_555 1_555
C4 C1 1_555 1_555
C5 H4 1_555 1_555
C6 C2 1_555 1_555
C7 C2 1_555 1_555
C8 C7 1_555 1_555
C9 C8 1_555 1_555
C10 C9 1_555 1_555
C11 C10 1_555 1_555
C12 C11 1_555 1_555
C13 C12 1_555 1_555
C14 C12 1_555 1_555
C15 C16 1_555 1_555
C16 C9 1_555 1_555
C17 C11 1_555 1_555
C18 C15 1_555 1_555
C19 C15 1_555 1_555
H1 O1 1_555 1_555
H2 C3 1_555 1_555
H3 C4 1_555 1_555
H5 C6 1_555 1_555
H6 C7 1_555 1_555
H7 C8 1_555 1_555
H8 C10 1_555 1_555
H9 C16 1_555 1_555
H10 C16 1_555 1_555
H11 C17 1_555 1_555
H12 C17 1_555 1_555
H13 C18 1_555 1_555
H14 C18 1_555 1_555
H15 C18 1_555 1_555
H16 C19 1_555 1_555
H17 C19 1_555 1_555
H18 C19 1_555 1_555
C4 C6 1_555 1_555
C15 C17 1_555 1_555

#END
