
#######################################################################
#
#                 Cambridge Crystallographic Data Centre
#                                CCDC 
#
#######################################################################
#
# If this CIF has been generated from an entry in the Cambridge 
# Structural Database, then it will include bibliographic, chemical, 
# crystal, experimental, refinement or atomic coordinate data resulting 
# from the CCDC's data processing and validation procedures.
#
#######################################################################

data_ICAPOR07
_chemical_formula_moiety         'C19 H18 N2 O1'
_chemical_name_systematic        
2-(3-(2-(4-Hydroxyphenyl)vinyl)-5,5-dimethylcyclohex-2-en-1-ylidene)-malononitrile
_symmetry_cell_setting           orthorhombic
_symmetry_space_group_name_H-M   'P n a 21'
_symmetry_Int_Tables_number      33
_space_group_name_Hall           'P 2c -2n'
loop_
_symmetry_equiv_pos_site_id
_symmetry_equiv_pos_as_xyz
1 x,y,z
2 -x,-y,1/2+z
3 1/2+x,1/2-y,z
4 1/2-x,1/2+y,1/2+z
_cell_length_a                   15.37110(10)
_cell_length_b                   10.74780(10)
_cell_length_c                   9.58260(10)
_cell_angle_alpha                90
_cell_angle_beta                 90
_cell_angle_gamma                90
_cell_volume                     1583.1
_exptl_crystal_colour            red
_exptl_crystal_description       block
_chemical_melting_point          '485 K'
_cell_formula_units_Z            4
loop_
_atom_site_label
_atom_site_type_symbol
_atom_site_fract_x
_atom_site_fract_y
_atom_site_fract_z
O1 O 0.95312(5) 0.34545(9) 0.27381(9)
H1 H 0.9197(12) 0.3185(18) 0.341(2)
N1 N 0.91585(7) 0.72556(11) -0.80058(13)
N2 N 0.65832(8) 0.75400(11) -1.00268(12)
C1 C 0.90319(7) 0.38320(11) 0.16390(12)
C2 C 0.81385(8) 0.36548(10) 0.16041(11)
H2 H 0.7850 0.3265 0.2364
C3 C 0.76708(7) 0.40518(10) 0.04505(11)
H3 H 0.7058 0.3942 0.0440
C4 C 0.80753(7) 0.46097(9) -0.06988(11)
C5 C 0.89817(7) 0.47872(11) -0.06335(13)
H4 H 0.9274 0.5175 -0.1391
C6 C 0.94512(7) 0.44054(12) 0.05159(13)
H5 H 1.0063 0.4533 0.0544
C7 C 0.75488(7) 0.49429(10) -0.19051(12)
H6 H 0.6936 0.4882 -0.1791
C8 C 0.78290(7) 0.53270(10) -0.31620(12)
H7 H 0.8439 0.5416 -0.3289
C9 C 0.72733(7) 0.56139(9) -0.43324(11)
C10 C 0.63015(7) 0.54601(10) -0.42014(11)
H8 H 0.6063 0.6185 -0.3692
H9 H 0.6180 0.4708 -0.3638
C11 C 0.58290(7) 0.53422(10) -0.56105(11)
C12 C 0.48495(7) 0.55135(14) -0.53694(13)
H10 H 0.4544 0.5472 -0.6266
H11 H 0.4744 0.6325 -0.4935
H12 H 0.4635 0.4853 -0.4754
C13 C 0.59971(8) 0.40658(12) -0.62613(13)
H13 H 0.5722 0.4027 -0.7183
H14 H 0.5752 0.3417 -0.5660
H15 H 0.6625 0.3935 -0.6358
C14 C 0.61462(7) 0.63827(11) -0.65789(12)
H16 H 0.5891 0.6259 -0.7517
H17 H 0.5936 0.7192 -0.6218
C15 C 0.71193(7) 0.64263(10) -0.67066(11)
C16 C 0.76324(7) 0.60443(10) -0.55412(12)
H18 H 0.8248 0.6092 -0.5610
C17 C 0.75012(7) 0.68898(10) -0.78936(11)
C18 C 0.84233(8) 0.70781(11) -0.79803(12)
C19 C 0.69958(8) 0.72581(10) -0.90792(12)
loop_
_geom_bond_atom_site_label_1
_geom_bond_atom_site_label_2
_geom_bond_site_symmetry_1
_geom_bond_site_symmetry_2
O1 H1 1_555 1_555
N1 C18 1_555 1_555
N2 C19 1_555 1_555
C1 O1 1_555 1_555
C2 C1 1_555 1_555
H2 C2 1_555 1_555
C3 C2 1_555 1_555
H3 C3 1_555 1_555
C4 C3 1_555 1_555
C5 C4 1_555 1_555
H4 C5 1_555 1_555
C6 C1 1_555 1_555
H5 C6 1_555 1_555
C7 C4 1_555 1_555
H6 C7 1_555 1_555
C8 C7 1_555 1_555
H7 C8 1_555 1_555
C9 C8 1_555 1_555
C10 C9 1_555 1_555
H8 C10 1_555 1_555
H9 C10 1_555 1_555
C11 C10 1_555 1_555
C12 C11 1_555 1_555
H10 C12 1_555 1_555
H11 C12 1_555 1_555
H12 C12 1_555 1_555
C13 C11 1_555 1_555
H13 C13 1_555 1_555
H14 C13 1_555 1_555
H15 C13 1_555 1_555
C14 C11 1_555 1_555
H16 C14 1_555 1_555
H17 C14 1_555 1_555
C15 C14 1_555 1_555
C16 C9 1_555 1_555
H18 C16 1_555 1_555
C17 C15 1_555 1_555
C18 C17 1_555 1_555
C19 C17 1_555 1_555
C5 C6 1_555 1_555
C15 C16 1_555 1_555

#END
