
#######################################################################
#
#                 Cambridge Crystallographic Data Centre
#                                CCDC 
#
#######################################################################
#
# If this CIF has been generated from an entry in the Cambridge 
# Structural Database, then it will include bibliographic, chemical, 
# crystal, experimental, refinement or atomic coordinate data resulting 
# from the CCDC's data processing and validation procedures.
#
#######################################################################

data_ICAQOT
_chemical_formula_moiety         'C19 H18 Br1 N5 O1 S1'
_chemical_name_systematic        
4-((4-bromophenyl)(((methylamino)carbonothioyl)hydrazono)methyl)-5-methyl-2-phenyl-1,2-dihydro-3H-pyrazol-3-one
_symmetry_cell_setting           monoclinic
_symmetry_space_group_name_H-M   'P 21/c'
_symmetry_Int_Tables_number      14
_space_group_name_Hall           '-P 2ybc'
loop_
_symmetry_equiv_pos_site_id
_symmetry_equiv_pos_as_xyz
1 x,y,z
2 -x,1/2+y,1/2-z
3 -x,-y,-z
4 x,1/2-y,1/2+z
_cell_length_a                   10.484(3)
_cell_length_b                   15.139(3)
_cell_length_c                   12.401(4)
_cell_angle_alpha                90
_cell_angle_beta                 102.19(2)
_cell_angle_gamma                90
_cell_volume                     1923.87
_exptl_crystal_colour            'white or yellow'
_exptl_crystal_description       plate
_chemical_melting_point          '172-173 deg.C'
_cell_formula_units_Z            4
_chemical_properties_physical    light-sensitive
_exptl_crystal_preparation       'white/yellow photochromic'
loop_
_atom_site_label
_atom_site_type_symbol
_atom_site_fract_x
_atom_site_fract_y
_atom_site_fract_z
Br1 Br 1.05963(4) 0.07097(3) 0.36669(4)
S1 S 0.12158(7) 0.34340(5) 0.32568(7)
O1 O 0.42542(17) 0.35732(13) 0.60269(15)
N1 N 0.5918(2) 0.46005(14) 0.65406(18)
N2 N 0.7084(2) 0.47673(14) 0.62384(18)
H1 H 0.7640 0.5163 0.6530
N3 N 0.4863(2) 0.26872(14) 0.37568(17)
N4 N 0.3733(2) 0.31137(14) 0.38528(17)
H2 H 0.3736 0.3497 0.4365
N5 N 0.2693(2) 0.23637(15) 0.23181(18)
H3 H 0.3438 0.2122 0.2331
C1 C 0.4261(3) 0.5102(2) 0.7495(2)
H4 H 0.3623 0.4854 0.6941
C2 C 0.3918(3) 0.5541(2) 0.8366(3)
H5 H 0.3043 0.5579 0.8405
C3 C 0.4847(4) 0.5923(2) 0.9176(3)
H6 H 0.4606 0.6229 0.9751
C4 C 0.6137(3) 0.5846(2) 0.9127(3)
H7 H 0.6770 0.6104 0.9676
C5 C 0.6515(3) 0.53949(19) 0.8280(2)
H8 H 0.7394 0.5335 0.8266
C6 C 0.5569(3) 0.50343(18) 0.7456(2)
C7 C 0.5311(3) 0.38990(18) 0.5917(2)
C8 C 0.6160(2) 0.36598(17) 0.5190(2)
C9 C 0.7221(2) 0.42237(17) 0.5425(2)
C10 C 0.8401(3) 0.43252(19) 0.4935(3)
H9 H 0.8696 0.4927 0.5012
H10 H 0.8182 0.4171 0.4167
H11 H 0.9081 0.3943 0.5312
C11 C 0.5958(2) 0.29481(17) 0.4373(2)
C12 C 0.7103(2) 0.24285(17) 0.4203(2)
C13 C 0.7303(3) 0.22701(18) 0.3152(2)
H12 H 0.6724 0.2500 0.2544
C14 C 0.8352(3) 0.17751(18) 0.3000(2)
H13 H 0.8496 0.1685 0.2293
C15 C 0.9189(3) 0.14131(18) 0.3899(3)
C16 C 0.9012(3) 0.15524(18) 0.4944(3)
H14 H 0.9575 0.1302 0.5546
C17 C 0.7976(2) 0.20741(17) 0.5093(2)
H15 H 0.7866 0.2188 0.5804
C18 C 0.2610(2) 0.29149(17) 0.3119(2)
C19 C 0.1626(3) 0.2133(2) 0.1415(2)
H16 H 0.0824 0.2127 0.1672
H17 H 0.1779 0.1558 0.1141
H18 H 0.1568 0.2560 0.0835
loop_
_geom_bond_atom_site_label_1
_geom_bond_atom_site_label_2
_geom_bond_site_symmetry_1
_geom_bond_site_symmetry_2
Br1 C15 1_555 1_555
S1 C18 1_555 1_555
O1 C7 1_555 1_555
N1 N2 1_555 1_555
N2 H1 1_555 1_555
N3 N4 1_555 1_555
N4 H2 1_555 1_555
N5 H3 1_555 1_555
C1 H4 1_555 1_555
C2 C1 1_555 1_555
H5 C2 1_555 1_555
C3 C2 1_555 1_555
H6 C3 1_555 1_555
C4 C3 1_555 1_555
H7 C4 1_555 1_555
C5 C4 1_555 1_555
H8 C5 1_555 1_555
C6 N1 1_555 1_555
C7 N1 1_555 1_555
C8 C7 1_555 1_555
C9 N2 1_555 1_555
C10 C9 1_555 1_555
H9 C10 1_555 1_555
H10 C10 1_555 1_555
H11 C10 1_555 1_555
C11 N3 1_555 1_555
C12 C11 1_555 1_555
C13 C12 1_555 1_555
H12 C13 1_555 1_555
C14 C13 1_555 1_555
H13 C14 1_555 1_555
C15 C14 1_555 1_555
C16 C15 1_555 1_555
H14 C16 1_555 1_555
C17 C12 1_555 1_555
H15 C17 1_555 1_555
C18 N4 1_555 1_555
C19 N5 1_555 1_555
H16 C19 1_555 1_555
H17 C19 1_555 1_555
H18 C19 1_555 1_555
N5 C18 1_555 1_555
C1 C6 1_555 1_555
C5 C6 1_555 1_555
C8 C9 1_555 1_555
C8 C11 1_555 1_555
C16 C17 1_555 1_555

#END
