
#######################################################################
#
#                 Cambridge Crystallographic Data Centre
#                                CCDC 
#
#######################################################################
#
# If this CIF has been generated from an entry in the Cambridge 
# Structural Database, then it will include bibliographic, chemical, 
# crystal, experimental, refinement or atomic coordinate data resulting 
# from the CCDC's data processing and validation procedures.
#
#######################################################################

data_ICAVAJ
_chemical_formula_moiety         'C38 H30 N2'
_chemical_name_systematic        (E)-4,4'-bis(Diphenylamino)stilbene
_symmetry_cell_setting           triclinic
_symmetry_space_group_name_H-M   'P -1'
_symmetry_Int_Tables_number      2
_space_group_name_Hall           '-P 1'
loop_
_symmetry_equiv_pos_site_id
_symmetry_equiv_pos_as_xyz
1 x,y,z
2 -x,-y,-z
_cell_length_a                   10.6231(12)
_cell_length_b                   11.3337(10)
_cell_length_c                   12.491(3)
_cell_angle_alpha                73.503(9)
_cell_angle_beta                 89.978(10)
_cell_angle_gamma                79.759(8)
_cell_volume                     1417.02
_exptl_crystal_colour            yellow
_exptl_crystal_description       plate
_chemical_melting_point          255.9deg.C
_cell_formula_units_Z            2
loop_
_atom_site_label
_atom_site_type_symbol
_atom_site_fract_x
_atom_site_fract_y
_atom_site_fract_z
N1 N 0.3702(2) 0.6931(2) 0.19570(18)
C1 C 0.3367(5) 0.3869(4) 0.3873(3)
H1 H 0.3667 0.3370 0.4586
C2 C 0.2559(5) 0.3470(4) 0.3272(4)
H2 H 0.2306 0.2702 0.3563
C3 C 0.2129(4) 0.4218(4) 0.2236(4)
H3 H 0.1574 0.3957 0.1814
C4 C 0.2499(3) 0.5360(3) 0.1797(3)
H4 H 0.2188 0.5859 0.1087
C5 C 0.3319(3) 0.5761(2) 0.2400(2)
C6 C 0.3753(3) 0.5006(3) 0.3444(3)
H5 H 0.4312 0.5260 0.3869
C7 C 0.3905(3) 0.7640(2) 0.2698(2)
C8 C 0.2953(3) 0.7991(3) 0.3344(2)
H6 H 0.2161 0.7759 0.3307
C9 C 0.3160(3) 0.8685(3) 0.4050(2)
H7 H 0.2499 0.8910 0.4483
C10 C 0.4314(3) 0.9057(2) 0.41364(19)
C11 C 0.5276(3) 0.8690(2) 0.34813(19)
H8 H 0.6069 0.8921 0.3516
C12 C 0.5075(3) 0.7988(2) 0.2779(2)
H9 H 0.5737 0.7746 0.2355
C13 C 0.4010(3) 0.7370(2) 0.0829(2)
C14 C 0.3800(3) 0.8634(2) 0.0289(2)
H10 H 0.3441 0.9198 0.0670
C15 C 0.4109(3) 0.9077(3) -0.0800(2)
H11 H 0.3981 0.9936 -0.1140
C16 C 0.4598(3) 0.8281(3) -0.1387(2)
H12 H 0.4781 0.8588 -0.2132
C17 C 0.4816(3) 0.7033(3) -0.0877(3)
H13 H 0.5149 0.6480 -0.1277
C18 C 0.4550(3) 0.6568(3) 0.0236(2)
H14 H 0.4736 0.5710 0.0584
C19 C 0.4482(3) 0.9798(3) 0.4899(2)
H29 H 0.376(3) 0.995(2) 0.527(2)
C19A C 0.5518(3) 1.0202(3) 0.5101(2)
C10A C 0.5686(3) 1.0943(2) 0.58636(19)
C9A C 0.6840(3) 1.1315(3) 0.5950(2)
C8A C 0.7047(3) 1.2009(3) 0.6656(2)
C7A C 0.6095(3) 1.2360(2) 0.7302(2)
N1A N 0.6298(2) 1.3069(2) 0.80430(18)
C5A C 0.6681(3) 1.4239(2) 0.7600(2)
C4A C 0.7501(3) 1.4640(3) 0.8203(3)
C3A C 0.7871(4) 1.5782(4) 0.7764(4)
C2A C 0.7441(5) 1.6530(4) 0.6728(4)
C1A C 0.6633(5) 1.6131(4) 0.6127(3)
H1A H 0.6333 1.6630 0.5414
C6A C 0.6247(3) 1.4994(3) 0.6556(3)
H5A H 0.5688 1.4740 0.6131
H2A H 0.7694 1.7298 0.6437
H3A H 0.8426 1.6043 0.8186
H4A H 0.7812 1.4141 0.8913
C13A C 0.5990(3) 1.2630(2) 0.9171(2)
C14A C 0.6200(3) 1.1366(2) 0.9711(2)
H10A H 0.6559 1.0802 0.9330
C15A C 0.5891(3) 1.0923(3) 1.0800(2)
H11A H 0.6019 1.0064 1.1140
C16A C 0.5402(3) 1.1719(3) 1.1387(2)
H12A H 0.5219 1.1412 1.2132
C17A C 0.5184(3) 1.2967(3) 1.0877(3)
H13A H 0.4851 1.3520 1.1277
C18A C 0.5450(3) 1.3432(3) 0.9764(2)
H14A H 0.5264 1.4290 0.9416
C12A C 0.4925(3) 1.2012(2) 0.7221(2)
C11A C 0.4724(3) 1.1310(2) 0.65187(19)
H8A H 0.3931 1.1079 0.6484
H9A H 0.4263 1.2254 0.7645
H6A H 0.7839 1.2241 0.6693
H7A H 0.7501 1.1090 0.5517
H29A H 0.624(3) 1.005(2) 0.473(2)
N2 N 0.1278(2) 0.3108(2) 0.79913(19)
C20 C 0.0025(3) 0.0606(3) 0.4876(2)
C21 C 0.0430(3) 0.1245(3) 0.5654(2)
C22 C 0.0113(3) 0.2542(3) 0.5405(2)
H15 H -0.0288 0.3000 0.4713
C23 C 0.0377(3) 0.3174(3) 0.6159(2)
H16 H 0.0128 0.4039 0.5977
C24 C 0.1008(3) 0.2518(3) 0.7175(2)
C25 C 0.1371(3) 0.1229(2) 0.7409(2)
H17 H 0.1815 0.0773 0.8083
C26 C 0.1088(3) 0.0613(3) 0.6667(2)
H18 H 0.1345 -0.0252 0.6850
C27 C 0.1672(3) 0.4293(3) 0.7693(3)
C28 C 0.2347(3) 0.4664(3) 0.6746(3)
H19 H 0.2524 0.4146 0.6284
C29 C 0.2757(3) 0.5792(3) 0.6483(3)
H20 H 0.3202 0.6039 0.5840
C30 C 0.2515(5) 0.6547(4) 0.7160(4)
H21 H 0.2803 0.7304 0.6982
C31 C 0.1850(4) 0.6203(4) 0.8103(4)
H22 H 0.1687 0.6725 0.8562
C32 C 0.1419(3) 0.5072(3) 0.8372(3)
H23 H 0.0962 0.4838 0.9008
C33 C 0.1162(4) 0.2452(3) 0.9139(3)
C34 C 0.0071(3) 0.1980(3) 0.9469(3)
H24 H -0.0602 0.2111 0.8949
C35 C -0.0032(4) 0.1315(3) 1.0567(3)
H25 H -0.0775 0.1003 1.0781
C36 C 0.0947(4) 0.1112(3) 1.1341(3)
H26 H 0.0871 0.0665 1.2080
C37 C 0.2036(4) 0.1566(3) 1.1027(3)
H27 H 0.2702 0.1427 1.1556
C38 C 0.2164(3) 0.2235(3) 0.9927(3)
H28 H 0.2915 0.2535 0.9719
H30 H -0.022(3) 0.118(2) 0.414(2)
C20A C -0.0025(3) -0.0606(3) 0.5124(2)
C21A C -0.0430(3) -0.1245(3) 0.4346(2)
C22A C -0.0113(3) -0.2542(3) 0.4595(2)
H15A H 0.0288 -0.3000 0.5287
C23A C -0.0377(3) -0.3174(3) 0.3841(2)
H16A H -0.0128 -0.4039 0.4023
C24A C -0.1008(3) -0.2518(3) 0.2825(2)
N2A N -0.1278(2) -0.3108(2) 0.20087(19)
C27A C -0.1672(3) -0.4293(3) 0.2307(3)
C28A C -0.2347(3) -0.4664(3) 0.3254(3)
H19A H -0.2524 -0.4146 0.3716
C29A C -0.2757(3) -0.5792(3) 0.3517(3)
H20A H -0.3202 -0.6039 0.4160
C30A C -0.2515(5) -0.6547(4) 0.2840(4)
H21A H -0.2803 -0.7304 0.3018
C31A C -0.1850(4) -0.6203(4) 0.1897(4)
H22A H -0.1687 -0.6725 0.1438
C32A C -0.1419(3) -0.5072(3) 0.1628(3)
H23A H -0.0962 -0.4838 0.0992
C33A C -0.1162(4) -0.2452(3) 0.0861(3)
C34A C -0.0071(3) -0.1980(3) 0.0531(3)
H24A H 0.0602 -0.2111 0.1051
C35A C 0.0032(4) -0.1315(3) -0.0567(3)
H25A H 0.0775 -0.1003 -0.0781
C36A C -0.0947(4) -0.1112(3) -0.1341(3)
H26A H -0.0871 -0.0665 -0.2080
C37A C -0.2036(4) -0.1566(3) -0.1027(3)
H27A H -0.2702 -0.1427 -0.1556
C38A C -0.2164(3) -0.2235(3) 0.0073(3)
H28A H -0.2915 -0.2535 0.0281
C25A C -0.1371(3) -0.1229(2) 0.2591(2)
H17A H -0.1815 -0.0773 0.1917
C26A C -0.1088(3) -0.0613(3) 0.3333(2)
H18A H -0.1345 0.0252 0.3150
H30A H 0.022(3) -0.118(2) 0.586(2)
loop_
_geom_bond_atom_site_label_1
_geom_bond_atom_site_label_2
_geom_bond_site_symmetry_1
_geom_bond_site_symmetry_2
N1 C5 1_555 1_555
N2 C24 1_555 1_555
C1 H1 1_555 1_555
C2 C1 1_555 1_555
H2 C2 1_555 1_555
C3 C2 1_555 1_555
H3 C3 1_555 1_555
C4 C3 1_555 1_555
H4 C4 1_555 1_555
C5 C4 1_555 1_555
C6 C1 1_555 1_555
H5 C6 1_555 1_555
C7 N1 1_555 1_555
C8 C7 1_555 1_555
H6 C8 1_555 1_555
C9 C8 1_555 1_555
H7 C9 1_555 1_555
C10 C9 1_555 1_555
C11 C10 1_555 1_555
H8 C11 1_555 1_555
C12 C7 1_555 1_555
H9 C12 1_555 1_555
C13 N1 1_555 1_555
C14 C13 1_555 1_555
H10 C14 1_555 1_555
C15 C14 1_555 1_555
H11 C15 1_555 1_555
C16 C15 1_555 1_555
H12 C16 1_555 1_555
C17 C16 1_555 1_555
H13 C17 1_555 1_555
C18 C13 1_555 1_555
H14 C18 1_555 1_555
C19 C10 1_555 1_555
C20 C21 1_555 1_555
C21 C22 1_555 1_555
C22 H15 1_555 1_555
C23 C22 1_555 1_555
H16 C23 1_555 1_555
C24 C23 1_555 1_555
C25 C24 1_555 1_555
H17 C25 1_555 1_555
C26 C21 1_555 1_555
H18 C26 1_555 1_555
C27 N2 1_555 1_555
C28 C27 1_555 1_555
H19 C28 1_555 1_555
C29 C28 1_555 1_555
H20 C29 1_555 1_555
C30 C29 1_555 1_555
H21 C30 1_555 1_555
C31 C30 1_555 1_555
H22 C31 1_555 1_555
C32 C27 1_555 1_555
H23 C32 1_555 1_555
C33 N2 1_555 1_555
C34 C33 1_555 1_555
H24 C34 1_555 1_555
C35 C34 1_555 1_555
H25 C35 1_555 1_555
C36 C35 1_555 1_555
H26 C36 1_555 1_555
C37 C36 1_555 1_555
H27 C37 1_555 1_555
C38 C33 1_555 1_555
H28 C38 1_555 1_555
H29 C19 1_555 1_555
H30 C20 1_555 1_555
C19A C19 1_555 1_555
C10A C19A 1_555 1_555
C9A C10A 1_555 1_555
C8A C9A 1_555 1_555
C7A C8A 1_555 1_555
N1A C7A 1_555 1_555
C5A N1A 1_555 1_555
C4A C5A 1_555 1_555
C3A C4A 1_555 1_555
C2A C3A 1_555 1_555
C1A C2A 1_555 1_555
H1A C1A 1_555 1_555
C6A C5A 1_555 1_555
H5A C6A 1_555 1_555
H2A C2A 1_555 1_555
H3A C3A 1_555 1_555
H4A C4A 1_555 1_555
C13A N1A 1_555 1_555
C14A C13A 1_555 1_555
H10A C14A 1_555 1_555
C15A C14A 1_555 1_555
H11A C15A 1_555 1_555
C16A C15A 1_555 1_555
H12A C16A 1_555 1_555
C17A C16A 1_555 1_555
H13A C17A 1_555 1_555
C18A C13A 1_555 1_555
H14A C18A 1_555 1_555
C12A C7A 1_555 1_555
C11A C10A 1_555 1_555
H8A C11A 1_555 1_555
H9A C12A 1_555 1_555
H6A C8A 1_555 1_555
H7A C9A 1_555 1_555
H29A C19A 1_555 1_555
C20A C20 1_555 1_555
C21A C20A 1_555 1_555
C22A C21A 1_555 1_555
H15A C22A 1_555 1_555
C23A C22A 1_555 1_555
H16A C23A 1_555 1_555
C24A C23A 1_555 1_555
N2A C24A 1_555 1_555
C27A N2A 1_555 1_555
C28A C27A 1_555 1_555
H19A C28A 1_555 1_555
C29A C28A 1_555 1_555
H20A C29A 1_555 1_555
C30A C29A 1_555 1_555
H21A C30A 1_555 1_555
C31A C30A 1_555 1_555
H22A C31A 1_555 1_555
C32A C27A 1_555 1_555
H23A C32A 1_555 1_555
C33A N2A 1_555 1_555
C34A C33A 1_555 1_555
H24A C34A 1_555 1_555
C35A C34A 1_555 1_555
H25A C35A 1_555 1_555
C36A C35A 1_555 1_555
H26A C36A 1_555 1_555
C37A C36A 1_555 1_555
H27A C37A 1_555 1_555
C38A C33A 1_555 1_555
H28A C38A 1_555 1_555
C25A C24A 1_555 1_555
H17A C25A 1_555 1_555
C26A C21A 1_555 1_555
H18A C26A 1_555 1_555
H30A C20A 1_555 1_555
C5 C6 1_555 1_555
C11 C12 1_555 1_555
C17 C18 1_555 1_555
C25 C26 1_555 1_555
C31 C32 1_555 1_555
C37 C38 1_555 1_555
C1A C6A 1_555 1_555
C17A C18A 1_555 1_555
C12A C11A 1_555 1_555
C31A C32A 1_555 1_555
C37A C38A 1_555 1_555
C25A C26A 1_555 1_555

#END
