
#######################################################################
#
#                 Cambridge Crystallographic Data Centre
#                                CCDC 
#
#######################################################################
#
# If this CIF has been generated from an entry in the Cambridge 
# Structural Database, then it will include bibliographic, chemical, 
# crystal, experimental, refinement or atomic coordinate data resulting 
# from the CCDC's data processing and validation procedures.
#
#######################################################################

data_ICAVOA
_chemical_formula_moiety         'C31 H31 N3 O3 Si1'
_chemical_name_systematic        
2-(1,3-dioxo-1,3-dihydro-2H-isoindol-2-yl)-3-(4-ethylphenyl)-N-(quinolin-8-yl)-3-(trimethylsilyl)propanamide
_symmetry_cell_setting           orthorhombic
_symmetry_space_group_name_H-M   'P n a 21'
_symmetry_Int_Tables_number      33
_space_group_name_Hall           'P 2c -2n'
loop_
_symmetry_equiv_pos_site_id
_symmetry_equiv_pos_as_xyz
1 x,y,z
2 -x,-y,1/2+z
3 1/2-x,1/2+y,1/2+z
4 1/2+x,1/2-y,z
_cell_length_a                   17.3625(12)
_cell_length_b                   10.1657(5)
_cell_length_c                   16.0229(10)
_cell_angle_alpha                90
_cell_angle_beta                 90
_cell_angle_gamma                90
_cell_volume                     2828.07
_exptl_crystal_colour            colorless
_exptl_crystal_description       block
_cell_formula_units_Z            4
loop_
_atom_site_label
_atom_site_type_symbol
_atom_site_fract_x
_atom_site_fract_y
_atom_site_fract_z
Si1 Si 0.15388(5) 0.47099(7) 0.07056(7)
O1 O 0.40208(14) 0.3075(2) 0.17472(15)
O2 O 0.22889(15) -0.0239(2) 0.13101(16)
O3 O 0.25002(14) 0.2313(2) -0.06218(15)
N1 N 0.30568(14) 0.1617(2) 0.13803(15)
N2 N 0.35750(15) 0.3272(2) -0.00626(15)
H1 H 0.3802 0.3425 0.0405
N3 N 0.48683(17) 0.4613(3) 0.01675(16)
C1 C 0.37242(18) 0.2005(3) 0.18012(19)
C2 C 0.39703(19) 0.0839(3) 0.2291(2)
C3 C 0.4617(2) 0.0670(4) 0.2787(2)
H2 H 0.4975 0.1341 0.2863
C4 C 0.4703(3) -0.0530(6) 0.3159(3)
H3 H 0.5130 -0.0675 0.3497
C5 C 0.4181(4) -0.1530(5) 0.3052(3)
H4 H 0.4263 -0.2330 0.3320
C6 C 0.3531(3) -0.1374(4) 0.2548(3)
H5 H 0.3175 -0.2048 0.2476
C7 C 0.3445(2) -0.0158(3) 0.2159(2)
C8 C 0.2847(2) 0.0319(3) 0.15797(19)
C9 C 0.25553(17) 0.2457(2) 0.08604(18)
H6 H 0.2076 0.1961 0.0789
C10 C 0.28743(17) 0.2657(3) -0.00197(19)
C11 C 0.39661(17) 0.3683(2) -0.07902(17)
C12 C 0.3736(2) 0.3453(3) -0.15948(18)
H7 H 0.3294 0.2962 -0.1697
C13 C 0.4161(2) 0.3951(3) -0.2262(2)
H8 H 0.3988 0.3800 -0.2803
C14 C 0.4816(2) 0.4644(3) -0.2149(2)
H9 H 0.5091 0.4956 -0.2606
C15 C 0.50811(18) 0.4893(3) -0.13285(19)
C16 C 0.46563(17) 0.4406(2) -0.06480(19)
C17 C 0.5512(2) 0.5253(4) 0.0291(2)
H10 H 0.5672 0.5375 0.0840
C18 C 0.5976(2) 0.5765(4) -0.0340(3)
H11 H 0.6424 0.6222 -0.0210
C19 C 0.5764(2) 0.5589(3) -0.1145(2)
H12 H 0.6067 0.5923 -0.1575
C20 C 0.23231(17) 0.3755(2) 0.12913(19)
H13 H 0.2783 0.4315 0.1290
C21 C 0.21007(17) 0.3566(3) 0.21954(19)
C22 C 0.16392(19) 0.2529(3) 0.24719(19)
H14 H 0.1459 0.1919 0.2086
C23 C 0.1444(2) 0.2383(3) 0.3296(2)
H15 H 0.1143 0.1668 0.3455
C24 C 0.1681(2) 0.3269(4) 0.3898(2)
C25 C 0.2118(2) 0.4310(4) 0.3626(2)
H16 H 0.2277 0.4940 0.4010
C26 C 0.2329(2) 0.4448(3) 0.2803(2)
H17 H 0.2635 0.5159 0.2650
C27 C 0.0709(2) 0.3586(4) 0.0515(3)
H18 H 0.0862 0.2902 0.0136
H19 H 0.0290 0.4075 0.0277
H20 H 0.0547 0.3201 0.1034
C28 C 0.1256(3) 0.6133(3) 0.1375(3)
H21 H 0.1088 0.5818 0.1909
H22 H 0.0844 0.6608 0.1112
H23 H 0.1690 0.6706 0.1447
C29 C 0.1910(2) 0.5386(3) -0.0303(2)
H24 H 0.2383 0.5850 -0.0204
H25 H 0.1537 0.5978 -0.0535
H26 H 0.2001 0.4677 -0.0686
C30 C 0.1477(4) 0.3003(8) 0.4815(4)
H27 H 0.1373 0.2073 0.4892
H28 H 0.1909 0.3241 0.5168
C31 C 0.0796(4) 0.3774(10) 0.5052(4)
H29 H 0.0363 0.3504 0.4721
H30 H 0.0895 0.4692 0.4959
H31 H 0.0684 0.3632 0.5632
C32? C 0.142(2) 0.371(3) 0.4816(19)
H32? H 0.1873 0.3852 0.5166
H33? H 0.1130 0.4522 0.4793
C33? C 0.0946(19) 0.263(4) 0.515(2)
H34? H 0.0493 0.2533 0.4815
H35? H 0.0799 0.2831 0.5715
H36? H 0.1236 0.1826 0.5143
loop_
_geom_bond_atom_site_label_1
_geom_bond_atom_site_label_2
_geom_bond_site_symmetry_1
_geom_bond_site_symmetry_2
Si1 C20 1_555 1_555
O1 C1 1_555 1_555
O2 C8 1_555 1_555
O3 C10 1_555 1_555
N1 C1 1_555 1_555
N2 H1 1_555 1_555
N3 C16 1_555 1_555
C1 C2 1_555 1_555
C2 C3 1_555 1_555
C3 H2 1_555 1_555
C4 C3 1_555 1_555
H3 C4 1_555 1_555
C5 C4 1_555 1_555
H4 C5 1_555 1_555
C6 C5 1_555 1_555
H5 C6 1_555 1_555
C7 C2 1_555 1_555
C8 N1 1_555 1_555
C9 N1 1_555 1_555
H6 C9 1_555 1_555
C10 N2 1_555 1_555
C11 N2 1_555 1_555
C12 C11 1_555 1_555
H7 C12 1_555 1_555
C13 C12 1_555 1_555
H8 C13 1_555 1_555
C14 C13 1_555 1_555
H9 C14 1_555 1_555
C15 C14 1_555 1_555
C16 C11 1_555 1_555
C17 N3 1_555 1_555
H10 C17 1_555 1_555
C18 C17 1_555 1_555
H11 C18 1_555 1_555
C19 C15 1_555 1_555
H12 C19 1_555 1_555
C20 C9 1_555 1_555
H13 C20 1_555 1_555
C21 C20 1_555 1_555
C22 C21 1_555 1_555
H14 C22 1_555 1_555
C23 C22 1_555 1_555
H15 C23 1_555 1_555
C24 C23 1_555 1_555
C25 C24 1_555 1_555
H16 C25 1_555 1_555
C26 C21 1_555 1_555
H17 C26 1_555 1_555
C27 Si1 1_555 1_555
H18 C27 1_555 1_555
H19 C27 1_555 1_555
H20 C27 1_555 1_555
C28 Si1 1_555 1_555
H21 C28 1_555 1_555
H22 C28 1_555 1_555
H23 C28 1_555 1_555
C29 Si1 1_555 1_555
H24 C29 1_555 1_555
H25 C29 1_555 1_555
H26 C29 1_555 1_555
C30 C24 1_555 1_555
H27 C30 1_555 1_555
H28 C30 1_555 1_555
C31 C30 1_555 1_555
H29 C31 1_555 1_555
H30 C31 1_555 1_555
H31 C31 1_555 1_555
C6 C7 1_555 1_555
C7 C8 1_555 1_555
C9 C10 1_555 1_555
C15 C16 1_555 1_555
C18 C19 1_555 1_555
C25 C26 1_555 1_555

#END
