
#######################################################################
#
#                 Cambridge Crystallographic Data Centre
#                                CCDC 
#
#######################################################################
#
# If this CIF has been generated from an entry in the Cambridge 
# Structural Database, then it will include bibliographic, chemical, 
# crystal, experimental, refinement or atomic coordinate data resulting 
# from the CCDC's data processing and validation procedures.
#
#######################################################################

data_ICAYOD01
_chemical_formula_moiety         'C30 H30 B1 N1 S1'
_chemical_name_systematic        10-(dimesitylboryl)-10H-phenothiazine
_symmetry_cell_setting           monoclinic
_symmetry_space_group_name_H-M   'C 2/c'
_symmetry_Int_Tables_number      15
_space_group_name_Hall           '-C 2yn'
loop_
_symmetry_equiv_pos_site_id
_symmetry_equiv_pos_as_xyz
1 x,y,z
2 -x,y,1/2-z
3 1/2+x,1/2+y,z
4 1/2-x,1/2+y,1/2-z
5 -x,-y,-z
6 x,-y,1/2+z
7 1/2-x,1/2-y,-z
8 1/2+x,1/2-y,1/2+z
_cell_length_a                   13.7713(3)
_cell_length_b                   19.8207(4)
_cell_length_c                   18.5390(4)
_cell_angle_alpha                90
_cell_angle_beta                 95.590(2)
_cell_angle_gamma                90
_cell_volume                     5036.28
_exptl_crystal_colour            colorless
_exptl_crystal_description       block
_cell_formula_units_Z            8
loop_
_atom_site_label
_atom_site_type_symbol
_atom_site_fract_x
_atom_site_fract_y
_atom_site_fract_z
C1 C 0.72356(16) 0.41081(11) 0.80769(11)
C2 C 0.7160(2) 0.45650(15) 0.86420(13)
H1 H 0.6742 0.4474 0.8995
C3 C 0.7699(2) 0.51465(14) 0.86775(15)
H2 H 0.7638 0.5453 0.9050
C4 C 0.83294(19) 0.52785(11) 0.81668(14)
H3 H 0.8691 0.5676 0.8193
C5 C 0.84317(15) 0.48240(9) 0.76105(11)
H4 H 0.8877 0.4910 0.7275
C6 C 0.78702(13) 0.42385(9) 0.75520(10)
C7 C 0.80483(14) 0.30744(9) 0.71946(10)
C8 C 0.87196(16) 0.26278(10) 0.69529(11)
H5 H 0.9167 0.2781 0.6646
C9 C 0.87350(19) 0.19534(11) 0.71616(13)
H6 H 0.9180 0.1659 0.6983
C10 C 0.8096(2) 0.17186(12) 0.76298(15)
H7 H 0.8102 0.1266 0.7764
C11 C 0.7450(2) 0.21600(13) 0.78977(15)
H8 H 0.7032 0.2006 0.8226
C12 C 0.74122(16) 0.28326(11) 0.76851(12)
C13 C 0.74808(12) 0.47418(9) 0.60450(9)
C14 C 0.64794(13) 0.48627(10) 0.61087(11)
C15 C 0.60522(15) 0.54737(11) 0.58731(12)
H9 H 0.5389 0.5538 0.5908
C16 C 0.65804(17) 0.59857(11) 0.55906(12)
C17 C 0.75597(16) 0.58728(10) 0.55388(12)
H10 H 0.7931 0.6214 0.5358
C18 C 0.80122(13) 0.52653(9) 0.57486(10)
C19 C 0.58141(15) 0.43510(13) 0.64109(15)
H11 H 0.5616 0.4513 0.6862
H12 H 0.6155 0.3931 0.6490
H13 H 0.5249 0.4284 0.6073
C20 C 0.6108(2) 0.66514(13) 0.53489(18)
H14 H 0.6605 0.6970 0.5254
H15 H 0.5743 0.6823 0.5724
H16 H 0.5678 0.6582 0.4916
C21 C 0.90820(16) 0.51999(11) 0.56547(15)
H17 H 0.9338 0.5633 0.5538
H18 H 0.9167 0.4889 0.5269
H19 H 0.9423 0.5037 0.6097
C22 C 0.84126(11) 0.36186(8) 0.56095(9)
C23 C 0.78166(12) 0.34218(8) 0.49831(9)
C24 C 0.82275(14) 0.31510(9) 0.43890(10)
H20 H 0.7820 0.3025 0.3982
C25 C 0.92273(14) 0.30635(9) 0.43873(11)
C26 C 0.98109(13) 0.32412(9) 0.50053(11)
H21 H 1.0481 0.3173 0.5020
C27 C 0.94304(12) 0.35196(8) 0.56098(10)
C28 C 1.01691(14) 0.37239(11) 0.62322(12)
H22 H 1.0556 0.3339 0.6392
H23 H 0.9833 0.3891 0.6626
H24 H 1.0586 0.4071 0.6073
C29 C 0.67217(13) 0.34966(10) 0.49353(11)
H25 H 0.6550 0.3961 0.4852
H26 H 0.6490 0.3349 0.5381
H27 H 0.6429 0.3227 0.4542
C30 C 0.9659(2) 0.27823(14) 0.37324(14)
H28 H 0.9783 0.3144 0.3410
H29 H 0.9209 0.2469 0.3487
H30 H 1.0260 0.2555 0.3884
B1 B 0.79654(13) 0.40228(9) 0.62397(11)
N1 N 0.79762(11) 0.37753(7) 0.69690(8)
S1 S 0.65456(5) 0.33632(4) 0.80316(4)
loop_
_geom_bond_atom_site_label_1
_geom_bond_atom_site_label_2
_geom_bond_site_symmetry_1
_geom_bond_site_symmetry_2
C1 C2 1_555 1_555
C2 H1 1_555 1_555
C3 C2 1_555 1_555
H2 C3 1_555 1_555
C4 C3 1_555 1_555
H3 C4 1_555 1_555
C5 C4 1_555 1_555
H4 C5 1_555 1_555
C6 C1 1_555 1_555
C7 C8 1_555 1_555
C8 H5 1_555 1_555
C9 C8 1_555 1_555
H6 C9 1_555 1_555
C10 C9 1_555 1_555
H7 C10 1_555 1_555
C11 C10 1_555 1_555
H8 C11 1_555 1_555
C12 C7 1_555 1_555
C13 C14 1_555 1_555
C14 C15 1_555 1_555
C15 H9 1_555 1_555
C16 C15 1_555 1_555
C17 C16 1_555 1_555
H10 C17 1_555 1_555
C18 C13 1_555 1_555
C19 C14 1_555 1_555
H11 C19 1_555 1_555
H12 C19 1_555 1_555
H13 C19 1_555 1_555
C20 C16 1_555 1_555
H14 C20 1_555 1_555
H15 C20 1_555 1_555
H16 C20 1_555 1_555
C21 C18 1_555 1_555
H17 C21 1_555 1_555
H18 C21 1_555 1_555
H19 C21 1_555 1_555
C22 C23 1_555 1_555
C23 C24 1_555 1_555
C24 H20 1_555 1_555
C25 C24 1_555 1_555
C26 C25 1_555 1_555
H21 C26 1_555 1_555
C27 C22 1_555 1_555
C28 C27 1_555 1_555
H22 C28 1_555 1_555
H23 C28 1_555 1_555
H24 C28 1_555 1_555
C29 C23 1_555 1_555
H25 C29 1_555 1_555
H26 C29 1_555 1_555
H27 C29 1_555 1_555
C30 C25 1_555 1_555
H28 C30 1_555 1_555
H29 C30 1_555 1_555
H30 C30 1_555 1_555
B1 C13 1_555 1_555
N1 C6 1_555 1_555
S1 C1 1_555 1_555
C5 C6 1_555 1_555
C7 N1 1_555 1_555
C11 C12 1_555 1_555
C12 S1 1_555 1_555
C17 C18 1_555 1_555
C22 B1 1_555 1_555
C26 C27 1_555 1_555
B1 N1 1_555 1_555

#END
