
#######################################################################
#
#                 Cambridge Crystallographic Data Centre
#                                CCDC 
#
#######################################################################
#
# If this CIF has been generated from an entry in the Cambridge 
# Structural Database, then it will include bibliographic, chemical, 
# crystal, experimental, refinement or atomic coordinate data resulting 
# from the CCDC's data processing and validation procedures.
#
#######################################################################

data_ICEBOH
_chemical_formula_moiety         'C20 H32 B10 O1 Si2'
_chemical_name_systematic        
1,2-(1,1,4,4-Tetramethyl-3-(diphenylmethylene)-2-oxa-1,4-disilabutane-1,4-diyl)-1,2-dicarba-closo-dodecaborane(10)
_symmetry_cell_setting           monoclinic
_symmetry_space_group_name_H-M   'P 21/n'
_symmetry_Int_Tables_number      14
_space_group_name_Hall           '-P 2yn'
loop_
_symmetry_equiv_pos_site_id
_symmetry_equiv_pos_as_xyz
1 x,y,z
2 1/2-x,1/2+y,1/2-z
3 -x,-y,-z
4 1/2+x,1/2-y,1/2+z
_cell_length_a                   14.110(3)
_cell_length_b                   11.2278(15)
_cell_length_c                   34.201(6)
_cell_angle_alpha                90
_cell_angle_beta                 97.025
_cell_angle_gamma                90
_cell_volume                     5377.59
_chemical_melting_point          '98 deg.C'
_cell_formula_units_Z            8
_exptl_crystal_recrystallization_method hexane
loop_
_atom_site_label
_atom_site_type_symbol
_atom_site_fract_x
_atom_site_fract_y
_atom_site_fract_z
Si1 Si 0.3535(1) 0.0292(1) 0.1847(1)
Si2 Si 0.2652(1) -0.0431(1) 0.0852(1)
O1 O 0.3174(1) -0.0928(2) 0.1609(1)
B1 B 0.2931(3) 0.3961(4) 0.1321(1)
B2 B 0.2466(3) 0.3599(3) 0.0835(1)
B3 B 0.3038(2) 0.2279(3) 0.0703(1)
B4 B 0.3697(3) 0.3345(3) 0.0997(1)
B5 B 0.3788(3) 0.2866(3) 0.1495(1)
B6 B 0.1807(3) 0.3244(3) 0.1227(1)
B7 B 0.1877(2) 0.2208(3) 0.0847(1)
B8 B 0.2633(3) 0.2804(3) 0.1635(1)
B9 B 0.1972(2) 0.1714(3) 0.1341(1)
B10 B 0.3852(2) 0.1810(3) 0.1111(1)
C1 C 0.3174(2) 0.1559(2) 0.1488(1)
C2 C 0.2729(2) 0.1203(2) 0.1018(1)
C3 C 0.4836(2) 0.0313(3) 0.1981(1)
C4 C 0.2847(2) 0.0355(3) 0.2270(1)
C5 C 0.1423(2) -0.0963(3) 0.0879(1)
C6 C 0.2950(3) -0.0509(3) 0.0340(1)
C7 C 0.3465(2) -0.1228(2) 0.1241(1)
C8 C 0.4137(2) -0.2059(2) 0.1222(1)
C9 C 0.4612(2) -0.2734(2) 0.1569(1)
C10 C 0.5581(2) -0.2992(3) 0.1599(1)
C11 C 0.6020(3) -0.3661(3) 0.1910(1)
C12 C 0.5508(3) -0.4082(3) 0.2193(1)
C13 C 0.4558(3) -0.3841(3) 0.2170(1)
C14 C 0.4106(2) -0.3178(3) 0.1860(1)
C15 C 0.4447(2) -0.2374(2) 0.0831(1)
C16 C 0.5096(2) -0.1700(3) 0.0663(1)
C17 C 0.5384(3) -0.2025(4) 0.0305(1)
C18 C 0.5020(3) -0.3002(4) 0.0111(1)
C19 C 0.4382(2) -0.3688(3) 0.0274(1)
C20 C 0.4098(2) -0.3389(3) 0.0634(1)
Si3 Si 0.8564(1) 0.3650(1) 0.1902(1)
Si4 Si 0.7679(1) 0.4371(1) 0.0905(1)
O2 O 0.8184(1) 0.4874(2) 0.1670(1)
B11 B 0.7547(3) 0.0341(3) 0.0886(1)
B12 B 0.6861(3) 0.0682(3) 0.1272(1)
B13 B 0.8767(3) 0.0605(4) 0.1059(1)
B14 B 0.7994(3) -0.0015(4) 0.1374(1)
B15 B 0.8901(2) 0.2149(3) 0.1171(1)
B16 B 0.7011(2) 0.2215(3) 0.1386(1)
B17 B 0.6938(2) 0.1717(3) 0.0890(1)
B18 B 0.8831(3) 0.1088(3) 0.1554(1)
B19 B 0.7662(3) 0.1129(3) 0.1686(1)
B20 B 0.8110(2) 0.1663(3) 0.0757(1)
C21 C 0.8206(2) 0.2384(3) 0.1543(1)
C22 C 0.7776(2) 0.2741(2) 0.1072(1)
C23 C 0.9870(2) 0.3646(3) 0.2029(1)
C24 C 0.7889(2) 0.3580(3) 0.2329(1)
C25 C 0.8025(3) 0.4424(3) 0.0401(1)
C26 C 0.6432(2) 0.4869(3) 0.0910(1)
C27 C 0.8459(2) 0.5200(2) 0.1301(1)
C28 C 0.9110(2) 0.6054(2) 0.1281(1)
C29 C 0.9603(2) 0.6720(2) 0.1628(1)
C30 C 0.9134(2) 0.7108(3) 0.1934(1)
C31 C 0.9608(3) 0.7763(3) 0.2241(1)
C32 C 1.0546(3) 0.8034(3) 0.2247(1)
C33 C 1.1027(2) 0.7653(3) 0.1948(1)
C34 C 1.0561(2) 0.7005(3) 0.1639(1)
C35 C 0.9372(2) 0.6411(2) 0.0887(1)
C36 C 1.0089(2) 0.5847(3) 0.0721(1)
C37 C 1.0324(2) 0.6183(3) 0.0356(1)
C38 C 0.9838(3) 0.7080(3) 0.0154(1)
C39 C 0.9133(3) 0.7670(3) 0.0318(1)
C40 C 0.8903(2) 0.7344(3) 0.0682(1)
loop_
_geom_bond_atom_site_label_1
_geom_bond_atom_site_label_2
_geom_bond_site_symmetry_1
_geom_bond_site_symmetry_2
Si1 O1 1_555 1_555
Si2 C2 1_555 1_555
Si3 O2 1_555 1_555
Si4 C22 1_555 1_555
O1 C7 1_555 1_555
O2 C27 1_555 1_555
B1 B2 1_555 1_555
B2 B3 1_555 1_555
B3 B4 1_555 1_555
B4 B1 1_555 1_555
B5 B1 1_555 1_555
B6 B1 1_555 1_555
B7 B2 1_555 1_555
B8 B1 1_555 1_555
B9 B6 1_555 1_555
B10 B3 1_555 1_555
B11 B12 1_555 1_555
B12 B14 1_555 1_555
B13 B11 1_555 1_555
B14 B11 1_555 1_555
B15 B13 1_555 1_555
B16 B12 1_555 1_555
B17 B11 1_555 1_555
B18 B13 1_555 1_555
B19 B12 1_555 1_555
B20 B11 1_555 1_555
C1 Si1 1_555 1_555
C2 B3 1_555 1_555
C3 Si1 1_555 1_555
C4 Si1 1_555 1_555
C5 Si2 1_555 1_555
C6 Si2 1_555 1_555
C7 Si2 1_555 1_555
C8 C7 1_555 1_555
C9 C8 1_555 1_555
C10 C9 1_555 1_555
C11 C10 1_555 1_555
C12 C11 1_555 1_555
C13 C12 1_555 1_555
C14 C9 1_555 1_555
C15 C8 1_555 1_555
C16 C15 1_555 1_555
C17 C16 1_555 1_555
C18 C17 1_555 1_555
C19 C18 1_555 1_555
C20 C15 1_555 1_555
C21 Si3 1_555 1_555
C22 B15 1_555 1_555
C23 Si3 1_555 1_555
C24 Si3 1_555 1_555
C25 Si4 1_555 1_555
C26 Si4 1_555 1_555
C27 Si4 1_555 1_555
C28 C27 1_555 1_555
C29 C28 1_555 1_555
C30 C29 1_555 1_555
C31 C30 1_555 1_555
C32 C31 1_555 1_555
C33 C32 1_555 1_555
C34 C29 1_555 1_555
C35 C28 1_555 1_555
C36 C35 1_555 1_555
C37 C36 1_555 1_555
C38 C37 1_555 1_555
C39 C38 1_555 1_555
C40 C35 1_555 1_555
B2 B6 1_555 1_555
B2 B4 1_555 1_555
B3 B7 1_555 1_555
B4 B5 1_555 1_555
B4 B10 1_555 1_555
B5 B10 1_555 1_555
B5 B8 1_555 1_555
B5 C1 1_555 1_555
B6 B8 1_555 1_555
B6 B7 1_555 1_555
B7 B9 1_555 1_555
B7 C2 1_555 1_555
B8 B9 1_555 1_555
B8 C1 1_555 1_555
B9 C2 1_555 1_555
B9 C1 1_555 1_555
B10 C1 1_555 1_555
B10 C2 1_555 1_555
B12 B17 1_555 1_555
B13 B20 1_555 1_555
B13 B14 1_555 1_555
B14 B18 1_555 1_555
B14 B19 1_555 1_555
B15 B18 1_555 1_555
B15 B20 1_555 1_555
B15 C21 1_555 1_555
B16 B19 1_555 1_555
B16 B17 1_555 1_555
B16 C22 1_555 1_555
B16 C21 1_555 1_555
B17 B20 1_555 1_555
B17 C22 1_555 1_555
B18 C21 1_555 1_555
B18 B19 1_555 1_555
B19 C21 1_555 1_555
B20 C22 1_555 1_555
C1 C2 1_555 1_555
C13 C14 1_555 1_555
C19 C20 1_555 1_555
C21 C22 1_555 1_555
C33 C34 1_555 1_555
C39 C40 1_555 1_555

#END
