
#######################################################################
#
#                 Cambridge Crystallographic Data Centre
#                                CCDC 
#
#######################################################################
#
# If this CIF has been generated from an entry in the Cambridge 
# Structural Database, then it will include bibliographic, chemical, 
# crystal, experimental, refinement or atomic coordinate data resulting 
# from the CCDC's data processing and validation procedures.
#
#######################################################################

data_ICEFUT
_chemical_name_common            '3,4,5,6-tetrafluoropyrocatechol monohydrate'
_chemical_formula_moiety         'C6 H2 F4 O2,H2 O1'
_chemical_name_systematic        
'3,4,5,6-Tetrafluorobenzene-1,2-diol monohydrate'
_symmetry_cell_setting           monoclinic
_symmetry_space_group_name_H-M   'P 21/n'
_symmetry_Int_Tables_number      14
_space_group_name_Hall           '-P 2yn'
loop_
_symmetry_equiv_pos_site_id
_symmetry_equiv_pos_as_xyz
1 x,y,z
2 1/2-x,1/2+y,1/2-z
3 -x,-y,-z
4 1/2+x,1/2-y,1/2+z
_cell_length_a                   14.2386(7)
_cell_length_b                   6.6798(3)
_cell_length_c                   14.8002(8)
_cell_angle_alpha                90
_cell_angle_beta                 103.873(2)
_cell_angle_gamma                90
_cell_volume                     1366.6
_exptl_crystal_colour            colorless
_exptl_crystal_description       rod
_cell_formula_units_Z            8
_exptl_crystal_recrystallization_method water
loop_
_atom_site_label
_atom_site_type_symbol
_atom_site_fract_x
_atom_site_fract_y
_atom_site_fract_z
C1 C 0.80647(11) 0.5110(2) 0.16164(10)
C2 C 0.82222(10) 0.4790(2) 0.25643(10)
C3 C 0.91377(10) 0.4150(2) 0.30586(10)
C4 C 0.98351(10) 0.3785(2) 0.25672(11)
C5 C 0.96585(11) 0.4040(2) 0.16165(11)
C6 C 0.87650(11) 0.4729(2) 0.11353(10)
F1 F 0.71949(6) 0.58040(14) 0.11456(6)
O1 O 0.74761(7) 0.51260(17) 0.29735(7)
H1 H 0.7617(14) 0.498(3) 0.3479(14)
O2 O 0.92917(8) 0.39773(18) 0.39905(7)
H2 H 0.9759(14) 0.335(3) 0.4212(13)
F2 F 1.07218(6) 0.31885(14) 0.30447(6)
F3 F 1.03584(7) 0.36637(15) 0.11714(7)
F4 F 0.85727(7) 0.50530(16) 0.02152(6)
C7 C 0.99445(10) 0.1063(2) 0.81982(10)
C8 C 0.98782(10) 0.1254(2) 0.72553(10)
C9 C 0.90090(10) 0.1927(2) 0.66770(10)
C10 C 0.82504(10) 0.2409(2) 0.70728(10)
C11 C 0.83333(10) 0.2249(2) 0.80165(11)
C12 C 0.91829(11) 0.1543(2) 0.85840(10)
F5 F 1.07894(6) 0.04365(14) 0.87561(6)
O3 O 1.06177(8) 0.08031(17) 0.68526(7)
H3 H 1.1072(14) 0.049(3) 0.7216(13)
O4 O 0.89465(8) 0.20293(17) 0.57453(7)
H4 H 0.8561(14) 0.282(3) 0.5509(13)
F6 F 0.74053(6) 0.30430(15) 0.65202(6)
F7 F 0.75926(6) 0.27398(15) 0.83890(6)
F8 F 0.92532(7) 0.13203(15) 0.94975(6)
O5 O 1.08206(8) 0.18856(17) 0.49681(7)
H5 H 1.0930(13) 0.076(3) 0.4802(13)
H6 H 1.0711(13) 0.176(3) 0.5466(12)
O6 O 0.78086(8) 0.51340(18) 0.48857(7)
H7 H 0.8193(13) 0.605(3) 0.4988(13)
H8 H 0.7350(13) 0.543(3) 0.5063(13)
loop_
_geom_bond_atom_site_label_1
_geom_bond_atom_site_label_2
_geom_bond_site_symmetry_1
_geom_bond_site_symmetry_2
C1 C2 1_555 1_555
C2 C3 1_555 1_555
C3 C4 1_555 1_555
C4 C5 1_555 1_555
C5 C6 1_555 1_555
C6 C1 1_555 1_555
F1 C1 1_555 1_555
O1 C2 1_555 1_555
H1 O1 1_555 1_555
O2 C3 1_555 1_555
H2 O2 1_555 1_555
F2 C4 1_555 1_555
F3 C5 1_555 1_555
F4 C6 1_555 1_555
C7 C8 1_555 1_555
C8 C9 1_555 1_555
C9 C10 1_555 1_555
C10 C11 1_555 1_555
C11 C12 1_555 1_555
C12 C7 1_555 1_555
F5 C7 1_555 1_555
O3 C8 1_555 1_555
H3 O3 1_555 1_555
O4 C9 1_555 1_555
H4 O4 1_555 1_555
F6 C10 1_555 1_555
F7 C11 1_555 1_555
F8 C12 1_555 1_555
O5 H5 1_555 1_555
H6 O5 1_555 1_555
O6 H7 1_555 1_555
H8 O6 1_555 1_555

#END
