
#######################################################################
#
#                 Cambridge Crystallographic Data Centre
#                                CCDC 
#
#######################################################################
#
# If this CIF has been generated from an entry in the Cambridge 
# Structural Database, then it will include bibliographic, chemical, 
# crystal, experimental, refinement or atomic coordinate data resulting 
# from the CCDC's data processing and validation procedures.
#
#######################################################################

data_ICEFOM
_chemical_formula_moiety         'C21 H34 N2'
_chemical_name_systematic        
N-(4-(t-Butylamino)pent-3-en-2-ylidene)-2,6-di-isopropylaniline
_symmetry_cell_setting           triclinic
_symmetry_space_group_name_H-M   'P -1'
_symmetry_Int_Tables_number      2
_space_group_name_Hall           '-P 1'
loop_
_symmetry_equiv_pos_site_id
_symmetry_equiv_pos_as_xyz
1 x,y,z
2 -x,-y,-z
_cell_length_a                   9.1758(6)
_cell_length_b                   10.8200(7)
_cell_length_c                   11.9514(8)
_cell_angle_alpha                103.271(2)
_cell_angle_beta                 97.482(2)
_cell_angle_gamma                109.561(2)
_cell_volume                     1060.12
_exptl_crystal_colour            colorless
_exptl_crystal_description       block
_cell_formula_units_Z            2
_exptl_crystal_recrystallization_method methanol
loop_
_atom_site_label
_atom_site_type_symbol
_atom_site_fract_x
_atom_site_fract_y
_atom_site_fract_z
N1 N 0.3322(2) 0.29272(17) 0.20796(14)
N2 N 0.3676(2) 0.2111(2) -0.01398(16)
H1 H 0.3143 0.2044 0.0399
C1 C 0.6163(3) 0.3442(4) -0.0605(3)
H2 H 0.5626 0.3615 -0.1262
H3 H 0.6444 0.2667 -0.0885
H4 H 0.7106 0.4234 -0.0199
C2 C 0.5083(3) 0.3148(3) 0.0228(2)
C3 C 0.5575(3) 0.3965(3) 0.1368(2)
H5 H 0.6579 0.4658 0.1574
C4 C 0.4716(3) 0.3870(2) 0.22778(19)
C5 C 0.5507(4) 0.4940(3) 0.3466(2)
H6 H 0.4711 0.5043 0.3885
H7 H 0.6100 0.5801 0.3350
H8 H 0.6212 0.4654 0.3914
C6 C 0.2419(2) 0.2814(2) 0.29583(16)
C7 C 0.1396(3) 0.3523(2) 0.30921(19)
C8 C 0.0434(3) 0.3293(3) 0.3893(2)
H9 H -0.0248 0.3759 0.3999
C9 C 0.0470(3) 0.2393(3) 0.4526(2)
H10 H -0.0180 0.2257 0.5058
C10 C 0.1459(3) 0.1697(3) 0.4377(2)
H11 H 0.1472 0.1088 0.4811
C11 C 0.2444(3) 0.1878(2) 0.35940(18)
C12 C 0.1302(3) 0.4465(3) 0.2342(2)
H12 H 0.2351 0.4841 0.2172
C13 C 0.0139(5) 0.3657(4) 0.1177(3)
H13 H 0.0443 0.2934 0.0785
H14 H 0.0139 0.4253 0.0694
H15 H -0.0905 0.3270 0.1312
C14 C 0.0906(6) 0.5671(4) 0.2943(4)
H16 H 0.0986 0.6273 0.2456
H17 H 0.1638 0.6160 0.3693
H18 H -0.0156 0.5341 0.3060
C15 C 0.3517(3) 0.1086(3) 0.3425(2)
H19 H 0.3913 0.1207 0.2718
C16 C 0.4944(5) 0.1637(5) 0.4442(4)
H20 H 0.5639 0.1160 0.4269
H21 H 0.4601 0.1502 0.5145
H22 H 0.5498 0.2598 0.4557
C17 C 0.2669(5) -0.0425(4) 0.3215(5)
H23 H 0.3418 -0.0867 0.3162
H24 H 0.1874 -0.0798 0.2491
H25 H 0.2173 -0.0577 0.3856
C18 C 0.2853(4) 0.1069(3) -0.1261(2)
C19 C 0.1262(4) 0.0218(4) -0.1083(3)
H26 H 0.0667 0.0787 -0.0898
H27 H 0.1427 -0.0158 -0.0446
H28 H 0.0685 -0.0514 -0.1793
C20 C 0.3730(7) 0.0098(6) -0.1554(6)
H29 H 0.4623 0.0526 -0.1860
H30 H 0.3023 -0.0738 -0.2133
H31 H 0.4093 -0.0101 -0.0851
C21 C 0.2584(8) 0.1671(6) -0.2230(4)
H32 H 0.2268 0.2425 -0.1947
H33 H 0.1763 0.0985 -0.2873
H34 H 0.3547 0.1991 -0.2497
loop_
_geom_bond_atom_site_label_1
_geom_bond_atom_site_label_2
_geom_bond_site_symmetry_1
_geom_bond_site_symmetry_2
N1 C4 1_555 1_555
N2 H1 1_555 1_555
C1 H2 1_555 1_555
H3 C1 1_555 1_555
H4 C1 1_555 1_555
C2 N2 1_555 1_555
C3 C2 1_555 1_555
H5 C3 1_555 1_555
C4 C3 1_555 1_555
C5 C4 1_555 1_555
H6 C5 1_555 1_555
H7 C5 1_555 1_555
H8 C5 1_555 1_555
C6 N1 1_555 1_555
C7 C6 1_555 1_555
C8 C7 1_555 1_555
H9 C8 1_555 1_555
C9 C8 1_555 1_555
H10 C9 1_555 1_555
C10 C9 1_555 1_555
H11 C10 1_555 1_555
C11 C6 1_555 1_555
C12 C7 1_555 1_555
H12 C12 1_555 1_555
C13 C12 1_555 1_555
H13 C13 1_555 1_555
H14 C13 1_555 1_555
H15 C13 1_555 1_555
C14 C12 1_555 1_555
H16 C14 1_555 1_555
H17 C14 1_555 1_555
H18 C14 1_555 1_555
C15 C11 1_555 1_555
H19 C15 1_555 1_555
C16 C15 1_555 1_555
H20 C16 1_555 1_555
H21 C16 1_555 1_555
H22 C16 1_555 1_555
C17 C15 1_555 1_555
H23 C17 1_555 1_555
H24 C17 1_555 1_555
H25 C17 1_555 1_555
C18 N2 1_555 1_555
C19 C18 1_555 1_555
H26 C19 1_555 1_555
H27 C19 1_555 1_555
H28 C19 1_555 1_555
C20 C18 1_555 1_555
H29 C20 1_555 1_555
H30 C20 1_555 1_555
H31 C20 1_555 1_555
C21 C18 1_555 1_555
H32 C21 1_555 1_555
H33 C21 1_555 1_555
H34 C21 1_555 1_555
C1 C2 1_555 1_555
C10 C11 1_555 1_555

#END
