
#######################################################################
#
#                 Cambridge Crystallographic Data Centre
#                                CCDC 
#
#######################################################################
#
# If this CIF has been generated from an entry in the Cambridge 
# Structural Database, then it will include bibliographic, chemical, 
# crystal, experimental, refinement or atomic coordinate data resulting 
# from the CCDC's data processing and validation procedures.
#
#######################################################################

data_ICEMIO
_chemical_formula_moiety         'C26 H32 N2 O3'
_chemical_name_systematic        
2-(((2-(bis(2-Hydroxy-5-methylbenzyl)amino)ethyl)amino)methyl)-4-methylphenol
_symmetry_cell_setting           monoclinic
_symmetry_space_group_name_H-M   'P 21/n'
_symmetry_Int_Tables_number      14
_space_group_name_Hall           '-P 2yn'
loop_
_symmetry_equiv_pos_site_id
_symmetry_equiv_pos_as_xyz
1 x,y,z
2 1/2-x,1/2+y,1/2-z
3 -x,-y,-z
4 1/2+x,1/2-y,1/2+z
_cell_length_a                   8.6233(14)
_cell_length_b                   10.2655(16)
_cell_length_c                   26.017(4)
_cell_angle_alpha                90
_cell_angle_beta                 95.797(2)
_cell_angle_gamma                90
_cell_volume                     2291.31
_exptl_crystal_colour            colorless
_exptl_crystal_description       block
_cell_formula_units_Z            4
_exptl_crystal_recrystallization_method 'diethyl ether/dimethylformamide'
loop_
_atom_site_label
_atom_site_type_symbol
_atom_site_fract_x
_atom_site_fract_y
_atom_site_fract_z
C1 C 0.57071(19) 0.62501(15) 0.12827(6)
C2 C 0.47590(19) 0.71446(15) 0.15004(6)
C3 C 0.5175(2) 0.75313(16) 0.20050(7)
H1 H 0.4539 0.8125 0.2154
C4 C 0.6490(2) 0.70761(18) 0.22974(7)
C5 C 0.7399(2) 0.61939(18) 0.20652(8)
H2 H 0.8293 0.5869 0.2252
C6 C 0.7024(2) 0.57775(17) 0.15644(8)
H3 H 0.7658 0.5179 0.1417
C7 C 0.6905(3) 0.7523(2) 0.28425(8)
H4 H 0.7419 0.6829 0.3040
H5 H 0.5973 0.7764 0.2992
H6 H 0.7588 0.8261 0.2844
C8 C 0.33458(19) 0.76846(16) 0.11843(7)
H7 H 0.2696 0.8135 0.1410
H8 H 0.3675 0.8312 0.0939
C9 C 0.13384(19) 0.72016(17) 0.04891(7)
H9 H 0.0744 0.7893 0.0631
H10 H 0.0611 0.6532 0.0357
C10 C 0.21596(18) 0.77369(17) 0.00524(6)
C11 C 0.22421(19) 0.90674(17) -0.00357(7)
H11 H 0.1766 0.9630 0.0181
C12 C 0.3003(2) 0.95962(18) -0.04321(7)
C13 C 0.3675(2) 0.8734(2) -0.07487(7)
H12 H 0.4186 0.9057 -0.1020
C14 C 0.3615(2) 0.74010(19) -0.06761(7)
H13 H 0.4070 0.6842 -0.0899
C15 C 0.28780(19) 0.69029(17) -0.02725(7)
C16 C 0.3117(3) 1.10461(19) -0.05034(8)
H14 H 0.4005 1.1373 -0.0290
H15 H 0.2188 1.1455 -0.0407
H16 H 0.3230 1.1235 -0.0859
C17 C 0.1610(2) 0.58691(18) 0.12648(7)
H17 H 0.0724 0.6362 0.1360
H18 H 0.2308 0.5726 0.1576
C18 C 0.1045(2) 0.45690(18) 0.10530(8)
H19 H 0.0555 0.4097 0.1316
H20 H 0.0270 0.4704 0.0761
C19 C 0.1943(2) 0.24162(18) 0.08059(7)
H21 H 0.2725 0.2016 0.0614
H22 H 0.0943 0.2341 0.0601
C20 C 0.18793(19) 0.17059(17) 0.13096(7)
C21 C 0.0752(2) 0.07685(17) 0.13654(7)
H23 H 0.0001 0.0613 0.1090
C22 C 0.0697(2) 0.00557(17) 0.18137(8)
C23 C 0.1827(3) 0.0292(2) 0.22131(8)
H24 H 0.1834 -0.0192 0.2516
C24 C 0.2948(3) 0.1226(2) 0.21751(8)
H25 H 0.3693 0.1377 0.2453
C25 C 0.2977(2) 0.19451(18) 0.17256(7)
C26 C -0.0574(3) -0.0921(2) 0.18697(10)
H26 H -0.0366 -0.1372 0.2193
H27 H -0.0609 -0.1536 0.1591
H28 H -0.1557 -0.0480 0.1862
N1 N 0.24260(15) 0.66467(13) 0.09028(5)
N2 N 0.23219(17) 0.38028(14) 0.08908(6)
H29 H 0.2604 0.4152 0.0623
O1 O 0.53560(13) 0.58288(12) 0.07811(4)
H30 H 0.4428 0.5950 0.0692
O2 O 0.28059(15) 0.55882(12) -0.01787(5)
H31 H 0.3318 0.5196 -0.0378
O3 O 0.40912(16) 0.28836(16) 0.17081(6)
H32 H 0.3889 0.3334 0.1450
loop_
_geom_bond_atom_site_label_1
_geom_bond_atom_site_label_2
_geom_bond_site_symmetry_1
_geom_bond_site_symmetry_2
C1 C2 1_555 1_555
C2 C3 1_555 1_555
C3 H1 1_555 1_555
C4 C3 1_555 1_555
C5 C4 1_555 1_555
H2 C5 1_555 1_555
C6 C1 1_555 1_555
H3 C6 1_555 1_555
C7 C4 1_555 1_555
H4 C7 1_555 1_555
H5 C7 1_555 1_555
H6 C7 1_555 1_555
C8 C2 1_555 1_555
H7 C8 1_555 1_555
H8 C8 1_555 1_555
C9 H9 1_555 1_555
H10 C9 1_555 1_555
C10 C9 1_555 1_555
C11 C10 1_555 1_555
H11 C11 1_555 1_555
C12 C11 1_555 1_555
C13 C12 1_555 1_555
H12 C13 1_555 1_555
C14 C13 1_555 1_555
H13 C14 1_555 1_555
C15 C10 1_555 1_555
C16 C12 1_555 1_555
H14 C16 1_555 1_555
H15 C16 1_555 1_555
H16 C16 1_555 1_555
C17 H17 1_555 1_555
H18 C17 1_555 1_555
C18 C17 1_555 1_555
H19 C18 1_555 1_555
H20 C18 1_555 1_555
C19 H21 1_555 1_555
H22 C19 1_555 1_555
C20 C19 1_555 1_555
C21 C20 1_555 1_555
H23 C21 1_555 1_555
C22 C21 1_555 1_555
C23 C22 1_555 1_555
H24 C23 1_555 1_555
C24 C23 1_555 1_555
H25 C24 1_555 1_555
C25 C20 1_555 1_555
C26 C22 1_555 1_555
H26 C26 1_555 1_555
H27 C26 1_555 1_555
H28 C26 1_555 1_555
N1 C8 1_555 1_555
N2 C18 1_555 1_555
H29 N2 1_555 1_555
O1 C1 1_555 1_555
H30 O1 1_555 1_555
O2 C15 1_555 1_555
H31 O2 1_555 1_555
O3 C25 1_555 1_555
H32 O3 1_555 1_555
C5 C6 1_555 1_555
C9 N1 1_555 1_555
C14 C15 1_555 1_555
C17 N1 1_555 1_555
C19 N2 1_555 1_555
C24 C25 1_555 1_555

#END
