
#######################################################################
#
#                 Cambridge Crystallographic Data Centre
#                                CCDC 
#
#######################################################################
#
# If this CIF has been generated from an entry in the Cambridge 
# Structural Database, then it will include bibliographic, chemical, 
# crystal, experimental, refinement or atomic coordinate data resulting 
# from the CCDC's data processing and validation procedures.
#
#######################################################################

data_ICEPOX
_chemical_name_common            'Bupropion hydrobromide'
_chemical_formula_moiety         'C13 H19 Cl1 N1 O1 1+,Br1 1-'
_chemical_name_systematic        
'(+-)-N-t-Butyl-1-(3-chlorophenyl)-1-oxopropan-2-aminium bromide'
_chemical_properties_biological  
'Bupropion hydrobromide is an antidepressant drug'
_symmetry_cell_setting           triclinic
_symmetry_space_group_name_H-M   'P -1'
_symmetry_Int_Tables_number      2
_space_group_name_Hall           '-P 1'
loop_
_symmetry_equiv_pos_site_id
_symmetry_equiv_pos_as_xyz
1 x,y,z
2 -x,-y,-z
_cell_length_a                   7.6943(8)
_cell_length_b                   7.9347(9)
_cell_length_c                   13.8558(15)
_cell_angle_alpha                85.971(3)
_cell_angle_beta                 85.619(2)
_cell_angle_gamma                65.974(3)
_cell_volume                     769.664
_exptl_crystal_colour            colorless
_exptl_crystal_description       chunk
_cell_formula_units_Z            2
loop_
_atom_site_label
_atom_site_type_symbol
_atom_site_fract_x
_atom_site_fract_y
_atom_site_fract_z
Br1 Br 0.70830(9) 0.56796(10) 0.90059(4)
Cl1 Cl 0.0430(4) 0.8141(3) 0.35598(12)
N1 N 0.3613(6) 0.4372(6) 0.8586(3)
H1 H 0.3455 0.4452 0.9234
H2 H 0.4589 0.4688 0.8394
O1 O 0.3862(7) 0.6253(9) 0.6873(3)
C1 C 0.1853(7) 0.5784(8) 0.8154(4)
H3 H 0.0855 0.5311 0.8186
C2 C 0.4212(9) 0.2349(9) 0.8358(4)
C3 C -0.1935(10) 0.7836(9) 0.5028(5)
H4 H -0.2850 0.8197 0.4567
C4 C 0.0764(8) 0.6807(8) 0.6387(4)
C5 C 0.1237(10) 0.7192(9) 0.5433(4)
H5 H 0.2458 0.7108 0.5251
C6 C -0.1017(8) 0.6907(8) 0.6646(4)
H6 H -0.1308 0.6613 0.7282
C7 C 0.2302(10) 0.6257(9) 0.7093(4)
C8 C 0.1174(9) 0.7536(9) 0.8707(5)
H7 H 0.0799 0.7296 0.9362
H8 H 0.0104 0.8475 0.8402
H9 H 0.2186 0.7947 0.8710
C9 C -0.2418(10) 0.7454(9) 0.5958(4)
H10 H -0.3646 0.7553 0.6134
C10 C 0.2666(10) 0.1763(9) 0.8812(6)
H11 H 0.1516 0.2394 0.8474
H12 H 0.2430 0.2072 0.9481
H13 H 0.3077 0.0454 0.8767
C11 C -0.0154(10) 0.7705(9) 0.4755(4)
C12 C 0.6084(10) 0.1316(9) 0.8856(5)
H14 H 0.6508 0.0014 0.8777
H15 H 0.5890 0.1558 0.9534
H16 H 0.7029 0.1725 0.8571
C13 C 0.4467(13) 0.2115(12) 0.7281(5)
H17 H 0.4904 0.0830 0.7153
H18 H 0.5389 0.2572 0.7013
H19 H 0.3272 0.2795 0.6990
loop_
_geom_bond_atom_site_label_1
_geom_bond_atom_site_label_2
_geom_bond_site_symmetry_1
_geom_bond_site_symmetry_2
Cl1 C11 1_555 1_555
N1 H1 1_555 1_555
H2 N1 1_555 1_555
O1 C7 1_555 1_555
C1 N1 1_555 1_555
H3 C1 1_555 1_555
C2 N1 1_555 1_555
C3 H4 1_555 1_555
C4 C5 1_555 1_555
C5 H5 1_555 1_555
C6 C4 1_555 1_555
H6 C6 1_555 1_555
C7 C1 1_555 1_555
C8 C1 1_555 1_555
H7 C8 1_555 1_555
H8 C8 1_555 1_555
H9 C8 1_555 1_555
C9 C3 1_555 1_555
H10 C9 1_555 1_555
C10 C2 1_555 1_555
H11 C10 1_555 1_555
H12 C10 1_555 1_555
H13 C10 1_555 1_555
C11 C3 1_555 1_555
C12 C2 1_555 1_555
H14 C12 1_555 1_555
H15 C12 1_555 1_555
H16 C12 1_555 1_555
C13 C2 1_555 1_555
H17 C13 1_555 1_555
H18 C13 1_555 1_555
H19 C13 1_555 1_555
C4 C7 1_555 1_555
C5 C11 1_555 1_555
C6 C9 1_555 1_555

#END
