
#######################################################################
#
#                 Cambridge Crystallographic Data Centre
#                                CCDC 
#
#######################################################################
#
# If this CIF has been generated from an entry in the Cambridge 
# Structural Database, then it will include bibliographic, chemical, 
# crystal, experimental, refinement or atomic coordinate data resulting 
# from the CCDC's data processing and validation procedures.
#
#######################################################################

data_ICEPUE
_chemical_formula_moiety         'C23 H18 Br1 N1 O3,C1 H2 Cl2'
_chemical_name_systematic        
'6-((4-bromophenyl)(2-methyl-1H-indol-3-yl)methyl)-1,3-benzodioxol-5-ol dichloromethane solvate'
_symmetry_cell_setting           triclinic
_symmetry_space_group_name_H-M   'P -1'
_symmetry_Int_Tables_number      2
_space_group_name_Hall           '-P 1'
loop_
_symmetry_equiv_pos_site_id
_symmetry_equiv_pos_as_xyz
1 x,y,z
2 -x,-y,-z
_cell_length_a                   7.15370(10)
_cell_length_b                   10.3720(2)
_cell_length_c                   15.0870(2)
_cell_angle_alpha                97.6610(10)
_cell_angle_beta                 98.6050(10)
_cell_angle_gamma                100.1270(10)
_cell_volume                     1074.83
_exptl_crystal_colour            colorless
_exptl_crystal_description       plate
_cell_formula_units_Z            2
_chemical_properties_physical    ', Air-sensitive,Heat-sensitive'
_exptl_crystal_recrystallization_method dichloromethane/hexane
loop_
_atom_site_label
_atom_site_type_symbol
_atom_site_fract_x
_atom_site_fract_y
_atom_site_fract_z
Br1 Br 0.31409(4) 0.44100(3) 1.103806(19)
O1 O 0.0593(3) -0.4469(2) 0.68759(15)
O2 O 0.3357(3) -0.2910(2) 0.69013(16)
O3 O -0.3270(3) -0.1071(2) 0.72134(17)
H1 H -0.4193 -0.1727 0.7105
C1 C -0.0087(4) 0.0926(3) 0.72489(18)
H2 H -0.1499 0.0932 0.7149
C2 C 0.0757(4) 0.1755(3) 0.81909(18)
C3 C 0.1275(4) 0.1181(3) 0.89493(19)
H3 H 0.1157 0.0245 0.8886
C4 C 0.1968(4) 0.1966(3) 0.98040(19)
H4 H 0.2312 0.1568 1.0321
C5 C 0.2146(4) 0.3326(3) 0.98866(18)
C6 C 0.1615(4) 0.3928(3) 0.91423(19)
H5 H 0.1724 0.4864 0.9208
C7 C 0.0921(4) 0.3128(3) 0.83015(18)
H6 H 0.0550 0.3526 0.7789
C8 C 0.0071(4) -0.0528(3) 0.71799(17)
C9 C 0.1827(4) -0.0924(3) 0.71051(18)
H7 H 0.2972 -0.0292 0.7121
C10 C 0.1827(4) -0.2271(3) 0.70078(18)
C11 C 0.0191(4) -0.3207(3) 0.69912(18)
C12 C -0.1543(4) -0.2855(3) 0.70568(18)
H8 H -0.2673 -0.3503 0.7039
C13 C -0.1582(4) -0.1500(3) 0.71516(18)
C14 C 0.2610(5) -0.4276(3) 0.6944(3)
H9 H 0.2939 -0.4860 0.6441
H10 H 0.3193 -0.4503 0.7526
C15 C 0.0690(4) 0.1551(3) 0.64930(18)
C16 C -0.0397(4) 0.1485(3) 0.56467(18)
C17 C 0.2572(4) 0.2612(3) 0.55940(18)
C18 C 0.2600(4) 0.2256(3) 0.64735(18)
C19 C 0.4189(4) 0.3324(3) 0.53314(19)
H11 H 0.4132 0.3552 0.4740
C20 C 0.5872(4) 0.3683(3) 0.5966(2)
H12 H 0.6995 0.4169 0.5810
C21 C 0.5953(4) 0.3340(3) 0.6843(2)
H13 H 0.7131 0.3596 0.7266
C22 C 0.4348(4) 0.2637(3) 0.70977(18)
H14 H 0.4423 0.2413 0.7691
N1 N 0.0729(3) 0.2135(2) 0.51123(16)
H15 H 0.0331 0.2230 0.4548
C23 C -0.2447(4) 0.0829(3) 0.5263(2)
H16 H -0.3037 0.0422 0.5731
H17 H -0.2482 0.0143 0.4744
H18 H -0.3163 0.1493 0.5064
Cl1 Cl 0.38221(12) 0.93119(9) 1.10203(5)
Cl2 Cl 0.25051(13) 0.77434(8) 0.91990(5)
C24 C 0.3119(5) 0.7719(3) 1.0376(2)
H19 H 0.1994 0.7231 1.0586
H20 H 0.4186 0.7234 1.0478
loop_
_geom_bond_atom_site_label_1
_geom_bond_atom_site_label_2
_geom_bond_site_symmetry_1
_geom_bond_site_symmetry_2
Br1 C5 1_555 1_555
O1 C11 1_555 1_555
O2 C10 1_555 1_555
O3 H1 1_555 1_555
C1 H2 1_555 1_555
C2 C1 1_555 1_555
C3 C2 1_555 1_555
H3 C3 1_555 1_555
C4 C3 1_555 1_555
H4 C4 1_555 1_555
C5 C4 1_555 1_555
C6 C5 1_555 1_555
H5 C6 1_555 1_555
C7 C2 1_555 1_555
H6 C7 1_555 1_555
C8 C1 1_555 1_555
C9 C8 1_555 1_555
H7 C9 1_555 1_555
C10 C9 1_555 1_555
C11 C10 1_555 1_555
C12 C11 1_555 1_555
H8 C12 1_555 1_555
C13 O3 1_555 1_555
C14 O1 1_555 1_555
H9 C14 1_555 1_555
H10 C14 1_555 1_555
C15 C1 1_555 1_555
C16 C15 1_555 1_555
C17 C18 1_555 1_555
C18 C15 1_555 1_555
C19 C17 1_555 1_555
H11 C19 1_555 1_555
C20 C19 1_555 1_555
H12 C20 1_555 1_555
C21 C20 1_555 1_555
H13 C21 1_555 1_555
C22 C18 1_555 1_555
H14 C22 1_555 1_555
N1 C16 1_555 1_555
H15 N1 1_555 1_555
C23 C16 1_555 1_555
H16 C23 1_555 1_555
H17 C23 1_555 1_555
H18 C23 1_555 1_555
Cl1 C24 1_555 1_555
Cl2 C24 1_555 1_555
C24 H19 1_555 1_555
H20 C24 1_555 1_555
O2 C14 1_555 1_555
C6 C7 1_555 1_555
C8 C13 1_555 1_555
C12 C13 1_555 1_555
C17 N1 1_555 1_555
C21 C22 1_555 1_555

#END
