
#######################################################################
#
#                 Cambridge Crystallographic Data Centre
#                                CCDC 
#
#######################################################################
#
# If this CIF has been generated from an entry in the Cambridge 
# Structural Database, then it will include bibliographic, chemical, 
# crystal, experimental, refinement or atomic coordinate data resulting 
# from the CCDC's data processing and validation procedures.
#
#######################################################################

data_ICEQAK
_chemical_formula_moiety         'C20 H19 N3 O3'
_chemical_name_systematic        
'Ethyl 5-(4-((phenylacetyl)amino)phenyl)-1H-pyrazole-3-carboxylate'
_symmetry_cell_setting           monoclinic
_symmetry_space_group_name_H-M   'C 2/c'
_symmetry_Int_Tables_number      15
_space_group_name_Hall           '-C 2yn'
loop_
_symmetry_equiv_pos_site_id
_symmetry_equiv_pos_as_xyz
1 x,y,z
2 -x,y,1/2-z
3 1/2+x,1/2+y,z
4 1/2-x,1/2+y,1/2-z
5 -x,-y,-z
6 x,-y,1/2+z
7 1/2-x,1/2-y,-z
8 1/2+x,1/2-y,1/2+z
_cell_length_a                   22.723(9)
_cell_length_b                   9.324(4)
_cell_length_c                   18.890(8)
_cell_angle_alpha                90
_cell_angle_beta                 114.259(6)
_cell_angle_gamma                90
_cell_volume                     3648.81
_exptl_crystal_colour            colorless
_exptl_crystal_description       block
_cell_formula_units_Z            8
loop_
_atom_site_label
_atom_site_type_symbol
_atom_site_fract_x
_atom_site_fract_y
_atom_site_fract_z
N1 N 0.17957(12) 0.7249(3) 0.27493(12)
H1 H 0.1562 0.7047 0.2271
N2 N 0.13135(13) 0.4640(3) 0.56673(14)
H2 H 0.169(2) 0.514(4) 0.600(2)
N3 N 0.10537(12) 0.3843(3) 0.60651(13)
O1 O 0.26665(11) 0.8496(3) 0.35311(12)
O2 O -0.03511(11) 0.1774(3) 0.51510(12)
O3 O 0.02940(12) 0.1859(3) 0.64131(13)
C1 C 0.35409(16) 0.7465(4) 0.27428(14)
H3 H 0.3610 0.7855 0.3224
C2 C 0.40214(14) 0.6656(5) 0.2658(2)
H4 H 0.4412 0.6504 0.3082
C3 C 0.3918(2) 0.6073(4) 0.1939(3)
H5 H 0.4240 0.5531 0.1882
C4 C 0.3334(2) 0.6299(5) 0.1305(2)
H6 H 0.3265 0.5909 0.0825
C5 C 0.28539(16) 0.7109(4) 0.13905(15)
H7 H 0.2463 0.7260 0.0967
C6 C 0.29572(13) 0.7692(3) 0.21092(17)
C7 C 0.24188(17) 0.8554(4) 0.21842(18)
H8 H 0.2531 0.9564 0.2226
H9 H 0.2026 0.8426 0.1718
C8 C 0.22975(15) 0.8118(4) 0.28782(17)
C9 C 0.16010(14) 0.6621(3) 0.32990(15)
C10 C 0.09976(16) 0.6073(4) 0.30567(17)
H10 H 0.0713 0.6161 0.2538
C11 C 0.07966(15) 0.5385(4) 0.35688(18)
H11 H 0.0383 0.4999 0.3383
C12 C 0.11930(14) 0.5257(3) 0.43440(15)
C13 C 0.18043(16) 0.5799(4) 0.45816(17)
H12 H 0.2089 0.5709 0.5100
C14 C 0.20119(16) 0.6476(4) 0.40755(17)
H13 H 0.2430 0.6836 0.4257
C15 C 0.09843(14) 0.4526(3) 0.48847(15)
C16 C 0.04827(15) 0.3616(3) 0.47765(16)
H14 H 0.0164 0.3318 0.4305
C17 C 0.05463(14) 0.3224(3) 0.55175(16)
C18 C 0.01622(16) 0.2230(4) 0.57604(19)
C19 C -0.0759(2) 0.0762(5) 0.5326(2)
H15 H -0.0508 -0.0062 0.5601
H16 H -0.0946 0.1212 0.5649
C20 C -0.1260(2) 0.0326(5) 0.4595(3)
H17 H -0.1538 -0.0354 0.4686
H18 H -0.1068 -0.0108 0.4279
H19 H -0.1506 0.1149 0.4332
loop_
_geom_bond_atom_site_label_1
_geom_bond_atom_site_label_2
_geom_bond_site_symmetry_1
_geom_bond_site_symmetry_2
N1 H1 1_555 1_555
N2 H2 1_555 1_555
N3 N2 1_555 1_555
O1 C8 1_555 1_555
O2 C18 1_555 1_555
O3 C18 1_555 1_555
C1 H3 1_555 1_555
C2 C1 1_555 1_555
H4 C2 1_555 1_555
C3 C2 1_555 1_555
H5 C3 1_555 1_555
C4 C3 1_555 1_555
H6 C4 1_555 1_555
C5 C4 1_555 1_555
H7 C5 1_555 1_555
C6 C1 1_555 1_555
C7 C6 1_555 1_555
H8 C7 1_555 1_555
H9 C7 1_555 1_555
C8 N1 1_555 1_555
C9 N1 1_555 1_555
C10 C9 1_555 1_555
H10 C10 1_555 1_555
C11 C10 1_555 1_555
H11 C11 1_555 1_555
C12 C11 1_555 1_555
C13 C12 1_555 1_555
H12 C13 1_555 1_555
C14 C9 1_555 1_555
H13 C14 1_555 1_555
C15 N2 1_555 1_555
C16 C15 1_555 1_555
H14 C16 1_555 1_555
C17 N3 1_555 1_555
C18 C17 1_555 1_555
C19 O2 1_555 1_555
H15 C19 1_555 1_555
H16 C19 1_555 1_555
C20 C19 1_555 1_555
H17 C20 1_555 1_555
H18 C20 1_555 1_555
H19 C20 1_555 1_555
C5 C6 1_555 1_555
C7 C8 1_555 1_555
C12 C15 1_555 1_555
C13 C14 1_555 1_555
C16 C17 1_555 1_555

#END
