
#######################################################################
#
#                 Cambridge Crystallographic Data Centre
#                                CCDC 
#
#######################################################################
#
# If this CIF has been generated from an entry in the Cambridge 
# Structural Database, then it will include bibliographic, chemical, 
# crystal, experimental, refinement or atomic coordinate data resulting 
# from the CCDC's data processing and validation procedures.
#
#######################################################################

data_ICEQUD
_chemical_formula_moiety         'C13 H16 Br1 N1 O2'
_chemical_name_systematic        
(2S*,5R*,6S*)-5-Bromo-6-isopropyl-2-phenyl-(1,3)oxazinan-4-one
_symmetry_cell_setting           monoclinic
_symmetry_space_group_name_H-M   'P 21/c'
_symmetry_Int_Tables_number      14
_space_group_name_Hall           '-P 2ybc'
loop_
_symmetry_equiv_pos_site_id
_symmetry_equiv_pos_as_xyz
1 x,y,z
2 x,1/2-y,1/2+z
3 -x,-y,-z
4 -x,1/2+y,1/2-z
_cell_length_a                   10.5542(4)
_cell_length_b                   8.9243(4)
_cell_length_c                   14.3655(6)
_cell_angle_alpha                90
_cell_angle_beta                 91.2180(10)
_cell_angle_gamma                90
_cell_volume                     1352.76
_exptl_crystal_colour            colorless
_exptl_crystal_description       block
_cell_formula_units_Z            4
loop_
_atom_site_label
_atom_site_type_symbol
_atom_site_fract_x
_atom_site_fract_y
_atom_site_fract_z
Br1 Br 0.63186(2) 0.54521(4) 0.207226(17)
O1 O 0.33190(15) 0.6222(2) 0.25085(10)
N1 N 0.39874(19) 0.5342(3) 0.39739(13)
H1 H 0.3955 0.5378 0.4571
C1 C 0.4936(2) 0.4567(3) 0.36201(15)
C2 C 0.4895(2) 0.4323(3) 0.25725(15)
H2 H 0.510(2) 0.332(2) 0.2486(15)
O2 O 0.58018(16) 0.4033(3) 0.40980(11)
C3 C 0.3627(2) 0.4788(3) 0.21425(15)
H3 H 0.3030(17) 0.409(2) 0.2337(13)
C4 C 0.2999(2) 0.6136(3) 0.34584(15)
H4 H 0.302(2) 0.713(2) 0.3637(14)
C5 C 0.1689(2) 0.5485(3) 0.35842(16)
C6 C 0.1464(3) 0.4115(4) 0.39658(19)
H5 H 0.2138 0.3534 0.4184
C7 C 0.0232(3) 0.3583(5) 0.4031(2)
H6 H 0.0087 0.2648 0.4295
C8 C -0.0764(3) 0.4424(5) 0.3712(3)
H7 H -0.1587 0.4062 0.3751
C9 C -0.0548(3) 0.5781(6) 0.3338(3)
H8 H -0.1228 0.6352 0.3119
C10 C 0.0681(3) 0.6346(5) 0.3275(2)
H9 H 0.0818 0.7293 0.3026
C11 C 0.3530(3) 0.4870(4) 0.10805(16)
H10 H 0.403(2) 0.567(2) 0.0872(16)
C12 C 0.3946(3) 0.3400(4) 0.06591(16)
H11 H 0.3886 0.3464 -0.0007
H12 H 0.3409 0.2607 0.0871
H13 H 0.4807 0.3196 0.0847
C13 C 0.2179(3) 0.5248(5) 0.0779(2)
H14 H 0.1936 0.6182 0.1055
H15 H 0.1620 0.4469 0.0980
H16 H 0.2128 0.5331 0.0113
loop_
_geom_bond_atom_site_label_1
_geom_bond_atom_site_label_2
_geom_bond_site_symmetry_1
_geom_bond_site_symmetry_2
Br1 C2 1_555 1_555
O1 C3 1_555 1_555
N1 H1 1_555 1_555
C1 N1 1_555 1_555
C2 C1 1_555 1_555
H2 C2 1_555 1_555
O2 C1 1_555 1_555
C3 C2 1_555 1_555
H3 C3 1_555 1_555
C4 O1 1_555 1_555
H4 C4 1_555 1_555
C5 C4 1_555 1_555
C6 C5 1_555 1_555
H5 C6 1_555 1_555
C7 C6 1_555 1_555
H6 C7 1_555 1_555
C8 C7 1_555 1_555
H7 C8 1_555 1_555
C9 C8 1_555 1_555
H8 C9 1_555 1_555
C10 C5 1_555 1_555
H9 C10 1_555 1_555
C11 C3 1_555 1_555
H10 C11 1_555 1_555
C12 C11 1_555 1_555
H11 C12 1_555 1_555
H12 C12 1_555 1_555
H13 C12 1_555 1_555
C13 C11 1_555 1_555
H14 C13 1_555 1_555
H15 C13 1_555 1_555
H16 C13 1_555 1_555
N1 C4 1_555 1_555
C9 C10 1_555 1_555

#END
