
#######################################################################
#
#                 Cambridge Crystallographic Data Centre
#                                CCDC 
#
#######################################################################
#
# If this CIF has been generated from an entry in the Cambridge 
# Structural Database, then it will include bibliographic, chemical, 
# crystal, experimental, refinement or atomic coordinate data resulting 
# from the CCDC's data processing and validation procedures.
#
#######################################################################

data_ICICIJ
_chemical_formula_moiety         'C20 H14 N2 O2'
_chemical_name_systematic        
1-((pyridin-2-ylmethyl)amino)-9,10-anthraquinone
_symmetry_cell_setting           monoclinic
_symmetry_space_group_name_H-M   'P 21/c'
_symmetry_Int_Tables_number      14
_space_group_name_Hall           '-P 2ybc'
loop_
_symmetry_equiv_pos_site_id
_symmetry_equiv_pos_as_xyz
1 x,y,z
2 -x,1/2+y,1/2-z
3 -x,-y,-z
4 x,1/2-y,1/2+z
_cell_length_a                   11.4796(14)
_cell_length_b                   8.5686(10)
_cell_length_c                   15.8059(15)
_cell_angle_alpha                90
_cell_angle_beta                 112.029(7)
_cell_angle_gamma                90
_cell_volume                     1441.23
_exptl_crystal_colour            colorless
_exptl_crystal_description       Prismatic
_cell_formula_units_Z            4
loop_
_atom_site_label
_atom_site_type_symbol
_atom_site_fract_x
_atom_site_fract_y
_atom_site_fract_z
O1 O 0.59621(13) -0.11807(17) 0.08682(8)
O2 O 0.90074(14) 0.11636(17) -0.07112(9)
N1 N 0.47370(16) -0.28282(19) -0.06010(11)
H1 H 0.4766 -0.2535 -0.0091
N2 N 0.34495(17) -0.3809(2) 0.03733(11)
C1 C 0.5521(2) -0.2186(2) -0.09598(13)
C2 C 0.5423(2) -0.2587(3) -0.18525(13)
H2 H 0.4807 -0.3289 -0.2193
C3 C 0.6222(2) -0.1958(3) -0.22233(14)
H3 H 0.6137 -0.2236 -0.2812
C4 C 0.7155(2) -0.0914(3) -0.17353(13)
H4 H 0.7687 -0.0494 -0.1998
C5 C 0.9543(2) 0.1897(2) 0.11356(14)
H5 H 1.0093 0.2280 0.0878
C6 C 0.9707(2) 0.2291(3) 0.20190(14)
H6 H 1.0366 0.2941 0.2358
C7 C 0.8884(2) 0.1711(3) 0.24009(14)
H7 H 0.8990 0.1984 0.2995
C8 C 0.7912(2) 0.0735(2) 0.19066(13)
H8 H 0.7374 0.0341 0.2171
C9 C 0.6653(2) -0.0690(2) 0.04859(13)
C10 C 0.8339(2) 0.0577(3) -0.03464(14)
C11 C 0.6479(2) -0.1111(2) -0.04548(13)
C12 C 0.7294(2) -0.0497(2) -0.08553(13)
C13 C 0.8551(2) 0.0925(2) 0.06269(13)
C14 C 0.7734(2) 0.0334(2) 0.10094(13)
C15 C 0.3834(2) -0.4035(3) -0.10311(14)
H9 H 0.4267 -0.4946 -0.1132
H10 H 0.3257 -0.3670 -0.1620
C16 C 0.3107(2) -0.4482(2) -0.04513(13)
C17 C 0.2119(2) -0.5532(3) -0.07736(14)
H11 H 0.1905 -0.5974 -0.1350
C18 C 0.1456(2) -0.5918(3) -0.02349(14)
H12 H 0.0794 -0.6625 -0.0437
C19 C 0.1803(2) -0.5222(3) 0.06197(14)
H13 H 0.1373 -0.5445 0.1001
C20 C 0.2796(2) -0.4198(3) 0.08873(14)
H14 H 0.3029 -0.3746 0.1462
loop_
_geom_bond_atom_site_label_1
_geom_bond_atom_site_label_2
_geom_bond_site_symmetry_1
_geom_bond_site_symmetry_2
O1 C9 1_555 1_555
O2 C10 1_555 1_555
N1 H1 1_555 1_555
N2 C16 1_555 1_555
C1 N1 1_555 1_555
C2 C1 1_555 1_555
H2 C2 1_555 1_555
C3 C2 1_555 1_555
H3 C3 1_555 1_555
C4 C3 1_555 1_555
H4 C4 1_555 1_555
C5 H5 1_555 1_555
C6 C5 1_555 1_555
H6 C6 1_555 1_555
C7 C6 1_555 1_555
H7 C7 1_555 1_555
C8 C7 1_555 1_555
H8 C8 1_555 1_555
C9 C11 1_555 1_555
C10 C12 1_555 1_555
C11 C1 1_555 1_555
C12 C4 1_555 1_555
C13 C5 1_555 1_555
C14 C8 1_555 1_555
C15 N1 1_555 1_555
H9 C15 1_555 1_555
H10 C15 1_555 1_555
C16 C15 1_555 1_555
C17 C16 1_555 1_555
H11 C17 1_555 1_555
C18 C17 1_555 1_555
H12 C18 1_555 1_555
C19 C18 1_555 1_555
H13 C19 1_555 1_555
C20 N2 1_555 1_555
H14 C20 1_555 1_555
C9 C14 1_555 1_555
C10 C13 1_555 1_555
C11 C12 1_555 1_555
C13 C14 1_555 1_555
C19 C20 1_555 1_555

#END
