
#######################################################################
#
#                 Cambridge Crystallographic Data Centre
#                                CCDC 
#
#######################################################################
#
# If this CIF has been generated from an entry in the Cambridge 
# Structural Database, then it will include bibliographic, chemical, 
# crystal, experimental, refinement or atomic coordinate data resulting 
# from the CCDC's data processing and validation procedures.
#
#######################################################################

data_ICIFOR
_chemical_formula_moiety         'C38 H39 N5 O1'
_chemical_name_systematic        
3-t-Butyl-2-((4-(dicyanomethylene)cyclohexa-2,5-dien-1-ylidene)(4-(dimethylamino)phenyl)methyl)-4-(6-hydroxy-2,2,6-trimethylhept-4-yn-3-ylidene)cyclobut-2-ene-1,1-dicarbonitrile
_symmetry_cell_setting           monoclinic
_symmetry_space_group_name_H-M   'P 21/n'
_symmetry_Int_Tables_number      14
_space_group_name_Hall           '-P 2yn'
loop_
_symmetry_equiv_pos_site_id
_symmetry_equiv_pos_as_xyz
1 x,y,z
2 1/2-x,1/2+y,1/2-z
3 -x,-y,-z
4 1/2+x,1/2-y,1/2+z
_cell_length_a                   16.64370(10)
_cell_length_b                   9.5463(2)
_cell_length_c                   20.8887(3)
_cell_angle_alpha                90
_cell_angle_beta                 105.8950(7)
_cell_angle_gamma                90
_cell_volume                     3192.02
_exptl_crystal_colour            'dark green'
_exptl_crystal_description       cube
_cell_formula_units_Z            4
loop_
_atom_site_label
_atom_site_type_symbol
_atom_site_fract_x
_atom_site_fract_y
_atom_site_fract_z
O1 O 0.79154(7) 0.76670(13) 0.08395(5)
N1 N 0.45669(8) 1.34245(15) 0.23772(7)
N2 N 0.34564(8) 1.18819(15) 0.03541(7)
N3 N 0.14451(9) 1.01935(17) 0.47904(7)
N4 N 0.41630(10) 1.07470(17) 0.56504(7)
N5 N 0.07006(8) 1.05164(14) -0.03864(6)
C1 C 0.44002(9) 1.13136(15) 0.15502(7)
C2 C 0.51844(8) 1.03868(14) 0.15876(6)
C3 C 0.48087(8) 0.92876(15) 0.19203(6)
C4 C 0.41026(9) 1.00428(15) 0.18853(6)
C5 C 0.45098(9) 1.25433(15) 0.19935(7)
C6 C 0.38729(9) 1.16498(15) 0.08803(7)
C7 C 0.50620(9) 0.78258(14) 0.21668(7)
C8 C 0.50794(10) 0.68975(16) 0.15691(8)
C9 C 0.59225(9) 0.78589(17) 0.26866(7)
C10 C 0.44186(10) 0.72071(16) 0.24959(8)
C11 C 0.58531(9) 1.05672(15) 0.13454(7)
C12 C 0.60455(9) 1.18427(15) 0.09514(7)
C13 C 0.56331(10) 1.32137(16) 0.10750(8)
C14 C 0.57524(12) 1.14702(18) 0.02053(7)
C15 C 0.69953(10) 1.20983(17) 0.11424(8)
C16 C 0.64433(9) 0.94425(15) 0.14047(7)
C17 C 0.69806(9) 0.85912(15) 0.14160(7)
C18 C 0.76103(9) 0.74971(16) 0.14133(7)
C19 C 0.83735(11) 0.7689(2) 0.20100(8)
C20 C 0.72363(12) 0.60485(19) 0.14209(10)
C21 C 0.32849(9) 0.99854(15) 0.20251(7)
C22 C 0.32094(9) 1.00329(15) 0.26717(7)
C23 C 0.24093(9) 0.98410(15) 0.28031(7)
C24 C 0.23234(9) 0.99118(16) 0.34295(7)
C25 C 0.30313(9) 1.01721(15) 0.39909(7)
C26 C 0.38345(9) 1.02925(16) 0.38694(7)
C27 C 0.39178(9) 1.02294(16) 0.32410(7)
C28 C 0.29299(10) 1.02853(16) 0.46281(7)
C29 C 0.21142(10) 1.02364(16) 0.47228(7)
C30 C 0.36176(10) 1.05382(17) 0.52031(7)
C31 C 0.25768(9) 1.00615(15) 0.14288(7)
C32 C 0.25495(9) 0.91958(16) 0.08729(7)
C33 C 0.19272(9) 0.93196(16) 0.02892(7)
C34 C 0.13060(9) 1.03627(15) 0.02037(7)
C35 C 0.13339(9) 1.12426(16) 0.07573(7)
C36 C 0.19379(9) 1.10683(15) 0.13522(7)
C37 C 0.07360(11) 0.96779(18) -0.09525(8)
C38 C 0.01958(10) 1.17766(18) -0.05182(9)
H1 H 0.5470(12) 0.729(2) 0.1313(9)
H2 H 0.4528(13) 0.678(2) 0.1296(10)
H3 H 0.5268(13) 0.592(2) 0.1744(10)
H4 H 0.6370(11) 0.827(2) 0.2498(9)
H5 H 0.5866(12) 0.843(2) 0.3076(10)
H6 H 0.6103(12) 0.684(2) 0.2821(9)
H7 H 0.3837(15) 0.718(2) 0.2186(11)
H8 H 0.4435(12) 0.770(2) 0.2900(10)
H9 H 0.4570(11) 0.618(2) 0.2603(9)
H10 H 0.5037(14) 1.318(2) 0.0914(10)
H11 H 0.5801(12) 1.400(2) 0.0821(9)
H12 H 0.5801(12) 1.352(2) 0.1563(10)
H13 H 0.6015(12) 1.061(2) 0.0115(9)
H14 H 0.5878(14) 1.220(2) -0.0023(11)
H15 H 0.5125(13) 1.137(2) 0.0030(10)
H16 H 0.7316(13) 1.132(2) 0.1050(10)
H17 H 0.7229(12) 1.227(2) 0.1647(9)
H18 H 0.7130(12) 1.292(2) 0.0909(10)
H19 H 0.741(2) 0.761(3) 0.0483(15)
H20 H 0.8632(15) 0.871(3) 0.2028(12)
H21 H 0.8188(14) 0.755(2) 0.2432(11)
H22 H 0.8799(14) 0.695(2) 0.1979(11)
H23 H 0.7685(12) 0.532(2) 0.1437(9)
H24 H 0.7116(9) 0.5934(15) 0.1854(7)
H25 H 0.6741(15) 0.595(3) 0.0980(13)
H26 H 0.1929(11) 0.9638(18) 0.2447(9)
H27 H 0.1771(11) 0.9752(19) 0.3518(9)
H28 H 0.4290(12) 1.043(2) 0.4239(9)
H29 H 0.4469(12) 1.0319(19) 0.3165(9)
H30 H 0.2975(12) 0.855(2) 0.0898(9)
H31 H 0.1939(11) 0.872(2) -0.0059(9)
H32 H 0.0939(12) 1.198(2) 0.0713(9)
H33 H 0.1958(11) 1.166(2) 0.1703(9)
H34 H 0.1238(13) 0.984(2) -0.1093(10)
H35 H 0.0703(12) 0.871(2) -0.0850(10)
H36 H 0.0291(14) 0.997(2) -0.1327(11)
H37 H -0.0067(13) 1.199(2) -0.0175(10)
H38 H 0.0537(16) 1.256(3) -0.0530(12)
H39 H -0.0172(14) 1.160(2) -0.0954(11)
loop_
_geom_bond_atom_site_label_1
_geom_bond_atom_site_label_2
_geom_bond_site_symmetry_1
_geom_bond_site_symmetry_2
O1 C18 1_555 1_555
N1 C5 1_555 1_555
N2 C6 1_555 1_555
N3 C29 1_555 1_555
N4 C30 1_555 1_555
N5 C34 1_555 1_555
C1 C2 1_555 1_555
C2 C3 1_555 1_555
C3 C4 1_555 1_555
C4 C1 1_555 1_555
C5 C1 1_555 1_555
C6 C1 1_555 1_555
C7 C3 1_555 1_555
C8 C7 1_555 1_555
C9 C7 1_555 1_555
C10 C7 1_555 1_555
C11 C2 1_555 1_555
C12 C11 1_555 1_555
C13 C12 1_555 1_555
C14 C12 1_555 1_555
C15 C12 1_555 1_555
C16 C11 1_555 1_555
C17 C16 1_555 1_555
C18 C17 1_555 1_555
C19 C18 1_555 1_555
C20 C18 1_555 1_555
C21 C4 1_555 1_555
C22 C21 1_555 1_555
C23 C22 1_555 1_555
C24 C23 1_555 1_555
C25 C24 1_555 1_555
C26 C25 1_555 1_555
C27 C22 1_555 1_555
C28 C25 1_555 1_555
C29 C28 1_555 1_555
C30 C28 1_555 1_555
C31 C21 1_555 1_555
C32 C31 1_555 1_555
C33 C32 1_555 1_555
C34 C33 1_555 1_555
C35 C34 1_555 1_555
C36 C31 1_555 1_555
C37 N5 1_555 1_555
C38 N5 1_555 1_555
H1 C8 1_555 1_555
H2 C8 1_555 1_555
H3 C8 1_555 1_555
H4 C9 1_555 1_555
H5 C9 1_555 1_555
H6 C9 1_555 1_555
H7 C10 1_555 1_555
H8 C10 1_555 1_555
H9 C10 1_555 1_555
H10 C13 1_555 1_555
H11 C13 1_555 1_555
H12 C13 1_555 1_555
H13 C14 1_555 1_555
H14 C14 1_555 1_555
H15 C14 1_555 1_555
H16 C15 1_555 1_555
H17 C15 1_555 1_555
H18 C15 1_555 1_555
H19 O1 1_555 1_555
H20 C19 1_555 1_555
H21 C19 1_555 1_555
H22 C19 1_555 1_555
H23 C20 1_555 1_555
H24 C20 1_555 1_555
H25 C20 1_555 1_555
H26 C23 1_555 1_555
H27 C24 1_555 1_555
H28 C26 1_555 1_555
H29 C27 1_555 1_555
H30 C32 1_555 1_555
H31 C33 1_555 1_555
H32 C35 1_555 1_555
H33 C36 1_555 1_555
H34 C37 1_555 1_555
H35 C37 1_555 1_555
H36 C37 1_555 1_555
H37 C38 1_555 1_555
H38 C38 1_555 1_555
H39 C38 1_555 1_555
C26 C27 1_555 1_555
C35 C36 1_555 1_555

#END
