
#######################################################################
#
#                 Cambridge Crystallographic Data Centre
#                                CCDC 
#
#######################################################################
#
# If this CIF has been generated from an entry in the Cambridge 
# Structural Database, then it will include bibliographic, chemical, 
# crystal, experimental, refinement or atomic coordinate data resulting 
# from the CCDC's data processing and validation procedures.
#
#######################################################################

data_ICIGIM
_chemical_formula_moiety         'C40 H51 N5 Si1'
_chemical_name_systematic        
7-t-Butyl-6-(2,2-dicyano-1-(4-(dimethylamino)phenyl)vinyl)-2,2-dimethyl-1-((triisopropylsilyl)ethynyl)-2,3,3a,4-tetrahydro-5H-indene-5,5-dicarbonitrile
_symmetry_cell_setting           monoclinic
_symmetry_space_group_name_H-M   'C 2/c'
_symmetry_Int_Tables_number      15
_space_group_name_Hall           '-C 2yn'
loop_
_symmetry_equiv_pos_site_id
_symmetry_equiv_pos_as_xyz
1 x,y,z
2 -x,y,1/2-z
3 1/2+x,1/2+y,z
4 1/2-x,1/2+y,1/2-z
5 -x,-y,-z
6 x,-y,1/2+z
7 1/2-x,1/2-y,-z
8 1/2+x,1/2-y,1/2+z
_cell_length_a                   55.829(5)
_cell_length_b                   9.4715(6)
_cell_length_c                   14.3143(13)
_cell_angle_alpha                90
_cell_angle_beta                 94.330(11)
_cell_angle_gamma                90
_cell_volume                     7547.57
_exptl_crystal_colour            bronze
_cell_formula_units_Z            8
loop_
_atom_site_label
_atom_site_type_symbol
_atom_site_fract_x
_atom_site_fract_y
_atom_site_fract_z
Si1 Si 0.69908(3) 0.72586(18) 0.22782(13)
N1 N 0.54923(7) 1.1341(3) 0.2100(3)
N2 N 0.59937(7) 0.8344(3) 0.1080(3)
N3 N 0.48796(6) 0.7809(3) 0.5343(3)
N4 N 0.52704(8) 0.5585(4) 0.2003(3)
N5 N 0.59263(7) 0.4607(3) 0.1174(3)
C1 C 0.55793(8) 1.0250(4) 0.2212(3)
C2 C 0.56989(7) 0.8909(3) 0.2342(3)
C3 C 0.56600(7) 0.7981(3) 0.3048(3)
C4 C 0.58263(8) 0.6737(3) 0.3146(3)
C5 C 0.60491(8) 0.6659(3) 0.3566(3)
C6 C 0.61556(8) 0.5226(3) 0.3526(3)
C7 C 0.63645(8) 0.4788(3) 0.3221(3)
C8 C 0.63937(9) 0.3184(3) 0.3313(4)
C9 C 0.61330(9) 0.2713(4) 0.3410(4)
H1 H 0.6131(8) 0.185(5) 0.387(4)
H2 H 0.6054(8) 0.240(5) 0.266(4)
C10 C 0.60021(9) 0.3989(3) 0.3810(4)
H3 H 0.5997(7) 0.395(3) 0.451(3)
C11 C 0.57429(8) 0.4159(4) 0.3444(4)
H4 H 0.5680(6) 0.329(3) 0.320(3)
H5 H 0.5627(7) 0.442(4) 0.394(3)
C12 C 0.57184(7) 0.5362(3) 0.2683(3)
C13 C 0.58672(8) 0.8594(4) 0.1656(4)
C14 C 0.54634(7) 0.8021(3) 0.3658(3)
C15 C 0.52470(8) 0.8753(4) 0.3416(4)
H6 H 0.5232 0.9370 0.2796
C16 C 0.50564(8) 0.8682(4) 0.3966(4)
H7 H 0.4897 0.9250 0.3765
C17 C 0.50683(7) 0.7864(4) 0.4798(3)
C18 C 0.52863(7) 0.7143(3) 0.5043(3)
H8 H 0.5305 0.6544 0.5669
C19 C 0.54734(7) 0.7209(4) 0.4482(3)
H9 H 0.5632 0.6627 0.4675
C20 C 0.48952(8) 0.6998(4) 0.6204(4)
H10 H 0.4884 0.5886 0.6041
H11 H 0.4749 0.7289 0.6619
H12 H 0.5064 0.7216 0.6595
C21 C 0.46450(8) 0.8336(4) 0.4999(4)
H13 H 0.4657 0.9451 0.4854
H14 H 0.4519 0.8167 0.5524
H15 H 0.4585 0.7782 0.4365
C22 C 0.61881(8) 0.7851(3) 0.4111(3)
C23 C 0.60266(10) 0.8744(5) 0.4690(4)
H16 H 0.5945(7) 0.817(4) 0.514(3)
H17 H 0.6125(9) 0.943(5) 0.498(4)
H18 H 0.5887(9) 0.921(5) 0.434(4)
C24 C 0.63056(9) 0.8820(4) 0.3408(4)
H19 H 0.6173(7) 0.941(4) 0.300(3)
H20 H 0.6433(8) 0.952(4) 0.380(3)
H21 H 0.6415(9) 0.833(4) 0.298(4)
C25 C 0.63830(9) 0.7216(4) 0.4789(4)
H22 H 0.6514(7) 0.674(4) 0.447(3)
H23 H 0.6317(7) 0.637(4) 0.520(3)
H24 H 0.6458(8) 0.805(4) 0.524(3)
C26 C 0.65560(8) 0.5609(4) 0.2891(4)
C27 C 0.67282(8) 0.6228(4) 0.2633(4)
C28 C 0.68896(12) 0.9139(6) 0.2030(7)
H25 H 0.6812 0.9514 0.2652
C29 C 0.70912(14) 1.0156(7) 0.1840(7)
H26 H 0.7233 1.0074 0.2394
H27 H 0.7023 1.1222 0.1811
H28 H 0.7161 0.9894 0.1178
C30 C 0.66873(14) 0.9182(7) 0.1226(6)
H29 H 0.6760 0.8884 0.0576
H30 H 0.6615 1.0238 0.1163
H31 H 0.6546 0.8455 0.1378
C31 C 0.72120(12) 0.7258(8) 0.3340(6)
H32 H 0.7374 0.7745 0.3131
C32 C 0.71228(15) 0.8166(8) 0.4127(6)
H33 H 0.7090 0.9228 0.3874
H34 H 0.7257 0.8188 0.4710
H35 H 0.6959 0.7724 0.4353
C33 C 0.72784(13) 0.5763(8) 0.3659(7)
H36 H 0.7132 0.5309 0.4010
H37 H 0.7438 0.5795 0.4135
H38 H 0.7312 0.5125 0.3057
C34 C 0.71024(12) 0.6394(6) 0.1243(6)
H39 H 0.6999 0.6832 0.0643
C35 C 0.73715(15) 0.6734(8) 0.1101(7)
H40 H 0.7391 0.7852 0.0982
H41 H 0.7427 0.6156 0.0504
H42 H 0.7482 0.6429 0.1720
C36 C 0.7065(2) 0.4775(10) 0.1184(10)
H43 H 0.7135 0.4294 0.1833
H44 H 0.7159 0.4357 0.0612
H45 H 0.6876 0.4546 0.1068
C37 C 0.65576(12) 0.2874(5) 0.4191(5)
H46 H 0.6572(8) 0.185(5) 0.425(3)
H47 H 0.6711(10) 0.332(5) 0.421(4)
H48 H 0.6456(10) 0.337(6) 0.475(4)
C38 C 0.64954(11) 0.2532(4) 0.2448(5)
H49 H 0.6494(8) 0.149(5) 0.249(3)
H50 H 0.6683(9) 0.287(4) 0.241(3)
H51 H 0.6390(10) 0.284(5) 0.191(4)
C39 C 0.54648(10) 0.5514(4) 0.2324(4)
C40 C 0.58448(8) 0.4944(4) 0.1844(4)
C41? C 0.6958(4) 0.788(2) 0.1312(17)
C42? C 0.7174(5) 0.804(3) 0.076(3)
C43? C 0.6809(8) 0.910(4) 0.149(4)
C44? C 0.7136(5) 0.786(3) 0.318(2)
C45? C 0.7002(6) 0.901(3) 0.363(3)
C46? C 0.7359(6) 0.723(4) 0.366(3)
C47? C 0.7172(5) 0.508(2) 0.176(3)
C48? C 0.7348(7) 0.581(4) 0.111(3)
C49? C 0.6982(9) 0.446(7) 0.106(5)
H52? H 0.6839 0.7297 0.0823
H53? H 0.7328 0.7581 0.1153
H54? H 0.7207 0.9147 0.0645
H55? H 0.7143 0.7506 0.0100
H56? H 0.6637 0.8989 0.1106
H57? H 0.6896 1.0048 0.1275
H58? H 0.6784 0.9156 0.2233
H59? H 0.7224 0.8521 0.2690
H60? H 0.7119 0.9500 0.4173
H61? H 0.6848 0.8559 0.3940
H62? H 0.6942 0.9784 0.3115
H63? H 0.7311 0.6561 0.4228
H64? H 0.7476 0.8063 0.3935
H65? H 0.7451 0.6606 0.3166
H66? H 0.7257 0.4329 0.2240
H67? H 0.7253 0.6077 0.0444
H68? H 0.7494 0.5104 0.0987
H69? H 0.7419 0.6766 0.1437
H70? H 0.6913 0.3498 0.1346
H71? H 0.7060 0.4229 0.0412
H72? H 0.6837 0.5207 0.0933
Si2? Si 0.70166(13) 0.6505(8) 0.2308(6)
loop_
_geom_bond_atom_site_label_1
_geom_bond_atom_site_label_2
_geom_bond_site_symmetry_1
_geom_bond_site_symmetry_2
Si1 C27 1_555 1_555
N1 C1 1_555 1_555
N2 C13 1_555 1_555
N3 C17 1_555 1_555
N4 C39 1_555 1_555
N5 C40 1_555 1_555
C1 C2 1_555 1_555
C2 C3 1_555 1_555
C3 C4 1_555 1_555
C4 C5 1_555 1_555
C5 C6 1_555 1_555
C6 C7 1_555 1_555
C7 C8 1_555 1_555
C8 C9 1_555 1_555
C9 H1 1_555 1_555
H2 C9 1_555 1_555
C10 C6 1_555 1_555
H3 C10 1_555 1_555
C11 C10 1_555 1_555
H4 C11 1_555 1_555
H5 C11 1_555 1_555
C12 C4 1_555 1_555
C13 C2 1_555 1_555
C14 C3 1_555 1_555
C15 C14 1_555 1_555
H6 C15 1_555 1_555
C16 C15 1_555 1_555
H7 C16 1_555 1_555
C17 C16 1_555 1_555
C18 C17 1_555 1_555
H8 C18 1_555 1_555
C19 C14 1_555 1_555
H9 C19 1_555 1_555
C20 N3 1_555 1_555
H10 C20 1_555 1_555
H11 C20 1_555 1_555
H12 C20 1_555 1_555
C21 N3 1_555 1_555
H13 C21 1_555 1_555
H14 C21 1_555 1_555
H15 C21 1_555 1_555
C22 C5 1_555 1_555
C23 C22 1_555 1_555
H16 C23 1_555 1_555
H17 C23 1_555 1_555
H18 C23 1_555 1_555
C24 C22 1_555 1_555
H19 C24 1_555 1_555
H20 C24 1_555 1_555
H21 C24 1_555 1_555
C25 C22 1_555 1_555
H22 C25 1_555 1_555
H23 C25 1_555 1_555
H24 C25 1_555 1_555
C26 C7 1_555 1_555
C27 C26 1_555 1_555
C28 Si1 1_555 1_555
H25 C28 1_555 1_555
C29 C28 1_555 1_555
H26 C29 1_555 1_555
H27 C29 1_555 1_555
H28 C29 1_555 1_555
C30 C28 1_555 1_555
H29 C30 1_555 1_555
H30 C30 1_555 1_555
H31 C30 1_555 1_555
C31 Si1 1_555 1_555
H32 C31 1_555 1_555
C32 C31 1_555 1_555
H33 C32 1_555 1_555
H34 C32 1_555 1_555
H35 C32 1_555 1_555
C33 C31 1_555 1_555
H36 C33 1_555 1_555
H37 C33 1_555 1_555
H38 C33 1_555 1_555
C34 Si1 1_555 1_555
H39 C34 1_555 1_555
C35 C34 1_555 1_555
H40 C35 1_555 1_555
H41 C35 1_555 1_555
H42 C35 1_555 1_555
C36 C34 1_555 1_555
H43 C36 1_555 1_555
H44 C36 1_555 1_555
H45 C36 1_555 1_555
C37 C8 1_555 1_555
H46 C37 1_555 1_555
H47 C37 1_555 1_555
H48 C37 1_555 1_555
C38 C8 1_555 1_555
H49 C38 1_555 1_555
H50 C38 1_555 1_555
H51 C38 1_555 1_555
C39 C12 1_555 1_555
C40 C12 1_555 1_555
C9 C10 1_555 1_555
C11 C12 1_555 1_555
C18 C19 1_555 1_555

#END
