
#######################################################################
#
#                 Cambridge Crystallographic Data Centre
#                                CCDC 
#
#######################################################################
#
# If this CIF has been generated from an entry in the Cambridge 
# Structural Database, then it will include bibliographic, chemical, 
# crystal, experimental, refinement or atomic coordinate data resulting 
# from the CCDC's data processing and validation procedures.
#
#######################################################################

data_ICIGEI
_chemical_formula_moiety         'C40 H51 N5 Si1'
_chemical_name_systematic        
7-t-Butyl-6-(2,2-dicyano-1-(4-(dimethylamino)phenyl)vinyl)-2,2-dimethyl-1-((triisopropylsilyl)ethynyl)-2,3,3a,4-tetrahydro-5H-indene-5,5-dicarbonitrile
_symmetry_cell_setting           monoclinic
_symmetry_space_group_name_H-M   'P 21/n'
_symmetry_Int_Tables_number      14
_space_group_name_Hall           '-P 2yn'
loop_
_symmetry_equiv_pos_site_id
_symmetry_equiv_pos_as_xyz
1 x,y,z
2 1/2-x,1/2+y,1/2-z
3 -x,-y,-z
4 1/2+x,1/2-y,1/2+z
_cell_length_a                   11.1543(11)
_cell_length_b                   31.011(4)
_cell_length_c                   11.3499(13)
_cell_angle_alpha                90
_cell_angle_beta                 109.380(3)
_cell_angle_gamma                90
_cell_volume                     3703.55
_exptl_crystal_colour            orange
_cell_formula_units_Z            4
loop_
_atom_site_label
_atom_site_type_symbol
_atom_site_fract_x
_atom_site_fract_y
_atom_site_fract_z
Si1 Si 0.34878(7) 0.35615(2) 1.25512(7)
N1 N 0.7917(2) 0.33648(8) 0.6696(3)
N2 N 0.6061(2) 0.28005(8) 0.8949(2)
N3 N 0.9828(2) 0.43588(9) 0.8771(3)
N4 N 0.6920(3) 0.46406(9) 0.5345(3)
N5 N 0.1228(2) 0.41167(8) 0.6133(2)
C1 C 0.5051(3) 0.34897(9) 1.2370(3)
C2 C 0.6031(2) 0.34374(8) 1.2153(2)
C3 C 0.7193(2) 0.33438(8) 1.1941(2)
C4 C 0.7988(3) 0.29551(9) 1.2576(3)
C5 C 0.8845(3) 0.28939(9) 1.1770(3)
H1 H 0.973(3) 0.2773(10) 1.220(3)
H2 H 0.843(3) 0.2672(11) 1.108(3)
C6 C 0.8933(2) 0.33362(9) 1.1208(2)
H3 H 0.968(3) 0.3498(9) 1.176(3)
C7 C 0.9008(2) 0.33262(9) 0.9880(3)
H4 H 0.930(3) 0.3060(9) 0.972(3)
H5 H 0.959(3) 0.3558(10) 0.976(3)
C8 C 0.7668(2) 0.34146(8) 0.8910(2)
C9 C 0.7181(2) 0.38590(8) 0.9190(2)
C10 C 0.7258(2) 0.39366(8) 1.0381(2)
C11 C 0.7731(2) 0.35624(8) 1.1225(2)
C12 C 0.2380(3) 0.31881(9) 1.1371(3)
H6 H 0.161(3) 0.3211(11) 1.147(3)
C13 C 0.2762(3) 0.27152(10) 1.1588(3)
H7 H 0.365(3) 0.2691(10) 1.160(3)
H8 H 0.217(4) 0.2522(12) 1.094(4)
H9 H 0.277(4) 0.2621(12) 1.246(4)
C14 C 0.2273(3) 0.33228(11) 1.0039(3)
H10 H 0.195(3) 0.3621(11) 0.988(3)
H11 H 0.317(3) 0.3302(9) 0.997(3)
H12 H 0.172(4) 0.3112(12) 0.947(4)
C15 C 0.3625(3) 0.34332(10) 1.4216(3)
H13 H 0.381(3) 0.3708(10) 1.464(3)
C16 C 0.4628(3) 0.30933(12) 1.4835(3)
H14 H 0.555(4) 0.3188(12) 1.495(4)
H15 H 0.442(3) 0.2814(12) 1.441(3)
H16 H 0.470(4) 0.3070(11) 1.567(4)
C17 C 0.2339(3) 0.33042(11) 1.4324(3)
H17 H 0.207(3) 0.3042(10) 1.388(3)
H18 H 0.166(4) 0.3543(13) 1.403(4)
H19 H 0.244(3) 0.3264(11) 1.522(4)
C18 C 0.3011(3) 0.41389(9) 1.2126(3)
H20 H 0.305(3) 0.4168(11) 1.128(3)
C19 C 0.3964(3) 0.44544(10) 1.2970(3)
H21 H 0.382(4) 0.4746(13) 1.275(4)
H22 H 0.488(4) 0.4373(11) 1.308(3)
H23 H 0.397(3) 0.4439(11) 1.390(4)
C20 C 0.1660(3) 0.42500(11) 1.2079(4)
H24 H 0.103(4) 0.4055(12) 1.149(4)
H25 H 0.138(3) 0.4547(11) 1.184(3)
H26 H 0.155(4) 0.4213(12) 1.290(4)
C21 C 0.7174(3) 0.25559(10) 1.2546(4)
H27 H 0.774(3) 0.2301(12) 1.281(3)
H28 H 0.667(3) 0.2484(10) 1.170(3)
H29 H 0.663(4) 0.2594(12) 1.309(4)
C22 C 0.8759(3) 0.30753(12) 1.3921(3)
H30 H 0.932(4) 0.3333(11) 1.396(3)
H31 H 0.925(4) 0.2842(12) 1.430(4)
H32 H 0.824(4) 0.3163(11) 1.437(4)
C23 C 0.7785(3) 0.33925(9) 0.7654(3)
C24 C 0.6765(2) 0.30672(8) 0.8946(2)
C25 C 0.6966(3) 0.43690(9) 1.0902(3)
C26 C 0.7495(3) 0.47519(10) 1.0365(3)
H33 H 0.844(3) 0.4704(9) 1.039(3)
H34 H 0.748(3) 0.5021(11) 1.082(3)
H35 H 0.704(3) 0.4796(11) 0.949(4)
C27 C 0.5531(3) 0.44298(10) 1.0598(3)
H36 H 0.513(3) 0.4172(10) 1.088(3)
H37 H 0.538(3) 0.4685(10) 1.105(3)
H38 H 0.506(3) 0.4460(10) 0.963(3)
C28 C 0.7620(3) 0.43799(10) 1.2326(3)
H39 H 0.863(3) 0.4318(10) 1.254(3)
H40 H 0.755(3) 0.4667(10) 1.257(3)
H41 H 0.730(3) 0.4161(10) 1.272(3)
C29 C 0.6598(2) 0.41344(8) 0.8064(2)
C30 C 0.7418(3) 0.43342(8) 0.7563(3)
C31 C 0.8752(3) 0.43467(9) 0.8249(3)
C32 C 0.7097(3) 0.45094(9) 0.6330(3)
C33 C 0.5224(2) 0.41347(8) 0.7534(2)
C34 C 0.4526(3) 0.44490(8) 0.6678(2)
H42 H 0.491(3) 0.4684(9) 0.644(3)
C35 C 0.3225(3) 0.44523(9) 0.6248(2)
H43 H 0.274(3) 0.4678(11) 0.570(3)
C36 C 0.2519(3) 0.41243(9) 0.6586(2)
C37 C 0.3214(3) 0.38089(9) 0.7444(3)
H44 H 0.271(3) 0.3586(10) 0.763(3)
C38 C 0.4510(3) 0.38218(9) 0.7904(3)
H45 H 0.493(3) 0.3583(9) 0.847(3)
C39 C 0.0529(3) 0.37790(11) 0.6503(3)
H46 H 0.082(3) 0.3483(10) 0.632(3)
H47 H -0.037(3) 0.3814(10) 0.599(3)
H48 H 0.065(3) 0.3792(10) 0.738(3)
C40 C 0.0522(3) 0.44758(12) 0.5414(3)
H49 H 0.066(4) 0.4738(13) 0.591(4)
H50 H -0.049(4) 0.4412(11) 0.515(4)
H51 H 0.071(3) 0.4526(10) 0.463(3)
loop_
_geom_bond_atom_site_label_1
_geom_bond_atom_site_label_2
_geom_bond_site_symmetry_1
_geom_bond_site_symmetry_2
Si1 C1 1_555 1_555
N1 C23 1_555 1_555
N2 C24 1_555 1_555
N3 C31 1_555 1_555
N4 C32 1_555 1_555
N5 C36 1_555 1_555
C1 C2 1_555 1_555
C2 C3 1_555 1_555
C3 C4 1_555 1_555
C4 C5 1_555 1_555
C5 H1 1_555 1_555
H2 C5 1_555 1_555
C6 C5 1_555 1_555
H3 C6 1_555 1_555
C7 C6 1_555 1_555
H4 C7 1_555 1_555
H5 C7 1_555 1_555
C8 C7 1_555 1_555
C9 C8 1_555 1_555
C10 C9 1_555 1_555
C11 C3 1_555 1_555
C12 Si1 1_555 1_555
H6 C12 1_555 1_555
C13 C12 1_555 1_555
H7 C13 1_555 1_555
H8 C13 1_555 1_555
H9 C13 1_555 1_555
C14 C12 1_555 1_555
H10 C14 1_555 1_555
H11 C14 1_555 1_555
H12 C14 1_555 1_555
C15 Si1 1_555 1_555
H13 C15 1_555 1_555
C16 C15 1_555 1_555
H14 C16 1_555 1_555
H15 C16 1_555 1_555
H16 C16 1_555 1_555
C17 C15 1_555 1_555
H17 C17 1_555 1_555
H18 C17 1_555 1_555
H19 C17 1_555 1_555
C18 Si1 1_555 1_555
H20 C18 1_555 1_555
C19 C18 1_555 1_555
H21 C19 1_555 1_555
H22 C19 1_555 1_555
H23 C19 1_555 1_555
C20 C18 1_555 1_555
H24 C20 1_555 1_555
H25 C20 1_555 1_555
H26 C20 1_555 1_555
C21 C4 1_555 1_555
H27 C21 1_555 1_555
H28 C21 1_555 1_555
H29 C21 1_555 1_555
C22 C4 1_555 1_555
H30 C22 1_555 1_555
H31 C22 1_555 1_555
H32 C22 1_555 1_555
C23 C8 1_555 1_555
C24 C8 1_555 1_555
C25 C10 1_555 1_555
C26 C25 1_555 1_555
H33 C26 1_555 1_555
H34 C26 1_555 1_555
H35 C26 1_555 1_555
C27 C25 1_555 1_555
H36 C27 1_555 1_555
H37 C27 1_555 1_555
H38 C27 1_555 1_555
C28 C25 1_555 1_555
H39 C28 1_555 1_555
H40 C28 1_555 1_555
H41 C28 1_555 1_555
C29 C9 1_555 1_555
C30 C29 1_555 1_555
C31 C30 1_555 1_555
C32 C30 1_555 1_555
C33 C29 1_555 1_555
C34 C33 1_555 1_555
H42 C34 1_555 1_555
C35 C34 1_555 1_555
H43 C35 1_555 1_555
C36 C35 1_555 1_555
C37 C36 1_555 1_555
H44 C37 1_555 1_555
C38 C33 1_555 1_555
H45 C38 1_555 1_555
C39 N5 1_555 1_555
H46 C39 1_555 1_555
H47 C39 1_555 1_555
H48 C39 1_555 1_555
C40 N5 1_555 1_555
H49 C40 1_555 1_555
H50 C40 1_555 1_555
H51 C40 1_555 1_555
C6 C11 1_555 1_555
C10 C11 1_555 1_555
C37 C38 1_555 1_555

#END
