
#######################################################################
#
#                 Cambridge Crystallographic Data Centre
#                                CCDC 
#
#######################################################################
#
# If this CIF has been generated from an entry in the Cambridge 
# Structural Database, then it will include bibliographic, chemical, 
# crystal, experimental, refinement or atomic coordinate data resulting 
# from the CCDC's data processing and validation procedures.
#
#######################################################################

data_ICIGUZ
_chemical_formula_moiety         'C22 H16 O2'
_chemical_name_systematic        '1-phenyl-2-anthryl acetate'
_symmetry_cell_setting           monoclinic
_symmetry_space_group_name_H-M   'P 21/c'
_symmetry_Int_Tables_number      14
_space_group_name_Hall           '-P 2ybc'
loop_
_symmetry_equiv_pos_site_id
_symmetry_equiv_pos_as_xyz
1 x,y,z
2 -x,1/2+y,1/2-z
3 -x,-y,-z
4 x,1/2-y,1/2+z
_cell_length_a                   21.408(2)
_cell_length_b                   19.154(2)
_cell_length_c                   8.0053(9)
_cell_angle_alpha                90
_cell_angle_beta                 92.891(2)
_cell_angle_gamma                90
_cell_volume                     3278.39
_exptl_crystal_colour            colorless
_exptl_crystal_description       block
_cell_formula_units_Z            8
loop_
_atom_site_label
_atom_site_type_symbol
_atom_site_fract_x
_atom_site_fract_y
_atom_site_fract_z
O1 O 0.38748(5) 0.35804(6) 0.35655(14)
O2 O 0.35860(7) 0.38583(11) 0.0923(2)
C1 C 0.39840(8) 0.38166(9) 0.2006(2)
C2 C 0.46590(8) 0.39927(10) 0.1853(3)
H1 H 0.4815 0.4242 0.2859
H2 H 0.4705 0.4290 0.0870
H3 H 0.4900 0.3562 0.1729
C3 C 0.32537(7) 0.33830(8) 0.38658(19)
C4 C 0.28943(7) 0.38144(7) 0.47834(18)
C5 C 0.22703(6) 0.35885(7) 0.51254(17)
C6 C 0.20526(7) 0.29219(8) 0.44976(18)
C7 C 0.24609(7) 0.25015(8) 0.35669(19)
H4 H 0.2322 0.2059 0.3161
C8 C 0.30459(7) 0.27238(8) 0.3252(2)
H5 H 0.3313 0.2440 0.2626
C9 C 0.14489(7) 0.26994(8) 0.48245(19)
H6 H 0.1305 0.2263 0.4396
C10 C 0.10514(7) 0.31039(8) 0.57671(19)
C11 C 0.12719(7) 0.37629(8) 0.64115(18)
C12 C 0.18733(7) 0.39917(8) 0.60691(18)
H7 H 0.2015 0.4431 0.6488
C13 C 0.08718(7) 0.41624(9) 0.7421(2)
H8 H 0.1012 0.4599 0.7861
C14 C 0.02896(8) 0.39230(10) 0.7760(2)
H9 H 0.0031 0.4192 0.8443
C15 C 0.00687(8) 0.32739(10) 0.7095(2)
H10 H -0.0338 0.3115 0.7328
C16 C 0.04365(7) 0.28798(9) 0.6129(2)
H11 H 0.0282 0.2449 0.5689
C17 C 0.31325(7) 0.44998(8) 0.54284(18)
C18 C 0.35976(7) 0.45190(9) 0.6714(2)
H12 H 0.3759 0.4096 0.7183
C19 C 0.38247(8) 0.51591(10) 0.7310(2)
H13 H 0.4145 0.5170 0.8176
C20 C 0.35893(8) 0.57757(9) 0.6654(2)
H14 H 0.3753 0.6210 0.7048
C21 C 0.31149(9) 0.57608(9) 0.5424(2)
H15 H 0.2944 0.6186 0.4996
C22 C 0.28845(8) 0.51273(8) 0.4804(2)
H16 H 0.2558 0.5122 0.3955
O3 O 0.13377(5) 0.61663(6) 0.76965(15)
O4 O 0.08131(6) 0.69046(7) 0.93061(19)
C23 C 0.08071(8) 0.64489(10) 0.8272(2)
C24 C 0.02408(9) 0.61054(12) 0.7466(3)
H17 H 0.0219 0.6207 0.6264
H18 H -0.0135 0.6285 0.7967
H19 H 0.0268 0.5600 0.7639
C25 C 0.19086(7) 0.64592(9) 0.8312(2)
C26 C 0.22672(7) 0.60975(8) 0.94669(18)
C27 C 0.28808(7) 0.63676(8) 0.99287(18)
C28 C 0.30719(7) 0.70261(8) 0.92360(19)
C29 C 0.26538(8) 0.73805(9) 0.8082(2)
H20 H 0.2772 0.7819 0.7640
C30 C 0.20926(8) 0.71038(9) 0.7607(2)
H21 H 0.1824 0.7338 0.6810
C31 C 0.36626(8) 0.72970(8) 0.9698(2)
H22 H 0.3784 0.7732 0.9246
C32 C 0.40768(7) 0.69472(8) 1.0799(2)
C33 C 0.38897(7) 0.62909(8) 1.14887(19)
C34 C 0.32965(7) 0.60196(8) 1.10425(19)
H23 H 0.3174 0.5588 1.1510
C35 C 0.43110(7) 0.59429(9) 1.2649(2)
H24 H 0.4193 0.5510 1.3117
C36 C 0.48813(8) 0.62237(10) 1.3096(2)
H25 H 0.5154 0.5987 1.3880
C37 C 0.50698(8) 0.68699(10) 1.2395(2)
H26 H 0.5470 0.7058 1.2701
C38 C 0.46814(8) 0.72190(10) 1.1292(2)
H27 H 0.4813 0.7650 1.0840
C39 C 0.20219(7) 0.54556(8) 1.02689(18)
C40 C 0.22914(7) 0.48008(8) 1.0053(2)
H28 H 0.2644 0.4755 0.9387
C41 C 0.20450(8) 0.42121(8) 1.0810(2)
H29 H 0.2232 0.3768 1.0661
C42 C 0.15302(8) 0.42727(9) 1.1777(2)
H30 H 0.1358 0.3869 1.2268
C43 C 0.12669(8) 0.49202(9) 1.2028(2)
H31 H 0.0918 0.4962 1.2708
C44 C 0.15113(7) 0.55111(9) 1.1286(2)
H32 H 0.1330 0.5955 1.1473
loop_
_geom_bond_atom_site_label_1
_geom_bond_atom_site_label_2
_geom_bond_site_symmetry_1
_geom_bond_site_symmetry_2
O1 C1 1_555 1_555
O2 C1 1_555 1_555
C1 C2 1_555 1_555
C2 H1 1_555 1_555
H2 C2 1_555 1_555
H3 C2 1_555 1_555
C3 O1 1_555 1_555
C4 C3 1_555 1_555
C5 C4 1_555 1_555
C6 C5 1_555 1_555
C7 C6 1_555 1_555
H4 C7 1_555 1_555
C8 C3 1_555 1_555
H5 C8 1_555 1_555
C9 C6 1_555 1_555
H6 C9 1_555 1_555
C10 C9 1_555 1_555
C11 C10 1_555 1_555
C12 C5 1_555 1_555
H7 C12 1_555 1_555
C13 C11 1_555 1_555
H8 C13 1_555 1_555
C14 C13 1_555 1_555
H9 C14 1_555 1_555
C15 C14 1_555 1_555
H10 C15 1_555 1_555
C16 C10 1_555 1_555
H11 C16 1_555 1_555
C17 C4 1_555 1_555
C18 C17 1_555 1_555
H12 C18 1_555 1_555
C19 C18 1_555 1_555
H13 C19 1_555 1_555
C20 C19 1_555 1_555
H14 C20 1_555 1_555
C21 C20 1_555 1_555
H15 C21 1_555 1_555
C22 C17 1_555 1_555
H16 C22 1_555 1_555
O3 C23 1_555 1_555
O4 C23 1_555 1_555
C23 C24 1_555 1_555
C24 H17 1_555 1_555
H18 C24 1_555 1_555
H19 C24 1_555 1_555
C25 O3 1_555 1_555
C26 C25 1_555 1_555
C27 C26 1_555 1_555
C28 C27 1_555 1_555
C29 C28 1_555 1_555
H20 C29 1_555 1_555
C30 C25 1_555 1_555
H21 C30 1_555 1_555
C31 C28 1_555 1_555
H22 C31 1_555 1_555
C32 C31 1_555 1_555
C33 C32 1_555 1_555
C34 C27 1_555 1_555
H23 C34 1_555 1_555
C35 C33 1_555 1_555
H24 C35 1_555 1_555
C36 C35 1_555 1_555
H25 C36 1_555 1_555
C37 C36 1_555 1_555
H26 C37 1_555 1_555
C38 C32 1_555 1_555
H27 C38 1_555 1_555
C39 C26 1_555 1_555
C40 C39 1_555 1_555
H28 C40 1_555 1_555
C41 C40 1_555 1_555
H29 C41 1_555 1_555
C42 C41 1_555 1_555
H30 C42 1_555 1_555
C43 C42 1_555 1_555
H31 C43 1_555 1_555
C44 C39 1_555 1_555
H32 C44 1_555 1_555
C7 C8 1_555 1_555
C11 C12 1_555 1_555
C15 C16 1_555 1_555
C21 C22 1_555 1_555
C29 C30 1_555 1_555
C33 C34 1_555 1_555
C37 C38 1_555 1_555
C43 C44 1_555 1_555

#END
