
#######################################################################
#
#                 Cambridge Crystallographic Data Centre
#                                CCDC 
#
#######################################################################
#
# If this CIF has been generated from an entry in the Cambridge 
# Structural Database, then it will include bibliographic, chemical, 
# crystal, experimental, refinement or atomic coordinate data resulting 
# from the CCDC's data processing and validation procedures.
#
#######################################################################

data_ICIKIR
_chemical_formula_moiety         'C20 H24 N2'
_chemical_name_systematic        
3,3'-dimethyl-1,1',2,2',3,3',4,4'-octahydro-2,2'-biquinoline
_symmetry_cell_setting           monoclinic
_symmetry_space_group_name_H-M   'P 21/n'
_symmetry_Int_Tables_number      14
_space_group_name_Hall           '-P 2yn'
loop_
_symmetry_equiv_pos_site_id
_symmetry_equiv_pos_as_xyz
1 x,y,z
2 1/2-x,1/2+y,1/2-z
3 -x,-y,-z
4 1/2+x,1/2-y,1/2+z
_cell_length_a                   8.38894(11)
_cell_length_b                   5.73459(10)
_cell_length_c                   16.3352(2)
_cell_angle_alpha                90
_cell_angle_beta                 100.3487(13)
_cell_angle_gamma                90
_cell_volume                     773.056
_exptl_crystal_colour            colorless
_cell_formula_units_Z            2
loop_
_atom_site_label
_atom_site_type_symbol
_atom_site_fract_x
_atom_site_fract_y
_atom_site_fract_z
C1 C 0.29109(14) 0.9699(2) 0.14467(7)
C2 C 0.36385(15) 0.7648(2) 0.12316(7)
C3 C 0.50714(16) 0.6905(2) 0.17283(8)
H1 H 0.5568 0.5510 0.1586
C4 C 0.57946(16) 0.8147(3) 0.24265(8)
H2 H 0.6765 0.7599 0.2763
C5 C 0.50777(16) 1.0199(3) 0.26258(8)
H3 H 0.5568 1.1074 0.3098
C6 C 0.36509(15) 1.0982(2) 0.21415(8)
H4 H 0.3173 1.2395 0.2281
C7 C 0.05731(14) 0.9173(2) 0.02841(7)
H5 H -0.0095 0.7988 0.0519
C8 C 0.17873(14) 0.7884(2) -0.01591(7)
H6 H 0.1156 0.6870 -0.0600
C9 C 0.28356(16) 0.6299(2) 0.04764(8)
H7 H 0.2151 0.5054 0.0651
H8 H 0.3678 0.5547 0.0212
C10 C 0.28204(15) 0.9537(3) -0.05775(8)
H9 H 0.3357 1.0667 -0.0169
H10 H 0.2127 1.0366 -0.1032
H11 H 0.3640 0.8640 -0.0801
N1 N 0.14768(12) 1.05299(19) 0.09709(6)
H12 H 0.1107 1.1904 0.1087
C1B C -0.29109(14) 1.0301(2) -0.14467(7)
C2B C -0.36385(15) 1.2352(2) -0.12316(7)
C3B C -0.50714(16) 1.3095(2) -0.17283(8)
H1B H -0.5568 1.4490 -0.1586
C4B C -0.57946(16) 1.1853(3) -0.24265(8)
H2B H -0.6765 1.2401 -0.2763
C5B C -0.50777(16) 0.9801(3) -0.26258(8)
H3B H -0.5568 0.8926 -0.3098
C6B C -0.36509(15) 0.9018(2) -0.21415(8)
H4B H -0.3173 0.7605 -0.2281
C7B C -0.05731(14) 1.0827(2) -0.02841(7)
H5B H 0.0095 1.2012 -0.0519
C8B C -0.17873(14) 1.2116(2) 0.01591(7)
H6B H -0.1156 1.3130 0.0600
C9B C -0.28356(16) 1.3701(2) -0.04764(8)
H7B H -0.2151 1.4946 -0.0651
H8B H -0.3678 1.4453 -0.0212
C10B C -0.28204(15) 1.0463(3) 0.05775(8)
H9B H -0.3357 0.9333 0.0169
H10B H -0.2127 0.9634 0.1032
H11B H -0.3640 1.1360 0.0801
N1B N -0.14768(12) 0.94701(19) -0.09709(6)
H12B H -0.1107 0.8096 -0.1087
loop_
_geom_bond_atom_site_label_1
_geom_bond_atom_site_label_2
_geom_bond_site_symmetry_1
_geom_bond_site_symmetry_2
C1 C2 1_555 1_555
C2 C3 1_555 1_555
C3 H1 1_555 1_555
C4 C3 1_555 1_555
H2 C4 1_555 1_555
C5 C4 1_555 1_555
H3 C5 1_555 1_555
C6 C1 1_555 1_555
H4 C6 1_555 1_555
C7 H5 1_555 1_555
C8 C7 1_555 1_555
H6 C8 1_555 1_555
C9 C2 1_555 1_555
H7 C9 1_555 1_555
H8 C9 1_555 1_555
C10 C8 1_555 1_555
H9 C10 1_555 1_555
H10 C10 1_555 1_555
H11 C10 1_555 1_555
N1 C1 1_555 1_555
H12 N1 1_555 1_555
C1B C2B 1_555 1_555
C2B C3B 1_555 1_555
C3B H1B 1_555 1_555
C4B C3B 1_555 1_555
H2B C4B 1_555 1_555
C5B C4B 1_555 1_555
H3B C5B 1_555 1_555
C6B C1B 1_555 1_555
H4B C6B 1_555 1_555
C7B C7 1_555 1_555
H5B C7B 1_555 1_555
C8B C7B 1_555 1_555
H6B C8B 1_555 1_555
C9B C2B 1_555 1_555
H7B C9B 1_555 1_555
H8B C9B 1_555 1_555
C10B C8B 1_555 1_555
H9B C10B 1_555 1_555
H10B C10B 1_555 1_555
H11B C10B 1_555 1_555
N1B C1B 1_555 1_555
H12B N1B 1_555 1_555
C5 C6 1_555 1_555
C7 N1 1_555 1_555
C8 C9 1_555 1_555
C5B C6B 1_555 1_555
C7B N1B 1_555 1_555
C8B C9B 1_555 1_555

#END
