
#######################################################################
#
#                 Cambridge Crystallographic Data Centre
#                                CCDC 
#
#######################################################################
#
# If this CIF has been generated from an entry in the Cambridge 
# Structural Database, then it will include bibliographic, chemical, 
# crystal, experimental, refinement or atomic coordinate data resulting 
# from the CCDC's data processing and validation procedures.
#
#######################################################################

data_ICILUC
_chemical_formula_moiety         'C18 H13 Br1 N4 O2 S1'
_chemical_name_systematic        
1-(4-Bromobenzoyl)-3-(5-(E)-styryl-1,3,4-thiadiazol-2-yl)urea
_symmetry_cell_setting           triclinic
_symmetry_space_group_name_H-M   'P -1'
_symmetry_Int_Tables_number      2
_space_group_name_Hall           '-P 1'
loop_
_symmetry_equiv_pos_site_id
_symmetry_equiv_pos_as_xyz
1 x,y,z
2 -x,-y,-z
_cell_length_a                   7.0111(9)
_cell_length_b                   10.6587(14)
_cell_length_c                   12.5228(16)
_cell_angle_alpha                79.724(2)
_cell_angle_beta                 78.275(2)
_cell_angle_gamma                72.604(2)
_cell_volume                     867.425
_exptl_crystal_colour            colorless
_chemical_melting_point          'above 300deg.C'
_cell_formula_units_Z            2
loop_
_atom_site_label
_atom_site_type_symbol
_atom_site_fract_x
_atom_site_fract_y
_atom_site_fract_z
Br1 Br 1.37017(6) 0.21923(5) 0.01883(4)
C1 C 1.1083(5) 0.3028(3) 0.0865(3)
C2 C 1.0754(5) 0.3249(4) 0.1937(3)
H1 H 1.1823 0.2992 0.2334
C3 C 0.8824(5) 0.3855(3) 0.2426(3)
H2 H 0.8594 0.4002 0.3157
C4 C 0.7237(5) 0.4245(3) 0.1840(3)
C5 C 0.7613(5) 0.4017(4) 0.0752(3)
H3 H 0.6546 0.4274 0.0353
C6 C 0.9527(6) 0.3419(4) 0.0249(3)
H4 H 0.9769 0.3282 -0.0485
C7 C 0.5116(5) 0.4903(3) 0.2298(3)
C8 C 0.2765(5) 0.5709(3) 0.3962(3)
C9 C -0.0726(5) 0.6721(3) 0.3790(3)
C10 C -0.3993(5) 0.7792(3) 0.4664(3)
C11 C -0.5836(6) 0.8422(4) 0.5355(4)
H5 H -0.7031 0.8574 0.5079
C12 C -0.6029(6) 0.8800(3) 0.6309(3)
H6 H -0.4845 0.8627 0.6602
C13 C -0.7926(6) 0.9478(3) 0.6984(3)
C14 C -0.7773(7) 0.9888(4) 0.7936(3)
H7 H -0.6511 0.9711 0.8146
C15 C -0.9488(10) 1.0563(5) 0.8584(4)
H8 H -0.9361 1.0821 0.9232
C16 C -1.1311(8) 1.0850(5) 0.8300(5)
H9 H -1.2452 1.1317 0.8735
C17 C -1.1468(7) 1.0444(5) 0.7359(5)
H10 H -1.2747 1.0641 0.7164
C18 C -0.9857(6) 0.9768(4) 0.6689(4)
H11 H -1.0025 0.9504 0.6053
N1 N 0.4659(4) 0.5075(3) 0.3391(2)
N2 N 0.1229(4) 0.6132(3) 0.3388(3)
N3 N -0.2121(4) 0.6942(3) 0.3184(2)
N4 N -0.4010(4) 0.7550(3) 0.3699(3)
O1 O 0.3777(4) 0.5281(3) 0.1707(2)
O2 O 0.2587(3) 0.5837(2) 0.49289(17)
S1 S -0.15819(13) 0.72668(8) 0.50647(7)
H12 H 0.128(5) 0.606(3) 0.282(3)
H13 H 0.571(6) 0.477(3) 0.380(3)
loop_
_geom_bond_atom_site_label_1
_geom_bond_atom_site_label_2
_geom_bond_site_symmetry_1
_geom_bond_site_symmetry_2
Br1 C1 1_555 1_555
C1 C2 1_555 1_555
C2 H1 1_555 1_555
C3 C2 1_555 1_555
H2 C3 1_555 1_555
C4 C3 1_555 1_555
C5 C4 1_555 1_555
H3 C5 1_555 1_555
C6 C1 1_555 1_555
H4 C6 1_555 1_555
C7 C4 1_555 1_555
C8 N1 1_555 1_555
C9 N2 1_555 1_555
C10 C11 1_555 1_555
C11 H5 1_555 1_555
C12 C11 1_555 1_555
H6 C12 1_555 1_555
C13 C12 1_555 1_555
C14 C13 1_555 1_555
H7 C14 1_555 1_555
C15 C14 1_555 1_555
H8 C15 1_555 1_555
C16 C15 1_555 1_555
H9 C16 1_555 1_555
C17 C16 1_555 1_555
H10 C17 1_555 1_555
C18 C13 1_555 1_555
H11 C18 1_555 1_555
N1 C7 1_555 1_555
N2 C8 1_555 1_555
N3 C9 1_555 1_555
N4 C10 1_555 1_555
O1 C7 1_555 1_555
O2 C8 1_555 1_555
S1 C9 1_555 1_555
H12 N2 1_555 1_555
H13 N1 1_555 1_555
C5 C6 1_555 1_555
C10 S1 1_555 1_555
C17 C18 1_555 1_555
N3 N4 1_555 1_555

#END
