
#######################################################################
#
#                 Cambridge Crystallographic Data Centre
#                                CCDC 
#
#######################################################################
#
# If this CIF has been generated from an entry in the Cambridge 
# Structural Database, then it will include bibliographic, chemical, 
# crystal, experimental, refinement or atomic coordinate data resulting 
# from the CCDC's data processing and validation procedures.
#
#######################################################################

data_ICILEL
_chemical_formula_moiety         'C6 I4 S4'
_chemical_name_systematic        4,4',5,5'-Tetraiodotetrathiafulvalene
_symmetry_cell_setting           triclinic
_symmetry_space_group_name_H-M   'P -1'
_symmetry_Int_Tables_number      2
_space_group_name_Hall           '-P 1'
loop_
_symmetry_equiv_pos_site_id
_symmetry_equiv_pos_as_xyz
1 x,y,z
2 -x,-y,-z
_cell_length_a                   4.190(1)
_cell_length_b                   11.746(2)
_cell_length_c                   14.294(3)
_cell_angle_alpha                95.18(1)
_cell_angle_beta                 91.92(1)
_cell_angle_gamma                96.69(1)
_cell_volume                     695.157
_exptl_crystal_colour            red
_exptl_crystal_description       needle
_chemical_melting_point          476K
_cell_formula_units_Z            2
_exptl_crystal_recrystallization_method chlorobenzene
loop_
_atom_site_label
_atom_site_type_symbol
_atom_site_fract_x
_atom_site_fract_y
_atom_site_fract_z
I1 I 0.6815(2) 0.68279(6) 0.18574(4)
I2 I 0.3511(2) 0.88969(6) 0.36920(5)
S1 S 0.6524(8) 0.5182(2) 0.3560(2)
S2 S 0.3882(7) 0.6778(2) 0.4966(2)
C1 C 0.5118(26) 0.5402(9) 0.4700(6)
C2 C 0.5818(25) 0.6516(7) 0.3224(6)
C3 C 0.4583(25) 0.7243(8) 0.3868(7)
C1A C 0.4882(26) 0.4598(9) 0.5300(6)
S1A S 0.3476(8) 0.4818(2) 0.6440(2)
C2A C 0.4182(25) 0.3484(7) 0.6776(6)
I1A I 0.3185(2) 0.31721(6) 0.81426(4)
C3A C 0.5417(25) 0.2757(8) 0.6132(7)
I2A I 0.6489(2) 0.11031(6) 0.63080(5)
S2A S 0.6118(7) 0.3222(2) 0.5034(2)
I3 I 0.8211(2) 0.60892(5) 0.88988(5)
I4 I 0.8767(2) 0.80522(6) 0.69415(4)
S3 S 1.2442(7) 0.8267(2) 1.0071(2)
S4 S 1.2910(7) 0.9816(2) 0.8552(2)
C4 C 1.3980(25) 0.9604(7) 0.9720(6)
C5 C 1.0604(25) 0.7759(8) 0.8985(7)
C6 C 1.0742(24) 0.8458(8) 0.8305(6)
C4A C 1.6020(25) 1.0396(7) 1.0280(6)
S3A S 1.7558(7) 1.1733(2) 0.9929(2)
C5A C 1.9396(25) 1.2241(8) 1.1015(7)
I3A I 2.1789(2) 1.39108(5) 1.11012(5)
C6A C 1.9258(24) 1.1542(8) 1.1695(6)
I4A I 2.1233(2) 1.19478(6) 1.30585(4)
S4A S 1.7090(7) 1.0184(2) 1.1448(2)
loop_
_geom_bond_atom_site_label_1
_geom_bond_atom_site_label_2
_geom_bond_site_symmetry_1
_geom_bond_site_symmetry_2
I1 C2 1_555 1_555
I2 C3 1_555 1_555
S1 C1 1_555 1_555
S2 C1 1_555 1_555
C1 C1A 1_555 1_555
C2 S1 1_555 1_555
C3 S2 1_555 1_555
I3 C5 1_555 1_555
I4 C6 1_555 1_555
S3 C4 1_555 1_555
S4 C4 1_555 1_555
C4 C4A 1_555 1_555
C5 S3 1_555 1_555
C6 S4 1_555 1_555
C1A S1A 1_555 1_555
S1A C2A 1_555 1_555
C2A I1A 1_555 1_555
C3A C2A 1_555 1_555
I2A C3A 1_555 1_555
S2A C1A 1_555 1_555
C4A S3A 1_555 1_555
S3A C5A 1_555 1_555
C5A I3A 1_555 1_555
C6A C5A 1_555 1_555
I4A C6A 1_555 1_555
S4A C4A 1_555 1_555
C2 C3 1_555 1_555
C5 C6 1_555 1_555
C3A S2A 1_555 1_555
C6A S4A 1_555 1_555

#END
