
#######################################################################
#
#                 Cambridge Crystallographic Data Centre
#                                CCDC 
#
#######################################################################
#
# If this CIF has been generated from an entry in the Cambridge 
# Structural Database, then it will include bibliographic, chemical, 
# crystal, experimental, refinement or atomic coordinate data resulting 
# from the CCDC's data processing and validation procedures.
#
#######################################################################

data_ICILAI01
_chemical_formula_moiety         'C32 H56'
_chemical_name_systematic        
1,2,2a,2b,3,4,4a,4b-Octa-n-propyl-2a,2b,4a,4b-tetrahydrocyclopropa[cd]pentalene
_symmetry_cell_setting           monoclinic
_symmetry_space_group_name_H-M   'C 2/c'
_symmetry_Int_Tables_number      15
_space_group_name_Hall           '-C 2yn'
loop_
_symmetry_equiv_pos_site_id
_symmetry_equiv_pos_as_xyz
1 x,y,z
2 -x,y,1/2-z
3 1/2+x,1/2+y,z
4 1/2-x,1/2+y,1/2-z
5 -x,-y,-z
6 x,-y,1/2+z
7 1/2-x,1/2-y,-z
8 1/2+x,1/2-y,1/2+z
_cell_length_a                   35.265(7)
_cell_length_b                   19.026(4)
_cell_length_c                   21.174(4)
_cell_angle_alpha                90
_cell_angle_beta                 122.27(3)
_cell_angle_gamma                90
_cell_volume                     12012.4
_exptl_crystal_colour            colorless
_exptl_crystal_description       block
_cell_formula_units_Z            16
loop_
_atom_site_label
_atom_site_type_symbol
_atom_site_fract_x
_atom_site_fract_y
_atom_site_fract_z
C1 C 0.08579(7) 0.70119(12) 0.48296(13)
C2 C 0.09694(7) 0.76877(11) 0.52309(12)
C3 C 0.14165(7) 0.77430(12) 0.57354(12)
C4 C 0.16651(7) 0.71365(11) 0.56418(12)
C5 C 0.17335(8) 0.74702(12) 0.50443(13)
C6 C 0.14084(7) 0.72689(11) 0.43524(12)
C7 C 0.11134(7) 0.67509(12) 0.43841(12)
C8 C 0.12868(7) 0.65863(11) 0.51926(12)
C9 C 0.04010(7) 0.66868(13) 0.45625(12)
H1 H 0.0428 0.6180 0.4553
H2 H 0.0321 0.6795 0.4925
C10 C 0.00197(7) 0.69255(13) 0.37968(13)
H3 H -0.0014 0.7431 0.3800
H4 H 0.0093 0.6814 0.3427
C11 C -0.04202(7) 0.65730(14) 0.35815(14)
H5 H -0.0653 0.6733 0.3096
H6 H -0.0496 0.6690 0.3941
H7 H -0.0389 0.6073 0.3571
C12 C 0.06269(7) 0.82422(12) 0.50893(13)
H8 H 0.0729 0.8496 0.5551
H9 H 0.0347 0.8011 0.4950
C13 C 0.05358(8) 0.87691(12) 0.44822(13)
H10 H 0.0810 0.9023 0.4632
H11 H 0.0447 0.8517 0.4025
C14 C 0.01705(8) 0.92924(13) 0.43316(15)
H12 H 0.0126 0.9614 0.3948
H13 H 0.0259 0.9549 0.4781
H14 H -0.0104 0.9045 0.4171
C15 C 0.16473(7) 0.83292(12) 0.62916(12)
H15 H 0.1479 0.8761 0.6083
H16 H 0.1944 0.8399 0.6378
C16 C 0.16909(8) 0.81815(13) 0.70336(13)
H17 H 0.1394 0.8158 0.6955
H18 H 0.1833 0.7728 0.7219
C17 C 0.19631(8) 0.87399(14) 0.76163(13)
H19 H 0.1982 0.8625 0.8074
H20 H 0.1820 0.9189 0.7441
H21 H 0.2259 0.8760 0.7703
C18 C 0.20986(7) 0.68734(11) 0.63318(12)
H22 H 0.2267 0.7275 0.6634
H23 H 0.2022 0.6586 0.6627
C19 C 0.23971(7) 0.64458(11) 0.61564(12)
H24 H 0.2218 0.6083 0.5797
H25 H 0.2511 0.6751 0.5928
C20 C 0.27901(8) 0.61034(13) 0.68430(13)
H26 H 0.2964 0.5839 0.6700
H27 H 0.2680 0.5795 0.7068
H28 H 0.2975 0.6460 0.7195
C21 C 0.20917(7) 0.80199(11) 0.52425(12)
H29 H 0.2256 0.7884 0.5014
H30 H 0.2301 0.8010 0.5779
C22 C 0.19338(8) 0.87739(12) 0.50154(13)
H31 H 0.1768 0.8811 0.4475
H32 H 0.1733 0.8898 0.5179
C23 C 0.23246(9) 0.92882(13) 0.53510(14)
H33 H 0.2212 0.9758 0.5200
H34 H 0.2520 0.9175 0.5179
H35 H 0.2488 0.9256 0.5886
C24 C 0.13308(7) 0.75538(12) 0.36281(12)
H36 H 0.1282 0.7164 0.3297
H37 H 0.1598 0.7801 0.3728
C25 C 0.09296(8) 0.80537(13) 0.32341(12)
H38 H 0.0660 0.7800 0.3110
H39 H 0.0971 0.8430 0.3574
C26 C 0.08681(8) 0.83677(13) 0.25311(13)
H40 H 0.0613 0.8676 0.2307
H41 H 0.0820 0.7998 0.2187
H42 H 0.1132 0.8628 0.2652
C27 C 0.08938(7) 0.62004(12) 0.37741(12)
H43 H 0.0729 0.6432 0.3292
H44 H 0.0681 0.5933 0.3835
C28 C 0.12360(8) 0.56993(12) 0.37895(13)
H45 H 0.1448 0.5969 0.3728
H46 H 0.1402 0.5473 0.4275
C29 C 0.10284(9) 0.51401(13) 0.31913(15)
H47 H 0.1260 0.4841 0.3233
H48 H 0.0872 0.5359 0.2708
H49 H 0.0822 0.4865 0.3252
C30 C 0.13049(7) 0.58606(11) 0.55034(12)
H50 H 0.1602 0.5665 0.5702
H51 H 0.1092 0.5559 0.5099
C31 C 0.12009(8) 0.58563(12) 0.61182(13)
H52 H 0.1403 0.6177 0.6512
H53 H 0.0897 0.6025 0.5914
C32 C 0.12463(9) 0.51318(13) 0.64496(14)
H54 H 0.1179 0.5157 0.6832
H55 H 0.1548 0.4965 0.6661
H56 H 0.1041 0.4815 0.6065
C33 C 0.16717(8) 0.81612(13) 1.03718(13)
C34 C 0.15512(7) 0.80646(12) 0.96396(13)
C35 C 0.13564(12) 0.74046(14) 0.93801(15)
C36 C 0.13609(7) 0.70008(12) 1.00018(12)
C37 C 0.08656(7) 0.71456(12) 0.95195(13)
C38 C 0.07553(7) 0.77203(12) 0.98047(12)
C39 C 0.11262(9) 0.79743(15) 1.04462(14)
C40 C 0.15338(7) 0.75459(12) 1.06477(12)
C41 C 0.20060(7) 0.87124(12) 1.08831(13)
H57 H 0.1966 0.8800 1.1295
H58 H 0.1948 0.9148 1.0608
C42 C 0.24883(7) 0.84864(13) 1.11921(13)
H59 H 0.2546 0.8052 1.1469
H60 H 0.2527 0.8395 1.0780
C43 C 0.28254(8) 0.90378(13) 1.16997(14)
H61 H 0.3124 0.8874 1.1877
H62 H 0.2794 0.9121 1.2117
H63 H 0.2772 0.9467 1.1426
C44 C 0.16039(8) 0.86205(12) 0.91797(13)
H64 H 0.1609 0.8393 0.8774
H65 H 0.1890 0.8854 0.9492
C45 C 0.12313(8) 0.91733(12) 0.88522(13)
H66 H 0.0945 0.8939 0.8542
H67 H 0.1227 0.9403 0.9258
C46 C 0.12841(9) 0.97305(13) 0.83871(14)
H68 H 0.1039 1.0057 0.8195
H69 H 0.1284 0.9509 0.7980
H70 H 0.1562 0.9976 0.8694
C47 C 0.13123(9) 0.70620(13) 0.86963(13)
H71 H 0.1586 0.7149 0.8705
H72 H 0.1287 0.6558 0.8733
C48 C 0.09187(8) 0.73063(13) 0.79498(13)
H73 H 0.0643 0.7231 0.7939
H74 H 0.0947 0.7807 0.7896
C49 C 0.08898(8) 0.69217(13) 0.72979(13)
H75 H 0.0637 0.7094 0.6838
H76 H 0.0854 0.6427 0.7342
H77 H 0.1160 0.7001 0.7301
C50 C 0.15564(7) 0.62641(12) 1.01694(12)
H78 H 0.1361 0.5961 0.9750
H79 H 0.1562 0.6085 1.0604
C51 C 0.20301(7) 0.62271(12) 1.03160(13)
H80 H 0.2019 0.6340 0.9860
H81 H 0.2217 0.6575 1.0689
C52 C 0.22388(8) 0.55098(12) 1.05846(15)
H82 H 0.2536 0.5511 1.0674
H83 H 0.2060 0.5165 1.0211
H84 H 0.2254 0.5397 1.1039
C53 C 0.05260(7) 0.66050(12) 0.90036(13)
H85 H 0.0650 0.6335 0.8767
H86 H 0.0260 0.6843 0.8614
C54 C 0.03972(8) 0.61090(14) 0.94231(14)
H87 H 0.0668 0.5906 0.9840
H88 H 0.0252 0.6378 0.9625
C55 C 0.00885(9) 0.55222(14) 0.89479(16)
H89 H 0.0019 0.5233 0.9245
H90 H 0.0233 0.5243 0.8758
H91 H -0.0183 0.5717 0.8538
C56 C 0.02900(7) 0.80377(12) 0.94231(13)
H92 H 0.0266 0.8310 0.9788
H93 H 0.0073 0.7659 0.9254
C57 C 0.01692(8) 0.85055(13) 0.87643(13)
H94 H 0.0171 0.8227 0.8382
H95 H 0.0397 0.8866 0.8923
C58 C -0.02884(7) 0.88581(13) 0.84243(13)
H96 H -0.0344 0.9150 0.8014
H97 H -0.0292 0.9141 0.8796
H98 H -0.0517 0.8505 0.8249
C59 C 0.11052(8) 0.84968(12) 1.09694(12)
H99 H 0.1386 0.8472 1.1450
H100 H 0.0869 0.8350 1.1045
C60 C 0.10222(8) 0.92586(12) 1.07144(13)
H101 H 0.1233 0.9394 1.0575
H102 H 0.0722 0.9302 1.0275
C61 C 0.10702(8) 0.97564(12) 1.13135(13)
H103 H 0.1013 1.0229 1.1126
H104 H 0.1369 0.9725 1.1746
H105 H 0.0859 0.9630 1.1448
C62 C 0.18200(7) 0.72872(12) 1.14531(12)
H106 H 0.1972 0.7687 1.1776
H107 H 0.2048 0.6971 1.1494
C63 C 0.15537(7) 0.69063(12) 1.17320(12)
H108 H 0.1350 0.7238 1.1748
H109 H 0.1374 0.6540 1.1378
C64 C 0.18454(8) 0.65809(14) 1.24962(13)
H110 H 0.1660 0.6348 1.2636
H111 H 0.2017 0.6942 1.2854
H112 H 0.2045 0.6247 1.2484
loop_
_geom_bond_atom_site_label_1
_geom_bond_atom_site_label_2
_geom_bond_site_symmetry_1
_geom_bond_site_symmetry_2
C1 C2 1_555 1_555
C2 C3 1_555 1_555
C3 C4 1_555 1_555
C4 C5 1_555 1_555
C5 C6 1_555 1_555
C6 C7 1_555 1_555
C7 C1 1_555 1_555
C8 C1 1_555 1_555
C9 C1 1_555 1_555
H1 C9 1_555 1_555
H2 C9 1_555 1_555
C10 C9 1_555 1_555
H3 C10 1_555 1_555
H4 C10 1_555 1_555
C11 C10 1_555 1_555
H5 C11 1_555 1_555
H6 C11 1_555 1_555
H7 C11 1_555 1_555
C12 C2 1_555 1_555
H8 C12 1_555 1_555
H9 C12 1_555 1_555
C13 C12 1_555 1_555
H10 C13 1_555 1_555
H11 C13 1_555 1_555
C14 C13 1_555 1_555
H12 C14 1_555 1_555
H13 C14 1_555 1_555
H14 C14 1_555 1_555
C15 C3 1_555 1_555
H15 C15 1_555 1_555
H16 C15 1_555 1_555
C16 C15 1_555 1_555
H17 C16 1_555 1_555
H18 C16 1_555 1_555
C17 C16 1_555 1_555
H19 C17 1_555 1_555
H20 C17 1_555 1_555
H21 C17 1_555 1_555
C18 C4 1_555 1_555
H22 C18 1_555 1_555
H23 C18 1_555 1_555
C19 C18 1_555 1_555
H24 C19 1_555 1_555
H25 C19 1_555 1_555
C20 C19 1_555 1_555
H26 C20 1_555 1_555
H27 C20 1_555 1_555
H28 C20 1_555 1_555
C21 C5 1_555 1_555
H29 C21 1_555 1_555
H30 C21 1_555 1_555
C22 C21 1_555 1_555
H31 C22 1_555 1_555
H32 C22 1_555 1_555
C23 C22 1_555 1_555
H33 C23 1_555 1_555
H34 C23 1_555 1_555
H35 C23 1_555 1_555
C24 C6 1_555 1_555
H36 C24 1_555 1_555
H37 C24 1_555 1_555
C25 C24 1_555 1_555
H38 C25 1_555 1_555
H39 C25 1_555 1_555
C26 C25 1_555 1_555
H40 C26 1_555 1_555
H41 C26 1_555 1_555
H42 C26 1_555 1_555
C27 C7 1_555 1_555
H43 C27 1_555 1_555
H44 C27 1_555 1_555
C28 C27 1_555 1_555
H45 C28 1_555 1_555
H46 C28 1_555 1_555
C29 C28 1_555 1_555
H47 C29 1_555 1_555
H48 C29 1_555 1_555
H49 C29 1_555 1_555
C30 C8 1_555 1_555
H50 C30 1_555 1_555
H51 C30 1_555 1_555
C31 C30 1_555 1_555
H52 C31 1_555 1_555
H53 C31 1_555 1_555
C32 C31 1_555 1_555
H54 C32 1_555 1_555
H55 C32 1_555 1_555
H56 C32 1_555 1_555
C33 C34 1_555 1_555
C34 C35 1_555 1_555
C35 C36 1_555 1_555
C36 C37 1_555 1_555
C37 C35 1_555 1_555
C38 C37 1_555 1_555
C39 C38 1_555 1_555
C40 C33 1_555 1_555
C41 C33 1_555 1_555
H57 C41 1_555 1_555
H58 C41 1_555 1_555
C42 C41 1_555 1_555
H59 C42 1_555 1_555
H60 C42 1_555 1_555
C43 C42 1_555 1_555
H61 C43 1_555 1_555
H62 C43 1_555 1_555
H63 C43 1_555 1_555
C44 C34 1_555 1_555
H64 C44 1_555 1_555
H65 C44 1_555 1_555
C45 C44 1_555 1_555
H66 C45 1_555 1_555
H67 C45 1_555 1_555
C46 C45 1_555 1_555
H68 C46 1_555 1_555
H69 C46 1_555 1_555
H70 C46 1_555 1_555
C47 C35 1_555 1_555
H71 C47 1_555 1_555
H72 C47 1_555 1_555
C48 C47 1_555 1_555
H73 C48 1_555 1_555
H74 C48 1_555 1_555
C49 C48 1_555 1_555
H75 C49 1_555 1_555
H76 C49 1_555 1_555
H77 C49 1_555 1_555
C50 C36 1_555 1_555
H78 C50 1_555 1_555
H79 C50 1_555 1_555
C51 C50 1_555 1_555
H80 C51 1_555 1_555
H81 C51 1_555 1_555
C52 C51 1_555 1_555
H82 C52 1_555 1_555
H83 C52 1_555 1_555
H84 C52 1_555 1_555
C53 C37 1_555 1_555
H85 C53 1_555 1_555
H86 C53 1_555 1_555
C54 C53 1_555 1_555
H87 C54 1_555 1_555
H88 C54 1_555 1_555
C55 C54 1_555 1_555
H89 C55 1_555 1_555
H90 C55 1_555 1_555
H91 C55 1_555 1_555
C56 C38 1_555 1_555
H92 C56 1_555 1_555
H93 C56 1_555 1_555
C57 C56 1_555 1_555
H94 C57 1_555 1_555
H95 C57 1_555 1_555
C58 C57 1_555 1_555
H96 C58 1_555 1_555
H97 C58 1_555 1_555
H98 C58 1_555 1_555
C59 C39 1_555 1_555
H99 C59 1_555 1_555
H100 C59 1_555 1_555
C60 C59 1_555 1_555
H101 C60 1_555 1_555
H102 C60 1_555 1_555
C61 C60 1_555 1_555
H103 C61 1_555 1_555
H104 C61 1_555 1_555
H105 C61 1_555 1_555
C62 C40 1_555 1_555
H106 C62 1_555 1_555
H107 C62 1_555 1_555
C63 C62 1_555 1_555
H108 C63 1_555 1_555
H109 C63 1_555 1_555
C64 C63 1_555 1_555
H110 C64 1_555 1_555
H111 C64 1_555 1_555
H112 C64 1_555 1_555
C4 C8 1_555 1_555
C7 C8 1_555 1_555
C36 C40 1_555 1_555
C39 C40 1_555 1_555

#END
