
#######################################################################
#
#                 Cambridge Crystallographic Data Centre
#                                CCDC 
#
#######################################################################
#
# If this CIF has been generated from an entry in the Cambridge 
# Structural Database, then it will include bibliographic, chemical, 
# crystal, experimental, refinement or atomic coordinate data resulting 
# from the CCDC's data processing and validation procedures.
#
#######################################################################

data_ICIMEM
_chemical_formula_moiety         'C9 H9 I1 S6,C12 H4 N4'
_chemical_name_systematic        
"4-Iodo-5-methyl-4',5'-bis(methylsulfanyl)tetrathiafulvalene 7,7,8,8-tetracyanoquinodimethane"
_symmetry_cell_setting           triclinic
_symmetry_space_group_name_H-M   'P -1'
_symmetry_Int_Tables_number      2
_space_group_name_Hall           '-P 1'
loop_
_symmetry_equiv_pos_site_id
_symmetry_equiv_pos_as_xyz
1 x,y,z
2 -x,-y,-z
_cell_length_a                   7.635(1)
_cell_length_b                   7.959(2)
_cell_length_c                   20.021(3)
_cell_angle_alpha                81.20(1)
_cell_angle_beta                 88.64(1)
_cell_angle_gamma                87.21(1)
_cell_volume                     1200.71
_exptl_crystal_colour            black
_exptl_crystal_description       prism
_cell_formula_units_Z            2
loop_
_atom_site_label
_atom_site_type_symbol
_atom_site_fract_x
_atom_site_fract_y
_atom_site_fract_z
I1 I 0.34337(6) 0.25477(7) 0.02064(2)
S1 S 0.51684(11) 0.41552(10) 0.14672(4)
S2 S 0.53526(10) 0.08357(9) 0.23606(4)
S3 S 0.67934(10) 0.59624(8) 0.26714(4)
S4 S 0.70660(9) 0.25986(8) 0.35385(3)
S5 S 0.77405(10) 0.78695(9) 0.37905(4)
S6 S 0.79421(13) 0.41567(10) 0.47792(4)
C1 C 0.5755(4) 0.3020(3) 0.22601(13)
C2 C 0.4365(4) 0.2396(5) 0.1156(2)
C3 C 0.4440(4) 0.0893(4) 0.1562(2)
C4 C 0.6442(3) 0.3771(3) 0.27533(13)
C5 C 0.7388(4) 0.5918(3) 0.35191(14)
C6 C 0.7496(3) 0.4388(3) 0.39157(14)
C8 C 0.3870(10) -0.0977(9) 0.1474(4)
H4 H 0.3239(73) -0.1495(33) 0.1881(13)
H5 H 0.4923(12) -0.1689(25) 0.1400(32)
H6 H 0.3102(68) -0.0901(12) 0.1082(20)
C9 C 0.5594(4) 0.8290(4) 0.4152(2)
H7 H 0.5685(51) 0.9312(50) 0.4322(20)
H8 H 0.5389(48) 0.7477(49) 0.4523(19)
H9 H 0.4727(54) 0.8427(50) 0.3789(21)
C10 C 0.8468(5) 0.1909(5) 0.4994(2)
H10 H 0.8654(50) 0.1768(47) 0.5483(21)
H11 H 0.9358(53) 0.1570(48) 0.4739(20)
H12 H 0.7481(55) 0.1237(50) 0.4921(20)
C11 C 0.9662(3) 0.1961(3) 0.15305(14)
C12 C 1.0126(4) 0.0900(3) 0.21616(14)
H13 H 0.9973(43) -0.0338(42) 0.2239(16)
C13 C 1.0840(4) 0.1567(3) 0.26665(14)
H14 H 1.1120(43) 0.0912(41) 0.3075(17)
C14 C 1.1112(3) 0.3373(3) 0.26024(14)
C15 C 1.0635(4) 0.4432(3) 0.19760(14)
H15 H 1.0924(44) 0.5577(43) 0.1921(17)
C16 C 0.9944(4) 0.3765(3) 0.14612(14)
H16 H 0.9621(40) 0.4581(38) 0.1060(16)
C17 C 0.8975(4) 0.1256(4) 0.10073(14)
C18 C 1.1790(4) 0.4045(3) 0.31371(14)
C19 C 0.8563(4) 0.2250(4) 0.03676(15)
C20 C 0.8671(4) -0.0524(4) 0.1071(2)
C21 C 1.1945(4) 0.5855(4) 0.31116(15)
C22 C 1.2322(4) 0.2987(4) 0.37482(15)
N1 N 0.8248(4) 0.3023(4) -0.01579(15)
N2 N 1.2050(4) 0.7295(3) 0.31078(15)
N3 N 1.2761(4) 0.2111(4) 0.42320(14)
N4 N 0.8419(4) -0.1956(4) 0.1113(2)
I2? I 0.36063(7) -0.11325(7) 0.12174(3)
C7? C 0.3653(11) 0.3074(11) 0.0405(5)
H1? H 0.4643(15) 0.3401(95) 0.0096(10)
H2? H 0.2861(82) 0.4082(61) 0.0423(9)
H3? H 0.3012(90) 0.2193(37) 0.0230(17)
loop_
_geom_bond_atom_site_label_1
_geom_bond_atom_site_label_2
_geom_bond_site_symmetry_1
_geom_bond_site_symmetry_2
I1 C2 1_555 1_555
S1 C1 1_555 1_555
S2 C1 1_555 1_555
S3 C4 1_555 1_555
S4 C4 1_555 1_555
S5 C5 1_555 1_555
S6 C6 1_555 1_555
C1 C4 1_555 1_555
C2 S1 1_555 1_555
C3 S2 1_555 1_555
C5 S3 1_555 1_555
C6 S4 1_555 1_555
C8 C3 1_555 1_555
H4 C8 1_555 1_555
H5 C8 1_555 1_555
H6 C8 1_555 1_555
C9 S5 1_555 1_555
H7 C9 1_555 1_555
H8 C9 1_555 1_555
H9 C9 1_555 1_555
C10 S6 1_555 1_555
H10 C10 1_555 1_555
H11 C10 1_555 1_555
H12 C10 1_555 1_555
C11 C12 1_555 1_555
C12 H13 1_555 1_555
C13 C12 1_555 1_555
H14 C13 1_555 1_555
C14 C13 1_555 1_555
C15 C14 1_555 1_555
H15 C15 1_555 1_555
C16 C11 1_555 1_555
H16 C16 1_555 1_555
C17 C11 1_555 1_555
C18 C14 1_555 1_555
C19 C17 1_555 1_555
C20 C17 1_555 1_555
C21 C18 1_555 1_555
C22 C18 1_555 1_555
N1 C19 1_555 1_555
N2 C21 1_555 1_555
N3 C22 1_555 1_555
N4 C20 1_555 1_555
C2 C3 1_555 1_555
C5 C6 1_555 1_555
C15 C16 1_555 1_555

#END
