
#######################################################################
#
#                 Cambridge Crystallographic Data Centre
#                                CCDC 
#
#######################################################################
#
# If this CIF has been generated from an entry in the Cambridge 
# Structural Database, then it will include bibliographic, chemical, 
# crystal, experimental, refinement or atomic coordinate data resulting 
# from the CCDC's data processing and validation procedures.
#
#######################################################################

data_ICIMOW
_chemical_formula_moiety         'C9 H9 I1 S4 1+,I3 1-,0.5(I2)'
_chemical_name_systematic        
"4-Iodo-4',5,5'-trimethyltetrathiafulvalenium tri-iodide hemikis(di-iodine)"
_symmetry_cell_setting           monoclinic
_symmetry_space_group_name_H-M   'P 21/n'
_symmetry_Int_Tables_number      14
_space_group_name_Hall           '-P 2yn'
loop_
_symmetry_equiv_pos_site_id
_symmetry_equiv_pos_as_xyz
1 x,y,z
2 1/2-x,1/2+y,1/2-z
3 -x,-y,-z
4 1/2+x,1/2-y,1/2+z
_cell_length_a                   14.034(1)
_cell_length_b                   8.077(1)
_cell_length_c                   17.960(1)
_cell_angle_alpha                90
_cell_angle_beta                 107.20(1)
_cell_angle_gamma                90
_cell_volume                     1944.77
_exptl_crystal_colour            black
_exptl_crystal_description       plate
_cell_formula_units_Z            4
loop_
_atom_site_label
_atom_site_type_symbol
_atom_site_fract_x
_atom_site_fract_y
_atom_site_fract_z
I1 I 0.23214(9) 0.50760(14) 0.35672(6)
I2 I 0.39130(9) 0.41333(12) 0.29919(5)
I3 I 0.55996(11) 0.3082(2) 0.23478(6)
I4 I 0.50424(9) 0.0855(2) 0.06831(7)
I4B I 0.49576(9) -0.0855(2) -0.06831(7)
I5 I 0.8168(3) 0.1043(5) 0.3968(2)
S1 S 0.4381(2) 0.3006(4) 0.5243(2)
S2 S 0.5228(4) 0.0897(5) 0.6585(2)
S3 S 0.6279(3) 0.1946(5) 0.4579(2)
S4 S 0.7013(3) -0.0117(5) 0.5958(2)
C1 C 0.5323(9) 0.1672(16) 0.5712(6)
C2 C 0.3804(11) 0.2986(20) 0.5965(8)
C3 C 0.4204(14) 0.2020(20) 0.6594(8)
C4 C 0.6115(10) 0.1210(17) 0.5433(7)
C5 C 0.7438(13) 0.0966(22) 0.4723(12)
C6 C 0.7773(10) 0.0029(19) 0.5398(12)
C7 C 0.2873(27) 0.4018(62) 0.5720(27)
H1 H 0.2433(27) 0.3887(62) 0.5187(27)
H2 H 0.3053(27) 0.5187(62) 0.5818(27)
H3 H 0.2527(27) 0.3639(62) 0.6090(27)
C8 C 0.3831(68) 0.205(12) 0.7296(35)
H4 H 0.4352(68) 0.245(12) 0.7754(35)
H5 H 0.3617(68) 0.095(12) 0.7404(35)
H6 H 0.3259(68) 0.281(12) 0.7179(35)
C9 C 0.8736(18) -0.0931(45) 0.5676(20)
H7 H 0.8677(18) -0.1720(45) 0.6075(20)
H8 H 0.9294(18) -0.0176(45) 0.5901(20)
H9 H 0.8857(18) -0.1534(45) 0.5239(20)
I6? I 0.2581(4) 0.3977(6) 0.5942(3)
I7? I 0.3649(11) 0.1816(9) 0.7423(5)
I8? I 0.9036(7) -0.1088(12) 0.5620(9)
C10? C 0.7997(37) 0.1332(75) 0.4144(25)
H10? H 0.7819(37) 0.2449(75) 0.3937(25)
H11? H 0.7786(37) 0.0527(75) 0.3719(25)
H12? H 0.8721(37) 0.1260(75) 0.4380(25)
loop_
_geom_bond_atom_site_label_1
_geom_bond_atom_site_label_2
_geom_bond_site_symmetry_1
_geom_bond_site_symmetry_2
I1 I2 1_555 1_555
I2 I3 1_555 1_555
I4 I4B 1_555 1_555
I5 C5 1_555 1_555
S1 C1 1_555 1_555
S2 C1 1_555 1_555
S3 C4 1_555 1_555
S4 C4 1_555 1_555
C1 C4 1_555 1_555
C2 S1 1_555 1_555
C3 S2 1_555 1_555
C5 S3 1_555 1_555
C6 S4 1_555 1_555
C7 C2 1_555 1_555
H1 C7 1_555 1_555
H2 C7 1_555 1_555
H3 C7 1_555 1_555
C8 C3 1_555 1_555
H4 C8 1_555 1_555
H5 C8 1_555 1_555
H6 C8 1_555 1_555
C9 C6 1_555 1_555
H7 C9 1_555 1_555
H8 C9 1_555 1_555
H9 C9 1_555 1_555
C2 C3 1_555 1_555
C5 C6 1_555 1_555

#END
