
#######################################################################
#
#                 Cambridge Crystallographic Data Centre
#                                CCDC 
#
#######################################################################
#
# If this CIF has been generated from an entry in the Cambridge 
# Structural Database, then it will include bibliographic, chemical, 
# crystal, experimental, refinement or atomic coordinate data resulting 
# from the CCDC's data processing and validation procedures.
#
#######################################################################

data_ICIMAI
_chemical_formula_moiety         'C12 H8 Br2 N2 S6'
_chemical_name_systematic        
4,5-Dibromo-4',5'-bis(2'-cyanoethylsulfanyl)-tetrathiafulvalene
_symmetry_cell_setting           orthorhombic
_symmetry_space_group_name_H-M   'P b c a'
_symmetry_Int_Tables_number      61
_space_group_name_Hall           '-P 2ac 2ab'
loop_
_symmetry_equiv_pos_site_id
_symmetry_equiv_pos_as_xyz
1 x,y,z
2 1/2+x,y,1/2-z
3 x,1/2-y,1/2+z
4 1/2-x,1/2+y,z
5 -x,-y,-z
6 1/2-x,-y,1/2+z
7 -x,1/2+y,1/2-z
8 1/2+x,1/2-y,-z
_cell_length_a                   14.609(1)
_cell_length_b                   11.607(1)
_cell_length_c                   21.020(1)
_cell_angle_alpha                90
_cell_angle_beta                 90
_cell_angle_gamma                90
_cell_volume                     3564.29
_exptl_crystal_colour            scarlet
_exptl_crystal_description       block
_chemical_melting_point          405-407K
_cell_formula_units_Z            8
_exptl_crystal_recrystallization_method acetonitrile
loop_
_atom_site_label
_atom_site_type_symbol
_atom_site_fract_x
_atom_site_fract_y
_atom_site_fract_z
Br1 Br 0.790363(15) 0.73529(2) 0.494410(12)
Br2 Br 0.62590(2) 0.95095(2) 0.466195(13)
S1 S 0.64143(4) 0.56743(5) 0.44731(3)
S2 S 0.50211(4) 0.75056(5) 0.42318(3)
S3 S 0.49537(4) 0.37247(5) 0.40821(3)
S4 S 0.35613(4) 0.55129(5) 0.38020(3)
S5 S 0.37331(4) 0.17766(5) 0.36439(3)
S6 S 0.21759(4) 0.38054(5) 0.33199(3)
C1 C 0.52927(15) 0.6022(2) 0.42193(11)
C2 C 0.67142(15) 0.7109(2) 0.46315(11)
C3 C 0.60935(15) 0.7927(2) 0.45264(11)
C4 C 0.46906(15) 0.5203(2) 0.40437(11)
C5 C 0.39229(15) 0.3262(2) 0.37262(11)
C6 C 0.32873(15) 0.4078(2) 0.36021(11)
C7 C 0.4836(2) 0.1242(2) 0.33670(13)
H1 H 0.4796(21) 0.0433(28) 0.3455(15)
H2 H 0.5307(22) 0.1540(28) 0.3619(15)
C8 C 0.5036(2) 0.1455(2) 0.26630(14)
H3 H 0.5634(24) 0.1114(29) 0.2548(16)
H4 H 0.4628(27) 0.1160(35) 0.2425(19)
C9 C 0.5075(2) 0.2687(2) 0.24979(12)
C10 C 0.2197(2) 0.4604(2) 0.25725(12)
H5 H 0.2392(19) 0.5344(26) 0.2650(13)
H6 H 0.1573(22) 0.4614(26) 0.2452(14)
C11 C 0.2765(2) 0.4043(2) 0.20515(13)
H7 H 0.2720(22) 0.4514(29) 0.1695(16)
H8 H 0.3367(26) 0.3985(31) 0.2183(17)
C12 C 0.2440(2) 0.2878(2) 0.18965(12)
N1 N 0.5088(2) 0.3640(2) 0.23670(12)
N2 N 0.2169(2) 0.1980(2) 0.17822(12)
loop_
_geom_bond_atom_site_label_1
_geom_bond_atom_site_label_2
_geom_bond_site_symmetry_1
_geom_bond_site_symmetry_2
Br1 C2 1_555 1_555
Br2 C3 1_555 1_555
S1 C1 1_555 1_555
S2 C1 1_555 1_555
S3 C4 1_555 1_555
S4 C4 1_555 1_555
S5 C5 1_555 1_555
S6 C6 1_555 1_555
C1 C4 1_555 1_555
C2 S1 1_555 1_555
C3 S2 1_555 1_555
C5 S3 1_555 1_555
C6 S4 1_555 1_555
C7 S5 1_555 1_555
H1 C7 1_555 1_555
H2 C7 1_555 1_555
C8 C7 1_555 1_555
H3 C8 1_555 1_555
H4 C8 1_555 1_555
C9 C8 1_555 1_555
C10 S6 1_555 1_555
H5 C10 1_555 1_555
H6 C10 1_555 1_555
C11 C10 1_555 1_555
H7 C11 1_555 1_555
H8 C11 1_555 1_555
C12 C11 1_555 1_555
N1 C9 1_555 1_555
N2 C12 1_555 1_555
C2 C3 1_555 1_555
C5 C6 1_555 1_555

#END
