
#######################################################################
#
#                 Cambridge Crystallographic Data Centre
#                                CCDC 
#
#######################################################################
#
# If this CIF has been generated from an entry in the Cambridge 
# Structural Database, then it will include bibliographic, chemical, 
# crystal, experimental, refinement or atomic coordinate data resulting 
# from the CCDC's data processing and validation procedures.
#
#######################################################################

data_ICIMIQ
_chemical_formula_moiety         'C8 H7 I1 S6,C12 H4 N4'
_chemical_name_systematic        
"4-Iodo-4',5'-bis(methylsulfanyl)tetrathiafulvalene 7,7,8,8-tetracyanoquinodimethane"
_symmetry_cell_setting           triclinic
_symmetry_space_group_name_H-M   'P -1'
_symmetry_Int_Tables_number      2
_space_group_name_Hall           '-P 1'
loop_
_symmetry_equiv_pos_site_id
_symmetry_equiv_pos_as_xyz
1 x,y,z
2 -x,-y,-z
_cell_length_a                   7.969(1)
_cell_length_b                   9.066(1)
_cell_length_c                   17.482(1)
_cell_angle_alpha                81.02(1)
_cell_angle_beta                 83.25(1)
_cell_angle_gamma                77.12(1)
_cell_volume                     1211.65
_exptl_crystal_colour            black
_exptl_crystal_description       plate
_cell_formula_units_Z            2
loop_
_atom_site_label
_atom_site_type_symbol
_atom_site_fract_x
_atom_site_fract_y
_atom_site_fract_z
I1 I 0.69557(3) 0.65074(3) 0.40740(2)
S1 S 0.51248(11) 0.46562(12) 0.30656(6)
S2 S 0.15859(11) 0.55972(11) 0.37934(5)
S3 S 0.36701(11) 0.28382(12) 0.19120(6)
S4 S 0.01178(11) 0.38790(11) 0.25823(5)
S5 S 0.24897(14) 0.16541(13) 0.05781(6)
S6 S -0.14861(13) 0.27626(12) 0.13630(6)
C9 C 0.2923(4) 0.4602(4) 0.3089(2)
C10 C 0.4806(4) 0.5844(4) 0.3792(2)
C11 C 0.3218(5) 0.6262(4) 0.4118(2)
H5 H 0.2775(50) 0.6853(45) 0.4534(23)
C12 C 0.2309(4) 0.3877(4) 0.2593(2)
C13 C 0.2000(5) 0.2571(4) 0.1410(2)
C14 C 0.0365(4) 0.3035(4) 0.1722(2)
C15 C 0.4624(7) 0.1957(7) 0.0252(3)
H6 H 0.5514(56) 0.1326(49) 0.0571(24)
H7 H 0.4895(55) 0.1679(50) -0.0204(27)
H8 H 0.4666(56) 0.3024(56) 0.0203(25)
C16 C -0.2406(7) 0.4678(6) 0.0961(3)
H9 H -0.3409(63) 0.4682(54) 0.0651(27)
H10 H -0.1609(58) 0.5010(52) 0.0591(27)
H11 H -0.2737(64) 0.5419(60) 0.1348(30)
C1 C 0.1949(4) 0.0173(4) 0.3397(2)
C2 C 0.0133(4) 0.0254(4) 0.3371(2)
H1 H -0.0637(45) 0.0688(40) 0.3732(21)
C3 C -0.0447(4) -0.0370(4) 0.2826(2)
H2 H -0.1737(44) -0.0252(38) 0.2806(19)
C4 C 0.0732(4) -0.1159(4) 0.2263(2)
C5 C 0.2543(4) -0.1251(4) 0.2293(2)
H3 H 0.3298(45) -0.1664(39) 0.1929(21)
C6 C 0.3132(5) -0.0618(4) 0.2829(2)
H4 H 0.4329(43) -0.0712(36) 0.2830(18)
C7 C 0.2531(4) 0.0842(4) 0.3946(2)
C8 C 0.0132(5) -0.1818(4) 0.1710(2)
C17 C 0.4326(5) 0.0852(5) 0.3976(2)
C18 C 0.1358(5) 0.1596(4) 0.4516(2)
C19 C 0.1275(5) -0.2705(5) 0.1181(2)
C20 C -0.1688(5) -0.1671(5) 0.1654(2)
N1 N 0.5747(4) 0.0883(5) 0.4002(2)
N2 N 0.0392(4) 0.2202(4) 0.4963(2)
N3 N 0.2229(5) -0.3447(5) 0.0778(2)
N4 N -0.3134(5) -0.1541(5) 0.1610(2)
I2? I 0.4012(14) 0.7227(12) 0.4904(6)
loop_
_geom_bond_atom_site_label_1
_geom_bond_atom_site_label_2
_geom_bond_site_symmetry_1
_geom_bond_site_symmetry_2
I1 C10 1_555 1_555
S1 C9 1_555 1_555
S2 C9 1_555 1_555
S3 C12 1_555 1_555
S4 C12 1_555 1_555
S5 C13 1_555 1_555
S6 C14 1_555 1_555
C1 C2 1_555 1_555
C2 H1 1_555 1_555
C3 C2 1_555 1_555
H2 C3 1_555 1_555
C4 C3 1_555 1_555
C5 C4 1_555 1_555
H3 C5 1_555 1_555
C6 C1 1_555 1_555
H4 C6 1_555 1_555
C7 C1 1_555 1_555
C8 C4 1_555 1_555
C9 C12 1_555 1_555
C10 S1 1_555 1_555
C11 S2 1_555 1_555
H5 C11 1_555 1_555
C13 S3 1_555 1_555
C14 S4 1_555 1_555
C15 S5 1_555 1_555
H6 C15 1_555 1_555
H7 C15 1_555 1_555
H8 C15 1_555 1_555
C16 S6 1_555 1_555
H9 C16 1_555 1_555
H10 C16 1_555 1_555
H11 C16 1_555 1_555
C17 C7 1_555 1_555
C18 C7 1_555 1_555
C19 C8 1_555 1_555
C20 C8 1_555 1_555
N1 C17 1_555 1_555
N2 C18 1_555 1_555
N3 C19 1_555 1_555
N4 C20 1_555 1_555
C5 C6 1_555 1_555
C10 C11 1_555 1_555
C13 C14 1_555 1_555

#END
