
#######################################################################
#
#                 Cambridge Crystallographic Data Centre
#                                CCDC 
#
#######################################################################
#
# If this CIF has been generated from an entry in the Cambridge 
# Structural Database, then it will include bibliographic, chemical, 
# crystal, experimental, refinement or atomic coordinate data resulting 
# from the CCDC's data processing and validation procedures.
#
#######################################################################

data_ICINEN
_chemical_formula_moiety         'C6 H3 I1 S4,C16 H5 N5 O6'
_chemical_name_systematic        
'2,4,7-Trinitro-9-dicyanomethylenefluorene 4-iodotetrathiafulvalene'
_symmetry_cell_setting           monoclinic
_symmetry_space_group_name_H-M   'P 21/c'
_symmetry_Int_Tables_number      14
_space_group_name_Hall           '-P 2ybc'
loop_
_symmetry_equiv_pos_site_id
_symmetry_equiv_pos_as_xyz
1 x,y,z
2 x,1/2-y,1/2+z
3 -x,-y,-z
4 -x,1/2+y,1/2-z
_cell_length_a                   11.209(4)
_cell_length_b                   7.160(3)
_cell_length_c                   29.917(3)
_cell_angle_alpha                90
_cell_angle_beta                 94.03(2)
_cell_angle_gamma                90
_cell_volume                     2395.1
_exptl_crystal_colour            purple
_exptl_crystal_description       plate
_cell_formula_units_Z            4
loop_
_atom_site_label
_atom_site_type_symbol
_atom_site_fract_x
_atom_site_fract_y
_atom_site_fract_z
I1 I 0.61502(11) 0.1559(2) 0.56229(4)
S1 S 0.3347(4) 0.0426(8) 0.56202(14)
S2 S 0.3220(5) 0.0359(8) 0.66103(15)
S3 S 0.0601(5) -0.0820(9) 0.54852(16)
S4 S 0.0357(4) -0.0659(7) 0.64629(14)
C17 C 0.2466(16) 0.007(3) 0.6082(6)
C18 C 0.4604(18) 0.090(3) 0.5959(6)
C19 C 0.4562(18) 0.081(3) 0.6405(6)
H5 H 0.5258 0.1007 0.6600
C20 C 0.1319(17) -0.042(3) 0.6022(6)
C21 C -0.0841(19) -0.110(3) 0.5687(7)
H6 H -0.1524 -0.1240 0.5483
C22 C -0.094(2) -0.109(3) 0.6092(7)
H7 H -0.1697 -0.1323 0.6208
C1 C 0.5698(17) 0.432(3) 0.3664(6)
H1 H 0.5103 0.4264 0.3422
C2 C 0.5394(16) 0.401(3) 0.4092(6)
C3 C 0.6212(17) 0.426(3) 0.4459(6)
H2 H 0.5976 0.4113 0.4756
C4 C 0.7381(15) 0.475(2) 0.4382(5)
C5 C 1.0049(18) 0.563(3) 0.3966(6)
C6 C 1.0998(18) 0.596(3) 0.3702(6)
H3 H 1.1782 0.6155 0.3835
C7 C 1.0782(18) 0.598(3) 0.3235(6)
C8 C 0.9626(18) 0.576(3) 0.3037(7)
H4 H 0.9492 0.5764 0.2720
C9 C 0.7422(16) 0.503(3) 0.3177(6)
C10 C 0.6876(17) 0.473(3) 0.3583(6)
C11 C 0.7731(16) 0.496(3) 0.3958(6)
C12 C 0.8896(17) 0.536(3) 0.3769(6)
C13 C 0.8711(17) 0.553(3) 0.3294(6)
C14 C 0.6926(17) 0.498(3) 0.2748(6)
C15 C 0.5727(19) 0.429(3) 0.2638(7)
C16 C 0.7464(19) 0.552(3) 0.2364(7)
N1 N 0.4186(14) 0.351(2) 0.4175(5)
N2 N 0.8135(17) 0.495(3) 0.4795(6)
N3 N 1.1774(16) 0.632(2) 0.2975(6)
N4 N 0.4794(17) 0.371(3) 0.2552(6)
N5 N 0.7955(18) 0.611(3) 0.2060(7)
O1 O 0.3449(13) 0.328(2) 0.3855(5)
O2 O 0.3885(13) 0.3353(19) 0.4574(5)
O3 O 0.8017(16) 0.394(3) 0.5115(6)
O4 O 0.8855(19) 0.625(3) 0.4801(6)
O5 O 1.2761(15) 0.657(2) 0.3146(6)
O6 O 1.1569(15) 0.630(2) 0.2556(6)
N6? N 1.033(6) 0.591(10) 0.442(2)
O7? O 0.953(4) 0.658(6) 0.4641(15)
O8? O 1.139(6) 0.575(9) 0.455(2)
loop_
_geom_bond_atom_site_label_1
_geom_bond_atom_site_label_2
_geom_bond_site_symmetry_1
_geom_bond_site_symmetry_2
I1 C18 1_555 1_555
S1 C17 1_555 1_555
S2 C17 1_555 1_555
S3 C20 1_555 1_555
S4 C20 1_555 1_555
C1 H1 1_555 1_555
C2 C1 1_555 1_555
C3 C2 1_555 1_555
H2 C3 1_555 1_555
C4 C3 1_555 1_555
C5 C6 1_555 1_555
C6 H3 1_555 1_555
C7 C6 1_555 1_555
C8 C7 1_555 1_555
H4 C8 1_555 1_555
C9 C10 1_555 1_555
C10 C1 1_555 1_555
C11 C4 1_555 1_555
C12 C5 1_555 1_555
C13 C8 1_555 1_555
C14 C9 1_555 1_555
C15 C14 1_555 1_555
C16 C14 1_555 1_555
N1 C2 1_555 1_555
N2 C4 1_555 1_555
N3 C7 1_555 1_555
N4 C15 1_555 1_555
N5 C16 1_555 1_555
O1 N1 1_555 1_555
O2 N1 1_555 1_555
O3 N2 1_555 1_555
O4 N2 1_555 1_555
O5 N3 1_555 1_555
O6 N3 1_555 1_555
C17 C20 1_555 1_555
C18 S1 1_555 1_555
C19 S2 1_555 1_555
H5 C19 1_555 1_555
C21 S3 1_555 1_555
H6 C21 1_555 1_555
C22 S4 1_555 1_555
H7 C22 1_555 1_555
C9 C13 1_555 1_555
C10 C11 1_555 1_555
C11 C12 1_555 1_555
C12 C13 1_555 1_555
C18 C19 1_555 1_555
C21 C22 1_555 1_555

#END
