
#######################################################################
#
#                 Cambridge Crystallographic Data Centre
#                                CCDC 
#
#######################################################################
#
# If this CIF has been generated from an entry in the Cambridge 
# Structural Database, then it will include bibliographic, chemical, 
# crystal, experimental, refinement or atomic coordinate data resulting 
# from the CCDC's data processing and validation procedures.
#
#######################################################################

data_ICIPER
_chemical_formula_moiety         'C16 H22 N2 O2 S1'
_chemical_name_systematic        
'1-Benzyl-4-vinyloctahydro-1H-2,1,3-benzothiadiazine 2,2-dioxide'
_symmetry_cell_setting           monoclinic
_symmetry_space_group_name_H-M   'P 21/c'
_symmetry_Int_Tables_number      14
_space_group_name_Hall           '-P 2ybc'
loop_
_symmetry_equiv_pos_site_id
_symmetry_equiv_pos_as_xyz
1 x,y,z
2 -x,1/2+y,1/2-z
3 -x,-y,-z
4 x,1/2-y,1/2+z
_cell_length_a                   14.5628(4)
_cell_length_b                   6.4095(2)
_cell_length_c                   16.6818(4)
_cell_angle_alpha                90
_cell_angle_beta                 102.174(2)
_cell_angle_gamma                90
_cell_volume                     1522.07
_exptl_crystal_colour            colorless
_exptl_crystal_description       needle
_cell_formula_units_Z            4
loop_
_atom_site_label
_atom_site_type_symbol
_atom_site_fract_x
_atom_site_fract_y
_atom_site_fract_z
S1 S 0.84845(3) 1.05510(7) 0.78807(3)
C1 C 0.98559(17) 1.1333(4) 0.57661(12)
H1 H 1.0416 1.0529 0.5839
H2 H 0.9779 1.2521 0.5418
N1 N 0.94113(11) 0.9656(3) 0.75834(10)
H3 H 0.9668 0.8593 0.7946
O1 O 0.81931(10) 1.2380(2) 0.74055(9)
C2 C 0.91899(15) 1.0803(3) 0.61455(13)
H4 H 0.8638 1.1635 0.6061
N2 N 0.76617(10) 0.8779(2) 0.76185(9)
O2 O 0.87171(10) 1.0716(2) 0.87511(8)
C3 C 0.92497(13) 0.8951(3) 0.67072(12)
H5 H 0.9823 0.8153 0.6650
C4 C 0.84180(13) 0.7419(3) 0.64980(11)
H6 H 0.8604 0.6119 0.6824
C5 C 0.82358(15) 0.6816(3) 0.55910(12)
H7 H 0.8097 0.8093 0.5253
H8 H 0.8811 0.6179 0.5471
C6 C 0.74220(15) 0.5290(3) 0.53513(12)
H9 H 0.7301 0.5036 0.4753
H10 H 0.7591 0.3942 0.5634
C7 C 0.65383(14) 0.6147(3) 0.55820(12)
H11 H 0.6025 0.5111 0.5443
H12 H 0.6338 0.7434 0.5265
C8 C 0.67216(13) 0.6633(3) 0.64976(11)
H13 H 0.6898 0.5336 0.6815
H14 H 0.6142 0.7186 0.6640
C9 C 0.75097(13) 0.8234(3) 0.67237(11)
H15 H 0.7314 0.9530 0.6399
C10 C 0.76833(19) 0.7042(4) 0.82238(16)
H16 H 0.8137 0.7400 0.8735
H17 H 0.7909 0.5757 0.7999
C11 C 0.6736(3) 0.6608(7) 0.8427(2)
C12 C 0.6605(3) 0.4696(7) 0.8793(3)
H18 H 0.7101 0.3704 0.8883
C13 C 0.5773(3) 0.4210(7) 0.9029(2)
H19 H 0.5693 0.2914 0.9282
C14 C 0.5067(3) 0.5682(7) 0.8881(2)
H20 H 0.4491 0.5390 0.9039
C15 C 0.5174(3) 0.7594(5) 0.8507(2)
H21 H 0.4674 0.8576 0.8408
C16 C 0.6015(3) 0.8044(5) 0.82813(18)
H22 H 0.6095 0.9338 0.8027
C17? C 0.6817(4) 0.9384(8) 0.7889(3)
C18? C 0.6395(5) 0.7557(11) 0.8269(3)
C19? C 0.5448(6) 0.7721(10) 0.8308(4)
C20? C 0.4997(4) 0.6233(12) 0.8686(4)
C21? C 0.5548(5) 0.4543(12) 0.9000(4)
C22? C 0.6501(5) 0.4313(13) 0.8965(5)
C23? C 0.6913(4) 0.5864(12) 0.8592(4)
H23? H 0.6349 0.9922 0.7415
H24? H 0.6968 1.0521 0.8297
H25? H 0.5101 0.8899 0.8066
H26? H 0.4359 0.6362 0.8727
H27? H 0.5265 0.3467 0.9256
H28? H 0.6849 0.3121 0.9192
H29? H 0.7555 0.5758 0.8560
loop_
_geom_bond_atom_site_label_1
_geom_bond_atom_site_label_2
_geom_bond_site_symmetry_1
_geom_bond_site_symmetry_2
S1 N1 1_555 1_555
C1 H1 1_555 1_555
H2 C1 1_555 1_555
N1 H3 1_555 1_555
O1 S1 1_555 1_555
C2 C1 1_555 1_555
H4 C2 1_555 1_555
N2 S1 1_555 1_555
O2 S1 1_555 1_555
C3 N1 1_555 1_555
H5 C3 1_555 1_555
C4 C3 1_555 1_555
H6 C4 1_555 1_555
C5 C4 1_555 1_555
H7 C5 1_555 1_555
H8 C5 1_555 1_555
C6 C5 1_555 1_555
H9 C6 1_555 1_555
H10 C6 1_555 1_555
C7 C6 1_555 1_555
H11 C7 1_555 1_555
H12 C7 1_555 1_555
C8 C7 1_555 1_555
H13 C8 1_555 1_555
H14 C8 1_555 1_555
C9 N2 1_555 1_555
H15 C9 1_555 1_555
C10 N2 1_555 1_555
H16 C10 1_555 1_555
H17 C10 1_555 1_555
C11 C10 1_555 1_555
C12 C11 1_555 1_555
H18 C12 1_555 1_555
C13 C12 1_555 1_555
H19 C13 1_555 1_555
C14 C13 1_555 1_555
H20 C14 1_555 1_555
C15 C14 1_555 1_555
H21 C15 1_555 1_555
C16 C11 1_555 1_555
H22 C16 1_555 1_555
C2 C3 1_555 1_555
C4 C9 1_555 1_555
C8 C9 1_555 1_555
C15 C16 1_555 1_555

#END
