
#######################################################################
#
#                 Cambridge Crystallographic Data Centre
#                                CCDC 
#
#######################################################################
#
# If this CIF has been generated from an entry in the Cambridge 
# Structural Database, then it will include bibliographic, chemical, 
# crystal, experimental, refinement or atomic coordinate data resulting 
# from the CCDC's data processing and validation procedures.
#
#######################################################################

data_ICIYUR
_chemical_name_common            
'C-(4-hydroxyphenyl)calix(4)pyrogallolarene acetonitrile solvate monohydrate'
_chemical_formula_moiety         'C52 H40 O16,C2 H3 N1,H2 O1'
_chemical_name_systematic        
'2,8,14,20-tetrakis(4-hydroxyphenyl)-4,5,6,10,11,12,16,17,18,22,23,24-dodecahydroxycalix(4)arene acetonitrile solvate monohydrate'
_symmetry_cell_setting           triclinic
_symmetry_space_group_name_H-M   'P -1'
_symmetry_Int_Tables_number      2
_space_group_name_Hall           '-P 1'
loop_
_symmetry_equiv_pos_site_id
_symmetry_equiv_pos_as_xyz
1 x,y,z
2 -x,-y,-z
_cell_length_a                   11.3209(6)
_cell_length_b                   13.4213(7)
_cell_length_c                   22.1522(11)
_cell_angle_alpha                93.996(3)
_cell_angle_beta                 95.391(3)
_cell_angle_gamma                103.469(3)
_cell_volume                     3244.17
_exptl_crystal_colour            colorless
_exptl_crystal_description       Plate
_cell_formula_units_Z            2
loop_
_atom_site_label
_atom_site_type_symbol
_atom_site_fract_x
_atom_site_fract_y
_atom_site_fract_z
N1 N -0.4995(9) 0.7437(6) 0.2096(4)
C1 C -0.4371(9) 0.7918(6) 0.1779(4)
C2 C -0.3595(10) 0.8509(8) 0.1405(5)
H1 H -0.3475 0.9242 0.1536
H2 H -0.3966 0.8369 0.0981
H3 H -0.2803 0.8328 0.1439
C3 C 0.1186(9) 1.5022(9) 0.3895(6)
H4 H 0.1118 1.5258 0.3502
C4 C 0.1302(8) 1.3986(9) 0.3983(6)
H5 H 0.1286 1.3525 0.3635
O1 O 0.0953(5) 1.6625(4) 0.4347(3)
H6 H 0.1620 1.7076 0.4415
C5 C 0.1182(8) 1.5634(6) 0.4410(5)
C6 C 0.1432(6) 1.4335(6) 0.5033(5)
H7 H 0.1536 1.4112 0.5428
C7 C 0.1287(6) 1.5333(5) 0.4983(4)
H8 H 0.1263 1.5779 0.5332
O2 O -0.2207(2) 0.9486(3) 0.30550(16)
H9 H -0.2892 0.9587 0.3118
C8 C 0.0778(3) 1.1086(3) 0.36849(18)
H10 H 0.1615 1.1178 0.3626
O3 O -0.2832(2) 1.0596(2) 0.39853(16)
H11 H -0.3253 1.0813 0.3715
C9 C -0.0085(3) 1.0337(3) 0.33124(18)
O4 O -0.1159(3) 1.2134(2) 0.4672(2)
H12 H -0.1920 1.2052 0.4614
C10 C -0.1314(3) 1.0202(3) 0.3401(2)
O5 O 0.2097(3) 1.0906(3) 0.52088(15)
H13 H 0.1968 1.1222 0.5527
C11 C -0.1637(3) 1.0809(3) 0.3867(2)
O6 O 0.4387(3) 1.0617(2) 0.53078(15)
H14 H 0.3710 1.0342 0.5378
C12 C -0.0781(4) 1.1552(3) 0.4216(2)
O7 O 0.6223(3) 1.1889(2) 0.48123(13)
H15 H 0.6387 1.1798 0.5179
C13 C 0.0466(3) 1.1711(3) 0.41433(19)
O8 O 0.8200(3) 1.3817(3) 0.3673(2)
H16 H 0.8742 1.4039 0.3647
C14 C 0.1398(4) 1.2520(3) 0.4562(2)
H17 H 0.1150 1.2383 0.4976
O9 O 0.8862(3) 1.2682(3) 0.2733(2)
H18 H 0.8904 1.3098 0.2465
C15 C 0.3615(3) 1.2909(3) 0.43151(16)
H19 H 0.3434 1.3426 0.4075
O10 O 0.7173(3) 1.1028(3) 0.21086(13)
H20 H 0.6867 1.1169 0.1775
C16 C 0.2687(3) 1.2336(3) 0.45976(18)
O11 O 0.5116(2) 0.9177(2) 0.33241(13)
H21 H 0.5254 0.9107 0.3696
C17 C 0.2967(4) 1.1549(3) 0.49256(19)
O12 O 0.3241(2) 0.8149(2) 0.39519(15)
H22 H 0.2677 0.7602 0.3902
C18 C 0.4127(4) 1.1389(3) 0.49797(18)
O13 O 0.0920(3) 0.8370(4) 0.3680(2)
H23 H 0.0786 0.8769 0.3972
C19 C 0.5051(4) 1.2013(3) 0.47200(17)
C20 C 0.4803(3) 1.2774(3) 0.43617(16)
O14 O 0.4581(5) 1.6998(3) 0.32721(18)
H24 H 0.4542 1.6998 0.2892
C21 C 0.5823(3) 1.3389(3) 0.40440(18)
H25 H 0.6553 1.3621 0.4356
O15 O 0.2509(6) 1.1216(6) 0.0126(2)
H26 H 0.2755 1.1840 0.0071
C22 C 0.5344(3) 1.1898(3) 0.32163(16)
H27 H 0.4533 1.1726 0.3323
O16 O -0.0586(4) 1.0669(4) 0.04068(16)
H28 H -0.0955 1.0136 0.0182
C23 C 0.6182(3) 1.2731(3) 0.35429(18)
C24 C 0.7357(4) 1.2986(3) 0.3368(2)
C25 C 0.7669(3) 1.2423(3) 0.2890(2)
C26 C 0.6838(3) 1.1592(3) 0.25790(18)
C27 C 0.5649(3) 1.1305(3) 0.27375(16)
C28 C 0.4730(3) 1.0406(3) 0.23806(17)
H29 H 0.5183 0.9869 0.2284
C29 C 0.2521(3) 1.0023(3) 0.26372(17)
H30 H 0.2349 1.0451 0.2334
C30 C 0.3704(3) 0.9911(3) 0.27482(16)
C31 C 0.3951(3) 0.9303(3) 0.32024(17)
C32 C 0.3019(3) 0.8788(3) 0.35132(19)
C33 C 0.1843(3) 0.8913(3) 0.3388(2)
C34 C 0.1559(3) 0.9530(3) 0.29541(18)
C35 C 0.0262(3) 0.9643(3) 0.28167(19)
H31 H -0.0278 0.8943 0.2833
C36 C 0.1430(14) 1.3659(15) 0.4534(7)
C37 C 0.5522(3) 1.4357(3) 0.38164(18)
C38 C 0.5206(5) 1.4443(3) 0.3210(2)
H32 H 0.5194 1.3886 0.2919
C39 C 0.4904(5) 1.5322(3) 0.3014(2)
H33 H 0.4712 1.5374 0.2592
C40 C 0.4887(5) 1.6123(3) 0.3441(2)
C41 C 0.5222(4) 1.6054(3) 0.4052(2)
H34 H 0.5231 1.6607 0.4346
C42 C 0.5538(3) 1.5189(3) 0.42303(19)
H35 H 0.5777 1.5155 0.4650
C43 C 0.4220(4) 1.0688(4) 0.17753(19)
C44 C 0.4270(5) 1.1656(5) 0.1640(2)
H36 H 0.4711 1.2208 0.1926
C45 C 0.3697(6) 1.1892(6) 0.1090(3)
H37 H 0.3721 1.2580 0.1006
C46 C 0.3078(6) 1.1026(8) 0.0669(3)
C47 C 0.3017(6) 1.0046(8) 0.0804(3)
H38 H 0.2580 0.9486 0.0522
C48 C 0.3574(5) 0.9860(5) 0.1339(2)
H39 H 0.3534 0.9170 0.1425
C49 C 0.0001(3) 0.9925(4) 0.2177(2)
C50 C -0.0261(5) 0.9177(4) 0.1696(2)
H40 H -0.0318 0.8482 0.1774
C51 C -0.0444(5) 0.9405(5) 0.1103(3)
H41 H -0.0604 0.8875 0.0777
C52 C -0.0392(4) 1.0429(5) 0.0985(2)
C53 C -0.0132(5) 1.1169(4) 0.1466(2)
H42 H -0.0090 1.1865 0.1393
C54 C 0.0069(4) 1.0925(4) 0.2057(2)
H43 H 0.0257 1.1456 0.2383
O18 O 0.0196(5) 0.9213(6) 0.4604(3)
O17? O 0.1486(8) 1.6488(5) 0.3749(5)
H44? H 0.1053 1.6466 0.3417
C55? C 0.1130(10) 1.3703(9) 0.3674(6)
H45? H 0.0978 1.3121 0.3383
C56? C 0.1182(9) 1.4648(8) 0.3457(6)
H46? H 0.1044 1.4717 0.3034
C57? C 0.1451(13) 1.5508(10) 0.3894(8)
C58? C 0.1639(13) 1.5363(9) 0.4520(7)
H47? H 0.1793 1.5932 0.4821
C59? C 0.1596(9) 1.4423(10) 0.4681(7)
H48? H 0.1796 1.4355 0.5100
C60? C 0.1284(17) 1.3532(16) 0.4288(10)
loop_
_geom_bond_atom_site_label_1
_geom_bond_atom_site_label_2
_geom_bond_site_symmetry_1
_geom_bond_site_symmetry_2
N1 C1 1_555 1_555
C1 C2 1_555 1_555
C2 H1 1_555 1_555
H2 C2 1_555 1_555
H3 C2 1_555 1_555
C3 H4 1_555 1_555
C4 C3 1_555 1_555
H5 C4 1_555 1_555
O1 H6 1_555 1_555
C5 C3 1_555 1_555
C6 H7 1_555 1_555
C7 C5 1_555 1_555
H8 C7 1_555 1_555
O2 H9 1_555 1_555
C8 H10 1_555 1_555
O3 H11 1_555 1_555
C9 C8 1_555 1_555
O4 H12 1_555 1_555
C10 O2 1_555 1_555
O5 H13 1_555 1_555
C11 O3 1_555 1_555
O6 H14 1_555 1_555
C12 O4 1_555 1_555
O7 H15 1_555 1_555
C13 C8 1_555 1_555
O8 H16 1_555 1_555
C14 C13 1_555 1_555
H17 C14 1_555 1_555
O9 H18 1_555 1_555
C15 H19 1_555 1_555
O10 H20 1_555 1_555
C16 C14 1_555 1_555
O11 H21 1_555 1_555
C17 O5 1_555 1_555
O12 H22 1_555 1_555
C18 O6 1_555 1_555
O13 H23 1_555 1_555
C19 O7 1_555 1_555
C20 C15 1_555 1_555
O14 H24 1_555 1_555
C21 C20 1_555 1_555
H25 C21 1_555 1_555
O15 H26 1_555 1_555
C22 H27 1_555 1_555
O16 H28 1_555 1_555
C23 C21 1_555 1_555
C24 O8 1_555 1_555
C25 O9 1_555 1_555
C26 O10 1_555 1_555
C27 C22 1_555 1_555
C28 C27 1_555 1_555
H29 C28 1_555 1_555
C29 H30 1_555 1_555
C30 C28 1_555 1_555
C31 O11 1_555 1_555
C32 O12 1_555 1_555
C33 O13 1_555 1_555
C34 C29 1_555 1_555
C35 C9 1_555 1_555
H31 C35 1_555 1_555
C36 C4 1_555 1_555
C37 C21 1_555 1_555
C38 C37 1_555 1_555
H32 C38 1_555 1_555
C39 C38 1_555 1_555
H33 C39 1_555 1_555
C40 O14 1_555 1_555
C41 C40 1_555 1_555
H34 C41 1_555 1_555
C42 C37 1_555 1_555
H35 C42 1_555 1_555
C43 C28 1_555 1_555
C44 C43 1_555 1_555
H36 C44 1_555 1_555
C45 C44 1_555 1_555
H37 C45 1_555 1_555
C46 O15 1_555 1_555
C47 C46 1_555 1_555
H38 C47 1_555 1_555
C48 C43 1_555 1_555
H39 C48 1_555 1_555
C49 C35 1_555 1_555
C50 C49 1_555 1_555
H40 C50 1_555 1_555
C51 C50 1_555 1_555
H41 C51 1_555 1_555
C52 O16 1_555 1_555
C53 C52 1_555 1_555
H42 C53 1_555 1_555
C54 C49 1_555 1_555
H43 C54 1_555 1_555
O1 C5 1_555 1_555
C6 C7 1_555 1_555
C6 C36 1_555 1_555
C9 C10 1_555 1_555
C10 C11 1_555 1_555
C11 C12 1_555 1_555
C12 C13 1_555 1_555
C14 C36 1_555 1_555
C15 C16 1_555 1_555
C16 C17 1_555 1_555
C17 C18 1_555 1_555
C18 C19 1_555 1_555
C19 C20 1_555 1_555
C22 C23 1_555 1_555
C23 C24 1_555 1_555
C24 C25 1_555 1_555
C25 C26 1_555 1_555
C26 C27 1_555 1_555
C29 C30 1_555 1_555
C30 C31 1_555 1_555
C31 C32 1_555 1_555
C32 C33 1_555 1_555
C33 C34 1_555 1_555
C34 C35 1_555 1_555
C39 C40 1_555 1_555
C41 C42 1_555 1_555
C45 C46 1_555 1_555
C47 C48 1_555 1_555
C51 C52 1_555 1_555
C53 C54 1_555 1_555

#END
