
#######################################################################
#
#                 Cambridge Crystallographic Data Centre
#                                CCDC 
#
#######################################################################
#
# If this CIF has been generated from an entry in the Cambridge 
# Structural Database, then it will include bibliographic, chemical, 
# crystal, experimental, refinement or atomic coordinate data resulting 
# from the CCDC's data processing and validation procedures.
#
#######################################################################

data_ICIZAY
_chemical_name_common            
'C-(4-hydroxyphenyl)calix(4)resorcinarene acetonitrile solvate dihydrate'
_chemical_formula_moiety         'C52 H40 O12,2(C2 H3 N1),2(H2 O1)'
_chemical_name_systematic        
'2,8,14,20-tetrakis(4-hydroxyphenyl)-4,6,10,12,16,18,22,24-octahydroxycalix(4)arene acetonitrile solvate dihydrate'
_symmetry_cell_setting           orthorhombic
_symmetry_space_group_name_H-M   'P 21 21 2'
_symmetry_Int_Tables_number      18
_space_group_name_Hall           'P 2 2ab'
loop_
_symmetry_equiv_pos_site_id
_symmetry_equiv_pos_as_xyz
1 x,y,z
2 -x,-y,z
3 1/2+x,1/2-y,-z
4 1/2-x,1/2+y,-z
_cell_length_a                   20.9248(12)
_cell_length_b                   25.4582(16)
_cell_length_c                   11.8623(8)
_cell_angle_alpha                90
_cell_angle_beta                 90
_cell_angle_gamma                90
_cell_volume                     6319.14
_exptl_crystal_colour            colorless
_exptl_crystal_description       Plate
_cell_formula_units_Z            4
loop_
_atom_site_label
_atom_site_type_symbol
_atom_site_fract_x
_atom_site_fract_y
_atom_site_fract_z
O1 O 0.4513(3) 0.2024(3) 0.7200(6)
H1 H 0.4890 0.1996 0.6961
C1 C 0.3236(4) 0.2744(4) 0.5829(9)
H2 H 0.2791 0.2705 0.5693
O2 O 0.4499(3) 0.3628(3) 0.5077(7)
H3 H 0.4326 0.3906 0.5305
C2 C 0.3538(4) 0.2362(4) 0.6479(9)
O3 O 0.3112(3) 0.2865(3) 0.2989(6)
H4 H 0.3051 0.2608 0.2558
C3 C 0.4202(4) 0.2416(4) 0.6615(8)
O4 O 0.0837(3) 0.2821(3) 0.3008(6)
H5 H 0.0876 0.2780 0.2309
C4 C 0.4520(5) 0.2836(5) 0.6185(10)
H6 H 0.4965 0.2877 0.6319
O5 O -0.0590(3) 0.3609(3) 0.5170(6)
H7 H -0.0490 0.3884 0.5521
C5 C 0.4196(5) 0.3201(4) 0.5556(9)
O6 O -0.0560(3) 0.2003(3) 0.7269(6)
H8 H -0.0944 0.1992 0.7063
C6 C 0.3530(4) 0.3163(4) 0.5383(10)
C7 C 0.3182 0.3594 0.4769
H9 H 0.3454 0.3703 0.4117
O7 O 0.3106(3) 0.1473(3) 0.4766(6)
H10 H 0.3020 0.1302 0.4179
C8 C 0.1957(5) 0.3576(4) 0.4700(9)
H11 H 0.1953 0.3827 0.5293
O8 O 0.3016(4) 0.5407(3) 0.7622(6)
H12 H 0.2950 0.5311 0.8289
C9 C 0.2542 0.3412 0.4298
O9 O 0.0821(4) 0.5584(3) 0.6768(9)
H13 H 0.0838 0.5522 0.7462
C10 C 0.2540(4) 0.3038(4) 0.3392(9)
O10 O 0.1068(4) 0.1937(3) 1.1784(6)
H14 H 0.1039 0.1634 1.2060
C11 C 0.1979(5) 0.2843(4) 0.2996(7)
H15 H 0.1980 0.2583 0.2421
O11 O 0.2916(3) 0.1978(3) 1.1713(6)
H16 H 0.2855 0.1676 1.1975
C12 C 0.1396(4) 0.3025(5) 0.3441(9)
C13 C 0.1369(4) 0.3398(4) 0.4293(10)
C14 C 0.0731(4) 0.3589(4) 0.4775(10)
H17 H 0.0451 0.3644 0.4102
C15 C 0.0717(4) 0.2722(4) 0.5930(8)
H18 H 0.1163 0.2687 0.5806
C16 C 0.0392(4) 0.3174(4) 0.5467(9)
C17 C -0.0259(5) 0.3193(4) 0.5604(9)
C18 C -0.0588(5) 0.2807(4) 0.6258(9)
H19 H -0.1035 0.2838 0.6388
C19 C -0.0252(5) 0.2390(4) 0.6695(9)
C20 C 0.0405(4) 0.2332(4) 0.6554(8)
C21 C 0.1973(5) 0.1858(3) 0.6926(8)
H20 H 0.1973 0.1990 0.7674
C22 C 0.1396 0.1761 0.6425
C23 C 0.1415(4) 0.1561(4) 0.5313(7)
C24 C 0.1992(4) 0.1474(3) 0.4765(8)
H21 H 0.2001 0.1346 0.4013
C25 C 0.2552(4) 0.1578(4) 0.5343(10)
C26 C 0.2566(4) 0.1773(4) 0.6401(9)
C27 C 0.3214(4) 0.1874(4) 0.6972(8)
H22 H 0.3496 0.1565 0.6814
C28 C 0.3088(5) 0.4070(4) 0.5514(9)
C29 C 0.3153(6) 0.4580(4) 0.5160(12)
H23 H 0.3243 0.4633 0.4383
C30 C 0.3100(7) 0.5011(5) 0.5805(12)
H24 H 0.3112 0.5350 0.5468
C31 C 0.3033(5) 0.4965(4) 0.6915(9)
C32 C 0.2970(5) 0.4468(4) 0.7380(8)
H25 H 0.2880 0.4420 0.8158
C33 C 0.3047(7) 0.4039(5) 0.6655(10)
H26 H 0.3071 0.3700 0.6987
C34 C 0.0755(4) 0.4105(4) 0.5335(11)
C35 C 0.0774(6) 0.4556(5) 0.4642(16)
H27 H 0.0761 0.4517 0.3846
C36 C 0.0811(7) 0.5061(6) 0.5111(14)
H28 H 0.0832 0.5364 0.4646
C37 C 0.0816(5) 0.5098(4) 0.6157(12)
C38 C 0.0820(6) 0.4703(7) 0.6905(12)
H29 H 0.0823 0.4777 0.7690
C39 C 0.0821(7) 0.4136(6) 0.6497(15)
H30 H 0.0862 0.3839 0.6978
C40 C 0.0840(4) 0.1895(4) 0.8281(9)
C41 C 0.0985(5) 0.2348(4) 0.8840(10)
H31 H 0.1026 0.2665 0.8424
C42 C 0.1071(5) 0.2359(5) 0.9983(12)
H32 H 0.1176 0.2681 1.0347
C43 C 0.1007(4) 0.1909(5) 1.0605(9)
C44 C 0.0869(6) 0.1430(5) 1.0087(11)
H33 H 0.0834 0.1118 1.0522
C45 C 0.0783(6) 0.1416(5) 0.8898(9)
H34 H 0.0689 0.1095 0.8523
C46 C 0.3142(4) 0.1919(4) 0.8224(9)
C47 C 0.2916(4) 0.2359(4) 0.8791(9)
H35 H 0.2799 0.2656 0.8353
C48 C 0.2853(4) 0.2392(5) 0.9922(9)
H36 H 0.2728 0.2713 1.0265
C49 C 0.2972(5) 0.1950(5) 1.0574(9)
C50 C 0.3202(6) 0.1513(5) 1.0070(10)
H37 H 0.3329 0.1221 1.0517
C51 C 0.3257(5) 0.1486(5) 0.8887(10)
H38 H 0.3374 0.1163 0.8542
C52 C 0.0753 0.1856 0.7022
H39 H 0.0478 0.1543 0.6874
O12 O 0.0814(3) 0.1461(3) 0.4803(6)
H40 H 0.0868 0.1386 0.4120
N1 N 0.1977(8) 0.0292(5) 1.0107(10)
C53 C 0.2008(10) 0.0387(6) 0.9153(13)
C54 C 0.2088(16) 0.0495(10) 0.7936(15)
H41 H 0.2487 0.0336 0.7670
H42 H 0.2103 0.0876 0.7813
H43 H 0.1727 0.0346 0.7518
N2 N 0.4019(11) 0.3633(7) 0.9003(19)
C55 C 0.4230(6) 0.3235(9) 0.9326(16)
C56 C 0.4385(7) 0.2753(7) 0.9830(16)
H44 H 0.4334 0.2781 1.0649
H45 H 0.4829 0.2662 0.9652
H46 H 0.4100 0.2479 0.9540
O13 O 0.0854(4) 0.0994(3) 1.2771(7)
O14 O 0.3025(4) 0.1024(3) 0.2736(5)
loop_
_geom_bond_atom_site_label_1
_geom_bond_atom_site_label_2
_geom_bond_site_symmetry_1
_geom_bond_site_symmetry_2
O1 H1 1_555 1_555
C1 H2 1_555 1_555
O2 H3 1_555 1_555
C2 C1 1_555 1_555
O3 H4 1_555 1_555
C3 O1 1_555 1_555
O4 H5 1_555 1_555
C4 C3 1_555 1_555
H6 C4 1_555 1_555
O5 H7 1_555 1_555
C5 O2 1_555 1_555
O6 H8 1_555 1_555
C6 C1 1_555 1_555
C7 C6 1_555 1_555
H9 C7 1_555 1_555
O7 H10 1_555 1_555
C8 H11 1_555 1_555
O8 H12 1_555 1_555
C9 C7 1_555 1_555
O9 H13 1_555 1_555
C10 O3 1_555 1_555
O10 H14 1_555 1_555
C11 C10 1_555 1_555
H15 C11 1_555 1_555
O11 H16 1_555 1_555
C12 O4 1_555 1_555
C13 C8 1_555 1_555
C14 C13 1_555 1_555
H17 C14 1_555 1_555
C15 H18 1_555 1_555
C16 C14 1_555 1_555
C17 O5 1_555 1_555
C18 C17 1_555 1_555
H19 C18 1_555 1_555
C19 O6 1_555 1_555
C20 C15 1_555 1_555
C21 H20 1_555 1_555
C22 C21 1_555 1_555
C23 C22 1_555 1_555
C24 C23 1_555 1_555
H21 C24 1_555 1_555
C25 O7 1_555 1_555
C26 C21 1_555 1_555
C27 C2 1_555 1_555
H22 C27 1_555 1_555
C28 C7 1_555 1_555
C29 C28 1_555 1_555
H23 C29 1_555 1_555
C30 C29 1_555 1_555
H24 C30 1_555 1_555
C31 O8 1_555 1_555
C32 C31 1_555 1_555
H25 C32 1_555 1_555
C33 C28 1_555 1_555
H26 C33 1_555 1_555
C34 C14 1_555 1_555
C35 C34 1_555 1_555
H27 C35 1_555 1_555
C36 C35 1_555 1_555
H28 C36 1_555 1_555
C37 O9 1_555 1_555
C38 C37 1_555 1_555
H29 C38 1_555 1_555
C39 C34 1_555 1_555
H30 C39 1_555 1_555
C40 C41 1_555 1_555
C41 H31 1_555 1_555
C42 C41 1_555 1_555
H32 C42 1_555 1_555
C43 O10 1_555 1_555
C44 C43 1_555 1_555
H33 C44 1_555 1_555
C45 C40 1_555 1_555
H34 C45 1_555 1_555
C46 C27 1_555 1_555
C47 C46 1_555 1_555
H35 C47 1_555 1_555
C48 C47 1_555 1_555
H36 C48 1_555 1_555
C49 O11 1_555 1_555
C50 C49 1_555 1_555
H37 C50 1_555 1_555
C51 C46 1_555 1_555
H38 C51 1_555 1_555
C52 C20 1_555 1_555
H39 C52 1_555 1_555
O12 C23 1_555 1_555
H40 O12 1_555 1_555
N1 C53 1_555 1_555
C53 C54 1_555 1_555
C54 H41 1_555 1_555
H42 C54 1_555 1_555
H43 C54 1_555 1_555
N2 C55 1_555 1_555
C55 C56 1_555 1_555
C56 H44 1_555 1_555
H45 C56 1_555 1_555
H46 C56 1_555 1_555
C2 C3 1_555 1_555
C4 C5 1_555 1_555
C5 C6 1_555 1_555
C8 C9 1_555 1_555
C9 C10 1_555 1_555
C11 C12 1_555 1_555
C12 C13 1_555 1_555
C15 C16 1_555 1_555
C16 C17 1_555 1_555
C18 C19 1_555 1_555
C19 C20 1_555 1_555
C22 C52 1_555 1_555
C24 C25 1_555 1_555
C25 C26 1_555 1_555
C26 C27 1_555 1_555
C30 C31 1_555 1_555
C32 C33 1_555 1_555
C36 C37 1_555 1_555
C38 C39 1_555 1_555
C40 C52 1_555 1_555
C42 C43 1_555 1_555
C44 C45 1_555 1_555
C48 C49 1_555 1_555
C50 C51 1_555 1_555

#END
