
#######################################################################
#
#                 Cambridge Crystallographic Data Centre
#                                CCDC 
#
#######################################################################
#
# If this CIF has been generated from an entry in the Cambridge 
# Structural Database, then it will include bibliographic, chemical, 
# crystal, experimental, refinement or atomic coordinate data resulting 
# from the CCDC's data processing and validation procedures.
#
#######################################################################

data_ICOJUF
_chemical_formula_moiety         'C34 H45 Cl2 N1 O2 P2 S1'
_chemical_name_systematic        
6,8-Dichloro-2^4^,2^6^,4^3^,4^5^-tetra-t-butyl-7-phenyl-1,5-dioxa-3-thia-6,8-diphospha-7-aza-2,4(1,2)-dibenzenacyclophane
_symmetry_cell_setting           monoclinic
_symmetry_space_group_name_H-M   'P 21/c'
_symmetry_Int_Tables_number      14
_space_group_name_Hall           '-P 2ybc'
loop_
_symmetry_equiv_pos_site_id
_symmetry_equiv_pos_as_xyz
1 x,y,z
2 x,1/2-y,1/2+z
3 -x,-y,-z
4 -x,1/2+y,1/2-z
_cell_length_a                   9.8492(8)
_cell_length_b                   17.6284(19)
_cell_length_c                   21.2737(17)
_cell_angle_alpha                90
_cell_angle_beta                 102.918(6)
_cell_angle_gamma                90
_cell_volume                     3600.18
_exptl_crystal_colour            colorless
_exptl_crystal_description       column
_chemical_melting_point          183deg.C(dec.)
_cell_formula_units_Z            4
_exptl_crystal_recrystallization_method hexane/dichloromethane
loop_
_atom_site_label
_atom_site_type_symbol
_atom_site_fract_x
_atom_site_fract_y
_atom_site_fract_z
S1 S 0.26125(12) 0.58243(6) 0.01406(5)
P1 P 0.12002(14) 0.65940(7) 0.10767(6)
P2 P -0.05822(13) 0.60846(6) -0.00461(6)
Cl1 Cl 0.06519(17) 0.72181(9) 0.18044(7)
Cl2 Cl -0.26596(12) 0.63990(7) -0.03222(7)
O1 O 0.2587(3) 0.70959(15) 0.10555(12)
O2 O -0.0165(3) 0.62910(14) -0.07264(13)
N1 N 0.0019(3) 0.68695(17) 0.04107(16)
C1 C 0.3052(4) 0.7310(2) 0.05068(18)
C2 C 0.3557(4) 0.8049(2) 0.0473(2)
C3 C 0.3898(4) 0.8241(2) -0.0103(2)
H1 H 0.4205 0.8733 -0.0148
C4 C 0.3813(4) 0.7745(2) -0.06222(19)
C5 C 0.3444(4) 0.7003(2) -0.05352(19)
H2 H 0.3453 0.6647 -0.0857
C6 C 0.3063(4) 0.6785(2) 0.00238(19)
C7 C 0.3721(5) 0.8624(2) 0.1028(2)
C8 C 0.2287(5) 0.8848(3) 0.1146(3)
H3 H 0.1716 0.9047 0.0755
H4 H 0.2405 0.9227 0.1478
H5 H 0.1845 0.8409 0.1278
C9 C 0.4620(6) 0.8291(3) 0.1640(2)
H6 H 0.4735 0.8659 0.1981
H7 H 0.5515 0.8157 0.1566
H8 H 0.4177 0.7846 0.1762
C10 C 0.4426(6) 0.9356(3) 0.0883(3)
H9 H 0.3891 0.9579 0.0494
H10 H 0.5347 0.9243 0.0829
H11 H 0.4483 0.9705 0.1234
C11 C 0.4139(6) 0.8021(3) -0.1252(2)
C12 C 0.3086(8) 0.8619(4) -0.1538(3)
H12 H 0.3340 0.8841 -0.1908
H13 H 0.3067 0.9006 -0.1222
H14 H 0.2180 0.8392 -0.1666
C13 C 0.4119(9) 0.7395(4) -0.1734(3)
H15 H 0.4777 0.7011 -0.1549
H16 H 0.4364 0.7597 -0.2113
H17 H 0.3202 0.7179 -0.1849
C14 C 0.5605(7) 0.8386(4) -0.1117(3)
H18 H 0.6296 0.8004 -0.0968
H19 H 0.5667 0.8771 -0.0793
H20 H 0.5761 0.8609 -0.1506
C15 C 0.0625(4) 0.5797(2) -0.10193(19)
C16 C 0.1917(4) 0.5537(2) -0.06658(18)
C17 C 0.2702(4) 0.5039(2) -0.0945(2)
H21 H 0.3552 0.4863 -0.0707
C18 C 0.2234(4) 0.4805(2) -0.1571(2)
C19 C 0.1000(5) 0.5110(2) -0.1915(2)
H22 H 0.0700 0.4964 -0.2344
C20 C 0.0169(4) 0.5620(2) -0.1668(2)
C21 C -0.1185(4) 0.5927(3) -0.2093(2)
C22 C -0.2432(5) 0.5544(3) -0.1903(3)
H23 H -0.2379 0.5005 -0.1960
H24 H -0.3281 0.5733 -0.2171
H25 H -0.2418 0.5654 -0.1460
C23 C -0.1285(6) 0.6795(3) -0.2025(2)
H26 H -0.1387 0.6917 -0.1598
H27 H -0.2078 0.6981 -0.2335
H28 H -0.0454 0.7028 -0.2100
C24 C -0.1269(6) 0.5773(4) -0.2810(2)
H29 H -0.0454 0.5972 -0.2929
H30 H -0.2084 0.6013 -0.3064
H31 H -0.1321 0.5236 -0.2887
C25 C 0.3105(5) 0.4261(3) -0.1885(2)
C26 C 0.3455(8) 0.3560(4) -0.1453(3)
H32 H 0.3875 0.3181 -0.1672
H33 H 0.2617 0.3361 -0.1357
H34 H 0.4093 0.3699 -0.1059
C27 C 0.4377(8) 0.4632(5) -0.1968(5)
H35 H 0.4144 0.5031 -0.2280
H36 H 0.4963 0.4268 -0.2114
H37 H 0.4862 0.4842 -0.1563
C28 C 0.2305(7) 0.3944(4) -0.2525(3)
H38 H 0.2144 0.4341 -0.2842
H39 H 0.1429 0.3745 -0.2475
H40 H 0.2838 0.3547 -0.2663
C29 C -0.0372(4) 0.7643(2) 0.0201(2)
C30 C 0.0108(5) 0.7962(2) -0.0299(2)
H41 H 0.0690 0.7690 -0.0506
C31 C -0.0291(5) 0.8692(3) -0.0488(3)
H42 H 0.0007 0.8911 -0.0832
C32 C -0.1135(6) 0.9103(3) -0.0170(3)
H43 H -0.1372 0.9601 -0.0291
C33 C -0.1614(6) 0.8779(3) 0.0317(3)
H44 H -0.2185 0.9055 0.0527
C34 C -0.1257(5) 0.8039(3) 0.0502(2)
H45 H -0.1609 0.7812 0.0827
loop_
_geom_bond_atom_site_label_1
_geom_bond_atom_site_label_2
_geom_bond_site_symmetry_1
_geom_bond_site_symmetry_2
S1 C6 1_555 1_555
P1 Cl1 1_555 1_555
P2 Cl2 1_555 1_555
O1 P1 1_555 1_555
O2 P2 1_555 1_555
N1 P1 1_555 1_555
C1 O1 1_555 1_555
C2 C1 1_555 1_555
C3 C2 1_555 1_555
H1 C3 1_555 1_555
C4 C3 1_555 1_555
C5 C4 1_555 1_555
H2 C5 1_555 1_555
C6 C1 1_555 1_555
C7 C2 1_555 1_555
C8 C7 1_555 1_555
H3 C8 1_555 1_555
H4 C8 1_555 1_555
H5 C8 1_555 1_555
C9 C7 1_555 1_555
H6 C9 1_555 1_555
H7 C9 1_555 1_555
H8 C9 1_555 1_555
C10 C7 1_555 1_555
H9 C10 1_555 1_555
H10 C10 1_555 1_555
H11 C10 1_555 1_555
C11 C4 1_555 1_555
C12 C11 1_555 1_555
H12 C12 1_555 1_555
H13 C12 1_555 1_555
H14 C12 1_555 1_555
C13 C11 1_555 1_555
H15 C13 1_555 1_555
H16 C13 1_555 1_555
H17 C13 1_555 1_555
C14 C11 1_555 1_555
H18 C14 1_555 1_555
H19 C14 1_555 1_555
H20 C14 1_555 1_555
C15 O2 1_555 1_555
C16 S1 1_555 1_555
C17 C16 1_555 1_555
H21 C17 1_555 1_555
C18 C17 1_555 1_555
C19 C18 1_555 1_555
H22 C19 1_555 1_555
C20 C15 1_555 1_555
C21 C20 1_555 1_555
C22 C21 1_555 1_555
H23 C22 1_555 1_555
H24 C22 1_555 1_555
H25 C22 1_555 1_555
C23 C21 1_555 1_555
H26 C23 1_555 1_555
H27 C23 1_555 1_555
H28 C23 1_555 1_555
C24 C21 1_555 1_555
H29 C24 1_555 1_555
H30 C24 1_555 1_555
H31 C24 1_555 1_555
C25 C18 1_555 1_555
C26 C25 1_555 1_555
H32 C26 1_555 1_555
H33 C26 1_555 1_555
H34 C26 1_555 1_555
C27 C25 1_555 1_555
H35 C27 1_555 1_555
H36 C27 1_555 1_555
H37 C27 1_555 1_555
C28 C25 1_555 1_555
H38 C28 1_555 1_555
H39 C28 1_555 1_555
H40 C28 1_555 1_555
C29 N1 1_555 1_555
C30 C29 1_555 1_555
H41 C30 1_555 1_555
C31 C30 1_555 1_555
H42 C31 1_555 1_555
C32 C31 1_555 1_555
H43 C32 1_555 1_555
C33 C32 1_555 1_555
H44 C33 1_555 1_555
C34 C29 1_555 1_555
H45 C34 1_555 1_555
P2 N1 1_555 1_555
C5 C6 1_555 1_555
C15 C16 1_555 1_555
C19 C20 1_555 1_555
C33 C34 1_555 1_555

#END
