
#######################################################################
#
#                 Cambridge Crystallographic Data Centre
#                                CCDC 
#
#######################################################################
#
# If this CIF has been generated from an entry in the Cambridge 
# Structural Database, then it will include bibliographic, chemical, 
# crystal, experimental, refinement or atomic coordinate data resulting 
# from the CCDC's data processing and validation procedures.
#
#######################################################################

data_ICOMOF
_chemical_formula_moiety         'C21 H20 O4'
_chemical_name_systematic        
1,7-bis(4-methoxyphenyl)hepta-1,6-diene-3,5-dione
_symmetry_cell_setting           monoclinic
_symmetry_space_group_name_H-M   'C 2/c'
_symmetry_Int_Tables_number      15
_space_group_name_Hall           '-C 2yn'
loop_
_symmetry_equiv_pos_site_id
_symmetry_equiv_pos_as_xyz
1 x,y,z
2 -x,y,1/2-z
3 1/2+x,1/2+y,z
4 1/2-x,1/2+y,1/2-z
5 -x,-y,-z
6 x,-y,1/2+z
7 1/2-x,1/2-y,-z
8 1/2+x,1/2-y,1/2+z
_cell_length_a                   11.804(3)
_cell_length_b                   10.836(2)
_cell_length_c                   13.835(2)
_cell_angle_alpha                90
_cell_angle_beta                 100.440(19)
_cell_angle_gamma                90
_cell_volume                     1740.31
_cell_formula_units_Z            4
loop_
_atom_site_label
_atom_site_type_symbol
_atom_site_fract_x
_atom_site_fract_y
_atom_site_fract_z
O1 O 0.0534(3) 0.6832(4) -0.1627(3)
O2 O 0.3930(3) 0.3070(3) 0.3406(3)
C1 C 0.0000 0.4997(7) -0.2500
H1 H -0.0581 0.4463 -0.2308
C2 C 0.0526(4) 0.5636(5) -0.1656(3)
C3 C 0.1081(5) 0.4969(6) -0.0807(4)
H2 H 0.0994 0.4116 -0.0811
C4 C 0.1710(5) 0.5480(5) -0.0013(4)
H3 H 0.1797 0.6333 -0.0026
C5 C 0.2278(4) 0.4851(5) 0.0877(3)
C6 C 0.2214(5) 0.3565(5) 0.1015(4)
H4 H 0.1770 0.3085 0.0532
C7 C 0.2794(5) 0.3013(5) 0.1847(4)
H5 H 0.2767 0.2159 0.1909
C8 C 0.3420(4) 0.3704(5) 0.2599(3)
C9 C 0.3491(4) 0.4978(5) 0.2478(4)
H6 H 0.3920 0.5458 0.2969
C10 C 0.2924(5) 0.5521(5) 0.1630(4)
H7 H 0.2976 0.6372 0.1561
C11 C 0.4513(5) 0.3747(6) 0.4242(4)
H8 H 0.5183 0.4139 0.4080
H9 H 0.4741 0.3192 0.4783
H10 H 0.4004 0.4363 0.4422
H1A H 0.0581 0.4463 -0.2692
O1A O -0.0534(3) 0.6832(4) -0.3373(3)
O2A O -0.3930(3) 0.3070(3) -0.8406(3)
C2A C -0.0526(4) 0.5636(5) -0.3344(3)
C3A C -0.1081(5) 0.4969(6) -0.4193(4)
H2A H -0.0994 0.4116 -0.4189
C4A C -0.1710(5) 0.5480(5) -0.4987(4)
H3A H -0.1797 0.6333 -0.4974
C5A C -0.2278(4) 0.4851(5) -0.5877(3)
C6A C -0.2214(5) 0.3565(5) -0.6015(4)
H4A H -0.1770 0.3085 -0.5532
C7A C -0.2794(5) 0.3013(5) -0.6847(4)
H5A H -0.2767 0.2159 -0.6909
C8A C -0.3420(4) 0.3704(5) -0.7599(3)
C9A C -0.3491(4) 0.4978(5) -0.7478(4)
H6A H -0.3920 0.5458 -0.7969
C10A C -0.2924(5) 0.5521(5) -0.6630(4)
H7A H -0.2976 0.6372 -0.6561
C11A C -0.4513(5) 0.3747(6) -0.9242(4)
H8A H -0.5183 0.4139 -0.9080
H9A H -0.4741 0.3192 -0.9783
H10A H -0.4004 0.4363 -0.9422
H11? H -0.0581 0.4463 -0.2308
loop_
_geom_bond_atom_site_label_1
_geom_bond_atom_site_label_2
_geom_bond_site_symmetry_1
_geom_bond_site_symmetry_2
O1 C2 1_555 1_555
O2 C8 1_555 1_555
C1 H1 1_555 1_555
C2 C1 1_555 1_555
C3 C2 1_555 1_555
H2 C3 1_555 1_555
C4 C3 1_555 1_555
H3 C4 1_555 1_555
C5 C4 1_555 1_555
C6 C5 1_555 1_555
H4 C6 1_555 1_555
C7 C6 1_555 1_555
H5 C7 1_555 1_555
C8 C7 1_555 1_555
C9 C8 1_555 1_555
H6 C9 1_555 1_555
C10 C5 1_555 1_555
H7 C10 1_555 1_555
C11 O2 1_555 1_555
H8 C11 1_555 1_555
H9 C11 1_555 1_555
H10 C11 1_555 1_555
H1A C1 1_555 1_555
O1A C2A 1_555 1_555
O2A C8A 1_555 1_555
C2A C1 1_555 1_555
C3A C2A 1_555 1_555
H2A C3A 1_555 1_555
C4A C3A 1_555 1_555
H3A C4A 1_555 1_555
C5A C4A 1_555 1_555
C6A C5A 1_555 1_555
H4A C6A 1_555 1_555
C7A C6A 1_555 1_555
H5A C7A 1_555 1_555
C8A C7A 1_555 1_555
C9A C8A 1_555 1_555
H6A C9A 1_555 1_555
C10A C5A 1_555 1_555
H7A C10A 1_555 1_555
C11A O2A 1_555 1_555
H8A C11A 1_555 1_555
H9A C11A 1_555 1_555
H10A C11A 1_555 1_555
C9 C10 1_555 1_555
C9A C10A 1_555 1_555

#END
