
#######################################################################
#
#                 Cambridge Crystallographic Data Centre
#                                CCDC 
#
#######################################################################
#
# If this CIF has been generated from an entry in the Cambridge 
# Structural Database, then it will include bibliographic, chemical, 
# crystal, experimental, refinement or atomic coordinate data resulting 
# from the CCDC's data processing and validation procedures.
#
#######################################################################

data_ICOPIC
_chemical_formula_moiety         'C18 H16 F3 N1'
_chemical_name_systematic        
1-benzyl-2-phenyl-4-(trifluoromethyl)-2,5-dihydro-1H-pyrrole
_symmetry_cell_setting           orthorhombic
_symmetry_space_group_name_H-M   'P 21 21 21'
_symmetry_Int_Tables_number      19
_space_group_name_Hall           'P 2ac 2ab'
loop_
_symmetry_equiv_pos_site_id
_symmetry_equiv_pos_as_xyz
1 x,y,z
2 1/2-x,-y,1/2+z
3 -x,1/2+y,1/2-z
4 1/2+x,1/2-y,-z
_cell_length_a                   6.2485(12)
_cell_length_b                   9.5833(19)
_cell_length_c                   26.376(5)
_cell_angle_alpha                90
_cell_angle_beta                 90
_cell_angle_gamma                90
_cell_volume                     1579.43
_exptl_crystal_colour            colorless
_exptl_crystal_description       block
_cell_formula_units_Z            4
loop_
_atom_site_label
_atom_site_type_symbol
_atom_site_fract_x
_atom_site_fract_y
_atom_site_fract_z
F1 F 0.1255(4) 0.2027(3) 0.07156(9)
F2 F 0.3298(4) 0.3523(2) 0.10452(8)
F3 F 0.3972(4) 0.2754(2) 0.03102(8)
N1 N 0.5339(4) -0.0605(2) 0.15066(9)
C1 C 0.3943(8) -0.0724(4) 0.27994(16)
H1 H 0.4983 -0.0086 0.2899
C2 C 0.2193(10) -0.0989(6) 0.31147(18)
H2 H 0.2036 -0.0508 0.3419
C3 C 0.0737(9) -0.1948(7) 0.2973(2)
H3 H -0.0409 -0.2142 0.3186
C4 C 0.0901(8) -0.2632(5) 0.2529(2)
H4 H -0.0132 -0.3281 0.2435
C5 C 0.2612(7) -0.2362(4) 0.22144(15)
H5 H 0.2736 -0.2840 0.1909
C6 C 0.4132(6) -0.1398(4) 0.23458(13)
C7 C 0.6019(5) -0.1104(3) 0.20060(12)
H6 H 0.6925 -0.0405 0.2164
H7 H 0.6857 -0.1949 0.1966
C8 C 0.4144(5) 0.0702(3) 0.15133(11)
H8 H 0.4671 0.1329 0.1774
H9 H 0.2626 0.0542 0.1564
C9 C 0.4595(5) 0.1251(3) 0.09927(12)
C10 C 0.6255(5) 0.0622(3) 0.07921(12)
H10 H 0.6820 0.0826 0.0475
C11 C 0.7112(5) -0.0463(3) 0.11419(11)
H11 H 0.8372 -0.0093 0.1318
C12 C 0.7672(5) -0.1841(3) 0.09039(11)
C13 C 0.6189(7) -0.2561(4) 0.06304(13)
H12 H 0.4832 -0.2182 0.0585
C14 C 0.6661(8) -0.3850(4) 0.04180(15)
H13 H 0.5632 -0.4334 0.0234
C15 C 0.8662(9) -0.4396(4) 0.04836(15)
H14 H 0.8991 -0.5268 0.0350
C16 C 1.0179(7) -0.3668(5) 0.07451(16)
H15 H 1.1545 -0.4037 0.0784
C17 C 0.9691(5) -0.2391(3) 0.09502(13)
H16 H 1.0740 -0.1893 0.1123
C18 C 0.3304(7) 0.2363(4) 0.07664(15)
loop_
_geom_bond_atom_site_label_1
_geom_bond_atom_site_label_2
_geom_bond_site_symmetry_1
_geom_bond_site_symmetry_2
F1 C18 1_555 1_555
F2 C18 1_555 1_555
F3 C18 1_555 1_555
N1 C7 1_555 1_555
C1 H1 1_555 1_555
C2 C1 1_555 1_555
H2 C2 1_555 1_555
C3 C2 1_555 1_555
H3 C3 1_555 1_555
C4 C3 1_555 1_555
H4 C4 1_555 1_555
C5 C4 1_555 1_555
H5 C5 1_555 1_555
C6 C1 1_555 1_555
C7 C6 1_555 1_555
H6 C7 1_555 1_555
H7 C7 1_555 1_555
C8 N1 1_555 1_555
H8 C8 1_555 1_555
H9 C8 1_555 1_555
C9 C8 1_555 1_555
C10 C9 1_555 1_555
H10 C10 1_555 1_555
C11 N1 1_555 1_555
H11 C11 1_555 1_555
C12 C11 1_555 1_555
C13 C12 1_555 1_555
H12 C13 1_555 1_555
C14 C13 1_555 1_555
H13 C14 1_555 1_555
C15 C14 1_555 1_555
H14 C15 1_555 1_555
C16 C15 1_555 1_555
H15 C16 1_555 1_555
C17 C12 1_555 1_555
H16 C17 1_555 1_555
C18 C9 1_555 1_555
C5 C6 1_555 1_555
C10 C11 1_555 1_555
C16 C17 1_555 1_555

#END
