
#######################################################################
#
#                 Cambridge Crystallographic Data Centre
#                                CCDC 
#
#######################################################################
#
# If this CIF has been generated from an entry in the Cambridge 
# Structural Database, then it will include bibliographic, chemical, 
# crystal, experimental, refinement or atomic coordinate data resulting 
# from the CCDC's data processing and validation procedures.
#
#######################################################################

data_ICOPUM
_chemical_compound_source        'leaves and stems of Schisandra rubriflora'
_chemical_name_common            'Rubriflordilactone A'
_chemical_formula_moiety         'C28 H32 O6'
_chemical_name_systematic        
(3aR,5aS,9aR,10S,11S,14aR)-5,5,10-trimethyl-11-((2S)-4-methyl-5-oxo-2,5-dihydro-2-furanyl)-3,3a,5,5a,6,7,8,9,9a,10,11,14-dodecahydro-2H-cyclopenta(de)furo(3'',2'':2',3')furo(3',4':4,5)cyclohepta(g)chromen-2-one
_chemical_properties_biological  
'no inhibitory activity against K562; weak anti-HIV activity'
_symmetry_cell_setting           orthorhombic
_symmetry_space_group_name_H-M   'P 21 21 2'
_symmetry_Int_Tables_number      18
_space_group_name_Hall           'P 2 2ab'
loop_
_symmetry_equiv_pos_site_id
_symmetry_equiv_pos_as_xyz
1 x,y,z
2 -x,-y,z
3 1/2-x,1/2+y,-z
4 1/2+x,1/2-y,-z
_cell_length_a                   32.771(7)
_cell_length_b                   13.440(3)
_cell_length_c                   5.6210(11)
_cell_angle_alpha                90
_cell_angle_beta                 90
_cell_angle_gamma                90
_cell_volume                     2475.73
_exptl_crystal_colour            colorless
_exptl_crystal_description       block
_chemical_melting_point          195-196deg.C
_cell_formula_units_Z            4
loop_
_atom_site_label
_atom_site_type_symbol
_atom_site_fract_x
_atom_site_fract_y
_atom_site_fract_z
O1 O 0.38247(19) 0.5299(5) 0.4382(15)
O2 O 0.39260(12) 0.6903(4) 0.5224(8)
O3 O 0.47377(12) 0.6774(4) 0.8019(10)
O4 O 0.23505(10) 0.8779(3) 0.6111(7)
O5 O 0.17986(11) 0.7593(3) 0.3457(8)
O6 O 0.12041(14) 0.6798(4) 0.2965(10)
C1 C 0.43253(17) 0.6765(6) 0.8745(14)
H1 H 0.4297 0.6943 1.0427
C2 C 0.4142(2) 0.5757(7) 0.8228(19)
H2 H 0.3938 0.5579 0.9407
H3 H 0.4349 0.5244 0.8172
C3 C 0.3948(2) 0.5920(7) 0.5792(17)
C4 C 0.48397(18) 0.7787(6) 0.7285(11)
C5 C 0.44459(15) 0.8132(5) 0.6058(11)
H4 H 0.4468 0.7934 0.4385
C6 C 0.43785(17) 0.9240(6) 0.6078(14)
H5 H 0.4631 0.9561 0.5606
H6 H 0.4321 0.9443 0.7700
C7 C 0.40354(17) 0.9631(5) 0.4478(11)
H7 H 0.4044 1.0352 0.4535
H8 H 0.4099 0.9437 0.2857
C8 C 0.36007(16) 0.9312(5) 0.4986(10)
C9 C 0.34660(15) 0.8610(4) 0.6705(9)
C10 C 0.41036(15) 0.7506(5) 0.7139(10)
C11 C 0.30529(15) 0.8449(4) 0.7051(9)
H9 H 0.2969 0.8023 0.8258
C12 C 0.27604(15) 0.8912(5) 0.5634(9)
C13 C 0.28923(16) 0.9530(5) 0.3819(9)
C14 C 0.33000(17) 0.9761(5) 0.3584(9)
C15 C 0.33393(19) 1.0598(5) 0.1745(11)
H10 H 0.3423 1.0342 0.0208
H11 H 0.3532 1.1102 0.2263
C16 C 0.29004(19) 1.1011(5) 0.1661(11)
H12 H 0.2867 1.1542 0.2813
H13 H 0.2839 1.1269 0.0090
C17 C 0.26182(18) 1.0127(5) 0.2266(10)
H14 H 0.2570 0.9749 0.0801
C18 C 0.37546(16) 0.8062(5) 0.8352(10)
H15 H 0.3597 0.7587 0.9275
H16 H 0.3871 0.8538 0.9457
C19 C 0.22087(18) 1.0252(5) 0.3539(11)
H17 H 0.2009 1.0505 0.2393
C20 C 0.2227(2) 1.0969(6) 0.5646(12)
H18 H 0.1962 1.1020 0.6360
H19 H 0.2313 1.1613 0.5102
H20 H 0.2418 1.0724 0.6799
C21 C 0.20707(15) 0.9227(5) 0.4375(10)
H21 H 0.1810 0.9322 0.5195
C22 C 0.19956(16) 0.8458(5) 0.2407(10)
H22 H 0.2257 0.8259 0.1710
C23 C 0.17135(16) 0.8768(5) 0.0488(9)
H23 H 0.1758 0.9301 -0.0535
C24 C 0.13878(16) 0.8181(5) 0.0427(9)
C25 C 0.14346(15) 0.7443(5) 0.2367(11)
C26 C 0.10236(19) 0.8178(6) -0.1176(14)
H24 H 0.1046 0.8715 -0.2295
H25 H 0.0781 0.8261 -0.0244
H26 H 0.1011 0.7557 -0.2017
C27 C 0.52011(19) 0.7721(8) 0.5648(14)
H27 H 0.5435 0.7499 0.6528
H28 H 0.5256 0.8364 0.4979
H29 H 0.5144 0.7257 0.4394
C28 C 0.4957(2) 0.8389(8) 0.9434(12)
H30 H 0.5203 0.8125 1.0108
H31 H 0.4742 0.8357 1.0592
H32 H 0.5000 0.9069 0.8974
loop_
_geom_bond_atom_site_label_1
_geom_bond_atom_site_label_2
_geom_bond_site_symmetry_1
_geom_bond_site_symmetry_2
O1 C3 1_555 1_555
O2 C3 1_555 1_555
O3 C1 1_555 1_555
O4 C12 1_555 1_555
O5 C22 1_555 1_555
O6 C25 1_555 1_555
C1 H1 1_555 1_555
C2 C1 1_555 1_555
H2 C2 1_555 1_555
H3 C2 1_555 1_555
C3 C2 1_555 1_555
C4 O3 1_555 1_555
C5 C4 1_555 1_555
H4 C5 1_555 1_555
C6 C5 1_555 1_555
H5 C6 1_555 1_555
H6 C6 1_555 1_555
C7 C6 1_555 1_555
H7 C7 1_555 1_555
H8 C7 1_555 1_555
C8 C7 1_555 1_555
C9 C8 1_555 1_555
C10 O2 1_555 1_555
C11 C9 1_555 1_555
H9 C11 1_555 1_555
C12 C11 1_555 1_555
C13 C12 1_555 1_555
C14 C8 1_555 1_555
C15 C14 1_555 1_555
H10 C15 1_555 1_555
H11 C15 1_555 1_555
C16 C15 1_555 1_555
H12 C16 1_555 1_555
H13 C16 1_555 1_555
C17 C13 1_555 1_555
H14 C17 1_555 1_555
C18 C9 1_555 1_555
H15 C18 1_555 1_555
H16 C18 1_555 1_555
C19 C17 1_555 1_555
H17 C19 1_555 1_555
C20 C19 1_555 1_555
H18 C20 1_555 1_555
H19 C20 1_555 1_555
H20 C20 1_555 1_555
C21 O4 1_555 1_555
H21 C21 1_555 1_555
C22 C21 1_555 1_555
H22 C22 1_555 1_555
C23 C22 1_555 1_555
H23 C23 1_555 1_555
C24 C23 1_555 1_555
C25 O5 1_555 1_555
C26 C24 1_555 1_555
H24 C26 1_555 1_555
H25 C26 1_555 1_555
H26 C26 1_555 1_555
C27 C4 1_555 1_555
H27 C27 1_555 1_555
H28 C27 1_555 1_555
H29 C27 1_555 1_555
C28 C4 1_555 1_555
H30 C28 1_555 1_555
H31 C28 1_555 1_555
H32 C28 1_555 1_555
C1 C10 1_555 1_555
C5 C10 1_555 1_555
C10 C18 1_555 1_555
C13 C14 1_555 1_555
C16 C17 1_555 1_555
C19 C21 1_555 1_555
C24 C25 1_555 1_555

#END
