
#######################################################################
#
#                 Cambridge Crystallographic Data Centre
#                                CCDC 
#
#######################################################################
#
# If this CIF has been generated from an entry in the Cambridge 
# Structural Database, then it will include bibliographic, chemical, 
# crystal, experimental, refinement or atomic coordinate data resulting 
# from the CCDC's data processing and validation procedures.
#
#######################################################################

data_ICOWUS
_chemical_formula_moiety         'C23 H23 N1 O4'
_chemical_name_systematic        
3-Ethoxy-4-((2'S)-2'-(diphenylhydroxymethyl)pyrrolidino)-3-cyclobutene-1,2-dione
_symmetry_cell_setting           orthorhombic
_symmetry_space_group_name_H-M   'P 21 21 21'
_symmetry_Int_Tables_number      19
_space_group_name_Hall           'P 2ac 2ab'
loop_
_symmetry_equiv_pos_site_id
_symmetry_equiv_pos_as_xyz
1 x,y,z
2 1/2-x,-y,1/2+z
3 -x,1/2+y,1/2-z
4 1/2+x,1/2-y,-z
_cell_length_a                   10.6264(18)
_cell_length_b                   12.260(2)
_cell_length_c                   14.467(2)
_cell_angle_alpha                90
_cell_angle_beta                 90
_cell_angle_gamma                90
_cell_volume                     1884.76
_exptl_crystal_colour            colorless
_exptl_crystal_description       block
_cell_formula_units_Z            4
loop_
_atom_site_label
_atom_site_type_symbol
_atom_site_fract_x
_atom_site_fract_y
_atom_site_fract_z
O1 O 0.47181(6) 0.15717(6) 0.08693(5)
O2 O 0.44074(8) -0.15936(7) -0.15310(6)
O3 O 0.15288(9) -0.15052(7) -0.23633(6)
O4 O 0.14419(7) 0.11045(7) -0.17296(6)
N1 N 0.42237(7) 0.09930(6) -0.10095(6)
C1 C 0.68289(10) 0.08012(9) 0.17535(7)
H1 H 0.6366 0.1388 0.1977
C2 C 0.79395(11) 0.05080(11) 0.21869(8)
H2 H 0.8218 0.0901 0.2697
C3 C 0.86273(12) -0.03529(13) 0.18702(9)
H3 H 0.9360 -0.0560 0.2174
C4 C 0.82350(11) -0.09100(11) 0.11036(9)
H4 H 0.8715 -0.1487 0.0880
C5 C 0.71301(10) -0.06242(10) 0.06567(8)
H5 H 0.6877 -0.1004 0.0133
C6 C 0.63990(9) 0.02308(8) 0.09907(7)
C7 C 0.51438(8) 0.05453(7) 0.05324(6)
C8 C 0.41010(9) -0.03116(8) 0.06952(7)
C9 C 0.43206(11) -0.14159(9) 0.08421(8)
H6 H 0.5142 -0.1677 0.0844
C10 C 0.33361(12) -0.21287(10) 0.09848(9)
H7 H 0.3504 -0.2864 0.1085
C11 C 0.21120(12) -0.17704(11) 0.09810(9)
H8 H 0.1453 -0.2257 0.1076
C12 C 0.18738(10) -0.06856(12) 0.08354(8)
H9 H 0.1048 -0.0435 0.0828
C13 C 0.28548(10) 0.00405(10) 0.06988(8)
H10 H 0.2678 0.0776 0.0608
C14 C 0.53894(8) 0.07206(9) -0.05174(7)
H11 H 0.5772 0.0066 -0.0786
C15 C 0.62141(10) 0.17250(10) -0.07188(9)
H12 H 0.6629 0.1968 -0.0158
H13 H 0.6853 0.1546 -0.1173
C16 C 0.53661(12) 0.26031(10) -0.10815(11)
H14 H 0.5632 0.2819 -0.1696
H15 H 0.5404 0.3237 -0.0682
C17 C 0.40419(11) 0.21665(9) -0.11126(9)
H16 H 0.3539 0.2459 -0.0611
H17 H 0.3639 0.2338 -0.1696
C18 C 0.34637(9) 0.02491(8) -0.13720(6)
C19 C 0.35779(10) -0.09204(9) -0.16052(7)
C20 C 0.22466(11) -0.08706(10) -0.19875(7)
C21 C 0.22396(10) 0.02728(9) -0.17193(8)
C22 C 0.01319(10) 0.08277(12) -0.18989(9)
H18 H 0.0085 0.0300 -0.2397
H19 H -0.0319 0.1477 -0.2092
C23 C -0.04741(14) 0.03737(16) -0.10733(11)
H20 H -0.1335 0.0202 -0.1211
H21 H -0.0443 0.0899 -0.0582
H22 H -0.0040 -0.0277 -0.0887
loop_
_geom_bond_atom_site_label_1
_geom_bond_atom_site_label_2
_geom_bond_site_symmetry_1
_geom_bond_site_symmetry_2
O1 C7 1_555 1_555
O2 C19 1_555 1_555
O3 C20 1_555 1_555
O4 C21 1_555 1_555
N1 C14 1_555 1_555
C1 H1 1_555 1_555
C2 C1 1_555 1_555
H2 C2 1_555 1_555
C3 C2 1_555 1_555
H3 C3 1_555 1_555
C4 C3 1_555 1_555
H4 C4 1_555 1_555
C5 C4 1_555 1_555
H5 C5 1_555 1_555
C6 C1 1_555 1_555
C7 C6 1_555 1_555
C8 C7 1_555 1_555
C9 C8 1_555 1_555
H6 C9 1_555 1_555
C10 C9 1_555 1_555
H7 C10 1_555 1_555
C11 C10 1_555 1_555
H8 C11 1_555 1_555
C12 C11 1_555 1_555
H9 C12 1_555 1_555
C13 C8 1_555 1_555
H10 C13 1_555 1_555
C14 C7 1_555 1_555
H11 C14 1_555 1_555
C15 C14 1_555 1_555
H12 C15 1_555 1_555
H13 C15 1_555 1_555
C16 C15 1_555 1_555
H14 C16 1_555 1_555
H15 C16 1_555 1_555
C17 N1 1_555 1_555
H16 C17 1_555 1_555
H17 C17 1_555 1_555
C18 N1 1_555 1_555
C19 C18 1_555 1_555
C20 C19 1_555 1_555
C21 C18 1_555 1_555
C22 O4 1_555 1_555
H18 C22 1_555 1_555
H19 C22 1_555 1_555
C23 C22 1_555 1_555
H20 C23 1_555 1_555
H21 C23 1_555 1_555
H22 C23 1_555 1_555
C5 C6 1_555 1_555
C12 C13 1_555 1_555
C16 C17 1_555 1_555
C20 C21 1_555 1_555

#END
