
#######################################################################
#
#                 Cambridge Crystallographic Data Centre
#                                CCDC 
#
#######################################################################
#
# If this CIF has been generated from an entry in the Cambridge 
# Structural Database, then it will include bibliographic, chemical, 
# crystal, experimental, refinement or atomic coordinate data resulting 
# from the CCDC's data processing and validation procedures.
#
#######################################################################

data_ICOXEF
_chemical_formula_moiety         'C13 H19 N5 O5'
_chemical_name_systematic        
'Ethyl 2-(3-(2-furylmethyl)-4-(nitroimino)-1,3,5-triazinan-1-yl)propanoate'
_symmetry_cell_setting           monoclinic
_symmetry_space_group_name_H-M   'P 21'
_symmetry_Int_Tables_number      4
_space_group_name_Hall           'P 2yb'
loop_
_symmetry_equiv_pos_site_id
_symmetry_equiv_pos_as_xyz
1 x,y,z
2 -x,1/2+y,-z
_cell_length_a                   8.7076(17)
_cell_length_b                   8.3211(17)
_cell_length_c                   10.642(2)
_cell_angle_alpha                90
_cell_angle_beta                 92.370(3)
_cell_angle_gamma                90
_cell_volume                     770.426
_exptl_crystal_colour            colorless
_exptl_crystal_description       block
_cell_formula_units_Z            2
loop_
_atom_site_label
_atom_site_type_symbol
_atom_site_fract_x
_atom_site_fract_y
_atom_site_fract_z
C1 C 0.9227(3) 0.1828(3) 0.1604(2)
C2 C 0.9489(4) 0.3119(5) 0.0943(3)
H1 H 0.9974 0.4055 0.1226
C3 C 0.8882(4) 0.2801(6) -0.0304(3)
H2 H 0.8939 0.3478 -0.0996
C4 C 0.8254(4) 0.1432(6) -0.0292(3)
H3 H 0.7731 0.0958 -0.0976
C5 C 0.9695(3) 0.1413(4) 0.2914(2)
H4 H 1.0510 0.0618 0.2908
H5 H 1.0104 0.2365 0.3335
C6 C 0.7224(3) 0.1960(3) 0.3910(2)
H6 H 0.7547 0.2568 0.4653
H7 H 0.7095 0.2707 0.3214
C7 C 0.6077(3) 0.0004(3) 0.51099(19)
H8 H 0.6474 0.0542 0.5864
H9 H 0.5132 -0.0540 0.5309
C8 C 0.8343(3) -0.0755(3) 0.39915(18)
C9 C 0.5086(2) 0.0495(3) 0.29591(18)
H10 H 0.5893 -0.0078 0.2526
C10 C 0.3785(3) -0.0677(3) 0.3190(3)
H11 H 0.4195 -0.1626 0.3593
H12 H 0.3283 -0.0964 0.2402
H13 H 0.3057 -0.0181 0.3722
C11 C 0.4463(3) 0.1829(3) 0.2102(2)
C12 C 0.3714(4) 0.2379(4) -0.0030(3)
H14 H 0.4361 0.3317 -0.0126
H15 H 0.2708 0.2734 0.0214
C13 C 0.3581(5) 0.1477(5) -0.1217(3)
H16 H 0.4586 0.1166 -0.1465
H17 H 0.3104 0.2143 -0.1859
H18 H 0.2966 0.0535 -0.1104
N1 N 0.8422(2) 0.0778(2) 0.36252(16)
N2 N 0.5762(2) 0.1182(2) 0.41245(14)
N3 N 0.7187(2) -0.1161(3) 0.47065(17)
H19 H 0.709(3) -0.214(4) 0.492(3)
N4 N 0.9469(2) -0.1718(3) 0.35711(18)
N5 N 0.9390(3) -0.3305(3) 0.3793(2)
O1 O 0.8455(3) 0.0743(3) 0.08781(18)
O2 O 1.0500(3) -0.4093(3) 0.34315(19)
O3 O 0.8300(3) -0.3978(2) 0.4309(2)
O4 O 0.4394(2) 0.1305(2) 0.09209(14)
O5 O 0.4037(3) 0.3106(2) 0.24152(19)
loop_
_geom_bond_atom_site_label_1
_geom_bond_atom_site_label_2
_geom_bond_site_symmetry_1
_geom_bond_site_symmetry_2
C1 C2 1_555 1_555
C2 H1 1_555 1_555
C3 C2 1_555 1_555
H2 C3 1_555 1_555
C4 C3 1_555 1_555
H3 C4 1_555 1_555
C5 C1 1_555 1_555
H4 C5 1_555 1_555
H5 C5 1_555 1_555
C6 H6 1_555 1_555
H7 C6 1_555 1_555
C7 H8 1_555 1_555
H9 C7 1_555 1_555
C8 N1 1_555 1_555
C9 H10 1_555 1_555
C10 C9 1_555 1_555
H11 C10 1_555 1_555
H12 C10 1_555 1_555
H13 C10 1_555 1_555
C11 C9 1_555 1_555
C12 H14 1_555 1_555
H15 C12 1_555 1_555
C13 C12 1_555 1_555
H16 C13 1_555 1_555
H17 C13 1_555 1_555
H18 C13 1_555 1_555
N1 C5 1_555 1_555
N2 C6 1_555 1_555
N3 C7 1_555 1_555
H19 N3 1_555 1_555
N4 C8 1_555 1_555
N5 N4 1_555 1_555
O1 C1 1_555 1_555
O2 N5 1_555 1_555
O3 N5 1_555 1_555
O4 C11 1_555 1_555
O5 C11 1_555 1_555
C4 O1 1_555 1_555
C6 N1 1_555 1_555
C7 N2 1_555 1_555
C8 N3 1_555 1_555
C9 N2 1_555 1_555
C12 O4 1_555 1_555

#END
