
#######################################################################
#
#                 Cambridge Crystallographic Data Centre
#                                CCDC 
#
#######################################################################
#
# If this CIF has been generated from an entry in the Cambridge 
# Structural Database, then it will include bibliographic, chemical, 
# crystal, experimental, refinement or atomic coordinate data resulting 
# from the CCDC's data processing and validation procedures.
#
#######################################################################

data_ICUHOF
_chemical_formula_moiety         'C35 H59 N1 O11'
_chemical_name_systematic        
'4-(Dimethylamino)-2-((5-ethyl-6,7-dihydroxy-2,6,8,10,12,18-hexamethyl-15-methylene-3,9-dioxo-4,13,17-trioxabicyclo[10.5.2]nonadec-19-yl)oxy)-6-methyltetrahydro-2H-pyran-3-yl acetate'
_symmetry_cell_setting           orthorhombic
_symmetry_space_group_name_H-M   'P 21 21 21'
_symmetry_Int_Tables_number      19
_space_group_name_Hall           'P 2ac 2ab'
loop_
_symmetry_equiv_pos_site_id
_symmetry_equiv_pos_as_xyz
1 x,y,z
2 1/2-x,-y,1/2+z
3 -x,1/2+y,1/2-z
4 1/2+x,1/2-y,-z
_cell_length_a                   14.5091(9)
_cell_length_b                   16.2251(9)
_cell_length_c                   18.3509(11)
_cell_angle_alpha                90
_cell_angle_beta                 90
_cell_angle_gamma                90
_cell_volume                     4320.01
_cell_formula_units_Z            4
loop_
_atom_site_label
_atom_site_type_symbol
_atom_site_fract_x
_atom_site_fract_y
_atom_site_fract_z
O1 O 0.3744(1) 0.8394(1) 0.1643(1)
O2 O 0.3912(1) 0.8435(1) 0.2859(1)
O3 O 0.5379(1) 0.6578(1) 0.2772(1)
O4 O 0.6733(1) 0.7483(1) 0.1788(1)
O5 O 0.7483(1) 0.9111(1) 0.1258(1)
O6 O 0.5752(1) 0.9637(1) 0.1745(1)
O7 O 0.4511(1) 1.0370(1) 0.0908(1)
O8 O 0.6252(1) 0.5614(1) 0.0738(1)
O9 O 0.7462(1) 0.4725(1) 0.0867(1)
O10 O 0.5171(1) 0.4337(1) 0.0139(1)
O11 O 0.5155(1) 0.4648(1) -0.1055(1)
N1 N 0.6082(1) 0.2945(1) -0.0414(1)
C1 C 0.3844(1) 0.8049(1) 0.2302(1)
C2 C 0.3919(1) 0.7118(1) 0.2241(1)
C3 C 0.4970(1) 0.6926(1) 0.2134(1)
C4 C 0.5156(1) 0.6344(1) 0.1492(1)
C5 C 0.6185(1) 0.6117(1) 0.1392(1)
C6 C 0.6904(1) 0.6825(1) 0.1284(1)
C7 C 0.6780(1) 0.7239(1) 0.0539(1)
C8 C 0.7408(1) 0.7994(1) 0.0420(1)
C9 C 0.7047(1) 0.8763(1) 0.0787(1)
C10 C 0.6141(1) 0.9135(1) 0.0523(1)
C11 C 0.5443(1) 0.9150(1) 0.1150(1)
C12 C 0.4474(1) 0.9489(1) 0.0961(1)
C13 C 0.3797(1) 0.9295(1) 0.1583(1)
C14 C 0.5670(1) 0.7173(1) 0.3304(1)
C15 C 0.6388(1) 0.7764(1) 0.3028(1)
C16 C 0.7091(1) 0.7422(1) 0.2513(1)
C17 C 0.3471(1) 0.6692(1) 0.2892(1)
C18 C 0.4593(1) 0.5548(1) 0.1564(1)
C19 C 0.7876(1) 0.6486(1) 0.1364(1)
C20 C 0.7546(2) 0.8155(1) -0.0402(1)
C21 C 0.6349(1) 0.9986(1) 0.0189(1)
C22 C 0.6407(1) 0.8543(1) 0.3251(1)
C23 C 0.4122(1) 0.9170(1) 0.0237(1)
C24 C 0.2824(1) 0.9623(1) 0.1464(1)
C25 C 0.2200(1) 0.9531(1) 0.2117(1)
C26 C 0.6484(1) 0.4781(1) 0.0826(1)
C27 C 0.6162(1) 0.4318(1) 0.0155(1)
C28 C 0.6461(1) 0.3418(1) 0.0193(1)
C29 C 0.7509(1) 0.3392(1) 0.0295(1)
C30 C 0.7785(1) 0.3891(1) 0.0954(1)
C31 C 0.4760(1) 0.4444(1) -0.0515(1)
C32 C 0.3752(2) 0.4288(2) -0.0459(1)
C33 C 0.6054(2) 0.2060(1) -0.0248(1)
C34 C 0.6534(1) 0.3090(1) -0.1108(1)
C35 C 0.8812(1) 0.3941(1) 0.1057(1)
H1 H 0.6300(20) 0.9482(17) 0.1775(14)
H2 H 0.4742(15) 1.0512(13) 0.1272(12)
H3 H 0.3573(12) 0.6923(11) 0.1786(9)
H4 H 0.5247(11) 0.7443(10) 0.1994(9)
H5 H 0.4954(9) 0.6616(8) 0.1083(7)
H6 H 0.6387(10) 0.5796(9) 0.1814(8)
H7 H 0.6144(12) 0.7390(10) 0.0456(9)
H8 H 0.6890(13) 0.6790(12) 0.0176(10)
H9 H 0.8008(14) 0.7892(11) 0.0655(9)
H10 H 0.5912(11) 0.8804(10) 0.0134(8)
H11 H 0.5334(10) 0.8585(9) 0.1313(7)
H12 H 0.4018(12) 0.9434(11) 0.2041(10)
H13 H 0.5136(15) 0.7440(12) 0.3462(10)
H14 H 0.5955(12) 0.6778(11) 0.3739(9)
H15 H 0.7624(14) 0.7745(12) 0.2519(9)
H16 H 0.7251(13) 0.6781(12) 0.2607(9)
H17 H 0.3709 0.6933 0.3345
H18 H 0.3615 0.6102 0.2880
H19 H 0.2801 0.6768 0.2870
H20 H 0.4800 0.5242 0.1995
H21 H 0.4680 0.5208 0.1128
H22 H 0.3938 0.5686 0.1617
H23 H 0.8317 0.6943 0.1377
H24 H 0.8017 0.6127 0.0949
H25 H 0.7921 0.6168 0.1817
H26 H 0.6949 0.8270 -0.0629
H27 H 0.7822 0.7667 -0.0630
H28 H 0.7956 0.8629 -0.0469
H29 H 0.6575 1.0357 0.0570
H30 H 0.5785 1.0213 -0.0025
H31 H 0.6820 0.9928 -0.0190
H32 H 0.3513 0.9406 0.0138
H33 H 0.4075 0.8568 0.0256
H34 H 0.4550 0.9329 -0.0151
H35 H 0.2872(14) 1.0239(13) 0.1332(10)
H36 H 0.2533(13) 0.9341(12) 0.1019(10)
H37 H 0.1603(16) 0.9709(13) 0.1991(11)
H38 H 0.2100(13) 0.8866(13) 0.2229(10)
H39 H 0.2508(16) 0.9825(13) 0.2541(11)
H40 H 0.6208(11) 0.4550(9) 0.1280(8)
H41 H 0.6415(10) 0.4568(9) -0.0280(8)
H42 H 0.6214(11) 0.3212(10) 0.0606(9)
H43 H 0.7834(10) 0.3647(10) -0.0104(8)
H44 H 0.7716(19) 0.2978(15) 0.0343(13)
H45 H 0.7482(11) 0.3641(10) 0.1397(8)
H46 H 0.3434 0.4563 -0.0862
H47 H 0.3523 0.4505 0.0006
H48 H 0.3636 0.3694 -0.0482
H49 H 0.6684 0.1853 -0.0187
H50 H 0.5754 0.1764 -0.0648
H51 H 0.5707 0.1971 0.0204
H52 H 0.6607 0.3685 -0.1184
H53 H 0.6158 0.2858 -0.1502
H54 H 0.7141 0.2826 -0.1107
H55 H 0.9095 0.4182 0.0622
H56 H 0.9061 0.3387 0.1137
H57 H 0.8950 0.4288 0.1481
H58 H 0.5970(17) 0.8709(14) 0.3579(12)
H59 H 0.6935(15) 0.8886(13) 0.3171(11)
loop_
_geom_bond_atom_site_label_1
_geom_bond_atom_site_label_2
_geom_bond_site_symmetry_1
_geom_bond_site_symmetry_2
O1 C1 1_555 1_555
O2 C1 1_555 1_555
O3 C3 1_555 1_555
O4 C6 1_555 1_555
O5 C9 1_555 1_555
O6 C11 1_555 1_555
O7 C12 1_555 1_555
O8 C5 1_555 1_555
O9 C26 1_555 1_555
O10 C27 1_555 1_555
O11 C31 1_555 1_555
N1 C28 1_555 1_555
C1 C2 1_555 1_555
C2 C3 1_555 1_555
C3 C4 1_555 1_555
C4 C5 1_555 1_555
C5 C6 1_555 1_555
C6 C7 1_555 1_555
C7 C8 1_555 1_555
C8 C9 1_555 1_555
C9 C10 1_555 1_555
C10 C11 1_555 1_555
C11 C12 1_555 1_555
C12 C13 1_555 1_555
C13 O1 1_555 1_555
C14 O3 1_555 1_555
C15 C14 1_555 1_555
C16 O4 1_555 1_555
C17 C2 1_555 1_555
C18 C4 1_555 1_555
C19 C6 1_555 1_555
C20 C8 1_555 1_555
C21 C10 1_555 1_555
C22 C15 1_555 1_555
C23 C12 1_555 1_555
C24 C13 1_555 1_555
C25 C24 1_555 1_555
C26 O8 1_555 1_555
C27 C26 1_555 1_555
C28 C27 1_555 1_555
C29 C28 1_555 1_555
C30 O9 1_555 1_555
C31 O10 1_555 1_555
C32 C31 1_555 1_555
C33 N1 1_555 1_555
C34 N1 1_555 1_555
C35 C30 1_555 1_555
H1 O6 1_555 1_555
H2 O7 1_555 1_555
H3 C2 1_555 1_555
H4 C3 1_555 1_555
H5 C4 1_555 1_555
H6 C5 1_555 1_555
H7 C7 1_555 1_555
H8 C7 1_555 1_555
H9 C8 1_555 1_555
H10 C10 1_555 1_555
H11 C11 1_555 1_555
H12 C13 1_555 1_555
H13 C14 1_555 1_555
H14 C14 1_555 1_555
H15 C16 1_555 1_555
H16 C16 1_555 1_555
H17 C17 1_555 1_555
H18 C17 1_555 1_555
H19 C17 1_555 1_555
H20 C18 1_555 1_555
H21 C18 1_555 1_555
H22 C18 1_555 1_555
H23 C19 1_555 1_555
H24 C19 1_555 1_555
H25 C19 1_555 1_555
H26 C20 1_555 1_555
H27 C20 1_555 1_555
H28 C20 1_555 1_555
H29 C21 1_555 1_555
H30 C21 1_555 1_555
H31 C21 1_555 1_555
H32 C23 1_555 1_555
H33 C23 1_555 1_555
H34 C23 1_555 1_555
H35 C24 1_555 1_555
H36 C24 1_555 1_555
H37 C25 1_555 1_555
H38 C25 1_555 1_555
H39 C25 1_555 1_555
H40 C26 1_555 1_555
H41 C27 1_555 1_555
H42 C28 1_555 1_555
H43 C29 1_555 1_555
H44 C29 1_555 1_555
H45 C30 1_555 1_555
H46 C32 1_555 1_555
H47 C32 1_555 1_555
H48 C32 1_555 1_555
H49 C33 1_555 1_555
H50 C33 1_555 1_555
H51 C33 1_555 1_555
H52 C34 1_555 1_555
H53 C34 1_555 1_555
H54 C34 1_555 1_555
H55 C35 1_555 1_555
H56 C35 1_555 1_555
H57 C35 1_555 1_555
H58 C22 1_555 1_555
H59 C22 1_555 1_555
C15 C16 1_555 1_555
C29 C30 1_555 1_555

#END
