
#######################################################################
#
#                 Cambridge Crystallographic Data Centre
#                                CCDC 
#
#######################################################################
#
# If this CIF has been generated from an entry in the Cambridge 
# Structural Database, then it will include bibliographic, chemical, 
# crystal, experimental, refinement or atomic coordinate data resulting 
# from the CCDC's data processing and validation procedures.
#
#######################################################################

data_ICUHUL
_chemical_formula_moiety         'C34 H56 N2 O10'
_chemical_name_systematic        
22-((4-(Dimethylamino)-3-hydroxy-6-methyltetrahydro-2H-pyran-2-yl)oxy)-5-ethyl-2,6,11,13,15,21-hexamethyl-18-methylene-4,7,16,20-tetraoxa-9-azatricyclo[13.5.2.0^6,10^]docosane-3,8,12-trione
_chemical_properties_biological  'antibacterial activity to H. influenzae'
_symmetry_cell_setting           orthorhombic
_symmetry_space_group_name_H-M   'P 21 21 21'
_symmetry_Int_Tables_number      19
_space_group_name_Hall           'P 2ac 2ab'
loop_
_symmetry_equiv_pos_site_id
_symmetry_equiv_pos_as_xyz
1 x,y,z
2 1/2-x,-y,1/2+z
3 -x,1/2+y,1/2-z
4 1/2+x,1/2-y,-z
_cell_length_a                   13.4373(7)
_cell_length_b                   13.7697(7)
_cell_length_c                   22.0065(11)
_cell_angle_alpha                90
_cell_angle_beta                 90
_cell_angle_gamma                90
_cell_volume                     4071.81
_cell_formula_units_Z            4
loop_
_atom_site_label
_atom_site_type_symbol
_atom_site_fract_x
_atom_site_fract_y
_atom_site_fract_z
O1 O 0.1829(1) 0.8710(1) 0.3493(1)
O2 O 0.3333(1) 0.9007(1) 0.3890(1)
O3 O 0.4186(1) 0.7318(1) 0.2693(1)
O4 O 0.2824(1) 0.8145(1) 0.1680(1)
O5 O 0.1535(1) 0.9669(1) 0.1044(1)
O6 O 0.0531(1) 1.0902(1) 0.3015(1)
O7 O 0.1025(1) 1.2229(1) 0.2499(1)
O8 O 0.2528(1) 0.5482(1) 0.1596(1)
O9 O 0.3575(1) 0.5026(1) 0.0844(1)
O10 O 0.2469(1) 0.3533(1) 0.2022(1)
N1 N 0.1550(1) 1.0688(1) 0.2236(1)
N2 N 0.2732(1) 0.2075(1) 0.1065(1)
C1 C 0.2747(1) 0.8447(1) 0.3672(1)
C2 C 0.2946(1) 0.7388(1) 0.3529(1)
C3 C 0.3142(1) 0.7315(1) 0.2828(1)
C4 C 0.2696(1) 0.6422(1) 0.2525(1)
C5 C 0.2943(1) 0.6373(1) 0.1834(1)
C6 C 0.2550(1) 0.7216(1) 0.1424(1)
C7 C 0.1407(1) 0.7242(1) 0.1424(1)
C8 C 0.0927(1) 0.8037(1) 0.1032(1)
C9 C 0.1054(1) 0.9045(1) 0.1299(1)
C10 C 0.0492(1) 0.9299(1) 0.1888(1)
C11 C 0.1216(1) 0.9699(1) 0.2370(1)
C12 C 0.0774(1) 0.9859(1) 0.3017(1)
C13 C 0.1574(1) 0.9741(1) 0.3512(1)
C14 C 0.4622(2) 0.8260(1) 0.2666(1)
C15 C 0.4162(1) 0.8928(1) 0.2205(1)
C16 C 0.3834(1) 0.8479(1) 0.1614(1)
C17 C 0.3781(2) 0.6988(2) 0.3928(1)
C18 C 0.3020(2) 0.5481(1) 0.2839(1)
C19 C 0.2958(2) 0.7114(1) 0.0777(1)
C20 C -0.0183(1) 0.7814(1) 0.0939(1)
C21 C -0.0341(2) 1.0016(2) 0.1716(1)
C22 C 0.4061(2) 0.9863(2) 0.2324(1)
C23 C -0.0154(1) 0.9291(2) 0.3169(1)
C24 C 0.1206(2) 1.0036(1) 0.4147(1)
C25 C 0.1969(2) 1.0480(2) 0.4565(1)
C26 C 0.3208(1) 0.4760(1) 0.1425(1)
C27 C 0.2663(1) 0.3787(1) 0.1407(1)
C28 C 0.3282(1) 0.3006(1) 0.1092(1)
C29 C 0.3698(2) 0.3383(1) 0.0488(1)
C30 C 0.4264(1) 0.4324(1) 0.0598(1)
C31 C 0.3396(2) 0.1288(1) 0.0877(1)
C32 C 0.1858(2) 0.2087(2) 0.0673(1)
C33 C 0.4678(2) 0.4772(2) 0.0026(1)
C34 C 0.1047(1) 1.1352(1) 0.2565(1)
H1 H 0.1811(12) 0.9253(11) 0.2382(6)
H2 H 0.1236(13) 0.8076(12) 0.0650(8)
H3 H 0.2809(13) 0.7678(14) 0.0559(8)
H4 H 0.2840(11) 0.7874(11) 0.2659(6)
H5 H 0.3687(13) 0.6396(12) 0.1776(7)
H6 H 0.1198(12) 0.6604(12) 0.1247(7)
H7 H 0.3734(13) 0.4734(12) 0.1738(7)
H8 H -0.0563(14) 0.7769(13) 0.1362(8)
H9 H 0.3127(13) 0.3565(13) 0.0194(8)
H10 H 0.4796(13) 0.4195(13) 0.0917(7)
H11 H 0.1972(14) 0.6521(12) 0.2546(7)
H12 H 0.1185(12) 0.7343(12) 0.1830(7)
H13 H 0.3680(18) 0.6915(18) 0.4346(12)
H14 H 0.3698(15) 0.7014(13) 0.0790(8)
H15 H 0.2780(13) 0.4920(13) 0.2624(8)
H16 H 0.0840(17) 0.9470(18) 0.4357(10)
H17 H -0.0707(17) 0.9380(16) 0.2896(10)
H18 H 0.4267(13) 0.7965(13) 0.1493(7)
H19 H 0.3839(14) 0.2867(14) 0.1369(8)
H20 H 0.2836(13) 0.5463(13) 0.3274(8)
H21 H 0.2328(14) 0.7057(14) 0.3613(8)
H22 H 0.3867(13) 0.8974(13) 0.1266(8)
H23 H 0.2583(16) 0.6590(17) 0.0588(9)
H24 H -0.0234(14) 0.7257(15) 0.0688(8)
H25 H 0.1771(14) 1.0835(13) 0.1881(8)
H26 H -0.0457(16) 0.9494(15) 0.3582(10)
H27 H -0.0828(17) 0.9687(17) 0.1461(10)
H28 H 0.2219(13) 1.0113(12) 0.3362(7)
H29 H 0.1397(18) 0.2578(18) 0.0741(10)
H30 H -0.0665(17) 1.0197(15) 0.2069(10)
H31 H -0.0029(15) 1.0583(17) 0.1481(10)
H32 H 0.2000(30) 0.2210(20) 0.0223(15)
H33 H 0.2018(14) 0.3901(13) 0.1183(8)
H34 H 0.0236(12) 0.8729(12) 0.2062(7)
H35 H -0.0045(13) 0.8598(15) 0.3184(8)
H36 H 0.1491(15) 0.1435(17) 0.0727(9)
H37 H 0.4030(20) 0.1280(20) 0.1249(13)
H38 H 0.0630(17) 1.0470(17) 0.4082(9)
H39 H 0.3629(18) 0.1372(17) 0.0410(11)
H40 H 0.3044(17) 0.0677(17) 0.0886(9)
H41 H 0.4132(14) 0.2948(15) 0.0323(9)
H42 H 0.4040(20) 0.6360(20) 0.3764(12)
H43 H 0.4340(20) 0.7417(18) 0.3907(10)
H44 H 0.3706(18) 0.5423(16) 0.2833(9)
H45 H 0.3780(14) 1.0270(14) 0.2044(9)
H46 H 0.1602(16) 1.0657(15) 0.4988(10)
H47 H 0.5292(15) 0.8128(13) 0.2567(8)
H48 H 0.5086(19) 0.5260(20) 0.0156(11)
H49 H 0.4146(18) 0.4976(17) -0.0251(11)
H50 H 0.4606(16) 0.8559(16) 0.3061(10)
H51 H 0.5192(18) 0.4354(17) -0.0178(10)
H52 H 0.4295(19) 1.0163(17) 0.2703(11)
H53 H 0.2560(20) 0.9950(30) 0.4708(14)
H54 H 0.2230(20) 1.1070(20) 0.4327(11)
H55 H -0.0473(17) 0.8330(18) 0.0712(10)
H56 H 0.2086(18) 0.3059(19) 0.2045(10)
loop_
_geom_bond_atom_site_label_1
_geom_bond_atom_site_label_2
_geom_bond_site_symmetry_1
_geom_bond_site_symmetry_2
O1 C1 1_555 1_555
O2 C1 1_555 1_555
O3 C3 1_555 1_555
O4 C6 1_555 1_555
O5 C9 1_555 1_555
O6 C12 1_555 1_555
O7 C34 1_555 1_555
O8 C5 1_555 1_555
O9 C26 1_555 1_555
O10 C27 1_555 1_555
N1 C11 1_555 1_555
N2 C28 1_555 1_555
C1 C2 1_555 1_555
C2 C3 1_555 1_555
C3 C4 1_555 1_555
C4 C5 1_555 1_555
C5 C6 1_555 1_555
C6 C7 1_555 1_555
C7 C8 1_555 1_555
C8 C9 1_555 1_555
C9 C10 1_555 1_555
C10 C11 1_555 1_555
C11 C12 1_555 1_555
C12 C13 1_555 1_555
C13 O1 1_555 1_555
C14 O3 1_555 1_555
C15 C14 1_555 1_555
C16 O4 1_555 1_555
C17 C2 1_555 1_555
C18 C4 1_555 1_555
C19 C6 1_555 1_555
C20 C8 1_555 1_555
C21 C10 1_555 1_555
C22 C15 1_555 1_555
C23 C12 1_555 1_555
C24 C13 1_555 1_555
C25 C24 1_555 1_555
C26 O8 1_555 1_555
C27 C26 1_555 1_555
C28 C27 1_555 1_555
C29 C28 1_555 1_555
C30 O9 1_555 1_555
C31 N2 1_555 1_555
C32 N2 1_555 1_555
C33 C30 1_555 1_555
C34 O6 1_555 1_555
H1 C11 1_555 1_555
H2 C8 1_555 1_555
H3 C19 1_555 1_555
H4 C3 1_555 1_555
H5 C5 1_555 1_555
H6 C7 1_555 1_555
H7 C26 1_555 1_555
H8 C20 1_555 1_555
H9 C29 1_555 1_555
H10 C30 1_555 1_555
H11 C4 1_555 1_555
H12 C7 1_555 1_555
H13 C17 1_555 1_555
H14 C19 1_555 1_555
H15 C18 1_555 1_555
H16 C24 1_555 1_555
H17 C23 1_555 1_555
H18 C16 1_555 1_555
H19 C28 1_555 1_555
H20 C18 1_555 1_555
H21 C2 1_555 1_555
H22 C16 1_555 1_555
H23 C19 1_555 1_555
H24 C20 1_555 1_555
H25 N1 1_555 1_555
H26 C23 1_555 1_555
H27 C21 1_555 1_555
H28 C13 1_555 1_555
H29 C32 1_555 1_555
H30 C21 1_555 1_555
H31 C21 1_555 1_555
H32 C32 1_555 1_555
H33 C27 1_555 1_555
H34 C10 1_555 1_555
H35 C23 1_555 1_555
H36 C32 1_555 1_555
H37 C31 1_555 1_555
H38 C24 1_555 1_555
H39 C31 1_555 1_555
H40 C31 1_555 1_555
H41 C29 1_555 1_555
H42 C17 1_555 1_555
H43 C17 1_555 1_555
H44 C18 1_555 1_555
H45 C22 1_555 1_555
H46 C25 1_555 1_555
H47 C14 1_555 1_555
H48 C33 1_555 1_555
H49 C33 1_555 1_555
H50 C14 1_555 1_555
H51 C33 1_555 1_555
H52 C22 1_555 1_555
H53 C25 1_555 1_555
H54 C25 1_555 1_555
H55 C20 1_555 1_555
H56 O10 1_555 1_555
N1 C34 1_555 1_555
C15 C16 1_555 1_555
C29 C30 1_555 1_555

#END
