
#######################################################################
#
#                 Cambridge Crystallographic Data Centre
#                                CCDC 
#
#######################################################################
#
# If this CIF has been generated from an entry in the Cambridge 
# Structural Database, then it will include bibliographic, chemical, 
# crystal, experimental, refinement or atomic coordinate data resulting 
# from the CCDC's data processing and validation procedures.
#
#######################################################################

data_ICUJOH
_chemical_name_common            N-(4-Nitrobenzylidene)benzene-1,2-diamine
_chemical_formula_moiety         'C13 H11 N3 O2'
_chemical_name_systematic        
N-((1E)-(4-nitrophenyl)methylene)benzene-1,2-diamine
_symmetry_cell_setting           triclinic
_symmetry_space_group_name_H-M   'P -1'
_symmetry_Int_Tables_number      2
_space_group_name_Hall           '-P 1'
loop_
_symmetry_equiv_pos_site_id
_symmetry_equiv_pos_as_xyz
1 x,y,z
2 -x,-y,-z
_cell_length_a                   6.8334(10)
_cell_length_b                   7.9754(12)
_cell_length_c                   21.832(3)
_cell_angle_alpha                94.164(2)
_cell_angle_beta                 92.122(2)
_cell_angle_gamma                96.247(2)
_cell_volume                     1178.43
_cell_formula_units_Z            4
loop_
_atom_site_label
_atom_site_type_symbol
_atom_site_fract_x
_atom_site_fract_y
_atom_site_fract_z
C1 C 0.7796(4) 0.7650(3) 0.6274(1)
C2 C 0.9670(4) 0.8420(4) 0.6172(1)
C3 C 1.1160(4) 0.8542(4) 0.6616(1)
C4 C 1.0799(4) 0.7928(4) 0.7179(1)
C5 C 0.8975(4) 0.7197(3) 0.7295(1)
C6 C 0.7436(4) 0.7019(3) 0.6847(1)
C7 C 0.6313(4) 0.7838(4) 0.5303(1)
C8 C 0.4659(4) 0.7551(3) 0.4845(1)
C9 C 0.4893(5) 0.7989(5) 0.4252(1)
C10 C 0.3377(5) 0.7701(4) 0.3813(1)
C11 C 0.1611(4) 0.6985(3) 0.3974(1)
C12 C 0.1312(4) 0.6546(4) 0.4556(1)
C13 C 0.2852(4) 0.6827(4) 0.4992(1)
N1 N -0.0020(4) 0.6653(3) 0.3511(1)
N2 N 0.6192(3) 0.7401(3) 0.5839(1)
N3 N 0.5602(4) 0.6305(4) 0.6966(1)
O1 O -0.1594(4) 0.6027(4) 0.3667(1)
O2 O 0.0277(4) 0.6981(3) 0.2989(1)
C14 C 0.4211(5) 0.9162(3) 0.2225(1)
C15 C 0.5750(4) 0.8189(3) 0.2238(1)
C16 C 0.5617(4) 0.6625(3) 0.1901(1)
C17 C 0.3896(3) 0.6073(3) 0.1547(1)
C18 C 0.2341(4) 0.7058(3) 0.1548(1)
C19 C 0.2497(4) 0.8603(3) 0.1885(1)
C20 C 0.3101(3) 0.4290(3) 0.0669(1)
C21 C 0.2847(3) 0.2663(3) 0.0301(1)
C22 C 0.2900(3) 0.1150(3) 0.0576(1)
C23 C 0.2621(3) -0.0370(3) 0.0230(1)
C24 C 0.2297(3) -0.0367(3) -0.0397(1)
C25 C 0.2261(3) 0.1111(3) -0.0688(1)
C26 C 0.2517(3) 0.2618(3) -0.0333(1)
N4 N 0.1982(3) -0.1982(2) -0.0768(1)
N5 N 0.3785(3) 0.4456(2) 0.1220(1)
N6 N 0.7182(4) 0.5674(3) 0.1896(1)
O3 O 0.1758(3) -0.1970(2) -0.1320(1)
O4 O 0.1930(3) -0.3291(2) -0.0509(1)
loop_
_geom_bond_atom_site_label_1
_geom_bond_atom_site_label_2
_geom_bond_site_symmetry_1
_geom_bond_site_symmetry_2
C1 C2 1_555 1_555
C2 C3 1_555 1_555
C3 C4 1_555 1_555
C4 C5 1_555 1_555
C5 C6 1_555 1_555
C6 C1 1_555 1_555
C7 C8 1_555 1_555
C8 C9 1_555 1_555
C9 C10 1_555 1_555
C10 C11 1_555 1_555
C11 C12 1_555 1_555
C12 C13 1_555 1_555
C13 C8 1_555 1_555
N1 C11 1_555 1_555
N2 C1 1_555 1_555
N3 C6 1_555 1_555
O1 N1 1_555 1_555
O2 N1 1_555 1_555
C14 C15 1_555 1_555
C15 C16 1_555 1_555
C16 C17 1_555 1_555
C17 C18 1_555 1_555
C18 C19 1_555 1_555
C19 C14 1_555 1_555
C20 C21 1_555 1_555
C21 C22 1_555 1_555
C22 C23 1_555 1_555
C23 C24 1_555 1_555
C24 C25 1_555 1_555
C25 C26 1_555 1_555
C26 C21 1_555 1_555
N4 C24 1_555 1_555
N5 C17 1_555 1_555
N6 C16 1_555 1_555
O3 N4 1_555 1_555
O4 N4 1_555 1_555
C7 N2 1_555 1_555
C20 N5 1_555 1_555

#END
