
#######################################################################
#
#                 Cambridge Crystallographic Data Centre
#                                CCDC 
#
#######################################################################
#
# If this CIF has been generated from an entry in the Cambridge 
# Structural Database, then it will include bibliographic, chemical, 
# crystal, experimental, refinement or atomic coordinate data resulting 
# from the CCDC's data processing and validation procedures.
#
#######################################################################

data_ICUMID
_chemical_formula_moiety         'C30 H24 O2 P2,C1 H2 Cl2'
_chemical_name_systematic        
'1,2-bis(Diphenylphosphinoyl)benzene dichloromethane solvate'
_symmetry_cell_setting           monoclinic
_symmetry_space_group_name_H-M   'P 21/c'
_symmetry_Int_Tables_number      14
_space_group_name_Hall           '-P 2ybc'
loop_
_symmetry_equiv_pos_site_id
_symmetry_equiv_pos_as_xyz
1 x,y,z
2 -x,1/2+y,1/2-z
3 -x,-y,-z
4 x,1/2-y,1/2+z
_cell_length_a                   10.840(2)
_cell_length_b                   14.734(3)
_cell_length_c                   17.576(2)
_cell_angle_alpha                90
_cell_angle_beta                 104.467(12)
_cell_angle_gamma                90
_cell_volume                     2718.17
_exptl_crystal_colour            colorless
_exptl_crystal_description       block
_cell_formula_units_Z            4
loop_
_atom_site_label
_atom_site_type_symbol
_atom_site_fract_x
_atom_site_fract_y
_atom_site_fract_z
P1 P 0.25795(7) 0.21962(5) 0.06487(4)
P2 P 0.47525(7) 0.32519(5) 0.21151(4)
O1 O 0.26954(19) 0.31616(13) 0.04357(10)
O2 O 0.34256(18) 0.34105(13) 0.21713(10)
C1 C 0.1551(3) 0.19763(19) 0.12954(15)
C2 C 0.1896(3) 0.1406(2) 0.19484(16)
H1 H 0.2687 0.1094 0.2055
C3 C 0.1093(3) 0.1294(2) 0.24413(17)
H2 H 0.1340 0.0912 0.2889
C4 C -0.0069(3) 0.1736(2) 0.22848(16)
H3 H -0.0618 0.1658 0.2625
C5 C -0.0430(3) 0.2291(2) 0.16318(17)
H4 H -0.1230 0.2591 0.1522
C6 C 0.0373(3) 0.2410(2) 0.11388(16)
H5 H 0.0118 0.2790 0.0690
C7 C 0.1933(3) 0.15292(19) -0.02251(15)
C8 C 0.1980(3) 0.1911(2) -0.09450(16)
H6 H 0.2339 0.2497 -0.0960
C9 C 0.1503(3) 0.1436(2) -0.16411(16)
H7 H 0.1556 0.1690 -0.2128
C10 C 0.0954(3) 0.0597(2) -0.16225(16)
H8 H 0.0609 0.0282 -0.2100
C11 C 0.0900(3) 0.0208(2) -0.09135(16)
H9 H 0.0534 -0.0376 -0.0904
C12 C 0.1384(3) 0.0676(2) -0.02178(16)
H10 H 0.1341 0.0412 0.0268
C13 C 0.4109(3) 0.16816(19) 0.11218(15)
C14 C 0.4420(3) 0.08311(19) 0.08775(16)
H11 H 0.3810 0.0518 0.0482
C15 C 0.5597(3) 0.0425(2) 0.11949(16)
H12 H 0.5787 -0.0153 0.1014
C16 C 0.6483(3) 0.0871(2) 0.17730(16)
H13 H 0.7291 0.0603 0.1991
C17 C 0.6193(3) 0.1710(2) 0.20357(16)
H14 H 0.6808 0.2007 0.2439
C18 C 0.5024(3) 0.21318(19) 0.17261(15)
C19 C 0.5385(3) 0.40643(19) 0.15481(15)
C20 C 0.5139(3) 0.4984(2) 0.16483(17)
H15 H 0.4635 0.5159 0.1995
C21 C 0.5628(3) 0.5633(2) 0.12437(18)
H16 H 0.5456 0.6256 0.1313
C22 C 0.6365(3) 0.5394(2) 0.07380(18)
H17 H 0.6699 0.5849 0.0462
C23 C 0.6614(3) 0.4493(2) 0.06359(17)
H18 H 0.7121 0.4325 0.0289
C24 C 0.6125(3) 0.3828(2) 0.10384(16)
H19 H 0.6298 0.3207 0.0964
C25 C 0.5832(3) 0.32960(19) 0.30872(15)
C26 C 0.5308(3) 0.3102(2) 0.37182(16)
H20 H 0.4429 0.2957 0.3626
C27 C 0.6072(3) 0.3122(2) 0.44815(17)
H21 H 0.5712 0.2995 0.4910
C28 C 0.7347(4) 0.3323(2) 0.46179(18)
H22 H 0.7868 0.3320 0.5140
C29 C 0.7875(3) 0.3529(2) 0.40028(18)
H23 H 0.8754 0.3676 0.4103
C30 C 0.7123(3) 0.3522(2) 0.32357(17)
H24 H 0.7487 0.3670 0.2813
Cl1 Cl -0.01000(8) 0.47812(6) 0.10949(5)
Cl2 Cl 0.19205(9) 0.60647(6) 0.10508(5)
C31 C 0.1507(3) 0.4901(2) 0.10563(19)
H25 H 0.1632 0.4604 0.0576
H26 H 0.2069 0.4599 0.1517
loop_
_geom_bond_atom_site_label_1
_geom_bond_atom_site_label_2
_geom_bond_site_symmetry_1
_geom_bond_site_symmetry_2
P1 O1 1_555 1_555
P2 O2 1_555 1_555
C1 P1 1_555 1_555
C2 C1 1_555 1_555
H1 C2 1_555 1_555
C3 C2 1_555 1_555
H2 C3 1_555 1_555
C4 C3 1_555 1_555
H3 C4 1_555 1_555
C5 C4 1_555 1_555
H4 C5 1_555 1_555
C6 C1 1_555 1_555
H5 C6 1_555 1_555
C7 P1 1_555 1_555
C8 C7 1_555 1_555
H6 C8 1_555 1_555
C9 C8 1_555 1_555
H7 C9 1_555 1_555
C10 C9 1_555 1_555
H8 C10 1_555 1_555
C11 C10 1_555 1_555
H9 C11 1_555 1_555
C12 C7 1_555 1_555
H10 C12 1_555 1_555
C13 P1 1_555 1_555
C14 C13 1_555 1_555
H11 C14 1_555 1_555
C15 C14 1_555 1_555
H12 C15 1_555 1_555
C16 C15 1_555 1_555
H13 C16 1_555 1_555
C17 C16 1_555 1_555
H14 C17 1_555 1_555
C18 P2 1_555 1_555
C19 P2 1_555 1_555
C20 C19 1_555 1_555
H15 C20 1_555 1_555
C21 C20 1_555 1_555
H16 C21 1_555 1_555
C22 C21 1_555 1_555
H17 C22 1_555 1_555
C23 C22 1_555 1_555
H18 C23 1_555 1_555
C24 C19 1_555 1_555
H19 C24 1_555 1_555
C25 P2 1_555 1_555
C26 C25 1_555 1_555
H20 C26 1_555 1_555
C27 C26 1_555 1_555
H21 C27 1_555 1_555
C28 C27 1_555 1_555
H22 C28 1_555 1_555
C29 C28 1_555 1_555
H23 C29 1_555 1_555
C30 C25 1_555 1_555
H24 C30 1_555 1_555
Cl1 C31 1_555 1_555
Cl2 C31 1_555 1_555
C31 H25 1_555 1_555
H26 C31 1_555 1_555
C5 C6 1_555 1_555
C11 C12 1_555 1_555
C13 C18 1_555 1_555
C17 C18 1_555 1_555
C23 C24 1_555 1_555
C29 C30 1_555 1_555

#END
