
#######################################################################
#
#                 Cambridge Crystallographic Data Centre
#                                CCDC 
#
#######################################################################
#
# If this CIF has been generated from an entry in the Cambridge 
# Structural Database, then it will include bibliographic, chemical, 
# crystal, experimental, refinement or atomic coordinate data resulting 
# from the CCDC's data processing and validation procedures.
#
#######################################################################

data_ICUMAW
_chemical_formula_moiety         'C27 H23 F1 N4 O2,C2 H6 O1'
_chemical_name_systematic        
'4-((2-Fluorophenyl)(5-hydroxy-3-methyl-1-phenyl-1H-pyrazol-4-yl)methyl)-5-methyl-2-phenyl-1,2-dihydro-3H-pyrazol-3-one ethanol'
_symmetry_cell_setting           monoclinic
_symmetry_space_group_name_H-M   'P 21/c'
_symmetry_Int_Tables_number      14
_space_group_name_Hall           '-P 2ybc'
loop_
_symmetry_equiv_pos_site_id
_symmetry_equiv_pos_as_xyz
1 x,y,z
2 -x,1/2+y,1/2-z
3 -x,-y,-z
4 x,1/2-y,1/2+z
_cell_length_a                   9.496(19)
_cell_length_b                   22.174(4)
_cell_length_c                   12.854(3)
_cell_angle_alpha                90
_cell_angle_beta                 100.71(3)
_cell_angle_gamma                90
_cell_volume                     2659.45
_cell_formula_units_Z            4
loop_
_atom_site_label
_atom_site_type_symbol
_atom_site_fract_x
_atom_site_fract_y
_atom_site_fract_z
F1 F -0.1866(2) 0.2443(1) 0.8988(2)
O1 O 0.2548(2) 0.3185(1) 1.0329(1)
O2 O 0.2503(2) 0.4131(1) 0.9196(2)
N1 N 0.2146(3) 0.1790(1) 0.9030(2)
N2 N 0.2729(3) 0.2182(1) 0.9825(2)
N3 N 0.2257(3) 0.4438(1) 0.7447(2)
N4 N 0.1362(3) 0.4291(1) 0.6507(2)
C1 C -0.1737(5) 0.4159(2) 1.0122(3)
C2 C -0.0840(4) 0.3999(2) 0.9433(3)
C3 C -0.0839(3) 0.3413(2) 0.9042(2)
C4 C -0.1775(4) 0.3017(2) 0.9390(3)
C5 C -0.2666(4) 0.3162(3) 1.0079(3)
C6 C -0.2627(6) 0.3750(3) 1.0438(4)
C7 C 0.0078(3) 0.3196(1) 0.8259(2)
C8 C 0.2122(3) 0.2739(1) 0.9658(2)
C9 C 0.1113(3) 0.2710(1) 0.8744(2)
C10 C 0.1176(3) 0.2115(1) 0.8383(2)
C11 C 0.0293(4) 0.1827(2) 0.7428(3)
C12 C 0.3739(3) 0.1965(1) 1.0700(2)
C13 C 0.4668(4) 0.1514(2) 1.0538(3)
C14 C 0.5587(4) 0.1273(2) 1.1397(4)
C15 C 0.5585(5) 0.1470(2) 1.2404(4)
C16 C 0.4666(4) 0.1918(2) 1.2557(3)
C17 C 0.3736(4) 0.2172(2) 1.1708(3)
C18 C -0.0418(3) 0.3529(1) 0.5773(2)
C19 C 0.0538(3) 0.3822(1) 0.6684(2)
C20 C 0.0789(3) 0.3689(1) 0.7738(2)
C21 C 0.1902(3) 0.4076(1) 0.8240(2)
C22 C 0.3153(4) 0.4952(1) 0.7520(2)
C23 C 0.4401(4) 0.4972(2) 0.8272(3)
C24 C 0.5276(4) 0.5476(2) 0.8334(3)
C25 C 0.4924(5) 0.5948(2) 0.7636(4)
C26 C 0.3683(5) 0.5925(2) 0.6901(3)
C27 C 0.2783(4) 0.5431(2) 0.6830(3)
O3 O 0.1689(3) 0.4404(1) 0.4465(2)
C28 C 0.1629(5) 0.4865(2) 0.2773(3)
C29 C 0.2295(6) 0.4831(2) 0.3887(3)
loop_
_geom_bond_atom_site_label_1
_geom_bond_atom_site_label_2
_geom_bond_site_symmetry_1
_geom_bond_site_symmetry_2
F1 C4 1_555 1_555
O1 C8 1_555 1_555
O2 C21 1_555 1_555
O3 C29 1_555 1_555
N1 N2 1_555 1_555
N2 C8 1_555 1_555
N3 N4 1_555 1_555
N4 C19 1_555 1_555
C1 C2 1_555 1_555
C2 C3 1_555 1_555
C3 C4 1_555 1_555
C4 C5 1_555 1_555
C5 C6 1_555 1_555
C6 C1 1_555 1_555
C7 C3 1_555 1_555
C8 C9 1_555 1_555
C9 C7 1_555 1_555
C10 N1 1_555 1_555
C11 C10 1_555 1_555
C12 N2 1_555 1_555
C13 C12 1_555 1_555
C14 C13 1_555 1_555
C15 C14 1_555 1_555
C16 C15 1_555 1_555
C17 C12 1_555 1_555
C18 C19 1_555 1_555
C19 C20 1_555 1_555
C20 C7 1_555 1_555
C21 N3 1_555 1_555
C22 N3 1_555 1_555
C23 C22 1_555 1_555
C24 C23 1_555 1_555
C25 C24 1_555 1_555
C26 C25 1_555 1_555
C27 C22 1_555 1_555
C28 C29 1_555 1_555
C9 C10 1_555 1_555
C16 C17 1_555 1_555
C20 C21 1_555 1_555
C26 C27 1_555 1_555

#END
