
#######################################################################
#
#                 Cambridge Crystallographic Data Centre
#                                CCDC 
#
#######################################################################
#
# If this CIF has been generated from an entry in the Cambridge 
# Structural Database, then it will include bibliographic, chemical, 
# crystal, experimental, refinement or atomic coordinate data resulting 
# from the CCDC's data processing and validation procedures.
#
#######################################################################

data_ICUPUU
_chemical_formula_moiety         'C36 H32'
_chemical_name_systematic        2,10-di-t-butyldibenzo[fg,qr]pentacene
_symmetry_cell_setting           monoclinic
_symmetry_space_group_name_H-M   'P 21/c'
_symmetry_Int_Tables_number      14
_space_group_name_Hall           '-P 2ybc'
loop_
_symmetry_equiv_pos_site_id
_symmetry_equiv_pos_as_xyz
1 x,y,z
2 -x,1/2+y,1/2-z
3 -x,-y,-z
4 x,1/2-y,1/2+z
_cell_length_a                   12.654(4)
_cell_length_b                   5.9003(19)
_cell_length_c                   16.299(5)
_cell_angle_alpha                90
_cell_angle_beta                 92.546(10)
_cell_angle_gamma                90
_cell_volume                     1215.72
_exptl_crystal_colour            orange
_exptl_crystal_description       needle
_cell_formula_units_Z            2
loop_
_atom_site_label
_atom_site_type_symbol
_atom_site_fract_x
_atom_site_fract_y
_atom_site_fract_z
C1 C 0.4077(3) -0.0235(6) 0.5481(2)
C2 C 0.3204(3) -0.0413(6) 0.5954(2)
H1 H 0.3198 -0.1565 0.6360
C3 C 0.2323(3) 0.1026(6) 0.5862(2)
C4 C 0.2365(3) 0.2741(7) 0.5288(2)
H2 H 0.1775 0.3727 0.5210
C5 C 0.3256(3) 0.3072(6) 0.4812(2)
C6 C 0.3298(3) 0.4952(6) 0.4238(2)
C7 C 0.2486(3) 0.6575(6) 0.4133(2)
H3 H 0.1862 0.6429 0.4432
C8 C 0.2585(3) 0.8367(7) 0.3604(2)
H4 H 0.2036 0.9462 0.3548
C9 C 0.3485(3) 0.8588(7) 0.3148(2)
H5 H 0.3545 0.9813 0.2774
C10 C 0.4280(3) 0.7033(7) 0.3242(2)
H6 H 0.4894 0.7194 0.2932
C11 C 0.4208(3) 0.5199(6) 0.3786(2)
C12 C 0.5054(3) 0.3649(7) 0.3898(2)
H7 H 0.5668 0.3875 0.3593
C13 C 0.5033(3) 0.1855(6) 0.4418(2)
C14 C 0.4119(3) 0.1558(6) 0.4905(2)
C15 C 0.1390(3) 0.0720(7) 0.6414(2)
C16 C 0.1070(3) -0.1785(7) 0.6442(3)
H8 H 0.0464 -0.1961 0.6790
H9 H 0.1666 -0.2683 0.6668
H10 H 0.0878 -0.2311 0.5885
C17 C 0.1730(3) 0.1524(7) 0.7283(2)
H11 H 0.1151 0.1276 0.7652
H12 H 0.1903 0.3142 0.7269
H13 H 0.2354 0.0666 0.7481
C18 C 0.0408(3) 0.2063(7) 0.6113(3)
H14 H -0.0174 0.1765 0.6475
H15 H 0.0200 0.1594 0.5552
H16 H 0.0572 0.3686 0.6119
C1B C 0.5923(3) 0.0235(6) 0.4519(2)
C2B C 0.6796(3) 0.0413(6) 0.4046(2)
H1B H 0.6802 0.1565 0.3640
C3B C 0.7677(3) -0.1026(6) 0.4138(2)
C4B C 0.7635(3) -0.2741(7) 0.4712(2)
H2B H 0.8225 -0.3727 0.4790
C5B C 0.6744(3) -0.3072(6) 0.5188(2)
C6B C 0.6702(3) -0.4952(6) 0.5762(2)
C7B C 0.7514(3) -0.6575(6) 0.5867(2)
H3B H 0.8138 -0.6429 0.5568
C8B C 0.7415(3) -0.8367(7) 0.6396(2)
H4B H 0.7964 -0.9462 0.6452
C9B C 0.6515(3) -0.8588(7) 0.6852(2)
H5B H 0.6455 -0.9813 0.7226
C10B C 0.5720(3) -0.7033(7) 0.6758(2)
H6B H 0.5106 -0.7194 0.7068
C11B C 0.5792(3) -0.5199(6) 0.6214(2)
C12B C 0.4946(3) -0.3649(7) 0.6102(2)
H7B H 0.4332 -0.3875 0.6407
C13B C 0.4967(3) -0.1855(6) 0.5582(2)
C14B C 0.5881(3) -0.1558(6) 0.5095(2)
C15B C 0.8610(3) -0.0720(7) 0.3586(2)
C16B C 0.8930(3) 0.1785(7) 0.3558(3)
H8B H 0.9536 0.1961 0.3210
H9B H 0.8334 0.2683 0.3332
H10B H 0.9122 0.2311 0.4115
C17B C 0.8270(3) -0.1524(7) 0.2717(2)
H11B H 0.8849 -0.1276 0.2348
H12B H 0.8097 -0.3142 0.2731
H13B H 0.7646 -0.0666 0.2519
C18B C 0.9592(3) -0.2063(7) 0.3887(3)
H14B H 1.0174 -0.1765 0.3525
H15B H 0.9800 -0.1594 0.4448
H16B H 0.9428 -0.3686 0.3881
loop_
_geom_bond_atom_site_label_1
_geom_bond_atom_site_label_2
_geom_bond_site_symmetry_1
_geom_bond_site_symmetry_2
C1 C2 1_555 1_555
C2 H1 1_555 1_555
C3 C2 1_555 1_555
C4 C3 1_555 1_555
H2 C4 1_555 1_555
C5 C4 1_555 1_555
C6 C5 1_555 1_555
C7 C6 1_555 1_555
H3 C7 1_555 1_555
C8 C7 1_555 1_555
H4 C8 1_555 1_555
C9 C8 1_555 1_555
H5 C9 1_555 1_555
C10 C9 1_555 1_555
H6 C10 1_555 1_555
C11 C6 1_555 1_555
C12 C11 1_555 1_555
H7 C12 1_555 1_555
C13 C12 1_555 1_555
C14 C1 1_555 1_555
C15 C3 1_555 1_555
C16 C15 1_555 1_555
H8 C16 1_555 1_555
H9 C16 1_555 1_555
H10 C16 1_555 1_555
C17 C15 1_555 1_555
H11 C17 1_555 1_555
H12 C17 1_555 1_555
H13 C17 1_555 1_555
C18 C15 1_555 1_555
H14 C18 1_555 1_555
H15 C18 1_555 1_555
H16 C18 1_555 1_555
C1B C13 1_555 1_555
C2B C1B 1_555 1_555
H1B C2B 1_555 1_555
C3B C2B 1_555 1_555
C4B C3B 1_555 1_555
H2B C4B 1_555 1_555
C5B C4B 1_555 1_555
C6B C5B 1_555 1_555
C7B C6B 1_555 1_555
H3B C7B 1_555 1_555
C8B C7B 1_555 1_555
H4B C8B 1_555 1_555
C9B C8B 1_555 1_555
H5B C9B 1_555 1_555
C10B C9B 1_555 1_555
H6B C10B 1_555 1_555
C11B C6B 1_555 1_555
C12B C11B 1_555 1_555
H7B C12B 1_555 1_555
C13B C1 1_555 1_555
C14B C1B 1_555 1_555
C15B C3B 1_555 1_555
C16B C15B 1_555 1_555
H8B C16B 1_555 1_555
H9B C16B 1_555 1_555
H10B C16B 1_555 1_555
C17B C15B 1_555 1_555
H11B C17B 1_555 1_555
H12B C17B 1_555 1_555
H13B C17B 1_555 1_555
C18B C15B 1_555 1_555
H14B C18B 1_555 1_555
H15B C18B 1_555 1_555
H16B C18B 1_555 1_555
C5 C14 1_555 1_555
C10 C11 1_555 1_555
C13 C14 1_555 1_555
C5B C14B 1_555 1_555
C10B C11B 1_555 1_555
C12B C13B 1_555 1_555
C13B C14B 1_555 1_555

#END
