
#######################################################################
#
#                 Cambridge Crystallographic Data Centre
#                                CCDC 
#
#######################################################################
#
# If this CIF has been generated from an entry in the Cambridge 
# Structural Database, then it will include bibliographic, chemical, 
# crystal, experimental, refinement or atomic coordinate data resulting 
# from the CCDC's data processing and validation procedures.
#
#######################################################################

data_ICUPOO
_chemical_formula_moiety         'C34 H50 B2 O4'
_chemical_name_systematic        
2-(3,7-di-t-butyl-5-(4,4,5,5-tetramethyl-1,3,2-dioxaborolan-2-yl)-9,10-dihydroanthracen-1-yl)-4,4,5,5-tetramethyl-1,3,2-dioxaborolane
_symmetry_cell_setting           monoclinic
_symmetry_space_group_name_H-M   'P 21/n'
_symmetry_Int_Tables_number      14
_space_group_name_Hall           '-P 2yn'
loop_
_symmetry_equiv_pos_site_id
_symmetry_equiv_pos_as_xyz
1 x,y,z
2 1/2-x,1/2+y,1/2-z
3 -x,-y,-z
4 1/2+x,1/2-y,1/2+z
_cell_length_a                   12.4137(5)
_cell_length_b                   19.2998(9)
_cell_length_c                   13.6359(6)
_cell_angle_alpha                90
_cell_angle_beta                 92.0918(12)
_cell_angle_gamma                90
_cell_volume                     3264.74
_exptl_crystal_colour            colorless
_exptl_crystal_description       polyhedron
_cell_formula_units_Z            4
loop_
_atom_site_label
_atom_site_type_symbol
_atom_site_fract_x
_atom_site_fract_y
_atom_site_fract_z
C1 C 0.61365(16) 0.38589(13) 0.74105(15)
H1 H 0.5743 0.4303 0.7464
H2 H 0.5595 0.3483 0.7424
C2 C 0.85030(16) 0.37740(13) 0.72248(15)
H3 H 0.8973 0.4188 0.7218
H4 H 0.8973 0.3363 0.7170
C3 C 0.64575(15) 0.37541(10) 0.92535(14)
C4 C 0.71716(15) 0.36902(10) 1.00655(14)
H5 H 0.6887 0.3674 1.0702
C5 C 0.82873(15) 0.36496(10) 0.99771(14)
C6 C 0.86615(16) 0.36768(11) 0.90332(14)
H6 H 0.9416 0.3648 0.8949
C7 C 0.79828(15) 0.37451(10) 0.82010(14)
C8 C 0.68730(15) 0.37852(10) 0.83025(14)
C9 C 0.90884(16) 0.35685(12) 1.08537(15)
C10 C 0.9889(2) 0.41717(15) 1.08632(18)
H7 H 1.0424 0.4108 1.1402
H8 H 0.9501 0.4608 1.0955
H9 H 1.0254 0.4185 1.0238
C11 C 0.9712(2) 0.28884(14) 1.07484(19)
H10 H 1.0233 0.2839 1.1301
H11 H 1.0094 0.2894 1.0132
H12 H 0.9207 0.2498 1.0745
C12 C 0.85325(19) 0.35559(16) 1.18277(16)
H13 H 0.9070 0.3480 1.2361
H14 H 0.8002 0.3180 1.1823
H15 H 0.8168 0.3999 1.1927
C13 C 0.81799(15) 0.37783(10) 0.53805(14)
C14 C 0.74659(15) 0.38022(10) 0.45700(14)
H16 H 0.7751 0.3779 0.3934
C15 C 0.63486(15) 0.38591(10) 0.46468(14)
C16 C 0.59666(15) 0.38737(10) 0.55879(14)
H17 H 0.5211 0.3906 0.5666
C17 C 0.66461(15) 0.38425(10) 0.64289(14)
C18 C 0.77611(15) 0.37989(10) 0.63329(14)
C19 C 0.56207(15) 0.39080(11) 0.37155(14)
C20 C 0.59745(17) 0.45277(13) 0.31016(16)
H18 H 0.5534 0.4548 0.2491
H19 H 0.6735 0.4475 0.2947
H20 H 0.5881 0.4956 0.3474
C21 C 0.57233(19) 0.32416(13) 0.31136(16)
H21 H 0.5300 0.3286 0.2496
H22 H 0.5454 0.2849 0.3488
H23 H 0.6482 0.3164 0.2972
C22 C 0.44371(16) 0.40117(14) 0.39508(16)
H24 H 0.4003 0.4050 0.3338
H25 H 0.4362 0.4437 0.4336
H26 H 0.4187 0.3615 0.4329
B1 B 0.52239(18) 0.37656(12) 0.94605(16)
O1 O 0.44260(11) 0.39545(9) 0.88066(10)
O2 O 0.48433(11) 0.35733(8) 1.03417(10)
C23 C 0.33999(15) 0.37714(11) 0.92181(15)
C24 C 0.36941(15) 0.37248(11) 1.03368(15)
C25 C 0.3088(2) 0.30756(15) 0.8765(2)
H27 H 0.2371 0.2942 0.8975
H28 H 0.3614 0.2724 0.8980
H29 H 0.3079 0.3113 0.8048
C26 C 0.2583(2) 0.43208(16) 0.89305(19)
H30 H 0.1915 0.4238 0.9273
H31 H 0.2434 0.4303 0.8220
H32 H 0.2870 0.4778 0.9111
C27 C 0.3134(2) 0.31553(14) 1.0878(2)
H33 H 0.2352 0.3229 1.0827
H34 H 0.3375 0.3161 1.1570
H35 H 0.3309 0.2707 1.0588
C28 C 0.3577(2) 0.44086(14) 1.08601(19)
H36 H 0.2810 0.4520 1.0906
H37 H 0.3934 0.4774 1.0493
H38 H 0.3910 0.4376 1.1521
B2 B 0.94063(18) 0.37429(11) 0.51755(16)
O3 O 1.02143(10) 0.39149(7) 0.58336(10)
O4 O 0.97726(10) 0.35472(8) 0.42820(10)
C29 C 1.12275(15) 0.37144(10) 0.54094(14)
C30 C 1.09294(15) 0.37008(10) 0.42918(15)
C31 C 1.20737(17) 0.42419(13) 0.57216(17)
H39 H 1.2745 0.4143 0.5393
H40 H 1.2203 0.4218 0.6434
H41 H 1.1821 0.4707 0.5540
C32 C 1.15065(19) 0.30070(12) 0.58292(18)
H42 H 1.2204 0.2857 0.5590
H43 H 1.0948 0.2674 0.5622
H44 H 1.1548 0.3034 0.6547
C33 C 1.10438(19) 0.43972(12) 0.37977(16)
H45 H 1.1810 0.4514 0.3761
H46 H 1.0680 0.4752 0.4178
H47 H 1.0716 0.4377 0.3134
C34 C 1.14742(17) 0.31399(12) 0.37096(17)
H48 H 1.2256 0.3211 0.3747
H49 H 1.1215 0.3161 0.3023
H50 H 1.1303 0.2685 0.3983
loop_
_geom_bond_atom_site_label_1
_geom_bond_atom_site_label_2
_geom_bond_site_symmetry_1
_geom_bond_site_symmetry_2
C1 H1 1_555 1_555
H2 C1 1_555 1_555
C2 H3 1_555 1_555
H4 C2 1_555 1_555
C3 C4 1_555 1_555
C4 H5 1_555 1_555
C5 C4 1_555 1_555
C6 C5 1_555 1_555
H6 C6 1_555 1_555
C7 C2 1_555 1_555
C8 C1 1_555 1_555
C9 C5 1_555 1_555
C10 C9 1_555 1_555
H7 C10 1_555 1_555
H8 C10 1_555 1_555
H9 C10 1_555 1_555
C11 C9 1_555 1_555
H10 C11 1_555 1_555
H11 C11 1_555 1_555
H12 C11 1_555 1_555
C12 C9 1_555 1_555
H13 C12 1_555 1_555
H14 C12 1_555 1_555
H15 C12 1_555 1_555
C13 C14 1_555 1_555
C14 H16 1_555 1_555
C15 C14 1_555 1_555
C16 C15 1_555 1_555
H17 C16 1_555 1_555
C17 C1 1_555 1_555
C18 C2 1_555 1_555
C19 C15 1_555 1_555
C20 C19 1_555 1_555
H18 C20 1_555 1_555
H19 C20 1_555 1_555
H20 C20 1_555 1_555
C21 C19 1_555 1_555
H21 C21 1_555 1_555
H22 C21 1_555 1_555
H23 C21 1_555 1_555
C22 C19 1_555 1_555
H24 C22 1_555 1_555
H25 C22 1_555 1_555
H26 C22 1_555 1_555
B1 C3 1_555 1_555
O1 B1 1_555 1_555
O2 B1 1_555 1_555
C23 O1 1_555 1_555
C24 O2 1_555 1_555
C25 C23 1_555 1_555
H27 C25 1_555 1_555
H28 C25 1_555 1_555
H29 C25 1_555 1_555
C26 C23 1_555 1_555
H30 C26 1_555 1_555
H31 C26 1_555 1_555
H32 C26 1_555 1_555
C27 C24 1_555 1_555
H33 C27 1_555 1_555
H34 C27 1_555 1_555
H35 C27 1_555 1_555
C28 C24 1_555 1_555
H36 C28 1_555 1_555
H37 C28 1_555 1_555
H38 C28 1_555 1_555
B2 C13 1_555 1_555
O3 B2 1_555 1_555
O4 B2 1_555 1_555
C29 O3 1_555 1_555
C30 O4 1_555 1_555
C31 C29 1_555 1_555
H39 C31 1_555 1_555
H40 C31 1_555 1_555
H41 C31 1_555 1_555
C32 C29 1_555 1_555
H42 C32 1_555 1_555
H43 C32 1_555 1_555
H44 C32 1_555 1_555
C33 C30 1_555 1_555
H45 C33 1_555 1_555
H46 C33 1_555 1_555
H47 C33 1_555 1_555
C34 C30 1_555 1_555
H48 C34 1_555 1_555
H49 C34 1_555 1_555
H50 C34 1_555 1_555
C3 C8 1_555 1_555
C6 C7 1_555 1_555
C7 C8 1_555 1_555
C13 C18 1_555 1_555
C16 C17 1_555 1_555
C17 C18 1_555 1_555
C23 C24 1_555 1_555
C29 C30 1_555 1_555

#END
