
#######################################################################
#
#                 Cambridge Crystallographic Data Centre
#                                CCDC 
#
#######################################################################
#
# If this CIF has been generated from an entry in the Cambridge 
# Structural Database, then it will include bibliographic, chemical, 
# crystal, experimental, refinement or atomic coordinate data resulting 
# from the CCDC's data processing and validation procedures.
#
#######################################################################

data_ICUQAB
_chemical_formula_moiety         'C34 H30 N2,2(C1 H1 Cl3)'
_chemical_name_systematic        
"2,10-di-t-butylquinolino[8',7',6':5,10]anthra[9,1-gh]quinoline chloroform solvate"
_symmetry_cell_setting           triclinic
_symmetry_space_group_name_H-M   'P -1'
_symmetry_Int_Tables_number      2
_space_group_name_Hall           '-P 1'
loop_
_symmetry_equiv_pos_site_id
_symmetry_equiv_pos_as_xyz
1 x,y,z
2 -x,-y,-z
_cell_length_a                   6.1980(13)
_cell_length_b                   9.0318(19)
_cell_length_c                   14.731(3)
_cell_angle_alpha                82.109(5)
_cell_angle_beta                 80.926(5)
_cell_angle_gamma                80.752(5)
_cell_volume                     798.405
_exptl_crystal_colour            yellow
_exptl_crystal_description       needle
_cell_formula_units_Z            1
loop_
_atom_site_label
_atom_site_type_symbol
_atom_site_fract_x
_atom_site_fract_y
_atom_site_fract_z
C1 C -0.0262(7) 0.0277(5) 0.4032(3)
C2 C -0.0533(7) 0.0570(5) 0.3104(3)
H1 H -0.1598 0.0102 0.2892
C3 C 0.0687(7) 0.1519(5) 0.2468(3)
C4 C 0.2242(7) 0.2179(5) 0.2791(3)
H2 H 0.3101 0.2824 0.2371
C5 C 0.2584(7) 0.1920(5) 0.3722(3)
C6 C 0.4211(7) 0.2627(5) 0.4043(3)
N1 N 0.5409(6) 0.3558(4) 0.3432(2)
C7 C 0.6948(7) 0.4131(5) 0.3739(3)
H3 H 0.7772 0.4793 0.3316
C8 C 0.7444(7) 0.3831(5) 0.4639(3)
H4 H 0.8611 0.4244 0.4815
C9 C 0.6230(7) 0.2939(5) 0.5259(3)
H5 H 0.6516 0.2733 0.5882
C10 C 0.4541(7) 0.2317(5) 0.4975(3)
C11 C 0.3214(7) 0.1368(5) 0.5594(3)
H6 H 0.3437 0.1185 0.6225
C12 C 0.1631(7) 0.0711(5) 0.5317(3)
C13 C 0.1313(7) 0.0960(5) 0.4357(3)
C14 C 0.0301(8) 0.1862(5) 0.1447(3)
C15 C -0.0830(8) 0.3497(5) 0.1300(3)
H7 H 0.0103 0.4175 0.1459
H8 H -0.1056 0.3755 0.0650
H9 H -0.2259 0.3606 0.1696
C16 C 0.2497(8) 0.1672(6) 0.0807(3)
H10 H 0.3473 0.2327 0.0959
H11 H 0.3193 0.0617 0.0888
H12 H 0.2233 0.1949 0.0163
C17 C -0.1185(8) 0.0829(6) 0.1195(3)
H13 H -0.2603 0.0936 0.1599
H14 H -0.1432 0.1110 0.0549
H15 H -0.0472 -0.0222 0.1275
C1A C 0.0262(7) -0.0277(5) 0.5968(3)
C2A C 0.0533(7) -0.0570(5) 0.6896(3)
H1A H 0.1598 -0.0102 0.7108
C3A C -0.0687(7) -0.1519(5) 0.7532(3)
C4A C -0.2242(7) -0.2179(5) 0.7209(3)
H2A H -0.3101 -0.2824 0.7629
C5A C -0.2584(7) -0.1920(5) 0.6278(3)
C6A C -0.4211(7) -0.2627(5) 0.5957(3)
N1A N -0.5409(6) -0.3558(4) 0.6568(2)
C7A C -0.6948(7) -0.4131(5) 0.6261(3)
H3A H -0.7772 -0.4793 0.6684
C8A C -0.7444(7) -0.3831(5) 0.5361(3)
H4A H -0.8611 -0.4244 0.5185
C9A C -0.6230(7) -0.2939(5) 0.4741(3)
H5A H -0.6516 -0.2733 0.4118
C10A C -0.4541(7) -0.2317(5) 0.5025(3)
C11A C -0.3214(7) -0.1368(5) 0.4406(3)
H6A H -0.3437 -0.1185 0.3775
C12A C -0.1631(7) -0.0711(5) 0.4683(3)
C13A C -0.1313(7) -0.0960(5) 0.5643(3)
C14A C -0.0301(8) -0.1862(5) 0.8553(3)
C15A C 0.0830(8) -0.3497(5) 0.8700(3)
H7A H -0.0103 -0.4175 0.8541
H8A H 0.1056 -0.3755 0.9350
H9A H 0.2259 -0.3606 0.8304
C16A C -0.2497(8) -0.1672(6) 0.9193(3)
H10A H -0.3473 -0.2327 0.9041
H11A H -0.3193 -0.0617 0.9112
H12A H -0.2233 -0.1949 0.9837
C17A C 0.1185(8) -0.0829(6) 0.8805(3)
H13A H 0.2603 -0.0936 0.8401
H14A H 0.1432 -0.1110 0.9451
H15A H 0.0472 0.0222 0.8725
C18 C 0.3811(8) 0.6338(6) 0.2016(3)
H16 H 0.4534 0.5360 0.2312
Cl1 Cl 0.1156(2) 0.67867(15) 0.26356(9)
Cl2 Cl 0.5437(2) 0.77567(16) 0.20455(9)
Cl3 Cl 0.3618(2) 0.61409(16) 0.08668(9)
loop_
_geom_bond_atom_site_label_1
_geom_bond_atom_site_label_2
_geom_bond_site_symmetry_1
_geom_bond_site_symmetry_2
C1 C2 1_555 1_555
C2 H1 1_555 1_555
C3 C2 1_555 1_555
C4 C3 1_555 1_555
H2 C4 1_555 1_555
C5 C4 1_555 1_555
C6 C5 1_555 1_555
N1 C6 1_555 1_555
C7 N1 1_555 1_555
H3 C7 1_555 1_555
C8 C7 1_555 1_555
H4 C8 1_555 1_555
C9 C8 1_555 1_555
H5 C9 1_555 1_555
C10 C6 1_555 1_555
C11 C10 1_555 1_555
H6 C11 1_555 1_555
C12 C11 1_555 1_555
C13 C1 1_555 1_555
C14 C3 1_555 1_555
C15 C14 1_555 1_555
H7 C15 1_555 1_555
H8 C15 1_555 1_555
H9 C15 1_555 1_555
C16 C14 1_555 1_555
H10 C16 1_555 1_555
H11 C16 1_555 1_555
H12 C16 1_555 1_555
C17 C14 1_555 1_555
H13 C17 1_555 1_555
H14 C17 1_555 1_555
H15 C17 1_555 1_555
C18 H16 1_555 1_555
Cl1 C18 1_555 1_555
Cl2 C18 1_555 1_555
Cl3 C18 1_555 1_555
C1A C12 1_555 1_555
C2A C1A 1_555 1_555
H1A C2A 1_555 1_555
C3A C2A 1_555 1_555
C4A C3A 1_555 1_555
H2A C4A 1_555 1_555
C5A C4A 1_555 1_555
C6A C5A 1_555 1_555
N1A C6A 1_555 1_555
C7A N1A 1_555 1_555
H3A C7A 1_555 1_555
C8A C7A 1_555 1_555
H4A C8A 1_555 1_555
C9A C8A 1_555 1_555
H5A C9A 1_555 1_555
C10A C6A 1_555 1_555
C11A C10A 1_555 1_555
H6A C11A 1_555 1_555
C12A C1 1_555 1_555
C13A C1A 1_555 1_555
C14A C3A 1_555 1_555
C15A C14A 1_555 1_555
H7A C15A 1_555 1_555
H8A C15A 1_555 1_555
H9A C15A 1_555 1_555
C16A C14A 1_555 1_555
H10A C16A 1_555 1_555
H11A C16A 1_555 1_555
H12A C16A 1_555 1_555
C17A C14A 1_555 1_555
H13A C17A 1_555 1_555
H14A C17A 1_555 1_555
H15A C17A 1_555 1_555
C5 C13 1_555 1_555
C9 C10 1_555 1_555
C12 C13 1_555 1_555
C5A C13A 1_555 1_555
C9A C10A 1_555 1_555
C11A C12A 1_555 1_555
C12A C13A 1_555 1_555

#END
