
#######################################################################
#
#                 Cambridge Crystallographic Data Centre
#                                CCDC 
#
#######################################################################
#
# If this CIF has been generated from an entry in the Cambridge 
# Structural Database, then it will include bibliographic, chemical, 
# crystal, experimental, refinement or atomic coordinate data resulting 
# from the CCDC's data processing and validation procedures.
#
#######################################################################

data_ICUQOP
_chemical_formula_moiety         'C32 H28 S2'
_chemical_name_systematic        
2,9-di-t-butylperylo[11,10-b:5,4-b']dithiophene
_symmetry_cell_setting           monoclinic
_symmetry_space_group_name_H-M   'P 2/m'
_symmetry_Int_Tables_number      10
_space_group_name_Hall           '-P 2y'
loop_
_symmetry_equiv_pos_site_id
_symmetry_equiv_pos_as_xyz
1 x,y,z
2 -x,y,-z
3 -x,-y,-z
4 x,-y,z
_cell_length_a                   14.1153(14)
_cell_length_b                   6.9565(7)
_cell_length_c                   24.324(3)
_cell_angle_alpha                90
_cell_angle_beta                 91.144(3)
_cell_angle_gamma                90
_cell_volume                     2387.97
_exptl_crystal_colour            yellow
_exptl_crystal_description       needle
_cell_formula_units_Z            4
loop_
_atom_site_label
_atom_site_type_symbol
_atom_site_fract_x
_atom_site_fract_y
_atom_site_fract_z
C1 C 1.0244(4) 0.5000 0.4419(2)
C2 C 1.0456(4) 0.5000 0.3868(2)
H1 H 1.1104 0.5000 0.3768
C3 C 0.9755(4) 0.5000 0.3446(2)
C4 C 0.8835(4) 0.5000 0.3591(2)
H2 H 0.8355 0.5000 0.3311
C5 C 0.8569(4) 0.5000 0.4149(2)
C6 C 0.7593(4) 0.5000 0.4292(2)
C7 C 0.6763(4) 0.5000 0.3952(2)
H3 H 0.6779 0.5000 0.3562
C8 C 0.5957(4) 0.5000 0.4233(3)
H4 H 0.5344 0.5000 0.4065
S1 S 0.61543(10) 0.5000 0.49373(7)
C9 C 0.7372(4) 0.5000 0.4851(2)
C10 C 0.8065(4) 0.5000 0.5265(2)
H5 H 0.7884 0.5000 0.5639
C11 C 0.9008(3) 0.5000 0.5139(2)
C12 C 0.9280(4) 0.5000 0.4571(2)
C13 C 1.0047(4) 0.5000 0.2839(2)
C14 C 1.0613(4) 0.6807(10) 0.27129(19)
H6 H 1.0234 0.7945 0.2797
H7 H 1.1197 0.6819 0.2938
H8 H 1.0773 0.6819 0.2323
C15 C 0.9185(5) 0.5000 0.2445(2)
C1A C 0.9756(4) 0.5000 0.5581(2)
C2A C 0.9544(4) 0.5000 0.6132(2)
H1A H 0.8896 0.5000 0.6232
C3A C 1.0245(4) 0.5000 0.6554(2)
C4A C 1.1165(4) 0.5000 0.6409(2)
H2A H 1.1645 0.5000 0.6689
C5A C 1.1431(4) 0.5000 0.5851(2)
C6A C 1.2407(4) 0.5000 0.5708(2)
C7A C 1.3237(4) 0.5000 0.6048(2)
H3A H 1.3221 0.5000 0.6438
C8A C 1.4043(4) 0.5000 0.5767(3)
H4A H 1.4656 0.5000 0.5935
S1A S 1.38457(10) 0.5000 0.50627(7)
C9A C 1.2628(4) 0.5000 0.5149(2)
C10A C 1.1935(4) 0.5000 0.4735(2)
H5A H 1.2116 0.5000 0.4361
C11A C 1.0992(3) 0.5000 0.4861(2)
C12A C 1.0720(4) 0.5000 0.5429(2)
C13A C 0.9953(4) 0.5000 0.7161(2)
C14A C 0.9387(4) 0.6807(10) 0.72871(19)
H6A H 0.9766 0.7945 0.7203
H7A H 0.8803 0.6819 0.7062
H8A H 0.9227 0.6819 0.7677
C15A C 1.0815(5) 0.5000 0.7555(2)
C14B C 0.9387(4) 0.3193(10) 0.72871(19)
H6B H 0.9766 0.2055 0.7203
H7B H 0.8803 0.3181 0.7062
H8B H 0.9227 0.3181 0.7677
C14C C 1.0613(4) 0.3193(10) 0.27129(19)
H6C H 1.0234 0.2055 0.2797
H7C H 1.1197 0.3181 0.2938
H8C H 1.0773 0.3181 0.2323
C16 C 0.9267(4) 1.0000 0.5414(2)
C17 C 0.8547(4) 1.0000 0.5792(2)
H9 H 0.8720 1.0000 0.6172
C18 C 0.7580(4) 1.0000 0.5652(2)
C19 C 0.7346(4) 1.0000 0.5099(2)
H10 H 0.6696 1.0000 0.4990
C20 C 0.8038(4) 1.0000 0.4690(2)
C21 C 0.7768(4) 1.0000 0.4120(2)
C22 C 0.6847(4) 1.0000 0.3877(2)
H11 H 0.6281 1.0000 0.4082
C23 C 0.6862(4) 1.0000 0.3326(3)
H12 H 0.6306 1.0000 0.3100
S2 S 0.79948(11) 1.0000 0.30703(6)
C24 C 0.8476(4) 1.0000 0.3736(2)
C25 C 0.9436(4) 1.0000 0.3880(2)
H13 H 0.9896 1.0000 0.3600
C26 C 0.9726(4) 1.0000 0.4426(2)
C27 C 0.9011(4) 1.0000 0.4835(2)
C28 C 0.6821(4) 1.0000 0.6096(2)
C29 C 0.6939(4) 1.1784(9) 0.6450(2)
H14 H 0.6862 1.2933 0.6219
H15 H 0.6459 1.1787 0.6735
H16 H 0.7572 1.1787 0.6622
C30 C 0.5819(4) 1.0000 0.5856(3)
C16A C 1.0733(4) 1.0000 0.4586(2)
C17A C 1.1453(4) 1.0000 0.4208(2)
H9A H 1.1280 1.0000 0.3828
C18A C 1.2420(4) 1.0000 0.4348(2)
C19A C 1.2654(4) 1.0000 0.4901(2)
H10A H 1.3304 1.0000 0.5010
C20A C 1.1962(4) 1.0000 0.5310(2)
C21A C 1.2232(4) 1.0000 0.5880(2)
C22A C 1.3153(4) 1.0000 0.6123(2)
H11A H 1.3719 1.0000 0.5918
C23A C 1.3138(4) 1.0000 0.6674(3)
H12A H 1.3694 1.0000 0.6900
S2A S 1.20052(11) 1.0000 0.69297(6)
C24A C 1.1524(4) 1.0000 0.6264(2)
C25A C 1.0564(4) 1.0000 0.6120(2)
H13A H 1.0104 1.0000 0.6400
C26A C 1.0274(4) 1.0000 0.5574(2)
C27A C 1.0989(4) 1.0000 0.5165(2)
C28A C 1.3179(4) 1.0000 0.3904(2)
C29A C 1.3061(4) 1.1784(9) 0.3550(2)
H14A H 1.3138 1.2933 0.3781
H15A H 1.3541 1.1787 0.3265
H16A H 1.2428 1.1787 0.3378
C30A C 1.4181(4) 1.0000 0.4144(3)
C29B C 1.3061(4) 0.8216(9) 0.3550(2)
H14B H 1.3138 0.7067 0.3781
H15B H 1.3541 0.8213 0.3265
H16B H 1.2428 0.8213 0.3378
C29C C 0.6939(4) 0.8216(9) 0.6450(2)
H14C H 0.6862 0.7067 0.6219
H15C H 0.6459 0.8213 0.6735
H16C H 0.7572 0.8213 0.6622
C31 C 0.5382(4) 0.5000 0.0552(2)
C32 C 0.5733(4) 0.5000 0.1096(2)
H17 H 0.6400 0.5000 0.1157
C33 C 0.5144(4) 0.5000 0.1554(2)
C34 C 0.4190(4) 0.5000 0.1463(2)
H18 H 0.3782 0.5000 0.1769
C35 C 0.3789(4) 0.5000 0.0929(2)
C36 C 0.2785(4) 0.5000 0.0843(2)
C37 C 0.2038(4) 0.5000 0.1239(3)
H19 H 0.2147 0.5000 0.1626
C38 C 0.1172(4) 0.5000 0.1001(3)
H20 H 0.0603 0.5000 0.1202
S3 S 0.11963(11) 0.5000 0.02948(7)
C39 C 0.2430(4) 0.5000 0.0311(2)
C40 C 0.3008(4) 0.5000 -0.0147(2)
H21 H 0.2728 0.5000 -0.0506
C41 C 0.3977(4) 0.5000 -0.0087(2)
C42 C 0.4386(4) 0.5000 0.0464(2)
C43 C 0.5592(4) 0.5000 0.2137(2)
C44 C 0.6184(7) 0.6717(12) 0.2215(2)
H22 H 0.5794 0.7871 0.2164
H23 H 0.6461 0.6713 0.2588
H24 H 0.6692 0.6713 0.1947
C45 C 0.4875(7) 0.5000 0.2568(3)
C31A C 0.4618(4) 0.5000 -0.0552(2)
C32A C 0.4267(4) 0.5000 -0.1096(2)
H17A H 0.3600 0.5000 -0.1157
C33A C 0.4856(4) 0.5000 -0.1554(2)
C34A C 0.5810(4) 0.5000 -0.1463(2)
H18A H 0.6218 0.5000 -0.1769
C35A C 0.6211(4) 0.5000 -0.0929(2)
C36A C 0.7215(4) 0.5000 -0.0843(2)
C37A C 0.7962(4) 0.5000 -0.1239(3)
H19A H 0.7853 0.5000 -0.1626
C38A C 0.8828(4) 0.5000 -0.1001(3)
H20A H 0.9397 0.5000 -0.1202
S3A S 0.88037(11) 0.5000 -0.02948(7)
C39A C 0.7570(4) 0.5000 -0.0311(2)
C40A C 0.6992(4) 0.5000 0.0147(2)
H21A H 0.7272 0.5000 0.0506
C41A C 0.6023(4) 0.5000 0.0087(2)
C42A C 0.5614(4) 0.5000 -0.0464(2)
C43A C 0.4408(4) 0.5000 -0.2137(2)
C44A C 0.3816(7) 0.6717(12) -0.2215(2)
H22A H 0.4206 0.7871 -0.2164
H23A H 0.3539 0.6713 -0.2588
H24A H 0.3308 0.6713 -0.1947
C45A C 0.5125(7) 0.5000 -0.2568(3)
C44B C 0.3816(7) 0.3283(12) -0.2215(2)
H22B H 0.4206 0.2129 -0.2164
H23B H 0.3539 0.3287 -0.2588
H24B H 0.3308 0.3287 -0.1947
C44C C 0.6184(7) 0.3283(12) 0.2215(2)
H22C H 0.5794 0.2129 0.2164
H23C H 0.6461 0.3287 0.2588
H24C H 0.6692 0.3287 0.1947
C46 C 0.4178(4) 0.0000 -0.0371(2)
C47 C 0.3383(4) 0.0000 -0.0711(2)
H25 H 0.3478 0.0000 -0.1096
C48 C 0.2453(4) 0.0000 -0.0532(2)
C49 C 0.2341(4) 0.0000 0.0037(3)
H26 H 0.1718 0.0000 0.0179
C50 C 0.3104(4) 0.0000 0.0401(2)
C51 C 0.2971(4) 0.0000 0.0989(2)
C52 C 0.2108(4) 0.0000 0.1289(3)
H27 H 0.1496 0.0000 0.1119
C53 C 0.2259(5) 0.0000 0.1837(3)
H28 H 0.1763 0.0000 0.2096
S4 S 0.34362(13) 0.0000 0.20200(7)
C54 C 0.3758(4) 0.0000 0.1330(2)
C55 C 0.4685(4) 0.0000 0.1139(2)
H29 H 0.5204 0.0000 0.1394
C56 C 0.4846(4) 0.0000 0.0591(2)
C57 C 0.4042(4) 0.0000 0.0209(2)
C58 C 0.1604(4) 0.0000 -0.0934(3)
C59 C 0.1612(6) -0.1795(15) -0.1259(4)
H30 H 0.1606 -0.2902 -0.1009
H31 H 0.1050 -0.1838 -0.1502
H32 H 0.2184 -0.1838 -0.1480
C60 C 0.0651(7) 0.0000 -0.0619(4)
C46A C 0.5822(4) 0.0000 0.0371(2)
C47A C 0.6617(4) 0.0000 0.0711(2)
H25A H 0.6522 0.0000 0.1096
C48A C 0.7547(4) 0.0000 0.0532(2)
C49A C 0.7659(4) 0.0000 -0.0037(3)
H26A H 0.8282 0.0000 -0.0179
C50A C 0.6896(4) 0.0000 -0.0401(2)
C51A C 0.7029(4) 0.0000 -0.0989(2)
C52A C 0.7892(4) 0.0000 -0.1289(3)
H27A H 0.8504 0.0000 -0.1119
C53A C 0.7741(5) 0.0000 -0.1837(3)
H28A H 0.8237 0.0000 -0.2096
S4A S 0.65638(13) 0.0000 -0.20200(7)
C54A C 0.6242(4) 0.0000 -0.1330(2)
C55A C 0.5315(4) 0.0000 -0.1139(2)
H29A H 0.4796 0.0000 -0.1394
C56A C 0.5154(4) 0.0000 -0.0591(2)
C57A C 0.5958(4) 0.0000 -0.0209(2)
C58A C 0.8396(4) 0.0000 0.0934(3)
C59A C 0.8388(6) -0.1795(15) 0.1259(4)
H30A H 0.8394 -0.2902 0.1009
H31A H 0.8950 -0.1838 0.1502
H32A H 0.7816 -0.1838 0.1480
C60A C 0.9349(7) 0.0000 0.0619(4)
C59B C 0.8388(6) 0.1795(15) 0.1259(4)
H30B H 0.8394 0.2902 0.1009
H31B H 0.8950 0.1838 0.1502
H32B H 0.7816 0.1838 0.1480
C59C C 0.1612(6) 0.1795(15) -0.1259(4)
H30C H 0.1606 0.2902 -0.1009
H31C H 0.1050 0.1838 -0.1502
H32C H 0.2184 0.1838 -0.1480
H33? H 0.8805 0.3843 0.2507
H34? H 0.5721 0.8842 0.5633
C61? C 0.0934(18) 0.166(4) -0.0856(10)
H35? H 0.1278 0.2872 -0.0896
H36? H 0.0421 0.1591 -0.1133
H37? H 0.0666 0.1591 -0.0488
C62? C 0.187(3) 0.0000 -0.1558(14)
H38? H 0.2172 -0.1222 -0.1650
H39? H 0.0627 -0.1131 -0.0379
H40? H 0.0119 -0.0039 -0.0883
H41? H 0.0610 0.1169 -0.0395
H42? H 0.4487 0.6165 0.2536
H43? H 0.5191 0.4970 0.2931
H44? H 0.4469 0.3865 0.2526
H45? H 0.2306 -0.1061 -0.1629
H46? H 0.1292 -0.0161 -0.1785
H47? H 0.8799 0.3856 0.2512
H48? H 0.5364 0.9984 0.6156
H49? H 0.5725 0.8858 0.5626
H50? H 0.9400 0.4987 0.2065
loop_
_geom_bond_atom_site_label_1
_geom_bond_atom_site_label_2
_geom_bond_site_symmetry_1
_geom_bond_site_symmetry_2
C1 C2 1_555 1_555
C2 H1 1_555 1_555
C3 C2 1_555 1_555
C4 C3 1_555 1_555
H2 C4 1_555 1_555
C5 C4 1_555 1_555
C6 C5 1_555 1_555
C7 C6 1_555 1_555
H3 C7 1_555 1_555
C8 C7 1_555 1_555
H4 C8 1_555 1_555
S1 C8 1_555 1_555
C9 C6 1_555 1_555
C10 C9 1_555 1_555
H5 C10 1_555 1_555
C11 C10 1_555 1_555
C12 C1 1_555 1_555
C13 C3 1_555 1_555
C14 C13 1_555 1_555
H6 C14 1_555 1_555
H7 C14 1_555 1_555
H8 C14 1_555 1_555
C15 C13 1_555 1_555
C16 C17 1_555 1_555
C17 H9 1_555 1_555
C18 C17 1_555 1_555
C19 C18 1_555 1_555
H10 C19 1_555 1_555
C20 C19 1_555 1_555
C21 C20 1_555 1_555
C22 C21 1_555 1_555
H11 C22 1_555 1_555
C23 C22 1_555 1_555
H12 C23 1_555 1_555
S2 C23 1_555 1_555
C24 C21 1_555 1_555
C25 C24 1_555 1_555
H13 C25 1_555 1_555
C26 C25 1_555 1_555
C27 C16 1_555 1_555
C28 C18 1_555 1_555
C29 C28 1_555 1_555
H14 C29 1_555 1_555
H15 C29 1_555 1_555
H16 C29 1_555 1_555
C30 C28 1_555 1_555
C31 C32 1_555 1_555
C32 H17 1_555 1_555
C33 C32 1_555 1_555
C34 C33 1_555 1_555
H18 C34 1_555 1_555
C35 C34 1_555 1_555
C36 C35 1_555 1_555
C37 C36 1_555 1_555
H19 C37 1_555 1_555
C38 C37 1_555 1_555
H20 C38 1_555 1_555
S3 C38 1_555 1_555
C39 C36 1_555 1_555
C40 C39 1_555 1_555
H21 C40 1_555 1_555
C41 C40 1_555 1_555
C42 C31 1_555 1_555
C43 C33 1_555 1_555
C44 C43 1_555 1_555
H22 C44 1_555 1_555
H23 C44 1_555 1_555
H24 C44 1_555 1_555
C45 C43 1_555 1_555
C46 C47 1_555 1_555
C47 H25 1_555 1_555
C48 C47 1_555 1_555
C49 C48 1_555 1_555
H26 C49 1_555 1_555
C50 C49 1_555 1_555
C51 C50 1_555 1_555
C52 C51 1_555 1_555
H27 C52 1_555 1_555
C53 C52 1_555 1_555
H28 C53 1_555 1_555
S4 C53 1_555 1_555
C54 C51 1_555 1_555
C55 C54 1_555 1_555
H29 C55 1_555 1_555
C56 C55 1_555 1_555
C57 C46 1_555 1_555
C58 C48 1_555 1_555
C59 C58 1_555 1_555
H30 C59 1_555 1_555
H31 C59 1_555 1_555
H32 C59 1_555 1_555
C60 C58 1_555 1_555
C1A C11 1_555 1_555
C2A C1A 1_555 1_555
H1A C2A 1_555 1_555
C3A C2A 1_555 1_555
C4A C3A 1_555 1_555
H2A C4A 1_555 1_555
C5A C4A 1_555 1_555
C6A C5A 1_555 1_555
C7A C6A 1_555 1_555
H3A C7A 1_555 1_555
C8A C7A 1_555 1_555
H4A C8A 1_555 1_555
S1A C8A 1_555 1_555
C9A C6A 1_555 1_555
C10A C9A 1_555 1_555
H5A C10A 1_555 1_555
C11A C1 1_555 1_555
C12A C1A 1_555 1_555
C13A C3A 1_555 1_555
C14A C13A 1_555 1_555
H6A C14A 1_555 1_555
H7A C14A 1_555 1_555
H8A C14A 1_555 1_555
C15A C13A 1_555 1_555
C14B C13A 1_555 1_555
H6B C14B 1_555 1_555
H7B C14B 1_555 1_555
H8B C14B 1_555 1_555
C14C C13 1_555 1_555
H6C C14C 1_555 1_555
H7C C14C 1_555 1_555
H8C C14C 1_555 1_555
C16A C26 1_555 1_555
C17A C16A 1_555 1_555
H9A C17A 1_555 1_555
C18A C17A 1_555 1_555
C19A C18A 1_555 1_555
H10A C19A 1_555 1_555
C20A C19A 1_555 1_555
C21A C20A 1_555 1_555
C22A C21A 1_555 1_555
H11A C22A 1_555 1_555
C23A C22A 1_555 1_555
H12A C23A 1_555 1_555
S2A C23A 1_555 1_555
C24A C21A 1_555 1_555
C25A C24A 1_555 1_555
H13A C25A 1_555 1_555
C26A C16 1_555 1_555
C27A C16A 1_555 1_555
C28A C18A 1_555 1_555
C29A C28A 1_555 1_555
H14A C29A 1_555 1_555
H15A C29A 1_555 1_555
H16A C29A 1_555 1_555
C30A C28A 1_555 1_555
C29B C28A 1_555 1_555
H14B C29B 1_555 1_555
H15B C29B 1_555 1_555
H16B C29B 1_555 1_555
C29C C28 1_555 1_555
H14C C29C 1_555 1_555
H15C C29C 1_555 1_555
H16C C29C 1_555 1_555
C31A C41 1_555 1_555
C32A C31A 1_555 1_555
H17A C32A 1_555 1_555
C33A C32A 1_555 1_555
C34A C33A 1_555 1_555
H18A C34A 1_555 1_555
C35A C34A 1_555 1_555
C36A C35A 1_555 1_555
C37A C36A 1_555 1_555
H19A C37A 1_555 1_555
C38A C37A 1_555 1_555
H20A C38A 1_555 1_555
S3A C38A 1_555 1_555
C39A C36A 1_555 1_555
C40A C39A 1_555 1_555
H21A C40A 1_555 1_555
C41A C31 1_555 1_555
C42A C31A 1_555 1_555
C43A C33A 1_555 1_555
C44A C43A 1_555 1_555
H22A C44A 1_555 1_555
H23A C44A 1_555 1_555
H24A C44A 1_555 1_555
C45A C43A 1_555 1_555
C44B C43A 1_555 1_555
H22B C44B 1_555 1_555
H23B C44B 1_555 1_555
H24B C44B 1_555 1_555
C44C C43 1_555 1_555
H22C C44C 1_555 1_555
H23C C44C 1_555 1_555
H24C C44C 1_555 1_555
C46A C56 1_555 1_555
C47A C46A 1_555 1_555
H25A C47A 1_555 1_555
C48A C47A 1_555 1_555
C49A C48A 1_555 1_555
H26A C49A 1_555 1_555
C50A C49A 1_555 1_555
C51A C50A 1_555 1_555
C52A C51A 1_555 1_555
H27A C52A 1_555 1_555
C53A C52A 1_555 1_555
H28A C53A 1_555 1_555
S4A C53A 1_555 1_555
C54A C51A 1_555 1_555
C55A C54A 1_555 1_555
H29A C55A 1_555 1_555
C56A C46 1_555 1_555
C57A C46A 1_555 1_555
C58A C48A 1_555 1_555
C59A C58A 1_555 1_555
H30A C59A 1_555 1_555
H31A C59A 1_555 1_555
H32A C59A 1_555 1_555
C60A C58A 1_555 1_555
C59B C58A 1_555 1_555
H30B C59B 1_555 1_555
H31B C59B 1_555 1_555
H32B C59B 1_555 1_555
C59C C58 1_555 1_555
H30C C59C 1_555 1_555
H31C C59C 1_555 1_555
H32C C59C 1_555 1_555
C5 C12 1_555 1_555
S1 C9 1_555 1_555
C11 C12 1_555 1_555
C20 C27 1_555 1_555
S2 C24 1_555 1_555
C26 C27 1_555 1_555
C35 C42 1_555 1_555
S3 C39 1_555 1_555
C41 C42 1_555 1_555
C50 C57 1_555 1_555
S4 C54 1_555 1_555
C56 C57 1_555 1_555
C5A C12A 1_555 1_555
S1A C9A 1_555 1_555
C10A C11A 1_555 1_555
C11A C12A 1_555 1_555
C20A C27A 1_555 1_555
S2A C24A 1_555 1_555
C25A C26A 1_555 1_555
C26A C27A 1_555 1_555
C35A C42A 1_555 1_555
S3A C39A 1_555 1_555
C40A C41A 1_555 1_555
C41A C42A 1_555 1_555
C50A C57A 1_555 1_555
S4A C54A 1_555 1_555
C55A C56A 1_555 1_555
C56A C57A 1_555 1_555

#END
