
#######################################################################
#
#                 Cambridge Crystallographic Data Centre
#                                CCDC 
#
#######################################################################
#
# If this CIF has been generated from an entry in the Cambridge 
# Structural Database, then it will include bibliographic, chemical, 
# crystal, experimental, refinement or atomic coordinate data resulting 
# from the CCDC's data processing and validation procedures.
#
#######################################################################

data_ICURAC
_chemical_formula_moiety         'C44 H36'
_chemical_name_systematic        9,19-di-t-butyltetrabenzo[a,hi,l,st]pentacene
_symmetry_cell_setting           monoclinic
_symmetry_space_group_name_H-M   'C 2/c'
_symmetry_Int_Tables_number      15
_space_group_name_Hall           '-C 2yn'
loop_
_symmetry_equiv_pos_site_id
_symmetry_equiv_pos_as_xyz
1 x,y,z
2 -x,y,1/2-z
3 1/2+x,1/2+y,z
4 1/2-x,1/2+y,1/2-z
5 -x,-y,-z
6 x,-y,1/2+z
7 1/2-x,1/2-y,-z
8 1/2+x,1/2-y,1/2+z
_cell_length_a                   28.725(3)
_cell_length_b                   6.0124(6)
_cell_length_c                   19.5850(19)
_cell_angle_alpha                90
_cell_angle_beta                 119.579(2)
_cell_angle_gamma                90
_cell_volume                     2941.64
_exptl_crystal_colour            yellow
_exptl_crystal_description       needle
_cell_formula_units_Z            4
loop_
_atom_site_label
_atom_site_type_symbol
_atom_site_fract_x
_atom_site_fract_y
_atom_site_fract_z
C1 C 0.29792(8) 0.1177(3) 0.52695(11)
C2 C 0.34594(8) 0.0029(3) 0.55833(11)
H1 H 0.3514 -0.1193 0.5922
C3 C 0.38663(8) 0.0601(3) 0.54206(11)
C4 C 0.37649(8) 0.2297(3) 0.48927(12)
H2 H 0.4046(8) 0.276(3) 0.4794(12)
C5 C 0.32771(8) 0.3473(3) 0.45200(11)
C6 C 0.31654(7) 0.5223(3) 0.39480(11)
C7 C 0.34250(7) 0.5467(3) 0.34745(11)
C8 C 0.37301(8) 0.3789(4) 0.33719(12)
H3 H 0.3777(7) 0.236(3) 0.3612(11)
C9 C 0.39416(9) 0.4061(4) 0.28862(13)
H4 H 0.4143 0.2891 0.2830
C10 C 0.38649(9) 0.6048(4) 0.24708(13)
H5 H 0.4022 0.6251 0.2147
C11 C 0.35614(8) 0.7689(4) 0.25368(13)
H6 H 0.3507 0.9034 0.2253
C12 C 0.33268(8) 0.7435(3) 0.30149(11)
C13 C 0.29667(8) 0.9071(3) 0.30068(12)
H7 H 0.2924 1.0433 0.2736
C14 C 0.26848(8) 0.8710(3) 0.33796(11)
H8 H 0.2430 0.9784 0.3340
C15 C 0.27618(8) 0.6754(3) 0.38314(11)
C16 C 0.24102(8) 0.6313(3) 0.41254(11)
H9 H 0.2146 0.7391 0.4045
C17 C 0.24328(7) 0.4408(3) 0.45193(11)
C18 C 0.28912(7) 0.2990(3) 0.47586(11)
C19 C 0.44127(8) -0.0575(4) 0.58128(12)
C20 C 0.48542(9) 0.1144(4) 0.62701(14)
H10 H 0.5204 0.0408 0.6512
H11 H 0.4799 0.1815 0.6680
H12 H 0.4842 0.2305 0.5910
C21 C 0.45050(9) -0.1650(4) 0.51810(14)
H13 H 0.4856 -0.2376 0.5430
H14 H 0.4492 -0.0504 0.4816
H15 H 0.4225 -0.2759 0.4893
C22 C 0.44488(9) -0.2395(4) 0.63811(15)
H16 H 0.4798 -0.3130 0.6604
H17 H 0.4165 -0.3491 0.6099
H18 H 0.4407 -0.1733 0.6805
C1F C 0.20208(8) 0.3823(3) 0.47305(11)
C2F C 0.15406(8) 0.4971(3) 0.44167(11)
H1F H 0.1486 0.6193 0.4078
C3F C 0.11337(8) 0.4399(3) 0.45794(11)
C4F C 0.12351(8) 0.2703(3) 0.51073(12)
H2F H 0.0954(8) 0.224(3) 0.5206(12)
C5F C 0.17229(8) 0.1527(3) 0.54800(11)
C6F C 0.18346(7) -0.0223(3) 0.60520(11)
C7F C 0.15750(7) -0.0467(3) 0.65255(11)
C8F C 0.12699(8) 0.1211(4) 0.66281(12)
H3F H 0.1223(7) 0.264(3) 0.6388(11)
C9F C 0.10584(9) 0.0939(4) 0.71138(13)
H4F H 0.0857 0.2109 0.7170
C10F C 0.11351(9) -0.1048(4) 0.75292(13)
H5F H 0.0978 -0.1251 0.7853
C11F C 0.14386(8) -0.2689(4) 0.74632(13)
H6F H 0.1493 -0.4034 0.7747
C12F C 0.16732(8) -0.2435(3) 0.69851(11)
C13F C 0.20333(8) -0.4071(3) 0.69932(12)
H7F H 0.2076 -0.5433 0.7264
C14F C 0.23152(8) -0.3710(3) 0.66204(11)
H8F H 0.2570 -0.4784 0.6660
C15F C 0.22382(8) -0.1754(3) 0.61686(11)
C16F C 0.25898(8) -0.1313(3) 0.58746(11)
H9F H 0.2854 -0.2391 0.5955
C17F C 0.25672(7) 0.0592(3) 0.54807(11)
C18F C 0.21088(7) 0.2010(3) 0.52414(11)
C19F C 0.05873(8) 0.5575(4) 0.41872(12)
C20F C 0.01458(9) 0.3856(4) 0.37299(14)
H10F H -0.0204 0.4592 0.3488
H11F H 0.0201 0.3185 0.3320
H12F H 0.0158 0.2695 0.4090
C21F C 0.04950(9) 0.6650(4) 0.48190(14)
H13F H 0.0144 0.7376 0.4570
H14F H 0.0508 0.5504 0.5184
H15F H 0.0775 0.7759 0.5107
C22F C 0.05512(9) 0.7395(4) 0.36189(15)
H16F H 0.0202 0.8130 0.3396
H17F H 0.0835 0.8491 0.3901
H18F H 0.0593 0.6733 0.3195
loop_
_geom_bond_atom_site_label_1
_geom_bond_atom_site_label_2
_geom_bond_site_symmetry_1
_geom_bond_site_symmetry_2
C1 C2 1_555 1_555
C2 H1 1_555 1_555
C3 C2 1_555 1_555
C4 C3 1_555 1_555
H2 C4 1_555 1_555
C5 C4 1_555 1_555
C6 C5 1_555 1_555
C7 C6 1_555 1_555
C8 C7 1_555 1_555
H3 C8 1_555 1_555
C9 C8 1_555 1_555
H4 C9 1_555 1_555
C10 C9 1_555 1_555
H5 C10 1_555 1_555
C11 C10 1_555 1_555
H6 C11 1_555 1_555
C12 C7 1_555 1_555
C13 C12 1_555 1_555
H7 C13 1_555 1_555
C14 C13 1_555 1_555
H8 C14 1_555 1_555
C15 C6 1_555 1_555
C16 C15 1_555 1_555
H9 C16 1_555 1_555
C17 C16 1_555 1_555
C18 C1 1_555 1_555
C19 C3 1_555 1_555
C20 C19 1_555 1_555
H10 C20 1_555 1_555
H11 C20 1_555 1_555
H12 C20 1_555 1_555
C21 C19 1_555 1_555
H13 C21 1_555 1_555
H14 C21 1_555 1_555
H15 C21 1_555 1_555
C22 C19 1_555 1_555
H16 C22 1_555 1_555
H17 C22 1_555 1_555
H18 C22 1_555 1_555
C1F C17 1_555 1_555
C2F C1F 1_555 1_555
H1F C2F 1_555 1_555
C3F C2F 1_555 1_555
C4F C3F 1_555 1_555
H2F C4F 1_555 1_555
C5F C4F 1_555 1_555
C6F C5F 1_555 1_555
C7F C6F 1_555 1_555
C8F C7F 1_555 1_555
H3F C8F 1_555 1_555
C9F C8F 1_555 1_555
H4F C9F 1_555 1_555
C10F C9F 1_555 1_555
H5F C10F 1_555 1_555
C11F C10F 1_555 1_555
H6F C11F 1_555 1_555
C12F C7F 1_555 1_555
C13F C12F 1_555 1_555
H7F C13F 1_555 1_555
C14F C13F 1_555 1_555
H8F C14F 1_555 1_555
C15F C6F 1_555 1_555
C16F C15F 1_555 1_555
H9F C16F 1_555 1_555
C17F C1 1_555 1_555
C18F C1F 1_555 1_555
C19F C3F 1_555 1_555
C20F C19F 1_555 1_555
H10F C20F 1_555 1_555
H11F C20F 1_555 1_555
H12F C20F 1_555 1_555
C21F C19F 1_555 1_555
H13F C21F 1_555 1_555
H14F C21F 1_555 1_555
H15F C21F 1_555 1_555
C22F C19F 1_555 1_555
H16F C22F 1_555 1_555
H17F C22F 1_555 1_555
H18F C22F 1_555 1_555
C5 C18 1_555 1_555
C11 C12 1_555 1_555
C14 C15 1_555 1_555
C17 C18 1_555 1_555
C5F C18F 1_555 1_555
C11F C12F 1_555 1_555
C14F C15F 1_555 1_555
C16F C17F 1_555 1_555
C17F C18F 1_555 1_555

#END
