
#######################################################################
#
#                 Cambridge Crystallographic Data Centre
#                                CCDC 
#
#######################################################################
#
# If this CIF has been generated from an entry in the Cambridge 
# Structural Database, then it will include bibliographic, chemical, 
# crystal, experimental, refinement or atomic coordinate data resulting 
# from the CCDC's data processing and validation procedures.
#
#######################################################################

data_ICUSOP
_chemical_formula_moiety         'C18 H10 Cl2 O2'
_chemical_name_systematic        
2,3-Dichloro-trans-1,4-diethynyl-1,4-dihydroxy-1,4-dihydroanthracene
_symmetry_cell_setting           orthorhombic
_symmetry_space_group_name_H-M   'P 21 21 21'
_symmetry_Int_Tables_number      19
_space_group_name_Hall           'P 2ac 2ab'
loop_
_symmetry_equiv_pos_site_id
_symmetry_equiv_pos_as_xyz
1 x,y,z
2 1/2-x,-y,1/2+z
3 -x,1/2+y,1/2-z
4 1/2+x,1/2-y,-z
_cell_length_a                   6.71390(10)
_cell_length_b                   7.47770(10)
_cell_length_c                   29.8603(4)
_cell_angle_alpha                90
_cell_angle_beta                 90
_cell_angle_gamma                90
_cell_volume                     1499.12
_exptl_crystal_colour            colorless
_exptl_crystal_description       Needle
_chemical_melting_point          '456 K'
_cell_formula_units_Z            4
loop_
_atom_site_label
_atom_site_type_symbol
_atom_site_fract_x
_atom_site_fract_y
_atom_site_fract_z
Cl1 Cl 0.09689(7) 0.63321(6) 0.016657(14)
Cl2 Cl -0.04790(7) 0.24028(7) 0.002386(14)
O1 O 0.0794(2) 0.69607(17) 0.11848(4)
C1 C 0.1941(3) 0.5480(2) 0.10305(6)
C2 C 0.1053(3) 0.4777(2) 0.05967(5)
O2 O 0.1508(2) 0.02078(17) 0.07556(5)
C3 C 0.1886(3) 0.4085(2) 0.14034(6)
C4 C 0.0302(3) 0.1714(2) 0.08969(6)
C5 C 0.1144(3) 0.1142(2) 0.16922(6)
C6 C 0.2577(3) 0.3406(3) 0.21841(6)
C7 C 0.0381(3) 0.3140(2) 0.05364(5)
C8 C 0.1147(2) 0.2337(2) 0.13405(5)
C9 C 0.2582(3) 0.4595(3) 0.18181(6)
C10 C 0.1864(3) 0.1641(3) 0.21202(6)
C11 C 0.2422(3) 0.0998(3) 0.29021(7)
C12 C -0.1803(3) 0.1166(2) 0.09552(6)
C13 C 0.1811(3) 0.0439(3) 0.24885(6)
H1 H 0.1351 -0.0751 0.2447
C14 C 0.4037(3) 0.5988(2) 0.09448(6)
C15 C 0.3111(3) 0.2762(3) 0.29675(7)
C16 C 0.3212(3) 0.3940(3) 0.26210(6)
H2 H 0.3704 0.5115 0.2669
C17 C 0.5736(3) 0.6340(3) 0.08846(7)
C18 C -0.3512(3) 0.0804(3) 0.09925(7)
H3 H 0.242(4) 0.020(3) 0.3154(8)
H4 H 0.302(3) 0.580(3) 0.1857(7)
H5 H 0.344(4) 0.314(4) 0.3268(9)
H6 H 0.711(4) 0.666(4) 0.0852(9)
H7 H 0.056(3) -0.002(3) 0.1649(6)
H8 H 0.113(4) 0.787(3) 0.1058(8)
H9 H -0.494(4) 0.054(4) 0.1017(9)
H10 H 0.122(5) -0.009(4) 0.0497(9)
loop_
_geom_bond_atom_site_label_1
_geom_bond_atom_site_label_2
_geom_bond_site_symmetry_1
_geom_bond_site_symmetry_2
Cl1 C2 1_555 1_555
Cl2 C7 1_555 1_555
O1 C1 1_555 1_555
C1 C2 1_555 1_555
C2 C7 1_555 1_555
O2 C4 1_555 1_555
C3 C1 1_555 1_555
C4 C7 1_555 1_555
C5 C8 1_555 1_555
C6 C9 1_555 1_555
C8 C3 1_555 1_555
C9 C3 1_555 1_555
C10 C5 1_555 1_555
C11 C13 1_555 1_555
C12 C4 1_555 1_555
C13 C10 1_555 1_555
H1 C13 1_555 1_555
C14 C1 1_555 1_555
C15 C11 1_555 1_555
C16 C6 1_555 1_555
H2 C16 1_555 1_555
C17 C14 1_555 1_555
C18 C12 1_555 1_555
H3 C11 1_555 1_555
H4 C9 1_555 1_555
H5 C15 1_555 1_555
H6 C17 1_555 1_555
H7 C5 1_555 1_555
H8 O1 1_555 1_555
H9 C18 1_555 1_555
H10 O2 1_555 1_555
C4 C8 1_555 1_555
C6 C10 1_555 1_555
C15 C16 1_555 1_555

#END
