
#######################################################################
#
#                 Cambridge Crystallographic Data Centre
#                                CCDC 
#
#######################################################################
#
# If this CIF has been generated from an entry in the Cambridge 
# Structural Database, then it will include bibliographic, chemical, 
# crystal, experimental, refinement or atomic coordinate data resulting 
# from the CCDC's data processing and validation procedures.
#
#######################################################################

data_ICUSUX
_chemical_formula_moiety         'C20 H20 N4 O2'
_chemical_name_systematic        
1-((3-methyl-4-nitro-1H-pyrazol-5-yl)methyl)-2-phenyl-1,2,3,4-tetrahydroisoquinoline
_symmetry_cell_setting           triclinic
_symmetry_space_group_name_H-M   'P -1'
_symmetry_Int_Tables_number      2
_space_group_name_Hall           '-P 1'
loop_
_symmetry_equiv_pos_site_id
_symmetry_equiv_pos_as_xyz
1 x,y,z
2 -x,-y,-z
_cell_length_a                   6.3993(3)
_cell_length_b                   11.0228(5)
_cell_length_c                   13.8844(9)
_cell_angle_alpha                106.376(5)
_cell_angle_beta                 98.689(5)
_cell_angle_gamma                106.505(3)
_cell_volume                     872.02
_exptl_crystal_colour            colorless
_exptl_crystal_description       block
_cell_formula_units_Z            2
loop_
_atom_site_label
_atom_site_type_symbol
_atom_site_fract_x
_atom_site_fract_y
_atom_site_fract_z
N1 N 0.3286(2) 0.15731(13) 0.76507(10)
N2 N 0.9803(3) 0.23817(17) 1.05869(14)
N3 N 0.7143(2) 0.48428(13) 1.06167(11)
N4 N 0.5516(2) 0.36537(13) 0.99874(11)
H1 H 0.4198 0.3602 0.9690
C1 C 0.4048(3) 0.20193(15) 0.68577(12)
C2 C 0.5346(3) 0.14731(16) 0.62704(13)
H2 H 0.5668 0.0732 0.6353
C3 C 0.6165(3) 0.2023(2) 0.55637(14)
H3 H 0.7058 0.1658 0.5186
C4 C 0.5674(4) 0.3104(2) 0.54125(15)
H4 H 0.6226 0.3470 0.4936
C5 C 0.4355(4) 0.3634(2) 0.59764(16)
H5 H 0.4007 0.4360 0.5876
C6 C 0.3543(3) 0.31061(18) 0.66872(14)
H6 H 0.2648 0.3477 0.7059
C7 C 0.0821(3) 0.09689(18) 0.74421(15)
H7 H 0.0119 0.1537 0.7199
H8 H 0.0420 0.0923 0.8081
C8 C -0.0067(3) -0.04329(19) 0.66366(17)
H9 H -0.1647 -0.0850 0.6595
H10 H 0.0057 -0.0369 0.5964
C9 C 0.1217(3) -0.13065(17) 0.68969(14)
C10 C 0.0285(3) -0.27099(18) 0.64872(15)
H11 H -0.1162 -0.3113 0.6053
C11 C 0.1444(4) -0.35078(19) 0.67077(16)
H12 H 0.0784 -0.4440 0.6424
C12 C 0.3587(3) -0.29315(17) 0.73494(14)
H13 H 0.4386 -0.3471 0.7495
C13 C 0.4542(3) -0.15466(16) 0.77755(13)
H14 H 0.5984 -0.1157 0.8214
C14 C 0.3370(3) -0.07208(15) 0.75570(12)
C15 C 0.4445(3) 0.07977(15) 0.80780(12)
H15 H 0.5981 0.1060 0.7989
C16 C 0.4613(3) 0.11879(15) 0.92537(12)
H16 H 0.3121 0.1091 0.9362
H17 H 0.5133 0.0563 0.9507
C17 C 0.6152(3) 0.25853(15) 0.98757(12)
C18 C 0.8353(3) 0.31165(15) 1.04752(12)
C19 C 0.8898(3) 0.45202(17) 1.09318(12)
C20 C 1.0983(3) 0.5577(2) 1.16546(14)
H18 H 1.0900 0.6449 1.1710
H19 H 1.2260 0.5484 1.1396
H20 H 1.1141 0.5483 1.2326
O1 O 1.1615(3) 0.29569(18) 1.12247(14)
O2 O 0.9220(3) 0.12050(17) 1.00114(16)
loop_
_geom_bond_atom_site_label_1
_geom_bond_atom_site_label_2
_geom_bond_site_symmetry_1
_geom_bond_site_symmetry_2
N1 C1 1_555 1_555
N2 C18 1_555 1_555
N3 N4 1_555 1_555
N4 H1 1_555 1_555
C1 C2 1_555 1_555
C2 H2 1_555 1_555
C3 C2 1_555 1_555
H3 C3 1_555 1_555
C4 C3 1_555 1_555
H4 C4 1_555 1_555
C5 C4 1_555 1_555
H5 C5 1_555 1_555
C6 C1 1_555 1_555
H6 C6 1_555 1_555
C7 N1 1_555 1_555
H7 C7 1_555 1_555
H8 C7 1_555 1_555
C8 C7 1_555 1_555
H9 C8 1_555 1_555
H10 C8 1_555 1_555
C9 C8 1_555 1_555
C10 C9 1_555 1_555
H11 C10 1_555 1_555
C11 C10 1_555 1_555
H12 C11 1_555 1_555
C12 C11 1_555 1_555
H13 C12 1_555 1_555
C13 C12 1_555 1_555
H14 C13 1_555 1_555
C14 C9 1_555 1_555
C15 N1 1_555 1_555
H15 C15 1_555 1_555
C16 C15 1_555 1_555
H16 C16 1_555 1_555
H17 C16 1_555 1_555
C17 N4 1_555 1_555
C18 C17 1_555 1_555
C19 N3 1_555 1_555
C20 C19 1_555 1_555
H18 C20 1_555 1_555
H19 C20 1_555 1_555
H20 C20 1_555 1_555
O1 N2 1_555 1_555
O2 N2 1_555 1_555
C5 C6 1_555 1_555
C13 C14 1_555 1_555
C14 C15 1_555 1_555
C16 C17 1_555 1_555
C18 C19 1_555 1_555

#END
