
#######################################################################
#
#                 Cambridge Crystallographic Data Centre
#                                CCDC 
#
#######################################################################
#
# If this CIF has been generated from an entry in the Cambridge 
# Structural Database, then it will include bibliographic, chemical, 
# crystal, experimental, refinement or atomic coordinate data resulting 
# from the CCDC's data processing and validation procedures.
#
#######################################################################

data_ICUSIL
_chemical_formula_moiety         'C25 H20 O8'
_chemical_name_systematic        
4,4,4',4'-tetramethyl-3,3',4,4'-tetrahydro-2,2'-spirobi[furo[3,4-g]chromene]-6,6',8,8'-tetraone
_symmetry_cell_setting           monoclinic
_symmetry_space_group_name_H-M   'C 2/c'
_symmetry_Int_Tables_number      15
_space_group_name_Hall           '-C 2yn'
loop_
_symmetry_equiv_pos_site_id
_symmetry_equiv_pos_as_xyz
1 x,y,z
2 -x,y,1/2-z
3 1/2+x,1/2+y,z
4 1/2-x,1/2+y,1/2-z
5 -x,-y,-z
6 x,-y,1/2+z
7 1/2-x,1/2-y,-z
8 1/2+x,1/2-y,1/2+z
_cell_length_a                   26.146(2)
_cell_length_b                   10.3960(5)
_cell_length_c                   20.1104(16)
_cell_angle_alpha                90
_cell_angle_beta                 127.778(12)
_cell_angle_gamma                90
_cell_volume                     4320.5
_exptl_crystal_colour            grey
_exptl_crystal_description       parallelepiped
_cell_formula_units_Z            8
loop_
_atom_site_label
_atom_site_type_symbol
_atom_site_fract_x
_atom_site_fract_y
_atom_site_fract_z
O1 O 0.20098(5) 0.13011(12) 0.02180(7)
O2 O 0.29347(8) -0.17249(17) -0.10269(10)
O3 O 0.35936(7) -0.27257(16) 0.02257(9)
O4 O 0.41281(9) -0.33165(18) 0.15843(11)
O5 O -0.15573(6) 0.06139(16) -0.29293(8)
O6 O -0.12210(6) -0.12336(15) -0.21720(8)
O7 O -0.06144(7) -0.27478(16) -0.11833(9)
O8 O 0.13741(5) 0.06824(12) 0.06026(7)
C1 C 0.24548(8) 0.03327(18) 0.05056(10)
C2 C 0.24982(8) -0.01752(19) -0.01019(11)
H1 H 0.2229 0.0127 -0.0666
C3 C 0.29453(9) -0.11268(19) 0.01519(11)
C4 C 0.31190(10) -0.1831(2) -0.03247(14)
C5 C 0.37380(11) -0.2629(2) 0.10274(15)
C6 C 0.33263(9) -0.1597(2) 0.09655(12)
C7 C 0.32848(9) -0.10889(19) 0.15667(11)
H2 H 0.3551 -0.1412 0.2126
C8 C 0.28470(8) -0.00974(18) 0.13425(10)
C9 C 0.28038(8) 0.04928(18) 0.19989(10)
C10 C 0.23783(8) 0.17020(18) 0.16376(10)
H3 H 0.2212 0.1867 0.1959
H4 H 0.2654 0.2442 0.1733
C11 C 0.18094(8) 0.16572(18) 0.07138(10)
C12 C 0.14696(8) 0.29371(18) 0.03873(11)
H5 H 0.1776 0.3566 0.0437
H6 H 0.1361 0.3237 0.0755
C13 C 0.08476(8) 0.29456(19) -0.05278(11)
C14 C 0.04827(8) 0.16899(19) -0.07111(10)
C15 C -0.01487(9) 0.1550(2) -0.14518(11)
H7 H -0.0354 0.2238 -0.1843
C16 C -0.04697(8) 0.0413(2) -0.16101(11)
C17 C -0.11330(9) 0.0031(2) -0.23219(12)
C18 C -0.06511(9) -0.1678(2) -0.14194(12)
C19 C -0.01825(8) -0.06090(19) -0.10565(11)
C20 C 0.04397(8) -0.05182(18) -0.03156(10)
H8 H 0.0638 -0.1217 0.0068
C21 C 0.07654(8) 0.06398(18) -0.01535(10)
C22 C 0.34813(9) 0.0914(2) 0.27730(11)
H9 H 0.3767 0.0163 0.3021
H10 H 0.3449 0.1305 0.3189
H11 H 0.3659 0.1543 0.2601
C23 C 0.25409(9) -0.0512(2) 0.22780(11)
H12 H 0.2108 -0.0784 0.1792
H13 H 0.2516 -0.0135 0.2704
H14 H 0.2831 -0.1258 0.2517
C24 C 0.09908(9) 0.3091(2) -0.11637(11)
H15 H 0.1252 0.2361 -0.1107
H16 H 0.1228 0.3893 -0.1051
H17 H 0.0582 0.3110 -0.1737
C25 C 0.04367(9) 0.4096(2) -0.06244(13)
H18 H 0.0345 0.4014 -0.0221
H19 H 0.0029 0.4111 -0.1198
H20 H 0.0674 0.4896 -0.0516
loop_
_geom_bond_atom_site_label_1
_geom_bond_atom_site_label_2
_geom_bond_site_symmetry_1
_geom_bond_site_symmetry_2
O1 C1 1_555 1_555
O2 C4 1_555 1_555
O3 C4 1_555 1_555
O4 C5 1_555 1_555
O5 C17 1_555 1_555
O6 C17 1_555 1_555
O7 C18 1_555 1_555
O8 C11 1_555 1_555
C1 C2 1_555 1_555
C2 H1 1_555 1_555
C3 C2 1_555 1_555
C4 C3 1_555 1_555
C5 O3 1_555 1_555
C6 C3 1_555 1_555
C7 C6 1_555 1_555
H2 C7 1_555 1_555
C8 C1 1_555 1_555
C9 C8 1_555 1_555
C10 C9 1_555 1_555
H3 C10 1_555 1_555
H4 C10 1_555 1_555
C11 O1 1_555 1_555
C12 C11 1_555 1_555
H5 C12 1_555 1_555
H6 C12 1_555 1_555
C13 C12 1_555 1_555
C14 C13 1_555 1_555
C15 C14 1_555 1_555
H7 C15 1_555 1_555
C16 C15 1_555 1_555
C17 C16 1_555 1_555
C18 O6 1_555 1_555
C19 C16 1_555 1_555
C20 C19 1_555 1_555
H8 C20 1_555 1_555
C21 O8 1_555 1_555
C22 C9 1_555 1_555
H9 C22 1_555 1_555
H10 C22 1_555 1_555
H11 C22 1_555 1_555
C23 C9 1_555 1_555
H12 C23 1_555 1_555
H13 C23 1_555 1_555
H14 C23 1_555 1_555
C24 C13 1_555 1_555
H15 C24 1_555 1_555
H16 C24 1_555 1_555
H17 C24 1_555 1_555
C25 C13 1_555 1_555
H18 C25 1_555 1_555
H19 C25 1_555 1_555
H20 C25 1_555 1_555
C5 C6 1_555 1_555
C7 C8 1_555 1_555
C10 C11 1_555 1_555
C14 C21 1_555 1_555
C18 C19 1_555 1_555
C20 C21 1_555 1_555

#END
