
#######################################################################
#
#                 Cambridge Crystallographic Data Centre
#                                CCDC 
#
#######################################################################
#
# If this CIF has been generated from an entry in the Cambridge 
# Structural Database, then it will include bibliographic, chemical, 
# crystal, experimental, refinement or atomic coordinate data resulting 
# from the CCDC's data processing and validation procedures.
#
#######################################################################

data_ICUTAC
_chemical_formula_moiety         'C20 H16 O2'
_chemical_name_systematic        
1,4-Dimethyl-trans-9,10-diethynyl-9,10-dihydroxy-9,10-dihydroanthacene
_symmetry_cell_setting           monoclinic
_symmetry_space_group_name_H-M   'P 21/c'
_symmetry_Int_Tables_number      14
_space_group_name_Hall           '-P 2ybc'
loop_
_symmetry_equiv_pos_site_id
_symmetry_equiv_pos_as_xyz
1 x,y,z
2 -x,1/2+y,1/2-z
3 -x,-y,-z
4 x,1/2-y,1/2+z
_cell_length_a                   10.4185(2)
_cell_length_b                   14.8637(3)
_cell_length_c                   9.6570(2)
_cell_angle_alpha                90
_cell_angle_beta                 98.7180(10)
_cell_angle_gamma                90
_cell_volume                     1478.18
_exptl_crystal_colour            colorless
_exptl_crystal_description       Plate
_chemical_melting_point          '507 K'
_cell_formula_units_Z            4
loop_
_atom_site_label
_atom_site_type_symbol
_atom_site_fract_x
_atom_site_fract_y
_atom_site_fract_z
O1 O 0.17047(9) 0.03087(6) 0.62261(9)
O2 O 0.17887(9) 0.29336(6) 1.00674(9)
C1 C 0.30712(11) 0.19451(8) 0.87697(12)
C2 C 0.19962(12) 0.33240(8) 0.77652(13)
C3 C 0.05814(12) 0.21025(8) 0.81615(13)
C4 C 0.05032(12) 0.12466(8) 0.76060(12)
C5 C 0.16830(12) 0.06400(8) 0.76188(13)
C6 C 0.29851(12) 0.10726(8) 0.82154(12)
C7 C 0.18709(12) 0.25491(8) 0.87134(12)
C8 C 0.42875(12) 0.23089(9) 0.93610(13)
C9 C 0.41246(13) 0.05492(9) 0.82078(13)
C10 C -0.05603(13) 0.26063(9) 0.81635(15)
C11 C 0.14656(12) -0.01429(8) 0.85165(13)
C12 C 0.52976(13) 0.09234(10) 0.88024(15)
C13 C -0.17470(14) 0.22539(10) 0.75861(16)
C14 C -0.07049(13) 0.08990(10) 0.70028(14)
C15 C 0.53784(13) 0.17769(10) 0.93634(15)
C16 C -0.18148(14) 0.14009(10) 0.69957(16)
C17 C 0.20256(13) 0.39059(9) 0.69301(14)
C18 C 0.12455(13) -0.07210(9) 0.92927(14)
C19 C 0.44766(16) 0.32254(10) 1.00276(16)
C20 C 0.41436(16) -0.03706(11) 0.75604(18)
H1 H -0.0750(14) 0.0296(10) 0.6602(15)
H2 H -0.0493(14) 0.3211(10) 0.8563(15)
H3 H 0.3943(16) 0.3692(11) 0.9499(17)
H4 H 0.6229(16) 0.2011(10) 0.9782(16)
H5 H -0.2517(15) 0.2597(11) 0.7600(16)
H6 H 0.4982(17) -0.0643(12) 0.7863(18)
H7 H 0.2035(15) 0.4364(11) 0.6293(17)
H8 H -0.2638(17) 0.1149(11) 0.6577(17)
H9 H 0.1081(16) -0.1187(12) 0.9891(18)
H10 H 0.5378(17) 0.3387(11) 1.0052(17)
H11 H 0.6081(17) 0.0575(11) 0.8819(17)
H12 H 0.3442(18) -0.0761(12) 0.7800(19)
H13 H 0.4283(17) 0.3210(12) 1.099(2)
H14 H 0.4050(18) -0.0298(12) 0.657(2)
H15 H 0.1735(17) 0.0803(13) 0.571(2)
H16 H 0.1766(18) 0.2473(14) 1.065(2)
loop_
_geom_bond_atom_site_label_1
_geom_bond_atom_site_label_2
_geom_bond_site_symmetry_1
_geom_bond_site_symmetry_2
O1 C5 1_555 1_555
O2 C7 1_555 1_555
C1 C6 1_555 1_555
C2 C7 1_555 1_555
C3 C4 1_555 1_555
C4 C5 1_555 1_555
C5 C6 1_555 1_555
C6 C9 1_555 1_555
C7 C1 1_555 1_555
C8 C1 1_555 1_555
C9 C12 1_555 1_555
C10 C3 1_555 1_555
C11 C5 1_555 1_555
C12 C15 1_555 1_555
C13 C10 1_555 1_555
C14 C4 1_555 1_555
C15 C8 1_555 1_555
C16 C13 1_555 1_555
C17 C2 1_555 1_555
C18 C11 1_555 1_555
C19 C8 1_555 1_555
C20 C9 1_555 1_555
H1 C14 1_555 1_555
H2 C10 1_555 1_555
H3 C19 1_555 1_555
H4 C15 1_555 1_555
H5 C13 1_555 1_555
H6 C20 1_555 1_555
H7 C17 1_555 1_555
H8 C16 1_555 1_555
H9 C18 1_555 1_555
H10 C19 1_555 1_555
H11 C12 1_555 1_555
H12 C20 1_555 1_555
H13 C19 1_555 1_555
H14 C20 1_555 1_555
H15 O1 1_555 1_555
H16 O2 1_555 1_555
C3 C7 1_555 1_555
C14 C16 1_555 1_555

#END
