
#######################################################################
#
#                 Cambridge Crystallographic Data Centre
#                                CCDC 
#
#######################################################################
#
# If this CIF has been generated from an entry in the Cambridge 
# Structural Database, then it will include bibliographic, chemical, 
# crystal, experimental, refinement or atomic coordinate data resulting 
# from the CCDC's data processing and validation procedures.
#
#######################################################################

data_ICUZOX
_chemical_formula_moiety         'C46 H44 F14 N2 O4'
_chemical_name_systematic        
'4,5,6,7,11,12,13,14-Octaethyl-2,9-bis(2,2,3,3,4,4,4-heptafluorobutyl)benzo[f]naphtho[1,2,3,4-lmn][3,8]phenanthroline-1,3,8,10(2H,9H)-tetrone unknown solvate'
_symmetry_cell_setting           monoclinic
_symmetry_space_group_name_H-M   'C c'
_symmetry_Int_Tables_number      9
_space_group_name_Hall           'C -2yc'
loop_
_symmetry_equiv_pos_site_id
_symmetry_equiv_pos_as_xyz
1 x,y,z
2 x,-y,1/2+z
3 1/2+x,1/2+y,z
4 1/2+x,1/2-y,1/2+z
_cell_length_a                   27.048(6)
_cell_length_b                   14.838(3)
_cell_length_c                   11.731(3)
_cell_angle_alpha                90
_cell_angle_beta                 101.587(3)
_cell_angle_gamma                90
_cell_volume                     4612.15
_exptl_crystal_colour            black
_exptl_crystal_description       block
_cell_formula_units_Z            4
loop_
_atom_site_label
_atom_site_type_symbol
_atom_site_fract_x
_atom_site_fract_y
_atom_site_fract_z
F1 F 0.42977(8) 0.21140(16) 0.63594(18)
F2 F 0.43243(8) 0.35534(15) 0.66174(19)
F3 F 0.51797(9) 0.1924(2) 0.7892(3)
F4 F 0.52143(9) 0.3336(2) 0.8233(2)
F5 F 0.51588(13) 0.2297(3) 0.5573(3)
F6 F 0.58072(9) 0.2763(2) 0.6790(3)
F7 F 0.52408(11) 0.3671(2) 0.5996(3)
F8 F 0.05933(10) 0.1092(2) 0.7681(3)
F9 F 0.03269(15) 0.2298(2) 0.8266(3)
F10 F -0.01995(17) 0.0819(3) 0.6078(3)
F11 F -0.05120(9) 0.2073(3) 0.6321(4)
F12 F -0.01985(13) 0.0454(3) 0.8464(3)
F13 F -0.08912(16) 0.0621(4) 0.7290(4)
F14 F -0.05897(19) 0.1633(4) 0.8511(5)
O1 O 0.11041(7) 0.11400(13) 0.55451(17)
O2 O 0.37151(8) 0.10745(13) 0.78108(19)
O3 O 0.36397(8) 0.41075(13) 0.8211(2)
O4 O 0.10216(8) 0.36369(13) 0.77110(18)
N1 N 0.36926(9) 0.26008(15) 0.7926(2)
N2 N 0.10553(9) 0.23738(15) 0.6648(2)
C1 C 0.13214(9) 0.16718(16) 0.6253(2)
C2 C 0.18676(10) 0.16493(17) 0.6742(2)
C3 C 0.21574(10) 0.08704(16) 0.6626(2)
C4 C 0.19624(10) -0.00323(17) 0.6559(2)
C5 C 0.22303(10) -0.07042(17) 0.6148(2)
C6 C 0.26919(11) -0.05041(17) 0.5749(2)
C7 C 0.29141(10) 0.03284(17) 0.5961(2)
C8 C 0.26733(10) 0.10013(16) 0.6560(2)
C9 C 0.29180(10) 0.17780(17) 0.7111(2)
C10 C 0.34667(10) 0.17599(17) 0.7618(2)
C11 C 0.34213(10) 0.33907(18) 0.8065(2)
C12 C 0.28719(10) 0.32751(17) 0.8004(2)
C13 C 0.25817(10) 0.40029(16) 0.8286(2)
C14 C 0.27766(10) 0.46777(17) 0.9152(2)
C15 C 0.25218(11) 0.54825(17) 0.9123(2)
C16 C 0.20699(11) 0.56399(17) 0.8270(2)
C17 C 0.18320(10) 0.49471(17) 0.7579(2)
C18 C 0.20649(10) 0.40673(16) 0.7703(2)
C19 C 0.18201(10) 0.32519(16) 0.7292(2)
C20 C 0.12763(10) 0.31343(17) 0.7248(2)
C21 C 0.20993(10) 0.24722(17) 0.7135(2)
C22 C 0.26403(10) 0.25074(17) 0.7413(2)
C23 C 0.42400(11) 0.2647(2) 0.8226(3)
H1 H 0.4373 0.2086 0.8633
H2 H 0.4343 0.3159 0.8763
C24 C 0.44652(11) 0.2767(2) 0.7143(3)
C25 C 0.50436(12) 0.2725(2) 0.7425(3)
C26 C 0.53156(14) 0.2842(3) 0.6426(4)
C27 C 0.05048(10) 0.23257(19) 0.6366(3)
H3 H 0.0395 0.2025 0.5605
H4 H 0.0363 0.2943 0.6306
C28 C 0.03072(11) 0.1802(2) 0.7304(3)
C29 C -0.02218(16) 0.1453(3) 0.6908(4)
C30 C -0.04863(17) 0.1012(4) 0.7785(5)
C31 C 0.15277(11) -0.02630(18) 0.7142(3)
H5 H 0.1300 -0.0692 0.6645
H6 H 0.1333 0.0291 0.7218
C32 C 0.17081(13) -0.0681(2) 0.8349(3)
H7 H 0.1416 -0.0810 0.8699
H8 H 0.1933 -0.0257 0.8844
H9 H 0.1890 -0.1242 0.8274
C33 C 0.20128(12) -0.16465(17) 0.5980(2)
H10 H 0.1836 -0.1788 0.6620
H11 H 0.2291 -0.2086 0.6013
C34 C 0.16430(14) -0.1736(2) 0.4812(3)
H12 H 0.1509 -0.2352 0.4728
H13 H 0.1819 -0.1605 0.4178
H14 H 0.1364 -0.1310 0.4785
C35 C 0.29443(12) -0.12344(19) 0.5184(3)
H15 H 0.3108 -0.0963 0.4583
H16 H 0.2685 -0.1665 0.4792
C36 C 0.33384(14) -0.1742(2) 0.6055(4)
H17 H 0.3496 -0.2203 0.5648
H18 H 0.3176 -0.2031 0.6636
H19 H 0.3597 -0.1320 0.6443
C37 C 0.33521(11) 0.05978(19) 0.5391(2)
H20 H 0.3604 0.0105 0.5489
H21 H 0.3519 0.1141 0.5781
C38 C 0.31700(14) 0.0793(2) 0.4094(3)
H22 H 0.3455 0.0995 0.3760
H23 H 0.2912 0.1266 0.3994
H24 H 0.3026 0.0243 0.3696
C39 C 0.31832(11) 0.44277(19) 1.0185(2)
H25 H 0.3415 0.4944 1.0401
H26 H 0.3381 0.3913 0.9980
C40 C 0.29439(13) 0.4173(2) 1.1213(3)
H27 H 0.3210 0.4024 1.1885
H28 H 0.2723 0.3650 1.1005
H29 H 0.2745 0.4682 1.1408
C41 C 0.27508(12) 0.62315(19) 0.9951(3)
H30 H 0.2482 0.6655 1.0062
H31 H 0.2901 0.5968 1.0717
C42 C 0.31533(15) 0.6741(2) 0.9482(3)
H32 H 0.3287 0.7228 1.0020
H33 H 0.3006 0.6996 0.8719
H34 H 0.3427 0.6328 0.9404
C43 C 0.18258(12) 0.65625(18) 0.8216(3)
H35 H 0.1639 0.6677 0.7413
H36 H 0.2092 0.7028 0.8411
C44 C 0.14605(13) 0.6638(2) 0.9063(3)
H37 H 0.1326 0.7252 0.9041
H38 H 0.1641 0.6499 0.9855
H39 H 0.1182 0.6210 0.8835
C45 C 0.13820(11) 0.51415(19) 0.6608(2)
H40 H 0.1138 0.5523 0.6913
H41 H 0.1212 0.4568 0.6335
C46 C 0.15388(13) 0.5622(2) 0.5579(3)
H42 H 0.1241 0.5719 0.4962
H43 H 0.1783 0.5249 0.5279
H44 H 0.1693 0.6204 0.5837
loop_
_geom_bond_atom_site_label_1
_geom_bond_atom_site_label_2
_geom_bond_site_symmetry_1
_geom_bond_site_symmetry_2
F1 C24 1_555 1_555
F2 C24 1_555 1_555
F3 C25 1_555 1_555
F4 C25 1_555 1_555
F5 C26 1_555 1_555
F6 C26 1_555 1_555
F7 C26 1_555 1_555
F8 C28 1_555 1_555
F9 C28 1_555 1_555
F10 C29 1_555 1_555
F11 C29 1_555 1_555
F12 C30 1_555 1_555
F13 C30 1_555 1_555
F14 C30 1_555 1_555
O1 C1 1_555 1_555
O2 C10 1_555 1_555
O3 C11 1_555 1_555
O4 C20 1_555 1_555
N1 C10 1_555 1_555
N2 C1 1_555 1_555
C1 C2 1_555 1_555
C2 C3 1_555 1_555
C3 C4 1_555 1_555
C4 C5 1_555 1_555
C5 C6 1_555 1_555
C6 C7 1_555 1_555
C7 C8 1_555 1_555
C8 C3 1_555 1_555
C9 C8 1_555 1_555
C10 C9 1_555 1_555
C11 N1 1_555 1_555
C12 C11 1_555 1_555
C13 C12 1_555 1_555
C14 C13 1_555 1_555
C15 C14 1_555 1_555
C16 C15 1_555 1_555
C17 C16 1_555 1_555
C18 C13 1_555 1_555
C19 C18 1_555 1_555
C20 N2 1_555 1_555
C21 C2 1_555 1_555
C22 C9 1_555 1_555
C23 N1 1_555 1_555
H1 C23 1_555 1_555
H2 C23 1_555 1_555
C24 C23 1_555 1_555
C25 C24 1_555 1_555
C26 C25 1_555 1_555
C27 N2 1_555 1_555
H3 C27 1_555 1_555
H4 C27 1_555 1_555
C28 C27 1_555 1_555
C29 C28 1_555 1_555
C30 C29 1_555 1_555
C31 C4 1_555 1_555
H5 C31 1_555 1_555
H6 C31 1_555 1_555
C32 C31 1_555 1_555
H7 C32 1_555 1_555
H8 C32 1_555 1_555
H9 C32 1_555 1_555
C33 C5 1_555 1_555
H10 C33 1_555 1_555
H11 C33 1_555 1_555
C34 C33 1_555 1_555
H12 C34 1_555 1_555
H13 C34 1_555 1_555
H14 C34 1_555 1_555
C35 C6 1_555 1_555
H15 C35 1_555 1_555
H16 C35 1_555 1_555
C36 C35 1_555 1_555
H17 C36 1_555 1_555
H18 C36 1_555 1_555
H19 C36 1_555 1_555
C37 C7 1_555 1_555
H20 C37 1_555 1_555
H21 C37 1_555 1_555
C38 C37 1_555 1_555
H22 C38 1_555 1_555
H23 C38 1_555 1_555
H24 C38 1_555 1_555
C39 C14 1_555 1_555
H25 C39 1_555 1_555
H26 C39 1_555 1_555
C40 C39 1_555 1_555
H27 C40 1_555 1_555
H28 C40 1_555 1_555
H29 C40 1_555 1_555
C41 C15 1_555 1_555
H30 C41 1_555 1_555
H31 C41 1_555 1_555
C42 C41 1_555 1_555
H32 C42 1_555 1_555
H33 C42 1_555 1_555
H34 C42 1_555 1_555
C43 C16 1_555 1_555
H35 C43 1_555 1_555
H36 C43 1_555 1_555
C44 C43 1_555 1_555
H37 C44 1_555 1_555
H38 C44 1_555 1_555
H39 C44 1_555 1_555
C45 C17 1_555 1_555
H40 C45 1_555 1_555
H41 C45 1_555 1_555
C46 C45 1_555 1_555
H42 C46 1_555 1_555
H43 C46 1_555 1_555
H44 C46 1_555 1_555
C12 C22 1_555 1_555
C17 C18 1_555 1_555
C19 C20 1_555 1_555
C19 C21 1_555 1_555
C21 C22 1_555 1_555

#END
