
#######################################################################
#
#                 Cambridge Crystallographic Data Centre
#                                CCDC 
#
#######################################################################
#
# If this CIF has been generated from an entry in the Cambridge 
# Structural Database, then it will include bibliographic, chemical, 
# crystal, experimental, refinement or atomic coordinate data resulting 
# from the CCDC's data processing and validation procedures.
#
#######################################################################

data_IDAGUS
_chemical_formula_moiety         'C37 H58 N5 P1'
_chemical_name_systematic        
N-(1,3-di-t-butyl-1,3,2-diazaphospholidin-2-yl)-1,3-bis(2,6-diisopropylphenyl)-1,3-dihydro-2H-imidazol-2-imine
_symmetry_cell_setting           orthorhombic
_symmetry_space_group_name_H-M   'P b c a'
_symmetry_Int_Tables_number      61
_space_group_name_Hall           '-P 2ac 2ab'
loop_
_symmetry_equiv_pos_site_id
_symmetry_equiv_pos_as_xyz
1 x,y,z
2 1/2-x,-y,1/2+z
3 -x,1/2+y,1/2-z
4 1/2+x,1/2-y,-z
5 -x,-y,-z
6 1/2+x,y,1/2-z
7 x,1/2-y,1/2+z
8 1/2-x,1/2+y,z
_cell_length_a                   19.349(2)
_cell_length_b                   19.313(2)
_cell_length_c                   19.622(2)
_cell_angle_alpha                90
_cell_angle_beta                 90
_cell_angle_gamma                90
_cell_volume                     7332.49
_exptl_crystal_colour            colorless
_exptl_crystal_description       block
_cell_formula_units_Z            8
loop_
_atom_site_label
_atom_site_type_symbol
_atom_site_fract_x
_atom_site_fract_y
_atom_site_fract_z
C1 C 0.50051(15) 0.12087(17) 0.32117(15)
H1 H 0.5355 0.0857 0.3086
H2 H 0.5204 0.1674 0.3135
C2 C 0.43492(15) 0.11140(14) 0.27859(13)
H3 H 0.42 0.1566 0.2599
H4 H 0.4444 0.0798 0.24
C3 C 0.52956(14) 0.13702(14) 0.44495(16)
C4 C 0.49566(18) 0.12972(16) 0.51485(16)
H5 H 0.4553 0.1603 0.5174
H6 H 0.5289 0.1426 0.5503
H7 H 0.481 0.0816 0.5216
C5 C 0.55025(15) 0.21261(14) 0.43417(15)
H8 H 0.5792 0.2164 0.3933
H9 H 0.5763 0.229 0.4739
H10 H 0.5086 0.2409 0.4284
C6 C 0.59388(17) 0.09106(17) 0.4426(2)
H11 H 0.5805 0.0427 0.4502
H12 H 0.6263 0.1056 0.4783
H13 H 0.6161 0.0955 0.398
C7 C 0.36959(14) 0.00566(12) 0.31545(12)
C8 C 0.43576(15) -0.03556(14) 0.32656(14)
H14 H 0.4701 -0.0221 0.2924
H15 H 0.4258 -0.0851 0.3222
H16 H 0.4539 -0.026 0.3722
C9 C 0.34044(16) -0.00961(14) 0.24469(13)
H17 H 0.2976 0.0167 0.238
H18 H 0.3307 -0.0592 0.2406
H19 H 0.3743 0.0039 0.21
C10 C 0.31596(16) -0.01706(14) 0.36769(14)
H20 H 0.3349 -0.0114 0.4137
H21 H 0.3041 -0.0658 0.3601
H22 H 0.2743 0.0114 0.3629
C11 C 0.32934(12) 0.23873(12) 0.41374(11)
C12 C 0.22876(13) 0.28564(12) 0.45320(13)
H23 H 0.1821 0.2896 0.4679
C13 C 0.27380(12) 0.33724(13) 0.44801(12)
H24 H 0.2652 0.3845 0.4583
C14 C 0.22407(12) 0.16153(12) 0.42234(12)
C15 C 0.18999(13) 0.15312(13) 0.36006(13)
C16 C 0.19780(15) 0.20488(14) 0.30214(13)
H25 H 0.2335 0.2395 0.3162
C17 C 0.2237(2) 0.16963(18) 0.23727(15)
H26 H 0.2676 0.1462 0.2467
H27 H 0.2306 0.2045 0.2016
H28 H 0.1895 0.1356 0.2219
C18 C 0.13049(16) 0.24432(16) 0.28929(16)
H29 H 0.0942 0.2116 0.2758
H30 H 0.1376 0.2782 0.2528
H31 H 0.1165 0.2684 0.331
C19 C 0.14724(14) 0.09576(14) 0.35292(14)
H32 H 0.1233 0.0886 0.3112
C20 C 0.13902(14) 0.04898(14) 0.40545(14)
H33 H 0.1088 0.0106 0.4
C21 C 0.17460(13) 0.05776(13) 0.46587(13)
H34 H 0.1692 0.0247 0.5013
C22 C 0.21821(12) 0.11409(12) 0.47569(12)
C23 C 0.25772(13) 0.12377(13) 0.54182(12)
H35 H 0.2989 0.1533 0.5315
C24 C 0.28426(18) 0.05561(16) 0.57052(14)
H36 H 0.2452 0.0279 0.5869
H37 H 0.3159 0.0649 0.6084
H38 H 0.3088 0.0301 0.5348
C25 C 0.21427(16) 0.16224(16) 0.59486(14)
H39 H 0.2006 0.2075 0.5767
H40 H 0.2415 0.1688 0.6365
H41 H 0.1728 0.1351 0.6054
C26 C 0.39976(12) 0.34669(11) 0.41892(11)
C27 C 0.43644(13) 0.36240(12) 0.47847(12)
C28 C 0.41274(14) 0.33707(13) 0.54841(12)
H42 H 0.3821 0.296 0.5412
C29 C 0.47333(15) 0.31412(16) 0.59291(13)
H43 H 0.5018 0.2809 0.5677
H44 H 0.4557 0.2922 0.6345
H45 H 0.5014 0.3545 0.6051
C30 C 0.37082(15) 0.39224(15) 0.58606(13)
H46 H 0.3998 0.433 0.5941
H47 H 0.355 0.3736 0.6298
H48 H 0.3307 0.4054 0.5584
C31 C 0.49673(14) 0.40080(13) 0.47173(13)
H49 H 0.5217 0.414 0.5113
C32 C 0.52089(13) 0.41996(13) 0.40836(13)
H50 H 0.5624 0.4459 0.4047
C33 C 0.48512(14) 0.40163(13) 0.35031(13)
H51 H 0.5031 0.414 0.3069
C34 C 0.42317(13) 0.36537(12) 0.35417(12)
C35 C 0.38216(14) 0.34844(14) 0.29038(13)
H52 H 0.3521(17) 0.3094(15) 0.2995(19)
C36 C 0.3521(7) 0.4172(5) 0.2624(5)
H53 H 0.3216 0.4074 0.2237
H54 H 0.3899 0.4473 0.2475
H55 H 0.3257 0.4405 0.2984
C37 C 0.4293(7) 0.3174(6) 0.2363(6)
H56 H 0.402 0.3054 0.196
H57 H 0.4513 0.2755 0.2544
H58 H 0.4649 0.3511 0.2238
N1 N 0.48027(10) 0.11268(11) 0.39255(11)
N2 N 0.37970(10) 0.08222(10) 0.32184(10)
N3 N 0.37798(10) 0.20147(10) 0.38859(10)
N4 N 0.26190(10) 0.22430(10) 0.43328(10)
N5 N 0.33584(10) 0.30972(10) 0.42477(9)
P1 P 0.39239(3) 0.11605(3) 0.40220(3)
H59? H 0.3439 0.3155 0.3015
C38? C 0.3247(13) 0.3961(15) 0.2746(11)
H60? H 0.2958 0.4021 0.3152
H61? H 0.2967 0.3768 0.2375
H62? H 0.3433 0.4411 0.2606
C39? C 0.4176(17) 0.3242(18) 0.2260(13)
H63? H 0.3847 0.2981 0.198
H64? H 0.4567 0.2944 0.2379
H65? H 0.4342 0.3644 0.2004
loop_
_geom_bond_atom_site_label_1
_geom_bond_atom_site_label_2
_geom_bond_site_symmetry_1
_geom_bond_site_symmetry_2
C1 H1 1_555 1_555
H2 C1 1_555 1_555
C2 C1 1_555 1_555
H3 C2 1_555 1_555
H4 C2 1_555 1_555
C3 C4 1_555 1_555
C4 H5 1_555 1_555
H6 C4 1_555 1_555
H7 C4 1_555 1_555
C5 C3 1_555 1_555
H8 C5 1_555 1_555
H9 C5 1_555 1_555
H10 C5 1_555 1_555
C6 C3 1_555 1_555
H11 C6 1_555 1_555
H12 C6 1_555 1_555
H13 C6 1_555 1_555
C7 C8 1_555 1_555
C8 H14 1_555 1_555
H15 C8 1_555 1_555
H16 C8 1_555 1_555
C9 C7 1_555 1_555
H17 C9 1_555 1_555
H18 C9 1_555 1_555
H19 C9 1_555 1_555
C10 C7 1_555 1_555
H20 C10 1_555 1_555
H21 C10 1_555 1_555
H22 C10 1_555 1_555
C11 N3 1_555 1_555
C12 H23 1_555 1_555
C13 C12 1_555 1_555
H24 C13 1_555 1_555
C14 C15 1_555 1_555
C15 C16 1_555 1_555
C16 H25 1_555 1_555
C17 C16 1_555 1_555
H26 C17 1_555 1_555
H27 C17 1_555 1_555
H28 C17 1_555 1_555
C18 C16 1_555 1_555
H29 C18 1_555 1_555
H30 C18 1_555 1_555
H31 C18 1_555 1_555
C19 C15 1_555 1_555
H32 C19 1_555 1_555
C20 C19 1_555 1_555
H33 C20 1_555 1_555
C21 C20 1_555 1_555
H34 C21 1_555 1_555
C22 C14 1_555 1_555
C23 C22 1_555 1_555
H35 C23 1_555 1_555
C24 C23 1_555 1_555
H36 C24 1_555 1_555
H37 C24 1_555 1_555
H38 C24 1_555 1_555
C25 C23 1_555 1_555
H39 C25 1_555 1_555
H40 C25 1_555 1_555
H41 C25 1_555 1_555
C26 C27 1_555 1_555
C27 C28 1_555 1_555
C28 H42 1_555 1_555
C29 C28 1_555 1_555
H43 C29 1_555 1_555
H44 C29 1_555 1_555
H45 C29 1_555 1_555
C30 C28 1_555 1_555
H46 C30 1_555 1_555
H47 C30 1_555 1_555
H48 C30 1_555 1_555
C31 C27 1_555 1_555
H49 C31 1_555 1_555
C32 C31 1_555 1_555
H50 C32 1_555 1_555
C33 C32 1_555 1_555
H51 C33 1_555 1_555
C34 C26 1_555 1_555
C35 C34 1_555 1_555
H52 C35 1_555 1_555
C36 C35 1_555 1_555
H53 C36 1_555 1_555
H54 C36 1_555 1_555
H55 C36 1_555 1_555
C37 C35 1_555 1_555
H56 C37 1_555 1_555
H57 C37 1_555 1_555
H58 C37 1_555 1_555
N1 C1 1_555 1_555
N2 C2 1_555 1_555
N3 P1 1_555 1_555
N4 C11 1_555 1_555
N5 C11 1_555 1_555
P1 N1 1_555 1_555
C3 N1 1_555 1_555
C7 N2 1_555 1_555
C12 N4 1_555 1_555
C13 N5 1_555 1_555
C14 N4 1_555 1_555
C21 C22 1_555 1_555
C26 N5 1_555 1_555
C33 C34 1_555 1_555
N2 P1 1_555 1_555

#END
