
#######################################################################
#
#                 Cambridge Crystallographic Data Centre
#                                CCDC 
#
#######################################################################
#
# If this CIF has been generated from an entry in the Cambridge 
# Structural Database, then it will include bibliographic, chemical, 
# crystal, experimental, refinement or atomic coordinate data resulting 
# from the CCDC's data processing and validation procedures.
#
#######################################################################

data_IDAQUC
_chemical_formula_moiety         'C23 H20 O4'
_chemical_name_systematic        
'methyl 12-methyl-11-phenyl-15-oxatetracyclo[10.2.1.0^1,10^.0^3,8^]pentadeca-3,5,7,9,13-pentaen-11-yl carbonate'
_symmetry_cell_setting           monoclinic
_symmetry_space_group_name_H-M   'P n'
_symmetry_Int_Tables_number      7
_space_group_name_Hall           'P -2yac'
loop_
_symmetry_equiv_pos_site_id
_symmetry_equiv_pos_as_xyz
1 x,y,z
2 1/2+x,-y,1/2+z
_cell_length_a                   8.575(2)
_cell_length_b                   10.958(3)
_cell_length_c                   10.097(2)
_cell_angle_alpha                90
_cell_angle_beta                 93.201(5)
_cell_angle_gamma                90
_cell_volume                     947.283
_exptl_crystal_colour            colorless
_exptl_crystal_description       prismatic
_cell_formula_units_Z            2
loop_
_atom_site_label
_atom_site_type_symbol
_atom_site_fract_x
_atom_site_fract_y
_atom_site_fract_z
O1 O 1.0773(2) 0.38620(19) 0.00734(19)
O2 O 1.0097(2) 0.25661(19) 0.23187(19)
O3 O 0.9257(3) 0.3177(2) 0.4289(2)
O4 O 1.1231(3) 0.1869(2) 0.4091(3)
C1 C 1.0495(4) 0.7033(3) 0.1446(3)
C2 C 1.0996(5) 0.8228(3) 0.1362(4)
H1 H 1.1621 0.8452 0.0679
C3 C 1.0590(6) 0.9099(3) 0.2271(4)
H2 H 1.0956 0.9894 0.2208
C4 C 0.9646(5) 0.8784(3) 0.3262(4)
H3 H 0.9365 0.9368 0.3873
C5 C 0.9109(4) 0.7604(3) 0.3360(3)
H4 H 0.8460 0.7400 0.4033
C6 C 0.9525(4) 0.6713(3) 0.2462(3)
C7 C 0.9007(4) 0.5449(3) 0.2608(3)
H5 H 0.8493 0.5221 0.3356
C8 C 0.9265(3) 0.4629(3) 0.1684(3)
C9 C 0.9999(4) 0.4986(3) 0.0399(3)
C10 C 1.1066(4) 0.6063(3) 0.0521(3)
H6 H 1.1164 0.6418 -0.0351
H7 H 1.2094 0.5792 0.0845
C11 C 0.8622(4) 0.4973(3) -0.0612(3)
H8 H 0.8136 0.5644 -0.1019
C12 C 0.8256(4) 0.3813(3) -0.0794(3)
H9 H 0.7441 0.3505 -0.1340
C13 C 0.9420(4) 0.3085(3) 0.0057(3)
C14 C 0.8923(4) 0.3273(3) 0.1545(3)
C15 C 0.7297(4) 0.2820(3) 0.1786(3)
C16 C 0.7057(5) 0.1614(3) 0.2141(4)
H10 H 0.7903 0.1087 0.2256
C17 C 0.5563(6) 0.1194(4) 0.2327(4)
H11 H 0.5417 0.0391 0.2593
C18 C 0.4298(5) 0.1949(4) 0.2122(4)
H12 H 0.3295 0.1657 0.2235
C19 C 0.4519(4) 0.3137(4) 0.1749(3)
H13 H 0.3663 0.3649 0.1596
C20 C 0.6007(4) 0.3575(3) 0.1600(3)
H14 H 0.6146 0.4388 0.1371
C21 C 0.9785(5) 0.1812(3) -0.0363(4)
H15 H 1.0128 0.1822 -0.1252
H16 H 0.8866 0.1315 -0.0331
H17 H 1.0597 0.1480 0.0225
C22 C 1.0099(4) 0.2598(3) 0.3636(3)
C23 C 1.1424(6) 0.1790(4) 0.5517(4)
H18 H 1.1457 0.2597 0.5887
H19 H 1.2381 0.1372 0.5760
H20 H 1.0562 0.1349 0.5851
loop_
_geom_bond_atom_site_label_1
_geom_bond_atom_site_label_2
_geom_bond_site_symmetry_1
_geom_bond_site_symmetry_2
O1 C9 1_555 1_555
O2 C14 1_555 1_555
O3 C22 1_555 1_555
O4 C22 1_555 1_555
C1 C2 1_555 1_555
C2 H1 1_555 1_555
C3 C2 1_555 1_555
H2 C3 1_555 1_555
C4 C3 1_555 1_555
H3 C4 1_555 1_555
C5 C4 1_555 1_555
H4 C5 1_555 1_555
C6 C1 1_555 1_555
C7 C6 1_555 1_555
H5 C7 1_555 1_555
C8 C7 1_555 1_555
C9 C8 1_555 1_555
C10 C1 1_555 1_555
H6 C10 1_555 1_555
H7 C10 1_555 1_555
C11 C9 1_555 1_555
H8 C11 1_555 1_555
C12 C11 1_555 1_555
H9 C12 1_555 1_555
C13 O1 1_555 1_555
C14 C8 1_555 1_555
C15 C14 1_555 1_555
C16 C15 1_555 1_555
H10 C16 1_555 1_555
C17 C16 1_555 1_555
H11 C17 1_555 1_555
C18 C17 1_555 1_555
H12 C18 1_555 1_555
C19 C18 1_555 1_555
H13 C19 1_555 1_555
C20 C15 1_555 1_555
H14 C20 1_555 1_555
C21 C13 1_555 1_555
H15 C21 1_555 1_555
H16 C21 1_555 1_555
H17 C21 1_555 1_555
C22 O2 1_555 1_555
C23 O4 1_555 1_555
H18 C23 1_555 1_555
H19 C23 1_555 1_555
H20 C23 1_555 1_555
C5 C6 1_555 1_555
C9 C10 1_555 1_555
C12 C13 1_555 1_555
C13 C14 1_555 1_555
C19 C20 1_555 1_555

#END
