
#######################################################################
#
#                 Cambridge Crystallographic Data Centre
#                                CCDC 
#
#######################################################################
#
# If this CIF has been generated from an entry in the Cambridge 
# Structural Database, then it will include bibliographic, chemical, 
# crystal, experimental, refinement or atomic coordinate data resulting 
# from the CCDC's data processing and validation procedures.
#
#######################################################################

data_IDARIR
_chemical_formula_moiety         'C42 H30 O2'
_chemical_name_systematic        
3,3'-dimethyl-4,4'-diphenyl-9,9'-bianthracene-10,10'(9H,9'H)-dione
_symmetry_cell_setting           orthorhombic
_symmetry_space_group_name_H-M   'P n a 21'
_symmetry_Int_Tables_number      33
_space_group_name_Hall           'P 2c -2n'
loop_
_symmetry_equiv_pos_site_id
_symmetry_equiv_pos_as_xyz
1 x,y,z
2 -x,-y,1/2+z
3 1/2-x,1/2+y,1/2+z
4 1/2+x,1/2-y,z
_cell_length_a                   38.829(5)
_cell_length_b                   8.0486(11)
_cell_length_c                   9.6782(13)
_cell_angle_alpha                90
_cell_angle_beta                 90
_cell_angle_gamma                90
_cell_volume                     3024.62
_exptl_crystal_colour            colorless
_exptl_crystal_description       block
_chemical_melting_point          '182-184 deg.C'
_cell_formula_units_Z            4
loop_
_atom_site_label
_atom_site_type_symbol
_atom_site_fract_x
_atom_site_fract_y
_atom_site_fract_z
O1 O 0.06111(7) 0.8582(3) 0.3851(3)
O2 O 0.20038(8) 0.7535(3) 0.3882(4)
C1 C 0.07072(9) 0.7228(4) 0.3438(4)
C2 C 0.10120(9) 0.7078(4) 0.2524(4)
C3 C 0.11346(10) 0.8488(5) 0.1838(4)
H1 H 0.1035 0.9543 0.2021
C4 C 0.13976(10) 0.8353(6) 0.0903(4)
H2 H 0.1479 0.9315 0.0438
C5 C 0.15442(11) 0.6827(6) 0.0635(5)
H3 H 0.1722 0.6739 -0.0034
C6 C 0.14341(9) 0.5425(5) 0.1330(4)
H4 H 0.1538 0.4380 0.1148
C7 C 0.11685(8) 0.5545(5) 0.2305(3)
C8 C 0.10619(8) 0.4074(4) 0.3151(4)
H5 H 0.1087 0.3065 0.2557
C9 C 0.06948(8) 0.4148(4) 0.3616(3)
C10 C 0.05268(9) 0.2676(4) 0.3957(4)
H6 H 0.0644 0.1647 0.3865
C11 C 0.01951(10) 0.2695(4) 0.4421(4)
H7 H 0.0085 0.1679 0.4656
C12 C 0.00156(9) 0.4179(5) 0.4556(4)
C13 C 0.01746(8) 0.5678(4) 0.4226(4)
C14 C 0.05203(8) 0.5665(4) 0.3762(4)
C15 C -0.03529(10) 0.4160(5) 0.5061(5)
H8 H -0.0368 0.4751 0.5944
H9 H -0.0429 0.3008 0.5186
H10 H -0.0501 0.4709 0.4380
C16 C -0.00424(9) 0.7203(4) 0.4283(4)
C17 C -0.02084(10) 0.7740(5) 0.3100(4)
H11 H -0.0153 0.7243 0.2237
C18 C -0.04527(12) 0.8986(6) 0.3149(5)
H12 H -0.0561 0.9355 0.2324
C19 C -0.05392(10) 0.9694(5) 0.4400(5)
H13 H -0.0714 1.0516 0.4446
C20 C -0.03694(10) 0.9197(5) 0.5586(4)
H14 H -0.0424 0.9703 0.6445
C21 C -0.01203(9) 0.7966(5) 0.5528(4)
H15 H -0.0002 0.7644 0.6346
C22 C 0.18358(8) 0.6345(4) 0.4274(4)
C23 C 0.15400(9) 0.6570(4) 0.5231(4)
C24 C 0.15215(10) 0.8037(5) 0.6008(4)
H16 H 0.1689 0.8886 0.5891
C25 C 0.12554(12) 0.8231(6) 0.6949(5)
H17 H 0.1237 0.9228 0.7469
C26 C 0.10167(12) 0.6977(6) 0.7132(5)
H18 H 0.0839 0.7106 0.7799
C27 C 0.10330(11) 0.5539(5) 0.6358(4)
H19 H 0.0865 0.4696 0.6482
C28 C 0.12965(9) 0.5323(4) 0.5390(4)
C29 C 0.13071(8) 0.3837(4) 0.4458(4)
H20 H 0.1217 0.2869 0.4997
C30 C 0.16639(8) 0.3404(4) 0.3998(4)
C31 C 0.17420(9) 0.1773(4) 0.3635(4)
H21 H 0.1568 0.0945 0.3689
C32 C 0.20667(9) 0.1343(4) 0.3202(4)
H22 H 0.2114 0.0219 0.2971
C33 C 0.23281(9) 0.2519(4) 0.3095(4)
C34 C 0.22541(9) 0.4172(4) 0.3432(4)
C35 C 0.19211(9) 0.4610(4) 0.3878(4)
C36 C 0.26828(10) 0.2001(5) 0.2638(5)
H23 H 0.2706 0.0794 0.2732
H24 H 0.2856 0.2554 0.3215
H25 H 0.2717 0.2318 0.1670
C37 C 0.25418(9) 0.5404(4) 0.3359(4)
C38 C 0.27405(10) 0.5709(5) 0.4510(5)
H26 H 0.2690 0.5162 0.5356
C39 C 0.30165(11) 0.6820(5) 0.4440(6)
H27 H 0.3151 0.7035 0.5240
C40 C 0.30927(11) 0.7598(6) 0.3225(6)
H28 H 0.3280 0.8355 0.3176
C41 C 0.28969(12) 0.7279(6) 0.2070(5)
H29 H 0.2951 0.7818 0.1223
C42 C 0.26226(11) 0.6184(5) 0.2125(5)
H30 H 0.2490 0.5968 0.1320
loop_
_geom_bond_atom_site_label_1
_geom_bond_atom_site_label_2
_geom_bond_site_symmetry_1
_geom_bond_site_symmetry_2
O1 C1 1_555 1_555
O2 C22 1_555 1_555
C1 C2 1_555 1_555
C2 C3 1_555 1_555
C3 H1 1_555 1_555
C4 C3 1_555 1_555
H2 C4 1_555 1_555
C5 C4 1_555 1_555
H3 C5 1_555 1_555
C6 C5 1_555 1_555
H4 C6 1_555 1_555
C7 C2 1_555 1_555
C8 C7 1_555 1_555
H5 C8 1_555 1_555
C9 C8 1_555 1_555
C10 C9 1_555 1_555
H6 C10 1_555 1_555
C11 C10 1_555 1_555
H7 C11 1_555 1_555
C12 C11 1_555 1_555
C13 C12 1_555 1_555
C14 C1 1_555 1_555
C15 C12 1_555 1_555
H8 C15 1_555 1_555
H9 C15 1_555 1_555
H10 C15 1_555 1_555
C16 C13 1_555 1_555
C17 C16 1_555 1_555
H11 C17 1_555 1_555
C18 C17 1_555 1_555
H12 C18 1_555 1_555
C19 C18 1_555 1_555
H13 C19 1_555 1_555
C20 C19 1_555 1_555
H14 C20 1_555 1_555
C21 C16 1_555 1_555
H15 C21 1_555 1_555
C22 C23 1_555 1_555
C23 C24 1_555 1_555
C24 H16 1_555 1_555
C25 C24 1_555 1_555
H17 C25 1_555 1_555
C26 C25 1_555 1_555
H18 C26 1_555 1_555
C27 C26 1_555 1_555
H19 C27 1_555 1_555
C28 C23 1_555 1_555
C29 C8 1_555 1_555
H20 C29 1_555 1_555
C30 C29 1_555 1_555
C31 C30 1_555 1_555
H21 C31 1_555 1_555
C32 C31 1_555 1_555
H22 C32 1_555 1_555
C33 C32 1_555 1_555
C34 C33 1_555 1_555
C35 C22 1_555 1_555
C36 C33 1_555 1_555
H23 C36 1_555 1_555
H24 C36 1_555 1_555
H25 C36 1_555 1_555
C37 C34 1_555 1_555
C38 C37 1_555 1_555
H26 C38 1_555 1_555
C39 C38 1_555 1_555
H27 C39 1_555 1_555
C40 C39 1_555 1_555
H28 C40 1_555 1_555
C41 C40 1_555 1_555
H29 C41 1_555 1_555
C42 C37 1_555 1_555
H30 C42 1_555 1_555
C6 C7 1_555 1_555
C9 C14 1_555 1_555
C13 C14 1_555 1_555
C20 C21 1_555 1_555
C27 C28 1_555 1_555
C28 C29 1_555 1_555
C30 C35 1_555 1_555
C34 C35 1_555 1_555
C41 C42 1_555 1_555

#END
