
#######################################################################
#
#                 Cambridge Crystallographic Data Centre
#                                CCDC 
#
#######################################################################
#
# If this CIF has been generated from an entry in the Cambridge 
# Structural Database, then it will include bibliographic, chemical, 
# crystal, experimental, refinement or atomic coordinate data resulting 
# from the CCDC's data processing and validation procedures.
#
#######################################################################

data_IDASEO
_chemical_formula_moiety         'C68 H80 N4 O4,7.5(C1 H4 O1),H2 O1'
_chemical_name_systematic        
"11',29'-di-t-butyl-5',17',23',35',38',40',43',45'-octamethyl-7',15',25',33'-tetraazadispiro[cyclohexane-1,2'-heptacyclo[32.2.2.2^3,6^.2^16,19^.2^21,24^.1^9,13^.1^27,31^]hexatetracontane-20',1''-cyclohexane]-1'(36'),3',5',9'(44'),10',12',16',18',21',23',27'(39'),28',30',34',37',40',42',45'-octadecaene-8',14',26',32'-tetrone methanol solvate monohydrate"
_symmetry_cell_setting           triclinic
_symmetry_space_group_name_H-M   'P -1'
_symmetry_Int_Tables_number      2
_space_group_name_Hall           '-P 1'
loop_
_symmetry_equiv_pos_site_id
_symmetry_equiv_pos_as_xyz
1 x,y,z
2 -x,-y,-z
_cell_length_a                   11.4947(6)
_cell_length_b                   12.7587(7)
_cell_length_c                   14.2153(7)
_cell_angle_alpha                80.164(5)
_cell_angle_beta                 78.561(5)
_cell_angle_gamma                63.742(5)
_cell_volume                     1824.31
_exptl_crystal_colour            colorless
_exptl_crystal_description       block
_cell_formula_units_Z            1
loop_
_atom_site_label
_atom_site_type_symbol
_atom_site_fract_x
_atom_site_fract_y
_atom_site_fract_z
O1 O 0.11884(12) 0.68686(11) 0.57679(9)
O2 O 0.50094(13) 0.63458(12) 0.92799(9)
N1 N 0.29493(14) 0.72906(13) 0.52663(10)
H1 H 0.3733 0.7108 0.5365
N2 N 0.56502(14) 0.68982(13) 0.77309(10)
H2 H 0.5638 0.6852 0.7137
C1 C 0.49574(16) 0.64319(15) 0.84108(12)
C2 C 0.41148(16) 0.60327(15) 0.80236(12)
C3 C 0.35987(16) 0.65880(14) 0.71733(12)
H3 H 0.3782 0.7204 0.6842
C4 C 0.28103(15) 0.62232(14) 0.68191(11)
C5 C 0.25029(16) 0.53275(15) 0.73367(12)
H4 H 0.1956 0.5100 0.7104
C6 C 0.29989(16) 0.47626(15) 0.81985(12)
C7 C 0.38114(16) 0.51329(15) 0.85345(12)
H5 H 0.4152 0.4772 0.9106
C8 C 0.26905(19) 0.37634(17) 0.87788(13)
C9 C 0.1732(3) 0.3532(2) 0.83248(17)
H6 H 0.0924 0.4226 0.8311
H7 H 0.1569 0.2897 0.8700
H8 H 0.2105 0.3326 0.7679
C10 C 0.2078(2) 0.4087(2) 0.98087(14)
H9 H 0.2696 0.4172 1.0120
H10 H 0.1849 0.3477 1.0163
H11 H 0.1305 0.4813 0.9788
C11 C 0.3975(2) 0.26433(17) 0.88142(15)
H12 H 0.4370 0.2444 0.8170
H13 H 0.3794 0.2010 0.9173
H14 H 0.4564 0.2776 0.9121
C12 C 0.22384(16) 0.68188(14) 0.59026(12)
C13 C 0.24913(16) 0.80810(15) 0.44293(12)
C14 C 0.27285(17) 0.76473(16) 0.35446(12)
C15 C 0.23666(17) 0.84488(15) 0.27305(12)
H15 H 0.2528 0.8167 0.2134
C16 C 0.17730(15) 0.96530(15) 0.27931(12)
C17 C 0.15328(16) 1.00483(15) 0.36986(12)
H16 H 0.1115 1.0852 0.3755
C18 C 0.18963(17) 0.92839(16) 0.45193(12)
C19 C 0.1691(2) 0.97583(17) 0.54698(13)
H17 H 0.1262 0.9381 0.5961
H18 H 0.1158 1.0589 0.5415
H19 H 0.2524 0.9606 0.5638
C20 C 0.3374(2) 0.63493(17) 0.34417(14)
H20 H 0.4147 0.5988 0.3753
H21 H 0.3610 0.6223 0.2770
H22 H 0.2777 0.6009 0.3737
C21 C 0.63999(16) 0.74621(15) 0.79264(11)
C22 C 0.77309(16) 0.70219(15) 0.75634(12)
C23 C 0.84389(16) 0.76342(15) 0.76693(12)
H23 H 0.9328 0.7340 0.7434
C24 C 0.78552(16) 0.86732(14) 0.81170(11)
C25 C 0.65306(16) 0.90647(15) 0.84919(12)
H24 H 0.6130 0.9741 0.8813
C26 C 0.57860(16) 0.84813(15) 0.84040(12)
C27 C 0.43479(17) 0.89868(17) 0.87836(14)
H25 H 0.4195 0.8519 0.9357
H26 H 0.3865 0.8987 0.8305
H27 H 0.4066 0.9777 0.8931
C28 C 0.83943(18) 0.59254(17) 0.70493(14)
H28 H 0.8299 0.5285 0.7469
H29 H 0.9308 0.5746 0.6869
H30 H 0.8000 0.6044 0.6482
C29 C 0.85841(16) 0.94454(14) 0.80977(11)
C30 C 1.00890(16) 0.87163(15) 0.79905(12)
H31 H 1.0370 0.8300 0.7418
H32 H 1.0510 0.9245 0.7904
C31 C 1.05343(17) 0.78276(16) 0.88651(13)
H33 H 1.0179 0.7254 0.8920
H34 H 1.1482 0.7416 0.8773
C32 C 1.00787(18) 0.84375(17) 0.97916(13)
H35 H 1.0302 0.7852 1.0339
H36 H 1.0530 0.8930 0.9774
C33 C 0.86073(17) 0.91862(16) 0.99152(12)
H37 H 0.8356 0.9613 1.0479
H38 H 0.8155 0.8681 1.0020
C34 C 0.81909(16) 1.00576(15) 0.90295(12)
H39 H 0.8592 1.0600 0.8957
H40 H 0.7248 1.0509 0.9129
O1A O 0.88116(12) 1.31314(11) 0.42321(9)
O2A O 0.49906(13) 1.36542(12) 0.07201(9)
N1A N 0.70507(14) 1.27094(13) 0.47337(10)
H1A H 0.6267 1.2892 0.4635
N2A N 0.43498(14) 1.31018(13) 0.22691(10)
H2A H 0.4362 1.3148 0.2863
C1A C 0.50426(16) 1.35681(15) 0.15892(12)
C2A C 0.58852(16) 1.39673(15) 0.19764(12)
C3A C 0.64013(16) 1.34120(14) 0.28267(12)
H3A H 0.6218 1.2796 0.3158
C4A C 0.71897(15) 1.37768(14) 0.31809(11)
C5A C 0.74971(16) 1.46725(15) 0.26633(12)
H4A H 0.8044 1.4900 0.2896
C6A C 0.70011(16) 1.52374(15) 0.18015(12)
C7A C 0.61886(16) 1.48671(15) 0.14655(12)
H5A H 0.5848 1.5228 0.0894
C8A C 0.73095(19) 1.62366(17) 0.12212(13)
C9A C 0.8268(3) 1.6468(2) 0.16752(17)
H6A H 0.9076 1.5774 0.1689
H7A H 0.8431 1.7103 0.1300
H8A H 0.7895 1.6674 0.2321
C10A C 0.7922(2) 1.5913(2) 0.01913(14)
H9A H 0.7304 1.5828 -0.0120
H10A H 0.8151 1.6523 -0.0163
H11A H 0.8695 1.5187 0.0212
C11A C 0.6025(2) 1.73567(17) 0.11858(15)
H12A H 0.5630 1.7556 0.1830
H13A H 0.6206 1.7990 0.0827
H14A H 0.5436 1.7224 0.0879
C12A C 0.77616(16) 1.31812(14) 0.40974(12)
C13A C 0.75087(16) 1.19190(15) 0.55707(12)
C14A C 0.72715(17) 1.23527(16) 0.64554(12)
C15A C 0.76334(17) 1.15512(15) 0.72695(12)
H15A H 0.7472 1.1833 0.7866
C16A C 0.82270(15) 1.03470(15) 0.72069(12)
C17A C 0.84672(16) 0.99517(15) 0.63014(12)
H16A H 0.8885 0.9148 0.6245
C18A C 0.81037(17) 1.07161(16) 0.54807(12)
C19A C 0.8309(2) 1.02417(17) 0.45302(13)
H17A H 0.8738 1.0619 0.4039
H18A H 0.8842 0.9411 0.4585
H19A H 0.7476 1.0394 0.4362
C20A C 0.6626(2) 1.36507(17) 0.65583(14)
H20A H 0.5853 1.4012 0.6247
H21A H 0.6390 1.3777 0.7230
H22A H 0.7223 1.3991 0.6263
C21A C 0.36001(16) 1.25379(15) 0.20736(11)
C22A C 0.22691(16) 1.29781(15) 0.24366(12)
C23A C 0.15611(16) 1.23658(15) 0.23307(12)
H23A H 0.0672 1.2660 0.2566
C24A C 0.21448(16) 1.13268(14) 0.18830(11)
C25A C 0.34694(16) 1.09353(15) 0.15081(12)
H24A H 0.3870 1.0259 0.1187
C26A C 0.42140(16) 1.15187(15) 0.15960(12)
C27A C 0.56521(17) 1.10132(17) 0.12164(14)
H25A H 0.5805 1.1481 0.0643
H26A H 0.6135 1.1013 0.1695
H27A H 0.5934 1.0223 0.1069
C28A C 0.16057(18) 1.40746(17) 0.29507(14)
H28A H 0.1701 1.4715 0.2531
H29A H 0.0692 1.4254 0.3131
H30A H 0.2000 1.3956 0.3518
C29A C 0.14159(16) 1.05546(14) 0.19023(11)
C30A C -0.00890(16) 1.12837(15) 0.20095(12)
H31A H -0.0370 1.1700 0.2582
H32A H -0.0510 1.0755 0.2096
C31A C -0.05343(17) 1.21724(16) 0.11349(13)
H33A H -0.0179 1.2746 0.1080
H34A H -0.1482 1.2584 0.1227
C32A C -0.00787(18) 1.15625(17) 0.02084(13)
H35A H -0.0302 1.2148 -0.0339
H36A H -0.0530 1.1070 0.0226
C33A C 0.13927(17) 1.08138(16) 0.00848(12)
H37A H 0.1644 1.0387 -0.0479
H38A H 0.1845 1.1319 -0.0020
C34A C 0.18091(16) 0.99424(15) 0.09705(12)
H39A H 0.1408 0.9400 0.1043
H40A H 0.2752 0.9491 0.0871
O3 O 0.2997(2) 0.7019(2) 1.07574(17)
H41 H 0.3618 0.6929 1.0300
C35 C 0.2398(3) 0.6249(3) 1.1172(3)
H42 H 0.2023 0.6105 1.0688
H43 H 0.1722 0.6602 1.1687
H44 H 0.3045 0.5520 1.1419
O4 O 0.55875(13) 0.70954(12) 0.54573(9)
H45 H 0.5572 0.7741 0.5250
C36 C 0.6386(2) 0.6271(2) 0.47769(17)
H46 H 0.6184 0.6615 0.4141
H47 H 0.6222 0.5582 0.4929
H48 H 0.7292 0.6060 0.4802
O5 O 0.5885(4) 0.8976(4) 0.4296(3)
H49 H 0.6674 0.8711 0.4106
C37 C 0.521(3) 0.942(2) 0.352(2)
H50 H 0.5609 0.8889 0.3027
H51 H 0.5218 1.0167 0.3266
H52 H 0.4316 0.9527 0.3716
O6 O 0.8348(3) 0.7842(3) 0.3549(2)
H53 H 0.8824 0.7411 0.3948
C38 C 0.9086(5) 0.8274(5) 0.2793(3)
H54 H 0.9626 0.7669 0.2374
H55 H 0.9631 0.8504 0.3062
H56 H 0.8500 0.8940 0.2431
O7 O 1.017(4) 0.596(3) 0.464(3)
H57 H 1.0590 0.6180 0.4935
H58 H 0.9951 0.5482 0.5010
O8? O 0.5347(5) 0.9189(4) 0.4629(3)
C39? C 0.502(3) 0.939(2) 0.363(2)
H59? H 0.4352 1.0173 0.3531
H60? H 0.4695 0.8836 0.3554
H61? H 0.5784 0.9289 0.3177
O9? O 1.015(4) 0.611(3) 0.458(3)
H62? H 1.0260 0.6411 0.5006
C40? C 0.9634(6) 0.6876(5) 0.3965(5)
H63? H 0.9483 0.6531 0.3478
H64? H 1.0193 0.7257 0.3679
H65? H 0.8813 0.7441 0.4250
H66? H 0.5000 1.0000 0.5000
loop_
_geom_bond_atom_site_label_1
_geom_bond_atom_site_label_2
_geom_bond_site_symmetry_1
_geom_bond_site_symmetry_2
O1 C12 1_555 1_555
O2 C1 1_555 1_555
N1 H1 1_555 1_555
N2 H2 1_555 1_555
C1 N2 1_555 1_555
C2 C1 1_555 1_555
C3 C2 1_555 1_555
H3 C3 1_555 1_555
C4 C3 1_555 1_555
C5 C4 1_555 1_555
H4 C5 1_555 1_555
C6 C5 1_555 1_555
C7 C2 1_555 1_555
H5 C7 1_555 1_555
C8 C6 1_555 1_555
C9 C8 1_555 1_555
H6 C9 1_555 1_555
H7 C9 1_555 1_555
H8 C9 1_555 1_555
C10 C8 1_555 1_555
H9 C10 1_555 1_555
H10 C10 1_555 1_555
H11 C10 1_555 1_555
C11 C8 1_555 1_555
H12 C11 1_555 1_555
H13 C11 1_555 1_555
H14 C11 1_555 1_555
C12 N1 1_555 1_555
C13 N1 1_555 1_555
C14 C13 1_555 1_555
C15 C14 1_555 1_555
H15 C15 1_555 1_555
C16 C15 1_555 1_555
C17 C16 1_555 1_555
H16 C17 1_555 1_555
C18 C13 1_555 1_555
C19 C18 1_555 1_555
H17 C19 1_555 1_555
H18 C19 1_555 1_555
H19 C19 1_555 1_555
C20 C14 1_555 1_555
H20 C20 1_555 1_555
H21 C20 1_555 1_555
H22 C20 1_555 1_555
C21 N2 1_555 1_555
C22 C21 1_555 1_555
C23 C22 1_555 1_555
H23 C23 1_555 1_555
C24 C23 1_555 1_555
C25 C24 1_555 1_555
H24 C25 1_555 1_555
C26 C21 1_555 1_555
C27 C26 1_555 1_555
H25 C27 1_555 1_555
H26 C27 1_555 1_555
H27 C27 1_555 1_555
C28 C22 1_555 1_555
H28 C28 1_555 1_555
H29 C28 1_555 1_555
H30 C28 1_555 1_555
C29 C24 1_555 1_555
C30 C29 1_555 1_555
H31 C30 1_555 1_555
H32 C30 1_555 1_555
C31 C30 1_555 1_555
H33 C31 1_555 1_555
H34 C31 1_555 1_555
C32 C31 1_555 1_555
H35 C32 1_555 1_555
H36 C32 1_555 1_555
C33 C32 1_555 1_555
H37 C33 1_555 1_555
H38 C33 1_555 1_555
C34 C29 1_555 1_555
H39 C34 1_555 1_555
H40 C34 1_555 1_555
O3 H41 1_555 1_555
C35 O3 1_555 1_555
H42 C35 1_555 1_555
H43 C35 1_555 1_555
H44 C35 1_555 1_555
O4 H45 1_555 1_555
C36 O4 1_555 1_555
H46 C36 1_555 1_555
H47 C36 1_555 1_555
H48 C36 1_555 1_555
O5 H49 1_555 1_555
C37 O5 1_555 1_555
H50 C37 1_555 1_555
H51 C37 1_555 1_555
H52 C37 1_555 1_555
O6 H53 1_555 1_555
C38 O6 1_555 1_555
H54 C38 1_555 1_555
H55 C38 1_555 1_555
H56 C38 1_555 1_555
O7 H57 1_555 1_555
H58 O7 1_555 1_555
O1A C12A 1_555 1_555
O2A C1A 1_555 1_555
N1A H1A 1_555 1_555
N2A H2A 1_555 1_555
C1A N2A 1_555 1_555
C2A C1A 1_555 1_555
C3A C2A 1_555 1_555
H3A C3A 1_555 1_555
C4A C3A 1_555 1_555
C5A C4A 1_555 1_555
H4A C5A 1_555 1_555
C6A C5A 1_555 1_555
C7A C2A 1_555 1_555
H5A C7A 1_555 1_555
C8A C6A 1_555 1_555
C9A C8A 1_555 1_555
H6A C9A 1_555 1_555
H7A C9A 1_555 1_555
H8A C9A 1_555 1_555
C10A C8A 1_555 1_555
H9A C10A 1_555 1_555
H10A C10A 1_555 1_555
H11A C10A 1_555 1_555
C11A C8A 1_555 1_555
H12A C11A 1_555 1_555
H13A C11A 1_555 1_555
H14A C11A 1_555 1_555
C12A N1A 1_555 1_555
C13A N1A 1_555 1_555
C14A C13A 1_555 1_555
C15A C14A 1_555 1_555
H15A C15A 1_555 1_555
C16A C29 1_555 1_555
C17A C16A 1_555 1_555
H16A C17A 1_555 1_555
C18A C13A 1_555 1_555
C19A C18A 1_555 1_555
H17A C19A 1_555 1_555
H18A C19A 1_555 1_555
H19A C19A 1_555 1_555
C20A C14A 1_555 1_555
H20A C20A 1_555 1_555
H21A C20A 1_555 1_555
H22A C20A 1_555 1_555
C21A N2A 1_555 1_555
C22A C21A 1_555 1_555
C23A C22A 1_555 1_555
H23A C23A 1_555 1_555
C24A C23A 1_555 1_555
C25A C24A 1_555 1_555
H24A C25A 1_555 1_555
C26A C21A 1_555 1_555
C27A C26A 1_555 1_555
H25A C27A 1_555 1_555
H26A C27A 1_555 1_555
H27A C27A 1_555 1_555
C28A C22A 1_555 1_555
H28A C28A 1_555 1_555
H29A C28A 1_555 1_555
H30A C28A 1_555 1_555
C29A C16 1_555 1_555
C30A C29A 1_555 1_555
H31A C30A 1_555 1_555
H32A C30A 1_555 1_555
C31A C30A 1_555 1_555
H33A C31A 1_555 1_555
H34A C31A 1_555 1_555
C32A C31A 1_555 1_555
H35A C32A 1_555 1_555
H36A C32A 1_555 1_555
C33A C32A 1_555 1_555
H37A C33A 1_555 1_555
H38A C33A 1_555 1_555
C34A C29A 1_555 1_555
H39A C34A 1_555 1_555
H40A C34A 1_555 1_555
C4 C12 1_555 1_555
C6 C7 1_555 1_555
C17 C18 1_555 1_555
C25 C26 1_555 1_555
C33 C34 1_555 1_555
C4A C12A 1_555 1_555
C6A C7A 1_555 1_555
C15A C16A 1_555 1_555
C17A C18A 1_555 1_555
C24A C29A 1_555 1_555
C25A C26A 1_555 1_555
C33A C34A 1_555 1_555

#END
