
#######################################################################
#
#                 Cambridge Crystallographic Data Centre
#                                CCDC 
#
#######################################################################
#
# If this CIF has been generated from an entry in the Cambridge 
# Structural Database, then it will include bibliographic, chemical, 
# crystal, experimental, refinement or atomic coordinate data resulting 
# from the CCDC's data processing and validation procedures.
#
#######################################################################

data_IDASAK
_chemical_formula_moiety         'C33 H38 N4 O3,H2 O1'
_chemical_name_systematic        
'1-(2,7-di-t-butyl-9,9-dimethyl-5-(phenyldiazenyl)-9H-xanthen-4-yl)piperazine-2,5-dione monohydrate'
_symmetry_cell_setting           monoclinic
_symmetry_space_group_name_H-M   'P 21/c'
_symmetry_Int_Tables_number      14
_space_group_name_Hall           '-P 2ybc'
loop_
_symmetry_equiv_pos_site_id
_symmetry_equiv_pos_as_xyz
1 x,y,z
2 -x,1/2+y,1/2-z
3 -x,-y,-z
4 x,1/2-y,1/2+z
_cell_length_a                   11.1064(7)
_cell_length_b                   22.1507(14)
_cell_length_c                   25.3351(18)
_cell_angle_alpha                90
_cell_angle_beta                 90.026(6)
_cell_angle_gamma                90
_cell_volume                     6232.8
_exptl_crystal_colour            orange
_exptl_crystal_description       block
_cell_formula_units_Z            8
loop_
_atom_site_label
_atom_site_type_symbol
_atom_site_fract_x
_atom_site_fract_y
_atom_site_fract_z
O1 O 1.5822(2) 0.84756(10) 0.84059(11)
O2 O 1.1992(2) 0.71123(11) 0.79125(11)
O3 O 1.60099(19) 0.67830(10) 0.87202(10)
N1 N 1.5105(2) 0.76044(12) 0.80601(12)
N2 N 1.2750(2) 0.79879(12) 0.82183(12)
H1 H 1.2020 0.8143 0.8223
N3 N 1.4496(2) 0.65815(12) 0.94782(12)
N4 N 1.3804(2) 0.64815(12) 0.98594(12)
C1 C 1.2741(3) 0.68481(15) 0.98495(14)
C2 C 1.2451(3) 0.72493(16) 0.94586(16)
H2 H 1.2941 0.7275 0.9152
C3 C 1.1453(3) 0.76173(17) 0.95061(18)
H3 H 1.1263 0.7898 0.9235
C4 C 1.0738(3) 0.75769(18) 0.99460(19)
H4 H 1.0070 0.7841 0.9985
C5 C 1.0983(4) 0.7155(2) 1.03308(19)
H5 H 1.0464 0.7112 1.0627
C6 C 1.1997(3) 0.6793(2) 1.02815(17)
H6 H 1.2180 0.6506 1.0548
C7 C 1.5627(3) 0.62733(14) 0.95119(15)
C8 C 1.5992(3) 0.59125(15) 0.99278(16)
H7 H 1.5443 0.5826 1.0205
C9 C 1.7157(3) 0.56725(15) 0.99471(15)
C10 C 1.7914(3) 0.58002(15) 0.95201(15)
H8 H 1.8700 0.5631 0.9522
C11 C 1.7586(3) 0.61609(14) 0.90911(15)
C12 C 1.6428(3) 0.63974(14) 0.90985(14)
C13 C 1.7628(3) 0.53122(17) 1.04138(17)
C14 C 1.8213(4) 0.47245(18) 1.0222(2)
H9 H 1.7616 0.4482 1.0031
H10 H 1.8512 0.4496 1.0526
H11 H 1.8886 0.4820 0.9986
C15 C 1.8564(4) 0.5692(2) 1.0702(2)
H12 H 1.9223 0.5791 1.0460
H13 H 1.8881 0.5463 1.1003
H14 H 1.8189 0.6065 1.0829
C16 C 1.6618(4) 0.5130(2) 1.07968(19)
H15 H 1.6298 0.5491 1.0970
H16 H 1.6941 0.4853 1.1064
H17 H 1.5972 0.4928 1.0601
C17 C 1.8476(3) 0.62907(15) 0.86484(15)
C18 C 1.9615(3) 0.65810(19) 0.88826(17)
H18 H 2.0187 0.6669 0.8599
H19 H 1.9985 0.6302 0.9135
H20 H 1.9398 0.6957 0.9063
C19 C 1.8800(4) 0.56946(17) 0.83644(17)
H21 H 1.8068 0.5514 0.8217
H22 H 1.9166 0.5414 0.8617
H23 H 1.9371 0.5778 0.8079
C20 C 1.7931(3) 0.67280(15) 0.82517(14)
C21 C 1.6766(3) 0.69531(15) 0.83148(15)
C22 C 1.6300(3) 0.73743(14) 0.79713(14)
C23 C 1.6963(3) 0.75623(15) 0.75401(15)
H24 H 1.6627 0.7848 0.7302
C24 C 1.8120(3) 0.73386(16) 0.74494(15)
C25 C 1.8570(3) 0.69305(15) 0.78143(15)
H25 H 1.9362 0.6780 0.7762
C26 C 1.8857(3) 0.75427(17) 0.69709(16)
C27 C 1.9876(4) 0.7096(3) 0.6843(2)
H26 H 2.0464 0.7095 0.7132
H27 H 2.0274 0.7218 0.6515
H28 H 1.9540 0.6689 0.6801
C28 C 1.8062(4) 0.7564(2) 0.64868(17)
H29 H 1.7697 0.7166 0.6430
H30 H 1.8547 0.7674 0.6178
H31 H 1.7427 0.7865 0.6538
C29 C 1.9369(5) 0.8156(2) 0.7088(2)
H32 H 1.8710 0.8443 0.7148
H33 H 1.9856 0.8292 0.6788
H34 H 1.9874 0.8135 0.7404
C30 C 1.4109(3) 0.71802(15) 0.79679(16)
H35 H 1.4203 0.6836 0.8214
H36 H 1.4186 0.7019 0.7605
C31 C 1.2858(3) 0.74314(16) 0.80320(15)
C32 C 1.4966(3) 0.81462(15) 0.82922(14)
C33 C 1.3709(3) 0.83640(14) 0.84135(15)
H37 H 1.3625 0.8399 0.8801
H38 H 1.3611 0.8773 0.8263
O4 O 0.85048(19) 0.52583(10) 0.65336(10)
O5 O 0.9315(2) 0.36468(10) 0.65030(10)
O6 O 1.2729(2) 0.48896(11) 0.75076(11)
N5 N 0.9809(2) 0.44223(11) 0.70464(12)
N6 N 1.2224(2) 0.41862(13) 0.69066(13)
H39 H 1.2964 0.4044 0.6910
N7 N 0.9654(2) 0.56793(12) 0.57063(12)
N8 N 1.0093(3) 0.58434(12) 0.52704(13)
C34 C 1.3416(3) 0.50933(17) 0.48435(17)
H40 H 1.4154 0.4918 0.4732
C35 C 1.2781(3) 0.54606(16) 0.45071(16)
H41 H 1.3089 0.5545 0.4165
C36 C 1.1699(3) 0.57077(16) 0.46631(16)
H42 H 1.1260 0.5958 0.4427
C37 C 1.1252(3) 0.55911(15) 0.51633(15)
C38 C 1.1901(3) 0.52308(17) 0.55091(17)
H43 H 1.1608 0.5157 0.5855
C39 C 1.2983(3) 0.49796(17) 0.53446(18)
H44 H 1.3427 0.4728 0.5578
C40 C 0.8469(3) 0.59018(14) 0.57937(15)
C41 C 0.7883(3) 0.63087(14) 0.54637(15)
H45 H 0.8298 0.6472 0.5169
C42 C 0.6709(3) 0.64795(15) 0.55579(15)
C43 C 0.6126(3) 0.62271(15) 0.59965(15)
H46 H 0.5318 0.6343 0.6067
C44 C 0.6677(3) 0.58169(14) 0.63313(14)
C45 C 0.7864(3) 0.56673(14) 0.62320(14)
C46 C 0.6014(3) 0.69255(16) 0.52056(16)
C47 C 0.6777(4) 0.71559(19) 0.47507(18)
H47 H 0.7474 0.7376 0.4890
H48 H 0.6295 0.7427 0.4530
H49 H 0.7056 0.6814 0.4538
C48 C 0.4908(4) 0.6608(2) 0.49722(19)
H50 H 0.5169 0.6264 0.4757
H51 H 0.4458 0.6893 0.4751
H52 H 0.4390 0.6465 0.5259
C49 C 0.5607(4) 0.74633(18) 0.55436(19)
H53 H 0.5112 0.7318 0.5837
H54 H 0.5135 0.7742 0.5326
H55 H 0.6316 0.7673 0.5683
C50 C 0.5964(3) 0.55393(14) 0.67860(15)
C51 C 0.5591(3) 0.60450(16) 0.71731(15)
H56 H 0.5124 0.5871 0.7464
H57 H 0.5100 0.6344 0.6987
H58 H 0.6314 0.6241 0.7315
C52 C 0.4827(3) 0.52291(16) 0.65645(16)
H59 H 0.5065 0.4897 0.6331
H60 H 0.4350 0.5523 0.6365
H61 H 0.4345 0.5069 0.6857
C53 C 0.6723(3) 0.50724(14) 0.70734(14)
C54 C 0.7912(3) 0.49633(14) 0.69339(13)
C55 C 0.8576(3) 0.45253(14) 0.71970(14)
C56 C 0.8078(3) 0.42031(15) 0.76048(14)
H62 H 0.8550 0.3910 0.7784
C57 C 0.6885(3) 0.42991(14) 0.77600(15)
C58 C 0.6243(3) 0.47357(14) 0.74886(14)
H63 H 0.5433 0.4810 0.7590
C59 C 0.6326(3) 0.39596(16) 0.82283(15)
C60 C 0.6951(4) 0.33468(18) 0.83131(18)
H64 H 0.6904 0.3109 0.7988
H65 H 0.6550 0.3128 0.8600
H66 H 0.7797 0.3413 0.8406
C61 C 0.4995(4) 0.3836(2) 0.81347(18)
H67 H 0.4554 0.4219 0.8126
H68 H 0.4682 0.3583 0.8421
H69 H 0.4893 0.3626 0.7797
C62 C 0.6476(3) 0.43435(17) 0.87235(16)
H70 H 0.7334 0.4415 0.8788
H71 H 0.6125 0.4132 0.9026
H72 H 0.6065 0.4731 0.8674
C63 C 1.0696(3) 0.48702(16) 0.72155(18)
H73 H 1.0481 0.5011 0.7574
H74 H 1.0649 0.5222 0.6976
C64 C 1.1979(3) 0.46421(16) 0.72237(16)
C65 C 1.1373(3) 0.39009(16) 0.65534(17)
H75 H 1.1551 0.3463 0.6540
H76 H 1.1495 0.4066 0.6194
C66 C 1.0077(3) 0.39815(15) 0.67013(15)
O7 O 1.3134(4) 0.6648(3) 0.6355(3)
H77 H 1.2854 0.6511 0.6644
H78 H 1.2574 0.6818 0.6182
O8 O 1.2181(4) 0.61271(17) 0.72747(19)
H79 H 1.2383 0.5785 0.7378
H80 H 1.2088 0.6424 0.7474
O9? O 1.1922(12) 0.5842(6) 0.8135(6)
H81? H 1.2125 0.5565 0.7927
H82? H 1.1882 0.6206 0.8051
loop_
_geom_bond_atom_site_label_1
_geom_bond_atom_site_label_2
_geom_bond_site_symmetry_1
_geom_bond_site_symmetry_2
O1 C32 1_555 1_555
O2 C31 1_555 1_555
O3 C12 1_555 1_555
N1 C22 1_555 1_555
N2 H1 1_555 1_555
N3 N4 1_555 1_555
N4 C1 1_555 1_555
C1 C2 1_555 1_555
C2 H2 1_555 1_555
C3 C2 1_555 1_555
H3 C3 1_555 1_555
C4 C3 1_555 1_555
H4 C4 1_555 1_555
C5 C4 1_555 1_555
H5 C5 1_555 1_555
C6 C1 1_555 1_555
H6 C6 1_555 1_555
C7 N3 1_555 1_555
C8 C7 1_555 1_555
H7 C8 1_555 1_555
C9 C8 1_555 1_555
C10 C9 1_555 1_555
H8 C10 1_555 1_555
C11 C10 1_555 1_555
C12 C7 1_555 1_555
C13 C9 1_555 1_555
C14 C13 1_555 1_555
H9 C14 1_555 1_555
H10 C14 1_555 1_555
H11 C14 1_555 1_555
C15 C13 1_555 1_555
H12 C15 1_555 1_555
H13 C15 1_555 1_555
H14 C15 1_555 1_555
C16 C13 1_555 1_555
H15 C16 1_555 1_555
H16 C16 1_555 1_555
H17 C16 1_555 1_555
C17 C11 1_555 1_555
C18 C17 1_555 1_555
H18 C18 1_555 1_555
H19 C18 1_555 1_555
H20 C18 1_555 1_555
C19 C17 1_555 1_555
H21 C19 1_555 1_555
H22 C19 1_555 1_555
H23 C19 1_555 1_555
C20 C17 1_555 1_555
C21 O3 1_555 1_555
C22 C21 1_555 1_555
C23 C22 1_555 1_555
H24 C23 1_555 1_555
C24 C23 1_555 1_555
C25 C20 1_555 1_555
H25 C25 1_555 1_555
C26 C24 1_555 1_555
C27 C26 1_555 1_555
H26 C27 1_555 1_555
H27 C27 1_555 1_555
H28 C27 1_555 1_555
C28 C26 1_555 1_555
H29 C28 1_555 1_555
H30 C28 1_555 1_555
H31 C28 1_555 1_555
C29 C26 1_555 1_555
H32 C29 1_555 1_555
H33 C29 1_555 1_555
H34 C29 1_555 1_555
C30 N1 1_555 1_555
H35 C30 1_555 1_555
H36 C30 1_555 1_555
C31 N2 1_555 1_555
C32 N1 1_555 1_555
C33 N2 1_555 1_555
H37 C33 1_555 1_555
H38 C33 1_555 1_555
O4 C45 1_555 1_555
O5 C66 1_555 1_555
O6 C64 1_555 1_555
N5 C55 1_555 1_555
N6 H39 1_555 1_555
N7 N8 1_555 1_555
N8 C37 1_555 1_555
C34 H40 1_555 1_555
C35 C34 1_555 1_555
H41 C35 1_555 1_555
C36 C35 1_555 1_555
H42 C36 1_555 1_555
C37 C36 1_555 1_555
C38 C37 1_555 1_555
H43 C38 1_555 1_555
C39 C34 1_555 1_555
H44 C39 1_555 1_555
C40 N7 1_555 1_555
C41 C40 1_555 1_555
H45 C41 1_555 1_555
C42 C41 1_555 1_555
C43 C42 1_555 1_555
H46 C43 1_555 1_555
C44 C43 1_555 1_555
C45 C40 1_555 1_555
C46 C42 1_555 1_555
C47 C46 1_555 1_555
H47 C47 1_555 1_555
H48 C47 1_555 1_555
H49 C47 1_555 1_555
C48 C46 1_555 1_555
H50 C48 1_555 1_555
H51 C48 1_555 1_555
H52 C48 1_555 1_555
C49 C46 1_555 1_555
H53 C49 1_555 1_555
H54 C49 1_555 1_555
H55 C49 1_555 1_555
C50 C44 1_555 1_555
C51 C50 1_555 1_555
H56 C51 1_555 1_555
H57 C51 1_555 1_555
H58 C51 1_555 1_555
C52 C50 1_555 1_555
H59 C52 1_555 1_555
H60 C52 1_555 1_555
H61 C52 1_555 1_555
C53 C50 1_555 1_555
C54 O4 1_555 1_555
C55 C54 1_555 1_555
C56 C55 1_555 1_555
H62 C56 1_555 1_555
C57 C56 1_555 1_555
C58 C53 1_555 1_555
H63 C58 1_555 1_555
C59 C57 1_555 1_555
C60 C59 1_555 1_555
H64 C60 1_555 1_555
H65 C60 1_555 1_555
H66 C60 1_555 1_555
C61 C59 1_555 1_555
H67 C61 1_555 1_555
H68 C61 1_555 1_555
H69 C61 1_555 1_555
C62 C59 1_555 1_555
H70 C62 1_555 1_555
H71 C62 1_555 1_555
H72 C62 1_555 1_555
C63 N5 1_555 1_555
H73 C63 1_555 1_555
H74 C63 1_555 1_555
C64 N6 1_555 1_555
C65 N6 1_555 1_555
H75 C65 1_555 1_555
H76 C65 1_555 1_555
C66 N5 1_555 1_555
O7 H77 1_555 1_555
H78 O7 1_555 1_555
O8 H79 1_555 1_555
H80 O8 1_555 1_555
C5 C6 1_555 1_555
C11 C12 1_555 1_555
C20 C21 1_555 1_555
C24 C25 1_555 1_555
C30 C31 1_555 1_555
C32 C33 1_555 1_555
C38 C39 1_555 1_555
C44 C45 1_555 1_555
C53 C54 1_555 1_555
C57 C58 1_555 1_555
C63 C64 1_555 1_555
C65 C66 1_555 1_555

#END
