
#######################################################################
#
#                 Cambridge Crystallographic Data Centre
#                                CCDC 
#
#######################################################################
#
# If this CIF has been generated from an entry in the Cambridge 
# Structural Database, then it will include bibliographic, chemical, 
# crystal, experimental, refinement or atomic coordinate data resulting 
# from the CCDC's data processing and validation procedures.
#
#######################################################################

data_IDAYES
_chemical_formula_moiety         'C34 H22 Br1 N1'
_chemical_name_systematic        
9-(4-(6-Bromo-4-phenylnaphthalen-2-yl)phenyl)-9H-carbazole
_symmetry_cell_setting           orthorhombic
_symmetry_space_group_name_H-M   'P b c n'
_symmetry_Int_Tables_number      60
_space_group_name_Hall           '-P 2n 2ab'
loop_
_symmetry_equiv_pos_site_id
_symmetry_equiv_pos_as_xyz
1 x,y,z
2 1/2-x,1/2-y,1/2+z
3 1/2+x,1/2-y,-z
4 -x,y,1/2-z
5 -x,-y,-z
6 1/2+x,1/2+y,1/2-z
7 1/2-x,1/2+y,z
8 x,-y,1/2+z
_cell_length_a                   15.9337(11)
_cell_length_b                   10.8421(8)
_cell_length_c                   28.542(2)
_cell_angle_alpha                90
_cell_angle_beta                 90
_cell_angle_gamma                90
_cell_volume                     4930.77
_exptl_crystal_colour            colorless
_exptl_crystal_description       block
_cell_formula_units_Z            8
_exptl_crystal_recrystallization_method 'petrol ether/ethyl acetate'
loop_
_atom_site_label
_atom_site_type_symbol
_atom_site_fract_x
_atom_site_fract_y
_atom_site_fract_z
C1 C 1.1402(3) -0.4765(4) 0.48330(13)
H1 H 1.0896 -0.4556 0.4974
C2 C 1.1435(3) -0.5632(4) 0.44823(16)
H2 H 1.0943 -0.6015 0.4384
C3 C 1.2195(4) -0.5946(5) 0.42710(15)
H3 H 1.2205 -0.6553 0.4041
C4 C 1.2928(3) -0.5372(5) 0.43984(15)
H4 H 1.3431 -0.5572 0.4251
C5 C 1.4408(3) -0.3685(4) 0.49374(16)
H5 H 1.4680 -0.4121 0.4701
C6 C 1.4861(3) -0.2956(5) 0.52384(19)
H6 H 1.5438 -0.2884 0.5201
C7 C 1.4462(3) -0.2325(4) 0.55992(16)
H7 H 1.4780 -0.1849 0.5805
C8 C 1.3599(3) -0.2390(4) 0.56583(14)
H8 H 1.3333 -0.1972 0.5901
C9 C 1.2149(3) -0.4210(3) 0.49706(12)
C10 C 1.2910(3) -0.4483(4) 0.47526(13)
C11 C 1.3543(3) -0.3771(4) 0.49858(13)
C12 C 1.3149(3) -0.3096(4) 0.53449(14)
C13 C 1.1672(2) -0.2793(3) 0.56181(11)
C14 C 1.1690(2) -0.1526(3) 0.56738(12)
H9 H 1.2086 -0.1059 0.5514
C15 C 1.1119(2) -0.0952(3) 0.59670(12)
H10 H 1.1136 -0.0099 0.6000
C16 C 1.0517(2) -0.1627(3) 0.62149(11)
C17 C 1.0510(2) -0.2908(3) 0.61456(11)
H11 H 1.0110 -0.3380 0.6301
C18 C 1.1074(2) -0.3489(3) 0.58551(11)
H12 H 1.1056 -0.4341 0.5818
C19 C 0.9927(2) -0.1046(3) 0.65559(11)
C20 C 0.95376(18) -0.1741(3) 0.68476(10)
H13 H 0.9612 -0.2591 0.6839
C21 C 0.8617(2) -0.2017(3) 0.74952(12)
H14 H 0.8710 -0.2863 0.7484
C22 C 0.8096(2) -0.1553(3) 0.78268(12)
H15 H 0.7835 -0.2077 0.8040
C23 C 0.7953(2) -0.0278(4) 0.78463(12)
C24 C 0.8329(2) 0.0511(3) 0.75426(11)
H16 H 0.8229 0.1354 0.7566
C25 C 0.9293(2) 0.0812(3) 0.68573(11)
C26 C 0.9819(2) 0.0252(3) 0.65484(11)
H17 H 1.0110 0.0724 0.6330
C27 C 0.8870(2) 0.0058(3) 0.71920(11)
C28 C 0.9027(2) -0.1237(3) 0.71614(12)
C29 C 0.9166(2) 0.2173(3) 0.68438(11)
C30 C 0.9846(3) 0.2957(4) 0.68895(13)
H18 H 1.0380 0.2630 0.6933
C31 C 0.9738(3) 0.4230(4) 0.68703(15)
H19 H 1.0194 0.4753 0.6911
C32 C 0.8954(4) 0.4708(4) 0.67913(15)
H20 H 0.8881 0.5558 0.6775
C33 C 0.8280(3) 0.3949(4) 0.67365(15)
H21 H 0.7751 0.4277 0.6678
C34 C 0.8388(3) 0.2689(4) 0.67690(12)
H22 H 0.7924 0.2175 0.6740
N1 N 1.2291(2) -0.3358(3) 0.53307(10)
Br1 Br 0.72097(3) 0.03288(4) 0.830966(14)
loop_
_geom_bond_atom_site_label_1
_geom_bond_atom_site_label_2
_geom_bond_site_symmetry_1
_geom_bond_site_symmetry_2
C1 H1 1_555 1_555
C2 C1 1_555 1_555
H2 C2 1_555 1_555
C3 C2 1_555 1_555
H3 C3 1_555 1_555
C4 C3 1_555 1_555
H4 C4 1_555 1_555
C5 H5 1_555 1_555
C6 C5 1_555 1_555
H6 C6 1_555 1_555
C7 C6 1_555 1_555
H7 C7 1_555 1_555
C8 C7 1_555 1_555
H8 C8 1_555 1_555
C9 C1 1_555 1_555
C10 C4 1_555 1_555
C11 C5 1_555 1_555
C12 C8 1_555 1_555
C13 C14 1_555 1_555
C14 H9 1_555 1_555
C15 C14 1_555 1_555
H10 C15 1_555 1_555
C16 C15 1_555 1_555
C17 C16 1_555 1_555
H11 C17 1_555 1_555
C18 C13 1_555 1_555
H12 C18 1_555 1_555
C19 C16 1_555 1_555
C20 C19 1_555 1_555
H13 C20 1_555 1_555
C21 H14 1_555 1_555
C22 C21 1_555 1_555
H15 C22 1_555 1_555
C23 C22 1_555 1_555
C24 C23 1_555 1_555
H16 C24 1_555 1_555
C25 C26 1_555 1_555
C26 C19 1_555 1_555
H17 C26 1_555 1_555
C27 C24 1_555 1_555
C28 C20 1_555 1_555
C29 C25 1_555 1_555
C30 C29 1_555 1_555
H18 C30 1_555 1_555
C31 C30 1_555 1_555
H19 C31 1_555 1_555
C32 C31 1_555 1_555
H20 C32 1_555 1_555
C33 C32 1_555 1_555
H21 C33 1_555 1_555
C34 C29 1_555 1_555
H22 C34 1_555 1_555
N1 C9 1_555 1_555
Br1 C23 1_555 1_555
C9 C10 1_555 1_555
C10 C11 1_555 1_555
C11 C12 1_555 1_555
C12 N1 1_555 1_555
C13 N1 1_555 1_555
C17 C18 1_555 1_555
C21 C28 1_555 1_555
C25 C27 1_555 1_555
C27 C28 1_555 1_555
C33 C34 1_555 1_555

#END
