
#######################################################################
#
#                 Cambridge Crystallographic Data Centre
#                                CCDC 
#
#######################################################################
#
# If this CIF has been generated from an entry in the Cambridge 
# Structural Database, then it will include bibliographic, chemical, 
# crystal, experimental, refinement or atomic coordinate data resulting 
# from the CCDC's data processing and validation procedures.
#
#######################################################################

data_IDEBUR
_chemical_formula_moiety         'C28 H37 B1 N2'
_chemical_name_systematic        
4-((4-(dimethylamino)-2,6-dimethylphenyl)(2,6-dimethylphenyl)boryl)-N,N,3,5-tetramethylaniline
_symmetry_cell_setting           orthorhombic
_symmetry_space_group_name_H-M   'P b c n'
_symmetry_Int_Tables_number      60
_space_group_name_Hall           '-P 2n 2ab'
loop_
_symmetry_equiv_pos_site_id
_symmetry_equiv_pos_as_xyz
1 x,y,z
2 1/2-x,1/2-y,1/2+z
3 -x,y,1/2-z
4 1/2+x,1/2-y,-z
5 -x,-y,-z
6 1/2+x,1/2+y,1/2-z
7 x,-y,1/2+z
8 1/2-x,1/2+y,z
_cell_length_a                   12.3882(10)
_cell_length_b                   10.0080(8)
_cell_length_c                   19.1583(18)
_cell_angle_alpha                90
_cell_angle_beta                 90
_cell_angle_gamma                90
_cell_volume                     2375.27
_exptl_crystal_colour            yellow
_exptl_crystal_description       block
_cell_formula_units_Z            4
loop_
_atom_site_label
_atom_site_type_symbol
_atom_site_fract_x
_atom_site_fract_y
_atom_site_fract_z
B1 B 1.0000 0.9452(2) 0.2500
N1 N 0.78177(11) 0.65505(16) 0.02735(8)
C1 C 0.94137(10) 0.86696(13) 0.18973(7)
C2 C 0.99435(11) 0.76528(13) 0.15134(7)
C3 C 0.94228(12) 0.69815(15) 0.09737(7)
H1 H 0.9813 0.6340 0.0709
C4 C 0.83365(12) 0.72270(15) 0.08094(7)
C5 C 0.83216(11) 0.89364(13) 0.17166(7)
C6 C 0.78019(11) 0.82063(14) 0.12018(7)
H2 H 0.7060 0.8375 0.1112
C7 C 0.76670(11) 0.99736(15) 0.20988(8)
H3 H 0.8034 1.0840 0.2071
H4 H 0.7591 0.9711 0.2589
H5 H 0.6951 1.0044 0.1885
C8 C 1.11120(11) 0.72831(15) 0.16507(8)
H6 H 1.1342 0.6603 0.1314
H7 H 1.1182 0.6929 0.2125
H8 H 1.1567 0.8079 0.1601
C9 C 0.83925(15) 0.55343(19) -0.01087(9)
H9 H 0.7940 0.5208 -0.0492
H10 H 0.8568 0.4792 0.0205
H11 H 0.9060 0.5913 -0.0299
C10 C 0.66493(13) 0.64710(18) 0.02644(9)
H12 H 0.6348 0.7356 0.0166
H13 H 0.6390 0.6160 0.0720
H14 H 0.6420 0.5843 -0.0099
C11 C 1.0000 1.10464(19) 0.2500
C12 C 0.95966(10) 1.17734(14) 0.30781(7)
C13 C 0.95948(11) 1.31672(15) 0.30651(8)
H15 H 0.9310 1.3645 0.3452
C14 C 1.0000 1.3866(2) 0.2500
H16 H 1.0000 1.4816 0.2500
C15 C 0.91070(12) 1.10855(15) 0.37059(8)
H17 H 0.8428 1.0655 0.3570
H18 H 0.8965 1.1747 0.4072
H19 H 0.9610 1.0409 0.3882
N1B N 1.21823(11) 0.65505(16) 0.47265(8)
C1B C 1.05863(10) 0.86696(13) 0.31027(7)
C2B C 1.00565(11) 0.76528(13) 0.34866(7)
C3B C 1.05772(12) 0.69815(15) 0.40263(7)
H1B H 1.0187 0.6340 0.4291
C4B C 1.16635(12) 0.72270(15) 0.41906(7)
C5B C 1.16784(11) 0.89364(13) 0.32834(7)
C6B C 1.21981(11) 0.82063(14) 0.37982(7)
H2B H 1.2940 0.8375 0.3888
C7B C 1.23330(11) 0.99736(15) 0.29012(8)
H3B H 1.1966 1.0840 0.2929
H4B H 1.2409 0.9711 0.2411
H5B H 1.3049 1.0044 0.3115
C8B C 0.88880(11) 0.72831(15) 0.33493(8)
H6B H 0.8658 0.6603 0.3686
H7B H 0.8818 0.6929 0.2875
H8B H 0.8433 0.8079 0.3399
C9B C 1.16075(15) 0.55343(19) 0.51087(9)
H9B H 1.2060 0.5208 0.5492
H10B H 1.1432 0.4792 0.4795
H11B H 1.0940 0.5913 0.5299
C10B C 1.33507(13) 0.64710(18) 0.47356(9)
H12B H 1.3652 0.7356 0.4834
H13B H 1.3610 0.6160 0.4280
H14B H 1.3580 0.5843 0.5099
C12B C 1.04034(10) 1.17734(14) 0.19219(7)
C13B C 1.04052(11) 1.31672(15) 0.19349(8)
H15B H 1.0690 1.3645 0.1548
C15B C 1.08930(12) 1.10855(15) 0.12941(8)
H17B H 1.1572 1.0655 0.1430
H18B H 1.1035 1.1747 0.0928
H19B H 1.0390 1.0409 0.1118
loop_
_geom_bond_atom_site_label_1
_geom_bond_atom_site_label_2
_geom_bond_site_symmetry_1
_geom_bond_site_symmetry_2
B1 C1 1_555 1_555
N1 C4 1_555 1_555
C1 C2 1_555 1_555
C2 C3 1_555 1_555
C3 H1 1_555 1_555
C4 C3 1_555 1_555
C5 C1 1_555 1_555
C6 C4 1_555 1_555
H2 C6 1_555 1_555
C7 C5 1_555 1_555
H3 C7 1_555 1_555
H4 C7 1_555 1_555
H5 C7 1_555 1_555
C8 C2 1_555 1_555
H6 C8 1_555 1_555
H7 C8 1_555 1_555
H8 C8 1_555 1_555
C9 N1 1_555 1_555
H9 C9 1_555 1_555
H10 C9 1_555 1_555
H11 C9 1_555 1_555
C10 N1 1_555 1_555
H12 C10 1_555 1_555
H13 C10 1_555 1_555
H14 C10 1_555 1_555
C11 B1 1_555 1_555
C12 C11 1_555 1_555
C13 C12 1_555 1_555
H15 C13 1_555 1_555
C14 C13 1_555 1_555
H16 C14 1_555 1_555
C15 C12 1_555 1_555
H17 C15 1_555 1_555
H18 C15 1_555 1_555
H19 C15 1_555 1_555
N1B C4B 1_555 1_555
C1B B1 1_555 1_555
C2B C1B 1_555 1_555
C3B C2B 1_555 1_555
H1B C3B 1_555 1_555
C4B C3B 1_555 1_555
C5B C1B 1_555 1_555
C6B C4B 1_555 1_555
H2B C6B 1_555 1_555
C7B C5B 1_555 1_555
H3B C7B 1_555 1_555
H4B C7B 1_555 1_555
H5B C7B 1_555 1_555
C8B C2B 1_555 1_555
H6B C8B 1_555 1_555
H7B C8B 1_555 1_555
H8B C8B 1_555 1_555
C9B N1B 1_555 1_555
H9B C9B 1_555 1_555
H10B C9B 1_555 1_555
H11B C9B 1_555 1_555
C10B N1B 1_555 1_555
H12B C10B 1_555 1_555
H13B C10B 1_555 1_555
H14B C10B 1_555 1_555
C12B C11 1_555 1_555
C13B C14 1_555 1_555
H15B C13B 1_555 1_555
C15B C12B 1_555 1_555
H17B C15B 1_555 1_555
H18B C15B 1_555 1_555
H19B C15B 1_555 1_555
C5 C6 1_555 1_555
C5B C6B 1_555 1_555
C12B C13B 1_555 1_555

#END
