
#######################################################################
#
#                 Cambridge Crystallographic Data Centre
#                                CCDC 
#
#######################################################################
#
# If this CIF has been generated from an entry in the Cambridge 
# Structural Database, then it will include bibliographic, chemical, 
# crystal, experimental, refinement or atomic coordinate data resulting 
# from the CCDC's data processing and validation procedures.
#
#######################################################################

data_IDECAY
_chemical_formula_moiety         'C34 H48 B2 N2 O2'
_chemical_name_systematic        
4-((4-(dimethylamino)-2,6-dimethylphenyl)(2,6-dimethyl-4-(4,4,5,5-tetramethyl-1,3,2-dioxaborolan-2-yl)phenyl)boryl)-N,N,3,5-tetramethylaniline
_symmetry_cell_setting           monoclinic
_symmetry_space_group_name_H-M   'P 21/n'
_symmetry_Int_Tables_number      14
_space_group_name_Hall           '-P 2yn'
loop_
_symmetry_equiv_pos_site_id
_symmetry_equiv_pos_as_xyz
1 x,y,z
2 1/2-x,1/2+y,1/2-z
3 -x,-y,-z
4 1/2+x,1/2-y,1/2+z
_cell_length_a                   12.0780(4)
_cell_length_b                   11.2531(3)
_cell_length_c                   23.7904(6)
_cell_angle_alpha                90
_cell_angle_beta                 102.3580(10)
_cell_angle_gamma                90
_cell_volume                     3158.55
_exptl_crystal_colour            yellow
_exptl_crystal_description       block
_cell_formula_units_Z            4
loop_
_atom_site_label
_atom_site_type_symbol
_atom_site_fract_x
_atom_site_fract_y
_atom_site_fract_z
O1 O 0.15116(9) 0.50352(9) 0.58305(4)
O2 O 0.18555(9) 0.31479(9) 0.61829(4)
N1 N 0.10153(11) 0.23483(12) 0.13906(5)
N2 N 0.84757(12) 0.10237(17) 0.42940(7)
C1 C 0.21750(11) 0.34723(13) 0.51700(5)
C2 C 0.21602(11) 0.42042(12) 0.46917(5)
H1 H 0.1847 0.4980 0.4686
C3 C 0.25913(11) 0.38257(12) 0.42245(5)
C4 C 0.25519(13) 0.46747(13) 0.37257(6)
H2 H 0.3310 0.4746 0.3644
H3 H 0.2295 0.5457 0.3826
H4 H 0.2025 0.4370 0.3385
C5 C 0.30946(11) 0.26931(12) 0.42308(5)
C6 C 0.30858(12) 0.19401(13) 0.47047(6)
C7 C 0.35500(15) 0.06936(14) 0.47409(6)
H5 H 0.3979 0.0540 0.5133
H6 H 0.4050 0.0604 0.4469
H7 H 0.2922 0.0126 0.4644
C8 C 0.26160(12) 0.23371(13) 0.51562(5)
H8 H 0.2597 0.1811 0.5466
C9 C 0.49885(12) 0.19733(12) 0.38746(5)
C10 C 0.57928(12) 0.26288(13) 0.42788(6)
C11 C 0.54763(14) 0.37482(14) 0.45597(6)
H9 H 0.6167 0.4157 0.4758
H10 H 0.5017 0.3540 0.4839
H11 H 0.5040 0.4273 0.4265
C12 C 0.69304(13) 0.23128(15) 0.44087(6)
H12 H 0.7446 0.2781 0.4677
C13 C 0.73411(13) 0.13304(15) 0.41581(7)
C14 C 0.88957(15) 0.00995(18) 0.39806(9)
H13 H 0.9718 0.0028 0.4117
H14 H 0.8724 0.0294 0.3570
H15 H 0.8533 -0.0655 0.4041
C15 C 0.92624(15) 0.1719(2) 0.47099(9)
H16 H 1.0028 0.1392 0.4752
H17 H 0.9038 0.1692 0.5082
H18 H 0.9254 0.2545 0.4578
C16 C 0.65515(13) 0.06738(14) 0.37613(6)
H19 H 0.6802 -0.0006 0.3587
C17 C 0.54133(12) 0.09846(13) 0.36148(6)
C18 C 0.46585(13) 0.02120(13) 0.31721(6)
H20 H 0.5049 -0.0536 0.3130
H21 H 0.4485 0.0628 0.2802
H22 H 0.3953 0.0044 0.3297
C19 C 0.29731(11) 0.22912(12) 0.30947(5)
C20 C 0.18707(12) 0.18049(12) 0.29541(6)
C21 C 0.13307(13) 0.12070(15) 0.33986(6)
H23 H 0.0642 0.0789 0.3205
H24 H 0.1135 0.1808 0.3659
H25 H 0.1865 0.0636 0.3620
C22 C 0.12370(12) 0.18154(13) 0.23939(6)
H26 H 0.0505 0.1464 0.2313
C23 C 0.16523(12) 0.23328(13) 0.19452(6)
C24 C -0.01144(15) 0.18582(17) 0.12659(7)
H27 H -0.0437 0.1923 0.0852
H28 H -0.0590 0.2299 0.1480
H29 H -0.0084 0.1020 0.1380
C25 C 0.14613(17) 0.28709(16) 0.09337(7)
H30 H 0.0865 0.2902 0.0582
H31 H 0.2095 0.2389 0.0864
H32 H 0.1728 0.3678 0.1043
C26 C 0.27389(12) 0.28396(12) 0.20828(6)
H33 H 0.3036 0.3209 0.1788
C27 C 0.33889(11) 0.28146(12) 0.26384(5)
C28 C 0.45335(12) 0.34118(13) 0.27358(6)
H34 H 0.4601 0.3850 0.2389
H35 H 0.5131 0.2809 0.2821
H36 H 0.4611 0.3964 0.3060
C29 C 0.15271(13) 0.51045(14) 0.64486(6)
C30 C 0.26906(14) 0.55684(16) 0.67382(6)
H37 H 0.2732 0.5654 0.7152
H38 H 0.2818 0.6343 0.6574
H39 H 0.3273 0.5007 0.6675
C31 C 0.06140(14) 0.59569(15) 0.65401(7)
H40 H 0.0523 0.5898 0.6939
H41 H -0.0103 0.5754 0.6278
H42 H 0.0831 0.6770 0.6463
C32 C 0.13416(13) 0.37849(14) 0.65980(6)
C33 C 0.19359(15) 0.33967(16) 0.71988(6)
H43 H 0.1647 0.3861 0.7485
H44 H 0.2754 0.3528 0.7250
H45 H 0.1790 0.2551 0.7249
C34 C 0.01024(14) 0.34223(15) 0.64760(7)
H46 H -0.0265 0.3774 0.6766
H47 H 0.0047 0.2554 0.6490
H48 H -0.0274 0.3704 0.6093
B1 B 0.36950(14) 0.23040(14) 0.37259(6)
B2 B 0.18205(13) 0.39040(15) 0.57274(6)
loop_
_geom_bond_atom_site_label_1
_geom_bond_atom_site_label_2
_geom_bond_site_symmetry_1
_geom_bond_site_symmetry_2
O1 C29 1_555 1_555
O2 C32 1_555 1_555
N1 C23 1_555 1_555
N2 C13 1_555 1_555
C1 C2 1_555 1_555
C2 H1 1_555 1_555
C3 C2 1_555 1_555
C4 C3 1_555 1_555
H2 C4 1_555 1_555
H3 C4 1_555 1_555
H4 C4 1_555 1_555
C5 C3 1_555 1_555
C6 C5 1_555 1_555
C7 C6 1_555 1_555
H5 C7 1_555 1_555
H6 C7 1_555 1_555
H7 C7 1_555 1_555
C8 C1 1_555 1_555
H8 C8 1_555 1_555
C9 C10 1_555 1_555
C10 C11 1_555 1_555
C11 H9 1_555 1_555
H10 C11 1_555 1_555
H11 C11 1_555 1_555
C12 C10 1_555 1_555
H12 C12 1_555 1_555
C13 C12 1_555 1_555
C14 N2 1_555 1_555
H13 C14 1_555 1_555
H14 C14 1_555 1_555
H15 C14 1_555 1_555
C15 N2 1_555 1_555
H16 C15 1_555 1_555
H17 C15 1_555 1_555
H18 C15 1_555 1_555
C16 C13 1_555 1_555
H19 C16 1_555 1_555
C17 C9 1_555 1_555
C18 C17 1_555 1_555
H20 C18 1_555 1_555
H21 C18 1_555 1_555
H22 C18 1_555 1_555
C19 C20 1_555 1_555
C20 C21 1_555 1_555
C21 H23 1_555 1_555
H24 C21 1_555 1_555
H25 C21 1_555 1_555
C22 C20 1_555 1_555
H26 C22 1_555 1_555
C23 C22 1_555 1_555
C24 N1 1_555 1_555
H27 C24 1_555 1_555
H28 C24 1_555 1_555
H29 C24 1_555 1_555
C25 N1 1_555 1_555
H30 C25 1_555 1_555
H31 C25 1_555 1_555
H32 C25 1_555 1_555
C26 C23 1_555 1_555
H33 C26 1_555 1_555
C27 C19 1_555 1_555
C28 C27 1_555 1_555
H34 C28 1_555 1_555
H35 C28 1_555 1_555
H36 C28 1_555 1_555
C29 C30 1_555 1_555
C30 H37 1_555 1_555
H38 C30 1_555 1_555
H39 C30 1_555 1_555
C31 C29 1_555 1_555
H40 C31 1_555 1_555
H41 C31 1_555 1_555
H42 C31 1_555 1_555
C32 C29 1_555 1_555
C33 C32 1_555 1_555
H43 C33 1_555 1_555
H44 C33 1_555 1_555
H45 C33 1_555 1_555
C34 C32 1_555 1_555
H46 C34 1_555 1_555
H47 C34 1_555 1_555
H48 C34 1_555 1_555
B1 C5 1_555 1_555
B2 O1 1_555 1_555
O2 B2 1_555 1_555
C1 B2 1_555 1_555
C6 C8 1_555 1_555
C9 B1 1_555 1_555
C16 C17 1_555 1_555
C19 B1 1_555 1_555
C26 C27 1_555 1_555

#END
