
#######################################################################
#
#                 Cambridge Crystallographic Data Centre
#                                CCDC 
#
#######################################################################
#
# If this CIF has been generated from an entry in the Cambridge 
# Structural Database, then it will include bibliographic, chemical, 
# crystal, experimental, refinement or atomic coordinate data resulting 
# from the CCDC's data processing and validation procedures.
#
#######################################################################

data_IDEDOK
_chemical_formula_moiety         'C19 H18 Cl2 N2 O4 S1'
_chemical_name_systematic        
1-(p-Toluenesulfonyl)-2-(dichloromethyl)-4-phenyl-5-(methoxycarbonyl)-2-imidazoline
_symmetry_cell_setting           monoclinic
_symmetry_space_group_name_H-M   'P 21/n'
_symmetry_Int_Tables_number      14
_space_group_name_Hall           '-P 2yn'
loop_
_symmetry_equiv_pos_site_id
_symmetry_equiv_pos_as_xyz
1 x,y,z
2 1/2+x,1/2-y,1/2+z
3 -x,-y,-z
4 1/2-x,1/2+y,1/2-z
_cell_length_a                   15.8211(10)
_cell_length_b                   11.5315(7)
_cell_length_c                   23.2535(14)
_cell_angle_alpha                90
_cell_angle_beta                 109.8000(10)
_cell_angle_gamma                90
_cell_volume                     3991.59
_exptl_crystal_colour            colorless
_exptl_crystal_description       block
_cell_formula_units_Z            8
loop_
_atom_site_label
_atom_site_type_symbol
_atom_site_fract_x
_atom_site_fract_y
_atom_site_fract_z
N1 N 0.09429(15) 0.7641(2) 0.03667(10)
C1 C 0.11558(19) 0.6521(2) 0.06312(13)
N2 N 0.05075(16) 0.5848(2) 0.05708(11)
C2 C -0.03319(19) 0.6498(2) 0.02736(13)
H1 H -0.0736 0.6031 -0.0074
C3 C -0.00260(18) 0.7615(2) 0.00184(13)
H2 H -0.0330 0.8316 0.0111
C4 C 0.0105(3) 0.9127(3) 0.28736(16)
H3 H 0.0112 0.8340 0.3034
H4 H -0.0509 0.9432 0.2743
H5 H 0.0498 0.9627 0.3194
S1 S 0.13886(5) 0.88661(6) 0.07147(3)
O1 O 0.23362(12) 0.86750(17) 0.09303(9)
O2 O 0.10085(13) 0.97600(17) 0.02841(9)
C5 C 0.10365(19) 0.9009(2) 0.13473(12)
C6 C 0.1541(2) 0.8497(3) 0.18967(13)
H6 H 0.2092 0.8121 0.1937
C7 C 0.1231(2) 0.8541(3) 0.23837(13)
H7 H 0.1570 0.8181 0.2759
C8 C 0.0433(2) 0.9101(3) 0.23372(14)
C9 C -0.0061(2) 0.9613(3) 0.17843(14)
H8 H -0.0607 1.0002 0.1747
C10 C 0.0232(2) 0.9564(3) 0.12884(14)
H9 H -0.0113 0.9908 0.0910
C11 C 0.2129(2) 0.6159(3) 0.09145(13)
H10 H 0.2508 0.6872 0.1033
Cl1 Cl 0.22970(7) 0.53168(11) 0.15668(5)
Cl2 Cl 0.24527(6) 0.53914(11) 0.03687(4)
C12 C -0.08103(19) 0.6755(3) 0.07247(14)
C13 C -0.1644(2) 0.7306(3) 0.05251(17)
H11 H -0.1919 0.7497 0.0105
C14 C -0.2072(2) 0.7575(3) 0.09395(19)
H12 H -0.2644 0.7940 0.0799
C15 C -0.1684(2) 0.7323(3) 0.15450(18)
H13 H -0.1979 0.7523 0.1825
C16 C -0.0867(2) 0.6781(3) 0.17469(16)
H14 H -0.0599 0.6597 0.2168
C17 C -0.0427(2) 0.6497(3) 0.13393(14)
H15 H 0.0142 0.6123 0.1485
C18 C -0.0164(2) 0.7551(3) -0.06590(14)
O3 O 0.04225(16) 0.7479(2) -0.08713(10)
O4 O -0.10306(14) 0.7610(2) -0.09815(10)
C19 C -0.1254(3) 0.7573(4) -0.16415(16)
H16 H -0.1897 0.7723 -0.1840
H17 H -0.1108 0.6805 -0.1763
H18 H -0.0908 0.8165 -0.1767
N3 N 0.53843(16) 0.8943(2) 0.20221(11)
C20 C 0.49218(19) 0.9981(2) 0.17752(12)
N4 N 0.53959(16) 1.0802(2) 0.16924(11)
C21 C 0.63272(19) 1.0390(3) 0.18432(13)
H19 H 0.6737 1.0917 0.2156
C22 C 0.6343(2) 0.9162(3) 0.21298(14)
H20 H 0.6575 0.8580 0.1901
C23 C 0.5115(3) 0.6523(3) -0.06118(17)
H21 H 0.5565 0.5927 -0.0592
H22 H 0.5278 0.7244 -0.0771
H23 H 0.4525 0.6262 -0.0883
S2 S 0.50113(5) 0.75801(7) 0.19118(3)
O5 O 0.41068(15) 0.76073(19) 0.19022(10)
O6 O 0.56817(16) 0.69246(19) 0.23523(10)
C24 C 0.5016(2) 0.7199(2) 0.11793(13)
C25 C 0.4319(2) 0.7566(3) 0.06701(13)
H24 H 0.3822 0.7972 0.0714
C26 C 0.4355(2) 0.7334(3) 0.00968(14)
H25 H 0.3879 0.7587 -0.0254
C27 C 0.5078(2) 0.6735(3) 0.00228(15)
C28 C 0.5753(2) 0.6360(3) 0.05384(16)
H26 H 0.6243 0.5936 0.0495
C29 C 0.5736(2) 0.6586(3) 0.11192(16)
H27 H 0.6209 0.6326 0.1470
C30 C 0.3934(2) 1.0092(3) 0.16707(13)
H28 H 0.3621 0.9384 0.1452
Cl3 Cl 0.34702(5) 1.13217(7) 0.12241(4)
Cl4 Cl 0.37607(6) 1.01894(8) 0.23855(4)
C31 C 0.66079(19) 1.0375(2) 0.12825(13)
C32 C 0.6072(2) 0.9837(3) 0.07516(13)
H29 H 0.5513 0.9510 0.0736
C33 C 0.6337(2) 0.9767(3) 0.02462(14)
H30 H 0.5966 0.9387 -0.0113
C34 C 0.7144(2) 1.0250(3) 0.02625(15)
H31 H 0.7332 1.0193 -0.0084
C35 C 0.7674(2) 1.0813(3) 0.07807(16)
H32 H 0.8220 1.1166 0.0786
C36 C 0.7419(2) 1.0870(3) 0.12959(15)
H33 H 0.7794 1.1244 0.1656
C37 C 0.6924(2) 0.9149(4) 0.27991(16)
O7 O 0.7640(14) 0.957(2) 0.2973(12)
O10 O 0.64830(14) 0.9088(2) 0.31722(9)
C40 C 0.6991(3) 0.9111(3) 0.38212(15)
H34 H 0.6601 0.8882 0.4051
H35 H 0.7219 0.9897 0.3941
H36 H 0.7497 0.8570 0.3910
C38? C 0.6924(2) 0.9149(4) 0.27991(16)
O8? O 0.7687(6) 0.8657(10) 0.2890(5)
C39? C 0.6924(2) 0.9149(4) 0.27991(16)
O9? O 0.7791(14) 0.936(2) 0.2988(11)
loop_
_geom_bond_atom_site_label_1
_geom_bond_atom_site_label_2
_geom_bond_site_symmetry_1
_geom_bond_site_symmetry_2
N1 C1 1_555 1_555
C1 N2 1_555 1_555
N2 C2 1_555 1_555
C2 H1 1_555 1_555
C3 N1 1_555 1_555
H2 C3 1_555 1_555
C4 H3 1_555 1_555
H4 C4 1_555 1_555
H5 C4 1_555 1_555
S1 N1 1_555 1_555
O1 S1 1_555 1_555
O2 S1 1_555 1_555
C5 S1 1_555 1_555
C6 C5 1_555 1_555
H6 C6 1_555 1_555
C7 C6 1_555 1_555
H7 C7 1_555 1_555
C8 C4 1_555 1_555
C9 C8 1_555 1_555
H8 C9 1_555 1_555
C10 C5 1_555 1_555
H9 C10 1_555 1_555
C11 C1 1_555 1_555
H10 C11 1_555 1_555
Cl1 C11 1_555 1_555
Cl2 C11 1_555 1_555
C12 C2 1_555 1_555
C13 C12 1_555 1_555
H11 C13 1_555 1_555
C14 C13 1_555 1_555
H12 C14 1_555 1_555
C15 C14 1_555 1_555
H13 C15 1_555 1_555
C16 C15 1_555 1_555
H14 C16 1_555 1_555
C17 C12 1_555 1_555
H15 C17 1_555 1_555
C18 C3 1_555 1_555
O3 C18 1_555 1_555
O4 C18 1_555 1_555
C19 O4 1_555 1_555
H16 C19 1_555 1_555
H17 C19 1_555 1_555
H18 C19 1_555 1_555
N3 C20 1_555 1_555
C20 N4 1_555 1_555
N4 C21 1_555 1_555
C21 H19 1_555 1_555
C22 N3 1_555 1_555
H20 C22 1_555 1_555
C23 H21 1_555 1_555
H22 C23 1_555 1_555
H23 C23 1_555 1_555
S2 N3 1_555 1_555
O5 S2 1_555 1_555
O6 S2 1_555 1_555
C24 S2 1_555 1_555
C25 C24 1_555 1_555
H24 C25 1_555 1_555
C26 C25 1_555 1_555
H25 C26 1_555 1_555
C27 C23 1_555 1_555
C28 C27 1_555 1_555
H26 C28 1_555 1_555
C29 C24 1_555 1_555
H27 C29 1_555 1_555
C30 C20 1_555 1_555
H28 C30 1_555 1_555
Cl3 C30 1_555 1_555
Cl4 C30 1_555 1_555
C31 C21 1_555 1_555
C32 C31 1_555 1_555
H29 C32 1_555 1_555
C33 C32 1_555 1_555
H30 C33 1_555 1_555
C34 C33 1_555 1_555
H31 C34 1_555 1_555
C35 C34 1_555 1_555
H32 C35 1_555 1_555
C36 C31 1_555 1_555
H33 C36 1_555 1_555
C37 C22 1_555 1_555
O7 C37 1_555 1_555
O10 C37 1_555 1_555
C40 O10 1_555 1_555
H34 C40 1_555 1_555
H35 C40 1_555 1_555
H36 C40 1_555 1_555
C2 C3 1_555 1_555
C7 C8 1_555 1_555
C9 C10 1_555 1_555
C16 C17 1_555 1_555
C21 C22 1_555 1_555
C26 C27 1_555 1_555
C28 C29 1_555 1_555
C35 C36 1_555 1_555

#END
