
#######################################################################
#
#                 Cambridge Crystallographic Data Centre
#                                CCDC 
#
#######################################################################
#
# If this CIF has been generated from an entry in the Cambridge 
# Structural Database, then it will include bibliographic, chemical, 
# crystal, experimental, refinement or atomic coordinate data resulting 
# from the CCDC's data processing and validation procedures.
#
#######################################################################

data_IDEKOR
_chemical_formula_moiety         'C6 H9 Br1 N2 O4'
_chemical_name_systematic        
'2-Bromoethyl ((methoxycarbonyl)hydrazono)acetate'
_symmetry_cell_setting           monoclinic
_symmetry_space_group_name_H-M   'P 21/c'
_symmetry_Int_Tables_number      14
_space_group_name_Hall           '-P 2ybc'
loop_
_symmetry_equiv_pos_site_id
_symmetry_equiv_pos_as_xyz
1 x,y,z
2 -x,1/2+y,1/2-z
3 -x,-y,-z
4 x,1/2-y,1/2+z
_cell_length_a                   15.3125(6)
_cell_length_b                   6.8656(2)
_cell_length_c                   9.1911(4)
_cell_angle_alpha                90
_cell_angle_beta                 104.945(4)
_cell_angle_gamma                90
_cell_volume                     933.571
_cell_formula_units_Z            4
loop_
_atom_site_label
_atom_site_type_symbol
_atom_site_fract_x
_atom_site_fract_y
_atom_site_fract_z
Br1 Br 0.36776(3) 0.37781(6) 0.26260(5)
O1 O 0.30426(15) -0.0609(4) 0.1775(3)
O2 O 0.3389(2) -0.2716(4) 0.0145(3)
O3 O 0.0039(2) -0.1114(3) 0.2429(3)
O4 O -0.09542(15) -0.2681(4) 0.0533(2)
N1 N 0.1333(2) -0.1886(4) 0.0957(3)
N2 N 0.0453(2) -0.2402(4) 0.0411(3)
C1 C 0.4135(2) 0.1293(5) 0.3516(4)
C2 C 0.4007(2) -0.0277(6) 0.2373(4)
C3 C 0.2839(2) -0.1929(5) 0.0673(4)
C4 C 0.1860(2) -0.2360(5) 0.0142(4)
C5 C -0.0140(2) -0.1991(5) 0.1251(4)
C6 C -0.1646(2) -0.2467(6) 0.1349(4)
H1 H 0.0271 -0.2982 -0.0456
H2 H 0.4780 0.1420 0.4016
H3 H 0.3820 0.0940 0.4282
H4 H 0.4278 0.0104 0.1560
H5 H 0.4302 -0.1475 0.2834
H6 H 0.1628 -0.2979 -0.0790
H7 H -0.2212 -0.3002 0.0752
H8 H -0.1725 -0.1097 0.1539
H9 H -0.1462 -0.3159 0.2299
loop_
_geom_bond_atom_site_label_1
_geom_bond_atom_site_label_2
_geom_bond_site_symmetry_1
_geom_bond_site_symmetry_2
Br1 C1 1_555 1_555
O1 C2 1_555 1_555
O2 C3 1_555 1_555
O3 C5 1_555 1_555
O4 C5 1_555 1_555
N1 N2 1_555 1_555
N2 C5 1_555 1_555
C1 C2 1_555 1_555
C2 H4 1_555 1_555
C3 O1 1_555 1_555
C4 N1 1_555 1_555
C6 O4 1_555 1_555
H1 N2 1_555 1_555
H2 C1 1_555 1_555
H3 C1 1_555 1_555
H5 C2 1_555 1_555
H6 C4 1_555 1_555
H7 C6 1_555 1_555
H8 C6 1_555 1_555
H9 C6 1_555 1_555
C3 C4 1_555 1_555

#END
