
#######################################################################
#
#                 Cambridge Crystallographic Data Centre
#                                CCDC 
#
#######################################################################
#
# If this CIF has been generated from an entry in the Cambridge 
# Structural Database, then it will include bibliographic, chemical, 
# crystal, experimental, refinement or atomic coordinate data resulting 
# from the CCDC's data processing and validation procedures.
#
#######################################################################

data_IDENOX
_chemical_formula_moiety         'C4 H5 N7 O8'
_chemical_name_systematic        
6-(dinitromethyl)-1,3-dinitro-1,2,3,4-tetrahydro-1,3,5-triazine
_symmetry_cell_setting           triclinic
_symmetry_space_group_name_H-M   'P -1'
_symmetry_Int_Tables_number      2
_space_group_name_Hall           '-P 1'
loop_
_symmetry_equiv_pos_site_id
_symmetry_equiv_pos_as_xyz
1 x,y,z
2 -x,-y,-z
_cell_length_a                   5.886(3)
_cell_length_b                   8.134(4)
_cell_length_c                   20.460(9)
_cell_angle_alpha                99.275(11)
_cell_angle_beta                 90.656(10)
_cell_angle_gamma                93.353(10)
_cell_volume                     964.88
_exptl_crystal_colour            'white / colorless'
_exptl_crystal_description       block
_cell_formula_units_Z            4
loop_
_atom_site_label
_atom_site_type_symbol
_atom_site_fract_x
_atom_site_fract_y
_atom_site_fract_z
O1 O 0.4861(3) 0.4625(2) 0.73917(9)
O2 O 0.4629(3) 0.7564(2) 0.64045(9)
O3 O -0.0259(3) 0.7570(2) 0.61212(9)
O4 O 0.2999(3) 0.8050(2) 0.73606(9)
O5 O 0.8239(3) 0.1901(3) 0.51257(10)
O6 O 0.4985(3) 0.1942(2) 0.73728(9)
O7 O -0.1797(3) 0.5069(3) 0.61152(9)
O8 O 0.7880(3) 0.1127(3) 0.60839(11)
N1 N 0.2931(3) 0.4225(3) 0.56066(10)
N2 N 0.4495(3) 0.3165(3) 0.71353(10)
N3 N 0.4746(3) 0.1553(3) 0.55183(10)
N4 N 0.3310(3) 0.2880(3) 0.65326(10)
N5 N 0.3272(3) 0.7227(3) 0.68154(10)
N6 N -0.0284(3) 0.6164(3) 0.62478(10)
N7 N 0.7126(3) 0.1561(3) 0.55877(11)
C1 C 0.2810(4) 0.4241(3) 0.62225(12)
C2 C 0.3466(4) 0.1287(3) 0.60994(12)
H1 H 0.4239 0.0502 0.6337
H2 H 0.1921 0.0795 0.5964
C3 C 0.1704(4) 0.5675(3) 0.66443(12)
H3 H 0.1133 0.5312 0.7060
C4 C 0.3865(4) 0.2841(3) 0.51738(12)
H4 H 0.5112 0.3288 0.4920
H5 H 0.2663 0.2314 0.4852
O9 O 0.9835(3) 1.0762(2) 0.76013(9)
O10 O 0.4677(3) 0.7428(3) 0.88333(9)
O11 O 0.7954(3) 0.7330(2) 0.75610(9)
O12 O 0.9485(3) 0.7580(2) 0.85469(9)
O13 O 1.4155(3) 1.3044(3) 0.98263(9)
O14 O 1.3593(3) 1.3760(3) 0.88637(10)
O15 O 1.0032(3) 1.3474(3) 0.76817(9)
O16 O 0.3429(3) 0.9906(3) 0.89019(10)
N8 N 0.8685(3) 1.2323(3) 0.85205(10)
N9 N 1.0620(3) 1.3501(3) 0.95253(10)
N10 N 0.8378(3) 1.0822(3) 0.94036(10)
N11 N 0.8220(3) 0.7993(3) 0.81356(10)
N12 N 0.9601(3) 1.2174(3) 0.78904(10)
N13 N 0.4799(3) 0.8855(3) 0.87386(10)
N14 N 1.2948(3) 1.3399(3) 0.93881(11)
C5 C 0.9222(4) 1.3867(3) 0.89868(12)
H6 H 1.0047 1.4697 0.8758
H7 H 0.7799 1.4342 0.9162
C6 C 0.9584(4) 1.2172(3) 0.98506(12)
H8 H 1.0794 1.1699 1.0090
H9 H 0.8507 1.2668 1.0183
C7 C 0.8111(4) 1.0882(3) 0.87952(12)
C8 C 0.6800(4) 0.9470(3) 0.83560(12)
H10 H 0.6207 0.9885 0.7957
loop_
_geom_bond_atom_site_label_1
_geom_bond_atom_site_label_2
_geom_bond_site_symmetry_1
_geom_bond_site_symmetry_2
O1 N2 1_555 1_555
O2 N5 1_555 1_555
O3 N6 1_555 1_555
O4 N5 1_555 1_555
O5 N7 1_555 1_555
O6 N2 1_555 1_555
O7 N6 1_555 1_555
O8 N7 1_555 1_555
N1 C1 1_555 1_555
N2 N4 1_555 1_555
N3 N7 1_555 1_555
N4 C1 1_555 1_555
N5 C3 1_555 1_555
N6 C3 1_555 1_555
C1 C3 1_555 1_555
C2 N3 1_555 1_555
H1 C2 1_555 1_555
H2 C2 1_555 1_555
C3 H3 1_555 1_555
C4 N1 1_555 1_555
H4 C4 1_555 1_555
H5 C4 1_555 1_555
O9 N12 1_555 1_555
O10 N13 1_555 1_555
O11 N11 1_555 1_555
O12 N11 1_555 1_555
O13 N14 1_555 1_555
O14 N14 1_555 1_555
O15 N12 1_555 1_555
O16 N13 1_555 1_555
N8 N12 1_555 1_555
N9 N14 1_555 1_555
N10 C6 1_555 1_555
N11 C8 1_555 1_555
N13 C8 1_555 1_555
C5 N8 1_555 1_555
H6 C5 1_555 1_555
H7 C5 1_555 1_555
C6 N9 1_555 1_555
H8 C6 1_555 1_555
H9 C6 1_555 1_555
C7 N8 1_555 1_555
C8 C7 1_555 1_555
H10 C8 1_555 1_555
N3 C4 1_555 1_555
N4 C2 1_555 1_555
N9 C5 1_555 1_555
N10 C7 1_555 1_555

#END
