
#######################################################################
#
#                 Cambridge Crystallographic Data Centre
#                                CCDC 
#
#######################################################################
#
# If this CIF has been generated from an entry in the Cambridge 
# Structural Database, then it will include bibliographic, chemical, 
# crystal, experimental, refinement or atomic coordinate data resulting 
# from the CCDC's data processing and validation procedures.
#
#######################################################################

data_IDEPOZ
_chemical_name_common            'Tsavoenone A monohydrate'
_chemical_formula_moiety         'C28 H26 O11,H2 O1'
_chemical_name_systematic        
"dimethyl 3'',4'',6-trihydroxy-4,4',6'',7-tetramethyl-3',6'-dioxo-3H,3''H-dispiro[1-benzofuran-2,1'-cyclohex[4]ene-2',2''-[1]benzofuran]-5,7''-dicarboxylate monohydrate"
_symmetry_cell_setting           triclinic
_symmetry_space_group_name_H-M   'P -1'
_symmetry_Int_Tables_number      2
_space_group_name_Hall           '-P 1'
loop_
_symmetry_equiv_pos_site_id
_symmetry_equiv_pos_as_xyz
1 x,y,z
2 -x,-y,-z
_cell_length_a                   9.4743(5)
_cell_length_b                   10.9625(5)
_cell_length_c                   15.3255(7)
_cell_angle_alpha                69.302(1)
_cell_angle_beta                 81.446(2)
_cell_angle_gamma                65.245(2)
_cell_volume                     1352.17
_exptl_crystal_colour            'light yellow'
_exptl_crystal_description       rod
_cell_formula_units_Z            2
loop_
_atom_site_label
_atom_site_type_symbol
_atom_site_fract_x
_atom_site_fract_y
_atom_site_fract_z
C1 C 0.35498(19) -0.16364(16) 0.20376(11)
C2 C 0.30643(18) -0.01802(15) 0.15555(10)
C3 C 0.15777(19) 0.06853(16) 0.12174(11)
C4 C 0.0498(2) 0.01079(17) 0.12986(12)
C5 C 0.0957(2) -0.13476(18) 0.17574(13)
H1 H 0.0249 -0.1755 0.1812
C6 C 0.2420(2) -0.22063(17) 0.21336(12)
C7 C 0.5150(2) -0.24384(17) 0.24099(12)
C8 C 0.14353(19) 0.21860(16) 0.07760(11)
H2 H 0.0551 0.2812 0.1046
C9 C 0.2719(3) -0.3756(2) 0.26621(18)
H3 H 0.3588 -0.4352 0.2388
H4 H 0.1814 -0.3922 0.2629
H5 H 0.2945 -0.3971 0.3303
C10 C 0.6916(3) -0.4530(3) 0.3429(2)
H6 H 0.7144 -0.4038 0.3762
H7 H 0.7665 -0.4671 0.2940
H8 H 0.6961 -0.5434 0.3851
C11 C 0.2066(2) 0.50147(17) 0.07316(13)
H9 H 0.1632 0.5997 0.0588
C12 C 0.1732(2) 0.41486(17) 0.16536(12)
C13 C 0.28063(18) 0.25681(15) 0.19424(11)
C14 C 0.29884(17) 0.20570(14) 0.11033(10)
C15 C 0.37172(19) 0.28976(16) 0.03071(11)
C16 C 0.2955(2) 0.44699(17) 0.00912(12)
C17 C 0.43882(19) 0.22712(16) 0.23201(11)
H10 H 0.5204 0.2122 0.1857
H11 H 0.4325 0.3040 0.2518
C18 C 0.3283(3) 0.5344(2) -0.08549(15)
H12 H 0.2819 0.5236 -0.1324
H13 H 0.4386 0.5030 -0.0953
H14 H 0.2854 0.6325 -0.0893
C19 C 0.5835(2) -0.12427(17) 0.43756(11)
C20 C 0.4395(2) -0.13979(18) 0.45098(11)
C21 C 0.3076(2) -0.04163(18) 0.39679(11)
C22 C 0.32773(19) 0.07216(16) 0.32977(10)
C23 C 0.46510(19) 0.09278(16) 0.31379(10)
C24 C 0.5962(2) -0.00333(17) 0.36607(11)
C25 C 0.7118(3) -0.23681(19) 0.49920(13)
C26 C 0.1589(3) -0.0633(2) 0.40866(15)
H15 H 0.1283 -0.0826 0.4731
H16 H 0.1740 -0.1420 0.3891
H17 H 0.0790 0.0209 0.3714
C27 C 0.7416(2) 0.0252(2) 0.34340(13)
H18 H 0.8215 -0.0499 0.3241
H19 H 0.7756 0.0297 0.3977
H20 H 0.7207 0.1139 0.2939
C28 C 0.9724(3) -0.3298(3) 0.54591(17)
H21 H 0.9478 -0.3276 0.6085
H22 H 1.0649 -0.3120 0.5258
H23 H 0.9892 -0.4214 0.5440
O1 O 0.39921(12) 0.05661(10) 0.13846(7)
O2 O -0.09304(15) 0.09796(13) 0.09411(11)
H24 H -0.1416 0.0507 0.0952
O3 O 0.61721(16) -0.20176(14) 0.22222(11)
O4 O 0.53740(19) -0.36950(16) 0.30300(14)
O5 O 0.13086(16) 0.26983(12) -0.02090(8)
H25 H 0.1788 0.2039 -0.0416
O6 O 0.07025(16) 0.46440(14) 0.21491(9)
O7 O 0.48465(15) 0.23450(13) -0.01164(9)
O8 O 0.21034(13) 0.17722(12) 0.26938(8)
O9 O 0.42110(19) -0.25322(15) 0.51709(10)
H26 H 0.4982 -0.2995 0.5507
O10 O 0.7001(2) -0.33829(17) 0.56117(12)
O11 O 0.84522(18) -0.22202(16) 0.48490(10)
O12 O 0.72616(14) 0.97018(13) 0.08396(9)
H27 H 0.6780 0.9248 0.1378
H28 H 0.6409 1.0494 0.0475
loop_
_geom_bond_atom_site_label_1
_geom_bond_atom_site_label_2
_geom_bond_site_symmetry_1
_geom_bond_site_symmetry_2
C1 C2 1_555 1_555
C2 C3 1_555 1_555
C3 C4 1_555 1_555
C4 C5 1_555 1_555
C5 H1 1_555 1_555
C6 C1 1_555 1_555
C7 C1 1_555 1_555
C8 C3 1_555 1_555
H2 C8 1_555 1_555
C9 C6 1_555 1_555
H3 C9 1_555 1_555
H4 C9 1_555 1_555
H5 C9 1_555 1_555
C10 H6 1_555 1_555
H7 C10 1_555 1_555
H8 C10 1_555 1_555
C11 H9 1_555 1_555
C12 C11 1_555 1_555
C13 C12 1_555 1_555
C14 C8 1_555 1_555
C15 C14 1_555 1_555
C16 C11 1_555 1_555
C17 C13 1_555 1_555
H10 C17 1_555 1_555
H11 C17 1_555 1_555
C18 C16 1_555 1_555
H12 C18 1_555 1_555
H13 C18 1_555 1_555
H14 C18 1_555 1_555
C19 C20 1_555 1_555
C20 C21 1_555 1_555
C21 C22 1_555 1_555
C22 C23 1_555 1_555
C23 C17 1_555 1_555
C24 C19 1_555 1_555
C25 C19 1_555 1_555
C26 C21 1_555 1_555
H15 C26 1_555 1_555
H16 C26 1_555 1_555
H17 C26 1_555 1_555
C27 C24 1_555 1_555
H18 C27 1_555 1_555
H19 C27 1_555 1_555
H20 C27 1_555 1_555
C28 H21 1_555 1_555
H22 C28 1_555 1_555
H23 C28 1_555 1_555
O1 C2 1_555 1_555
O2 C4 1_555 1_555
H24 O2 1_555 1_555
O3 C7 1_555 1_555
O4 C7 1_555 1_555
O5 C8 1_555 1_555
H25 O5 1_555 1_555
O6 C12 1_555 1_555
O7 C15 1_555 1_555
O8 C13 1_555 1_555
O9 C20 1_555 1_555
H26 O9 1_555 1_555
O10 C25 1_555 1_555
O11 C25 1_555 1_555
O12 H27 1_555 1_555
H28 O12 1_555 1_555
C5 C6 1_555 1_555
C10 O4 1_555 1_555
C13 C14 1_555 1_555
C14 O1 1_555 1_555
C15 C16 1_555 1_555
C22 O8 1_555 1_555
C23 C24 1_555 1_555
C28 O11 1_555 1_555

#END
