
#######################################################################
#
#                 Cambridge Crystallographic Data Centre
#                                CCDC 
#
#######################################################################
#
# If this CIF has been generated from an entry in the Cambridge 
# Structural Database, then it will include bibliographic, chemical, 
# crystal, experimental, refinement or atomic coordinate data resulting 
# from the CCDC's data processing and validation procedures.
#
#######################################################################

data_IDEPIR01
_chemical_formula_moiety         'C17 H20 N2 O2'
_chemical_name_systematic        
5-(diethylamino)-2-(((2-hydroxyphenyl)iminio)methyl)phenolate
_symmetry_cell_setting           triclinic
_symmetry_space_group_name_H-M   'P -1'
_symmetry_Int_Tables_number      2
_space_group_name_Hall           '-P 1'
loop_
_symmetry_equiv_pos_site_id
_symmetry_equiv_pos_as_xyz
1 x,y,z
2 -x,-y,-z
_cell_length_a                   11.7339(7)
_cell_length_b                   12.1454(7)
_cell_length_c                   17.3108(9)
_cell_angle_alpha                97.141(4)
_cell_angle_beta                 105.326(5)
_cell_angle_gamma                101.489(5)
_cell_volume                     2290.37
_exptl_crystal_colour            yellow
_exptl_crystal_description       rectangular
_cell_formula_units_Z            6
loop_
_atom_site_label
_atom_site_type_symbol
_atom_site_fract_x
_atom_site_fract_y
_atom_site_fract_z
O1 O 0.12592(19) 0.27042(17) 0.33166(13)
O2 O 0.3982(2) 0.4516(2) 0.30992(15)
H1 H 0.4529 0.4291 0.2966
N1 N 0.2778(3) 0.4643(2) 0.41894(19)
C1 C -0.0225(3) 0.1775(3) 0.38594(19)
H2 H -0.0428 0.1140 0.3445
C2 C 0.0705(3) 0.2700(3) 0.38793(19)
C3 C 0.2054(3) 0.4558(3) 0.4655(2)
H3 H 0.2227 0.5148 0.5098
C4 C 0.3847(3) 0.5486(3) 0.4314(2)
C5 C 0.1053(3) 0.3655(3) 0.45377(19)
N2 N -0.1741(3) 0.0817(3) 0.4402(2)
C6 C -0.0863(3) 0.1756(3) 0.4429(2)
C7 C 0.4471(3) 0.5399(3) 0.3738(2)
C8 C -0.2041(3) -0.0227(3) 0.3791(2)
H4 H -0.2008 -0.0021 0.3272
H5 H -0.2868 -0.0646 0.3722
C9 C 0.5545(3) 0.6192(3) 0.3832(3)
H6 H 0.5953 0.6143 0.3441
C10 C -0.0556(4) 0.2746(3) 0.5051(2)
H7 H -0.0996 0.2777 0.5425
C11 C 0.0365(4) 0.3636(3) 0.5099(2)
H8 H 0.0559 0.4264 0.5518
C12 C 0.4336(4) 0.6344(3) 0.4994(3)
H9 H 0.3942 0.6397 0.5393
C13 C -0.1195(4) -0.0983(3) 0.4021(2)
H10 H -0.1480 -0.1691 0.3635
H11 H -0.1169 -0.1133 0.4556
H12 H -0.0394 -0.0610 0.4019
C14 C 0.6003(4) 0.7044(4) 0.4499(4)
H13 H 0.6725 0.7578 0.4561
C15 C 0.5414(5) 0.7122(4) 0.5081(3)
H14 H 0.5741 0.7704 0.5538
C16 C -0.2335(4) 0.0723(4) 0.5044(3)
H15 H -0.2423 -0.0045 0.5160
H16 H -0.1827 0.1252 0.5538
C17 C -0.3530(6) 0.0972(6) 0.4806(4)
H17 H -0.4057 0.0409 0.4346
H18 H -0.3451 0.1716 0.4664
H19 H -0.3870 0.0955 0.5253
H20 H 0.258(3) 0.405(3) 0.374(2)
O3 O 0.2556(2) 0.17414(17) 0.84038(13)
N3 N 0.1862(3) 0.0075(2) 0.91947(19)
O4 O 0.0108(2) -0.1229(2) 0.79089(13)
H21 H -0.0369 -0.1746 0.7551
C18 C 0.3613(3) 0.1998(2) 0.89469(19)
C19 C 0.3853(3) 0.1359(3) 0.95938(18)
C20 C 0.0955(3) -0.0775(2) 0.93191(19)
C21 C 0.0057(3) -0.1449(3) 0.8646(2)
C22 C 0.2973(3) 0.0475(3) 0.9681(2)
H22 H 0.3195 0.0132 1.0131
C23 C 0.4563(3) 0.2902(3) 0.8940(2)
H23 H 0.4420 0.3336 0.8534
C24 C 0.5029(3) 0.1659(3) 1.0162(2)
H24 H 0.5192 0.1243 1.0578
C25 C -0.0848(3) -0.2281(3) 0.8752(2)
H25 H -0.1455 -0.2739 0.8302
C26 C 0.0935(3) -0.0930(3) 1.0089(2)
H26 H 0.1535 -0.0471 1.0543
C27 C 0.5689(3) 0.3172(3) 0.9502(2)
N4 N 0.6579(3) 0.4051(3) 0.9469(2)
C28 C 0.0029(4) -0.1766(3) 1.0192(2)
H27 H 0.0017 -0.1873 1.0712
C29 C -0.0850(4) -0.2432(3) 0.9523(3)
H28 H -0.1459 -0.2996 0.9591
C30 C 0.6416(4) 0.4789(3) 0.8866(3)
H29 H 0.5915 0.4332 0.8342
H30 H 0.7204 0.5134 0.8810
C31 C 0.5915(3) 0.2515(3) 1.0127(2)
H31 H 0.6679 0.2681 1.0510
C32 C 0.5837(4) 0.5703(4) 0.9098(3)
H32 H 0.5815 0.6214 0.8716
H33 H 0.6298 0.6121 0.9635
H34 H 0.5021 0.5368 0.9093
C33 C 0.7810(8) 0.4714(5) 1.0388(4)
H35 H 0.8108 0.5533 1.0445
H36 H 0.7665 0.4511 1.0885
C34 C 0.8401(8) 0.4123(7) 1.0084(6)
H37 H 0.9212 0.4265 1.0447
H38 H 0.8438 0.4325 0.9570
H39 H 0.8006 0.3327 1.0000
H40 H 0.171(3) 0.039(2) 0.8780(19)
O5 O 0.2267(2) 0.34448(18) 0.76681(15)
H41 H 0.2324 0.2887 0.7885
N5 N 0.1973(3) 0.5497(3) 0.73897(16)
N6 N 0.6319(3) 0.9970(2) 0.78659(17)
O6 O 0.4185(2) 0.6032(2) 0.72363(16)
C35 C 0.2106(3) 0.6620(3) 0.75252(18)
H42 H 0.1449 0.6891 0.7601
C36 C 0.5289(3) 0.9125(3) 0.77417(19)
C37 C 0.3205(3) 0.8597(3) 0.77680(19)
H43 H 0.2520 0.8814 0.7845
C38 C 0.3152(3) 0.7424(3) 0.75626(19)
C39 C 0.1136(3) 0.3607(3) 0.75534(19)
C40 C 0.0954(3) 0.4661(3) 0.73954(19)
C41 C 0.4203(3) 0.7106(3) 0.7428(2)
C42 C 0.4221(3) 0.9418(3) 0.78564(19)
H44 H 0.4222 1.0183 0.7994
C43 C 0.5236(3) 0.7974(3) 0.7510(2)
H45 H 0.5912 0.7773 0.7405
C44 C 0.7405(3) 0.9699(3) 0.7699(2)
H46 H 0.7477 0.8966 0.7847
H47 H 0.8118 1.0272 0.8044
C45 C -0.0190(3) 0.4871(3) 0.7268(2)
H48 H -0.0310 0.5574 0.7152
C46 C 0.0165(3) 0.2781(3) 0.7589(2)
H49 H 0.0275 0.2070 0.7692
C47 C -0.1154(3) 0.4050(4) 0.7312(2)
H50 H -0.1920 0.4197 0.7235
C48 C 0.6344(3) 1.1181(3) 0.8070(2)
H51 H 0.7184 1.1606 0.8318
H52 H 0.5916 1.1272 0.8474
C49 C 0.5784(4) 1.1700(3) 0.7356(2)
H53 H 0.6163 1.1571 0.6936
H54 H 0.5907 1.2507 0.7533
H55 H 0.4927 1.1351 0.7147
C50 C -0.0961(4) 0.3005(4) 0.7472(3)
H56 H -0.1608 0.2444 0.7501
C51 C 0.7399(4) 0.9651(4) 0.6842(2)
H57 H 0.6671 0.9122 0.6492
H58 H 0.8098 0.9404 0.6770
H59 H 0.7425 1.0397 0.6707
H60 H 0.263(3) 0.525(3) 0.7327(19)
loop_
_geom_bond_atom_site_label_1
_geom_bond_atom_site_label_2
_geom_bond_site_symmetry_1
_geom_bond_site_symmetry_2
O1 C2 1_555 1_555
O2 H1 1_555 1_555
N1 C3 1_555 1_555
C1 H2 1_555 1_555
C2 C1 1_555 1_555
C3 H3 1_555 1_555
C4 N1 1_555 1_555
C5 C2 1_555 1_555
N2 C6 1_555 1_555
C6 C1 1_555 1_555
C7 O2 1_555 1_555
C8 N2 1_555 1_555
H4 C8 1_555 1_555
H5 C8 1_555 1_555
C9 C7 1_555 1_555
H6 C9 1_555 1_555
C10 C6 1_555 1_555
H7 C10 1_555 1_555
C11 C5 1_555 1_555
H8 C11 1_555 1_555
C12 C4 1_555 1_555
H9 C12 1_555 1_555
C13 C8 1_555 1_555
H10 C13 1_555 1_555
H11 C13 1_555 1_555
H12 C13 1_555 1_555
C14 C9 1_555 1_555
H13 C14 1_555 1_555
C15 C12 1_555 1_555
H14 C15 1_555 1_555
C16 N2 1_555 1_555
H15 C16 1_555 1_555
H16 C16 1_555 1_555
C17 C16 1_555 1_555
H17 C17 1_555 1_555
H18 C17 1_555 1_555
H19 C17 1_555 1_555
H20 N1 1_555 1_555
O3 C18 1_555 1_555
N3 C20 1_555 1_555
O4 H21 1_555 1_555
C18 C19 1_555 1_555
C19 C22 1_555 1_555
C20 C21 1_555 1_555
C21 O4 1_555 1_555
C22 N3 1_555 1_555
H22 C22 1_555 1_555
C23 C18 1_555 1_555
H23 C23 1_555 1_555
C24 C19 1_555 1_555
H24 C24 1_555 1_555
C25 C21 1_555 1_555
H25 C25 1_555 1_555
C26 C20 1_555 1_555
H26 C26 1_555 1_555
C27 C23 1_555 1_555
N4 C27 1_555 1_555
C28 C26 1_555 1_555
H27 C28 1_555 1_555
C29 C25 1_555 1_555
H28 C29 1_555 1_555
C30 N4 1_555 1_555
H29 C30 1_555 1_555
H30 C30 1_555 1_555
C31 C24 1_555 1_555
H31 C31 1_555 1_555
C32 C30 1_555 1_555
H32 C32 1_555 1_555
H33 C32 1_555 1_555
H34 C32 1_555 1_555
C33 N4 1_555 1_555
H35 C33 1_555 1_555
H36 C33 1_555 1_555
C34 C33 1_555 1_555
H37 C34 1_555 1_555
H38 C34 1_555 1_555
H39 C34 1_555 1_555
H40 N3 1_555 1_555
O5 H41 1_555 1_555
N5 C35 1_555 1_555
N6 C36 1_555 1_555
O6 C41 1_555 1_555
C35 H42 1_555 1_555
C36 C42 1_555 1_555
C37 H43 1_555 1_555
C38 C35 1_555 1_555
C39 O5 1_555 1_555
C40 N5 1_555 1_555
C41 C38 1_555 1_555
C42 C37 1_555 1_555
H44 C42 1_555 1_555
C43 C36 1_555 1_555
H45 C43 1_555 1_555
C44 N6 1_555 1_555
H46 C44 1_555 1_555
H47 C44 1_555 1_555
C45 C40 1_555 1_555
H48 C45 1_555 1_555
C46 C39 1_555 1_555
H49 C46 1_555 1_555
C47 C45 1_555 1_555
H50 C47 1_555 1_555
C48 N6 1_555 1_555
H51 C48 1_555 1_555
H52 C48 1_555 1_555
C49 C48 1_555 1_555
H53 C49 1_555 1_555
H54 C49 1_555 1_555
H55 C49 1_555 1_555
C50 C46 1_555 1_555
H56 C50 1_555 1_555
C51 C44 1_555 1_555
H57 C51 1_555 1_555
H58 C51 1_555 1_555
H59 C51 1_555 1_555
H60 N5 1_555 1_555
C3 C5 1_555 1_555
C4 C7 1_555 1_555
C10 C11 1_555 1_555
C14 C15 1_555 1_555
C27 C31 1_555 1_555
C28 C29 1_555 1_555
C37 C38 1_555 1_555
C39 C40 1_555 1_555
C41 C43 1_555 1_555
C47 C50 1_555 1_555

#END
