
#######################################################################
#
#                 Cambridge Crystallographic Data Centre
#                                CCDC 
#
#######################################################################
#
# If this CIF has been generated from an entry in the Cambridge 
# Structural Database, then it will include bibliographic, chemical, 
# crystal, experimental, refinement or atomic coordinate data resulting 
# from the CCDC's data processing and validation procedures.
#
#######################################################################

data_IDEQIS01
_chemical_formula_moiety         'C19 H23 N1 O10 S1'
_chemical_name_systematic        
N-(2,3,4,6-Tetra-O-acetyl-\b-D-glucopyranosyl)thiophene-2-carboxamide
_symmetry_cell_setting           monoclinic
_symmetry_space_group_name_H-M   'C 2'
_symmetry_Int_Tables_number      5
_space_group_name_Hall           'C 2y'
loop_
_symmetry_equiv_pos_site_id
_symmetry_equiv_pos_as_xyz
1 x,y,z
2 -x,y,-z
3 1/2+x,1/2+y,z
4 1/2-x,1/2+y,-z
_cell_length_a                   16.247(3)
_cell_length_b                   14.105(3)
_cell_length_c                   11.182(2)
_cell_angle_alpha                90
_cell_angle_beta                 124.950(3)
_cell_angle_gamma                90
_cell_volume                     2100.37
_exptl_crystal_colour            colorless
_exptl_crystal_description       block
_chemical_melting_point          '170-171 deg.C'
_cell_formula_units_Z            4
loop_
_atom_site_label
_atom_site_type_symbol
_atom_site_fract_x
_atom_site_fract_y
_atom_site_fract_z
S1 S 0.85448(2) 0.52027(2) 0.40469(3)
O1 O 1.01751(6) 0.17129(6) 0.68819(9)
O2 O 1.05354(6) -0.05370(6) 0.86969(9)
O3 O 0.76580(6) 0.07800(6) 0.43782(9)
N1 N 0.88844(7) 0.24316(7) 0.47387(11)
H1 H 0.8849 0.2245 0.3960
O4 O 1.15985(6) 0.22413(6) 0.98196(9)
O5 O 0.89437(6) -0.08613(6) 0.54323(9)
O6 O 0.86415(7) 0.36444(6) 0.58491(10)
O7 O 0.86820(7) -0.17603(7) 0.68580(10)
C1 C 0.91016(8) 0.17575(8) 0.58418(11)
H2 H 0.8776 0.1955 0.6337
C2 C 0.91297(8) -0.00249(7) 0.62858(11)
H3 H 0.8739 -0.0053 0.6723
C3 C 1.02491(8) 0.00824(8) 0.74889(11)
H4 H 1.0659 -0.0055 0.7101
C4 C 0.86916(8) 0.40268(8) 0.38330(12)
O8 O 1.13652(8) 0.17203(7) 1.15120(11)
O9 O 1.10526(8) -0.16614(8) 0.78282(11)
O10 O 0.74584(8) 0.05698(9) 0.22283(11)
C5 C 0.87315(8) 0.33665(8) 0.48911(12)
C6 C 1.04320(8) 0.10942(8) 0.80693(11)
H5 H 0.9987 0.1232 0.8398
C7 C 1.15111(8) 0.12828(8) 0.93077(13)
H6 H 1.1726 0.0830 1.0113
H7 H 1.1950 0.1196 0.8968
C8 C 1.14787(8) 0.23665(9) 1.09136(12)
C9 C 0.87517(9) 0.47526(9) 0.20125(13)
H8 H 0.8800 0.4794 0.1207
C10 C 1.09404(8) -0.13889(8) 0.87441(12)
C11 C 0.71046(8) 0.06837(8) 0.29142(12)
C12 C 0.87981(9) 0.38834(8) 0.27067(13)
H9 H 0.8891 0.3279 0.2426
C13 C 0.87433(8) -0.16825(8) 0.58396(12)
C14 C 0.87342(7) 0.07772(8) 0.51672(11)
H10 H 0.8925 0.0654 0.4475
C15 C 0.86283(9) 0.55200(9) 0.26508(14)
H11 H 0.8593 0.6157 0.2347
C16 C 1.15071(11) 0.33954(10) 1.12542(16)
H12 H 1.1478 0.3466 1.2101
H13 H 1.0931 0.3718 1.0412
H14 H 1.2131 0.3677 1.1473
C17 C 0.86448(10) -0.24767(9) 0.48724(14)
H15 H 0.8030 -0.2836 0.4527
H16 H 0.9227 -0.2898 0.5424
H17 H 0.8612 -0.2215 0.4034
C18 C 0.60079(9) 0.07376(10) 0.22852(13)
H18 H 0.5617 0.0569 0.1248
H19 H 0.5838 0.1384 0.2392
H20 H 0.5850 0.0295 0.2803
C19 C 1.12124(10) -0.19365(10) 1.00706(14)
H21 H 1.1823 -0.2305 1.0429
H22 H 1.0662 -0.2367 0.9820
H23 H 1.1330 -0.1496 1.0832
loop_
_geom_bond_atom_site_label_1
_geom_bond_atom_site_label_2
_geom_bond_site_symmetry_1
_geom_bond_site_symmetry_2
S1 C4 1_555 1_555
O1 C1 1_555 1_555
O2 C3 1_555 1_555
O3 C11 1_555 1_555
N1 H1 1_555 1_555
O4 C7 1_555 1_555
O5 C2 1_555 1_555
O6 C5 1_555 1_555
O7 C13 1_555 1_555
C1 N1 1_555 1_555
H2 C1 1_555 1_555
C2 H3 1_555 1_555
C3 C2 1_555 1_555
H4 C3 1_555 1_555
C4 C5 1_555 1_555
O8 C8 1_555 1_555
O9 C10 1_555 1_555
O10 C11 1_555 1_555
C5 N1 1_555 1_555
C6 O1 1_555 1_555
H5 C6 1_555 1_555
C7 C6 1_555 1_555
H6 C7 1_555 1_555
H7 C7 1_555 1_555
C8 O4 1_555 1_555
C9 H8 1_555 1_555
C10 O2 1_555 1_555
C11 C18 1_555 1_555
C12 C4 1_555 1_555
H9 C12 1_555 1_555
C13 O5 1_555 1_555
C14 O3 1_555 1_555
H10 C14 1_555 1_555
C15 S1 1_555 1_555
H11 C15 1_555 1_555
C16 C8 1_555 1_555
H12 C16 1_555 1_555
H13 C16 1_555 1_555
H14 C16 1_555 1_555
C17 C13 1_555 1_555
H15 C17 1_555 1_555
H16 C17 1_555 1_555
H17 C17 1_555 1_555
C18 H18 1_555 1_555
H19 C18 1_555 1_555
H20 C18 1_555 1_555
C19 C10 1_555 1_555
H21 C19 1_555 1_555
H22 C19 1_555 1_555
H23 C19 1_555 1_555
C1 C14 1_555 1_555
C2 C14 1_555 1_555
C3 C6 1_555 1_555
C9 C12 1_555 1_555
C9 C15 1_555 1_555

#END
