
#######################################################################
#
#                 Cambridge Crystallographic Data Centre
#                                CCDC 
#
#######################################################################
#
# If this CIF has been generated from an entry in the Cambridge 
# Structural Database, then it will include bibliographic, chemical, 
# crystal, experimental, refinement or atomic coordinate data resulting 
# from the CCDC's data processing and validation procedures.
#
#######################################################################

data_IDEXIZ
_chemical_formula_moiety         'C13 H15 F3 N2 O1 S1'
_chemical_name_systematic        
(S)-1,1,1-Trifluoro-2-(N-(R)-t-butylsulfinyl)amino-2-cyano-2-phenylethane
_symmetry_cell_setting           monoclinic
_symmetry_space_group_name_H-M   'P 21'
_symmetry_Int_Tables_number      4
_space_group_name_Hall           'P 2yb'
loop_
_symmetry_equiv_pos_site_id
_symmetry_equiv_pos_as_xyz
1 x,y,z
2 -x,1/2+y,-z
_cell_length_a                   9.2287(12)
_cell_length_b                   8.0025(10)
_cell_length_c                   10.3705(14)
_cell_angle_alpha                90
_cell_angle_beta                 90.623(2)
_cell_angle_gamma                90
_cell_volume                     765.844
_exptl_crystal_colour            colorless
_exptl_crystal_description       prismatic
_chemical_melting_point          '125-126 deg.C'
_cell_formula_units_Z            2
loop_
_atom_site_label
_atom_site_type_symbol
_atom_site_fract_x
_atom_site_fract_y
_atom_site_fract_z
S1 S 0.18771(5) 0.66301(6) 0.53487(4)
O1 O 0.04315(15) 0.71817(19) 0.48905(14)
N1 N 0.17261(17) 0.4828(2) 0.61911(15)
N2 N -0.1130(2) 0.5798(3) 0.8157(2)
F1 F 0.07885(16) 0.21792(16) 0.78021(14)
F2 F 0.17038(17) 0.3344(2) 0.94661(13)
F3 F 0.30595(15) 0.26316(17) 0.79152(15)
C1 C 0.1788(2) 0.3257(3) 0.8194(2)
C2 C 0.15468(18) 0.5005(2) 0.75818(17)
C3 C 0.0025(2) 0.5477(3) 0.79191(18)
C4 C 0.26254(19) 0.6250(2) 0.81759(17)
C5 C 0.2188(2) 0.7553(3) 0.89359(19)
C6 C 0.3192(3) 0.8649(4) 0.9458(2)
C7 C 0.4644(3) 0.8422(4) 0.9232(2)
C8 C 0.5089(2) 0.7125(3) 0.8488(2)
C9 C 0.4098(2) 0.6041(3) 0.79464(19)
C10 C 0.2807(2) 0.5755(3) 0.39292(17)
C11 C 0.4257(3) 0.5066(4) 0.4382(3)
C12 C 0.3030(3) 0.7284(4) 0.3073(3)
C13 C 0.1867(3) 0.4478(3) 0.3275(2)
H1 H 0.123(2) 0.772(3) 0.917(2)
H2 H 0.286(3) 0.951(4) 0.994(3)
H3 H 0.524(3) 0.909(4) 0.961(2)
H4 H 0.608(3) 0.696(3) 0.832(2)
H5 H 0.439(2) 0.518(3) 0.744(2)
H6 H 0.411(2) 0.410(3) 0.496(2)
H7 H 0.477(3) 0.586(4) 0.491(3)
H8 H 0.481(3) 0.486(3) 0.361(2)
H9 H 0.353(3) 0.818(5) 0.355(3)
H10 H 0.355(3) 0.700(4) 0.228(3)
H11 H 0.214(3) 0.779(3) 0.279(3)
H12 H 0.226(3) 0.429(3) 0.250(3)
H13 H 0.086(3) 0.480(3) 0.317(2)
H14 H 0.190(3) 0.352(4) 0.371(2)
H15 H 0.109(2) 0.419(3) 0.5870(18)
loop_
_geom_bond_atom_site_label_1
_geom_bond_atom_site_label_2
_geom_bond_site_symmetry_1
_geom_bond_site_symmetry_2
S1 O1 1_555 1_555
N1 S1 1_555 1_555
N2 C3 1_555 1_555
F1 C1 1_555 1_555
F2 C1 1_555 1_555
F3 C1 1_555 1_555
C1 C2 1_555 1_555
C2 N1 1_555 1_555
C3 C2 1_555 1_555
C4 C2 1_555 1_555
C5 C4 1_555 1_555
C6 C5 1_555 1_555
C7 C6 1_555 1_555
C8 C7 1_555 1_555
C9 C4 1_555 1_555
C10 S1 1_555 1_555
C11 C10 1_555 1_555
C12 C10 1_555 1_555
C13 C10 1_555 1_555
H1 C5 1_555 1_555
H2 C6 1_555 1_555
H3 C7 1_555 1_555
H4 C8 1_555 1_555
H5 C9 1_555 1_555
H6 C11 1_555 1_555
H7 C11 1_555 1_555
H8 C11 1_555 1_555
H9 C12 1_555 1_555
H10 C12 1_555 1_555
H11 C12 1_555 1_555
H12 C13 1_555 1_555
H13 C13 1_555 1_555
H14 C13 1_555 1_555
H15 N1 1_555 1_555
C8 C9 1_555 1_555

#END
