
#######################################################################
#
#                 Cambridge Crystallographic Data Centre
#                                CCDC 
#
#######################################################################
#
# If this CIF has been generated from an entry in the Cambridge 
# Structural Database, then it will include bibliographic, chemical, 
# crystal, experimental, refinement or atomic coordinate data resulting 
# from the CCDC's data processing and validation procedures.
#
#######################################################################

data_IDEXAT
_chemical_formula_moiety         'C22 H17 Br1 O1'
_chemical_name_systematic        
6-bromo-4-(4-methylphenyl)-3-phenyl-4H-1-benzopyran
_symmetry_cell_setting           monoclinic
_symmetry_space_group_name_H-M   'P 21'
_symmetry_Int_Tables_number      4
_space_group_name_Hall           'P 2yb'
loop_
_symmetry_equiv_pos_site_id
_symmetry_equiv_pos_as_xyz
1 x,y,z
2 -x,1/2+y,-z
_cell_length_a                   12.1032(10)
_cell_length_b                   6.0718(3)
_cell_length_c                   12.8989(8)
_cell_angle_alpha                90
_cell_angle_beta                 116.581(5)
_cell_angle_gamma                90
_cell_volume                     847.725
_exptl_crystal_colour            colorless
_exptl_crystal_description       prism
_cell_formula_units_Z            2
loop_
_atom_site_label
_atom_site_type_symbol
_atom_site_fract_x
_atom_site_fract_y
_atom_site_fract_z
C1 C 0.0277(4) 0.5675(7) 0.8055(3)
C2 C 0.1034(4) 0.6359(6) 0.7575(3)
H1 H 0.139692 0.778265 0.775189
C3 C 0.1275(3) 0.4974(6) 0.6828(3)
C4 C 0.2145(4) 0.5703(6) 0.6334(3)
H2 H 0.181(3) 0.712(6) 0.589(3)
C5 C 0.2139(4) 0.4032(6) 0.5452(3)
C6 C 0.1545(4) 0.2123(6) 0.5299(3)
H3 H 0.158079 0.114485 0.474006
C7 C 0.0714(3) 0.2923(7) 0.6594(3)
C8 C -0.0059(3) 0.2249(8) 0.7074(3)
H4 H -0.043563 0.083632 0.689588
C9 C -0.0272(4) 0.3636(7) 0.7808(3)
H5 H -0.079509 0.318861 0.814121
C10 C 0.2786(3) 0.4561(6) 0.4735(3)
C11 C 0.2818(4) 0.3070(7) 0.3924(3)
H6 H 0.244601 0.166252 0.384554
C12 C 0.3384(4) 0.3610(8) 0.3229(4)
H7 H 0.340508 0.256519 0.269038
C13 C 0.3918(4) 0.5663(8) 0.3318(4)
H8 H 0.429377 0.603446 0.283323
C14 C 0.3903(4) 0.7154(7) 0.4108(3)
H9 H 0.427966 0.855559 0.418026
C15 C 0.3335(4) 0.6620(6) 0.4807(4)
H10 H 0.332136 0.767694 0.534393
C16 C 0.3436(3) 0.6149(6) 0.7311(3)
C17 C 0.4312(4) 0.4491(6) 0.7736(3)
H11 H 0.411663 0.306293 0.740150
C18 C 0.5477(4) 0.4890(7) 0.8649(3)
H12 H 0.606709 0.373243 0.892099
C19 C 0.5788(4) 0.6954(6) 0.9167(3)
C20 C 0.7057(4) 0.7406(12) 1.0142(3)
H13 H 0.755595 0.606058 1.031889
H14 H 0.745894 0.856885 0.990587
H15 H 0.697835 0.788036 1.083174
C21 C 0.4901(4) 0.8592(7) 0.8750(4)
H16 H 0.508393 1.000889 0.909873
C22 C 0.3741(4) 0.8198(6) 0.7824(3)
H17 H 0.315312 0.935874 0.754488
Br1 Br 0.00357(4) 0.75685(7) 0.91115(3)
O1 O 0.0883(3) 0.1426(4) 0.5872(2)
loop_
_geom_bond_atom_site_label_1
_geom_bond_atom_site_label_2
_geom_bond_site_symmetry_1
_geom_bond_site_symmetry_2
C1 C2 1_555 1_555
C2 H1 1_555 1_555
C3 C2 1_555 1_555
C4 C3 1_555 1_555
H2 C4 1_555 1_555
C5 C4 1_555 1_555
C6 C5 1_555 1_555
H3 C6 1_555 1_555
C7 C3 1_555 1_555
C8 C7 1_555 1_555
H4 C8 1_555 1_555
C9 C1 1_555 1_555
H5 C9 1_555 1_555
C10 C5 1_555 1_555
C11 C10 1_555 1_555
H6 C11 1_555 1_555
C12 C11 1_555 1_555
H7 C12 1_555 1_555
C13 C12 1_555 1_555
H8 C13 1_555 1_555
C14 C13 1_555 1_555
H9 C14 1_555 1_555
C15 C10 1_555 1_555
H10 C15 1_555 1_555
C16 C4 1_555 1_555
C17 C16 1_555 1_555
H11 C17 1_555 1_555
C18 C17 1_555 1_555
H12 C18 1_555 1_555
C19 C18 1_555 1_555
C20 C19 1_555 1_555
H13 C20 1_555 1_555
H14 C20 1_555 1_555
H15 C20 1_555 1_555
C21 C19 1_555 1_555
H16 C21 1_555 1_555
C22 C16 1_555 1_555
H17 C22 1_555 1_555
Br1 C1 1_555 1_555
O1 C6 1_555 1_555
C7 O1 1_555 1_555
C8 C9 1_555 1_555
C14 C15 1_555 1_555
C21 C22 1_555 1_555

#END
