
#######################################################################
#
#                 Cambridge Crystallographic Data Centre
#                                CCDC 
#
#######################################################################
#
# If this CIF has been generated from an entry in the Cambridge 
# Structural Database, then it will include bibliographic, chemical, 
# crystal, experimental, refinement or atomic coordinate data resulting 
# from the CCDC's data processing and validation procedures.
#
#######################################################################

data_IDICAA01
_chemical_formula_moiety         'C31 H42 N4 O2 S2'
_chemical_name_systematic        
(4S,5S)-4,5-bis(1-(2,4,6-Trimethylphenyl)-2-thioxoimidazolidin-3-ylmethyl)-2,2-dimethyl-1,3-dioxolane
_symmetry_cell_setting           monoclinic
_symmetry_space_group_name_H-M   'P 21'
_symmetry_Int_Tables_number      4
_space_group_name_Hall           'P 2yb'
loop_
_symmetry_equiv_pos_site_id
_symmetry_equiv_pos_as_xyz
1 x,y,z
2 -x,1/2+y,-z
_cell_length_a                   7.7147(4)
_cell_length_b                   18.6723(8)
_cell_length_c                   11.1002(5)
_cell_angle_alpha                90
_cell_angle_beta                 104.461(2)
_cell_angle_gamma                90
_cell_volume                     1548.34
_exptl_crystal_colour            colorless
_exptl_crystal_description       needle
_cell_formula_units_Z            2
_exptl_crystal_recrystallization_method methanol
loop_
_atom_site_label
_atom_site_type_symbol
_atom_site_fract_x
_atom_site_fract_y
_atom_site_fract_z
C1 C 0.8440(6) 0.3279(2) 0.3638(3)
C2 C 0.6571(7) 0.3315(2) 0.3250(4)
C3 C 0.5743(6) 0.3911(3) 0.3619(4)
H1 H 0.4503 0.3950 0.3371
C4 C 0.6719(7) 0.4447(3) 0.4345(4)
C5 C 0.8559(7) 0.4381(2) 0.4715(4)
H2 H 0.9221 0.4738 0.5207
C6 C 0.9446(6) 0.3803(3) 0.4379(4)
C7 C 0.5472(6) 0.2740(3) 0.2458(4)
H3 H 0.5688 0.2749 0.1643
H4 H 0.4225 0.2825 0.2394
H5 H 0.5804 0.2281 0.2833
C8 C 0.5745(7) 0.5089(3) 0.4734(4)
H6 H 0.4807 0.5243 0.4041
H7 H 0.6578 0.5473 0.4999
H8 H 0.5239 0.4951 0.5407
C9 C 1.1441(6) 0.3761(3) 0.4762(4)
H9 H 1.1799 0.3378 0.5348
H10 H 1.1916 0.4205 0.5140
H11 H 1.1892 0.3673 0.4044
N1 N 0.9342(5) 0.26720(19) 0.3280(3)
C10 C 0.9706(6) 0.2587(2) 0.2165(4)
N2 N 1.0422(5) 0.19326(18) 0.2107(3)
C11 C 1.0802(6) 0.1577(2) 0.3318(4)
H12 H 1.2071 0.1588 0.3722
H13 H 1.0398 0.1083 0.3238
C12 C 0.9743(6) 0.2017(2) 0.4030(4)
H14 H 0.8654 0.1772 0.4080
H15 H 1.0447 0.2122 0.4865
S1 S 0.9371(2) 0.32035(7) 0.10416(11)
C13 C 1.1126(6) 0.1666(2) 0.1106(4)
H16 H 1.2263 0.1432 0.1455
H17 H 1.1348 0.2067 0.0609
C14 C 0.9876(7) 0.1142(2) 0.0271(4)
H18 H 0.9667 0.0728 0.0759
O1 O 1.0741(4) 0.09155(17) -0.0661(3)
C15 C 0.9480(7) 0.0831(3) -0.1780(4)
O2 O 0.7823(4) 0.11032(16) -0.1656(2)
C16 C 0.8100(6) 0.1442(2) -0.0466(4)
H19 H 0.8216 0.1960 -0.0565
C19 C 1.001(2) 0.1083(11) -0.2906(11)
H26 H 1.0139 0.1594 -0.2875
H27 H 0.9096 0.0952 -0.3635
H28 H 1.1120 0.0865 -0.2939
C20 C 0.916(3) -0.0032(7) -0.1823(19)
H29 H 1.0222 -0.0270 -0.1910
H30 H 0.8179 -0.0150 -0.2517
H31 H 0.8881 -0.0184 -0.1066
C21 C 0.6508(6) 0.1293(2) 0.0071(4)
H32 H 0.6773 0.1473 0.0918
H33 H 0.5481 0.1555 -0.0409
N3 N 0.6042(5) 0.0544(2) 0.0080(3)
C22 C 0.6047(6) 0.0162(3) 0.1138(4)
N4 N 0.5189(5) -0.0464(2) 0.0786(3)
C23 C 0.4658(7) -0.0546(3) -0.0567(4)
H34 H 0.3437 -0.0718 -0.0846
H35 H 0.5451 -0.0871 -0.0853
C24 C 0.4831(6) 0.0207(3) -0.1011(4)
H36 H 0.5346 0.0212 -0.1724
H37 H 0.3680 0.0447 -0.1230
S2 S 0.6906(2) 0.04230(8) 0.25904(11)
C25 C 0.5009(7) -0.1035(3) 0.1598(4)
C26 C 0.3553(7) -0.1039(3) 0.2133(4)
C27 C 0.3387(7) -0.1605(3) 0.2900(4)
H38 H 0.2439 -0.1603 0.3278
C28 C 0.4568(7) -0.2170(3) 0.3125(4)
C29 C 0.5969(7) -0.2153(3) 0.2578(5)
H39 H 0.6776 -0.2532 0.2725
C30 C 0.6259(7) -0.1593(3) 0.1803(4)
C31 C 0.2210(6) -0.0441(3) 0.1866(4)
H40 H 0.1324 -0.0517 0.2326
H41 H 0.1640 -0.0431 0.0992
H42 H 0.2806 0.0007 0.2109
C32 C 0.4394(7) -0.2766(3) 0.4001(4)
H43 H 0.5500 -0.2817 0.4625
H44 H 0.4123 -0.3205 0.3544
H45 H 0.3448 -0.2655 0.4392
C33 C 0.7870(7) -0.1579(3) 0.1281(5)
H46 H 0.8754 -0.1906 0.1738
H47 H 0.8359 -0.1104 0.1348
H48 H 0.7532 -0.1719 0.0422
C17? C 1.025(4) 0.154(2) -0.235(4)
H20? H 1.0190 0.1948 -0.1840
H21? H 0.9535 0.1627 -0.3182
H22? H 1.1468 0.1458 -0.2377
C18? C 0.943(4) 0.022(2) -0.247(4)
H23? H 1.0399 0.0220 -0.2869
H24? H 0.8311 0.0196 -0.3096
H25? H 0.9530 -0.0193 -0.1939
loop_
_geom_bond_atom_site_label_1
_geom_bond_atom_site_label_2
_geom_bond_site_symmetry_1
_geom_bond_site_symmetry_2
C1 C2 1_555 1_555
C2 C3 1_555 1_555
C3 H1 1_555 1_555
C4 C3 1_555 1_555
C5 C4 1_555 1_555
H2 C5 1_555 1_555
C6 C1 1_555 1_555
C7 C2 1_555 1_555
H3 C7 1_555 1_555
H4 C7 1_555 1_555
H5 C7 1_555 1_555
C8 C4 1_555 1_555
H6 C8 1_555 1_555
H7 C8 1_555 1_555
H8 C8 1_555 1_555
C9 C6 1_555 1_555
H9 C9 1_555 1_555
H10 C9 1_555 1_555
H11 C9 1_555 1_555
N1 C1 1_555 1_555
C10 N1 1_555 1_555
N2 C10 1_555 1_555
C11 N2 1_555 1_555
H12 C11 1_555 1_555
H13 C11 1_555 1_555
C12 N1 1_555 1_555
H14 C12 1_555 1_555
H15 C12 1_555 1_555
S1 C10 1_555 1_555
C13 N2 1_555 1_555
H16 C13 1_555 1_555
H17 C13 1_555 1_555
C14 C13 1_555 1_555
H18 C14 1_555 1_555
O1 C14 1_555 1_555
C15 O1 1_555 1_555
O2 C15 1_555 1_555
C16 C14 1_555 1_555
H19 C16 1_555 1_555
C19 C15 1_555 1_555
H26 C19 1_555 1_555
H27 C19 1_555 1_555
H28 C19 1_555 1_555
C20 C15 1_555 1_555
H29 C20 1_555 1_555
H30 C20 1_555 1_555
H31 C20 1_555 1_555
C21 C16 1_555 1_555
H32 C21 1_555 1_555
H33 C21 1_555 1_555
N3 C21 1_555 1_555
C22 N3 1_555 1_555
N4 C22 1_555 1_555
C23 N4 1_555 1_555
H34 C23 1_555 1_555
H35 C23 1_555 1_555
C24 N3 1_555 1_555
H36 C24 1_555 1_555
H37 C24 1_555 1_555
S2 C22 1_555 1_555
C25 N4 1_555 1_555
C26 C25 1_555 1_555
C27 C26 1_555 1_555
H38 C27 1_555 1_555
C28 C27 1_555 1_555
C29 C28 1_555 1_555
H39 C29 1_555 1_555
C30 C25 1_555 1_555
C31 C26 1_555 1_555
H40 C31 1_555 1_555
H41 C31 1_555 1_555
H42 C31 1_555 1_555
C32 C28 1_555 1_555
H43 C32 1_555 1_555
H44 C32 1_555 1_555
H45 C32 1_555 1_555
C33 C30 1_555 1_555
H46 C33 1_555 1_555
H47 C33 1_555 1_555
H48 C33 1_555 1_555
C5 C6 1_555 1_555
C11 C12 1_555 1_555
O2 C16 1_555 1_555
C23 C24 1_555 1_555
C29 C30 1_555 1_555

#END
