
#######################################################################
#
#                 Cambridge Crystallographic Data Centre
#                                CCDC 
#
#######################################################################
#
# If this CIF has been generated from an entry in the Cambridge 
# Structural Database, then it will include bibliographic, chemical, 
# crystal, experimental, refinement or atomic coordinate data resulting 
# from the CCDC's data processing and validation procedures.
#
#######################################################################

data_IDICUU
_chemical_formula_moiety         'C18 H14 N2 O3 S2'
_chemical_name_systematic        
6-(Phenylsulfonyl)-3-methyl-4-methylsulfanylisoxazolo(4,5-c)quinoline
_symmetry_cell_setting           orthorhombic
_symmetry_space_group_name_H-M   'P b c n'
_symmetry_Int_Tables_number      60
_space_group_name_Hall           '-P 2n 2ab'
loop_
_symmetry_equiv_pos_site_id
_symmetry_equiv_pos_as_xyz
1 x,y,z
2 1/2-x,1/2-y,1/2+z
3 -x,y,1/2-z
4 1/2+x,1/2-y,-z
5 -x,-y,-z
6 1/2+x,1/2+y,1/2-z
7 x,-y,1/2+z
8 1/2-x,1/2+y,z
_cell_length_a                   23.26(5)
_cell_length_b                   9.43(2)
_cell_length_c                   14.88(3)
_cell_angle_alpha                90
_cell_angle_beta                 90
_cell_angle_gamma                90
_cell_volume                     3263.81
_exptl_crystal_colour            yellow
_chemical_melting_point          '208-210 deg.C'
_cell_formula_units_Z            8
loop_
_atom_site_label
_atom_site_type_symbol
_atom_site_fract_x
_atom_site_fract_y
_atom_site_fract_z
C1 C 0.36772(16) 0.9049(5) 0.2081(3)
H1 H 0.3432(14) 0.867(4) 0.159(2)
H2 H 0.3793(15) 0.839(4) 0.250(3)
H3 H 0.3435(18) 0.965(5) 0.228(3)
C2 C 0.41996(12) 0.9795(4) 0.17659(18)
C3 C 0.47199(11) 0.9224(3) 0.14020(17)
C4 C 0.50495(12) 1.0388(3) 0.12308(16)
N1 N 0.42217(11) 1.1171(3) 0.18062(17)
O1 O 0.47711(9) 1.1573(2) 0.14595(13)
C5 C 0.56065(11) 1.0307(3) 0.08793(17)
C6 C 0.58018(10) 0.8913(3) 0.07190(16)
C7 C 0.49597(11) 0.7872(3) 0.12149(16)
S1 S 0.45183(3) 0.64137(9) 0.14051(6)
C8 C 0.4991(2) 0.4975(4) 0.1224(3)
H4 H 0.479(2) 0.423(5) 0.112(3)
H5 H 0.5225(15) 0.512(4) 0.074(3)
H6 H 0.5257(15) 0.474(4) 0.172(3)
N2 N 0.54814(9) 0.7724(2) 0.09021(14)
C9 C 0.59571(15) 1.1472(4) 0.0688(2)
H7 H 0.5838(11) 1.233(3) 0.0810(19)
C10 C 0.64918(14) 1.1294(4) 0.0359(2)
H8 H 0.6732(12) 1.209(4) 0.025(2)
C11 C 0.66963(13) 0.9935(4) 0.01963(19)
H9 H 0.7074(11) 0.978(3) -0.0025(17)
C12 C 0.63643(11) 0.8763(3) 0.03606(16)
S2 S 0.66711(3) 0.70863(9) 0.01211(4)
O2 O 0.62744(9) 0.6201(2) -0.03354(13)
O3 O 0.72153(8) 0.7367(3) -0.02991(12)
C13 C 0.68197(11) 0.6352(3) 0.11855(18)
C14 C 0.72358(13) 0.6961(4) 0.1719(2)
H10 H 0.7417(11) 0.778(4) 0.1511(18)
C15 C 0.73451(16) 0.6393(4) 0.2556(2)
H11 H 0.7613(13) 0.681(3) 0.291(2)
C16 C 0.70453(18) 0.5236(5) 0.2844(3)
H12 H 0.7117(16) 0.487(4) 0.338(3)
C17 C 0.66396(17) 0.4629(5) 0.2308(3)
H13 H 0.6426(14) 0.390(4) 0.249(2)
C18 C 0.65210(14) 0.5177(4) 0.1474(3)
H14 H 0.6254(14) 0.478(4) 0.106(2)
loop_
_geom_bond_atom_site_label_1
_geom_bond_atom_site_label_2
_geom_bond_site_symmetry_1
_geom_bond_site_symmetry_2
C1 H1 1_555 1_555
H2 C1 1_555 1_555
H3 C1 1_555 1_555
C2 C1 1_555 1_555
C3 C2 1_555 1_555
C4 C3 1_555 1_555
N1 C2 1_555 1_555
O1 C4 1_555 1_555
C5 C4 1_555 1_555
C6 C5 1_555 1_555
C7 C3 1_555 1_555
S1 C7 1_555 1_555
C8 S1 1_555 1_555
H4 C8 1_555 1_555
H5 C8 1_555 1_555
H6 C8 1_555 1_555
N2 C6 1_555 1_555
C9 C5 1_555 1_555
H7 C9 1_555 1_555
C10 C9 1_555 1_555
H8 C10 1_555 1_555
C11 C10 1_555 1_555
H9 C11 1_555 1_555
C12 C6 1_555 1_555
S2 C12 1_555 1_555
O2 S2 1_555 1_555
O3 S2 1_555 1_555
C13 S2 1_555 1_555
C14 C13 1_555 1_555
H10 C14 1_555 1_555
C15 C14 1_555 1_555
H11 C15 1_555 1_555
C16 C15 1_555 1_555
H12 C16 1_555 1_555
C17 C16 1_555 1_555
H13 C17 1_555 1_555
C18 C13 1_555 1_555
H14 C18 1_555 1_555
N1 O1 1_555 1_555
C7 N2 1_555 1_555
C11 C12 1_555 1_555
C17 C18 1_555 1_555

#END
