
#######################################################################
#
#                 Cambridge Crystallographic Data Centre
#                                CCDC 
#
#######################################################################
#
# If this CIF has been generated from an entry in the Cambridge 
# Structural Database, then it will include bibliographic, chemical, 
# crystal, experimental, refinement or atomic coordinate data resulting 
# from the CCDC's data processing and validation procedures.
#
#######################################################################

data_IDICOO
_chemical_formula_moiety         'C12 H8 Cl2 N2 O1 S1'
_chemical_name_systematic        
7,9-Dichloro-2-methyl-4-methylsulfanyl(1,3)oxazolo(4,5-c)quinoline
_symmetry_cell_setting           monoclinic
_symmetry_space_group_name_H-M   'P 21/c'
_symmetry_Int_Tables_number      14
_space_group_name_Hall           '-P 2ybc'
loop_
_symmetry_equiv_pos_site_id
_symmetry_equiv_pos_as_xyz
1 x,y,z
2 -x,1/2+y,1/2-z
3 -x,-y,-z
4 x,1/2-y,1/2+z
_cell_length_a                   7.308(3)
_cell_length_b                   19.897(7)
_cell_length_c                   8.752(3)
_cell_angle_alpha                90
_cell_angle_beta                 101.587(7)
_cell_angle_gamma                90
_cell_volume                     1246.67
_exptl_crystal_colour            colorless
_chemical_melting_point          '158-159 deg.C'
_cell_formula_units_Z            4
loop_
_atom_site_label
_atom_site_type_symbol
_atom_site_fract_x
_atom_site_fract_y
_atom_site_fract_z
N1 N 0.2181(4) 0.45469(18) 0.8037(3)
C1 C 0.2904(5) 0.3967(2) 0.8502(4)
S1 S 0.29041(15) 0.33001(6) 0.71986(11)
C2 C 0.1707(7) 0.3657(3) 0.5416(5)
H1 H 0.0386 0.3649 0.5385
H2 H 0.1978 0.3402 0.4557
H3 H 0.2108 0.4113 0.5343
C3 C 0.3689(4) 0.3842(2) 1.0102(4)
C4 C 0.5009(5) 0.34504(19) 1.2289(4)
C5 C 0.6032(6) 0.3066(3) 1.3638(5)
H4 H 0.6454 0.2648 1.3283
H5 H 0.5219 0.2979 1.4350
H6 H 0.7089 0.3323 1.4157
N2 N 0.4572(4) 0.32862(16) 1.0838(3)
O1 O 0.4465(3) 0.40964(13) 1.2603(3)
C6 C 0.3620(4) 0.43410(19) 1.1161(4)
C7 C 0.2819(4) 0.4975(2) 1.0760(4)
C8 C 0.2591(5) 0.5522(2) 1.1737(4)
Cl1 Cl 0.32898(17) 0.54351(6) 1.37337(11)
C9 C 0.1813(5) 0.6124(2) 1.1163(4)
H7 H 0.1702 0.6478 1.1831
C10 C 0.1187(5) 0.6189(2) 0.9538(5)
Cl2 Cl 0.02015(15) 0.69407(6) 0.88251(13)
C11 C 0.1335(5) 0.5665(2) 0.8551(4)
H8 H 0.0890 0.5718 0.7485
C12 C 0.2140(4) 0.5053(2) 0.9110(4)
loop_
_geom_bond_atom_site_label_1
_geom_bond_atom_site_label_2
_geom_bond_site_symmetry_1
_geom_bond_site_symmetry_2
N1 C1 1_555 1_555
C1 S1 1_555 1_555
S1 C2 1_555 1_555
C2 H1 1_555 1_555
H2 C2 1_555 1_555
H3 C2 1_555 1_555
C3 C1 1_555 1_555
C4 C5 1_555 1_555
C5 H4 1_555 1_555
H5 C5 1_555 1_555
H6 C5 1_555 1_555
N2 C3 1_555 1_555
O1 C4 1_555 1_555
C6 C3 1_555 1_555
C7 C6 1_555 1_555
C8 C7 1_555 1_555
Cl1 C8 1_555 1_555
C9 C8 1_555 1_555
H7 C9 1_555 1_555
C10 C9 1_555 1_555
Cl2 C10 1_555 1_555
C11 C10 1_555 1_555
H8 C11 1_555 1_555
C12 N1 1_555 1_555
C4 N2 1_555 1_555
O1 C6 1_555 1_555
C7 C12 1_555 1_555
C11 C12 1_555 1_555

#END
