
#######################################################################
#
#                 Cambridge Crystallographic Data Centre
#                                CCDC 
#
#######################################################################
#
# If this CIF has been generated from an entry in the Cambridge 
# Structural Database, then it will include bibliographic, chemical, 
# crystal, experimental, refinement or atomic coordinate data resulting 
# from the CCDC's data processing and validation procedures.
#
#######################################################################

data_IDIDAC
_chemical_formula_moiety         'C26 H27 N2 O1 1+,B1 F4 1-'
_chemical_name_systematic        
'6b-Methyl-2,2,6-triphenyloctahydro-1-oxa-6-aza-6b-azoniacyclopenta[cd]pentalene tetrafluoroborate'
_symmetry_cell_setting           monoclinic
_symmetry_space_group_name_H-M   'P 21'
_symmetry_Int_Tables_number      4
_space_group_name_Hall           'P 2yb'
loop_
_symmetry_equiv_pos_site_id
_symmetry_equiv_pos_as_xyz
1 x,y,z
2 -x,1/2+y,-z
_cell_length_a                   8.887(4)
_cell_length_b                   10.259(4)
_cell_length_c                   13.390(6)
_cell_angle_alpha                90
_cell_angle_beta                 101.714(7)
_cell_angle_gamma                90
_cell_volume                     1195.36
_cell_formula_units_Z            2
loop_
_atom_site_label
_atom_site_type_symbol
_atom_site_fract_x
_atom_site_fract_y
_atom_site_fract_z
N1 N 0.4373(7) 0.9436(7) 0.3062(5)
O1 O 0.1863(5) 1.0141(5) 0.3066(3)
C1 C 0.4814(11) 0.9020(12) 0.4865(8)
H1 H 0.4011 0.8422 0.4753
C2 C 0.5656(13) 0.9245(14) 0.5821(8)
H2 H 0.5387 0.8826 0.6376
C3 C 0.6889(13) 1.0073(14) 0.5980(9)
H3 H 0.7445 1.0208 0.6639
C4 C 0.7305(12) 1.0693(12) 0.5197(11)
H4 H 0.8165 1.1232 0.5299
C5 C 0.6419(11) 1.0508(11) 0.4236(8)
H5 H 0.6678 1.0947 0.3687
C6 C 0.5202(10) 0.9719(11) 0.4070(7)
C7 C 0.4645(8) 1.0232(10) 0.2197(7)
H6 H 0.5722 1.0231 0.2156
H7 H 0.4306 1.1124 0.2249
C8 C 0.3661(10) 0.9532(10) 0.1282(7)
H8 H 0.4259 0.8856 0.1022
C9 C 0.2826(9) 1.0383(10) 0.0415(6)
H9 H 0.2503 0.9877 -0.0203
H10 H 0.3474 1.1094 0.0279
C10 C 0.1426(8) 1.0897(9) 0.0816(6)
H11 H 0.1712 1.1617 0.1286
H12 H 0.0613 1.1178 0.0260
C11 C 0.0930(9) 0.9703(9) 0.1363(6)
H13 H 0.0156 0.9190 0.0901
N2 N 0.2370(7) 0.8927(7) 0.1716(5)
C12 C 0.2810(8) 0.9138(8) 0.2881(6)
H14 H 0.2625 0.8346 0.3247
C13 C 0.2153(10) 0.7474(9) 0.1479(7)
H15 H 0.1311 0.7149 0.1757
H16 H 0.3074 0.7013 0.1778
H17 H 0.1937 0.7347 0.0754
C14 C 0.0382(8) 1.0029(10) 0.2372(5)
C15 C -0.0463(9) 1.1327(9) 0.2344(7)
C16 C 0.0043(11) 1.2266(11) 0.3022(7)
H18 H 0.0961 1.2149 0.3489
C17 C -0.0795(12) 1.3434(13) 0.3039(8)
H19 H -0.0434 1.4094 0.3501
C18 C -0.2158(12) 1.3560(10) 0.2352(9)
H20 H -0.2763 1.4297 0.2365
C19 C -0.2622(10) 1.2612(11) 0.1655(7)
H21 H -0.3517 1.2736 0.1167
C20 C -0.1812(9) 1.1466(9) 0.1645(6)
H22 H -0.2170 1.0809 0.1179
C21 C -0.0535(8) 0.8934(9) 0.2729(6)
C22 C -0.1641(10) 0.8233(9) 0.2052(7)
H23 H -0.1773 0.8389 0.1356
C23 C -0.2557(11) 0.7296(10) 0.2405(7)
H24 H -0.3299 0.6840 0.1948
C24 C -0.2351(11) 0.7064(10) 0.3415(7)
H25 H -0.2959 0.6441 0.3647
C25 C -0.1296(11) 0.7706(11) 0.4091(7)
H26 H -0.1179 0.7523 0.4783
C26 C -0.0358(9) 0.8659(10) 0.3764(6)
H27 H 0.0375 0.9101 0.4238
B1 B 0.6500(14) 0.9336(14) 0.9140(10)
F1 F 0.6276(7) 0.8613(8) 0.8276(4)
F2 F 0.8024(5) 0.9688(6) 0.9398(4)
F3 F 0.6105(6) 0.8590(7) 0.9869(4)
F4 F 0.5630(6) 1.0379(7) 0.8963(8)
loop_
_geom_bond_atom_site_label_1
_geom_bond_atom_site_label_2
_geom_bond_site_symmetry_1
_geom_bond_site_symmetry_2
N1 C6 1_555 1_555
O1 C12 1_555 1_555
C1 H1 1_555 1_555
C2 C1 1_555 1_555
H2 C2 1_555 1_555
C3 C2 1_555 1_555
H3 C3 1_555 1_555
C4 C3 1_555 1_555
H4 C4 1_555 1_555
C5 C4 1_555 1_555
H5 C5 1_555 1_555
C6 C1 1_555 1_555
C7 N1 1_555 1_555
H6 C7 1_555 1_555
H7 C7 1_555 1_555
C8 C7 1_555 1_555
H8 C8 1_555 1_555
C9 C8 1_555 1_555
H9 C9 1_555 1_555
H10 C9 1_555 1_555
C10 C9 1_555 1_555
H11 C10 1_555 1_555
H12 C10 1_555 1_555
C11 C10 1_555 1_555
H13 C11 1_555 1_555
N2 C8 1_555 1_555
C12 N1 1_555 1_555
H14 C12 1_555 1_555
C13 N2 1_555 1_555
H15 C13 1_555 1_555
H16 C13 1_555 1_555
H17 C13 1_555 1_555
C14 O1 1_555 1_555
C15 C14 1_555 1_555
C16 C15 1_555 1_555
H18 C16 1_555 1_555
C17 C16 1_555 1_555
H19 C17 1_555 1_555
C18 C17 1_555 1_555
H20 C18 1_555 1_555
C19 C18 1_555 1_555
H21 C19 1_555 1_555
C20 C15 1_555 1_555
H22 C20 1_555 1_555
C21 C14 1_555 1_555
C22 C21 1_555 1_555
H23 C22 1_555 1_555
C23 C22 1_555 1_555
H24 C23 1_555 1_555
C24 C23 1_555 1_555
H25 C24 1_555 1_555
C25 C24 1_555 1_555
H26 C25 1_555 1_555
C26 C21 1_555 1_555
H27 C26 1_555 1_555
B1 F1 1_555 1_555
F2 B1 1_555 1_555
F3 B1 1_555 1_555
F4 B1 1_555 1_555
C5 C6 1_555 1_555
C11 N2 1_555 1_555
C11 C14 1_555 1_555
N2 C12 1_555 1_555
C19 C20 1_555 1_555
C25 C26 1_555 1_555

#END
