
#######################################################################
#
#                 Cambridge Crystallographic Data Centre
#                                CCDC 
#
#######################################################################
#
# If this CIF has been generated from an entry in the Cambridge 
# Structural Database, then it will include bibliographic, chemical, 
# crystal, experimental, refinement or atomic coordinate data resulting 
# from the CCDC's data processing and validation procedures.
#
#######################################################################

data_IDIHEJ
_chemical_formula_moiety         '2(C6 H20 N4 P1 1+),C1 O3 2-,2(H3 B1 O3)'
_chemical_name_systematic        
'bis(tris(Dimethylamino)iminiophosphorane) carbonate bis(boric acid)'
_symmetry_cell_setting           monoclinic
_symmetry_space_group_name_H-M   'P 21'
_symmetry_Int_Tables_number      4
_space_group_name_Hall           'P 2yb'
loop_
_symmetry_equiv_pos_site_id
_symmetry_equiv_pos_as_xyz
1 x,y,z
2 -x,1/2+y,-z
_cell_length_a                   12.161(2)
_cell_length_b                   15.787(3)
_cell_length_c                   15.611(3)
_cell_angle_alpha                90
_cell_angle_beta                 106.571(6)
_cell_angle_gamma                90
_cell_volume                     2872.61
_exptl_crystal_colour            colorless
_exptl_crystal_description       plate
_cell_formula_units_Z            4
loop_
_atom_site_label
_atom_site_type_symbol
_atom_site_fract_x
_atom_site_fract_y
_atom_site_fract_z
P1 P 0.96411(10) 0.25031(9) 0.40671(8)
N1 N 0.8581(4) 0.3127(3) 0.3904(3)
H1 H 0.800(3) 0.310(3) 0.346(2)
H2 H 0.858(4) 0.341(3) 0.435(3)
N2 N 0.9469(4) 0.1630(3) 0.4541(3)
C1 C 0.8888(6) 0.1629(5) 0.5238(4)
H3 H 0.8569 0.1071 0.5276
H4 H 0.8274 0.2044 0.5097
H5 H 0.9432 0.1770 0.5807
C2 C 1.0104(6) 0.0836(4) 0.4454(5)
H6 H 0.9559 0.0382 0.4233
H7 H 1.0610 0.0681 0.5034
H8 H 1.0553 0.0931 0.4040
N3 N 1.0737(3) 0.3030(3) 0.4661(3)
C3 C 1.1701(4) 0.2637(4) 0.5331(4)
H9 H 1.1880 0.2967 0.5877
H10 H 1.2366 0.2620 0.5105
H11 H 1.1495 0.2066 0.5452
C4 C 1.0903(5) 0.3930(3) 0.4558(4)
H12 H 1.1585 0.4018 0.4366
H13 H 1.0992 0.4213 0.5126
H14 H 1.0241 0.4160 0.4115
N4 N 0.9818(4) 0.2223(3) 0.3106(3)
C5 C 1.0684(5) 0.2592(5) 0.2761(4)
H15 H 1.0921 0.2184 0.2384
H16 H 1.1340 0.2751 0.3254
H17 H 1.0377 0.3091 0.2412
C6 C 0.8915(5) 0.1768(5) 0.2461(4)
H18 H 0.9253 0.1357 0.2150
H19 H 0.8452 0.2165 0.2033
H20 H 0.8435 0.1478 0.2769
P2 P 0.44994(12) 0.14166(9) 0.70192(9)
N5 N 0.4225(3) 0.2393(3) 0.6935(3)
H21 H 0.405(3) 0.266(2) 0.736(2)
H22 H 0.432(4) 0.274(3) 0.656(3)
N6 N 0.3338(4) 0.0869(3) 0.6965(3)
C7 C 0.2534(5) 0.1175(4) 0.7441(5)
H23 H 0.1753 0.1079 0.7077
H24 H 0.2653 0.1777 0.7560
H25 H 0.2664 0.0873 0.8002
C8 C 0.3136(6) 0.0002(4) 0.6666(6)
H26 H 0.2455 -0.0025 0.6159
H27 H 0.3027 -0.0345 0.7148
H28 H 0.3791 -0.0205 0.6490
N7 N 0.5451(4) 0.1243(3) 0.7971(3)
C9 C 0.5565(6) 0.0394(4) 0.8407(4)
H29 H 0.5725 0.0464 0.9048
H30 H 0.6189 0.0085 0.8278
H31 H 0.4856 0.0080 0.8179
C10 C 0.6407(5) 0.1838(4) 0.8341(4)
H32 H 0.6487 0.1931 0.8970
H33 H 0.6248 0.2372 0.8023
H34 H 0.7113 0.1600 0.8273
N8 N 0.4943(4) 0.1066(3) 0.6204(3)
C11 C 0.6155(5) 0.1002(5) 0.6268(4)
H35 H 0.6301 0.0468 0.6014
H36 H 0.6602 0.1031 0.6890
H37 H 0.6370 0.1466 0.5941
C12 C 0.4197(6) 0.1080(5) 0.5281(4)
H38 H 0.4330 0.0575 0.4971
H39 H 0.4367 0.1578 0.4977
H40 H 0.3401 0.1097 0.5284
P3 P 0.54890(12) 0.51534(9) -0.21412(9)
N9 N 0.5750(3) 0.4173(3) -0.2048(3)
H41 H 0.559(4) 0.387(3) -0.163(2)
H42 H 0.580(4) 0.390(3) -0.248(2)
N10 N 0.4402(4) 0.5325(3) -0.3008(3)
C13 C 0.3453(5) 0.4726(4) -0.3319(4)
H43 H 0.2731 0.5017 -0.3384
H44 H 0.3534 0.4271 -0.2888
H45 H 0.3464 0.4493 -0.3891
C14 C 0.4167(6) 0.6148(4) -0.3445(4)
H46 H 0.3949 0.6071 -0.4089
H47 H 0.4850 0.6498 -0.3263
H48 H 0.3546 0.6422 -0.3276
N11 N 0.6607(4) 0.5674(3) -0.2245(3)
C15 C 0.6975(6) 0.6510(5) -0.1892(6)
H49 H 0.6926 0.6899 -0.2382
H50 H 0.7762 0.6483 -0.1516
H51 H 0.6484 0.6707 -0.1541
C16 C 0.7226(5) 0.5380(4) -0.2870(4)
H52 H 0.8036 0.5329 -0.2558
H53 H 0.7123 0.5784 -0.3354
H54 H 0.6929 0.4833 -0.3110
N12 N 0.5244(4) 0.5514(3) -0.1245(3)
C17 C 0.6091(6) 0.5407(6) -0.0363(4)
H55 H 0.6193 0.5942 -0.0044
H56 H 0.6818 0.5226 -0.0442
H57 H 0.5818 0.4983 -0.0023
C18 C 0.4128(6) 0.5685(6) -0.1180(4)
H58 H 0.4143 0.6198 -0.0834
H59 H 0.3870 0.5215 -0.0887
H60 H 0.3607 0.5761 -0.1774
P4 P 0.04767(11) 0.41699(9) 0.05337(8)
N13 N 0.1350(4) 0.3393(3) 0.0874(3)
H61 H 0.190(3) 0.341(3) 0.138(2)
H62 H 0.156(4) 0.306(3) 0.052(3)
N14 N -0.0628(4) 0.3773(3) -0.0172(3)
C19 C -0.1183(5) 0.3002(5) 0.0006(4)
H63 H -0.1201 0.2589 -0.0458
H64 H -0.1960 0.3131 0.0012
H65 H -0.0757 0.2774 0.0581
C20 C -0.1252(5) 0.4205(5) -0.1006(4)
H66 H -0.1370 0.3814 -0.1503
H67 H -0.0808 0.4686 -0.1105
H68 H -0.1989 0.4399 -0.0959
N15 N 0.1032(4) 0.4912(3) 0.0083(3)
C21 C 0.0617(6) 0.5787(4) 0.0008(4)
H69 H 0.1266 0.6171 0.0186
H70 H 0.0127 0.5868 0.0395
H71 H 0.0185 0.5902 -0.0606
C22 C 0.1756(6) 0.4707(5) -0.0498(5)
H72 H 0.2335 0.5143 -0.0441
H73 H 0.1284 0.4677 -0.1113
H74 H 0.2128 0.4165 -0.0322
N16 N 0.0170(3) 0.4586(3) 0.1381(3)
C23 C 0.1064(5) 0.4972(4) 0.2123(4)
H75 H 0.1011 0.4742 0.2687
H76 H 0.0955 0.5581 0.2118
H77 H 0.1815 0.4846 0.2054
C24 C -0.1000(5) 0.4722(5) 0.1434(5)
H78 H -0.1131 0.5324 0.1486
H79 H -0.1101 0.4430 0.1953
H80 H -0.1544 0.4503 0.0898
B1 B 0.5896(5) 0.3085(4) 0.1563(4)
O1 O 0.6490(3) 0.3042(3) 0.2439(2)
H81 H 0.622(4) 0.316(3) 0.279(3)
O2 O 0.4738(3) 0.3175(3) 0.1343(2)
H82 H 0.440(4) 0.302(4) 0.083(2)
O3 O 0.6494(3) 0.3022(3) 0.0956(3)
H83 H 0.613(4) 0.304(4) 0.042(2)
B2 B 0.9015(5) 0.3721(4) 0.6296(4)
O4 O 1.0152(3) 0.3860(3) 0.6498(2)
H84 H 1.044(3) 0.360(2) 0.691(2)
O5 O 0.8571(3) 0.3248(2) 0.6852(2)
H85 H 0.789(2) 0.321(3) 0.672(3)
O6 O 0.8354(3) 0.4049(3) 0.5513(2)
H86 H 0.769(2) 0.394(2) 0.538(2)
B3 B 0.3992(5) 0.3491(4) 0.3287(4)
O7 O 0.3383(3) 0.3554(3) 0.2398(2)
H87 H 0.372(3) 0.350(3) 0.208(2)
O8 O 0.5122(3) 0.3311(3) 0.3503(2)
H88 H 0.549(3) 0.336(3) 0.4009(19)
O9 O 0.3398(3) 0.3617(3) 0.3882(3)
H89 H 0.372(4) 0.353(3) 0.436(2)
B4 B 0.0896(5) 0.2503(4) -0.1462(4)
O10 O -0.0226(3) 0.2272(3) -0.1705(3)
H90 H -0.060(4) 0.255(3) -0.211(3)
O11 O 0.1294(3) 0.3005(2) -0.2014(2)
H91 H 0.196(2) 0.302(3) -0.192(3)
O12 O 0.1575(3) 0.2215(3) -0.0656(2)
H92 H 0.223(3) 0.229(4) -0.057(4)
C25 C 0.5754(5) 0.3385(4) 0.5730(3)
O13 O 0.6241(3) 0.3541(3) 0.5106(2)
O14 O 0.6386(3) 0.3340(2) 0.6543(2)
O15 O 0.4674(3) 0.3298(3) 0.5529(2)
C26 C 0.4088(5) 0.3119(4) -0.0885(3)
O16 O 0.3638(3) 0.2872(3) -0.0262(2)
O17 O 0.3452(3) 0.3180(2) -0.16879(19)
O18 O 0.5154(3) 0.3316(3) -0.0676(2)
loop_
_geom_bond_atom_site_label_1
_geom_bond_atom_site_label_2
_geom_bond_site_symmetry_1
_geom_bond_site_symmetry_2
P1 N1 1_555 1_555
N1 H1 1_555 1_555
H2 N1 1_555 1_555
N2 P1 1_555 1_555
C1 N2 1_555 1_555
H3 C1 1_555 1_555
H4 C1 1_555 1_555
H5 C1 1_555 1_555
C2 N2 1_555 1_555
H6 C2 1_555 1_555
H7 C2 1_555 1_555
H8 C2 1_555 1_555
N3 P1 1_555 1_555
C3 N3 1_555 1_555
H9 C3 1_555 1_555
H10 C3 1_555 1_555
H11 C3 1_555 1_555
C4 N3 1_555 1_555
H12 C4 1_555 1_555
H13 C4 1_555 1_555
H14 C4 1_555 1_555
N4 P1 1_555 1_555
C5 N4 1_555 1_555
H15 C5 1_555 1_555
H16 C5 1_555 1_555
H17 C5 1_555 1_555
C6 N4 1_555 1_555
H18 C6 1_555 1_555
H19 C6 1_555 1_555
H20 C6 1_555 1_555
P2 N5 1_555 1_555
N5 H21 1_555 1_555
H22 N5 1_555 1_555
N6 P2 1_555 1_555
C7 N6 1_555 1_555
H23 C7 1_555 1_555
H24 C7 1_555 1_555
H25 C7 1_555 1_555
C8 N6 1_555 1_555
H26 C8 1_555 1_555
H27 C8 1_555 1_555
H28 C8 1_555 1_555
N7 P2 1_555 1_555
C9 N7 1_555 1_555
H29 C9 1_555 1_555
H30 C9 1_555 1_555
H31 C9 1_555 1_555
C10 N7 1_555 1_555
H32 C10 1_555 1_555
H33 C10 1_555 1_555
H34 C10 1_555 1_555
N8 P2 1_555 1_555
C11 N8 1_555 1_555
H35 C11 1_555 1_555
H36 C11 1_555 1_555
H37 C11 1_555 1_555
C12 N8 1_555 1_555
H38 C12 1_555 1_555
H39 C12 1_555 1_555
H40 C12 1_555 1_555
P3 N9 1_555 1_555
N9 H41 1_555 1_555
H42 N9 1_555 1_555
N10 P3 1_555 1_555
C13 N10 1_555 1_555
H43 C13 1_555 1_555
H44 C13 1_555 1_555
H45 C13 1_555 1_555
C14 N10 1_555 1_555
H46 C14 1_555 1_555
H47 C14 1_555 1_555
H48 C14 1_555 1_555
N11 P3 1_555 1_555
C15 N11 1_555 1_555
H49 C15 1_555 1_555
H50 C15 1_555 1_555
H51 C15 1_555 1_555
C16 N11 1_555 1_555
H52 C16 1_555 1_555
H53 C16 1_555 1_555
H54 C16 1_555 1_555
N12 P3 1_555 1_555
C17 N12 1_555 1_555
H55 C17 1_555 1_555
H56 C17 1_555 1_555
H57 C17 1_555 1_555
C18 N12 1_555 1_555
H58 C18 1_555 1_555
H59 C18 1_555 1_555
H60 C18 1_555 1_555
P4 N13 1_555 1_555
N13 H61 1_555 1_555
H62 N13 1_555 1_555
N14 P4 1_555 1_555
C19 N14 1_555 1_555
H63 C19 1_555 1_555
H64 C19 1_555 1_555
H65 C19 1_555 1_555
C20 N14 1_555 1_555
H66 C20 1_555 1_555
H67 C20 1_555 1_555
H68 C20 1_555 1_555
N15 P4 1_555 1_555
C21 N15 1_555 1_555
H69 C21 1_555 1_555
H70 C21 1_555 1_555
H71 C21 1_555 1_555
C22 N15 1_555 1_555
H72 C22 1_555 1_555
H73 C22 1_555 1_555
H74 C22 1_555 1_555
N16 P4 1_555 1_555
C23 N16 1_555 1_555
H75 C23 1_555 1_555
H76 C23 1_555 1_555
H77 C23 1_555 1_555
C24 N16 1_555 1_555
H78 C24 1_555 1_555
H79 C24 1_555 1_555
H80 C24 1_555 1_555
B1 O1 1_555 1_555
O1 H81 1_555 1_555
O2 B1 1_555 1_555
H82 O2 1_555 1_555
O3 B1 1_555 1_555
H83 O3 1_555 1_555
B2 O4 1_555 1_555
O4 H84 1_555 1_555
O5 B2 1_555 1_555
H85 O5 1_555 1_555
O6 B2 1_555 1_555
H86 O6 1_555 1_555
B3 O7 1_555 1_555
O7 H87 1_555 1_555
O8 B3 1_555 1_555
H88 O8 1_555 1_555
O9 B3 1_555 1_555
H89 O9 1_555 1_555
B4 O10 1_555 1_555
O10 H90 1_555 1_555
O11 B4 1_555 1_555
H91 O11 1_555 1_555
O12 B4 1_555 1_555
H92 O12 1_555 1_555
C25 O13 1_555 1_555
O14 C25 1_555 1_555
O15 C25 1_555 1_555
C26 O16 1_555 1_555
O17 C26 1_555 1_555
O18 C26 1_555 1_555

#END
