
#######################################################################
#
#                 Cambridge Crystallographic Data Centre
#                                CCDC 
#
#######################################################################
#
# If this CIF has been generated from an entry in the Cambridge 
# Structural Database, then it will include bibliographic, chemical, 
# crystal, experimental, refinement or atomic coordinate data resulting 
# from the CCDC's data processing and validation procedures.
#
#######################################################################

data_IDIHAF
_chemical_formula_moiety         'C18 H55 B1 N12 P3 1+,C2 H12 B9 1-'
_chemical_name_systematic        
'bis(tris(Dimethylamino)iminophosphorane)-(tris(dimethylamino)iminiophosphorane)borane 7,9-dicarba-closo-undecaborate'
_symmetry_cell_setting           orthorhombic
_symmetry_space_group_name_H-M   'P b c a'
_symmetry_Int_Tables_number      61
_space_group_name_Hall           '-P 2ac 2ab'
loop_
_symmetry_equiv_pos_site_id
_symmetry_equiv_pos_as_xyz
1 x,y,z
2 1/2-x,-y,1/2+z
3 -x,1/2+y,1/2-z
4 1/2+x,1/2-y,-z
5 -x,-y,-z
6 1/2+x,y,1/2-z
7 x,1/2-y,1/2+z
8 1/2-x,1/2+y,z
_cell_length_a                   12.844(1)
_cell_length_b                   22.458(1)
_cell_length_c                   27.711(2)
_cell_angle_alpha                90
_cell_angle_beta                 90
_cell_angle_gamma                90
_cell_volume                     7993.25
_exptl_crystal_colour            colorless
_exptl_crystal_description       prism
_cell_formula_units_Z            8
loop_
_atom_site_label
_atom_site_type_symbol
_atom_site_fract_x
_atom_site_fract_y
_atom_site_fract_z
P1 P 0.28200(5) 0.08482(3) 0.60726(2)
P2 P 0.44113(6) 0.23709(3) 0.70324(2)
P3 P 0.26685(6) 0.28725(3) 0.55310(2)
N1 N 0.31351(19) 0.14449(9) 0.63660(8)
H1 H 0.348(2) 0.1368(14) 0.6607(12)
N2 N 0.36924(17) 0.24766(9) 0.65931(8)
N3 N 0.28464(18) 0.22613(9) 0.57782(7)
N4 N 0.26846(18) 0.02872(10) 0.64521(8)
N5 N 0.37383(17) 0.06282(10) 0.57078(7)
N6 N 0.17514(17) 0.09728(10) 0.57832(8)
N7 N 0.56576(18) 0.22086(10) 0.69149(8)
N8 N 0.40786(19) 0.17846(11) 0.73719(8)
N9 N 0.4430(2) 0.29786(11) 0.73628(9)
N10 N 0.2302(2) 0.27383(11) 0.49665(9)
N11 N 0.36800(18) 0.33330(10) 0.55588(8)
N12 N 0.16991(18) 0.33114(10) 0.57270(8)
B1 B 0.3233(2) 0.20972(13) 0.62393(11)
C1 C 0.3571(2) 0.01447(13) 0.67715(10)
H2 H 0.4225 0.0224 0.6601
H3 H 0.3541 -0.0277 0.6863
H4 H 0.3536 0.0392 0.7062
C2 C 0.1670(2) 0.01579(14) 0.66660(11)
H5 H 0.1121 0.0241 0.6430
H6 H 0.1568 0.0408 0.6952
H7 H 0.1640 -0.0262 0.6760
C3 C 0.4362(2) 0.10600(13) 0.54289(10)
H8 H 0.4221 0.1464 0.5547
H9 H 0.4174 0.1033 0.5087
H10 H 0.5103 0.0970 0.5468
C4 C 0.3906(2) 0.00081(12) 0.55589(10)
H11 H 0.3453 -0.0255 0.5747
H12 H 0.4635 -0.0101 0.5614
H13 H 0.3743 -0.0033 0.5215
C5 C 0.0902(2) 0.13473(14) 0.59698(12)
H14 H 0.1098 0.1508 0.6286
H15 H 0.0267 0.1109 0.6002
H16 H 0.0778 0.1676 0.5745
C6 C 0.1497(2) 0.06832(14) 0.53209(10)
H17 H 0.2120 0.0488 0.5192
H18 H 0.1253 0.0984 0.5092
H19 H 0.0949 0.0386 0.5372
C7 C 0.5817(2) 0.16677(13) 0.66226(11)
H20 H 0.5544 0.1733 0.6297
H21 H 0.5450 0.1333 0.6773
H22 H 0.6562 0.1578 0.6605
C8 C 0.6270(2) 0.27091(14) 0.67219(12)
H23 H 0.6226 0.3047 0.6945
H24 H 0.5992 0.2826 0.6406
H25 H 0.6999 0.2588 0.6686
C9 C 0.2992(3) 0.17815(16) 0.75417(12)
H26 H 0.2550 0.1983 0.7304
H27 H 0.2947 0.1990 0.7852
H28 H 0.2756 0.1369 0.7581
C10 C 0.4779(3) 0.14880(17) 0.77149(12)
H29 H 0.5499 0.1526 0.7602
H30 H 0.4594 0.1066 0.7738
H31 H 0.4712 0.1675 0.8033
C11 C 0.4069(3) 0.35513(14) 0.71991(13)
H32 H 0.3536 0.3700 0.7422
H33 H 0.3770 0.3512 0.6875
H34 H 0.4654 0.3831 0.7190
C12 C 0.5025(4) 0.30050(18) 0.78172(13)
H35 H 0.5259 0.2604 0.7906
H36 H 0.4577 0.3164 0.8073
H37 H 0.5631 0.3265 0.7776
C13 C 0.2579(3) 0.21851(14) 0.47257(11)
H38 H 0.2592 0.1860 0.4962
H39 H 0.3269 0.2226 0.4578
H40 H 0.2064 0.2096 0.4475
C14 C 0.2162(4) 0.32302(17) 0.46289(13)
H41 H 0.1973 0.3591 0.4807
H42 H 0.1608 0.3133 0.4399
H43 H 0.2814 0.3297 0.4454
C15 C 0.4725(2) 0.30867(13) 0.55373(10)
H44 H 0.4719 0.2680 0.5666
H45 H 0.5198 0.3333 0.5730
H46 H 0.4963 0.3081 0.5201
C16 C 0.3646(3) 0.39602(14) 0.54116(14)
H47 H 0.2921 0.4096 0.5411
H48 H 0.3939 0.4002 0.5087
H49 H 0.4051 0.4202 0.5639
C17 C 0.1846(3) 0.35509(14) 0.62198(11)
H50 H 0.2533 0.3738 0.6245
H51 H 0.1794 0.3226 0.6455
H52 H 0.1305 0.3848 0.6286
C18 C 0.0635(3) 0.31092(16) 0.56580(15)
H53 H 0.0554 0.2953 0.5330
H54 H 0.0155 0.3443 0.5706
H55 H 0.0478 0.2794 0.5892
B2 B 0.7334(3) 0.01366(15) 0.68012(12)
H56 H 0.708(2) 0.0400(12) 0.7124(10)
B3 B 0.6711(3) 0.02128(14) 0.62392(12)
H57 H 0.609(2) 0.0496(12) 0.6182(10)
B4 B 0.8004(3) 0.04707(15) 0.63088(12)
H58 H 0.823(2) 0.0944(12) 0.6286(10)
B5 B 0.8663(3) -0.00335(16) 0.66826(13)
H59 H 0.927(3) 0.0098(15) 0.6926(13)
B6 B 0.7808(3) -0.05996(16) 0.68457(13)
H61 H 0.789(3) -0.0881(17) 0.7190(14)
B7 B 0.6589(3) -0.04686(16) 0.65546(15)
H62 H 0.586(3) -0.0580(14) 0.6723(12)
C19 C 0.7632(3) 0.00745(14) 0.58092(11)
H63 H 0.758(3) 0.0275(17) 0.5485(15)
B9 B 0.8763(3) -0.01139(17) 0.60388(15)
H64 H 0.949(3) -0.0032(14) 0.5851(12)
C20 C 0.8667(3) -0.06966(16) 0.63726(13)
H65 H 0.943(3) -0.0984(15) 0.6428(12)
B10 B 0.7493(3) -0.09768(17) 0.62942(17)
H67 H 0.7453 -0.1260 0.6363
B11 B 0.6806(3) -0.04780(16) 0.59214(16)
H68 H 0.610(3) -0.0608(15) 0.5674(12)
H69 H 0.7977 -0.1215 0.5859
H60? H 0.7160 -0.0936 0.6572
B8? B 0.7632(3) 0.00745(14) 0.58092(11)
H66? H 0.7381(19) -0.0898(10) 0.5857(9)
C21? C 0.6806(3) -0.04780(16) 0.59214(16)
B12? B 0.8004(12) -0.0735(7) 0.5968(6)
loop_
_geom_bond_atom_site_label_1
_geom_bond_atom_site_label_2
_geom_bond_site_symmetry_1
_geom_bond_site_symmetry_2
P1 N1 1_555 1_555
P2 N2 1_555 1_555
P3 N3 1_555 1_555
N1 H1 1_555 1_555
N2 B1 1_555 1_555
N3 B1 1_555 1_555
N4 P1 1_555 1_555
N5 P1 1_555 1_555
N6 P1 1_555 1_555
N7 P2 1_555 1_555
N8 P2 1_555 1_555
N9 P2 1_555 1_555
N10 P3 1_555 1_555
N11 P3 1_555 1_555
N12 P3 1_555 1_555
B1 N1 1_555 1_555
C1 N4 1_555 1_555
H2 C1 1_555 1_555
H3 C1 1_555 1_555
H4 C1 1_555 1_555
C2 N4 1_555 1_555
H5 C2 1_555 1_555
H6 C2 1_555 1_555
H7 C2 1_555 1_555
C3 N5 1_555 1_555
H8 C3 1_555 1_555
H9 C3 1_555 1_555
H10 C3 1_555 1_555
C4 N5 1_555 1_555
H11 C4 1_555 1_555
H12 C4 1_555 1_555
H13 C4 1_555 1_555
C5 N6 1_555 1_555
H14 C5 1_555 1_555
H15 C5 1_555 1_555
H16 C5 1_555 1_555
C6 N6 1_555 1_555
H17 C6 1_555 1_555
H18 C6 1_555 1_555
H19 C6 1_555 1_555
C7 N7 1_555 1_555
H20 C7 1_555 1_555
H21 C7 1_555 1_555
H22 C7 1_555 1_555
C8 N7 1_555 1_555
H23 C8 1_555 1_555
H24 C8 1_555 1_555
H25 C8 1_555 1_555
C9 N8 1_555 1_555
H26 C9 1_555 1_555
H27 C9 1_555 1_555
H28 C9 1_555 1_555
C10 N8 1_555 1_555
H29 C10 1_555 1_555
H30 C10 1_555 1_555
H31 C10 1_555 1_555
C11 N9 1_555 1_555
H32 C11 1_555 1_555
H33 C11 1_555 1_555
H34 C11 1_555 1_555
C12 N9 1_555 1_555
H35 C12 1_555 1_555
H36 C12 1_555 1_555
H37 C12 1_555 1_555
C13 N10 1_555 1_555
H38 C13 1_555 1_555
H39 C13 1_555 1_555
H40 C13 1_555 1_555
C14 N10 1_555 1_555
H41 C14 1_555 1_555
H42 C14 1_555 1_555
H43 C14 1_555 1_555
C15 N11 1_555 1_555
H44 C15 1_555 1_555
H45 C15 1_555 1_555
H46 C15 1_555 1_555
C16 N11 1_555 1_555
H47 C16 1_555 1_555
H48 C16 1_555 1_555
H49 C16 1_555 1_555
C17 N12 1_555 1_555
H50 C17 1_555 1_555
H51 C17 1_555 1_555
H52 C17 1_555 1_555
C18 N12 1_555 1_555
H53 C18 1_555 1_555
H54 C18 1_555 1_555
H55 C18 1_555 1_555
B2 H56 1_555 1_555
B3 B2 1_555 1_555
H57 B3 1_555 1_555
B4 B2 1_555 1_555
H58 B4 1_555 1_555
B5 B2 1_555 1_555
H59 B5 1_555 1_555
B6 B2 1_555 1_555
H61 B6 1_555 1_555
B7 B2 1_555 1_555
H62 B7 1_555 1_555
C19 B3 1_555 1_555
H63 C19 1_555 1_555
B9 B4 1_555 1_555
H64 B9 1_555 1_555
C20 B5 1_555 1_555
H65 C20 1_555 1_555
B10 B6 1_555 1_555
H67 B10 1_555 1_555
B11 B3 1_555 1_555
H68 B11 1_555 1_555
H69 B10 1_555 1_555
B3 B4 1_555 1_555
B3 B7 1_555 1_555
B4 B5 1_555 1_555
B4 C19 1_555 1_555
B5 B6 1_555 1_555
B5 B9 1_555 1_555
B6 B7 1_555 1_555
B6 C20 1_555 1_555
B7 B10 1_555 1_555
B7 B11 1_555 1_555
C19 B9 1_555 1_555
C19 B11 1_555 1_555
B9 C20 1_555 1_555
C20 B10 1_555 1_555
B10 B11 1_555 1_555

#END
