
#######################################################################
#
#                 Cambridge Crystallographic Data Centre
#                                CCDC 
#
#######################################################################
#
# If this CIF has been generated from an entry in the Cambridge 
# Structural Database, then it will include bibliographic, chemical, 
# crystal, experimental, refinement or atomic coordinate data resulting 
# from the CCDC's data processing and validation procedures.
#
#######################################################################

data_IDIJEK01
_chemical_name_common            N-(pyrazinoyl)-N,N'-dicyclohexylurea
_chemical_formula_moiety         'C18 H26 N4 O2'
_chemical_name_systematic        
N-Cyclohexyl-N-(cyclohexylcarbamoyl)pyrazine-2-carboxamide
_symmetry_cell_setting           orthorhombic
_symmetry_space_group_name_H-M   'P 21 21 21'
_symmetry_Int_Tables_number      19
_space_group_name_Hall           'P 2ac 2ab'
loop_
_symmetry_equiv_pos_site_id
_symmetry_equiv_pos_as_xyz
1 x,y,z
2 1/2-x,-y,1/2+z
3 -x,1/2+y,1/2-z
4 1/2+x,1/2-y,-z
_cell_length_a                   9.4495(3)
_cell_length_b                   11.8914(4)
_cell_length_c                   15.7721(4)
_cell_angle_alpha                90
_cell_angle_beta                 90
_cell_angle_gamma                90
_cell_volume                     1772.28
_exptl_crystal_colour            colorless
_exptl_crystal_description       block
_cell_formula_units_Z            4
loop_
_atom_site_label
_atom_site_type_symbol
_atom_site_fract_x
_atom_site_fract_y
_atom_site_fract_z
O1 O 1.18000(17) 0.69317(14) -0.19363(10)
O2 O 0.85087(17) 0.69972(14) 0.01259(10)
N1 N 1.0533(2) 0.79740(17) 0.03799(11)
H1 H 1.1426 0.8044 0.0232
N2 N 0.9239(2) 0.87436(18) -0.16113(13)
N3 N 1.0469(2) 0.67177(15) -0.07398(11)
N4 N 1.1234(3) 1.04829(18) -0.14753(13)
C1 C 1.0606(3) 0.85504(19) -0.14459(14)
C2 C 1.1591(3) 0.9405(2) -0.13833(15)
H2 H 1.2550 0.9219 -0.1271
C3 C 0.9883(3) 1.0675(2) -0.16587(14)
H3 H 0.9583 1.1429 -0.1746
C4 C 0.8906(3) 0.9829(2) -0.17266(15)
H4 H 0.7956 1.0019 -0.1861
C5 C 1.1034(2) 0.7332(2) -0.13870(15)
C6 C 0.9735(2) 0.72492(18) -0.00459(14)
C7 C 1.0621(3) 0.54756(19) -0.07246(15)
H5 H 1.139(3) 0.528(2) -0.1129(16)
C8 C 0.9301(3) 0.4879(2) -0.10353(17)
H6 H 0.853(3) 0.508(2) -0.0642(17)
H7 H 0.907(3) 0.512(3) -0.1607(17)
C9 C 0.9525(3) 0.3606(2) -0.10437(18)
H8 H 1.024(3) 0.343(2) -0.1490(18)
H9 H 0.867(3) 0.322(2) -0.1228(17)
C10 C 0.9970(3) 0.3180(2) -0.01713(18)
H10 H 1.012(3) 0.239(3) -0.0182(18)
H11 H 0.917(3) 0.332(2) 0.0246(19)
C11 C 1.1279(3) 0.3784(2) 0.01375(18)
H12 H 1.154(3) 0.355(2) 0.0727(19)
H13 H 1.203(3) 0.356(2) -0.0230(19)
C12 C 1.1066(3) 0.5061(2) 0.01502(17)
H14 H 1.030(3) 0.528(2) 0.0587(17)
H15 H 1.191(3) 0.542(2) 0.0372(17)
C13 C 1.0009(3) 0.8663(2) 0.10825(15)
H16 H 0.9017 0.8425 0.1212
C14 C 1.0906(3) 0.8463(2) 0.18675(16)
H17 H 1.189(3) 0.865(2) 0.1781(17)
H18 H 1.087(3) 0.762(2) 0.2028(16)
C15 C 1.0398(3) 0.9189(2) 0.26063(16)
H19 H 0.943(3) 0.895(2) 0.2773(17)
H20 H 1.104(3) 0.906(2) 0.3114(18)
C16 C 1.0383(3) 1.0423(2) 0.23691(17)
H21 H 0.998(3) 1.088(3) 0.2868(18)
H22 H 1.133(4) 1.069(2) 0.2268(18)
C17 C 0.9482(4) 1.0635(3) 0.15783(17)
H23 H 0.844(3) 1.045(2) 0.1711(17)
H24 H 0.955(3) 1.147(3) 0.1423(17)
C18 C 0.9987(3) 0.9906(2) 0.08369(16)
H25 H 1.095(3) 1.010(2) 0.0670(16)
H26 H 0.941(3) 1.003(2) 0.0305(17)
loop_
_geom_bond_atom_site_label_1
_geom_bond_atom_site_label_2
_geom_bond_site_symmetry_1
_geom_bond_site_symmetry_2
O1 C5 1_555 1_555
O2 C6 1_555 1_555
N1 H1 1_555 1_555
N2 C1 1_555 1_555
N3 C5 1_555 1_555
N4 C2 1_555 1_555
C1 C2 1_555 1_555
C2 H2 1_555 1_555
C3 N4 1_555 1_555
H3 C3 1_555 1_555
C4 N2 1_555 1_555
H4 C4 1_555 1_555
C5 C1 1_555 1_555
C6 N1 1_555 1_555
C7 N3 1_555 1_555
H5 C7 1_555 1_555
C8 C7 1_555 1_555
H6 C8 1_555 1_555
H7 C8 1_555 1_555
C9 C8 1_555 1_555
H8 C9 1_555 1_555
H9 C9 1_555 1_555
C10 C9 1_555 1_555
H10 C10 1_555 1_555
H11 C10 1_555 1_555
C11 C10 1_555 1_555
H12 C11 1_555 1_555
H13 C11 1_555 1_555
C12 C7 1_555 1_555
H14 C12 1_555 1_555
H15 C12 1_555 1_555
C13 N1 1_555 1_555
H16 C13 1_555 1_555
C14 C13 1_555 1_555
H17 C14 1_555 1_555
H18 C14 1_555 1_555
C15 C14 1_555 1_555
H19 C15 1_555 1_555
H20 C15 1_555 1_555
C16 C15 1_555 1_555
H21 C16 1_555 1_555
H22 C16 1_555 1_555
C17 C16 1_555 1_555
H23 C17 1_555 1_555
H24 C17 1_555 1_555
C18 C13 1_555 1_555
H25 C18 1_555 1_555
H26 C18 1_555 1_555
N3 C6 1_555 1_555
C3 C4 1_555 1_555
C11 C12 1_555 1_555
C17 C18 1_555 1_555

#END
