
#######################################################################
#
#                 Cambridge Crystallographic Data Centre
#                                CCDC 
#
#######################################################################
#
# If this CIF has been generated from an entry in the Cambridge 
# Structural Database, then it will include bibliographic, chemical, 
# crystal, experimental, refinement or atomic coordinate data resulting 
# from the CCDC's data processing and validation procedures.
#
#######################################################################

data_IDIKOW
_chemical_formula_moiety         'C18 H18 O3 S1'
_chemical_name_systematic        
'(R)-(1-(4-Methoxyphenyl)-3-oxo-3-phenylpropyl) ethanethioate'
_symmetry_cell_setting           monoclinic
_symmetry_space_group_name_H-M   'P 21'
_symmetry_Int_Tables_number      4
_space_group_name_Hall           'P 2yb'
loop_
_symmetry_equiv_pos_site_id
_symmetry_equiv_pos_as_xyz
1 x,y,z
2 -x,1/2+y,-z
_cell_length_a                   9.3541(2)
_cell_length_b                   5.35740(10)
_cell_length_c                   16.8557(4)
_cell_angle_alpha                90
_cell_angle_beta                 106.0090(10)
_cell_angle_gamma                90
_cell_volume                     811.942
_exptl_crystal_colour            colorless
_exptl_crystal_description       plate
_cell_formula_units_Z            2
loop_
_atom_site_label
_atom_site_type_symbol
_atom_site_fract_x
_atom_site_fract_y
_atom_site_fract_z
S1 S 0.66605(5) 0.16099(10) 0.21398(2)
O1 O 0.33687(15) 0.7011(2) 0.27748(7)
O2 O 0.11169(16) 0.3464(3) -0.09850(7)
O3 O 0.81380(16) 0.4746(3) 0.32581(10)
C1 C 0.51879(18) 0.3775(3) 0.22049(9)
H1 H 0.5605 0.5465 0.2279
C2 C 0.46526(18) 0.3133(3) 0.29563(9)
H2 H 0.4087 0.1593 0.2848
H3 H 0.5512 0.2842 0.3423
C3 C 0.37049(17) 0.5124(3) 0.31834(9)
C4 C 0.31898(16) 0.4734(3) 0.39411(9)
C5 C 0.36277(19) 0.2709(3) 0.44567(10)
H4 H 0.4254 0.1510 0.4334
C6 C 0.3137(2) 0.2459(4) 0.51550(11)
H5 H 0.3447 0.1102 0.5504
C7 C 0.2199(2) 0.4190(4) 0.53378(12)
H6 H 0.1863 0.4001 0.5805
C8 C 0.1760(2) 0.6202(4) 0.48280(13)
H7 H 0.1122 0.7382 0.4949
C9 C 0.22564(18) 0.6488(4) 0.41368(10)
H8 H 0.1962 0.7872 0.3798
C10 C 0.40271(17) 0.3660(3) 0.13760(9)
C11 C 0.29773(19) 0.1806(4) 0.11732(10)
H9 H 0.2933 0.0611 0.1566
C12 C 0.1977(2) 0.1678(4) 0.03901(10)
H10 H 0.1265 0.0421 0.0266
C13 C 0.20463(19) 0.3407(4) -0.01959(10)
C14 C 0.3093(2) 0.5288(4) -0.00011(10)
H11 H 0.3138 0.6477 -0.0396
C15 C 0.4071(2) 0.5409(4) 0.07769(10)
H12 H 0.4772 0.6685 0.0902
C16 C 0.0129(3) 0.1430(6) -0.12383(12)
H13 H 0.0683 -0.0102 -0.1155
H14 H -0.0388 0.1607 -0.1813
H15 H -0.0577 0.1406 -0.0919
C17 C 0.82067(19) 0.2904(4) 0.28641(11)
C18 C 0.9608(2) 0.1443(6) 0.29410(13)
H16 H 1.0036 0.1920 0.2507
H17 H 0.9381 -0.0307 0.2899
H18 H 1.0302 0.1783 0.3466
loop_
_geom_bond_atom_site_label_1
_geom_bond_atom_site_label_2
_geom_bond_site_symmetry_1
_geom_bond_site_symmetry_2
S1 C1 1_555 1_555
O1 C3 1_555 1_555
O2 C13 1_555 1_555
O3 C17 1_555 1_555
C1 H1 1_555 1_555
C2 C1 1_555 1_555
H2 C2 1_555 1_555
H3 C2 1_555 1_555
C3 C2 1_555 1_555
C4 C3 1_555 1_555
C5 C4 1_555 1_555
H4 C5 1_555 1_555
C6 C5 1_555 1_555
H5 C6 1_555 1_555
C7 C6 1_555 1_555
H6 C7 1_555 1_555
C8 C7 1_555 1_555
H7 C8 1_555 1_555
C9 C4 1_555 1_555
H8 C9 1_555 1_555
C10 C1 1_555 1_555
C11 C10 1_555 1_555
H9 C11 1_555 1_555
C12 C11 1_555 1_555
H10 C12 1_555 1_555
C13 C12 1_555 1_555
C14 C13 1_555 1_555
H11 C14 1_555 1_555
C15 C10 1_555 1_555
H12 C15 1_555 1_555
C16 O2 1_555 1_555
H13 C16 1_555 1_555
H14 C16 1_555 1_555
H15 C16 1_555 1_555
C17 S1 1_555 1_555
C18 C17 1_555 1_555
H16 C18 1_555 1_555
H17 C18 1_555 1_555
H18 C18 1_555 1_555
C8 C9 1_555 1_555
C14 C15 1_555 1_555

#END
