
#######################################################################
#
#                 Cambridge Crystallographic Data Centre
#                                CCDC 
#
#######################################################################
#
# If this CIF has been generated from an entry in the Cambridge 
# Structural Database, then it will include bibliographic, chemical, 
# crystal, experimental, refinement or atomic coordinate data resulting 
# from the CCDC's data processing and validation procedures.
#
#######################################################################

data_IDINAK
_chemical_formula_moiety         'C5 H9 N1 O2,C5 H10 N1 O2 1+,Cl1 O4 1-'
_chemical_name_systematic        'bis(L-Proline) hydrogen perchlorate'
_symmetry_cell_setting           monoclinic
_symmetry_space_group_name_H-M   'P 21'
_symmetry_Int_Tables_number      4
_space_group_name_Hall           'P 2yb'
loop_
_symmetry_equiv_pos_site_id
_symmetry_equiv_pos_as_xyz
1 x,y,z
2 -x,1/2+y,-z
_cell_length_a                   7.848(6)
_cell_length_b                   7.3951(14)
_cell_length_c                   12.834(5)
_cell_angle_alpha                90
_cell_angle_beta                 90.95(4)
_cell_angle_gamma                90
_cell_volume                     744.741
_exptl_crystal_colour            colorless
_exptl_crystal_description       needle
_cell_formula_units_Z            2
loop_
_atom_site_label
_atom_site_type_symbol
_atom_site_fract_x
_atom_site_fract_y
_atom_site_fract_z
Cl1 Cl 0.25414(18) 0.3333(2) 0.78695(10)
O1 O 0.1316(7) 0.1989(8) 0.8086(4)
O2 O 0.2853(9) 0.4403(12) 0.8744(5)
O3 O 0.1820(12) 0.4414(14) 0.7083(5)
O4 O 0.4024(8) 0.2560(12) 0.7501(7)
O5 O 0.3298(5) 0.4238(5) 0.4672(3)
O6 O 0.2380(5) 0.5672(5) 0.3241(3)
C1 C 0.2930(6) 0.5605(8) 0.4187(4)
C2 C 0.3080(7) 0.7429(8) 0.4713(4)
H1 H 0.3842 0.8199 0.4309
C3 C 0.1430(8) 0.8433(11) 0.4895(5)
H2 H 0.1112 0.9152 0.4290
H3 H 0.0514 0.7595 0.5041
C4 C 0.1797(14) 0.9616(15) 0.5814(6)
H4 H 0.0754 0.9939 0.6164
H5 H 0.2376 1.0713 0.5605
C5 C 0.2924(8) 0.8481(11) 0.6506(4)
H6 H 0.2252 0.7825 0.7009
H7 H 0.3743 0.9232 0.6880
N1 N 0.3818(5) 0.7193(6) 0.5794(3)
H8 H 0.3666 0.6048 0.6011
H9 H 0.4943 0.7429 0.5796
O7 O 0.3390(8) 0.1049(8) 0.2919(5)
O8 O 0.1743(7) 0.3035(6) 0.2113(4)
H10 H 0.229(10) 0.402(15) 0.281(6)
C6 C 0.2427(7) 0.1478(8) 0.2243(4)
C7 C 0.1845(8) 0.0128(8) 0.1437(5)
H11 H 0.0609 0.0174 0.1322
C8 C 0.2814(18) 0.0425(14) 0.0419(7)
H12 H 0.2293 0.1380 0.0005
H13 H 0.3998 0.0730 0.0560
C9 C 0.2662(15) -0.1378(11) -0.0128(5)
H14 H 0.1627 -0.1428 -0.0550
H15 H 0.3630 -0.1578 -0.0574
C10 C 0.2621(12) -0.2753(10) 0.0714(5)
H16 H 0.3667 -0.3451 0.0731
H17 H 0.1668 -0.3572 0.0608
N2 N 0.2428(7) -0.1712(8) 0.1701(3)
H18 H 0.1663 -0.2258 0.2111
H19 H 0.3432 -0.1662 0.2049
H20? H 0.0492 0.7738 0.4620
H21? H 0.1442 0.9580 0.4544
C11? C 0.1192(16) 0.857(5) 0.6027(8)
H22? H 0.0494 0.7578 0.6273
H23? H 0.0641 0.9700 0.6202
H24? H 0.2843 0.7986 0.7195
H25? H 0.3517 0.9616 0.6544
H26? H 0.0613 0.0065 0.1544
C12? C 0.183(5) 0.034(3) 0.0271(8)
H27? H 0.2465 0.1399 0.0066
H28? H 0.0668 0.0446 0.0002
H29? H 0.1960 -0.1778 -0.0712
H30? H 0.3818 -0.1218 -0.0369
loop_
_geom_bond_atom_site_label_1
_geom_bond_atom_site_label_2
_geom_bond_site_symmetry_1
_geom_bond_site_symmetry_2
Cl1 O1 1_555 1_555
O2 Cl1 1_555 1_555
O3 Cl1 1_555 1_555
O4 Cl1 1_555 1_555
O5 C1 1_555 1_555
O6 C1 1_555 1_555
C1 C2 1_555 1_555
C2 H1 1_555 1_555
C3 C2 1_555 1_555
H2 C3 1_555 1_555
H3 C3 1_555 1_555
C4 C3 1_555 1_555
H4 C4 1_555 1_555
H5 C4 1_555 1_555
C5 C4 1_555 1_555
H6 C5 1_555 1_555
H7 C5 1_555 1_555
N1 C2 1_555 1_555
H8 N1 1_555 1_555
H9 N1 1_555 1_555
O7 C6 1_555 1_555
O8 H10 1_555 1_555
C6 O8 1_555 1_555
C7 C6 1_555 1_555
H11 C7 1_555 1_555
C8 C7 1_555 1_555
H12 C8 1_555 1_555
H13 C8 1_555 1_555
C9 C8 1_555 1_555
H14 C9 1_555 1_555
H15 C9 1_555 1_555
C10 C9 1_555 1_555
H16 C10 1_555 1_555
H17 C10 1_555 1_555
N2 C7 1_555 1_555
H18 N2 1_555 1_555
H19 N2 1_555 1_555
C5 N1 1_555 1_555
C10 N2 1_555 1_555

#END
