
#######################################################################
#
#                 Cambridge Crystallographic Data Centre
#                                CCDC 
#
#######################################################################
#
# If this CIF has been generated from an entry in the Cambridge 
# Structural Database, then it will include bibliographic, chemical, 
# crystal, experimental, refinement or atomic coordinate data resulting 
# from the CCDC's data processing and validation procedures.
#
#######################################################################

data_IDIPET
_chemical_formula_moiety         'C24 H34 O6 Si1'
_chemical_name_systematic        
15-({[t-butyl(dimethyl)silyl]oxy}methyl)-6,7,8,9-tetradehydro-3,4,5,10,11,12,14a,18a-octahydro-15H-pyrano[3,4-b][1,4]dioxacyclohexadecine-2,13-dione
_symmetry_cell_setting           orthorhombic
_symmetry_space_group_name_H-M   'P 21 21 21'
_symmetry_Int_Tables_number      19
_space_group_name_Hall           'P 2ac 2ab'
loop_
_symmetry_equiv_pos_site_id
_symmetry_equiv_pos_as_xyz
1 x,y,z
2 1/2-x,-y,1/2+z
3 -x,1/2+y,1/2-z
4 1/2+x,1/2-y,-z
_cell_length_a                   9.9111(3)
_cell_length_b                   11.5187(3)
_cell_length_c                   21.5302(6)
_cell_angle_alpha                90
_cell_angle_beta                 90
_cell_angle_gamma                90
_cell_volume                     2457.95
_exptl_crystal_colour            colorless
_exptl_crystal_description       rod
_cell_formula_units_Z            4
loop_
_atom_site_label
_atom_site_type_symbol
_atom_site_fract_x
_atom_site_fract_y
_atom_site_fract_z
O1 O 0.09088(19) 0.12977(16) 0.61065(9)
O2 O -0.0536(2) 0.26669(19) 0.64434(11)
C1 C -0.0234(3) 0.1664(3) 0.63931(13)
C2 C -0.1092(3) 0.0656(3) 0.65989(15)
H1 H -0.172077 0.093972 0.692229
H2 H -0.164482 0.040506 0.624036
C3 C -0.0379(4) -0.0389(3) 0.68503(18)
H3 H 0.038602 -0.058166 0.657330
H4 H -0.100908 -0.105605 0.684677
C4 C 0.0157(4) -0.0219(4) 0.7515(2)
H5 H -0.061418 -0.005486 0.779332
H6 H 0.057778 -0.095280 0.765522
C5 C 0.1145(3) 0.0719(4) 0.75762(16)
C6 C 0.1971(3) 0.1484(3) 0.76130(15)
C7 C 0.2931(3) 0.2340(3) 0.76460(15)
C8 C 0.3782(3) 0.3085(3) 0.76646(16)
C9 C 0.4840(4) 0.3975(4) 0.76865(18)
H7 H 0.506052 0.413708 0.812657
H8 H 0.448221 0.470017 0.750278
C10 C 0.6129(4) 0.3647(4) 0.73486(18)
H9 H 0.645852 0.290029 0.751814
H10 H 0.682217 0.424268 0.743944
C11 C 0.5998(3) 0.3530(3) 0.66477(16)
H11 H 0.551440 0.421566 0.648251
H12 H 0.691038 0.351886 0.646052
C12 C 0.5249(3) 0.2440(3) 0.64583(14)
O3 O 0.5605(2) 0.1463(2) 0.65863(11)
C13 C 0.1844(3) 0.2193(2) 0.59082(13)
H13 H 0.172693 0.290067 0.617156
O4 O 0.41279(19) 0.26762(17) 0.61286(10)
C14 C 0.3242(3) 0.1679(2) 0.60134(15)
H14 H 0.322216 0.117600 0.639169
C15 C 0.3689(3) 0.0974(2) 0.54704(15)
H15 H 0.450659 0.054707 0.549874
C16 C 0.2980(3) 0.0924(2) 0.49506(16)
H16 H 0.330188 0.041674 0.463554
O5 O 0.1826(2) 0.15335(16) 0.48236(10)
C17 C 0.1556(3) 0.2486(2) 0.52357(14)
H17 H 0.057465 0.267852 0.520100
C18 C 0.2356(4) 0.3517(3) 0.4976(2)
H18 H 0.333742 0.336925 0.501224
H19 H 0.213513 0.363835 0.453231
O6 O 0.1989(3) 0.45114(19) 0.53309(16)
Si1 Si 0.26540(8) 0.58128(6) 0.52210(4)
C19 C 0.1897(7) 0.6481(7) 0.4509(3)
H20 H 0.200761 0.595119 0.415677
H21 H 0.235239 0.721684 0.441906
H22 H 0.093423 0.662413 0.457952
C20 C 0.4517(3) 0.5683(3) 0.51346(17)
H23 H 0.493228 0.644983 0.518256
H24 H 0.473007 0.537308 0.472215
H25 H 0.486984 0.515727 0.545360
C21 C 0.2167(3) 0.6635(3) 0.59431(16)
C22 C 0.0637(4) 0.6578(3) 0.60342(19)
H26 H 0.018707 0.697696 0.568950
H27 H 0.039509 0.695628 0.642652
H28 H 0.034812 0.576467 0.604494
C23 C 0.2863(7) 0.6057(6) 0.6503(2)
H29 H 0.261455 0.523352 0.651884
H30 H 0.257269 0.644008 0.688686
H31 H 0.384360 0.612782 0.645989
C24 C 0.2615(4) 0.7914(3) 0.5894(2)
H32 H 0.360064 0.795179 0.586650
H33 H 0.231095 0.833906 0.626286
H34 H 0.221682 0.826424 0.552190
H35? H 0.055968 0.261788 0.521215
C25? C 0.221(3) 0.3683(19) 0.5124(13)
H36? H 0.319051 0.361711 0.519069
H37? H 0.205915 0.390680 0.468513
O7? O 0.170(3) 0.4579(16) 0.5512(11)
Si2? Si 0.1768(9) 0.6009(7) 0.5428(4)
C26? C 0.017(3) 0.665(3) 0.5731(16)
H38? H 0.019506 0.749671 0.568437
H39? H -0.059932 0.633900 0.549692
H40? H 0.006597 0.645311 0.617143
C27? C 0.203(6) 0.641(5) 0.4595(13)
H41? H 0.207015 0.725777 0.455666
H42? H 0.288087 0.607370 0.444753
H43? H 0.128207 0.611121 0.434546
C28? C 0.329(2) 0.655(2) 0.5865(12)
C29? C 0.316(4) 0.616(4) 0.6546(14)
H44? H 0.311245 0.530635 0.656169
H45? H 0.395138 0.642012 0.678145
H46? H 0.234269 0.648720 0.672845
C30? C 0.460(3) 0.598(4) 0.5605(18)
H47? H 0.472168 0.620782 0.517034
H48? H 0.537653 0.623397 0.584962
H49? H 0.451571 0.513189 0.563094
C31? C 0.337(4) 0.789(2) 0.584(2)
H50? H 0.345208 0.813982 0.540381
H51? H 0.255087 0.822461 0.601889
H52? H 0.415956 0.815752 0.607189
loop_
_geom_bond_atom_site_label_1
_geom_bond_atom_site_label_2
_geom_bond_site_symmetry_1
_geom_bond_site_symmetry_2
O1 C1 1_555 1_555
O2 C1 1_555 1_555
C1 C2 1_555 1_555
C2 H1 1_555 1_555
H2 C2 1_555 1_555
C3 C2 1_555 1_555
H3 C3 1_555 1_555
H4 C3 1_555 1_555
C4 C3 1_555 1_555
H5 C4 1_555 1_555
H6 C4 1_555 1_555
C5 C4 1_555 1_555
C6 C5 1_555 1_555
C7 C6 1_555 1_555
C8 C7 1_555 1_555
C9 C8 1_555 1_555
H7 C9 1_555 1_555
H8 C9 1_555 1_555
C10 C9 1_555 1_555
H9 C10 1_555 1_555
H10 C10 1_555 1_555
C11 C10 1_555 1_555
H11 C11 1_555 1_555
H12 C11 1_555 1_555
C12 C11 1_555 1_555
O3 C12 1_555 1_555
C13 O1 1_555 1_555
H13 C13 1_555 1_555
O4 C12 1_555 1_555
C14 C13 1_555 1_555
H14 C14 1_555 1_555
C15 C14 1_555 1_555
H15 C15 1_555 1_555
C16 C15 1_555 1_555
H16 C16 1_555 1_555
O5 C16 1_555 1_555
C17 C13 1_555 1_555
H17 C17 1_555 1_555
C18 C17 1_555 1_555
H18 C18 1_555 1_555
H19 C18 1_555 1_555
O6 C18 1_555 1_555
Si1 O6 1_555 1_555
C19 Si1 1_555 1_555
H20 C19 1_555 1_555
H21 C19 1_555 1_555
H22 C19 1_555 1_555
C20 Si1 1_555 1_555
H23 C20 1_555 1_555
H24 C20 1_555 1_555
H25 C20 1_555 1_555
C21 Si1 1_555 1_555
C22 C21 1_555 1_555
H26 C22 1_555 1_555
H27 C22 1_555 1_555
H28 C22 1_555 1_555
C23 C21 1_555 1_555
H29 C23 1_555 1_555
H30 C23 1_555 1_555
H31 C23 1_555 1_555
C24 C21 1_555 1_555
H32 C24 1_555 1_555
H33 C24 1_555 1_555
H34 C24 1_555 1_555
O4 C14 1_555 1_555
O5 C17 1_555 1_555

#END
