
#######################################################################
#
#                 Cambridge Crystallographic Data Centre
#                                CCDC 
#
#######################################################################
#
# If this CIF has been generated from an entry in the Cambridge 
# Structural Database, then it will include bibliographic, chemical, 
# crystal, experimental, refinement or atomic coordinate data resulting 
# from the CCDC's data processing and validation procedures.
#
#######################################################################

data_IDISUL
_chemical_formula_moiety         'C18 H19 N1 O2'
_chemical_name_systematic        
N-(2-Methyl-3-oxo-1,3-diphenylpropyl)acetamide
_symmetry_cell_setting           monoclinic
_symmetry_space_group_name_H-M   'P 21/c'
_symmetry_Int_Tables_number      14
_space_group_name_Hall           '-P 2ybc'
loop_
_symmetry_equiv_pos_site_id
_symmetry_equiv_pos_as_xyz
1 x,y,z
2 -x,1/2+y,1/2-z
3 -x,-y,-z
4 x,1/2-y,1/2+z
_cell_length_a                   9.156(5)
_cell_length_b                   17.668(8)
_cell_length_c                   10.103(5)
_cell_angle_alpha                90
_cell_angle_beta                 107.914(7)
_cell_angle_gamma                90
_cell_volume                     1555.11
_exptl_crystal_colour            colorless
_exptl_crystal_description       Prism
_cell_formula_units_Z            4
_exptl_crystal_recrystallization_method 'petrolum ether/ethyl acetate'
loop_
_atom_site_label
_atom_site_type_symbol
_atom_site_fract_x
_atom_site_fract_y
_atom_site_fract_z
O1 O 0.2368(2) 0.56897(11) 0.6152(2)
O2 O 0.13769(19) 0.74116(10) 0.76594(17)
N1 N 0.1849(2) 0.74059(11) 0.5589(2)
C1 C 0.2662(3) 0.55877(14) 0.2653(3)
H1 H 0.3342 0.5998 0.2680
C2 C 0.2150(3) 0.51473(15) 0.1457(3)
H2 H 0.2490 0.5252 0.0677
C3 C 0.1143(3) 0.45551(16) 0.1410(3)
H3 H 0.0791 0.4255 0.0593
C4 C 0.0646(3) 0.43978(15) 0.2540(3)
H4 H -0.0055 0.3995 0.2497
C5 C 0.1172(3) 0.48288(15) 0.3731(3)
H5 H 0.0841 0.4714 0.4512
C6 C 0.2190(3) 0.54355(13) 0.3808(3)
C7 C 0.2732(3) 0.58798(14) 0.5128(3)
C8 C 0.3799(3) 0.65579(13) 0.5217(2)
H6 H 0.3626 0.6769 0.4263
C9 C 0.3469(3) 0.71774(13) 0.6157(2)
H7 H 0.3627 0.6956 0.7101
C10 C 0.4548(3) 0.78490(13) 0.6304(2)
C11 C 0.4362(3) 0.83580(13) 0.5211(3)
H8 H 0.3546 0.8289 0.4372
C12 C 0.5363(3) 0.89691(15) 0.5338(3)
H9 H 0.5236 0.9308 0.4580
C13 C 0.6541(3) 0.90834(16) 0.6565(3)
H10 H 0.7209 0.9505 0.6656
C14 C 0.6741(3) 0.85819(16) 0.7654(3)
H11 H 0.7551 0.8657 0.8495
C15 C 0.5756(3) 0.79640(15) 0.7523(3)
H12 H 0.5910 0.7618 0.8273
C16 C 0.5456(3) 0.62634(15) 0.5778(3)
H13 H 0.5626 0.6044 0.6704
H14 H 0.6174 0.6683 0.5838
H15 H 0.5626 0.5875 0.5148
C17 C 0.0921(3) 0.74884(12) 0.6372(2)
C18 C -0.0729(3) 0.76761(16) 0.5617(3)
H16 H -0.1391 0.7270 0.5764
H17 H -0.0867 0.7728 0.4621
H18 H -0.1003 0.8153 0.5976
H19 H 0.143(3) 0.7487(15) 0.463(3)
loop_
_geom_bond_atom_site_label_1
_geom_bond_atom_site_label_2
_geom_bond_site_symmetry_1
_geom_bond_site_symmetry_2
O1 C7 1_555 1_555
O2 C17 1_555 1_555
N1 C9 1_555 1_555
C1 H1 1_555 1_555
C2 C1 1_555 1_555
H2 C2 1_555 1_555
C3 C2 1_555 1_555
H3 C3 1_555 1_555
C4 C3 1_555 1_555
H4 C4 1_555 1_555
C5 C4 1_555 1_555
H5 C5 1_555 1_555
C6 C1 1_555 1_555
C7 C6 1_555 1_555
C8 C7 1_555 1_555
H6 C8 1_555 1_555
C9 C8 1_555 1_555
H7 C9 1_555 1_555
C10 C9 1_555 1_555
C11 C10 1_555 1_555
H8 C11 1_555 1_555
C12 C11 1_555 1_555
H9 C12 1_555 1_555
C13 C12 1_555 1_555
H10 C13 1_555 1_555
C14 C13 1_555 1_555
H11 C14 1_555 1_555
C15 C10 1_555 1_555
H12 C15 1_555 1_555
C16 C8 1_555 1_555
H13 C16 1_555 1_555
H14 C16 1_555 1_555
H15 C16 1_555 1_555
C17 N1 1_555 1_555
C18 C17 1_555 1_555
H16 C18 1_555 1_555
H17 C18 1_555 1_555
H18 C18 1_555 1_555
H19 N1 1_555 1_555
C5 C6 1_555 1_555
C14 C15 1_555 1_555

#END
