
#######################################################################
#
#                 Cambridge Crystallographic Data Centre
#                                CCDC 
#
#######################################################################
#
# If this CIF has been generated from an entry in the Cambridge 
# Structural Database, then it will include bibliographic, chemical, 
# crystal, experimental, refinement or atomic coordinate data resulting 
# from the CCDC's data processing and validation procedures.
#
#######################################################################

data_IDISEV
_chemical_formula_moiety         'C15 H14 Br1 N1'
_chemical_name_systematic        
N-[(E)-4-Bromobenzylidene]-2,3-dimethylaniline
_symmetry_cell_setting           monoclinic
_symmetry_space_group_name_H-M   'P 21/n'
_symmetry_Int_Tables_number      14
_space_group_name_Hall           '-P 2yn'
loop_
_symmetry_equiv_pos_site_id
_symmetry_equiv_pos_as_xyz
1 x,y,z
2 1/2-x,1/2+y,1/2-z
3 -x,-y,-z
4 1/2+x,1/2-y,1/2+z
_cell_length_a                   12.945(9)
_cell_length_b                   7.857(5)
_cell_length_c                   14.497(10)
_cell_angle_alpha                90
_cell_angle_beta                 113.384(8)
_cell_angle_gamma                90
_cell_volume                     1353.37
_exptl_crystal_colour            yellow
_exptl_crystal_description       block
_cell_formula_units_Z            4
_exptl_crystal_recrystallization_method methanol
loop_
_atom_site_label
_atom_site_type_symbol
_atom_site_fract_x
_atom_site_fract_y
_atom_site_fract_z
Br1 Br 0.07853(5) 0.88838(7) 0.11686(4)
C1 C 0.0611(4) 0.8732(5) 0.3942(3)
H1 H 0.0091 0.9056 0.4205
C2 C 0.0362(4) 0.8999(5) 0.2939(3)
H2 H -0.0315 0.9504 0.2529
C3 C 0.1122(5) 0.8513(5) 0.2554(3)
C4 C 0.2111(4) 0.7767(7) 0.3137(4)
H3 H 0.2616 0.7431 0.2860
C5 C 0.2363(4) 0.7508(6) 0.4154(3)
H4 H 0.3042 0.7002 0.4557
C6 C 0.1617(4) 0.7992(5) 0.4572(3)
C7 C 0.1882(4) 0.7675(5) 0.5637(3)
H5 H 0.2592 0.7258 0.6036
C8 C 0.1554(4) 0.7691(5) 0.7095(3)
C9 C 0.2578(4) 0.8290(6) 0.7761(3)
H6 H 0.3060 0.8842 0.7525
C10 C 0.2887(4) 0.8071(7) 0.8781(3)
H7 H 0.3586 0.8452 0.9231
C11 C 0.2169(4) 0.7295(6) 0.9130(3)
H8 H 0.2382 0.7163 0.9818
C12 C 0.1130(4) 0.6702(5) 0.8474(3)
C13 C 0.0802(3) 0.6918(5) 0.7437(3)
C14 C 0.0371(4) 0.5812(6) 0.8890(4)
H9 H 0.0750 0.5718 0.9607
H10 H 0.0191 0.4695 0.8602
H11 H -0.0309 0.6457 0.8726
C15 C -0.0326(4) 0.6292(6) 0.6700(3)
H12 H -0.0869 0.6384 0.6995
H13 H -0.0262 0.5124 0.6535
H14 H -0.0564 0.6970 0.6100
N1 N 0.1199(3) 0.7938(4) 0.6039(2)
loop_
_geom_bond_atom_site_label_1
_geom_bond_atom_site_label_2
_geom_bond_site_symmetry_1
_geom_bond_site_symmetry_2
Br1 C3 1_555 1_555
C1 H1 1_555 1_555
C2 C1 1_555 1_555
H2 C2 1_555 1_555
C3 C2 1_555 1_555
C4 C3 1_555 1_555
H3 C4 1_555 1_555
C5 C4 1_555 1_555
H4 C5 1_555 1_555
C6 C1 1_555 1_555
C7 C6 1_555 1_555
H5 C7 1_555 1_555
C8 C9 1_555 1_555
C9 H6 1_555 1_555
C10 C9 1_555 1_555
H7 C10 1_555 1_555
C11 C10 1_555 1_555
H8 C11 1_555 1_555
C12 C11 1_555 1_555
C13 C8 1_555 1_555
C14 C12 1_555 1_555
H9 C14 1_555 1_555
H10 C14 1_555 1_555
H11 C14 1_555 1_555
C15 C13 1_555 1_555
H12 C15 1_555 1_555
H13 C15 1_555 1_555
H14 C15 1_555 1_555
N1 C7 1_555 1_555
C5 C6 1_555 1_555
C8 N1 1_555 1_555
C12 C13 1_555 1_555

#END
