
#######################################################################
#
#                 Cambridge Crystallographic Data Centre
#                                CCDC 
#
#######################################################################
#
# If this CIF has been generated from an entry in the Cambridge 
# Structural Database, then it will include bibliographic, chemical, 
# crystal, experimental, refinement or atomic coordinate data resulting 
# from the CCDC's data processing and validation procedures.
#
#######################################################################

data_IDITEW
_chemical_name_common            N-(2-Chlorophenyl)pregn-17-en-3-amine
_chemical_formula_moiety         'C27 H38 Cl1 N1'
_chemical_name_systematic        (Z)-3\b-(2-Chloroanilino)-17(20)-pregnene
_symmetry_cell_setting           monoclinic
_symmetry_space_group_name_H-M   'P 21'
_symmetry_Int_Tables_number      4
_space_group_name_Hall           'P 2yb'
loop_
_symmetry_equiv_pos_site_id
_symmetry_equiv_pos_as_xyz
1 x,y,z
2 -x,1/2+y,-z
_cell_length_a                   7.2810(10)
_cell_length_b                   17.467(2)
_cell_length_c                   9.1310(12)
_cell_angle_alpha                90
_cell_angle_beta                 106.447(7)
_cell_angle_gamma                90
_cell_volume                     1113.74
_exptl_crystal_colour            colorless
_exptl_crystal_description       prism
_cell_formula_units_Z            2
loop_
_atom_site_label
_atom_site_type_symbol
_atom_site_fract_x
_atom_site_fract_y
_atom_site_fract_z
Cl1 Cl 0.65026(5) 0.47549(2) 0.27405(4)
N1 N 0.72923(18) 0.63876(7) 0.23132(14)
C1 C 0.4738(2) 0.83125(8) 0.15203(16)
H1 H 0.3408 0.8434 0.1515
H2 H 0.4885 0.8457 0.0511
C2 C 0.86537(19) 0.59002(8) 0.20670(15)
C3 C 0.50533(19) 0.74475(8) 0.17404(17)
H3 H 0.4214 0.7179 0.0843
H4 H 0.4669 0.7286 0.2650
C4 C 0.84853(19) 0.51050(8) 0.22294(15)
C5 C 0.7134(2) 0.72010(8) 0.19420(16)
H5 H 0.7421 0.7272 0.0943
C6 C 0.9773(2) 0.45928(8) 0.19481(17)
H6 H 0.9593 0.4060 0.2064
C7 C 0.8522(2) 0.76977(8) 0.31296(16)
H7 H 0.8370 0.7586 0.4152
H8 H 0.9852 0.7567 0.3149
C8 C 1.1333(2) 0.48461(9) 0.14969(15)
H9 H 1.2228 0.4493 0.1302
C9 C 0.81801(19) 0.85484(8) 0.27867(16)
H10 H 0.8293 0.8631 0.1732
C10 C 1.1556(2) 0.56290(9) 0.13369(16)
H11 H 1.2617 0.5813 0.1029
C11 C 0.97282(19) 0.90405(8) 0.38521(17)
H12 H 0.9690 0.8966 0.4918
H13 H 1.1002 0.8874 0.3786
C12 C 1.0254(2) 0.61462(8) 0.16199(16)
H14 H 1.0446 0.6679 0.1510
C13 C 0.94543(18) 0.98860(8) 0.34445(16)
H15 H 0.9652 0.9971 0.2428
H16 H 1.0425 1.0189 0.4200
C14 C 0.74540(18) 1.01621(7) 0.34212(16)
H17 H 0.7312 1.0116 0.4476
C15 C 0.58989(18) 0.96592(8) 0.23272(15)
H18 H 0.6120 0.9703 0.1298
C16 C 0.61220(18) 0.87966(8) 0.27571(15)
C17 C 0.38697(19) 0.99738(7) 0.21507(16)
H19 H 0.2953 0.9688 0.1323
H20 H 0.3527 0.9875 0.3108
C18 C 0.36389(19) 1.08327(8) 0.17908(17)
H21 H 0.3758 1.0925 0.0752
H22 H 0.2344 1.0998 0.1805
C19 C 0.51445(19) 1.13112(7) 0.29440(15)
C20 C 0.71243(18) 1.09903(8) 0.29169(16)
H23 H 0.7130 1.1001 0.1823
C21 C 0.85384(19) 1.16029(8) 0.37215(16)
H24 H 0.9781 1.1549 0.3491
H25 H 0.8754 1.1586 0.4841
C22 C 0.7503(2) 1.23417(8) 0.30321(18)
H26 H 0.7832 1.2766 0.3780
H27 H 0.7870 1.2491 0.2107
C23 C 0.5354(2) 1.21616(8) 0.26260(15)
C24 C 0.4833(2) 1.12587(8) 0.45464(16)
H28 H 0.5895 1.1512 0.5293
H29 H 0.4779 1.0720 0.4829
H30 H 0.3626 1.1511 0.4534
C25 C 0.57245(19) 0.86552(8) 0.43077(15)
H31 H 0.5888 0.8110 0.4565
H32 H 0.4410 0.8810 0.4242
H33 H 0.6623 0.8956 0.5101
C26 C 0.4035(2) 1.27000(8) 0.22004(15)
H34 H 0.4507 1.3198 0.2092
C27 C 0.18870(19) 1.26393(8) 0.18609(17)
H35 H 0.1510 1.2099 0.1759
H36 H 0.1274 1.2909 0.0906
H37 H 0.1483 1.2871 0.2697
H38 H 0.635(3) 0.6182(12) 0.259(2)
loop_
_geom_bond_atom_site_label_1
_geom_bond_atom_site_label_2
_geom_bond_site_symmetry_1
_geom_bond_site_symmetry_2
Cl1 C4 1_555 1_555
N1 C2 1_555 1_555
C1 H1 1_555 1_555
H2 C1 1_555 1_555
C2 C4 1_555 1_555
C3 C1 1_555 1_555
H3 C3 1_555 1_555
H4 C3 1_555 1_555
C4 C6 1_555 1_555
C5 N1 1_555 1_555
H5 C5 1_555 1_555
C6 H6 1_555 1_555
C7 C5 1_555 1_555
H7 C7 1_555 1_555
H8 C7 1_555 1_555
C8 C6 1_555 1_555
H9 C8 1_555 1_555
C9 C7 1_555 1_555
H10 C9 1_555 1_555
C10 C8 1_555 1_555
H11 C10 1_555 1_555
C11 C9 1_555 1_555
H12 C11 1_555 1_555
H13 C11 1_555 1_555
C12 C2 1_555 1_555
H14 C12 1_555 1_555
C13 C11 1_555 1_555
H15 C13 1_555 1_555
H16 C13 1_555 1_555
C14 C13 1_555 1_555
H17 C14 1_555 1_555
C15 C14 1_555 1_555
H18 C15 1_555 1_555
C16 C1 1_555 1_555
C17 C15 1_555 1_555
H19 C17 1_555 1_555
H20 C17 1_555 1_555
C18 C17 1_555 1_555
H21 C18 1_555 1_555
H22 C18 1_555 1_555
C19 C18 1_555 1_555
C20 C14 1_555 1_555
H23 C20 1_555 1_555
C21 C20 1_555 1_555
H24 C21 1_555 1_555
H25 C21 1_555 1_555
C22 C21 1_555 1_555
H26 C22 1_555 1_555
H27 C22 1_555 1_555
C23 C19 1_555 1_555
C24 C19 1_555 1_555
H28 C24 1_555 1_555
H29 C24 1_555 1_555
H30 C24 1_555 1_555
C25 C16 1_555 1_555
H31 C25 1_555 1_555
H32 C25 1_555 1_555
H33 C25 1_555 1_555
C26 C23 1_555 1_555
H34 C26 1_555 1_555
C27 C26 1_555 1_555
H35 C27 1_555 1_555
H36 C27 1_555 1_555
H37 C27 1_555 1_555
H38 N1 1_555 1_555
C3 C5 1_555 1_555
C9 C16 1_555 1_555
C10 C12 1_555 1_555
C15 C16 1_555 1_555
C19 C20 1_555 1_555
C22 C23 1_555 1_555

#END
