
#######################################################################
#
#                 Cambridge Crystallographic Data Centre
#                                CCDC 
#
#######################################################################
#
# If this CIF has been generated from an entry in the Cambridge 
# Structural Database, then it will include bibliographic, chemical, 
# crystal, experimental, refinement or atomic coordinate data resulting 
# from the CCDC's data processing and validation procedures.
#
#######################################################################

data_IDITAR
_chemical_formula_moiety         'C8 H6 N2 O5'
_chemical_name_systematic        '2-Carbamoyl-3-nitrobenzoic acid'
_symmetry_cell_setting           monoclinic
_symmetry_space_group_name_H-M   'P 21/c'
_symmetry_Int_Tables_number      14
_space_group_name_Hall           '-P 2ybc'
loop_
_symmetry_equiv_pos_site_id
_symmetry_equiv_pos_as_xyz
1 x,y,z
2 -x,1/2+y,1/2-z
3 -x,-y,-z
4 x,1/2-y,1/2+z
_cell_length_a                   9.6080(12)
_cell_length_b                   6.8998(9)
_cell_length_c                   15.3291(14)
_cell_angle_alpha                90
_cell_angle_beta                 125.755(5)
_cell_angle_gamma                90
_cell_volume                     824.683
_exptl_crystal_colour            yellow
_exptl_crystal_description       plate
_cell_formula_units_Z            4
_exptl_crystal_recrystallization_method aqueous
loop_
_atom_site_label
_atom_site_type_symbol
_atom_site_fract_x
_atom_site_fract_y
_atom_site_fract_z
O1 O 0.7912(3) -0.4418(3) -0.20664(16)
O2 O 0.9127(3) -0.1740(3) -0.12679(17)
O3 O 0.4840(2) -0.6242(3) -0.24030(14)
O4 O 0.5396(3) -0.8626(3) -0.06282(17)
O5 O 0.6242(3) -0.7928(3) 0.10274(18)
H1 H 0.5766 -0.8959 0.0963
N1 N 0.8385(3) -0.3243(3) -0.13537(17)
N2 N 0.7157(2) -0.8134(2) -0.15392(15)
H2 H 0.6724 -0.8962 -0.2055
H3 H 0.8173 -0.8308 -0.0963
C1 C 0.8077(3) -0.3678(3) -0.05371(19)
C2 C 0.8749(3) -0.2417(4) 0.0314(2)
H4 H 0.9316 -0.1299 0.0344
C3 C 0.8568(4) -0.2838(4) 0.1126(2)
H5 H 0.8993 -0.1988 0.1700
C4 C 0.7751(3) -0.4529(4) 0.1081(2)
H6 H 0.7666 -0.4832 0.1640
C5 C 0.7058(3) -0.5779(4) 0.0209(2)
C6 C 0.7186(3) -0.5351(3) -0.06341(19)
C7 C 0.6269(3) -0.6612(3) -0.16310(19)
C8 C 0.6153(3) -0.7591(4) 0.0158(2)
loop_
_geom_bond_atom_site_label_1
_geom_bond_atom_site_label_2
_geom_bond_site_symmetry_1
_geom_bond_site_symmetry_2
O1 N1 1_555 1_555
O2 N1 1_555 1_555
O3 C7 1_555 1_555
O4 C8 1_555 1_555
O5 H1 1_555 1_555
N1 C1 1_555 1_555
N2 H2 1_555 1_555
H3 N2 1_555 1_555
C1 C2 1_555 1_555
C2 H4 1_555 1_555
C3 C2 1_555 1_555
H5 C3 1_555 1_555
C4 C3 1_555 1_555
H6 C4 1_555 1_555
C5 C4 1_555 1_555
C6 C1 1_555 1_555
C7 N2 1_555 1_555
C8 O5 1_555 1_555
C5 C6 1_555 1_555
C5 C8 1_555 1_555
C6 C7 1_555 1_555

#END
