
#######################################################################
#
#                 Cambridge Crystallographic Data Centre
#                                CCDC 
#
#######################################################################
#
# If this CIF has been generated from an entry in the Cambridge 
# Structural Database, then it will include bibliographic, chemical, 
# crystal, experimental, refinement or atomic coordinate data resulting 
# from the CCDC's data processing and validation procedures.
#
#######################################################################

data_IDIWAV
_chemical_formula_moiety         'C19 H17 B1 F2 N4 O4'
_chemical_name_systematic        
10-(3,5-Dinitrophenyl)-5,5-difluoro-1,3,7,9-tetramethyl-5H-4\l^5^,5\l^5^-dipyrrolo[1,2-c:2',1'-f][1,3,2]diazaborinine
_symmetry_cell_setting           monoclinic
_symmetry_space_group_name_H-M   'C 2/c'
_symmetry_Int_Tables_number      15
_space_group_name_Hall           '-C 2yn'
loop_
_symmetry_equiv_pos_site_id
_symmetry_equiv_pos_as_xyz
1 x,y,z
2 -x,y,1/2-z
3 1/2+x,1/2+y,z
4 1/2-x,1/2+y,1/2-z
5 -x,-y,-z
6 x,-y,1/2+z
7 1/2-x,1/2-y,-z
8 1/2+x,1/2-y,1/2+z
_cell_length_a                   29.016(3)
_cell_length_b                   9.1763(9)
_cell_length_c                   16.8294(16)
_cell_angle_alpha                90
_cell_angle_beta                 121.086(2)
_cell_angle_gamma                90
_cell_volume                     3837.49
_exptl_crystal_colour            purple
_exptl_crystal_description       block
_cell_formula_units_Z            8
loop_
_atom_site_label
_atom_site_type_symbol
_atom_site_fract_x
_atom_site_fract_y
_atom_site_fract_z
B1 B 0.21971(10) 0.3620(3) 0.35983(14)
N1 N 0.02477(8) 0.7770(2) 0.44115(15)
N2 N 0.10066(8) 0.3996(2) 0.68190(12)
N3 N 0.16759(6) 0.29249(18) 0.34430(10)
N4 N 0.24400(6) 0.45079(17) 0.45002(10)
O1 O -0.00805(8) 0.8018(2) 0.46364(14)
O2 O 0.02809(8) 0.8443(2) 0.38261(15)
O3 O 0.07160(8) 0.44618(19) 0.70880(11)
O4 O 0.12896(7) 0.2925(2) 0.71305(11)
C1 C 0.06408(8) 0.5895(2) 0.56281(13)
H1 H 0.0419 0.6201 0.5843
C2 C 0.06252(8) 0.6547(2) 0.48802(13)
C3 C 0.09496(8) 0.6107(2) 0.45427(13)
H2 H 0.0926 0.6562 0.4029
C4 C 0.13103(7) 0.4974(2) 0.49844(11)
C5 C 0.13404(8) 0.4307(2) 0.57523(12)
H3 H 0.1586 0.3562 0.6064
C6 C 0.09981(8) 0.4773(2) 0.60432(12)
C7 C 0.16365(7) 0.4434(2) 0.45850(11)
C8 C 0.13997(8) 0.3386(2) 0.38813(12)
C9 C 0.21486(8) 0.4977(2) 0.49101(12)
C10 C 0.24901(8) 0.5908(2) 0.56652(12)
C11 C 0.29708(8) 0.5971(2) 0.56926(13)
H4 H 0.3273 0.6492 0.6121
C12 C 0.29309(8) 0.5123(2) 0.49699(13)
C13 C 0.23721(9) 0.6657(2) 0.63311(13)
H5 H 0.2356 0.5949 0.6735
H6 H 0.2033 0.7155 0.5992
H7 H 0.2652 0.7349 0.6693
C14 C 0.04881(9) 0.2612(3) 0.37558(16)
H8 H 0.0298 0.3520 0.3555
H9 H 0.0651 0.2521 0.4416
H10 H 0.0241 0.1821 0.3454
C15 C 0.09174(8) 0.2570(2) 0.35092(13)
C16 C 0.09160(9) 0.1637(3) 0.28651(13)
H11 H 0.0650 0.0956 0.2515
C17 C 0.13746(9) 0.1876(2) 0.28228(13)
C18 C 0.15291(10) 0.1167(3) 0.21963(14)
H12 H 0.1544 0.1887 0.1797
H13 H 0.1267 0.0440 0.1827
H14 H 0.1876 0.0716 0.2561
C19 C 0.33455(9) 0.4896(3) 0.47106(15)
H15 H 0.3463 0.3900 0.4824
H16 H 0.3647 0.5527 0.5076
H17 H 0.3193 0.5116 0.4065
F1 F 0.20797(5) 0.45458(14) 0.28592(7)
F2 F 0.25531(5) 0.25610(13) 0.36548(8)
loop_
_geom_bond_atom_site_label_1
_geom_bond_atom_site_label_2
_geom_bond_site_symmetry_1
_geom_bond_site_symmetry_2
B1 N3 1_555 1_555
N1 O1 1_555 1_555
N2 O3 1_555 1_555
N3 C8 1_555 1_555
N4 B1 1_555 1_555
O2 N1 1_555 1_555
O4 N2 1_555 1_555
C1 H1 1_555 1_555
C2 N1 1_555 1_555
C3 C2 1_555 1_555
H2 C3 1_555 1_555
C4 C3 1_555 1_555
C5 C4 1_555 1_555
H3 C5 1_555 1_555
C6 N2 1_555 1_555
C7 C4 1_555 1_555
C8 C7 1_555 1_555
C9 N4 1_555 1_555
C10 C9 1_555 1_555
C11 C10 1_555 1_555
H4 C11 1_555 1_555
C12 N4 1_555 1_555
C13 C10 1_555 1_555
H5 C13 1_555 1_555
H6 C13 1_555 1_555
H7 C13 1_555 1_555
C14 H8 1_555 1_555
H9 C14 1_555 1_555
H10 C14 1_555 1_555
C15 C8 1_555 1_555
C16 C15 1_555 1_555
H11 C16 1_555 1_555
C17 N3 1_555 1_555
C18 C17 1_555 1_555
H12 C18 1_555 1_555
H13 C18 1_555 1_555
H14 C18 1_555 1_555
C19 C12 1_555 1_555
H15 C19 1_555 1_555
H16 C19 1_555 1_555
H17 C19 1_555 1_555
F1 B1 1_555 1_555
F2 B1 1_555 1_555
C1 C2 1_555 1_555
C1 C6 1_555 1_555
C5 C6 1_555 1_555
C7 C9 1_555 1_555
C11 C12 1_555 1_555
C14 C15 1_555 1_555
C16 C17 1_555 1_555

#END
