
#######################################################################
#
#                 Cambridge Crystallographic Data Centre
#                                CCDC 
#
#######################################################################
#
# If this CIF has been generated from an entry in the Cambridge 
# Structural Database, then it will include bibliographic, chemical, 
# crystal, experimental, refinement or atomic coordinate data resulting 
# from the CCDC's data processing and validation procedures.
#
#######################################################################

data_IDIWEZ
_chemical_name_common            
(E)-6-(4-Chlorophenyl)-4-[(2-cyano-3-phenylallyl)sulfanyl]-2,2-difluoro-3-phenyl-1,3,2-oxazaborinin-3-ium-2-uide
_chemical_formula_moiety         'C25 H18 B1 Cl1 F2 N2 O1 S1'
_chemical_name_systematic        
'(2-Cyano-3-phenylprop-2-en-1-yl 3-(4-chlorophenyl)-3-(hydroxy)-N-phenylprop-2-enimidothioatato)(difluoro)boron'
_symmetry_cell_setting           monoclinic
_symmetry_space_group_name_H-M   'P 21/c'
_symmetry_Int_Tables_number      14
_space_group_name_Hall           '-P 2ybc'
loop_
_symmetry_equiv_pos_site_id
_symmetry_equiv_pos_as_xyz
1 x,y,z
2 -x,1/2+y,1/2-z
3 -x,-y,-z
4 x,1/2-y,1/2+z
_cell_length_a                   9.6996(19)
_cell_length_b                   16.290(3)
_cell_length_c                   14.168(3)
_cell_angle_alpha                90
_cell_angle_beta                 98.71(3)
_cell_angle_gamma                90
_cell_volume                     2212.82
_exptl_crystal_colour            colorless
_exptl_crystal_description       Plate
_cell_formula_units_Z            4
loop_
_atom_site_label
_atom_site_type_symbol
_atom_site_fract_x
_atom_site_fract_y
_atom_site_fract_z
Cl1 Cl 1.18430(6) 0.47712(4) 1.29061(4)
S1 S 0.47463(6) 0.63647(4) 0.79190(4)
F1 F 0.61480(16) 0.34159(9) 0.78320(10)
F2 F 0.46844(15) 0.35602(9) 0.89236(12)
O1 O 0.69166(16) 0.40858(9) 0.92380(11)
N1 N 0.7666(3) 0.74393(18) 0.69117(18)
N2 N 0.51593(17) 0.47557(11) 0.80301(12)
C1 C 1.0468(2) 0.47953(14) 1.19668(15)
C2 C 1.0082(2) 0.55340(14) 1.15244(16)
H1 H 1.0558 0.6027 1.1730
C3 C 0.8982(2) 0.55382(13) 1.07731(16)
H2 H 0.8696 0.6041 1.0465
C4 C 0.8293(2) 0.48155(13) 1.04648(15)
C5 C 0.8714(2) 0.40787(13) 1.09205(16)
H3 H 0.8256 0.3582 1.0709
C6 C 0.9795(2) 0.40674(14) 1.16804(16)
H4 H 1.0071 0.3568 1.2000
C7 C 0.7153(2) 0.48088(13) 0.96488(15)
C8 C 0.6431(2) 0.54917(13) 0.93219(15)
H5 H 0.6567 0.5989 0.9674
C9 C 0.5476(2) 0.54684(13) 0.84604(15)
C10 C 0.4192(2) 0.47173(13) 0.71416(15)
C11 C 0.4659(2) 0.44916(14) 0.63062(15)
H6 H 0.5618 0.4376 0.6303
C12 C 0.3708(2) 0.44347(14) 0.54681(16)
H7 H 0.4020 0.4278 0.4890
C13 C 0.2318(2) 0.46038(15) 0.54715(17)
H8 H 0.1674 0.4568 0.4897
C14 C 0.1866(2) 0.48238(16) 0.63088(17)
H9 H 0.0907 0.4944 0.6309
C15 C 0.2795(2) 0.48729(15) 0.71564(17)
H10 H 0.2475 0.5012 0.7737
C16 C 0.5544(2) 0.71958(13) 0.86749(16)
H11 H 0.4994 0.7701 0.8507
H12 H 0.5464 0.7061 0.9346
C17 C 0.7407(2) 0.74202(16) 0.76730(19)
C18 C 0.7058(2) 0.73849(13) 0.86224(16)
C19 C 0.7974(2) 0.75408(13) 0.94089(17)
H13 H 0.7598 0.7497 0.9988
C20 C 0.9453(2) 0.77676(13) 0.95341(18)
C21 C 1.0184(3) 0.77306(15) 1.04606(19)
H14 H 0.9705 0.7581 1.0972
C22 C 1.1595(3) 0.79076(17) 1.0647(2)
H15 H 1.2079 0.7870 1.1281
C23 C 1.2294(3) 0.81371(17) 0.9917(3)
H16 H 1.3263 0.8257 1.0045
C24 C 1.1594(3) 0.81935(16) 0.8998(2)
H17 H 1.2083 0.8351 0.8494
C25 C 1.0182(3) 0.80214(15) 0.8805(2)
H18 H 0.9703 0.8076 0.8172
B1 B 0.5719(3) 0.39255(16) 0.85061(19)
loop_
_geom_bond_atom_site_label_1
_geom_bond_atom_site_label_2
_geom_bond_site_symmetry_1
_geom_bond_site_symmetry_2
Cl1 C1 1_555 1_555
S1 C9 1_555 1_555
F1 B1 1_555 1_555
F2 B1 1_555 1_555
O1 C7 1_555 1_555
N1 C17 1_555 1_555
N2 C9 1_555 1_555
C1 C2 1_555 1_555
C2 H1 1_555 1_555
C3 C2 1_555 1_555
H2 C3 1_555 1_555
C4 C3 1_555 1_555
C5 C4 1_555 1_555
H3 C5 1_555 1_555
C6 C1 1_555 1_555
H4 C6 1_555 1_555
C7 C4 1_555 1_555
C8 C7 1_555 1_555
H5 C8 1_555 1_555
C9 C8 1_555 1_555
C10 N2 1_555 1_555
C11 C10 1_555 1_555
H6 C11 1_555 1_555
C12 C11 1_555 1_555
H7 C12 1_555 1_555
C13 C12 1_555 1_555
H8 C13 1_555 1_555
C14 C13 1_555 1_555
H9 C14 1_555 1_555
C15 C10 1_555 1_555
H10 C15 1_555 1_555
C16 S1 1_555 1_555
H11 C16 1_555 1_555
H12 C16 1_555 1_555
C17 C18 1_555 1_555
C18 C16 1_555 1_555
C19 C18 1_555 1_555
H13 C19 1_555 1_555
C20 C19 1_555 1_555
C21 C20 1_555 1_555
H14 C21 1_555 1_555
C22 C21 1_555 1_555
H15 C22 1_555 1_555
C23 C22 1_555 1_555
H16 C23 1_555 1_555
C24 C23 1_555 1_555
H17 C24 1_555 1_555
C25 C20 1_555 1_555
H18 C25 1_555 1_555
B1 O1 1_555 1_555
N2 B1 1_555 1_555
C5 C6 1_555 1_555
C14 C15 1_555 1_555
C24 C25 1_555 1_555

#END
