
#######################################################################
#
#                 Cambridge Crystallographic Data Centre
#                                CCDC 
#
#######################################################################
#
# If this CIF has been generated from an entry in the Cambridge 
# Structural Database, then it will include bibliographic, chemical, 
# crystal, experimental, refinement or atomic coordinate data resulting 
# from the CCDC's data processing and validation procedures.
#
#######################################################################

data_IDIYUR
_chemical_formula_moiety         'C17 H20 N4 O2'
_chemical_name_systematic        N,N'-Propane-1,3-diylbis(2-aminobenzamide)
_symmetry_cell_setting           triclinic
_symmetry_space_group_name_H-M   'P -1'
_symmetry_Int_Tables_number      2
_space_group_name_Hall           '-P 1'
loop_
_symmetry_equiv_pos_site_id
_symmetry_equiv_pos_as_xyz
1 x,y,z
2 -x,-y,-z
_cell_length_a                   5.6590(7)
_cell_length_b                   9.8279(12)
_cell_length_c                   14.6732(18)
_cell_angle_alpha                95.258(2)
_cell_angle_beta                 95.263(2)
_cell_angle_gamma                98.888(2)
_cell_volume                     798.211
_exptl_crystal_colour            colorless
_exptl_crystal_description       Block
_chemical_melting_point          '341 K'
_cell_formula_units_Z            2
_exptl_crystal_recrystallization_method methanol/water
loop_
_atom_site_label
_atom_site_type_symbol
_atom_site_fract_x
_atom_site_fract_y
_atom_site_fract_z
C1 C 0.4816(3) 0.29498(16) 0.43832(11)
H1 H 0.4176 0.3776 0.4244
H2 H 0.5846 0.3166 0.4961
N1 N 1.1893(4) 0.48736(19) 0.26329(15)
C2 C 0.1199(3) 0.21672(16) 0.52086(10)
H3 H 0.0453 0.2947 0.5041
H4 H -0.0076 0.1388 0.5218
C3 C 0.2779(3) 0.18047(15) 0.44755(10)
H5 H 0.3442 0.0987 0.4619
H6 H 0.1793 0.1577 0.3889
N2 N 0.7649(3) 0.08392(17) 0.74199(12)
O1 O 0.3165(2) 0.03649(10) 0.62896(7)
N3 N 0.6215(2) 0.25310(13) 0.36539(9)
N4 N 0.2451(2) 0.25147(13) 0.61277(8)
C4 C 0.3267(3) 0.15789(14) 0.66164(10)
C5 C 0.6397(3) 0.16352(15) 0.79517(10)
C6 C 0.4305(3) 0.20735(14) 0.75834(10)
C7 C 0.3172(3) 0.29381(15) 0.81381(10)
H7 H 0.1789 0.3235 0.7893
C8 C 0.7777(3) 0.16008(16) 0.19449(11)
H8 H 0.6336 0.1122 0.2092
O2 O 0.7750(3) 0.46872(11) 0.34395(10)
C9 C 0.7537(3) 0.34344(15) 0.32101(11)
C10 C 0.8745(3) 0.28706(15) 0.24415(10)
C11 C 0.7255(3) 0.20792(18) 0.88686(11)
H9 H 0.8642 0.1797 0.9123
C12 C 1.0877(3) 0.36121(17) 0.21943(12)
C13 C 0.4052(3) 0.33631(18) 0.90419(11)
H10 H 0.3274 0.3941 0.9404
C14 C 0.6096(3) 0.2922(2) 0.94020(11)
H11 H 0.6696 0.3199 1.0013
C15 C 0.8889(4) 0.10349(19) 0.12450(12)
H12 H 0.8207 0.0187 0.0920
C16 C 1.1026(4) 0.1739(2) 0.10312(13)
H13 H 1.1816 0.1353 0.0569
C17 C 1.1994(3) 0.2992(2) 0.14894(13)
H14 H 1.3437 0.3452 0.1331
H15 H 1.307(5) 0.526(3) 0.2455(16)
H16 H 1.121(4) 0.530(2) 0.3056(14)
H17 H 0.874(4) 0.051(2) 0.7690(15)
H18 H 0.691(4) 0.048(2) 0.6872(15)
H19 H 0.635(3) 0.163(2) 0.3542(11)
H20 H 0.264(3) 0.3384(18) 0.6371(11)
loop_
_geom_bond_atom_site_label_1
_geom_bond_atom_site_label_2
_geom_bond_site_symmetry_1
_geom_bond_site_symmetry_2
C1 H1 1_555 1_555
H2 C1 1_555 1_555
N1 C12 1_555 1_555
C2 H3 1_555 1_555
H4 C2 1_555 1_555
C3 C1 1_555 1_555
H5 C3 1_555 1_555
H6 C3 1_555 1_555
N2 C5 1_555 1_555
O1 C4 1_555 1_555
N3 C1 1_555 1_555
N4 C2 1_555 1_555
C4 N4 1_555 1_555
C5 C6 1_555 1_555
C6 C4 1_555 1_555
C7 C6 1_555 1_555
H7 C7 1_555 1_555
C8 H8 1_555 1_555
O2 C9 1_555 1_555
C9 N3 1_555 1_555
C10 C8 1_555 1_555
C11 C5 1_555 1_555
H9 C11 1_555 1_555
C12 C10 1_555 1_555
C13 C7 1_555 1_555
H10 C13 1_555 1_555
C14 C11 1_555 1_555
H11 C14 1_555 1_555
C15 C8 1_555 1_555
H12 C15 1_555 1_555
C16 C15 1_555 1_555
H13 C16 1_555 1_555
C17 C12 1_555 1_555
H14 C17 1_555 1_555
H15 N1 1_555 1_555
H16 N1 1_555 1_555
H17 N2 1_555 1_555
H18 N2 1_555 1_555
H19 N3 1_555 1_555
H20 N4 1_555 1_555
C2 C3 1_555 1_555
C9 C10 1_555 1_555
C13 C14 1_555 1_555
C16 C17 1_555 1_555

#END
