
#######################################################################
#
#                 Cambridge Crystallographic Data Centre
#                                CCDC 
#
#######################################################################
#
# If this CIF has been generated from an entry in the Cambridge 
# Structural Database, then it will include bibliographic, chemical, 
# crystal, experimental, refinement or atomic coordinate data resulting 
# from the CCDC's data processing and validation procedures.
#
#######################################################################

data_IDIYUS
_chemical_formula_moiety         'C31 H23 N1 O1'
_chemical_name_systematic        
"[4'-(diphenylamino)[1,1'-biphenyl]-4-yl](phenyl)methanone"
_symmetry_cell_setting           orthorhombic
_symmetry_space_group_name_H-M   'P b c a'
_symmetry_Int_Tables_number      61
_space_group_name_Hall           '-P 2ac 2ab'
loop_
_symmetry_equiv_pos_site_id
_symmetry_equiv_pos_as_xyz
1 x,y,z
2 1/2-x,-y,1/2+z
3 -x,1/2+y,1/2-z
4 1/2+x,1/2-y,-z
5 -x,-y,-z
6 1/2+x,y,1/2-z
7 x,1/2-y,1/2+z
8 1/2-x,1/2+y,z
_cell_length_a                   15.7346(2)
_cell_length_b                   10.37690(10)
_cell_length_c                   27.7774(3)
_cell_angle_alpha                90
_cell_angle_beta                 90
_cell_angle_gamma                90
_cell_volume                     4535.39
_cell_formula_units_Z            8
_exptl_crystal_preparation       Luminescent
loop_
_atom_site_label
_atom_site_type_symbol
_atom_site_fract_x
_atom_site_fract_y
_atom_site_fract_z
O1 O 0.10613(8) 0.27935(9) 0.55399(3)
N1 N 0.25031(7) 0.75972(11) 0.22399(4)
C1 C 0.12435(10) 0.22712(13) 0.51570(5)
C2 C 0.13211(10) 0.08360(13) 0.51316(5)
C3 C 0.17088(11) 0.01858(15) 0.55077(5)
H1 H 0.1944 0.0658 0.5769
C4 C 0.17564(13) -0.11425(17) 0.55059(6)
H2 H 0.2033 -0.1579 0.5763
C5 C 0.14055(12) -0.18350(16) 0.51343(6)
H3 H 0.1433 -0.2749 0.5135
C6 C 0.10129(11) -0.11987(15) 0.47599(6)
H4 H 0.0766 -0.1677 0.4504
C7 C 0.09761(10) 0.01300(14) 0.47545(5)
H5 H 0.0714 0.0563 0.4492
C8 C 0.13994(9) 0.30661(13) 0.47198(4)
C9 C 0.11362(9) 0.43449(13) 0.47114(4)
H6 H 0.0835 0.4690 0.4978
C10 C 0.13085(9) 0.51208(13) 0.43177(4)
H7 H 0.1112 0.5986 0.4314
C11 C 0.17691(8) 0.46453(13) 0.39252(4)
C12 C 0.20389(9) 0.33705(13) 0.39399(4)
H8 H 0.2354 0.3029 0.3678
C13 C 0.18559(9) 0.25903(13) 0.43297(4)
H9 H 0.2044 0.1720 0.4331
C14 C 0.19634(9) 0.54550(12) 0.35005(4)
C15 C 0.13704(9) 0.63100(11) 0.33084(4)
H10 H 0.0836 0.6415 0.3463
C16 C 0.15491(9) 0.70091(13) 0.28957(4)
H11 H 0.1133 0.7581 0.2770
C17 C 0.23286(9) 0.68870(13) 0.26624(4)
C18 C 0.29285(9) 0.60404(13) 0.28552(4)
H12 H 0.3466 0.5943 0.2703
C19 C 0.27444(9) 0.53456(12) 0.32653(4)
H13 H 0.3161 0.4776 0.3391
C20 C 0.18325(9) 0.79268(13) 0.19168(4)
C21 C 0.12242(9) 0.70231(14) 0.17958(5)
H14 H 0.1255 0.6180 0.1928
C22 C 0.05724(10) 0.73346(15) 0.14849(5)
H15 H 0.0150 0.6712 0.1411
C23 C 0.05309(11) 0.85428(16) 0.12815(5)
H16 H 0.0086 0.8751 0.1063
C24 C 0.11365(11) 0.94461(15) 0.13957(5)
H17 H 0.1111 1.0279 0.1254
C25 C 0.17858(10) 0.91540(13) 0.17160(5)
H18 H 0.2196 0.9789 0.1798
C26 C 0.33325(9) 0.80772(12) 0.21495(4)
C27 C 0.36575(9) 0.80636(13) 0.16837(4)
H19 H 0.3337 0.7684 0.1431
C28 C 0.44422(10) 0.85971(13) 0.15863(5)
H20 H 0.4655 0.8594 0.1266
C29 C 0.49187(10) 0.91358(13) 0.19518(5)
H21 H 0.5453 0.9521 0.1883
C30 C 0.46156(10) 0.91126(14) 0.24182(5)
H22 H 0.4952 0.9452 0.2672
C31 C 0.38258(9) 0.85984(13) 0.25177(5)
H23 H 0.3618 0.8600 0.2839
loop_
_geom_bond_atom_site_label_1
_geom_bond_atom_site_label_2
_geom_bond_site_symmetry_1
_geom_bond_site_symmetry_2
O1 C1 1_555 1_555
N1 C17 1_555 1_555
C1 C2 1_555 1_555
C2 C3 1_555 1_555
C3 H1 1_555 1_555
C4 C3 1_555 1_555
H2 C4 1_555 1_555
C5 C4 1_555 1_555
H3 C5 1_555 1_555
C6 C5 1_555 1_555
H4 C6 1_555 1_555
C7 C2 1_555 1_555
H5 C7 1_555 1_555
C8 C1 1_555 1_555
C9 C8 1_555 1_555
H6 C9 1_555 1_555
C10 C9 1_555 1_555
H7 C10 1_555 1_555
C11 C10 1_555 1_555
C12 C11 1_555 1_555
H8 C12 1_555 1_555
C13 C8 1_555 1_555
H9 C13 1_555 1_555
C14 C11 1_555 1_555
C15 C14 1_555 1_555
H10 C15 1_555 1_555
C16 C15 1_555 1_555
H11 C16 1_555 1_555
C17 C16 1_555 1_555
C18 C17 1_555 1_555
H12 C18 1_555 1_555
C19 C14 1_555 1_555
H13 C19 1_555 1_555
C20 N1 1_555 1_555
C21 C20 1_555 1_555
H14 C21 1_555 1_555
C22 C21 1_555 1_555
H15 C22 1_555 1_555
C23 C22 1_555 1_555
H16 C23 1_555 1_555
C24 C23 1_555 1_555
H17 C24 1_555 1_555
C25 C20 1_555 1_555
H18 C25 1_555 1_555
C26 N1 1_555 1_555
C27 C26 1_555 1_555
H19 C27 1_555 1_555
C28 C27 1_555 1_555
H20 C28 1_555 1_555
C29 C28 1_555 1_555
H21 C29 1_555 1_555
C30 C29 1_555 1_555
H22 C30 1_555 1_555
C31 C26 1_555 1_555
H23 C31 1_555 1_555
C6 C7 1_555 1_555
C12 C13 1_555 1_555
C18 C19 1_555 1_555
C24 C25 1_555 1_555
C30 C31 1_555 1_555

#END
