
#######################################################################
#
#                 Cambridge Crystallographic Data Centre
#                                CCDC 
#
#######################################################################
#
# If this CIF has been generated from an entry in the Cambridge 
# Structural Database, then it will include bibliographic, chemical, 
# crystal, experimental, refinement or atomic coordinate data resulting 
# from the CCDC's data processing and validation procedures.
#
#######################################################################

data_IDIZED
_chemical_formula_moiety         'C49 H36 N2 O1'
_chemical_name_systematic        
bis[4'-(diphenylamino)[1,1'-biphenyl]-4-yl]methanone
_symmetry_cell_setting           orthorhombic
_symmetry_space_group_name_H-M   'P b c a'
_symmetry_Int_Tables_number      61
_space_group_name_Hall           '-P 2ac 2ab'
loop_
_symmetry_equiv_pos_site_id
_symmetry_equiv_pos_as_xyz
1 x,y,z
2 1/2-x,-y,1/2+z
3 1/2+x,1/2-y,-z
4 -x,1/2+y,1/2-z
5 -x,-y,-z
6 1/2+x,y,1/2-z
7 1/2-x,1/2+y,z
8 x,1/2-y,1/2+z
_cell_length_a                   10.5971(2)
_cell_length_b                   16.3903(3)
_cell_length_c                   40.6540(7)
_cell_angle_alpha                90
_cell_angle_beta                 90
_cell_angle_gamma                90
_cell_volume                     7061.18
_cell_formula_units_Z            8
_exptl_crystal_preparation       Luminescent
loop_
_atom_site_label
_atom_site_type_symbol
_atom_site_fract_x
_atom_site_fract_y
_atom_site_fract_z
O1 O 0.64311(10) 0.51312(6) 0.50581(3)
N1 N 0.48730(12) 1.10579(8) 0.40796(3)
C1 C 0.53393(13) 0.42827(9) 0.67215(3)
H1 H 0.5728 0.3889 0.6583
C2 C 0.50126(13) 0.50448(9) 0.65929(3)
C3 C 0.52348(13) 0.52337(9) 0.62413(3)
C4 C 0.59312(13) 0.61602(9) 0.58133(3)
H2 H 0.6249 0.6680 0.5751
C5 C 0.57071(14) 0.59903(9) 0.61439(3)
H3 H 0.5878 0.6395 0.6305
N2 N 0.42396(14) 0.44357(8) 0.75849(3)
C6 C 0.51063(14) 0.40918(9) 0.70472(3)
H4 H 0.5350 0.3574 0.7130
C7 C 0.49929(14) 0.46509(9) 0.59990(4)
H5 H 0.4662 0.4134 0.6060
C8 C 0.66552(13) 0.67308(9) 0.48036(3)
H6 H 0.7247 0.6346 0.4721
C9 C 0.65452(13) 0.74919(10) 0.46547(3)
H7 H 0.7080 0.7626 0.4475
C10 C 0.52277(14) 0.48153(9) 0.56720(3)
H8 H 0.5071 0.4407 0.5511
C11 C 0.50233(13) 0.70946(9) 0.51836(3)
H9 H 0.4497 0.6963 0.5365
C12 C 0.56927(12) 0.55746(8) 0.55752(3)
C13 C 0.73109(15) 1.11688(10) 0.34281(4)
H10 H 0.7690 1.0825 0.3268
C14 C 0.27382(16) 0.33505(10) 0.74597(4)
H11 H 0.2403 0.3677 0.7287
C15 C 0.40553(14) 0.98281(9) 0.43445(4)
H12 H 0.3218 0.9984 0.4290
C16 C 0.38821(17) 0.55670(11) 0.83670(4)
H13 H 0.3335 0.5577 0.8552
C17 C 0.42649(14) 0.91158(9) 0.45162(4)
H14 H 0.3561 0.8798 0.4584
C18 C 0.45209(14) 0.46495(9) 0.72538(3)
C19 C 0.59018(12) 0.65292(9) 0.50731(3)
C20 C 0.44466(15) 0.56055(9) 0.68045(4)
H15 H 0.4232 0.6132 0.6724
C21 C 0.32404(14) 1.18027(9) 0.37880(4)
H16 H 0.3701 1.1731 0.3590
C22 C 0.29759(15) 1.15597(9) 0.43670(4)
H17 H 0.3268 1.1333 0.4568
C23 C 0.63871(14) 1.08627(9) 0.36315(4)
H18 H 0.6125 1.0311 0.3611
C24 C 0.49046(14) 0.78478(9) 0.50322(3)
H19 H 0.4297 0.8226 0.5112
C25 C 0.71439(16) 1.24739(10) 0.36874(4)
H20 H 0.7397 1.3028 0.3705
C26 C 0.62906(14) 1.00651(10) 0.43329(4)
H21 H 0.6992 1.0395 0.4274
C27 C 0.54844(17) 0.55207(11) 0.78333(4)
H22 H 0.6047 0.5502 0.7652
C28 C 0.21179(15) 1.22421(9) 0.37854(4)
H23 H 0.1834 1.2485 0.3587
C29 C 0.50651(14) 1.03224(9) 0.42508(4)
C30 C 0.36500(15) 0.50250(10) 0.81136(4)
H24 H 0.2939 0.4673 0.8124
C31 C 0.56658(13) 0.80606(9) 0.47640(3)
C32 C 0.54788(14) 0.88470(9) 0.45942(4)
C33 C 0.58363(13) 1.13647(9) 0.38681(3)
C34 C 0.62206(15) 1.21691(10) 0.38955(4)
H25 H 0.5851 1.2513 0.4057
C35 C 0.41904(16) 0.54117(9) 0.71289(4)
H26 H 0.3788 0.5800 0.7267
C36 C 0.60326(13) 0.57003(9) 0.52205(3)
C37 C 0.37253(15) 0.36505(9) 0.76497(3)
C38 C 0.14149(15) 1.23285(10) 0.40677(5)
H27 H 0.0643 1.2623 0.4065
C39 C 0.36910(13) 1.14687(9) 0.40786(4)
C40 C 0.18528(16) 1.19780(10) 0.43573(4)
H28 H 0.1366 1.2029 0.4552
C41 C 0.44573(15) 0.49944(9) 0.78439(3)
C42 C 0.42083(17) 0.31663(11) 0.79014(4)
H29 H 0.4893 0.3354 0.8032
C43 C 0.76957(15) 1.19781(10) 0.34546(4)
H30 H 0.8333 1.2187 0.3313
C44 C 0.22370(18) 0.25867(11) 0.75173(4)
H31 H 0.1571 0.2389 0.7383
C45 C 0.64888(14) 0.93393(10) 0.44973(4)
H32 H 0.7327 0.9172 0.4545
C46 C 0.48989(17) 0.60945(11) 0.83548(4)
H33 H 0.5051 0.6468 0.8529
C47 C 0.56921(18) 0.60693(11) 0.80844(5)
H34 H 0.6387 0.6434 0.8072
C48 C 0.2699(2) 0.21071(10) 0.77701(4)
H35 H 0.2349 0.1584 0.7812
C49 C 0.3676(2) 0.24027(11) 0.79595(4)
H36 H 0.3995 0.2077 0.8134
loop_
_geom_bond_atom_site_label_1
_geom_bond_atom_site_label_2
_geom_bond_site_symmetry_1
_geom_bond_site_symmetry_2
O1 C36 1_555 1_555
N1 C29 1_555 1_555
C1 H1 1_555 1_555
C2 C1 1_555 1_555
C3 C2 1_555 1_555
C4 H2 1_555 1_555
C5 C3 1_555 1_555
H3 C5 1_555 1_555
N2 C18 1_555 1_555
C6 C1 1_555 1_555
H4 C6 1_555 1_555
C7 C3 1_555 1_555
H5 C7 1_555 1_555
C8 H6 1_555 1_555
C9 C8 1_555 1_555
H7 C9 1_555 1_555
C10 C7 1_555 1_555
H8 C10 1_555 1_555
C11 H9 1_555 1_555
C12 C4 1_555 1_555
C13 H10 1_555 1_555
C14 H11 1_555 1_555
C15 H12 1_555 1_555
C16 H13 1_555 1_555
C17 C15 1_555 1_555
H14 C17 1_555 1_555
C18 C6 1_555 1_555
C19 C8 1_555 1_555
C20 C2 1_555 1_555
H15 C20 1_555 1_555
C21 H16 1_555 1_555
C22 H17 1_555 1_555
C23 C13 1_555 1_555
H18 C23 1_555 1_555
C24 C11 1_555 1_555
H19 C24 1_555 1_555
C25 H20 1_555 1_555
C26 H21 1_555 1_555
C27 H22 1_555 1_555
C28 C21 1_555 1_555
H23 C28 1_555 1_555
C29 C15 1_555 1_555
C30 C16 1_555 1_555
H24 C30 1_555 1_555
C31 C9 1_555 1_555
C32 C17 1_555 1_555
C33 N1 1_555 1_555
C34 C25 1_555 1_555
H25 C34 1_555 1_555
C35 C18 1_555 1_555
H26 C35 1_555 1_555
C36 C12 1_555 1_555
C37 N2 1_555 1_555
C38 C28 1_555 1_555
H27 C38 1_555 1_555
C39 N1 1_555 1_555
C40 C22 1_555 1_555
H28 C40 1_555 1_555
C41 N2 1_555 1_555
C42 C37 1_555 1_555
H29 C42 1_555 1_555
C43 C13 1_555 1_555
H30 C43 1_555 1_555
C44 C14 1_555 1_555
H31 C44 1_555 1_555
C45 C26 1_555 1_555
H32 C45 1_555 1_555
C46 C16 1_555 1_555
H33 C46 1_555 1_555
C47 C27 1_555 1_555
H34 C47 1_555 1_555
C48 C44 1_555 1_555
H35 C48 1_555 1_555
C49 C42 1_555 1_555
H36 C49 1_555 1_555
C4 C5 1_555 1_555
C10 C12 1_555 1_555
C11 C19 1_555 1_555
C14 C37 1_555 1_555
C19 C36 1_555 1_555
C20 C35 1_555 1_555
C21 C39 1_555 1_555
C22 C39 1_555 1_555
C23 C33 1_555 1_555
C24 C31 1_555 1_555
C25 C43 1_555 1_555
C26 C29 1_555 1_555
C27 C41 1_555 1_555
C30 C41 1_555 1_555
C31 C32 1_555 1_555
C32 C45 1_555 1_555
C33 C34 1_555 1_555
C38 C40 1_555 1_555
C46 C47 1_555 1_555
C48 C49 1_555 1_555

#END
