
#######################################################################
#
#                 Cambridge Crystallographic Data Centre
#                                CCDC 
#
#######################################################################
#
# If this CIF has been generated from an entry in the Cambridge 
# Structural Database, then it will include bibliographic, chemical, 
# crystal, experimental, refinement or atomic coordinate data resulting 
# from the CCDC's data processing and validation procedures.
#
#######################################################################

data_IDIZAZ
_chemical_formula_moiety         'C37 H28 N2 O1'
_chemical_name_systematic        bis[4-(diphenylamino)phenyl]methanone
_symmetry_cell_setting           orthorhombic
_symmetry_space_group_name_H-M   'P b c a'
_symmetry_Int_Tables_number      61
_space_group_name_Hall           '-P 2ac 2ab'
loop_
_symmetry_equiv_pos_site_id
_symmetry_equiv_pos_as_xyz
1 x,y,z
2 1/2-x,-y,1/2+z
3 -x,1/2+y,1/2-z
4 1/2+x,1/2-y,-z
5 -x,-y,-z
6 1/2+x,y,1/2-z
7 x,1/2-y,1/2+z
8 1/2-x,1/2+y,z
_cell_length_a                   7.3021(5)
_cell_length_b                   26.6302(19)
_cell_length_c                   28.2830(18)
_cell_angle_alpha                90
_cell_angle_beta                 90
_cell_angle_gamma                90
_cell_volume                     5499.81
_cell_formula_units_Z            8
_exptl_crystal_preparation       Luminescent
loop_
_atom_site_label
_atom_site_type_symbol
_atom_site_fract_x
_atom_site_fract_y
_atom_site_fract_z
N1 N 0.0500(3) 0.35592(9) -0.11768(9)
N2 N 1.0457(4) 0.36920(9) 0.13084(8)
O1 O 0.7048(4) 0.49152(9) -0.04244(9)
C1 C -0.0449(4) 0.31493(10) -0.09630(10)
C2 C 0.0499(5) 0.27233(13) -0.08345(14)
H1 H 0.1747 0.2699 -0.0896
C3 C -0.0407(6) 0.23322(15) -0.06151(17)
H2 H 0.0245 0.2047 -0.0527
C4 C -0.2239(6) 0.23567(15) -0.05248(13)
H3 H -0.2829 0.2093 -0.0372
C5 C -0.3197(5) 0.27706(14) -0.06609(12)
H4 H -0.4451 0.2788 -0.0606
C6 C -0.2316(5) 0.31646(12) -0.08804(11)
H5 H -0.2986 0.3444 -0.0974
C7 C -0.0389(4) 0.38283(11) -0.15476(9)
C8 C -0.1159(5) 0.35685(12) -0.19216(10)
H6 H -0.1062 0.3221 -0.1936
C9 C -0.2070(5) 0.38254(15) -0.22735(12)
H7 H -0.2608 0.3647 -0.2520
C10 C -0.2196(5) 0.43398(15) -0.22660(12)
H8 H -0.2803 0.4510 -0.2507
C11 C -0.1417(5) 0.45985(13) -0.18989(12)
H9 H -0.1489 0.4947 -0.1891
C12 C -0.0523(4) 0.43453(11) -0.15390(11)
H10 H -0.0010 0.4525 -0.1290
C13 C 0.2011(4) 0.37826(11) -0.09422(10)
C14 C 0.2173(4) 0.37628(12) -0.04543(10)
H11 H 0.1281 0.3601 -0.0275
C15 C 0.3663(4) 0.39834(11) -0.02329(9)
H12 H 0.3784 0.3956 0.0093
C16 C 0.4977(4) 0.42443(10) -0.04884(9)
C17 C 0.4777(4) 0.42699(11) -0.09748(10)
H13 H 0.5627 0.4449 -0.1152
C18 C 0.3335(4) 0.40342(11) -0.12009(10)
H14 H 0.3254 0.4045 -0.1529
C19 C 0.6534(4) 0.45138(11) -0.02604(10)
C20 C 0.7503(4) 0.42943(11) 0.01561(10)
C21 C 0.7523(4) 0.37822(11) 0.02482(9)
H15 H 0.6851 0.3567 0.0056
C22 C 0.8517(4) 0.35856(11) 0.06187(10)
H16 H 0.8532 0.3240 0.0668
C23 C 0.9498(4) 0.38993(10) 0.09193(9)
C24 C 0.9486(4) 0.44146(11) 0.08283(10)
H17 H 1.0129 0.4631 0.1026
C25 C 0.8528(4) 0.46048(11) 0.04486(10)
H18 H 0.8570 0.4948 0.0387
C26 C 0.9621(4) 0.32828(11) 0.15580(9)
C27 C 0.7816(5) 0.33133(13) 0.17004(11)
H19 H 0.7139 0.3600 0.1633
C28 C 0.7012(6) 0.29209(15) 0.19412(13)
H20 H 0.5799 0.2946 0.2039
C29 C 0.7987(6) 0.24940(15) 0.20372(14)
H21 H 0.7437 0.2228 0.2197
C30 C 0.9778(7) 0.24602(13) 0.18973(14)
H22 H 1.0439 0.2170 0.1962
C31 C 1.0617(5) 0.28526(12) 0.16600(11)
H23 H 1.1839 0.2828 0.1570
C32 C 1.2024(4) 0.39299(11) 0.15018(9)
C33 C 1.2329(4) 0.39280(12) 0.19863(10)
H24 H 1.1537 0.3753 0.2184
C34 C 1.3793(5) 0.41830(14) 0.21758(12)
H25 H 1.3972 0.4183 0.2501
C35 C 1.4994(5) 0.44371(14) 0.18883(14)
H26 H 1.5970 0.4614 0.2018
C36 C 1.4740(5) 0.44282(13) 0.14074(14)
H27 H 1.5561 0.4595 0.1211
C37 C 1.3276(4) 0.41735(12) 0.12135(11)
H28 H 1.3128 0.4165 0.0887
loop_
_geom_bond_atom_site_label_1
_geom_bond_atom_site_label_2
_geom_bond_site_symmetry_1
_geom_bond_site_symmetry_2
N1 C1 1_555 1_555
N2 C23 1_555 1_555
O1 C19 1_555 1_555
C1 C2 1_555 1_555
C2 H1 1_555 1_555
C3 C2 1_555 1_555
H2 C3 1_555 1_555
C4 C3 1_555 1_555
H3 C4 1_555 1_555
C5 C4 1_555 1_555
H4 C5 1_555 1_555
C6 C1 1_555 1_555
H5 C6 1_555 1_555
C7 N1 1_555 1_555
C8 C7 1_555 1_555
H6 C8 1_555 1_555
C9 C8 1_555 1_555
H7 C9 1_555 1_555
C10 C9 1_555 1_555
H8 C10 1_555 1_555
C11 C10 1_555 1_555
H9 C11 1_555 1_555
C12 C7 1_555 1_555
H10 C12 1_555 1_555
C13 N1 1_555 1_555
C14 C13 1_555 1_555
H11 C14 1_555 1_555
C15 C14 1_555 1_555
H12 C15 1_555 1_555
C16 C15 1_555 1_555
C17 C16 1_555 1_555
H13 C17 1_555 1_555
C18 C13 1_555 1_555
H14 C18 1_555 1_555
C19 C16 1_555 1_555
C20 C19 1_555 1_555
C21 C20 1_555 1_555
H15 C21 1_555 1_555
C22 C21 1_555 1_555
H16 C22 1_555 1_555
C23 C22 1_555 1_555
C24 C23 1_555 1_555
H17 C24 1_555 1_555
C25 C20 1_555 1_555
H18 C25 1_555 1_555
C26 N2 1_555 1_555
C27 C26 1_555 1_555
H19 C27 1_555 1_555
C28 C27 1_555 1_555
H20 C28 1_555 1_555
C29 C28 1_555 1_555
H21 C29 1_555 1_555
C30 C29 1_555 1_555
H22 C30 1_555 1_555
C31 C26 1_555 1_555
H23 C31 1_555 1_555
C32 N2 1_555 1_555
C33 C32 1_555 1_555
H24 C33 1_555 1_555
C34 C33 1_555 1_555
H25 C34 1_555 1_555
C35 C34 1_555 1_555
H26 C35 1_555 1_555
C36 C35 1_555 1_555
H27 C36 1_555 1_555
C37 C32 1_555 1_555
H28 C37 1_555 1_555
C5 C6 1_555 1_555
C11 C12 1_555 1_555
C17 C18 1_555 1_555
C24 C25 1_555 1_555
C30 C31 1_555 1_555
C36 C37 1_555 1_555

#END
