
#######################################################################
#
#                 Cambridge Crystallographic Data Centre
#                                CCDC 
#
#######################################################################
#
# If this CIF has been generated from an entry in the Cambridge 
# Structural Database, then it will include bibliographic, chemical, 
# crystal, experimental, refinement or atomic coordinate data resulting 
# from the CCDC's data processing and validation procedures.
#
#######################################################################

data_IDIZIF
_chemical_formula_moiety         'C16 H22 Cl1 N3 O1,H2 O1'
_chemical_name_systematic        
'1-(4-Chlorophenyl)-4,4-dimethyl-3-(4H-1,2,4-triazol-4-ylmethyl)pentan-3-ol monohydrate'
_symmetry_cell_setting           triclinic
_symmetry_space_group_name_H-M   'P -1'
_symmetry_Int_Tables_number      2
_space_group_name_Hall           '-P 1'
loop_
_symmetry_equiv_pos_site_id
_symmetry_equiv_pos_as_xyz
1 x,y,z
2 -x,-y,-z
_cell_length_a                   7.6326(5)
_cell_length_b                   8.6811(6)
_cell_length_c                   13.0126(9)
_cell_angle_alpha                84.2230(10)
_cell_angle_beta                 86.2840(10)
_cell_angle_gamma                80.4830(10)
_cell_volume                     845.001
_exptl_crystal_colour            colorless
_exptl_crystal_description       block
_chemical_melting_point          '456 K'
_cell_formula_units_Z            2
_exptl_crystal_recrystallization_method 'ethanol/ethyl acetate'
loop_
_atom_site_label
_atom_site_type_symbol
_atom_site_fract_x
_atom_site_fract_y
_atom_site_fract_z
Cl1 Cl 0.36582(12) 1.05834(10) 0.25154(6)
C1 C 0.3086(3) 0.6928(3) 0.6665(2)
H1 H 0.3107 0.7581 0.7225
H2 H 0.4064 0.6062 0.6736
C2 C 0.1322(3) 0.6293(3) 0.67306(17)
H3 H 0.1207 0.5875 0.6079
H4 H 0.0369 0.7174 0.6791
C3 C 0.1010(3) 0.5026(2) 0.76017(16)
C4 C -0.0393(3) 0.4033(3) 0.72949(17)
C5 C 0.0306(4) 0.3150(4) 0.6362(2)
H5 H 0.1447 0.2537 0.6500
H6 H 0.0421 0.3885 0.5769
H7 H -0.0508 0.2469 0.6229
C6 C -0.2142(4) 0.5072(4) 0.7020(3)
H8 H -0.1936 0.5808 0.6442
H9 H -0.2622 0.5629 0.7603
H10 H -0.2971 0.4432 0.6844
C7 C -0.0782(5) 0.2804(4) 0.8166(2)
H11 H -0.1592 0.2186 0.7940
H12 H -0.1305 0.3317 0.8758
H13 H 0.0306 0.2135 0.8348
C8 C 0.0375(3) 0.5731(3) 0.86161(18)
H14 H -0.0805 0.6332 0.8536
H15 H 0.0280 0.4882 0.9152
C9 C 0.1140(4) 0.8305(3) 0.90441(19)
H16 H 0.0054 0.8917 0.8887
C10 C 0.3212(3) 0.6368(3) 0.92623(19)
H17 H 0.3855 0.5358 0.9292
C11 C 0.3308(3) 0.7878(3) 0.56433(18)
C12 C 0.2345(3) 0.9341(3) 0.5445(2)
H18 H 0.1587 0.9775 0.5966
C13 C 0.2465(4) 1.0193(3) 0.4496(2)
H19 H 0.1815 1.1194 0.4383
C14 C 0.3548(3) 0.9546(3) 0.37279(18)
C15 C 0.4555(3) 0.8092(3) 0.3894(2)
H20 H 0.5306 0.7662 0.3368
C16 C 0.4433(3) 0.7279(3) 0.4853(2)
H21 H 0.5127 0.6298 0.4973
N1 N 0.3823(3) 0.7574(3) 0.95070(17)
N2 N 0.2474(3) 0.8840(3) 0.93731(18)
N3 N 0.1533(2) 0.6749(2) 0.89595(14)
O1 O 0.26828(19) 0.40458(19) 0.77488(12)
H24 H 0.2609 0.3439 0.8269
H22 H 0.386(5) 0.216(4) 0.977(3)
H23 H 0.294(5) 0.099(5) 0.958(3)
O2 O 0.2879(3) 0.2100(3) 0.96312(16)
loop_
_geom_bond_atom_site_label_1
_geom_bond_atom_site_label_2
_geom_bond_site_symmetry_1
_geom_bond_site_symmetry_2
Cl1 C14 1_555 1_555
C1 H1 1_555 1_555
H2 C1 1_555 1_555
C2 C1 1_555 1_555
H3 C2 1_555 1_555
H4 C2 1_555 1_555
C3 C2 1_555 1_555
C4 C3 1_555 1_555
C5 C4 1_555 1_555
H5 C5 1_555 1_555
H6 C5 1_555 1_555
H7 C5 1_555 1_555
C6 C4 1_555 1_555
H8 C6 1_555 1_555
H9 C6 1_555 1_555
H10 C6 1_555 1_555
C7 C4 1_555 1_555
H11 C7 1_555 1_555
H12 C7 1_555 1_555
H13 C7 1_555 1_555
C8 C3 1_555 1_555
H14 C8 1_555 1_555
H15 C8 1_555 1_555
C9 H16 1_555 1_555
C10 H17 1_555 1_555
C11 C1 1_555 1_555
C12 C11 1_555 1_555
H18 C12 1_555 1_555
C13 C12 1_555 1_555
H19 C13 1_555 1_555
C14 C13 1_555 1_555
C15 C14 1_555 1_555
H20 C15 1_555 1_555
C16 C11 1_555 1_555
H21 C16 1_555 1_555
H22 O2 1_555 1_555
H23 O2 1_555 1_555
N1 C10 1_555 1_555
N2 C9 1_555 1_555
N3 C8 1_555 1_555
O1 C3 1_555 1_555
H24 O1 1_555 1_555
C9 N3 1_555 1_555
C10 N3 1_555 1_555
C15 C16 1_555 1_555
N1 N2 1_555 1_555

#END
