
#######################################################################
#
#                 Cambridge Crystallographic Data Centre
#                                CCDC 
#
#######################################################################
#
# If this CIF has been generated from an entry in the Cambridge 
# Structural Database, then it will include bibliographic, chemical, 
# crystal, experimental, refinement or atomic coordinate data resulting 
# from the CCDC's data processing and validation procedures.
#
#######################################################################

data_IDIZOL
_chemical_formula_moiety         'C20 H20 Cl3 N1 O4'
_chemical_name_systematic        
'Diethyl 2-((4-chlorophenylamino)(2,6-dichlorophenyl)methyl)malonate'
_symmetry_cell_setting           triclinic
_symmetry_space_group_name_H-M   'P -1'
_symmetry_Int_Tables_number      2
_space_group_name_Hall           '-P 1'
loop_
_symmetry_equiv_pos_site_id
_symmetry_equiv_pos_as_xyz
1 x,y,z
2 -x,-y,-z
_cell_length_a                   8.4561(9)
_cell_length_b                   11.6301(12)
_cell_length_c                   11.9854(12)
_cell_angle_alpha                65.401(2)
_cell_angle_beta                 84.735(2)
_cell_angle_gamma                86.205(2)
_cell_volume                     1066.7
_exptl_crystal_colour            colorless
_exptl_crystal_description       plate
_cell_formula_units_Z            2
_exptl_crystal_recrystallization_method hexane/dichloromethane
loop_
_atom_site_label
_atom_site_type_symbol
_atom_site_fract_x
_atom_site_fract_y
_atom_site_fract_z
Cl1 Cl -0.09944(10) 0.21103(8) 0.73580(6)
Cl2 Cl 0.36398(7) -0.01447(5) 0.30798(5)
Cl3 Cl 0.38975(7) 0.49828(5) 0.13740(6)
O1 O -0.03001(17) 0.40342(13) -0.06239(14)
O2 O -0.01139(14) 0.19603(12) 0.04964(12)
O3 O 0.4215(2) 0.17037(18) 0.01434(15)
O4 O 0.31162(16) 0.30812(14) -0.15262(12)
N1 N 0.10043(18) 0.32406(16) 0.21838(15)
C1 C 0.2175(2) 0.25324(17) 0.17394(16)
C2 C 0.2127(2) 0.31313(17) 0.03359(16)
C3 C 0.0436(2) 0.31215(17) 0.00029(16)
C4 C 0.3277(2) 0.25340(18) -0.03292(18)
C5 C 0.4201(3) 0.2643(2) -0.2290(2)
H1 H 0.5291 0.2729 -0.2153
H2 H 0.4035 0.1757 -0.2080
C6 C 0.3907(5) 0.3392(4) -0.3565(3)
H3 H 0.2804 0.3360 -0.3679
H4 H 0.4545 0.3060 -0.4075
H5 H 0.4176 0.4253 -0.3789
C7 C -0.1784(2) 0.1852(2) 0.03393(19)
H6 H -0.2003 0.2310 -0.0519
H7 H -0.2463 0.2208 0.0821
C8 C -0.2094(3) 0.0497(2) 0.0757(3)
H8 H -0.1420 0.0155 0.0272
H9 H -0.3186 0.0400 0.0664
H10 H -0.1877 0.0054 0.1607
C9 C 0.0606(2) 0.29514(17) 0.34081(16)
C10 C 0.0872(2) 0.17502(18) 0.43422(17)
H11 H 0.1391 0.1119 0.4149
C11 C 0.0373(2) 0.1496(2) 0.55449(19)
H12 H 0.0551 0.0694 0.6160
C12 C -0.0386(3) 0.2421(2) 0.58361(19)
C13 C -0.0662(3) 0.3604(2) 0.4940(2)
H13 H -0.1187 0.4225 0.5145
C14 C -0.0162(2) 0.38733(19) 0.37332(19)
H14 H -0.0340 0.4681 0.3129
C15 C 0.3806(2) 0.24182(16) 0.22417(15)
C16 C 0.4509(2) 0.12340(18) 0.29078(17)
C17 C 0.5906(2) 0.1094(2) 0.3476(2)
H15 H 0.6328 0.0290 0.3926
C18 C 0.6660(3) 0.2131(3) 0.3376(2)
H16 H 0.7595 0.2036 0.3762
C19 C 0.6041(3) 0.3324(2) 0.2704(2)
H17 H 0.6565 0.4039 0.2616
C20 C 0.4633(2) 0.34431(19) 0.21656(18)
H18 H 0.179(2) 0.1706(18) 0.2038(16)
H19 H 0.2372(19) 0.3953(17) 0.0028(15)
H20 H 0.087(2) 0.397(2) 0.174(2)
loop_
_geom_bond_atom_site_label_1
_geom_bond_atom_site_label_2
_geom_bond_site_symmetry_1
_geom_bond_site_symmetry_2
Cl1 C12 1_555 1_555
Cl2 C16 1_555 1_555
Cl3 C20 1_555 1_555
O1 C3 1_555 1_555
O2 C3 1_555 1_555
O3 C4 1_555 1_555
O4 C4 1_555 1_555
N1 C1 1_555 1_555
C1 C2 1_555 1_555
C2 C3 1_555 1_555
C4 C2 1_555 1_555
C5 O4 1_555 1_555
H1 C5 1_555 1_555
H2 C5 1_555 1_555
C6 C5 1_555 1_555
H3 C6 1_555 1_555
H4 C6 1_555 1_555
H5 C6 1_555 1_555
C7 O2 1_555 1_555
H6 C7 1_555 1_555
H7 C7 1_555 1_555
C8 C7 1_555 1_555
H8 C8 1_555 1_555
H9 C8 1_555 1_555
H10 C8 1_555 1_555
C9 N1 1_555 1_555
C10 C9 1_555 1_555
H11 C10 1_555 1_555
C11 C10 1_555 1_555
H12 C11 1_555 1_555
C12 C11 1_555 1_555
C13 C12 1_555 1_555
H13 C13 1_555 1_555
C14 C9 1_555 1_555
H14 C14 1_555 1_555
C15 C1 1_555 1_555
C16 C15 1_555 1_555
C17 C16 1_555 1_555
H15 C17 1_555 1_555
C18 C17 1_555 1_555
H16 C18 1_555 1_555
C19 C18 1_555 1_555
H17 C19 1_555 1_555
C20 C15 1_555 1_555
H18 C1 1_555 1_555
H19 C2 1_555 1_555
H20 N1 1_555 1_555
C13 C14 1_555 1_555
C19 C20 1_555 1_555

#END
