
#######################################################################
#
#                 Cambridge Crystallographic Data Centre
#                                CCDC 
#
#######################################################################
#
# If this CIF has been generated from an entry in the Cambridge 
# Structural Database, then it will include bibliographic, chemical, 
# crystal, experimental, refinement or atomic coordinate data resulting 
# from the CCDC's data processing and validation procedures.
#
#######################################################################

data_IDOBOU
_chemical_formula_moiety         'C22 H16 N2 O6'
_chemical_name_systematic        
2-Methoxy-1-(2-methoxy-4-nitronaphthalen-1-yl)-6-nitronaphthalene
_symmetry_cell_setting           orthorhombic
_symmetry_space_group_name_H-M   'P 21 21 21'
_symmetry_Int_Tables_number      19
_space_group_name_Hall           'P 2ac 2ab'
loop_
_symmetry_equiv_pos_site_id
_symmetry_equiv_pos_as_xyz
1 x,y,z
2 1/2-x,-y,1/2+z
3 1/2+x,1/2-y,-z
4 -x,1/2+y,1/2-z
_cell_length_a                   7.095(16)
_cell_length_b                   15.14(4)
_cell_length_c                   17.86(5)
_cell_angle_alpha                90
_cell_angle_beta                 90
_cell_angle_gamma                90
_cell_volume                     1918.49
_exptl_crystal_colour            brown
_exptl_crystal_description       bar
_cell_formula_units_Z            4
loop_
_atom_site_label
_atom_site_type_symbol
_atom_site_fract_x
_atom_site_fract_y
_atom_site_fract_z
O1 O 0.1345(6) 0.40153(18) 0.28224(16)
O2 O 0.1746(4) 0.46589(15) 0.38886(16)
O3 O 0.2362(3) -0.03073(11) 0.59542(10)
O4 O 0.5329(3) 0.02923(12) 0.40128(11)
N1 N 0.1607(4) 0.39888(18) 0.35029(19)
N2 N 0.3170(5) -0.25427(17) 0.30186(17)
C1 C 0.1670(4) 0.31102(18) 0.38691(17)
C2 C 0.1735(4) 0.23483(18) 0.34021(16)
H1 H 0.1702 0.2405 0.2884
C3 C 0.1849(4) 0.15274(19) 0.37294(15)
H2 H 0.1889 0.1028 0.3426
C4 C 0.1908(4) 0.14237(16) 0.45239(15)
C5 C 0.2108(4) 0.05732(16) 0.48721(14)
C6 C 0.2104(4) 0.05224(16) 0.56536(14)
C7 C 0.1857(4) 0.12987(18) 0.61018(16)
H3 H 0.1817 0.1252 0.6621
C8 C 0.1679(4) 0.21108(18) 0.57691(15)
H4 H 0.1519 0.2608 0.6068
C9 C 0.1735(4) 0.22098(16) 0.49791(15)
C10 C 0.1630(4) 0.30550(17) 0.46272(17)
H5 H 0.1534 0.3564 0.4916
C11 C 0.2143(6) -0.0425(2) 0.67474(16)
H6 H 0.0950 -0.0188 0.6902
H7 H 0.3140 -0.0122 0.7005
H8 H 0.2192 -0.1043 0.6865
C12 C 0.2779(4) -0.17661(17) 0.35106(14)
C13 C 0.1069(4) -0.17088(17) 0.39423(15)
C14 C -0.0412(4) -0.23552(19) 0.39645(17)
H9 H -0.0313 -0.2861 0.3672
C15 C -0.1982(5) -0.2240(2) 0.44130(18)
H10 H -0.2907 -0.2675 0.4428
C16 C -0.2194(5) -0.1468(2) 0.48479(17)
H11 H -0.3267 -0.1390 0.5140
C17 C -0.0808(4) -0.08277(19) 0.48406(15)
H12 H -0.0969 -0.0322 0.5129
C18 C 0.0887(4) -0.09202(16) 0.43966(15)
C19 C 0.2341(4) -0.02545(16) 0.44096(13)
C20 C 0.3965(4) -0.03611(16) 0.39655(15)
C21 C 0.4176(4) -0.11250(16) 0.35163(15)
H13 H 0.5252 -0.1197 0.3225
C22 C 0.6813(4) 0.0311(2) 0.34571(16)
H14 H 0.6268 0.0373 0.2968
H15 H 0.7521 -0.0228 0.3481
H16 H 0.7634 0.0802 0.3554
O5 O 0.448(2) -0.2544(8) 0.2597(5)
O6 O 0.1822(7) -0.2895(6) 0.2681(5)
O7? O 0.479(2) -0.2756(12) 0.2933(11)
O8? O 0.250(2) -0.3295(4) 0.3232(8)
loop_
_geom_bond_atom_site_label_1
_geom_bond_atom_site_label_2
_geom_bond_site_symmetry_1
_geom_bond_site_symmetry_2
O1 N1 1_555 1_555
O2 N1 1_555 1_555
O3 C6 1_555 1_555
O4 C20 1_555 1_555
N1 C1 1_555 1_555
N2 C12 1_555 1_555
C1 C2 1_555 1_555
C2 H1 1_555 1_555
C3 C2 1_555 1_555
H2 C3 1_555 1_555
C4 C3 1_555 1_555
C5 C4 1_555 1_555
C6 C5 1_555 1_555
C7 C6 1_555 1_555
H3 C7 1_555 1_555
C8 C7 1_555 1_555
H4 C8 1_555 1_555
C9 C4 1_555 1_555
C10 C1 1_555 1_555
H5 C10 1_555 1_555
C11 O3 1_555 1_555
H6 C11 1_555 1_555
H7 C11 1_555 1_555
H8 C11 1_555 1_555
C12 C13 1_555 1_555
C13 C14 1_555 1_555
C14 H9 1_555 1_555
C15 C14 1_555 1_555
H10 C15 1_555 1_555
C16 C15 1_555 1_555
H11 C16 1_555 1_555
C17 C16 1_555 1_555
H12 C17 1_555 1_555
C18 C13 1_555 1_555
C19 C5 1_555 1_555
C20 C19 1_555 1_555
C21 C12 1_555 1_555
H13 C21 1_555 1_555
C22 O4 1_555 1_555
H14 C22 1_555 1_555
H15 C22 1_555 1_555
H16 C22 1_555 1_555
O5 N2 1_555 1_555
O6 N2 1_555 1_555
C8 C9 1_555 1_555
C9 C10 1_555 1_555
C17 C18 1_555 1_555
C18 C19 1_555 1_555
C20 C21 1_555 1_555

#END
