
#######################################################################
#
#                 Cambridge Crystallographic Data Centre
#                                CCDC 
#
#######################################################################
#
# If this CIF has been generated from an entry in the Cambridge 
# Structural Database, then it will include bibliographic, chemical, 
# crystal, experimental, refinement or atomic coordinate data resulting 
# from the CCDC's data processing and validation procedures.
#
#######################################################################

data_IDOCUC
_chemical_formula_moiety         'C18 H39 Ca1 N3 O7 2+,2(I1 1-)'
_chemical_name_systematic        
'bis(N,N-dimethylformamide)-(1,4,7,10,13-pentaoxa-16-azacyclooctadecane)-calcium diiodide'
_symmetry_cell_setting           monoclinic
_symmetry_space_group_name_H-M   'P 21/n'
_symmetry_Int_Tables_number      14
_space_group_name_Hall           '-P 2yn'
loop_
_symmetry_equiv_pos_site_id
_symmetry_equiv_pos_as_xyz
1 x,y,z
2 1/2-x,1/2+y,1/2-z
3 -x,-y,-z
4 1/2+x,1/2-y,1/2+z
_cell_length_a                   10.6093(2)
_cell_length_b                   7.31830(10)
_cell_length_c                   18.0196(3)
_cell_angle_alpha                90
_cell_angle_beta                 96.6981(5)
_cell_angle_gamma                90
_cell_volume                     1389.53
_exptl_crystal_colour            colorless
_exptl_crystal_description       prism
_cell_formula_units_Z            2
loop_
_atom_site_label
_atom_site_type_symbol
_atom_site_fract_x
_atom_site_fract_y
_atom_site_fract_z
I1 I 0.50358(2) 0.28310(2) 0.67196(2)
C1 C 0.71178(14) 0.8366(2) 0.52577(9)
C2 C 0.50540(17) 0.7825(3) 0.56476(12)
H1 H 0.4806 0.7868 0.5107
H2 H 0.4622 0.8805 0.5889
H3 H 0.4813 0.6640 0.5842
C3 C 0.6972(2) 0.7993(3) 0.65816(10)
H4 H 0.7900 0.8037 0.6610
H5 H 0.6715 0.6855 0.6808
H6 H 0.6670 0.9038 0.6852
C4 C 0.81602(15) 1.3810(3) 0.55765(9)
H7 H 0.8105 1.4962 0.5859
H8 H 0.7424 1.3034 0.5658
C5 C 0.94714(19) 1.2694(3) 0.66107(9)
H9 H 0.8798 1.1899 0.6770
H10 H 0.9418 1.3903 0.6851
C6 C 1.07450(18) 1.1862(2) 0.68291(9)
H11 H 1.1414 1.2756 0.6746
H12 H 1.0836 1.1550 0.7367
C7 C 1.19484(14) 0.9167(3) 0.67141(8)
H13 H 1.2111 0.9102 0.7266
H14 H 1.2641 0.9869 0.6524
C8 C 1.18600(19) 0.7305(3) 0.63845(9)
H15 H 1.2643 0.6606 0.6545
H16 H 1.1130 0.6640 0.6550
C9 C 1.18399(15) 0.5796(3) 0.52332(9)
H17 H 1.1130 0.4968 0.5313
H18 H 1.2647 0.5205 0.5436
Ca1 Ca 1.0000 1.0000 0.5000
N1 N 0.64261(12) 0.8066(2) 0.58036(8)
O1 O 0.82932(10) 0.85658(18) 0.53449(7)
O2 O 0.93168(10) 1.28836(16) 0.58201(6)
O3 O 1.16974(11) 0.75053(16) 0.55922(6)
H19 H 0.6639(17) 0.838(3) 0.4763(10)
N2 N 1.0703(6) 1.0029(7) 0.6479(4)
H20 H 1.022(2) 0.948(5) 0.6707(15)
C4B C 1.18398(15) 0.6190(3) 0.44235(9)
H7B H 1.1895 0.5038 0.4141
H8B H 1.2576 0.6966 0.4342
C5B C 1.05286(19) 0.7306(3) 0.33893(9)
H9B H 1.1202 0.8101 0.3230
H10B H 1.0582 0.6097 0.3149
C6B C 0.92550(18) 0.8138(2) 0.31709(9)
H11B H 0.8586 0.7244 0.3254
H12B H 0.9164 0.8450 0.2633
C7B C 0.80516(14) 1.0833(3) 0.32859(8)
H13B H 0.7889 1.0898 0.2734
H14B H 0.7359 1.0131 0.3476
C8B C 0.81400(19) 1.2695(3) 0.36155(9)
H15B H 0.7357 1.3394 0.3455
H16B H 0.8870 1.3360 0.3450
C9B C 0.81601(15) 1.4204(3) 0.47668(9)
H17B H 0.8870 1.5032 0.4687
H18B H 0.7353 1.4795 0.4564
O2B O 1.06832(10) 0.71164(16) 0.41799(6)
O3B O 0.83026(11) 1.24947(16) 0.44078(6)
N2B N 0.9297(6) 0.9971(7) 0.3521(4)
H20B H 0.978(2) 1.052(5) 0.3293(15)
C1B C 1.28822(14) 1.1634(2) 0.47423(9)
C2B C 1.49460(17) 1.2175(3) 0.43524(12)
H1B H 1.5194 1.2132 0.4893
H2B H 1.5378 1.1195 0.4111
H3B H 1.5187 1.3360 0.4158
C3B C 1.3028(2) 1.2007(3) 0.34184(10)
H4B H 1.2100 1.1963 0.3390
H5B H 1.3285 1.3145 0.3192
H6B H 1.3330 1.0962 0.3148
N1B N 1.35739(12) 1.1934(2) 0.41964(8)
O1B O 1.17068(10) 1.14342(18) 0.46551(7)
H19B H 1.3361(17) 1.162(3) 0.5237(10)
O4? O 1.0902(5) 1.0253(5) 0.6402(3)
H21? H 1.1948 0.9084 0.7262
H22? H 1.2753 0.9748 0.6612
H23? H 1.1419 1.2617 0.6646
H24? H 1.0917 1.1758 0.7379
loop_
_geom_bond_atom_site_label_1
_geom_bond_atom_site_label_2
_geom_bond_site_symmetry_1
_geom_bond_site_symmetry_2
C1 N1 1_555 1_555
C2 H1 1_555 1_555
H2 C2 1_555 1_555
H3 C2 1_555 1_555
C3 H4 1_555 1_555
H5 C3 1_555 1_555
H6 C3 1_555 1_555
C4 H7 1_555 1_555
H8 C4 1_555 1_555
C5 H9 1_555 1_555
H10 C5 1_555 1_555
C6 C5 1_555 1_555
H11 C6 1_555 1_555
H12 C6 1_555 1_555
C7 H13 1_555 1_555
H14 C7 1_555 1_555
C8 C7 1_555 1_555
H15 C8 1_555 1_555
H16 C8 1_555 1_555
C9 H17 1_555 1_555
H18 C9 1_555 1_555
Ca1 O1 1_555 1_555
N1 C2 1_555 1_555
O1 C1 1_555 1_555
O2 C4 1_555 1_555
O3 C8 1_555 1_555
H19 C1 1_555 1_555
N2 C6 1_555 1_555
H20 N2 1_555 1_555
C4B C9 1_555 1_555
H7B C4B 1_555 1_555
H8B C4B 1_555 1_555
C5B H9B 1_555 1_555
H10B C5B 1_555 1_555
C6B C5B 1_555 1_555
H11B C6B 1_555 1_555
H12B C6B 1_555 1_555
C7B H13B 1_555 1_555
H14B C7B 1_555 1_555
C8B C7B 1_555 1_555
H15B C8B 1_555 1_555
H16B C8B 1_555 1_555
C9B C4 1_555 1_555
H17B C9B 1_555 1_555
H18B C9B 1_555 1_555
O2B Ca1 1_555 1_555
O3B Ca1 1_555 1_555
N2B Ca1 1_555 1_555
H20B N2B 1_555 1_555
C1B N1B 1_555 1_555
C2B H1B 1_555 1_555
H2B C2B 1_555 1_555
H3B C2B 1_555 1_555
C3B H4B 1_555 1_555
H5B C3B 1_555 1_555
H6B C3B 1_555 1_555
N1B C2B 1_555 1_555
O1B Ca1 1_555 1_555
H19B C1B 1_555 1_555
C3 N1 1_555 1_555
C5 O2 1_555 1_555
C7 N2 1_555 1_555
C9 O3 1_555 1_555
Ca1 O2 1_555 1_555
Ca1 O3 1_555 1_555
Ca1 N2 1_555 1_555
C4B O2B 1_555 1_555
C5B O2B 1_555 1_555
C6B N2B 1_555 1_555
C7B N2B 1_555 1_555
C8B O3B 1_555 1_555
C9B O3B 1_555 1_555
C1B O1B 1_555 1_555
C3B N1B 1_555 1_555

#END
