
#######################################################################
#
#                 Cambridge Crystallographic Data Centre
#                                CCDC 
#
#######################################################################
#
# If this CIF has been generated from an entry in the Cambridge 
# Structural Database, then it will include bibliographic, chemical, 
# crystal, experimental, refinement or atomic coordinate data resulting 
# from the CCDC's data processing and validation procedures.
#
#######################################################################

data_IDODEL
_chemical_formula_moiety         'C30 H25 N5 O4'
_chemical_name_systematic        
1-Acetyl-3,3-bis(3-(4-methylphenyl)-1,2,4-oxadiazol-5-ylmethyl)-1H-indol-2(3H)-one
_symmetry_cell_setting           monoclinic
_symmetry_space_group_name_H-M   'C 2'
_symmetry_Int_Tables_number      5
_space_group_name_Hall           'C 2y'
loop_
_symmetry_equiv_pos_site_id
_symmetry_equiv_pos_as_xyz
1 x,y,z
2 -x,y,-z
3 1/2+x,1/2+y,z
4 1/2-x,1/2+y,-z
_cell_length_a                   15.5510(16)
_cell_length_b                   6.9695(14)
_cell_length_c                   25.220(2)
_cell_angle_alpha                90
_cell_angle_beta                 103.46(3)
_cell_angle_gamma                90
_cell_volume                     2658.33
_exptl_crystal_colour            colorless
_exptl_crystal_description       block
_cell_formula_units_Z            4
_exptl_crystal_recrystallization_method ethanol
loop_
_atom_site_label
_atom_site_type_symbol
_atom_site_fract_x
_atom_site_fract_y
_atom_site_fract_z
O1 O 0.4685(2) 0.7002(4) 0.86621(11)
O2 O 0.78398(15) 0.4738(5) 0.74647(13)
O3 O 0.51625(15) 0.3550(4) 0.70346(11)
O4 O 0.45346(15) 0.9437(5) 0.60830(11)
N1 N 0.5095(3) 0.6260(6) 0.91871(15)
N2 N 0.50774(18) 0.4057(5) 0.85383(12)
N3 N 0.5157(2) 0.9869(6) 0.57666(13)
N4 N 0.57534(16) 0.7915(4) 0.64624(11)
N5 N 0.64051(15) 0.5322(4) 0.74468(11)
C1 C 0.7061(3) -0.0515(10) 1.0820(2)
H1 H 0.6946 -0.1828 1.0711
H2 H 0.6827 -0.0256 1.1133
H3 H 0.7688 -0.0293 1.0911
C2 C 0.6624(3) 0.0800(7) 1.03555(19)
C3 C 0.6696(4) 0.2766(8) 1.0404(2)
H4 H 0.7040 0.3292 1.0722
C4 C 0.6278(4) 0.3957(7) 0.99972(19)
H5 H 0.6334 0.5278 1.0046
C5 C 0.5776(2) 0.3244(6) 0.95161(15)
C6 C 0.5706(3) 0.1281(6) 0.94561(19)
H6 H 0.5374 0.0753 0.9134
C7 C 0.6129(3) 0.0104(7) 0.9875(2)
H7 H 0.6075 -0.1218 0.9828
C8 C 0.5322(2) 0.4530(5) 0.90796(15)
C9 C 0.4715(2) 0.5622(5) 0.83098(15)
C10 C 0.4321(2) 0.6054(6) 0.77353(15)
H8 H 0.3879 0.7047 0.7719
H9 H 0.4020 0.4915 0.7564
C11 C 0.49868(18) 0.6724(5) 0.74004(13)
C12 C 0.57251(19) 0.8004(5) 0.77020(13)
C13 C 0.5681(2) 0.9772(6) 0.79358(14)
H10 H 0.5136 1.0345 0.7922
C14 C 0.6456(2) 1.0689(6) 0.81915(15)
H11 H 0.6435 1.1888 0.8350
C15 C 0.7261(2) 0.9816(6) 0.82098(16)
H12 H 0.7779 1.0444 0.8383
C16 C 0.7320(2) 0.8019(5) 0.79763(14)
H13 H 0.7865 0.7445 0.7990
C17 C 0.65412(18) 0.7129(5) 0.77239(12)
C18 C 0.54967(19) 0.4971(5) 0.72633(13)
C19 C 0.6825(3) 0.2680(7) 0.68912(18)
H14 H 0.7348 0.2108 0.6819
H15 H 0.6460 0.3162 0.6557
H16 H 0.6503 0.1733 0.7043
C20 C 0.7080(2) 0.4284(6) 0.72852(15)
C21 C 0.4433(2) 0.7608(6) 0.68741(14)
H17 H 0.4003 0.6666 0.6695
H18 H 0.4108 0.8693 0.6969
C22 C 0.4952(2) 0.8266(6) 0.64798(13)
C23 C 0.5851(2) 0.8925(5) 0.60135(12)
C24 C 0.6695(2) 0.9026(5) 0.58370(13)
C25 C 0.6728(2) 0.9900(6) 0.53497(15)
H19 H 0.6213 1.0362 0.5120
C26 C 0.7531(3) 1.0089(7) 0.52035(17)
H20 H 0.7546 1.0681 0.4875
C27 C 0.8303(2) 0.9420(5) 0.55329(17)
C28 C 0.8259(2) 0.8507(6) 0.60107(16)
H21 H 0.8773 0.8013 0.6234
C29 C 0.7462(2) 0.8308(6) 0.61666(14)
H22 H 0.7447 0.7693 0.6492
C30 C 0.9181(3) 0.9625(8) 0.5372(2)
H23 H 0.9643 0.9085 0.5652
H24 H 0.9300 1.0959 0.5328
H25 H 0.9153 0.8960 0.5035
loop_
_geom_bond_atom_site_label_1
_geom_bond_atom_site_label_2
_geom_bond_site_symmetry_1
_geom_bond_site_symmetry_2
O1 N1 1_555 1_555
O2 C20 1_555 1_555
O3 C18 1_555 1_555
O4 N3 1_555 1_555
N1 C8 1_555 1_555
N2 C8 1_555 1_555
N3 C23 1_555 1_555
N4 C22 1_555 1_555
N5 C17 1_555 1_555
C1 H1 1_555 1_555
H2 C1 1_555 1_555
H3 C1 1_555 1_555
C2 C1 1_555 1_555
C3 C2 1_555 1_555
H4 C3 1_555 1_555
C4 C3 1_555 1_555
H5 C4 1_555 1_555
C5 C4 1_555 1_555
C6 C5 1_555 1_555
H6 C6 1_555 1_555
C7 C2 1_555 1_555
H7 C7 1_555 1_555
C8 C5 1_555 1_555
C9 O1 1_555 1_555
C10 C9 1_555 1_555
H8 C10 1_555 1_555
H9 C10 1_555 1_555
C11 C10 1_555 1_555
C12 C11 1_555 1_555
C13 C12 1_555 1_555
H10 C13 1_555 1_555
C14 C13 1_555 1_555
H11 C14 1_555 1_555
C15 C14 1_555 1_555
H12 C15 1_555 1_555
C16 C15 1_555 1_555
H13 C16 1_555 1_555
C17 C12 1_555 1_555
C18 N5 1_555 1_555
C19 H14 1_555 1_555
H15 C19 1_555 1_555
H16 C19 1_555 1_555
C20 N5 1_555 1_555
C21 C11 1_555 1_555
H17 C21 1_555 1_555
H18 C21 1_555 1_555
C22 O4 1_555 1_555
C23 N4 1_555 1_555
C24 C23 1_555 1_555
C25 C24 1_555 1_555
H19 C25 1_555 1_555
C26 C25 1_555 1_555
H20 C26 1_555 1_555
C27 C26 1_555 1_555
C28 C27 1_555 1_555
H21 C28 1_555 1_555
C29 C24 1_555 1_555
H22 C29 1_555 1_555
C30 C27 1_555 1_555
H23 C30 1_555 1_555
H24 C30 1_555 1_555
H25 C30 1_555 1_555
N2 C9 1_555 1_555
C6 C7 1_555 1_555
C11 C18 1_555 1_555
C16 C17 1_555 1_555
C19 C20 1_555 1_555
C21 C22 1_555 1_555
C28 C29 1_555 1_555

#END
