
#######################################################################
#
#                 Cambridge Crystallographic Data Centre
#                                CCDC 
#
#######################################################################
#
# If this CIF has been generated from an entry in the Cambridge 
# Structural Database, then it will include bibliographic, chemical, 
# crystal, experimental, refinement or atomic coordinate data resulting 
# from the CCDC's data processing and validation procedures.
#
#######################################################################

data_IDODAJ
_chemical_formula_moiety         'C18 H42 Ca1 N6 O6 2+,0.8(H2 O1),2(I1 1-)'
_chemical_name_systematic        
'hexakis(N,N-dimethylformamide)-calcium diiodide hydrate'
_symmetry_cell_setting           monoclinic
_symmetry_space_group_name_H-M   'P 21/c'
_symmetry_Int_Tables_number      14
_space_group_name_Hall           '-P 2ybc'
loop_
_symmetry_equiv_pos_site_id
_symmetry_equiv_pos_as_xyz
1 x,y,z
2 -x,1/2+y,1/2-z
3 -x,-y,-z
4 x,1/2-y,1/2+z
_cell_length_a                   12.5906(2)
_cell_length_b                   22.4298(4)
_cell_length_c                   11.6710(2)
_cell_angle_alpha                90
_cell_angle_beta                 101.8605(7)
_cell_angle_gamma                90
_cell_volume                     3225.58
_exptl_crystal_colour            colorless
_exptl_crystal_description       prism
_cell_formula_units_Z            4
loop_
_atom_site_label
_atom_site_type_symbol
_atom_site_fract_x
_atom_site_fract_y
_atom_site_fract_z
C1 C 0.34986(17) 0.50674(9) 0.97498(17)
H1 H 0.3342 0.5004 1.0503
C2 C 0.4113(3) 0.57334(13) 0.8406(2)
H2 H 0.3975 0.5382 0.7898
H3 H 0.4882 0.5841 0.8528
H4 H 0.3669 0.6067 0.8037
C3 C 0.3953(2) 0.60747(11) 1.0386(2)
H5 H 0.3726 0.5931 1.1092
H6 H 0.3498 0.6413 1.0060
H7 H 0.4714 0.6201 1.0587
C4 C 0.44370(16) 0.41337(9) 0.58841(18)
H8 H 0.3853 0.4302 0.5333
C5 C 0.5516(2) 0.42451(11) 0.4402(2)
H9 H 0.4823 0.4387 0.3941
H10 H 0.5772 0.3907 0.4002
H11 H 0.6052 0.4567 0.4488
C6 C 0.63113(17) 0.38127(11) 0.63449(19)
H12 H 0.6805 0.4137 0.6668
H13 H 0.6687 0.3535 0.5916
H14 H 0.6077 0.3601 0.6984
C7 C 0.18676(17) 0.32462(9) 0.50668(18)
H15 H 0.2271 0.3496 0.4656
C8 C 0.1076(2) 0.28133(12) 0.31903(19)
H16 H 0.1519 0.3119 0.2911
H17 H 0.0313 0.2867 0.2807
H18 H 0.1320 0.2417 0.3003
C9 C 0.0524(2) 0.24858(12) 0.5015(2)
H19 H 0.0836 0.2084 0.5096
H20 H -0.0213 0.2469 0.4537
H21 H 0.0499 0.2644 0.5791
C10 C 0.07175(17) 0.41263(9) 0.91089(19)
H22 H 0.1204 0.4323 0.9723
C11 C -0.0626(2) 0.42159(14) 1.0312(2)
H23 H -0.0011 0.4391 1.0861
H24 H -0.0904 0.3873 1.0680
H25 H -0.1202 0.4515 1.0105
C12 C -0.10730(18) 0.37375(11) 0.8365(2)
H26 H -0.1588 0.4037 0.7970
H27 H -0.1463 0.3436 0.8725
H28 H -0.0712 0.3547 0.7793
C13 C 0.16532(17) 0.50765(9) 0.55197(18)
H29 H 0.1737 0.4985 0.4749
C14 C 0.0916(3) 0.57344(15) 0.6789(3)
H30 H 0.1230 0.5437 0.7377
H31 H 0.0136 0.5768 0.6762
H32 H 0.1264 0.6121 0.6998
C15 C 0.0662(2) 0.59339(12) 0.4653(3)
H33 H 0.0803 0.5751 0.3936
H34 H 0.1014 0.6325 0.4766
H35 H -0.0123 0.5982 0.4584
C16 C 0.33069(16) 0.32541(9) 1.00630(17)
H36 H 0.2856 0.3530 1.0356
C17 C 0.3890(2) 0.29119(11) 1.20617(18)
H37 H 0.3438 0.3246 1.2218
H38 H 0.4628 0.2960 1.2525
H39 H 0.3582 0.2537 1.2277
C18 C 0.4649(2) 0.24766(11) 1.0447(2)
H40 H 0.4359 0.2073 1.0477
H41 H 0.5365 0.2502 1.0969
H42 H 0.4716 0.2568 0.9644
Ca1 Ca 0.26878(3) 0.39871(2) 0.75976(3)
N1 N 0.38358(14) 0.55992(7) 0.95277(14)
N2 N 0.53698(13) 0.40581(7) 0.55550(14)
N3 N 0.11876(14) 0.28688(7) 0.44557(14)
N4 N -0.02732(13) 0.40218(8) 0.92578(15)
N5 N 0.10929(14) 0.55520(8) 0.56523(15)
N6 N 0.39213(14) 0.29010(7) 1.08203(14)
O1 O 0.33677(15) 0.46432(7) 0.90693(14)
O2 O 0.42717(12) 0.40004(7) 0.68607(13)
O3 O 0.20229(13) 0.33008(7) 0.61451(13)
O4 O 0.10588(12) 0.39870(8) 0.82271(14)
O5 O 0.20804(15) 0.47379(8) 0.63061(16)
O6 O 0.32728(13) 0.32530(6) 0.89938(12)
I1 I 0.23555(2) 0.45213(2) 0.25243(2)
I2 I 0.28866(2) 0.72433(2) 0.63614(2)
O7 O 0.1496(2) 0.78868(15) 0.3677(2)
H43 H 0.135(4) 0.7481(7) 0.355(3)
H44 H 0.198(3) 0.7905(16) 0.439(2)
loop_
_geom_bond_atom_site_label_1
_geom_bond_atom_site_label_2
_geom_bond_site_symmetry_1
_geom_bond_site_symmetry_2
C1 H1 1_555 1_555
C2 H2 1_555 1_555
H3 C2 1_555 1_555
H4 C2 1_555 1_555
C3 H5 1_555 1_555
H6 C3 1_555 1_555
H7 C3 1_555 1_555
C4 H8 1_555 1_555
C5 H9 1_555 1_555
H10 C5 1_555 1_555
H11 C5 1_555 1_555
C6 H12 1_555 1_555
H13 C6 1_555 1_555
H14 C6 1_555 1_555
C7 H15 1_555 1_555
C8 H16 1_555 1_555
H17 C8 1_555 1_555
H18 C8 1_555 1_555
C9 H19 1_555 1_555
H20 C9 1_555 1_555
H21 C9 1_555 1_555
C10 H22 1_555 1_555
C11 H23 1_555 1_555
H24 C11 1_555 1_555
H25 C11 1_555 1_555
C12 H26 1_555 1_555
H27 C12 1_555 1_555
H28 C12 1_555 1_555
C13 H29 1_555 1_555
C14 H30 1_555 1_555
H31 C14 1_555 1_555
H32 C14 1_555 1_555
C15 H33 1_555 1_555
H34 C15 1_555 1_555
H35 C15 1_555 1_555
C16 H36 1_555 1_555
C17 H37 1_555 1_555
H38 C17 1_555 1_555
H39 C17 1_555 1_555
C18 H40 1_555 1_555
H41 C18 1_555 1_555
H42 C18 1_555 1_555
Ca1 O1 1_555 1_555
N1 C1 1_555 1_555
N2 C4 1_555 1_555
N3 C7 1_555 1_555
N4 C10 1_555 1_555
N5 C13 1_555 1_555
N6 C16 1_555 1_555
O1 C1 1_555 1_555
O2 C4 1_555 1_555
O3 C7 1_555 1_555
O4 C10 1_555 1_555
O5 C13 1_555 1_555
O6 C16 1_555 1_555
O7 H43 1_555 1_555
H44 O7 1_555 1_555
C2 N1 1_555 1_555
C3 N1 1_555 1_555
C5 N2 1_555 1_555
C6 N2 1_555 1_555
C8 N3 1_555 1_555
C9 N3 1_555 1_555
C11 N4 1_555 1_555
C12 N4 1_555 1_555
C14 N5 1_555 1_555
C15 N5 1_555 1_555
C17 N6 1_555 1_555
C18 N6 1_555 1_555
Ca1 O2 1_555 1_555
Ca1 O3 1_555 1_555
Ca1 O4 1_555 1_555
Ca1 O5 1_555 1_555
Ca1 O6 1_555 1_555

#END
