
#######################################################################
#
#                 Cambridge Crystallographic Data Centre
#                                CCDC 
#
#######################################################################
#
# If this CIF has been generated from an entry in the Cambridge 
# Structural Database, then it will include bibliographic, chemical, 
# crystal, experimental, refinement or atomic coordinate data resulting 
# from the CCDC's data processing and validation procedures.
#
#######################################################################

data_IDOKAO
_chemical_compound_source        'fruit of bergamot, Citrus bergemia'
_chemical_formula_moiety         'C28 H34 O9,C1 H1 Cl3'
_chemical_name_systematic        '(-)-Nomilin chloroform solvate'
_chemical_properties_biological  
'anticarcinogenic activity; abirritation and antifeedant activity against insects'
_symmetry_cell_setting           orthorhombic
_symmetry_space_group_name_H-M   'P 21 21 21'
_symmetry_Int_Tables_number      19
_space_group_name_Hall           'P 2ac 2ab'
loop_
_symmetry_equiv_pos_site_id
_symmetry_equiv_pos_as_xyz
1 x,y,z
2 1/2-x,-y,1/2+z
3 -x,1/2+y,1/2-z
4 1/2+x,1/2-y,-z
_cell_length_a                   8.599(4)
_cell_length_b                   12.951(6)
_cell_length_c                   27.252(12)
_cell_angle_alpha                90
_cell_angle_beta                 90
_cell_angle_gamma                90
_cell_volume                     3034.94
_exptl_crystal_colour            colorless
_exptl_crystal_description       prism
_chemical_melting_point          '549 K'
_cell_formula_units_Z            4
loop_
_atom_site_label
_atom_site_type_symbol
_atom_site_fract_x
_atom_site_fract_y
_atom_site_fract_z
Cl1 Cl 0.9764(13) 0.5117(5) 0.3464(5)
Cl2 Cl 0.8483(10) 0.3190(5) 0.3254(4)
Cl3 Cl 1.0178(11) 0.3485(11) 0.4127(3)
C29 C 1.0102(9) 0.3821(5) 0.3526(2)
H34 H 1.1066 0.3626 0.3359
O1 O -0.0023(4) 0.2984(2) 0.72700(10)
O2 O -0.1624(5) 0.1963(3) 0.69016(13)
O3 O 0.0345(3) 0.3556(2) 0.60736(10)
O4 O -0.1338(6) 0.3518(4) 0.54467(16)
O5 O 0.5194(4) 0.5546(3) 0.67950(12)
O6 O 0.3947(4) 0.7595(2) 0.58078(11)
O7 O 0.6450(4) 0.6671(3) 0.52380(12)
O8 O 0.7971(4) 0.7337(3) 0.58006(13)
O9 O 0.6380(7) 0.4822(4) 0.40481(18)
C1 C -0.1146(6) 0.2837(4) 0.69400(16)
C2 C -0.1776(6) 0.3694(3) 0.66366(17)
H1 H -0.2832 0.3850 0.6632
C3 C -0.0612(5) 0.4304(3) 0.63345(14)
H2 H -0.1201 0.4691 0.6088
C4 C 0.0463(5) 0.5074(3) 0.65964(14)
C5 C 0.1660(5) 0.5466(3) 0.62080(13)
H3 H 0.2250 0.4846 0.6119
C6 C 0.2930(5) 0.6240(3) 0.63898(14)
C7 C 0.3791(5) 0.5664(3) 0.67925(15)
C8 C 0.2780(5) 0.5226(3) 0.71881(15)
H4 H 0.2319 0.5791 0.7371
H5 H 0.3424 0.4834 0.7413
C9 C 0.1460(5) 0.4516(3) 0.69945(14)
H6 H 0.1992 0.3957 0.6820
C10 C 0.0637(6) 0.3985(3) 0.74359(15)
C11 C 0.1067(5) 0.5876(3) 0.57168(15)
H7 H 0.0096 0.5539 0.5632
H8 H 0.0877 0.6613 0.5741
C12 C 0.2281(5) 0.5665(4) 0.53206(15)
H9 H 0.2093 0.6125 0.5046
H10 H 0.2151 0.4963 0.5204
C13 C 0.3985(5) 0.5807(3) 0.54956(14)
C14 C 0.3973(5) 0.6516(3) 0.59457(14)
C15 C 0.5340(5) 0.7188(3) 0.60161(17)
H11 H 0.5574 0.7393 0.6354
C16 C 0.6683(6) 0.7070(4) 0.56815(19)
C17 C 0.4901(6) 0.6359(3) 0.50815(15)
H12 H 0.4322 0.6978 0.4983
C18 C 0.5167(7) 0.5701(4) 0.46333(17)
C19 C 0.6545(9) 0.5410(5) 0.4459(2)
H13 H 0.7495 0.5584 0.4599
C20 C 0.4843(11) 0.4750(5) 0.3971(2)
H14 H 0.4390 0.4384 0.3715
C21 C 0.4057(9) 0.5269(5) 0.43090(19)
H15 H 0.2982 0.5336 0.4329
C22 C -0.0149(8) 0.3236(4) 0.56235(19)
C23 C 0.1015(8) 0.2550(5) 0.53875(19)
H16 H 0.0515 0.2141 0.5139
H17 H 0.1464 0.2103 0.5630
H18 H 0.1818 0.2961 0.5240
C24 C -0.0598(5) 0.5954(3) 0.67788(16)
H19 H -0.0701 0.6465 0.6526
H20 H -0.0148 0.6264 0.7066
H21 H -0.1604 0.5681 0.6858
C25 C 0.2318(6) 0.7255(3) 0.66129(17)
H22 H 0.3174 0.7714 0.6674
H23 H 0.1793 0.7110 0.6916
H24 H 0.1605 0.7574 0.6388
C26 C 0.1807(7) 0.3583(4) 0.78089(18)
H25 H 0.1309 0.3089 0.8020
H26 H 0.2193 0.4147 0.8002
H27 H 0.2656 0.3257 0.7640
C27 C -0.0613(7) 0.4595(4) 0.77091(17)
H28 H -0.0906 0.4229 0.8001
H29 H -0.1506 0.4678 0.7502
H30 H -0.0212 0.5262 0.7796
C28 C 0.4823(6) 0.4791(3) 0.56219(16)
H31 H 0.4434 0.4528 0.5928
H32 H 0.5920 0.4916 0.5650
H33 H 0.4639 0.4294 0.5367
Cl4? Cl 1.004(2) 0.5093(9) 0.3643(8)
Cl5? Cl 0.910(2) 0.3440(14) 0.3051(6)
Cl6? Cl 0.998(2) 0.3059(11) 0.4008(5)
loop_
_geom_bond_atom_site_label_1
_geom_bond_atom_site_label_2
_geom_bond_site_symmetry_1
_geom_bond_site_symmetry_2
Cl1 C29 1_555 1_555
Cl2 C29 1_555 1_555
Cl3 C29 1_555 1_555
O1 C1 1_555 1_555
O2 C1 1_555 1_555
O3 C3 1_555 1_555
O4 C22 1_555 1_555
O5 C7 1_555 1_555
O6 C14 1_555 1_555
O7 C16 1_555 1_555
O8 C16 1_555 1_555
O9 C19 1_555 1_555
C1 C2 1_555 1_555
C2 H1 1_555 1_555
C3 C2 1_555 1_555
H2 C3 1_555 1_555
C4 C3 1_555 1_555
C5 C4 1_555 1_555
H3 C5 1_555 1_555
C6 C5 1_555 1_555
C7 C6 1_555 1_555
C8 C7 1_555 1_555
H4 C8 1_555 1_555
H5 C8 1_555 1_555
C9 C4 1_555 1_555
H6 C9 1_555 1_555
C10 O1 1_555 1_555
C11 C5 1_555 1_555
H7 C11 1_555 1_555
H8 C11 1_555 1_555
C12 C11 1_555 1_555
H9 C12 1_555 1_555
H10 C12 1_555 1_555
C13 C12 1_555 1_555
C14 C6 1_555 1_555
C15 O6 1_555 1_555
H11 C15 1_555 1_555
C16 C15 1_555 1_555
C17 O7 1_555 1_555
H12 C17 1_555 1_555
C18 C17 1_555 1_555
C19 C18 1_555 1_555
H13 C19 1_555 1_555
C20 O9 1_555 1_555
H14 C20 1_555 1_555
C21 C18 1_555 1_555
H15 C21 1_555 1_555
C22 O3 1_555 1_555
C23 C22 1_555 1_555
H16 C23 1_555 1_555
H17 C23 1_555 1_555
H18 C23 1_555 1_555
C24 C4 1_555 1_555
H19 C24 1_555 1_555
H20 C24 1_555 1_555
H21 C24 1_555 1_555
C25 C6 1_555 1_555
H22 C25 1_555 1_555
H23 C25 1_555 1_555
H24 C25 1_555 1_555
C26 C10 1_555 1_555
H25 C26 1_555 1_555
H26 C26 1_555 1_555
H27 C26 1_555 1_555
C27 C10 1_555 1_555
H28 C27 1_555 1_555
H29 C27 1_555 1_555
H30 C27 1_555 1_555
C28 C13 1_555 1_555
H31 C28 1_555 1_555
H32 C28 1_555 1_555
H33 C28 1_555 1_555
C29 H34 1_555 1_555
C8 C9 1_555 1_555
C9 C10 1_555 1_555
C13 C14 1_555 1_555
C13 C17 1_555 1_555
C14 C15 1_555 1_555
C20 C21 1_555 1_555

#END
