
#######################################################################
#
#                 Cambridge Crystallographic Data Centre
#                                CCDC 
#
#######################################################################
#
# If this CIF has been generated from an entry in the Cambridge 
# Structural Database, then it will include bibliographic, chemical, 
# crystal, experimental, refinement or atomic coordinate data resulting 
# from the CCDC's data processing and validation procedures.
#
#######################################################################

data_IDOMIZ01
_chemical_formula_moiety         'C20 H26 O6'
_chemical_name_systematic        
'diethyl 4-hydroxy-4-methyl-2-(4-methylphenyl)-6-oxocyclohexane-1,3-dicarboxylate'
_symmetry_cell_setting           triclinic
_symmetry_space_group_name_H-M   'P -1'
_symmetry_Int_Tables_number      2
_space_group_name_Hall           '-P 1'
loop_
_symmetry_equiv_pos_site_id
_symmetry_equiv_pos_as_xyz
1 x,y,z
2 -x,-y,-z
_cell_length_a                   5.8131(5)
_cell_length_b                   9.9211(9)
_cell_length_c                   18.4400(15)
_cell_angle_alpha                103.306(6)
_cell_angle_beta                 92.432(6)
_cell_angle_gamma                104.715(6)
_cell_volume                     995.217
_cell_formula_units_Z            2
loop_
_atom_site_label
_atom_site_type_symbol
_atom_site_fract_x
_atom_site_fract_y
_atom_site_fract_z
C2 C 0.6159(4) 0.1108(4) 0.22839(16)
C3 C 1.0335(10) 0.1662(6) 0.4730(2)
H4 H 0.8799 0.1370 0.4905
H5 H 1.1563 0.1657 0.5094
H6 H 1.0395 0.1006 0.4263
C4 C 0.4003(5) 0.1023(4) 0.17373(16)
C5 C 0.4532(5) 0.2279(4) 0.13528(18)
C6 C 0.7171(6) 0.3825(4) 0.25052(19)
C7 C 0.5125(6) 0.3700(4) 0.1954(2)
H7 H 0.5522 0.4494 0.1717
H8 H 0.3730 0.3765 0.2216
C8 C 0.3813(6) -0.0341(5) 0.31175(19)
H9 H 0.2819 0.0270 0.3179
C9 C 0.3413(6) -0.1442(5) 0.3467(2)
H10 H 0.2142 -0.1566 0.3757
C10 C 0.3410(6) -0.0423(4) 0.11759(19)
C11 C 0.5680(5) -0.0116(4) 0.26715(16)
C12 C 0.6826(5) 0.2565(4) 0.28713(17)
C13 C 0.7088(6) -0.1050(4) 0.25992(19)
H11 H 0.8344 -0.0940 0.2303
C14 C 0.9058(5) 0.2712(4) 0.33662(17)
C15 C 0.4333(8) -0.3606(5) 0.3778(2)
H12 H 0.4037 -0.3268 0.4287
H13 H 0.5695 -0.3988 0.3772
H14 H 0.2957 -0.4347 0.3512
C16 C 1.0724(8) 0.3142(5) 0.4618(2)
H15 H 1.0751 0.3818 0.5093
H16 H 1.2249 0.3429 0.4424
C17 C 0.6667(6) -0.2158(4) 0.2961(2)
H17 H 0.7654 -0.2772 0.2903
C18 C 0.4823(6) -0.2369(4) 0.3402(2)
C19 C 0.2423(6) 0.2182(5) 0.0804(2)
H18 H 0.2773 0.3007 0.0598
H19 H 0.1018 0.2154 0.1062
H20 H 0.2152 0.1323 0.0407
C20 C 0.0786(10) -0.2779(6) 0.0827(2)
C21 C 0.154(2) -0.3683(9) 0.1206(5)
H21 H 0.0945 -0.3581 0.1687
H22 H 0.3260 -0.3426 0.1272
H23 H 0.0946 -0.4663 0.0920
O1 O 0.8922(5) 0.4832(3) 0.26702(18)
O2 O 0.6653(4) 0.2327(3) 0.09777(12)
O3 O 0.4616(5) -0.0743(3) 0.06819(15)
O4 O 0.1403(5) -0.1308(3) 0.12815(14)
O5 O 1.0831(4) 0.2438(3) 0.31369(13)
O6 O 0.8788(4) 0.3155(3) 0.40889(12)
H24 H 0.5554 0.2677 0.3214
H25 H 0.7541 0.1023 0.1990
H26 H 0.2535 0.1088 0.2034
H27 H 0.6321 0.1608 0.0598
H28 H 0.0871 -0.2738 0.0381
H29 H -0.0709 -0.3108 0.0834
C1? C -0.085(5) -0.376(2) 0.1053(11)
H1? H -0.0653 -0.4701 0.0841
H2? H -0.2418 -0.3731 0.0891
H3? H -0.0642 -0.3566 0.1590
loop_
_geom_bond_atom_site_label_1
_geom_bond_atom_site_label_2
_geom_bond_site_symmetry_1
_geom_bond_site_symmetry_2
C2 C4 1_555 1_555
C3 H4 1_555 1_555
H5 C3 1_555 1_555
H6 C3 1_555 1_555
C4 C5 1_555 1_555
C5 C7 1_555 1_555
C6 C7 1_555 1_555
C7 H7 1_555 1_555
H8 C7 1_555 1_555
C8 H9 1_555 1_555
C9 C8 1_555 1_555
H10 C9 1_555 1_555
C10 C4 1_555 1_555
C11 C2 1_555 1_555
C12 C2 1_555 1_555
C13 C11 1_555 1_555
H11 C13 1_555 1_555
C14 C12 1_555 1_555
C15 H12 1_555 1_555
H13 C15 1_555 1_555
H14 C15 1_555 1_555
C16 C3 1_555 1_555
H15 C16 1_555 1_555
H16 C16 1_555 1_555
C17 C13 1_555 1_555
H17 C17 1_555 1_555
C18 C9 1_555 1_555
C19 C5 1_555 1_555
H18 C19 1_555 1_555
H19 C19 1_555 1_555
H20 C19 1_555 1_555
C20 C21 1_555 1_555
C21 H21 1_555 1_555
H22 C21 1_555 1_555
H23 C21 1_555 1_555
O1 C6 1_555 1_555
O2 C5 1_555 1_555
O3 C10 1_555 1_555
O4 C10 1_555 1_555
O5 C14 1_555 1_555
O6 C14 1_555 1_555
H24 C12 1_555 1_555
H25 C2 1_555 1_555
H26 C4 1_555 1_555
H27 O2 1_555 1_555
H28 C20 1_555 1_555
H29 C20 1_555 1_555
C6 C12 1_555 1_555
C8 C11 1_555 1_555
C15 C18 1_555 1_555
C16 O6 1_555 1_555
C17 C18 1_555 1_555
C20 O4 1_555 1_555

#END
