
#######################################################################
#
#                 Cambridge Crystallographic Data Centre
#                                CCDC 
#
#######################################################################
#
# If this CIF has been generated from an entry in the Cambridge 
# Structural Database, then it will include bibliographic, chemical, 
# crystal, experimental, refinement or atomic coordinate data resulting 
# from the CCDC's data processing and validation procedures.
#
#######################################################################

data_IDOMAR
_chemical_formula_moiety         'C18 H12 Cl1 N1 O4'
_chemical_name_systematic        
1-(3-Chlorophenyl)-5-(2,4-dihydroxybenzoyl)pyridin-2(1H)-one
_symmetry_cell_setting           triclinic
_symmetry_space_group_name_H-M   'P -1'
_symmetry_Int_Tables_number      2
_space_group_name_Hall           '-P 1'
loop_
_symmetry_equiv_pos_site_id
_symmetry_equiv_pos_as_xyz
1 x,y,z
2 -x,-y,-z
_cell_length_a                   6.689(3)
_cell_length_b                   9.009(4)
_cell_length_c                   13.257(6)
_cell_angle_alpha                87.193(5)
_cell_angle_beta                 87.719(5)
_cell_angle_gamma                82.674(5)
_cell_volume                     790.956
_exptl_crystal_colour            yellow
_exptl_crystal_description       block
_chemical_melting_point          '391 K'
_cell_formula_units_Z            2
loop_
_atom_site_label
_atom_site_type_symbol
_atom_site_fract_x
_atom_site_fract_y
_atom_site_fract_z
C1 C 0.5151(4) -0.2487(3) 0.2138(2)
H1 H 0.6295 -0.3083 0.2368
C2 C 0.3295(4) -0.3066(3) 0.2132(2)
C3 C 0.1599(4) -0.2167(3) 0.1802(2)
H2 H 0.0368 -0.2545 0.1811
C4 C 0.1723(4) -0.0708(3) 0.1460(2)
C5 C 0.3569(4) -0.0092(3) 0.1467(2)
C6 C 0.5255(4) -0.1048(3) 0.1803(2)
H3 H 0.6495 -0.0682 0.1796
C7 C 0.3660(4) 0.1438(3) 0.1075(2)
C8 C 0.5392(4) 0.2240(3) 0.1300(2)
C9 C 0.6104(4) 0.3249(3) 0.0559(2)
H4 H 0.5547 0.3347 -0.0076
C10 C 0.7578(4) 0.4071(3) 0.0762(3)
H5 H 0.8062 0.4692 0.0253
C11 C 0.8409(4) 0.4009(3) 0.1736(2)
C12 C 0.6192(4) 0.2166(3) 0.2224(2)
H6 H 0.5742 0.1514 0.2724
C13 C 0.8340(19) 0.2944(10) 0.3452(10)
C14 C 0.7299(15) 0.3857(11) 0.4146(8)
H7 H 0.6124 0.4463 0.3966
C15 C 0.7991(14) 0.3875(11) 0.5106(6)
H8 H 0.7286 0.4493 0.5576
C16 C 0.9725(17) 0.2980(12) 0.5372(8)
H9 H 1.0194 0.2993 0.6022
C17 C 1.077(2) 0.2068(13) 0.4678(10)
C18 C 1.007(2) 0.2050(12) 0.3718(11)
H10 H 1.0780 0.1432 0.3247
Cl1 Cl 1.2968(6) 0.0926(8) 0.5029(3)
N1 N 0.7644(3) 0.3024(2) 0.24405(18)
O1 O 0.3277(3) -0.4514(2) 0.24453(18)
O2 O 0.0021(3) 0.0106(2) 0.11379(17)
O3 O 0.2307(3) 0.2123(2) 0.05679(18)
O4 O 0.9690(3) 0.4788(2) 0.1992(2)
H11 H 0.044(5) 0.096(4) 0.086(3)
H12 H 0.214(7) -0.478(5) 0.227(3)
C19? C 0.835(4) 0.298(2) 0.348(2)
C20? C 0.679(4) 0.326(2) 0.4232(19)
H13? H 0.5465 0.3577 0.4065
C21? C 0.737(4) 0.302(2) 0.5263(17)
H14? H 0.6406 0.3212 0.5781
C22? C 0.928(4) 0.254(3) 0.549(2)
H15? H 0.9665 0.2386 0.6154
C23? C 1.065(4) 0.227(3) 0.471(2)
C24? C 1.027(5) 0.242(3) 0.364(3)
H16? H 1.1232 0.2171 0.3132
Cl2? Cl 1.3150(14) 0.1781(14) 0.4928(8)
loop_
_geom_bond_atom_site_label_1
_geom_bond_atom_site_label_2
_geom_bond_site_symmetry_1
_geom_bond_site_symmetry_2
C1 H1 1_555 1_555
C2 C1 1_555 1_555
C3 C2 1_555 1_555
H2 C3 1_555 1_555
C4 C3 1_555 1_555
C5 C4 1_555 1_555
C6 C1 1_555 1_555
H3 C6 1_555 1_555
C7 C5 1_555 1_555
C8 C7 1_555 1_555
C9 C8 1_555 1_555
H4 C9 1_555 1_555
C10 C9 1_555 1_555
H5 C10 1_555 1_555
C11 C10 1_555 1_555
C12 C8 1_555 1_555
H6 C12 1_555 1_555
C13 C14 1_555 1_555
C14 H7 1_555 1_555
C15 C14 1_555 1_555
H8 C15 1_555 1_555
C16 C15 1_555 1_555
H9 C16 1_555 1_555
C17 C16 1_555 1_555
C18 C13 1_555 1_555
H10 C18 1_555 1_555
Cl1 C17 1_555 1_555
N1 C11 1_555 1_555
O1 C2 1_555 1_555
O2 C4 1_555 1_555
O3 C7 1_555 1_555
O4 C11 1_555 1_555
H11 O2 1_555 1_555
H12 O1 1_555 1_555
C5 C6 1_555 1_555
C12 N1 1_555 1_555
C13 N1 1_555 1_555
C17 C18 1_555 1_555

#END
