
#######################################################################
#
#                 Cambridge Crystallographic Data Centre
#                                CCDC 
#
#######################################################################
#
# If this CIF has been generated from an entry in the Cambridge 
# Structural Database, then it will include bibliographic, chemical, 
# crystal, experimental, refinement or atomic coordinate data resulting 
# from the CCDC's data processing and validation procedures.
#
#######################################################################

data_IDONIZ
_chemical_formula_moiety         'C10 H9 N3'
_chemical_name_systematic        2,4,6-Trimethylpyridine-3,5-dicarbonitrile
_symmetry_cell_setting           monoclinic
_symmetry_space_group_name_H-M   'P 21/n'
_symmetry_Int_Tables_number      14
_space_group_name_Hall           '-P 2yn'
loop_
_symmetry_equiv_pos_site_id
_symmetry_equiv_pos_as_xyz
1 x,y,z
2 1/2-x,1/2+y,1/2-z
3 -x,-y,-z
4 1/2+x,1/2-y,1/2+z
_cell_length_a                   15.4261(17)
_cell_length_b                   8.0266(9)
_cell_length_c                   16.6153(19)
_cell_angle_alpha                90
_cell_angle_beta                 113.802(2)
_cell_angle_gamma                90
_cell_volume                     1882.31
_exptl_crystal_colour            colorless
_exptl_crystal_description       block
_cell_formula_units_Z            8
_exptl_crystal_recrystallization_method sublimation
loop_
_atom_site_label
_atom_site_type_symbol
_atom_site_fract_x
_atom_site_fract_y
_atom_site_fract_z
C1 C 1.01217(14) 0.2741(2) 0.03255(13)
C2 C 1.07121(13) 0.3295(2) 0.11575(12)
C3 C 1.02753(12) 0.4186(2) 0.16128(12)
C4 C 0.93003(13) 0.4494(2) 0.12340(12)
C5 C 0.91483(14) 0.3068(2) -0.00224(12)
C6 C 1.05179(16) 0.1805(3) -0.01805(14)
C7 C 1.17555(13) 0.2945(3) 0.15518(14)
H1 H 1.1862 0.1806 0.1742
H2 H 1.2063 0.3667 0.2046
H3 H 1.2010 0.3139 0.1119
C8 C 1.08406(14) 0.4798(3) 0.24828(15)
C9 C 0.88195(15) 0.5461(3) 0.17070(14)
H4 H 0.8686 0.6568 0.1470
H5 H 0.9226 0.5516 0.2322
H6 H 0.8238 0.4918 0.1633
C10 C 0.84881(16) 0.2436(3) -0.09035(13)
H7 H 0.8143 0.1496 -0.0828
H8 H 0.8845 0.2105 -0.1235
H9 H 0.8051 0.3302 -0.1214
N1 N 0.87586(10) 0.3951(2) 0.04283(10)
N2 N 1.08474(17) 0.1052(3) -0.05664(15)
N3 N 1.12874(15) 0.5306(3) 0.31635(14)
C11 C 0.49919(14) 0.4157(2) 0.14443(13)
C12 C 0.44905(13) 0.3366(2) 0.06488(13)
C13 C 0.50347(14) 0.2699(2) 0.02335(12)
C14 C 0.60198(14) 0.2819(2) 0.06067(14)
C15 C 0.59798(15) 0.4283(3) 0.17871(13)
C16 C 0.44750(17) 0.4867(3) 0.19165(16)
C17 C 0.34348(13) 0.3225(3) 0.02521(14)
H10 H 0.3207 0.3259 -0.0377
H11 H 0.3168 0.4135 0.0450
H12 H 0.3252 0.2191 0.0428
C18 C 0.45718(16) 0.1849(3) -0.05931(15)
C19 C 0.66179(15) 0.2052(3) 0.01870(16)
H13 H 0.7204 0.2651 0.0364
H14 H 0.6288 0.2103 -0.0441
H15 H 0.6746 0.0911 0.0368
C20 C 0.65342(17) 0.5166(3) 0.26293(14)
H16 H 0.7185 0.4821 0.2848
H17 H 0.6280 0.4898 0.3054
H18 H 0.6495 0.6346 0.2529
N4 N 0.64776(11) 0.3611(2) 0.13705(11)
N5 N 0.40463(16) 0.5415(3) 0.22746(16)
N6 N 0.42047(15) 0.1177(3) -0.12460(14)
loop_
_geom_bond_atom_site_label_1
_geom_bond_atom_site_label_2
_geom_bond_site_symmetry_1
_geom_bond_site_symmetry_2
C1 C2 1_555 1_555
C2 C3 1_555 1_555
C3 C4 1_555 1_555
C4 C9 1_555 1_555
C5 C1 1_555 1_555
C6 C1 1_555 1_555
C7 C2 1_555 1_555
H1 C7 1_555 1_555
H2 C7 1_555 1_555
H3 C7 1_555 1_555
C8 C3 1_555 1_555
C9 H4 1_555 1_555
H5 C9 1_555 1_555
H6 C9 1_555 1_555
C10 C5 1_555 1_555
H7 C10 1_555 1_555
H8 C10 1_555 1_555
H9 C10 1_555 1_555
N1 C4 1_555 1_555
N2 C6 1_555 1_555
N3 C8 1_555 1_555
C11 C12 1_555 1_555
C12 C13 1_555 1_555
C13 C14 1_555 1_555
C14 C19 1_555 1_555
C15 C11 1_555 1_555
C16 C11 1_555 1_555
C17 C12 1_555 1_555
H10 C17 1_555 1_555
H11 C17 1_555 1_555
H12 C17 1_555 1_555
C18 C13 1_555 1_555
C19 H13 1_555 1_555
H14 C19 1_555 1_555
H15 C19 1_555 1_555
C20 C15 1_555 1_555
H16 C20 1_555 1_555
H17 C20 1_555 1_555
H18 C20 1_555 1_555
N4 C14 1_555 1_555
N5 C16 1_555 1_555
N6 C18 1_555 1_555
C5 N1 1_555 1_555
C15 N4 1_555 1_555

#END
