
#######################################################################
#
#                 Cambridge Crystallographic Data Centre
#                                CCDC 
#
#######################################################################
#
# If this CIF has been generated from an entry in the Cambridge 
# Structural Database, then it will include bibliographic, chemical, 
# crystal, experimental, refinement or atomic coordinate data resulting 
# from the CCDC's data processing and validation procedures.
#
#######################################################################

data_IDOQOK
_chemical_formula_moiety         'C19 H15 N1 O4 S1'
_chemical_name_systematic        
'methyl (5,5-dioxo-2-phenyl-5H-5-pyrrolo[1,2-b][1,2]benzothiazol-3-yl)acetate'
_symmetry_cell_setting           monoclinic
_symmetry_space_group_name_H-M   'P 21/c'
_symmetry_Int_Tables_number      14
_space_group_name_Hall           '-P 2ybc'
loop_
_symmetry_equiv_pos_site_id
_symmetry_equiv_pos_as_xyz
1 x,y,z
2 -x,1/2+y,1/2-z
3 -x,-y,-z
4 x,1/2-y,1/2+z
_cell_length_a                   16.3964(5)
_cell_length_b                   24.3356(7)
_cell_length_c                   8.2487(2)
_cell_angle_alpha                90
_cell_angle_beta                 94.4600(10)
_cell_angle_gamma                90
_cell_volume                     3281.4
_exptl_crystal_colour            yellow
_exptl_crystal_description       block
_cell_formula_units_Z            8
loop_
_atom_site_label
_atom_site_type_symbol
_atom_site_fract_x
_atom_site_fract_y
_atom_site_fract_z
S1 S 0.82105(3) 0.35760(2) 0.15930(5)
O1 O 0.91084(10) 0.42380(5) 0.59651(17)
O2 O 0.77452(8) 0.39274(6) 0.25495(19)
O3 O 0.90938(9) 0.49304(5) 0.41827(16)
O4 O 0.85285(10) 0.38073(6) 0.01797(17)
N1 N 0.89753(9) 0.32979(6) 0.27778(18)
C1 C 0.96705(11) 0.35075(7) 0.3626(2)
C2 C 1.09397(11) 0.30735(7) 0.5065(2)
C3 C 1.01209(11) 0.30608(7) 0.4188(2)
C4 C 0.82721(11) 0.25075(7) 0.1857(2)
C5 C 1.11493(11) 0.34530(7) 0.6295(2)
H1 H 1.0752 0.3707 0.6615
C6 C 0.93017(11) 0.44745(7) 0.4595(2)
C7 C 0.96912(11) 0.25714(7) 0.3653(2)
H2 H 0.9865 0.2204 0.3866
C8 C 0.89911(11) 0.27268(7) 0.2786(2)
C9 C 0.80442(12) 0.19632(8) 0.1562(2)
H3 H 0.8372 0.1670 0.2011
C10 C 0.77691(11) 0.29259(7) 0.1178(2)
C11 C 0.98430(11) 0.41126(7) 0.3635(2)
H4 H 1.0273 0.4263 0.3065
C12 C 1.19332(12) 0.34621(8) 0.7052(2)
H5 H 1.2071 0.3723 0.7885
C13 C 0.73299(12) 0.18568(8) 0.0601(2)
H6 H 0.7172 0.1487 0.0389
C14 C 1.25179(12) 0.30914(8) 0.6602(2)
H7 H 1.3055 0.3098 0.7124
C15 C 1.15318(12) 0.27014(8) 0.4625(2)
H8 H 1.1397 0.2439 0.3795
C16 C 0.68389(12) 0.22812(8) -0.0060(2)
H9 H 0.6353 0.2197 -0.0715
C17 C 0.70534(12) 0.28268(8) 0.0230(2)
H10 H 0.6721 0.3119 -0.0206
C18 C 1.23140(12) 0.27118(8) 0.5387(3)
H11 H 1.2713 0.2458 0.5075
C19 C 0.86263(18) 0.45815(9) 0.6961(3)
H12 H 0.8508 0.4380 0.7945
H13 H 0.8933 0.4916 0.7266
H14 H 0.8112 0.4680 0.6346
S2 S 0.57191(3) 0.41906(2) 0.20785(6)
O5 O 0.57962(8) 0.37689(5) 0.32878(17)
O6 O 0.47708(9) 0.27299(5) 0.09976(17)
O7 O 0.60351(9) 0.40817(6) 0.05484(17)
O8 O 0.39662(9) 0.30225(6) 0.29043(18)
N2 N 0.47304(10) 0.43746(6) 0.1775(2)
C20 C 0.42541(11) 0.30820(7) 0.1626(2)
C21 C 0.40217(12) 0.41016(8) 0.1220(2)
C22 C 0.25119(12) 0.43375(8) 0.0963(2)
C23 C 0.52825(12) 0.51723(8) 0.2993(2)
C24 C 0.21561(13) 0.38569(8) 0.1504(2)
H15 H 0.2476 0.3609 0.2180
C25 C 0.59804(12) 0.48440(7) 0.2909(2)
C26 C 0.37206(12) 0.49614(8) 0.2069(2)
H16 H 0.3421 0.5283 0.2297
C27 C 0.33834(12) 0.44593(8) 0.1400(2)
C28 C 0.45474(12) 0.48973(7) 0.2320(2)
C29 C 0.67538(12) 0.50086(8) 0.3499(2)
H17 H 0.7217 0.4779 0.3412
C30 C 0.20260(13) 0.46992(9) -0.0016(2)
H18 H 0.2257 0.5030 -0.0387
C31 C 0.40566(13) 0.35506(8) 0.0444(2)
H19 H 0.4476 0.3559 -0.0357
H20 H 0.3522 0.3476 -0.0159
C32 C 0.13421(13) 0.37361(9) 0.1067(2)
H21 H 0.1108 0.3407 0.1440
C33 C 0.61402(14) 0.58549(8) 0.4345(3)
H22 H 0.6201 0.6204 0.4858
C34 C 0.53716(14) 0.56861(8) 0.3732(3)
H23 H 0.4910 0.5918 0.3813
C35 C 0.68284(13) 0.55237(8) 0.4225(3)
H24 H 0.7351 0.5651 0.4643
C36 C 0.12124(13) 0.45789(9) -0.0450(2)
H25 H 0.0889 0.4827 -0.1115
C37 C 0.08680(13) 0.40973(10) 0.0084(2)
H26 H 0.0311 0.4014 -0.0221
C38 C 0.49505(13) 0.22335(8) 0.1912(3)
H27 H 0.5333 0.2007 0.1344
H28 H 0.5198 0.2328 0.2995
H29 H 0.4443 0.2028 0.2016
loop_
_geom_bond_atom_site_label_1
_geom_bond_atom_site_label_2
_geom_bond_site_symmetry_1
_geom_bond_site_symmetry_2
S1 O2 1_555 1_555
O1 C6 1_555 1_555
O3 C6 1_555 1_555
O4 S1 1_555 1_555
N1 S1 1_555 1_555
C1 N1 1_555 1_555
C2 C3 1_555 1_555
C3 C1 1_555 1_555
C4 C8 1_555 1_555
C5 C2 1_555 1_555
H1 C5 1_555 1_555
C6 C11 1_555 1_555
C7 C3 1_555 1_555
H2 C7 1_555 1_555
C8 N1 1_555 1_555
C9 C4 1_555 1_555
H3 C9 1_555 1_555
C10 S1 1_555 1_555
C11 C1 1_555 1_555
H4 C11 1_555 1_555
C12 C5 1_555 1_555
H5 C12 1_555 1_555
C13 C9 1_555 1_555
H6 C13 1_555 1_555
C14 C12 1_555 1_555
H7 C14 1_555 1_555
C15 C2 1_555 1_555
H8 C15 1_555 1_555
C16 C13 1_555 1_555
H9 C16 1_555 1_555
C17 C10 1_555 1_555
H10 C17 1_555 1_555
C18 C14 1_555 1_555
H11 C18 1_555 1_555
C19 O1 1_555 1_555
H12 C19 1_555 1_555
H13 C19 1_555 1_555
H14 C19 1_555 1_555
S2 O5 1_555 1_555
O6 C20 1_555 1_555
O7 S2 1_555 1_555
O8 C20 1_555 1_555
N2 S2 1_555 1_555
C20 C31 1_555 1_555
C21 N2 1_555 1_555
C22 C24 1_555 1_555
C23 C25 1_555 1_555
C24 H15 1_555 1_555
C25 S2 1_555 1_555
C26 H16 1_555 1_555
C27 C21 1_555 1_555
C28 N2 1_555 1_555
C29 C25 1_555 1_555
H17 C29 1_555 1_555
C30 C22 1_555 1_555
H18 C30 1_555 1_555
C31 C21 1_555 1_555
H19 C31 1_555 1_555
H20 C31 1_555 1_555
C32 C24 1_555 1_555
H21 C32 1_555 1_555
C33 H22 1_555 1_555
C34 C23 1_555 1_555
H23 C34 1_555 1_555
C35 C29 1_555 1_555
H24 C35 1_555 1_555
C36 C30 1_555 1_555
H25 C36 1_555 1_555
C37 C32 1_555 1_555
H26 C37 1_555 1_555
C38 O6 1_555 1_555
H27 C38 1_555 1_555
H28 C38 1_555 1_555
H29 C38 1_555 1_555
C4 C10 1_555 1_555
C7 C8 1_555 1_555
C15 C18 1_555 1_555
C16 C17 1_555 1_555
C22 C27 1_555 1_555
C23 C28 1_555 1_555
C26 C27 1_555 1_555
C26 C28 1_555 1_555
C33 C34 1_555 1_555
C33 C35 1_555 1_555
C36 C37 1_555 1_555

#END
