
#######################################################################
#
#                 Cambridge Crystallographic Data Centre
#                                CCDC 
#
#######################################################################
#
# If this CIF has been generated from an entry in the Cambridge 
# Structural Database, then it will include bibliographic, chemical, 
# crystal, experimental, refinement or atomic coordinate data resulting 
# from the CCDC's data processing and validation procedures.
#
#######################################################################

data_IDOQOI
_chemical_formula_moiety         'C13 H8 Cl3 N3 O1'
_chemical_name_systematic        
(E)-N'-(4-Chlorobenzylidene)-3,6-dichloropicolinohydrazide
_symmetry_cell_setting           monoclinic
_symmetry_space_group_name_H-M   'P 21/c'
_symmetry_Int_Tables_number      14
_space_group_name_Hall           '-P 2ybc'
loop_
_symmetry_equiv_pos_site_id
_symmetry_equiv_pos_as_xyz
1 x,y,z
2 -x,1/2+y,1/2-z
3 -x,-y,-z
4 x,1/2-y,1/2+z
_cell_length_a                   6.6081(18)
_cell_length_b                   14.072(4)
_cell_length_c                   15.133(4)
_cell_angle_alpha                90
_cell_angle_beta                 92.985(6)
_cell_angle_gamma                90
_cell_volume                     1405.3
_exptl_crystal_colour            yellow
_exptl_crystal_description       block
_chemical_melting_point          491-493K
_cell_formula_units_Z            4
_exptl_crystal_recrystallization_method ethanol
loop_
_atom_site_label
_atom_site_type_symbol
_atom_site_fract_x
_atom_site_fract_y
_atom_site_fract_z
Cl1 Cl 0.45143(13) 0.10584(5) 0.45934(5)
Cl2 Cl 0.04559(12) 0.94857(5) 0.38124(6)
Cl3 Cl -0.70176(9) 0.71865(5) 0.24916(5)
O1 O -0.4269(3) 0.57677(11) 0.32639(14)
N1 N -0.0962(3) 0.60845(12) 0.35793(13)
H1 H -0.0038 0.6514 0.3631
N2 N -0.0471(3) 0.51450(12) 0.37289(13)
N3 N -0.1542(3) 0.79174(12) 0.35074(12)
C1 C -0.2891(3) 0.63312(15) 0.33522(15)
C2 C 0.1374(4) 0.49835(15) 0.39528(15)
H2 H 0.2276 0.5490 0.4008
C3 C 0.2113(3) 0.40186(15) 0.41261(14)
C4 C 0.4137(4) 0.38666(16) 0.43765(15)
H3 H 0.5011 0.4383 0.4440
C5 C 0.4871(4) 0.29597(17) 0.45326(15)
H4 H 0.6225 0.2865 0.4708
C6 C 0.3579(4) 0.22006(16) 0.44252(15)
C7 C 0.1569(4) 0.23290(17) 0.41728(18)
H5 H 0.0709 0.1809 0.4100
C8 C 0.0844(4) 0.32361(16) 0.40295(17)
H6 H -0.0519 0.3326 0.3865
C9 C -0.3152(3) 0.73920(14) 0.32300(14)
C10 C -0.1658(4) 0.88459(15) 0.34290(15)
C11 C -0.3314(4) 0.93286(16) 0.30604(16)
H7 H -0.3315 0.9987 0.3010
C12 C -0.4952(4) 0.87995(16) 0.27734(16)
H8 H -0.6098 0.9095 0.2518
C13 C -0.4894(3) 0.78187(16) 0.28655(15)
loop_
_geom_bond_atom_site_label_1
_geom_bond_atom_site_label_2
_geom_bond_site_symmetry_1
_geom_bond_site_symmetry_2
Cl1 C6 1_555 1_555
Cl2 C10 1_555 1_555
Cl3 C13 1_555 1_555
O1 C1 1_555 1_555
N1 H1 1_555 1_555
N2 N1 1_555 1_555
N3 C9 1_555 1_555
C1 N1 1_555 1_555
C2 N2 1_555 1_555
H2 C2 1_555 1_555
C3 C2 1_555 1_555
C4 C3 1_555 1_555
H3 C4 1_555 1_555
C5 C4 1_555 1_555
H4 C5 1_555 1_555
C6 C5 1_555 1_555
C7 C6 1_555 1_555
H5 C7 1_555 1_555
C8 C3 1_555 1_555
H6 C8 1_555 1_555
C9 C1 1_555 1_555
C10 N3 1_555 1_555
C11 C10 1_555 1_555
H7 C11 1_555 1_555
C12 C11 1_555 1_555
H8 C12 1_555 1_555
C13 C9 1_555 1_555
C7 C8 1_555 1_555
C12 C13 1_555 1_555

#END
