
#######################################################################
#
#                 Cambridge Crystallographic Data Centre
#                                CCDC 
#
#######################################################################
#
# If this CIF has been generated from an entry in the Cambridge 
# Structural Database, then it will include bibliographic, chemical, 
# crystal, experimental, refinement or atomic coordinate data resulting 
# from the CCDC's data processing and validation procedures.
#
#######################################################################

data_IDOQIC
_chemical_formula_moiety         'C17 H10 F6 O4 S2,0.25(C3 H6 O1)'
_chemical_name_systematic        
"5,5'-Dimethyl-4,4'-(3,3,4,4,5,5-hexafluorocyclopentene-1,2-diyl)-bis(thiophene-2-carboxylic acid) acetone solvate"
_symmetry_cell_setting           triclinic
_symmetry_space_group_name_H-M   'P -1'
_symmetry_Int_Tables_number      2
_space_group_name_Hall           '-P 1'
loop_
_symmetry_equiv_pos_site_id
_symmetry_equiv_pos_as_xyz
1 x,y,z
2 -x,-y,-z
_cell_length_a                   8.8885(11)
_cell_length_b                   15.1907(17)
_cell_length_c                   16.734(2)
_cell_angle_alpha                68.855(8)
_cell_angle_beta                 84.902(9)
_cell_angle_gamma                75.965(10)
_cell_volume                     2044.43
_exptl_crystal_colour            colorless
_exptl_crystal_description       prism
_chemical_melting_point          428-429K
_cell_formula_units_Z            4
_exptl_crystal_recrystallization_method acetone/hexane(2:1)
loop_
_atom_site_label
_atom_site_type_symbol
_atom_site_fract_x
_atom_site_fract_y
_atom_site_fract_z
S1 S 1.19205(10) 0.74957(5) 0.39120(5)
S2 S 1.02762(10) 1.08593(6) 0.07307(6)
O1 O 1.4763(2) 0.59428(14) 0.41921(13)
O2 O 1.4186(3) 0.52955(14) 0.32863(15)
H1 H 1.4994 0.4898 0.3474
O3 O 0.8548(3) 1.28242(16) -0.01475(18)
O4 O 0.6164(3) 1.25527(16) 0.01466(16)
H2 H 0.5914 1.3140 -0.0104
F1 F 0.5366(2) 0.91163(14) 0.16565(15)
F2 F 0.6447(2) 0.90601(16) 0.04732(13)
F3 F 0.5217(2) 0.73916(17) 0.1815(2)
F4 F 0.7144(4) 0.72465(18) 0.09837(18)
F5 F 0.8544(3) 0.62425(14) 0.2378(2)
F6 F 0.6955(3) 0.69443(18) 0.31087(17)
C1 C 0.8711(3) 0.78212(19) 0.22515(19)
C2 C 0.8097(3) 0.86889(19) 0.16554(18)
C3 C 0.6602(3) 0.8647(2) 0.1324(2)
C4 C 0.6582(4) 0.7583(3) 0.1644(3)
C5 C 0.7756(4) 0.7103(2) 0.2345(3)
C6 C 1.0214(3) 0.80153(19) 0.33484(19)
C7 C 1.0045(3) 0.75323(19) 0.28233(19)
C8 C 1.1303(3) 0.67189(19) 0.29009(19)
H3 H 1.1363 0.6301 0.2602
C9 C 1.2394(3) 0.66215(19) 0.34549(19)
C10 C 0.9148(4) 0.8876(2) 0.3479(2)
H4 H 0.8093 0.8847 0.3433
H5 H 0.9348 0.9457 0.3050
H6 H 0.9315 0.8877 0.4037
C11 C 1.3888(3) 0.59142(19) 0.36728(19)
C12 C 1.0163(3) 0.9684(2) 0.12016(18)
C13 C 0.8638(3) 0.9591(2) 0.13173(18)
C14 C 0.7583(3) 1.0509(2) 0.09955(19)
H7 H 0.6511 1.0589 0.1013
C15 C 0.8311(4) 1.1258(2) 0.06589(19)
C16 C 1.1650(3) 0.8920(2) 0.1386(2)
H8 H 1.1491 0.8349 0.1316
H9 H 1.1968 0.8764 0.1964
H10 H 1.2440 0.9158 0.0996
C17 C 0.7633(4) 1.2284(2) 0.0198(2)
S3 S 0.09609(10) 0.39194(5) 0.45779(6)
S4 S 0.64401(10) 0.35530(6) 0.18364(6)
O5 O -0.3017(2) 0.41552(15) 0.35934(15)
O6 O -0.2366(2) 0.49106(13) 0.43895(13)
H11 H -0.3292 0.5175 0.4336
O7 O 0.4917(3) 0.55907(17) 0.08137(18)
O8 O 0.2510(3) 0.54494(17) 0.12385(19)
H12 H 0.2277 0.5943 0.0816
F7 F 0.4814(3) 0.06947(15) 0.23910(16)
F8 F 0.5587(3) 0.01724(15) 0.3701(2)
F9 F 0.2122(3) 0.03388(17) 0.28494(16)
F10 F 0.3433(3) -0.07071(14) 0.39361(19)
F11 F 0.0562(2) 0.08947(13) 0.39895(16)
F12 F 0.2453(3) 0.03370(14) 0.48653(14)
C18 C 0.2570(3) 0.17558(19) 0.36835(19)
C19 C 0.3824(3) 0.17218(19) 0.3185(2)
C20 C 0.4345(4) 0.0717(2) 0.3140(3)
C21 C 0.3016(5) 0.0232(2) 0.3500(3)
C22 C 0.2074(4) 0.0812(2) 0.4022(2)
C23 C 0.2331(3) 0.3004(2) 0.4391(2)
C24 C 0.1698(3) 0.25780(19) 0.39359(18)
C25 C 0.0110(3) 0.29972(19) 0.37594(19)
H13 H -0.0493 0.2790 0.3468
C26 C -0.0448(3) 0.37337(19) 0.40580(18)
C27 C 0.3965(4) 0.2755(2) 0.4704(2)
H14 H 0.4356 0.2065 0.4890
H15 H 0.3981 0.2972 0.5175
H16 H 0.4603 0.3067 0.4248
C28 C -0.2053(3) 0.4291(2) 0.40033(19)
C29 C 0.6110(4) 0.2461(2) 0.2501(2)
C30 C 0.4552(3) 0.2516(2) 0.2677(2)
C31 C 0.3659(4) 0.3463(2) 0.2261(2)
H17 H 0.2588 0.3636 0.2315
C32 C 0.4514(4) 0.4095(2) 0.1777(2)
C33 C 0.7488(4) 0.1630(3) 0.2816(3)
H18 H 0.7488 0.1380 0.3431
H19 H 0.8423 0.1851 0.2613
H20 H 0.7434 0.1128 0.2606
C34 C 0.3977(4) 0.5106(2) 0.1242(2)
O9 O 0.0476(6) 0.2636(4) 0.1921(3)
C35 C 0.1823(8) 0.3143(7) 0.0649(4)
H21 H 0.2464 0.3601 0.0532
H22 H 0.1308 0.3242 0.0132
H23 H 0.2456 0.2496 0.0855
C36 C 0.0668(7) 0.3278(4) 0.1297(4)
C37 C -0.0119(9) 0.4300(4) 0.1064(7)
H24 H 0.0195 0.4565 0.1446
H25 H -0.1221 0.4359 0.1105
H26 H 0.0150 0.4649 0.0487
loop_
_geom_bond_atom_site_label_1
_geom_bond_atom_site_label_2
_geom_bond_site_symmetry_1
_geom_bond_site_symmetry_2
S1 C6 1_555 1_555
S2 C12 1_555 1_555
O1 C11 1_555 1_555
O2 H1 1_555 1_555
O3 C17 1_555 1_555
O4 H2 1_555 1_555
F1 C3 1_555 1_555
F2 C3 1_555 1_555
F3 C4 1_555 1_555
F4 C4 1_555 1_555
F5 C5 1_555 1_555
F6 C5 1_555 1_555
C1 C2 1_555 1_555
C2 C3 1_555 1_555
C3 C4 1_555 1_555
C4 C5 1_555 1_555
C5 C1 1_555 1_555
C6 C7 1_555 1_555
C7 C1 1_555 1_555
C8 C7 1_555 1_555
H3 C8 1_555 1_555
C9 S1 1_555 1_555
C10 C6 1_555 1_555
H4 C10 1_555 1_555
H5 C10 1_555 1_555
H6 C10 1_555 1_555
C11 O2 1_555 1_555
C12 C13 1_555 1_555
C13 C2 1_555 1_555
C14 C13 1_555 1_555
H7 C14 1_555 1_555
C15 S2 1_555 1_555
C16 C12 1_555 1_555
H8 C16 1_555 1_555
H9 C16 1_555 1_555
H10 C16 1_555 1_555
C17 O4 1_555 1_555
S3 C23 1_555 1_555
S4 C29 1_555 1_555
O5 C28 1_555 1_555
O6 H11 1_555 1_555
O7 C34 1_555 1_555
O8 H12 1_555 1_555
F7 C20 1_555 1_555
F8 C20 1_555 1_555
F9 C21 1_555 1_555
F10 C21 1_555 1_555
F11 C22 1_555 1_555
F12 C22 1_555 1_555
C18 C19 1_555 1_555
C19 C20 1_555 1_555
C20 C21 1_555 1_555
C21 C22 1_555 1_555
C22 C18 1_555 1_555
C23 C24 1_555 1_555
C24 C18 1_555 1_555
C25 C24 1_555 1_555
H13 C25 1_555 1_555
C26 S3 1_555 1_555
C27 C23 1_555 1_555
H14 C27 1_555 1_555
H15 C27 1_555 1_555
H16 C27 1_555 1_555
C28 O6 1_555 1_555
C29 C30 1_555 1_555
C30 C19 1_555 1_555
C31 C30 1_555 1_555
H17 C31 1_555 1_555
C32 S4 1_555 1_555
C33 C29 1_555 1_555
H18 C33 1_555 1_555
H19 C33 1_555 1_555
H20 C33 1_555 1_555
C34 O8 1_555 1_555
O9 C36 1_555 1_555
C35 H21 1_555 1_555
H22 C35 1_555 1_555
H23 C35 1_555 1_555
C36 C35 1_555 1_555
C37 C36 1_555 1_555
H24 C37 1_555 1_555
H25 C37 1_555 1_555
H26 C37 1_555 1_555
C8 C9 1_555 1_555
C9 C11 1_555 1_555
C14 C15 1_555 1_555
C15 C17 1_555 1_555
C25 C26 1_555 1_555
C26 C28 1_555 1_555
C31 C32 1_555 1_555
C32 C34 1_555 1_555

#END
