
#######################################################################
#
#                 Cambridge Crystallographic Data Centre
#                                CCDC 
#
#######################################################################
#
# If this CIF has been generated from an entry in the Cambridge 
# Structural Database, then it will include bibliographic, chemical, 
# crystal, experimental, refinement or atomic coordinate data resulting 
# from the CCDC's data processing and validation procedures.
#
#######################################################################

data_IDOSUQ
_chemical_formula_moiety         'C10 H12 O2'
_chemical_name_systematic        1-(4-Hydroxyphenyl)butan-1-one
_symmetry_cell_setting           monoclinic
_symmetry_space_group_name_H-M   'P 21/c'
_symmetry_Int_Tables_number      14
_space_group_name_Hall           '-P 2ybc'
loop_
_symmetry_equiv_pos_site_id
_symmetry_equiv_pos_as_xyz
1 x,y,z
2 -x,1/2+y,1/2-z
3 -x,-y,-z
4 x,1/2-y,1/2+z
_cell_length_a                   8.2650(17)
_cell_length_b                   30.986(6)
_cell_length_c                   7.9200(16)
_cell_angle_alpha                90
_cell_angle_beta                 116.94(3)
_cell_angle_gamma                90
_cell_volume                     1808.2
_exptl_crystal_colour            colorless
_exptl_crystal_description       needle
_cell_formula_units_Z            8
_exptl_crystal_recrystallization_method methanol
loop_
_atom_site_label
_atom_site_type_symbol
_atom_site_fract_x
_atom_site_fract_y
_atom_site_fract_z
O1 O -0.4771(5) 0.22671(13) 0.1732(6)
O2 O 0.2550(5) 0.17292(12) 0.1646(6)
H1 H 0.3289 0.1909 0.1669
C1 C -0.5372(8) 0.36500(19) 0.1839(9)
H2 H -0.6415 0.3753 0.1948
H3 H -0.5399 0.3757 0.0690
H4 H -0.4288 0.3749 0.2903
C2 C -0.5391(7) 0.31562(19) 0.1803(8)
H5 H -0.5390 0.3049 0.2955
H6 H -0.6497 0.3058 0.0740
C3 C -0.3767(7) 0.29718(17) 0.1636(7)
H7 H -0.3811 0.3075 0.0460
H8 H -0.2676 0.3089 0.2662
C4 C -0.3595(8) 0.25042(19) 0.1675(7)
C5 C -0.1943(7) 0.22989(18) 0.1683(7)
C6 C -0.0619(7) 0.25593(17) 0.1548(7)
H9 H -0.0759 0.2858 0.1459
C7 C 0.0902(7) 0.23694(18) 0.1547(7)
H10 H 0.1787 0.2541 0.1467
C8 C 0.1100(7) 0.19344(18) 0.1662(8)
C9 C -0.0182(8) 0.16760(18) 0.1832(8)
H11 H -0.0022 0.1378 0.1947
C10 C -0.1698(7) 0.18612(18) 0.1829(7)
H12 H -0.2567 0.1687 0.1926
O3 O 0.0576(5) 0.02244(12) 0.2345(5)
O4 O 0.7685(5) 0.07440(11) 0.1739(5)
H13 H 0.8496 0.0569 0.1937
C11 C 0.0331(7) -0.11393(18) 0.3310(9)
H14 H -0.0698 -0.1236 0.3464
H15 H 0.1426 -0.1210 0.4424
H16 H 0.0335 -0.1279 0.2230
C12 C 0.0217(7) -0.06545(18) 0.3015(7)
H17 H -0.0897 -0.0584 0.1897
H18 H 0.0182 -0.0515 0.4094
C13 C 0.1820(6) -0.04843(16) 0.2777(7)
H19 H 0.1843 -0.0629 0.1702
H20 H 0.2923 -0.0563 0.3892
C14 C 0.1854(7) -0.00005(18) 0.2483(7)
C15 C 0.3432(6) 0.01835(15) 0.2335(7)
C16 C 0.3457(7) 0.06170(16) 0.1985(7)
H21 H 0.2487 0.0788 0.1873
C17 C 0.4876(7) 0.08073(16) 0.1794(7)
H22 H 0.4866 0.1101 0.1542
C18 C 0.6319(7) 0.05467(17) 0.1990(7)
C19 C 0.6351(6) 0.01228(16) 0.2357(7)
H23 H 0.7327 -0.0047 0.2485
C20 C 0.4916(6) -0.00549(16) 0.2541(6)
H24 H 0.4948 -0.0348 0.2815
loop_
_geom_bond_atom_site_label_1
_geom_bond_atom_site_label_2
_geom_bond_site_symmetry_1
_geom_bond_site_symmetry_2
O1 C4 1_555 1_555
O2 H1 1_555 1_555
C1 H2 1_555 1_555
H3 C1 1_555 1_555
H4 C1 1_555 1_555
C2 C1 1_555 1_555
H5 C2 1_555 1_555
H6 C2 1_555 1_555
C3 C2 1_555 1_555
H7 C3 1_555 1_555
H8 C3 1_555 1_555
C4 C3 1_555 1_555
C5 C4 1_555 1_555
C6 C5 1_555 1_555
H9 C6 1_555 1_555
C7 C6 1_555 1_555
H10 C7 1_555 1_555
C8 O2 1_555 1_555
C9 C8 1_555 1_555
H11 C9 1_555 1_555
C10 C5 1_555 1_555
H12 C10 1_555 1_555
O3 C14 1_555 1_555
O4 H13 1_555 1_555
C11 H14 1_555 1_555
H15 C11 1_555 1_555
H16 C11 1_555 1_555
C12 C11 1_555 1_555
H17 C12 1_555 1_555
H18 C12 1_555 1_555
C13 C12 1_555 1_555
H19 C13 1_555 1_555
H20 C13 1_555 1_555
C14 C13 1_555 1_555
C15 C14 1_555 1_555
C16 C15 1_555 1_555
H21 C16 1_555 1_555
C17 C16 1_555 1_555
H22 C17 1_555 1_555
C18 O4 1_555 1_555
C19 C18 1_555 1_555
H23 C19 1_555 1_555
C20 C15 1_555 1_555
H24 C20 1_555 1_555
C7 C8 1_555 1_555
C9 C10 1_555 1_555
C17 C18 1_555 1_555
C19 C20 1_555 1_555

#END
