
#######################################################################
#
#                 Cambridge Crystallographic Data Centre
#                                CCDC 
#
#######################################################################
#
# If this CIF has been generated from an entry in the Cambridge 
# Structural Database, then it will include bibliographic, chemical, 
# crystal, experimental, refinement or atomic coordinate data resulting 
# from the CCDC's data processing and validation procedures.
#
#######################################################################

data_IDOVUT
_chemical_compound_source        
'novel marine gliding bacterium GB009 from seaweed'
_chemical_name_common            'Marinoquinoline A'
_chemical_formula_moiety         'C12 H10 N2'
_chemical_name_systematic        4-Methyl-3H-pyrrolo(2,3-c)quinoline
_chemical_properties_biological  'biological activity'
_symmetry_cell_setting           orthorhombic
_symmetry_space_group_name_H-M   'P 21 21 2'
_symmetry_Int_Tables_number      18
_space_group_name_Hall           'P 2 2ab'
loop_
_symmetry_equiv_pos_site_id
_symmetry_equiv_pos_as_xyz
1 x,y,z
2 -x,-y,z
3 1/2+x,1/2-y,-z
4 1/2-x,1/2+y,-z
_cell_length_a                   20.2212(5)
_cell_length_b                   18.0889(4)
_cell_length_c                   5.10030(10)
_cell_angle_alpha                90
_cell_angle_beta                 90
_cell_angle_gamma                90
_cell_volume                     1865.58
_exptl_crystal_colour            colorless
_exptl_crystal_description       Needle
_cell_formula_units_Z            8
_exptl_crystal_recrystallization_method acetone/chloroform/hexane
loop_
_atom_site_label
_atom_site_type_symbol
_atom_site_fract_x
_atom_site_fract_y
_atom_site_fract_z
N1 N 0.01853(9) 0.28211(9) -0.2448(4)
N2 N 0.17228(9) 0.37513(10) -0.0380(4)
H1 H 0.1820(13) 0.4236(16) -0.111(7)
C1 C 0.07473(10) 0.21520(11) 0.1131(5)
C2 C 0.07379(11) 0.15467(12) 0.2877(5)
H2 H 0.1077 0.1491 0.4094
C3 C 0.02331(12) 0.10392(12) 0.2796(5)
H3 H 0.0228 0.0647 0.3973
C4 C -0.02751(11) 0.11124(12) 0.0938(5)
H4 H -0.0612 0.0763 0.0871
C5 C -0.02779(11) 0.16969(11) -0.0783(5)
H5 H -0.0616 0.1739 -0.2008
C6 C 0.02280(10) 0.22354(11) -0.0710(5)
C7 C 0.06572(10) 0.33290(11) -0.2488(5)
C8 C 0.11950(11) 0.32800(11) -0.0719(5)
C9 C 0.12551(11) 0.26998(11) 0.1089(5)
C10 C 0.18423(11) 0.28295(12) 0.2546(5)
H6 H 0.2014 0.2535 0.3874
C11 C 0.21042(11) 0.34749(13) 0.1604(5)
H7 H 0.2489 0.3695 0.2228
C12 C 0.06065(12) 0.39451(12) -0.4459(5)
H8 H 0.0245 0.3849 -0.5630
H9 H 0.1010 0.3975 -0.5443
H10 H 0.0532 0.4404 -0.3563
N3 N 0.30181(9) 0.01959(9) 0.2508(4)
N4 N 0.38891(10) 0.18948(10) 0.4531(4)
H11 H 0.4293(14) 0.1977(14) 0.372(6)
C13 C 0.24340(11) 0.08527(11) 0.6087(5)
C14 C 0.18923(11) 0.08649(13) 0.7815(5)
H12 H 0.1857 0.1243 0.9044
C15 C 0.14148(11) 0.03248(12) 0.7709(5)
H13 H 0.1058 0.0340 0.8856
C16 C 0.14657(11) -0.02505(12) 0.5871(6)
H14 H 0.1141 -0.0614 0.5802
C17 C 0.19938(11) -0.02795(12) 0.4174(5)
H15 H 0.2022 -0.0661 0.2958
C18 C 0.24939(11) 0.02647(11) 0.4260(5)
C19 C 0.34857(10) 0.07084(11) 0.2466(5)
C20 C 0.34557(10) 0.13142(11) 0.4218(5)
C21 C 0.29393(11) 0.14024(11) 0.6024(5)
C22 C 0.30680(11) 0.20621(12) 0.7444(5)
H16 H 0.2809 0.2266 0.8765
C23 C 0.36511(11) 0.23375(12) 0.6478(5)
H17 H 0.3856 0.2767 0.7069
C24 C 0.40355(11) 0.06393(13) 0.0499(5)
H18 H 0.3960 0.0214 -0.0585
H19 H 0.4449 0.0585 0.1401
H20 H 0.4048 0.1075 -0.0576
loop_
_geom_bond_atom_site_label_1
_geom_bond_atom_site_label_2
_geom_bond_site_symmetry_1
_geom_bond_site_symmetry_2
N1 C6 1_555 1_555
N2 H1 1_555 1_555
C1 C2 1_555 1_555
C2 H2 1_555 1_555
C3 C2 1_555 1_555
H3 C3 1_555 1_555
C4 C3 1_555 1_555
H4 C4 1_555 1_555
C5 C4 1_555 1_555
H5 C5 1_555 1_555
C6 C1 1_555 1_555
C7 N1 1_555 1_555
C8 N2 1_555 1_555
C9 C1 1_555 1_555
C10 C9 1_555 1_555
H6 C10 1_555 1_555
C11 N2 1_555 1_555
H7 C11 1_555 1_555
C12 C7 1_555 1_555
H8 C12 1_555 1_555
H9 C12 1_555 1_555
H10 C12 1_555 1_555
N3 C18 1_555 1_555
N4 H11 1_555 1_555
C13 C14 1_555 1_555
C14 H12 1_555 1_555
C15 C14 1_555 1_555
H13 C15 1_555 1_555
C16 C15 1_555 1_555
H14 C16 1_555 1_555
C17 C16 1_555 1_555
H15 C17 1_555 1_555
C18 C13 1_555 1_555
C19 N3 1_555 1_555
C20 N4 1_555 1_555
C21 C13 1_555 1_555
C22 C21 1_555 1_555
H16 C22 1_555 1_555
C23 N4 1_555 1_555
H17 C23 1_555 1_555
C24 C19 1_555 1_555
H18 C24 1_555 1_555
H19 C24 1_555 1_555
H20 C24 1_555 1_555
C5 C6 1_555 1_555
C7 C8 1_555 1_555
C8 C9 1_555 1_555
C10 C11 1_555 1_555
C17 C18 1_555 1_555
C19 C20 1_555 1_555
C20 C21 1_555 1_555
C22 C23 1_555 1_555

#END
