
#######################################################################
#
#                 Cambridge Crystallographic Data Centre
#                                CCDC 
#
#######################################################################
#
# If this CIF has been generated from an entry in the Cambridge 
# Structural Database, then it will include bibliographic, chemical, 
# crystal, experimental, refinement or atomic coordinate data resulting 
# from the CCDC's data processing and validation procedures.
#
#######################################################################

data_IDOWOO
_chemical_formula_moiety         'C21 H16 N2 O5'
_chemical_name_systematic        
'Methyl 3-amino-1-(3-nitrophenyl)-1H-naphtho(2,1-b)pyran-2-carboxylate'
_symmetry_cell_setting           monoclinic
_symmetry_space_group_name_H-M   'P 21/c'
_symmetry_Int_Tables_number      14
_space_group_name_Hall           '-P 2ybc'
loop_
_symmetry_equiv_pos_site_id
_symmetry_equiv_pos_as_xyz
1 x,y,z
2 -x,1/2+y,1/2-z
3 -x,-y,-z
4 x,1/2-y,1/2+z
_cell_length_a                   12.094(2)
_cell_length_b                   8.5620(17)
_cell_length_c                   18.186(4)
_cell_angle_alpha                90
_cell_angle_beta                 108.92(3)
_cell_angle_gamma                90
_cell_volume                     1781.4
_exptl_crystal_colour            colorless
_exptl_crystal_description       Block
_chemical_melting_point          '446-448 K'
_cell_formula_units_Z            4
_exptl_crystal_recrystallization_method ethanol
loop_
_atom_site_label
_atom_site_type_symbol
_atom_site_fract_x
_atom_site_fract_y
_atom_site_fract_z
O1 O 0.0783(2) 0.3470(3) -0.13490(12)
O2 O 0.1384(3) 0.2208(3) -0.22294(13)
O3 O 0.4631(2) 0.1599(3) -0.05165(14)
O4 O -0.1041(2) 0.3351(4) 0.0420(2)
O5 O -0.1095(2) 0.1322(4) 0.11090(16)
N1 N 0.3520(3) 0.0912(3) -0.17013(17)
H1 H 0.2888 0.0876 -0.2093
H2 H 0.4138 0.0438 -0.1720
N2 N -0.0615(2) 0.2156(4) 0.07601(18)
C1 C -0.0358(4) 0.3802(6) -0.1936(2)
H3 H -0.0840 0.4363 -0.1698
H4 H -0.0733 0.2837 -0.2146
H5 H -0.0245 0.4421 -0.2346
C2 C 0.1594(3) 0.2675(4) -0.15602(18)
C3 C 0.2661(3) 0.2512(3) -0.09329(16)
C4 C 0.3544(3) 0.1709(4) -0.10586(19)
C5 C 0.4900(3) 0.2569(3) 0.01385(18)
C6 C 0.6083(3) 0.2640(4) 0.0562(2)
H6 H 0.6622 0.2073 0.0404
C7 C 0.6444(3) 0.3539(4) 0.1207(2)
H7 H 0.7236 0.3589 0.1490
C8 C 0.5635(3) 0.4408(3) 0.14578(16)
C9 C 0.5984(3) 0.5334(4) 0.21285(18)
H8 H 0.6772 0.5382 0.2422
C10 C 0.5197(3) 0.6166(4) 0.23616(18)
H9 H 0.5447 0.6767 0.2812
C11 C 0.4020(3) 0.6113(4) 0.19236(17)
H10 H 0.3484 0.6691 0.2080
C12 C 0.3639(3) 0.5227(3) 0.12677(16)
H11 H 0.2847 0.5209 0.0984
C13 C 0.4430(2) 0.4330(3) 0.10089(15)
C14 C 0.4061(2) 0.3369(3) 0.03324(15)
C15 C 0.2796(2) 0.3182(3) -0.01415(15)
H12 H 0.2434 0.4219 -0.0216
C16 C 0.2153(2) 0.2162(3) 0.02856(14)
C17 C 0.2586(3) 0.0694(3) 0.05726(16)
H13 H 0.3289 0.0353 0.0524
C18 C 0.1991(3) -0.0260(4) 0.09276(17)
H14 H 0.2299 -0.1230 0.1117
C19 C 0.0945(3) 0.0210(4) 0.10051(16)
H15 H 0.0536 -0.0425 0.1242
C20 C 0.0529(2) 0.1659(4) 0.07174(16)
C21 C 0.1104(2) 0.2630(3) 0.03579(16)
H16 H 0.0786 0.3594 0.0165
loop_
_geom_bond_atom_site_label_1
_geom_bond_atom_site_label_2
_geom_bond_site_symmetry_1
_geom_bond_site_symmetry_2
O1 C1 1_555 1_555
O2 C2 1_555 1_555
O3 C4 1_555 1_555
O4 N2 1_555 1_555
O5 N2 1_555 1_555
N1 H1 1_555 1_555
H2 N1 1_555 1_555
N2 C20 1_555 1_555
C1 H3 1_555 1_555
H4 C1 1_555 1_555
H5 C1 1_555 1_555
C2 O1 1_555 1_555
C3 C2 1_555 1_555
C4 N1 1_555 1_555
C5 O3 1_555 1_555
C6 C5 1_555 1_555
H6 C6 1_555 1_555
C7 C6 1_555 1_555
H7 C7 1_555 1_555
C8 C7 1_555 1_555
C9 C8 1_555 1_555
H8 C9 1_555 1_555
C10 C9 1_555 1_555
H9 C10 1_555 1_555
C11 C10 1_555 1_555
H10 C11 1_555 1_555
C12 C11 1_555 1_555
H11 C12 1_555 1_555
C13 C8 1_555 1_555
C14 C5 1_555 1_555
C15 C3 1_555 1_555
H12 C15 1_555 1_555
C16 C15 1_555 1_555
C17 C16 1_555 1_555
H13 C17 1_555 1_555
C18 C17 1_555 1_555
H14 C18 1_555 1_555
C19 C18 1_555 1_555
H15 C19 1_555 1_555
C20 C19 1_555 1_555
C21 C16 1_555 1_555
H16 C21 1_555 1_555
C3 C4 1_555 1_555
C12 C13 1_555 1_555
C13 C14 1_555 1_555
C14 C15 1_555 1_555
C20 C21 1_555 1_555

#END
