
#######################################################################
#
#                 Cambridge Crystallographic Data Centre
#                                CCDC 
#
#######################################################################
#
# If this CIF has been generated from an entry in the Cambridge 
# Structural Database, then it will include bibliographic, chemical, 
# crystal, experimental, refinement or atomic coordinate data resulting 
# from the CCDC's data processing and validation procedures.
#
#######################################################################

data_IDOWAA
_chemical_formula_moiety         'C11 H11 F1 N2 O1 S1'
_chemical_name_systematic        
3-(3-Fluorobenzyl)-2-thioxotetrahydropyrimidin-4(1H)-one
_symmetry_cell_setting           orthorhombic
_symmetry_space_group_name_H-M   'P b c a'
_symmetry_Int_Tables_number      61
_space_group_name_Hall           '-P 2ac 2ab'
loop_
_symmetry_equiv_pos_site_id
_symmetry_equiv_pos_as_xyz
1 x,y,z
2 1/2-x,-y,1/2+z
3 -x,1/2+y,1/2-z
4 1/2+x,1/2-y,-z
5 -x,-y,-z
6 1/2+x,y,1/2-z
7 x,1/2-y,1/2+z
8 1/2-x,1/2+y,z
_cell_length_a                   9.4664(18)
_cell_length_b                   9.5316(17)
_cell_length_c                   23.823(5)
_cell_angle_alpha                90
_cell_angle_beta                 90
_cell_angle_gamma                90
_cell_volume                     2149.55
_exptl_crystal_colour            colorless
_exptl_crystal_description       Block
_cell_formula_units_Z            8
_exptl_crystal_recrystallization_method acetone/ethanol
loop_
_atom_site_label
_atom_site_type_symbol
_atom_site_fract_x
_atom_site_fract_y
_atom_site_fract_z
S1 S 0.24910(7) 0.26784(6) 0.26978(3)
O1 O -0.18527(17) 0.21101(17) 0.38462(7)
F1 F -0.01771(18) -0.28171(16) 0.46722(8)
N1 N 0.0868(2) 0.4637(2) 0.31036(8)
H1 H 0.146(3) 0.519(2) 0.2961(10)
N2 N 0.01122(17) 0.24047(17) 0.33199(7)
C1 C 0.1092(2) 0.3275(2) 0.30594(9)
C2 C -0.0378(4) 0.5291(3) 0.33530(16)
H2 H -0.1131 0.5347 0.3078
H3 H -0.0153 0.6235 0.3477
C3 C -0.0838(4) 0.4414(3) 0.38440(15)
H4 H -0.1741 0.4748 0.3982
H5 H -0.0153 0.4496 0.4145
C4 C -0.0967(2) 0.2904(2) 0.36690(9)
C5 C 0.0190(2) 0.0864(2) 0.32716(9)
H6 H 0.0844 0.0619 0.2974
H7 H -0.0733 0.0502 0.3170
C6 C 0.0666(2) 0.0187(2) 0.38103(9)
C7 C 0.0015(2) -0.1024(2) 0.39986(10)
H8 H -0.0725 -0.1420 0.3796
C8 C 0.0473(3) -0.1635(2) 0.44865(11)
C9 C 0.1549(3) -0.1102(3) 0.48039(10)
H9 H 0.1836 -0.1539 0.5134
C10 C 0.2191(3) 0.0104(3) 0.46168(11)
H10 H 0.2929 0.0492 0.4823
C11 C 0.1755(3) 0.0748(3) 0.41270(10)
H11 H 0.2198 0.1567 0.4009
H12? H 0.0029 -0.2452 0.4608
C12? C 0.010(2) 0.525(3) 0.3586(11)
H13? H -0.0052 0.6248 0.3535
H14? H 0.0610 0.5099 0.3935
C13? C -0.129(2) 0.4436(11) 0.3576(13)
H15? H -0.1916 0.4778 0.3869
H16? H -0.1759 0.4563 0.3217
F2? F 0.324(3) 0.050(3) 0.4955(12)
loop_
_geom_bond_atom_site_label_1
_geom_bond_atom_site_label_2
_geom_bond_site_symmetry_1
_geom_bond_site_symmetry_2
S1 C1 1_555 1_555
O1 C4 1_555 1_555
F1 C8 1_555 1_555
N1 H1 1_555 1_555
N2 C1 1_555 1_555
C1 N1 1_555 1_555
C2 N1 1_555 1_555
H2 C2 1_555 1_555
H3 C2 1_555 1_555
C3 C2 1_555 1_555
H4 C3 1_555 1_555
H5 C3 1_555 1_555
C4 N2 1_555 1_555
C5 N2 1_555 1_555
H6 C5 1_555 1_555
H7 C5 1_555 1_555
C6 C5 1_555 1_555
C7 C6 1_555 1_555
H8 C7 1_555 1_555
C8 C7 1_555 1_555
C9 C8 1_555 1_555
H9 C9 1_555 1_555
C10 C9 1_555 1_555
H10 C10 1_555 1_555
C11 C6 1_555 1_555
H11 C11 1_555 1_555
C3 C4 1_555 1_555
C10 C11 1_555 1_555

#END
