
#######################################################################
#
#                 Cambridge Crystallographic Data Centre
#                                CCDC 
#
#######################################################################
#
# If this CIF has been generated from an entry in the Cambridge 
# Structural Database, then it will include bibliographic, chemical, 
# crystal, experimental, refinement or atomic coordinate data resulting 
# from the CCDC's data processing and validation procedures.
#
#######################################################################

data_IDOXIJ
_chemical_formula_moiety         'C13 H10 N4 O5'
_chemical_name_systematic        N-(3,5-Dinitrobenzoyl)-N'-phenylhydrazine
_symmetry_cell_setting           monoclinic
_symmetry_space_group_name_H-M   'P 21/n'
_symmetry_Int_Tables_number      14
_space_group_name_Hall           '-P 2yn'
loop_
_symmetry_equiv_pos_site_id
_symmetry_equiv_pos_as_xyz
1 x,y,z
2 1/2-x,1/2+y,1/2-z
3 -x,-y,-z
4 1/2+x,1/2-y,1/2+z
_cell_length_a                   7.5696(3)
_cell_length_b                   22.176(2)
_cell_length_c                   8.4099(4)
_cell_angle_alpha                90
_cell_angle_beta                 110.802(3)
_cell_angle_gamma                90
_cell_volume                     1319.69
_exptl_crystal_colour            yellow
_exptl_crystal_description       lath
_chemical_melting_point          '473-475 K'
_cell_formula_units_Z            4
_exptl_crystal_recrystallization_method ethanol
loop_
_atom_site_label
_atom_site_type_symbol
_atom_site_fract_x
_atom_site_fract_y
_atom_site_fract_z
C1 C 0.3507(3) 0.66944(9) 0.3671(3)
C2 C 0.2617(3) 0.68260(10) 0.1953(3)
C3 C 0.2731(3) 0.64172(10) 0.0765(3)
N1 N 0.1766(3) 0.65608(9) -0.1038(2)
O1 O 0.1060(3) 0.70687(8) -0.1391(2)
O2 O 0.1661(3) 0.61737(9) -0.2088(2)
C4 C 0.3710(3) 0.58807(10) 0.1178(3)
C5 C 0.4630(3) 0.57717(9) 0.2893(3)
N2 N 0.5719(3) 0.52110(8) 0.3400(2)
O3 O 0.5481(2) 0.48150(7) 0.2329(2)
O4 O 0.6815(2) 0.51683(7) 0.4883(2)
C6 C 0.4550(3) 0.61626(9) 0.4147(3)
C7 C 0.3390(3) 0.70940(10) 0.5064(3)
O5 O 0.4536(2) 0.70439(7) 0.65282(19)
N3 N 0.1957(3) 0.74860(8) 0.4635(2)
N4 N 0.1620(3) 0.78444(8) 0.5875(2)
C8 C 0.2694(3) 0.83829(10) 0.6312(3)
C9 C 0.2748(3) 0.87735(10) 0.5041(3)
C10 C 0.3666(3) 0.93227(11) 0.5482(3)
C11 C 0.4539(3) 0.94840(11) 0.7171(3)
C12 C 0.4493(3) 0.90925(11) 0.8429(3)
C13 C 0.3579(3) 0.85433(11) 0.8015(3)
H1 H 0.1942 0.7193 0.1607
H2 H 0.3750 0.5602 0.0332
H3 H 0.5195 0.6071 0.5314
H4 H 0.1121 0.7528 0.3601
H5 H 0.1693 0.7622 0.6762
H6 H 0.2160 0.8665 0.3878
H7 H 0.3697 0.9592 0.4613
H8 H 0.5164 0.9862 0.7461
H9 H 0.5096 0.9201 0.9590
H10 H 0.3553 0.8276 0.8889
loop_
_geom_bond_atom_site_label_1
_geom_bond_atom_site_label_2
_geom_bond_site_symmetry_1
_geom_bond_site_symmetry_2
C1 C2 1_555 1_555
C2 C3 1_555 1_555
C3 N1 1_555 1_555
N1 O1 1_555 1_555
O2 N1 1_555 1_555
C4 C3 1_555 1_555
C5 C4 1_555 1_555
N2 C5 1_555 1_555
O3 N2 1_555 1_555
O4 N2 1_555 1_555
C6 C1 1_555 1_555
C7 C1 1_555 1_555
O5 C7 1_555 1_555
N3 C7 1_555 1_555
N4 N3 1_555 1_555
C8 N4 1_555 1_555
C9 C8 1_555 1_555
C10 C9 1_555 1_555
C11 C10 1_555 1_555
C12 C11 1_555 1_555
C13 C8 1_555 1_555
H1 C2 1_555 1_555
H2 C4 1_555 1_555
H3 C6 1_555 1_555
H4 N3 1_555 1_555
H5 N4 1_555 1_555
H6 C9 1_555 1_555
H7 C10 1_555 1_555
H8 C11 1_555 1_555
H9 C12 1_555 1_555
H10 C13 1_555 1_555
C5 C6 1_555 1_555
C12 C13 1_555 1_555

#END
