
#######################################################################
#
#                 Cambridge Crystallographic Data Centre
#                                CCDC 
#
#######################################################################
#
# If this CIF has been generated from an entry in the Cambridge 
# Structural Database, then it will include bibliographic, chemical, 
# crystal, experimental, refinement or atomic coordinate data resulting 
# from the CCDC's data processing and validation procedures.
#
#######################################################################

data_IDOXOP
_chemical_formula_moiety         'C10 H10 Cl2 N2 O1'
_chemical_name_systematic        'Acetone (2,6-dichlorobenzoyl)hydrazone'
_symmetry_cell_setting           triclinic
_symmetry_space_group_name_H-M   'P -1'
_symmetry_Int_Tables_number      2
_space_group_name_Hall           '-P 1'
loop_
_symmetry_equiv_pos_site_id
_symmetry_equiv_pos_as_xyz
1 x,y,z
2 -x,-y,-z
_cell_length_a                   7.4980(3)
_cell_length_b                   8.1320(2)
_cell_length_c                   9.7759(3)
_cell_angle_alpha                71.609(2)
_cell_angle_beta                 80.822(2)
_cell_angle_gamma                89.033(2)
_cell_volume                     558.032
_exptl_crystal_colour            colorless
_exptl_crystal_description       lath
_cell_formula_units_Z            2
_exptl_crystal_recrystallization_method ethanol
loop_
_atom_site_label
_atom_site_type_symbol
_atom_site_fract_x
_atom_site_fract_y
_atom_site_fract_z
C1 C 0.6756(2) 0.8506(2) 0.18118(17)
C2 C 0.7648(2) 0.8102(2) 0.06043(19)
Cl1 Cl 0.80670(8) 0.59432(6) 0.07718(5)
C3 C 0.8217(3) 0.9350(3) -0.07220(19)
C4 C 0.7856(3) 1.1063(3) -0.0867(2)
C5 C 0.6953(3) 1.1521(2) 0.0295(2)
C6 C 0.6420(2) 1.0247(2) 0.16195(19)
Cl2 Cl 0.52761(7) 1.08133(6) 0.30856(5)
N1 N 0.6983(2) 0.67279(18) 0.43117(15)
N2 N 0.8638(2) 0.75866(19) 0.41427(16)
C7 C 0.6030(2) 0.7097(2) 0.32012(18)
O1 O 0.46049(18) 0.63126(16) 0.33026(13)
C8 C 0.9384(2) 0.7238(2) 0.52866(19)
C9 C 1.1187(3) 0.8105(3) 0.5128(2)
C10 C 0.8629(3) 0.6040(2) 0.6766(2)
H1 H 0.8847 0.9037 -0.1522
H2 H 0.8234 1.1935 -0.1777
H3 H 0.6699 1.2699 0.0187
H4 H 0.6567 0.5918 0.5083
H5 H 1.1539 0.8857 0.4118
H6 H 1.2092 0.7222 0.5374
H7 H 1.1109 0.8802 0.5789
H8 H 0.7368 0.6313 0.7031
H9 H 0.9338 0.6181 0.7484
H10 H 0.8683 0.4840 0.6753
loop_
_geom_bond_atom_site_label_1
_geom_bond_atom_site_label_2
_geom_bond_site_symmetry_1
_geom_bond_site_symmetry_2
C1 C2 1_555 1_555
C2 Cl1 1_555 1_555
C3 C2 1_555 1_555
C4 C3 1_555 1_555
C5 C4 1_555 1_555
C6 C1 1_555 1_555
Cl2 C6 1_555 1_555
N1 N2 1_555 1_555
N2 C8 1_555 1_555
C7 C1 1_555 1_555
O1 C7 1_555 1_555
C8 C9 1_555 1_555
C9 H5 1_555 1_555
C10 C8 1_555 1_555
H1 C3 1_555 1_555
H2 C4 1_555 1_555
H3 C5 1_555 1_555
H4 N1 1_555 1_555
H6 C9 1_555 1_555
H7 C9 1_555 1_555
H8 C10 1_555 1_555
H9 C10 1_555 1_555
H10 C10 1_555 1_555
C5 C6 1_555 1_555
N1 C7 1_555 1_555

#END
