
#######################################################################
#
#                 Cambridge Crystallographic Data Centre
#                                CCDC 
#
#######################################################################
#
# If this CIF has been generated from an entry in the Cambridge 
# Structural Database, then it will include bibliographic, chemical, 
# crystal, experimental, refinement or atomic coordinate data resulting 
# from the CCDC's data processing and validation procedures.
#
#######################################################################

data_IDOZOR
_chemical_formula_moiety         'C20 H28 N1 O1 1+,Cl1 1-'
_chemical_name_systematic        
'(+)-N-((R)-1-(2-Hydroxy-5-methylphenyl)propyl)-N-((R)-2-methyl-1-phenylpropyl)ammonium chloride'
_symmetry_cell_setting           orthorhombic
_symmetry_space_group_name_H-M   'P 21 21 21'
_symmetry_Int_Tables_number      19
_space_group_name_Hall           'P 2ac 2ab'
loop_
_symmetry_equiv_pos_site_id
_symmetry_equiv_pos_as_xyz
1 x,y,z
2 1/2-x,-y,1/2+z
3 -x,1/2+y,1/2-z
4 1/2+x,1/2-y,-z
_cell_length_a                   8.725(2)
_cell_length_b                   11.641(3)
_cell_length_c                   19.313(5)
_cell_angle_alpha                90
_cell_angle_beta                 90
_cell_angle_gamma                90
_cell_volume                     1961.58
_exptl_crystal_colour            colorless
_exptl_crystal_description       block
_chemical_melting_point          '461-462 K'
_cell_formula_units_Z            4
_exptl_crystal_recrystallization_method ethanol/hexane
loop_
_atom_site_label
_atom_site_type_symbol
_atom_site_fract_x
_atom_site_fract_y
_atom_site_fract_z
Cl1 Cl 0.08193(11) 0.39063(9) 0.85876(5)
N1 N 0.7928(3) 0.5364(2) 0.81730(14)
H1 H 0.8610 0.4857 0.8343
H2 H 0.8449 0.5882 0.7920
O1 O 0.7910(3) 0.6689(2) 0.70025(13)
H3 H 0.8131 0.7244 0.6762
C1 C 0.6828(4) 0.4733(3) 0.77035(17)
H4 H 0.6192 0.4232 0.7993
C2 C 0.7740(4) 0.3970(3) 0.72055(17)
H5 H 0.8405 0.4449 0.6925
H6 H 0.8382 0.3452 0.7471
C3 C 0.6704(5) 0.3275(4) 0.6735(2)
H7 H 0.7318 0.2811 0.6432
H8 H 0.6080 0.3785 0.6465
H9 H 0.6058 0.2789 0.7011
C4 C 0.5784(4) 0.5557(3) 0.73363(16)
C5 C 0.6363(4) 0.6483(3) 0.69579(18)
C6 C 0.5393(4) 0.7150(3) 0.65665(18)
H10 H 0.5780 0.7765 0.6313
C7 C 0.3844(4) 0.6907(3) 0.65492(19)
H11 H 0.3206 0.7354 0.6273
C8 C 0.3217(4) 0.6018(3) 0.69301(19)
C9 C 0.4212(4) 0.5348(3) 0.73203(17)
H12 H 0.3818 0.4742 0.7578
C10 C 0.1522(4) 0.5787(4) 0.6945(2)
H13 H 0.1007 0.6323 0.6648
H14 H 0.1149 0.5872 0.7410
H15 H 0.1330 0.5019 0.6787
C11 C 0.7169(4) 0.5976(3) 0.87708(16)
H16 H 0.6350 0.6453 0.8577
C12 C 0.8309(5) 0.6788(4) 0.9128(2)
H17 H 0.9116 0.6325 0.9344
C13 C 0.9045(8) 0.7626(5) 0.8638(3)
H18 H 0.9560 0.7213 0.8276
H19 H 0.9773 0.8089 0.8885
H20 H 0.8272 0.8112 0.8439
C14 C 0.7458(8) 0.7445(5) 0.9698(3)
H21 H 0.6984 0.6909 1.0009
H22 H 0.6685 0.7924 0.9493
H23 H 0.8170 0.7915 0.9950
C15 C 0.6431(4) 0.5133(3) 0.92531(18)
C16 C 0.4852(4) 0.5110(3) 0.9331(2)
H24 H 0.4250 0.5604 0.9067
C17 C 0.4152(6) 0.4367(4) 0.9792(2)
H25 H 0.3092 0.4369 0.9843
C18 C 0.5041(6) 0.3625(4) 1.0172(2)
H26 H 0.4577 0.3117 1.0480
C19 C 0.6604(6) 0.3627(4) 1.0104(2)
H27 H 0.7195 0.3120 1.0363
C20 C 0.7304(5) 0.4381(3) 0.96486(19)
H28 H 0.8366 0.4385 0.9607
loop_
_geom_bond_atom_site_label_1
_geom_bond_atom_site_label_2
_geom_bond_site_symmetry_1
_geom_bond_site_symmetry_2
N1 H1 1_555 1_555
H2 N1 1_555 1_555
O1 H3 1_555 1_555
C1 N1 1_555 1_555
H4 C1 1_555 1_555
C2 C1 1_555 1_555
H5 C2 1_555 1_555
H6 C2 1_555 1_555
C3 C2 1_555 1_555
H7 C3 1_555 1_555
H8 C3 1_555 1_555
H9 C3 1_555 1_555
C4 C1 1_555 1_555
C5 O1 1_555 1_555
C6 C5 1_555 1_555
H10 C6 1_555 1_555
C7 C6 1_555 1_555
H11 C7 1_555 1_555
C8 C7 1_555 1_555
C9 C4 1_555 1_555
H12 C9 1_555 1_555
C10 C8 1_555 1_555
H13 C10 1_555 1_555
H14 C10 1_555 1_555
H15 C10 1_555 1_555
C11 N1 1_555 1_555
H16 C11 1_555 1_555
C12 C11 1_555 1_555
H17 C12 1_555 1_555
C13 C12 1_555 1_555
H18 C13 1_555 1_555
H19 C13 1_555 1_555
H20 C13 1_555 1_555
C14 C12 1_555 1_555
H21 C14 1_555 1_555
H22 C14 1_555 1_555
H23 C14 1_555 1_555
C15 C11 1_555 1_555
C16 C15 1_555 1_555
H24 C16 1_555 1_555
C17 C16 1_555 1_555
H25 C17 1_555 1_555
C18 C17 1_555 1_555
H26 C18 1_555 1_555
C19 C18 1_555 1_555
H27 C19 1_555 1_555
C20 C15 1_555 1_555
H28 C20 1_555 1_555
C4 C5 1_555 1_555
C8 C9 1_555 1_555
C19 C20 1_555 1_555

#END
