
#######################################################################
#
#                 Cambridge Crystallographic Data Centre
#                                CCDC 
#
#######################################################################
#
# If this CIF has been generated from an entry in the Cambridge 
# Structural Database, then it will include bibliographic, chemical, 
# crystal, experimental, refinement or atomic coordinate data resulting 
# from the CCDC's data processing and validation procedures.
#
#######################################################################

data_IDUBEP
_chemical_formula_moiety         'C22 H29 Cl2 N1 O3 S1'
_chemical_name_systematic        
N-((3S)-3-(2,4-dichlorophenyl-4-methyl)pentanoyl)bornane-10,2-sultam
_symmetry_cell_setting           monoclinic
_symmetry_space_group_name_H-M   'P 21'
_symmetry_Int_Tables_number      4
_space_group_name_Hall           'P 2yb'
loop_
_symmetry_equiv_pos_site_id
_symmetry_equiv_pos_as_xyz
1 x,y,z
2 -x,1/2+y,-z
_cell_length_a                   7.8570(9)
_cell_length_b                   16.6100(19)
_cell_length_c                   8.9443(10)
_cell_angle_alpha                90
_cell_angle_beta                 97.134(2)
_cell_angle_gamma                90
_cell_volume                     1158.24
_exptl_crystal_colour            colorless
_exptl_crystal_description       block
_cell_formula_units_Z            2
_exptl_crystal_recrystallization_method dichloromethane
loop_
_atom_site_label
_atom_site_type_symbol
_atom_site_fract_x
_atom_site_fract_y
_atom_site_fract_z
C1 C 0.4384(7) 0.2698(3) 0.2065(5)
H1 H 0.4272 0.3028 0.1177
H2 H 0.5396 0.2852 0.2716
H3 H 0.3395 0.2768 0.2583
C2 C 0.6206(5) 0.1744(4) 0.0902(5)
H4 H 0.6191 0.2117 0.0081
H5 H 0.6306 0.1206 0.0534
H6 H 0.7165 0.1860 0.1644
C3 C 0.4526(4) 0.1824(2) 0.1621(3)
C4 C 0.4373(4) 0.1200(2) 0.2891(3)
C5 C 0.4422(5) 0.0402(2) 0.2030(4)
H7 H 0.3917 -0.0032 0.2551
H8 H 0.5587 0.0258 0.1887
C6 C 0.3336(5) 0.0595(3) 0.0509(4)
H9 H 0.3981 0.0494 -0.0329
H10 H 0.2293 0.0276 0.0377
C7 C 0.2932(5) 0.1493(2) 0.0642(3)
H11 H 0.2657 0.1769 -0.0327
C8 C 0.1529(4) 0.1568(3) 0.1708(3)
H12 H 0.1139 0.2120 0.1771
H13 H 0.0554 0.1225 0.1385
C9 C 0.2494(4) 0.12827(19) 0.3220(3)
H14 H 0.2057 0.0755 0.3482
C10 C 0.5539(4) 0.1274(3) 0.4362(4)
H15 H 0.6565 0.1572 0.4211
H16 H 0.5879 0.0744 0.4746
C11 C 0.0963(4) 0.20595(18) 0.5010(3)
C12 C 0.1022(4) 0.25659(19) 0.6429(3)
H17 H 0.2175 0.2772 0.6694
H18 H 0.0746 0.2230 0.7253
C13 C -0.0232(4) 0.32681(18) 0.6222(4)
H19 H -0.1370 0.3044 0.5891
C14 C -0.0344(5) 0.3726(2) 0.7741(4)
H20 H -0.1076 0.4198 0.7499
C15 C 0.1352(7) 0.4033(4) 0.8474(6)
H21 H 0.1201 0.4289 0.9411
H22 H 0.1803 0.4415 0.7820
H23 H 0.2138 0.3591 0.8661
C16 C -0.1232(7) 0.3205(3) 0.8814(5)
H24 H -0.0572 0.2726 0.9051
H25 H -0.2356 0.3062 0.8343
H26 H -0.1328 0.3501 0.9722
C17 C 0.0174(4) 0.38657(17) 0.5024(3)
C18 C -0.1096(3) 0.43590(18) 0.4267(3)
C19 C -0.0780(4) 0.4944(2) 0.3262(3)
H27 H -0.1660 0.5268 0.2804
C20 C 0.0880(4) 0.50393(19) 0.2947(3)
C21 C 0.2186(4) 0.4555(2) 0.3602(4)
H28 H 0.3294 0.4612 0.3351
C22 C 0.1822(4) 0.3984(2) 0.4638(4)
H29 H 0.2711 0.3666 0.5097
Cl1 Cl -0.32199(9) 0.42358(5) 0.46046(11)
Cl2 Cl 0.13536(13) 0.57959(6) 0.17132(12)
N1 N 0.2497(3) 0.18341(17) 0.4509(2)
O1 O 0.4158(3) 0.12895(18) 0.6908(3)
O2 O 0.5021(3) 0.25862(17) 0.5983(3)
O3 O -0.0371(3) 0.18596(18) 0.4290(3)
S1 S 0.43826(8) 0.17898(4) 0.56627(7)
loop_
_geom_bond_atom_site_label_1
_geom_bond_atom_site_label_2
_geom_bond_site_symmetry_1
_geom_bond_site_symmetry_2
C1 H1 1_555 1_555
H2 C1 1_555 1_555
H3 C1 1_555 1_555
C2 H4 1_555 1_555
H5 C2 1_555 1_555
H6 C2 1_555 1_555
C3 C1 1_555 1_555
C4 C3 1_555 1_555
C5 C4 1_555 1_555
H7 C5 1_555 1_555
H8 C5 1_555 1_555
C6 C5 1_555 1_555
H9 C6 1_555 1_555
H10 C6 1_555 1_555
C7 C3 1_555 1_555
H11 C7 1_555 1_555
C8 C7 1_555 1_555
H12 C8 1_555 1_555
H13 C8 1_555 1_555
C9 C4 1_555 1_555
H14 C9 1_555 1_555
C10 C4 1_555 1_555
H15 C10 1_555 1_555
H16 C10 1_555 1_555
C11 C12 1_555 1_555
C12 H17 1_555 1_555
H18 C12 1_555 1_555
C13 C12 1_555 1_555
H19 C13 1_555 1_555
C14 C13 1_555 1_555
H20 C14 1_555 1_555
C15 C14 1_555 1_555
H21 C15 1_555 1_555
H22 C15 1_555 1_555
H23 C15 1_555 1_555
C16 C14 1_555 1_555
H24 C16 1_555 1_555
H25 C16 1_555 1_555
H26 C16 1_555 1_555
C17 C13 1_555 1_555
C18 C17 1_555 1_555
C19 C18 1_555 1_555
H27 C19 1_555 1_555
C20 C19 1_555 1_555
C21 C20 1_555 1_555
H28 C21 1_555 1_555
C22 C17 1_555 1_555
H29 C22 1_555 1_555
Cl1 C18 1_555 1_555
Cl2 C20 1_555 1_555
N1 C9 1_555 1_555
O1 S1 1_555 1_555
O2 S1 1_555 1_555
O3 C11 1_555 1_555
S1 C10 1_555 1_555
C2 C3 1_555 1_555
C6 C7 1_555 1_555
C8 C9 1_555 1_555
C11 N1 1_555 1_555
C21 C22 1_555 1_555
N1 S1 1_555 1_555

#END
