
#######################################################################
#
#                 Cambridge Crystallographic Data Centre
#                                CCDC 
#
#######################################################################
#
# If this CIF has been generated from an entry in the Cambridge 
# Structural Database, then it will include bibliographic, chemical, 
# crystal, experimental, refinement or atomic coordinate data resulting 
# from the CCDC's data processing and validation procedures.
#
#######################################################################

data_IDUBIV
_chemical_name_common            
'4,6-bis(5-[2,3-di(pyridin-2-yl)quinoxalin-6-yl]thiophen-2-yl)-11,17,23,25,26,27,28-octamethoxycalix(4)arene succinonitrile clathrate unknown solvate'
_chemical_formula_moiety         'C87 H70 N8 O8 S2,C4 H4 N2'
_chemical_name_systematic        
"6,6'-{[9,14,19,24,26,28,30,32-octamethoxyhexacyclo[21.2.2.2^3,6^.2^8,11^.2^13,16^.2^18,21^]pentatriaconta-1(25),3,5,8,10,13,15,18,20,23,26,28,30,32,34-pentadecaene-4,34-diyl]bis(thiene-5,2-diyl)}bis[2,3-bis(pyridin-2-yl)quinoxaline] butanedinitrile clathrate unknown solvate"
_symmetry_cell_setting           triclinic
_symmetry_space_group_name_H-M   'P -1'
_symmetry_Int_Tables_number      2
_space_group_name_Hall           '-P 1'
loop_
_symmetry_equiv_pos_site_id
_symmetry_equiv_pos_as_xyz
1 x,y,z
2 -x,-y,-z
_cell_length_a                   13.9014(2)
_cell_length_b                   18.1330(3)
_cell_length_c                   19.2400(3)
_cell_angle_alpha                113.854(2)
_cell_angle_beta                 95.9750(10)
_cell_angle_gamma                103.0770(10)
_cell_volume                     4215.17
_exptl_crystal_colour            yellow
_exptl_crystal_description       block
_cell_formula_units_Z            2
_exptl_crystal_preparation       Luminescent
loop_
_atom_site_label
_atom_site_type_symbol
_atom_site_fract_x
_atom_site_fract_y
_atom_site_fract_z
S1 S 0.24970(3) -0.04982(3) 0.45307(3)
S2 S 0.49959(3) 0.36598(3) 0.43151(3)
O1 O 0.03290(11) 0.13378(9) 0.14695(9)
O2 O 0.32793(11) 0.09875(9) 0.02445(9)
O3 O -0.04175(11) -0.06598(8) 0.29096(9)
O4 O 0.47916(11) -0.12599(9) 0.09482(9)
O5 O 0.54575(11) 0.00520(8) 0.38415(8)
O6 O 0.17614(10) 0.27197(8) 0.42477(8)
O7 O 0.09486(12) -0.18055(10) 0.02077(10)
O8 O 0.64947(11) 0.20898(9) 0.23774(9)
N1 N 0.64468(18) 0.75844(12) 0.21970(14)
N2 N 0.51717(13) 0.57939(10) 0.30290(11)
N3 N -0.03645(15) -0.62474(12) 0.23379(15)
N4 N 0.01461(13) -0.44086(10) 0.40426(14)
N5 N 0.71856(14) 0.62647(10) 0.28838(11)
N6 N 0.44602(17) 0.60047(14) 0.14378(15)
N7 N 0.15825(13) -0.38107(10) 0.33185(12)
N8 N 0.21098(14) -0.56460(11) 0.28507(14)
C1 C 0.09662(17) 0.19925(14) 0.13504(15)
H1 H 0.0810 0.1871 0.0810
H2 H 0.1662 0.2026 0.1499
H3 H 0.0856 0.2521 0.1661
C2 C 0.59049(15) 0.55906(11) 0.33748(13)
C3 C 0.34063(15) -0.09401(12) 0.03455(12)
H4 H 0.2986 -0.1486 0.0178
C4 C 0.19523(15) -0.06196(14) -0.02543(12)
H5 H 0.1909 -0.0312 -0.0563
H6 H 0.1735 -0.1218 -0.0606
C5 C 0.01681(15) -0.08241(13) 0.10800(13)
H7 H -0.0151 -0.1227 0.1230
C6 C 0.50163(19) -0.08336(13) 0.33588(13)
H8 H 0.4513 -0.0921 0.2929
H9 H 0.4706 -0.1094 0.3658
H10 H 0.5533 -0.1080 0.3165
C7 C 0.63003(15) 0.38121(12) 0.54386(13)
H11 H 0.6614 0.3741 0.5848
C8 C 0.43858(15) -0.07165(12) 0.07606(12)
C9 C 0.07797(15) -0.10295(13) 0.05441(12)
C10 C 0.05954(14) 0.14798(12) 0.31558(12)
H12 H 0.0543 0.1787 0.2874
C11 C 0.30378(14) -0.03686(13) 0.01741(11)
C12 C 0.11092(14) 0.03580(13) 0.06219(12)
H13 H 0.1423 0.0759 0.0468
C13 C 0.50015(13) 0.18782(11) 0.49470(10)
C14 C 0.64721(17) 0.64574(12) 0.25501(13)
C15 C 0.0444(3) -0.24421(17) 0.0405(2)
H14 H 0.0642 -0.2942 0.0147
H15 H -0.0275 -0.2568 0.0242
H16 H 0.0622 -0.2247 0.0958
C16 C 0.61011(13) 0.07430(12) 0.23408(11)
C17 C 0.60259(13) 0.17896(11) 0.47850(11)
H17 H 0.6525 0.2341 0.5048
H18 H 0.6224 0.1432 0.5000
C18 C 0.62937(13) 0.16089(12) 0.27764(12)
C19 C 0.18543(13) -0.09120(11) 0.50765(12)
C20 C 0.19220(13) 0.18885(11) 0.51621(11)
H19 H 0.1665 0.1601 0.5464
H20 H 0.1885 0.2462 0.5410
C21 C 0.61452(15) 0.44324(12) 0.46036(13)
C22 C 0.1837(2) -0.51566(16) 0.1893(2)
H21 H 0.1557 -0.4822 0.1725
C23 C 0.17147(17) -0.51847(12) 0.25743(16)
C24 C 0.69233(16) 0.58336(12) 0.33088(13)
C25 C 0.67516(15) 0.44289(12) 0.52108(14)
H22 H 0.7400 0.4800 0.5449
C26 C 0.16417(14) -0.23945(12) 0.41437(14)
H23 H 0.2062 -0.2202 0.3869
C27 C 0.27541(13) 0.05209(11) 0.52397(11)
C28 C 0.67925(17) 0.69305(13) 0.20934(14)
C29 C 0.12141(13) 0.18780(11) 0.38963(11)
C30 C 0.12050(16) -0.46238(12) 0.31124(15)
C31 C 0.38963(19) 0.18352(14) 0.05302(15)
H24 H 0.4490 0.1843 0.0316
H25 H 0.4092 0.2084 0.1088
H26 H 0.3523 0.2152 0.0379
C32 C -0.06044(15) 0.02035(14) 0.20076(12)
H27 H -0.1108 -0.0303 0.1938
H28 H -0.0957 0.0582 0.1940
C33 C 0.2396(3) -0.56437(18) 0.1453(2)
H29 H 0.2475 -0.5660 0.0974
C34 C 0.7757(2) 0.71492(19) 0.12074(17)
H30 H 0.8193 0.7002 0.0875
C35 C 0.07350(13) 0.05870(11) 0.40131(12)
H31 H 0.0773 0.0284 0.4301
C36 C 0.14116(13) -0.18206(11) 0.47843(13)
C37 C 0.00240(14) -0.00266(13) 0.13966(12)
C38 C -0.09003(18) -0.70676(14) 0.2007(2)
H32 H -0.1058 -0.7358 0.1466
C39 C 0.36843(14) 0.25671(11) 0.50994(11)
H33 H 0.3463 0.3021 0.5120
C40 C 0.12575(14) -0.04334(13) 0.03105(12)
C41 C 0.12777(13) 0.14427(11) 0.43440(11)
C42 C 0.36801(15) 0.04476(12) 0.04304(11)
C43 C 0.05041(14) 0.05632(13) 0.11565(12)
C44 C 0.19279(17) 0.31285(13) 0.37594(14)
H34 H 0.2142 0.2780 0.3314
H35 H 0.2443 0.3660 0.4044
H36 H 0.1311 0.3221 0.3590
C45 C 0.05792(15) -0.35621(12) 0.42938(16)
C46 C 0.46764(14) 0.25785(11) 0.50188(11)
C47 C 0.3037(2) 0.6513(3) 0.1393(3)
H37 H 0.2501 0.6557 0.1094
C48 C 0.07408(16) -0.21286(13) 0.51816(15)
H38 H 0.0586 -0.1748 0.5618
C49 C 0.50319(14) 0.00943(12) 0.10083(11)
C50 C 0.62863(13) 0.19398(12) 0.35644(12)
H39 H 0.6457 0.2522 0.3856
C51 C 0.2669(2) -0.60859(15) 0.2427(2)
H40 H 0.2966 -0.6400 0.2614
C52 C 0.60974(14) 0.03646(13) 0.14806(12)
H41 H 0.6354 -0.0119 0.1343
H42 H 0.6536 0.0778 0.1364
C53 C 0.4111(2) -0.20225(16) 0.0848(2)
H43 H 0.3823 -0.2374 0.0304
H44 H 0.3581 -0.1901 0.1118
H45 H 0.4467 -0.2311 0.1055
C54 C 0.23655(14) 0.05332(11) 0.58662(12)
H46 H 0.2429 0.1027 0.6308
C55 C 0.00502(13) 0.06257(12) 0.28264(12)
C56 C 0.54440(16) 0.62106(12) 0.26237(14)
C57 C 0.46652(14) 0.06694(12) 0.08395(11)
H47 H 0.5088 0.1213 0.1004
C58 C 0.56551(15) 0.51351(11) 0.38103(13)
H48 H 0.4987 0.4971 0.3851
C59 C 0.74520(19) 0.66949(17) 0.16139(16)
H49 H 0.7686 0.6239 0.1566
C60 C -0.01450(15) -0.58376(13) 0.31174(17)
C61 C 0.18622(14) -0.02726(12) 0.57770(13)
H50 H 0.1562 -0.0366 0.6156
C62 C 0.01401(13) 0.01795(11) 0.32613(12)
C63 C 0.7397(2) 0.78299(17) 0.13061(16)
H51 H 0.7587 0.8149 0.1040
C64 C 0.30182(13) 0.19016(10) 0.51495(10)
C65 C 0.6493(2) 0.29463(15) 0.27518(16)
H52 H 0.6591 0.3198 0.2401
H53 H 0.7031 0.3250 0.3209
H54 H 0.5856 0.2968 0.2897
C66 C 0.12495(15) -0.32662(12) 0.39000(14)
C67 C 0.76639(16) 0.56309(13) 0.36907(15)
H55 H 0.8334 0.5794 0.3655
C68 C 0.53512(14) 0.33260(11) 0.49964(12)
C69 C 0.2826(2) -0.60979(16) 0.1743(2)
H56 H 0.3223 -0.6412 0.1470
C70 C 0.6762(2) 0.80221(16) 0.17989(18)
H57 H 0.6531 0.8484 0.1865
C71 C 0.58360(14) 0.02229(12) 0.27011(12)
H58 H 0.5700 -0.0357 0.2415
C72 C 0.3993(2) 0.68084(18) 0.2618(2)
H59 H 0.4120 0.7048 0.3159
C73 C 0.3677(2) 0.6077(2) 0.1035(2)
H60 H 0.3559 0.5825 0.0494
C74 C 0.74100(16) 0.51982(12) 0.41131(14)
H61 H 0.7911 0.5073 0.4366
C75 C 0.04281(15) -0.49269(12) 0.34480(16)
C76 C 0.57689(14) 0.05459(12) 0.34748(11)
C77 C 0.43370(13) 0.12209(11) 0.50068(11)
H62 H 0.4547 0.0755 0.4963
C78 C -0.10147(18) -0.70651(15) 0.3216(2)
H63 H -0.1237 -0.7340 0.3512
C79 C 0.63836(15) 0.49318(11) 0.41744(13)
C80 C 0.3190(2) 0.6884(2) 0.2193(3)
H64 H 0.2761 0.7178 0.2442
C81 C -0.04662(17) -0.62135(14) 0.35781(19)
H65 H -0.0322 -0.5908 0.4117
C82 C 0.60294(13) 0.14192(11) 0.39270(11)
C83 C -0.02651(17) -0.11585(13) 0.32988(15)
H66 H -0.0663 -0.1734 0.2981
H67 H -0.0468 -0.0949 0.3787
H68 H 0.0438 -0.1128 0.3391
C84 C 0.33703(13) 0.12281(10) 0.51293(10)
C85 C 0.03222(17) -0.29740(13) 0.49303(17)
H69 H -0.0138 -0.3163 0.5183
C86 C -0.12253(17) -0.74958(14) 0.2419(2)
H70 H -0.1582 -0.8067 0.2167
C87 C 0.46040(18) 0.63633(14) 0.22114(16)
N9 N 0.35256(18) 0.21616(14) 0.24450(14)
N10 N 0.2271(2) -0.11738(17) 0.24486(17)
C88 C 0.3453(2) 0.15351(19) 0.24420(19)
C89 C 0.2430(2) -0.0512(2) 0.2524(2)
C90 C 0.2727(6) 0.0451(4) 0.2860(6)
C91 C 0.3223(7) 0.0587(5) 0.2231(7)
C92? C 0.2463(6) 0.0306(5) 0.2474(7)
C93? C 0.3519(8) 0.0797(6) 0.2564(8)
loop_
_geom_bond_atom_site_label_1
_geom_bond_atom_site_label_2
_geom_bond_site_symmetry_1
_geom_bond_site_symmetry_2
S1 C19 1_555 1_555
S2 C21 1_555 1_555
O1 C1 1_555 1_555
O2 C31 1_555 1_555
O3 C62 1_555 1_555
O4 C8 1_555 1_555
O5 C6 1_555 1_555
O6 C29 1_555 1_555
O7 C9 1_555 1_555
O8 C18 1_555 1_555
N1 C28 1_555 1_555
N2 C2 1_555 1_555
N3 C38 1_555 1_555
N4 C45 1_555 1_555
N5 C14 1_555 1_555
N6 C73 1_555 1_555
N7 C30 1_555 1_555
N8 C23 1_555 1_555
C1 H1 1_555 1_555
H2 C1 1_555 1_555
H3 C1 1_555 1_555
C2 C24 1_555 1_555
C3 H4 1_555 1_555
C4 H5 1_555 1_555
H6 C4 1_555 1_555
C5 H7 1_555 1_555
C6 H8 1_555 1_555
H9 C6 1_555 1_555
H10 C6 1_555 1_555
C7 H11 1_555 1_555
C8 C3 1_555 1_555
C9 C5 1_555 1_555
C10 H12 1_555 1_555
C11 C3 1_555 1_555
C12 H13 1_555 1_555
C13 C17 1_555 1_555
C14 C28 1_555 1_555
C15 O7 1_555 1_555
H14 C15 1_555 1_555
H15 C15 1_555 1_555
H16 C15 1_555 1_555
C16 C18 1_555 1_555
C17 H17 1_555 1_555
H18 C17 1_555 1_555
C18 C50 1_555 1_555
C19 C36 1_555 1_555
C20 H19 1_555 1_555
H20 C20 1_555 1_555
C21 C25 1_555 1_555
C22 H21 1_555 1_555
C23 C22 1_555 1_555
C24 N5 1_555 1_555
C25 C7 1_555 1_555
H22 C25 1_555 1_555
C26 H23 1_555 1_555
C27 S1 1_555 1_555
C28 C59 1_555 1_555
C29 C10 1_555 1_555
C30 C23 1_555 1_555
C31 H24 1_555 1_555
H25 C31 1_555 1_555
H26 C31 1_555 1_555
C32 H27 1_555 1_555
H28 C32 1_555 1_555
C33 C22 1_555 1_555
H29 C33 1_555 1_555
C34 H30 1_555 1_555
C35 H31 1_555 1_555
C36 C26 1_555 1_555
C37 C5 1_555 1_555
C38 H32 1_555 1_555
C39 H33 1_555 1_555
C40 C4 1_555 1_555
C41 C20 1_555 1_555
C42 O2 1_555 1_555
C43 O1 1_555 1_555
C44 O6 1_555 1_555
H34 C44 1_555 1_555
H35 C44 1_555 1_555
H36 C44 1_555 1_555
C45 C66 1_555 1_555
C46 C13 1_555 1_555
C47 H37 1_555 1_555
C48 C36 1_555 1_555
H38 C48 1_555 1_555
C49 C8 1_555 1_555
C50 H39 1_555 1_555
C51 N8 1_555 1_555
H40 C51 1_555 1_555
C52 C16 1_555 1_555
H41 C52 1_555 1_555
H42 C52 1_555 1_555
C53 O4 1_555 1_555
H43 C53 1_555 1_555
H44 C53 1_555 1_555
H45 C53 1_555 1_555
C54 C27 1_555 1_555
H46 C54 1_555 1_555
C55 C10 1_555 1_555
C56 N2 1_555 1_555
C57 C42 1_555 1_555
H47 C57 1_555 1_555
C58 C2 1_555 1_555
H48 C58 1_555 1_555
C59 C34 1_555 1_555
H49 C59 1_555 1_555
C60 N3 1_555 1_555
C61 C19 1_555 1_555
H50 C61 1_555 1_555
C62 C35 1_555 1_555
C63 C34 1_555 1_555
H51 C63 1_555 1_555
C64 C20 1_555 1_555
C65 O8 1_555 1_555
H52 C65 1_555 1_555
H53 C65 1_555 1_555
H54 C65 1_555 1_555
C66 N7 1_555 1_555
C67 C24 1_555 1_555
H55 C67 1_555 1_555
C68 S2 1_555 1_555
C69 C33 1_555 1_555
H56 C69 1_555 1_555
C70 N1 1_555 1_555
H57 C70 1_555 1_555
C71 C16 1_555 1_555
H58 C71 1_555 1_555
C72 H59 1_555 1_555
C73 C47 1_555 1_555
H60 C73 1_555 1_555
C74 C67 1_555 1_555
H61 C74 1_555 1_555
C75 N4 1_555 1_555
C76 O5 1_555 1_555
C77 C13 1_555 1_555
H62 C77 1_555 1_555
C78 H63 1_555 1_555
C79 C21 1_555 1_555
C80 C47 1_555 1_555
H64 C80 1_555 1_555
C81 C60 1_555 1_555
H65 C81 1_555 1_555
C82 C17 1_555 1_555
C83 O3 1_555 1_555
H66 C83 1_555 1_555
H67 C83 1_555 1_555
H68 C83 1_555 1_555
C84 C27 1_555 1_555
C85 C45 1_555 1_555
H69 C85 1_555 1_555
C86 C38 1_555 1_555
H70 C86 1_555 1_555
C87 N6 1_555 1_555
N9 C88 1_555 1_555
N10 C89 1_555 1_555
C88 C91 1_555 1_555
C89 C90 1_555 1_555
C90 C91 1_555 1_555
C4 C11 1_555 1_555
C7 C68 1_555 1_555
C9 C40 1_555 1_555
C11 C42 1_555 1_555
C12 C40 1_555 1_555
C12 C43 1_555 1_555
C14 C56 1_555 1_555
C26 C66 1_555 1_555
C29 C41 1_555 1_555
C30 C75 1_555 1_555
C32 C37 1_555 1_555
C32 C55 1_555 1_555
C35 C41 1_555 1_555
C37 C43 1_555 1_555
C39 C46 1_555 1_555
C39 C64 1_555 1_555
C46 C68 1_555 1_555
C48 C85 1_555 1_555
C49 C52 1_555 1_555
C49 C57 1_555 1_555
C50 C82 1_555 1_555
C51 C69 1_555 1_555
C54 C61 1_555 1_555
C55 C62 1_555 1_555
C56 C87 1_555 1_555
C58 C79 1_555 1_555
C60 C75 1_555 1_555
C63 C70 1_555 1_555
C64 C84 1_555 1_555
C71 C76 1_555 1_555
C72 C80 1_555 1_555
C72 C87 1_555 1_555
C74 C79 1_555 1_555
C76 C82 1_555 1_555
C77 C84 1_555 1_555
C78 C81 1_555 1_555
C78 C86 1_555 1_555

#END
