
#######################################################################
#
#                 Cambridge Crystallographic Data Centre
#                                CCDC 
#
#######################################################################
#
# If this CIF has been generated from an entry in the Cambridge 
# Structural Database, then it will include bibliographic, chemical, 
# crystal, experimental, refinement or atomic coordinate data resulting 
# from the CCDC's data processing and validation procedures.
#
#######################################################################

data_IDUBAL
_chemical_formula_moiety         'C18 H20 N2 O4'
_chemical_name_systematic        N,N'-bis(2-ethoxyphenyl)oxamide
_symmetry_cell_setting           monoclinic
_symmetry_space_group_name_H-M   'P 21/c'
_symmetry_Int_Tables_number      14
_space_group_name_Hall           '-P 2ybc'
loop_
_symmetry_equiv_pos_site_id
_symmetry_equiv_pos_as_xyz
1 x,y,z
2 -x,1/2+y,1/2-z
3 -x,-y,-z
4 x,1/2-y,1/2+z
_cell_length_a                   8.7343(10)
_cell_length_b                   14.5983(16)
_cell_length_c                   7.1682(8)
_cell_angle_alpha                90
_cell_angle_beta                 110.157(2)
_cell_angle_gamma                90
_cell_volume                     858.008
_exptl_crystal_colour            colorless
_exptl_crystal_description       column
_cell_formula_units_Z            2
_exptl_crystal_recrystallization_method DMF
loop_
_atom_site_label
_atom_site_type_symbol
_atom_site_fract_x
_atom_site_fract_y
_atom_site_fract_z
O1 O 0.67434(14) 0.34752(8) 0.13251(15)
O2 O 0.29625(14) 0.52102(9) 0.35411(15)
N1 N 0.49443(17) 0.43944(8) 0.28455(18)
H1 H 0.5945 0.4230 0.3396
C1 C 0.9569(2) 0.32912(13) 0.2067(3)
H2 H 1.0396 0.3076 0.1573
H3 H 0.9638 0.2959 0.3249
H4 H 0.9727 0.3932 0.2368
C2 C 0.7930(2) 0.31452(12) 0.0529(3)
H5 H 0.7847 0.3476 -0.0676
H6 H 0.7756 0.2499 0.0211
C3 C 0.5175(2) 0.35884(10) 0.0077(2)
C4 C 0.4536(2) 0.32500(11) -0.1840(3)
H7 H 0.5188 0.2912 -0.2374
C5 C 0.2931(2) 0.34169(13) -0.2949(3)
H8 H 0.2502 0.3189 -0.4237
C6 C 0.1956(2) 0.39142(13) -0.2184(3)
H9 H 0.0876 0.4029 -0.2959
C7 C 0.2573(2) 0.42470(11) -0.0254(3)
H10 H 0.1907 0.4578 0.0272
C8 C 0.41785(19) 0.40843(10) 0.0878(2)
C9 C 0.4346(2) 0.49067(11) 0.3983(2)
O1B O 0.32566(14) 0.65248(8) 0.86749(15)
O2B O 0.70375(14) 0.47898(9) 0.64589(15)
N1B N 0.50557(17) 0.56056(8) 0.71545(18)
H1B H 0.4055 0.5770 0.6604
C1B C 0.0431(2) 0.67088(13) 0.7933(3)
H2B H -0.0396 0.6924 0.8427
H3B H 0.0362 0.7041 0.6751
H4B H 0.0273 0.6068 0.7632
C2B C 0.2070(2) 0.68548(12) 0.9471(3)
H5B H 0.2153 0.6524 1.0676
H6B H 0.2244 0.7501 0.9789
C3B C 0.4825(2) 0.64116(10) 0.9923(2)
C4B C 0.5464(2) 0.67500(11) 1.1840(3)
H7B H 0.4812 0.7088 1.2374
C5B C 0.7069(2) 0.65831(13) 1.2949(3)
H8B H 0.7498 0.6811 1.4237
C6B C 0.8044(2) 0.60858(13) 1.2184(3)
H9B H 0.9124 0.5971 1.2959
C7B C 0.7427(2) 0.57530(11) 1.0254(3)
H10B H 0.8093 0.5422 0.9728
C8B C 0.58215(19) 0.59157(10) 0.9122(2)
C9B C 0.5654(2) 0.50933(11) 0.6017(2)
loop_
_geom_bond_atom_site_label_1
_geom_bond_atom_site_label_2
_geom_bond_site_symmetry_1
_geom_bond_site_symmetry_2
O1 C2 1_555 1_555
O2 C9 1_555 1_555
N1 H1 1_555 1_555
C1 H2 1_555 1_555
H3 C1 1_555 1_555
H4 C1 1_555 1_555
C2 C1 1_555 1_555
H5 C2 1_555 1_555
H6 C2 1_555 1_555
C3 O1 1_555 1_555
C4 C3 1_555 1_555
H7 C4 1_555 1_555
C5 C4 1_555 1_555
H8 C5 1_555 1_555
C6 C5 1_555 1_555
H9 C6 1_555 1_555
C7 C6 1_555 1_555
H10 C7 1_555 1_555
C8 N1 1_555 1_555
C9 N1 1_555 1_555
O1B C2B 1_555 1_555
O2B C9B 1_555 1_555
N1B H1B 1_555 1_555
C1B H2B 1_555 1_555
H3B C1B 1_555 1_555
H4B C1B 1_555 1_555
C2B C1B 1_555 1_555
H5B C2B 1_555 1_555
H6B C2B 1_555 1_555
C3B O1B 1_555 1_555
C4B C3B 1_555 1_555
H7B C4B 1_555 1_555
C5B C4B 1_555 1_555
H8B C5B 1_555 1_555
C6B C5B 1_555 1_555
H9B C6B 1_555 1_555
C7B C6B 1_555 1_555
H10B C7B 1_555 1_555
C8B N1B 1_555 1_555
C9B C9 1_555 1_555
C3 C8 1_555 1_555
C7 C8 1_555 1_555
N1B C9B 1_555 1_555
C3B C8B 1_555 1_555
C7B C8B 1_555 1_555

#END
