
#######################################################################
#
#                 Cambridge Crystallographic Data Centre
#                                CCDC 
#
#######################################################################
#
# If this CIF has been generated from an entry in the Cambridge 
# Structural Database, then it will include bibliographic, chemical, 
# crystal, experimental, refinement or atomic coordinate data resulting 
# from the CCDC's data processing and validation procedures.
#
#######################################################################

data_IDUDOB
_chemical_formula_moiety         'C13 H17 N1 O2 S1'
_chemical_name_systematic        
7-(p-Tolylsulfonyl)-7-azabicyclo(4.1.0)heptane
_symmetry_cell_setting           monoclinic
_symmetry_space_group_name_H-M   'P 21/c'
_symmetry_Int_Tables_number      14
_space_group_name_Hall           '-P 2ybc'
loop_
_symmetry_equiv_pos_site_id
_symmetry_equiv_pos_as_xyz
1 x,y,z
2 -x,1/2+y,1/2-z
3 -x,-y,-z
4 x,1/2-y,1/2+z
_cell_length_a                   8.1431(10)
_cell_length_b                   15.0711(16)
_cell_length_c                   10.8067(11)
_cell_angle_alpha                90
_cell_angle_beta                 93.266(7)
_cell_angle_gamma                90
_cell_volume                     1324.1
_exptl_crystal_colour            colorless
_exptl_crystal_description       block
_chemical_melting_point          '328 K'
_cell_formula_units_Z            4
loop_
_atom_site_label
_atom_site_type_symbol
_atom_site_fract_x
_atom_site_fract_y
_atom_site_fract_z
S1 S 1.02159(8) 0.33388(4) 0.55480(6)
O1 O 0.9921(3) 0.36373(12) 0.67707(16)
O2 O 1.1410(2) 0.38028(11) 0.48718(18)
N1 N 0.8522(2) 0.33280(12) 0.46278(18)
C1 C 0.7470(3) 0.41385(18) 0.4687(3)
C2 C 0.6916(3) 0.33027(17) 0.5208(3)
C3 C 0.5490(10) 0.2791(5) 0.4671(6)
H1 H 0.4482 0.2993 0.5016
H2 H 0.5628 0.2165 0.4854
C4 C 0.5415(9) 0.2946(4) 0.3252(6)
H3 H 0.6411 0.2729 0.2905
H4 H 0.4484 0.2632 0.2860
C5 C 0.5234(8) 0.3951(4) 0.3026(7)
H5 H 0.4993 0.4058 0.2150
H6 H 0.4319 0.4174 0.3472
C6 C 0.6772(18) 0.4444(7) 0.3444(10)
H7 H 0.7591 0.4363 0.2837
H8 H 0.6527 0.5073 0.3486
C7 C 1.0756(3) 0.22109(14) 0.5615(2)
C8 C 1.1528(3) 0.18343(16) 0.4633(2)
H9 H 1.1693 0.2166 0.3925
C9 C 1.2045(3) 0.09741(17) 0.4712(2)
H10 H 1.2563 0.0725 0.4050
C10 C 1.1818(3) 0.04576(15) 0.5759(2)
C11 C 1.1014(3) 0.08405(17) 0.6713(2)
H11 H 1.0828 0.0505 0.7413
C12 C 1.0481(3) 0.17066(16) 0.6656(2)
H12 H 0.9940 0.1951 0.7310
C13 C 1.2440(4) -0.04796(17) 0.5839(3)
H13 H 1.2205 -0.0773 0.5060
H14 H 1.1907 -0.0789 0.6480
H15 H 1.3607 -0.0476 0.6026
H16 H 0.708(4) 0.3296(18) 0.610(3)
H17 H 0.791(4) 0.459(2) 0.535(3)
C14? C 0.5803(14) 0.2717(7) 0.4346(9)
H18? H 0.6477 0.2267 0.3982
H19? H 0.5016 0.2416 0.4840
C15? C 0.4873(10) 0.3217(7) 0.3314(8)
H20? H 0.4339 0.2796 0.2743
H21? H 0.4026 0.3577 0.3660
C16? C 0.6002(11) 0.3804(5) 0.2619(6)
H22? H 0.5389 0.4082 0.1928
H23? H 0.6871 0.3449 0.2292
C17? C 0.675(3) 0.4515(9) 0.3482(13)
H24? H 0.7608 0.4824 0.3066
H25? H 0.5909 0.4945 0.3657
loop_
_geom_bond_atom_site_label_1
_geom_bond_atom_site_label_2
_geom_bond_site_symmetry_1
_geom_bond_site_symmetry_2
S1 O1 1_555 1_555
O2 S1 1_555 1_555
N1 S1 1_555 1_555
C1 N1 1_555 1_555
C2 N1 1_555 1_555
C3 C2 1_555 1_555
H1 C3 1_555 1_555
H2 C3 1_555 1_555
C4 C3 1_555 1_555
H3 C4 1_555 1_555
H4 C4 1_555 1_555
C5 C4 1_555 1_555
H5 C5 1_555 1_555
H6 C5 1_555 1_555
C6 C1 1_555 1_555
H7 C6 1_555 1_555
H8 C6 1_555 1_555
C7 S1 1_555 1_555
C8 C7 1_555 1_555
H9 C8 1_555 1_555
C9 C8 1_555 1_555
H10 C9 1_555 1_555
C10 C9 1_555 1_555
C11 C10 1_555 1_555
H11 C11 1_555 1_555
C12 C7 1_555 1_555
H12 C12 1_555 1_555
C13 C10 1_555 1_555
H13 C13 1_555 1_555
H14 C13 1_555 1_555
H15 C13 1_555 1_555
H16 C2 1_555 1_555
H17 C1 1_555 1_555
C1 C2 1_555 1_555
C5 C6 1_555 1_555
C11 C12 1_555 1_555

#END
