
#######################################################################
#
#                 Cambridge Crystallographic Data Centre
#                                CCDC 
#
#######################################################################
#
# If this CIF has been generated from an entry in the Cambridge 
# Structural Database, then it will include bibliographic, chemical, 
# crystal, experimental, refinement or atomic coordinate data resulting 
# from the CCDC's data processing and validation procedures.
#
#######################################################################

data_IDUDIU
_chemical_formula_moiety         'C22 H13 N3 O1'
_chemical_name_systematic        4,4',4''-Tricyanotriphenylmethanol
_symmetry_cell_setting           monoclinic
_symmetry_space_group_name_H-M   'C 2/c'
_symmetry_Int_Tables_number      15
_space_group_name_Hall           '-C 2yn'
loop_
_symmetry_equiv_pos_site_id
_symmetry_equiv_pos_as_xyz
1 x,y,z
2 x,-y,1/2+z
3 1/2+x,1/2+y,z
4 1/2+x,1/2-y,1/2+z
5 -x,-y,-z
6 -x,y,1/2-z
7 1/2-x,1/2-y,-z
8 1/2-x,1/2+y,1/2-z
_cell_length_a                   25.1606(7)
_cell_length_b                   9.3019(3)
_cell_length_c                   15.4356(7)
_cell_angle_alpha                90
_cell_angle_beta                 91.112(5)
_cell_angle_gamma                90
_cell_volume                     3611.89
_exptl_crystal_colour            colorless
_exptl_crystal_description       prism
_cell_formula_units_Z            8
_exptl_crystal_recrystallization_method chloroform/hexane
loop_
_atom_site_label
_atom_site_type_symbol
_atom_site_fract_x
_atom_site_fract_y
_atom_site_fract_z
C1 C 0.64711(6) 0.1638(2) 0.2834(1)
O1 O 0.68860(4) 0.0670(2) 0.25982(8)
C2 C 0.59871(6) 0.0811(2) 0.3154(1)
C3 C 0.59517(7) -0.0663(2) 0.3061(1)
C4 C 0.55024(8) -0.1403(2) 0.3310(1)
C5 C 0.50827(7) -0.0660(2) 0.3666(1)
C6 C 0.51115(6) 0.0809(2) 0.3765(1)
C7 C 0.55595(6) 0.1539(2) 0.3510(1)
C8 C 0.46087(8) -0.1419(2) 0.3905(1)
N1 N 0.42253(7) -0.2004(2) 0.4079(1)
C9 C 0.67002(6) 0.2682(2) 0.3510(1)
C10 C 0.66304(6) 0.2464(2) 0.4387(1)
C11 C 0.68639(6) 0.3353(2) 0.4999(1)
C12 C 0.71749(6) 0.4490(2) 0.4732(1)
C13 C 0.72519(7) 0.4729(3) 0.3861(1)
C14 C 0.70198(7) 0.3820(3) 0.3257(1)
C15 C 0.74372(7) 0.5388(2) 0.5381(1)
N2 N 0.76508(6) 0.6036(2) 0.5915(1)
C16 C 0.62948(6) 0.2385(2) 0.1991(1)
C17 C 0.60136(8) 0.3663(2) 0.2013(1)
C18 C 0.58266(8) 0.4313(2) 0.1260(1)
C19 C 0.59280(7) 0.3676(2) 0.0468(1)
C20 C 0.62104(7) 0.2402(2) 0.0435(1)
C21 C 0.63870(6) 0.1761(2) 0.1195(1)
C22 C 0.57331(8) 0.4347(2) -0.0319(1)
N3 N 0.55771(8) 0.4853(2) -0.0948(1)
H1 H 0.6981(8) 0.020(3) 0.306(2)
H2 H 0.6240 -0.1177 0.2823
H3 H 0.5482 -0.2416 0.3236
H4 H 0.4823 0.1320 0.4008
H5 H 0.5577 0.2553 0.3577
H6 H 0.6417 0.1684 0.4572
H7 H 0.6812 0.3186 0.5599
H8 H 0.7463 0.5515 0.3679
H9 H 0.7079 0.3975 0.2658
H10 H 0.5948 0.4104 0.2555
H11 H 0.5631 0.5185 0.1286
H12 H 0.6282 0.1969 -0.0108
H13 H 0.6575 0.0877 0.1170
loop_
_geom_bond_atom_site_label_1
_geom_bond_atom_site_label_2
_geom_bond_site_symmetry_1
_geom_bond_site_symmetry_2
C1 O1 1_555 1_555
O1 H1 1_555 1_555
C2 C1 1_555 1_555
C3 C2 1_555 1_555
C4 C3 1_555 1_555
C5 C4 1_555 1_555
C6 C5 1_555 1_555
C7 C2 1_555 1_555
C8 C5 1_555 1_555
N1 C8 1_555 1_555
C9 C1 1_555 1_555
C10 C9 1_555 1_555
C11 C10 1_555 1_555
C12 C11 1_555 1_555
C13 C12 1_555 1_555
C14 C9 1_555 1_555
C15 C12 1_555 1_555
N2 C15 1_555 1_555
C16 C1 1_555 1_555
C17 C16 1_555 1_555
C18 C17 1_555 1_555
C19 C18 1_555 1_555
C20 C19 1_555 1_555
C21 C16 1_555 1_555
C22 C19 1_555 1_555
N3 C22 1_555 1_555
H2 C3 1_555 1_555
H3 C4 1_555 1_555
H4 C6 1_555 1_555
H5 C7 1_555 1_555
H6 C10 1_555 1_555
H7 C11 1_555 1_555
H8 C13 1_555 1_555
H9 C14 1_555 1_555
H10 C17 1_555 1_555
H11 C18 1_555 1_555
H12 C20 1_555 1_555
H13 C21 1_555 1_555
C6 C7 1_555 1_555
C13 C14 1_555 1_555
C20 C21 1_555 1_555

#END
