
#######################################################################
#
#                 Cambridge Crystallographic Data Centre
#                                CCDC 
#
#######################################################################
#
# If this CIF has been generated from an entry in the Cambridge 
# Structural Database, then it will include bibliographic, chemical, 
# crystal, experimental, refinement or atomic coordinate data resulting 
# from the CCDC's data processing and validation procedures.
#
#######################################################################

data_IDUHOF
_chemical_formula_moiety         '2(C2 H8 N1 1+),C4 H4 O6 2-,H2 O1'
_chemical_name_systematic        
'bis(Ethylammonium) (-)-(2S,3S)-tartrate monohydrate'
_symmetry_cell_setting           orthorhombic
_symmetry_space_group_name_H-M   'P 21 21 21'
_symmetry_Int_Tables_number      19
_space_group_name_Hall           'P 2ac 2ab'
loop_
_symmetry_equiv_pos_site_id
_symmetry_equiv_pos_as_xyz
1 x,y,z
2 1/2-x,-y,1/2+z
3 -x,1/2+y,1/2-z
4 1/2+x,1/2-y,-z
_cell_length_a                   6.9983(12)
_cell_length_b                   8.0652(14)
_cell_length_c                   23.898(4)
_cell_angle_alpha                90
_cell_angle_beta                 90
_cell_angle_gamma                90
_cell_volume                     1348.87
_exptl_crystal_colour            colorless
_exptl_crystal_description       block
_cell_formula_units_Z            4
loop_
_atom_site_label
_atom_site_type_symbol
_atom_site_fract_x
_atom_site_fract_y
_atom_site_fract_z
O1 O 0.4226(2) 0.3560(2) 0.05325(6)
O2 O 0.6920(2) 0.25245(17) 0.08752(5)
O3 O 0.5145(2) 0.79907(18) 0.21558(6)
O4 O 0.25503(18) 0.64140(16) 0.21327(5)
O5 O 0.64211(19) 0.39276(16) 0.18716(5)
H1 H 0.594(4) 0.366(3) 0.2142(12)
O6 O 0.6368(2) 0.68778(17) 0.11463(6)
H2 H 0.728(4) 0.646(3) 0.1299(11)
C1 C 0.5435(2) 0.33688(19) 0.09170(7)
C2 C 0.4975(2) 0.42471(19) 0.14743(6)
H3 H 0.3767 0.3804 0.1618
C3 C 0.4738(2) 0.61258(19) 0.13815(6)
H4 H 0.3687 0.6275 0.1115
C4 C 0.4109(2) 0.69168(19) 0.19374(7)
O7 O 0.9782(2) 0.5165(2) 0.14452(7)
H5 H 1.048(5) 0.553(3) 0.1663(12)
H6 H 0.895(5) 0.455(4) 0.1607(13)
N1 N 0.7806(2) 0.0300(2) 0.17669(8)
H7 H 0.767(3) 0.075(3) 0.2105(10)
H8 H 0.754(5) 0.094(4) 0.1485(15)
H9 H 0.693(4) -0.050(3) 0.1755(11)
C5 C 0.9764(4) -0.0374(3) 0.17126(14)
H10 H 0.9948 -0.1242 0.1988
H11 H 0.9912 -0.0864 0.1345
C6 C 1.1242(4) 0.0914(4) 0.17917(16)
H12 H 1.2486 0.0424 0.1754
H13 H 1.1116 0.1390 0.2158
H14 H 1.1085 0.1764 0.1514
N2 N 1.0337(3) 0.3796(2) 0.02856(7)
H15 H 1.010(6) 0.305(3) 0.0049(14)
H16 H 0.958(5) 0.374(3) 0.0547(12)
H17 H 1.144(4) 0.355(3) 0.0412(11)
C7 C 1.0106(5) 0.5446(3) 0.00244(12)
H18 H 1.0267 0.6295 0.0308
H19 H 1.1098 0.5600 -0.0254
C8 C 0.8223(6) 0.5649(4) -0.02429(16)
H20 H 0.8137 0.6734 -0.0406
H21 H 0.7236 0.5520 0.0033
H22 H 0.8067 0.4825 -0.0529
loop_
_geom_bond_atom_site_label_1
_geom_bond_atom_site_label_2
_geom_bond_site_symmetry_1
_geom_bond_site_symmetry_2
O1 C1 1_555 1_555
O2 C1 1_555 1_555
O3 C4 1_555 1_555
O4 C4 1_555 1_555
O5 H1 1_555 1_555
O6 H2 1_555 1_555
C1 C2 1_555 1_555
C2 O5 1_555 1_555
H3 C2 1_555 1_555
C3 O6 1_555 1_555
H4 C3 1_555 1_555
C4 C3 1_555 1_555
O7 H5 1_555 1_555
H6 O7 1_555 1_555
N1 H7 1_555 1_555
H8 N1 1_555 1_555
H9 N1 1_555 1_555
C5 N1 1_555 1_555
H10 C5 1_555 1_555
H11 C5 1_555 1_555
C6 C5 1_555 1_555
H12 C6 1_555 1_555
H13 C6 1_555 1_555
H14 C6 1_555 1_555
N2 H15 1_555 1_555
H16 N2 1_555 1_555
H17 N2 1_555 1_555
C7 N2 1_555 1_555
H18 C7 1_555 1_555
H19 C7 1_555 1_555
C8 C7 1_555 1_555
H20 C8 1_555 1_555
H21 C8 1_555 1_555
H22 C8 1_555 1_555
C2 C3 1_555 1_555

#END
