
#######################################################################
#
#                 Cambridge Crystallographic Data Centre
#                                CCDC 
#
#######################################################################
#
# If this CIF has been generated from an entry in the Cambridge 
# Structural Database, then it will include bibliographic, chemical, 
# crystal, experimental, refinement or atomic coordinate data resulting 
# from the CCDC's data processing and validation procedures.
#
#######################################################################

data_IDUJOH
_chemical_formula_moiety         'C21 H23 I1 N4 O8'
_chemical_name_systematic        
'diethyl 8-iodo-6,13-dioxo-7,12-dihydro-2,4-dioxa-5a,6a,12a,13a-tetra-azabenzo[5,6]cyclohepta[1,2,3-cd]cycloocta[1,2,3-gh]pentalene-13b,13c-dicarboxylate'
_symmetry_cell_setting           triclinic
_symmetry_space_group_name_H-M   'P -1'
_symmetry_Int_Tables_number      2
_space_group_name_Hall           '-P 1'
loop_
_symmetry_equiv_pos_site_id
_symmetry_equiv_pos_as_xyz
1 x,y,z
2 -x,-y,-z
_cell_length_a                   8.2832(12)
_cell_length_b                   9.7080(14)
_cell_length_c                   14.872(2)
_cell_angle_alpha                99.300(2)
_cell_angle_beta                 97.076(2)
_cell_angle_gamma                108.921(2)
_cell_volume                     1096.49
_exptl_crystal_colour            colorless
_exptl_crystal_description       irregular
_cell_formula_units_Z            2
_exptl_crystal_recrystallization_method dichloromethane/hexane
loop_
_atom_site_label
_atom_site_type_symbol
_atom_site_fract_x
_atom_site_fract_y
_atom_site_fract_z
C1 C 0.9255(6) 1.1198(5) 0.5851(3)
C2 C 0.9327(6) 1.2269(5) 0.5323(3)
C3 C 1.0886(7) 1.3363(6) 0.5309(4)
H1 H 1.0903 1.4062 0.4946
C4 C 1.2398(7) 1.3421(6) 0.5825(4)
H2 H 1.3441 1.4160 0.5817
C5 C 1.2373(7) 1.2381(6) 0.6358(4)
H3 H 1.3406 1.2424 0.6708
C6 C 1.0832(6) 1.1270(5) 0.6381(3)
C7 C 1.0870(6) 1.0138(6) 0.6954(3)
H4 H 1.0504 0.9166 0.6541
H5 H 1.2061 1.0371 0.7258
C8 C 0.7596(6) 0.9977(5) 0.5850(3)
H6 H 0.6665 1.0093 0.5441
H7 H 0.7697 0.9030 0.5596
C9 C 0.6538(6) 1.0998(6) 0.7194(3)
C10 C 1.0382(7) 1.0799(5) 0.8557(3)
C11 C 0.7938(6) 0.9315(5) 0.7415(3)
C12 C 0.7375(7) 0.7608(5) 0.7075(3)
C13 C 0.8265(9) 0.5516(6) 0.7095(4)
H8 H 0.7276 0.5008 0.7355
H9 H 0.7991 0.5148 0.6428
C14 C 0.9793(11) 0.5238(9) 0.7489(6)
H10 H 1.0790 0.5831 0.7281
H11 H 0.9626 0.4202 0.7294
H12 H 0.9975 0.5499 0.8154
C15 C 0.7325(7) 0.9814(6) 0.8348(3)
C16 C 0.6084(8) 0.8561(7) 0.8714(4)
C17 C 0.5713(10) 0.6279(7) 0.9197(4)
H13 H 0.6480 0.5810 0.9454
H14 H 0.5209 0.6651 0.9695
C18 C 0.4333(10) 0.5173(8) 0.8489(5)
H15 H 0.3464 0.5583 0.8308
H16 H 0.3818 0.4307 0.8731
H17 H 0.4806 0.4897 0.7959
C19 C 0.9066(11) 1.1557(7) 0.9835(4)
H18 H 0.7910 1.1285 0.9984
H19 H 0.9807 1.1385 1.0329
C20 C 0.6223(11) 1.1929(8) 0.8768(5)
H20 H 0.5089 1.1948 0.8528
H21 H 0.6104 1.1514 0.9318
C21 C 0.825(2) 1.3504(15) 0.9908(10)
H22 H 0.7499 1.2961 1.0283
H23 H 0.8697 1.4548 1.0218
I1 I 0.71161(4) 1.23344(4) 0.44998(2)
N1 N 0.9784(5) 1.0046(4) 0.7658(3)
N2 N 0.7109(5) 0.9924(4) 0.6768(2)
N3 N 0.8967(6) 1.0523(5) 0.9000(3)
N4 N 0.6529(7) 1.0850(5) 0.8098(3)
O1 O 0.6099(6) 1.1877(5) 0.6836(3)
O2 O 1.1869(5) 1.1523(5) 0.8913(3)
O3 O 0.5961(5) 0.6870(4) 0.6651(3)
O4 O 0.8645(5) 0.7126(4) 0.7317(3)
O5 O 0.4749(8) 0.8608(6) 0.8900(5)
O6 O 0.6728(5) 0.7532(4) 0.8832(2)
O7 O 0.9621(13) 1.3006(9) 0.9874(6)
O8 O 0.7265(12) 1.3358(9) 0.9067(6)
C22? C 0.8154(13) 1.2629(8) 0.9393(6)
H24? H 0.7397 1.2022 0.9738
H25? H 0.8182 1.1938 0.8851
loop_
_geom_bond_atom_site_label_1
_geom_bond_atom_site_label_2
_geom_bond_site_symmetry_1
_geom_bond_site_symmetry_2
C1 C2 1_555 1_555
C2 C3 1_555 1_555
C3 H1 1_555 1_555
C4 C3 1_555 1_555
H2 C4 1_555 1_555
C5 C4 1_555 1_555
H3 C5 1_555 1_555
C6 C1 1_555 1_555
C7 C6 1_555 1_555
H4 C7 1_555 1_555
H5 C7 1_555 1_555
C8 C1 1_555 1_555
H6 C8 1_555 1_555
H7 C8 1_555 1_555
C9 N2 1_555 1_555
C10 N1 1_555 1_555
C11 C12 1_555 1_555
C12 O3 1_555 1_555
C13 H8 1_555 1_555
H9 C13 1_555 1_555
C14 C13 1_555 1_555
H10 C14 1_555 1_555
H11 C14 1_555 1_555
H12 C14 1_555 1_555
C15 C11 1_555 1_555
C16 C15 1_555 1_555
C17 H13 1_555 1_555
H14 C17 1_555 1_555
C18 C17 1_555 1_555
H15 C18 1_555 1_555
H16 C18 1_555 1_555
H17 C18 1_555 1_555
C19 H18 1_555 1_555
H19 C19 1_555 1_555
C20 H20 1_555 1_555
H21 C20 1_555 1_555
C21 H22 1_555 1_555
H23 C21 1_555 1_555
I1 C2 1_555 1_555
N1 C7 1_555 1_555
N2 C8 1_555 1_555
N3 C10 1_555 1_555
N4 C9 1_555 1_555
O1 C9 1_555 1_555
O2 C10 1_555 1_555
O4 C12 1_555 1_555
O5 C16 1_555 1_555
O6 C16 1_555 1_555
O7 C19 1_555 1_555
O8 C20 1_555 1_555
C5 C6 1_555 1_555
C11 N1 1_555 1_555
C11 N2 1_555 1_555
C13 O4 1_555 1_555
C15 N3 1_555 1_555
C15 N4 1_555 1_555
C17 O6 1_555 1_555
C19 N3 1_555 1_555
C20 N4 1_555 1_555
C21 O7 1_555 1_555
C21 O8 1_555 1_555

#END
