
#######################################################################
#
#                 Cambridge Crystallographic Data Centre
#                                CCDC 
#
#######################################################################
#
# If this CIF has been generated from an entry in the Cambridge 
# Structural Database, then it will include bibliographic, chemical, 
# crystal, experimental, refinement or atomic coordinate data resulting 
# from the CCDC's data processing and validation procedures.
#
#######################################################################

data_IDUNOL
_chemical_formula_moiety         'C30 H20 Br2 N2 O6'
_chemical_name_systematic        
2,4-bis(2-Bromophenyl)-1,3-bis(3-nitrobenzoyl)cyclobutane
_symmetry_cell_setting           monoclinic
_symmetry_space_group_name_H-M   'P 21/c'
_symmetry_Int_Tables_number      14
_space_group_name_Hall           '-P 2ybc'
loop_
_symmetry_equiv_pos_site_id
_symmetry_equiv_pos_as_xyz
1 x,y,z
2 -x,1/2+y,1/2-z
3 -x,-y,-z
4 x,1/2-y,1/2+z
_cell_length_a                   7.3293(15)
_cell_length_b                   15.793(3)
_cell_length_c                   11.571(2)
_cell_angle_alpha                90
_cell_angle_beta                 97.80(3)
_cell_angle_gamma                90
_cell_volume                     1326.97
_exptl_crystal_colour            yellow
_exptl_crystal_description       block
_cell_formula_units_Z            2
_exptl_crystal_recrystallization_method acetone
loop_
_atom_site_label
_atom_site_type_symbol
_atom_site_fract_x
_atom_site_fract_y
_atom_site_fract_z
Br1 Br 0.40856(5) 0.54442(2) 0.13216(3)
O1 O 0.2110(3) 0.60163(13) 0.59401(18)
C1 C 0.4481(4) 0.63153(17) 0.2465(2)
C2 C 0.3484(4) 0.49851(16) 0.4820(2)
H1 H 0.279(3) 0.4497(14) 0.446(2)
C3 C 0.0939(4) 0.60146(17) 0.3936(2)
C4 C 0.0361(4) 0.55209(18) 0.2965(3)
H2 H 0.0654 0.4948 0.2974
C5 C 0.5056(4) 0.61261(16) 0.3639(2)
C6 C 0.2151(4) 0.56911(16) 0.4997(3)
C7 C 0.5409(4) 0.68142(16) 0.4390(2)
H3 H 0.5837 0.6716 0.5172
C8 C 0.5110(4) 0.52350(16) 0.4106(2)
H4 H 0.522(4) 0.4874(18) 0.351(2)
O2 O -0.1695(3) 0.84167(14) 0.2001(2)
C9 C 0.4491(5) 0.78034(19) 0.2857(3)
H5 H 0.4276 0.8358 0.2604
C10 C 0.0462(4) 0.68682(17) 0.3926(3)
H6 H 0.0781 0.7204 0.4583
C11 C 0.5141(4) 0.76418(17) 0.4004(3)
H7 H 0.5402 0.8088 0.4524
C12 C -0.1055(4) 0.6722(2) 0.1954(3)
H8 H -0.1701 0.6966 0.1290
C13 C -0.0488(4) 0.72040(17) 0.2929(3)
C14 C 0.4157(4) 0.71433(19) 0.2081(3)
H9 H 0.3717 0.7250 0.1303
N1 N -0.0884(4) 0.81195(17) 0.2901(3)
C15 C -0.0643(4) 0.5869(2) 0.1984(3)
H10 H -0.1042 0.5528 0.1344
O3 O -0.0407(5) 0.85340(16) 0.3770(3)
Br1B Br 0.59144(5) 0.45558(2) 0.86784(3)
O1B O 0.7890(3) 0.39837(13) 0.40599(18)
C1B C 0.5519(4) 0.36847(17) 0.7535(2)
C2B C 0.6516(4) 0.50149(16) 0.5180(2)
H1B H 0.721(3) 0.5503(14) 0.554(2)
C3B C 0.9061(4) 0.39854(17) 0.6064(2)
C4B C 0.9639(4) 0.44791(18) 0.7035(3)
H2B H 0.9346 0.5052 0.7026
C5B C 0.4944(4) 0.38739(16) 0.6361(2)
C6B C 0.7849(4) 0.43089(16) 0.5003(3)
C7B C 0.4591(4) 0.31858(16) 0.5610(2)
H3B H 0.4163 0.3284 0.4828
C8B C 0.4890(4) 0.47650(16) 0.5894(2)
H4B H 0.478(4) 0.5126(18) 0.649(2)
O2B O 1.1695(3) 0.15833(14) 0.7999(2)
C9B C 0.5509(5) 0.21966(19) 0.7143(3)
H5B H 0.5724 0.1642 0.7396
C10B C 0.9538(4) 0.31318(17) 0.6074(3)
H6B H 0.9219 0.2796 0.5417
C11B C 0.4859(4) 0.23582(17) 0.5996(3)
H7B H 0.4598 0.1912 0.5476
C12B C 1.1055(4) 0.3278(2) 0.8046(3)
H8B H 1.1701 0.3034 0.8710
C13B C 1.0488(4) 0.27960(17) 0.7071(3)
C14B C 0.5843(4) 0.28567(19) 0.7919(3)
H9B H 0.6283 0.2750 0.8697
N1B N 1.0884(4) 0.18805(17) 0.7099(3)
C15B C 1.0643(4) 0.4131(2) 0.8016(3)
H10B H 1.1042 0.4472 0.8656
O3B O 1.0407(5) 0.14660(16) 0.6230(3)
loop_
_geom_bond_atom_site_label_1
_geom_bond_atom_site_label_2
_geom_bond_site_symmetry_1
_geom_bond_site_symmetry_2
Br1 C1 1_555 1_555
O1 C6 1_555 1_555
C1 C5 1_555 1_555
C2 H1 1_555 1_555
C3 C4 1_555 1_555
C4 H2 1_555 1_555
C5 C7 1_555 1_555
C6 C2 1_555 1_555
C7 H3 1_555 1_555
C8 C2 1_555 1_555
H4 C8 1_555 1_555
O2 N1 1_555 1_555
C9 H5 1_555 1_555
C10 C3 1_555 1_555
H6 C10 1_555 1_555
C11 C7 1_555 1_555
H7 C11 1_555 1_555
C12 H8 1_555 1_555
C13 C10 1_555 1_555
C14 C1 1_555 1_555
H9 C14 1_555 1_555
N1 C13 1_555 1_555
C15 C4 1_555 1_555
H10 C15 1_555 1_555
O3 N1 1_555 1_555
Br1B C1B 1_555 1_555
O1B C6B 1_555 1_555
C1B C5B 1_555 1_555
C2B C8 1_555 1_555
H1B C2B 1_555 1_555
C3B C4B 1_555 1_555
C4B H2B 1_555 1_555
C5B C7B 1_555 1_555
C6B C2B 1_555 1_555
C7B H3B 1_555 1_555
C8B C2 1_555 1_555
H4B C8B 1_555 1_555
O2B N1B 1_555 1_555
C9B H5B 1_555 1_555
C10B C3B 1_555 1_555
H6B C10B 1_555 1_555
C11B C7B 1_555 1_555
H7B C11B 1_555 1_555
C12B H8B 1_555 1_555
C13B C10B 1_555 1_555
C14B C1B 1_555 1_555
H9B C14B 1_555 1_555
N1B C13B 1_555 1_555
C15B C4B 1_555 1_555
H10B C15B 1_555 1_555
O3B N1B 1_555 1_555
C3 C6 1_555 1_555
C5 C8 1_555 1_555
C9 C11 1_555 1_555
C9 C14 1_555 1_555
C12 C13 1_555 1_555
C12 C15 1_555 1_555
C2B C8B 1_555 1_555
C3B C6B 1_555 1_555
C5B C8B 1_555 1_555
C9B C11B 1_555 1_555
C9B C14B 1_555 1_555
C12B C13B 1_555 1_555
C12B C15B 1_555 1_555

#END
