
#######################################################################
#
#                 Cambridge Crystallographic Data Centre
#                                CCDC 
#
#######################################################################
#
# If this CIF has been generated from an entry in the Cambridge 
# Structural Database, then it will include bibliographic, chemical, 
# crystal, experimental, refinement or atomic coordinate data resulting 
# from the CCDC's data processing and validation procedures.
#
#######################################################################

data_IDUPUS
_chemical_formula_moiety         'C10 H15 N6 O1 1+,F6 P1 1-'
_chemical_name_systematic        
'N-[(1H-1,2,3-Triazolo[4,5-b]pyridin-1-yloxy)-(dimethylamino)methylene]-N-methylmethanaminium hexafluorophosphate'
_symmetry_cell_setting           monoclinic
_symmetry_space_group_name_H-M   'P 21/n'
_symmetry_Int_Tables_number      14
_space_group_name_Hall           '-P 2yn'
loop_
_symmetry_equiv_pos_site_id
_symmetry_equiv_pos_as_xyz
1 x,y,z
2 1/2+x,1/2-y,1/2+z
3 -x,-y,-z
4 1/2-x,1/2+y,1/2-z
_cell_length_a                   6.3787(6)
_cell_length_b                   19.696(5)
_cell_length_c                   13.330(3)
_cell_angle_alpha                90
_cell_angle_beta                 99.942(12)
_cell_angle_gamma                90
_cell_volume                     1649.56
_exptl_crystal_colour            colorless
_exptl_crystal_description       acicular
_cell_formula_units_Z            4
loop_
_atom_site_label
_atom_site_type_symbol
_atom_site_fract_x
_atom_site_fract_y
_atom_site_fract_z
P1 P 0.61509(17) -0.13910(7) 0.12472(9)
F1 F 0.5753(8) -0.1038(4) 0.0205(4)
F2 F 0.3691(4) -0.13493(17) 0.1297(3)
F3 F 0.6500(6) -0.0713(2) 0.1826(5)
F4 F 0.8621(5) -0.1412(2) 0.1221(3)
F5 F 0.5830(9) -0.2079(3) 0.0708(5)
F6 F 0.6547(7) -0.1757(3) 0.2272(4)
O1 O 0.6510(4) -0.07290(13) -0.30879(19)
N1 N 0.1082(5) -0.0905(2) -0.3515(3)
N2 N 0.2917(5) -0.0866(2) -0.2910(3)
N3 N 0.4408(4) -0.08392(17) -0.3512(2)
N4 N 0.4565(4) -0.08047(17) -0.5314(2)
N5 N 0.8582(5) -0.0985(2) -0.1616(3)
N6 N 0.6975(6) -0.1868(2) -0.2649(3)
C1 C 0.1411(6) -0.0877(2) -0.4507(3)
C2 C 0.0048(6) -0.0884(3) -0.5444(4)
C3 C 0.0979(7) -0.0852(2) -0.6283(3)
C4 C 0.3198(6) -0.0818(2) -0.6189(3)
C5 C 0.3578(5) -0.08281(18) -0.4521(3)
C6 C 0.7377(6) -0.1229(2) -0.2414(3)
C7 C 1.0376(9) -0.1369(4) -0.1069(4)
C8 C 0.8333(11) -0.0282(3) -0.1269(4)
C9 C 0.645(1) -0.2101(3) -0.3713(4)
C10 C 0.6884(12) -0.2385(3) -0.1857(5)
H1 H -0.1454 -0.0909 -0.5493
H2 H 0.0119 -0.0853 -0.6940
H3 H 0.3774 -0.0803 -0.6800
H4 H 1.0384 -0.1811 -0.1354
H5 H 1.1666 -0.1143 -0.1126
H6 H 1.0247 -0.1403 -0.0372
H7 H 0.7123 -0.0080 -0.1675
H8 H 0.9568 -0.0027 -0.1331
H9 H 0.8149 -0.0287 -0.0577
H10 H 0.6560 -0.1731 -0.4158
H11 H 0.7421 -0.2447 -0.3827
H12 H 0.5044 -0.2275 -0.3840
H13 H 0.7245 -0.2183 -0.1203
H14 H 0.7863 -0.2739 -0.1923
H15 H 0.5485 -0.2567 -0.1936
loop_
_geom_bond_atom_site_label_1
_geom_bond_atom_site_label_2
_geom_bond_site_symmetry_1
_geom_bond_site_symmetry_2
P1 F1 1_555 1_555
F2 P1 1_555 1_555
F3 P1 1_555 1_555
F4 P1 1_555 1_555
F5 P1 1_555 1_555
F6 P1 1_555 1_555
O1 N3 1_555 1_555
N1 N2 1_555 1_555
N2 N3 1_555 1_555
N3 C5 1_555 1_555
N4 C4 1_555 1_555
N5 C6 1_555 1_555
N6 C6 1_555 1_555
C1 N1 1_555 1_555
C2 C1 1_555 1_555
C3 C2 1_555 1_555
C4 C3 1_555 1_555
C5 N4 1_555 1_555
C6 O1 1_555 1_555
C7 N5 1_555 1_555
C8 N5 1_555 1_555
C9 N6 1_555 1_555
C10 N6 1_555 1_555
H1 C2 1_555 1_555
H2 C3 1_555 1_555
H3 C4 1_555 1_555
H4 C7 1_555 1_555
H5 C7 1_555 1_555
H6 C7 1_555 1_555
H7 C8 1_555 1_555
H8 C8 1_555 1_555
H9 C8 1_555 1_555
H10 C9 1_555 1_555
H11 C9 1_555 1_555
H12 C9 1_555 1_555
H13 C10 1_555 1_555
H14 C10 1_555 1_555
H15 C10 1_555 1_555
C1 C5 1_555 1_555

#END
