
#######################################################################
#
#                 Cambridge Crystallographic Data Centre
#                                CCDC 
#
#######################################################################
#
# If this CIF has been generated from an entry in the Cambridge 
# Structural Database, then it will include bibliographic, chemical, 
# crystal, experimental, refinement or atomic coordinate data resulting 
# from the CCDC's data processing and validation procedures.
#
#######################################################################

data_IDUQOO02
_chemical_formula_moiety         'C14 H15 N1 O4'
_chemical_name_systematic        
'7-(diethylamino)-2-oxo-2H-1-benzopyran-3-carboxylic acid'
_symmetry_cell_setting           triclinic
_symmetry_space_group_name_H-M   'P -1'
_symmetry_Int_Tables_number      2
_space_group_name_Hall           '-P 1'
loop_
_symmetry_equiv_pos_site_id
_symmetry_equiv_pos_as_xyz
1 x,y,z
2 -x,-y,-z
_cell_length_a                   5.0788(3)
_cell_length_b                   10.0610(7)
_cell_length_c                   12.9069(8)
_cell_angle_alpha                76.261(5)
_cell_angle_beta                 80.914(5)
_cell_angle_gamma                81.176(5)
_cell_volume                     627.971
_cell_formula_units_Z            2
loop_
_atom_site_label
_atom_site_type_symbol
_atom_site_fract_x
_atom_site_fract_y
_atom_site_fract_z
N1 N 0.7318(4) 0.1848(2) 0.72403(15)
O1 O -0.0140(3) 0.51980(16) 0.63744(10)
O2 O -0.3462(4) 0.6755(2) 0.58624(12)
O3 O -0.7134(4) 0.7654(2) 0.72525(14)
H1 H -0.6308 0.7538 0.6675
O4 O -0.6755(4) 0.68623(19) 0.89710(13)
C1 C -0.2409(5) 0.6032(2) 0.66205(16)
C2 C -0.3375(4) 0.5987(2) 0.77421(16)
C3 C -0.2012(4) 0.5132(2) 0.85099(15)
H2 H -0.2657 0.5098 0.9230
C4 C 0.0356(4) 0.4293(2) 0.82428(15)
C5 C 0.1260(4) 0.4332(2) 0.71520(15)
C6 C 0.3517(4) 0.3536(2) 0.67996(15)
H3 H 0.4020 0.3589 0.6068
C7 C 0.5060(5) 0.2641(2) 0.75517(16)
C8 C 0.4185(5) 0.2617(2) 0.86611(17)
H4 H 0.5192 0.2052 0.9176
C9 C 0.1920(5) 0.3397(2) 0.89833(15)
H5 H 0.1390 0.3336 0.9715
C10 C -0.5878(5) 0.6859(2) 0.80504(18)
C11 C 0.8217(5) 0.1842(3) 0.6109(2)
H6 H 1.0157 0.1631 0.6012
H7 H 0.7767 0.2758 0.5680
C12 C 0.7008(7) 0.0826(4) 0.5702(3)
H8 H 0.7472 -0.0086 0.6113
H9 H 0.7689 0.0871 0.4959
H10 H 0.5090 0.1044 0.5774
C13 C 0.8803(6) 0.0856(3) 0.8014(2)
H11 H 0.9032 0.1293 0.8583
H12 H 1.0576 0.0597 0.7661
C14 C 0.7506(8) -0.0413(3) 0.8504(3)
H13 H 0.5667 -0.0164 0.8771
H14 H 0.8438 -0.0951 0.9085
H15 H 0.7573 -0.0943 0.7970
loop_
_geom_bond_atom_site_label_1
_geom_bond_atom_site_label_2
_geom_bond_site_symmetry_1
_geom_bond_site_symmetry_2
N1 C7 1_555 1_555
O1 C1 1_555 1_555
O2 C1 1_555 1_555
O3 H1 1_555 1_555
O4 C10 1_555 1_555
C1 C2 1_555 1_555
C2 C3 1_555 1_555
C3 H2 1_555 1_555
C4 C3 1_555 1_555
C5 O1 1_555 1_555
C6 C5 1_555 1_555
H3 C6 1_555 1_555
C7 C6 1_555 1_555
C8 C7 1_555 1_555
H4 C8 1_555 1_555
C9 C4 1_555 1_555
H5 C9 1_555 1_555
C10 O3 1_555 1_555
C11 N1 1_555 1_555
H6 C11 1_555 1_555
H7 C11 1_555 1_555
C12 C11 1_555 1_555
H8 C12 1_555 1_555
H9 C12 1_555 1_555
H10 C12 1_555 1_555
C13 N1 1_555 1_555
H11 C13 1_555 1_555
H12 C13 1_555 1_555
C14 C13 1_555 1_555
H13 C14 1_555 1_555
H14 C14 1_555 1_555
H15 C14 1_555 1_555
C2 C10 1_555 1_555
C4 C5 1_555 1_555
C8 C9 1_555 1_555

#END
