
#######################################################################
#
#                 Cambridge Crystallographic Data Centre
#                                CCDC 
#
#######################################################################
#
# If this CIF has been generated from an entry in the Cambridge 
# Structural Database, then it will include bibliographic, chemical, 
# crystal, experimental, refinement or atomic coordinate data resulting 
# from the CCDC's data processing and validation procedures.
#
#######################################################################

data_IDUQOO01
_chemical_name_common            
"7-(N, N'-diethylamino)coumarin-3-carboxylic acid"
_chemical_formula_moiety         'C14 H15 N1 O4'
_chemical_name_systematic        
'7-Diethylamino-2-oxo-2H-chromene-3-carboxylic acid'
_symmetry_cell_setting           monoclinic
_symmetry_space_group_name_H-M   'P 21/c'
_symmetry_Int_Tables_number      14
_space_group_name_Hall           '-P 2ybc'
loop_
_symmetry_equiv_pos_site_id
_symmetry_equiv_pos_as_xyz
1 x,y,z
2 -x,1/2+y,1/2-z
3 -x,-y,-z
4 x,1/2-y,1/2+z
_cell_length_a                   14.134(6)
_cell_length_b                   7.858(3)
_cell_length_c                   12.702(4)
_cell_angle_alpha                90
_cell_angle_beta                 116.584(9)
_cell_angle_gamma                90
_cell_volume                     1261.6
_cell_formula_units_Z            4
_exptl_crystal_recrystallization_method chloroform
_exptl_crystal_preparation       photoluminescent
loop_
_atom_site_label
_atom_site_type_symbol
_atom_site_fract_x
_atom_site_fract_y
_atom_site_fract_z
O1 O 1.23656(15) 1.0074(2) 0.50354(16)
O2 O 1.20531(15) 0.9835(2) 0.31895(16)
H1 H 1.2332 1.0121 0.2773
O3 O 1.34164(13) 1.1163(2) 0.25596(13)
O4 O 1.48360(12) 1.2448(2) 0.38503(12)
N1 N 1.79987(17) 1.5265(3) 0.64111(17)
C1 C 1.2649(2) 1.0344(3) 0.4287(2)
C2 C 1.36493(17) 1.1241(3) 0.45335(18)
C3 C 1.39249(18) 1.1579(3) 0.35878(19)
C4 C 1.55020(17) 1.2991(3) 0.49691(17)
C5 C 1.52420(17) 1.2650(3) 0.58937(18)
C6 C 1.42984(18) 1.1778(3) 0.56341(19)
H2 H 1.4113 1.1563 0.6238
C7 C 1.63890(17) 1.3837(3) 0.51121(18)
H3 H 1.6520 1.4039 0.4467
C8 C 1.71079(18) 1.4408(3) 0.62334(19)
C9 C 1.68600(19) 1.4083(3) 0.71843(19)
H4 H 1.7322 1.4448 0.7938
C10 C 1.5962(2) 1.3252(3) 0.70103(19)
H5 H 1.5817 1.3075 0.7648
C11 C 1.8271(2) 1.5590(3) 0.5443(2)
H6 H 1.8753 1.6549 0.5652
H7 H 1.7633 1.5904 0.4748
C12 C 1.8771(3) 1.4107(4) 0.5148(3)
H8 H 1.9433 1.3844 0.5811
H9 H 1.8892 1.4385 0.4482
H10 H 1.8310 1.3139 0.4963
C13 C 1.8777(2) 1.5807(4) 0.7600(3)
H11 H 1.9197 1.6735 0.7529
H12 H 1.8404 1.6225 0.8029
C14 C 1.9477(3) 1.4427(5) 0.8261(3)
H13 H 1.9068 1.3534 0.8376
H14 H 1.9987 1.4844 0.9012
H15 H 1.9836 1.3992 0.7831
loop_
_geom_bond_atom_site_label_1
_geom_bond_atom_site_label_2
_geom_bond_site_symmetry_1
_geom_bond_site_symmetry_2
O1 C1 1_555 1_555
O2 H1 1_555 1_555
O3 C3 1_555 1_555
O4 C3 1_555 1_555
N1 C8 1_555 1_555
C1 O2 1_555 1_555
C2 C1 1_555 1_555
C3 C2 1_555 1_555
C4 O4 1_555 1_555
C5 C4 1_555 1_555
C6 C2 1_555 1_555
H2 C6 1_555 1_555
C7 C4 1_555 1_555
H3 C7 1_555 1_555
C8 C7 1_555 1_555
C9 C8 1_555 1_555
H4 C9 1_555 1_555
C10 C5 1_555 1_555
H5 C10 1_555 1_555
C11 N1 1_555 1_555
H6 C11 1_555 1_555
H7 C11 1_555 1_555
C12 C11 1_555 1_555
H8 C12 1_555 1_555
H9 C12 1_555 1_555
H10 C12 1_555 1_555
C13 N1 1_555 1_555
H11 C13 1_555 1_555
H12 C13 1_555 1_555
C14 C13 1_555 1_555
H13 C14 1_555 1_555
H14 C14 1_555 1_555
H15 C14 1_555 1_555
C5 C6 1_555 1_555
C9 C10 1_555 1_555

#END
