
#######################################################################
#
#                 Cambridge Crystallographic Data Centre
#                                CCDC 
#
#######################################################################
#
# If this CIF has been generated from an entry in the Cambridge 
# Structural Database, then it will include bibliographic, chemical, 
# crystal, experimental, refinement or atomic coordinate data resulting 
# from the CCDC's data processing and validation procedures.
#
#######################################################################

data_IDUREF
_chemical_formula_moiety         'C12 H9 N2 1+,Cl1 O4 1-'
_chemical_name_systematic        '1,10-Phenanthrolinium perchlorate'
_symmetry_cell_setting           triclinic
_symmetry_space_group_name_H-M   'P -1'
_symmetry_Int_Tables_number      2
_space_group_name_Hall           '-P 1'
loop_
_symmetry_equiv_pos_site_id
_symmetry_equiv_pos_as_xyz
1 x,y,z
2 -x,-y,-z
_cell_length_a                   5.8054(12)
_cell_length_b                   9.778(2)
_cell_length_c                   10.628(2)
_cell_angle_alpha                93.16(3)
_cell_angle_beta                 101.41(3)
_cell_angle_gamma                98.08(3)
_cell_volume                     583.365
_exptl_crystal_colour            pink
_exptl_crystal_description       block
_cell_formula_units_Z            2
loop_
_atom_site_label
_atom_site_type_symbol
_atom_site_fract_x
_atom_site_fract_y
_atom_site_fract_z
Cl1 Cl 0.31908(7) 0.82627(4) 0.26251(4)
O1 O 0.0667(2) 0.81643(17) 0.23368(15)
O2 O 0.4198(3) 0.92981(17) 0.36559(15)
O3 O 0.3823(4) 0.69603(18) 0.2983(2)
O4 O 0.4066(4) 0.8645(3) 0.15122(18)
N1 N -0.3268(3) 0.41582(15) 0.36117(14)
N2 N -0.6980(3) 0.26945(15) 0.44488(14)
C1 C -0.5063(3) 0.33998(16) 0.27218(16)
C2 C -0.7008(3) 0.26530(15) 0.31678(15)
C3 C -0.5126(3) 0.32988(17) 0.13890(17)
C4 C -0.8950(3) 0.18057(19) 0.09582(18)
H1 H -1.0227 0.1293 0.0375
C5 C -0.8953(3) 0.18658(17) 0.23081(17)
C6 C -1.0822(3) 0.11925(18) 0.2824(2)
H2 H -1.2133 0.0665 0.2276
C7 C -0.3192(4) 0.4030(2) 0.09733(19)
H3 H -0.3148 0.3996 0.0102
C8 C -0.1489(3) 0.48243(18) 0.3166(2)
H4 H -0.0234 0.5346 0.3757
C9 C -0.7121(3) 0.2482(2) 0.05258(17)
H5 H -0.7149 0.2420 -0.0354
C10 C -0.1374(4) 0.47946(19) 0.1863(2)
H6 H -0.0081 0.5287 0.1605
C11 C -0.8734(3) 0.20594(19) 0.49363(18)
H7 H -0.8628 0.2119 0.5823
C12 C -1.0727(3) 0.13066(19) 0.4123(2)
H8 H -1.1986 0.0884 0.4457
H9 H -0.574(2) 0.3160(19) 0.4901(18)
loop_
_geom_bond_atom_site_label_1
_geom_bond_atom_site_label_2
_geom_bond_site_symmetry_1
_geom_bond_site_symmetry_2
Cl1 O1 1_555 1_555
O2 Cl1 1_555 1_555
O3 Cl1 1_555 1_555
O4 Cl1 1_555 1_555
N1 C1 1_555 1_555
N2 C2 1_555 1_555
C1 C2 1_555 1_555
C2 C5 1_555 1_555
C3 C1 1_555 1_555
C4 H1 1_555 1_555
C5 C4 1_555 1_555
C6 C5 1_555 1_555
H2 C6 1_555 1_555
C7 C3 1_555 1_555
H3 C7 1_555 1_555
C8 N1 1_555 1_555
H4 C8 1_555 1_555
C9 C3 1_555 1_555
H5 C9 1_555 1_555
C10 C7 1_555 1_555
H6 C10 1_555 1_555
C11 N2 1_555 1_555
H7 C11 1_555 1_555
C12 C6 1_555 1_555
H8 C12 1_555 1_555
H9 N2 1_555 1_555
C4 C9 1_555 1_555
C8 C10 1_555 1_555
C11 C12 1_555 1_555

#END
