
#######################################################################
#
#                 Cambridge Crystallographic Data Centre
#                                CCDC 
#
#######################################################################
#
# If this CIF has been generated from an entry in the Cambridge 
# Structural Database, then it will include bibliographic, chemical, 
# crystal, experimental, refinement or atomic coordinate data resulting 
# from the CCDC's data processing and validation procedures.
#
#######################################################################

data_IDURUU
_chemical_formula_moiety         'C10 H17 Cl1 O1'
_chemical_name_systematic        3-Chloro-5-methyl-bicyclo[3.3.1]nonan-1-ol
_symmetry_cell_setting           monoclinic
_symmetry_space_group_name_H-M   'P 21/c'
_symmetry_Int_Tables_number      14
_space_group_name_Hall           '-P 2ybc'
loop_
_symmetry_equiv_pos_site_id
_symmetry_equiv_pos_as_xyz
1 x,y,z
2 x,1/2-y,1/2+z
3 -x,-y,-z
4 -x,1/2+y,1/2-z
_cell_length_a                   11.311(3)
_cell_length_b                   21.356(6)
_cell_length_c                   8.437(2)
_cell_angle_alpha                90
_cell_angle_beta                 95.980(5)
_cell_angle_gamma                90
_cell_volume                     2026.93
_exptl_crystal_colour            colorless
_exptl_crystal_description       needle
_cell_formula_units_Z            8
loop_
_atom_site_label
_atom_site_type_symbol
_atom_site_fract_x
_atom_site_fract_y
_atom_site_fract_z
C1 C 0.0431(7) 0.8376(4) 0.1313(9)
C2 C -0.0301(7) 0.8971(3) 0.1215(9)
H1 H -0.0491 0.9085 0.0080
H2 H -0.1061 0.8888 0.1662
C3 C 0.0296(7) 0.9517(3) 0.2076(9)
H3 H 0.0929 0.9673 0.1433
C4 C 0.0860(7) 0.9358(3) 0.3683(9)
H6 H 0.0231 0.9323 0.4412
H7 H 0.1390 0.9706 0.4070
C5 C 0.1591(8) 0.8744(4) 0.3775(10)
C6 C 0.2710(8) 0.8778(4) 0.2908(10)
H8 H 0.3197 0.9138 0.3330
H9 H 0.3183 0.8393 0.3143
C7 C 0.2460(8) 0.8847(4) 0.1116(11)
H12 H 0.2186 0.9285 0.0866
C8 C 0.1514(7) 0.8397(4) 0.0426(9)
H13 H 0.1268 0.8516 -0.0694
H14 H 0.1861 0.7971 0.0420
C9 C 0.0809(7) 0.8221(3) 0.3029(8)
H15 H 0.1255 0.7821 0.3098
H16 H 0.0100 0.8172 0.3613
C10 C 0.1941(9) 0.8592(4) 0.5502(10)
H17 H 0.2399 0.8201 0.5582
H18 H 0.1225 0.8542 0.6051
H19 H 0.2428 0.8933 0.5999
O1 O -0.0314(5) 0.7876(2) 0.0649(6)
H20 H -0.0489 0.7639 0.1385
Cl1 Cl -0.0758(3) 1.01207(11) 0.2184(3)
C11 C 0.2288(8) 0.1725(4) 0.3112(10)
C12 C 0.3107(6) 0.2284(4) 0.3211(10)
H21 H 0.2863 0.2579 0.4021
H22 H 0.3030 0.2503 0.2171
C13 C 0.4391(8) 0.2105(4) 0.3641(13)
H23 H 0.4483 0.1975 0.4786
C14 C 0.4770(8) 0.1565(4) 0.2676(12)
H26 H 0.4864 0.1714 0.1585
H27 H 0.5556 0.1416 0.3154
C15 C 0.3923(9) 0.1025(5) 0.2566(13)
C16 C 0.3903(9) 0.0698(5) 0.4077(10)
H28 H 0.4728 0.0594 0.4506
H29 H 0.3458 0.0301 0.3896
C17 C 0.3325(10) 0.1093(5) 0.5304(11)
H32 H 0.3899 0.1442 0.5580
C18 C 0.2187(8) 0.1411(4) 0.4718(9)
H33 H 0.1993 0.1729 0.5503
H34 H 0.1535 0.1100 0.4605
C19 C 0.2717(8) 0.1247(4) 0.1993(10)
H35 H 0.2163 0.0887 0.1902
H36 H 0.2725 0.1435 0.0921
C20 C 0.4388(10) 0.0544(5) 0.1445(14)
H37 H 0.3865 0.0176 0.1373
H38 H 0.5194 0.0417 0.1860
H39 H 0.4403 0.0729 0.0385
O2 O 0.1137(5) 0.1935(3) 0.2502(6)
H40 H 0.1101 0.1963 0.1506
Cl3 Cl 0.5287(3) 0.27312(17) 0.3455(5)
H4? H 0.0910 0.9685 0.1436
H5? H -0.0299 0.9851 0.2170
H10? H 0.2198 0.9281 0.0860
H11? H 0.3201 0.8772 0.0617
Cl2? Cl 0.3753(14) 0.871(2) 0.025(2)
H24? H 0.4901 0.2470 0.3475
H25? H 0.4510 0.1993 0.4785
H30? H 0.3175 0.0818 0.6207
H31? H 0.3902 0.1416 0.5723
Cl4? Cl 0.3319(8) 0.0688(4) 0.6960(8)
loop_
_geom_bond_atom_site_label_1
_geom_bond_atom_site_label_2
_geom_bond_site_symmetry_1
_geom_bond_site_symmetry_2
C1 C2 1_555 1_555
C2 H1 1_555 1_555
H2 C2 1_555 1_555
C3 C2 1_555 1_555
H3 C3 1_555 1_555
C4 C3 1_555 1_555
H6 C4 1_555 1_555
H7 C4 1_555 1_555
C5 C4 1_555 1_555
C6 C5 1_555 1_555
H8 C6 1_555 1_555
H9 C6 1_555 1_555
C7 C6 1_555 1_555
H12 C7 1_555 1_555
C8 C1 1_555 1_555
H13 C8 1_555 1_555
H14 C8 1_555 1_555
C9 C1 1_555 1_555
H15 C9 1_555 1_555
H16 C9 1_555 1_555
C10 C5 1_555 1_555
H17 C10 1_555 1_555
H18 C10 1_555 1_555
H19 C10 1_555 1_555
O1 C1 1_555 1_555
H20 O1 1_555 1_555
Cl1 C3 1_555 1_555
C11 C12 1_555 1_555
C12 H21 1_555 1_555
H22 C12 1_555 1_555
C13 C12 1_555 1_555
H23 C13 1_555 1_555
C14 C13 1_555 1_555
H26 C14 1_555 1_555
H27 C14 1_555 1_555
C15 C14 1_555 1_555
C16 C15 1_555 1_555
H28 C16 1_555 1_555
H29 C16 1_555 1_555
C17 C16 1_555 1_555
H32 C17 1_555 1_555
C18 C11 1_555 1_555
H33 C18 1_555 1_555
H34 C18 1_555 1_555
C19 C11 1_555 1_555
H35 C19 1_555 1_555
H36 C19 1_555 1_555
C20 C15 1_555 1_555
H37 C20 1_555 1_555
H38 C20 1_555 1_555
H39 C20 1_555 1_555
O2 C11 1_555 1_555
H40 O2 1_555 1_555
Cl3 C13 1_555 1_555
C5 C9 1_555 1_555
C7 C8 1_555 1_555
C15 C19 1_555 1_555
C17 C18 1_555 1_555

#END
