
#######################################################################
#
#                 Cambridge Crystallographic Data Centre
#                                CCDC 
#
#######################################################################
#
# If this CIF has been generated from an entry in the Cambridge 
# Structural Database, then it will include bibliographic, chemical, 
# crystal, experimental, refinement or atomic coordinate data resulting 
# from the CCDC's data processing and validation procedures.
#
#######################################################################

data_IDUSIK
_chemical_name_common            
'1-Butyl-3-(4-chlorobenzothiazol-2-yl)urea monohydrate'
_chemical_formula_moiety         'C12 H14 Cl1 N3 O1 S1,H2 O1'
_chemical_name_systematic        
'1-Butyl-3-(4-chloro-1,3-benzothiazol-2-yl)urea monohydrate'
_symmetry_cell_setting           triclinic
_symmetry_space_group_name_H-M   'P -1'
_symmetry_Int_Tables_number      2
_space_group_name_Hall           '-P 1'
loop_
_symmetry_equiv_pos_site_id
_symmetry_equiv_pos_as_xyz
1 x,y,z
2 -x,-y,-z
_cell_length_a                   7.0075(16)
_cell_length_b                   7.6324(18)
_cell_length_c                   14.826(3)
_cell_angle_alpha                96.568(4)
_cell_angle_beta                 91.451(4)
_cell_angle_gamma                114.775(4)
_cell_volume                     712.883
_exptl_crystal_colour            colorless
_exptl_crystal_description       Prism
_chemical_melting_point          188-189deg.C
_cell_formula_units_Z            2
_exptl_crystal_recrystallization_method acetone/water
loop_
_atom_site_label
_atom_site_type_symbol
_atom_site_fract_x
_atom_site_fract_y
_atom_site_fract_z
Cl1 Cl 1.64422(9) 1.31310(10) 0.30212(4)
S1 S 0.85576(8) 0.87168(8) 0.17938(4)
O1 O 0.7215(2) 0.6745(2) 0.01314(10)
N1 N 1.2642(3) 1.0310(2) 0.16851(11)
N2 N 1.0790(3) 0.8288(2) 0.03696(11)
H1 H 1.1964 0.8539 0.0129
N3 N 0.9211(3) 0.6183(3) -0.09393(12)
H2 H 1.0471 0.6459 -0.1091
C1 C 1.3802(3) 1.2164(3) 0.32347(14)
C2 C 1.3225(4) 1.2626(3) 0.40802(15)
H3 H 1.4255 1.3445 0.4534
C3 C 1.1119(4) 1.1874(3) 0.42564(16)
H4 H 1.0751 1.2195 0.4830
C4 C 0.9565(4) 1.0664(3) 0.36005(15)
H5 H 0.8153 1.0169 0.3720
C5 C 1.0162(3) 1.0197(3) 0.27484(14)
C6 C 1.2279(3) 1.0927(3) 0.25531(13)
C7 C 1.0856(3) 0.9153(3) 0.12350(13)
C8 C 0.8935(3) 0.7023(3) -0.01451(14)
C9 C 0.7433(3) 0.4812(3) -0.15551(14)
H6 H 0.6423 0.5357 -0.1635
H7 H 0.6737 0.3615 -0.1294
C10 C 0.8155(3) 0.4373(3) -0.24681(13)
H8 H 0.8852 0.5578 -0.2724
H9 H 0.9179 0.3848 -0.2381
C11 C 0.6375(4) 0.2946(3) -0.31352(15)
H10 H 0.5363 0.3482 -0.3232
H11 H 0.5661 0.1749 -0.2876
C12 C 0.7120(5) 0.2484(4) -0.40465(16)
H12 H 0.7831 0.3664 -0.4307
H13 H 0.5928 0.1597 -0.4450
H14 H 0.8073 0.1898 -0.3959
O2 O 0.6166(2) 0.2439(2) 0.06225(11)
H15 H 0.5382 0.1697 0.0980
H16 H 0.5680 0.3147 0.0388
loop_
_geom_bond_atom_site_label_1
_geom_bond_atom_site_label_2
_geom_bond_site_symmetry_1
_geom_bond_site_symmetry_2
Cl1 C1 1_555 1_555
S1 C5 1_555 1_555
O1 C8 1_555 1_555
N1 C6 1_555 1_555
N2 H1 1_555 1_555
N3 H2 1_555 1_555
C1 C2 1_555 1_555
C2 H3 1_555 1_555
C3 C2 1_555 1_555
H4 C3 1_555 1_555
C4 C3 1_555 1_555
H5 C4 1_555 1_555
C5 C4 1_555 1_555
C6 C1 1_555 1_555
C7 S1 1_555 1_555
C8 N2 1_555 1_555
C9 N3 1_555 1_555
H6 C9 1_555 1_555
H7 C9 1_555 1_555
C10 C9 1_555 1_555
H8 C10 1_555 1_555
H9 C10 1_555 1_555
C11 C10 1_555 1_555
H10 C11 1_555 1_555
H11 C11 1_555 1_555
C12 C11 1_555 1_555
H12 C12 1_555 1_555
H13 C12 1_555 1_555
H14 C12 1_555 1_555
O2 H15 1_555 1_555
H16 O2 1_555 1_555
N1 C7 1_555 1_555
N2 C7 1_555 1_555
N3 C8 1_555 1_555
C5 C6 1_555 1_555

#END
