
#######################################################################
#
#                 Cambridge Crystallographic Data Centre
#                                CCDC 
#
#######################################################################
#
# If this CIF has been generated from an entry in the Cambridge 
# Structural Database, then it will include bibliographic, chemical, 
# crystal, experimental, refinement or atomic coordinate data resulting 
# from the CCDC's data processing and validation procedures.
#
#######################################################################

data_IDUSAC
_chemical_formula_moiety         'C16 H12 N4 O4'
_chemical_name_systematic        
"3,3'-(4-Amino-1,2,4-triazol-3,5-diyl)dibenzoic acid"
_symmetry_cell_setting           monoclinic
_symmetry_space_group_name_H-M   'C 2/c'
_symmetry_Int_Tables_number      15
_space_group_name_Hall           '-C 2yn'
loop_
_symmetry_equiv_pos_site_id
_symmetry_equiv_pos_as_xyz
1 x,y,z
2 1/2+x,1/2+y,z
3 -x,y,1/2-z
4 1/2-x,1/2+y,1/2-z
5 -x,-y,-z
6 1/2-x,1/2-y,-z
7 x,-y,1/2+z
8 1/2+x,1/2-y,1/2+z
_cell_length_a                   36.920(10)
_cell_length_b                   7.466(2)
_cell_length_c                   10.868(3)
_cell_angle_alpha                90
_cell_angle_beta                 104.038(4)
_cell_angle_gamma                90
_cell_volume                     2906.24
_exptl_crystal_colour            colorless
_exptl_crystal_description       block
_cell_formula_units_Z            8
loop_
_atom_site_label
_atom_site_type_symbol
_atom_site_fract_x
_atom_site_fract_y
_atom_site_fract_z
N1 N 0.37722(7) -0.0909(3) 0.9715(2)
N2 N 0.35219(6) -0.1658(3) 0.8687(2)
N3 N 0.36652(6) 0.1015(3) 0.8148(2)
N4 N 0.37145(7) 0.2525(3) 0.7404(2)
H1 H 0.3770 0.2036 0.6655
H2 H 0.3526 0.3234 0.7259
O1 O 0.32391(7) -0.5623(3) 0.46873(19)
H3 H 0.3305 -0.6388 0.4245
O2 O 0.29777(7) -0.4413(3) 0.28252(19)
O3 O 0.47221(8) -0.0426(4) 1.3608(2)
O4 O 0.48626(7) 0.2286(4) 1.4503(2)
H4 H 0.4974 0.1696 1.5085
C1 C 0.47028(9) 0.1252(6) 1.3586(3)
C2 C 0.44961(9) 0.2180(5) 1.2401(3)
C3 C 0.45035(10) 0.4012(5) 1.2249(3)
H5 H 0.4632 0.4725 1.2915
C4 C 0.43226(10) 0.4792(5) 1.1123(4)
H6 H 0.4334 0.6026 1.1023
C5 C 0.41217(9) 0.3743(5) 1.0133(3)
H7 H 0.4003 0.4275 0.9368
C6 C 0.40990(8) 0.1907(4) 1.0283(3)
C7 C 0.42975(8) 0.1145(5) 1.1413(3)
H8 H 0.4296 -0.0094 1.1506
C8 C 0.38587(8) 0.0688(4) 0.9379(3)
C9 C 0.34587(8) -0.0490(4) 0.7764(3)
C10 C 0.32104(8) -0.0777(4) 0.6501(2)
C11 C 0.29556(8) 0.0516(4) 0.5905(3)
H9 H 0.2936 0.1596 0.6310
C12 C 0.27313(8) 0.0183(4) 0.4705(3)
H10 H 0.2557 0.1032 0.4316
C13 C 0.27647(8) -0.1379(4) 0.4092(3)
H11 H 0.2619 -0.1571 0.3276
C14 C 0.30165(8) -0.2691(4) 0.4682(3)
C15 C 0.30698(8) -0.4322(4) 0.3967(3)
C16 C 0.32344(7) -0.2395(4) 0.5894(2)
H12 H 0.3397 -0.3281 0.6302
loop_
_geom_bond_atom_site_label_1
_geom_bond_atom_site_label_2
_geom_bond_site_symmetry_1
_geom_bond_site_symmetry_2
N1 N2 1_555 1_555
N2 C9 1_555 1_555
N3 N4 1_555 1_555
N4 H1 1_555 1_555
H2 N4 1_555 1_555
O1 H3 1_555 1_555
O2 C15 1_555 1_555
O3 C1 1_555 1_555
O4 H4 1_555 1_555
C1 O4 1_555 1_555
C2 C1 1_555 1_555
C3 C2 1_555 1_555
H5 C3 1_555 1_555
C4 C3 1_555 1_555
H6 C4 1_555 1_555
C5 C4 1_555 1_555
H7 C5 1_555 1_555
C6 C5 1_555 1_555
C7 C2 1_555 1_555
H8 C7 1_555 1_555
C8 N1 1_555 1_555
C9 N3 1_555 1_555
C10 C9 1_555 1_555
C11 C10 1_555 1_555
H9 C11 1_555 1_555
C12 C11 1_555 1_555
H10 C12 1_555 1_555
C13 C12 1_555 1_555
H11 C13 1_555 1_555
C14 C13 1_555 1_555
C15 O1 1_555 1_555
C16 C10 1_555 1_555
H12 C16 1_555 1_555
N3 C8 1_555 1_555
C6 C7 1_555 1_555
C6 C8 1_555 1_555
C14 C15 1_555 1_555
C14 C16 1_555 1_555

#END
