
#######################################################################
#
#                 Cambridge Crystallographic Data Centre
#                                CCDC 
#
#######################################################################
#
# If this CIF has been generated from an entry in the Cambridge 
# Structural Database, then it will include bibliographic, chemical, 
# crystal, experimental, refinement or atomic coordinate data resulting 
# from the CCDC's data processing and validation procedures.
#
#######################################################################

data_IDUTOR
_chemical_formula_moiety         'C2 H10 N2 2+,C6 H2 O4 S1 2-,2(H2 O1)'
_chemical_name_systematic        
'Ethylenediammonium thiophene-2,5-dicarboxylate dihydrate'
_symmetry_cell_setting           monoclinic
_symmetry_space_group_name_H-M   'C 2/c'
_symmetry_Int_Tables_number      15
_space_group_name_Hall           '-C 2yn'
loop_
_symmetry_equiv_pos_site_id
_symmetry_equiv_pos_as_xyz
1 x,y,z
2 1/2+x,1/2+y,z
3 -x,y,1/2-z
4 1/2-x,1/2+y,1/2-z
5 -x,-y,-z
6 1/2-x,1/2-y,-z
7 x,-y,1/2+z
8 1/2+x,1/2-y,1/2+z
_cell_length_a                   11.4660(10)
_cell_length_b                   11.8400(10)
_cell_length_c                   10.2335(8)
_cell_angle_alpha                90
_cell_angle_beta                 121.8650(10)
_cell_angle_gamma                90
_cell_volume                     1179.9
_exptl_crystal_colour            colorless
_exptl_crystal_description       block
_cell_formula_units_Z            4
loop_
_atom_site_label
_atom_site_type_symbol
_atom_site_fract_x
_atom_site_fract_y
_atom_site_fract_z
S1 S 0.0000 0.28881(3) 0.7500
C1 C 0.07326(11) 0.38960(9) 0.89157(11)
C2 C 0.15111(11) 0.35418(9) 1.05636(12)
C3 C 0.04240(12) 0.49597(10) 0.83132(12)
O1 O 0.13038(10) 0.25535(8) 1.08492(10)
O2 O 0.23125(9) 0.42399(7) 1.15521(9)
H1 H 0.0760(16) 0.5703(14) 0.8934(19)
C1B C -0.07326(11) 0.38960(9) 0.60843(11)
C2B C -0.15111(11) 0.35418(9) 0.44364(12)
C3B C -0.04240(12) 0.49597(10) 0.66868(12)
O1B O -0.13038(10) 0.25535(8) 0.41508(10)
O2B O -0.23125(9) 0.42399(7) 0.34479(9)
H1B H -0.0760(16) 0.5703(14) 0.6066(19)
C4 C 0.45547(12) 0.48329(9) 0.53094(13)
H2 H 0.5117(16) 0.4774(14) 0.6436(19)
H3 H 0.3854(17) 0.5341(14) 0.5064(19)
N1 N 0.39028(11) 0.37264(8) 0.46677(12)
H4 H 0.3465(17) 0.3538(14) 0.510(2)
H5 H 0.4557(17) 0.3197(14) 0.4876(18)
H6 H 0.3319(19) 0.3786(14) 0.363(2)
C4D C 0.54453(12) 0.51671(9) 0.46906(13)
H2D H 0.4883(16) 0.5226(14) 0.3564(19)
H3D H 0.6146(17) 0.4659(14) 0.4936(19)
N1D N 0.60972(11) 0.62736(8) 0.53323(12)
H4D H 0.6535(17) 0.6462(14) 0.490(2)
H5D H 0.5443(17) 0.6803(14) 0.5124(18)
H6D H 0.6681(19) 0.6214(14) 0.637(2)
O3 O 0.23762(11) 0.15514(9) 0.36494(11)
H7 H 0.254(2) 0.0892(18) 0.356(2)
H8 H 0.209(2) 0.1909(17) 0.281(3)
loop_
_geom_bond_atom_site_label_1
_geom_bond_atom_site_label_2
_geom_bond_site_symmetry_1
_geom_bond_site_symmetry_2
S1 C1 1_555 1_555
C1 C2 1_555 1_555
C2 O1 1_555 1_555
C3 C1 1_555 1_555
O2 C2 1_555 1_555
H1 C3 1_555 1_555
C4 H2 1_555 1_555
H3 C4 1_555 1_555
N1 C4 1_555 1_555
H4 N1 1_555 1_555
H5 N1 1_555 1_555
H6 N1 1_555 1_555
O3 H7 1_555 1_555
H8 O3 1_555 1_555
C1B S1 1_555 1_555
C2B C1B 1_555 1_555
C3B C3 1_555 1_555
O1B C2B 1_555 1_555
O2B C2B 1_555 1_555
H1B C3B 1_555 1_555
C4D C4 1_555 1_555
H2D C4D 1_555 1_555
H3D C4D 1_555 1_555
N1D C4D 1_555 1_555
H4D N1D 1_555 1_555
H5D N1D 1_555 1_555
H6D N1D 1_555 1_555
C1B C3B 1_555 1_555

#END
