
#######################################################################
#
#                 Cambridge Crystallographic Data Centre
#                                CCDC 
#
#######################################################################
#
# If this CIF has been generated from an entry in the Cambridge 
# Structural Database, then it will include bibliographic, chemical, 
# crystal, experimental, refinement or atomic coordinate data resulting 
# from the CCDC's data processing and validation procedures.
#
#######################################################################

data_IDUTEH
_chemical_formula_moiety         'C13 H19 Cl2 N2 O4 P1 S1'
_chemical_name_systematic        
'3,5-Dichloro-6-morpholinopyridin-2-yl diethyl thiophosphate'
_chemical_properties_biological  'pesticidal activity'
_symmetry_cell_setting           triclinic
_symmetry_space_group_name_H-M   'P -1'
_symmetry_Int_Tables_number      2
_space_group_name_Hall           '-P 1'
loop_
_symmetry_equiv_pos_site_id
_symmetry_equiv_pos_as_xyz
1 x,y,z
2 -x,-y,-z
_cell_length_a                   7.771(4)
_cell_length_b                   10.464(7)
_cell_length_c                   12.063(5)
_cell_angle_alpha                88.23(2)
_cell_angle_beta                 72.106(17)
_cell_angle_gamma                84.80(2)
_cell_volume                     929.615
_exptl_crystal_colour            colorless
_exptl_crystal_description       chunk
_cell_formula_units_Z            2
_exptl_crystal_recrystallization_method 'diethyl ether'
loop_
_atom_site_label
_atom_site_type_symbol
_atom_site_fract_x
_atom_site_fract_y
_atom_site_fract_z
Cl1 Cl 0.66222(8) 0.57954(6) 0.65607(6)
Cl2 Cl 0.44563(8) 0.14733(5) 0.53694(5)
S1 S 0.04992(9) 0.74212(6) 0.68000(5)
P1 P 0.11265(6) 0.71587(5) 0.82025(4)
O1 O 0.2819(2) 0.61190(13) 0.80940(12)
O2 O -0.0371(2) 0.67656(17) 0.93118(12)
O3 O 0.1772(2) 0.83016(13) 0.87231(12)
O4 O -0.2537(2) 0.13964(17) 0.72734(13)
N1 N 0.1873(2) 0.43164(14) 0.75066(12)
N2 N 0.0781(2) 0.24549(14) 0.70291(12)
C1 C 0.3197(2) 0.50538(18) 0.73917(16)
C2 C 0.4935(2) 0.48023(19) 0.66425(17)
C3 C 0.5290(2) 0.37031(19) 0.59869(17)
C4 C 0.3928(2) 0.29092(18) 0.61110(16)
C5 C 0.2189(2) 0.32396(17) 0.68670(14)
C6 C 0.0154(2) 0.2272(2) 0.60143(17)
C7 C -0.1047(2) 0.1183(2) 0.62561(19)
C8 C -0.1902(3) 0.1549(2) 0.82463(19)
C9 C -0.0780(2) 0.2684(2) 0.80765(17)
C10 C -0.1838(3) 0.6025(2) 0.9325(2)
C11 C -0.3561(4) 0.6739(3) 0.9872(3)
C12 C 0.3114(4) 0.9096(2) 0.7987(2)
C13 C 0.3333(4) 1.0164(2) 0.8647(2)
H1 H 0.6438 0.3499 0.5466
H2 H -0.0524 0.3051 0.5872
H3 H 0.1192 0.2074 0.5334
H4 H -0.0339 0.0399 0.6354
H5 H -0.1499 0.1091 0.5600
H6 H -0.1163 0.0779 0.8338
H7 H -0.2935 0.1681 0.8942
H8 H -0.0363 0.2775 0.8748
H9 H -0.1503 0.3460 0.7979
H10 H -0.1760 0.5821 0.8531
H11 H -0.1753 0.5236 0.9757
H12 H -0.3671 0.7503 0.9429
H13 H -0.3624 0.6968 1.0649
H14 H -0.4530 0.6219 0.9901
H15 H 0.4266 0.8586 0.7697
H16 H 0.2716 0.9418 0.7335
H17 H 0.4138 1.0726 0.8138
H18 H 0.3833 0.9851 0.9249
H19 H 0.2174 1.0626 0.8992
loop_
_geom_bond_atom_site_label_1
_geom_bond_atom_site_label_2
_geom_bond_site_symmetry_1
_geom_bond_site_symmetry_2
Cl1 C2 1_555 1_555
Cl2 C4 1_555 1_555
S1 P1 1_555 1_555
P1 O1 1_555 1_555
O1 C1 1_555 1_555
O2 P1 1_555 1_555
O3 P1 1_555 1_555
O4 C7 1_555 1_555
N1 C1 1_555 1_555
N2 C5 1_555 1_555
C1 C2 1_555 1_555
C2 C3 1_555 1_555
C3 C4 1_555 1_555
C4 C5 1_555 1_555
C5 N1 1_555 1_555
C6 N2 1_555 1_555
C7 C6 1_555 1_555
C8 O4 1_555 1_555
C9 N2 1_555 1_555
C10 O2 1_555 1_555
C11 C10 1_555 1_555
C12 O3 1_555 1_555
C13 C12 1_555 1_555
H1 C3 1_555 1_555
H2 C6 1_555 1_555
H3 C6 1_555 1_555
H4 C7 1_555 1_555
H5 C7 1_555 1_555
H6 C8 1_555 1_555
H7 C8 1_555 1_555
H8 C9 1_555 1_555
H9 C9 1_555 1_555
H10 C10 1_555 1_555
H11 C10 1_555 1_555
H12 C11 1_555 1_555
H13 C11 1_555 1_555
H14 C11 1_555 1_555
H15 C12 1_555 1_555
H16 C12 1_555 1_555
H17 C13 1_555 1_555
H18 C13 1_555 1_555
H19 C13 1_555 1_555
C8 C9 1_555 1_555

#END
