
#######################################################################
#
#                 Cambridge Crystallographic Data Centre
#                                CCDC 
#
#######################################################################
#
# If this CIF has been generated from an entry in the Cambridge 
# Structural Database, then it will include bibliographic, chemical, 
# crystal, experimental, refinement or atomic coordinate data resulting 
# from the CCDC's data processing and validation procedures.
#
#######################################################################

data_IDUTUX
_chemical_name_common            
'Urotropine 2,2,3,3-tetramethylcyclopropanecarboxylic acid'
_chemical_formula_moiety         'C6 H12 N4,C8 H14 O2'
_chemical_name_systematic        
'Hexamethylene triamine 2,2,3,3-tetramethylcyclopropanecarboxylic acid'
_symmetry_cell_setting           monoclinic
_symmetry_space_group_name_H-M   'C 2/c'
_symmetry_Int_Tables_number      15
_space_group_name_Hall           '-C 2yn'
loop_
_symmetry_equiv_pos_site_id
_symmetry_equiv_pos_as_xyz
1 x,y,z
2 1/2+x,1/2+y,z
3 -x,y,1/2-z
4 1/2-x,1/2+y,1/2-z
5 -x,-y,-z
6 1/2-x,1/2-y,-z
7 x,-y,1/2+z
8 1/2+x,1/2-y,1/2+z
_cell_length_a                   10.2439(14)
_cell_length_b                   7.0715(9)
_cell_length_c                   42.491(6)
_cell_angle_alpha                90
_cell_angle_beta                 96.881(2)
_cell_angle_gamma                90
_cell_volume                     3055.87
_exptl_crystal_colour            colorless
_exptl_crystal_description       Block
_cell_formula_units_Z            8
loop_
_atom_site_label
_atom_site_type_symbol
_atom_site_fract_x
_atom_site_fract_y
_atom_site_fract_z
O1 O 0.1412(2) 0.1670(3) 0.60939(5)
O2 O 0.2986(2) 0.3560(4) 0.63050(5)
C1 C 0.2106(3) 0.3221(4) 0.60972(6)
C2 C 0.1781(3) 0.4573(4) 0.58358(7)
H1 H 0.2403 0.5631 0.5848
C3 C 0.0397(3) 0.5196(4) 0.56981(6)
C4 C 0.1236(3) 0.4133(4) 0.54918(6)
C5 C -0.0788(3) 0.4259(5) 0.58085(9)
H2 H -0.1532 0.4415 0.5651
H3 H -0.0972 0.4828 0.6003
H4 H -0.0614 0.2935 0.5842
C6 C 0.0200(4) 0.7308(4) 0.56555(9)
H5 H 0.1016 0.7885 0.5618
H6 H -0.0090 0.7835 0.5843
H7 H -0.0450 0.7541 0.5478
C7 C 0.0878(4) 0.2129(5) 0.53929(8)
H8 H 0.0481 0.1511 0.5559
H9 H 0.1657 0.1457 0.5354
H10 H 0.0268 0.2147 0.5203
C8 C 0.1879(3) 0.5175(6) 0.52405(8)
H11 H 0.1274 0.5260 0.5050
H12 H 0.2652 0.4503 0.5197
H13 H 0.2120 0.6424 0.5315
H14 H 0.171(4) 0.098(6) 0.6271(10)
N1 N 0.2281(3) -0.0091(4) 0.71859(6)
N2 N 0.3509(3) -0.2502(4) 0.69463(6)
N3 N 0.2052(2) -0.0428(3) 0.66119(5)
N4 N 0.1149(3) -0.2815(4) 0.69377(7)
C9 C 0.3499(3) -0.1150(5) 0.72028(8)
H15 H 0.3634 -0.1818 0.7403
H16 H 0.4224 -0.0275 0.7197
C10 C 0.2090(4) 0.0889(4) 0.68828(8)
H17 H 0.2800 0.1786 0.6873
H18 H 0.1272 0.1593 0.6867
C11 C 0.1210(3) -0.1453(6) 0.71943(8)
H19 H 0.1329 -0.2121 0.7395
H20 H 0.0382 -0.0776 0.7181
C12 C 0.3294(3) -0.1491(5) 0.66455(7)
H21 H 0.3282 -0.2389 0.6473
H22 H 0.4017 -0.0622 0.6631
C13 C 0.2410(4) -0.3792(4) 0.69601(8)
H23 H 0.2540 -0.4490 0.7158
H24 H 0.2392 -0.4696 0.6788
C14 C 0.0980(4) -0.1793(6) 0.66368(8)
H25 H 0.0148 -0.1123 0.6617
H26 H 0.0953 -0.2692 0.6464
loop_
_geom_bond_atom_site_label_1
_geom_bond_atom_site_label_2
_geom_bond_site_symmetry_1
_geom_bond_site_symmetry_2
O1 C1 1_555 1_555
O2 C1 1_555 1_555
C1 C2 1_555 1_555
C2 H1 1_555 1_555
C3 C2 1_555 1_555
C4 C2 1_555 1_555
C5 C3 1_555 1_555
H2 C5 1_555 1_555
H3 C5 1_555 1_555
H4 C5 1_555 1_555
C6 C3 1_555 1_555
H5 C6 1_555 1_555
H6 C6 1_555 1_555
H7 C6 1_555 1_555
C7 C4 1_555 1_555
H8 C7 1_555 1_555
H9 C7 1_555 1_555
H10 C7 1_555 1_555
C8 C4 1_555 1_555
H11 C8 1_555 1_555
H12 C8 1_555 1_555
H13 C8 1_555 1_555
H14 O1 1_555 1_555
N1 C9 1_555 1_555
N2 C9 1_555 1_555
N3 C10 1_555 1_555
N4 C11 1_555 1_555
C9 H15 1_555 1_555
H16 C9 1_555 1_555
C10 N1 1_555 1_555
H17 C10 1_555 1_555
H18 C10 1_555 1_555
C11 N1 1_555 1_555
H19 C11 1_555 1_555
H20 C11 1_555 1_555
C12 N2 1_555 1_555
H21 C12 1_555 1_555
H22 C12 1_555 1_555
C13 N2 1_555 1_555
H23 C13 1_555 1_555
H24 C13 1_555 1_555
C14 N3 1_555 1_555
H25 C14 1_555 1_555
H26 C14 1_555 1_555
C3 C4 1_555 1_555
N3 C12 1_555 1_555
N4 C13 1_555 1_555
N4 C14 1_555 1_555

#END
