
#######################################################################
#
#                 Cambridge Crystallographic Data Centre
#                                CCDC 
#
#######################################################################
#
# If this CIF has been generated from an entry in the Cambridge 
# Structural Database, then it will include bibliographic, chemical, 
# crystal, experimental, refinement or atomic coordinate data resulting 
# from the CCDC's data processing and validation procedures.
#
#######################################################################

data_IDUTOT
_chemical_formula_moiety         'C30 H32 N2 O2'
_chemical_name_systematic        
2,8-bis[butyl(methyl)amino]indeno[1,2-b]fluorene-6,12-dione
_symmetry_cell_setting           monoclinic
_symmetry_space_group_name_H-M   'P 21/c'
_symmetry_Int_Tables_number      14
_space_group_name_Hall           '-P 2ybc'
loop_
_symmetry_equiv_pos_site_id
_symmetry_equiv_pos_as_xyz
1 x,y,z
2 -x,1/2+y,1/2-z
3 -x,-y,-z
4 x,1/2-y,1/2+z
_cell_length_a                   14.578(4)
_cell_length_b                   8.571(2)
_cell_length_c                   9.811(3)
_cell_angle_alpha                90
_cell_angle_beta                 90.386(5)
_cell_angle_gamma                90
_cell_volume                     1225.84
_exptl_crystal_colour            black
_exptl_crystal_description       block
_cell_formula_units_Z            2
loop_
_atom_site_label
_atom_site_type_symbol
_atom_site_fract_x
_atom_site_fract_y
_atom_site_fract_z
C1 C 0.03751(17) 0.8982(4) 0.3138(3)
H1 H 0.0487 0.8816 0.2186
H2 H 0.0319 1.0080 0.3311
H3 H -0.0182 0.8465 0.3392
C2 C 0.11635(16) 0.8332(3) 0.3963(3)
H4 H 0.1034 0.8480 0.4923
H5 H 0.1712 0.8924 0.3755
C3 C 0.13549(14) 0.6623(2) 0.3716(2)
H6 H 0.1495 0.6471 0.2760
H7 H 0.0807 0.6026 0.3917
C4 C 0.21442(12) 0.6003(2) 0.45727(19)
H8 H 0.2702 0.6534 0.4305
H9 H 0.2031 0.6257 0.5520
C5 C 0.16475(14) 0.3346(2) 0.5198(2)
H10 H 0.1249 0.2826 0.4562
H11 H 0.1289 0.3983 0.5799
H12 H 0.1980 0.2585 0.5721
C6 C 0.28441(11) 0.3671(2) 0.34756(18)
C7 C 0.33378(12) 0.4580(2) 0.25272(19)
H13 H 0.3267 0.5658 0.2537
C8 C 0.39255(12) 0.3917(2) 0.15818(18)
H14 H 0.4242 0.4551 0.0975
C9 C 0.40419(11) 0.2313(2) 0.15404(17)
C10 C 0.45928(11) 0.12650(18) 0.06605(17)
C11 C 0.44013(11) -0.02885(19) 0.10260(17)
C12 C 0.37429(12) -0.0275(2) 0.21851(19)
C13 C 0.35406(11) 0.14049(19) 0.24561(17)
C14 C 0.29551(12) 0.2035(2) 0.34049(17)
H15 H 0.2635 0.1388 0.3995
C15 C 0.47919(11) -0.15642(19) 0.03845(17)
H16 H 0.4648 -0.2579 0.0642
N1 N 0.22897(11) 0.43243(18) 0.44602(16)
O1 O 0.34360(10) -0.14026(15) 0.27874(15)
C1B C 0.96249(17) -0.8982(4) -0.3138(3)
H1B H 0.9513 -0.8816 -0.2186
H2B H 0.9681 -1.0080 -0.3311
H3B H 1.0182 -0.8465 -0.3392
C2B C 0.88365(16) -0.8332(3) -0.3963(3)
H4B H 0.8966 -0.8480 -0.4923
H5B H 0.8288 -0.8924 -0.3755
C3B C 0.86451(14) -0.6623(2) -0.3716(2)
H6B H 0.8505 -0.6471 -0.2760
H7B H 0.9193 -0.6026 -0.3917
C4B C 0.78558(12) -0.6003(2) -0.45727(19)
H8B H 0.7298 -0.6534 -0.4305
H9B H 0.7969 -0.6257 -0.5520
C5B C 0.83525(14) -0.3346(2) -0.5198(2)
H10B H 0.8751 -0.2826 -0.4562
H11B H 0.8711 -0.3983 -0.5799
H12B H 0.8020 -0.2585 -0.5721
C6B C 0.71559(11) -0.3671(2) -0.34756(18)
C7B C 0.66622(12) -0.4580(2) -0.25272(19)
H13B H 0.6733 -0.5658 -0.2537
C8B C 0.60745(12) -0.3917(2) -0.15818(18)
H14B H 0.5758 -0.4551 -0.0975
C9B C 0.59581(11) -0.2313(2) -0.15404(17)
C10B C 0.54072(11) -0.12650(18) -0.06605(17)
C11B C 0.55987(11) 0.02885(19) -0.10260(17)
C12B C 0.62571(12) 0.0275(2) -0.21851(19)
C13B C 0.64594(11) -0.14049(19) -0.24561(17)
C14B C 0.70449(12) -0.2035(2) -0.34049(17)
H15B H 0.7365 -0.1388 -0.3995
C15B C 0.52081(11) 0.15642(19) -0.03845(17)
H16B H 0.5352 0.2579 -0.0642
N1B N 0.77103(11) -0.43243(18) -0.44602(16)
O1B O 0.65640(10) 0.14026(15) -0.27874(15)
loop_
_geom_bond_atom_site_label_1
_geom_bond_atom_site_label_2
_geom_bond_site_symmetry_1
_geom_bond_site_symmetry_2
C1 H1 1_555 1_555
H2 C1 1_555 1_555
H3 C1 1_555 1_555
C2 C1 1_555 1_555
H4 C2 1_555 1_555
H5 C2 1_555 1_555
C3 C2 1_555 1_555
H6 C3 1_555 1_555
H7 C3 1_555 1_555
C4 C3 1_555 1_555
H8 C4 1_555 1_555
H9 C4 1_555 1_555
C5 H10 1_555 1_555
H11 C5 1_555 1_555
H12 C5 1_555 1_555
C6 C7 1_555 1_555
C7 H13 1_555 1_555
C8 C7 1_555 1_555
H14 C8 1_555 1_555
C9 C8 1_555 1_555
C10 C9 1_555 1_555
C11 C10 1_555 1_555
C12 C11 1_555 1_555
C13 C9 1_555 1_555
C14 C6 1_555 1_555
H15 C14 1_555 1_555
C15 C11 1_555 1_555
H16 C15 1_555 1_555
N1 C4 1_555 1_555
O1 C12 1_555 1_555
C1B H1B 1_555 1_555
H2B C1B 1_555 1_555
H3B C1B 1_555 1_555
C2B C1B 1_555 1_555
H4B C2B 1_555 1_555
H5B C2B 1_555 1_555
C3B C2B 1_555 1_555
H6B C3B 1_555 1_555
H7B C3B 1_555 1_555
C4B C3B 1_555 1_555
H8B C4B 1_555 1_555
H9B C4B 1_555 1_555
C5B H10B 1_555 1_555
H11B C5B 1_555 1_555
H12B C5B 1_555 1_555
C6B C7B 1_555 1_555
C7B H13B 1_555 1_555
C8B C7B 1_555 1_555
H14B C8B 1_555 1_555
C9B C8B 1_555 1_555
C10B C15 1_555 1_555
C11B C10B 1_555 1_555
C12B C11B 1_555 1_555
C13B C9B 1_555 1_555
C14B C6B 1_555 1_555
H15B C14B 1_555 1_555
C15B C10 1_555 1_555
H16B C15B 1_555 1_555
N1B C4B 1_555 1_555
O1B C12B 1_555 1_555
C5 N1 1_555 1_555
C6 N1 1_555 1_555
C12 C13 1_555 1_555
C13 C14 1_555 1_555
C5B N1B 1_555 1_555
C6B N1B 1_555 1_555
C9B C10B 1_555 1_555
C11B C15B 1_555 1_555
C12B C13B 1_555 1_555
C13B C14B 1_555 1_555

#END
