
#######################################################################
#
#                 Cambridge Crystallographic Data Centre
#                                CCDC 
#
#######################################################################
#
# If this CIF has been generated from an entry in the Cambridge 
# Structural Database, then it will include bibliographic, chemical, 
# crystal, experimental, refinement or atomic coordinate data resulting 
# from the CCDC's data processing and validation procedures.
#
#######################################################################

data_IDUVIP
_chemical_formula_moiety         'C24 H21 N7,2.25(H2 O1)'
_chemical_name_systematic        
'3,5-bis{[3-(pyridin-2-yl)-1H-pyrazol-1-yl]methyl}aniline hydrate'
_symmetry_cell_setting           monoclinic
_symmetry_space_group_name_H-M   'P 21/n'
_symmetry_Int_Tables_number      14
_space_group_name_Hall           '-P 2yn'
loop_
_symmetry_equiv_pos_site_id
_symmetry_equiv_pos_as_xyz
1 x,y,z
2 1/2-x,1/2+y,1/2-z
3 -x,-y,-z
4 1/2+x,1/2-y,1/2+z
_cell_length_a                   11.4574(3)
_cell_length_b                   10.1888(3)
_cell_length_c                   19.1554(5)
_cell_angle_alpha                90
_cell_angle_beta                 95.3053(12)
_cell_angle_gamma                90
_cell_volume                     2226.57
_exptl_crystal_colour            colorless
_exptl_crystal_description       plate
_cell_formula_units_Z            4
_exptl_crystal_recrystallization_method 
'Re-crystallisation from solvent: ethyl acetate / hexane'
loop_
_atom_site_label
_atom_site_type_symbol
_atom_site_fract_x
_atom_site_fract_y
_atom_site_fract_z
N1 N 0.81316(12) 0.37533(13) 0.00191(6)
C1 C 0.75150(12) 0.48725(14) 0.00005(7)
C2 C 0.77284(13) 0.58996(15) -0.04518(8)
H1 H 0.7283 0.6686 -0.0452
C3 C 0.86013(14) 0.57552(16) -0.09012(9)
H2 H 0.8765 0.6443 -0.1213
C4 C 0.92319(14) 0.45949(16) -0.08897(8)
H3 H 0.9828 0.4466 -0.1196
C5 C 0.89733(14) 0.36335(17) -0.04234(8)
H4 H 0.9413 0.2842 -0.0413
N2 N 0.51522(10) 0.57071(12) 0.09895(6)
N3 N 0.59371(10) 0.60261(11) 0.05324(6)
C6 C 0.65786(12) 0.49385(13) 0.04776(7)
C7 C 0.62132(13) 0.39335(14) 0.09087(7)
H5 H 0.6528 0.3074 0.0967
C8 C 0.53000(13) 0.44677(14) 0.12280(7)
H6 H 0.4855 0.4043 0.1556
C9 C 0.43715(12) 0.67137(15) 0.12322(8)
H7 H 0.3667 0.6289 0.1394
H8 H 0.4113 0.7305 0.0838
N4 N 0.41159(13) 1.46920(13) 0.37713(8)
C10 C 0.40558(13) 1.39203(13) 0.31982(8)
C11 C 0.30832(14) 1.39129(16) 0.27069(9)
H9 H 0.3056 1.3346 0.2312
C12 C 0.21538(15) 1.47448(19) 0.28017(11)
H10 H 0.1488 1.4768 0.2468
C13 C 0.22082(17) 1.55392(18) 0.33873(13)
H11 H 0.1584 1.6118 0.3465
C14 C 0.31856(18) 1.54692(17) 0.38519(12)
H12 H 0.3211 1.6004 0.4259
N5 N 0.61906(10) 1.17745(11) 0.26217(6)
N6 N 0.51072(10) 1.23011(11) 0.25616(6)
C15 C 0.51020(12) 1.31212(13) 0.31082(7)
C16 C 0.61834(14) 1.31055(15) 0.35171(8)
H13 H 0.6403 1.3595 0.3931
C17 C 0.68533(13) 1.22269(15) 0.31869(9)
H14 H 0.7639 1.1983 0.3331
C18 C 0.65015(14) 1.07933(14) 0.21146(9)
H15 H 0.7366 1.0733 0.2131
H16 H 0.6204 1.1082 0.1638
C19 C 0.57616(12) 0.76362(14) 0.30449(7)
C20 C 0.51477(12) 0.69616(14) 0.24904(7)
H17 H 0.4839 0.6115 0.2570
C21 C 0.49834(11) 0.75091(13) 0.18261(7)
C22 C 0.54102(12) 0.87571(14) 0.17018(7)
H18 H 0.5295 0.9134 0.1247
C23 C 0.60090(12) 0.94479(13) 0.22514(8)
C24 C 0.61842(12) 0.88959(14) 0.29128(7)
H19 H 0.6596 0.9376 0.3283
N7 N 0.59759(13) 0.70693(14) 0.36973(7)
H20 H 0.5725 0.6269 0.3771
H21 H 0.6363 0.7507 0.4040
O1 O 0.07290(16) 0.65521(14) 0.47576(8)
H22 H 0.081(3) 0.742(4) 0.5077(18)
H23 H -0.007(3) 0.621(4) 0.4793(18)
O2 O 0.16120(15) 0.42164(17) 0.52656(10)
O3 O 0.4238(5) 0.4657(6) 0.5149(3)
loop_
_geom_bond_atom_site_label_1
_geom_bond_atom_site_label_2
_geom_bond_site_symmetry_1
_geom_bond_site_symmetry_2
N1 C1 1_555 1_555
C1 C2 1_555 1_555
C2 H1 1_555 1_555
C3 C2 1_555 1_555
H2 C3 1_555 1_555
C4 C3 1_555 1_555
H3 C4 1_555 1_555
C5 N1 1_555 1_555
H4 C5 1_555 1_555
N2 N3 1_555 1_555
N3 C6 1_555 1_555
C6 C1 1_555 1_555
C7 C6 1_555 1_555
H5 C7 1_555 1_555
C8 N2 1_555 1_555
H6 C8 1_555 1_555
C9 N2 1_555 1_555
H7 C9 1_555 1_555
H8 C9 1_555 1_555
N4 C10 1_555 1_555
C10 C11 1_555 1_555
C11 H9 1_555 1_555
C12 C11 1_555 1_555
H10 C12 1_555 1_555
C13 C12 1_555 1_555
H11 C13 1_555 1_555
C14 N4 1_555 1_555
H12 C14 1_555 1_555
N5 N6 1_555 1_555
N6 C15 1_555 1_555
C15 C10 1_555 1_555
C16 C15 1_555 1_555
H13 C16 1_555 1_555
C17 N5 1_555 1_555
H14 C17 1_555 1_555
C18 N5 1_555 1_555
H15 C18 1_555 1_555
H16 C18 1_555 1_555
C19 C20 1_555 1_555
C20 H17 1_555 1_555
C21 C9 1_555 1_555
C22 C21 1_555 1_555
H18 C22 1_555 1_555
C23 C18 1_555 1_555
C24 C19 1_555 1_555
H19 C24 1_555 1_555
N7 C19 1_555 1_555
H20 N7 1_555 1_555
H21 N7 1_555 1_555
O1 H22 1_555 1_555
H23 O1 1_555 1_555
C4 C5 1_555 1_555
C7 C8 1_555 1_555
C13 C14 1_555 1_555
C16 C17 1_555 1_555
C20 C21 1_555 1_555
C22 C23 1_555 1_555
C23 C24 1_555 1_555

#END
