
#######################################################################
#
#                 Cambridge Crystallographic Data Centre
#                                CCDC 
#
#######################################################################
#
# If this CIF has been generated from an entry in the Cambridge 
# Structural Database, then it will include bibliographic, chemical, 
# crystal, experimental, refinement or atomic coordinate data resulting 
# from the CCDC's data processing and validation procedures.
#
#######################################################################

data_IDUVIO
_chemical_formula_moiety         'C20 H17 N1 O4 S1'
_chemical_name_systematic        
'Ethyl 3-(1-naphthyl)-2,3-dihydro-1,2-benzothiazole-3-carboxylate 1,1-dioxide'
_symmetry_cell_setting           triclinic
_symmetry_space_group_name_H-M   'P 1'
_symmetry_Int_Tables_number      1
_space_group_name_Hall           'P 1'
loop_
_symmetry_equiv_pos_site_id
_symmetry_equiv_pos_as_xyz
1 x,y,z
_cell_length_a                   8.6190(9)
_cell_length_b                   9.0133(9)
_cell_length_c                   12.6557(13)
_cell_angle_alpha                80.212(2)
_cell_angle_beta                 71.388(2)
_cell_angle_gamma                75.303(2)
_cell_volume                     897.002
_exptl_crystal_colour            colorless
_exptl_crystal_description       prismatic
_cell_formula_units_Z            2
loop_
_atom_site_label
_atom_site_type_symbol
_atom_site_fract_x
_atom_site_fract_y
_atom_site_fract_z
S1 S 0.32452(8) 0.17071(7) 1.10578(6)
N1 N 0.2935(3) 0.3503(3) 1.0478(2)
O1 O 0.4339(3) 0.4951(3) 0.8521(3)
O2 O 0.2203(4) 0.5036(3) 0.7831(2)
O3 O 0.4790(3) 0.1355(3) 1.1320(2)
O4 O 0.1783(3) 0.1500(3) 1.1927(2)
C1 C 0.2148(4) 0.3630(3) 0.9568(3)
C2 C 0.0256(4) 0.4226(3) 1.0002(3)
C3 C -0.0819(5) 0.3281(4) 1.0125(4)
H1 H -0.0396 0.2294 0.9893
C4 C -0.2568(5) 0.3783(5) 1.0598(5)
H2 H -0.3276 0.3120 1.0679
C5 C -0.3217(5) 0.5205(5) 1.0933(4)
H3 H -0.4369 0.5519 1.1239
C6 C -0.2169(4) 0.6223(4) 1.0823(3)
C7 C -0.0400(4) 0.5744(3) 1.0354(3)
C8 C 0.0589(4) 0.6808(3) 1.0304(3)
H4 H 0.1746 0.6528 1.0007
C9 C -0.0101(5) 0.8222(4) 1.0677(3)
H5 H 0.0586 0.8892 1.0629
C10 C -0.1841(5) 0.8682(4) 1.1135(3)
H6 H -0.2306 0.9655 1.1384
C11 C -0.2837(4) 0.7709(4) 1.1211(3)
H7 H -0.3987 0.8017 1.1525
C12 C 0.2644(4) 0.2007(3) 0.9177(3)
C13 C 0.2522(7) 0.1584(5) 0.8206(4)
H8 H 0.2043 0.2312 0.7721
C14 C 0.3115(8) 0.0084(5) 0.7976(4)
H9 H 0.3041 -0.0200 0.7323
C15 C 0.3818(6) -0.1018(4) 0.8679(3)
H10 H 0.4231 -0.2025 0.8489
C16 C 0.3918(4) -0.0647(3) 0.9660(3)
H11 H 0.4365 -0.1388 1.0153
C17 C 0.3324(4) 0.0873(3) 0.9880(2)
C18 C 0.3034(5) 0.4646(3) 0.8587(3)
C19 C 0.2950(16) 0.5608(12) 0.6653(9)
H12 H 0.4141 0.5159 0.6424
H13 H 0.2439 0.5298 0.6169
C20 C 0.2687(12) 0.7293(8) 0.6540(7)
H14 H 0.1510 0.7732 0.6797
H15 H 0.3122 0.7655 0.5768
H16 H 0.3257 0.7594 0.6982
H17 H 0.382(3) 0.385(4) 1.016(2)
S2 S 1.17882(10) 0.73397(10) 0.33786(7)
N2 N 1.0548(4) 0.8955(3) 0.3828(2)
O5 O 0.8085(4) 1.0910(3) 0.3141(2)
O6 O 0.6062(3) 1.0169(3) 0.4577(2)
O7 O 1.2638(4) 0.6554(4) 0.4171(3)
O8 O 1.2789(4) 0.7645(3) 0.2262(2)
C23 C 0.8821(4) 0.8758(3) 0.4428(2)
C24 C 0.8509(4) 0.8654(3) 0.5700(2)
C25 C 0.8340(5) 0.7298(4) 0.6355(3)
H23 H 0.8355 0.6446 0.6024
C26 C 0.8144(6) 0.7151(5) 0.7512(3)
H24 H 0.8026 0.6214 0.7935
C27 C 0.8126(5) 0.8359(4) 0.8004(3)
H25 H 0.8021 0.8244 0.8767
C28 C 0.8262(4) 0.9795(4) 0.7392(3)
C29 C 0.8501(4) 0.9952(3) 0.6212(2)
C30 C 0.8706(5) 1.1406(4) 0.5628(3)
H26 H 0.8898 1.1538 0.4855
C31 C 0.8630(8) 1.2615(5) 0.6169(4)
H27 H 0.8760 1.3560 0.5763
C32 C 0.8359(8) 1.2453(5) 0.7329(4)
H28 H 0.8297 1.3290 0.7692
C33 C 0.8188(6) 1.1087(5) 0.7919(3)
H29 H 0.8018 1.0988 0.8689
C34 C 0.8668(4) 0.7277(3) 0.4038(2)
C35 C 0.7229(5) 0.6757(4) 0.4195(3)
H30 H 0.6188 0.7300 0.4586
C36 C 0.7371(7) 0.5413(5) 0.3758(4)
H31 H 0.6403 0.5066 0.3851
C37 C 0.8876(9) 0.4570(5) 0.3195(4)
H32 H 0.8924 0.3662 0.2917
C38 C 1.0314(7) 0.5069(4) 0.3040(3)
H33 H 1.1354 0.4510 0.2662
C39 C 1.0172(5) 0.6430(3) 0.3465(2)
C40 C 0.7631(4) 1.0096(3) 0.3965(3)
C41 C 0.4927(11) 1.1468(12) 0.4091(10)
H34 H 0.5042 1.2456 0.4227
H35 H 0.5189 1.1434 0.3289
C42 C 0.3214(11) 1.1227(15) 0.4669(10)
H36 H 0.3231 1.0143 0.4793
H37 H 0.2489 1.1724 0.4214
H38 H 0.2808 1.1658 0.5375
H39 H 1.062(5) 0.959(3) 0.327(2)
C21? C 0.320(3) 0.602(2) 0.6898(16)
H18? H 0.4003 0.6388 0.7122
H19? H 0.2497 0.6875 0.6575
C22? C 0.403(2) 0.4693(18) 0.6137(10)
H20? H 0.5104 0.4201 0.6240
H21? H 0.4167 0.5099 0.5368
H22? H 0.3328 0.3955 0.6329
C43? C 0.456(3) 1.084(2) 0.413(2)
H40? H 0.4867 1.1007 0.3323
H41? H 0.3704 1.0233 0.4408
C44? C 0.406(5) 1.232(3) 0.467(3)
H42? H 0.3914 1.2087 0.5462
H43? H 0.3027 1.2907 0.4547
H44? H 0.4920 1.2897 0.4350
loop_
_geom_bond_atom_site_label_1
_geom_bond_atom_site_label_2
_geom_bond_site_symmetry_1
_geom_bond_site_symmetry_2
S1 N1 1_555 1_555
N1 C1 1_555 1_555
O1 C18 1_555 1_555
O2 C18 1_555 1_555
O3 S1 1_555 1_555
O4 S1 1_555 1_555
C1 C2 1_555 1_555
C2 C3 1_555 1_555
C3 H1 1_555 1_555
C4 C3 1_555 1_555
H2 C4 1_555 1_555
C5 C4 1_555 1_555
H3 C5 1_555 1_555
C6 C5 1_555 1_555
C7 C2 1_555 1_555
C8 C7 1_555 1_555
H4 C8 1_555 1_555
C9 C8 1_555 1_555
H5 C9 1_555 1_555
C10 C9 1_555 1_555
H6 C10 1_555 1_555
C11 C6 1_555 1_555
H7 C11 1_555 1_555
C12 C1 1_555 1_555
C13 C12 1_555 1_555
H8 C13 1_555 1_555
C14 C13 1_555 1_555
H9 C14 1_555 1_555
C15 C14 1_555 1_555
H10 C15 1_555 1_555
C16 C15 1_555 1_555
H11 C16 1_555 1_555
C17 S1 1_555 1_555
C18 C1 1_555 1_555
C19 O2 1_555 1_555
H12 C19 1_555 1_555
H13 C19 1_555 1_555
C20 C19 1_555 1_555
H14 C20 1_555 1_555
H15 C20 1_555 1_555
H16 C20 1_555 1_555
H17 N1 1_555 1_555
S2 N2 1_555 1_555
N2 C23 1_555 1_555
O5 C40 1_555 1_555
O6 C40 1_555 1_555
O7 S2 1_555 1_555
O8 S2 1_555 1_555
C23 C24 1_555 1_555
C24 C25 1_555 1_555
C25 H23 1_555 1_555
C26 C25 1_555 1_555
H24 C26 1_555 1_555
C27 C26 1_555 1_555
H25 C27 1_555 1_555
C28 C27 1_555 1_555
C29 C24 1_555 1_555
C30 C29 1_555 1_555
H26 C30 1_555 1_555
C31 C30 1_555 1_555
H27 C31 1_555 1_555
C32 C31 1_555 1_555
H28 C32 1_555 1_555
C33 C28 1_555 1_555
H29 C33 1_555 1_555
C34 C23 1_555 1_555
C35 C34 1_555 1_555
H30 C35 1_555 1_555
C36 C35 1_555 1_555
H31 C36 1_555 1_555
C37 C36 1_555 1_555
H32 C37 1_555 1_555
C38 C37 1_555 1_555
H33 C38 1_555 1_555
C39 S2 1_555 1_555
C40 C23 1_555 1_555
C41 O6 1_555 1_555
H34 C41 1_555 1_555
H35 C41 1_555 1_555
C42 C41 1_555 1_555
H36 C42 1_555 1_555
H37 C42 1_555 1_555
H38 C42 1_555 1_555
H39 N2 1_555 1_555
C6 C7 1_555 1_555
C10 C11 1_555 1_555
C12 C17 1_555 1_555
C16 C17 1_555 1_555
C28 C29 1_555 1_555
C32 C33 1_555 1_555
C34 C39 1_555 1_555
C38 C39 1_555 1_555

#END
