
#######################################################################
#
#                 Cambridge Crystallographic Data Centre
#                                CCDC 
#
#######################################################################
#
# If this CIF has been generated from an entry in the Cambridge 
# Structural Database, then it will include bibliographic, chemical, 
# crystal, experimental, refinement or atomic coordinate data resulting 
# from the CCDC's data processing and validation procedures.
#
#######################################################################

data_IDUWUA
_chemical_formula_moiety         'C30 H22 N4 O2 S1'
_chemical_name_systematic        
1'-Methyl-4'-(1-naphthyl)-1H-indole-3-spiro-2'-pyrrolidine-3'-spiro-2''-thiazolo(3,2-a)(1,3)benzimidazole-2(3H),3''(2''H)-dione
_symmetry_cell_setting           orthorhombic
_symmetry_space_group_name_H-M   'P b c a'
_symmetry_Int_Tables_number      61
_space_group_name_Hall           '-P 2ac 2ab'
loop_
_symmetry_equiv_pos_site_id
_symmetry_equiv_pos_as_xyz
1 x,y,z
2 1/2-x,-y,1/2+z
3 -x,1/2+y,1/2-z
4 1/2+x,1/2-y,-z
5 -x,-y,-z
6 1/2+x,y,1/2-z
7 x,1/2-y,1/2+z
8 1/2-x,1/2+y,z
_cell_length_a                   16.126(4)
_cell_length_b                   12.852(4)
_cell_length_c                   23.725(6)
_cell_angle_alpha                90
_cell_angle_beta                 90
_cell_angle_gamma                90
_cell_volume                     4917.04
_exptl_crystal_colour            colorless
_exptl_crystal_description       block
_chemical_melting_point          '507-508 K'
_cell_formula_units_Z            8
_exptl_crystal_recrystallization_method acetone
loop_
_atom_site_label
_atom_site_type_symbol
_atom_site_fract_x
_atom_site_fract_y
_atom_site_fract_z
S1 S 0.13697(4) 0.42321(5) 0.42196(3)
O1 O 0.15909(11) 0.12191(13) 0.42720(7)
O2 O -0.01590(11) 0.45329(14) 0.34229(8)
N1 N 0.15465(12) 0.26136(15) 0.48821(8)
N2 N 0.16455(12) 0.41174(16) 0.53771(8)
N3 N 0.01424(12) 0.21643(16) 0.32914(8)
N4 N -0.07907(13) 0.39396(16) 0.42392(9)
H1 H -0.1060 0.4493 0.4328
C1 C 0.11363(14) 0.29286(17) 0.39178(9)
C2 C 0.15124(14) 0.36978(19) 0.48854(10)
C3 C 0.14511(14) 0.21324(19) 0.43609(9)
C4 C 0.17426(14) 0.23060(19) 0.54378(10)
C5 C 0.18804(16) 0.1344(2) 0.56867(11)
H2 H 0.1844 0.0727 0.5484
C6 C 0.20773(17) 0.1359(2) 0.62585(11)
H3 H 0.2176 0.0733 0.6443
C7 C 0.21302(17) 0.2291(2) 0.65634(11)
H4 H 0.2266 0.2269 0.6944
C8 C 0.19848(16) 0.3242(2) 0.63095(10)
H5 H 0.2014 0.3858 0.6515
C9 C 0.17942(15) 0.3252(2) 0.57382(10)
C10 C 0.01559(14) 0.27636(19) 0.38159(10)
C11 C -0.03178(15) 0.22573(19) 0.42941(10)
C12 C -0.03402(16) 0.1236(2) 0.44783(11)
H6 H -0.0026 0.0726 0.4300
C13 C -0.08448(17) 0.0985(2) 0.49389(11)
H7 H -0.0861 0.0305 0.5072
C14 C -0.13203(17) 0.1746(2) 0.51964(11)
H8 H -0.1643 0.1570 0.5507
C15 C -0.13275(16) 0.2763(2) 0.50043(11)
H9 H -0.1653 0.3268 0.5178
C16 C -0.08341(15) 0.3001(2) 0.45458(10)
C17 C -0.02748(15) 0.3870(2) 0.37866(11)
C18 C -0.06814(17) 0.2024(2) 0.30378(11)
H10 H -0.1043 0.1695 0.3305
H11 H -0.0635 0.1596 0.2708
H12 H -0.0904 0.2690 0.2935
C19 C 0.07723(15) 0.2629(2) 0.29241(10)
H13 H 0.0599 0.3307 0.2789
H14 H 0.0893 0.2184 0.2604
C20 C 0.15213(14) 0.27153(19) 0.33192(9)
H15 H 0.1773 0.2022 0.3336
C21 C 0.22052(15) 0.34639(19) 0.31388(9)
C22 C 0.20157(17) 0.4403(2) 0.28917(10)
H16 H 0.1462 0.4569 0.2828
C23 C 0.2634(2) 0.5125(2) 0.27313(11)
H17 H 0.2487 0.5742 0.2553
C24 C 0.3451(2) 0.4911(2) 0.28397(12)
H18 H 0.3856 0.5390 0.2737
C25 C 0.36869(17) 0.3968(2) 0.31060(11)
C26 C 0.45345(19) 0.3747(3) 0.32402(13)
H19 H 0.4936 0.4251 0.3171
C27 C 0.4768(2) 0.2824(3) 0.34655(14)
H20 H 0.5322 0.2699 0.3550
C28 C 0.41689(18) 0.2057(3) 0.35702(11)
H21 H 0.4333 0.1413 0.3711
C29 C 0.33432(16) 0.2242(2) 0.34683(10)
H22 H 0.2957 0.1725 0.3548
C30 C 0.30673(15) 0.3212(2) 0.32420(9)
loop_
_geom_bond_atom_site_label_1
_geom_bond_atom_site_label_2
_geom_bond_site_symmetry_1
_geom_bond_site_symmetry_2
S1 C1 1_555 1_555
O1 C3 1_555 1_555
O2 C17 1_555 1_555
N1 C2 1_555 1_555
N2 C2 1_555 1_555
N3 C10 1_555 1_555
N4 H1 1_555 1_555
C1 C3 1_555 1_555
C2 S1 1_555 1_555
C3 N1 1_555 1_555
C4 N1 1_555 1_555
C5 C4 1_555 1_555
H2 C5 1_555 1_555
C6 C5 1_555 1_555
H3 C6 1_555 1_555
C7 C6 1_555 1_555
H4 C7 1_555 1_555
C8 C7 1_555 1_555
H5 C8 1_555 1_555
C9 N2 1_555 1_555
C10 C1 1_555 1_555
C11 C10 1_555 1_555
C12 C11 1_555 1_555
H6 C12 1_555 1_555
C13 C12 1_555 1_555
H7 C13 1_555 1_555
C14 C13 1_555 1_555
H8 C14 1_555 1_555
C15 C14 1_555 1_555
H9 C15 1_555 1_555
C16 N4 1_555 1_555
C17 N4 1_555 1_555
C18 N3 1_555 1_555
H10 C18 1_555 1_555
H11 C18 1_555 1_555
H12 C18 1_555 1_555
C19 N3 1_555 1_555
H13 C19 1_555 1_555
H14 C19 1_555 1_555
C20 C1 1_555 1_555
H15 C20 1_555 1_555
C21 C20 1_555 1_555
C22 C21 1_555 1_555
H16 C22 1_555 1_555
C23 C22 1_555 1_555
H17 C23 1_555 1_555
C24 C23 1_555 1_555
H18 C24 1_555 1_555
C25 C24 1_555 1_555
C26 C25 1_555 1_555
H19 C26 1_555 1_555
C27 C26 1_555 1_555
H20 C27 1_555 1_555
C28 C27 1_555 1_555
H21 C28 1_555 1_555
C29 C28 1_555 1_555
H22 C29 1_555 1_555
C30 C21 1_555 1_555
C4 C9 1_555 1_555
C8 C9 1_555 1_555
C10 C17 1_555 1_555
C11 C16 1_555 1_555
C15 C16 1_555 1_555
C19 C20 1_555 1_555
C25 C30 1_555 1_555
C29 C30 1_555 1_555

#END
