
#######################################################################
#
#                 Cambridge Crystallographic Data Centre
#                                CCDC 
#
#######################################################################
#
# If this CIF has been generated from an entry in the Cambridge 
# Structural Database, then it will include bibliographic, chemical, 
# crystal, experimental, refinement or atomic coordinate data resulting 
# from the CCDC's data processing and validation procedures.
#
#######################################################################

data_IDUZUD
_chemical_formula_moiety         'C9 H14 N2 O3'
_chemical_name_systematic        
'ethyl 2-ethoxy-1,6-dihydropyrimidine-5-carboxylate'
_symmetry_cell_setting           monoclinic
_symmetry_space_group_name_H-M   'P 21/c'
_symmetry_Int_Tables_number      14
_space_group_name_Hall           '-P 2ybc'
loop_
_symmetry_equiv_pos_site_id
_symmetry_equiv_pos_as_xyz
1 x,y,z
2 -x,1/2+y,1/2-z
3 -x,-y,-z
4 x,1/2-y,1/2+z
_cell_length_a                   13.131(8)
_cell_length_b                   10.194(7)
_cell_length_c                   7.940(5)
_cell_angle_alpha                90
_cell_angle_beta                 102.290(11)
_cell_angle_gamma                90
_cell_volume                     1038.47
_exptl_crystal_colour            colorless
_exptl_crystal_description       prism
_chemical_melting_point          '126-128 deg.C'
_cell_formula_units_Z            4
_exptl_crystal_recrystallization_method 'ethyl acetate'
loop_
_atom_site_label
_atom_site_type_symbol
_atom_site_fract_x
_atom_site_fract_y
_atom_site_fract_z
N1 N 0.43750(13) 0.77096(18) 0.2845(2)
H1 H 0.4635(15) 0.849(2) 0.270(3)
N2 N 0.46675(12) 0.54224(17) 0.2627(2)
O1 O 0.58326(10) 0.69990(14) 0.21411(19)
O2 O 0.17464(13) 0.48108(17) 0.4097(2)
O3 O 0.15026(10) 0.70030(15) 0.40197(19)
C1 C 0.49295(15) 0.6647(2) 0.2549(3)
C2 C 0.37017(16) 0.5208(2) 0.3105(3)
H2 H 0.3494 0.4349 0.3237
C3 C 0.30521(14) 0.6217(2) 0.3385(3)
C4 C 0.33564(15) 0.7587(2) 0.3228(3)
H3 H 0.2849 0.8006 0.2320
H4 H 0.3349 0.8042 0.4298
C5 C 0.20559(16) 0.5908(2) 0.3861(3)
C6 C 0.05213(16) 0.6819(3) 0.4569(3)
H5 H 0.0648 0.6423 0.5706
H6 H 0.0065 0.6245 0.3771
C7 C 0.0026(2) 0.8132(3) 0.4608(4)
H7 H 0.0502 0.8711 0.5340
H8 H -0.0598 0.8045 0.5046
H9 H -0.0144 0.8487 0.3462
C8 C 0.65041(16) 0.5946(2) 0.1794(3)
H10 H 0.6144 0.5425 0.0827
H11 H 0.6689 0.5378 0.2793
C9 C 0.74703(18) 0.6544(3) 0.1386(4)
H12 H 0.7279 0.7122 0.0416
H13 H 0.7913 0.5861 0.1116
H14 H 0.7835 0.7030 0.2366
loop_
_geom_bond_atom_site_label_1
_geom_bond_atom_site_label_2
_geom_bond_site_symmetry_1
_geom_bond_site_symmetry_2
N1 H1 1_555 1_555
N2 C1 1_555 1_555
O1 C1 1_555 1_555
O2 C5 1_555 1_555
O3 C5 1_555 1_555
C1 N1 1_555 1_555
C2 N2 1_555 1_555
H2 C2 1_555 1_555
C3 C2 1_555 1_555
C4 N1 1_555 1_555
H3 C4 1_555 1_555
H4 C4 1_555 1_555
C5 C3 1_555 1_555
C6 O3 1_555 1_555
H5 C6 1_555 1_555
H6 C6 1_555 1_555
C7 C6 1_555 1_555
H7 C7 1_555 1_555
H8 C7 1_555 1_555
H9 C7 1_555 1_555
C8 O1 1_555 1_555
H10 C8 1_555 1_555
H11 C8 1_555 1_555
C9 C8 1_555 1_555
H12 C9 1_555 1_555
H13 C9 1_555 1_555
H14 C9 1_555 1_555
C3 C4 1_555 1_555

#END
