
#######################################################################
#
#                 Cambridge Crystallographic Data Centre
#                                CCDC 
#
#######################################################################
#
# If this CIF has been generated from an entry in the Cambridge 
# Structural Database, then it will include bibliographic, chemical, 
# crystal, experimental, refinement or atomic coordinate data resulting 
# from the CCDC's data processing and validation procedures.
#
#######################################################################

data_IDUZOX
_chemical_formula_moiety         'C27 H27 N3 O2 S1'
_chemical_name_systematic        
'Ethyl 3-(anilinocarbonothioyl)-6-methyl-2,4-diphenyl-1,2,3,4-tetrahydropyrimidine-5-carboxylate'
_symmetry_cell_setting           orthorhombic
_symmetry_space_group_name_H-M   'P b c a'
_symmetry_Int_Tables_number      61
_space_group_name_Hall           '-P 2ac 2ab'
loop_
_symmetry_equiv_pos_site_id
_symmetry_equiv_pos_as_xyz
1 x,y,z
2 1/2-x,-y,1/2+z
3 -x,1/2+y,1/2-z
4 1/2+x,1/2-y,-z
5 -x,-y,-z
6 1/2+x,y,1/2-z
7 x,1/2-y,1/2+z
8 1/2-x,1/2+y,z
_cell_length_a                   11.668(4)
_cell_length_b                   20.397(6)
_cell_length_c                   20.804(6)
_cell_angle_alpha                90
_cell_angle_beta                 90
_cell_angle_gamma                90
_cell_volume                     4951.19
_exptl_crystal_colour            colorless
_exptl_crystal_description       prism
_cell_formula_units_Z            8
_exptl_crystal_recrystallization_method ethanol
loop_
_atom_site_label
_atom_site_type_symbol
_atom_site_fract_x
_atom_site_fract_y
_atom_site_fract_z
S1 S 0.20826(10) 0.23842(5) 0.48550(6)
N1 N 0.5255(2) 0.17369(15) 0.41541(14)
O1 O 0.61991(19) -0.02715(11) 0.41958(10)
O2 O 0.43186(19) -0.04824(10) 0.42241(10)
N2 N 0.3353(2) 0.14239(11) 0.43624(11)
N3 N 0.2182(2) 0.11441(14) 0.52076(13)
C1 C 0.2568(3) 0.16132(15) 0.48081(15)
C2 C 0.1280(4) 0.12203(15) 0.5652(3)
C3 C 0.1503(6) 0.1157(7) 0.6305(2)
H1 H 0.2250 0.1090 0.6447
C4 C 0.0611(9) 0.1194(7) 0.6746(3)
H2 H 0.0760 0.1151 0.7183
C5 C -0.0505(9) 0.12934(18) 0.6534(6)
H3 H -0.1102 0.1318 0.6829
C6 C -0.0729(7) 0.1357(7) 0.5880(7)
H4 H -0.1475 0.1424 0.5738
C7 C 0.0164(5) 0.1320(7) 0.5439(5)
H5 H 0.0014 0.1363 0.5002
C8 C 0.5620(3) 0.11097(16) 0.41890(14)
C9 C 0.4849(2) 0.06064(15) 0.41705(13)
C10 C 0.5218(3) -0.00683(15) 0.41961(13)
C11 C 0.4539(3) -0.11772(15) 0.41798(18)
H6 H 0.3940 -0.1416 0.4403
H7 H 0.5263 -0.1277 0.4387
C12 C 0.4579(4) -0.1387(2) 0.3510(2)
H8 H 0.3883 -0.1261 0.3298
H9 H 0.4662 -0.1855 0.3492
H10 H 0.5220 -0.1184 0.3300
C13 C 0.6889(3) 0.10363(17) 0.42599(17)
H11 H 0.7204 0.0862 0.3870
H12 H 0.7052 0.0743 0.4609
H13 H 0.7225 0.1457 0.4346
C14 C 0.4072(3) 0.19059(15) 0.40316(15)
H14 H 0.3931 0.2332 0.4234
C15 C 0.3820(3) 0.19823(15) 0.33190(16)
C16 C 0.4617(3) 0.18486(18) 0.28506(18)
H15 H 0.5327 0.1678 0.2965
C17 C 0.4371(4) 0.1967(2) 0.2210(2)
H16 H 0.4915 0.1872 0.1897
C18 C 0.3330(4) 0.2222(2) 0.2033(2)
H17 H 0.3165 0.2303 0.1603
C19 C 0.2541(4) 0.2356(2) 0.2497(2)
H18 H 0.1836 0.2535 0.2383
C20 C 0.2775(3) 0.22302(18) 0.31361(19)
H19 H 0.2219 0.2314 0.3446
C21 C 0.3569(2) 0.07312(14) 0.41823(14)
H20 H 0.3253 0.0460 0.4528
C22 C 0.2908(2) 0.05568(13) 0.35726(14)
C23 C 0.1731(3) 0.05711(19) 0.35826(18)
H21 H 0.1353 0.0695 0.3957
C24 C 0.1102(3) 0.0404(2) 0.3044(2)
H22 H 0.0305 0.0419 0.3058
C25 C 0.1638(3) 0.02164(19) 0.24939(19)
H23 H 0.1212 0.0103 0.2133
C26 C 0.2791(3) 0.01959(18) 0.24766(17)
H24 H 0.3163 0.0068 0.2102
C27 C 0.3426(3) 0.03634(17) 0.30142(15)
H25 H 0.4221 0.0344 0.2995
H26 H 0.268(3) 0.0818(16) 0.5301(15)
H27 H 0.568(3) 0.2037(18) 0.4256(16)
C28? C 0.1188(4) 0.12018(19) 0.5590(3)
C29? C 0.1320(8) 0.1320(5) 0.6244(3)
H28? H 0.2049 0.1380 0.6416
C30? C 0.0364(10) 0.1349(5) 0.6641(5)
H29? H 0.0452 0.1428 0.7078
C31? C -0.0725(8) 0.1259(3) 0.6384(6)
H30? H -0.1365 0.1278 0.6650
C32? C -0.0857(4) 0.1141(9) 0.5730(5)
H31? H -0.1585 0.1081 0.5559
C33? C 0.0100(3) 0.1112(8) 0.5333(3)
H32? H 0.0011 0.1033 0.4896
loop_
_geom_bond_atom_site_label_1
_geom_bond_atom_site_label_2
_geom_bond_site_symmetry_1
_geom_bond_site_symmetry_2
S1 C1 1_555 1_555
N1 C8 1_555 1_555
O1 C10 1_555 1_555
O2 C10 1_555 1_555
N2 C1 1_555 1_555
N3 C1 1_555 1_555
C2 N3 1_555 1_555
C3 C2 1_555 1_555
H1 C3 1_555 1_555
C4 C3 1_555 1_555
H2 C4 1_555 1_555
C5 C4 1_555 1_555
H3 C5 1_555 1_555
C6 C5 1_555 1_555
H4 C6 1_555 1_555
C7 C2 1_555 1_555
H5 C7 1_555 1_555
C8 C9 1_555 1_555
C9 C10 1_555 1_555
C11 O2 1_555 1_555
H6 C11 1_555 1_555
H7 C11 1_555 1_555
C12 C11 1_555 1_555
H8 C12 1_555 1_555
H9 C12 1_555 1_555
H10 C12 1_555 1_555
C13 C8 1_555 1_555
H11 C13 1_555 1_555
H12 C13 1_555 1_555
H13 C13 1_555 1_555
C14 N1 1_555 1_555
H14 C14 1_555 1_555
C15 C14 1_555 1_555
C16 C15 1_555 1_555
H15 C16 1_555 1_555
C17 C16 1_555 1_555
H16 C17 1_555 1_555
C18 C17 1_555 1_555
H17 C18 1_555 1_555
C19 C18 1_555 1_555
H18 C19 1_555 1_555
C20 C15 1_555 1_555
H19 C20 1_555 1_555
C21 N2 1_555 1_555
H20 C21 1_555 1_555
C22 C21 1_555 1_555
C23 C22 1_555 1_555
H21 C23 1_555 1_555
C24 C23 1_555 1_555
H22 C24 1_555 1_555
C25 C24 1_555 1_555
H23 C25 1_555 1_555
C26 C25 1_555 1_555
H24 C26 1_555 1_555
C27 C22 1_555 1_555
H25 C27 1_555 1_555
H26 N3 1_555 1_555
H27 N1 1_555 1_555
N2 C14 1_555 1_555
C6 C7 1_555 1_555
C9 C21 1_555 1_555
C19 C20 1_555 1_555
C26 C27 1_555 1_555

#END
