
#######################################################################
#
#                 Cambridge Crystallographic Data Centre
#                                CCDC 
#
#######################################################################
#
# If this CIF has been generated from an entry in the Cambridge 
# Structural Database, then it will include bibliographic, chemical, 
# crystal, experimental, refinement or atomic coordinate data resulting 
# from the CCDC's data processing and validation procedures.
#
#######################################################################

data_IFACOI
_chemical_formula_moiety         'C13 H12 N2 O1 S1'
_chemical_name_systematic        '(4-Pyridyl)methyl N-phenylthiocarbamate'
_symmetry_cell_setting           monoclinic
_symmetry_space_group_name_H-M   'P 21/c'
_symmetry_Int_Tables_number      14
_space_group_name_Hall           '-P 2ybc'
loop_
_symmetry_equiv_pos_site_id
_symmetry_equiv_pos_as_xyz
1 x,y,z
2 -x,1/2+y,1/2-z
3 -x,-y,-z
4 x,1/2-y,1/2+z
_cell_length_a                   9.4370(19)
_cell_length_b                   16.714(3)
_cell_length_c                   17.907(5)
_cell_angle_alpha                90
_cell_angle_beta                 118.16(2)
_cell_angle_gamma                90
_cell_volume                     2490.15
_exptl_crystal_colour            colorless
_exptl_crystal_description       block
_cell_formula_units_Z            8
_exptl_crystal_recrystallization_method aqueous
loop_
_atom_site_label
_atom_site_type_symbol
_atom_site_fract_x
_atom_site_fract_y
_atom_site_fract_z
S1 S 0.92123(11) 0.45202(4) 0.36479(6)
O1 O 0.8894(2) 0.29697(10) 0.38314(13)
N1 N 0.6980(3) 0.36754(12) 0.38481(14)
H1 H 0.6680 0.3197 0.3882
N2 N 1.0746(3) 0.02747(14) 0.3912(2)
C1 C 0.6470(4) 0.50627(17) 0.41482(19)
H2 H 0.7537 0.5210 0.4340
C2 C 0.5366(4) 0.56124(18) 0.4139(2)
H3 H 0.5699 0.6133 0.4319
C3 C 0.3797(4) 0.5407(2) 0.3870(2)
H4 H 0.3068 0.5787 0.3860
C4 C 0.3303(4) 0.4636(2) 0.3615(2)
H5 H 0.2243 0.4488 0.3442
C5 C 0.4391(4) 0.40791(18) 0.3617(2)
H6 H 0.4056 0.3556 0.3448
C6 C 0.5965(3) 0.42884(16) 0.38670(18)
C7 C 0.8336(3) 0.37267(15) 0.37862(17)
C8 C 1.0307(4) 0.28289(17) 0.3746(2)
H7 H 1.1231 0.3095 0.4194
H8 H 1.0163 0.3022 0.3204
C9 C 1.0525(3) 0.19408(17) 0.3808(2)
C10 C 1.0864(4) 0.15395(19) 0.4545(2)
H9 H 1.1024 0.1826 0.5023
C11 C 1.0966(4) 0.07195(19) 0.4578(2)
H10 H 1.1198 0.0464 0.5085
C12 C 1.0437(4) 0.0664(2) 0.3205(2)
H11 H 1.0299 0.0367 0.2737
C13 C 1.0309(4) 0.14906(19) 0.3125(2)
H12 H 1.0079 0.1735 0.2613
S2 S 0.62607(11) 0.27865(4) 0.15162(6)
O2 O 0.6454(2) 0.43374(10) 0.12512(13)
N3 N 0.8317(3) 0.36345(12) 0.11833(15)
H13 H 0.8519 0.4099 0.1049
N4 N 0.4171(3) 0.70050(14) 0.12728(17)
C14 C 0.8887(4) 0.22698(16) 0.08750(19)
H14 H 0.7796 0.2157 0.0567
C15 C 1.0014(5) 0.16938(18) 0.0966(2)
H15 H 0.9677 0.1191 0.0725
C16 C 1.1635(5) 0.1864(2) 0.1414(2)
H16 H 1.2387 0.1472 0.1486
C17 C 1.2135(4) 0.2611(2) 0.1751(2)
H17 H 1.3226 0.2730 0.2035
C18 C 1.1021(4) 0.31846(18) 0.16705(19)
H18 H 1.1364 0.3690 0.1904
C19 C 0.9391(4) 0.30112(16) 0.12428(18)
C20 C 0.7037(3) 0.35888(16) 0.13104(18)
C21 C 0.5210(4) 0.44800(17) 0.1481(2)
H19 H 0.5560 0.4309 0.2059
H20 H 0.4251 0.4182 0.1110
C22 C 0.4860(3) 0.53610(17) 0.13958(18)
C23 C 0.5312(4) 0.58712(18) 0.09403(19)
H21 H 0.5865 0.5675 0.0665
C24 C 0.4940(4) 0.66768(17) 0.0895(2)
H22 H 0.5250 0.7007 0.0580
C25 C 0.3719(4) 0.65086(19) 0.1706(2)
H23 H 0.3149 0.6720 0.1966
C26 C 0.4049(4) 0.56986(17) 0.1790(2)
H24 H 0.3728 0.5382 0.2110
loop_
_geom_bond_atom_site_label_1
_geom_bond_atom_site_label_2
_geom_bond_site_symmetry_1
_geom_bond_site_symmetry_2
S1 C7 1_555 1_555
O1 C7 1_555 1_555
N1 H1 1_555 1_555
N2 C11 1_555 1_555
C1 H2 1_555 1_555
C2 C1 1_555 1_555
H3 C2 1_555 1_555
C3 C2 1_555 1_555
H4 C3 1_555 1_555
C4 C3 1_555 1_555
H5 C4 1_555 1_555
C5 C4 1_555 1_555
H6 C5 1_555 1_555
C6 N1 1_555 1_555
C7 N1 1_555 1_555
C8 O1 1_555 1_555
H7 C8 1_555 1_555
H8 C8 1_555 1_555
C9 C8 1_555 1_555
C10 C9 1_555 1_555
H9 C10 1_555 1_555
C11 C10 1_555 1_555
H10 C11 1_555 1_555
C12 N2 1_555 1_555
H11 C12 1_555 1_555
C13 C9 1_555 1_555
H12 C13 1_555 1_555
S2 C20 1_555 1_555
O2 C20 1_555 1_555
N3 H13 1_555 1_555
N4 C24 1_555 1_555
C14 H14 1_555 1_555
C15 C14 1_555 1_555
H15 C15 1_555 1_555
C16 C15 1_555 1_555
H16 C16 1_555 1_555
C17 C16 1_555 1_555
H17 C17 1_555 1_555
C18 C17 1_555 1_555
H18 C18 1_555 1_555
C19 N3 1_555 1_555
C20 N3 1_555 1_555
C21 O2 1_555 1_555
H19 C21 1_555 1_555
H20 C21 1_555 1_555
C22 C21 1_555 1_555
C23 C22 1_555 1_555
H21 C23 1_555 1_555
C24 C23 1_555 1_555
H22 C24 1_555 1_555
C25 N4 1_555 1_555
H23 C25 1_555 1_555
C26 C22 1_555 1_555
H24 C26 1_555 1_555
C1 C6 1_555 1_555
C5 C6 1_555 1_555
C12 C13 1_555 1_555
C14 C19 1_555 1_555
C18 C19 1_555 1_555
C25 C26 1_555 1_555

#END
