
#######################################################################
#
#                 Cambridge Crystallographic Data Centre
#                                CCDC 
#
#######################################################################
#
# If this CIF has been generated from an entry in the Cambridge 
# Structural Database, then it will include bibliographic, chemical, 
# crystal, experimental, refinement or atomic coordinate data resulting 
# from the CCDC's data processing and validation procedures.
#
#######################################################################

data_IFACOI01
_chemical_formula_moiety         'C13 H12 N2 O1 S1'
_chemical_name_systematic        '(4-Pyridyl)methyl N-phenylthiocarbamate'
_symmetry_cell_setting           monoclinic
_symmetry_space_group_name_H-M   'P 21/c'
_symmetry_Int_Tables_number      14
_space_group_name_Hall           '-P 2ybc'
loop_
_symmetry_equiv_pos_site_id
_symmetry_equiv_pos_as_xyz
1 x,y,z
2 -x,1/2+y,1/2-z
3 -x,-y,-z
4 x,1/2-y,1/2+z
_cell_length_a                   9.4370(19)
_cell_length_b                   16.714(3)
_cell_length_c                   17.907(5)
_cell_angle_alpha                90
_cell_angle_beta                 118.16(2)
_cell_angle_gamma                90
_cell_volume                     2490.15
_exptl_crystal_colour            colorless
_chemical_melting_point          203-205deg.C
_cell_formula_units_Z            8
_exptl_crystal_recrystallization_method ethanol
loop_
_atom_site_label
_atom_site_type_symbol
_atom_site_fract_x
_atom_site_fract_y
_atom_site_fract_z
S1 S 0.12598(13) 0.27865(5) 0.15151(7)
O1 O 0.1458(3) 0.43373(12) 0.12515(15)
N1 N 0.3317(3) 0.36342(14) 0.11808(18)
H1 H 0.3519 0.4098 0.1045
N2 N -0.0829(4) 0.70043(16) 0.1273(2)
C1 C 0.3891(5) 0.22709(18) 0.0876(2)
H2 H 0.2800 0.2157 0.0570
C2 C 0.5010(5) 0.1692(2) 0.0964(2)
H3 H 0.4671 0.1190 0.0719
C3 C 0.6638(5) 0.1864(2) 0.1418(3)
H4 H 0.7392 0.1471 0.1494
C4 C 0.7132(5) 0.2607(2) 0.1751(3)
H5 H 0.8224 0.2725 0.2036
C5 C 0.6024(4) 0.3187(2) 0.1669(2)
H6 H 0.6369 0.3693 0.1901
C6 C 0.4383(4) 0.30112(18) 0.1238(2)
C7 C 0.2029(4) 0.35897(18) 0.1313(2)
C8 C 0.0211(4) 0.44810(19) 0.1484(2)
H7 H 0.0564 0.4312 0.2064
H8 H -0.0750 0.4183 0.1116
C9 C -0.0136(4) 0.53606(19) 0.1396(2)
C10 C 0.0314(4) 0.5872(2) 0.0941(2)
H9 H 0.0868 0.5676 0.0667
C11 C -0.0059(4) 0.6673(2) 0.0893(2)
H10 H 0.0247 0.7003 0.0575
C12 C -0.1278(5) 0.6506(2) 0.1710(3)
H11 H -0.1841 0.6718 0.1972
C13 C -0.0954(4) 0.5699(2) 0.1792(2)
H12 H -0.1281 0.5382 0.2110
S2 S 0.42125(12) 0.45202(5) 0.36478(7)
O2 O 0.3893(3) 0.29698(12) 0.38304(15)
N3 N 0.1979(3) 0.36749(14) 0.38494(17)
H13 H 0.1678 0.3197 0.3884
N4 N 0.5745(4) 0.02754(17) 0.3911(2)
C14 C 0.1472(4) 0.50620(19) 0.4146(2)
H14 H 0.2537 0.5210 0.4333
C15 C 0.0365(5) 0.5614(2) 0.4140(3)
H15 H 0.0700 0.6134 0.4327
C16 C -0.1214(5) 0.5407(3) 0.3863(3)
H16 H -0.1949 0.5788 0.3843
C17 C -0.1697(5) 0.4637(3) 0.3616(3)
H17 H -0.2754 0.4489 0.3449
C18 C -0.0619(4) 0.4078(2) 0.3613(2)
H18 H -0.0958 0.3557 0.3439
C19 C 0.0971(4) 0.42909(18) 0.3869(2)
C20 C 0.3344(4) 0.37258(17) 0.3784(2)
C21 C 0.5307(4) 0.2828(2) 0.3744(3)
H19 H 0.6230 0.3094 0.4192
H20 H 0.5161 0.3021 0.3202
C22 C 0.5526(4) 0.19407(19) 0.3807(2)
C23 C 0.5867(5) 0.1538(2) 0.4547(2)
H21 H 0.6030 0.1824 0.5027
C24 C 0.5966(5) 0.0720(2) 0.4578(3)
H22 H 0.6196 0.0464 0.5084
C25 C 0.5434(5) 0.0666(2) 0.3202(3)
H23 H 0.5294 0.0369 0.2733
C26 C 0.5308(5) 0.1490(2) 0.3125(2)
H24 H 0.5076 0.1734 0.2613
loop_
_geom_bond_atom_site_label_1
_geom_bond_atom_site_label_2
_geom_bond_site_symmetry_1
_geom_bond_site_symmetry_2
S1 C7 1_555 1_555
O1 C7 1_555 1_555
N1 H1 1_555 1_555
N2 C11 1_555 1_555
C1 H2 1_555 1_555
C2 C1 1_555 1_555
H3 C2 1_555 1_555
C3 C2 1_555 1_555
H4 C3 1_555 1_555
C4 C3 1_555 1_555
H5 C4 1_555 1_555
C5 C4 1_555 1_555
H6 C5 1_555 1_555
C6 N1 1_555 1_555
C7 N1 1_555 1_555
C8 O1 1_555 1_555
H7 C8 1_555 1_555
H8 C8 1_555 1_555
C9 C8 1_555 1_555
C10 C9 1_555 1_555
H9 C10 1_555 1_555
C11 C10 1_555 1_555
H10 C11 1_555 1_555
C12 N2 1_555 1_555
H11 C12 1_555 1_555
C13 C9 1_555 1_555
H12 C13 1_555 1_555
S2 C20 1_555 1_555
O2 C20 1_555 1_555
N3 H13 1_555 1_555
N4 C24 1_555 1_555
C14 H14 1_555 1_555
C15 C14 1_555 1_555
H15 C15 1_555 1_555
C16 C15 1_555 1_555
H16 C16 1_555 1_555
C17 C16 1_555 1_555
H17 C17 1_555 1_555
C18 C17 1_555 1_555
H18 C18 1_555 1_555
C19 N3 1_555 1_555
C20 N3 1_555 1_555
C21 O2 1_555 1_555
H19 C21 1_555 1_555
H20 C21 1_555 1_555
C22 C21 1_555 1_555
C23 C22 1_555 1_555
H21 C23 1_555 1_555
C24 C23 1_555 1_555
H22 C24 1_555 1_555
C25 N4 1_555 1_555
H23 C25 1_555 1_555
C26 C22 1_555 1_555
H24 C26 1_555 1_555
C1 C6 1_555 1_555
C5 C6 1_555 1_555
C12 C13 1_555 1_555
C14 C19 1_555 1_555
C18 C19 1_555 1_555
C25 C26 1_555 1_555

#END
