
#######################################################################
#
#                 Cambridge Crystallographic Data Centre
#                                CCDC 
#
#######################################################################
#
# If this CIF has been generated from an entry in the Cambridge 
# Structural Database, then it will include bibliographic, chemical, 
# crystal, experimental, refinement or atomic coordinate data resulting 
# from the CCDC's data processing and validation procedures.
#
#######################################################################

data_IFADID
_chemical_formula_moiety         'C14 H11 F1 N2 O1 S1'
_chemical_name_systematic        N-(3-Fluorobenzoyl)-N'-phenylthiourea
_symmetry_cell_setting           triclinic
_symmetry_space_group_name_H-M   'P -1'
_symmetry_Int_Tables_number      2
_space_group_name_Hall           '-P 1'
loop_
_symmetry_equiv_pos_site_id
_symmetry_equiv_pos_as_xyz
1 x,y,z
2 -x,-y,-z
_cell_length_a                   5.6511(4)
_cell_length_b                   10.0628(7)
_cell_length_c                   12.0169(9)
_cell_angle_alpha                90.769(3)
_cell_angle_beta                 91.033(3)
_cell_angle_gamma                98.626(3)
_cell_volume                     675.422
_exptl_crystal_colour            colorless
_exptl_crystal_description       block
_cell_formula_units_Z            2
_exptl_crystal_recrystallization_method 'ethyl acetate'
loop_
_atom_site_label
_atom_site_type_symbol
_atom_site_fract_x
_atom_site_fract_y
_atom_site_fract_z
S1 S 0.27191(9) -0.12061(4) 0.10098(3)
O1 O 0.5427(2) 0.22887(13) 0.33339(10)
N1 N 0.5259(2) 0.10573(12) 0.17271(10)
H1 H 0.5853 0.1046 0.1074
C1 C 0.6206(3) 0.21131(15) 0.24125(13)
C2 C 0.0697(3) -0.09520(15) 0.34103(13)
C3 C 0.3453(3) 0.00025(14) 0.19597(12)
C4 C 0.8244(3) 0.30625(15) 0.19707(12)
C5 C 0.9912(3) 0.26561(15) 0.12616(12)
H2 H 0.9800 0.1764 0.1027
C6 C -0.1457(3) -0.13593(17) 0.28616(15)
H3 H -0.1761 -0.1015 0.2168
C7 C 1.1739(3) 0.36110(17) 0.09153(14)
C8 C 0.1148(3) -0.14542(19) 0.44410(14)
H4 H 0.2602 -0.1175 0.4810
C9 C 1.0328(4) 0.53184(18) 0.19500(19)
H5 H 1.0455 0.6213 0.2179
C10 C -0.2728(4) -0.27949(19) 0.43804(17)
H6 H -0.3882 -0.3418 0.4707
C11 C 0.8473(3) 0.43907(17) 0.23244(17)
H7 H 0.7376 0.4659 0.2815
C12 C 1.1983(3) 0.49305(18) 0.12438(17)
H8 H 1.3242 0.5550 0.0994
C13 C -0.3170(3) -0.22890(19) 0.33545(18)
H9 H -0.4626 -0.2571 0.2988
C14 C -0.0588(4) -0.2381(2) 0.49228(16)
H10 H -0.0295 -0.2723 0.5619
F1 F 1.3369(2) 0.32178(12) 0.02186(11)
N2 N 0.2490(2) 0.00427(13) 0.29619(10)
H11 H 0.2994 0.0732 0.3379
loop_
_geom_bond_atom_site_label_1
_geom_bond_atom_site_label_2
_geom_bond_site_symmetry_1
_geom_bond_site_symmetry_2
S1 C3 1_555 1_555
O1 C1 1_555 1_555
N1 H1 1_555 1_555
C1 N1 1_555 1_555
C2 C6 1_555 1_555
C3 N1 1_555 1_555
C4 C1 1_555 1_555
C5 C4 1_555 1_555
H2 C5 1_555 1_555
C6 H3 1_555 1_555
C7 C5 1_555 1_555
C8 C2 1_555 1_555
H4 C8 1_555 1_555
C9 H5 1_555 1_555
C10 H6 1_555 1_555
C11 C4 1_555 1_555
H7 C11 1_555 1_555
C12 C7 1_555 1_555
H8 C12 1_555 1_555
C13 C6 1_555 1_555
H9 C13 1_555 1_555
C14 C8 1_555 1_555
H10 C14 1_555 1_555
F1 C7 1_555 1_555
N2 C2 1_555 1_555
H11 N2 1_555 1_555
C3 N2 1_555 1_555
C9 C11 1_555 1_555
C9 C12 1_555 1_555
C10 C13 1_555 1_555
C10 C14 1_555 1_555

#END
