
#######################################################################
#
#                 Cambridge Crystallographic Data Centre
#                                CCDC 
#
#######################################################################
#
# If this CIF has been generated from an entry in the Cambridge 
# Structural Database, then it will include bibliographic, chemical, 
# crystal, experimental, refinement or atomic coordinate data resulting 
# from the CCDC's data processing and validation procedures.
#
#######################################################################

data_IFAJOR
_chemical_formula_moiety         'C48 H48 N12,C8 H10,C1 H2 Cl2'
_chemical_name_systematic        
'5,8,16,19,27,30,38,41,46,49,54,57-dodecaazaheptacyclo[21.21.6.6^12,34^.1^3,43^.1^10,14^.1^21,25^.1^32,36^]hexaconta-1,3(51),4,8,10(60),11,13,15,19,21(59),22,24,26,30,32(52),33,35,37,41,43,45,49,53,57-tetracosaene o-xylene dichloromethane solvate'
_symmetry_cell_setting           monoclinic
_symmetry_space_group_name_H-M   'P 21/n'
_symmetry_Int_Tables_number      14
_space_group_name_Hall           '-P 2yn'
loop_
_symmetry_equiv_pos_site_id
_symmetry_equiv_pos_as_xyz
1 x,y,z
2 1/2-x,1/2+y,1/2-z
3 -x,-y,-z
4 1/2+x,1/2-y,1/2+z
_cell_length_a                   16.565(4)
_cell_length_b                   10.745(3)
_cell_length_c                   31.067(8)
_cell_angle_alpha                90
_cell_angle_beta                 92.088(6)
_cell_angle_gamma                90
_cell_volume                     5525.97
_exptl_crystal_colour            colorless
_exptl_crystal_description       needle
_cell_formula_units_Z            4
loop_
_atom_site_label
_atom_site_type_symbol
_atom_site_fract_x
_atom_site_fract_y
_atom_site_fract_z
N1 N -0.2786(4) 0.6575(6) 0.2915(2)
N2 N -0.1908(4) 0.6948(6) 0.2118(2)
N3 N -0.2513(4) 0.2069(6) 0.4294(2)
N4 N -0.1811(4) -0.0214(6) 0.3933(2)
N5 N -0.0765(4) 0.7266(6) 0.4726(2)
N6 N 0.0989(4) 0.6865(6) 0.4770(2)
N7 N 0.0124(4) -0.0352(6) 0.2159(2)
N8 N -0.0188(4) 0.1840(6) 0.1593(2)
N9 N 0.2033(4) -0.0235(6) 0.4018(2)
N10 N 0.2962(4) 0.2061(6) 0.4186(2)
N11 N 0.2789(4) 0.6938(6) 0.2979(2)
N12 N 0.1995(4) 0.6570(6) 0.2118(2)
C1 C -0.2153(5) 0.6061(8) 0.3604(3)
C2 C -0.2470(5) 0.4850(7) 0.3622(3)
H1 H -0.2813 0.4555 0.3393
C3 C -0.2289(5) 0.4082(7) 0.3969(3)
C4 C -0.1783(5) 0.4514(7) 0.4299(3)
H2 H -0.1658 0.3985 0.4537
C5 C -0.1456(5) 0.5683(7) 0.4293(3)
C6 C -0.1664(5) 0.6463(8) 0.3939(3)
H3 H -0.1458 0.7288 0.3934
C7 C -0.2363(5) 0.6904(8) 0.3241(3)
H4 H -0.2171 0.7736 0.3254
C8 C -0.2662(5) 0.2840(8) 0.3987(3)
H5 H -0.3030 0.2600 0.3761
C9 C -0.0942(5) 0.6137(8) 0.4651(3)
H6 H -0.0720 0.5533 0.4844
C10 C -0.0451(5) -0.0191(7) 0.3671(3)
C11 C -0.0655(5) -0.0288(7) 0.3238(3)
H7 H -0.1211 -0.0341 0.3154
C12 C -0.0098(5) -0.0314(7) 0.2920(3)
C13 C 0.0735(5) -0.0293(7) 0.3054(3)
H8 H 0.1139 -0.0343 0.2846
C14 C 0.0958(5) -0.0198(7) 0.3488(3)
C15 C 0.0374(5) -0.0133(7) 0.3793(3)
H9 H 0.0531 -0.0048 0.4089
C16 C -0.1045(5) -0.0144(7) 0.4009(3)
H10 H -0.0853 -0.0058 0.4299
C17 C -0.0340(5) -0.0356(7) 0.2464(3)
H11 H -0.0903 -0.0390 0.2394
C18 C 0.1824(5) -0.0149(7) 0.3622(3)
H12 H 0.2222 -0.0054 0.3412
C19 C 0.2300(5) 0.4041(8) 0.4126(3)
C20 C 0.2610(5) 0.4345(7) 0.3726(3)
H13 H 0.2909 0.3749 0.3572
C21 C 0.2476(5) 0.5524(7) 0.3557(3)
C22 C 0.2020(5) 0.6371(8) 0.3773(3)
H14 H 0.1916 0.7163 0.3646
C23 C 0.1708(5) 0.6104(8) 0.4167(3)
C24 C 0.1847(5) 0.4912(7) 0.4342(3)
H15 H 0.1628 0.4701 0.4611
C25 C 0.2464(5) 0.2827(8) 0.4330(3)
H16 H 0.2182 0.2611 0.4580
C26 C 0.2831(5) 0.5838(8) 0.3147(3)
H17 H 0.3105 0.5205 0.2997
C27 C 0.1258(5) 0.7040(8) 0.4408(3)
H18 H 0.1167 0.7829 0.4277
C28 C 0.0600(5) 0.5961(7) 0.2025(2)
C29 C 0.0764(5) 0.4783(7) 0.1867(2)
H19 H 0.1309 0.4537 0.1833
C30 C 0.0141(5) 0.3953(7) 0.1758(2)
C31 C -0.0652(5) 0.4362(7) 0.1789(2)
H20 H -0.1080 0.3820 0.1701
C32 C -0.0836(5) 0.5531(7) 0.1945(2)
C33 C -0.0197(5) 0.6354(8) 0.2056(2)
H21 H -0.0310 0.7174 0.2150
C34 C 0.1268(5) 0.6855(8) 0.2142(3)
H22 H 0.1133 0.7666 0.2237
C35 C 0.0341(5) 0.2697(7) 0.1616(2)
H23 H 0.0879 0.2517 0.1539
C36 C -0.1678(5) 0.5899(8) 0.1986(3)
H24 H -0.2083 0.5306 0.1909
C37 C -0.2968(5) 0.7544(8) 0.2595(3)
H25 H -0.2656 0.8301 0.2673
H26 H -0.3549 0.7755 0.2602
C38 C -0.2776(5) 0.7169(8) 0.2149(3)
H27 H -0.3077 0.6401 0.2070
H28 H -0.2948 0.7833 0.1945
C39 C -0.2926(5) 0.0872(7) 0.4268(3)
H29 H -0.3234 0.0803 0.3990
H30 H -0.3311 0.0804 0.4504
C40 C -0.2299(5) -0.0181(7) 0.4307(3)
H31 H -0.1948 -0.0049 0.4568
H32 H -0.2579 -0.0988 0.4338
C41 C -0.0248(5) 0.7520(8) 0.5106(3)
H33 H -0.0207 0.6764 0.5287
H34 H -0.0490 0.8191 0.5277
C42 C 0.0577(5) 0.7905(8) 0.4976(3)
H35 H 0.0532 0.8614 0.4773
H36 H 0.0899 0.8180 0.5233
C43 C -0.0226(5) -0.0403(7) 0.1724(2)
H37 H -0.0822 -0.0350 0.1736
H38 H -0.0092 -0.1216 0.1594
C44 C 0.0071(5) 0.0636(7) 0.1435(2)
H39 H 0.0668 0.0612 0.1430
H40 H -0.0146 0.0510 0.1137
C45 C 0.2903(5) -0.0194(8) 0.4127(3)
H41 H 0.3209 -0.0110 0.3861
H42 H 0.3072 -0.0979 0.4271
C46 C 0.3092(5) 0.0902(7) 0.4424(3)
H43 H 0.2738 0.0877 0.4674
H44 H 0.3660 0.0853 0.4533
C47 C 0.3183(5) 0.7113(8) 0.2580(2)
H45 H 0.3433 0.6320 0.2492
H46 H 0.3619 0.7738 0.2620
C48 C 0.2594(5) 0.7543(7) 0.2233(3)
H47 H 0.2310 0.8295 0.2332
H48 H 0.2892 0.7771 0.1974
C49 C 0.0058(12) 0.4596(8) 0.3517(3)
H49 H 0.0551 0.4480 0.3703
H50 H -0.0424 0.4471 0.3691
Cl1 Cl 0.0045(4) 0.6177(7) 0.3250(2)
Cl2 Cl 0.0050(5) 0.3550(12) 0.3053(3)
C50 C 0.4686(7) 0.2866(12) 0.4845(3)
C51 C 0.4890(8) 0.1849(13) 0.5139(4)
H53 H 0.5285 0.1255 0.5063
C52 C 0.4527(10) 0.1741(16) 0.5516(4)
H54 H 0.4645 0.1071 0.5707
C53 C 0.3987(10) 0.2633(17) 0.5609(5)
H55 H 0.3735 0.2529 0.5877
C54 C 0.3745(8) 0.3655(15) 0.5381(4)
H56 H 0.3360 0.4242 0.5474
C55 C 0.4157(9) 0.3729(15) 0.4977(5)
C56 C 0.5094(7) 0.2902(10) 0.4428(3)
H57 H 0.4714 0.3197 0.4201
H58 H 0.5282 0.2065 0.4356
H59 H 0.5557 0.3469 0.4451
C57 C 0.3992(7) 0.4758(13) 0.4698(4)
H60 H 0.3578 0.5288 0.4822
H61 H 0.3797 0.4452 0.4416
H62 H 0.4487 0.5242 0.4665
H51? H -0.0392 0.4981 0.3670
H52? H 0.0574 0.4956 0.3630
Cl3? Cl -0.0053(10) 0.4849(11) 0.2983(3)
Cl4? Cl 0.0055(7) 0.2914(6) 0.3590(3)
loop_
_geom_bond_atom_site_label_1
_geom_bond_atom_site_label_2
_geom_bond_site_symmetry_1
_geom_bond_site_symmetry_2
N1 C7 1_555 1_555
N2 C36 1_555 1_555
N3 C8 1_555 1_555
N4 C16 1_555 1_555
N5 C9 1_555 1_555
N6 C27 1_555 1_555
N7 C17 1_555 1_555
N8 C35 1_555 1_555
N9 C18 1_555 1_555
N10 C25 1_555 1_555
N11 C26 1_555 1_555
N12 C34 1_555 1_555
C1 C2 1_555 1_555
C2 H1 1_555 1_555
C3 C2 1_555 1_555
C4 C3 1_555 1_555
H2 C4 1_555 1_555
C5 C4 1_555 1_555
C6 C1 1_555 1_555
H3 C6 1_555 1_555
C7 C1 1_555 1_555
H4 C7 1_555 1_555
C8 C3 1_555 1_555
H5 C8 1_555 1_555
C9 C5 1_555 1_555
H6 C9 1_555 1_555
C10 C11 1_555 1_555
C11 H7 1_555 1_555
C12 C11 1_555 1_555
C13 C12 1_555 1_555
H8 C13 1_555 1_555
C14 C13 1_555 1_555
C15 C10 1_555 1_555
H9 C15 1_555 1_555
C16 C10 1_555 1_555
H10 C16 1_555 1_555
C17 C12 1_555 1_555
H11 C17 1_555 1_555
C18 C14 1_555 1_555
H12 C18 1_555 1_555
C19 C20 1_555 1_555
C20 H13 1_555 1_555
C21 C20 1_555 1_555
C22 C21 1_555 1_555
H14 C22 1_555 1_555
C23 C22 1_555 1_555
C24 C19 1_555 1_555
H15 C24 1_555 1_555
C25 C19 1_555 1_555
H16 C25 1_555 1_555
C26 C21 1_555 1_555
H17 C26 1_555 1_555
C27 C23 1_555 1_555
H18 C27 1_555 1_555
C28 C29 1_555 1_555
C29 H19 1_555 1_555
C30 C29 1_555 1_555
C31 C30 1_555 1_555
H20 C31 1_555 1_555
C32 C31 1_555 1_555
C33 C28 1_555 1_555
H21 C33 1_555 1_555
C34 C28 1_555 1_555
H22 C34 1_555 1_555
C35 C30 1_555 1_555
H23 C35 1_555 1_555
C36 C32 1_555 1_555
H24 C36 1_555 1_555
C37 N1 1_555 1_555
H25 C37 1_555 1_555
H26 C37 1_555 1_555
C38 N2 1_555 1_555
H27 C38 1_555 1_555
H28 C38 1_555 1_555
C39 N3 1_555 1_555
H29 C39 1_555 1_555
H30 C39 1_555 1_555
C40 N4 1_555 1_555
H31 C40 1_555 1_555
H32 C40 1_555 1_555
C41 N5 1_555 1_555
H33 C41 1_555 1_555
H34 C41 1_555 1_555
C42 N6 1_555 1_555
H35 C42 1_555 1_555
H36 C42 1_555 1_555
C43 N7 1_555 1_555
H37 C43 1_555 1_555
H38 C43 1_555 1_555
C44 N8 1_555 1_555
H39 C44 1_555 1_555
H40 C44 1_555 1_555
C45 N9 1_555 1_555
H41 C45 1_555 1_555
H42 C45 1_555 1_555
C46 N10 1_555 1_555
H43 C46 1_555 1_555
H44 C46 1_555 1_555
C47 N11 1_555 1_555
H45 C47 1_555 1_555
H46 C47 1_555 1_555
C48 N12 1_555 1_555
H47 C48 1_555 1_555
H48 C48 1_555 1_555
C49 H49 1_555 1_555
H50 C49 1_555 1_555
Cl1 C49 1_555 1_555
Cl2 C49 1_555 1_555
C50 C51 1_555 1_555
C51 H53 1_555 1_555
C52 C51 1_555 1_555
H54 C52 1_555 1_555
C53 C52 1_555 1_555
H55 C53 1_555 1_555
C54 C53 1_555 1_555
H56 C54 1_555 1_555
C55 C50 1_555 1_555
C56 C50 1_555 1_555
H57 C56 1_555 1_555
H58 C56 1_555 1_555
H59 C56 1_555 1_555
C57 C55 1_555 1_555
H60 C57 1_555 1_555
H61 C57 1_555 1_555
H62 C57 1_555 1_555
C5 C6 1_555 1_555
C14 C15 1_555 1_555
C23 C24 1_555 1_555
C32 C33 1_555 1_555
C37 C38 1_555 1_555
C39 C40 1_555 1_555
C41 C42 1_555 1_555
C43 C44 1_555 1_555
C45 C46 1_555 1_555
C47 C48 1_555 1_555
C54 C55 1_555 1_555

#END
