
#######################################################################
#
#                 Cambridge Crystallographic Data Centre
#                                CCDC 
#
#######################################################################
#
# If this CIF has been generated from an entry in the Cambridge 
# Structural Database, then it will include bibliographic, chemical, 
# crystal, experimental, refinement or atomic coordinate data resulting 
# from the CCDC's data processing and validation procedures.
#
#######################################################################

data_IFAQUE
_chemical_formula_moiety         'C14 H12 N2 O2 S1'
_chemical_name_systematic        N-(2-cyanophenyl)-4-methylbenzenesulfonamide
_symmetry_cell_setting           monoclinic
_symmetry_space_group_name_H-M   'I 2/c'
_symmetry_Int_Tables_number      15
_space_group_name_Hall           '-I 2yc'
loop_
_symmetry_equiv_pos_site_id
_symmetry_equiv_pos_as_xyz
1 x,y,z
2 -x,y,1/2-z
3 1/2+x,1/2+y,1/2+z
4 1/2-x,1/2+y,-z
5 -x,-y,-z
6 x,-y,1/2+z
7 1/2-x,1/2-y,1/2-z
8 1/2+x,1/2-y,z
_cell_length_a                   14.8891(10)
_cell_length_b                   7.2014(4)
_cell_length_c                   24.7393(13)
_cell_angle_alpha                90
_cell_angle_beta                 94.378(5)
_cell_angle_gamma                90
_cell_volume                     2644.87
_exptl_crystal_colour            'light colorless'
_exptl_crystal_description       block
_cell_formula_units_Z            8
loop_
_atom_site_label
_atom_site_type_symbol
_atom_site_fract_x
_atom_site_fract_y
_atom_site_fract_z
S1 S 0.41318(4) 0.22944(8) 0.63943(2)
O1 O 0.35395(13) 0.3833(2) 0.64456(7)
O2 O 0.50818(12) 0.2591(2) 0.64275(7)
N1 N 0.38987(13) 0.1347(3) 0.58033(7)
H1 H 0.4328(15) 0.081(3) 0.5693(9)
N2 N 0.44962(13) 0.1044(3) 0.44689(8)
C1 C 0.36101(17) 0.1236(3) 0.73702(9)
H2 H 0.3499 0.2490 0.7425
C2 C 0.34940(17) -0.0029(3) 0.77770(9)
H3 H 0.3308 0.0388 0.8106
C3 C 0.36459(14) -0.1889(3) 0.77076(9)
C4 C 0.39127(17) -0.2459(3) 0.72140(10)
H4 H 0.4011 -0.3717 0.7157
C5 C 0.40376(15) -0.1232(3) 0.68031(9)
H5 H 0.4220 -0.1655 0.6474
C6 C 0.38906(13) 0.0636(3) 0.68824(8)
C7 C 0.35367(19) -0.3249(4) 0.81593(11)
H6 H 0.4111 -0.3467 0.8352
H7 H 0.3303 -0.4398 0.8011
H8 H 0.3127 -0.2751 0.8403
C8 C 0.30510(13) 0.1246(2) 0.55137(8)
C9 C 0.30164(12) 0.1122(2) 0.49504(8)
C10 C 0.21957(14) 0.1028(3) 0.46428(9)
H9 H 0.2181 0.0927 0.4267
C11 C 0.14038(15) 0.1086(3) 0.48978(11)
H10 H 0.0852 0.1041 0.4695
C12 C 0.14380(15) 0.1212(3) 0.54517(11)
H11 H 0.0903 0.1242 0.5622
C13 C 0.22435(15) 0.1293(3) 0.57610(10)
H12 H 0.2249 0.1379 0.6136
C14 C 0.38371(13) 0.1084(3) 0.46780(8)
loop_
_geom_bond_atom_site_label_1
_geom_bond_atom_site_label_2
_geom_bond_site_symmetry_1
_geom_bond_site_symmetry_2
S1 O1 1_555 1_555
O2 S1 1_555 1_555
N1 S1 1_555 1_555
H1 N1 1_555 1_555
N2 C14 1_555 1_555
C1 H2 1_555 1_555
C2 C1 1_555 1_555
H3 C2 1_555 1_555
C3 C2 1_555 1_555
C4 C3 1_555 1_555
H4 C4 1_555 1_555
C5 C4 1_555 1_555
H5 C5 1_555 1_555
C6 S1 1_555 1_555
C7 C3 1_555 1_555
H6 C7 1_555 1_555
H7 C7 1_555 1_555
H8 C7 1_555 1_555
C8 N1 1_555 1_555
C9 C8 1_555 1_555
C10 C9 1_555 1_555
H9 C10 1_555 1_555
C11 C10 1_555 1_555
H10 C11 1_555 1_555
C12 C11 1_555 1_555
H11 C12 1_555 1_555
C13 C8 1_555 1_555
H12 C13 1_555 1_555
C14 C9 1_555 1_555
C1 C6 1_555 1_555
C5 C6 1_555 1_555
C12 C13 1_555 1_555

#END
