
#######################################################################
#
#                 Cambridge Crystallographic Data Centre
#                                CCDC 
#
#######################################################################
#
# If this CIF has been generated from an entry in the Cambridge 
# Structural Database, then it will include bibliographic, chemical, 
# crystal, experimental, refinement or atomic coordinate data resulting 
# from the CCDC's data processing and validation procedures.
#
#######################################################################

data_IFAQOY
_chemical_formula_moiety         'C9 H10 N2 O1'
_chemical_name_systematic        5-methoxy-2-methyl-2H-indazole
_symmetry_cell_setting           orthorhombic
_symmetry_space_group_name_H-M   'P c a 21'
_symmetry_Int_Tables_number      29
_space_group_name_Hall           'P 2c -2ac'
loop_
_symmetry_equiv_pos_site_id
_symmetry_equiv_pos_as_xyz
1 x,y,z
2 -x,-y,1/2+z
3 1/2-x,y,1/2+z
4 1/2+x,-y,z
_cell_length_a                   7.5727(8)
_cell_length_b                   15.4812(18)
_cell_length_c                   7.2425(8)
_cell_angle_alpha                90
_cell_angle_beta                 90
_cell_angle_gamma                90
_cell_volume                     849.071
_exptl_crystal_colour            'light colorless'
_exptl_crystal_description       block
_cell_formula_units_Z            4
loop_
_atom_site_label
_atom_site_type_symbol
_atom_site_fract_x
_atom_site_fract_y
_atom_site_fract_z
O1 O 0.0590(3) 0.93685(13) 0.9007(4)
N1 N -0.0520(4) 0.62014(18) 0.5812(4)
N2 N 0.0295(4) 0.63516(17) 0.4171(5)
C1 C -0.0364(4) 0.6968(2) 0.6709(5)
C2 C -0.0966(4) 0.7174(2) 0.8506(5)
H1 H -0.1579 0.6773 0.9214
C3 C -0.0617(4) 0.7976(2) 0.9158(5)
H2 H -0.1001 0.8124 1.0336
C4 C 0.0327(4) 0.8603(2) 0.8087(5)
C5 C 0.0899(4) 0.84233(19) 0.6353(5)
H3 H 0.1493 0.8835 0.5653
C6 C 0.0559(4) 0.7586(2) 0.5649(5)
C7 C 0.0942(4) 0.7156(2) 0.4001(6)
H4 H 0.1531 0.7383 0.2983
C8 C 0.1508(4) 1.0029(2) 0.8024(5)
H5 H 0.0856 1.0179 0.6934
H6 H 0.2657 0.9823 0.7679
H7 H 0.1629 1.0529 0.8798
C9 C 0.0385(6) 0.5658(2) 0.2811(6)
H8 H 0.0739 0.5132 0.3407
H9 H 0.1230 0.5806 0.1875
H10 H -0.0755 0.5581 0.2255
loop_
_geom_bond_atom_site_label_1
_geom_bond_atom_site_label_2
_geom_bond_site_symmetry_1
_geom_bond_site_symmetry_2
O1 C4 1_555 1_555
N1 N2 1_555 1_555
N2 C7 1_555 1_555
C1 N1 1_555 1_555
C2 C1 1_555 1_555
H1 C2 1_555 1_555
C3 C2 1_555 1_555
H2 C3 1_555 1_555
C4 C3 1_555 1_555
C5 C4 1_555 1_555
H3 C5 1_555 1_555
C6 C1 1_555 1_555
C7 C6 1_555 1_555
H4 C7 1_555 1_555
C8 O1 1_555 1_555
H5 C8 1_555 1_555
H6 C8 1_555 1_555
H7 C8 1_555 1_555
C9 N2 1_555 1_555
H8 C9 1_555 1_555
H9 C9 1_555 1_555
H10 C9 1_555 1_555
C5 C6 1_555 1_555

#END
