
#######################################################################
#
#                 Cambridge Crystallographic Data Centre
#                                CCDC 
#
#######################################################################
#
# If this CIF has been generated from an entry in the Cambridge 
# Structural Database, then it will include bibliographic, chemical, 
# crystal, experimental, refinement or atomic coordinate data resulting 
# from the CCDC's data processing and validation procedures.
#
#######################################################################

data_IFAVIW
_chemical_formula_moiety         'C28 H27 Br1 O3'
_chemical_name_systematic        
't-Butyl 1-(4-bromobenzoyl)-2,3-diphenylcyclobutanecarboxylate'
_symmetry_cell_setting           monoclinic
_symmetry_space_group_name_H-M   'P 21'
_symmetry_Int_Tables_number      4
_space_group_name_Hall           'P 2yb'
loop_
_symmetry_equiv_pos_site_id
_symmetry_equiv_pos_as_xyz
1 x,y,z
2 -x,1/2+y,-z
_cell_length_a                   9.2434(5)
_cell_length_b                   9.3136(5)
_cell_length_c                   14.3104(8)
_cell_angle_alpha                90
_cell_angle_beta                 95.3310(10)
_cell_angle_gamma                90
_cell_volume                     1226.64
_exptl_crystal_colour            colorless
_exptl_crystal_description       plate
_cell_formula_units_Z            2
loop_
_atom_site_label
_atom_site_type_symbol
_atom_site_fract_x
_atom_site_fract_y
_atom_site_fract_z
Br1 Br 0.16289(3) 0.24711(4) 0.17711(2)
O1 O 0.6922(2) 0.8422(2) 0.20371(13)
O2 O 0.69996(17) 0.70331(15) 0.33341(10)
O3 O 0.88161(19) 0.39952(19) 0.29205(12)
C1 C 1.1116(3) 0.6225(3) -0.00657(17)
H1 H 1.0313 0.5612 -0.0235
C2 C 1.2330(3) 0.6166(3) -0.05715(19)
H2 H 1.2345 0.5532 -0.1091
C3 C 1.3510(3) 0.7034(3) -0.03151(18)
H3 H 1.4345 0.6984 -0.0654
C4 C 1.3488(3) 0.7964(3) 0.04216(19)
H4 H 1.4304 0.8558 0.0593
C5 C 1.2262(3) 0.8040(3) 0.09221(17)
H5 H 1.2246 0.8693 0.1431
C6 C 1.1061(2) 0.7164(2) 0.06800(14)
C7 C 0.9764(2) 0.7266(3) 0.12458(14)
H6 H 0.9446 0.8291 0.1263
C8 C 0.8406(2) 0.6300(3) 0.10356(15)
H7 H 0.8616 0.5371 0.0740
H8 H 0.7578 0.6792 0.0682
C9 C 0.8269(2) 0.6194(2) 0.21132(15)
C10 C 0.9919(2) 0.6660(2) 0.22699(15)
H9 H 1.0535 0.5776 0.2283
C11 C 1.0441(3) 0.9063(3) 0.30707(18)
H10 H 1.0171 0.9539 0.2494
C12 C 1.0857(3) 0.9869(3) 0.3866(2)
H11 H 1.0885 1.0887 0.3828
C13 C 1.1231(3) 0.9190(4) 0.47145(19)
H12 H 1.1512 0.9736 0.5262
C14 C 1.1192(3) 0.7722(4) 0.47555(18)
H13 H 1.1432 0.7253 0.5339
C15 C 1.0809(3) 0.6909(3) 0.39609(17)
H14 H 1.0819 0.5891 0.4003
C16 C 1.0412(2) 0.7562(3) 0.31032(14)
C17 C 0.7310(2) 0.7359(3) 0.24638(14)
C18 C 0.6056(3) 0.7980(3) 0.38572(18)
C19 C 0.6815(4) 0.9388(3) 0.4054(3)
H15 H 0.7809 0.9212 0.4331
H16 H 0.6287 0.9948 0.4492
H17 H 0.6843 0.9924 0.3466
C20 C 0.4585(3) 0.8145(4) 0.3306(2)
H18 H 0.4699 0.8652 0.2718
H19 H 0.3939 0.8695 0.3678
H20 H 0.4165 0.7194 0.3167
C21 C 0.5928(5) 0.7142(5) 0.4746(2)
H21 H 0.5588 0.6168 0.4588
H22 H 0.5233 0.7619 0.5120
H23 H 0.6880 0.7094 0.5109
C22 C 0.7897(2) 0.4723(2) 0.24885(15)
C23 C 0.5336(3) 0.4905(3) 0.17016(18)
H24 H 0.5602 0.5750 0.1387
C24 C 0.3932(3) 0.4394(3) 0.15528(19)
H25 H 0.3232 0.4886 0.1143
C25 C 0.3561(3) 0.3167(3) 0.20045(18)
C26 C 0.4556(3) 0.2443(4) 0.26046(16)
H26 H 0.4280 0.1603 0.2920
C27 C 0.5965(3) 0.2956(3) 0.27432(17)
H27 H 0.6665 0.2447 0.3144
C28 C 0.6368(2) 0.4196(2) 0.23081(16)
loop_
_geom_bond_atom_site_label_1
_geom_bond_atom_site_label_2
_geom_bond_site_symmetry_1
_geom_bond_site_symmetry_2
Br1 C25 1_555 1_555
O1 C17 1_555 1_555
O2 C17 1_555 1_555
O3 C22 1_555 1_555
C1 H1 1_555 1_555
C2 C1 1_555 1_555
H2 C2 1_555 1_555
C3 C2 1_555 1_555
H3 C3 1_555 1_555
C4 C3 1_555 1_555
H4 C4 1_555 1_555
C5 C4 1_555 1_555
H5 C5 1_555 1_555
C6 C1 1_555 1_555
C7 C6 1_555 1_555
H6 C7 1_555 1_555
C8 C7 1_555 1_555
H7 C8 1_555 1_555
H8 C8 1_555 1_555
C9 C8 1_555 1_555
C10 C7 1_555 1_555
H9 C10 1_555 1_555
C11 H10 1_555 1_555
C12 C11 1_555 1_555
H11 C12 1_555 1_555
C13 C12 1_555 1_555
H12 C13 1_555 1_555
C14 C13 1_555 1_555
H13 C14 1_555 1_555
C15 C14 1_555 1_555
H14 C15 1_555 1_555
C16 C10 1_555 1_555
C17 C9 1_555 1_555
C18 O2 1_555 1_555
C19 C18 1_555 1_555
H15 C19 1_555 1_555
H16 C19 1_555 1_555
H17 C19 1_555 1_555
C20 C18 1_555 1_555
H18 C20 1_555 1_555
H19 C20 1_555 1_555
H20 C20 1_555 1_555
C21 C18 1_555 1_555
H21 C21 1_555 1_555
H22 C21 1_555 1_555
H23 C21 1_555 1_555
C22 C9 1_555 1_555
C23 H24 1_555 1_555
C24 C23 1_555 1_555
H25 C24 1_555 1_555
C25 C24 1_555 1_555
C26 C25 1_555 1_555
H26 C26 1_555 1_555
C27 C26 1_555 1_555
H27 C27 1_555 1_555
C28 C22 1_555 1_555
C5 C6 1_555 1_555
C9 C10 1_555 1_555
C11 C16 1_555 1_555
C15 C16 1_555 1_555
C23 C28 1_555 1_555
C27 C28 1_555 1_555

#END
