
#######################################################################
#
#                 Cambridge Crystallographic Data Centre
#                                CCDC 
#
#######################################################################
#
# If this CIF has been generated from an entry in the Cambridge 
# Structural Database, then it will include bibliographic, chemical, 
# crystal, experimental, refinement or atomic coordinate data resulting 
# from the CCDC's data processing and validation procedures.
#
#######################################################################

data_IFAVOC
_chemical_formula_moiety         'C33 H42 N6,3.5(C1 H4 O1)'
_chemical_name_systematic        
'5,11,19,25,30,36-Hexaazatetracyclo[13.13.9.1^3,27^.1^13,17^]nonatriaconta-1,3(38),4,11,13(39),14,16,18,25,27,29,36-dodecaene methanol solvate'
_symmetry_cell_setting           monoclinic
_symmetry_space_group_name_H-M   'C 2/c'
_symmetry_Int_Tables_number      15
_space_group_name_Hall           '-C 2yn'
loop_
_symmetry_equiv_pos_site_id
_symmetry_equiv_pos_as_xyz
1 x,y,z
2 -x,y,1/2-z
3 1/2+x,1/2+y,z
4 1/2-x,1/2+y,1/2-z
5 -x,-y,-z
6 x,-y,1/2+z
7 1/2-x,1/2-y,-z
8 1/2+x,1/2-y,1/2+z
_cell_length_a                   35.251(3)
_cell_length_b                   8.8610(10)
_cell_length_c                   26.926(2)
_cell_angle_alpha                90
_cell_angle_beta                 116.661(4)
_cell_angle_gamma                90
_cell_volume                     7516.34
_exptl_crystal_colour            colorless
_exptl_crystal_description       needle
_cell_formula_units_Z            8
loop_
_atom_site_label
_atom_site_type_symbol
_atom_site_fract_x
_atom_site_fract_y
_atom_site_fract_z
N1 N 0.15118(9) 0.5600(4) 0.61186(13)
N2 N -0.02636(9) 0.6098(4) 0.39391(13)
N3 N -0.00639(10) 1.1924(4) 0.38386(14)
N4 N 0.16284(10) 1.0390(4) 0.35595(14)
N5 N 0.14675(10) 0.4603(4) 0.37213(14)
N6 N 0.17294(9) 1.1297(4) 0.59971(14)
C1 C 0.15795(12) 0.5322(4) 0.57091(16)
H1 H 0.1860 0.5080 0.5770
C2 C 0.12339(11) 0.5360(4) 0.51300(16)
C3 C 0.08172(12) 0.5730(4) 0.50238(16)
H2 H 0.0756 0.5972 0.5324
C4 C 0.04970(11) 0.5745(4) 0.44871(15)
C5 C 0.00584(11) 0.6090(4) 0.43961(16)
H3 H 0.0020 0.6326 0.4715
C6 C 0.21005(12) 1.1190(5) 0.65427(17)
H4 H 0.2138 1.2155 0.6745
H5 H 0.2358 1.1007 0.6493
C7 C -0.08529(11) 0.7933(5) 0.36092(17)
H6 H -0.0879 0.7820 0.3229
H7 H -0.1141 0.8105 0.3576
C8 C -0.05779(11) 0.9305(5) 0.38827(17)
H8 H -0.0545 0.9401 0.4267
H9 H -0.0292 0.9145 0.3906
C9 C -0.07608(12) 1.0768(5) 0.35713(17)
H10 H -0.0801 1.0667 0.3185
H11 H -0.1043 1.0947 0.3557
C10 C -0.04767(11) 1.2117(5) 0.38415(18)
H12 H -0.0615 1.3048 0.3637
H13 H -0.0434 1.2224 0.4229
C11 C 0.02555(12) 1.1786(4) 0.43063(16)
H14 H 0.0215 1.1887 0.4630
C12 C 0.06878(11) 1.1478(4) 0.43775(16)
C13 C 0.07751(12) 1.1240(5) 0.39268(17)
H15 H 0.0551 1.1273 0.3559
C14 C 0.11932(12) 1.0953(5) 0.40134(17)
C15 C 0.12643(13) 1.0665(5) 0.35218(17)
H16 H 0.1028 1.0687 0.3164
C16 C 0.16578(14) 1.0068(5) 0.30386(17)
H17 H 0.1834 1.0847 0.2978
H18 H 0.1371 1.0097 0.2720
C17 C 0.18536(13) 0.8527(5) 0.30743(18)
H19 H 0.2135 0.8500 0.3402
H20 H 0.1897 0.8367 0.2740
C18 C 0.15827(12) 0.7244(5) 0.31192(17)
H21 H 0.1533 0.7413 0.3449
H22 H 0.1304 0.7250 0.2786
C19 C 0.17882(14) 0.5716(5) 0.31689(18)
H23 H 0.2068 0.5717 0.3500
H24 H 0.1837 0.5549 0.2838
C20 C 0.15205(15) 0.4399(5) 0.32188(19)
H25 H 0.1239 0.4379 0.2889
H26 H 0.1665 0.3427 0.3237
C21 C 0.10971(13) 0.4841(5) 0.36658(17)
H27 H 0.0869 0.4861 0.3301
C22 C 0.10029(12) 0.5093(5) 0.41446(16)
C23 C 0.13259(12) 0.5064(5) 0.46899(16)
H28 H 0.1609 0.4841 0.4759
C24 C 0.05934(12) 0.5426(4) 0.40419(16)
H29 H 0.0374 0.5443 0.3671
C25 C 0.15125(12) 1.0911(5) 0.45511(17)
H30 H 0.1795 1.0718 0.4613
C26 C 0.14323(12) 1.1142(4) 0.50027(16)
C27 C 0.17893(12) 1.1091(5) 0.55738(17)
H31 H 0.2069 1.0898 0.5621
C28 C -0.06738(11) 0.6469(5) 0.39328(18)
H32 H -0.0634 0.6586 0.4319
H33 H -0.0877 0.5634 0.3757
C29 C 0.20439(12) 0.9918(5) 0.68798(16)
H34 H 0.2293 0.9896 0.7250
H35 H 0.1790 1.0129 0.6936
C30 C 0.19938(12) 0.8381(4) 0.66125(16)
H36 H 0.2251 0.8157 0.6567
H37 H 0.1750 0.8413 0.6237
C31 C 0.19234(12) 0.7109(5) 0.69407(16)
H38 H 0.1664 0.7323 0.6983
H39 H 0.2166 0.7076 0.7317
C32 C 0.18775(12) 0.5575(5) 0.66657(16)
H40 H 0.2138 0.5337 0.6628
H41 H 0.1838 0.4784 0.6898
C33 C 0.10199(12) 1.1443(4) 0.49143(17)
H42 H 0.0964 1.1626 0.5223
loop_
_geom_bond_atom_site_label_1
_geom_bond_atom_site_label_2
_geom_bond_site_symmetry_1
_geom_bond_site_symmetry_2
N1 C1 1_555 1_555
N2 C5 1_555 1_555
N3 C10 1_555 1_555
N4 C15 1_555 1_555
N5 C20 1_555 1_555
N6 C6 1_555 1_555
C1 H1 1_555 1_555
C2 C1 1_555 1_555
C3 C2 1_555 1_555
H2 C3 1_555 1_555
C4 C3 1_555 1_555
C5 C4 1_555 1_555
H3 C5 1_555 1_555
C6 H4 1_555 1_555
H5 C6 1_555 1_555
C7 H6 1_555 1_555
H7 C7 1_555 1_555
C8 C7 1_555 1_555
H8 C8 1_555 1_555
H9 C8 1_555 1_555
C9 C8 1_555 1_555
H10 C9 1_555 1_555
H11 C9 1_555 1_555
C10 C9 1_555 1_555
H12 C10 1_555 1_555
H13 C10 1_555 1_555
C11 N3 1_555 1_555
H14 C11 1_555 1_555
C12 C11 1_555 1_555
C13 C12 1_555 1_555
H15 C13 1_555 1_555
C14 C13 1_555 1_555
C15 C14 1_555 1_555
H16 C15 1_555 1_555
C16 N4 1_555 1_555
H17 C16 1_555 1_555
H18 C16 1_555 1_555
C17 C16 1_555 1_555
H19 C17 1_555 1_555
H20 C17 1_555 1_555
C18 C17 1_555 1_555
H21 C18 1_555 1_555
H22 C18 1_555 1_555
C19 C18 1_555 1_555
H23 C19 1_555 1_555
H24 C19 1_555 1_555
C20 C19 1_555 1_555
H25 C20 1_555 1_555
H26 C20 1_555 1_555
C21 N5 1_555 1_555
H27 C21 1_555 1_555
C22 C21 1_555 1_555
C23 C2 1_555 1_555
H28 C23 1_555 1_555
C24 C4 1_555 1_555
H29 C24 1_555 1_555
C25 C14 1_555 1_555
H30 C25 1_555 1_555
C26 C25 1_555 1_555
C27 N6 1_555 1_555
H31 C27 1_555 1_555
C28 N2 1_555 1_555
H32 C28 1_555 1_555
H33 C28 1_555 1_555
C29 C6 1_555 1_555
H34 C29 1_555 1_555
H35 C29 1_555 1_555
C30 C29 1_555 1_555
H36 C30 1_555 1_555
H37 C30 1_555 1_555
C31 C30 1_555 1_555
H38 C31 1_555 1_555
H39 C31 1_555 1_555
C32 N1 1_555 1_555
H40 C32 1_555 1_555
H41 C32 1_555 1_555
C33 C12 1_555 1_555
H42 C33 1_555 1_555
C7 C28 1_555 1_555
C22 C23 1_555 1_555
C22 C24 1_555 1_555
C26 C27 1_555 1_555
C26 C33 1_555 1_555
C31 C32 1_555 1_555

#END
