
#######################################################################
#
#                 Cambridge Crystallographic Data Centre
#                                CCDC 
#
#######################################################################
#
# If this CIF has been generated from an entry in the Cambridge 
# Structural Database, then it will include bibliographic, chemical, 
# crystal, experimental, refinement or atomic coordinate data resulting 
# from the CCDC's data processing and validation procedures.
#
#######################################################################

data_IFAYEV
_chemical_formula_moiety         'C5 H8 N4 O1'
_chemical_name_systematic        
1,3-Dimethyl-N-nitroso-1,3-dihydro-2H-imidazol-2-imine
_symmetry_cell_setting           monoclinic
_symmetry_space_group_name_H-M   'P 21/c'
_symmetry_Int_Tables_number      14
_space_group_name_Hall           '-P 2ybc'
loop_
_symmetry_equiv_pos_site_id
_symmetry_equiv_pos_as_xyz
1 x,y,z
2 -x,1/2+y,1/2-z
3 -x,-y,-z
4 x,1/2-y,1/2+z
_cell_length_a                   5.9744(4)
_cell_length_b                   14.5125(10)
_cell_length_c                   7.4590(3)
_cell_angle_alpha                90
_cell_angle_beta                 94.942(4)
_cell_angle_gamma                90
_cell_volume                     644.317
_exptl_crystal_colour            yellow
_exptl_crystal_description       prismatic
_cell_formula_units_Z            4
loop_
_atom_site_label
_atom_site_type_symbol
_atom_site_fract_x
_atom_site_fract_y
_atom_site_fract_z
O1 O 0.69771(14) 0.43752(6) 0.18979(11)
N1 N 1.22755(16) 0.30040(7) 0.45728(13)
N2 N 1.05008(16) 0.17451(7) 0.36919(12)
N3 N 0.85021(17) 0.30912(7) 0.27994(14)
N4 N 0.86744(18) 0.39845(7) 0.26823(15)
C1 C 1.03681(19) 0.26767(8) 0.36540(14)
C2 C 1.3602(2) 0.22552(9) 0.51788(16)
H1 H 1.502(3) 0.2345(10) 0.586(2)
C3 C 1.2507(2) 0.14786(9) 0.46399(16)
H2 H 1.288(2) 0.0847(10) 0.4775(18)
C4 C 1.3007(2) 0.39669(9) 0.48156(18)
H3 H 1.361(3) 0.4195(11) 0.373(2)
H4 H 1.417(3) 0.3991(12) 0.581(2)
H5 H 1.178(3) 0.4345(11) 0.513(2)
C5 C 0.8736(2) 0.11238(9) 0.29105(17)
H6 H 0.742(3) 0.1171(11) 0.357(2)
H7 H 0.932(3) 0.0505(12) 0.297(2)
H8 H 0.831(2) 0.1294(10) 0.165(2)
loop_
_geom_bond_atom_site_label_1
_geom_bond_atom_site_label_2
_geom_bond_site_symmetry_1
_geom_bond_site_symmetry_2
O1 N4 1_555 1_555
N1 C1 1_555 1_555
N2 C1 1_555 1_555
N3 N4 1_555 1_555
C1 N3 1_555 1_555
C2 N1 1_555 1_555
H1 C2 1_555 1_555
C3 N2 1_555 1_555
H2 C3 1_555 1_555
C4 N1 1_555 1_555
H3 C4 1_555 1_555
H4 C4 1_555 1_555
H5 C4 1_555 1_555
C5 N2 1_555 1_555
H6 C5 1_555 1_555
H7 C5 1_555 1_555
H8 C5 1_555 1_555
C2 C3 1_555 1_555

#END
