
#######################################################################
#
#                 Cambridge Crystallographic Data Centre
#                                CCDC 
#
#######################################################################
#
# If this CIF has been generated from an entry in the Cambridge 
# Structural Database, then it will include bibliographic, chemical, 
# crystal, experimental, refinement or atomic coordinate data resulting 
# from the CCDC's data processing and validation procedures.
#
#######################################################################

data_IFAYOF
_chemical_formula_moiety         'C6 H10 N4 O1'
_chemical_name_systematic        
1-Ethyl-3-methyl-N-nitroso-1,3-dihydro-2H-imidazol-2-imine
_symmetry_cell_setting           monoclinic
_symmetry_space_group_name_H-M   'P 21/c'
_symmetry_Int_Tables_number      14
_space_group_name_Hall           '-P 2ybc'
loop_
_symmetry_equiv_pos_site_id
_symmetry_equiv_pos_as_xyz
1 x,y,z
2 -x,1/2+y,1/2-z
3 -x,-y,-z
4 x,1/2-y,1/2+z
_cell_length_a                   6.0781(13)
_cell_length_b                   16.4649(19)
_cell_length_c                   7.3469(9)
_cell_angle_alpha                90
_cell_angle_beta                 95.623(13)
_cell_angle_gamma                90
_cell_volume                     731.705
_exptl_crystal_colour            yellow
_exptl_crystal_description       prismatic
_cell_formula_units_Z            4
loop_
_atom_site_label
_atom_site_type_symbol
_atom_site_fract_x
_atom_site_fract_y
_atom_site_fract_z
O1 O 0.26372(17) 0.11469(6) 0.14054(14)
N1 N 0.72097(19) 0.28403(7) 0.32402(16)
N2 N 0.48022(19) 0.37581(7) 0.22114(16)
N3 N 0.3600(2) 0.24095(7) 0.15687(16)
N4 N 0.4035(2) 0.16605(7) 0.20982(17)
C1 C 0.5159(2) 0.29458(9) 0.23439(18)
C2 C 0.8119(2) 0.36013(9) 0.3675(2)
H1 H 0.957(3) 0.3643(11) 0.436(2)
C3 C 0.6643(2) 0.41693(9) 0.3036(2)
H2 H 0.669(3) 0.4754(11) 0.306(2)
C4 C 0.8437(3) 0.20809(9) 0.3633(2)
H3 H 0.770(3) 0.1746(11) 0.451(2)
H4 H 0.994(3) 0.2228(11) 0.420(3)
H5 H 0.855(3) 0.1787(11) 0.254(2)
C5 C 0.2778(3) 0.41394(9) 0.1303(2)
H6 H 0.163(3) 0.3744(10) 0.139(2)
H7 H 0.298(3) 0.4211(10) 0.002(2)
C6 C 0.2255(3) 0.49315(10) 0.2209(2)
H8 H 0.212(3) 0.4845(11) 0.352(3)
H9 H 0.078(3) 0.5134(11) 0.158(3)
H10 H 0.333(3) 0.5358(13) 0.202(3)
loop_
_geom_bond_atom_site_label_1
_geom_bond_atom_site_label_2
_geom_bond_site_symmetry_1
_geom_bond_site_symmetry_2
O1 N4 1_555 1_555
N1 C1 1_555 1_555
N2 C1 1_555 1_555
N3 N4 1_555 1_555
C1 N3 1_555 1_555
C2 N1 1_555 1_555
H1 C2 1_555 1_555
C3 N2 1_555 1_555
H2 C3 1_555 1_555
C4 N1 1_555 1_555
H3 C4 1_555 1_555
H4 C4 1_555 1_555
H5 C4 1_555 1_555
C5 N2 1_555 1_555
H6 C5 1_555 1_555
H7 C5 1_555 1_555
C6 C5 1_555 1_555
H8 C6 1_555 1_555
H9 C6 1_555 1_555
H10 C6 1_555 1_555
C2 C3 1_555 1_555

#END
