
#######################################################################
#
#                 Cambridge Crystallographic Data Centre
#                                CCDC 
#
#######################################################################
#
# If this CIF has been generated from an entry in the Cambridge 
# Structural Database, then it will include bibliographic, chemical, 
# crystal, experimental, refinement or atomic coordinate data resulting 
# from the CCDC's data processing and validation procedures.
#
#######################################################################

data_IFEKUZ
_chemical_formula_moiety         'C27 H30 O5'
_chemical_name_systematic        
2,2-bis(Ethoxycarbonyl)-3,4-diethyl-5,6-diphenyl-2H-pyran
_symmetry_cell_setting           triclinic
_symmetry_space_group_name_H-M   'P -1'
_symmetry_Int_Tables_number      2
_space_group_name_Hall           '-P 1'
loop_
_symmetry_equiv_pos_site_id
_symmetry_equiv_pos_as_xyz
1 x,y,z
2 -x,-y,-z
_cell_length_a                   10.1317(5)
_cell_length_b                   13.6316(8)
_cell_length_c                   9.9510(9)
_cell_angle_alpha                99.490(7)
_cell_angle_beta                 114.651(4)
_cell_angle_gamma                85.463(5)
_cell_volume                     1231.92
_exptl_crystal_colour            colorless
_exptl_crystal_description       prism
_cell_formula_units_Z            2
loop_
_atom_site_label
_atom_site_type_symbol
_atom_site_fract_x
_atom_site_fract_y
_atom_site_fract_z
O1 O 0.5196(1) 0.32702(9) 0.2310(1)
O2 O 0.7773(2) 0.1631(1) 0.4348(2)
O3 O 0.6882(2) 0.1736(1) 0.1912(2)
O4 O 0.8909(2) 0.3628(1) 0.3681(2)
O5 O 0.6970(2) 0.4561(1) 0.2534(2)
C1 C 0.6593(2) 0.3167(1) 0.3477(2)
C2 C 0.6553(2) 0.3434(1) 0.4996(2)
C3 C 0.5371(2) 0.3125(1) 0.5085(2)
C4 C 0.4232(2) 0.2597(1) 0.3739(2)
C5 C 0.4137(2) 0.2731(1) 0.2393(2)
C6 C 0.7154(2) 0.2079(1) 0.3321(2)
C7 C 0.7341(3) 0.0714(2) 0.1607(3)
C8 C 0.7310(8) 0.0529(3) 0.0159(5)
C9 C 0.7633(2) 0.3807(1) 0.3235(2)
C10 C 0.7858(5) 0.5225(2) 0.2240(5)
C11 C 0.7764(7) 0.4964(4) 0.0739(5)
C12 C 0.7826(2) 0.3947(2) 0.6301(3)
C13 C 0.7698(4) 0.5077(2) 0.6429(4)
C14 C 0.5172(2) 0.3299(2) 0.6532(2)
C15 C 0.5788(3) 0.2459(2) 0.7461(3)
C16 C 0.3251(2) 0.1902(1) 0.3898(2)
C17 C 0.3564(2) 0.0891(1) 0.3782(2)
C18 C 0.2694(3) 0.0223(2) 0.3956(3)
C19 C 0.1509(2) 0.0563(2) 0.4239(3)
C20 C 0.1179(2) 0.1567(2) 0.4340(2)
C21 C 0.2043(2) 0.2229(1) 0.4176(2)
C22 C 0.2990(2) 0.2433(1) 0.0891(2)
C23 C 0.3355(2) 0.2223(2) -0.0323(2)
C24 C 0.2307(3) 0.1966(2) -0.1758(2)
C25 C 0.0876(3) 0.1919(2) -0.1998(3)
C26 C 0.0494(3) 0.2136(2) -0.0808(3)
C27 C 0.1536(2) 0.2402(2) 0.0638(2)
H1 H 0.808(5) 0.039(3) 0.242(6)
H2 H 0.650(4) 0.029(3) 0.161(4)
H3 H 0.7984 0.0948 0.0100
H4 H 0.7564 -0.0147 -0.0050
H5 H 0.6361 0.0660 -0.0549
H6 H 0.871(5) 0.530(3) 0.304(5)
H7 H 0.740(7) 0.579(5) 0.193(7)
H8 H 0.8334 0.5410 0.0567
H9 H 0.8117 0.4304 0.0614
H10 H 0.6781 0.5008 0.0047
H11 H 0.878(3) 0.374(2) 0.624(3)
H12 H 0.800(2) 0.369(2) 0.735(3)
H13 H 0.753(4) 0.536(3) 0.543(5)
H14 H 0.661(8) 0.533(5) 0.665(8)
H15 H 0.865(5) 0.533(3) 0.733(6)
H16 H 0.563(3) 0.389(2) 0.712(3)
H17 H 0.422(3) 0.332(2) 0.635(3)
H18 H 0.676(3) 0.236(2) 0.757(3)
H19 H 0.515(3) 0.188(2) 0.683(3)
H20 H 0.566(3) 0.265(2) 0.841(4)
H21 H 0.448(2) 0.065(2) 0.358(2)
H22 H 0.301(3) -0.050(3) 0.387(4)
H23 H 0.087(3) 0.004(2) 0.426(3)
H24 H 0.023(3) 0.184(2) 0.455(3)
H25 H 0.181(2) 0.287(2) 0.425(2)
H26 H 0.440(4) 0.223(2) -0.020(4)
H27 H 0.256(3) 0.177(2) -0.267(3)
H28 H 0.012(3) 0.162(2) -0.305(3)
H29 H -0.044(3) 0.208(2) -0.094(3)
H30 H 0.126(3) 0.266(2) 0.152(3)
loop_
_geom_bond_atom_site_label_1
_geom_bond_atom_site_label_2
_geom_bond_site_symmetry_1
_geom_bond_site_symmetry_2
O1 C1 1_555 1_555
O2 C6 1_555 1_555
O3 C6 1_555 1_555
O4 C9 1_555 1_555
O5 C9 1_555 1_555
C1 C2 1_555 1_555
C2 C3 1_555 1_555
C3 C4 1_555 1_555
C4 C5 1_555 1_555
C5 O1 1_555 1_555
C6 C1 1_555 1_555
C7 O3 1_555 1_555
C8 C7 1_555 1_555
C9 C1 1_555 1_555
C10 O5 1_555 1_555
C11 C10 1_555 1_555
C12 C2 1_555 1_555
C13 C12 1_555 1_555
C14 C3 1_555 1_555
C15 C14 1_555 1_555
C16 C4 1_555 1_555
C17 C16 1_555 1_555
C18 C17 1_555 1_555
C19 C18 1_555 1_555
C20 C19 1_555 1_555
C21 C16 1_555 1_555
C22 C5 1_555 1_555
C23 C22 1_555 1_555
C24 C23 1_555 1_555
C25 C24 1_555 1_555
C26 C25 1_555 1_555
C27 C22 1_555 1_555
H1 C7 1_555 1_555
H2 C7 1_555 1_555
H3 C8 1_555 1_555
H4 C8 1_555 1_555
H5 C8 1_555 1_555
H6 C10 1_555 1_555
H7 C10 1_555 1_555
H8 C11 1_555 1_555
H9 C11 1_555 1_555
H10 C11 1_555 1_555
H11 C12 1_555 1_555
H12 C12 1_555 1_555
H13 C13 1_555 1_555
H14 C13 1_555 1_555
H15 C13 1_555 1_555
H16 C14 1_555 1_555
H17 C14 1_555 1_555
H18 C15 1_555 1_555
H19 C15 1_555 1_555
H20 C15 1_555 1_555
H21 C17 1_555 1_555
H22 C18 1_555 1_555
H23 C19 1_555 1_555
H24 C20 1_555 1_555
H25 C21 1_555 1_555
H26 C23 1_555 1_555
H27 C24 1_555 1_555
H28 C25 1_555 1_555
H29 C26 1_555 1_555
H30 C27 1_555 1_555
C20 C21 1_555 1_555
C26 C27 1_555 1_555

#END
