
#######################################################################
#
#                 Cambridge Crystallographic Data Centre
#                                CCDC 
#
#######################################################################
#
# If this CIF has been generated from an entry in the Cambridge 
# Structural Database, then it will include bibliographic, chemical, 
# crystal, experimental, refinement or atomic coordinate data resulting 
# from the CCDC's data processing and validation procedures.
#
#######################################################################

data_IFELAG
_chemical_formula_moiety         'C35 H32 O5'
_chemical_name_systematic        
1-bis(Ethoxycarbonyl)methoxy-1,2,3,4-tetraphenylbuta-1,3-diene
_symmetry_cell_setting           triclinic
_symmetry_space_group_name_H-M   'P -1'
_symmetry_Int_Tables_number      2
_space_group_name_Hall           '-P 1'
loop_
_symmetry_equiv_pos_site_id
_symmetry_equiv_pos_as_xyz
1 x,y,z
2 -x,-y,-z
_cell_length_a                   11.411(1)
_cell_length_b                   13.851(2)
_cell_length_c                   11.351(2)
_cell_angle_alpha                102.61(1)
_cell_angle_beta                 119.293(9)
_cell_angle_gamma                95.125(9)
_cell_volume                     1485.81
_exptl_crystal_colour            colorless
_exptl_crystal_description       prism
_cell_formula_units_Z            2
loop_
_atom_site_label
_atom_site_type_symbol
_atom_site_fract_x
_atom_site_fract_y
_atom_site_fract_z
O1 O 0.8349(1) 0.2239(1) 1.1093(1)
O2 O 0.7528(2) 0.1025(2) 1.2229(2)
O3 O 0.6153(2) 0.2016(2) 1.2423(2)
O4 O 0.6224(2) 0.3761(1) 1.0670(2)
O5 O 0.5362(1) 0.2108(1) 0.9506(2)
C1 C 0.7524(2) 0.2582(2) 1.1637(2)
C2 C 0.7070(2) 0.1751(2) 1.2104(2)
C3 C 0.5506(4) 0.1295(4) 1.2805(4)
C4 C 0.4159(5) 0.0705(3) 1.1552(4)
C5 C 0.6298(2) 0.2893(2) 1.0549(2)
C6 C 0.4102(2) 0.2334(2) 0.8452(3)
C7 C 0.2960(4) 0.1600(5) 0.8033(7)
C8 C 0.9515(2) 0.2926(1) 1.1432(2)
C9 C 0.9732(2) 0.2942(1) 1.0376(2)
C10 C 0.8607(2) 0.2451(1) 0.8861(2)
C11 C 0.7507(2) 0.2858(1) 0.8339(2)
C12 C 1.0427(2) 0.3508(2) 1.2956(2)
C13 C 1.0629(2) 0.3047(2) 1.3993(2)
C14 C 1.1439(3) 0.3606(3) 1.5416(3)
C15 C 1.2038(3) 0.4604(3) 1.5814(3)
C16 C 1.1850(3) 0.5075(3) 1.4804(3)
C17 C 1.1034(2) 0.4530(2) 1.3374(3)
C18 C 1.1062(2) 0.3435(1) 1.0589(2)
C19 C 1.2329(2) 0.3313(2) 1.1592(2)
C20 C 1.3540(3) 0.3767(2) 1.1731(3)
C21 C 1.3494(3) 0.4340(2) 1.0857(4)
C22 C 1.2256(3) 0.4449(2) 0.9847(3)
C23 C 1.1050(3) 0.3995(2) 0.9709(3)
C24 C 0.8884(2) 0.1612(1) 0.8036(2)
C25 C 0.9519(2) 0.0890(2) 0.8632(2)
C26 C 0.9843(3) 0.0134(2) 0.7897(3)
C27 C 0.9540(2) 0.0094(2) 0.6554(3)
C28 C 0.8911(2) 0.0797(2) 0.5942(2)
C29 C 0.8599(2) 0.1561(2) 0.6679(2)
C30 C 0.6204(2) 0.2503(1) 0.6954(2)
C31 C 0.5561(2) 0.3217(2) 0.6340(2)
C32 C 0.4253(2) 0.2918(2) 0.5117(2)
C33 C 0.3581(2) 0.1916(2) 0.4508(2)
C34 C 0.4210(2) 0.1198(2) 0.5098(2)
C35 C 0.5511(2) 0.1485(2) 0.6306(2)
H1 H 0.808(2) 0.318(2) 1.245(2)
H2 H 0.625(5) 0.103(4) 1.342(5)
H3 H 0.527(4) 0.177(3) 1.357(4)
H4 H 0.3732 0.0241 1.1811
H5 H 0.3584 0.1155 1.1206
H6 H 0.4295 0.0339 1.0834
H7 H 0.4011 0.2979 0.8856
H8 H 0.4164 0.2347 0.7650
H9 H 0.2886 0.1594 0.8829
H10 H 0.2154 0.1748 0.7340
H11 H 0.3054 0.0953 0.7640
H12 H 0.757(2) 0.346(2) 0.899(2)
H13 H 1.019(3) 0.232(2) 1.369(3)
H14 H 1.161(4) 0.335(3) 1.620(4)
H15 H 1.260(4) 0.509(3) 1.680(5)
H16 H 1.239(3) 0.590(3) 1.511(3)
H17 H 1.082(3) 0.484(2) 1.266(3)
H18 H 1.233(2) 0.293(2) 1.220(3)
H19 H 1.459(4) 0.358(3) 1.253(4)
H20 H 1.452(5) 0.467(3) 1.111(5)
H21 H 1.228(3) 0.481(2) 0.917(3)
H22 H 1.014(3) 0.406(2) 0.897(3)
H23 H 0.969(3) 0.089(2) 0.960(3)
H24 H 1.037(3) -0.033(2) 0.842(3)
H25 H 0.986(3) -0.040(2) 0.611(3)
H26 H 0.866(3) 0.078(2) 0.496(3)
H27 H 0.818(2) 0.209(2) 0.625(2)
H28 H 0.607(2) 0.392(2) 0.676(2)
H29 H 0.374(3) 0.337(2) 0.465(3)
H30 H 0.258(3) 0.166(2) 0.364(3)
H31 H 0.376(3) 0.049(3) 0.463(3)
H32 H 0.589(2) 0.100(2) 0.671(2)
loop_
_geom_bond_atom_site_label_1
_geom_bond_atom_site_label_2
_geom_bond_site_symmetry_1
_geom_bond_site_symmetry_2
O1 C1 1_555 1_555
O2 C2 1_555 1_555
O3 C2 1_555 1_555
O4 C5 1_555 1_555
O5 C5 1_555 1_555
C1 C2 1_555 1_555
C3 O3 1_555 1_555
C4 C3 1_555 1_555
C5 C1 1_555 1_555
C6 O5 1_555 1_555
C7 C6 1_555 1_555
C8 O1 1_555 1_555
C9 C8 1_555 1_555
C10 C9 1_555 1_555
C11 C10 1_555 1_555
C12 C8 1_555 1_555
C13 C12 1_555 1_555
C14 C13 1_555 1_555
C15 C14 1_555 1_555
C16 C15 1_555 1_555
C17 C12 1_555 1_555
C18 C9 1_555 1_555
C19 C18 1_555 1_555
C20 C19 1_555 1_555
C21 C20 1_555 1_555
C22 C21 1_555 1_555
C23 C18 1_555 1_555
C24 C10 1_555 1_555
C25 C24 1_555 1_555
C26 C25 1_555 1_555
C27 C26 1_555 1_555
C28 C27 1_555 1_555
C29 C24 1_555 1_555
C30 C11 1_555 1_555
C31 C30 1_555 1_555
C32 C31 1_555 1_555
C33 C32 1_555 1_555
C34 C33 1_555 1_555
C35 C30 1_555 1_555
H1 C1 1_555 1_555
H2 C3 1_555 1_555
H3 C3 1_555 1_555
H4 C4 1_555 1_555
H5 C4 1_555 1_555
H6 C4 1_555 1_555
H7 C6 1_555 1_555
H8 C6 1_555 1_555
H9 C7 1_555 1_555
H10 C7 1_555 1_555
H11 C7 1_555 1_555
H12 C11 1_555 1_555
H13 C13 1_555 1_555
H14 C14 1_555 1_555
H15 C15 1_555 1_555
H16 C16 1_555 1_555
H17 C17 1_555 1_555
H18 C19 1_555 1_555
H19 C20 1_555 1_555
H20 C21 1_555 1_555
H21 C22 1_555 1_555
H22 C23 1_555 1_555
H23 C25 1_555 1_555
H24 C26 1_555 1_555
H25 C27 1_555 1_555
H26 C28 1_555 1_555
H27 C29 1_555 1_555
H28 C31 1_555 1_555
H29 C32 1_555 1_555
H30 C33 1_555 1_555
H31 C34 1_555 1_555
H32 C35 1_555 1_555
C16 C17 1_555 1_555
C22 C23 1_555 1_555
C28 C29 1_555 1_555
C34 C35 1_555 1_555

#END
