
#######################################################################
#
#                 Cambridge Crystallographic Data Centre
#                                CCDC 
#
#######################################################################
#
# If this CIF has been generated from an entry in the Cambridge 
# Structural Database, then it will include bibliographic, chemical, 
# crystal, experimental, refinement or atomic coordinate data resulting 
# from the CCDC's data processing and validation procedures.
#
#######################################################################

data_IFEMEO
_chemical_formula_moiety         'C24 H17 Br1 O3 S1'
_chemical_name_systematic        
1-{1-[(4-bromophenyl)sulfonyl]-2-phenylethenyl}naphthalen-2-ol
_symmetry_cell_setting           orthorhombic
_symmetry_space_group_name_H-M   'P 21 21 21'
_symmetry_Int_Tables_number      19
_space_group_name_Hall           'P 2ac 2ab'
loop_
_symmetry_equiv_pos_site_id
_symmetry_equiv_pos_as_xyz
1 x,y,z
2 1/2-x,-y,1/2+z
3 -x,1/2+y,1/2-z
4 1/2+x,1/2-y,-z
_cell_length_a                   11.9622(5)
_cell_length_b                   13.7187(5)
_cell_length_c                   25.7933(13)
_cell_angle_alpha                90
_cell_angle_beta                 90
_cell_angle_gamma                90
_cell_volume                     4232.83
_exptl_crystal_colour            colorless
_exptl_crystal_description       Block
_cell_formula_units_Z            8
loop_
_atom_site_label
_atom_site_type_symbol
_atom_site_fract_x
_atom_site_fract_y
_atom_site_fract_z
Br1 Br 0.55237(8) 1.01911(7) 0.44165(4)
S1 S 0.60353(17) 0.59991(13) 0.33766(9)
O1 O 0.6908(4) 0.6080(4) 0.2989(2)
O2 O 0.6186(4) 0.5314(3) 0.3790(2)
C1 C 0.3269(6) 0.4425(4) 0.2982(3)
C2 C 0.2659(6) 0.4736(4) 0.2555(3)
H1 H 0.2852 0.5310 0.2385
C3 C 0.4768(5) 0.5732(4) 0.3043(2)
C4 C 0.4255(5) 0.4907(4) 0.3186(2)
H2 H 0.4589 0.4588 0.3463
C5 C 0.4454(7) 0.6435(5) 0.2636(3)
C6 C 0.2957(7) 0.3569(5) 0.3230(3)
H3 H 0.3356 0.3349 0.3517
C7 C 0.5836(6) 0.7160(5) 0.3649(3)
C8 C 0.1763(6) 0.4188(5) 0.2384(3)
H4 H 0.1360 0.4395 0.2096
C9 C 0.6178(6) 0.7974(5) 0.3390(3)
H5 H 0.6489 0.7919 0.3061
C10 C 0.5603(7) 0.8950(6) 0.4098(4)
O3 O 0.5830(6) 0.5775(7) 0.2050(2)
H6 H 0.6127 0.5587 0.2318
C11 C 0.3886(15) 0.7690(10) 0.1846(7)
H7 H 0.3686 0.8098 0.1574
C12 C 0.1460(7) 0.3348(6) 0.2630(4)
H8 H 0.0854 0.2986 0.2512
C13 C 0.3595(8) 0.7121(5) 0.2720(4)
C14 C 0.2053(8) 0.3046(6) 0.3050(4)
H9 H 0.1845 0.2476 0.3219
C15 C 0.5249(7) 0.8150(7) 0.4350(3)
H10 H 0.4926 0.8205 0.4677
C16 C 0.2983(8) 0.7154(6) 0.3174(4)
H11 H 0.3167 0.6728 0.3441
C17 C 0.5001(9) 0.6415(7) 0.2166(4)
C18 C 0.6062(7) 0.8885(6) 0.3618(4)
H12 H 0.6294 0.9444 0.3444
C19 C 0.3320(11) 0.7789(7) 0.2313(6)
C20 C 0.1832(16) 0.8435(12) 0.2848(9)
H13 H 0.1240 0.8867 0.2892
C21 C 0.5369(7) 0.7248(6) 0.4122(3)
H14 H 0.5125 0.6694 0.4296
C22 C 0.2111(10) 0.7794(10) 0.3245(6)
H15 H 0.1712 0.7797 0.3554
C23 C 0.2420(16) 0.8436(9) 0.2393(8)
H16 H 0.2223 0.8871 0.2131
C24 C 0.4687(11) 0.7055(11) 0.1767(5)
H17 H 0.5047 0.7029 0.1448
Br2 Br 0.48234(10) -0.02168(6) 0.64506(4)
S2 S 0.44833(18) 0.31646(11) 0.47602(7)
O4 O 0.6619(4) 0.5012(3) 0.48706(18)
H18 H 0.6260 0.4686 0.4663
O5 O 0.5540(4) 0.3187(3) 0.44876(17)
O6 O 0.3479(4) 0.3018(3) 0.44681(19)
C25 C 0.4578(6) 0.2245(4) 0.5237(2)
C26 C 0.5056(6) 0.4195(4) 0.6032(3)
C27 C 0.6333(6) 0.4749(4) 0.5362(3)
C28 C 0.4017(6) 0.3855(4) 0.6201(3)
H19 H 0.3442 0.3781 0.5961
C29 C 0.5292(5) 0.4420(4) 0.5504(2)
C30 C 0.4410(6) 0.4283(4) 0.5108(2)
C31 C 0.5906(7) 0.4327(4) 0.6401(3)
C32 C 0.5605(6) 0.1988(4) 0.5429(3)
H20 H 0.6246 0.2303 0.5313
C33 C 0.4722(8) 0.0794(4) 0.5953(3)
C34 C 0.3624(6) 0.1773(5) 0.5396(3)
H21 H 0.2936 0.1947 0.5256
C35 C 0.5679(6) 0.1261(5) 0.5795(3)
H22 H 0.6369 0.1087 0.5934
C36 C 0.3681(7) 0.1037(5) 0.5765(3)
H23 H 0.3040 0.0720 0.5881
C37 C 0.7166(6) 0.4872(5) 0.5735(3)
H24 H 0.7866 0.5098 0.5634
C38 C 0.4690(11) 0.3763(5) 0.7070(4)
H25 H 0.4561 0.3612 0.7417
C39 C 0.5697(9) 0.4103(5) 0.6927(3)
H26 H 0.6255 0.4191 0.7174
C40 C 0.6972(7) 0.4669(5) 0.6239(3)
H27 H 0.7539 0.4753 0.6482
C41 C 0.3443(6) 0.5924(6) 0.5106(4)
C42 C 0.3623(6) 0.4912(5) 0.4946(3)
H28 H 0.3127 0.4673 0.4700
C43 C 0.3827(8) 0.3629(5) 0.6708(4)
H29 H 0.3135 0.3389 0.6813
C44 C 0.3718(8) 0.7335(6) 0.5657(4)
H30 H 0.4045 0.7615 0.5948
C45 C 0.3926(7) 0.6368(5) 0.5533(4)
H31 H 0.4403 0.6007 0.5744
C46 C 0.3032(10) 0.7865(8) 0.5349(6)
H32 H 0.2905 0.8518 0.5427
C47 C 0.2726(7) 0.6482(7) 0.4801(4)
H33 H 0.2377 0.6208 0.4514
C48 C 0.2531(9) 0.7468(9) 0.4932(6)
H34 H 0.2055 0.7844 0.4729
loop_
_geom_bond_atom_site_label_1
_geom_bond_atom_site_label_2
_geom_bond_site_symmetry_1
_geom_bond_site_symmetry_2
Br1 C10 1_555 1_555
S1 O1 1_555 1_555
O2 S1 1_555 1_555
C1 C2 1_555 1_555
C2 H1 1_555 1_555
C3 S1 1_555 1_555
C4 C1 1_555 1_555
H2 C4 1_555 1_555
C5 C3 1_555 1_555
C6 C1 1_555 1_555
H3 C6 1_555 1_555
C7 S1 1_555 1_555
C8 C2 1_555 1_555
H4 C8 1_555 1_555
C9 C7 1_555 1_555
H5 C9 1_555 1_555
C10 C15 1_555 1_555
O3 H6 1_555 1_555
C11 H7 1_555 1_555
C12 C8 1_555 1_555
H8 C12 1_555 1_555
C13 C5 1_555 1_555
C14 C6 1_555 1_555
H9 C14 1_555 1_555
C15 H10 1_555 1_555
C16 C13 1_555 1_555
H11 C16 1_555 1_555
C17 C5 1_555 1_555
C18 C9 1_555 1_555
H12 C18 1_555 1_555
C19 C11 1_555 1_555
C20 H13 1_555 1_555
C21 C7 1_555 1_555
H14 C21 1_555 1_555
C22 C16 1_555 1_555
H15 C22 1_555 1_555
C23 C19 1_555 1_555
H16 C23 1_555 1_555
C24 C11 1_555 1_555
H17 C24 1_555 1_555
Br2 C33 1_555 1_555
S2 O5 1_555 1_555
O4 H18 1_555 1_555
O6 S2 1_555 1_555
C25 S2 1_555 1_555
C26 C28 1_555 1_555
C27 O4 1_555 1_555
C28 H19 1_555 1_555
C29 C26 1_555 1_555
C30 S2 1_555 1_555
C31 C26 1_555 1_555
C32 C25 1_555 1_555
H20 C32 1_555 1_555
C33 C35 1_555 1_555
C34 C25 1_555 1_555
H21 C34 1_555 1_555
C35 C32 1_555 1_555
H22 C35 1_555 1_555
C36 C33 1_555 1_555
H23 C36 1_555 1_555
C37 C27 1_555 1_555
H24 C37 1_555 1_555
C38 H25 1_555 1_555
C39 C31 1_555 1_555
H26 C39 1_555 1_555
C40 C31 1_555 1_555
H27 C40 1_555 1_555
C41 C42 1_555 1_555
C42 C30 1_555 1_555
H28 C42 1_555 1_555
C43 C28 1_555 1_555
H29 C43 1_555 1_555
C44 H30 1_555 1_555
C45 C41 1_555 1_555
H31 C45 1_555 1_555
C46 C44 1_555 1_555
H32 C46 1_555 1_555
C47 C41 1_555 1_555
H33 C47 1_555 1_555
C48 C46 1_555 1_555
H34 C48 1_555 1_555
C3 C4 1_555 1_555
C10 C18 1_555 1_555
O3 C17 1_555 1_555
C12 C14 1_555 1_555
C13 C19 1_555 1_555
C15 C21 1_555 1_555
C17 C24 1_555 1_555
C20 C22 1_555 1_555
C20 C23 1_555 1_555
C27 C29 1_555 1_555
C29 C30 1_555 1_555
C34 C36 1_555 1_555
C37 C40 1_555 1_555
C38 C39 1_555 1_555
C38 C43 1_555 1_555
C44 C45 1_555 1_555
C47 C48 1_555 1_555

#END
