
#######################################################################
#
#                 Cambridge Crystallographic Data Centre
#                                CCDC 
#
#######################################################################
#
# If this CIF has been generated from an entry in the Cambridge 
# Structural Database, then it will include bibliographic, chemical, 
# crystal, experimental, refinement or atomic coordinate data resulting 
# from the CCDC's data processing and validation procedures.
#
#######################################################################

data_IFEMEN
_chemical_name_common            
'cyclo[2](2,6-bis(1H-Imidazol-1-yl)pyridine)[2](1,2-dimethylenebenzene) bis(naphthalene-2,6-dicarboxylate) heptadecahydrate'
_chemical_formula_moiety         'C38 H34 N10 4+,2(C12 H6 O4 2-),17(H2 O1)'
_chemical_name_systematic        
'1,7(2,6)-Dipyridina-2,6,8,12(1,3)-tetraimidazola-4,10(1,2)-dibenzenacyclododecaphane-2^3^,6^1^,8^3^,12^1^-tetra-ium bis(naphthalene-2,6-dicarboxylate) heptadecahydrate'
_symmetry_cell_setting           triclinic
_symmetry_space_group_name_H-M   'P -1'
_symmetry_Int_Tables_number      2
_space_group_name_Hall           '-P 1'
loop_
_symmetry_equiv_pos_site_id
_symmetry_equiv_pos_as_xyz
1 x,y,z
2 -x,-y,-z
_cell_length_a                   14.084(3)
_cell_length_b                   14.242(3)
_cell_length_c                   19.099(4)
_cell_angle_alpha                93.1327(70)
_cell_angle_beta                 96.556(14)
_cell_angle_gamma                117.818(16)
_cell_volume                     3340.59
_exptl_crystal_colour            colorless
_exptl_crystal_description       block
_cell_formula_units_Z            2
loop_
_atom_site_label
_atom_site_type_symbol
_atom_site_fract_x
_atom_site_fract_y
_atom_site_fract_z
N1 N 0.3794(4) 0.7198(4) 0.0316(3)
N2 N 0.5361(4) 0.7616(4) -0.0001(3)
N3 N 0.7016(4) 0.8080(4) 0.0703(3)
N4 N 0.8580(4) 0.8447(4) 0.1479(3)
N5 N 0.8800(4) 0.8433(5) 0.2622(3)
N6 N 0.7298(4) 0.8187(5) 0.5247(3)
N7 N 0.5688(4) 0.7824(4) 0.5453(3)
N8 N 0.4122(4) 0.7107(4) 0.4629(3)
N9 N 0.2669(4) 0.6397(4) 0.3708(3)
N10 N 0.2699(4) 0.5931(4) 0.2609(3)
C1 C 0.4834(5) 0.7502(5) 0.0557(4)
H1 H 0.5142 0.7615 0.1032
C2 C 0.3641(6) 0.7120(6) -0.0419(4)
H2 H 0.2992 0.6929 -0.0717
C3 C 0.4622(6) 0.7378(6) -0.0623(4)
H3 H 0.4770 0.7393 -0.1085
C4 C 0.6502(5) 0.7927(5) 0.0040(4)
C5 C 0.6979(6) 0.8032(6) -0.0570(4)
H4 H 0.6583 0.7916 -0.1020
C6 C 0.8071(6) 0.8318(6) -0.0473(4)
H5 H 0.8422 0.8394 -0.0866
C7 C 0.8654(6) 0.8495(6) 0.0202(4)
H6 H 0.9393 0.8701 0.0275
C8 C 0.8066(5) 0.8343(5) 0.0762(4)
C9 C 0.8073(6) 0.8298(6) 0.2045(4)
H7 H 0.7350 0.8131 0.2043
C10 C 0.9646(6) 0.8665(6) 0.1684(4)
H8 H 1.0167 0.8790 0.1391
C11 C 0.9776(6) 0.8659(7) 0.2398(4)
H9 H 1.0411 0.8784 0.2687
C12 C 0.8582(6) 0.8303(6) 0.3360(4)
H10 H 0.9032 0.8032 0.3599
H11 H 0.7828 0.7777 0.3350
C13 C 0.8804(5) 0.9339(6) 0.3782(4)
C14 C 0.9182(6) 1.0304(6) 0.3490(4)
H12 H 0.9335 1.0321 0.3029
C15 C 0.9337(6) 1.1238(7) 0.3866(4)
H13 H 0.9579 1.1863 0.3652
C16 C 0.9133(6) 1.1248(6) 0.4567(4)
H14 H 0.9223 1.1866 0.4823
C17 C 0.8788(5) 1.0292(6) 0.4865(4)
H15 H 0.8685 1.0293 0.5338
C18 C 0.8591(5) 0.9340(6) 0.4492(4)
C19 C 0.8190(6) 0.8328(6) 0.4850(4)
H16 H 0.7935 0.7716 0.4493
H17 H 0.8789 0.8358 0.5174
C20 C 0.6274(5) 0.7803(5) 0.4945(4)
H18 H 0.6004 0.7560 0.4466
C21 C 0.7394(6) 0.8476(6) 0.5974(4)
H19 H 0.8028 0.8766 0.6304
C22 C 0.6382(6) 0.8251(6) 0.6107(4)
H20 H 0.6192 0.8360 0.6543
C23 C 0.4540(5) 0.7484(5) 0.5310(4)
C24 C 0.3956(6) 0.7523(6) 0.5831(4)
H21 H 0.4291 0.7777 0.6300
C25 C 0.2858(6) 0.7173(6) 0.5637(4)
H22 H 0.2435 0.7185 0.5974
C26 C 0.2392(6) 0.6798(6) 0.4919(4)
H23 H 0.1658 0.6569 0.4765
C27 C 0.3066(6) 0.6783(5) 0.4451(4)
C28 C 0.3294(5) 0.6315(5) 0.3252(4)
H24 H 0.4024 0.6498 0.3366
C29 C 0.1622(6) 0.6038(5) 0.3329(4)
H25 H 0.1021 0.5998 0.3511
C30 C 0.1658(6) 0.5762(6) 0.2652(4)
H26 H 0.1082 0.5503 0.2278
C31 C 0.3156(6) 0.5759(6) 0.1983(4)
H27 H 0.3494 0.5315 0.2092
H28 H 0.3717 0.6443 0.1887
C32 C 0.2307(5) 0.5230(6) 0.1324(4)
C33 C 0.1604(6) 0.4130(6) 0.1291(4)
H29 H 0.1666 0.3771 0.1672
C34 C 0.0814(6) 0.3564(6) 0.0698(4)
H30 H 0.0364 0.2832 0.0679
C35 C 0.0705(6) 0.4108(6) 0.0135(4)
H31 H 0.0177 0.3741 -0.0261
C36 C 0.1397(6) 0.5210(6) 0.0169(4)
H32 H 0.1324 0.5572 -0.0206
C37 C 0.2205(5) 0.5777(5) 0.0767(4)
C38 C 0.2920(5) 0.6977(6) 0.0753(4)
H33 H 0.2471 0.7281 0.0562
H34 H 0.3246 0.7320 0.1235
C39 C 0.6442(7) 0.5651(6) 0.2041(4)
C40 C 0.6823(6) 0.5653(6) 0.0771(4)
H35 H 0.7553 0.5899 0.0948
C41 C 0.6062(6) 0.5447(6) 0.1252(4)
C42 C 0.4994(6) 0.5077(6) 0.0981(4)
H36 H 0.4498 0.4945 0.1294
C43 C 0.4608(6) 0.4883(6) 0.0233(4)
C44 C 0.3504(6) 0.4506(6) -0.0058(4)
H37 H 0.2994 0.4365 0.0245
O1 O 0.5721(4) 0.5439(4) 0.2451(3)
O2 O 0.7448(4) 0.6007(5) 0.2278(3)
C39A C 0.3558(7) 0.4349(6) -0.2041(4)
C40A C 0.3177(6) 0.4347(6) -0.0771(4)
H35A H 0.2447 0.4101 -0.0948
C41A C 0.3938(6) 0.4553(6) -0.1252(4)
C42A C 0.5006(6) 0.4923(6) -0.0981(4)
H36A H 0.5502 0.5055 -0.1294
C43A C 0.5392(6) 0.5117(6) -0.0233(4)
C44A C 0.6496(6) 0.5494(6) 0.0058(4)
H37A H 0.7006 0.5635 -0.0245
O1A O 0.4279(4) 0.4561(4) -0.2451(3)
O2A O 0.2552(4) 0.3993(5) -0.2278(3)
C45 C 0.2308(6) 0.3759(6) 0.3501(4)
C46 C 0.2971(5) 0.4380(5) 0.4822(4)
H38 H 0.2261 0.4206 0.4875
C47 C 0.3211(5) 0.4227(5) 0.4133(4)
C48 C 0.4273(6) 0.4500(5) 0.4053(4)
H39 H 0.4432 0.4398 0.3605
C49 C 0.5129(5) 0.4937(5) 0.4653(3)
C50 C 0.6229(5) 0.5220(5) 0.4589(4)
H40 H 0.6407 0.5133 0.4145
O3 O 0.1395(4) 0.3652(4) 0.3576(3)
O4 O 0.2527(4) 0.3479(4) 0.2918(3)
C45A C 0.7692(6) 0.6241(6) 0.6499(4)
C46A C 0.7029(5) 0.5620(5) 0.5178(4)
H38A H 0.7739 0.5794 0.5125
C47A C 0.6789(5) 0.5773(5) 0.5867(4)
C48A C 0.5727(6) 0.5500(5) 0.5947(4)
H39A H 0.5568 0.5602 0.6395
C49A C 0.4871(5) 0.5063(5) 0.5347(3)
C50A C 0.3771(5) 0.4780(5) 0.5411(4)
H40A H 0.3593 0.4867 0.5855
O3A O 0.8605(4) 0.6348(4) 0.6424(3)
O4A O 0.7473(4) 0.6521(4) 0.7082(3)
C51 C 0.6461(6) 1.1226(6) 0.7027(4)
C52 C 0.3989(6) 0.9992(6) 0.5556(4)
H41 H 0.3252 0.9789 0.5507
C53 C 0.4636(6) 1.0423(6) 0.6208(4)
H42 H 0.4328 1.0515 0.6594
C54 C 0.5765(5) 1.0731(5) 0.6305(3)
C55 C 0.6200(6) 1.0577(5) 0.5731(4)
H43 H 0.6933 1.0759 0.5793
C56 C 0.5561(5) 1.0144(5) 0.5038(4)
O5 O 0.6090(4) 1.1523(5) 0.7508(3)
O6 O 0.7434(4) 1.1330(4) 0.7104(3)
C51A C 0.3539(6) 0.8774(6) 0.2973(4)
C52A C 0.6011(6) 1.0008(6) 0.4444(4)
H41A H 0.6748 1.0211 0.4493
C53A C 0.5364(6) 0.9577(6) 0.3792(4)
H42A H 0.5672 0.9485 0.3406
C54A C 0.4235(5) 0.9269(5) 0.3695(3)
C55A C 0.3800(6) 0.9423(5) 0.4269(4)
H43A H 0.3067 0.9241 0.4207
C56A C 0.4439(5) 0.9856(5) 0.4962(4)
O5A O 0.3910(4) 0.8477(5) 0.2492(3)
O6A O 0.2566(4) 0.8670(4) 0.2896(3)
C57 C 0.1890(6) 0.9183(6) 0.0237(5)
C58 C 0.3780(7) 0.9645(7) 0.0846(6)
H44 H 0.3466 0.9547 0.1257
C59 C 0.3070(6) 0.9490(6) 0.0207(5)
C60 C 0.3453(7) 0.9606(7) -0.0418(6)
H45 H 0.3024 0.9499 -0.0854
C61 C 0.4766(8) 0.9960(6) -0.0329(4)
C62 C 0.5064(10) 1.0063(9) -0.0948(6)
H46 H 0.4627 0.9970 -0.1378
O7 O 0.1261(4) 0.9073(4) -0.0323(3)
O8 O 0.1598(4) 0.9070(4) 0.0842(3)
C57A C 0.8110(6) 1.0817(6) -0.0237(5)
C58A C 0.6220(7) 1.0355(7) -0.0846(6)
H44A H 0.6534 1.0453 -0.1257
C59A C 0.6930(6) 1.0510(6) -0.0207(5)
C60A C 0.6547(7) 1.0394(7) 0.0418(6)
H45A H 0.6976 1.0501 0.0854
C61A C 0.5234(8) 1.0040(6) 0.0329(4)
C62A C 0.4936(10) 0.9937(9) 0.0948(6)
H46A H 0.5373 1.0030 0.1378
O7A O 0.8739(4) 1.0927(4) 0.0323(3)
O8A O 0.8402(4) 1.0930(4) -0.0842(3)
O9 O 0.1252(4) 0.7366(4) 0.1617(3)
O10 O 0.5846(4) 0.7099(4) 0.3309(3)
O11 O 0.9171(4) 0.0921(4) 0.1730(3)
O12 O 0.5700(4) 0.8365(4) 0.2230(3)
O13 O 0.2478(4) 0.0254(4) 0.2139(3)
O14 O 0.9746(4) 0.3001(5) 0.2421(3)
O15 O 0.0140(5) 0.4038(5) 0.4416(3)
O16 O 0.4108(5) 0.3379(5) 0.2271(3)
O17 O 0.0911(5) 0.8048(5) 0.3728(3)
O18 O 0.4726(4) 0.1863(5) 0.2332(3)
O19 O 0.1268(4) 0.1383(5) 0.2284(3)
O20 O 0.7635(5) 0.4820(6) 0.3330(3)
O21 O 0.9633(5) 0.5847(6) 0.4134(3)
O22 O 0.8423(5) 0.3673(6) 0.1657(4)
O23 O 0.9286(5) 0.5840(5) 0.1958(4)
O24 O 0.6947(6) 0.2446(7) 0.2547(4)
O25 O 0.7252(5) 1.0479(6) 0.2350(4)
loop_
_geom_bond_atom_site_label_1
_geom_bond_atom_site_label_2
_geom_bond_site_symmetry_1
_geom_bond_site_symmetry_2
N1 C1 1_555 1_555
N2 C1 1_555 1_555
N3 C4 1_555 1_555
N4 C8 1_555 1_555
N5 C9 1_555 1_555
N6 C19 1_555 1_555
N7 C20 1_555 1_555
N8 C23 1_555 1_555
N9 C27 1_555 1_555
N10 C28 1_555 1_555
C1 H1 1_555 1_555
C2 N1 1_555 1_555
H2 C2 1_555 1_555
C3 N2 1_555 1_555
H3 C3 1_555 1_555
C4 N2 1_555 1_555
C5 C4 1_555 1_555
H4 C5 1_555 1_555
C6 C5 1_555 1_555
H5 C6 1_555 1_555
C7 C6 1_555 1_555
H6 C7 1_555 1_555
C8 N3 1_555 1_555
C9 N4 1_555 1_555
H7 C9 1_555 1_555
C10 N4 1_555 1_555
H8 C10 1_555 1_555
C11 N5 1_555 1_555
H9 C11 1_555 1_555
C12 N5 1_555 1_555
H10 C12 1_555 1_555
H11 C12 1_555 1_555
C13 C12 1_555 1_555
C14 C13 1_555 1_555
H12 C14 1_555 1_555
C15 C14 1_555 1_555
H13 C15 1_555 1_555
C16 C15 1_555 1_555
H14 C16 1_555 1_555
C17 C16 1_555 1_555
H15 C17 1_555 1_555
C18 C13 1_555 1_555
C19 C18 1_555 1_555
H16 C19 1_555 1_555
H17 C19 1_555 1_555
C20 N6 1_555 1_555
H18 C20 1_555 1_555
C21 N6 1_555 1_555
H19 C21 1_555 1_555
C22 N7 1_555 1_555
H20 C22 1_555 1_555
C23 N7 1_555 1_555
C24 C23 1_555 1_555
H21 C24 1_555 1_555
C25 C24 1_555 1_555
H22 C25 1_555 1_555
C26 C25 1_555 1_555
H23 C26 1_555 1_555
C27 N8 1_555 1_555
C28 N9 1_555 1_555
H24 C28 1_555 1_555
C29 N9 1_555 1_555
H25 C29 1_555 1_555
C30 N10 1_555 1_555
H26 C30 1_555 1_555
C31 N10 1_555 1_555
H27 C31 1_555 1_555
H28 C31 1_555 1_555
C32 C31 1_555 1_555
C33 C32 1_555 1_555
H29 C33 1_555 1_555
C34 C33 1_555 1_555
H30 C34 1_555 1_555
C35 C34 1_555 1_555
H31 C35 1_555 1_555
C36 C35 1_555 1_555
H32 C36 1_555 1_555
C37 C32 1_555 1_555
C38 N1 1_555 1_555
H33 C38 1_555 1_555
H34 C38 1_555 1_555
C39 C41 1_555 1_555
C40 H35 1_555 1_555
C41 C40 1_555 1_555
C42 C41 1_555 1_555
H36 C42 1_555 1_555
C43 C42 1_555 1_555
C44 C43 1_555 1_555
H37 C44 1_555 1_555
O1 C39 1_555 1_555
O2 C39 1_555 1_555
C45 C47 1_555 1_555
C46 H38 1_555 1_555
C47 C46 1_555 1_555
C48 C47 1_555 1_555
H39 C48 1_555 1_555
C49 C48 1_555 1_555
C50 C49 1_555 1_555
H40 C50 1_555 1_555
O3 C45 1_555 1_555
O4 C45 1_555 1_555
C51 C54 1_555 1_555
C52 H41 1_555 1_555
C53 C52 1_555 1_555
H42 C53 1_555 1_555
C54 C53 1_555 1_555
C55 C54 1_555 1_555
H43 C55 1_555 1_555
C56 C55 1_555 1_555
O5 C51 1_555 1_555
O6 C51 1_555 1_555
C57 C59 1_555 1_555
C58 H44 1_555 1_555
C59 C58 1_555 1_555
C60 C59 1_555 1_555
H45 C60 1_555 1_555
C61 C60 1_555 1_555
C62 C61 1_555 1_555
H46 C62 1_555 1_555
O7 C57 1_555 1_555
O8 C57 1_555 1_555
C39A C41A 1_555 1_555
C40A C44 1_555 1_555
H35A C40A 1_555 1_555
C41A C40A 1_555 1_555
C42A C41A 1_555 1_555
H36A C42A 1_555 1_555
C43A C43 1_555 1_555
C44A C40 1_555 1_555
H37A C44A 1_555 1_555
O1A C39A 1_555 1_555
O2A C39A 1_555 1_555
C45A C47A 1_555 1_555
C46A C50 1_555 1_555
H38A C46A 1_555 1_555
C47A C46A 1_555 1_555
C48A C47A 1_555 1_555
H39A C48A 1_555 1_555
C49A C49 1_555 1_555
C50A C46 1_555 1_555
H40A C50A 1_555 1_555
O3A C45A 1_555 1_555
O4A C45A 1_555 1_555
C51A C54A 1_555 1_555
C52A C56 1_555 1_555
H41A C52A 1_555 1_555
C53A C52A 1_555 1_555
H42A C53A 1_555 1_555
C54A C53A 1_555 1_555
C55A C54A 1_555 1_555
H43A C55A 1_555 1_555
C56A C52 1_555 1_555
O5A C51A 1_555 1_555
O6A C51A 1_555 1_555
C57A C59A 1_555 1_555
C58A C62 1_555 1_555
H44A C58A 1_555 1_555
C59A C58A 1_555 1_555
C60A C59A 1_555 1_555
H45A C60A 1_555 1_555
C61A C61 1_555 1_555
C62A C58 1_555 1_555
H46A C62A 1_555 1_555
O7A C57A 1_555 1_555
O8A C57A 1_555 1_555
C2 C3 1_555 1_555
C7 C8 1_555 1_555
C10 C11 1_555 1_555
C17 C18 1_555 1_555
C21 C22 1_555 1_555
C26 C27 1_555 1_555
C29 C30 1_555 1_555
C36 C37 1_555 1_555
C37 C38 1_555 1_555
C56 C56A 1_555 1_555
C42A C43A 1_555 1_555
C43A C44A 1_555 1_555
C48A C49A 1_555 1_555
C49A C50A 1_555 1_555
C55A C56A 1_555 1_555
C60A C61A 1_555 1_555
C61A C62A 1_555 1_555

#END
