
#######################################################################
#
#                 Cambridge Crystallographic Data Centre
#                                CCDC 
#
#######################################################################
#
# If this CIF has been generated from an entry in the Cambridge 
# Structural Database, then it will include bibliographic, chemical, 
# crystal, experimental, refinement or atomic coordinate data resulting 
# from the CCDC's data processing and validation procedures.
#
#######################################################################

data_IFEMOX
_chemical_name_common            
'cyclo[2](2,6-bis(1H-Imidazol-1-yl)pyridine)[2](1,3-dimethylenebenzene) sesquikis(naphthalene-2,6-dicarboxylate) hydroxide nonadecahydrate'
_chemical_formula_moiety         
'C38 H34 N10 4+,1.5(C12 H6 O4 2-),H1 O1 1-,19(H2 O1)'
_chemical_name_systematic        
'1,7(2,6)-Dipyridina-2,6,8,12(1,3)-tetraimidazola-4,10(1,3)-dibenzenacyclododecaphane-2^3^,6^1^,8^3^,12^1^-tetra-ium sesquikis(naphthalene-2,6-dicarboxylate) hydroxide nonadecahydrate'
_symmetry_cell_setting           monoclinic
_symmetry_space_group_name_H-M   'P 21/c'
_symmetry_Int_Tables_number      14
_space_group_name_Hall           '-P 2ybc'
loop_
_symmetry_equiv_pos_site_id
_symmetry_equiv_pos_as_xyz
1 x,y,z
2 -x,1/2+y,1/2-z
3 -x,-y,-z
4 x,1/2-y,1/2+z
_cell_length_a                   16.622(3)
_cell_length_b                   18.481(4)
_cell_length_c                   23.087(5)
_cell_angle_alpha                90
_cell_angle_beta                 107.80(3)
_cell_angle_gamma                90
_cell_volume                     6752.62
_exptl_crystal_colour            colorless
_exptl_crystal_description       block
_cell_formula_units_Z            4
loop_
_atom_site_label
_atom_site_type_symbol
_atom_site_fract_x
_atom_site_fract_y
_atom_site_fract_z
O1 O 0.2266(2) 0.2164(2) 0.02609(15)
O2 O 0.3276(2) 0.30168(19) 0.04957(13)
O3 O 0.3164(2) 0.1975(2) 0.43893(14)
O4 O 0.4196(2) 0.28025(19) 0.45932(15)
C1 C 0.2754(4) 0.2537(3) 0.0620(2)
C2 C 0.2856(4) 0.2526(4) 0.1305(2)
C3 C 0.3413(5) 0.2905(4) 0.1701(3)
H1 H 0.3768 0.3231 0.1593
C4 C 0.3443(3) 0.2771(3) 0.2390(3)
C5 C 0.4030(4) 0.3147(4) 0.2785(4)
H2 H 0.4391 0.3471 0.2681
C6 C 0.4044(4) 0.3005(4) 0.3373(2)
H3 H 0.4438 0.3257 0.3680
C7 C 0.3510(4) 0.2505(3) 0.3555(2)
C8 C 0.2914(4) 0.2154(3) 0.3156(2)
H4 H 0.2540 0.1847 0.3263
C9 C 0.2879(4) 0.2299(3) 0.2457(2)
C10 C 0.2290(4) 0.1908(4) 0.2088(4)
H5 H 0.1929 0.1595 0.2205
C11 C 0.2284(5) 0.2038(4) 0.1458(2)
H6 H 0.1892 0.1792 0.1145
C12 C 0.3642(4) 0.2427(3) 0.4241(2)
O5 O 0.2064(3) 0.0871(2) 0.43850(15)
O6 O 0.6059(2) 0.1948(2) 0.34017(15)
O7 O 0.2897(8) 0.6558(6) 0.3647(5)
O8 O 0.3085(4) 0.6924(4) 0.4635(3)
C13 C 0.3245(9) 0.6505(7) 0.4168(10)
C14 C 0.3951(8) 0.5897(6) 0.4484(7)
C15 C 0.4291(8) 0.5756(7) 0.5085(7)
H7 H 0.4123 0.6002 0.5380
C16 C 0.4950(6) 0.5178(5) 0.5245(6)
C17 C 0.5260(7) 0.5153(6) 0.5889(6)
H8 H 0.5127 0.5450 0.6172
C18 C 0.5891(6) 0.4488(5) 0.6002(6)
H9 H 0.6167 0.4346 0.6400
O7B O 0.7103(8) 0.3442(6) 0.6353(5)
O8B O 0.6915(4) 0.3076(4) 0.5365(3)
C13B C 0.6755(9) 0.3495(7) 0.5832(10)
C14B C 0.6049(8) 0.4103(6) 0.5516(7)
C15B C 0.5709(8) 0.4244(7) 0.4915(7)
H7B H 0.5877 0.3998 0.4620
C16B C 0.5050(6) 0.4822(5) 0.4755(6)
C17B C 0.4740(7) 0.4847(6) 0.4111(6)
H8B H 0.4873 0.4550 0.3828
C18B C 0.4109(6) 0.5512(5) 0.3998(6)
H9B H 0.3833 0.5654 0.3600
N1 N 0.0193(4) 0.2660(3) -0.0890(2)
N2 N 0.0356(4) 0.2900(3) 0.0064(3)
N3 N 0.1319(4) 0.3656(3) 0.0686(2)
N4 N 0.2322(4) 0.4431(3) 0.1238(2)
N5 N 0.3215(4) 0.5064(4) 0.0917(3)
N6 N 0.5705(3) 0.2990(3) 0.11356(19)
N7 N 0.5168(3) 0.2134(2) 0.15313(18)
N8 N 0.4150(3) 0.1328(2) 0.10367(16)
N9 N 0.3135(3) 0.0579(2) 0.04362(18)
N10 N 0.2643(3) 0.0546(2) -0.05457(18)
C19 C 0.0653(4) 0.3036(3) -0.0417(3)
H10 H 0.1101 0.3340 -0.0412
C20 C -0.0408(5) 0.2310(5) -0.0727(5)
H11 H -0.0824 0.2021 -0.0984
C21 C -0.0326(6) 0.2434(6) -0.0149(5)
H12 H -0.0659 0.2245 0.0073
C22 C 0.0704(5) 0.3219(4) 0.0634(3)
C23 C 0.0400(5) 0.3024(5) 0.1113(5)
H13 H -0.0037 0.2691 0.1058
C24 C 0.0768(7) 0.3342(5) 0.1666(4)
H14 H 0.0571 0.3238 0.1993
C25 C 0.1407(6) 0.3798(5) 0.1736(3)
H15 H 0.1675 0.4002 0.2114
C26 C 0.1678(5) 0.3972(5) 0.1219(3)
C27 C 0.2592(5) 0.4619(4) 0.0753(3)
H16 H 0.2356 0.4448 0.0359
C28 C 0.2840(7) 0.4816(6) 0.1745(4)
H17 H 0.2820 0.4801 0.2143
C29 C 0.3340(7) 0.5187(5) 0.1542(4)
H18 H 0.3743 0.5504 0.1779
C30 C 0.3651(5) 0.5368(3) 0.0495(3)
H19 H 0.3604 0.5891 0.0485
H20 H 0.3386 0.5187 0.0086
C31 C 0.4560(5) 0.5155(4) 0.0703(2)
C32 C 0.5213(5) 0.5655(3) 0.0997(2)
H21 H 0.5078 0.6130 0.1064
C33 C 0.6014(5) 0.5438(4) 0.1175(3)
H22 H 0.6434 0.5764 0.1373
C34 C 0.6232(4) 0.4764(4) 0.1076(2)
H23 H 0.6799 0.4633 0.1204
C35 C 0.5624(4) 0.4254(3) 0.0783(2)
C36 C 0.4795(4) 0.4462(4) 0.0594(2)
H24 H 0.4382 0.4133 0.0390
C37 C 0.5874(4) 0.3499(4) 0.0688(3)
H25 H 0.5562 0.3343 0.0280
H26 H 0.6471 0.3487 0.0725
C38 C 0.5180(3) 0.2460(3) 0.1012(2)
H27 H 0.4857 0.2323 0.0623
C39 C 0.6069(4) 0.3025(4) 0.1757(3)
H28 H 0.6472 0.3359 0.1965
C40 C 0.5746(4) 0.2500(4) 0.2004(3)
H29 H 0.5880 0.2396 0.2416
C41 C 0.4639(3) 0.1547(3) 0.1581(2)
C42 C 0.4633(4) 0.1277(3) 0.2121(2)
H30 H 0.4992 0.1452 0.2486
C43 C 0.4067(4) 0.0727(3) 0.2103(2)
H31 H 0.4033 0.0520 0.2462
C44 C 0.3550(4) 0.0485(3) 0.1548(2)
H32 H 0.3159 0.0119 0.1525
C45 C 0.3631(4) 0.0799(3) 0.1035(2)
C46 C 0.3196(3) 0.0881(3) -0.0067(2)
H33 H 0.3557 0.1257 -0.0089
C47 C 0.2538(4) 0.0052(4) 0.0297(3)
H34 H 0.2375 -0.0246 0.0567
C48 C 0.2224(4) 0.0053(4) -0.0329(3)
H35 H 0.1792 -0.0241 -0.0561
C49 C 0.2508(3) 0.0719(3) -0.1193(2)
H36 H 0.2611 0.0290 -0.1403
H37 H 0.2907 0.1088 -0.1225
C50 C 0.1625(3) 0.0981(3) -0.1491(2)
C51 C 0.1040(4) 0.0552(3) -0.1877(2)
H38 H 0.1193 0.0089 -0.1959
C52 C 0.0239(4) 0.0780(4) -0.2147(3)
H39 H -0.0145 0.0473 -0.2412
C53 C -0.0013(4) 0.1466(4) -0.2031(3)
H40 H -0.0564 0.1623 -0.2214
C54 C 0.0573(4) 0.1908(3) -0.1640(2)
C55 C 0.1405(3) 0.1653(3) -0.1378(2)
H41 H 0.1808 0.1955 -0.1123
C56 C 0.0335(4) 0.2660(4) -0.1487(3)
H42 H 0.0784 0.2997 -0.1483
H43 H -0.0175 0.2817 -0.1795
loop_
_geom_bond_atom_site_label_1
_geom_bond_atom_site_label_2
_geom_bond_site_symmetry_1
_geom_bond_site_symmetry_2
O1 C1 1_555 1_555
O2 C1 1_555 1_555
O3 C12 1_555 1_555
O4 C12 1_555 1_555
C1 C2 1_555 1_555
C2 C3 1_555 1_555
C3 H1 1_555 1_555
C4 C3 1_555 1_555
C5 C4 1_555 1_555
H2 C5 1_555 1_555
C6 C5 1_555 1_555
H3 C6 1_555 1_555
C7 C6 1_555 1_555
C8 C7 1_555 1_555
H4 C8 1_555 1_555
C9 C4 1_555 1_555
C10 C9 1_555 1_555
H5 C10 1_555 1_555
C11 C2 1_555 1_555
H6 C11 1_555 1_555
C12 C7 1_555 1_555
O7 C13 1_555 1_555
O8 C13 1_555 1_555
C13 C14 1_555 1_555
C14 C15 1_555 1_555
C15 H7 1_555 1_555
C16 C15 1_555 1_555
C17 C16 1_555 1_555
H8 C17 1_555 1_555
C18 C17 1_555 1_555
H9 C18 1_555 1_555
N1 C19 1_555 1_555
N2 C19 1_555 1_555
N3 C22 1_555 1_555
N4 C26 1_555 1_555
N5 C27 1_555 1_555
N6 C37 1_555 1_555
N7 C38 1_555 1_555
N8 C41 1_555 1_555
N9 C45 1_555 1_555
N10 C46 1_555 1_555
C19 H10 1_555 1_555
C20 N1 1_555 1_555
H11 C20 1_555 1_555
C21 N2 1_555 1_555
H12 C21 1_555 1_555
C22 N2 1_555 1_555
C23 C22 1_555 1_555
H13 C23 1_555 1_555
C24 C23 1_555 1_555
H14 C24 1_555 1_555
C25 C24 1_555 1_555
H15 C25 1_555 1_555
C26 N3 1_555 1_555
C27 N4 1_555 1_555
H16 C27 1_555 1_555
C28 N4 1_555 1_555
H17 C28 1_555 1_555
C29 N5 1_555 1_555
H18 C29 1_555 1_555
C30 N5 1_555 1_555
H19 C30 1_555 1_555
H20 C30 1_555 1_555
C31 C30 1_555 1_555
C32 C31 1_555 1_555
H21 C32 1_555 1_555
C33 C32 1_555 1_555
H22 C33 1_555 1_555
C34 C33 1_555 1_555
H23 C34 1_555 1_555
C35 C34 1_555 1_555
C36 C31 1_555 1_555
H24 C36 1_555 1_555
C37 C35 1_555 1_555
H25 C37 1_555 1_555
H26 C37 1_555 1_555
C38 N6 1_555 1_555
H27 C38 1_555 1_555
C39 N6 1_555 1_555
H28 C39 1_555 1_555
C40 N7 1_555 1_555
H29 C40 1_555 1_555
C41 N7 1_555 1_555
C42 C41 1_555 1_555
H30 C42 1_555 1_555
C43 C42 1_555 1_555
H31 C43 1_555 1_555
C44 C43 1_555 1_555
H32 C44 1_555 1_555
C45 N8 1_555 1_555
C46 N9 1_555 1_555
H33 C46 1_555 1_555
C47 N9 1_555 1_555
H34 C47 1_555 1_555
C48 N10 1_555 1_555
H35 C48 1_555 1_555
C49 N10 1_555 1_555
H36 C49 1_555 1_555
H37 C49 1_555 1_555
C50 C49 1_555 1_555
C51 C50 1_555 1_555
H38 C51 1_555 1_555
C52 C51 1_555 1_555
H39 C52 1_555 1_555
C53 C52 1_555 1_555
H40 C53 1_555 1_555
C54 C53 1_555 1_555
C55 C50 1_555 1_555
H41 C55 1_555 1_555
C56 N1 1_555 1_555
H42 C56 1_555 1_555
H43 C56 1_555 1_555
O7B C13B 1_555 1_555
O8B C13B 1_555 1_555
C13B C14B 1_555 1_555
C14B C18 1_555 1_555
C15B C14B 1_555 1_555
H7B C15B 1_555 1_555
C16B C16 1_555 1_555
C17B C16B 1_555 1_555
H8B C17B 1_555 1_555
C18B C14 1_555 1_555
H9B C18B 1_555 1_555
C8 C9 1_555 1_555
C10 C11 1_555 1_555
C20 C21 1_555 1_555
C25 C26 1_555 1_555
C28 C29 1_555 1_555
C35 C36 1_555 1_555
C39 C40 1_555 1_555
C44 C45 1_555 1_555
C47 C48 1_555 1_555
C54 C55 1_555 1_555
C54 C56 1_555 1_555
C15B C16B 1_555 1_555
C17B C18B 1_555 1_555

#END
