
#######################################################################
#
#                 Cambridge Crystallographic Data Centre
#                                CCDC 
#
#######################################################################
#
# If this CIF has been generated from an entry in the Cambridge 
# Structural Database, then it will include bibliographic, chemical, 
# crystal, experimental, refinement or atomic coordinate data resulting 
# from the CCDC's data processing and validation procedures.
#
#######################################################################

data_IFEMUD
_chemical_name_common            
'cyclo[2](2,6-bis(1H-Imidazol-1-yl)pyridine)[2](2,6-dimethylenepyridinyl) tetrakis(hexafluorophosphate)'
_chemical_formula_moiety         'C36 H32 N12 4+,4(F6 P1 1-)'
_chemical_name_systematic        
'1,4,7,10(2,6)-Tetrapyridina-2,6,8,12(1,3)-tetraimidazolacyclododecaphane-2^3^,6^1^,8^3^,12^1^-tetra-ium tetrakis(hexafluorophosphate)'
_symmetry_cell_setting           triclinic
_symmetry_space_group_name_H-M   'P -1'
_symmetry_Int_Tables_number      2
_space_group_name_Hall           '-P 1'
loop_
_symmetry_equiv_pos_site_id
_symmetry_equiv_pos_as_xyz
1 x,y,z
2 -x,-y,-z
_cell_length_a                   8.563(5)
_cell_length_b                   10.026(5)
_cell_length_c                   15.094(5)
_cell_angle_alpha                96.889(5)
_cell_angle_beta                 101.014(5)
_cell_angle_gamma                112.004(5)
_cell_volume                     1152.92
_exptl_crystal_colour            colorless
_exptl_crystal_description       block
_cell_formula_units_Z            1
loop_
_atom_site_label
_atom_site_type_symbol
_atom_site_fract_x
_atom_site_fract_y
_atom_site_fract_z
P1 P 0.2280(3) -0.0097(2) 0.68223(14)
F1 F 0.4008(5) 0.0477(5) 0.6467(3)
F2 F 0.3343(9) 0.0880(8) 0.7773(4)
F3 F 0.0583(6) -0.0678(6) 0.7171(4)
F4 F 0.1221(9) -0.0995(7) 0.5838(4)
F5 F 0.1944(7) 0.1231(6) 0.6518(5)
F6 F 0.2581(9) -0.1427(7) 0.7070(6)
P2 P 0.2096(3) 0.5336(2) 0.84616(14)
F7 F 0.3762(6) 0.6140(5) 0.8099(3)
F8 F 0.3299(7) 0.5776(8) 0.9464(4)
F9 F 0.0414(6) 0.4540(5) 0.8818(4)
F10 F 0.0900(7) 0.4949(7) 0.7463(3)
F11 F 0.1865(8) 0.6817(5) 0.8633(4)
F12 F 0.2316(8) 0.3871(6) 0.8329(6)
N1 N 0.7029(6) 0.5034(5) 0.6957(3)
N2 N 0.7625(7) 0.5891(5) 0.8409(3)
N3 N 0.8045(7) 0.8856(6) 0.8706(3)
N4 N 0.7140(7) 0.9832(5) 0.7068(3)
N5 N 0.5489(7) 0.7996(5) 0.5939(3)
N6 N 0.4133(6) 0.6401(6) 0.4528(3)
C1 C 0.8059(8) 0.6168(7) 0.7641(4)
H1 H 0.8953 0.7028 0.7585
C2 C 0.5869(9) 0.3990(7) 0.7309(5)
H2 H 0.4979 0.3083 0.6977
C3 C 0.6274(9) 0.4536(7) 0.8221(4)
H3 H 0.5727 0.4071 0.8650
C4 C 0.8434(9) 0.6859(7) 0.9323(4)
H4 H 0.9703 0.7214 0.9441
H5 H 0.8072 0.6296 0.9790
C5 C 0.7952(8) 0.8165(7) 0.9415(4)
C6 C 0.7529(9) 0.8631(8) 1.0192(4)
H6 H 0.7493 0.8131 1.0682
C7 C 0.7158(9) 0.9860(8) 1.0229(5)
H7 H 0.6860 1.0211 1.0750
C8 C 0.7224(9) 1.0570(8) 0.9506(5)
H8 H 0.6964 1.1403 0.9521
C9 C 0.7673(8) 1.0042(7) 0.8765(4)
C10 C 0.7882(10) 1.0833(7) 0.7975(4)
H9 H 0.7314 1.1518 0.8006
H10 H 0.9125 1.1413 0.8045
C11 C 0.5846(9) 0.8526(7) 0.6842(4)
H11 H 0.5260 0.8038 0.7253
C12 C 0.7644(9) 1.0171(8) 0.6276(5)
H12 H 0.8548 1.1037 0.6236
C13 C 0.6612(9) 0.9044(8) 0.5582(5)
H13 H 0.6644 0.8976 0.4960
C14 C 0.4166(8) 0.6629(7) 0.5418(4)
C15 C 0.3065(9) 0.5643(8) 0.5812(5)
H14 H 0.3139 0.5844 0.6446
C16 C 0.1844(10) 0.4344(9) 0.5240(5)
H15 H 0.1069 0.3640 0.5487
C17 C 0.1749(10) 0.4066(8) 0.4306(5)
H16 H 0.0918 0.3193 0.3903
C18 C 0.2951(8) 0.5151(7) 0.4003(4)
N1A N 0.2971(6) 0.4966(5) 0.3043(3)
N2A N 0.2375(7) 0.4109(5) 0.1591(3)
N3A N 0.1955(7) 0.1144(6) 0.1294(3)
N4A N 0.2860(7) 0.0168(5) 0.2932(3)
N5A N 0.4511(7) 0.2004(5) 0.4061(3)
N6A N 0.5867(6) 0.3599(6) 0.5472(3)
C1A C 0.1941(8) 0.3832(7) 0.2359(4)
H1A H 0.1047 0.2972 0.2415
C2A C 0.4131(9) 0.6010(7) 0.2691(5)
H2A H 0.5021 0.6917 0.3023
C3A C 0.3726(9) 0.5464(7) 0.1779(4)
H3A H 0.4273 0.5929 0.1350
C4A C 0.1566(9) 0.3141(7) 0.0677(4)
H4A H 0.0297 0.2786 0.0559
H5A H 0.1928 0.3704 0.0210
C5A C 0.2048(8) 0.1835(7) 0.0585(4)
C6A C 0.2471(9) 0.1369(8) -0.0192(4)
H6A H 0.2507 0.1869 -0.0682
C7A C 0.2842(9) 0.0140(8) -0.0229(5)
H7A H 0.3140 -0.0211 -0.0750
C8A C 0.2776(9) -0.0570(8) 0.0494(5)
H8A H 0.3036 -0.1403 0.0479
C9A C 0.2327(8) -0.0042(7) 0.1235(4)
C10A C 0.2118(10) -0.0833(7) 0.2025(4)
H9A H 0.2686 -0.1518 0.1994
H10A H 0.0875 -0.1413 0.1955
C11A C 0.4154(9) 0.1474(7) 0.3158(4)
H11A H 0.4740 0.1962 0.2747
C12A C 0.2356(9) -0.0171(8) 0.3724(5)
H12A H 0.1452 -0.1037 0.3764
C13A C 0.3388(9) 0.0956(8) 0.4418(5)
H13A H 0.3356 0.1024 0.5040
C14A C 0.5834(8) 0.3371(7) 0.4582(4)
C15A C 0.6935(9) 0.4357(8) 0.4188(5)
H14A H 0.6861 0.4156 0.3554
C16A C 0.8156(10) 0.5656(9) 0.4760(5)
H15A H 0.8931 0.6360 0.4513
C17A C 0.8251(10) 0.5934(8) 0.5694(5)
H16A H 0.9082 0.6807 0.6097
C18A C 0.7049(8) 0.4849(7) 0.5997(4)
loop_
_geom_bond_atom_site_label_1
_geom_bond_atom_site_label_2
_geom_bond_site_symmetry_1
_geom_bond_site_symmetry_2
P1 F1 1_555 1_555
F2 P1 1_555 1_555
F3 P1 1_555 1_555
F4 P1 1_555 1_555
F5 P1 1_555 1_555
F6 P1 1_555 1_555
P2 F7 1_555 1_555
F8 P2 1_555 1_555
F9 P2 1_555 1_555
F10 P2 1_555 1_555
F11 P2 1_555 1_555
F12 P2 1_555 1_555
N1 C1 1_555 1_555
N2 C1 1_555 1_555
N3 C5 1_555 1_555
N4 C10 1_555 1_555
N5 C11 1_555 1_555
N6 C14 1_555 1_555
C1 H1 1_555 1_555
C2 N1 1_555 1_555
H2 C2 1_555 1_555
C3 N2 1_555 1_555
H3 C3 1_555 1_555
C4 N2 1_555 1_555
H4 C4 1_555 1_555
H5 C4 1_555 1_555
C5 C4 1_555 1_555
C6 C5 1_555 1_555
H6 C6 1_555 1_555
C7 C6 1_555 1_555
H7 C7 1_555 1_555
C8 C7 1_555 1_555
H8 C8 1_555 1_555
C9 N3 1_555 1_555
C10 C9 1_555 1_555
H9 C10 1_555 1_555
H10 C10 1_555 1_555
C11 N4 1_555 1_555
H11 C11 1_555 1_555
C12 N4 1_555 1_555
H12 C12 1_555 1_555
C13 N5 1_555 1_555
H13 C13 1_555 1_555
C14 N5 1_555 1_555
C15 C14 1_555 1_555
H14 C15 1_555 1_555
C16 C15 1_555 1_555
H15 C16 1_555 1_555
C17 C16 1_555 1_555
H16 C17 1_555 1_555
C18 N6 1_555 1_555
N1A C18 1_555 1_555
N2A C1A 1_555 1_555
N3A C5A 1_555 1_555
N4A C10A 1_555 1_555
N5A C11A 1_555 1_555
N6A C14A 1_555 1_555
C1A N1A 1_555 1_555
H1A C1A 1_555 1_555
C2A N1A 1_555 1_555
H2A C2A 1_555 1_555
C3A N2A 1_555 1_555
H3A C3A 1_555 1_555
C4A N2A 1_555 1_555
H4A C4A 1_555 1_555
H5A C4A 1_555 1_555
C5A C4A 1_555 1_555
C6A C5A 1_555 1_555
H6A C6A 1_555 1_555
C7A C6A 1_555 1_555
H7A C7A 1_555 1_555
C8A C7A 1_555 1_555
H8A C8A 1_555 1_555
C9A N3A 1_555 1_555
C10A C9A 1_555 1_555
H9A C10A 1_555 1_555
H10A C10A 1_555 1_555
C11A N4A 1_555 1_555
H11A C11A 1_555 1_555
C12A N4A 1_555 1_555
H12A C12A 1_555 1_555
C13A N5A 1_555 1_555
H13A C13A 1_555 1_555
C14A N5A 1_555 1_555
C15A C14A 1_555 1_555
H14A C15A 1_555 1_555
C16A C15A 1_555 1_555
H15A C16A 1_555 1_555
C17A C16A 1_555 1_555
H16A C17A 1_555 1_555
C18A N1 1_555 1_555
C2 C3 1_555 1_555
C8 C9 1_555 1_555
C12 C13 1_555 1_555
C17 C18 1_555 1_555
N6A C18A 1_555 1_555
C2A C3A 1_555 1_555
C8A C9A 1_555 1_555
C12A C13A 1_555 1_555
C17A C18A 1_555 1_555

#END
