
#######################################################################
#
#                 Cambridge Crystallographic Data Centre
#                                CCDC 
#
#######################################################################
#
# If this CIF has been generated from an entry in the Cambridge 
# Structural Database, then it will include bibliographic, chemical, 
# crystal, experimental, refinement or atomic coordinate data resulting 
# from the CCDC's data processing and validation procedures.
#
#######################################################################

data_IFENUE
_chemical_name_common            
'cyclo[2](2,6-bis(1H-Imidazol-1-yl)pyridine)[2](1,2-dimethylenebenzene) bis(hexafluorophosphate) bis(hydrogen phosphate) hydrate'
_chemical_formula_moiety         
'C38 H34 N10 4+,2(F6 P1 1-),2(H2 O4 P1 1-),9.5(H2 O1)'
_chemical_name_systematic        
'1,7(2,6)-Dipyridina-2,6,8,12(1,3)-tetraimidazola-4,10(1,2)-dibenzenacyclododecaphane-2^3^,6^1^,8^3^,12^1^-tetra-ium bis(hexafluorophosphate) bis(hydrogen phosphate) hydrate'
_symmetry_cell_setting           orthorhombic
_symmetry_space_group_name_H-M   'P 21 21 21'
_symmetry_Int_Tables_number      19
_space_group_name_Hall           'P 2ac 2ab'
loop_
_symmetry_equiv_pos_site_id
_symmetry_equiv_pos_as_xyz
1 x,y,z
2 1/2-x,-y,1/2+z
3 -x,1/2+y,1/2-z
4 1/2+x,1/2-y,-z
_cell_length_a                   12.125(2)
_cell_length_b                   16.355(3)
_cell_length_c                   27.163(5)
_cell_angle_alpha                90
_cell_angle_beta                 90
_cell_angle_gamma                90
_cell_volume                     5386.54
_exptl_crystal_colour            colorless
_exptl_crystal_description       block
_cell_formula_units_Z            4
loop_
_atom_site_label
_atom_site_type_symbol
_atom_site_fract_x
_atom_site_fract_y
_atom_site_fract_z
P1 P 0.41074(18) 0.76979(13) 0.84735(8)
F1 F 0.3678(6) 0.7078(4) 0.8021(2)
F2 F 0.3438(5) 0.7091(3) 0.8869(2)
F3 F 0.5226(5) 0.7101(4) 0.8528(2)
F4 F 0.4782(5) 0.8276(4) 0.8071(2)
F5 F 0.4508(6) 0.8291(4) 0.8935(2)
F6 F 0.2978(4) 0.8260(3) 0.8391(2)
P2 P 0.3477(3) 0.52912(17) 0.48285(12)
F7 F 0.4453(16) 0.5703(13) 0.5204(9)
F8 F 0.3092(10) 0.4648(7) 0.5305(4)
F9 F 0.2550(14) 0.4823(11) 0.4495(6)
F10 F 0.3863(17) 0.5836(11) 0.4343(6)
F11 F 0.4435(9) 0.4608(7) 0.4712(4)
F12 F 0.2614(10) 0.5984(6) 0.4993(4)
P3 P 0.2032(2) 0.48776(14) 0.73180(9)
O1 O 0.2316(13) 0.4768(8) 0.7870(4)
H1 H 0.2915 0.4979 0.7927
O2 O 0.2940(11) 0.4439(9) 0.7088(4)
O3 O 0.1849(11) 0.5704(6) 0.7206(4)
H2 H 0.1708 0.5750 0.6912
O4 O 0.0935(12) 0.4469(9) 0.7276(5)
P4 P 0.0770(3) 0.6471(2) 0.59900(12)
O5 O -0.0416(11) 0.6282(10) 0.5851(7)
H3 H -0.0490 0.6323 0.5552
O6 O 0.0735(16) 0.6352(10) 0.6536(5)
H4 H 0.1345 0.6449 0.6653
O7 O 0.1059(10) 0.7324(7) 0.5855(5)
O8 O 0.1506(11) 0.5793(6) 0.5808(5)
O9 O -0.0148(8) 0.8315(6) 0.7301(3)
O10 O 0.2413(9) 0.4390(5) 0.3572(3)
O11 O 0.3516(7) 0.4164(6) 0.6207(3)
O12 O 0.1801(9) 0.8354(7) 0.5163(4)
O13 O 0.1505(6) 0.7291(4) 0.7603(2)
O14 O 0.6938(8) 0.2668(7) 1.0584(3)
O15 O 0.4847(10) 0.6514(6) 0.3680(3)
O16 O 0.6092(16) 0.5114(13) 1.1672(8)
O17 O 0.7247(14) 0.5460(10) 1.0965(5)
O18 O 0.619(2) 0.5557(14) 0.5532(9)
C1 C 0.7018(7) 0.7336(5) 0.7594(3)
H5 H 0.6638 0.7490 0.7876
C2 C 0.7506(8) 0.7241(7) 0.6823(3)
H6 H 0.7512 0.7314 0.6484
C3 C 0.8206(9) 0.6762(8) 0.7093(4)
H7 H 0.8791 0.6456 0.6972
C4 C 0.8344(6) 0.6397(5) 0.7977(3)
C5 C 0.9124(7) 0.5784(6) 0.7915(3)
H8 H 0.9369 0.5637 0.7603
C6 C 0.9527(8) 0.5399(6) 0.8331(4)
H9 H 1.0046 0.4984 0.8298
C7 C 0.9161(8) 0.5626(5) 0.8806(4)
H10 H 0.9409 0.5374 0.9092
C8 C 0.8406(7) 0.6252(5) 0.8807(3)
C9 C 0.7130(7) 0.7065(5) 0.9307(3)
H11 H 0.6719 0.7277 0.9048
C10 C 0.8374(8) 0.6380(6) 0.9739(3)
H12 H 0.8971 0.6049 0.9819
C11 C 0.7724(8) 0.6788(6) 1.0056(4)
H13 H 0.7776 0.6777 1.0398
C12 C 0.6055(9) 0.7723(5) 0.9983(4)
H14 H 0.5525 0.7817 0.9722
H15 H 0.6340 0.8250 1.0086
C13 C 0.5485(7) 0.7321(5) 1.0410(3)
C14 C 0.5728(7) 0.7570(6) 1.0896(3)
H16 H 0.6267 0.7966 1.0945
C15 C 0.5224(10) 0.7264(7) 1.1280(3)
H17 H 0.5404 0.7445 1.1595
C16 C 0.4434(11) 0.6678(8) 1.1219(4)
H18 H 0.4066 0.6472 1.1493
C17 C 0.4174(9) 0.6386(6) 1.0754(4)
H19 H 0.3650 0.5975 1.0717
C18 C 0.4692(6) 0.6707(5) 1.0350(3)
C19 C 0.4335(9) 0.6398(6) 0.9849(4)
H20 H 0.3608 0.6155 0.9874
H21 H 0.4290 0.6854 0.9621
C20 C 0.5264(8) 0.5614(5) 0.9175(3)
H22 H 0.4911 0.5878 0.8916
C21 C 0.5818(9) 0.5258(6) 0.9916(3)
H23 H 0.5903 0.5252 1.0256
C22 C 0.6330(8) 0.4774(5) 0.9598(3)
H24 H 0.6823 0.4358 0.9676
C23 C 0.6359(7) 0.4680(5) 0.8670(3)
C24 C 0.7074(7) 0.4006(5) 0.8650(3)
H25 H 0.7343 0.3759 0.8934
C25 C 0.7358(8) 0.3727(5) 0.8190(4)
H26 H 0.7837 0.3286 0.8162
C26 C 0.6951(8) 0.4085(5) 0.7776(3)
H27 H 0.7134 0.3895 0.7464
C27 C 0.6235(7) 0.4760(5) 0.7843(3)
C28 C 0.5165(7) 0.5874(5) 0.7461(3)
H28 H 0.4895 0.6102 0.7751
C29 C 0.6002(10) 0.5060(6) 0.6934(4)
H29 H 0.6412 0.4631 0.6804
C30 C 0.5493(10) 0.5641(6) 0.6683(4)
H30 H 0.5484 0.5698 0.6342
C31 C 0.4239(8) 0.6850(5) 0.6891(4)
H31 H 0.4162 0.7202 0.7176
H32 H 0.3513 0.6640 0.6810
C32 C 0.4666(6) 0.7356(5) 0.6459(3)
C33 C 0.4310(9) 0.7160(6) 0.5996(4)
H33 H 0.3824 0.6727 0.5948
C34 C 0.4685(12) 0.7616(8) 0.5598(4)
H34 H 0.4413 0.7500 0.5285
C35 C 0.5399(12) 0.8197(8) 0.5649(4)
H35 H 0.5653 0.8473 0.5372
C36 C 0.5789(9) 0.8412(6) 0.6102(4)
H36 H 0.6284 0.8843 0.6133
C37 C 0.5436(6) 0.7978(4) 0.6527(3)
C38 C 0.5915(7) 0.8195(5) 0.7010(3)
H37 H 0.5340 0.8198 0.7258
H38 H 0.6231 0.8739 0.6994
N1 N 0.6797(5) 0.7590(4) 0.7153(2)
N2 N 0.7881(5) 0.6816(4) 0.7583(2)
N3 N 0.7964(5) 0.6626(4) 0.8421(2)
N4 N 0.7988(5) 0.6548(4) 0.9272(2)
N5 N 0.6980(6) 0.7216(4) 0.9789(3)
N6 N 0.5136(7) 0.5772(4) 0.9652(3)
N7 N 0.6006(6) 0.4996(4) 0.9136(3)
N8 N 0.5956(6) 0.5057(4) 0.8280(3)
N9 N 0.5806(6) 0.5216(4) 0.7435(3)
N10 N 0.4972(6) 0.6153(4) 0.7020(3)
F13? F 0.4489(14) 0.6017(11) 0.4822(7)
F14? F 0.3709(15) 0.5197(11) 0.5447(4)
F15? F 0.2556(15) 0.4589(11) 0.4829(9)
F16? F 0.3322(11) 0.5498(9) 0.4223(4)
H39? H 0.2874 0.4460 0.6787
H40? H 0.0719 0.4494 0.6991
O19? O 0.633(3) 0.488(3) 0.5681(13)
H41? H 0.2147 0.5892 0.5884
H42? H 0.1697 0.7418 0.5936
loop_
_geom_bond_atom_site_label_1
_geom_bond_atom_site_label_2
_geom_bond_site_symmetry_1
_geom_bond_site_symmetry_2
P1 F1 1_555 1_555
F2 P1 1_555 1_555
F3 P1 1_555 1_555
F4 P1 1_555 1_555
F5 P1 1_555 1_555
F6 P1 1_555 1_555
P2 F7 1_555 1_555
F8 P2 1_555 1_555
F9 P2 1_555 1_555
F10 P2 1_555 1_555
F11 P2 1_555 1_555
F12 P2 1_555 1_555
P3 O1 1_555 1_555
O1 H1 1_555 1_555
O2 P3 1_555 1_555
O3 P3 1_555 1_555
H2 O3 1_555 1_555
O4 P3 1_555 1_555
P4 O5 1_555 1_555
O5 H3 1_555 1_555
O6 P4 1_555 1_555
H4 O6 1_555 1_555
O7 P4 1_555 1_555
O8 P4 1_555 1_555
C1 H5 1_555 1_555
C2 H6 1_555 1_555
C3 C2 1_555 1_555
H7 C3 1_555 1_555
C4 C5 1_555 1_555
C5 H8 1_555 1_555
C6 C5 1_555 1_555
H9 C6 1_555 1_555
C7 C6 1_555 1_555
H10 C7 1_555 1_555
C8 C7 1_555 1_555
C9 H11 1_555 1_555
C10 H12 1_555 1_555
C11 C10 1_555 1_555
H13 C11 1_555 1_555
C12 H14 1_555 1_555
H15 C12 1_555 1_555
C13 C12 1_555 1_555
C14 C13 1_555 1_555
H16 C14 1_555 1_555
C15 C14 1_555 1_555
H17 C15 1_555 1_555
C16 C15 1_555 1_555
H18 C16 1_555 1_555
C17 C16 1_555 1_555
H19 C17 1_555 1_555
C18 C13 1_555 1_555
C19 C18 1_555 1_555
H20 C19 1_555 1_555
H21 C19 1_555 1_555
C20 H22 1_555 1_555
C21 H23 1_555 1_555
C22 C21 1_555 1_555
H24 C22 1_555 1_555
C23 C24 1_555 1_555
C24 H25 1_555 1_555
C25 C24 1_555 1_555
H26 C25 1_555 1_555
C26 C25 1_555 1_555
H27 C26 1_555 1_555
C27 C26 1_555 1_555
C28 H28 1_555 1_555
C29 H29 1_555 1_555
C30 C29 1_555 1_555
H30 C30 1_555 1_555
C31 H31 1_555 1_555
H32 C31 1_555 1_555
C32 C31 1_555 1_555
C33 C32 1_555 1_555
H33 C33 1_555 1_555
C34 C33 1_555 1_555
H34 C34 1_555 1_555
C35 C34 1_555 1_555
H35 C35 1_555 1_555
C36 C35 1_555 1_555
H36 C36 1_555 1_555
C37 C32 1_555 1_555
C38 C37 1_555 1_555
H37 C38 1_555 1_555
H38 C38 1_555 1_555
N1 C1 1_555 1_555
N2 C1 1_555 1_555
N3 C4 1_555 1_555
N4 C8 1_555 1_555
N5 C9 1_555 1_555
N6 C19 1_555 1_555
N7 C20 1_555 1_555
N8 C23 1_555 1_555
N9 C27 1_555 1_555
N10 C28 1_555 1_555
C2 N1 1_555 1_555
C3 N2 1_555 1_555
C4 N2 1_555 1_555
C8 N3 1_555 1_555
C9 N4 1_555 1_555
C10 N4 1_555 1_555
C11 N5 1_555 1_555
C12 N5 1_555 1_555
C17 C18 1_555 1_555
C20 N6 1_555 1_555
C21 N6 1_555 1_555
C22 N7 1_555 1_555
C23 N7 1_555 1_555
C27 N8 1_555 1_555
C28 N9 1_555 1_555
C29 N9 1_555 1_555
C30 N10 1_555 1_555
C31 N10 1_555 1_555
C36 C37 1_555 1_555
C38 N1 1_555 1_555

#END
