
#######################################################################
#
#                 Cambridge Crystallographic Data Centre
#                                CCDC 
#
#######################################################################
#
# If this CIF has been generated from an entry in the Cambridge 
# Structural Database, then it will include bibliographic, chemical, 
# crystal, experimental, refinement or atomic coordinate data resulting 
# from the CCDC's data processing and validation procedures.
#
#######################################################################

data_IFENAL
_chemical_formula_moiety         'C25 H17 Cl3 O3 S1'
_chemical_name_systematic        
1,3,6-trichloro-1-{1-[(4-methylphenyl)sulfonyl]-2-phenylethenyl}naphthalen-2(1H)-one
_symmetry_cell_setting           monoclinic
_symmetry_space_group_name_H-M   'P 21'
_symmetry_Int_Tables_number      4
_space_group_name_Hall           'P 2yb'
loop_
_symmetry_equiv_pos_site_id
_symmetry_equiv_pos_as_xyz
1 x,y,z
2 -x,1/2+y,-z
_cell_length_a                   9.1441(6)
_cell_length_b                   13.7176(9)
_cell_length_c                   10.0454(6)
_cell_angle_alpha                90
_cell_angle_beta                 108.829(7)
_cell_angle_gamma                90
_cell_volume                     1192.62
_exptl_crystal_description       block
_cell_formula_units_Z            2
loop_
_atom_site_label
_atom_site_type_symbol
_atom_site_fract_x
_atom_site_fract_y
_atom_site_fract_z
Cl1 Cl 0.32223(11) 0.36063(8) 0.63410(10)
Cl2 Cl -0.10199(18) 0.26163(11) 0.23078(13)
Cl3 Cl 0.32776(14) 0.75156(9) 0.23256(12)
S1 S 0.19974(12) 0.47676(9) 0.86045(9)
O1 O -0.0217(3) 0.2976(2) 0.5334(3)
O2 O 0.1028(4) 0.5225(2) 0.9306(3)
O3 O 0.3447(3) 0.5213(2) 0.8722(3)
C1 C 0.1476(4) 0.4350(3) 0.5630(3)
C2 C 0.0349(4) 0.3560(3) 0.4761(4)
C3 C 0.0102(5) 0.3563(3) 0.3243(4)
C4 C 0.0647(5) 0.4250(3) 0.2619(4)
H1 H 0.044(4) 0.432(3) 0.156(4)
C5 C 0.1542(4) 0.5074(3) 0.3358(3)
C6 C 0.1973(4) 0.5812(3) 0.2603(4)
H2 H 0.1715 0.5769 0.1631
C7 C 0.2776(4) 0.6597(3) 0.3305(4)
C8 C 0.3175(5) 0.6691(3) 0.4732(4)
H3 H 0.3720 0.7233 0.5188
C9 C 0.2748(4) 0.5960(3) 0.5481(4)
H4 H 0.3029 0.6011 0.6455
C10 C 0.1916(4) 0.5156(3) 0.4820(3)
C11 C 0.0858(4) 0.4707(3) 0.6782(3)
C12 C -0.0585(4) 0.5018(3) 0.6501(4)
H5 H -0.0876 0.5194 0.7274
C13 C -0.1784(4) 0.5119(3) 0.5114(4)
C14 C -0.1663(5) 0.5803(3) 0.4154(4)
H6 H -0.0799 0.6204 0.4366
C15 C -0.2827(6) 0.5896(4) 0.2874(5)
H7 H -0.2743 0.6362 0.2229
C16 C -0.4081(7) 0.5312(5) 0.2559(5)
H8 H -0.4839 0.5359 0.1684
C17 C -0.4240(6) 0.4653(4) 0.3523(6)
H9 H -0.5121 0.4266 0.3315
C18 C -0.3098(5) 0.4562(4) 0.4798(5)
H10 H -0.3216 0.4118 0.5455
C19 C 0.2335(4) 0.3579(3) 0.9270(3)
C20 C 0.1101(5) 0.3013(4) 0.9301(4)
H11 H 0.0094 0.3230 0.8874
C21 C 0.1372(5) 0.2122(4) 0.9969(5)
H12 H 0.0537 0.1743 0.9992
C22 C 0.2852(5) 0.1778(4) 1.0606(5)
C23 C 0.4054(5) 0.2355(4) 1.0543(4)
H13 H 0.5060 0.2136 1.0966
C24 C 0.3826(4) 0.3237(3) 0.9886(4)
H14 H 0.4666 0.3606 0.9850
C25 C 0.3104(6) 0.0797(5) 1.1320(7)
H15 H 0.3984 0.0486 1.1181
H16 H 0.2205 0.0398 1.0925
H17 H 0.3283 0.0881 1.2308
loop_
_geom_bond_atom_site_label_1
_geom_bond_atom_site_label_2
_geom_bond_site_symmetry_1
_geom_bond_site_symmetry_2
Cl1 C1 1_555 1_555
Cl2 C3 1_555 1_555
Cl3 C7 1_555 1_555
S1 O2 1_555 1_555
O1 C2 1_555 1_555
O3 S1 1_555 1_555
C1 C2 1_555 1_555
C2 C3 1_555 1_555
C3 C4 1_555 1_555
C4 H1 1_555 1_555
C5 C4 1_555 1_555
C6 C5 1_555 1_555
H2 C6 1_555 1_555
C7 C6 1_555 1_555
C8 C7 1_555 1_555
H3 C8 1_555 1_555
C9 C8 1_555 1_555
H4 C9 1_555 1_555
C10 C1 1_555 1_555
C11 S1 1_555 1_555
C12 C11 1_555 1_555
H5 C12 1_555 1_555
C13 C12 1_555 1_555
C14 C13 1_555 1_555
H6 C14 1_555 1_555
C15 C14 1_555 1_555
H7 C15 1_555 1_555
C16 C15 1_555 1_555
H8 C16 1_555 1_555
C17 C16 1_555 1_555
H9 C17 1_555 1_555
C18 C13 1_555 1_555
H10 C18 1_555 1_555
C19 S1 1_555 1_555
C20 C19 1_555 1_555
H11 C20 1_555 1_555
C21 C20 1_555 1_555
H12 C21 1_555 1_555
C22 C21 1_555 1_555
C23 C22 1_555 1_555
H13 C23 1_555 1_555
C24 C19 1_555 1_555
H14 C24 1_555 1_555
C25 C22 1_555 1_555
H15 C25 1_555 1_555
H16 C25 1_555 1_555
H17 C25 1_555 1_555
C1 C11 1_555 1_555
C5 C10 1_555 1_555
C9 C10 1_555 1_555
C17 C18 1_555 1_555
C23 C24 1_555 1_555

#END
