
#######################################################################
#
#                 Cambridge Crystallographic Data Centre
#                                CCDC 
#
#######################################################################
#
# If this CIF has been generated from an entry in the Cambridge 
# Structural Database, then it will include bibliographic, chemical, 
# crystal, experimental, refinement or atomic coordinate data resulting 
# from the CCDC's data processing and validation procedures.
#
#######################################################################

data_IFENIS
_chemical_name_common            
'cyclo[2](2,6-bis(1H-Imidazol-1-yl)pyridine)[2](1,3-dimethylenebenzene) tetrakis(hexafluorophosphate) acetonitrile solvate'
_chemical_formula_moiety         'C38 H34 N10 4+,4(F6 P1 1-),C2 H3 N1'
_chemical_name_systematic        
'1,7(2,6)-Dipyridina-2,6,8,12(1,3)-tetraimidazola-4,10(1,3)-dibenzenacyclododecaphane-2^3^,6^1^,8^3^,12^1^-tetra-ium tetrakis(hexafluorophosphate) acetonitrile solvate'
_symmetry_cell_setting           monoclinic
_symmetry_space_group_name_H-M   'P 21/n'
_symmetry_Int_Tables_number      14
_space_group_name_Hall           '-P 2yn'
loop_
_symmetry_equiv_pos_site_id
_symmetry_equiv_pos_as_xyz
1 x,y,z
2 1/2-x,1/2+y,1/2-z
3 -x,-y,-z
4 1/2+x,1/2-y,1/2+z
_cell_length_a                   11.2107(4)
_cell_length_b                   9.4444(3)
_cell_length_c                   22.9291(9)
_cell_angle_alpha                90
_cell_angle_beta                 95.703(2)
_cell_angle_gamma                90
_cell_volume                     2415.68
_exptl_crystal_colour            colorless
_exptl_crystal_description       needle
_cell_formula_units_Z            2
loop_
_atom_site_label
_atom_site_type_symbol
_atom_site_fract_x
_atom_site_fract_y
_atom_site_fract_z
P2 P 0.34634(11) 0.01934(12) 0.64817(5)
F7 F 0.2700(2) 0.0865(2) 0.69526(10)
F8 F 0.3826(4) 0.1692(3) 0.62799(13)
F9 F 0.4219(3) -0.0483(3) 0.60139(16)
F10 F 0.3286(3) -0.1336(3) 0.67557(14)
F11 F 0.4632(3) 0.0322(3) 0.69584(17)
F12 F 0.2308(4) -0.0074(5) 0.60729(16)
N1 N 0.3611(2) 0.5540(3) 0.62200(11)
N2 N 0.4218(3) 0.4252(3) 0.70614(11)
N3 N 0.6010(3) 0.3752(3) 0.74280(12)
N4 N 0.6700(3) 0.1565(3) 0.53032(11)
N5 N 0.6799(2) 0.3114(3) 0.46131(11)
C1 C 0.2767(3) 0.6069(4) 0.58437(14)
C2 C 0.1555(3) 0.5882(5) 0.58767(17)
H1 H 0.0978 0.6277 0.5591
C3 C 0.1212(3) 0.5095(5) 0.63439(17)
H2 H 0.0388 0.4921 0.6380
C4 C 0.2078(4) 0.4571(4) 0.67531(17)
H3 H 0.1868 0.4062 0.7085
C5 C 0.3248(3) 0.4804(4) 0.66680(14)
C6 C 0.4120(4) 0.3417(4) 0.75504(15)
H4 H 0.3399 0.3127 0.7701
C7 C 0.5234(3) 0.3099(4) 0.77678(16)
H5 H 0.5453 0.2520 0.8100
C8 C 0.5373(3) 0.4442(3) 0.70013(14)
H6 H 0.5689 0.4981 0.6703
C9 C 0.7332(3) 0.3702(4) 0.75171(15)
H7 H 0.7581 0.3431 0.7928
H8 H 0.7652 0.4661 0.7453
C10 C 0.7875(3) 0.2671(3) 0.71126(15)
C11 C 0.7231(3) 0.1998(3) 0.66509(14)
H9 H 0.6388 0.2129 0.6589
C12 C 0.7799(3) 0.1126(3) 0.62718(14)
C13 C 0.9021(3) 0.0946(4) 0.63664(16)
H10 H 0.9419 0.0367 0.6108
C14 C 0.9678(3) 0.1605(4) 0.68370(18)
H11 H 1.0520 0.1464 0.6903
C15 C 0.9106(3) 0.2462(4) 0.72062(17)
H12 H 0.9555 0.2913 0.7527
C16 C 0.7079(3) 0.0479(3) 0.57474(14)
H13 H 0.7569 -0.0248 0.5571
H14 H 0.6361 0.0006 0.5876
C17 C 0.5575(3) 0.2144(4) 0.51881(14)
H15 H 0.4885 0.1907 0.5377
C18 C 0.5629(3) 0.3103(4) 0.47606(14)
H16 H 0.4986 0.3669 0.4590
C19 C 0.7427(3) 0.2158(4) 0.49558(15)
H17 H 0.8254 0.1947 0.4948
N1B N 0.6389(2) 0.4460(3) 0.37800(11)
N2B N 0.5782(3) 0.5748(3) 0.29386(11)
N3B N 0.3990(3) 0.6248(3) 0.25720(12)
N4B N 0.3300(3) 0.8435(3) 0.46968(11)
N5B N 0.3201(2) 0.6886(3) 0.53869(11)
C1B C 0.7233(3) 0.3931(4) 0.41563(14)
C2B C 0.8445(3) 0.4118(5) 0.41233(17)
H1B H 0.9022 0.3723 0.4409
C3B C 0.8788(3) 0.4905(5) 0.36561(17)
H2B H 0.9612 0.5079 0.3620
C4B C 0.7922(4) 0.5429(4) 0.32469(17)
H3B H 0.8132 0.5938 0.2915
C5B C 0.6752(3) 0.5196(4) 0.33320(14)
C6B C 0.5880(4) 0.6583(4) 0.24496(15)
H4B H 0.6601 0.6873 0.2299
C7B C 0.4766(3) 0.6901(4) 0.22322(16)
H5B H 0.4547 0.7480 0.1900
C8B C 0.4627(3) 0.5558(3) 0.29987(14)
H6B H 0.4311 0.5019 0.3297
C9B C 0.2668(3) 0.6298(4) 0.24829(15)
H7B H 0.2419 0.6569 0.2072
H8B H 0.2348 0.5339 0.2547
C10B C 0.2125(3) 0.7329(3) 0.28874(15)
C11B C 0.2769(3) 0.8002(3) 0.33491(14)
H9B H 0.3612 0.7871 0.3411
C12B C 0.2201(3) 0.8874(3) 0.37282(14)
C13B C 0.0979(3) 0.9054(4) 0.36336(16)
H10B H 0.0581 0.9633 0.3892
C14B C 0.0322(3) 0.8395(4) 0.31630(18)
H11B H -0.0520 0.8536 0.3097
C15B C 0.0894(3) 0.7538(4) 0.27938(17)
H12B H 0.0445 0.7087 0.2473
C16B C 0.2921(3) 0.9521(3) 0.42526(14)
H13B H 0.2431 1.0248 0.4429
H14B H 0.3639 0.9994 0.4124
C17B C 0.4425(3) 0.7856(4) 0.48119(14)
H15B H 0.5115 0.8093 0.4623
C18B C 0.4371(3) 0.6897(4) 0.52394(14)
H16B H 0.5014 0.6331 0.5410
C19B C 0.2573(3) 0.7842(4) 0.50442(15)
H17B H 0.1746 0.8053 0.5052
P1 P 0.77234(8) 0.60848(10) 0.58482(4)
F1 F 0.82528(19) 0.5575(2) 0.64888(9)
F2 F 0.67018(18) 0.4912(2) 0.58394(9)
F3 F 0.7186(2) 0.6621(3) 0.52200(9)
F4 F 0.8739(2) 0.7278(2) 0.58704(9)
F5 F 0.6868(2) 0.7159(2) 0.61483(10)
F6 F 0.85765(19) 0.5019(3) 0.55576(10)
loop_
_geom_bond_atom_site_label_1
_geom_bond_atom_site_label_2
_geom_bond_site_symmetry_1
_geom_bond_site_symmetry_2
P1 F1 1_555 1_555
F2 P1 1_555 1_555
F3 P1 1_555 1_555
F4 P1 1_555 1_555
F5 P1 1_555 1_555
F6 P1 1_555 1_555
P2 F7 1_555 1_555
F8 P2 1_555 1_555
F9 P2 1_555 1_555
F10 P2 1_555 1_555
F11 P2 1_555 1_555
F12 P2 1_555 1_555
N1 C1 1_555 1_555
N2 C5 1_555 1_555
N3 C7 1_555 1_555
N4 C16 1_555 1_555
N5 C18 1_555 1_555
C1 C2 1_555 1_555
C2 H1 1_555 1_555
C3 C2 1_555 1_555
H2 C3 1_555 1_555
C4 C3 1_555 1_555
H3 C4 1_555 1_555
C5 N1 1_555 1_555
C6 N2 1_555 1_555
H4 C6 1_555 1_555
C7 C6 1_555 1_555
H5 C7 1_555 1_555
C8 N2 1_555 1_555
H6 C8 1_555 1_555
C9 N3 1_555 1_555
H7 C9 1_555 1_555
H8 C9 1_555 1_555
C10 C9 1_555 1_555
C11 C10 1_555 1_555
H9 C11 1_555 1_555
C12 C11 1_555 1_555
C13 C12 1_555 1_555
H10 C13 1_555 1_555
C14 C13 1_555 1_555
H11 C14 1_555 1_555
C15 C10 1_555 1_555
H12 C15 1_555 1_555
C16 C12 1_555 1_555
H13 C16 1_555 1_555
H14 C16 1_555 1_555
C17 N4 1_555 1_555
H15 C17 1_555 1_555
C18 C17 1_555 1_555
H16 C18 1_555 1_555
C19 N4 1_555 1_555
H17 C19 1_555 1_555
N1B C1B 1_555 1_555
N2B C5B 1_555 1_555
N3B C7B 1_555 1_555
N4B C16B 1_555 1_555
N5B C1 1_555 1_555
C1B N5 1_555 1_555
C2B C1B 1_555 1_555
H1B C2B 1_555 1_555
C3B C2B 1_555 1_555
H2B C3B 1_555 1_555
C4B C3B 1_555 1_555
H3B C4B 1_555 1_555
C5B N1B 1_555 1_555
C6B N2B 1_555 1_555
H4B C6B 1_555 1_555
C7B C6B 1_555 1_555
H5B C7B 1_555 1_555
C8B N2B 1_555 1_555
H6B C8B 1_555 1_555
C9B N3B 1_555 1_555
H7B C9B 1_555 1_555
H8B C9B 1_555 1_555
C10B C9B 1_555 1_555
C11B C10B 1_555 1_555
H9B C11B 1_555 1_555
C12B C11B 1_555 1_555
C13B C12B 1_555 1_555
H10B C13B 1_555 1_555
C14B C13B 1_555 1_555
H11B C14B 1_555 1_555
C15B C10B 1_555 1_555
H12B C15B 1_555 1_555
C16B C12B 1_555 1_555
H13B C16B 1_555 1_555
H14B C16B 1_555 1_555
C17B N4B 1_555 1_555
H15B C17B 1_555 1_555
C18B N5B 1_555 1_555
H16B C18B 1_555 1_555
C19B N4B 1_555 1_555
H17B C19B 1_555 1_555
N3 C8 1_555 1_555
N5 C19 1_555 1_555
C4 C5 1_555 1_555
C14 C15 1_555 1_555
N3B C8B 1_555 1_555
N5B C19B 1_555 1_555
C4B C5B 1_555 1_555
C14B C15B 1_555 1_555
C17B C18B 1_555 1_555

#END
