
#######################################################################
#
#                 Cambridge Crystallographic Data Centre
#                                CCDC 
#
#######################################################################
#
# If this CIF has been generated from an entry in the Cambridge 
# Structural Database, then it will include bibliographic, chemical, 
# crystal, experimental, refinement or atomic coordinate data resulting 
# from the CCDC's data processing and validation procedures.
#
#######################################################################

data_IFENEO
_chemical_name_common            
'cyclo[2](2,6-bis(1H-Imidazol-1-yl)pyridine)[2](1,2-dimethylenebenzene) tetrakis(hexafluorophosphate) acetonitrile solvate'
_chemical_formula_moiety         'C38 H34 N10 4+,4(F6 P1 1-),2(C2 H3 N1)'
_chemical_name_systematic        
'1,7(2,6)-Dipyridina-2,6,8,12(1,3)-tetraimidazola-4,10(1,2)-dibenzenacyclododecaphane-2^3^,6^1^,8^3^,12^1^-tetra-ium tetrakis(hexafluorophosphate) acetonitrile solvate'
_symmetry_cell_setting           monoclinic
_symmetry_space_group_name_H-M   'P 21/c'
_symmetry_Int_Tables_number      14
_space_group_name_Hall           '-P 2ybc'
loop_
_symmetry_equiv_pos_site_id
_symmetry_equiv_pos_as_xyz
1 x,y,z
2 -x,1/2+y,1/2-z
3 -x,-y,-z
4 x,1/2-y,1/2+z
_cell_length_a                   9.0278(18)
_cell_length_b                   26.585(5)
_cell_length_c                   11.142(2)
_cell_angle_alpha                90
_cell_angle_beta                 99.36(3)
_cell_angle_gamma                90
_cell_volume                     2638.52
_exptl_crystal_colour            colorless
_exptl_crystal_description       plate
_cell_formula_units_Z            2
loop_
_atom_site_label
_atom_site_type_symbol
_atom_site_fract_x
_atom_site_fract_y
_atom_site_fract_z
P1 P 0.2154(2) 0.53757(6) 0.40114(16)
F1 F 0.0926(6) 0.5566(2) 0.4759(5)
F2 F 0.3262(6) 0.57985(15) 0.4607(4)
F3 F 0.1065(6) 0.49451(18) 0.3418(4)
F4 F 0.3391(5) 0.51763(17) 0.3261(4)
F5 F 0.1528(5) 0.57391(15) 0.2898(4)
F6 F 0.2797(5) 0.49997(13) 0.5111(3)
P2 P 0.07336(19) 0.67552(6) -0.13526(16)
F7 F 0.0604(10) 0.6283(2) -0.2134(5)
F8 F 0.0807(7) 0.7246(2) -0.0542(5)
F9 F 0.2394(6) 0.6848(2) -0.1448(7)
F10 F -0.0932(6) 0.6691(2) -0.1120(7)
F11 F 0.1269(6) 0.6414(2) -0.0192(4)
F12 F 0.0151(7) 0.71007(18) -0.2480(4)
N1 N 0.1464(5) 0.35915(18) 0.6181(5)
N2 N 0.1735(5) 0.40408(17) 0.7822(4)
N3 N 0.2895(5) 0.48176(18) 0.8249(4)
N4 N 0.4187(5) 0.55680(16) 0.8545(4)
N5 N 0.5548(5) 0.59182(17) 0.7358(5)
C1 C 0.1368(7) 0.3439(2) 0.4876(6)
H1 H 0.1181 0.3734 0.4362
H2 H 0.0534 0.3209 0.4659
C2 C 0.1810(6) 0.4046(2) 0.6633(6)
H3 H 0.2063 0.4323 0.6196
C3 C 0.1170(7) 0.3280(2) 0.7109(6)
H4 H 0.0908 0.2942 0.7039
C4 C 0.1331(7) 0.3558(2) 0.8133(6)
H5 H 0.1198 0.3448 0.8901
C5 C 0.2025(6) 0.4463(2) 0.8618(5)
C6 C 0.1454(7) 0.4481(2) 0.9702(5)
H6 H 0.0829 0.4229 0.9913
C7 C 0.1857(7) 0.4890(2) 1.0454(6)
H7 H 0.1517 0.4912 1.1197
C8 C 0.2767(7) 0.5266(2) 1.0107(6)
H8 H 0.3055 0.5543 1.0599
C9 C 0.3221(6) 0.5206(2) 0.8987(5)
C10 C 0.4577(7) 0.5554(2) 0.7431(6)
H9 H 0.4223 0.5326 0.6818
C11 C 0.4939(7) 0.5968(2) 0.9195(6)
H10 H 0.4865 0.6066 0.9984
C12 C 0.5795(7) 0.6184(2) 0.8450(6)
H11 H 0.6429 0.6459 0.8631
C13 C 0.6306(7) 0.6019(2) 0.6303(6)
H12 H 0.5906 0.5795 0.5641
H13 H 0.7370 0.5949 0.6525
C14 C 0.6093(7) 0.6562(2) 0.5876(5)
C15 C 0.4771(7) 0.6813(2) 0.6007(6)
H14 H 0.4037 0.6646 0.6349
C16 C 0.4534(9) 0.7310(3) 0.5634(7)
H15 H 0.3642 0.7472 0.5713
C17 C 0.5631(10) 0.7559(3) 0.5147(8)
H16 H 0.5490 0.7894 0.4911
C18 C 0.6943(9) 0.7313(3) 0.5009(7)
H17 H 0.7678 0.7487 0.4681
C19 C 0.7191(7) 0.6813(2) 0.5349(6)
N1B N 0.8536(5) 0.64085(18) 0.3819(5)
N2B N 0.8265(5) 0.59592(17) 0.2178(4)
N3B N 0.7105(5) 0.51824(18) 0.1751(4)
N4B N 0.5813(5) 0.44320(16) 0.1455(4)
N5B N 0.4452(5) 0.40818(17) 0.2642(5)
C1B C 0.8632(7) 0.6561(2) 0.5124(6)
H1B H 0.8819 0.6266 0.5638
H2B H 0.9466 0.6791 0.5341
C2B C 0.8190(6) 0.5954(2) 0.3367(6)
H3B H 0.7937 0.5677 0.3804
C3B C 0.8830(7) 0.6720(2) 0.2891(6)
H4B H 0.9092 0.7058 0.2961
C4B C 0.8669(7) 0.6442(2) 0.1867(6)
H5B H 0.8802 0.6552 0.1099
C5B C 0.7975(6) 0.5537(2) 0.1382(5)
C6B C 0.8546(7) 0.5519(2) 0.0298(5)
H6B H 0.9171 0.5771 0.0087
C7B C 0.8143(7) 0.5110(2) -0.0454(6)
H7B H 0.8483 0.5088 -0.1197
C8B C 0.7233(7) 0.4734(2) -0.0107(6)
H8B H 0.6945 0.4457 -0.0599
C9B C 0.6779(6) 0.4794(2) 0.1013(5)
C10B C 0.5423(7) 0.4446(2) 0.2569(6)
H9B H 0.5777 0.4674 0.3182
C11B C 0.5061(7) 0.4032(2) 0.0805(6)
H10B H 0.5135 0.3934 0.0016
C12B C 0.4205(7) 0.3816(2) 0.1550(6)
H11B H 0.3571 0.3541 0.1369
C13B C 0.3694(7) 0.3981(2) 0.3697(6)
H12B H 0.4094 0.4205 0.4359
H13B H 0.2630 0.4051 0.3475
C14B C 0.3907(7) 0.3438(2) 0.4124(5)
C15B C 0.5229(7) 0.3187(2) 0.3993(6)
H14B H 0.5963 0.3354 0.3651
C16B C 0.5466(9) 0.2690(3) 0.4366(7)
H15B H 0.6358 0.2528 0.4287
C17B C 0.4369(10) 0.2441(3) 0.4853(8)
H16B H 0.4510 0.2106 0.5089
C18B C 0.3057(9) 0.2687(3) 0.4991(7)
H17B H 0.2322 0.2513 0.5319
C19B C 0.2809(7) 0.3187(2) 0.4651(6)
N6 N 0.4969(7) 0.6340(3) 0.2032(6)
C20 C 0.2827(9) 0.6861(3) 0.2713(7)
H18 H 0.3202 0.7044 0.3442
H19 H 0.2035 0.6640 0.2862
H20 H 0.2445 0.7094 0.2078
C21 C 0.4043(8) 0.6565(3) 0.2342(6)
loop_
_geom_bond_atom_site_label_1
_geom_bond_atom_site_label_2
_geom_bond_site_symmetry_1
_geom_bond_site_symmetry_2
P1 F1 1_555 1_555
F2 P1 1_555 1_555
F3 P1 1_555 1_555
F4 P1 1_555 1_555
F5 P1 1_555 1_555
F6 P1 1_555 1_555
P2 F7 1_555 1_555
F8 P2 1_555 1_555
F9 P2 1_555 1_555
F10 P2 1_555 1_555
F11 P2 1_555 1_555
F12 P2 1_555 1_555
N1 C1 1_555 1_555
N2 C2 1_555 1_555
N3 C5 1_555 1_555
N4 C9 1_555 1_555
N5 C10 1_555 1_555
C1 H1 1_555 1_555
H2 C1 1_555 1_555
C2 N1 1_555 1_555
H3 C2 1_555 1_555
C3 N1 1_555 1_555
H4 C3 1_555 1_555
C4 N2 1_555 1_555
H5 C4 1_555 1_555
C5 N2 1_555 1_555
C6 C5 1_555 1_555
H6 C6 1_555 1_555
C7 C6 1_555 1_555
H7 C7 1_555 1_555
C8 C7 1_555 1_555
H8 C8 1_555 1_555
C9 N3 1_555 1_555
C10 N4 1_555 1_555
H9 C10 1_555 1_555
C11 N4 1_555 1_555
H10 C11 1_555 1_555
C12 N5 1_555 1_555
H11 C12 1_555 1_555
C13 N5 1_555 1_555
H12 C13 1_555 1_555
H13 C13 1_555 1_555
C14 C13 1_555 1_555
C15 C14 1_555 1_555
H14 C15 1_555 1_555
C16 C15 1_555 1_555
H15 C16 1_555 1_555
C17 C16 1_555 1_555
H16 C17 1_555 1_555
C18 C17 1_555 1_555
H17 C18 1_555 1_555
C19 C14 1_555 1_555
N6 C21 1_555 1_555
C20 H18 1_555 1_555
H19 C20 1_555 1_555
H20 C20 1_555 1_555
C21 C20 1_555 1_555
N1B C1B 1_555 1_555
N2B C2B 1_555 1_555
N3B C5B 1_555 1_555
N4B C9B 1_555 1_555
N5B C10B 1_555 1_555
C1B C19 1_555 1_555
H1B C1B 1_555 1_555
H2B C1B 1_555 1_555
C2B N1B 1_555 1_555
H3B C2B 1_555 1_555
C3B N1B 1_555 1_555
H4B C3B 1_555 1_555
C4B N2B 1_555 1_555
H5B C4B 1_555 1_555
C5B N2B 1_555 1_555
C6B C5B 1_555 1_555
H6B C6B 1_555 1_555
C7B C6B 1_555 1_555
H7B C7B 1_555 1_555
C8B C7B 1_555 1_555
H8B C8B 1_555 1_555
C9B N3B 1_555 1_555
C10B N4B 1_555 1_555
H9B C10B 1_555 1_555
C11B N4B 1_555 1_555
H10B C11B 1_555 1_555
C12B N5B 1_555 1_555
H11B C12B 1_555 1_555
C13B N5B 1_555 1_555
H12B C13B 1_555 1_555
H13B C13B 1_555 1_555
C14B C13B 1_555 1_555
C15B C14B 1_555 1_555
H14B C15B 1_555 1_555
C16B C15B 1_555 1_555
H15B C16B 1_555 1_555
C17B C16B 1_555 1_555
H16B C17B 1_555 1_555
C18B C17B 1_555 1_555
H17B C18B 1_555 1_555
C19B C1 1_555 1_555
C3 C4 1_555 1_555
C8 C9 1_555 1_555
C11 C12 1_555 1_555
C18 C19 1_555 1_555
C3B C4B 1_555 1_555
C8B C9B 1_555 1_555
C11B C12B 1_555 1_555
C14B C19B 1_555 1_555
C18B C19B 1_555 1_555

#END
