
#######################################################################
#
#                 Cambridge Crystallographic Data Centre
#                                CCDC 
#
#######################################################################
#
# If this CIF has been generated from an entry in the Cambridge 
# Structural Database, then it will include bibliographic, chemical, 
# crystal, experimental, refinement or atomic coordinate data resulting 
# from the CCDC's data processing and validation procedures.
#
#######################################################################

data_IFETAR
_chemical_formula_moiety         'C34 H33 N3 O6'
_chemical_name_systematic        
"1-t-butyl 2'-methyl 1''-methyl-2,2''-dioxo-1'',2'',6',10b'-tetrahydro-2'H,5'H-dispiro[indole-3,1'-pyrrolo[2,1-a]isoquinoline-3',3''-indole]-1,2'(2H)-dicarboxylate"
_symmetry_cell_setting           triclinic
_symmetry_space_group_name_H-M   'P -1'
_symmetry_Int_Tables_number      2
_space_group_name_Hall           '-P 1'
loop_
_symmetry_equiv_pos_site_id
_symmetry_equiv_pos_as_xyz
1 x,y,z
2 -x,-y,-z
_cell_length_a                   11.2505(7)
_cell_length_b                   11.5713(10)
_cell_length_c                   13.0127(9)
_cell_angle_alpha                86.119(6)
_cell_angle_beta                 84.314(6)
_cell_angle_gamma                65.589(7)
_cell_volume                     1534.33
_exptl_crystal_colour            colorless
_exptl_crystal_description       prism
_cell_formula_units_Z            2
loop_
_atom_site_label
_atom_site_type_symbol
_atom_site_fract_x
_atom_site_fract_y
_atom_site_fract_z
C1 C 0.2010(3) 0.2761(3) 0.4058(2)
H1 H 0.1750 0.2099 0.4028
C2 C 0.3183(3) 0.2530(3) 0.4460(2)
H2 H 0.3715 0.1713 0.4681
C3 C 0.3562(2) 0.3498(3) 0.4533(2)
H3 H 0.4341 0.3344 0.4819
C4 C 0.2794(2) 0.4702(2) 0.41826(18)
H4 H 0.3049 0.5361 0.4245
C5 C 0.1631(2) 0.4944(2) 0.37325(16)
C6 C 0.1209(2) 0.3973(2) 0.36967(18)
C7 C -0.0090(2) 0.4215(2) 0.3292(2)
H5 H -0.0547 0.3825 0.3766
H6 H 0.0068 0.3816 0.2631
C8 C -0.0950(2) 0.5617(2) 0.31627(19)
H7 H -0.1673 0.5743 0.2755
H8 H -0.1303 0.5991 0.3831
C9 C 0.08141(18) 0.62629(19) 0.33159(16)
H9 H 0.0319 0.6796 0.3898
C10 C -0.1097(2) 0.6688(2) 0.03729(19)
H10 H -0.0230 0.6113 0.0254
C11 C -0.2010(3) 0.6811(3) -0.0323(2)
H11 H -0.1764 0.6322 -0.0909
C12 C -0.3289(3) 0.7672(3) -0.0124(3)
H12 H -0.3899 0.7757 -0.0589
C13 C -0.3699(3) 0.8414(3) 0.0740(3)
H13 H -0.4567 0.8984 0.0862
C14 C -0.2773(2) 0.8278(2) 0.1419(2)
C15 C -0.1478(2) 0.7417(2) 0.12318(18)
C16 C -0.07111(18) 0.74408(18) 0.21158(16)
C17 C -0.1770(2) 0.8477(2) 0.2803(2)
C18 C -0.4139(2) 0.9884(2) 0.2777(3)
H14 H -0.3984 1.0149 0.3415
H15 H -0.4808 0.9568 0.2901
H16 H -0.4417 1.0593 0.2295
C19 C 0.1260(2) 0.8780(2) 0.38577(18)
H17 H 0.0354 0.9068 0.3951
C20 C 0.1893(3) 0.9361(3) 0.4352(2)
H18 H 0.1413 1.0041 0.4776
C21 C 0.3233(2) 0.8928(2) 0.4212(2)
H19 H 0.3652 0.9318 0.4553
C22 C 0.3977(2) 0.7924(2) 0.35754(19)
H20 H 0.4881 0.7647 0.3474
C23 C 0.33283(19) 0.73474(19) 0.30949(16)
C24 C 0.19761(19) 0.77732(19) 0.32274(16)
C25 C 0.15296(17) 0.69818(18) 0.26225(15)
C26 C 0.28210(18) 0.60540(18) 0.20849(16)
C27 C 0.05369(17) 0.76733(18) 0.17846(16)
H21 H 0.0919 0.7208 0.1148
C28 C 0.0336(2) 0.9021(2) 0.15280(17)
C29 C 0.1476(3) 1.0323(3) 0.1053(3)
H22 H 0.0815 1.0806 0.0593
H23 H 0.2317 1.0244 0.0746
H24 H 0.1291 1.0748 0.1696
C30 C 0.5203(2) 0.5488(2) 0.23160(18)
C31 C 0.6717(2) 0.3438(2) 0.1644(2)
C32 C 0.7734(2) 0.3864(3) 0.1128(2)
H25 H 0.7435 0.4315 0.0492
H26 H 0.8540 0.3136 0.0987
H27 H 0.7875 0.4413 0.1577
C33 C 0.7054(3) 0.2841(3) 0.2706(2)
H28 H 0.7205 0.3417 0.3119
H29 H 0.7830 0.2066 0.2644
H30 H 0.6341 0.2662 0.3030
C34 C 0.6463(3) 0.2590(3) 0.0951(3)
H31 H 0.5807 0.2336 0.1288
H32 H 0.7257 0.1852 0.0807
H33 H 0.6162 0.3042 0.0316
N1 N -0.01133(15) 0.61953(15) 0.26345(13)
N2 N -0.29353(16) 0.88838(18) 0.23514(17)
N3 N 0.38562(15) 0.62967(15) 0.24212(13)
O1 O -0.16432(15) 0.88391(15) 0.36251(14)
O2 O 0.29214(13) 0.52878(14) 0.14654(12)
O3 O -0.06959(15) 0.99212(15) 0.15491(16)
O4 O 0.14829(15) 0.90770(15) 0.12379(13)
O5 O 0.59901(15) 0.57050(18) 0.27334(17)
O6 O 0.54179(13) 0.45337(15) 0.17406(14)
loop_
_geom_bond_atom_site_label_1
_geom_bond_atom_site_label_2
_geom_bond_site_symmetry_1
_geom_bond_site_symmetry_2
C1 H1 1_555 1_555
C2 C1 1_555 1_555
H2 C2 1_555 1_555
C3 C2 1_555 1_555
H3 C3 1_555 1_555
C4 C3 1_555 1_555
H4 C4 1_555 1_555
C5 C4 1_555 1_555
C6 C1 1_555 1_555
C7 C6 1_555 1_555
H5 C7 1_555 1_555
H6 C7 1_555 1_555
C8 C7 1_555 1_555
H7 C8 1_555 1_555
H8 C8 1_555 1_555
C9 C5 1_555 1_555
H9 C9 1_555 1_555
C10 H10 1_555 1_555
C11 C10 1_555 1_555
H11 C11 1_555 1_555
C12 C11 1_555 1_555
H12 C12 1_555 1_555
C13 C12 1_555 1_555
H13 C13 1_555 1_555
C14 C13 1_555 1_555
C15 C10 1_555 1_555
C16 C15 1_555 1_555
C17 C16 1_555 1_555
C18 H14 1_555 1_555
H15 C18 1_555 1_555
H16 C18 1_555 1_555
C19 H17 1_555 1_555
C20 C19 1_555 1_555
H18 C20 1_555 1_555
C21 C20 1_555 1_555
H19 C21 1_555 1_555
C22 C21 1_555 1_555
H20 C22 1_555 1_555
C23 C22 1_555 1_555
C24 C19 1_555 1_555
C25 C9 1_555 1_555
C26 C25 1_555 1_555
C27 C16 1_555 1_555
H21 C27 1_555 1_555
C28 C27 1_555 1_555
C29 H22 1_555 1_555
H23 C29 1_555 1_555
H24 C29 1_555 1_555
C30 N3 1_555 1_555
C31 C32 1_555 1_555
C32 H25 1_555 1_555
H26 C32 1_555 1_555
H27 C32 1_555 1_555
C33 C31 1_555 1_555
H28 C33 1_555 1_555
H29 C33 1_555 1_555
H30 C33 1_555 1_555
C34 C31 1_555 1_555
H31 C34 1_555 1_555
H32 C34 1_555 1_555
H33 C34 1_555 1_555
N1 C8 1_555 1_555
N2 C14 1_555 1_555
N3 C23 1_555 1_555
O1 C17 1_555 1_555
O2 C26 1_555 1_555
O3 C28 1_555 1_555
O4 C28 1_555 1_555
O5 C30 1_555 1_555
O6 C30 1_555 1_555
C5 C6 1_555 1_555
C9 N1 1_555 1_555
C14 C15 1_555 1_555
C16 N1 1_555 1_555
C17 N2 1_555 1_555
C18 N2 1_555 1_555
C23 C24 1_555 1_555
C24 C25 1_555 1_555
C25 C27 1_555 1_555
C26 N3 1_555 1_555
C29 O4 1_555 1_555
C31 O6 1_555 1_555

#END
