
#######################################################################
#
#                 Cambridge Crystallographic Data Centre
#                                CCDC 
#
#######################################################################
#
# If this CIF has been generated from an entry in the Cambridge 
# Structural Database, then it will include bibliographic, chemical, 
# crystal, experimental, refinement or atomic coordinate data resulting 
# from the CCDC's data processing and validation procedures.
#
#######################################################################

data_IFEZIF
_chemical_formula_moiety         'C37 H40 N2 O2 S1'
_chemical_name_systematic        
4-[5-(benzylimino)-4-(4-methoxyphenyl)-2-phenyl-4,5-dihydro-1,3-thiazol-4-yl]-2,6-di-t-butylphenol
_symmetry_cell_setting           triclinic
_symmetry_space_group_name_H-M   'P -1'
_symmetry_Int_Tables_number      2
_space_group_name_Hall           '-P 1'
loop_
_symmetry_equiv_pos_site_id
_symmetry_equiv_pos_as_xyz
1 x,y,z
2 -x,-y,-z
_cell_length_a                   9.0765(4)
_cell_length_b                   10.5363(6)
_cell_length_c                   16.8704(6)
_cell_angle_alpha                98.618(4)
_cell_angle_beta                 90.155(4)
_cell_angle_gamma                103.083(5)
_cell_volume                     1552.62
_exptl_crystal_colour            colorless
_exptl_crystal_description       block
_cell_formula_units_Z            2
loop_
_atom_site_label
_atom_site_type_symbol
_atom_site_fract_x
_atom_site_fract_y
_atom_site_fract_z
S1 S 0.06026(9) 0.61400(9) 0.37840(5)
O1 O 0.3407(3) 0.0097(2) 0.21769(15)
O2 O 0.8500(3) 0.8811(3) 0.22737(16)
N1 N 0.1219(3) 0.5337(3) 0.22324(18)
N2 N 0.3268(3) 0.5754(3) 0.41437(17)
C1 C 0.3478(4) 0.3569(3) 0.2202(2)
H1 H 0.357877 0.417094 0.184349
C2 C 0.3525(4) 0.2261(3) 0.1913(2)
C3 C -0.0810(4) 0.4577(3) 0.1187(2)
C4 C 0.3375(4) 0.1392(3) 0.2480(2)
C5 C 0.4545(4) 0.6385(3) 0.2964(2)
C6 C 0.3286(4) 0.3993(3) 0.3005(2)
C7 C 0.3149(4) 0.3108(3) 0.3541(2)
H2 H 0.301532 0.339550 0.407858
C8 C -0.0357(4) 0.3393(3) 0.0983(2)
H3 H 0.027690 0.314328 0.133435
C9 C 0.1652(4) 0.5596(3) 0.2945(2)
C10 C -0.0262(4) 0.5478(4) 0.1971(2)
H4 H -0.019669 0.638644 0.190107
H5 H -0.098514 0.526737 0.238059
C11 C 0.3798(4) 0.1836(3) 0.1025(2)
C12 C -0.0849(4) 0.2587(3) 0.0260(2)
H6 H -0.055376 0.179377 0.013245
C13 C 0.3180(4) 0.5431(3) 0.3267(2)
C14 C 0.3204(4) 0.1784(3) 0.3296(2)
C15 C -0.1777(4) 0.2954(3) -0.0275(2)
H7 H -0.208787 0.242069 -0.076474
C16 C 0.2008(4) 0.6519(3) 0.5323(2)
C17 C 0.3906(4) 0.2976(4) 0.0536(2)
H8 H 0.296958 0.325645 0.055845
H9 H 0.409976 0.268079 -0.001173
H10 H 0.471559 0.370056 0.075759
C18 C -0.1759(4) 0.4929(3) 0.0654(2)
H11 H -0.207773 0.571097 0.078553
C19 C 0.7152(4) 0.8031(4) 0.2464(2)
C20 C 0.2495(4) 0.0715(3) 0.0640(2)
H12 H 0.238912 -0.001780 0.092863
H13 H 0.270866 0.044338 0.009174
H14 H 0.157257 0.101682 0.065876
C21 C -0.2237(4) 0.4130(4) -0.0072(2)
H15 H -0.286758 0.438045 -0.042462
C22 C 0.7237(4) 0.7401(4) 0.3110(2)
H16 H 0.816007 0.752155 0.338477
C23 C 0.4472(4) 0.7035(3) 0.2314(2)
H17 H 0.354687 0.692547 0.204317
C24 C 0.5310(4) 0.1410(4) 0.0954(2)
H18 H 0.611168 0.212416 0.119614
H19 H 0.550253 0.117719 0.039807
H20 H 0.525904 0.066154 0.122357
C25 C 0.3040(4) 0.6244(4) 0.5838(2)
H21 H 0.377906 0.581336 0.563569
C26 C 0.1904(4) 0.7286(4) 0.6969(2)
H22 H 0.187477 0.755389 0.751870
C27 C 0.5772(4) 0.7860(4) 0.2053(2)
H23 H 0.570675 0.828247 0.161249
C28 C 0.2134(4) 0.6112(3) 0.4444(2)
C29 C 0.5955(4) 0.6584(4) 0.3358(2)
H24 H 0.603569 0.615963 0.379599
C30 C 0.2969(4) 0.6616(4) 0.6663(2)
H25 H 0.364659 0.640966 0.701035
C31 C 0.0915(4) 0.7173(4) 0.5626(2)
H26 H 0.021322 0.735293 0.528124
C32 C 0.3076(5) 0.0814(4) 0.3909(2)
C33 C 0.0879(5) 0.7554(4) 0.6444(2)
H27 H 0.015252 0.799905 0.664628
C34 C 0.8496(5) 0.9440(5) 0.1597(3)
H28 H 0.825708 0.878907 0.112443
H29 H 0.947762 0.999951 0.155376
H30 H 0.775187 0.996280 0.165062
C35 C 0.4486(6) 0.0204(4) 0.3909(3)
H31 H 0.460847 -0.022733 0.337863
H32 H 0.434818 -0.042587 0.427440
H33 H 0.537209 0.089002 0.407482
C36 C 0.3025(5) 0.1516(4) 0.4770(2)
H34 H 0.394648 0.217568 0.490431
H35 H 0.291665 0.088500 0.513399
H36 H 0.218090 0.192770 0.481177
C37 C 0.1610(6) -0.0267(4) 0.3743(3)
H37 H 0.075527 0.013078 0.377404
H38 H 0.153564 -0.085011 0.413472
H39 H 0.162382 -0.075811 0.321650
loop_
_geom_bond_atom_site_label_1
_geom_bond_atom_site_label_2
_geom_bond_site_symmetry_1
_geom_bond_site_symmetry_2
S1 C9 1_555 1_555
O1 C4 1_555 1_555
O2 C19 1_555 1_555
N1 C9 1_555 1_555
N2 C13 1_555 1_555
C1 H1 1_555 1_555
C2 C1 1_555 1_555
C3 C8 1_555 1_555
C4 C2 1_555 1_555
C5 C13 1_555 1_555
C6 C1 1_555 1_555
C7 C6 1_555 1_555
H2 C7 1_555 1_555
C8 H3 1_555 1_555
C9 C13 1_555 1_555
C10 N1 1_555 1_555
H4 C10 1_555 1_555
H5 C10 1_555 1_555
C11 C2 1_555 1_555
C12 C8 1_555 1_555
H6 C12 1_555 1_555
C13 C6 1_555 1_555
C14 C4 1_555 1_555
C15 C12 1_555 1_555
H7 C15 1_555 1_555
C16 C25 1_555 1_555
C17 C11 1_555 1_555
H8 C17 1_555 1_555
H9 C17 1_555 1_555
H10 C17 1_555 1_555
C18 C3 1_555 1_555
H11 C18 1_555 1_555
C19 C22 1_555 1_555
C20 C11 1_555 1_555
H12 C20 1_555 1_555
H13 C20 1_555 1_555
H14 C20 1_555 1_555
C21 C15 1_555 1_555
H15 C21 1_555 1_555
C22 H16 1_555 1_555
C23 C5 1_555 1_555
H17 C23 1_555 1_555
C24 C11 1_555 1_555
H18 C24 1_555 1_555
H19 C24 1_555 1_555
H20 C24 1_555 1_555
C25 H21 1_555 1_555
C26 H22 1_555 1_555
C27 C19 1_555 1_555
H23 C27 1_555 1_555
C28 S1 1_555 1_555
C29 C5 1_555 1_555
H24 C29 1_555 1_555
C30 C25 1_555 1_555
H25 C30 1_555 1_555
C31 C16 1_555 1_555
H26 C31 1_555 1_555
C32 C14 1_555 1_555
C33 C26 1_555 1_555
H27 C33 1_555 1_555
C34 O2 1_555 1_555
H28 C34 1_555 1_555
H29 C34 1_555 1_555
H30 C34 1_555 1_555
C35 C32 1_555 1_555
H31 C35 1_555 1_555
H32 C35 1_555 1_555
H33 C35 1_555 1_555
C36 C32 1_555 1_555
H34 C36 1_555 1_555
H35 C36 1_555 1_555
H36 C36 1_555 1_555
C37 C32 1_555 1_555
H37 C37 1_555 1_555
H38 C37 1_555 1_555
H39 C37 1_555 1_555
N2 C28 1_555 1_555
C3 C10 1_555 1_555
C7 C14 1_555 1_555
C16 C28 1_555 1_555
C18 C21 1_555 1_555
C22 C29 1_555 1_555
C23 C27 1_555 1_555
C26 C30 1_555 1_555
C31 C33 1_555 1_555

#END
