
#######################################################################
#
#                 Cambridge Crystallographic Data Centre
#                                CCDC 
#
#######################################################################
#
# If this CIF has been generated from an entry in the Cambridge 
# Structural Database, then it will include bibliographic, chemical, 
# crystal, experimental, refinement or atomic coordinate data resulting 
# from the CCDC's data processing and validation procedures.
#
#######################################################################

data_IFICOP
_chemical_compound_source        'dry leaves of Rabdosia kameba'
_chemical_name_common            Kamebanin
_chemical_formula_moiety         'C20 H30 O4'
_chemical_name_systematic        
rel-(-)-(1R,4R,8S,9R,10S,13S,16R)-2,8,16-Trihydroxy-5,5,9-trimethyl-14-methylenetetracyclo(11.2.1.0^1,10^.0^4,9^)hexadecan-15-one
_chemical_properties_biological  'cytotoxic and antibacterial activity'
_symmetry_cell_setting           orthorhombic
_symmetry_space_group_name_H-M   'P 21 21 21'
_symmetry_Int_Tables_number      19
_space_group_name_Hall           'P 2ac 2ab'
loop_
_symmetry_equiv_pos_site_id
_symmetry_equiv_pos_as_xyz
1 x,y,z
2 1/2-x,-y,1/2+z
3 -x,1/2+y,1/2-z
4 1/2+x,1/2-y,-z
_cell_length_a                   6.5680(10)
_cell_length_b                   13.282(3)
_cell_length_c                   20.801(5)
_cell_angle_alpha                90
_cell_angle_beta                 90
_cell_angle_gamma                90
_cell_volume                     1814.6
_exptl_crystal_colour            colorless
_exptl_crystal_description       plate
_chemical_melting_point          '539-540 K'
_cell_formula_units_Z            4
_exptl_crystal_recrystallization_method 'chloroform/methanol 1:1'
loop_
_atom_site_label
_atom_site_type_symbol
_atom_site_fract_x
_atom_site_fract_y
_atom_site_fract_z
O1 O 0.3021(4) 0.11106(14) 0.33168(11)
H1 H 0.2025 0.0824 0.3165
O2 O 0.0783(4) 0.56849(15) 0.21511(11)
H2 H 0.1697 0.5746 0.1886
O3 O 0.3610(3) 0.50675(15) 0.13665(11)
H3 H 0.4688 0.5358 0.1439
O4 O -0.1655(4) 0.37908(19) 0.15809(11)
C1 C 0.2431(5) 0.2081(2) 0.35526(14)
H4 H 0.0942 0.2094 0.3582
C2 C 0.3286(6) 0.2169(2) 0.42323(14)
H5 H 0.2853 0.1592 0.4484
H6 H 0.4761 0.2165 0.4215
C3 C 0.2567(7) 0.3126(2) 0.45553(15)
H7 H 0.3194 0.3172 0.4976
H8 H 0.1106 0.3085 0.4618
C4 C 0.3050(6) 0.4090(3) 0.41797(16)
C5 C 0.2344(5) 0.3933(2) 0.34721(13)
H9 H 0.0874 0.3824 0.3512
C6 C 0.2499(6) 0.4876(2) 0.30524(15)
H10 H 0.2150 0.5468 0.3302
H11 H 0.3881 0.4954 0.2895
C7 C 0.1042(5) 0.4762(2) 0.24928(14)
H12 H -0.0288 0.4575 0.2670
C8 C 0.1729(5) 0.3908(2) 0.20545(13)
C9 C 0.1884(4) 0.2898(2) 0.24561(13)
H13 H 0.0481 0.2750 0.2585
C10 C 0.3109(4) 0.2964(2) 0.31095(13)
C11 C 0.2474(5) 0.2022(2) 0.19915(14)
H14 H 0.3062 0.1484 0.2246
H15 H 0.1233 0.1763 0.1801
C12 C 0.3958(6) 0.2271(2) 0.14481(15)
H16 H 0.3896 0.1744 0.1125
H17 H 0.5333 0.2288 0.1618
C13 C 0.3471(5) 0.3285(2) 0.11334(15)
H18 H 0.4375 0.3424 0.0769
C14 C 0.3653(5) 0.4085(2) 0.16532(15)
H19 H 0.4886 0.3989 0.1911
C15 C 0.0163(5) 0.3707(2) 0.15325(15)
C16 C 0.1270(5) 0.3354(2) 0.09450(15)
C17 C 0.0352(7) 0.3149(3) 0.03994(17)
H20 H -0.1052 0.3222 0.0365
H21 H 0.1107 0.2932 0.0047
C18 C 0.1781(8) 0.4934(3) 0.44865(17)
H22 H 0.2229 0.5574 0.4324
H23 H 0.1952 0.4918 0.4945
H24 H 0.0370 0.4839 0.4383
C19 C 0.5298(6) 0.4362(3) 0.42530(17)
H25 H 0.6115 0.3771 0.4192
H26 H 0.5532 0.4628 0.4676
H27 H 0.5660 0.4859 0.3938
C20 C 0.5413(4) 0.2926(2) 0.30027(15)
H28 H 0.5729 0.2411 0.2695
H29 H 0.6082 0.2779 0.3402
H30 H 0.5875 0.3565 0.2844
loop_
_geom_bond_atom_site_label_1
_geom_bond_atom_site_label_2
_geom_bond_site_symmetry_1
_geom_bond_site_symmetry_2
O1 H1 1_555 1_555
O2 H2 1_555 1_555
O3 H3 1_555 1_555
O4 C15 1_555 1_555
C1 O1 1_555 1_555
H4 C1 1_555 1_555
C2 C1 1_555 1_555
H5 C2 1_555 1_555
H6 C2 1_555 1_555
C3 C2 1_555 1_555
H7 C3 1_555 1_555
H8 C3 1_555 1_555
C4 C3 1_555 1_555
C5 C4 1_555 1_555
H9 C5 1_555 1_555
C6 C5 1_555 1_555
H10 C6 1_555 1_555
H11 C6 1_555 1_555
C7 O2 1_555 1_555
H12 C7 1_555 1_555
C8 C7 1_555 1_555
C9 C8 1_555 1_555
H13 C9 1_555 1_555
C10 C1 1_555 1_555
C11 C9 1_555 1_555
H14 C11 1_555 1_555
H15 C11 1_555 1_555
C12 C11 1_555 1_555
H16 C12 1_555 1_555
H17 C12 1_555 1_555
C13 C12 1_555 1_555
H18 C13 1_555 1_555
C14 O3 1_555 1_555
H19 C14 1_555 1_555
C15 C8 1_555 1_555
C16 C13 1_555 1_555
C17 C16 1_555 1_555
H20 C17 1_555 1_555
H21 C17 1_555 1_555
C18 C4 1_555 1_555
H22 C18 1_555 1_555
H23 C18 1_555 1_555
H24 C18 1_555 1_555
C19 C4 1_555 1_555
H25 C19 1_555 1_555
H26 C19 1_555 1_555
H27 C19 1_555 1_555
C20 C10 1_555 1_555
H28 C20 1_555 1_555
H29 C20 1_555 1_555
H30 C20 1_555 1_555
C5 C10 1_555 1_555
C6 C7 1_555 1_555
C8 C14 1_555 1_555
C9 C10 1_555 1_555
C13 C14 1_555 1_555
C15 C16 1_555 1_555

#END
