
#######################################################################
#
#                 Cambridge Crystallographic Data Centre
#                                CCDC 
#
#######################################################################
#
# If this CIF has been generated from an entry in the Cambridge 
# Structural Database, then it will include bibliographic, chemical, 
# crystal, experimental, refinement or atomic coordinate data resulting 
# from the CCDC's data processing and validation procedures.
#
#######################################################################

data_IFICOS
_chemical_formula_moiety         'C14 H14 N2 O2'
_chemical_name_systematic        
'6-[(2,3-dimethylphenyl)amino]pyridine-3-carboxylic acid'
_symmetry_cell_setting           triclinic
_symmetry_space_group_name_H-M   'P -1'
_symmetry_Int_Tables_number      2
_space_group_name_Hall           '-P 1'
loop_
_symmetry_equiv_pos_site_id
_symmetry_equiv_pos_as_xyz
1 x,y,z
2 -x,-y,-z
_cell_length_a                   10.7437(4)
_cell_length_b                   10.8657(4)
_cell_length_c                   11.3689(5)
_cell_angle_alpha                101.8235(16)
_cell_angle_beta                 101.4872(17)
_cell_angle_gamma                100.7778(16)
_cell_volume                     1236.58
_exptl_crystal_colour            colorless
_exptl_crystal_description       plate
_cell_formula_units_Z            4
loop_
_atom_site_label
_atom_site_type_symbol
_atom_site_fract_x
_atom_site_fract_y
_atom_site_fract_z
N1 N 0.85316(13) 0.55146(12) 0.41476(12)
N2 N 0.77022(14) 0.39143(13) 0.23267(13)
H1 H 0.7175(18) 0.3602(17) 0.2769(17)
C1 C 0.94053(16) 0.66031(15) 0.48288(15)
H2 H 0.929162 0.699629 0.561482
C2 C 1.04593(16) 0.71826(15) 0.44507(15)
C3 C 1.06589(16) 0.65440(15) 0.33255(15)
H3 H 1.141217 0.687538 0.306496
C4 C 0.97731(16) 0.54465(15) 0.26028(16)
H4 H 0.989770 0.501639 0.183422
C5 C 0.86717(16) 0.49619(14) 0.30147(15)
C6 C 0.74547(15) 0.34151(14) 0.10210(15)
C7 C 0.71031(15) 0.20702(14) 0.05313(15)
C8 C 0.68576(16) 0.15819(15) -0.07632(15)
C9 C 0.69597(16) 0.24349(16) -0.15156(16)
H5 H 0.679410 0.210260 -0.238695
C10 C 0.72991(16) 0.37638(16) -0.10180(16)
H6 H 0.736949 0.433353 -0.154625
C11 C 0.75345(16) 0.42574(15) 0.02468(15)
H7 H 0.774991 0.516682 0.058906
C12 C 1.12857(17) 0.84661(16) 0.51902(15)
O1 O 1.10331(12) 0.90721(11) 0.61108(11)
C13 C 0.70558(18) 0.11860(16) 0.13834(16)
H8 H 0.669546 0.028925 0.089302
H9 H 0.649961 0.141856 0.193841
H10 H 0.794130 0.127205 0.187576
O2 O 1.22751(12) 0.88972(11) 0.47372(11)
H11 H 1.271(2) 0.979(2) 0.5210(18)
C14 C 0.6540(2) 0.01506(16) -0.13415(18)
H12 H 0.638809 -0.000291 -0.224403
H13 H 0.575109 -0.027152 -0.113560
H14 H 0.727212 -0.020660 -0.102173
N3 N 0.35655(14) 0.13497(13) 0.58188(12)
N4 N 0.26516(14) 0.15835(13) 0.74959(12)
H15 H 0.2170(18) 0.0784(18) 0.7090(16)
C15 C 0.43570(17) 0.18420(16) 0.51667(15)
H16 H 0.442594 0.128662 0.443181
C16 C 0.50763(15) 0.31080(15) 0.55016(14)
C17 C 0.49142(16) 0.39254(15) 0.65569(14)
H17 H 0.537113 0.481046 0.680419
C18 C 0.41054(16) 0.34600(15) 0.72318(15)
H18 H 0.398399 0.401696 0.793955
C19 C 0.34515(16) 0.21377(15) 0.68621(14)
C20 C 0.26689(16) 0.20743(14) 0.87596(15)
C21 C 0.14948(16) 0.18947(14) 0.91273(16)
C22 C 0.15436(17) 0.23320(15) 1.03947(16)
C23 C 0.27286(17) 0.29164(15) 1.12473(17)
H19 H 0.275095 0.320999 1.209967
C24 C 0.38850(17) 0.30758(15) 1.08636(16)
H20 H 0.469377 0.347835 1.145438
C25 C 0.38640(16) 0.26539(15) 0.96335(15)
H21 H 0.465752 0.275468 0.937567
C26 C 0.59689(16) 0.35576(15) 0.47641(15)
O3 O 0.59617(12) 0.29267(11) 0.37327(11)
C27 C 0.02211(17) 0.12318(16) 0.81999(17)
H22 H -0.047383 0.162271 0.843431
H23 H 0.001287 0.030995 0.818329
H24 H 0.029192 0.132939 0.737605
O4 O 0.67731(11) 0.46969(10) 0.53163(11)
H25 H 0.741(2) 0.4977(18) 0.4790(17)
C28 C 0.02989(19) 0.21579(18) 1.08244(19)
H26 H 0.050679 0.246012 1.173010
H27 H -0.015505 0.123973 1.056978
H28 H -0.026540 0.266050 1.045300
loop_
_geom_bond_atom_site_label_1
_geom_bond_atom_site_label_2
_geom_bond_site_symmetry_1
_geom_bond_site_symmetry_2
N1 C1 1_555 1_555
N2 H1 1_555 1_555
C1 H2 1_555 1_555
C2 C1 1_555 1_555
C3 C2 1_555 1_555
H3 C3 1_555 1_555
C4 C3 1_555 1_555
H4 C4 1_555 1_555
C5 N1 1_555 1_555
C6 N2 1_555 1_555
C7 C6 1_555 1_555
C8 C7 1_555 1_555
C9 C8 1_555 1_555
H5 C9 1_555 1_555
C10 C9 1_555 1_555
H6 C10 1_555 1_555
C11 C6 1_555 1_555
H7 C11 1_555 1_555
C12 C2 1_555 1_555
O1 C12 1_555 1_555
C13 C7 1_555 1_555
H8 C13 1_555 1_555
H9 C13 1_555 1_555
H10 C13 1_555 1_555
O2 C12 1_555 1_555
H11 O2 1_555 1_555
C14 C8 1_555 1_555
H12 C14 1_555 1_555
H13 C14 1_555 1_555
H14 C14 1_555 1_555
N3 C15 1_555 1_555
N4 H15 1_555 1_555
C15 H16 1_555 1_555
C16 C15 1_555 1_555
C17 C16 1_555 1_555
H17 C17 1_555 1_555
C18 C17 1_555 1_555
H18 C18 1_555 1_555
C19 N3 1_555 1_555
C20 N4 1_555 1_555
C21 C20 1_555 1_555
C22 C21 1_555 1_555
C23 C22 1_555 1_555
H19 C23 1_555 1_555
C24 C23 1_555 1_555
H20 C24 1_555 1_555
C25 C20 1_555 1_555
H21 C25 1_555 1_555
C26 C16 1_555 1_555
O3 C26 1_555 1_555
C27 C21 1_555 1_555
H22 C27 1_555 1_555
H23 C27 1_555 1_555
H24 C27 1_555 1_555
O4 C26 1_555 1_555
H25 O4 1_555 1_555
C28 C22 1_555 1_555
H26 C28 1_555 1_555
H27 C28 1_555 1_555
H28 C28 1_555 1_555
N2 C5 1_555 1_555
C4 C5 1_555 1_555
C10 C11 1_555 1_555
N4 C19 1_555 1_555
C18 C19 1_555 1_555
C24 C25 1_555 1_555

#END
