
#######################################################################
#
#                 Cambridge Crystallographic Data Centre
#                                CCDC 
#
#######################################################################
#
# If this CIF has been generated from an entry in the Cambridge 
# Structural Database, then it will include bibliographic, chemical, 
# crystal, experimental, refinement or atomic coordinate data resulting 
# from the CCDC's data processing and validation procedures.
#
#######################################################################

data_IFIDAF
_chemical_formula_moiety         'C12 H8 F2 N2 O2'
_chemical_name_systematic        
'6-[(2,3-difluorophenyl)amino]pyridine-3-carboxylic acid'
_symmetry_cell_setting           orthorhombic
_symmetry_space_group_name_H-M   'P c a 21'
_symmetry_Int_Tables_number      29
_space_group_name_Hall           'P 2c -2ac'
loop_
_symmetry_equiv_pos_site_id
_symmetry_equiv_pos_as_xyz
1 x,y,z
2 -x,-y,1/2+z
3 1/2-x,y,1/2+z
4 1/2+x,-y,z
_cell_length_a                   19.5722(1)
_cell_length_b                   3.9750(4)
_cell_length_c                   13.5879(6)
_cell_angle_alpha                90
_cell_angle_beta                 90
_cell_angle_gamma                90
_cell_volume                     1057.13
_exptl_crystal_colour            colorless
_exptl_crystal_description       block
_cell_formula_units_Z            4
loop_
_atom_site_label
_atom_site_type_symbol
_atom_site_fract_x
_atom_site_fract_y
_atom_site_fract_z
N1 N 0.54393(16) 0.1144(9) 0.7412(2)
C1 C 0.50567(19) 0.055(1) 0.6609(3)
H1 H 0.464674 -0.070009 0.668905
C2 C 0.5223(2) 0.1646(10) 0.5677(3)
C3 C 0.58104(19) 0.3636(10) 0.5590(3)
H2 H 0.593786 0.449536 0.496379
C4 C 0.62035(19) 0.4356(10) 0.6399(3)
H3 H 0.659472 0.575606 0.634097
C5 C 0.60184(18) 0.2991(10) 0.7311(3)
N2 N 0.63794(15) 0.3408(9) 0.8162(2)
H4 H 0.612(2) 0.271(10) 0.871(3)
C6 C 0.7034(2) 0.490(2) 0.8292(4)
C7 C 0.7569(2) 0.4303(18) 0.7655(4)
F1 F 0.75009(13) 0.2160(6) 0.6883(2)
C8 C 0.8200(2) 0.5766(14) 0.7816(4)
F2 F 0.86980(12) 0.5116(8) 0.7157(2)
C9 C 0.8320(3) 0.7736(14) 0.8614(4)
H5 H 0.875391 0.875438 0.871339
C10 C 0.7792(3) 0.8220(13) 0.9281(4)
H6 H 0.787199 0.952864 0.985482
C11 C 0.7152(2) 0.6835(17) 0.9128(4)
H7 H 0.679638 0.720378 0.959092
C12 C 0.48193(19) 0.0609(11) 0.4823(3)
O1 O 0.42996(13) -0.1108(7) 0.4897(2)
O2 O 0.50737(14) 0.1614(8) 0.3973(2)
H8 H 0.481(2) 0.028(14) 0.342(3)
C13? C 0.705(2) 0.48(2) 0.807(4)
C14? C 0.7296(19) 0.65(2) 0.889(4)
F3? F 0.6856(15) 0.690(11) 0.965(2)
C15? C 0.7960(16) 0.761(18) 0.894(3)
F4? F 0.8168(15) 0.935(7) 0.974(2)
C16? C 0.8405(17) 0.693(17) 0.820(3)
H9? H 0.886346 0.770933 0.822686
C17? C 0.8176(16) 0.506(16) 0.740(3)
H10? H 0.848320 0.457000 0.688220
C18? C 0.751(2) 0.39(2) 0.735(4)
H11? H 0.737177 0.246247 0.682624
loop_
_geom_bond_atom_site_label_1
_geom_bond_atom_site_label_2
_geom_bond_site_symmetry_1
_geom_bond_site_symmetry_2
N1 C1 1_555 1_555
C1 H1 1_555 1_555
C2 C1 1_555 1_555
C3 C2 1_555 1_555
H2 C3 1_555 1_555
C4 C3 1_555 1_555
H3 C4 1_555 1_555
C5 N1 1_555 1_555
N2 C5 1_555 1_555
H4 N2 1_555 1_555
C6 N2 1_555 1_555
C7 C6 1_555 1_555
F1 C7 1_555 1_555
C8 C7 1_555 1_555
F2 C8 1_555 1_555
C9 C8 1_555 1_555
H5 C9 1_555 1_555
C10 C9 1_555 1_555
H6 C10 1_555 1_555
C11 C6 1_555 1_555
H7 C11 1_555 1_555
C12 C2 1_555 1_555
O1 C12 1_555 1_555
O2 C12 1_555 1_555
H8 O2 1_555 1_555
C4 C5 1_555 1_555
C10 C11 1_555 1_555

#END
