
#######################################################################
#
#                 Cambridge Crystallographic Data Centre
#                                CCDC 
#
#######################################################################
#
# If this CIF has been generated from an entry in the Cambridge 
# Structural Database, then it will include bibliographic, chemical, 
# crystal, experimental, refinement or atomic coordinate data resulting 
# from the CCDC's data processing and validation procedures.
#
#######################################################################

data_IFIGAG
_chemical_formula_moiety         'C10 H12 N2 O3 Se1'
_chemical_name_systematic        
1-(2,3-Dideoxy-2,3-didehydro-4-seleno-\b-D-ribofuranosyl)thymine
_chemical_properties_biological  'no anti-HIV activity'
_symmetry_cell_setting           orthorhombic
_symmetry_space_group_name_H-M   'P 21 21 21'
_symmetry_Int_Tables_number      19
_space_group_name_Hall           'P 2ac 2ab'
loop_
_symmetry_equiv_pos_site_id
_symmetry_equiv_pos_as_xyz
1 x,y,z
2 1/2-x,-y,1/2+z
3 -x,1/2+y,1/2-z
4 1/2+x,1/2-y,-z
_cell_length_a                   8.0830(4)
_cell_length_b                   9.1860(4)
_cell_length_c                   14.8770(6)
_cell_angle_alpha                90
_cell_angle_beta                 90
_cell_angle_gamma                90
_cell_volume                     1104.62
_cell_formula_units_Z            4
loop_
_atom_site_label
_atom_site_type_symbol
_atom_site_fract_x
_atom_site_fract_y
_atom_site_fract_z
Se1 Se 0.19110(7) 0.55977(5) 0.78933(3)
O1 O 0.0263(4) 0.4323(5) 0.9756(2)
N1 N -0.3352(6) 0.5100(4) 0.6350(3)
O2 O -0.5322(5) 0.3417(4) 0.6675(2)
O3 O -0.1335(5) 0.6686(4) 0.5943(2)
N2 N -0.1521(5) 0.5970(4) 0.7417(2)
H1 H 0.038(11) 0.348(8) 0.951(5)
H2 H -0.408(7) 0.225(6) 0.846(4)
H3 H 0.275(6) 0.427(5) 0.977(3)
H4 H -0.378(7) 0.529(6) 0.581(4)
H5 H -0.402(7) 0.345(6) 0.915(4)
H6 H 0.182(6) 0.544(4) 1.044(3)
H7 H 0.051(7) 0.775(5) 0.972(3)
H8 H 0.016(8) 0.751(6) 0.716(4)
H9 H 0.285(6) 0.659(4) 0.922(3)
H10 H -0.549(8) 0.344(6) 0.858(4)
H11 H -0.179(6) 0.520(4) 0.864(3)
H12 H -0.130(8) 0.830(6) 0.858(4)
C1 C -0.0063(7) 0.6823(6) 0.7679(3)
C2 C -0.0324(8) 0.7623(6) 0.8553(4)
C3 C 0.0686(8) 0.7369(6) 0.9218(4)
C4 C 0.2004(8) 0.6253(6) 0.9159(3)
C5 C 0.1838(8) 0.5035(6) 0.9835(3)
C6 C -0.2021(7) 0.5962(5) 0.6534(3)
C7 C -0.4179(6) 0.4171(5) 0.6942(3)
C8 C -0.3563(5) 0.4216(5) 0.7863(3)
C9 C -0.2298(6) 0.5084(5) 0.8051(3)
C10 C -0.4373(8) 0.3263(7) 0.8548(4)
loop_
_geom_bond_atom_site_label_1
_geom_bond_atom_site_label_2
_geom_bond_site_symmetry_1
_geom_bond_site_symmetry_2
Se1 C1 1_555 1_555
O1 H1 1_555 1_555
N1 H4 1_555 1_555
O2 C7 1_555 1_555
O3 C6 1_555 1_555
N2 C1 1_555 1_555
H2 C10 1_555 1_555
H3 C5 1_555 1_555
H5 C10 1_555 1_555
H6 C5 1_555 1_555
H7 C3 1_555 1_555
H8 C1 1_555 1_555
H9 C4 1_555 1_555
H10 C10 1_555 1_555
H11 C9 1_555 1_555
H12 C2 1_555 1_555
C1 C2 1_555 1_555
C2 C3 1_555 1_555
C3 C4 1_555 1_555
C4 Se1 1_555 1_555
C5 O1 1_555 1_555
C6 N1 1_555 1_555
C7 N1 1_555 1_555
C8 C7 1_555 1_555
C9 N2 1_555 1_555
C10 C8 1_555 1_555
N2 C6 1_555 1_555
C4 C5 1_555 1_555
C8 C9 1_555 1_555

#END
