
#######################################################################
#
#                 Cambridge Crystallographic Data Centre
#                                CCDC 
#
#######################################################################
#
# If this CIF has been generated from an entry in the Cambridge 
# Structural Database, then it will include bibliographic, chemical, 
# crystal, experimental, refinement or atomic coordinate data resulting 
# from the CCDC's data processing and validation procedures.
#
#######################################################################

data_IFINAM
_chemical_name_common            
'C-Methylcalix(4)resorcinarene methanol solvate'
_chemical_formula_moiety         'C32 H32 O8,2(C1 H4 O1)'
_chemical_name_systematic        
'2,8,14,20-Tetramethyl-4,6,10,12,16,18,22,24-octahydroxycalix(4)arene methanol solvate'
_symmetry_cell_setting           orthorhombic
_symmetry_space_group_name_H-M   'P n m a'
_symmetry_Int_Tables_number      62
_space_group_name_Hall           '-P 2ac 2n'
loop_
_symmetry_equiv_pos_site_id
_symmetry_equiv_pos_as_xyz
1 x,y,z
2 1/2+x,y,1/2-z
3 1/2-x,1/2+y,1/2+z
4 x,1/2-y,z
5 -x,-y,-z
6 1/2-x,-y,1/2+z
7 1/2+x,1/2-y,1/2-z
8 -x,1/2+y,-z
_cell_length_a                   14.0627(4)
_cell_length_b                   13.6940(4)
_cell_length_c                   16.0505(5)
_cell_angle_alpha                90
_cell_angle_beta                 90
_cell_angle_gamma                90
_cell_volume                     3090.92
_exptl_crystal_colour            colorless
_cell_formula_units_Z            4
_exptl_crystal_recrystallization_method 'dichloromethane/methanol 9:1'
loop_
_atom_site_label
_atom_site_type_symbol
_atom_site_fract_x
_atom_site_fract_y
_atom_site_fract_z
O1 O 0.52289(9) 0.65098(9) 0.71588(7)
H1 H 0.554(3) 0.630(3) 0.7569(18)
O2 O 0.72906(10) 0.40995(9) 0.60331(9)
H3 H 0.7831(15) 0.405(4) 0.581(3)
O3 O 0.88240(11) 0.40032(10) 0.35444(9)
H5 H 0.915(3) 0.383(4) 0.313(2)
O4 O 1.09743(10) 0.65246(11) 0.43398(12)
H7 H 1.133(3) 0.610(3) 0.412(3)
C1 C 0.55864(11) 0.65753(11) 0.56918(10)
C2 C 0.56867(11) 0.61306(11) 0.64701(10)
C3 C 0.62339(12) 0.52935(12) 0.65712(11)
H9 H 0.6272 0.4987 0.7101
C4 C 0.67241(12) 0.49057(12) 0.58997(11)
C5 C 0.66481(12) 0.53206(12) 0.51063(11)
C6 C 0.60753(12) 0.61472(12) 0.50291(10)
H10 H 0.6014 0.6436 0.4494
C7 C 0.49857(16) 0.7500 0.55845(15)
H11 H 0.4507 0.7500 0.6045
C8 C 0.44259(19) 0.7500 0.47680(16)
H12 H 0.4869 0.7500 0.4297
H13 H 0.4054 0.6897 0.4726
C9 C 0.72270(12) 0.49177(13) 0.43818(11)
H14 H 0.7266 0.4193 0.4453
C10 C 0.67648(14) 0.51195(17) 0.35283(12)
H15 H 0.6770 0.5823 0.3418
H16 H 0.6107 0.4883 0.3532
H17 H 0.7124 0.4781 0.3092
C11 C 0.82410(12) 0.53171(12) 0.43960(10)
C12 C 0.89802(13) 0.48692(12) 0.39541(11)
C13 C 0.98813(13) 0.52819(13) 0.39222(12)
H18 H 1.0367 0.4981 0.3601
C14 C 1.00720(12) 0.61325(13) 0.43591(12)
C15 C 0.93699(12) 0.65854(12) 0.48334(11)
C16 C 0.84670(12) 0.61695(12) 0.48243(11)
H19 H 0.7976 0.6486 0.5128
C17 C 0.95727(17) 0.7500 0.53410(16)
H20 H 1.0268 0.7500 0.5470
C18 C 0.9043(2) 0.7500 0.61756(17)
H21 H 0.8356 0.7500 0.6074
H22 H 0.9192 0.6900 0.6482
C15C C 0.93699(12) 0.84146(12) 0.48334(11)
C14C C 1.00720(12) 0.88675(13) 0.43591(12)
O4C O 1.09743(10) 0.84754(11) 0.43398(12)
H7C H 1.133(3) 0.890(3) 0.412(3)
C13C C 0.98813(13) 0.97181(13) 0.39222(12)
C12C C 0.89802(13) 1.01308(12) 0.39541(11)
O3C O 0.88240(11) 1.09968(10) 0.35444(9)
H5C H 0.915(3) 1.117(4) 0.313(2)
C11C C 0.82410(12) 0.96829(12) 0.43960(10)
C9C C 0.72270(12) 1.00823(13) 0.43818(11)
C5C C 0.66481(12) 0.96794(12) 0.51063(11)
C4C C 0.67241(12) 1.00943(12) 0.58997(11)
O2C O 0.72906(10) 1.09005(9) 0.60331(9)
H3C H 0.7831(15) 1.095(4) 0.581(3)
C3C C 0.62339(12) 0.97065(12) 0.65712(11)
C2C C 0.56867(11) 0.88694(11) 0.64701(10)
O1C O 0.52289(9) 0.84902(9) 0.71588(7)
H1C H 0.554(3) 0.870(3) 0.7569(18)
C1C C 0.55864(11) 0.84247(11) 0.56918(10)
C6C C 0.60753(12) 0.88528(12) 0.50291(10)
H10C H 0.6014 0.8564 0.4494
H13C H 0.4054 0.8103 0.4726
H9C H 0.6272 1.0013 0.7101
H14C H 0.7266 1.0807 0.4453
C10C C 0.67648(14) 0.98805(17) 0.35283(12)
H15C H 0.6770 0.9177 0.3418
H16C H 0.6107 1.0117 0.3532
H17C H 0.7124 1.0219 0.3092
C16C C 0.84670(12) 0.88305(12) 0.48243(11)
H19C H 0.7976 0.8514 0.5128
H18C H 1.0367 1.0019 0.3601
H22C H 0.9192 0.8100 0.6482
O5 O 0.7623(2) 0.2500 0.3661(2)
C19 C 0.7257(3) 0.2500 0.2903(4)
O6 O 0.6931(2) 0.2500 0.70064(17)
C20 C 0.6377(4) 0.2500 0.7708(3)
H2? H 0.524(3) 0.71225(19) 0.714(3)
H4? H 0.716(4) 0.374(3) 0.644(2)
H6? H 0.836(2) 0.363(3) 0.363(3)
H8? H 1.101(4) 0.7123(9) 0.423(3)
H23? H 0.8021 0.2045 0.3703
H24? H 0.6748 0.2988 0.2871
H25? H 0.6996 0.1853 0.2779
H26? H 0.7754 0.2659 0.2498
H27? H 0.6663 0.2173 0.6631
H28? H 0.6687 0.2887 0.8143
H29? H 0.6292 0.1828 0.7904
H30? H 0.5755 0.2785 0.7578
loop_
_geom_bond_atom_site_label_1
_geom_bond_atom_site_label_2
_geom_bond_site_symmetry_1
_geom_bond_site_symmetry_2
O1 H1 1_555 1_555
O2 H3 1_555 1_555
O3 H5 1_555 1_555
O4 H7 1_555 1_555
C1 C2 1_555 1_555
C2 O1 1_555 1_555
C3 C2 1_555 1_555
H9 C3 1_555 1_555
C4 O2 1_555 1_555
C5 C4 1_555 1_555
C6 C1 1_555 1_555
H10 C6 1_555 1_555
C7 C1 1_555 1_555
H11 C7 1_555 1_555
C8 C7 1_555 1_555
H12 C8 1_555 1_555
H13 C8 1_555 1_555
C9 C5 1_555 1_555
H14 C9 1_555 1_555
C10 C9 1_555 1_555
H15 C10 1_555 1_555
H16 C10 1_555 1_555
H17 C10 1_555 1_555
C11 C9 1_555 1_555
C12 O3 1_555 1_555
C13 C12 1_555 1_555
H18 C13 1_555 1_555
C14 O4 1_555 1_555
C15 C14 1_555 1_555
C16 C11 1_555 1_555
H19 C16 1_555 1_555
C17 C15 1_555 1_555
H20 C17 1_555 1_555
C18 C17 1_555 1_555
H21 C18 1_555 1_555
H22 C18 1_555 1_555
O5 C19 1_555 1_555
O6 C20 1_555 1_555
C15C C17 1_555 1_555
C14C C15C 1_555 1_555
O4C C14C 1_555 1_555
H7C O4C 1_555 1_555
C13C C14C 1_555 1_555
C12C C13C 1_555 1_555
O3C C12C 1_555 1_555
H5C O3C 1_555 1_555
C11C C12C 1_555 1_555
C9C C11C 1_555 1_555
C5C C9C 1_555 1_555
C4C C5C 1_555 1_555
O2C C4C 1_555 1_555
H3C O2C 1_555 1_555
C3C C4C 1_555 1_555
C2C C3C 1_555 1_555
O1C C2C 1_555 1_555
H1C O1C 1_555 1_555
C1C C7 1_555 1_555
C6C C5C 1_555 1_555
H10C C6C 1_555 1_555
H13C C8 1_555 1_555
H9C C3C 1_555 1_555
H14C C9C 1_555 1_555
C10C C9C 1_555 1_555
H15C C10C 1_555 1_555
H16C C10C 1_555 1_555
H17C C10C 1_555 1_555
C16C C15C 1_555 1_555
H19C C16C 1_555 1_555
H18C C13C 1_555 1_555
H22C C18 1_555 1_555
C3 C4 1_555 1_555
C5 C6 1_555 1_555
C11 C12 1_555 1_555
C13 C14 1_555 1_555
C15 C16 1_555 1_555
C11C C16C 1_555 1_555
C2C C1C 1_555 1_555
C1C C6C 1_555 1_555

#END
