
#######################################################################
#
#                 Cambridge Crystallographic Data Centre
#                                CCDC 
#
#######################################################################
#
# If this CIF has been generated from an entry in the Cambridge 
# Structural Database, then it will include bibliographic, chemical, 
# crystal, experimental, refinement or atomic coordinate data resulting 
# from the CCDC's data processing and validation procedures.
#
#######################################################################

data_IFIZAB
_chemical_formula_moiety         'C37 H36 O4'
_chemical_name_systematic        
anti-4-(3,5-di-t-butyl-4-hydroxyphenyl)-2-phenyl-2H,4H-spiro[1-benzopyran-3,2'-indene]-1',3'-dione
_symmetry_cell_setting           triclinic
_symmetry_space_group_name_H-M   'P -1'
_symmetry_Int_Tables_number      2
_space_group_name_Hall           '-P 1'
loop_
_symmetry_equiv_pos_site_id
_symmetry_equiv_pos_as_xyz
1 x,y,z
2 -x,-y,-z
_cell_length_a                   11.6003(10)
_cell_length_b                   11.8993(10)
_cell_length_c                   11.9592(10)
_cell_angle_alpha                98.576(3)
_cell_angle_beta                 109.276(3)
_cell_angle_gamma                104.696(3)
_cell_volume                     1457.43
_exptl_crystal_colour            colorless
_exptl_crystal_description       block
_cell_formula_units_Z            2
loop_
_atom_site_label
_atom_site_type_symbol
_atom_site_fract_x
_atom_site_fract_y
_atom_site_fract_z
O1 O 0.46734(10) 0.08690(8) 0.30049(10)
O2 O 0.63992(10) 0.23480(9) 0.55072(9)
O3 O 0.67406(10) 0.41452(9) 0.23307(9)
O4 O 0.23178(10) 0.51629(9) -0.04194(9)
H1 H 0.284183 0.538724 -0.075050
C1 C 0.37632(13) 0.11165(12) 0.34079(13)
C2 C 0.29027(14) 0.01337(13) 0.35350(14)
H2 H 0.297192 -0.064547 0.335363
C3 C 0.19516(14) 0.03022(13) 0.39259(14)
H3 H 0.136344 -0.036519 0.401180
C4 C 0.18453(14) 0.14441(14) 0.41963(13)
H4 H 0.118062 0.155525 0.445318
C5 C 0.27202(14) 0.24139(13) 0.40858(13)
H5 H 0.265198 0.319258 0.427460
C6 C 0.36999(13) 0.22711(12) 0.37029(12)
C7 C 0.46409(13) 0.33587(12) 0.35981(12)
H6 H 0.491905 0.400770 0.435983
C8 C 0.58785(13) 0.30317(12) 0.36064(12)
C9 C 0.66610(13) 0.30792(12) 0.49467(13)
C10 C 0.77850(14) 0.42065(12) 0.54483(13)
C11 C 0.86808(15) 0.47013(15) 0.66460(14)
H7 H 0.860941 0.433891 0.728690
C12 C 0.96843(16) 0.57455(15) 0.68708(15)
H8 H 1.031632 0.609953 0.767851
C13 C 0.97796(15) 0.62844(13) 0.59275(15)
H9 H 1.047335 0.700032 0.610826
C14 C 0.88870(14) 0.57974(13) 0.47409(14)
H10 H 0.895572 0.616361 0.410174
C15 C 0.78776(13) 0.47459(12) 0.45117(13)
C16 C 0.68231(13) 0.40143(12) 0.33366(13)
C17 C 0.54307(13) 0.18082(12) 0.26656(13)
H11 H 0.487735 0.187507 0.185295
C18 C 0.65097(14) 0.13934(12) 0.25058(13)
C19 C 0.72002(14) 0.08847(12) 0.33581(14)
H12 H 0.699920 0.079525 0.405502
C20 C 0.81845(15) 0.05078(13) 0.31874(15)
H13 H 0.865162 0.015888 0.376990
C21 C 0.84915(15) 0.06348(13) 0.21804(15)
H14 H 0.917565 0.038793 0.207846
C22 C 0.77965(17) 0.11232(15) 0.13230(16)
H15 H 0.799512 0.120351 0.062326
C23 C 0.68069(16) 0.14970(15) 0.14835(15)
H16 H 0.632849 0.182688 0.088776
C24 C 0.40144(13) 0.38412(12) 0.25196(12)
C25 C 0.45328(13) 0.50390(12) 0.25386(12)
H17 H 0.527017 0.554149 0.323330
C26 C 0.40135(13) 0.55295(12) 0.15803(12)
C27 C 0.29012(13) 0.47583(12) 0.05774(12)
C28 C 0.22974(13) 0.35634(12) 0.05553(12)
C29 C 0.28943(13) 0.31264(12) 0.15339(12)
H18 H 0.252276 0.231440 0.152558
C30 C 0.10089(13) 0.27653(12) -0.04857(13)
C31 C 0.05243(15) 0.15241(13) -0.02520(15)
H19 H 0.115975 0.110837 -0.021605
H20 H -0.030114 0.104618 -0.091861
H21 H 0.040663 0.162961 0.052714
C32 C 0.11518(16) 0.25510(14) -0.17269(14)
H22 H 0.144831 0.332476 -0.190762
H23 H 0.031542 0.206185 -0.237174
H24 H 0.178265 0.213002 -0.169205
C33 C -0.00360(14) 0.33595(14) -0.05534(15)
H25 H -0.014542 0.346489 0.022971
H26 H -0.085429 0.284748 -0.120975
H27 H 0.022553 0.414502 -0.072322
C34 C 0.46568(13) 0.68549(12) 0.16303(12)
C35 C 0.57648(15) 0.75088(13) 0.28733(13)
H28 H 0.543539 0.746744 0.352777
H29 H 0.613096 0.835167 0.288779
H30 H 0.643569 0.712514 0.299842
C36 C 0.52621(14) 0.69057(14) 0.06617(14)
H31 H 0.586442 0.644527 0.078928
H32 H 0.572745 0.774340 0.073856
H33 H 0.457932 0.656065 -0.015880
C37 C 0.36854(15) 0.75526(13) 0.14661(14)
H34 H 0.296806 0.718122 0.066910
H35 H 0.411767 0.838842 0.150529
H36 H 0.335272 0.753182 0.211964
loop_
_geom_bond_atom_site_label_1
_geom_bond_atom_site_label_2
_geom_bond_site_symmetry_1
_geom_bond_site_symmetry_2
O1 C1 1_555 1_555
O2 C9 1_555 1_555
O3 C16 1_555 1_555
O4 H1 1_555 1_555
C1 C2 1_555 1_555
C2 H2 1_555 1_555
C3 C2 1_555 1_555
H3 C3 1_555 1_555
C4 C3 1_555 1_555
H4 C4 1_555 1_555
C5 C4 1_555 1_555
H5 C5 1_555 1_555
C6 C1 1_555 1_555
C7 C6 1_555 1_555
H6 C7 1_555 1_555
C8 C7 1_555 1_555
C9 C8 1_555 1_555
C10 C9 1_555 1_555
C11 C10 1_555 1_555
H7 C11 1_555 1_555
C12 C11 1_555 1_555
H8 C12 1_555 1_555
C13 C12 1_555 1_555
H9 C13 1_555 1_555
C14 C13 1_555 1_555
H10 C14 1_555 1_555
C15 C10 1_555 1_555
C16 C8 1_555 1_555
C17 O1 1_555 1_555
H11 C17 1_555 1_555
C18 C17 1_555 1_555
C19 C18 1_555 1_555
H12 C19 1_555 1_555
C20 C19 1_555 1_555
H13 C20 1_555 1_555
C21 C20 1_555 1_555
H14 C21 1_555 1_555
C22 C21 1_555 1_555
H15 C22 1_555 1_555
C23 C18 1_555 1_555
H16 C23 1_555 1_555
C24 C7 1_555 1_555
C25 C24 1_555 1_555
H17 C25 1_555 1_555
C26 C25 1_555 1_555
C27 O4 1_555 1_555
C28 C27 1_555 1_555
C29 C24 1_555 1_555
H18 C29 1_555 1_555
C30 C28 1_555 1_555
C31 C30 1_555 1_555
H19 C31 1_555 1_555
H20 C31 1_555 1_555
H21 C31 1_555 1_555
C32 C30 1_555 1_555
H22 C32 1_555 1_555
H23 C32 1_555 1_555
H24 C32 1_555 1_555
C33 C30 1_555 1_555
H25 C33 1_555 1_555
H26 C33 1_555 1_555
H27 C33 1_555 1_555
C34 C26 1_555 1_555
C35 C34 1_555 1_555
H28 C35 1_555 1_555
H29 C35 1_555 1_555
H30 C35 1_555 1_555
C36 C34 1_555 1_555
H31 C36 1_555 1_555
H32 C36 1_555 1_555
H33 C36 1_555 1_555
C37 C34 1_555 1_555
H34 C37 1_555 1_555
H35 C37 1_555 1_555
H36 C37 1_555 1_555
C5 C6 1_555 1_555
C8 C17 1_555 1_555
C14 C15 1_555 1_555
C15 C16 1_555 1_555
C22 C23 1_555 1_555
C26 C27 1_555 1_555
C28 C29 1_555 1_555

#END
