
#######################################################################
#
#                 Cambridge Crystallographic Data Centre
#                                CCDC 
#
#######################################################################
#
# If this CIF has been generated from an entry in the Cambridge 
# Structural Database, then it will include bibliographic, chemical, 
# crystal, experimental, refinement or atomic coordinate data resulting 
# from the CCDC's data processing and validation procedures.
#
#######################################################################

data_IFOFER
_chemical_formula_moiety         'C12 H10 F3 N1 O2 S1'
_chemical_name_systematic        
'methyl 3-[(2,2,2-trifluoroethyl)sulfanyl]-1H-indole-7-carboxylate'
_symmetry_cell_setting           monoclinic
_symmetry_space_group_name_H-M   'P 21/n'
_symmetry_Int_Tables_number      14
_space_group_name_Hall           '-P 2yn'
loop_
_symmetry_equiv_pos_site_id
_symmetry_equiv_pos_as_xyz
1 x,y,z
2 1/2-x,1/2+y,1/2-z
3 -x,-y,-z
4 1/2+x,1/2-y,1/2+z
_cell_length_a                   12.5508(18)
_cell_length_b                   4.7813(7)
_cell_length_c                   20.425(3)
_cell_angle_alpha                90
_cell_angle_beta                 103.082(4)
_cell_angle_gamma                90
_cell_volume                     1193.88
_cell_formula_units_Z            4
loop_
_atom_site_label
_atom_site_type_symbol
_atom_site_fract_x
_atom_site_fract_y
_atom_site_fract_z
C1 C 0.31618(17) 0.0547(5) 0.64594(12)
H1 H 0.268759 0.081929 0.601188
H2 H 0.273165 0.077354 0.680100
H3 H 0.347596 -0.133753 0.649074
C2 C 0.46973(16) 0.2514(4) 0.61364(10)
C3 C 0.55780(16) 0.4588(4) 0.62981(10)
C4 C 0.57384(16) 0.6304(4) 0.68608(10)
H4 H 0.526002 0.613795 0.715874
C5 C 0.65842(16) 0.8269(4) 0.70006(10)
H5 H 0.666180 0.942954 0.738606
C6 C 0.73118(16) 0.8550(4) 0.65850(10)
H6 H 0.788511 0.988899 0.668240
C7 C 0.71857(15) 0.6824(4) 0.60199(10)
C8 C 0.63172(16) 0.4887(4) 0.58785(9)
C9 C 0.72476(16) 0.4498(5) 0.50719(10)
H7 H 0.745640 0.388102 0.467683
C10 C 0.77747(16) 0.6515(4) 0.54965(10)
C11 C 1.00745(16) 0.6408(5) 0.58137(10)
H8 H 0.989207 0.440179 0.573875
H9 H 1.069715 0.681482 0.560541
C12 C 1.04308(17) 0.6912(5) 0.65537(11)
F1 F 0.97234(11) 0.5938(3) 0.68947(6)
F2 F 1.05863(12) 0.9618(3) 0.67086(7)
F3 F 1.13941(10) 0.5637(3) 0.68049(7)
N1 N 0.63770(13) 0.3496(4) 0.52965(8)
H10 H 0.592674 0.217573 0.510171
O1 O 0.40307(11) 0.2589(3) 0.65693(7)
O2 O 0.45635(11) 0.0901(3) 0.56637(7)
S1 S 0.89070(4) 0.84668(11) 0.53885(3)
loop_
_geom_bond_atom_site_label_1
_geom_bond_atom_site_label_2
_geom_bond_site_symmetry_1
_geom_bond_site_symmetry_2
C1 H1 1_555 1_555
H2 C1 1_555 1_555
H3 C1 1_555 1_555
C2 C3 1_555 1_555
C3 C4 1_555 1_555
C4 H4 1_555 1_555
C5 C4 1_555 1_555
H5 C5 1_555 1_555
C6 C5 1_555 1_555
H6 C6 1_555 1_555
C7 C6 1_555 1_555
C8 C3 1_555 1_555
C9 H7 1_555 1_555
C10 C7 1_555 1_555
C11 H8 1_555 1_555
H9 C11 1_555 1_555
C12 C11 1_555 1_555
F1 C12 1_555 1_555
F2 C12 1_555 1_555
F3 C12 1_555 1_555
N1 C8 1_555 1_555
H10 N1 1_555 1_555
O1 C1 1_555 1_555
O2 C2 1_555 1_555
S1 C10 1_555 1_555
C2 O1 1_555 1_555
C7 C8 1_555 1_555
C9 C10 1_555 1_555
C9 N1 1_555 1_555
C11 S1 1_555 1_555

#END
