
#######################################################################
#
#                 Cambridge Crystallographic Data Centre
#                                CCDC 
#
#######################################################################
#
# If this CIF has been generated from an entry in the Cambridge 
# Structural Database, then it will include bibliographic, chemical, 
# crystal, experimental, refinement or atomic coordinate data resulting 
# from the CCDC's data processing and validation procedures.
#
#######################################################################

data_IFOGIW
_chemical_name_common            
(aR)-2-bromo-2'-iodo-6-((SS)-p-tolylsulfinyl)-1,1'-biphenyl
_chemical_formula_moiety         'C19 H14 Br1 I1 O1 S1'
_chemical_name_systematic        
2-bromo-2'-iodo-6-[(4-methylphenyl)sulfinyl]-1,1'-biphenyl
_symmetry_cell_setting           orthorhombic
_symmetry_space_group_name_H-M   'P 21 21 21'
_symmetry_Int_Tables_number      19
_space_group_name_Hall           'P 2ac 2ab'
loop_
_symmetry_equiv_pos_site_id
_symmetry_equiv_pos_as_xyz
1 x,y,z
2 1/2+x,1/2-y,-z
3 -x,1/2+y,1/2-z
4 1/2-x,-y,1/2+z
_cell_length_a                   7.7451(2)
_cell_length_b                   14.5492(5)
_cell_length_c                   15.9101(5)
_cell_angle_alpha                90
_cell_angle_beta                 90
_cell_angle_gamma                90
_cell_volume                     1792.83
_exptl_crystal_colour            colorless
_exptl_crystal_description       prism
_cell_formula_units_Z            4
loop_
_atom_site_label
_atom_site_type_symbol
_atom_site_fract_x
_atom_site_fract_y
_atom_site_fract_z
C1 C 0.1571(4) 0.9535(2) 0.23438(18)
C2 C 0.0832(4) 0.8939(2) 0.29314(18)
H1 H 0.1485 0.8450 0.3167
C3 C -0.0881(4) 0.9077(2) 0.31651(19)
H2 H -0.1416 0.8668 0.3551
C4 C -0.1800(4) 0.9802(2) 0.28408(18)
H3 H -0.2957 0.9906 0.3014
C5 C -0.1028(4) 1.0384(2) 0.22568(17)
C6 C 0.0671(4) 1.02606(19) 0.19832(16)
C7 C 0.1485(3) 1.08705(19) 0.13399(17)
C8 C 0.1063(3) 1.08193(19) 0.04840(18)
C9 C 0.1836(3) 1.1389(2) -0.01012(19)
H4 H 0.1535 1.1344 -0.0679
C10 C 0.3057(4) 1.2028(2) 0.0161(2)
H5 H 0.3583 1.2426 -0.0238
C11 C 0.3509(4) 1.2086(2) 0.1001(2)
H6 H 0.4344 1.2523 0.1180
C12 C 0.2734(4) 1.1504(2) 0.15786(18)
H7 H 0.3066 1.1539 0.2153
C13 C 0.3647(4) 0.8850(2) 0.11072(19)
C14 C 0.2926(4) 0.7988(2) 0.1013(2)
H8 H 0.2521 0.7660 0.1490
C15 C 0.2798(4) 0.7606(2) 0.02187(19)
H9 H 0.2282 0.7018 0.0152
C16 C 0.3411(4) 0.8069(3) -0.0481(2)
C17 C 0.4132(5) 0.8929(2) -0.0377(2)
H10 H 0.4539 0.9256 -0.0854
C18 C 0.4272(4) 0.9327(2) 0.0420(2)
H11 H 0.4788 0.9915 0.0488
C19 C 0.3276(6) 0.7627(3) -0.1340(2)
H12 H 0.2057 0.7530 -0.1481
H13 H 0.3878 0.7035 -0.1335
H14 H 0.3805 0.8031 -0.1761
O1 O 0.4392(3) 0.86010(17) 0.27196(14)
S1 S 0.38529(10) 0.93483(6) 0.21323(5)
Br1 Br -0.23539(4) 1.13962(2) 0.18737(2)
I1 I -0.06834(3) 0.98335(2) 0.00373(2)
loop_
_geom_bond_atom_site_label_1
_geom_bond_atom_site_label_2
_geom_bond_site_symmetry_1
_geom_bond_site_symmetry_2
C1 C2 1_555 1_555
C2 H1 1_555 1_555
C3 C2 1_555 1_555
H2 C3 1_555 1_555
C4 C3 1_555 1_555
H3 C4 1_555 1_555
C5 C4 1_555 1_555
C6 C1 1_555 1_555
C7 C6 1_555 1_555
C8 C7 1_555 1_555
C9 C8 1_555 1_555
H4 C9 1_555 1_555
C10 C9 1_555 1_555
H5 C10 1_555 1_555
C11 C10 1_555 1_555
H6 C11 1_555 1_555
C12 C7 1_555 1_555
H7 C12 1_555 1_555
C13 C14 1_555 1_555
C14 H8 1_555 1_555
C15 C14 1_555 1_555
H9 C15 1_555 1_555
C16 C15 1_555 1_555
C17 C16 1_555 1_555
H10 C17 1_555 1_555
C18 C13 1_555 1_555
H11 C18 1_555 1_555
C19 C16 1_555 1_555
H12 C19 1_555 1_555
H13 C19 1_555 1_555
H14 C19 1_555 1_555
O1 S1 1_555 1_555
S1 C1 1_555 1_555
Br1 C5 1_555 1_555
I1 C8 1_555 1_555
C5 C6 1_555 1_555
C11 C12 1_555 1_555
C13 S1 1_555 1_555
C17 C18 1_555 1_555

#END
