
#######################################################################
#
#                 Cambridge Crystallographic Data Centre
#                                CCDC 
#
#######################################################################
#
# If this CIF has been generated from an entry in the Cambridge 
# Structural Database, then it will include bibliographic, chemical, 
# crystal, experimental, refinement or atomic coordinate data resulting 
# from the CCDC's data processing and validation procedures.
#
#######################################################################

data_IFOGAO
_chemical_name_common            
(aR)-2-chloro-2'-methoxy-6-((SS)-p-tolylsulfinyl)-1,1'-biphenyl
_chemical_formula_moiety         'C20 H17 Cl1 O2 S1'
_chemical_name_systematic        
2-chloro-2'-methoxy-6-[(4-methylphenyl)sulfinyl]-1,1'-biphenyl
_symmetry_cell_setting           orthorhombic
_symmetry_space_group_name_H-M   'P 21 21 21'
_symmetry_Int_Tables_number      19
_space_group_name_Hall           'P 2ac 2ab'
loop_
_symmetry_equiv_pos_site_id
_symmetry_equiv_pos_as_xyz
1 x,y,z
2 1/2-x,-y,1/2+z
3 1/2+x,1/2-y,-z
4 -x,1/2+y,1/2-z
_cell_length_a                   7.8851(3)
_cell_length_b                   13.9461(4)
_cell_length_c                   16.1582(7)
_cell_angle_alpha                90
_cell_angle_beta                 90
_cell_angle_gamma                90
_cell_volume                     1776.86
_exptl_crystal_colour            colorless
_exptl_crystal_description       block
_cell_formula_units_Z            4
loop_
_atom_site_label
_atom_site_type_symbol
_atom_site_fract_x
_atom_site_fract_y
_atom_site_fract_z
C1 C 0.1757(4) 1.0555(2) 0.76745(19)
C2 C 0.1029(5) 1.1184(2) 0.7116(2)
H1 H 0.1689 1.1681 0.6876
C3 C -0.0652(5) 1.1086(3) 0.6909(2)
H2 H -0.1156 1.1517 0.6527
C4 C -0.1609(4) 1.0362(3) 0.7257(2)
H3 H -0.2771 1.0292 0.7114
C5 C -0.0864(4) 0.9739(2) 0.7816(2)
C6 C 0.0838(4) 0.9816(2) 0.80475(19)
C7 C 0.1643(4) 0.9172(2) 0.86684(19)
C8 C 0.1175(4) 0.9232(2) 0.9504(2)
C9 C 0.1957(4) 0.8655(2) 1.0089(2)
H4 H 0.1633 0.8695 1.0654
C10 C 0.3218(4) 0.8017(2) 0.9846(2)
H5 H 0.3752 0.7621 1.0247
C11 C 0.3701(4) 0.7953(2) 0.9027(2)
H6 H 0.4568 0.7519 0.8865
C12 C 0.2910(4) 0.8528(2) 0.8443(2)
H7 H 0.3240 0.8482 0.7879
C13 C -0.0582(6) 0.9958(3) 1.0524(3)
H8 H -0.1025 0.9333 1.0697
H9 H -0.1477 1.0442 1.0574
H10 H 0.0377 1.0135 1.0878
C14 C 0.3837(4) 1.1189(2) 0.8912(2)
C15 C 0.3137(5) 1.2088(2) 0.9044(2)
H11 H 0.2728 1.2455 0.8590
C16 C 0.3038(6) 1.2446(3) 0.9834(2)
H12 H 0.2559 1.3063 0.9921
C17 C 0.3620(4) 1.1928(3) 1.0506(2)
C18 C 0.4317(5) 1.1032(2) 1.0361(2)
H13 H 0.4718 1.0663 1.0815
C19 C 0.4439(4) 1.0664(2) 0.9570(2)
H14 H 0.4935 1.0052 0.9480
C20 C 0.3515(6) 1.2350(3) 1.1360(2)
H15 H 0.4112 1.2966 1.1371
H16 H 0.4041 1.1910 1.1758
H17 H 0.2323 1.2448 1.1509
O1 O -0.0032(3) 0.99048(16) 0.96845(14)
O2 O 0.4557(3) 1.15002(17) 0.73274(16)
S1 S 0.40010(10) 1.07072(6) 0.78868(5)
Cl1 Cl -0.21153(12) 0.88242(7) 0.82191(7)
loop_
_geom_bond_atom_site_label_1
_geom_bond_atom_site_label_2
_geom_bond_site_symmetry_1
_geom_bond_site_symmetry_2
C1 C2 1_555 1_555
C2 H1 1_555 1_555
C3 C2 1_555 1_555
H2 C3 1_555 1_555
C4 C3 1_555 1_555
H3 C4 1_555 1_555
C5 C4 1_555 1_555
C6 C1 1_555 1_555
C7 C6 1_555 1_555
C8 C7 1_555 1_555
C9 C8 1_555 1_555
H4 C9 1_555 1_555
C10 C9 1_555 1_555
H5 C10 1_555 1_555
C11 C10 1_555 1_555
H6 C11 1_555 1_555
C12 C7 1_555 1_555
H7 C12 1_555 1_555
C13 H8 1_555 1_555
H9 C13 1_555 1_555
H10 C13 1_555 1_555
C14 C15 1_555 1_555
C15 H11 1_555 1_555
C16 C15 1_555 1_555
H12 C16 1_555 1_555
C17 C16 1_555 1_555
C18 C17 1_555 1_555
H13 C18 1_555 1_555
C19 C14 1_555 1_555
H14 C19 1_555 1_555
C20 C17 1_555 1_555
H15 C20 1_555 1_555
H16 C20 1_555 1_555
H17 C20 1_555 1_555
O1 C8 1_555 1_555
O2 S1 1_555 1_555
S1 C1 1_555 1_555
Cl1 C5 1_555 1_555
C5 C6 1_555 1_555
C11 C12 1_555 1_555
C13 O1 1_555 1_555
C14 S1 1_555 1_555
C18 C19 1_555 1_555

#END
