
#######################################################################
#
#                 Cambridge Crystallographic Data Centre
#                                CCDC 
#
#######################################################################
#
# If this CIF has been generated from an entry in the Cambridge 
# Structural Database, then it will include bibliographic, chemical, 
# crystal, experimental, refinement or atomic coordinate data resulting 
# from the CCDC's data processing and validation procedures.
#
#######################################################################

data_IFOHUJ
_chemical_formula_moiety         'C23 H19 N1 O3'
_chemical_name_systematic        
4-(buta-2,3-dien-2-yl)-9-methyl-2-phenyl-3a,4,9,9a-tetrahydro-1H-4,9-epoxybenzo[f]isoindole-1,3(2H)-dione
_symmetry_cell_setting           monoclinic
_symmetry_space_group_name_H-M   'P 21/c'
_symmetry_Int_Tables_number      14
_space_group_name_Hall           '-P 2ybc'
loop_
_symmetry_equiv_pos_site_id
_symmetry_equiv_pos_as_xyz
1 x,y,z
2 -x,1/2+y,1/2-z
3 -x,-y,-z
4 x,1/2-y,1/2+z
_cell_length_a                   11.9891(2)
_cell_length_b                   18.6415(3)
_cell_length_c                   8.07137(18)
_cell_angle_alpha                90
_cell_angle_beta                 100.274(2)
_cell_angle_gamma                90
_cell_volume                     1774.99
_exptl_crystal_colour            colorless
_exptl_crystal_description       prism
_cell_formula_units_Z            4
_exptl_crystal_preparation       Fiber
loop_
_atom_site_label
_atom_site_type_symbol
_atom_site_fract_x
_atom_site_fract_y
_atom_site_fract_z
O1 O 0.56859(6) 0.40907(4) 0.41215(9)
O2 O 0.71818(6) 0.24724(4) 0.81794(10)
O3 O 0.92955(5) 0.42918(4) 0.68190(9)
N1 N 0.61844(6) 0.32472(4) 0.62273(10)
C1 C 0.64030(8) 0.37576(5) 0.50515(11)
C2 C 0.76764(8) 0.38229(5) 0.52096(11)
H1 H 0.7922 0.3729 0.4109
C3 C 0.81782(7) 0.32676(5) 0.65438(12)
H2 H 0.8646 0.2902 0.6072
C4 C 0.71671(8) 0.29309(5) 0.71161(12)
C5 C 0.81846(8) 0.45445(5) 0.60136(12)
C6 C 0.76269(8) 0.46849(5) 0.75246(12)
C7 C 0.67491(8) 0.51309(5) 0.77760(13)
H3 H 0.6415 0.5461 0.6937
C8 C 0.63735(9) 0.50754(6) 0.93145(14)
H4 H 0.5792 0.5387 0.9542
C9 C 0.68344(9) 0.45731(6) 1.05192(14)
H5 H 0.6557 0.4544 1.1549
C10 C 0.77028(8) 0.41089(6) 1.02349(13)
H6 H 0.8007 0.3757 1.1041
C11 C 0.80988(8) 0.41838(5) 0.87374(12)
C12 C 0.89243(7) 0.37504(5) 0.79018(12)
C13 C 0.82633(9) 0.51525(5) 0.48199(14)
H7 H 0.8650 0.5559 0.5443
H8 H 0.7499 0.5298 0.4280
H9 H 0.8692 0.4997 0.3958
C14 C 0.99382(8) 0.34195(5) 0.89988(13)
C15 C 1.01172(8) 0.27267(6) 0.90056(13)
C16 C 1.03357(10) 0.20420(6) 0.90180(16)
H10 H 1.0052(13) 0.1709(8) 0.981(2)
H11 H 1.0782(13) 0.1827(8) 0.823(2)
C17 C 1.07395(9) 0.39392(6) 1.00503(16)
H12 H 1.1007 0.4293 0.9312
H13 H 1.1389 0.3676 1.0673
H14 H 1.0342 0.4186 1.0847
C18 C 0.50781(8) 0.30708(5) 0.65474(12)
C19 C 0.43985(8) 0.36066(5) 0.70286(14)
H15 H 0.4647 0.4091 0.7100
C20 C 0.33449(9) 0.34225(6) 0.74049(15)
H16 H 0.2871 0.3784 0.7738
C21 C 0.29865(9) 0.27148(7) 0.72952(16)
H17 H 0.2266 0.2592 0.7548
C22 C 0.36757(10) 0.21859(6) 0.68178(17)
H18 H 0.3428 0.1701 0.6754
C23 C 0.47274(9) 0.23601(6) 0.64310(15)
H19 H 0.5198 0.1999 0.6093
loop_
_geom_bond_atom_site_label_1
_geom_bond_atom_site_label_2
_geom_bond_site_symmetry_1
_geom_bond_site_symmetry_2
O1 C1 1_555 1_555
O2 C4 1_555 1_555
O3 C5 1_555 1_555
N1 C1 1_555 1_555
C1 C2 1_555 1_555
C2 H1 1_555 1_555
C3 C2 1_555 1_555
H2 C3 1_555 1_555
C4 N1 1_555 1_555
C5 C2 1_555 1_555
C6 C5 1_555 1_555
C7 C6 1_555 1_555
H3 C7 1_555 1_555
C8 C7 1_555 1_555
H4 C8 1_555 1_555
C9 C8 1_555 1_555
H5 C9 1_555 1_555
C10 C9 1_555 1_555
H6 C10 1_555 1_555
C11 C6 1_555 1_555
C12 O3 1_555 1_555
C13 C5 1_555 1_555
H7 C13 1_555 1_555
H8 C13 1_555 1_555
H9 C13 1_555 1_555
C14 C12 1_555 1_555
C15 C14 1_555 1_555
C16 C15 1_555 1_555
H10 C16 1_555 1_555
H11 C16 1_555 1_555
C17 C14 1_555 1_555
H12 C17 1_555 1_555
H13 C17 1_555 1_555
H14 C17 1_555 1_555
C18 N1 1_555 1_555
C19 C18 1_555 1_555
H15 C19 1_555 1_555
C20 C19 1_555 1_555
H16 C20 1_555 1_555
C21 C20 1_555 1_555
H17 C21 1_555 1_555
C22 C21 1_555 1_555
H18 C22 1_555 1_555
C23 C18 1_555 1_555
H19 C23 1_555 1_555
C3 C4 1_555 1_555
C3 C12 1_555 1_555
C10 C11 1_555 1_555
C11 C12 1_555 1_555
C22 C23 1_555 1_555

#END
