
#######################################################################
#
#                 Cambridge Crystallographic Data Centre
#                                CCDC 
#
#######################################################################
#
# If this CIF has been generated from an entry in the Cambridge 
# Structural Database, then it will include bibliographic, chemical, 
# crystal, experimental, refinement or atomic coordinate data resulting 
# from the CCDC's data processing and validation procedures.
#
#######################################################################

data_IFOLEX
_chemical_formula_moiety         'C22 H23 Cl1 F1 N1 O2 S1'
_chemical_name_systematic        
3-[(4-chlorophenyl)(fluoro)methylidene]-1-[(4-methylphenyl)sulfonyl]-4-(2-methylprop-1-en-1-yl)pyrrolidine
_symmetry_cell_setting           monoclinic
_symmetry_space_group_name_H-M   'P 21/c'
_symmetry_Int_Tables_number      14
_space_group_name_Hall           '-P 2ybc'
loop_
_symmetry_equiv_pos_site_id
_symmetry_equiv_pos_as_xyz
1 x,y,z
2 -x,1/2+y,1/2-z
3 -x,-y,-z
4 x,1/2-y,1/2+z
_cell_length_a                   20.142(3)
_cell_length_b                   8.359(2)
_cell_length_c                   12.4889(17)
_cell_angle_alpha                90
_cell_angle_beta                 91.811(14)
_cell_angle_gamma                90
_cell_volume                     2101.67
_cell_formula_units_Z            4
loop_
_atom_site_label
_atom_site_type_symbol
_atom_site_fract_x
_atom_site_fract_y
_atom_site_fract_z
C1 C 0.30088(16) 0.4118(6) 0.7150(3)
H1 H 0.2946 0.3557 0.7838
H2 H 0.3456 0.3866 0.6889
C2 C 0.24730(16) 0.3668(6) 0.6331(3)
C3 C 0.21394(16) 0.5173(6) 0.5888(3)
H3 H 0.1709 0.5352 0.6249
C4 C 0.26428(15) 0.6473(6) 0.6239(2)
H4 H 0.2995 0.6596 0.5710
H5 H 0.2421 0.7517 0.6338
C5 C 0.23641(16) 0.2180(6) 0.6029(3)
C6 C 0.18668(16) 0.1483(6) 0.5285(3)
C7 C 0.20417(17) 0.0336(6) 0.4547(3)
H6 H 0.2483 -0.0068 0.4561
C8 C 0.15866(17) -0.0231(6) 0.3793(3)
H7 H 0.1712 -0.1022 0.3293
C9 C 0.09467(17) 0.0359(6) 0.3770(3)
C10 C 0.07460(17) 0.1435(7) 0.4522(3)
H8 H 0.0297 0.1779 0.4527
C11 C 0.12063(16) 0.2017(6) 0.5279(3)
H9 H 0.1073 0.2779 0.5794
C12 C 0.20241(16) 0.5185(6) 0.4687(3)
H10 H 0.2397 0.4925 0.4274
C13 C 0.14713(15) 0.5511(6) 0.4147(3)
C14 C 0.08261(15) 0.5979(7) 0.4627(3)
H11 H 0.0496 0.5136 0.4488
H12 H 0.0668 0.6983 0.4304
H13 H 0.0893 0.6122 0.5401
C15 C 0.14515(17) 0.5385(7) 0.2931(3)
H14 H 0.1905 0.5283 0.2677
H15 H 0.1245 0.6349 0.2622
H16 H 0.1192 0.4443 0.2710
C16 C 0.42040(15) 0.6850(5) 0.7133(3)
C17 C 0.42228(16) 0.7844(6) 0.6239(3)
H17 H 0.3862 0.8542 0.6069
C18 C 0.47736(16) 0.7804(6) 0.5599(3)
H18 H 0.4782 0.8456 0.4976
C19 C 0.53111(17) 0.6826(6) 0.5855(3)
C20 C 0.52904(17) 0.5856(6) 0.6757(3)
H19 H 0.5660 0.5197 0.6946
C21 C 0.47334(16) 0.5845(6) 0.7385(3)
H20 H 0.4715 0.5149 0.7984
C22 C 0.59155(17) 0.6815(8) 0.5158(3)
H21 H 0.5771 0.6748 0.4403
H22 H 0.6195 0.5889 0.5344
H23 H 0.6171 0.7800 0.5278
Cl1 Cl 0.03735(5) -0.0314(2) 0.27958(8)
F1 F 0.27866(9) 0.1032(3) 0.64524(16)
N1 N 0.29172(12) 0.5848(5) 0.7267(2)
O1 O 0.36510(10) 0.5928(4) 0.88733(16)
O2 O 0.32596(11) 0.8458(4) 0.80044(18)
S1 S 0.34969(4) 0.68464(16) 0.79242(7)
loop_
_geom_bond_atom_site_label_1
_geom_bond_atom_site_label_2
_geom_bond_site_symmetry_1
_geom_bond_site_symmetry_2
C1 H1 1_555 1_555
H2 C1 1_555 1_555
C2 C1 1_555 1_555
C3 C2 1_555 1_555
H3 C3 1_555 1_555
C4 C3 1_555 1_555
H4 C4 1_555 1_555
H5 C4 1_555 1_555
C5 C2 1_555 1_555
C6 C5 1_555 1_555
C7 C6 1_555 1_555
H6 C7 1_555 1_555
C8 C7 1_555 1_555
H7 C8 1_555 1_555
C9 C8 1_555 1_555
C10 C9 1_555 1_555
H8 C10 1_555 1_555
C11 C6 1_555 1_555
H9 C11 1_555 1_555
C12 C3 1_555 1_555
H10 C12 1_555 1_555
C13 C12 1_555 1_555
C14 C13 1_555 1_555
H11 C14 1_555 1_555
H12 C14 1_555 1_555
H13 C14 1_555 1_555
C15 C13 1_555 1_555
H14 C15 1_555 1_555
H15 C15 1_555 1_555
H16 C15 1_555 1_555
C16 C17 1_555 1_555
C17 H17 1_555 1_555
C18 C17 1_555 1_555
H18 C18 1_555 1_555
C19 C18 1_555 1_555
C20 C19 1_555 1_555
H19 C20 1_555 1_555
C21 C16 1_555 1_555
H20 C21 1_555 1_555
C22 C19 1_555 1_555
H21 C22 1_555 1_555
H22 C22 1_555 1_555
H23 C22 1_555 1_555
Cl1 C9 1_555 1_555
F1 C5 1_555 1_555
N1 C1 1_555 1_555
O1 S1 1_555 1_555
O2 S1 1_555 1_555
S1 C16 1_555 1_555
C4 N1 1_555 1_555
C10 C11 1_555 1_555
C20 C21 1_555 1_555
N1 S1 1_555 1_555

#END
