
#######################################################################
#
#                 Cambridge Crystallographic Data Centre
#                                CCDC 
#
#######################################################################
#
# If this CIF has been generated from an entry in the Cambridge 
# Structural Database, then it will include bibliographic, chemical, 
# crystal, experimental, refinement or atomic coordinate data resulting 
# from the CCDC's data processing and validation procedures.
#
#######################################################################

data_IFOMAT
_chemical_formula_moiety         'C34 H22 S4,C60'
_chemical_name_systematic        
'2,13-Diphenyl-23,24,25,26-tetrathiapentacyclo[18.2.1.1^3,6^.1^9,12^.1^14,17^]hexacosa-1,3,5,7,9,11,13,15,17,19,21-undecaene C60fullerene'
_symmetry_cell_setting           monoclinic
_symmetry_space_group_name_H-M   'P 21/c'
_symmetry_Int_Tables_number      14
_space_group_name_Hall           '-P 2ybc'
loop_
_symmetry_equiv_pos_site_id
_symmetry_equiv_pos_as_xyz
1 x,y,z
2 -x,1/2+y,1/2-z
3 -x,-y,-z
4 x,1/2-y,1/2+z
_cell_length_a                   13.2250(11)
_cell_length_b                   13.2990(12)
_cell_length_c                   14.9800(14)
_cell_angle_alpha                90
_cell_angle_beta                 101.276(5)
_cell_angle_gamma                90
_cell_volume                     2583.81
_exptl_crystal_colour            black
_exptl_crystal_description       prism
_cell_formula_units_Z            2
loop_
_atom_site_label
_atom_site_type_symbol
_atom_site_fract_x
_atom_site_fract_y
_atom_site_fract_z
S1 S 0.01684(11) 0.38661(11) 0.10895(9)
S2 S 0.05054(11) 0.61106(11) 0.10691(9)
C1 C -0.0282(4) 0.1874(4) 0.0485(4)
H1 H -0.0280 0.1212 0.0724
C2 C 0.0209(4) 0.2569(5) 0.1141(4)
C3 C 0.0777(5) 0.2263(5) 0.1989(4)
H2 H 0.0878 0.1577 0.2157
C4 C 0.1174(4) 0.3033(5) 0.2552(4)
H3 H 0.1582 0.2930 0.3141
C5 C 0.0923(4) 0.3997(5) 0.2181(4)
C6 C 0.1257(4) 0.4913(5) 0.2594(4)
C7 C 0.1127(4) 0.5870(5) 0.2194(4)
C8 C 0.1542(4) 0.6781(5) 0.2585(4)
H4 H 0.1868 0.6837 0.3207
C9 C 0.1438(4) 0.7571(5) 0.2001(4)
H5 H 0.1704 0.8220 0.2179
C10 C 0.0907(4) 0.7358(4) 0.1114(4)
C11 C 0.0765(4) 0.8081(5) 0.0420(4)
H6 H 0.1083 0.8702 0.0625
C12 C 0.1871(5) 0.4853(4) 0.3560(4)
C13 C 0.2884(5) 0.5169(5) 0.3768(4)
H7 H 0.3194 0.5449 0.3304
C14 C 0.3450(5) 0.5082(5) 0.4637(4)
H8 H 0.4145 0.5306 0.4771
C15 C 0.3004(5) 0.4665(5) 0.5323(4)
H9 H 0.3396 0.4601 0.5923
C16 C 0.1999(5) 0.4349(5) 0.5126(4)
H10 H 0.1689 0.4069 0.5591
C17 C 0.1433(5) 0.4439(5) 0.4245(4)
H11 H 0.0738 0.4214 0.4110
S1B S -0.01684(11) 0.61339(11) -0.10895(9)
S2B S -0.05054(11) 0.38894(11) -0.10691(9)
C1B C 0.0282(4) 0.8126(4) -0.0485(4)
H1B H 0.0280 0.8788 -0.0724
C2B C -0.0209(4) 0.7431(5) -0.1141(4)
C3B C -0.0777(5) 0.7737(5) -0.1989(4)
H2B H -0.0878 0.8423 -0.2157
C4B C -0.1174(4) 0.6967(5) -0.2552(4)
H3B H -0.1582 0.7070 -0.3141
C5B C -0.0923(4) 0.6003(5) -0.2181(4)
C6B C -0.1257(4) 0.5087(5) -0.2594(4)
C7B C -0.1127(4) 0.4130(5) -0.2194(4)
C8B C -0.1542(4) 0.3219(5) -0.2585(4)
H4B H -0.1868 0.3163 -0.3207
C9B C -0.1438(4) 0.2429(5) -0.2001(4)
H5B H -0.1704 0.1780 -0.2179
C10B C -0.0907(4) 0.2642(4) -0.1114(4)
C11B C -0.0765(4) 0.1919(5) -0.0420(4)
H6B H -0.1083 0.1298 -0.0625
C12B C -0.1871(5) 0.5147(4) -0.3560(4)
C13B C -0.2884(5) 0.4831(5) -0.3768(4)
H7B H -0.3194 0.4551 -0.3304
C14B C -0.3450(5) 0.4918(5) -0.4637(4)
H8B H -0.4145 0.4694 -0.4771
C15B C -0.3004(5) 0.5335(5) -0.5323(4)
H9B H -0.3396 0.5399 -0.5923
C16B C -0.1999(5) 0.5651(5) -0.5126(4)
H10B H -0.1689 0.5931 -0.5591
C17B C -0.1433(5) 0.5561(5) -0.4245(4)
H11B H -0.0738 0.5786 -0.4110
C18 C 0.6273(5) 0.2753(5) -0.0378(5)
C19 C 0.5818(8) 0.2495(5) 0.0387(5)
C20 C 0.6349(7) 0.2991(6) 0.1210(5)
C21 C 0.7169(6) 0.3599(7) 0.1020(5)
C22 C 0.7144(8) 0.3432(9) 0.0040(6)
C23 C 0.7318(7) 0.4100(10) -0.0489(6)
C24 C 0.6742(5) 0.4298(6) -0.1393(4)
C25 C 0.5882(6) 0.3725(5) -0.1763(4)
C26 C 0.5628(6) 0.2895(5) -0.1218(5)
C27 C 0.4553(6) 0.2785(5) -0.1325(5)
C28 C 0.4123(6) 0.2542(6) -0.0598(7)
C29 C 0.4766(7) 0.2391(5) 0.0275(6)
C30 C 0.5778(5) 0.3321(5) 0.1825(5)
C31 C 0.5991(5) 0.4262(6) 0.2269(4)
C32 C 0.6784(6) 0.4860(6) 0.2080(5)
C33 C 0.7377(5) 0.4512(8) 0.1444(6)
C34 C 0.7638(5) 0.5353(8) 0.0901(6)
C35 C 0.7653(5) 0.5158(6) 0.0007(6)
C36 C 0.7249(5) 0.5864(6) -0.0684(4)
C37 C 0.6707(5) 0.5371(6) -0.1505(4)
C38 C 0.5837(6) 0.5822(5) -0.1970(4)
C39 C 0.4979(5) 0.4199(5) -0.2249(4)
C40 C 0.5043(6) 0.4763(6) 0.2363(4)
C41 C 0.7217(6) 0.6252(7) 0.1161(5)
C42 C 0.6840(5) 0.6760(5) -0.0445(5)
C43 C 0.4107(7) 0.3627(9) -0.2009(6)
C44 C 0.3176(6) 0.3054(6) -0.0509(6)
C45 C 0.4120(7) 0.2818(7) 0.0927(6)
C46 C 0.4635(8) 0.3231(7) 0.1662(6)
C47 C 0.6708(7) 0.5940(8) 0.1921(6)
C18B C 0.3727(5) 0.7247(5) 0.0378(5)
C19B C 0.4182(8) 0.7505(5) -0.0387(5)
C20B C 0.3651(7) 0.7009(6) -0.1210(5)
C21B C 0.2831(6) 0.6401(7) -0.1020(5)
C22B C 0.2856(8) 0.6568(9) -0.0040(6)
C23B C 0.2682(7) 0.5900(10) 0.0489(6)
C24B C 0.3258(5) 0.5702(6) 0.1393(4)
C25B C 0.4118(6) 0.6275(5) 0.1763(4)
C26B C 0.4372(6) 0.7105(5) 0.1218(5)
C27B C 0.5447(6) 0.7215(5) 0.1325(5)
C28B C 0.5877(6) 0.7458(6) 0.0598(7)
C29B C 0.5234(7) 0.7609(5) -0.0275(6)
C30B C 0.4222(5) 0.6679(5) -0.1825(5)
C31B C 0.4009(5) 0.5738(6) -0.2269(4)
C32B C 0.3216(6) 0.5140(6) -0.2080(5)
C33B C 0.2623(5) 0.5488(8) -0.1444(6)
C34B C 0.2362(5) 0.4647(8) -0.0901(6)
C35B C 0.2347(5) 0.4842(6) -0.0007(6)
C36B C 0.2751(5) 0.4136(6) 0.0684(4)
C37B C 0.3293(5) 0.4629(6) 0.1505(4)
C38B C 0.4163(6) 0.4178(5) 0.1970(4)
C39B C 0.5021(5) 0.5801(5) 0.2249(4)
C40B C 0.4957(6) 0.5237(6) -0.2363(4)
C41B C 0.2783(6) 0.3748(7) -0.1161(5)
C42B C 0.3160(5) 0.3240(5) 0.0445(5)
C43B C 0.5893(7) 0.6373(9) 0.2009(6)
C44B C 0.6824(6) 0.6946(6) 0.0509(6)
C45B C 0.5880(7) 0.7182(7) -0.0927(6)
C46B C 0.5365(8) 0.6769(7) -0.1662(6)
C47B C 0.3292(7) 0.4060(8) -0.1921(6)
loop_
_geom_bond_atom_site_label_1
_geom_bond_atom_site_label_2
_geom_bond_site_symmetry_1
_geom_bond_site_symmetry_2
S1 C2 1_555 1_555
S2 C7 1_555 1_555
C1 H1 1_555 1_555
C2 C1 1_555 1_555
C3 C2 1_555 1_555
H2 C3 1_555 1_555
C4 C3 1_555 1_555
H3 C4 1_555 1_555
C5 S1 1_555 1_555
C6 C5 1_555 1_555
C7 C6 1_555 1_555
C8 C7 1_555 1_555
H4 C8 1_555 1_555
C9 C8 1_555 1_555
H5 C9 1_555 1_555
C10 S2 1_555 1_555
C11 C10 1_555 1_555
H6 C11 1_555 1_555
C12 C6 1_555 1_555
C13 C12 1_555 1_555
H7 C13 1_555 1_555
C14 C13 1_555 1_555
H8 C14 1_555 1_555
C15 C14 1_555 1_555
H9 C15 1_555 1_555
C16 C15 1_555 1_555
H10 C16 1_555 1_555
C17 C12 1_555 1_555
H11 C17 1_555 1_555
C18 C19 1_555 1_555
C19 C20 1_555 1_555
C20 C21 1_555 1_555
C21 C22 1_555 1_555
C22 C18 1_555 1_555
C23 C22 1_555 1_555
C24 C23 1_555 1_555
C25 C24 1_555 1_555
C26 C18 1_555 1_555
C27 C26 1_555 1_555
C28 C27 1_555 1_555
C29 C19 1_555 1_555
C30 C20 1_555 1_555
C31 C30 1_555 1_555
C32 C31 1_555 1_555
C33 C21 1_555 1_555
C34 C33 1_555 1_555
C35 C23 1_555 1_555
C36 C35 1_555 1_555
C37 C24 1_555 1_555
C38 C37 1_555 1_555
C39 C25 1_555 1_555
C40 C31 1_555 1_555
C41 C34 1_555 1_555
C42 C36 1_555 1_555
C43 C27 1_555 1_555
C44 C28 1_555 1_555
C45 C29 1_555 1_555
C46 C30 1_555 1_555
C47 C32 1_555 1_555
S1B C2B 1_555 1_555
S2B C7B 1_555 1_555
C1B C11 1_555 1_555
H1B C1B 1_555 1_555
C2B C1B 1_555 1_555
C3B C2B 1_555 1_555
H2B C3B 1_555 1_555
C4B C3B 1_555 1_555
H3B C4B 1_555 1_555
C5B S1B 1_555 1_555
C6B C5B 1_555 1_555
C7B C6B 1_555 1_555
C8B C7B 1_555 1_555
H4B C8B 1_555 1_555
C9B C8B 1_555 1_555
H5B C9B 1_555 1_555
C10B S2B 1_555 1_555
C11B C1 1_555 1_555
H6B C11B 1_555 1_555
C12B C6B 1_555 1_555
C13B C12B 1_555 1_555
H7B C13B 1_555 1_555
C14B C13B 1_555 1_555
H8B C14B 1_555 1_555
C15B C14B 1_555 1_555
H9B C15B 1_555 1_555
C16B C15B 1_555 1_555
H10B C16B 1_555 1_555
C17B C12B 1_555 1_555
H11B C17B 1_555 1_555
C18B C19B 1_555 1_555
C19B C20B 1_555 1_555
C20B C21B 1_555 1_555
C21B C22B 1_555 1_555
C22B C18B 1_555 1_555
C23B C22B 1_555 1_555
C24B C23B 1_555 1_555
C25B C24B 1_555 1_555
C26B C18B 1_555 1_555
C27B C26B 1_555 1_555
C28B C27B 1_555 1_555
C29B C19B 1_555 1_555
C30B C20B 1_555 1_555
C31B C30B 1_555 1_555
C32B C31B 1_555 1_555
C33B C21B 1_555 1_555
C34B C33B 1_555 1_555
C35B C23B 1_555 1_555
C36B C35B 1_555 1_555
C37B C24B 1_555 1_555
C38B C40 1_555 1_555
C39B C40 1_555 1_555
C40B C38 1_555 1_555
C41B C44 1_555 1_555
C42B C44 1_555 1_555
C43B C47 1_555 1_555
C44B C41 1_555 1_555
C45B C42 1_555 1_555
C46B C38 1_555 1_555
C47B C43 1_555 1_555
C4 C5 1_555 1_555
C9 C10 1_555 1_555
C16 C17 1_555 1_555
C25 C26 1_555 1_555
C28 C29 1_555 1_555
C32 C33 1_555 1_555
C34 C35 1_555 1_555
C36 C37 1_555 1_555
C39 C43 1_555 1_555
C39 C40B 1_555 1_555
C41 C47 1_555 1_555
C42 C44B 1_555 1_555
C45 C46 1_555 1_555
C45 C42B 1_555 1_555
C46 C38B 1_555 1_555
C4B C5B 1_555 1_555
C9B C10B 1_555 1_555
C10B C11B 1_555 1_555
C16B C17B 1_555 1_555
C25B C26B 1_555 1_555
C25B C39B 1_555 1_555
C27B C43B 1_555 1_555
C28B C29B 1_555 1_555
C28B C44B 1_555 1_555
C29B C45B 1_555 1_555
C30B C46B 1_555 1_555
C31B C40B 1_555 1_555
C32B C33B 1_555 1_555
C32B C47B 1_555 1_555
C34B C35B 1_555 1_555
C34B C41B 1_555 1_555
C36B C37B 1_555 1_555
C36B C42B 1_555 1_555
C37B C38B 1_555 1_555
C39B C43B 1_555 1_555
C41B C47B 1_555 1_555
C45B C46B 1_555 1_555

#END
