
#######################################################################
#
#                 Cambridge Crystallographic Data Centre
#                                CCDC 
#
#######################################################################
#
# If this CIF has been generated from an entry in the Cambridge 
# Structural Database, then it will include bibliographic, chemical, 
# crystal, experimental, refinement or atomic coordinate data resulting 
# from the CCDC's data processing and validation procedures.
#
#######################################################################

data_IFOMEY
_chemical_formula_moiety         'C36 H32'
_chemical_name_systematic        
10,15-di-t-butylnaphtho[2,1,8-def]pentahelicene
_symmetry_cell_setting           monoclinic
_symmetry_space_group_name_H-M   'P 21/c'
_symmetry_Int_Tables_number      14
_space_group_name_Hall           '-P 2ybc'
loop_
_symmetry_equiv_pos_site_id
_symmetry_equiv_pos_as_xyz
1 x,y,z
2 -x,1/2+y,1/2-z
3 -x,-y,-z
4 x,1/2-y,1/2+z
_cell_length_a                   14.5009(8)
_cell_length_b                   19.1757(9)
_cell_length_c                   9.3758(4)
_cell_angle_alpha                90
_cell_angle_beta                 103.715(3)
_cell_angle_gamma                90
_cell_volume                     2532.75
_exptl_crystal_colour            yellow
_exptl_crystal_description       irregular
_chemical_melting_point          '200 deg.C'
_cell_formula_units_Z            4
_exptl_crystal_recrystallization_method 'dichloromethane / hexane'
loop_
_atom_site_label
_atom_site_type_symbol
_atom_site_fract_x
_atom_site_fract_y
_atom_site_fract_z
C1 C -0.01743(11) 0.04898(9) 0.65396(17)
C2 C 0.07630(11) 0.05299(8) 0.73998(17)
C3 C 0.10283(12) 0.00768(9) 0.86687(17)
C4 C 0.04690(13) -0.05237(9) 0.87139(18)
C5 C -0.04102(13) -0.06022(9) 0.76848(19)
H1 H -0.0768 -0.1018 0.7680
C6 C -0.07478(12) -0.00882(9) 0.67028(18)
H2 H -0.1378 -0.0117 0.6117
C7 C 0.07833(14) -0.10479(10) 0.9805(2)
H3 H 0.0418 -0.1461 0.9786
C8 C 0.15868(15) -0.09672(11) 1.0858(2)
H4 H 0.1817 -0.1341 1.1510
C9 C 0.20949(13) -0.03236(10) 1.10036(19)
C10 C 0.17865(12) 0.02163(9) 0.99666(17)
C11 C 0.21548(13) 0.08914(10) 1.03385(18)
H5 H 0.1914 0.1271 0.9708
C12 C 0.28527(14) 0.10137(12) 1.1589(2)
H6 H 0.3082 0.1474 1.1822
C13 C 0.32260(15) 0.04580(14) 1.2520(2)
H7 H 0.3742 0.0534 1.3343
C14 C 0.28454(14) -0.01909(13) 1.2239(2)
H8 H 0.3090 -0.0563 1.2889
C15 C -0.05437(11) 0.10296(9) 0.54515(17)
C16 C -0.15109(12) 0.10926(9) 0.47914(18)
H9 H -0.1942 0.0776 0.5066
C17 C -0.18689(12) 0.16030(10) 0.37441(18)
C18 C -0.12266(13) 0.20502(9) 0.33290(18)
H10 H -0.1456 0.2392 0.2597
C19 C -0.02530(12) 0.20124(9) 0.39576(17)
C20 C 0.00931(12) 0.15098(8) 0.50640(17)
C21 C 0.10875(12) 0.14552(8) 0.57134(17)
C22 C 0.17346(12) 0.18752(9) 0.51603(18)
C23 C 0.13613(13) 0.23602(9) 0.39974(19)
H11 H 0.1789 0.2632 0.3602
C24 C 0.04196(13) 0.24395(9) 0.34542(19)
H12 H 0.0197 0.2784 0.2726
C25 C 0.14374(11) 0.09741(8) 0.68634(16)
C26 C 0.24229(11) 0.08963(9) 0.73409(17)
H13 H 0.2663 0.0543 0.8040
C27 C 0.30683(12) 0.13140(9) 0.68386(18)
C28 C 0.27075(12) 0.18034(9) 0.57535(18)
H14 H 0.3136 0.2097 0.5407
C29 C -0.29335(12) 0.16347(10) 0.29983(19)
C30 C -0.35532(16) 0.1303(2) 0.3937(3)
H15 H -0.4223 0.1339 0.3420
H16 H -0.3451 0.1549 0.4879
H17 H -0.3381 0.0811 0.4111
C31 C -0.32671(17) 0.23775(14) 0.2639(4)
H18 H -0.2953 0.2570 0.1908
H19 H -0.3107 0.2661 0.3533
H20 H -0.3956 0.2381 0.2243
C32 C -0.31003(15) 0.12205(14) 0.1579(3)
H21 H -0.2737 0.1429 0.0930
H22 H -0.3778 0.1228 0.1093
H23 H -0.2894 0.0737 0.1798
C33 C 0.41391(12) 0.12744(10) 0.75315(19)
C34 C 0.43996(15) 0.19173(12) 0.8527(3)
H24 H 0.4253 0.2342 0.7935
H25 H 0.5079 0.1906 0.9000
H26 H 0.4033 0.1913 0.9280
C35 C 0.47155(14) 0.12822(15) 0.6363(2)
H27 H 0.4554 0.0872 0.5730
H28 H 0.5394 0.1274 0.6840
H29 H 0.4568 0.1706 0.5769
C36 C 0.44240(14) 0.06272(12) 0.8489(3)
H30 H 0.4106 0.0635 0.9302
H31 H 0.5113 0.0625 0.8883
H32 H 0.4235 0.0207 0.7896
loop_
_geom_bond_atom_site_label_1
_geom_bond_atom_site_label_2
_geom_bond_site_symmetry_1
_geom_bond_site_symmetry_2
C1 C2 1_555 1_555
C2 C3 1_555 1_555
C3 C4 1_555 1_555
C4 C5 1_555 1_555
C5 H1 1_555 1_555
C6 C1 1_555 1_555
H2 C6 1_555 1_555
C7 C4 1_555 1_555
H3 C7 1_555 1_555
C8 C7 1_555 1_555
H4 C8 1_555 1_555
C9 C8 1_555 1_555
C10 C3 1_555 1_555
C11 C10 1_555 1_555
H5 C11 1_555 1_555
C12 C11 1_555 1_555
H6 C12 1_555 1_555
C13 C12 1_555 1_555
H7 C13 1_555 1_555
C14 C9 1_555 1_555
H8 C14 1_555 1_555
C15 C1 1_555 1_555
C16 C15 1_555 1_555
H9 C16 1_555 1_555
C17 C16 1_555 1_555
C18 C17 1_555 1_555
H10 C18 1_555 1_555
C19 C18 1_555 1_555
C20 C15 1_555 1_555
C21 C20 1_555 1_555
C22 C21 1_555 1_555
C23 C22 1_555 1_555
H11 C23 1_555 1_555
C24 C19 1_555 1_555
H12 C24 1_555 1_555
C25 C2 1_555 1_555
C26 C25 1_555 1_555
H13 C26 1_555 1_555
C27 C26 1_555 1_555
C28 C22 1_555 1_555
H14 C28 1_555 1_555
C29 C17 1_555 1_555
C30 C29 1_555 1_555
H15 C30 1_555 1_555
H16 C30 1_555 1_555
H17 C30 1_555 1_555
C31 C29 1_555 1_555
H18 C31 1_555 1_555
H19 C31 1_555 1_555
H20 C31 1_555 1_555
C32 C29 1_555 1_555
H21 C32 1_555 1_555
H22 C32 1_555 1_555
H23 C32 1_555 1_555
C33 C27 1_555 1_555
C34 C33 1_555 1_555
H24 C34 1_555 1_555
H25 C34 1_555 1_555
H26 C34 1_555 1_555
C35 C33 1_555 1_555
H27 C35 1_555 1_555
H28 C35 1_555 1_555
H29 C35 1_555 1_555
C36 C33 1_555 1_555
H30 C36 1_555 1_555
H31 C36 1_555 1_555
H32 C36 1_555 1_555
C5 C6 1_555 1_555
C9 C10 1_555 1_555
C13 C14 1_555 1_555
C19 C20 1_555 1_555
C21 C25 1_555 1_555
C23 C24 1_555 1_555
C27 C28 1_555 1_555

#END
