
#######################################################################
#
#                 Cambridge Crystallographic Data Centre
#                                CCDC 
#
#######################################################################
#
# If this CIF has been generated from an entry in the Cambridge 
# Structural Database, then it will include bibliographic, chemical, 
# crystal, experimental, refinement or atomic coordinate data resulting 
# from the CCDC's data processing and validation procedures.
#
#######################################################################

data_IFONOI
_chemical_formula_moiety         'C80 H114 S8'
_chemical_name_systematic        
3,3''',3''''''',4''''-Tetradodecyl-2,2':5',2'':5'',2''':5''',2'''':5'''',2''''':5''''',2'''''':5'''''',2'''''''-octithiophene
_symmetry_cell_setting           monoclinic
_symmetry_space_group_name_H-M   'P 21/c'
_symmetry_Int_Tables_number      14
_space_group_name_Hall           '-P 2ybc'
loop_
_symmetry_equiv_pos_site_id
_symmetry_equiv_pos_as_xyz
1 x,y,z
2 -x,1/2+y,1/2-z
3 -x,-y,-z
4 x,1/2-y,1/2+z
_cell_length_a                   24.780(3)
_cell_length_b                   4.6244(5)
_cell_length_c                   32.191(4)
_cell_angle_alpha                90
_cell_angle_beta                 91.432(5)
_cell_angle_gamma                90
_cell_volume                     3687.7
_cell_formula_units_Z            2
loop_
_atom_site_label
_atom_site_type_symbol
_atom_site_fract_x
_atom_site_fract_y
_atom_site_fract_z
S1 S 0.40541(7) 0.7141(5) 0.88783(6)
S2 S 0.41096(8) 0.5749(5) 0.79299(6)
S3 S 0.39421(8) 0.3060(6) 0.66329(7)
S4 S 0.50021(7) 0.6186(5) 0.56578(6)
C1 C 0.3767(3) 0.6901(18) 0.9358(3)
H1 H 0.3892 0.7912 0.9599
C2 C 0.3338(3) 0.5080(18) 0.9347(2)
H2 H 0.3137 0.4644 0.9586
C3 C 0.3213(3) 0.3878(17) 0.8954(2)
C4 C 0.3584(3) 0.4751(17) 0.8662(2)
C5 C 0.3613(3) 0.4113(18) 0.8217(2)
C6 C 0.3329(3) 0.225(2) 0.7969(3)
H3 H 0.3043 0.1090 0.8067
C7 C 0.3495(3) 0.220(2) 0.7556(2)
H4 H 0.3326 0.1016 0.7350
C8 C 0.3919(3) 0.3979(19) 0.7475(2)
C9 C 0.4186(3) 0.4521(19) 0.7097(2)
C10 C 0.4646(3) 0.6031(18) 0.7024(3)
H5 H 0.4852 0.6946 0.7239
C11 C 0.4791(3) 0.6126(19) 0.6606(3)
H6 H 0.5096 0.7167 0.6513
C12 C 0.4460(3) 0.4612(18) 0.6346(2)
C13 C 0.4494(3) 0.4207(18) 0.5902(2)
C14 C 0.4219(3) 0.2536(17) 0.5620(2)
C15 C 0.4419(3) 0.2797(17) 0.5210(2)
H7 H 0.4271 0.1769 0.4978
C16 C 0.4843(3) 0.4660(18) 0.5181(2)
C17 C 0.2733(3) 0.1939(17) 0.8869(2)
H8 H 0.2610 0.1118 0.9135
H9 H 0.2842 0.0316 0.8689
C18 C 0.2271(3) 0.3588(17) 0.8659(2)
H10 H 0.2402 0.4456 0.8399
H11 H 0.2162 0.5187 0.8843
C19 C 0.1777(3) 0.1726(17) 0.8556(2)
H12 H 0.1875 0.0270 0.8345
H13 H 0.1671 0.0678 0.8809
C20 C 0.1297(3) 0.3479(17) 0.8392(2)
H14 H 0.1394 0.4388 0.8125
H15 H 0.1222 0.5051 0.8591
C21 C 0.0781(3) 0.1691(17) 0.8322(3)
H16 H 0.0851 0.0145 0.8118
H17 H 0.0685 0.0753 0.8587
C22 C 0.0302(3) 0.3512(17) 0.8165(3)
H18 H 0.0396 0.4428 0.7898
H19 H 0.0236 0.5076 0.8367
C23 C -0.0222(3) 0.1736(17) 0.8100(2)
H20 H -0.0158 0.0176 0.7897
H21 H -0.0317 0.0821 0.8366
C24 C -0.0693(3) 0.3585(18) 0.7945(3)
H22 H -0.0597 0.4497 0.7678
H23 H -0.0755 0.5152 0.8148
C25 C -0.1216(3) 0.1888(17) 0.7880(2)
H24 H -0.1328 0.1095 0.8150
H25 H -0.1148 0.0237 0.7692
C26 C -0.1675(3) 0.3730(18) 0.7694(3)
H26 H -0.1728 0.5428 0.7876
H27 H -0.1566 0.4456 0.7420
C27 C -0.2212(3) 0.2138(19) 0.7641(3)
H28 H -0.2459 0.3321 0.7465
H29 H -0.2149 0.0292 0.7494
C28 C -0.2483(3) 0.150(2) 0.8052(3)
H30 H -0.2257 0.0163 0.8216
H31 H -0.2837 0.0622 0.7996
H32 H -0.2528 0.3306 0.8206
C29 C 0.3735(3) 0.0642(16) 0.5710(2)
H33 H 0.3787 -0.0262 0.5987
H34 H 0.3709 -0.0925 0.5501
C30 C 0.3206(3) 0.2384(17) 0.5701(2)
H35 H 0.3148 0.3204 0.5419
H36 H 0.3242 0.4019 0.5898
C31 C 0.2709(3) 0.0580(17) 0.5814(2)
H37 H 0.2673 -0.1067 0.5618
H38 H 0.2764 -0.0219 0.6097
C32 C 0.2192(3) 0.2328(17) 0.5798(2)
H39 H 0.2155 0.3249 0.5521
H40 H 0.2221 0.3892 0.6007
C33 C 0.1686(3) 0.0582(17) 0.5877(3)
H41 H 0.1708 -0.0188 0.6163
H42 H 0.1674 -0.1088 0.5684
C34 C 0.1164(3) 0.2300(17) 0.5821(2)
H43 H 0.1128 0.3588 0.6065
H44 H 0.1195 0.3546 0.5573
C35 C 0.0656(3) 0.0530(17) 0.5774(3)
H45 H 0.0600 -0.0538 0.6036
H46 H 0.0707 -0.0917 0.5552
C36 C 0.0151(3) 0.2260(18) 0.5670(2)
H47 H 0.0220 0.3509 0.5428
H48 H 0.0072 0.3537 0.5908
C37 C -0.0347(3) 0.0380(18) 0.5572(2)
H49 H -0.0265 -0.0931 0.5339
H50 H -0.0422 -0.0833 0.5818
C38 C -0.0853(3) 0.2124(17) 0.5458(2)
H51 H -0.0940 0.3408 0.5693
H52 H -0.0777 0.3363 0.5215
C39 C -0.1342(3) 0.0233(18) 0.5354(2)
H53 H -0.1414 -0.1033 0.5594
H54 H -0.1258 -0.1022 0.5115
C40 C -0.1854(3) 0.2020(18) 0.5247(2)
H55 H -0.1964 0.3095 0.5493
H56 H -0.2146 0.0716 0.5157
H57 H -0.1777 0.3381 0.5022
S1B S 0.59459(7) 0.2859(5) 0.11217(6)
S2B S 0.58904(8) 0.4251(5) 0.20701(6)
S3B S 0.60579(8) 0.6940(6) 0.33671(7)
S4B S 0.49979(7) 0.3814(5) 0.43422(6)
C1B C 0.6233(3) 0.3099(18) 0.0642(3)
H1B H 0.6108 0.2088 0.0401
C2B C 0.6662(3) 0.4920(18) 0.0653(2)
H2B H 0.6863 0.5356 0.0414
C3B C 0.6787(3) 0.6122(17) 0.1046(2)
C4B C 0.6416(3) 0.5249(17) 0.1338(2)
C5B C 0.6387(3) 0.5887(18) 0.1783(2)
C6B C 0.6671(3) 0.775(2) 0.2031(3)
H3B H 0.6957 0.8910 0.1933
C7B C 0.6505(3) 0.780(2) 0.2444(2)
H4B H 0.6674 0.8984 0.2650
C8B C 0.6081(3) 0.6021(19) 0.2525(2)
C9B C 0.5814(3) 0.5479(19) 0.2903(2)
C10B C 0.5354(3) 0.3969(18) 0.2976(3)
H5B H 0.5148 0.3054 0.2761
C11B C 0.5209(3) 0.3874(19) 0.3394(3)
H6B H 0.4904 0.2833 0.3487
C12B C 0.5540(3) 0.5388(18) 0.3654(2)
C13B C 0.5506(3) 0.5793(18) 0.4098(2)
C14B C 0.5781(3) 0.7464(17) 0.4380(2)
C15B C 0.5581(3) 0.7203(17) 0.4790(2)
H7B H 0.5729 0.8231 0.5022
C16B C 0.5157(3) 0.5340(18) 0.4819(2)
C17B C 0.7267(3) 0.8061(17) 0.1131(2)
H8B H 0.7390 0.8882 0.0865
H9B H 0.7158 0.9684 0.1311
C18B C 0.7729(3) 0.6412(17) 0.1341(2)
H10B H 0.7598 0.5544 0.1601
H11B H 0.7838 0.4813 0.1157
C19B C 0.8223(3) 0.8274(17) 0.1444(2)
H12B H 0.8125 0.9730 0.1655
H13B H 0.8329 0.9322 0.1191
C20B C 0.8703(3) 0.6521(17) 0.1608(2)
H14B H 0.8606 0.5612 0.1875
H15B H 0.8778 0.4949 0.1409
C21B C 0.9219(3) 0.8309(17) 0.1678(3)
H16B H 0.9149 0.9855 0.1882
H17B H 0.9315 0.9247 0.1413
C22B C 0.9698(3) 0.6488(17) 0.1835(3)
H18B H 0.9604 0.5572 0.2102
H19B H 0.9764 0.4924 0.1633
C23B C 1.0222(3) 0.8264(17) 0.1900(2)
H20B H 1.0158 0.9824 0.2103
H21B H 1.0317 0.9179 0.1634
C24B C 1.0693(3) 0.6415(18) 0.2055(3)
H22B H 1.0597 0.5503 0.2322
H23B H 1.0755 0.4848 0.1852
C25B C 1.1216(3) 0.8112(17) 0.2120(2)
H24B H 1.1328 0.8905 0.1850
H25B H 1.1148 0.9763 0.2308
C26B C 1.1675(3) 0.6270(18) 0.2306(3)
H26B H 1.1728 0.4572 0.2124
H27B H 1.1566 0.5544 0.2580
C27B C 1.2212(3) 0.7862(19) 0.2359(3)
H28B H 1.2459 0.6679 0.2535
H29B H 1.2149 0.9708 0.2506
C28B C 1.2483(3) 0.850(2) 0.1948(3)
H30B H 1.2257 0.9837 0.1784
H31B H 1.2837 0.9378 0.2004
H32B H 1.2528 0.6694 0.1794
C29B C 0.6265(3) 0.9358(16) 0.4290(2)
H33B H 0.6213 1.0262 0.4013
H34B H 0.6291 1.0925 0.4499
C30B C 0.6794(3) 0.7616(17) 0.4299(2)
H35B H 0.6852 0.6796 0.4581
H36B H 0.6758 0.5981 0.4102
C31B C 0.7291(3) 0.9420(17) 0.4186(2)
H37B H 0.7327 1.1067 0.4382
H38B H 0.7236 1.0219 0.3903
C32B C 0.7808(3) 0.7672(17) 0.4202(2)
H39B H 0.7845 0.6751 0.4479
H40B H 0.7779 0.6108 0.3993
C33B C 0.8314(3) 0.9418(17) 0.4123(3)
H41B H 0.8292 1.0188 0.3837
H42B H 0.8326 1.1088 0.4316
C34B C 0.8836(3) 0.7700(17) 0.4179(2)
H43B H 0.8872 0.6412 0.3935
H44B H 0.8805 0.6454 0.4427
C35B C 0.9344(3) 0.9470(17) 0.4226(3)
H45B H 0.9400 1.0538 0.3964
H46B H 0.9293 1.0917 0.4448
C36B C 0.9849(3) 0.7740(18) 0.4330(2)
H47B H 0.9780 0.6491 0.4572
H48B H 0.9928 0.6463 0.4092
C37B C 1.0347(3) 0.9620(18) 0.4428(2)
H49B H 1.0265 1.0931 0.4661
H50B H 1.0422 1.0833 0.4182
C38B C 1.0853(3) 0.7876(17) 0.4542(2)
H51B H 1.0940 0.6592 0.4307
H52B H 1.0777 0.6637 0.4785
C39B C 1.1342(3) 0.9767(18) 0.4646(2)
H53B H 1.1414 1.1033 0.4406
H54B H 1.1258 1.1022 0.4885
C40B C 1.1854(3) 0.7980(18) 0.4753(2)
H55B H 1.1964 0.6905 0.4507
H56B H 1.2146 0.9284 0.4843
H57B H 1.1777 0.6619 0.4978
loop_
_geom_bond_atom_site_label_1
_geom_bond_atom_site_label_2
_geom_bond_site_symmetry_1
_geom_bond_site_symmetry_2
S1 C1 1_555 1_555
S2 C5 1_555 1_555
S3 C9 1_555 1_555
S4 C13 1_555 1_555
C1 H1 1_555 1_555
C2 C1 1_555 1_555
H2 C2 1_555 1_555
C3 C2 1_555 1_555
C4 S1 1_555 1_555
C5 C4 1_555 1_555
C6 C5 1_555 1_555
H3 C6 1_555 1_555
C7 C6 1_555 1_555
H4 C7 1_555 1_555
C8 S2 1_555 1_555
C9 C8 1_555 1_555
C10 C9 1_555 1_555
H5 C10 1_555 1_555
C11 C10 1_555 1_555
H6 C11 1_555 1_555
C12 S3 1_555 1_555
C13 C12 1_555 1_555
C14 C13 1_555 1_555
C15 C14 1_555 1_555
H7 C15 1_555 1_555
C16 S4 1_555 1_555
C17 C3 1_555 1_555
H8 C17 1_555 1_555
H9 C17 1_555 1_555
C18 C17 1_555 1_555
H10 C18 1_555 1_555
H11 C18 1_555 1_555
C19 C18 1_555 1_555
H12 C19 1_555 1_555
H13 C19 1_555 1_555
C20 C19 1_555 1_555
H14 C20 1_555 1_555
H15 C20 1_555 1_555
C21 C20 1_555 1_555
H16 C21 1_555 1_555
H17 C21 1_555 1_555
C22 C21 1_555 1_555
H18 C22 1_555 1_555
H19 C22 1_555 1_555
C23 C22 1_555 1_555
H20 C23 1_555 1_555
H21 C23 1_555 1_555
C24 C23 1_555 1_555
H22 C24 1_555 1_555
H23 C24 1_555 1_555
C25 C24 1_555 1_555
H24 C25 1_555 1_555
H25 C25 1_555 1_555
C26 C25 1_555 1_555
H26 C26 1_555 1_555
H27 C26 1_555 1_555
C27 C26 1_555 1_555
H28 C27 1_555 1_555
H29 C27 1_555 1_555
C28 C27 1_555 1_555
H30 C28 1_555 1_555
H31 C28 1_555 1_555
H32 C28 1_555 1_555
C29 C14 1_555 1_555
H33 C29 1_555 1_555
H34 C29 1_555 1_555
C30 C29 1_555 1_555
H35 C30 1_555 1_555
H36 C30 1_555 1_555
C31 C30 1_555 1_555
H37 C31 1_555 1_555
H38 C31 1_555 1_555
C32 C31 1_555 1_555
H39 C32 1_555 1_555
H40 C32 1_555 1_555
C33 C32 1_555 1_555
H41 C33 1_555 1_555
H42 C33 1_555 1_555
C34 C33 1_555 1_555
H43 C34 1_555 1_555
H44 C34 1_555 1_555
C35 C34 1_555 1_555
H45 C35 1_555 1_555
H46 C35 1_555 1_555
C36 C35 1_555 1_555
H47 C36 1_555 1_555
H48 C36 1_555 1_555
C37 C36 1_555 1_555
H49 C37 1_555 1_555
H50 C37 1_555 1_555
C38 C37 1_555 1_555
H51 C38 1_555 1_555
H52 C38 1_555 1_555
C39 C38 1_555 1_555
H53 C39 1_555 1_555
H54 C39 1_555 1_555
C40 C39 1_555 1_555
H55 C40 1_555 1_555
H56 C40 1_555 1_555
H57 C40 1_555 1_555
S1B C1B 1_555 1_555
S2B C5B 1_555 1_555
S3B C9B 1_555 1_555
S4B C13B 1_555 1_555
C1B H1B 1_555 1_555
C2B C1B 1_555 1_555
H2B C2B 1_555 1_555
C3B C2B 1_555 1_555
C4B S1B 1_555 1_555
C5B C4B 1_555 1_555
C6B C5B 1_555 1_555
H3B C6B 1_555 1_555
C7B C6B 1_555 1_555
H4B C7B 1_555 1_555
C8B S2B 1_555 1_555
C9B C8B 1_555 1_555
C10B C9B 1_555 1_555
H5B C10B 1_555 1_555
C11B C10B 1_555 1_555
H6B C11B 1_555 1_555
C12B S3B 1_555 1_555
C13B C12B 1_555 1_555
C14B C13B 1_555 1_555
C15B C14B 1_555 1_555
H7B C15B 1_555 1_555
C16B C16 1_555 1_555
C17B C3B 1_555 1_555
H8B C17B 1_555 1_555
H9B C17B 1_555 1_555
C18B C17B 1_555 1_555
H10B C18B 1_555 1_555
H11B C18B 1_555 1_555
C19B C18B 1_555 1_555
H12B C19B 1_555 1_555
H13B C19B 1_555 1_555
C20B C19B 1_555 1_555
H14B C20B 1_555 1_555
H15B C20B 1_555 1_555
C21B C20B 1_555 1_555
H16B C21B 1_555 1_555
H17B C21B 1_555 1_555
C22B C21B 1_555 1_555
H18B C22B 1_555 1_555
H19B C22B 1_555 1_555
C23B C22B 1_555 1_555
H20B C23B 1_555 1_555
H21B C23B 1_555 1_555
C24B C23B 1_555 1_555
H22B C24B 1_555 1_555
H23B C24B 1_555 1_555
C25B C24B 1_555 1_555
H24B C25B 1_555 1_555
H25B C25B 1_555 1_555
C26B C25B 1_555 1_555
H26B C26B 1_555 1_555
H27B C26B 1_555 1_555
C27B C26B 1_555 1_555
H28B C27B 1_555 1_555
H29B C27B 1_555 1_555
C28B C27B 1_555 1_555
H30B C28B 1_555 1_555
H31B C28B 1_555 1_555
H32B C28B 1_555 1_555
C29B C14B 1_555 1_555
H33B C29B 1_555 1_555
H34B C29B 1_555 1_555
C30B C29B 1_555 1_555
H35B C30B 1_555 1_555
H36B C30B 1_555 1_555
C31B C30B 1_555 1_555
H37B C31B 1_555 1_555
H38B C31B 1_555 1_555
C32B C31B 1_555 1_555
H39B C32B 1_555 1_555
H40B C32B 1_555 1_555
C33B C32B 1_555 1_555
H41B C33B 1_555 1_555
H42B C33B 1_555 1_555
C34B C33B 1_555 1_555
H43B C34B 1_555 1_555
H44B C34B 1_555 1_555
C35B C34B 1_555 1_555
H45B C35B 1_555 1_555
H46B C35B 1_555 1_555
C36B C35B 1_555 1_555
H47B C36B 1_555 1_555
H48B C36B 1_555 1_555
C37B C36B 1_555 1_555
H49B C37B 1_555 1_555
H50B C37B 1_555 1_555
C38B C37B 1_555 1_555
H51B C38B 1_555 1_555
H52B C38B 1_555 1_555
C39B C38B 1_555 1_555
H53B C39B 1_555 1_555
H54B C39B 1_555 1_555
C40B C39B 1_555 1_555
H55B C40B 1_555 1_555
H56B C40B 1_555 1_555
H57B C40B 1_555 1_555
C3 C4 1_555 1_555
C7 C8 1_555 1_555
C11 C12 1_555 1_555
C15 C16 1_555 1_555
S4B C16B 1_555 1_555
C3B C4B 1_555 1_555
C7B C8B 1_555 1_555
C11B C12B 1_555 1_555
C15B C16B 1_555 1_555

#END
