
#######################################################################
#
#                 Cambridge Crystallographic Data Centre
#                                CCDC 
#
#######################################################################
#
# If this CIF has been generated from an entry in the Cambridge 
# Structural Database, then it will include bibliographic, chemical, 
# crystal, experimental, refinement or atomic coordinate data resulting 
# from the CCDC's data processing and validation procedures.
#
#######################################################################

data_IFOQUR
_chemical_name_common            
"methyl 5''-chloro-1',1''-dimethyl-2,2''-dioxodispiro[indoline-3,2'-piyrrolidine-3',3''-indoline]-4'-carboxylate"
_chemical_formula_moiety         'C22 H20 Cl1 N3 O4'
_chemical_name_systematic        
"Methyl 5''-chloro-1',1''-dimethyl-2,2''-dioxo-1,1'',2,2''-tetrahydrodispiro[indole-3,2'-pyrrolidine-3',3''-indole]-4'-carboxylate"
_symmetry_cell_setting           monoclinic
_symmetry_space_group_name_H-M   'P 21/n'
_symmetry_Int_Tables_number      14
_space_group_name_Hall           '-P 2yn'
loop_
_symmetry_equiv_pos_site_id
_symmetry_equiv_pos_as_xyz
1 x,y,z
2 1/2-x,1/2+y,1/2-z
3 -x,-y,-z
4 1/2+x,1/2-y,1/2+z
_cell_length_a                   9.2543(4)
_cell_length_b                   18.1387(7)
_cell_length_c                   12.5147(5)
_cell_angle_alpha                90
_cell_angle_beta                 105.026(2)
_cell_angle_gamma                90
_cell_volume                     2028.9
_exptl_crystal_colour            colorless
_exptl_crystal_description       Block
_cell_formula_units_Z            4
loop_
_atom_site_label
_atom_site_type_symbol
_atom_site_fract_x
_atom_site_fract_y
_atom_site_fract_z
C1 C 0.59371(19) 0.05207(9) 0.28439(13)
C2 C 0.45435(17) 0.08424(8) 0.24338(12)
H1 H 0.3891 0.0908 0.2880
C3 C 0.41592(15) 0.10629(8) 0.13379(12)
C4 C 0.51723(16) 0.09636(8) 0.06936(12)
C5 C 0.65753(18) 0.06619(10) 0.11172(15)
H2 H 0.7247 0.0612 0.0683
C6 C 0.69446(19) 0.04367(10) 0.22136(16)
H3 H 0.7877 0.0228 0.2525
C7 C 0.27545(15) 0.14084(8) 0.06175(11)
C8 C 0.30532(17) 0.13446(8) -0.05324(12)
C9 C 0.11746(16) 0.10891(9) 0.05792(13)
H4 H 0.0726 0.0954 -0.0194
C10 C 0.02656(18) 0.17386(9) 0.08235(17)
H5 H -0.0777 0.1698 0.0417
H6 H 0.0331 0.1775 0.1608
C11 C 0.0415(2) 0.30826(11) 0.0677(2)
H7 H 0.0551 0.3134 0.1460
H8 H -0.0631 0.3117 0.0308
H9 H 0.0949 0.3467 0.0417
C12 C 0.25861(16) 0.22640(8) 0.08568(12)
C13 C 0.32532(18) 0.24031(8) 0.21214(13)
C14 C 0.47566(18) 0.30011(8) 0.12068(13)
C15 C 0.5915(2) 0.34053(11) 0.09938(15)
H10 H 0.6722 0.3557 0.1563
C16 C 0.5830(2) 0.35771(11) -0.00992(16)
H11 H 0.6609 0.3837 -0.0267
C17 C 0.4617(2) 0.33718(11) -0.09432(15)
H12 H 0.4572 0.3508 -0.1668
C18 C 0.3457(2) 0.29619(9) -0.07182(14)
H13 H 0.2630 0.2828 -0.1284
C19 C 0.35598(16) 0.27576(8) 0.03628(12)
C20 C 0.12538(16) 0.03924(9) 0.12354(14)
C21 C 0.1033(3) -0.01945(12) 0.2852(2)
H14 H 0.0331 -0.0556 0.2467
H15 H 0.0828 -0.0082 0.3548
H16 H 0.2030 -0.0385 0.2980
C22 C 0.5254(2) 0.11715(12) -0.12913(15)
H17 H 0.4533 0.1265 -0.1982
H18 H 0.5717 0.0701 -0.1322
H19 H 0.6004 0.1550 -0.1158
N1 N 0.45105(15) 0.11694(7) -0.04029(10)
N2 N 0.09833(14) 0.23692(7) 0.04428(12)
N3 N 0.45486(16) 0.27829(8) 0.22362(12)
O1 O 0.21387(13) 0.14407(7) -0.14168(9)
O2 O 0.27254(15) 0.22036(7) 0.28633(10)
O3 O 0.16251(15) -0.01881(7) 0.09239(12)
O4 O 0.08942(15) 0.04712(7) 0.21895(11)
Cl1 Cl 0.63981(7) 0.01829(3) 0.41915(4)
H20 H 0.513(2) 0.2916(11) 0.2850(18)
loop_
_geom_bond_atom_site_label_1
_geom_bond_atom_site_label_2
_geom_bond_site_symmetry_1
_geom_bond_site_symmetry_2
C1 C2 1_555 1_555
C2 H1 1_555 1_555
C3 C2 1_555 1_555
C4 C3 1_555 1_555
C5 C4 1_555 1_555
H2 C5 1_555 1_555
C6 C1 1_555 1_555
H3 C6 1_555 1_555
C7 C3 1_555 1_555
C8 C7 1_555 1_555
C9 C7 1_555 1_555
H4 C9 1_555 1_555
C10 C9 1_555 1_555
H5 C10 1_555 1_555
H6 C10 1_555 1_555
C11 H7 1_555 1_555
H8 C11 1_555 1_555
H9 C11 1_555 1_555
C12 C7 1_555 1_555
C13 C12 1_555 1_555
C14 C15 1_555 1_555
C15 H10 1_555 1_555
C16 C15 1_555 1_555
H11 C16 1_555 1_555
C17 C16 1_555 1_555
H12 C17 1_555 1_555
C18 C17 1_555 1_555
H13 C18 1_555 1_555
C19 C12 1_555 1_555
C20 C9 1_555 1_555
C21 H14 1_555 1_555
H15 C21 1_555 1_555
H16 C21 1_555 1_555
C22 H17 1_555 1_555
H18 C22 1_555 1_555
H19 C22 1_555 1_555
N1 C4 1_555 1_555
N2 C10 1_555 1_555
N3 C13 1_555 1_555
O1 C8 1_555 1_555
O2 C13 1_555 1_555
O3 C20 1_555 1_555
O4 C20 1_555 1_555
Cl1 C1 1_555 1_555
H20 N3 1_555 1_555
C5 C6 1_555 1_555
C8 N1 1_555 1_555
C11 N2 1_555 1_555
C12 N2 1_555 1_555
C14 C19 1_555 1_555
C14 N3 1_555 1_555
C18 C19 1_555 1_555
C21 O4 1_555 1_555
C22 N1 1_555 1_555

#END
