
#######################################################################
#
#                 Cambridge Crystallographic Data Centre
#                                CCDC 
#
#######################################################################
#
# If this CIF has been generated from an entry in the Cambridge 
# Structural Database, then it will include bibliographic, chemical, 
# crystal, experimental, refinement or atomic coordinate data resulting 
# from the CCDC's data processing and validation procedures.
#
#######################################################################

data_IFOSEE
_chemical_formula_moiety         'C23 H14 O2'
_chemical_name_systematic        5-phenyl-12H-benzo[a]xanthen-12-one
_symmetry_cell_setting           orthorhombic
_symmetry_space_group_name_H-M   'P b c n'
_symmetry_Int_Tables_number      60
_space_group_name_Hall           '-P 2n 2ab'
loop_
_symmetry_equiv_pos_site_id
_symmetry_equiv_pos_as_xyz
1 x,y,z
2 1/2-x,1/2-y,1/2+z
3 1/2+x,1/2-y,-z
4 -x,y,1/2-z
5 -x,-y,-z
6 1/2+x,1/2+y,1/2-z
7 1/2-x,1/2+y,z
8 x,-y,1/2+z
_cell_length_a                   9.1068(5)
_cell_length_b                   13.5461(9)
_cell_length_c                   26.1677(13)
_cell_angle_alpha                90
_cell_angle_beta                 90
_cell_angle_gamma                90
_cell_volume                     3228.09
_cell_formula_units_Z            8
loop_
_atom_site_label
_atom_site_type_symbol
_atom_site_fract_x
_atom_site_fract_y
_atom_site_fract_z
O1 O 0.11843(13) 0.38661(10) 0.47308(5)
O2 O 0.51264(16) 0.35149(12) 0.40192(5)
C1 C 0.3958(2) 0.36379(12) 0.42484(7)
C2 C 0.2581(2) 0.36787(13) 0.39625(7)
C3 C 0.2554(3) 0.35862(17) 0.34337(8)
H1 H 0.3429 0.3496 0.3256
C4 C 0.1260(3) 0.3625(2) 0.31706(9)
H2 H 0.1256 0.3558 0.2817
C5 C -0.0050(3) 0.37657(19) 0.34314(9)
H3 H -0.0927 0.3803 0.3251
C6 C -0.0061(2) 0.38488(16) 0.39504(8)
H4 H -0.0939 0.3937 0.4126
C7 C 0.1259(2) 0.37986(13) 0.42105(7)
C8 C 0.24482(19) 0.38268(12) 0.50104(7)
C9 C 0.2197(2) 0.38796(13) 0.55383(7)
H5 H 0.1237 0.3919 0.5659
C10 C 0.33219(19) 0.38742(13) 0.58769(7)
C11 C 0.48031(18) 0.38134(12) 0.56891(7)
C12 C 0.6010(2) 0.38027(13) 0.60251(8)
H6 H 0.5845 0.3830 0.6376
C13 C 0.7413(2) 0.37535(13) 0.58475(9)
H7 H 0.8198 0.3757 0.6075
C14 C 0.7666(2) 0.36974(13) 0.53257(9)
H8 H 0.8625 0.3669 0.5205
C15 C 0.6529(2) 0.36838(13) 0.49878(8)
H9 H 0.6728 0.3634 0.4640
C16 C 0.50564(18) 0.37430(11) 0.51535(7)
C17 C 0.38335(19) 0.37421(11) 0.48032(7)
C18 C 0.2983(2) 0.39077(15) 0.64319(7)
C19 C 0.3478(2) 0.46566(18) 0.67459(8)
H10 H 0.4059 0.5158 0.6612
C20 C 0.3116(3) 0.4665(2) 0.72570(9)
H11 H 0.3453 0.5173 0.7465
C21 C 0.2269(3) 0.3936(3) 0.74607(10)
H12 H 0.2029 0.3946 0.7806
C22 C 0.1770(3) 0.3184(2) 0.71530(10)
H13 H 0.1196 0.2683 0.7291
C23 C 0.2116(2) 0.31711(19) 0.66418(8)
H14 H 0.1767 0.2664 0.6435
loop_
_geom_bond_atom_site_label_1
_geom_bond_atom_site_label_2
_geom_bond_site_symmetry_1
_geom_bond_site_symmetry_2
O1 C7 1_555 1_555
O2 C1 1_555 1_555
C1 C2 1_555 1_555
C2 C3 1_555 1_555
C3 H1 1_555 1_555
C4 C3 1_555 1_555
H2 C4 1_555 1_555
C5 C4 1_555 1_555
H3 C5 1_555 1_555
C6 C5 1_555 1_555
H4 C6 1_555 1_555
C7 C2 1_555 1_555
C8 O1 1_555 1_555
C9 C8 1_555 1_555
H5 C9 1_555 1_555
C10 C9 1_555 1_555
C11 C10 1_555 1_555
C12 C11 1_555 1_555
H6 C12 1_555 1_555
C13 C12 1_555 1_555
H7 C13 1_555 1_555
C14 C13 1_555 1_555
H8 C14 1_555 1_555
C15 C14 1_555 1_555
H9 C15 1_555 1_555
C16 C11 1_555 1_555
C17 C1 1_555 1_555
C18 C10 1_555 1_555
C19 C18 1_555 1_555
H10 C19 1_555 1_555
C20 C19 1_555 1_555
H11 C20 1_555 1_555
C21 C20 1_555 1_555
H12 C21 1_555 1_555
C22 C21 1_555 1_555
H13 C22 1_555 1_555
C23 C18 1_555 1_555
H14 C23 1_555 1_555
C6 C7 1_555 1_555
C8 C17 1_555 1_555
C15 C16 1_555 1_555
C16 C17 1_555 1_555
C22 C23 1_555 1_555

#END
