
#######################################################################
#
#                 Cambridge Crystallographic Data Centre
#                                CCDC 
#
#######################################################################
#
# If this CIF has been generated from an entry in the Cambridge 
# Structural Database, then it will include bibliographic, chemical, 
# crystal, experimental, refinement or atomic coordinate data resulting 
# from the CCDC's data processing and validation procedures.
#
#######################################################################

data_IFOTUT
_chemical_formula_moiety         
'2(C32 H32 O8),4(C12 H10 N2),1.3(C14 H10 O2),1.8(C15 H14 O1)'
_chemical_name_systematic        
'bis(2,8,14,20-Tetramethyl-4,6,10,12,16,18,22,24-octahydroxycalix[4]arene) tetrakis(1,2-bis(4-pyridyl)ethene) dibenzylketone benzil'
_symmetry_cell_setting           triclinic
_symmetry_space_group_name_H-M   'P -1'
_symmetry_Int_Tables_number      2
_space_group_name_Hall           '-P 1'
loop_
_symmetry_equiv_pos_site_id
_symmetry_equiv_pos_as_xyz
1 x,y,z
2 -x,-y,-z
_cell_length_a                   13.4258(5)
_cell_length_b                   14.5902(5)
_cell_length_c                   33.3472(11)
_cell_angle_alpha                98.336(1)
_cell_angle_beta                 92.694(1)
_cell_angle_gamma                96.874(1)
_cell_volume                     6402.96
_exptl_crystal_colour            yellow
_exptl_crystal_description       block
_cell_formula_units_Z            2
_exptl_crystal_recrystallization_method ethanol/water
loop_
_atom_site_label
_atom_site_type_symbol
_atom_site_fract_x
_atom_site_fract_y
_atom_site_fract_z
O1 O 0.93900(10) -0.21235(10) 0.49881(4)
O2 O 1.16127(10) 0.03656(10) 0.45815(4)
O3 O 0.91297(11) 0.19368(10) 0.43933(4)
O4 O 0.67825(12) 0.18876(12) 0.32587(4)
O5 O 0.65368(10) 0.03972(10) 0.20223(4)
O6 O 0.43292(10) -0.21171(10) 0.24202(4)
O7 O 0.47340(10) -0.04416(10) 0.36317(4)
O8 O 0.70700(11) -0.04321(11) 0.47630(4)
C1 C 1.07166(14) -0.02112(13) 0.45381(5)
C2 C 1.05289(14) -0.08918(14) 0.47867(5)
C3 C 0.96094(14) -0.14535(13) 0.47414(5)
C4 C 0.88753(14) -0.13574(13) 0.44439(5)
C5 C 0.90970(14) -0.06776(13) 0.41966(5)
C6 C 1.00050(14) -0.00892(13) 0.42359(5)
C7 C 1.02453(14) 0.06388(14) 0.39568(5)
C8 C 1.09362(15) 0.02610(16) 0.36339(6)
C9 C 0.93104(14) 0.09520(13) 0.37708(5)
C10 C 0.87897(14) 0.15961(13) 0.39983(5)
C11 C 0.79411(15) 0.18988(14) 0.38304(6)
C12 C 0.76123(14) 0.15769(14) 0.34257(6)
C13 C 0.81111(14) 0.09392(14) 0.31842(5)
C14 C 0.89447(14) 0.06402(13) 0.33688(5)
C15 C 0.77767(14) 0.06429(14) 0.27377(5)
C16 C 0.86196(15) 0.03019(17) 0.24826(6)
C17 C 0.68502(14) -0.00907(14) 0.26611(5)
C18 C 0.62633(14) -0.01941(14) 0.22942(5)
C19 C 0.54302(14) -0.08736(14) 0.22091(5)
C20 C 0.51609(14) -0.14512(14) 0.24938(6)
C21 C 0.57204(14) -0.13684(14) 0.28651(5)
C22 C 0.65608(14) -0.06878(14) 0.29372(5)
C23 C 0.54034(14) -0.20102(13) 0.31723(5)
C24 C 0.56612(18) -0.29993(15) 0.30288(6)
C25 C 0.58421(14) -0.16082(13) 0.35996(5)
C26 C 0.54989(14) -0.08173(13) 0.38085(5)
C27 C 0.59236(14) -0.04126(14) 0.41919(6)
C28 C 0.66849(14) -0.08062(14) 0.43765(5)
C29 C 0.70503(14) -0.15966(13) 0.41797(6)
C30 C 0.66191(14) -0.19667(13) 0.37920(6)
C31 C 0.78884(14) -0.20141(14) 0.43843(6)
C32 C 0.80915(16) -0.29570(14) 0.41534(7)
H1 H 0.9834 -0.2066 0.5171
H2 H 1.1923 0.0307 0.4792
H3 H 0.8760 0.2305 0.4493
H4 H 0.6097 0.0333 0.1838
H5 H 0.4008 -0.2044 0.2214
H6 H 0.4604 0.0016 0.3784
H14 H 1.1017 -0.0970 0.4982
H15 H 0.8616 -0.0613 0.3996
H16 H 1.0627 0.1190 0.4123
H17 H 1.1090 0.0716 0.3457
H18 H 1.0602 -0.0306 0.3478
H19 H 1.1547 0.0138 0.3765
H20 H 0.7593 0.2316 0.3988
H21 H 0.9278 0.0205 0.3214
H22 H 0.7592 0.1200 0.2635
H23 H 0.9203 0.0762 0.2530
H24 H 0.8399 0.0205 0.2200
H25 H 0.8784 -0.0275 0.2558
H26 H 0.5055 -0.0941 0.1963
H27 H 0.6945 -0.0631 0.3181
H28 H 0.4670 -0.2054 0.3177
H29 H 0.5367 -0.3217 0.2759
H30 H 0.5400 -0.3413 0.3209
H31 H 0.6378 -0.2986 0.3029
H32 H 0.5698 0.0122 0.4325
H33 H 0.6866 -0.2484 0.3654
H34 H 0.7682 -0.2119 0.4654
H35 H 0.7479 -0.3382 0.4114
H36 H 0.8585 -0.3210 0.4308
H37 H 0.8338 -0.2868 0.3894
H178 H 0.670(2) 0.243(2) 0.3391(10)
H179 H 0.671(2) 0.004(2) 0.4864(9)
O9 O 0.48884(10) -1.02448(10) -0.13899(4)
O10 O 0.71678(10) -1.03397(10) -0.02523(4)
O11 O 0.94755(10) -1.20316(10) -0.00521(4)
O12 O 1.17173(10) -0.95221(10) -0.04428(4)
O13 O 0.92638(11) -0.80054(10) -0.06146(4)
O14 O 0.69148(11) -0.79626(10) -0.17372(4)
O15 O 0.67509(10) -0.93778(10) -0.30082(4)
O16 O 0.45287(10) -1.18914(10) -0.26154(4)
C33 C 0.67424(14) -1.18079(13) -0.12372(5)
C34 C 0.71466(14) -1.14760(13) -0.08425(5)
C35 C 0.67832(13) -1.06890(13) -0.06390(5)
C36 C 0.60460(14) -1.02701(13) -0.08251(5)
C37 C 0.56415(13) -1.06403(13) -0.12163(5)
C38 C 0.59944(14) -1.14188(13) -0.14332(5)
C39 C 0.79803(14) -1.18975(13) -0.06388(6)
C40 C 0.81274(16) -1.28721(14) -0.08485(6)
C41 C 0.89784(14) -1.12573(13) -0.05921(5)
C42 C 0.97024(14) -1.13519(14) -0.02910(6)
C43 C 1.06200(15) -1.07833(14) -0.02392(6)
C44 C 1.08194(14) -1.00999(14) -0.04854(6)
C45 C 1.01144(14) -0.99846(13) -0.07896(5)
C46 C 0.92068(14) -1.05730(13) -0.08358(5)
C47 C 1.03814(13) -0.92604(13) -0.10673(5)
C48 C 1.10713(14) -0.96553(14) -0.13845(6)
C49 C 0.94574(14) -0.89259(13) -0.12519(5)
C50 C 0.89243(14) -0.83092(13) -0.10117(5)
C51 C 0.80694(15) -0.79990(13) -0.11705(6)
C52 C 0.77479(14) -0.82741(13) -0.15797(6)
C53 C 0.82788(13) -0.88563(13) -0.18354(5)
C54 C 0.91133(14) -0.91782(13) -0.16582(5)
C55 C 0.79489(14) -0.91061(13) -0.22832(5)
C56 C 0.88085(15) -0.93465(16) -0.25475(6)
C57 C 0.70523(13) -0.98709(13) -0.23697(5)
C58 C 0.67527(14) -1.04707(13) -0.20934(5)
C59 C 0.59137(14) -1.11504(13) -0.21684(5)
C60 C 0.53626(14) -1.12304(13) -0.25408(6)
C61 C 0.56438(14) -1.06595(13) -0.28271(5)
C62 C 0.64732(14) -0.99788(13) -0.27396(5)
C63 C 0.55783(14) -1.17956(13) -0.18658(5)
C64 C 0.58274(18) -1.27846(14) -0.20159(6)
H7 H 0.4755 -0.9798 -0.1232
H8 H 0.6896 -0.9883 -0.0166
H9 H 0.9898 -1.1964 0.0139
H10 H 1.2030 -0.9582 -0.0233
H11 H 0.8890 -0.7652 -0.0507
H12 H 0.6311 -0.9435 -0.3192
H13 H 0.4202 -1.1807 -0.2818
H38 H 0.6988 -1.2322 -0.1378
H39 H 0.5821 -0.9740 -0.0688
H40 H 0.7784 -1.1964 -0.0364
H41 H 0.7498 -1.3271 -0.0876
H42 H 0.8608 -1.3127 -0.0689
H43 H 0.8369 -1.2830 -0.1113
H44 H 1.1100 -1.0859 -0.0040
H45 H 0.8733 -1.0506 -0.1038
H46 H 1.0772 -0.8717 -0.0900
H47 H 1.1638 -0.9853 -0.1250
H48 H 1.1302 -0.9181 -0.1542
H49 H 1.0706 -1.0179 -0.1560
H50 H 0.7711 -0.7608 -0.1004
H51 H 0.9459 -0.9586 -0.1822
H52 H 0.7723 -0.8544 -0.2367
H53 H 0.9364 -0.8858 -0.2488
H54 H 0.8584 -0.9409 -0.2829
H55 H 0.9018 -0.9924 -0.2492
H56 H 0.7131 -1.0413 -0.1848
H57 H 0.5278 -1.0733 -0.3076
H58 H 0.4844 -1.1835 -0.1866
H59 H 0.5546 -1.2985 -0.2289
H60 H 0.5548 -1.3207 -0.1843
H61 H 0.6544 -1.2779 -0.2010
H177 H 0.672(2) -0.762(2) -0.1576(10)
N1 N 0.83865(15) 0.35037(14) 0.47240(6)
N2 N 0.56950(14) 0.88005(13) 0.59693(6)
C65 C 0.7583(2) 0.35382(17) 0.49478(8)
C66 C 0.7269(2) 0.43584(17) 0.51268(8)
C67 C 0.77997(19) 0.52129(16) 0.50767(7)
C68 C 0.86378(18) 0.51827(16) 0.48473(7)
C69 C 0.88963(18) 0.43247(17) 0.46773(7)
C70 C 0.75097(18) 0.61244(15) 0.52462(7)
C71 C 0.66607(18) 0.62419(16) 0.54266(7)
C72 C 0.63555(17) 0.71343(15) 0.56063(7)
C73 C 0.5417(2) 0.71459(17) 0.57669(9)
C74 C 0.5120(2) 0.79768(17) 0.59447(9)
C75 C 0.65868(16) 0.87934(15) 0.58058(7)
C76 C 0.69480(16) 0.79947(15) 0.56280(7)
H62 H 0.7216 0.2977 0.4984
H63 H 0.6708 0.4342 0.5280
H64 H 0.9022 0.5733 0.4808
H65 H 0.9454 0.4319 0.4522
H66 H 0.7951 0.6656 0.5226
H67 H 0.6219 0.5707 0.5440
H68 H 0.4987 0.6591 0.5754
H69 H 0.4493 0.7963 0.6052
H70 H 0.6988 0.9362 0.5812
H71 H 0.7580 0.8030 0.5524
N3 N 0.62644(18) 0.35711(15) 0.35723(7)
N4 N 0.38224(14) 0.90019(13) 0.48276(5)
C77 C 0.6299(4) 0.4919(2) 0.40731(11)
C78 C 0.6701(3) 0.41337(19) 0.39006(9)
C79 C 0.5440(3) 0.3829(2) 0.34126(11)
C80 C 0.5043(4) 0.4626(3) 0.35666(14)
C81 C 0.5452(5) 0.5183(2) 0.39036(16)
C82 C 0.4505(2) 0.74041(17) 0.44124(10)
C83 C 0.3646(2) 0.77263(19) 0.42791(8)
C84 C 0.33304(18) 0.85173(17) 0.44923(7)
C85 C 0.46709(18) 0.8699(2) 0.49491(7)
C86 C 0.5024(2) 0.7922(2) 0.47575(9)
C109 C 0.4754(4) 0.5947(3) 0.39921(15)
C110 C 0.5089(3) 0.6602(3) 0.43031(14)
H72 H 0.6612 0.5274 0.4310
H73 H 0.7296 0.3994 0.4018
H74 H 0.5111 0.3453 0.3184
H75 H 0.4477 0.4781 0.3433
H76 H 0.3276 0.7414 0.4046
H77 H 0.2746 0.8720 0.4396
H78 H 0.5042 0.9037 0.5177
H79 H 0.5614 0.7738 0.4859
H98 H 0.4673 0.6240 0.3752
H100 H 0.5681 0.6563 0.4452
N5 N 0.61962(16) -0.65638(14) -0.12582(6)
N6 N 0.33878(14) -0.12830(13) -0.00909(5)
C87 C 0.6413(3) -0.5771(2) -0.14089(10)
C88 C 0.6061(3) -0.4948(2) -0.12715(11)
C89 C 0.5441(2) -0.4910(2) -0.09577(10)
C90 C 0.5204(2) -0.5726(2) -0.07919(9)
C91 C 0.56001(19) -0.65391(19) -0.09514(8)
C92 C 0.4078(2) -0.29540(17) -0.04126(9)
C93 C 0.4310(2) -0.21400(19) -0.05791(9)
C94 C 0.3940(2) -0.13309(17) -0.04135(8)
C95 C 0.31615(19) -0.20670(17) 0.00650(7)
C96 C 0.3485(2) -0.29036(17) -0.00848(8)
C113 C 0.5088(3) -0.3994(2) -0.08258(10)
C114 C 0.4435(3) -0.3859(2) -0.05381(12)
H80 H 0.6834 -0.5778 -0.1623
H81 H 0.6241 -0.4420 -0.1391
H82 H 0.4787 -0.5731 -0.0577
H83 H 0.5439 -0.7080 -0.0838
H84 H 0.4710 -0.2139 -0.0799
H85 H 0.4085 -0.0797 -0.0533
H86 H 0.2765 -0.2049 0.0286
H87 H 0.3305 -0.3432 0.0034
H104 H 0.418(3) -0.442(3) -0.0395(11)
H105 H 0.519(3) -0.348(3) -0.0966(11)
N7 N 0.11174(16) 0.62779(13) 0.03001(6)
N8 N 0.40759(14) 0.10971(13) -0.08933(6)
C97 C 0.08915(19) 0.60395(17) -0.00978(7)
C98 C 0.1197(2) 0.52690(18) -0.03287(8)
C99 C 0.17783(18) 0.47016(16) -0.01480(7)
C100 C 0.1980(2) 0.49353(17) 0.02730(8)
C101 C 0.1633(2) 0.57135(17) 0.04831(8)
C102 C 0.21541(19) 0.39119(17) -0.03938(7)
C103 C 0.27002(18) 0.33269(16) -0.02517(7)
C104 C 0.31369(17) 0.25570(15) -0.04860(7)
C105 C 0.30204(17) 0.23127(16) -0.09082(8)
C106 C 0.34972(16) 0.15865(16) -0.10963(7)
C107 C 0.41658(16) 0.13267(15) -0.04865(7)
C108 C 0.37275(17) 0.20357(16) -0.02754(7)
H88 H 0.0506 0.6412 -0.0228
H89 H 0.1013 0.5133 -0.0605
H90 H 0.2349 0.4566 0.0412
H91 H 0.1766 0.5847 0.0763
H92 H 0.1992 0.3819 -0.0672
H93 H 0.2825 0.3409 0.0029
H94 H 0.2627 0.2634 -0.1062
H95 H 0.3410 0.1433 -0.1377
H96 H 0.4549 0.0984 -0.0339
H97 H 0.3824 0.2168 0.0006
O17 O -0.0830(3) 0.4481(2) -0.14376(11)
C127 C -0.1257(3) 0.5264(3) -0.23101(15)
C128 C -0.2074(4) 0.5690(3) -0.24281(16)
C129 C -0.3008(4) 0.5166(4) -0.24983(14)
C130 C -0.3104(4) 0.4263(4) -0.24460(13)
C131 C -0.2302(3) 0.3845(3) -0.23306(12)
C132 C -0.1352(3) 0.4342(3) -0.22603(11)
C133 C -0.0490(3) 0.3888(3) -0.21115(11)
C134 C -0.0383(3) 0.3960(3) -0.16538(11)
C135 C 0.0291(3) 0.3326(3) -0.14812(11)
C136 C 0.1326(3) 0.3316(4) -0.16394(12)
C137 C 0.2073(3) 0.4074(3) -0.15214(13)
C138 C 0.3033(4) 0.4025(3) -0.16386(14)
C139 C 0.3286(3) 0.3235(4) -0.18727(14)
C140 C 0.2578(4) 0.2484(4) -0.20048(12)
C141 C 0.1577(3) 0.2522(3) -0.18881(13)
H115 H -0.0627 0.5616 -0.2264
H116 H -0.1991 0.6317 -0.2459
H117 H -0.3564 0.5433 -0.2581
H118 H -0.3736 0.3913 -0.2490
H119 H -0.2397 0.3218 -0.2299
H120 H 0.0127 0.4177 -0.2205
H121 H -0.0582 0.3234 -0.2230
H122 H 0.0076 0.2961 -0.1287
H123 H 0.1919 0.4611 -0.1363
H124 H 0.3523 0.4533 -0.1559
H125 H 0.3948 0.3215 -0.1941
H126 H 0.2748 0.1959 -0.2168
H127 H 0.1085 0.2019 -0.1976
H136 H 0.0369 0.2802 -0.1779
C117 C 0.1256(4) 0.6479(3) -0.16420(16)
C118 C 0.0756(4) 0.6585(4) -0.12893(17)
C119 C 0.0989(4) 0.7378(3) -0.10131(16)
C120 C 0.1714(4) 0.8060(3) -0.10855(16)
C121 C 0.2215(4) 0.7999(3) -0.14441(19)
C122 C 0.1978(3) 0.7169(3) -0.17294(12)
C123 C 0.2500(3) 0.7057(3) -0.21126(12)
C124 C 0.3223(3) 0.6343(3) -0.21399(12)
C125 C 0.1117(4) 0.4794(4) -0.32614(14)
C126 C 0.1899(4) 0.5464(3) -0.30780(13)
O18 O 0.3628(2) 0.6127(2) -0.18422(9)
C179 C 0.3436(3) 0.5921(3) -0.25678(13)
C180 C 0.2531(3) 0.5268(3) -0.27750(11)
C181 C 0.2347(3) 0.4392(3) -0.26563(12)
C182 C 0.1571(3) 0.3745(3) -0.28307(13)
C183 C 0.0943(4) 0.3942(4) -0.31317(18)
H106 H 0.1104 0.5930 -0.1826
H107 H 0.0262 0.6118 -0.1240
H108 H 0.0653 0.7453 -0.0775
H109 H 0.1881 0.8585 -0.0889
H110 H 0.2687 0.8484 -0.1494
H111 H 0.2864 0.7656 -0.2143
H112 H 0.1997 0.6884 -0.2338
H113 H 0.0710 0.4927 -0.3473
H114 H 0.1992 0.6047 -0.3162
H157 H 0.3604 0.6418 -0.2727
H158 H 0.4010 0.5578 -0.2555
H159 H 0.2766 0.4242 -0.2452
H160 H 0.1470 0.3165 -0.2744
H161 H 0.0407 0.3506 -0.3247
C142 C -0.1988(3) 0.3764(3) -0.34129(12)
C143 C -0.2101(3) 0.2883(3) -0.32977(12)
C144 C -0.1644(3) 0.2194(3) -0.35098(15)
C145 C -0.1086(3) 0.2363(3) -0.38381(14)
C146 C -0.0980(3) 0.3216(4) -0.39594(13)
C147 C -0.1437(3) 0.3946(3) -0.37407(12)
C148 C -0.1325(3) 0.4883(3) -0.38417(12)
C149 C -0.2067(3) 0.5543(3) -0.36966(13)
O19 O -0.0702(2) 0.5150(3) -0.40718(10)
O20 O -0.2939(2) 0.5314(3) -0.38337(10)
C184 C -0.1754(3) 0.6410(3) -0.34178(17)
C185 C -0.2458(4) 0.7016(4) -0.32840(17)
C186 C -0.2178(4) 0.7795(4) -0.2981(2)
C187 C -0.1218(4) 0.7961(3) -0.2807(3)
C188 C -0.0490(4) 0.7400(3) -0.2948(3)
C189 C -0.0751(4) 0.6637(4) -0.3244(2)
H128 H -0.2286 0.4241 -0.3268
H129 H -0.2480 0.2763 -0.3080
H130 H -0.1708 0.1603 -0.3433
H131 H -0.0779 0.1884 -0.3977
H132 H -0.0615 0.3320 -0.4182
H162 H -0.3115 0.6898 -0.3398
H163 H -0.2645 0.8195 -0.2899
H164 H -0.1046 0.8448 -0.2593
H165 H 0.0172 0.7545 -0.2842
H166 H -0.0265 0.6263 -0.3331
C111? C 0.5383(4) 0.6066(3) 0.42075(15)
C112? C 0.4644(3) 0.6535(3) 0.41162(14)
C115? C 0.4759(10) -0.4403(10) -0.0604(4)
C116? C 0.4576(15) -0.3646(12) -0.0746(5)
O21? O 0.4086(4) 0.5066(4) -0.17235(17)
O22? O 0.2608(4) 0.5283(4) -0.09863(16)
C150? C 0.3036(11) 0.3186(9) -0.1986(4)
C151? C 0.2480(13) 0.2338(11) -0.2129(4)
C152? C 0.1530(8) 0.2184(7) -0.2061(3)
C153? C 0.1040(8) 0.2911(7) -0.1836(3)
C154? C 0.1613(7) 0.3786(7) -0.1707(3)
C155? C 0.2590(7) 0.3916(6) -0.1772(3)
C156? C 0.3237(5) 0.4857(5) -0.1620(2)
C157? C 0.2795(5) 0.5538(5) -0.1303(2)
C158? C 0.2650(5) 0.6475(4) -0.1403(2)
C159? C 0.2914(5) 0.6758(5) -0.1774(2)
C160? C 0.2741(5) 0.7620(5) -0.1847(2)
C161? C 0.2290(11) 0.8232(9) -0.1605(4)
C162? C 0.2032(8) 0.7952(7) -0.1211(4)
C163? C 0.2208(6) 0.7082(5) -0.1124(2)
C164? C -0.1030(9) 0.4361(11) -0.1673(4)
C165? C -0.0628(9) 0.5137(9) -0.1330(4)
C166? C -0.0093(8) 0.5845(9) -0.1431(4)
C167? C 0.0094(10) 0.5919(9) -0.1819(4)
C168? C -0.0267(9) 0.5202(9) -0.2123(3)
C169? C -0.0846(9) 0.4439(9) -0.2034(3)
C170? C -0.1307(9) 0.3650(9) -0.2375(3)
C171? C -0.2255(9) 0.3851(9) -0.2595(4)
C172? C -0.2709(9) 0.3185(9) -0.2951(3)
O23? O -0.2597(10) 0.4567(11) -0.2470(5)
C173? C -0.1964(16) 0.330(2) -0.3352(6)
C174? C -0.1942(16) 0.4074(16) -0.3549(7)
C175? C -0.1443(18) 0.4099(17) -0.3904(7)
C176? C -0.0965(18) 0.334(2) -0.4062(6)
C177? C -0.0986(19) 0.2566(17) -0.3865(9)
C178? C -0.1486(19) 0.2542(15) -0.3510(9)
O24? O 0.0256(7) 0.6221(6) -0.3728(2)
O25? O 0.1561(7) 0.7173(6) -0.2892(3)
C190? C 0.1103(7) 0.6465(7) -0.3071(3)
C191? C 0.0195(9) 0.6531(8) -0.3371(3)
C192? C 0.1282(9) 0.5544(7) -0.3023(4)
C193? C 0.0683(8) 0.4704(9) -0.3164(4)
C194? C 0.1010(10) 0.3865(7) -0.3101(5)
C195? C 0.1936(10) 0.3866(9) -0.2895(5)
C196? C 0.2535(7) 0.4706(11) -0.2754(4)
C197? C 0.2208(8) 0.5545(8) -0.2817(4)
C198? C -0.0660(7) 0.6993(9) -0.3206(3)
C199? C -0.1425(7) 0.7132(7) -0.34781(19)
C200? C -0.2258(6) 0.7524(8) -0.3335(2)
C201? C -0.2326(7) 0.7778(9) -0.2920(3)
C202? C -0.1561(8) 0.7639(9) -0.2648(2)
C203? C -0.0728(7) 0.7246(9) -0.2791(2)
H99? H 0.4097 0.5654 0.4046
H101? H 0.5295 0.5889 0.4474
H102? H 0.6014 0.6474 0.4222
H103? H 0.4225 0.6344 0.3881
H133? H 0.3716 0.3278 -0.2032
H134? H 0.2784 0.1868 -0.2276
H135? H 0.1164 0.1605 -0.2158
H137? H 0.1309 0.4276 -0.1575
H138? H 0.3203 0.6362 -0.1966
H139? H 0.2956 0.7799 -0.2089
H140? H 0.2148 0.8795 -0.1680
H141? H 0.1752 0.8360 -0.1021
H142? H 0.2031 0.6903 -0.0877
H143? H -0.1413 0.3827 -0.1617
H144? H -0.0763 0.5100 -0.1061
H145? H 0.0177 0.6327 -0.1227
H146? H 0.0467 0.6455 -0.1880
H147? H -0.0115 0.5239 -0.2389
H148? H -0.0808 0.3538 -0.2571
H149? H -0.1461 0.3082 -0.2258
H150? H -0.3382 0.3316 -0.3020
H151? H -0.2755 0.2552 -0.2889
H152? H -0.2262 0.4578 -0.3443
H153? H -0.1429 0.4619 -0.4036
H154? H -0.0631 0.3361 -0.4299
H155? H -0.0666 0.2062 -0.3971
H156? H -0.1500 0.2021 -0.3378
H167? H 0.0064 0.4704 -0.3302
H168? H 0.0610 0.3303 -0.3195
H169? H 0.2155 0.3305 -0.2853
H170? H 0.3154 0.4707 -0.2616
H171? H 0.2608 0.6107 -0.2723
H172? H -0.1379 0.6962 -0.3756
H173? H -0.2770 0.7617 -0.3516
H174? H -0.2884 0.8040 -0.2824
H175? H -0.1607 0.7808 -0.2370
H176? H -0.0216 0.7153 -0.2610
loop_
_geom_bond_atom_site_label_1
_geom_bond_atom_site_label_2
_geom_bond_site_symmetry_1
_geom_bond_site_symmetry_2
O1 C3 1_555 1_555
O2 C1 1_555 1_555
O3 C10 1_555 1_555
O4 C12 1_555 1_555
O5 C18 1_555 1_555
O6 C20 1_555 1_555
O7 C26 1_555 1_555
O8 C28 1_555 1_555
O9 C37 1_555 1_555
O10 C35 1_555 1_555
O11 C42 1_555 1_555
O12 C44 1_555 1_555
O13 C50 1_555 1_555
O14 C52 1_555 1_555
O15 C62 1_555 1_555
O16 C60 1_555 1_555
N1 C65 1_555 1_555
N2 C74 1_555 1_555
N3 C78 1_555 1_555
N4 C84 1_555 1_555
N5 C87 1_555 1_555
N6 C94 1_555 1_555
N7 C97 1_555 1_555
N8 C106 1_555 1_555
C1 C2 1_555 1_555
C2 C3 1_555 1_555
C3 C4 1_555 1_555
C4 C5 1_555 1_555
C5 C6 1_555 1_555
C6 C1 1_555 1_555
C7 C6 1_555 1_555
C8 C7 1_555 1_555
C9 C7 1_555 1_555
C10 C9 1_555 1_555
C11 C10 1_555 1_555
C12 C11 1_555 1_555
C13 C12 1_555 1_555
C14 C9 1_555 1_555
C15 C13 1_555 1_555
C16 C15 1_555 1_555
C17 C15 1_555 1_555
C18 C17 1_555 1_555
C19 C18 1_555 1_555
C20 C19 1_555 1_555
C21 C20 1_555 1_555
C22 C17 1_555 1_555
C23 C21 1_555 1_555
C24 C23 1_555 1_555
C25 C23 1_555 1_555
C26 C25 1_555 1_555
C27 C26 1_555 1_555
C28 C27 1_555 1_555
C29 C28 1_555 1_555
C30 C25 1_555 1_555
C31 C4 1_555 1_555
C32 C31 1_555 1_555
C33 C34 1_555 1_555
C34 C35 1_555 1_555
C35 C36 1_555 1_555
C36 C37 1_555 1_555
C37 C38 1_555 1_555
C38 C33 1_555 1_555
C39 C34 1_555 1_555
C40 C39 1_555 1_555
C41 C39 1_555 1_555
C42 C41 1_555 1_555
C43 C42 1_555 1_555
C44 C43 1_555 1_555
C45 C44 1_555 1_555
C46 C41 1_555 1_555
C47 C45 1_555 1_555
C48 C47 1_555 1_555
C49 C47 1_555 1_555
C50 C49 1_555 1_555
C51 C50 1_555 1_555
C52 C51 1_555 1_555
C53 C52 1_555 1_555
C54 C49 1_555 1_555
C55 C53 1_555 1_555
C56 C55 1_555 1_555
C57 C55 1_555 1_555
C58 C57 1_555 1_555
C59 C58 1_555 1_555
C60 C59 1_555 1_555
C61 C60 1_555 1_555
C62 C57 1_555 1_555
C63 C38 1_555 1_555
C64 C63 1_555 1_555
C65 C66 1_555 1_555
C66 C67 1_555 1_555
C67 C68 1_555 1_555
C68 C69 1_555 1_555
C69 N1 1_555 1_555
C70 C67 1_555 1_555
C71 C70 1_555 1_555
C72 C71 1_555 1_555
C73 C72 1_555 1_555
C74 C73 1_555 1_555
C75 N2 1_555 1_555
C76 C72 1_555 1_555
C77 C78 1_555 1_555
C78 H73 1_555 1_555
C79 N3 1_555 1_555
C80 C79 1_555 1_555
C81 C77 1_555 1_555
C82 C83 1_555 1_555
C83 C84 1_555 1_555
C84 H77 1_555 1_555
C85 N4 1_555 1_555
C86 C82 1_555 1_555
C87 C88 1_555 1_555
C88 C89 1_555 1_555
C89 C90 1_555 1_555
C90 C91 1_555 1_555
C91 N5 1_555 1_555
C92 C93 1_555 1_555
C93 C94 1_555 1_555
C94 H85 1_555 1_555
C95 N6 1_555 1_555
C96 C92 1_555 1_555
C97 C98 1_555 1_555
C98 C99 1_555 1_555
C99 C100 1_555 1_555
C100 C101 1_555 1_555
C101 N7 1_555 1_555
C102 C99 1_555 1_555
C103 C102 1_555 1_555
C104 C103 1_555 1_555
C105 C104 1_555 1_555
C106 C105 1_555 1_555
C107 N8 1_555 1_555
C108 C104 1_555 1_555
C109 C81 1_555 1_555
C110 C82 1_555 1_555
C113 C89 1_555 1_555
C114 C92 1_555 1_555
O17 C134 1_555 1_555
C117 C118 1_555 1_555
C118 C119 1_555 1_555
C119 C120 1_555 1_555
C120 C121 1_555 1_555
C121 C122 1_555 1_555
C122 C117 1_555 1_555
C123 C122 1_555 1_555
C124 C123 1_555 1_555
C125 C126 1_555 1_555
C126 C180 1_555 1_555
C127 C128 1_555 1_555
C128 C129 1_555 1_555
C129 C130 1_555 1_555
C130 C131 1_555 1_555
C131 C132 1_555 1_555
C132 C127 1_555 1_555
C133 C132 1_555 1_555
C134 C133 1_555 1_555
C135 C134 1_555 1_555
C136 C135 1_555 1_555
C137 C136 1_555 1_555
C138 C137 1_555 1_555
C139 C138 1_555 1_555
C140 C139 1_555 1_555
C141 C136 1_555 1_555
O18 C124 1_555 1_555
C142 C143 1_555 1_555
C143 C144 1_555 1_555
C144 C145 1_555 1_555
C145 C146 1_555 1_555
C146 C147 1_555 1_555
C147 C142 1_555 1_555
C148 C147 1_555 1_555
C149 C148 1_555 1_555
O19 C148 1_555 1_555
O20 C149 1_555 1_555
C179 C124 1_555 1_555
C180 C179 1_555 1_555
C181 C180 1_555 1_555
C182 C181 1_555 1_555
C183 C125 1_555 1_555
C184 C149 1_555 1_555
C185 C184 1_555 1_555
C186 C185 1_555 1_555
C187 C186 1_555 1_555
C188 C187 1_555 1_555
C189 C184 1_555 1_555
H1 O1 1_555 1_555
H2 O2 1_555 1_555
H3 O3 1_555 1_555
H4 O5 1_555 1_555
H5 O6 1_555 1_555
H6 O7 1_555 1_555
H7 O9 1_555 1_555
H8 O10 1_555 1_555
H9 O11 1_555 1_555
H10 O12 1_555 1_555
H11 O13 1_555 1_555
H12 O15 1_555 1_555
H13 O16 1_555 1_555
H14 C2 1_555 1_555
H15 C5 1_555 1_555
H16 C7 1_555 1_555
H17 C8 1_555 1_555
H18 C8 1_555 1_555
H19 C8 1_555 1_555
H20 C11 1_555 1_555
H21 C14 1_555 1_555
H22 C15 1_555 1_555
H23 C16 1_555 1_555
H24 C16 1_555 1_555
H25 C16 1_555 1_555
H26 C19 1_555 1_555
H27 C22 1_555 1_555
H28 C23 1_555 1_555
H29 C24 1_555 1_555
H30 C24 1_555 1_555
H31 C24 1_555 1_555
H32 C27 1_555 1_555
H33 C30 1_555 1_555
H34 C31 1_555 1_555
H35 C32 1_555 1_555
H36 C32 1_555 1_555
H37 C32 1_555 1_555
H38 C33 1_555 1_555
H39 C36 1_555 1_555
H40 C39 1_555 1_555
H41 C40 1_555 1_555
H42 C40 1_555 1_555
H43 C40 1_555 1_555
H44 C43 1_555 1_555
H45 C46 1_555 1_555
H46 C47 1_555 1_555
H47 C48 1_555 1_555
H48 C48 1_555 1_555
H49 C48 1_555 1_555
H50 C51 1_555 1_555
H51 C54 1_555 1_555
H52 C55 1_555 1_555
H53 C56 1_555 1_555
H54 C56 1_555 1_555
H55 C56 1_555 1_555
H56 C58 1_555 1_555
H57 C61 1_555 1_555
H58 C63 1_555 1_555
H59 C64 1_555 1_555
H60 C64 1_555 1_555
H61 C64 1_555 1_555
H62 C65 1_555 1_555
H63 C66 1_555 1_555
H64 C68 1_555 1_555
H65 C69 1_555 1_555
H66 C70 1_555 1_555
H67 C71 1_555 1_555
H68 C73 1_555 1_555
H69 C74 1_555 1_555
H70 C75 1_555 1_555
H71 C76 1_555 1_555
H72 C77 1_555 1_555
H74 C79 1_555 1_555
H75 C80 1_555 1_555
H76 C83 1_555 1_555
H78 C85 1_555 1_555
H79 C86 1_555 1_555
H80 C87 1_555 1_555
H81 C88 1_555 1_555
H82 C90 1_555 1_555
H83 C91 1_555 1_555
H84 C93 1_555 1_555
H86 C95 1_555 1_555
H87 C96 1_555 1_555
H88 C97 1_555 1_555
H89 C98 1_555 1_555
H90 C100 1_555 1_555
H91 C101 1_555 1_555
H92 C102 1_555 1_555
H93 C103 1_555 1_555
H94 C105 1_555 1_555
H95 C106 1_555 1_555
H96 C107 1_555 1_555
H97 C108 1_555 1_555
H98 C109 1_555 1_555
H100 C110 1_555 1_555
H104 C114 1_555 1_555
H105 C113 1_555 1_555
H106 C117 1_555 1_555
H107 C118 1_555 1_555
H108 C119 1_555 1_555
H109 C120 1_555 1_555
H110 C121 1_555 1_555
H111 C123 1_555 1_555
H112 C123 1_555 1_555
H113 C125 1_555 1_555
H114 C126 1_555 1_555
H115 C127 1_555 1_555
H116 C128 1_555 1_555
H117 C129 1_555 1_555
H118 C130 1_555 1_555
H119 C131 1_555 1_555
H120 C133 1_555 1_555
H121 C133 1_555 1_555
H122 C135 1_555 1_555
H123 C137 1_555 1_555
H124 C138 1_555 1_555
H125 C139 1_555 1_555
H126 C140 1_555 1_555
H127 C141 1_555 1_555
H128 C142 1_555 1_555
H129 C143 1_555 1_555
H130 C144 1_555 1_555
H131 C145 1_555 1_555
H132 C146 1_555 1_555
H136 C135 1_555 1_555
H157 C179 1_555 1_555
H158 C179 1_555 1_555
H159 C181 1_555 1_555
H160 C182 1_555 1_555
H161 C183 1_555 1_555
H162 C185 1_555 1_555
H163 C186 1_555 1_555
H164 C187 1_555 1_555
H165 C188 1_555 1_555
H166 C189 1_555 1_555
H177 O14 1_555 1_555
H178 O4 1_555 1_555
H179 O8 1_555 1_555
C13 C14 1_555 1_555
C21 C22 1_555 1_555
C29 C30 1_555 1_555
C29 C31 1_555 1_555
C45 C46 1_555 1_555
C53 C54 1_555 1_555
C59 C63 1_555 1_555
C61 C62 1_555 1_555
C75 C76 1_555 1_555
C80 C81 1_555 1_555
C85 C86 1_555 1_555
C95 C96 1_555 1_555
C107 C108 1_555 1_555
C109 C110 1_555 1_555
C113 C114 1_555 1_555
C140 C141 1_555 1_555
C182 C183 1_555 1_555
C188 C189 1_555 1_555

#END
