
#######################################################################
#
#                 Cambridge Crystallographic Data Centre
#                                CCDC 
#
#######################################################################
#
# If this CIF has been generated from an entry in the Cambridge 
# Structural Database, then it will include bibliographic, chemical, 
# crystal, experimental, refinement or atomic coordinate data resulting 
# from the CCDC's data processing and validation procedures.
#
#######################################################################

data_IFOVUW
_chemical_formula_moiety         'C38 H32 N4 O3,H2 O1'
_chemical_name_systematic        
"Ethyl 1''-benzyl-2''-oxo-1'',2'',5',6',7',7a'-hexahydro-1'H-dispiro[indeno[1,2-b]quinoxaline-11,2'-pyrrolizine-3',3''-indole]-1'-carboxylate monohydrate"
_symmetry_cell_setting           triclinic
_symmetry_space_group_name_H-M   'P -1'
_symmetry_Int_Tables_number      2
_space_group_name_Hall           '-P 1'
loop_
_symmetry_equiv_pos_site_id
_symmetry_equiv_pos_as_xyz
1 x,y,z
2 -x,-y,-z
_cell_length_a                   11.0527(3)
_cell_length_b                   11.5834(3)
_cell_length_c                   12.2015(3)
_cell_angle_alpha                97.3700(10)
_cell_angle_beta                 92.0370(10)
_cell_angle_gamma                96.8100(10)
_cell_volume                     1536.25
_exptl_crystal_colour            colorless
_exptl_crystal_description       Block
_cell_formula_units_Z            2
_exptl_crystal_recrystallization_method methanol
loop_
_atom_site_label
_atom_site_type_symbol
_atom_site_fract_x
_atom_site_fract_y
_atom_site_fract_z
C1 C 0.33289(14) 0.60474(13) 0.97720(12)
C2 C 0.27983(16) 0.53695(15) 0.88023(13)
H1 H 0.1967 0.5108 0.8754
C3 C 0.34944(18) 0.50896(17) 0.79262(14)
H2 H 0.3132 0.4640 0.7286
C4 C 0.47454(18) 0.54734(16) 0.79835(15)
H3 H 0.5207 0.5287 0.7378
C5 C 0.52933(16) 0.61179(15) 0.89196(14)
H4 H 0.6127 0.6364 0.8951
C6 C 0.46058(14) 0.64146(13) 0.98405(13)
C7 C 0.31818(13) 0.69142(12) 1.15216(11)
C8 C 0.44754(13) 0.72317(12) 1.16075(12)
C9 C 0.48255(13) 0.77731(12) 1.27325(12)
C10 C 0.59802(14) 0.81928(14) 1.32171(14)
H5 H 0.6670 0.8174 1.2803
C11 C 0.60769(15) 0.86350(14) 1.43215(14)
H6 H 0.6839 0.8924 1.4660
C12 C 0.50493(15) 0.86526(13) 1.49326(13)
H7 H 0.5134 0.8941 1.5682
C13 C 0.38954(14) 0.82503(13) 1.44535(13)
H8 H 0.3210 0.8279 1.4873
C14 C 0.37783(13) 0.78043(12) 1.33380(12)
C15 C 0.26261(12) 0.73456(12) 1.26003(11)
C16 C 0.17216(12) 0.64178(12) 1.30948(11)
C17 C 0.08006(12) 0.57554(12) 1.21443(12)
C18 C 0.22870(12) 0.54088(12) 1.34875(12)
C19 C 0.30618(14) 0.53514(14) 1.43864(13)
H9 H 0.3328 0.6020 1.4881
C20 C 0.34386(15) 0.42751(15) 1.45399(14)
H10 H 0.3963 0.4227 1.5141
C21 C 0.30422(15) 0.32808(14) 1.38100(14)
H11 H 0.3322 0.2575 1.3915
C22 C 0.22365(14) 0.33140(13) 1.29237(13)
H12 H 0.1954 0.2640 1.2441
C23 C 0.18692(13) 0.43837(12) 1.27831(12)
C24 C 0.04034(15) 0.37286(14) 1.11225(13)
H13 H 0.1019 0.3390 1.0683
H14 H -0.0096 0.4104 1.0639
C25 C -0.03895(16) 0.27579(15) 1.15617(15)
C26 C -0.10008(19) 0.2954(2) 1.25144(18)
H15 H -0.0929 0.3705 1.2906
C27 C -0.1720(3) 0.2049(3) 1.2897(3)
H16 H -0.2130 0.2196 1.3544
C28 C -0.1837(3) 0.0943(3) 1.2338(4)
H17 H -0.2319 0.0335 1.2602
C29 C -0.1241(4) 0.0736(2) 1.1390(4)
H18 H -0.1321 -0.0018 1.1004
C30 C -0.0512(3) 0.16379(19) 1.0990(2)
H19 H -0.0109 0.1487 1.0340
C31 C 0.4884(3) 1.0676(3) 1.1530(2)
H20 H 0.5302 1.1394 1.1343
H21 H 0.5261 1.0025 1.1189
H22 H 0.4930 1.0690 1.2319
C32 C 0.3595(2) 1.05536(18) 1.1130(2)
H23 H 0.3219 1.1220 1.1463
H24 H 0.3549 1.0548 1.0334
C33 C 0.24386(15) 0.95123(13) 1.23835(13)
C34 C 0.17726(13) 0.83303(12) 1.25340(12)
H25 H 0.1176 0.8079 1.1911
C35 C 0.11039(14) 0.83350(13) 1.36057(13)
H26 H 0.1548 0.8927 1.4170
C36 C -0.02444(16) 0.84985(17) 1.35917(17)
H27 H -0.0356 0.9317 1.3779
H28 H -0.0648 0.8201 1.2875
C37 C -0.07122(18) 0.77731(19) 1.44790(19)
H29 H -0.0531 0.8207 1.5212
H30 H -0.1586 0.7547 1.4375
C38 C -0.00303(15) 0.67035(16) 1.43219(15)
H31 H 0.0062 0.6383 1.5012
H32 H -0.0456 0.6099 1.3772
N1 N 0.26028(11) 0.63329(11) 1.06378(10)
N2 N 0.51881(11) 0.70233(11) 1.07875(11)
N3 N 0.10044(11) 0.46128(10) 1.19862(10)
N4 N 0.11669(11) 0.71534(11) 1.39436(10)
O1 O 0.00192(9) 0.61759(9) 1.16524(9)
O2 O 0.29325(13) 0.94730(11) 1.14075(11)
O3 O 0.25075(15) 1.03746(11) 1.30440(12)
O4 O 0.79032(17) 0.76464(16) 1.09100(18)
H33 H 0.7036(15) 0.730(2) 1.091(2)
H34 H 0.832(2) 0.701(2) 1.116(2)
loop_
_geom_bond_atom_site_label_1
_geom_bond_atom_site_label_2
_geom_bond_site_symmetry_1
_geom_bond_site_symmetry_2
C1 C2 1_555 1_555
C2 H1 1_555 1_555
C3 C2 1_555 1_555
H2 C3 1_555 1_555
C4 C3 1_555 1_555
H3 C4 1_555 1_555
C5 C4 1_555 1_555
H4 C5 1_555 1_555
C6 C1 1_555 1_555
C7 C8 1_555 1_555
C8 C9 1_555 1_555
C9 C10 1_555 1_555
C10 H5 1_555 1_555
C11 C10 1_555 1_555
H6 C11 1_555 1_555
C12 C11 1_555 1_555
H7 C12 1_555 1_555
C13 C12 1_555 1_555
H8 C13 1_555 1_555
C14 C9 1_555 1_555
C15 C7 1_555 1_555
C16 C15 1_555 1_555
C17 C16 1_555 1_555
C18 C16 1_555 1_555
C19 C18 1_555 1_555
H9 C19 1_555 1_555
C20 C19 1_555 1_555
H10 C20 1_555 1_555
C21 C20 1_555 1_555
H11 C21 1_555 1_555
C22 C21 1_555 1_555
H12 C22 1_555 1_555
C23 C18 1_555 1_555
C24 H13 1_555 1_555
H14 C24 1_555 1_555
C25 C24 1_555 1_555
C26 C25 1_555 1_555
H15 C26 1_555 1_555
C27 C26 1_555 1_555
H16 C27 1_555 1_555
C28 C27 1_555 1_555
H17 C28 1_555 1_555
C29 C28 1_555 1_555
H18 C29 1_555 1_555
C30 C25 1_555 1_555
H19 C30 1_555 1_555
C31 H20 1_555 1_555
H21 C31 1_555 1_555
H22 C31 1_555 1_555
C32 C31 1_555 1_555
H23 C32 1_555 1_555
H24 C32 1_555 1_555
C33 C34 1_555 1_555
C34 C15 1_555 1_555
H25 C34 1_555 1_555
C35 C34 1_555 1_555
H26 C35 1_555 1_555
C36 C35 1_555 1_555
H27 C36 1_555 1_555
H28 C36 1_555 1_555
C37 C36 1_555 1_555
H29 C37 1_555 1_555
H30 C37 1_555 1_555
C38 C37 1_555 1_555
H31 C38 1_555 1_555
H32 C38 1_555 1_555
N1 C1 1_555 1_555
N2 C6 1_555 1_555
N3 C17 1_555 1_555
N4 C16 1_555 1_555
O1 C17 1_555 1_555
O2 C32 1_555 1_555
O3 C33 1_555 1_555
O4 H33 1_555 1_555
H34 O4 1_555 1_555
C5 C6 1_555 1_555
C7 N1 1_555 1_555
C8 N2 1_555 1_555
C13 C14 1_555 1_555
C14 C15 1_555 1_555
C22 C23 1_555 1_555
C23 N3 1_555 1_555
C24 N3 1_555 1_555
C29 C30 1_555 1_555
C33 O2 1_555 1_555
C35 N4 1_555 1_555
C38 N4 1_555 1_555

#END
