
#######################################################################
#
#                 Cambridge Crystallographic Data Centre
#                                CCDC 
#
#######################################################################
#
# If this CIF has been generated from an entry in the Cambridge 
# Structural Database, then it will include bibliographic, chemical, 
# crystal, experimental, refinement or atomic coordinate data resulting 
# from the CCDC's data processing and validation procedures.
#
#######################################################################

data_IFOVIJ
_chemical_formula_moiety         
'C32 H32 O8,1.5(C10 H8 N2 O2),2(C2 H6 O1),H2 O1'
_chemical_name_systematic        
"(2,8,14,20-Tetramethyl-4,6,10,12,16,18,22,24-octahydroxycalix[4]arene) 4,4'-bipyridine N,N'-di-oxide ethanol solvate monohydrate"
_symmetry_cell_setting           triclinic
_symmetry_space_group_name_H-M   'P -1'
_symmetry_Int_Tables_number      2
_space_group_name_Hall           '-P 1'
loop_
_symmetry_equiv_pos_site_id
_symmetry_equiv_pos_as_xyz
1 x,y,z
2 -x,-y,-z
_cell_length_a                   9.6055(3)
_cell_length_b                   14.3526(4)
_cell_length_c                   16.6480(5)
_cell_angle_alpha                81.4756(10)
_cell_angle_beta                 80.9603(10)
_cell_angle_gamma                84.4496(10)
_cell_volume                     2235.27
_exptl_crystal_colour            yellow
_exptl_crystal_description       plate
_cell_formula_units_Z            2
_exptl_crystal_recrystallization_method ethanol
loop_
_atom_site_label
_atom_site_type_symbol
_atom_site_fract_x
_atom_site_fract_y
_atom_site_fract_z
O1 O 1.14413(12) 0.78510(8) -0.56722(7)
H1 H 1.1335 0.7820 -0.6146
O2 O 0.64453(12) 0.87528(9) -0.54861(7)
H2 H 0.6604 0.8672 -0.5971
O3 O 0.49913(13) 0.74688(9) -0.37648(7)
O4 O 0.47050(12) 0.69382(8) -0.08447(7)
H3 H 0.4300 0.6483 -0.0908
O5 O 0.54424(12) 0.75648(8) 0.08756(7)
H4 H 0.5487 0.7470 0.1369
O6 O 1.02729(12) 0.62748(8) 0.07042(7)
H5 H 1.0008 0.5747 0.0879
O7 O 1.10930(13) 0.53482(8) -0.11721(7)
O8 O 1.14602(12) 0.62043(8) -0.40784(7)
H6 H 1.1427 0.5632 -0.4051
C1 C 1.19205(18) 0.90753(12) -0.38700(10)
H8 H 1.2761 0.8980 -0.3614
H9 H 1.1171 0.9372 -0.3520
H10 H 1.2100 0.9473 -0.4386
C2 C 1.14894(16) 0.81193(11) -0.40137(9)
H11 H 1.2248 0.7859 -0.4403
C3 C 1.01552(17) 0.82702(11) -0.44226(9)
C4 C 1.01866(17) 0.81488(11) -0.52447(9)
C5 C 0.89549(17) 0.83155(11) -0.56065(10)
H12 H 0.8981 0.8222 -0.6150
C6 C 0.76880(17) 0.86206(11) -0.51596(10)
C7 C 0.76279(17) 0.87891(11) -0.43493(9)
C8 C 0.88749(17) 0.85879(11) -0.40026(10)
H13 H 0.8845 0.8672 -0.3457
C9 C 0.65327(19) 1.02489(12) -0.37791(10)
H14 H 0.5696 1.0525 -0.3480
H15 H 0.6729 1.0612 -0.4311
H16 H 0.7316 1.0247 -0.3485
C10 C 0.63028(17) 0.92304(12) -0.38768(9)
H17 H 0.5540 0.9259 -0.4209
C11 C 0.58596(16) 0.86169(11) -0.30679(10)
C12 C 0.52382(16) 0.77767(12) -0.30540(10)
C13 C 0.48421(17) 0.71994(12) -0.23225(10)
H18 H 0.4422 0.6643 -0.2326
C14 C 0.50783(16) 0.74590(12) -0.15848(10)
C15 C 0.57023(16) 0.83002(11) -0.15697(10)
C16 C 0.60773(16) 0.88533(11) -0.23141(10)
H19 H 0.6496 0.9411 -0.2312
C17 C 0.62683(18) 0.95990(11) -0.08065(10)
H20 H 0.5557 1.0014 -0.1050
H21 H 0.7170 0.9679 -0.1140
H22 H 0.6308 0.9747 -0.0267
C18 C 0.59010(17) 0.85740(11) -0.07464(9)
H23 H 0.5005 0.8504 -0.0377
C19 C 0.70316(17) 0.79273(11) -0.03559(9)
C20 C 0.67780(16) 0.74593(11) 0.04435(9)
C21 C 0.78540(17) 0.69027(11) 0.07948(9)
H24 H 0.7665 0.6582 0.1323
C22 C 0.92116(17) 0.68249(11) 0.03585(9)
C23 C 0.95235(17) 0.73073(11) -0.04345(9)
C24 C 0.84061(17) 0.78385(11) -0.07695(10)
H25 H 0.8590 0.8152 -0.1301
C25 C 1.15597(17) 0.82934(12) -0.09273(10)
H26 H 1.1467 0.8454 -0.0381
H27 H 1.1012 0.8754 -0.1252
H28 H 1.2536 0.8286 -0.1169
C26 C 1.10236(16) 0.73129(11) -0.08952(9)
H29 H 1.1621 0.6858 -0.0575
C27 C 1.11354(16) 0.70038(11) -0.17404(9)
C28 C 1.11758(16) 0.60522(11) -0.18389(9)
C29 C 1.12581(16) 0.57707(11) -0.26099(10)
H30 H 1.1263 0.5134 -0.2660
C30 C 1.13324(16) 0.64428(11) -0.33061(9)
C31 C 1.13256(16) 0.74053(11) -0.32415(9)
C32 C 1.12173(16) 0.76554(11) -0.24561(9)
H31 H 1.1198 0.8293 -0.2405
H56 H 0.530(2) 0.7810(16) -0.4165(14)
H57 H 1.175(2) 0.5354(16) -0.0898(14)
O9 O 0.66360(12) 0.46451(8) 0.04307(7)
O10 O 0.85430(13) 0.55242(8) -0.55159(7)
N1 N 0.68527(14) 0.47819(9) -0.03904(8)
N2 N 0.83078(14) 0.54167(10) -0.47002(8)
C33 C 0.65013(17) 0.41368(12) -0.08199(10)
H32 H 0.6068 0.3604 -0.0546
C34 C 0.67823(17) 0.42657(12) -0.16618(10)
H33 H 0.6543 0.3813 -0.1952
C35 C 0.74218(16) 0.50653(11) -0.20907(10)
C36 C 0.77312(17) 0.57262(11) -0.16192(10)
H34 H 0.8137 0.6275 -0.1878
C37 C 0.74424(17) 0.55746(11) -0.07779(10)
H35 H 0.7654 0.6021 -0.0473
C38 C 0.77512(16) 0.51980(11) -0.29946(10)
C39 C 0.79642(17) 0.44221(12) -0.34270(10)
H36 H 0.7906 0.3816 -0.3140
C40 C 0.82589(17) 0.45387(11) -0.42706(10)
H37 H 0.8425 0.4012 -0.4547
C41 C 0.81354(17) 0.61820(12) -0.43009(10)
H38 H 0.8200 0.6781 -0.4600
C42 C 0.78650(17) 0.60879(12) -0.34570(10)
H39 H 0.7757 0.6623 -0.3193
O11 O 0.51577(14) 0.73022(9) 0.25476(7)
N3 N 0.51254(15) 0.66668(10) 0.32147(8)
C43 C 0.46456(18) 0.69431(12) 0.39582(10)
H40 H 0.4339 0.7572 0.3994
C44 C 0.46071(18) 0.63035(12) 0.46584(10)
H41 H 0.4292 0.6508 0.5165
C45 C 0.50327(17) 0.53484(12) 0.46253(10)
C46 C 0.55154(17) 0.50899(12) 0.38445(10)
H42 H 0.5807 0.4462 0.3792
C47 C 0.55633(18) 0.57505(12) 0.31565(10)
H43 H 0.5900 0.5567 0.2644
O11A O 0.48423(14) 0.26978(9) 0.74524(7)
N3A N 0.48746(15) 0.33332(10) 0.67853(8)
C43A C 0.53544(18) 0.30569(12) 0.60418(10)
H40A H 0.5661 0.2428 0.6006
C44A C 0.53929(18) 0.36965(12) 0.53416(10)
H41A H 0.5708 0.3492 0.4835
C45A C 0.49673(17) 0.46516(12) 0.53747(10)
C46A C 0.44846(17) 0.49101(12) 0.61555(10)
H42A H 0.4193 0.5538 0.6208
C47A C 0.44367(18) 0.42495(12) 0.68435(10)
H43A H 0.4100 0.4433 0.7356
O12 O 0.12866(16) 0.77082(10) 0.27519(8)
C48 C 0.1381(2) 0.85427(14) 0.21690(11)
H44 H 0.2159 0.8884 0.2253
H45 H 0.0518 0.8947 0.2261
C49 C 0.1606(2) 0.83320(14) 0.12991(11)
H46 H 0.1666 0.8913 0.0930
H47 H 0.0828 0.8007 0.1209
H48 H 0.2469 0.7941 0.1202
H58 H 0.033(2) 0.7405(16) 0.2655(13)
O13 O 0.69159(13) 0.84974(9) -0.71068(7)
H7 H 0.6365 0.8214 -0.7293
C50 C 0.7208(2) 0.93617(13) -0.76426(11)
H49 H 0.8019 0.9617 -0.7497
H50 H 0.6405 0.9820 -0.7564
C51 C 0.7502(2) 0.92171(14) -0.85294(11)
H51 H 0.7692 0.9809 -0.8863
H52 H 0.6694 0.8977 -0.8680
H53 H 0.8307 0.8773 -0.8613
O14 O -0.11856(16) 0.67576(10) 0.29702(8)
H54 H -0.194(2) 0.7288(12) 0.2939(12)
H55 H -0.141(2) 0.6468(14) 0.3556(10)
loop_
_geom_bond_atom_site_label_1
_geom_bond_atom_site_label_2
_geom_bond_site_symmetry_1
_geom_bond_site_symmetry_2
O1 H1 1_555 1_555
O2 H2 1_555 1_555
O3 C12 1_555 1_555
O4 H3 1_555 1_555
O5 H4 1_555 1_555
O6 H5 1_555 1_555
O7 C28 1_555 1_555
O8 H6 1_555 1_555
O9 N1 1_555 1_555
O10 N2 1_555 1_555
O11 N3 1_555 1_555
O12 C48 1_555 1_555
O13 H7 1_555 1_555
O14 H54 1_555 1_555
N1 C33 1_555 1_555
N2 C40 1_555 1_555
N3 C43 1_555 1_555
C1 H8 1_555 1_555
H9 C1 1_555 1_555
H10 C1 1_555 1_555
C2 C1 1_555 1_555
H11 C2 1_555 1_555
C3 C2 1_555 1_555
C4 O1 1_555 1_555
C5 C4 1_555 1_555
H12 C5 1_555 1_555
C6 O2 1_555 1_555
C7 C6 1_555 1_555
C8 C3 1_555 1_555
H13 C8 1_555 1_555
C9 H14 1_555 1_555
H15 C9 1_555 1_555
H16 C9 1_555 1_555
C10 C7 1_555 1_555
H17 C10 1_555 1_555
C11 C10 1_555 1_555
C12 C11 1_555 1_555
C13 C12 1_555 1_555
H18 C13 1_555 1_555
C14 O4 1_555 1_555
C15 C14 1_555 1_555
C16 C11 1_555 1_555
H19 C16 1_555 1_555
C17 H20 1_555 1_555
H21 C17 1_555 1_555
H22 C17 1_555 1_555
C18 C15 1_555 1_555
H23 C18 1_555 1_555
C19 C18 1_555 1_555
C20 O5 1_555 1_555
C21 C20 1_555 1_555
H24 C21 1_555 1_555
C22 O6 1_555 1_555
C23 C22 1_555 1_555
C24 C19 1_555 1_555
H25 C24 1_555 1_555
C25 H26 1_555 1_555
H27 C25 1_555 1_555
H28 C25 1_555 1_555
C26 C23 1_555 1_555
H29 C26 1_555 1_555
C27 C26 1_555 1_555
C28 C27 1_555 1_555
C29 C28 1_555 1_555
H30 C29 1_555 1_555
C30 O8 1_555 1_555
C31 C2 1_555 1_555
C32 C27 1_555 1_555
H31 C32 1_555 1_555
C33 H32 1_555 1_555
C34 C33 1_555 1_555
H33 C34 1_555 1_555
C35 C34 1_555 1_555
C36 C35 1_555 1_555
H34 C36 1_555 1_555
C37 N1 1_555 1_555
H35 C37 1_555 1_555
C38 C35 1_555 1_555
C39 C38 1_555 1_555
H36 C39 1_555 1_555
C40 C39 1_555 1_555
H37 C40 1_555 1_555
C41 N2 1_555 1_555
H38 C41 1_555 1_555
C42 C38 1_555 1_555
H39 C42 1_555 1_555
C43 H40 1_555 1_555
C44 C43 1_555 1_555
H41 C44 1_555 1_555
C45 C44 1_555 1_555
C46 C45 1_555 1_555
H42 C46 1_555 1_555
C47 N3 1_555 1_555
H43 C47 1_555 1_555
C48 H44 1_555 1_555
H45 C48 1_555 1_555
C49 C48 1_555 1_555
H46 C49 1_555 1_555
H47 C49 1_555 1_555
H48 C49 1_555 1_555
C50 O13 1_555 1_555
H49 C50 1_555 1_555
H50 C50 1_555 1_555
C51 C50 1_555 1_555
H51 C51 1_555 1_555
H52 C51 1_555 1_555
H53 C51 1_555 1_555
H55 O14 1_555 1_555
H56 O3 1_555 1_555
H57 O7 1_555 1_555
H58 O12 1_555 1_555
O11A N3A 1_555 1_555
N3A C43A 1_555 1_555
C43A H40A 1_555 1_555
C44A C43A 1_555 1_555
H41A C44A 1_555 1_555
C45A C45 1_555 1_555
C46A C45A 1_555 1_555
H42A C46A 1_555 1_555
C47A N3A 1_555 1_555
H43A C47A 1_555 1_555
C3 C4 1_555 1_555
C5 C6 1_555 1_555
C7 C8 1_555 1_555
C9 C10 1_555 1_555
C13 C14 1_555 1_555
C15 C16 1_555 1_555
C17 C18 1_555 1_555
C19 C20 1_555 1_555
C21 C22 1_555 1_555
C23 C24 1_555 1_555
C25 C26 1_555 1_555
C29 C30 1_555 1_555
C30 C31 1_555 1_555
C31 C32 1_555 1_555
C36 C37 1_555 1_555
C41 C42 1_555 1_555
C46 C47 1_555 1_555
C44A C45A 1_555 1_555
C46A C47A 1_555 1_555

#END
