
#######################################################################
#
#                 Cambridge Crystallographic Data Centre
#                                CCDC 
#
#######################################################################
#
# If this CIF has been generated from an entry in the Cambridge 
# Structural Database, then it will include bibliographic, chemical, 
# crystal, experimental, refinement or atomic coordinate data resulting 
# from the CCDC's data processing and validation procedures.
#
#######################################################################

data_IFOWAD
_chemical_formula_moiety         'C12 H10 Cl1 N1 O3'
_chemical_name_systematic        
'Methyl 2-(5-chloro-1-methyl-2-oxo-2,3-dihydro-1H-indol-3-ylidene)acetate'
_symmetry_cell_setting           monoclinic
_symmetry_space_group_name_H-M   'P 21/c'
_symmetry_Int_Tables_number      14
_space_group_name_Hall           '-P 2ybc'
loop_
_symmetry_equiv_pos_site_id
_symmetry_equiv_pos_as_xyz
1 x,y,z
2 -x,1/2+y,1/2-z
3 -x,-y,-z
4 x,1/2-y,1/2+z
_cell_length_a                   8.4709(7)
_cell_length_b                   17.1658(13)
_cell_length_c                   7.9481(6)
_cell_angle_alpha                90
_cell_angle_beta                 107.228(4)
_cell_angle_gamma                90
_cell_volume                     1103.88
_exptl_crystal_colour            colorless
_exptl_crystal_description       Block
_cell_formula_units_Z            4
loop_
_atom_site_label
_atom_site_type_symbol
_atom_site_fract_x
_atom_site_fract_y
_atom_site_fract_z
C1 C 0.18640(15) 0.52152(8) 0.41988(16)
C2 C 0.22645(18) 0.44379(9) 0.44263(18)
H1 H 0.3224 0.4283 0.5281
C3 C 0.12324(18) 0.38846(8) 0.33765(19)
H2 H 0.1487 0.3357 0.3514
C4 C -0.01720(16) 0.41357(7) 0.21330(17)
C5 C -0.05973(15) 0.49301(7) 0.18943(15)
C6 C 0.04383(15) 0.54819(7) 0.29523(15)
H3 H 0.0187 0.6010 0.2831
C7 C -0.21570(16) 0.49743(7) 0.04971(15)
C8 C -0.25984(18) 0.41402(7) -0.00755(18)
C9 C -0.1339(2) 0.28462(9) 0.0829(2)
H4 H -0.2332 0.2668 -0.0022
H5 H -0.1267 0.2625 0.1960
H6 H -0.0398 0.2687 0.0476
C10 C -0.31915(15) 0.55312(8) -0.03603(16)
H7 H -0.4126 0.5363 -0.1232
C11 C -0.30207(15) 0.63753(7) -0.00835(16)
C12 C -0.4227(2) 0.75770(8) -0.1167(2)
H8 H -0.4311 0.7724 -0.0031
H9 H -0.5155 0.7782 -0.2068
H10 H -0.3222 0.7783 -0.1314
N1 N -0.13690(14) 0.36835(6) 0.09414(14)
O1 O -0.38178(14) 0.39168(7) -0.12194(15)
O2 O -0.19597(13) 0.67151(6) 0.10265(16)
O3 O -0.42172(12) 0.67452(6) -0.12966(13)
Cl1 Cl 0.31706(4) 0.58922(2) 0.55565(4)
loop_
_geom_bond_atom_site_label_1
_geom_bond_atom_site_label_2
_geom_bond_site_symmetry_1
_geom_bond_site_symmetry_2
C1 C2 1_555 1_555
C2 H1 1_555 1_555
C3 C2 1_555 1_555
H2 C3 1_555 1_555
C4 C3 1_555 1_555
C5 C4 1_555 1_555
C6 C1 1_555 1_555
H3 C6 1_555 1_555
C7 C5 1_555 1_555
C8 C7 1_555 1_555
C9 H4 1_555 1_555
H5 C9 1_555 1_555
H6 C9 1_555 1_555
C10 C7 1_555 1_555
H7 C10 1_555 1_555
C11 C10 1_555 1_555
C12 H8 1_555 1_555
H9 C12 1_555 1_555
H10 C12 1_555 1_555
N1 C4 1_555 1_555
O1 C8 1_555 1_555
O2 C11 1_555 1_555
O3 C11 1_555 1_555
Cl1 C1 1_555 1_555
C5 C6 1_555 1_555
C8 N1 1_555 1_555
C9 N1 1_555 1_555
C12 O3 1_555 1_555

#END
