
#######################################################################
#
#                 Cambridge Crystallographic Data Centre
#                                CCDC 
#
#######################################################################
#
# If this CIF has been generated from an entry in the Cambridge 
# Structural Database, then it will include bibliographic, chemical, 
# crystal, experimental, refinement or atomic coordinate data resulting 
# from the CCDC's data processing and validation procedures.
#
#######################################################################

data_IFOYEJ
_chemical_formula_moiety         'C17 H13 N3 O2'
_chemical_name_systematic        
'Ethyl 2-phenyl-1,3,7b-triazacyclopenta[cd]indene-4-carboxylate'
_symmetry_cell_setting           monoclinic
_symmetry_space_group_name_H-M   'P 21/c'
_symmetry_Int_Tables_number      14
_space_group_name_Hall           '-P 2ybc'
loop_
_symmetry_equiv_pos_site_id
_symmetry_equiv_pos_as_xyz
1 x,y,z
2 -x,1/2+y,1/2-z
3 -x,-y,-z
4 x,1/2-y,1/2+z
_cell_length_a                   7.0580(2)
_cell_length_b                   21.1112(8)
_cell_length_c                   9.4057(3)
_cell_angle_alpha                90
_cell_angle_beta                 106.147(2)
_cell_angle_gamma                90
_cell_volume                     1346.19
_exptl_crystal_colour            colorless
_exptl_crystal_description       needle
_cell_formula_units_Z            4
loop_
_atom_site_label
_atom_site_type_symbol
_atom_site_fract_x
_atom_site_fract_y
_atom_site_fract_z
O1 O 0.25221(13) 0.62424(4) 1.19450(9)
O2 O 0.09328(14) 0.64326(4) 0.95438(9)
N1 N 0.17015(15) 0.51330(5) 0.89443(11)
N2 N 0.33091(15) 0.44475(5) 1.06077(11)
N3 N 0.37679(15) 0.35375(5) 0.96039(11)
C1 C 0.28861(19) 0.69907(6) 1.39154(14)
H1 H 0.2008 0.6749 1.4321
H2 H 0.2802 0.7430 1.4152
H3 H 0.4213 0.6844 1.4329
C2 C 0.2314(2) 0.69098(6) 1.22628(14)
H4 H 0.0961 0.7045 1.1837
H5 H 0.3162 0.7165 1.1838
C3 C 0.18095(18) 0.60798(6) 1.05109(13)
C4 C 0.22684(17) 0.54093(6) 1.03029(12)
C5 C 0.23825(17) 0.45294(6) 0.91626(13)
C6 C 0.26960(17) 0.39271(6) 0.85350(13)
C7 C 0.20590(17) 0.37327(6) 0.69814(13)
C8 C 0.12307(19) 0.41717(6) 0.58661(14)
H6 H 0.1035 0.4588 0.6114
C9 C 0.07008(19) 0.39866(6) 0.43901(14)
H7 H 0.0164 0.4280 0.3650
C10 C 0.09743(19) 0.33618(6) 0.40215(14)
H8 H 0.0625 0.3238 0.3033
C11 C 0.41701(18) 0.38684(6) 1.09117(13)
C12 C 0.23140(18) 0.31046(6) 0.65989(13)
H9 H 0.2851 0.2809 0.7334
C13 C 0.17676(18) 0.29215(6) 0.51242(14)
H10 H 0.1933 0.2503 0.4873
C14 C 0.52561(19) 0.37953(6) 1.23692(13)
H11 H 0.5899 0.3417 1.2709
C15 C 0.53513(19) 0.43197(6) 1.33266(13)
H12 H 0.6072 0.4271 1.4311
C16 C 0.44438(18) 0.49045(6) 1.29034(13)
H13 H 0.4564 0.5233 1.3581
C17 C 0.33469(17) 0.49791(6) 1.14231(13)
loop_
_geom_bond_atom_site_label_1
_geom_bond_atom_site_label_2
_geom_bond_site_symmetry_1
_geom_bond_site_symmetry_2
O1 C2 1_555 1_555
O2 C3 1_555 1_555
N1 C4 1_555 1_555
N2 C5 1_555 1_555
N3 C6 1_555 1_555
C1 H1 1_555 1_555
H2 C1 1_555 1_555
H3 C1 1_555 1_555
C2 C1 1_555 1_555
H4 C2 1_555 1_555
H5 C2 1_555 1_555
C3 O1 1_555 1_555
C4 C3 1_555 1_555
C5 N1 1_555 1_555
C6 C5 1_555 1_555
C7 C6 1_555 1_555
C8 C7 1_555 1_555
H6 C8 1_555 1_555
C9 C8 1_555 1_555
H7 C9 1_555 1_555
C10 C9 1_555 1_555
H8 C10 1_555 1_555
C11 N2 1_555 1_555
C12 C7 1_555 1_555
H9 C12 1_555 1_555
C13 C10 1_555 1_555
H10 C13 1_555 1_555
C14 C11 1_555 1_555
H11 C14 1_555 1_555
C15 C14 1_555 1_555
H12 C15 1_555 1_555
C16 C15 1_555 1_555
H13 C16 1_555 1_555
C17 N2 1_555 1_555
N3 C11 1_555 1_555
C4 C17 1_555 1_555
C12 C13 1_555 1_555
C16 C17 1_555 1_555

#END
