
#######################################################################
#
#                 Cambridge Crystallographic Data Centre
#                                CCDC 
#
#######################################################################
#
# If this CIF has been generated from an entry in the Cambridge 
# Structural Database, then it will include bibliographic, chemical, 
# crystal, experimental, refinement or atomic coordinate data resulting 
# from the CCDC's data processing and validation procedures.
#
#######################################################################

data_IFOZIO
_chemical_formula_moiety         'C18 H15 Br1 O2 S1'
_chemical_name_systematic        
'Ethyl 2-(4-bromophenyl)-2H-thiochromene-3-carboxylate'
_symmetry_cell_setting           monoclinic
_symmetry_space_group_name_H-M   'C 2'
_symmetry_Int_Tables_number      5
_space_group_name_Hall           'C 2y'
loop_
_symmetry_equiv_pos_site_id
_symmetry_equiv_pos_as_xyz
1 x,y,z
2 -x,y,-z
3 1/2+x,1/2+y,z
4 1/2-x,1/2+y,-z
_cell_length_a                   21.1283(12)
_cell_length_b                   7.8604(5)
_cell_length_c                   11.0155(7)
_cell_angle_alpha                90
_cell_angle_beta                 118.870(3)
_cell_angle_gamma                90
_cell_volume                     1602.06
_exptl_crystal_colour            colorless
_exptl_crystal_description       block
_cell_formula_units_Z            4
loop_
_atom_site_label
_atom_site_type_symbol
_atom_site_fract_x
_atom_site_fract_y
_atom_site_fract_z
Br1 Br 0.062719(11) 0.08540(3) 0.19773(2)
S1 S -0.07489(3) -0.70992(9) 0.26489(7)
C1 C -0.38596(15) -0.6178(5) -0.4264(3)
H1 H -0.4084 -0.6131 -0.5257
H2 H -0.4088 -0.5373 -0.3944
H3 H -0.3911 -0.7303 -0.3982
O1 O -0.27664(9) -0.5842(3) -0.21543(18)
O2 O -0.16407(9) -0.5893(3) -0.19037(18)
C2 C -0.30702(15) -0.5753(4) -0.3651(3)
H4 H -0.2832 -0.6561 -0.3962
H5 H -0.3010 -0.4620 -0.3929
C3 C 0.01326(12) -0.4277(4) 0.1605(2)
H6 H 0.0375 -0.5294 0.1687
C4 C 0.05022(14) -0.2745(4) 0.1826(3)
H7 H 0.0987 -0.2727 0.2053
C5 C -0.05943(12) -0.4313(4) 0.1264(2)
C6 C -0.09439(16) -0.2786(4) 0.1159(3)
H8 H -0.1427 -0.2794 0.0943
C7 C 0.01316(13) -0.1259(3) 0.1700(3)
C8 C -0.17868(13) -0.5906(3) 0.0109(3)
C9 C -0.09734(14) -0.6012(4) 0.1023(3)
H9 H -0.0791 -0.6728 0.0532
C10 C -0.22485(13) -0.5699(3) 0.0599(3)
H10 H -0.2733 -0.5543 -0.0047
C11 C -0.05871(14) -0.1253(4) 0.1371(3)
H11 H -0.0827 -0.0233 0.1292
C12 C -0.20402(13) -0.5883(3) -0.1406(3)
C13 C -0.17299(15) -0.5731(4) 0.4833(3)
H12 H -0.1621 -0.5754 0.5758
C14 C -0.25654(14) -0.5169(4) 0.2452(3)
H13 H -0.3019 -0.4801 0.1779
C15 C -0.20621(13) -0.5694(3) 0.2049(3)
C16 C -0.24058(14) -0.5182(4) 0.3822(3)
H14 H -0.2748 -0.4826 0.4068
C17 C -0.12182(15) -0.6244(4) 0.4465(3)
H15 H -0.0765 -0.6599 0.5146
C18 C -0.13788(13) -0.6231(3) 0.3085(3)
loop_
_geom_bond_atom_site_label_1
_geom_bond_atom_site_label_2
_geom_bond_site_symmetry_1
_geom_bond_site_symmetry_2
Br1 C7 1_555 1_555
S1 C9 1_555 1_555
C1 H1 1_555 1_555
H2 C1 1_555 1_555
H3 C1 1_555 1_555
O1 C2 1_555 1_555
O2 C12 1_555 1_555
C2 C1 1_555 1_555
H4 C2 1_555 1_555
H5 C2 1_555 1_555
C3 H6 1_555 1_555
C4 C3 1_555 1_555
H7 C4 1_555 1_555
C5 C3 1_555 1_555
C6 C5 1_555 1_555
H8 C6 1_555 1_555
C7 C4 1_555 1_555
C8 C9 1_555 1_555
C9 C5 1_555 1_555
H9 C9 1_555 1_555
C10 C8 1_555 1_555
H10 C10 1_555 1_555
C11 C6 1_555 1_555
H11 C11 1_555 1_555
C12 O1 1_555 1_555
C13 H12 1_555 1_555
C14 H13 1_555 1_555
C15 C10 1_555 1_555
C16 C13 1_555 1_555
H14 C16 1_555 1_555
C17 C13 1_555 1_555
H15 C17 1_555 1_555
C18 S1 1_555 1_555
C7 C11 1_555 1_555
C8 C12 1_555 1_555
C14 C15 1_555 1_555
C14 C16 1_555 1_555
C15 C18 1_555 1_555
C17 C18 1_555 1_555

#END
