
#######################################################################
#
#                 Cambridge Crystallographic Data Centre
#                                CCDC 
#
#######################################################################
#
# If this CIF has been generated from an entry in the Cambridge 
# Structural Database, then it will include bibliographic, chemical, 
# crystal, experimental, refinement or atomic coordinate data resulting 
# from the CCDC's data processing and validation procedures.
#
#######################################################################

data_IFUFEX
_chemical_formula_moiety         'C22 H24 F2 O2 S1'
_chemical_name_systematic        
'ethyl difluoro[2-phenyl-2-(phenylsulfanyl)cyclohexyl]acetate'
_symmetry_cell_setting           orthorhombic
_symmetry_space_group_name_H-M   'P b c a'
_symmetry_Int_Tables_number      61
_space_group_name_Hall           '-P 2ac 2ab'
loop_
_symmetry_equiv_pos_site_id
_symmetry_equiv_pos_as_xyz
1 x,y,z
2 1/2+x,1/2-y,-z
3 -x,1/2+y,1/2-z
4 1/2-x,-y,1/2+z
5 -x,-y,-z
6 1/2-x,1/2+y,z
7 x,1/2-y,1/2+z
8 1/2+x,y,1/2-z
_cell_length_a                   8.8546(14)
_cell_length_b                   18.774(2)
_cell_length_c                   24.292(3)
_cell_angle_alpha                90
_cell_angle_beta                 90
_cell_angle_gamma                90
_cell_volume                     4038.21
_exptl_crystal_description       block
_cell_formula_units_Z            8
loop_
_atom_site_label
_atom_site_type_symbol
_atom_site_fract_x
_atom_site_fract_y
_atom_site_fract_z
S1 S 0.52273(10) 0.59204(4) 0.42067(3)
F1 F 0.1572(2) 0.41739(11) 0.37636(9)
F2 F 0.1849(2) 0.37992(10) 0.45993(9)
O1 O 0.4693(3) 0.33266(11) 0.43498(9)
O2 O 0.3439(3) 0.31339(14) 0.35583(11)
C1 C 0.4974(3) 0.48192(14) 0.34703(11)
C2 C 0.3974(3) 0.52431(13) 0.38565(10)
C3 C 0.4672(3) 0.47666(15) 0.29148(12)
H1 H 0.3845(3) 0.50052(15) 0.27676(12)
C4 C 0.5947(4) 0.63984(15) 0.36373(12)
C5 C 0.3369(3) 0.47825(14) 0.43425(11)
H2 H 0.4246(3) 0.46553(14) 0.45679(11)
C6 C 0.2673(3) 0.56337(15) 0.35639(12)
H3 H 0.3099(3) 0.59626(15) 0.32980(12)
H4 H 0.2079(3) 0.52869(15) 0.33622(12)
C7 C 0.6257(3) 0.44634(15) 0.36654(13)
H5 H 0.6510(3) 0.45001(15) 0.40360(13)
C8 C 0.5584(4) 0.43635(17) 0.25747(13)
H6 H 0.5357(4) 0.43359(17) 0.22016(13)
C9 C 0.2630(4) 0.40774(16) 0.41619(13)
C10 C 0.3653(4) 0.34595(18) 0.39717(15)
C11 C 0.7158(4) 0.40595(16) 0.33218(17)
H7 H 0.7998(4) 0.38246(16) 0.34622(17)
C12 C 0.5217(4) 0.69959(17) 0.34451(17)
H8 H 0.4350(4) 0.71620(17) 0.36193(17)
C13 C 0.6810(4) 0.40051(17) 0.27713(16)
H9 H 0.7400(4) 0.37287(17) 0.25376(16)
C14 C 0.7277(4) 0.61825(17) 0.33803(15)
H10 H 0.7798(4) 0.57892(17) 0.35147(15)
C15 C 0.1625(4) 0.60468(18) 0.39473(15)
H11 H 0.2172(4) 0.64435(18) 0.41074(15)
H12 H 0.0788(4) 0.62387(18) 0.37364(15)
C16 C 0.2312(4) 0.52212(18) 0.47126(14)
H13 H 0.1890(4) 0.49108(18) 0.49922(14)
H14 H 0.2901(4) 0.55847(18) 0.48985(14)
C17 C 0.5801(5) 0.7354(2) 0.2980(2)
H15 H 0.5308(5) 0.7753(2) 0.2841(2)
C18 C 0.5731(5) 0.27233(17) 0.42430(18)
H16 H 0.5195(5) 0.22752(17) 0.42787(18)
H17 H 0.6133(5) 0.27550(17) 0.38723(18)
C19 C 0.7829(5) 0.6542(2) 0.29317(16)
H18 H 0.8716(5) 0.6392(2) 0.27629(16)
C20 C 0.1019(4) 0.5580(2) 0.44011(16)
H19 H 0.0428(4) 0.5866(2) 0.46544(16)
H20 H 0.0363(4) 0.5219(2) 0.42453(16)
C21 C 0.7079(6) 0.7114(2) 0.27362(18)
H21 H 0.7449(6) 0.7350(2) 0.24275(18)
C22 C 0.6968(7) 0.2758(2) 0.4647(2)
H22 H 0.753(3) 0.3190(10) 0.4594(10)
H23 H 0.6556(7) 0.275(2) 0.5012(2)
H24 H 0.762(3) 0.2356(12) 0.4598(11)
loop_
_geom_bond_atom_site_label_1
_geom_bond_atom_site_label_2
_geom_bond_site_symmetry_1
_geom_bond_site_symmetry_2
S1 C2 1_555 1_555
F1 C9 1_555 1_555
F2 C9 1_555 1_555
O1 C10 1_555 1_555
O2 C10 1_555 1_555
C1 C2 1_555 1_555
C2 C5 1_555 1_555
C3 C1 1_555 1_555
H1 C3 1_555 1_555
C4 S1 1_555 1_555
C5 H2 1_555 1_555
C6 C2 1_555 1_555
H3 C6 1_555 1_555
H4 C6 1_555 1_555
C7 C1 1_555 1_555
H5 C7 1_555 1_555
C8 C3 1_555 1_555
H6 C8 1_555 1_555
C9 C5 1_555 1_555
C10 C9 1_555 1_555
C11 C7 1_555 1_555
H7 C11 1_555 1_555
C12 C4 1_555 1_555
H8 C12 1_555 1_555
C13 C8 1_555 1_555
H9 C13 1_555 1_555
C14 C4 1_555 1_555
H10 C14 1_555 1_555
C15 C6 1_555 1_555
H11 C15 1_555 1_555
H12 C15 1_555 1_555
C16 C5 1_555 1_555
H13 C16 1_555 1_555
H14 C16 1_555 1_555
C17 C12 1_555 1_555
H15 C17 1_555 1_555
C18 O1 1_555 1_555
H16 C18 1_555 1_555
H17 C18 1_555 1_555
C19 C14 1_555 1_555
H18 C19 1_555 1_555
C20 C15 1_555 1_555
H19 C20 1_555 1_555
H20 C20 1_555 1_555
C21 C17 1_555 1_555
H21 C21 1_555 1_555
C22 C18 1_555 1_555
H22 C22 1_555 1_555
H23 C22 1_555 1_555
H24 C22 1_555 1_555
C11 C13 1_555 1_555
C16 C20 1_555 1_555
C19 C21 1_555 1_555

#END
