
#######################################################################
#
#                 Cambridge Crystallographic Data Centre
#                                CCDC 
#
#######################################################################
#
# If this CIF has been generated from an entry in the Cambridge 
# Structural Database, then it will include bibliographic, chemical, 
# crystal, experimental, refinement or atomic coordinate data resulting 
# from the CCDC's data processing and validation procedures.
#
#######################################################################

data_IFUFOF
_chemical_formula_moiety         'C17 H18 N6 O1'
_chemical_name_systematic        
6-n-Butyl-7-methylene-8-phenyl-5H-pyrrolo(3,4-d)tetrazolo(1,5-a)pyrimidin-5-one
_symmetry_cell_setting           monoclinic
_symmetry_space_group_name_H-M   'P 21/c'
_symmetry_Int_Tables_number      14
_space_group_name_Hall           '-P 2ybc'
loop_
_symmetry_equiv_pos_site_id
_symmetry_equiv_pos_as_xyz
1 x,y,z
2 -x,1/2+y,1/2-z
3 -x,-y,-z
4 x,1/2-y,1/2+z
_cell_length_a                   7.815(2)
_cell_length_b                   13.291(3)
_cell_length_c                   15.766(3)
_cell_angle_alpha                90
_cell_angle_beta                 90.96(3)
_cell_angle_gamma                90
_cell_volume                     1637.37
_chemical_melting_point          '196-198 deg.C'
_cell_formula_units_Z            4
_exptl_crystal_recrystallization_method acetonitrile
loop_
_atom_site_label
_atom_site_type_symbol
_atom_site_fract_x
_atom_site_fract_y
_atom_site_fract_z
O1 O 1.1002(3) -0.18843(17) 0.78463(13)
N1 N 0.6316(3) 0.03031(15) 0.89099(11)
N2 N 0.5428(3) 0.09355(16) 0.94240(13)
N3 N 0.6443(3) 0.11323(17) 1.00619(13)
N4 N 0.7961(3) 0.06465(17) 0.99934(13)
N5 N 0.9018(3) -0.04569(18) 0.89167(13)
H1 H 1.003(4) -0.057(2) 0.9192(18)
N6 N 0.8559(3) -0.18617(16) 0.69915(13)
C1 C 0.7846(3) 0.01408(18) 0.92741(14)
C2 C 0.9568(4) -0.1589(2) 0.76712(16)
C3 C 0.8519(3) -0.08881(18) 0.81578(15)
C4 C 0.6993(3) -0.07597(17) 0.77806(14)
C5 C 0.6955(3) -0.13815(19) 0.70133(16)
C6 C 0.5692(4) -0.1514(3) 0.6463(2)
H2 H 0.451(5) -0.121(3) 0.655(2)
H3 H 0.572(4) -0.192(2) 0.601(2)
C7 C 0.5560(3) -0.01486(19) 0.81329(14)
H4 H 0.466(3) -0.0555(16) 0.8314(13)
C8 C 0.4846(3) 0.06324(18) 0.75352(15)
C9 C 0.5881(4) 0.13575(19) 0.71897(16)
H5 H 0.7021 0.1398 0.7365
C10 C 0.5270(5) 0.2020(2) 0.65937(19)
H6 H 0.5984 0.2514 0.6377
C11 C 0.3622(6) 0.1953(3) 0.6320(2)
H7 H 0.3222 0.2390 0.5900
C12 C 0.2549(5) 0.1262(3) 0.6648(2)
H8 H 0.1415 0.1234 0.6461
C13 C 0.3151(4) 0.0583(2) 0.7274(2)
H9 H 0.2418 0.0110 0.7507
C14 C 0.9067(4) -0.2575(2) 0.63448(19)
H10 H 0.8107 -0.3013 0.6211
H11 H 0.9988 -0.2991 0.6571
C15 C 0.9651(4) -0.2080(3) 0.55427(19)
H12 H 0.9802 -0.2593 0.5113
H13 H 0.8763 -0.1626 0.5341
C16 C 1.1272(4) -0.1509(3) 0.5644(2)
H14 H 1.2161 -0.1964 0.5845
H15 H 1.1122 -0.0997 0.6075
C17 C 1.1862(6) -0.1007(4) 0.4836(3)
H16 H 1.2913 -0.0653 0.4948
H17 H 1.1004 -0.0541 0.4641
H18 H 1.2042 -0.1509 0.4410
loop_
_geom_bond_atom_site_label_1
_geom_bond_atom_site_label_2
_geom_bond_site_symmetry_1
_geom_bond_site_symmetry_2
O1 C2 1_555 1_555
N1 N2 1_555 1_555
N2 N3 1_555 1_555
N3 N4 1_555 1_555
N4 C1 1_555 1_555
N5 H1 1_555 1_555
N6 C2 1_555 1_555
C1 N1 1_555 1_555
C2 C3 1_555 1_555
C3 N5 1_555 1_555
C4 C3 1_555 1_555
C5 N6 1_555 1_555
C6 C5 1_555 1_555
H2 C6 1_555 1_555
H3 C6 1_555 1_555
C7 N1 1_555 1_555
H4 C7 1_555 1_555
C8 C7 1_555 1_555
C9 C8 1_555 1_555
H5 C9 1_555 1_555
C10 C9 1_555 1_555
H6 C10 1_555 1_555
C11 C10 1_555 1_555
H7 C11 1_555 1_555
C12 C11 1_555 1_555
H8 C12 1_555 1_555
C13 C8 1_555 1_555
H9 C13 1_555 1_555
C14 N6 1_555 1_555
H10 C14 1_555 1_555
H11 C14 1_555 1_555
C15 C14 1_555 1_555
H12 C15 1_555 1_555
H13 C15 1_555 1_555
C16 C15 1_555 1_555
H14 C16 1_555 1_555
H15 C16 1_555 1_555
C17 C16 1_555 1_555
H16 C17 1_555 1_555
H17 C17 1_555 1_555
H18 C17 1_555 1_555
N5 C1 1_555 1_555
C4 C5 1_555 1_555
C4 C7 1_555 1_555
C12 C13 1_555 1_555

#END
