
#######################################################################
#
#                 Cambridge Crystallographic Data Centre
#                                CCDC 
#
#######################################################################
#
# If this CIF has been generated from an entry in the Cambridge 
# Structural Database, then it will include bibliographic, chemical, 
# crystal, experimental, refinement or atomic coordinate data resulting 
# from the CCDC's data processing and validation procedures.
#
#######################################################################

data_IFUGOF
_chemical_formula_moiety         'C20 H36 P6'
_chemical_name_systematic        
2,4,6,9-Tetra-t-butyl-1,3,5,7,8,10-hexaphosphatetracyclo(4.4.0.0^2,8^.0^3,7^)deca-4,9-diene
_symmetry_cell_setting           orthorhombic
_symmetry_space_group_name_H-M   'P c a 21'
_symmetry_Int_Tables_number      29
_space_group_name_Hall           'P 2c -2ac'
loop_
_symmetry_equiv_pos_site_id
_symmetry_equiv_pos_as_xyz
1 x,y,z
2 -x,-y,1/2+z
3 1/2+x,-y,z
4 1/2-x,y,1/2+z
_cell_length_a                   20.698(3)
_cell_length_b                   12.738(4)
_cell_length_c                   18.832(2)
_cell_angle_alpha                90
_cell_angle_beta                 90
_cell_angle_gamma                90
_cell_volume                     4965.08
_exptl_crystal_colour            orange
_exptl_crystal_description       plate
_cell_formula_units_Z            8
_exptl_crystal_recrystallization_method n-hexane
loop_
_atom_site_label
_atom_site_type_symbol
_atom_site_fract_x
_atom_site_fract_y
_atom_site_fract_z
P1 P 0.47818(9) -0.21904(16) 0.78522(10)
P2 P 0.50292(10) -0.07335(19) 0.90752(12)
P3 P 0.57557(9) -0.24816(15) 0.82810(12)
P4 P 0.65960(10) -0.01697(17) 0.72697(13)
P5 P 0.58903(9) -0.22422(15) 0.71103(11)
P6 P 0.56380(9) -0.01745(15) 0.78035(11)
C1 C 0.4495(4) -0.1424(7) 0.8628(5)
C2 C 0.5794(4) -0.1071(6) 0.8597(4)
C3 C 0.6614(3) -0.1438(6) 0.7015(4)
C4 C 0.5239(3) -0.1218(6) 0.7256(4)
C9 C 0.3779(4) -0.1534(7) 0.8846(5)
C10 C 0.3664(4) -0.2694(7) 0.9029(6)
H1 H 0.3942 -0.2895 0.9414
H2 H 0.3756 -0.3120 0.8621
H3 H 0.3221 -0.2791 0.9167
C11 C 0.3321(4) -0.1212(8) 0.8242(6)
H4 H 0.3386 -0.0484 0.8130
H5 H 0.2882 -0.1319 0.8388
H6 H 0.3409 -0.1631 0.7829
C12 C 0.3619(5) -0.0889(9) 0.9489(6)
H7 H 0.3684 -0.0160 0.9385
H8 H 0.3894 -0.1093 0.9876
H9 H 0.3176 -0.1004 0.9618
C13 C 0.6383(4) -0.0853(7) 0.9108(5)
C14 C 0.6251(4) -0.1380(8) 0.9827(5)
H10 H 0.6209 -0.2124 0.9761
H11 H 0.5858 -0.1106 1.0025
H12 H 0.6603 -0.1240 1.0145
C15 C 0.6454(5) 0.0346(7) 0.9234(6)
H13 H 0.6814 0.0474 0.9543
H14 H 0.6066 0.0613 0.9448
H15 H 0.6526 0.0693 0.8788
C16 C 0.7020(4) -0.1285(7) 0.8832(5)
H16 H 0.6980 -0.2028 0.8758
H17 H 0.7354 -0.1152 0.9174
H18 H 0.7127 -0.0949 0.8391
C17 C 0.7215(4) -0.1973(7) 0.6695(4)
C18 C 0.7800(4) -0.1240(8) 0.6704(6)
H19 H 0.7899 -0.1051 0.7185
H20 H 0.7703 -0.0618 0.6436
H21 H 0.8164 -0.1591 0.6496
C19 C 0.7056(4) -0.2287(9) 0.5929(5)
H22 H 0.6963 -0.1669 0.5656
H23 H 0.6687 -0.2743 0.5927
H24 H 0.7419 -0.2647 0.5725
C20 C 0.7360(4) -0.2957(7) 0.7126(6)
H25 H 0.7464 -0.2763 0.7605
H26 H 0.7720 -0.3321 0.6919
H27 H 0.6989 -0.3408 0.7125
C21 C 0.4883(4) -0.0831(7) 0.6582(4)
C22 C 0.5334(4) -0.0276(8) 0.6068(5)
H28 H 0.5540 0.0302 0.6304
H29 H 0.5091 -0.0019 0.5670
H30 H 0.5657 -0.0760 0.5904
C23 C 0.4553(4) -0.1750(7) 0.6198(5)
H31 H 0.4873 -0.2250 0.6052
H32 H 0.4327 -0.1491 0.5788
H33 H 0.4252 -0.2082 0.6514
C24 C 0.4352(4) -0.0042(7) 0.6808(5)
H34 H 0.4547 0.0541 0.7050
H35 H 0.4051 -0.0384 0.7119
H36 H 0.4128 0.0207 0.6394
C5 C 0.6766(4) 0.3638(7) 0.6796(4)
C6 C 0.5454(3) 0.3948(6) 0.6866(5)
C7 C 0.4680(3) 0.3529(7) 0.8460(5)
C8 C 0.6046(3) 0.3766(6) 0.8167(4)
P7 P 0.64983(10) 0.28413(17) 0.75399(12)
P8 P 0.62071(11) 0.4346(2) 0.63546(13)
P9 P 0.55129(10) 0.25451(16) 0.71308(12)
P10 P 0.46896(11) 0.47977(18) 0.82306(14)
P11 P 0.54105(9) 0.27308(16) 0.83165(12)
P12 P 0.56284(9) 0.48366(14) 0.76575(11)
C25 C 0.7470(4) 0.3579(8) 0.6523(5)
C26 C 0.7943(4) 0.3775(8) 0.7145(6)
H37 H 0.7884 0.4476 0.7322
H38 H 0.8379 0.3692 0.6981
H39 H 0.7859 0.3280 0.7518
C27 C 0.7568(6) 0.2457(8) 0.6245(7)
H40 H 0.7275 0.2328 0.5860
H41 H 0.7487 0.1965 0.6621
H42 H 0.8004 0.2377 0.6081
C28 C 0.7615(5) 0.4367(8) 0.5957(5)
H43 H 0.7327 0.4263 0.5563
H44 H 0.8053 0.4282 0.5799
H45 H 0.7558 0.5062 0.6143
C29 C 0.4866(4) 0.4204(7) 0.6353(5)
C30 C 0.4970(5) 0.3706(8) 0.5634(5)
H46 H 0.4612 0.3871 0.5329
H47 H 0.5002 0.2959 0.5687
H48 H 0.5361 0.3973 0.5429
C31 C 0.4769(4) 0.5368(7) 0.6278(6)
H49 H 0.4413 0.5500 0.5964
H50 H 0.5154 0.5680 0.6088
H51 H 0.4678 0.5666 0.6735
C32 C 0.4221(4) 0.3699(8) 0.6643(6)
H52 H 0.3872 0.3861 0.6326
H53 H 0.4128 0.3978 0.7105
H54 H 0.4271 0.2951 0.6674
C33 C 0.4124(4) 0.2970(8) 0.8853(5)
C34 C 0.3538(5) 0.3678(9) 0.8926(8)
H55 H 0.3647 0.4273 0.9216
H56 H 0.3192 0.3295 0.9144
H57 H 0.3405 0.3915 0.8465
C35 C 0.3927(5) 0.2009(8) 0.8392(7)
H58 H 0.4289 0.1542 0.8347
H59 H 0.3796 0.2245 0.7930
H60 H 0.3575 0.1646 0.8615
C36 C 0.4352(5) 0.2630(10) 0.9573(6)
H61 H 0.4719 0.2175 0.9522
H62 H 0.4011 0.2261 0.9812
H63 H 0.4472 0.3236 0.9846
C37 C 0.6439(4) 0.4138(6) 0.8838(5)
C38 C 0.5995(4) 0.4741(7) 0.9363(5)
H64 H 0.6244 0.4967 0.9765
H65 H 0.5653 0.4287 0.9519
H66 H 0.5813 0.5342 0.9128
C39 C 0.6726(5) 0.3207(8) 0.9217(6)
H67 H 0.7003 0.2830 0.8898
H68 H 0.6385 0.2752 0.9376
H69 H 0.6972 0.3444 0.9618
C40 C 0.6978(5) 0.4885(8) 0.8599(6)
H70 H 0.7258 0.4528 0.8273
H71 H 0.7222 0.5108 0.9006
H72 H 0.6791 0.5486 0.8370
loop_
_geom_bond_atom_site_label_1
_geom_bond_atom_site_label_2
_geom_bond_site_symmetry_1
_geom_bond_site_symmetry_2
P1 P3 1_555 1_555
P2 C1 1_555 1_555
P3 P5 1_555 1_555
P4 P6 1_555 1_555
P5 C3 1_555 1_555
P6 C2 1_555 1_555
C1 P1 1_555 1_555
C2 P2 1_555 1_555
C3 P4 1_555 1_555
C4 P1 1_555 1_555
C5 P7 1_555 1_555
C6 P8 1_555 1_555
C7 P10 1_555 1_555
C8 P7 1_555 1_555
C9 C1 1_555 1_555
C10 C9 1_555 1_555
H1 C10 1_555 1_555
H2 C10 1_555 1_555
H3 C10 1_555 1_555
C11 C9 1_555 1_555
H4 C11 1_555 1_555
H5 C11 1_555 1_555
H6 C11 1_555 1_555
C12 C9 1_555 1_555
H7 C12 1_555 1_555
H8 C12 1_555 1_555
H9 C12 1_555 1_555
C13 C2 1_555 1_555
C14 C13 1_555 1_555
H10 C14 1_555 1_555
H11 C14 1_555 1_555
H12 C14 1_555 1_555
C15 C13 1_555 1_555
H13 C15 1_555 1_555
H14 C15 1_555 1_555
H15 C15 1_555 1_555
C16 C13 1_555 1_555
H16 C16 1_555 1_555
H17 C16 1_555 1_555
H18 C16 1_555 1_555
C17 C3 1_555 1_555
C18 C17 1_555 1_555
H19 C18 1_555 1_555
H20 C18 1_555 1_555
H21 C18 1_555 1_555
C19 C17 1_555 1_555
H22 C19 1_555 1_555
H23 C19 1_555 1_555
H24 C19 1_555 1_555
C20 C17 1_555 1_555
H25 C20 1_555 1_555
H26 C20 1_555 1_555
H27 C20 1_555 1_555
C21 C4 1_555 1_555
C22 C21 1_555 1_555
H28 C22 1_555 1_555
H29 C22 1_555 1_555
H30 C22 1_555 1_555
C23 C21 1_555 1_555
H31 C23 1_555 1_555
H32 C23 1_555 1_555
H33 C23 1_555 1_555
C24 C21 1_555 1_555
H34 C24 1_555 1_555
H35 C24 1_555 1_555
H36 C24 1_555 1_555
P7 P9 1_555 1_555
P8 C5 1_555 1_555
P9 C6 1_555 1_555
P10 P12 1_555 1_555
P11 C7 1_555 1_555
P12 C6 1_555 1_555
C25 C5 1_555 1_555
C26 C25 1_555 1_555
H37 C26 1_555 1_555
H38 C26 1_555 1_555
H39 C26 1_555 1_555
C27 C25 1_555 1_555
H40 C27 1_555 1_555
H41 C27 1_555 1_555
H42 C27 1_555 1_555
C28 C25 1_555 1_555
H43 C28 1_555 1_555
H44 C28 1_555 1_555
H45 C28 1_555 1_555
C29 C6 1_555 1_555
C30 C29 1_555 1_555
H46 C30 1_555 1_555
H47 C30 1_555 1_555
H48 C30 1_555 1_555
C31 C29 1_555 1_555
H49 C31 1_555 1_555
H50 C31 1_555 1_555
H51 C31 1_555 1_555
C32 C29 1_555 1_555
H52 C32 1_555 1_555
H53 C32 1_555 1_555
H54 C32 1_555 1_555
C33 C7 1_555 1_555
C34 C33 1_555 1_555
H55 C34 1_555 1_555
H56 C34 1_555 1_555
H57 C34 1_555 1_555
C35 C33 1_555 1_555
H58 C35 1_555 1_555
H59 C35 1_555 1_555
H60 C35 1_555 1_555
C36 C33 1_555 1_555
H61 C36 1_555 1_555
H62 C36 1_555 1_555
H63 C36 1_555 1_555
C37 C8 1_555 1_555
C38 C37 1_555 1_555
H64 C38 1_555 1_555
H65 C38 1_555 1_555
H66 C38 1_555 1_555
C39 C37 1_555 1_555
H67 C39 1_555 1_555
H68 C39 1_555 1_555
H69 C39 1_555 1_555
C40 C37 1_555 1_555
H70 C40 1_555 1_555
H71 C40 1_555 1_555
H72 C40 1_555 1_555
P3 C2 1_555 1_555
P5 C4 1_555 1_555
P6 C4 1_555 1_555
C8 P11 1_555 1_555
C8 P12 1_555 1_555
P9 P11 1_555 1_555

#END
