
#######################################################################
#
#                 Cambridge Crystallographic Data Centre
#                                CCDC 
#
#######################################################################
#
# If this CIF has been generated from an entry in the Cambridge 
# Structural Database, then it will include bibliographic, chemical, 
# crystal, experimental, refinement or atomic coordinate data resulting 
# from the CCDC's data processing and validation procedures.
#
#######################################################################

data_IFUHAS
_chemical_formula_moiety         'C20 H36 P6'
_chemical_name_systematic        
3,6,8,10-Tetra-t-butyl-1,2,4,5,7,9-hexaphosphahexacyclo(4.4.0.0^2,5^.0^3,9^.0^4,8^.0^7,10^)decane
_symmetry_cell_setting           monoclinic
_symmetry_space_group_name_H-M   'P 21/c'
_symmetry_Int_Tables_number      14
_space_group_name_Hall           '-P 2ybc'
loop_
_symmetry_equiv_pos_site_id
_symmetry_equiv_pos_as_xyz
1 x,y,z
2 x,1/2-y,1/2+z
3 -x,-y,-z
4 -x,1/2+y,1/2-z
_cell_length_a                   10.5672(6)
_cell_length_b                   10.3418(5)
_cell_length_c                   22.5054(11)
_cell_angle_alpha                90
_cell_angle_beta                 100.0530(10)
_cell_angle_gamma                90
_cell_volume                     2421.72
_exptl_crystal_colour            orange
_exptl_crystal_description       prism
_cell_formula_units_Z            4
_exptl_crystal_recrystallization_method n-hexane
loop_
_atom_site_label
_atom_site_type_symbol
_atom_site_fract_x
_atom_site_fract_y
_atom_site_fract_z
P1 P 0.07411(4) 0.77288(4) 0.25016(2)
P2 P 0.04400(5) 0.83744(5) 0.34065(2)
P3 P 0.30125(5) 0.66831(4) 0.35181(2)
P4 P -0.05102(4) 0.60591(4) 0.27228(2)
P5 P 0.13652(4) 0.50416(4) 0.28158(2)
P6 P 0.09933(5) 0.61999(5) 0.40932(2)
C1 C 0.19107(17) 0.76895(17) 0.38963(8)
C2 C 0.21877(17) 0.66454(16) 0.27093(8)
C3 C 0.19903(17) 0.52278(16) 0.36451(7)
C4 C -0.03852(17) 0.67637(17) 0.35094(7)
C5 C 0.26045(19) 0.86295(18) 0.43867(9)
C6 C 0.1649(2) 0.9251(2) 0.47380(11)
C7 C 0.3608(3) 0.7905(2) 0.48428(11)
C8 C 0.3263(2) 0.9675(2) 0.40697(11)
C9 C 0.31146(17) 0.67374(17) 0.22448(8)
C10 C 0.2386(2) 0.6545(2) 0.16030(9)
C11 C 0.3750(2) 0.8072(2) 0.23151(10)
C12 C 0.4163(2) 0.5701(2) 0.23696(10)
C13 C 0.26033(18) 0.39938(17) 0.39722(8)
C14 C 0.1535(2) 0.3040(2) 0.40387(10)
C15 C 0.3552(2) 0.3378(2) 0.36140(10)
C16 C 0.3347(2) 0.4348(2) 0.45933(9)
C17 C -0.16996(18) 0.67761(18) 0.37366(8)
C18 C -0.2755(2) 0.7327(2) 0.32541(10)
C19 C -0.1606(2) 0.7628(2) 0.43009(10)
C20 C -0.2032(2) 0.5394(2) 0.38932(10)
H1 H 0.3157(19) 0.8755(18) 0.2269(8)
H2 H 0.400(2) 0.266(2) 0.3819(9)
H3 H 0.429(2) 0.8147(19) 0.2710(9)
H4 H -0.293(2) 0.675(2) 0.2909(9)
H5 H -0.244(2) 0.7640(18) 0.4428(8)
H6 H -0.290(2) 0.5385(19) 0.3989(9)
H7 H 0.321(2) 0.728(2) 0.5052(9)
H8 H 0.180(2) 0.723(2) 0.1483(9)
H9 H 0.3820(19) 0.4864(19) 0.2325(8)
H10 H 0.401(2) 0.490(2) 0.4562(10)
H11 H -0.147(2) 0.5083(19) 0.4239(9)
H12 H 0.3151(19) 0.3052(18) 0.3205(9)
H13 H -0.252(2) 0.816(2) 0.3142(9)
H14 H 0.4674(19) 0.5805(18) 0.2777(9)
H15 H 0.276(2) 0.4742(19) 0.4855(9)
H16 H -0.354(2) 0.7403(19) 0.3402(9)
H17 H 0.1891(19) 0.2266(19) 0.4263(9)
H18 H 0.1090(19) 0.2778(18) 0.3662(9)
H19 H 0.1939(18) 0.5747(19) 0.1570(8)
H20 H 0.296(2) 0.6556(19) 0.1320(9)
H21 H 0.371(2) 0.361(2) 0.4788(9)
H22 H 0.474(2) 0.5744(19) 0.2069(9)
H23 H 0.0898(19) 0.3427(18) 0.4260(8)
H24 H 0.105(2) 0.9750(19) 0.4480(9)
H25 H 0.403(2) 0.848(2) 0.5153(11)
H26 H 0.425(2) 0.756(2) 0.4658(9)
H27 H -0.094(2) 0.734(2) 0.4640(10)
H28 H -0.1408(18) 0.8510(18) 0.4206(8)
H29 H 0.423(2) 0.399(2) 0.3563(10)
H30 H 0.365(2) 1.027(2) 0.4372(10)
H31 H 0.207(2) 0.980(2) 0.5043(10)
H32 H 0.397(2) 0.927(2) 0.3857(10)
H33 H 0.260(2) 1.010(2) 0.3767(9)
H34 H -0.203(2) 0.481(2) 0.3556(10)
H35 H 0.429(2) 0.822(2) 0.2011(10)
H36 H 0.123(2) 0.863(2) 0.4934(10)
loop_
_geom_bond_atom_site_label_1
_geom_bond_atom_site_label_2
_geom_bond_site_symmetry_1
_geom_bond_site_symmetry_2
P1 P2 1_555 1_555
P2 C1 1_555 1_555
P3 C1 1_555 1_555
P4 P1 1_555 1_555
P5 P4 1_555 1_555
P6 C1 1_555 1_555
C1 C5 1_555 1_555
C2 P1 1_555 1_555
C3 P3 1_555 1_555
C4 P2 1_555 1_555
C5 C6 1_555 1_555
C6 H24 1_555 1_555
C7 C5 1_555 1_555
C8 C5 1_555 1_555
C9 C2 1_555 1_555
C10 C9 1_555 1_555
C11 C9 1_555 1_555
C12 C9 1_555 1_555
C13 C3 1_555 1_555
C14 C13 1_555 1_555
C15 C13 1_555 1_555
C16 C13 1_555 1_555
C17 C4 1_555 1_555
C18 C17 1_555 1_555
C19 C17 1_555 1_555
C20 C17 1_555 1_555
H1 C11 1_555 1_555
H2 C15 1_555 1_555
H3 C11 1_555 1_555
H4 C18 1_555 1_555
H5 C19 1_555 1_555
H6 C20 1_555 1_555
H7 C7 1_555 1_555
H8 C10 1_555 1_555
H9 C12 1_555 1_555
H10 C16 1_555 1_555
H11 C20 1_555 1_555
H12 C15 1_555 1_555
H13 C18 1_555 1_555
H14 C12 1_555 1_555
H15 C16 1_555 1_555
H16 C18 1_555 1_555
H17 C14 1_555 1_555
H18 C14 1_555 1_555
H19 C10 1_555 1_555
H20 C10 1_555 1_555
H21 C16 1_555 1_555
H22 C12 1_555 1_555
H23 C14 1_555 1_555
H25 C7 1_555 1_555
H26 C7 1_555 1_555
H27 C19 1_555 1_555
H28 C19 1_555 1_555
H29 C15 1_555 1_555
H30 C8 1_555 1_555
H31 C6 1_555 1_555
H32 C8 1_555 1_555
H33 C8 1_555 1_555
H34 C20 1_555 1_555
H35 C11 1_555 1_555
H36 C6 1_555 1_555
P3 C2 1_555 1_555
P4 C4 1_555 1_555
P5 C3 1_555 1_555
P5 C2 1_555 1_555
P6 C3 1_555 1_555
P6 C4 1_555 1_555

#END
