
#######################################################################
#
#                 Cambridge Crystallographic Data Centre
#                                CCDC 
#
#######################################################################
#
# If this CIF has been generated from an entry in the Cambridge 
# Structural Database, then it will include bibliographic, chemical, 
# crystal, experimental, refinement or atomic coordinate data resulting 
# from the CCDC's data processing and validation procedures.
#
#######################################################################

data_IFUHAV
_chemical_formula_moiety         'C8 H7 N1 O4'
_chemical_name_systematic        '4-methyl-2-nitrobenzoic acid'
_symmetry_cell_setting           monoclinic
_symmetry_space_group_name_H-M   'C 2/c'
_symmetry_Int_Tables_number      15
_space_group_name_Hall           '-C 2yn'
loop_
_symmetry_equiv_pos_site_id
_symmetry_equiv_pos_as_xyz
1 x,y,z
2 -x,y,1/2-z
3 1/2+x,1/2+y,z
4 1/2-x,1/2+y,1/2-z
5 -x,-y,-z
6 x,-y,1/2+z
7 1/2-x,1/2-y,-z
8 1/2+x,1/2-y,1/2+z
_cell_length_a                   13.163(5)
_cell_length_b                   10.966(4)
_cell_length_c                   11.325(4)
_cell_angle_alpha                90
_cell_angle_beta                 94.790(8)
_cell_angle_gamma                90
_cell_volume                     1629
_exptl_crystal_colour            colorless
_exptl_crystal_description       prismatic
_cell_formula_units_Z            8
loop_
_atom_site_label
_atom_site_type_symbol
_atom_site_fract_x
_atom_site_fract_y
_atom_site_fract_z
C1 C 0.80944(15) 0.74906(18) 0.85355(16)
N1 N 0.87192(14) 0.53744(16) 0.71453(16)
O1 O 0.84436(11) 0.82025(15) 0.93257(12)
O2 O 0.73906(12) 0.67406(14) 0.86557(12)
O3 O 0.90148(13) 0.52503(15) 0.81792(14)
O4 O 0.8470(2) 0.45426(16) 0.64948(18)
C2 C 0.84858(14) 0.75864(18) 0.73516(16)
C3 C 0.86993(14) 0.66050(17) 0.66527(16)
C4 C 0.89700(15) 0.67327(18) 0.55216(16)
H1 H 0.9103 0.6046 0.5078
C5 C 0.90465(15) 0.78748(19) 0.50388(16)
C6 C 0.88377(18) 0.8861(2) 0.57214(19)
H2 H 0.8883 0.9641 0.5408
C7 C 0.85621(17) 0.87224(19) 0.68591(19)
H3 H 0.8425 0.9409 0.7301
C8 C 0.9374(2) 0.8020(2) 0.38129(18)
H4 H 0.8886 0.7632 0.3257
H5 H 1.0030 0.7648 0.3769
H6 H 0.9415 0.8871 0.3626
H7 H 0.715(3) 0.679(4) 0.933(2)
loop_
_geom_bond_atom_site_label_1
_geom_bond_atom_site_label_2
_geom_bond_site_symmetry_1
_geom_bond_site_symmetry_2
C1 O1 1_555 1_555
N1 O3 1_555 1_555
O2 C1 1_555 1_555
O4 N1 1_555 1_555
C2 C1 1_555 1_555
C3 N1 1_555 1_555
C4 C3 1_555 1_555
H1 C4 1_555 1_555
C5 C4 1_555 1_555
C6 C5 1_555 1_555
H2 C6 1_555 1_555
C7 C2 1_555 1_555
H3 C7 1_555 1_555
C8 C5 1_555 1_555
H4 C8 1_555 1_555
H5 C8 1_555 1_555
H6 C8 1_555 1_555
H7 O2 1_555 1_555
C2 C3 1_555 1_555
C6 C7 1_555 1_555

#END
