
#######################################################################
#
#                 Cambridge Crystallographic Data Centre
#                                CCDC 
#
#######################################################################
#
# If this CIF has been generated from an entry in the Cambridge 
# Structural Database, then it will include bibliographic, chemical, 
# crystal, experimental, refinement or atomic coordinate data resulting 
# from the CCDC's data processing and validation procedures.
#
#######################################################################

data_IFULIH
_chemical_formula_moiety         'C26 H22 N4 2+,2(I1 1-)'
_chemical_name_systematic        
'4,12-dimethyl-21,27-diaza-4,12-diazoniaheptacyclo[8.6.6.6^2,9^.0^3,8^.0^11,16^.0^17,22^.0^23,28^]octacosa-3,5,7,11,13,15,17,19,21,23,25,27-dodecaene diiodide'
_symmetry_cell_setting           orthorhombic
_symmetry_space_group_name_H-M   'P b c a'
_symmetry_Int_Tables_number      61
_space_group_name_Hall           '-P 2ac 2ab'
loop_
_symmetry_equiv_pos_site_id
_symmetry_equiv_pos_as_xyz
1 x,y,z
2 1/2-x,-y,1/2+z
3 -x,1/2+y,1/2-z
4 1/2+x,1/2-y,-z
5 -x,-y,-z
6 1/2+x,y,1/2-z
7 x,1/2-y,1/2+z
8 1/2-x,1/2+y,z
_cell_length_a                   14.634(3)
_cell_length_b                   10.6526(19)
_cell_length_c                   15.056(3)
_cell_angle_alpha                90
_cell_angle_beta                 90
_cell_angle_gamma                90
_cell_volume                     2347.08
_exptl_crystal_colour            yellow
_exptl_crystal_description       prism
_cell_formula_units_Z            4
loop_
_atom_site_label
_atom_site_type_symbol
_atom_site_fract_x
_atom_site_fract_y
_atom_site_fract_z
C1 C 0.2539(3) 0.3669(5) 0.5897(3)
H1 H 0.212995 0.308821 0.616466
N1 N 0.3423(3) 0.3659(4) 0.6157(3)
C2 C 0.2200(4) 0.4485(6) 0.5261(4)
H2 H 0.157280 0.445912 0.509820
N2 N 0.5801(3) 0.6250(4) 0.6795(3)
C3 C 0.2786(3) 0.5340(5) 0.4863(3)
H3 H 0.256888 0.591163 0.442785
C4 C 0.3695(3) 0.5340(4) 0.5116(3)
C5 C 0.4407(3) 0.6193(4) 0.4718(3)
H4 H 0.408804 0.691489 0.442846
C6 C 0.4993(3) 0.6700(5) 0.5468(3)
C7 C 0.5255(3) 0.7945(5) 0.5530(3)
H5 H 0.508114 0.852848 0.508366
C8 C 0.5771(3) 0.8331(5) 0.6247(3)
H6 H 0.594089 0.918754 0.630716
C9 C 0.6038(3) 0.7468(5) 0.6873(3)
H7 H 0.639448 0.773275 0.736599
C10 C 0.5266(3) 0.5856(4) 0.6121(3)
C11 C 0.4978(3) 0.4499(4) 0.6018(3)
H8 H 0.505641 0.405910 0.659974
C12 C 0.3971(3) 0.4496(4) 0.5771(3)
C13 C 0.6113(4) 0.5376(5) 0.7502(4)
H9 H 0.653914 0.581245 0.789748
H10 H 0.642131 0.465507 0.722958
H11 H 0.558481 0.508281 0.784371
C1D C 0.7461(3) 0.6331(5) 0.4103(3)
H1D H 0.787005 0.691179 0.383534
N1D N 0.6577(3) 0.6341(4) 0.3843(3)
C2D C 0.7800(4) 0.5515(6) 0.4739(4)
H2D H 0.842720 0.554088 0.490180
N2D N 0.4199(3) 0.3750(4) 0.3205(3)
C3D C 0.7214(3) 0.4660(5) 0.5137(3)
H3D H 0.743112 0.408837 0.557215
C4D C 0.6305(3) 0.4660(4) 0.4884(3)
C5D C 0.5593(3) 0.3807(4) 0.5282(3)
H4D H 0.591196 0.308511 0.557154
C6D C 0.5007(3) 0.3300(5) 0.4532(3)
C7D C 0.4745(3) 0.2055(5) 0.4470(3)
H5D H 0.491886 0.147152 0.491634
C8D C 0.4229(3) 0.1669(5) 0.3753(3)
H6D H 0.405911 0.081246 0.369284
C9D C 0.3962(3) 0.2532(5) 0.3127(3)
H7D H 0.360552 0.226725 0.263401
C10D C 0.4734(3) 0.4144(4) 0.3879(3)
C11D C 0.5022(3) 0.5501(4) 0.3982(3)
H8D H 0.494359 0.594090 0.340026
C12D C 0.6029(3) 0.5504(4) 0.4229(3)
C13D C 0.3887(4) 0.4624(5) 0.2498(4)
H9D H 0.346086 0.418755 0.210252
H10D H 0.357869 0.534493 0.277042
H11D H 0.441519 0.491719 0.215629
I1 I 0.35986(2) 0.66489(3) 0.78579(2)
loop_
_geom_bond_atom_site_label_1
_geom_bond_atom_site_label_2
_geom_bond_site_symmetry_1
_geom_bond_site_symmetry_2
C1 H1 1_555 1_555
N1 C1 1_555 1_555
C2 C1 1_555 1_555
H2 C2 1_555 1_555
N2 C9 1_555 1_555
C3 C2 1_555 1_555
H3 C3 1_555 1_555
C4 C3 1_555 1_555
C5 C4 1_555 1_555
H4 C5 1_555 1_555
C6 C5 1_555 1_555
C7 C6 1_555 1_555
H5 C7 1_555 1_555
C8 C7 1_555 1_555
H6 C8 1_555 1_555
C9 C8 1_555 1_555
H7 C9 1_555 1_555
C10 N2 1_555 1_555
C11 C10 1_555 1_555
H8 C11 1_555 1_555
C12 N1 1_555 1_555
C13 N2 1_555 1_555
H9 C13 1_555 1_555
H10 C13 1_555 1_555
H11 C13 1_555 1_555
C1D H1D 1_555 1_555
N1D C1D 1_555 1_555
C2D C1D 1_555 1_555
H2D C2D 1_555 1_555
N2D C9D 1_555 1_555
C3D C2D 1_555 1_555
H3D C3D 1_555 1_555
C4D C3D 1_555 1_555
C5D C11 1_555 1_555
H4D C5D 1_555 1_555
C6D C5D 1_555 1_555
C7D C6D 1_555 1_555
H5D C7D 1_555 1_555
C8D C7D 1_555 1_555
H6D C8D 1_555 1_555
C9D C8D 1_555 1_555
H7D C9D 1_555 1_555
C10D N2D 1_555 1_555
C11D C5 1_555 1_555
H8D C11D 1_555 1_555
C12D N1D 1_555 1_555
C13D N2D 1_555 1_555
H9D C13D 1_555 1_555
H10D C13D 1_555 1_555
H11D C13D 1_555 1_555
C4 C12 1_555 1_555
C6 C10 1_555 1_555
C11 C12 1_555 1_555
C4D C5D 1_555 1_555
C4D C12D 1_555 1_555
C6D C10D 1_555 1_555
C10D C11D 1_555 1_555
C11D C12D 1_555 1_555

#END
