
#######################################################################
#
#                 Cambridge Crystallographic Data Centre
#                                CCDC 
#
#######################################################################
#
# If this CIF has been generated from an entry in the Cambridge 
# Structural Database, then it will include bibliographic, chemical, 
# crystal, experimental, refinement or atomic coordinate data resulting 
# from the CCDC's data processing and validation procedures.
#
#######################################################################

data_IFUNEE
_chemical_formula_moiety         'C20 H19 Cl1 N2 O4 S1'
_chemical_name_systematic        
'(4R,5S)-Methyl 3-acetyl-5-(3-chlorophenyl)-1-(4-methoxyphenyl)-2-thioxoimidazolidine-4-carboxylate'
_symmetry_cell_setting           orthorhombic
_symmetry_space_group_name_H-M   'P 21 21 21'
_symmetry_Int_Tables_number      19
_space_group_name_Hall           'P 2ac 2ab'
loop_
_symmetry_equiv_pos_site_id
_symmetry_equiv_pos_as_xyz
1 x,y,z
2 1/2-x,-y,1/2+z
3 1/2+x,1/2-y,-z
4 -x,1/2+y,1/2-z
_cell_length_a                   8.3315(3)
_cell_length_b                   13.3340(4)
_cell_length_c                   18.2273(6)
_cell_angle_alpha                90
_cell_angle_beta                 90
_cell_angle_gamma                90
_cell_volume                     2024.91
_cell_formula_units_Z            4
loop_
_atom_site_label
_atom_site_type_symbol
_atom_site_fract_x
_atom_site_fract_y
_atom_site_fract_z
S1 S 0.59688(8) 0.77913(4) 0.51652(3)
Cl1 Cl -0.03754(9) 1.12930(6) 0.81967(4)
N1 N 0.4571(2) 0.74876(11) 0.65041(9)
O1 O 0.44720(19) 0.61141(10) 0.72018(9)
O2 O 0.4352(2) 1.24254(11) 0.42943(9)
N2 N 0.4421(2) 0.90301(11) 0.60737(9)
O3 O 0.6750(2) 0.78792(14) 0.75652(9)
C1 C 0.2073(2) 0.94740(14) 0.68724(11)
O4 O 0.4881(3) 0.83892(14) 0.83656(9)
C2 C 0.4944(2) 0.81031(13) 0.59055(11)
C3 C 0.1676(2) 1.01729(15) 0.74062(12)
H1 H 0.2473 1.0463 0.7694
C4 C 0.3812(2) 0.91362(13) 0.68250(11)
H2 H 0.4488 0.9614 0.7092
C5 C 0.0089(3) 1.04340(15) 0.75060(12)
C6 C 0.4080(2) 0.80716(13) 0.71420(11)
H3 H 0.3058 0.7811 0.7327
C7 C -0.1116(3) 1.00200(17) 0.70843(13)
H4 H -0.2182 1.0198 0.7161
C8 C 0.3802(3) 1.07236(17) 0.44873(13)
H5 H 0.3345 1.0705 0.4022
C9 C 0.4496(2) 0.98944(13) 0.56031(10)
C10 C 0.4458(3) 1.16073(14) 0.47466(11)
C11 C 0.5167(3) 1.07720(15) 0.58583(12)
H6 H 0.5632 1.0789 0.6322
C12 C 0.0872(3) 0.90636(15) 0.64399(12)
H7 H 0.1132 0.8602 0.6076
C13 C 0.4594(2) 0.64419(14) 0.65819(12)
C14 C 0.4641(4) 0.57841(16) 0.59221(14)
H8 H 0.5692 0.5810 0.5707
H9 H 0.3862 0.6012 0.5572
H10 H 0.4401 0.5107 0.6062
C15 C -0.0709(3) 0.93386(17) 0.65473(13)
H11 H -0.1508 0.9061 0.6254
C16 C 0.3820(3) 0.98723(16) 0.49123(13)
H12 H 0.3375 0.9281 0.4734
C17 C 0.7954(4) 0.7915(3) 0.81431(17)
H13 H 0.8991 0.7772 0.7939
H14 H 0.7701 0.7425 0.8512
H15 H 0.7963 0.8571 0.8360
C18 C 0.5276(3) 0.81134(14) 0.77642(12)
C19 C 0.5154(3) 1.16284(15) 0.54288(12)
H16 H 0.5616 1.2217 0.5602
C20 C 0.4843(5) 1.33674(18) 0.45808(17)
H17 H 0.4691 1.3877 0.4216
H18 H 0.5957 1.3336 0.4714
H19 H 0.4214 1.3525 0.5007
loop_
_geom_bond_atom_site_label_1
_geom_bond_atom_site_label_2
_geom_bond_site_symmetry_1
_geom_bond_site_symmetry_2
S1 C2 1_555 1_555
Cl1 C5 1_555 1_555
N1 C2 1_555 1_555
O1 C13 1_555 1_555
O2 C10 1_555 1_555
N2 C2 1_555 1_555
O3 C17 1_555 1_555
C1 C3 1_555 1_555
O4 C18 1_555 1_555
C3 H1 1_555 1_555
C4 N2 1_555 1_555
H2 C4 1_555 1_555
C5 C3 1_555 1_555
C6 N1 1_555 1_555
H3 C6 1_555 1_555
C7 C5 1_555 1_555
H4 C7 1_555 1_555
C8 H5 1_555 1_555
C9 N2 1_555 1_555
C10 C8 1_555 1_555
C11 C9 1_555 1_555
H6 C11 1_555 1_555
C12 C1 1_555 1_555
H7 C12 1_555 1_555
C13 N1 1_555 1_555
C14 C13 1_555 1_555
H8 C14 1_555 1_555
H9 C14 1_555 1_555
H10 C14 1_555 1_555
C15 C7 1_555 1_555
H11 C15 1_555 1_555
C16 C8 1_555 1_555
H12 C16 1_555 1_555
C17 H13 1_555 1_555
H14 C17 1_555 1_555
H15 C17 1_555 1_555
C18 O3 1_555 1_555
C19 C10 1_555 1_555
H16 C19 1_555 1_555
C20 O2 1_555 1_555
H17 C20 1_555 1_555
H18 C20 1_555 1_555
H19 C20 1_555 1_555
C1 C4 1_555 1_555
C4 C6 1_555 1_555
C6 C18 1_555 1_555
C9 C16 1_555 1_555
C11 C19 1_555 1_555
C12 C15 1_555 1_555

#END
