
#######################################################################
#
#                 Cambridge Crystallographic Data Centre
#                                CCDC 
#
#######################################################################
#
# If this CIF has been generated from an entry in the Cambridge 
# Structural Database, then it will include bibliographic, chemical, 
# crystal, experimental, refinement or atomic coordinate data resulting 
# from the CCDC's data processing and validation procedures.
#
#######################################################################

data_IFUPEH
_chemical_formula_moiety         'C25 H24 N2 O3 S1'
_chemical_name_systematic        
2-{1-[(4-methylphenyl)sulfonyl]-2,3,8,8a-tetrahydropyrrolo[2,3-b]indol-3a(1H)-yl}-1-phenylethan-1-one
_symmetry_cell_setting           triclinic
_symmetry_space_group_name_H-M   'P -1'
_symmetry_Int_Tables_number      2
_space_group_name_Hall           '-P 1'
loop_
_symmetry_equiv_pos_site_id
_symmetry_equiv_pos_as_xyz
1 x,y,z
2 -x,-y,-z
_cell_length_a                   8.4687(8)
_cell_length_b                   9.9801(12)
_cell_length_c                   14.1033(13)
_cell_angle_alpha                102.135(6)
_cell_angle_beta                 92.914(6)
_cell_angle_gamma                107.852(6)
_cell_volume                     1100.7
_exptl_crystal_colour            colorless
_exptl_crystal_description       block
_cell_formula_units_Z            2
loop_
_atom_site_label
_atom_site_type_symbol
_atom_site_fract_x
_atom_site_fract_y
_atom_site_fract_z
S1 S 0.30799(17) 0.14985(14) 0.44301(9)
O1 O 0.6963(5) 0.3030(4) 0.8889(3)
O2 O 0.4454(6) 0.1855(5) 0.3886(3)
O3 O 0.2113(6) -0.0002(4) 0.4298(3)
N1 N 0.3699(5) 0.2105(5) 0.5579(3)
C1 C 0.7689(10) -0.1005(9) 1.0242(6)
H1 H 0.8009 -0.1587 1.0596
C2 C 0.6630(11) -0.1620(8) 0.9399(6)
H2 H 0.6211 -0.2624 0.9186
C3 C 0.6162(9) -0.0761(7) 0.8847(5)
H3 H 0.5456 -0.1190 0.8263
C4 C 0.6755(6) 0.0732(6) 0.9176(4)
C5 C 0.6311(6) 0.1714(6) 0.8619(4)
C6 C 0.5058(7) 0.1041(5) 0.7723(4)
H4 H 0.4053 0.0416 0.7903
H5 H 0.5503 0.0429 0.7258
C7 C 0.4559(6) 0.2083(5) 0.7201(3)
C8 C 0.3280(6) 0.1166(5) 0.6287(4)
H6 H 0.3436 0.0227 0.6040
C9 C 0.1706(6) 0.2401(5) 0.4133(4)
C10 C 0.1748(9) 0.2838(8) 0.3265(5)
H7 H 0.2586 0.2766 0.2876
C11 C 0.0525(10) 0.3386(8) 0.2981(6)
H8 H 0.0562 0.3685 0.2398
C12 C -0.0731(9) 0.3498(7) 0.3532(6)
C13 C -0.2101(11) 0.4067(11) 0.3216(9)
H9 H -0.2900 0.3324 0.2720
H10 H -0.1615 0.4898 0.2959
H11 H -0.2651 0.4335 0.3769
N2 N 0.1687(6) 0.0995(5) 0.6619(3)
H12 H 0.0785 0.0295 0.6366
C14 C 0.1808(6) 0.2117(5) 0.7403(4)
C15 C 0.3502(6) 0.2856(5) 0.7781(3)
C16 C 0.8281(10) 0.0458(10) 1.0570(6)
H13 H 0.8994 0.0874 1.1153
C17 C 0.7829(8) 0.1340(8) 1.0039(5)
H14 H 0.8251 0.2342 1.0266
C18 C 0.5982(6) 0.3087(6) 0.6803(4)
H15 H 0.6581 0.3955 0.7302
H16 H 0.6764 0.2600 0.6561
C19 C 0.5093(7) 0.3450(6) 0.5977(4)
H17 H 0.4690 0.4253 0.6221
H18 H 0.5825 0.3690 0.5488
C20 C 0.3911(7) 0.4024(5) 0.8570(4)
H19 H 0.5025 0.4521 0.8819
C21 C 0.2637(8) 0.4459(6) 0.8992(4)
H20 H 0.2909 0.5256 0.9523
C22 C 0.0987(8) 0.3725(7) 0.8635(5)
H21 H 0.0156 0.4014 0.8938
C23 C 0.0548(7) 0.2562(7) 0.7832(4)
H22 H -0.0568 0.2083 0.7582
C24 C 0.0474(9) 0.2544(8) 0.4704(5)
H23 H 0.0459 0.2283 0.5300
C25 C -0.0746(10) 0.3075(9) 0.4398(7)
H24 H -0.1588 0.3145 0.4785
loop_
_geom_bond_atom_site_label_1
_geom_bond_atom_site_label_2
_geom_bond_site_symmetry_1
_geom_bond_site_symmetry_2
S1 O2 1_555 1_555
O1 C5 1_555 1_555
O3 S1 1_555 1_555
N1 S1 1_555 1_555
C1 H1 1_555 1_555
C2 C1 1_555 1_555
H2 C2 1_555 1_555
C3 C2 1_555 1_555
H3 C3 1_555 1_555
C4 C3 1_555 1_555
C5 C4 1_555 1_555
C6 C5 1_555 1_555
H4 C6 1_555 1_555
H5 C6 1_555 1_555
C7 C6 1_555 1_555
C8 N1 1_555 1_555
H6 C8 1_555 1_555
C9 S1 1_555 1_555
C10 C9 1_555 1_555
H7 C10 1_555 1_555
C11 C10 1_555 1_555
H8 C11 1_555 1_555
C12 C11 1_555 1_555
C13 C12 1_555 1_555
H9 C13 1_555 1_555
H10 C13 1_555 1_555
H11 C13 1_555 1_555
N2 C8 1_555 1_555
H12 N2 1_555 1_555
C14 N2 1_555 1_555
C15 C7 1_555 1_555
C16 C1 1_555 1_555
H13 C16 1_555 1_555
C17 C4 1_555 1_555
H14 C17 1_555 1_555
C18 C7 1_555 1_555
H15 C18 1_555 1_555
H16 C18 1_555 1_555
C19 N1 1_555 1_555
H17 C19 1_555 1_555
H18 C19 1_555 1_555
C20 C15 1_555 1_555
H19 C20 1_555 1_555
C21 C20 1_555 1_555
H20 C21 1_555 1_555
C22 C21 1_555 1_555
H21 C22 1_555 1_555
C23 C14 1_555 1_555
H22 C23 1_555 1_555
C24 C9 1_555 1_555
H23 C24 1_555 1_555
C25 C12 1_555 1_555
H24 C25 1_555 1_555
C7 C8 1_555 1_555
C14 C15 1_555 1_555
C16 C17 1_555 1_555
C18 C19 1_555 1_555
C22 C23 1_555 1_555
C24 C25 1_555 1_555

#END
