
#######################################################################
#
#                 Cambridge Crystallographic Data Centre
#                                CCDC 
#
#######################################################################
#
# If this CIF has been generated from an entry in the Cambridge 
# Structural Database, then it will include bibliographic, chemical, 
# crystal, experimental, refinement or atomic coordinate data resulting 
# from the CCDC's data processing and validation procedures.
#
#######################################################################

data_IFUPIJ
_chemical_formula_moiety         'C29 H20 Cl2 N2 S2'
_chemical_name_systematic        
4-(4-Chlorophenylsulfanyl)-1-((E)-2-(4-chlorophenylsulfanyl)-1-phenylethenyl)-3-phenyl-1H-pyrazole
_symmetry_cell_setting           monoclinic
_symmetry_space_group_name_H-M   'P 21/c'
_symmetry_Int_Tables_number      14
_space_group_name_Hall           '-P 2ybc'
loop_
_symmetry_equiv_pos_site_id
_symmetry_equiv_pos_as_xyz
1 x,y,z
2 -x,1/2+y,1/2-z
3 -x,-y,-z
4 x,1/2-y,1/2+z
_cell_length_a                   12.3808(4)
_cell_length_b                   21.4667(7)
_cell_length_c                   10.4281(4)
_cell_angle_alpha                90
_cell_angle_beta                 108.181(2)
_cell_angle_gamma                90
_cell_volume                     2633.16
_exptl_crystal_colour            colorless
_exptl_crystal_description       Block
_cell_formula_units_Z            4
_exptl_crystal_recrystallization_method dichloromethane
loop_
_atom_site_label
_atom_site_type_symbol
_atom_site_fract_x
_atom_site_fract_y
_atom_site_fract_z
Cl1 Cl -0.05360(11) 0.97426(6) 1.29295(10)
Cl2 Cl 0.49992(8) 0.55063(4) 0.67733(9)
S1 S -0.22821(6) 0.89305(5) 0.68804(10)
S2 S 0.13985(5) 0.72882(3) 0.29751(6)
N1 N -0.03047(14) 0.82027(8) 0.48954(18)
N2 N 0.06227(14) 0.85803(8) 0.52541(18)
C1 C 0.08940(18) 0.77699(10) 0.4007(2)
C2 C 0.13504(17) 0.83241(10) 0.4710(2)
C3 C -0.01665(18) 0.77170(10) 0.4154(2)
H1 H -0.0692 0.7402 0.3804
C4 C -0.12269(18) 0.83142(11) 0.5402(2)
C5 C -0.1128(2) 0.87324(13) 0.6357(3)
H2 H -0.0430 0.8924 0.6756
C6 C -0.1672(2) 0.91670(13) 0.8564(3)
C7 C -0.0600(2) 0.90247(14) 0.9387(3)
H3 H -0.0108 0.8804 0.9040
C8 C -0.0243(3) 0.92044(15) 1.0718(4)
H4 H 0.0490 0.9110 1.1262
C9 C -0.0963(3) 0.95220(14) 1.1244(3)
C10 C -0.2020(3) 0.96751(19) 1.0443(4)
H5 H -0.2504 0.9899 1.0797
C11 C -0.2377(3) 0.95004(19) 0.9112(4)
H6 H -0.3104 0.9608 0.8570
C12 C -0.22593(18) 0.79358(11) 0.4766(2)
C13 C -0.3037(2) 0.81280(15) 0.3589(3)
H7 H -0.2918 0.8497 0.3186
C14 C -0.4000(3) 0.7778(2) 0.2995(4)
H8 H -0.4524 0.7911 0.2192
C15 C -0.4182(3) 0.7247(2) 0.3572(4)
H9 H -0.4834 0.7014 0.3171
C16 C -0.3416(4) 0.7046(2) 0.4741(4)
H10 H -0.3544 0.6677 0.5137
C17 C -0.2445(3) 0.73921(16) 0.5344(3)
H11 H -0.1919 0.7254 0.6141
C18 C 0.23637(18) 0.67789(10) 0.4109(2)
C19 C 0.3060(2) 0.64266(12) 0.3584(3)
H12 H 0.2985 0.6456 0.2670
C20 C 0.3863(2) 0.60336(12) 0.4394(3)
H13 H 0.4333 0.5801 0.4035
C21 C 0.3961(2) 0.59894(11) 0.5732(3)
C22 C 0.3265(2) 0.63248(13) 0.6277(3)
H14 H 0.3333 0.6286 0.7187
C23 C 0.2463(2) 0.67213(12) 0.5457(2)
H15 H 0.1989 0.6950 0.5817
C24 C 0.24546(18) 0.86348(11) 0.4912(2)
C25 C 0.34364(19) 0.83066(12) 0.5004(2)
H16 H 0.3402 0.7878 0.4864
C26 C 0.4473(2) 0.86127(14) 0.5304(3)
H17 H 0.5130 0.8389 0.5364
C27 C 0.4531(2) 0.92423(15) 0.5512(3)
H18 H 0.5228 0.9445 0.5725
C28 C 0.3564(2) 0.95734(14) 0.5405(3)
H19 H 0.3604 1.0003 0.5534
C29 C 0.2524(2) 0.92733(12) 0.5107(3)
H20 H 0.1870 0.9502 0.5039
loop_
_geom_bond_atom_site_label_1
_geom_bond_atom_site_label_2
_geom_bond_site_symmetry_1
_geom_bond_site_symmetry_2
Cl1 C9 1_555 1_555
Cl2 C21 1_555 1_555
S1 C5 1_555 1_555
S2 C1 1_555 1_555
N1 N2 1_555 1_555
N2 C2 1_555 1_555
C1 C2 1_555 1_555
C2 C24 1_555 1_555
C3 N1 1_555 1_555
H1 C3 1_555 1_555
C4 N1 1_555 1_555
C5 C4 1_555 1_555
H2 C5 1_555 1_555
C6 S1 1_555 1_555
C7 C6 1_555 1_555
H3 C7 1_555 1_555
C8 C7 1_555 1_555
H4 C8 1_555 1_555
C9 C8 1_555 1_555
C10 C9 1_555 1_555
H5 C10 1_555 1_555
C11 C6 1_555 1_555
H6 C11 1_555 1_555
C12 C4 1_555 1_555
C13 C12 1_555 1_555
H7 C13 1_555 1_555
C14 C13 1_555 1_555
H8 C14 1_555 1_555
C15 C14 1_555 1_555
H9 C15 1_555 1_555
C16 C15 1_555 1_555
H10 C16 1_555 1_555
C17 C12 1_555 1_555
H11 C17 1_555 1_555
C18 S2 1_555 1_555
C19 C18 1_555 1_555
H12 C19 1_555 1_555
C20 C19 1_555 1_555
H13 C20 1_555 1_555
C21 C20 1_555 1_555
C22 C21 1_555 1_555
H14 C22 1_555 1_555
C23 C18 1_555 1_555
H15 C23 1_555 1_555
C24 C25 1_555 1_555
C25 H16 1_555 1_555
C26 C25 1_555 1_555
H17 C26 1_555 1_555
C27 C26 1_555 1_555
H18 C27 1_555 1_555
C28 C27 1_555 1_555
H19 C28 1_555 1_555
C29 C24 1_555 1_555
H20 C29 1_555 1_555
C1 C3 1_555 1_555
C10 C11 1_555 1_555
C16 C17 1_555 1_555
C22 C23 1_555 1_555
C28 C29 1_555 1_555

#END
