
#######################################################################
#
#                 Cambridge Crystallographic Data Centre
#                                CCDC 
#
#######################################################################
#
# If this CIF has been generated from an entry in the Cambridge 
# Structural Database, then it will include bibliographic, chemical, 
# crystal, experimental, refinement or atomic coordinate data resulting 
# from the CCDC's data processing and validation procedures.
#
#######################################################################

data_IFUQIL
_chemical_formula_moiety         'C24 H31 N1 O5'
_chemical_name_systematic        
1-(3-Phenyl-1-(2,2,7,7-tetramethyltetrahydro-3aH-bis[1,3]dioxolo[4,5-b:4',5'-d]pyran-5-yl)prop-2-yn-1-yl)pyrrolidine
_symmetry_cell_setting           orthorhombic
_symmetry_space_group_name_H-M   'P 21 21 21'
_symmetry_Int_Tables_number      19
_space_group_name_Hall           'P 2ac 2ab'
loop_
_symmetry_equiv_pos_site_id
_symmetry_equiv_pos_as_xyz
1 x,y,z
2 1/2-x,-y,1/2+z
3 -x,1/2+y,1/2-z
4 1/2+x,1/2-y,-z
_cell_length_a                   10.1708(3)
_cell_length_b                   10.8846(3)
_cell_length_c                   20.5798(6)
_cell_angle_alpha                90
_cell_angle_beta                 90
_cell_angle_gamma                90
_cell_volume                     2278.29
_exptl_crystal_colour            colorless
_exptl_crystal_description       prism
_cell_formula_units_Z            4
loop_
_atom_site_label
_atom_site_type_symbol
_atom_site_fract_x
_atom_site_fract_y
_atom_site_fract_z
O1 O 0.55396(10) 0.52204(9) 0.77710(5)
O2 O 0.58075(13) 0.48592(11) 0.88742(5)
O3 O 0.49418(12) 0.29792(10) 0.87484(5)
O4 O 0.29383(11) 0.39296(11) 0.73984(5)
O5 O 0.45446(11) 0.35957(13) 0.66581(5)
N1 N 0.78975(13) 0.55644(11) 0.70779(6)
C1 C 0.61348(16) 0.41678(14) 0.74764(8)
H1 H 0.6727 0.3774 0.7789
C2 C 0.48935(18) 0.49814(17) 0.83620(7)
H2 H 0.4292 0.5660 0.8460
C3 C 0.41335(17) 0.37765(16) 0.83757(8)
H3 H 0.3291 0.3897 0.8597
C4 C 0.39022(16) 0.32031(16) 0.77167(8)
H4 H 0.3591 0.2356 0.7765
C5 C 0.50885(16) 0.32500(16) 0.72631(8)
H5 H 0.5479 0.2430 0.7228
C6 C 0.5598(2) 0.37307(18) 0.92113(9)
C7 C 0.31720(18) 0.38214(19) 0.67172(9)
C8 C 0.69320(16) 0.46271(14) 0.68938(7)
H6 H 0.6310 0.5019 0.6595
C9 C 0.75308(17) 0.35876(16) 0.65405(8)
C10 C 0.80792(17) 0.28300(16) 0.62283(8)
C11 C 0.87802(16) 0.19495(17) 0.58312(8)
C12 C 0.9402(2) 0.2320(2) 0.52750(8)
H7 H 0.9360 0.3140 0.5149
C13 C 1.0090(2) 0.1493(3) 0.48988(10)
H8 H 1.0519 0.1755 0.4525
C14 C 1.0135(2) 0.0305(3) 0.50765(10)
H9 H 1.0588 -0.0257 0.4820
C15 C 0.9530(2) -0.0082(2) 0.56239(11)
H10 H 0.9576 -0.0904 0.5745
C16 C 0.8852(2) 0.07331(19) 0.59989(10)
H11 H 0.8432 0.0460 0.6373
C17 C 0.89935(17) 0.51845(16) 0.74842(9)
H12 H 0.9375 0.4423 0.7327
H13 H 0.8716 0.5072 0.7931
C18 C 0.9972(2) 0.62416(19) 0.74272(10)
H14 H 0.9923 0.6771 0.7805
H15 H 1.0863 0.5931 0.7388
C19 C 0.95719(19) 0.69382(19) 0.68153(9)
H16 H 0.9236 0.7747 0.6922
H17 H 1.0311 0.7027 0.6521
C20 C 0.85129(17) 0.61487(18) 0.65183(8)
H18 H 0.7884 0.6645 0.6280
H19 H 0.8887 0.5541 0.6227
C21 C 0.6903(2) 0.3161(2) 0.93715(10)
H20 H 0.7389 0.3026 0.8978
H21 H 0.6765 0.2391 0.9588
H22 H 0.7389 0.3703 0.9650
C22 C 0.4736(2) 0.3961(2) 0.98000(9)
H23 H 0.3914 0.4308 0.9663
H24 H 0.5171 0.4521 1.0089
H25 H 0.4577 0.3198 1.0021
C23 C 0.2448(2) 0.2740(2) 0.64353(9)
H26 H 0.2684 0.2009 0.6668
H27 H 0.2679 0.2648 0.5986
H28 H 0.1518 0.2874 0.6472
C24 C 0.2843(3) 0.5011(2) 0.63952(10)
H29 H 0.3321 0.5664 0.6601
H30 H 0.1917 0.5163 0.6433
H31 H 0.3081 0.4970 0.5944
loop_
_geom_bond_atom_site_label_1
_geom_bond_atom_site_label_2
_geom_bond_site_symmetry_1
_geom_bond_site_symmetry_2
O1 C1 1_555 1_555
O2 C2 1_555 1_555
O3 C3 1_555 1_555
O4 C4 1_555 1_555
O5 C5 1_555 1_555
N1 C8 1_555 1_555
C1 H1 1_555 1_555
C2 O1 1_555 1_555
H2 C2 1_555 1_555
C3 C2 1_555 1_555
H3 C3 1_555 1_555
C4 C3 1_555 1_555
H4 C4 1_555 1_555
C5 C1 1_555 1_555
H5 C5 1_555 1_555
C6 O2 1_555 1_555
C7 O4 1_555 1_555
C8 C1 1_555 1_555
H6 C8 1_555 1_555
C9 C8 1_555 1_555
C10 C9 1_555 1_555
C11 C10 1_555 1_555
C12 C11 1_555 1_555
H7 C12 1_555 1_555
C13 C12 1_555 1_555
H8 C13 1_555 1_555
C14 C13 1_555 1_555
H9 C14 1_555 1_555
C15 C14 1_555 1_555
H10 C15 1_555 1_555
C16 C11 1_555 1_555
H11 C16 1_555 1_555
C17 N1 1_555 1_555
H12 C17 1_555 1_555
H13 C17 1_555 1_555
C18 C17 1_555 1_555
H14 C18 1_555 1_555
H15 C18 1_555 1_555
C19 C18 1_555 1_555
H16 C19 1_555 1_555
H17 C19 1_555 1_555
C20 N1 1_555 1_555
H18 C20 1_555 1_555
H19 C20 1_555 1_555
C21 C6 1_555 1_555
H20 C21 1_555 1_555
H21 C21 1_555 1_555
H22 C21 1_555 1_555
C22 C6 1_555 1_555
H23 C22 1_555 1_555
H24 C22 1_555 1_555
H25 C22 1_555 1_555
C23 C7 1_555 1_555
H26 C23 1_555 1_555
H27 C23 1_555 1_555
H28 C23 1_555 1_555
C24 C7 1_555 1_555
H29 C24 1_555 1_555
H30 C24 1_555 1_555
H31 C24 1_555 1_555
O3 C6 1_555 1_555
O5 C7 1_555 1_555
C4 C5 1_555 1_555
C15 C16 1_555 1_555
C19 C20 1_555 1_555

#END
