
#######################################################################
#
#                 Cambridge Crystallographic Data Centre
#                                CCDC 
#
#######################################################################
#
# If this CIF has been generated from an entry in the Cambridge 
# Structural Database, then it will include bibliographic, chemical, 
# crystal, experimental, refinement or atomic coordinate data resulting 
# from the CCDC's data processing and validation procedures.
#
#######################################################################

data_IFUQIK
_chemical_formula_moiety         'C14 H10 Br2 N2 O2'
_chemical_name_systematic        
(E)-3-Bromo-N'-(5-bromo-2-hydroxybenzylidene)benzohydrazide
_symmetry_cell_setting           monoclinic
_symmetry_space_group_name_H-M   'P 21/n'
_symmetry_Int_Tables_number      14
_space_group_name_Hall           '-P 2yn'
loop_
_symmetry_equiv_pos_site_id
_symmetry_equiv_pos_as_xyz
1 x,y,z
2 1/2-x,1/2+y,1/2-z
3 -x,-y,-z
4 1/2+x,1/2-y,1/2+z
_cell_length_a                   5.657(5)
_cell_length_b                   32.08(3)
_cell_length_c                   7.856(7)
_cell_angle_alpha                90
_cell_angle_beta                 93.217(13)
_cell_angle_gamma                90
_cell_volume                     1423.43
_exptl_crystal_colour            colorless
_exptl_crystal_description       block
_cell_formula_units_Z            4
loop_
_atom_site_label
_atom_site_type_symbol
_atom_site_fract_x
_atom_site_fract_y
_atom_site_fract_z
Br1 Br 0.52024(14) 0.488709(18) 0.25097(9)
Br2 Br 0.48529(11) 0.059801(15) 0.43970(8)
O1 O 0.9846(6) 0.33095(11) 0.5203(5)
H1 H 0.8927 0.3112 0.5117
O2 O 0.6434(6) 0.22201(10) 0.6015(4)
N1 N 0.5896(7) 0.29247(11) 0.4185(5)
N2 N 0.4480(7) 0.25766(12) 0.3888(5)
C1 C 0.6522(8) 0.36456(14) 0.3700(5)
C2 C 0.8762(8) 0.36571(15) 0.4560(6)
C3 C 0.9919(10) 0.40362(17) 0.4777(7)
H2 H 1.1409 0.4045 0.5339
C4 C 0.8888(11) 0.43984(17) 0.4170(7)
H3 H 0.9687 0.4650 0.4317
C5 C 0.6659(10) 0.43900(15) 0.3338(6)
C6 C 0.5510(9) 0.40199(14) 0.3089(6)
H4 H 0.4034 0.4015 0.2505
C7 C 0.5168(8) 0.32626(14) 0.3474(6)
H5 H 0.3758 0.3264 0.2806
C8 C 0.4901(8) 0.22345(14) 0.4857(6)
C9 C 0.3421(8) 0.18595(14) 0.4356(5)
C10 C 0.4437(8) 0.14749(13) 0.4676(5)
H6 H 0.5908 0.1456 0.5261
C11 C 0.3267(9) 0.11187(14) 0.4127(6)
C12 C 0.1049(9) 0.11408(17) 0.3310(6)
H7 H 0.0270 0.0899 0.2939
C13 C 0.0001(9) 0.15246(17) 0.3051(6)
H8 H -0.1513 0.1542 0.2530
C14 C 0.1181(8) 0.18839(15) 0.3557(6)
H9 H 0.0472 0.2142 0.3362
H10 H 0.339(7) 0.2580(16) 0.301(5)
loop_
_geom_bond_atom_site_label_1
_geom_bond_atom_site_label_2
_geom_bond_site_symmetry_1
_geom_bond_site_symmetry_2
Br1 C5 1_555 1_555
Br2 C11 1_555 1_555
O1 H1 1_555 1_555
O2 C8 1_555 1_555
N1 N2 1_555 1_555
N2 C8 1_555 1_555
C1 C2 1_555 1_555
C2 O1 1_555 1_555
C3 C2 1_555 1_555
H2 C3 1_555 1_555
C4 C3 1_555 1_555
H3 C4 1_555 1_555
C5 C4 1_555 1_555
C6 C1 1_555 1_555
H4 C6 1_555 1_555
C7 N1 1_555 1_555
H5 C7 1_555 1_555
C8 C9 1_555 1_555
C9 C10 1_555 1_555
C10 H6 1_555 1_555
C11 C10 1_555 1_555
C12 C11 1_555 1_555
H7 C12 1_555 1_555
C13 C12 1_555 1_555
H8 C13 1_555 1_555
C14 C9 1_555 1_555
H9 C14 1_555 1_555
H10 N2 1_555 1_555
C1 C7 1_555 1_555
C5 C6 1_555 1_555
C13 C14 1_555 1_555

#END
