
#######################################################################
#
#                 Cambridge Crystallographic Data Centre
#                                CCDC 
#
#######################################################################
#
# If this CIF has been generated from an entry in the Cambridge 
# Structural Database, then it will include bibliographic, chemical, 
# crystal, experimental, refinement or atomic coordinate data resulting 
# from the CCDC's data processing and validation procedures.
#
#######################################################################

data_IFUROT
_chemical_formula_moiety         'C11 H7 F7 N2'
_chemical_name_systematic        
4-[(2,2,3,3,4,4,4-heptafluorobutyl)amino]benzonitrile
_symmetry_cell_setting           orthorhombic
_symmetry_space_group_name_H-M   'P b c a'
_symmetry_Int_Tables_number      61
_space_group_name_Hall           '-P 2ac 2ab'
loop_
_symmetry_equiv_pos_site_id
_symmetry_equiv_pos_as_xyz
1 x,y,z
2 1/2-x,-y,1/2+z
3 -x,1/2+y,1/2-z
4 1/2+x,1/2-y,-z
5 -x,-y,-z
6 1/2+x,y,1/2-z
7 x,1/2-y,1/2+z
8 1/2-x,1/2+y,z
_cell_length_a                   9.1202(10)
_cell_length_b                   8.3186(10)
_cell_length_c                   33.169(7)
_cell_angle_alpha                90
_cell_angle_beta                 90
_cell_angle_gamma                90
_cell_volume                     2516.44
_exptl_crystal_colour            colorless
_exptl_crystal_description       block
_cell_formula_units_Z            8
loop_
_atom_site_label
_atom_site_type_symbol
_atom_site_fract_x
_atom_site_fract_y
_atom_site_fract_z
C1 C 0.2706(4) 1.0858(5) 0.45120(14)
C2 C 0.4233(3) 1.0715(5) 0.44107(12)
C3 C 0.4665(4) 0.9819(5) 0.40868(14)
H1 H 0.3958 0.9304 0.3931
C4 C 0.6121(4) 0.9660(5) 0.39845(14)
H2 H 0.6390 0.9062 0.3759
C5 C 0.7197(3) 1.0407(4) 0.42223(12)
C6 C 0.6745(4) 1.1308(5) 0.45536(13)
H3 H 0.7448 1.1805 0.4714
C7 C 0.5301(4) 1.1481(5) 0.46496(12)
H4 H 0.5024 1.2098 0.4871
C8 C 0.9316(4) 0.9250(5) 0.38507(15)
H5 H 0.8650 0.8370 0.3793
H6 H 1.0205 0.8799 0.3965
C9 C 0.9681(5) 1.0100(5) 0.34674(18)
C10 C 1.0377(5) 0.8961(6) 0.31592(18)
C11 C 1.0846(10) 0.9645(10) 0.2752(3)
F1 F 0.8516(4) 1.0797(5) 0.33101(13)
F2 F 1.0634(4) 1.1294(4) 0.35389(13)
F3 F 0.9412(6) 0.7811(5) 0.30763(15)
F4 F 1.1591(6) 0.8314(7) 0.33192(16)
F5 F 1.1418(7) 0.8528(6) 0.25308(17)
F6 F 1.1643(10) 1.0779(9) 0.2798(2)
F7 F 0.9626(9) 1.0012(11) 0.2570(2)
N1 N 0.1506(4) 1.1006(6) 0.45760(16)
N2 N 0.8659(4) 1.0297(4) 0.41364(12)
loop_
_geom_bond_atom_site_label_1
_geom_bond_atom_site_label_2
_geom_bond_site_symmetry_1
_geom_bond_site_symmetry_2
C1 C2 1_555 1_555
C2 C3 1_555 1_555
C3 H1 1_555 1_555
C4 C3 1_555 1_555
H2 C4 1_555 1_555
C5 C4 1_555 1_555
C6 C5 1_555 1_555
H3 C6 1_555 1_555
C7 C2 1_555 1_555
H4 C7 1_555 1_555
C8 H5 1_555 1_555
H6 C8 1_555 1_555
C9 C8 1_555 1_555
C10 C9 1_555 1_555
C11 C10 1_555 1_555
F1 C9 1_555 1_555
F2 C9 1_555 1_555
F3 C10 1_555 1_555
F4 C10 1_555 1_555
F5 C11 1_555 1_555
F6 C11 1_555 1_555
F7 C11 1_555 1_555
N1 C1 1_555 1_555
N2 C5 1_555 1_555
C6 C7 1_555 1_555
C8 N2 1_555 1_555

#END
