
#######################################################################
#
#                 Cambridge Crystallographic Data Centre
#                                CCDC 
#
#######################################################################
#
# If this CIF has been generated from an entry in the Cambridge 
# Structural Database, then it will include bibliographic, chemical, 
# crystal, experimental, refinement or atomic coordinate data resulting 
# from the CCDC's data processing and validation procedures.
#
#######################################################################

data_IFUREH
_chemical_formula_moiety         'C13 H10 N2 S1'
_chemical_name_systematic        2-(4-Aminophenyl)-1,3-benzothiazole
_symmetry_cell_setting           triclinic
_symmetry_space_group_name_H-M   'P -1'
_symmetry_Int_Tables_number      2
_space_group_name_Hall           '-P 1'
loop_
_symmetry_equiv_pos_site_id
_symmetry_equiv_pos_as_xyz
1 x,y,z
2 -x,-y,-z
_cell_length_a                   8.7038(5)
_cell_length_b                   9.5933(6)
_cell_length_c                   14.5144(9)
_cell_angle_alpha                70.7200(10)
_cell_angle_beta                 77.3260(10)
_cell_angle_gamma                73.1700(10)
_cell_volume                     1084.63
_exptl_crystal_colour            blue
_exptl_crystal_description       block
_cell_formula_units_Z            4
_exptl_crystal_recrystallization_method methanol
loop_
_atom_site_label
_atom_site_type_symbol
_atom_site_fract_x
_atom_site_fract_y
_atom_site_fract_z
C1 C 0.1360(2) 0.6101(2) 0.06950(16)
C2 C 0.0112(3) 0.7409(3) 0.05957(19)
H1 H -0.0368 0.7833 0.0022
C3 C -0.0402(3) 0.8066(3) 0.1348(2)
H2 H -0.1234 0.8943 0.1282
C4 C 0.0296(3) 0.7447(3) 0.2208(2)
H3 H -0.0078 0.7912 0.2711
C5 C 0.1539(3) 0.6151(3) 0.23330(18)
H4 H 0.2007 0.5736 0.2911
C6 C 0.2066(2) 0.5488(2) 0.15651(15)
C7 C 0.3187(2) 0.4164(2) 0.02866(14)
C8 C 0.4141(2) 0.3129(2) -0.02870(14)
C9 C 0.3726(2) 0.3255(2) -0.11916(15)
H5 H 0.2833 0.4002 -0.1424
C10 C 0.4606(3) 0.2302(2) -0.17460(15)
H6 H 0.4295 0.2408 -0.2344
C11 C 0.5958(2) 0.1178(2) -0.14273(15)
C12 C 0.6382(2) 0.1045(2) -0.05262(16)
H7 H 0.7282 0.0304 -0.0297
C13 C 0.5487(2) 0.1994(2) 0.00275(15)
H8 H 0.5788 0.1876 0.0630
N1 N 0.6820(2) 0.0234(2) -0.19862(15)
N2 N 0.20084(19) 0.53292(18) -0.00148(12)
S1 S 0.35999(7) 0.39025(6) 0.14764(4)
H17 H 0.655(3) 0.035(3) -0.2540(13)
H18 H 0.754(2) -0.048(2) -0.1747(16)
C14 C 0.6126(2) 0.2440(2) 0.53255(15)
C15 C 0.7512(3) 0.2790(3) 0.54271(18)
H9 H 0.8010 0.2299 0.5992
C16 C 0.8130(3) 0.3879(3) 0.4673(2)
H10 H 0.9060 0.4119 0.4731
C17 C 0.7399(3) 0.4625(3) 0.3830(2)
H11 H 0.7843 0.5357 0.3332
C18 C 0.6027(3) 0.4301(3) 0.37176(18)
H12 H 0.5535 0.4800 0.3151
C19 C 0.5396(3) 0.3201(2) 0.44794(16)
C20 C 0.4087(2) 0.1299(2) 0.57195(14)
C21 C 0.3035(2) 0.0279(2) 0.62886(14)
C22 C 0.3356(3) -0.0669(2) 0.72208(15)
H13 H 0.4236 -0.0635 0.7472
C23 C 0.2405(2) -0.1649(2) 0.77762(16)
H14 H 0.2650 -0.2269 0.8396
C24 C 0.1078(2) -0.1729(2) 0.74244(16)
C25 C 0.0748(3) -0.0791(2) 0.64972(16)
H15 H -0.0134 -0.0824 0.6248
C26 C 0.1713(3) 0.0188(2) 0.59423(16)
H16 H 0.1472 0.0802 0.5321
N3 N 0.5371(2) 0.13608(18) 0.60184(12)
N4 N 0.0104(3) -0.2687(3) 0.80188(16)
S2 S 0.36992(7) 0.25484(6) 0.45569(4)
H19 H -0.038(3) -0.292(3) 0.7646(15)
H20 H 0.052(3) -0.339(2) 0.8488(15)
loop_
_geom_bond_atom_site_label_1
_geom_bond_atom_site_label_2
_geom_bond_site_symmetry_1
_geom_bond_site_symmetry_2
C1 C2 1_555 1_555
C2 H1 1_555 1_555
C3 C2 1_555 1_555
H2 C3 1_555 1_555
C4 C3 1_555 1_555
H3 C4 1_555 1_555
C5 C4 1_555 1_555
H4 C5 1_555 1_555
C6 C1 1_555 1_555
C7 C8 1_555 1_555
C8 C9 1_555 1_555
C9 H5 1_555 1_555
C10 C9 1_555 1_555
H6 C10 1_555 1_555
C11 C10 1_555 1_555
C12 C11 1_555 1_555
H7 C12 1_555 1_555
C13 C8 1_555 1_555
H8 C13 1_555 1_555
C14 C15 1_555 1_555
C15 H9 1_555 1_555
C16 C15 1_555 1_555
H10 C16 1_555 1_555
C17 C16 1_555 1_555
H11 C17 1_555 1_555
C18 C17 1_555 1_555
H12 C18 1_555 1_555
C19 C14 1_555 1_555
C20 C21 1_555 1_555
C21 C22 1_555 1_555
C22 H13 1_555 1_555
C23 C22 1_555 1_555
H14 C23 1_555 1_555
C24 C23 1_555 1_555
C25 C24 1_555 1_555
H15 C25 1_555 1_555
C26 C21 1_555 1_555
H16 C26 1_555 1_555
N1 C11 1_555 1_555
N2 C1 1_555 1_555
N3 C14 1_555 1_555
N4 C24 1_555 1_555
S1 C6 1_555 1_555
S2 C19 1_555 1_555
H17 N1 1_555 1_555
H18 N1 1_555 1_555
H19 N4 1_555 1_555
H20 N4 1_555 1_555
C5 C6 1_555 1_555
C7 N2 1_555 1_555
C7 S1 1_555 1_555
C12 C13 1_555 1_555
C18 C19 1_555 1_555
C20 N3 1_555 1_555
C20 S2 1_555 1_555
C25 C26 1_555 1_555

#END
