
#######################################################################
#
#                 Cambridge Crystallographic Data Centre
#                                CCDC 
#
#######################################################################
#
# If this CIF has been generated from an entry in the Cambridge 
# Structural Database, then it will include bibliographic, chemical, 
# crystal, experimental, refinement or atomic coordinate data resulting 
# from the CCDC's data processing and validation procedures.
#
#######################################################################

data_IFUSEI
_chemical_formula_moiety         'C18 H13 Br1 N2 O2'
_chemical_name_systematic        
(E)-4-Bromo-N'-(2-hydroxy-1-naphthylmethylene)benzohydrazide
_symmetry_cell_setting           monoclinic
_symmetry_space_group_name_H-M   'P c'
_symmetry_Int_Tables_number      7
_space_group_name_Hall           'P -2yc'
loop_
_symmetry_equiv_pos_site_id
_symmetry_equiv_pos_as_xyz
1 x,y,z
2 x,-y,1/2+z
_cell_length_a                   6.185(2)
_cell_length_b                   4.7638(19)
_cell_length_c                   25.689(10)
_cell_angle_alpha                90
_cell_angle_beta                 95.449(7)
_cell_angle_gamma                90
_cell_volume                     753.483
_exptl_crystal_colour            yellow
_exptl_crystal_description       block
_cell_formula_units_Z            2
loop_
_atom_site_label
_atom_site_type_symbol
_atom_site_fract_x
_atom_site_fract_y
_atom_site_fract_z
Br1 Br 1.08310(11) 0.22527(11) 1.13545(4)
O1 O 0.2012(5) -0.3701(5) 0.99811(12)
O2 O -0.3678(6) -0.2844(6) 0.91908(13)
H1 H -0.2458 -0.2481 0.9327
N1 N 0.1759(5) 0.0647(6) 0.96274(13)
N2 N -0.0057(5) -0.0129(6) 0.93167(12)
C1 C 0.7851(7) 0.2520(7) 1.04481(17)
H2 H 0.8775 0.3902 1.0342
C2 C 0.8295(7) 0.1191(9) 1.09188(16)
C3 C 0.6996(7) -0.0854(9) 1.10869(16)
H3 H 0.7329 -0.1711 1.1410
C4 C 0.5173(7) -0.1632(8) 1.07685(17)
H4 H 0.4282 -0.3052 1.0875
C5 C 0.4659(6) -0.0328(7) 1.02954(15)
C6 C 0.6012(6) 0.1770(7) 1.01362(16)
H5 H 0.5673 0.2669 0.9818
C7 C 0.2705(6) -0.1305(8) 0.99609(15)
C8 C -0.0776(6) 0.1545(8) 0.89501(16)
H6 H -0.0023 0.3190 0.8893
C9 C -0.2727(6) 0.0903(7) 0.86278(15)
C10 C -0.4138(6) -0.1175(8) 0.87700(16)
C11 C -0.6139(7) -0.1627(9) 0.8477(2)
H7 H -0.7084 -0.2975 0.8587
C12 C -0.6716(6) -0.0146(9) 0.80394(19)
H8 H -0.8065 -0.0462 0.7857
C13 C -0.5319(7) 0.1866(8) 0.78536(19)
C14 C -0.5851(8) 0.3322(10) 0.7382(2)
H9 H -0.7177 0.2963 0.7191
C15 C -0.4491(8) 0.5229(10) 0.71980(18)
H10 H -0.4861 0.6156 0.6883
C16 C -0.2513(8) 0.5774(10) 0.74925(17)
H11 H -0.1576 0.7101 0.7372
C17 C -0.1927(6) 0.4422(8) 0.79472(15)
H12 H -0.0587 0.4806 0.8129
C18 C -0.3314(6) 0.2444(7) 0.81494(17)
H13 H 0.209(11) 0.245(4) 0.969(3)
loop_
_geom_bond_atom_site_label_1
_geom_bond_atom_site_label_2
_geom_bond_site_symmetry_1
_geom_bond_site_symmetry_2
Br1 C2 1_555 1_555
O1 C7 1_555 1_555
O2 H1 1_555 1_555
N1 N2 1_555 1_555
N2 C8 1_555 1_555
C1 H2 1_555 1_555
C2 C1 1_555 1_555
C3 C2 1_555 1_555
H3 C3 1_555 1_555
C4 C3 1_555 1_555
H4 C4 1_555 1_555
C5 C4 1_555 1_555
C6 C1 1_555 1_555
H5 C6 1_555 1_555
C7 N1 1_555 1_555
C8 H6 1_555 1_555
C9 C8 1_555 1_555
C10 O2 1_555 1_555
C11 C10 1_555 1_555
H7 C11 1_555 1_555
C12 C11 1_555 1_555
H8 C12 1_555 1_555
C13 C12 1_555 1_555
C14 C13 1_555 1_555
H9 C14 1_555 1_555
C15 C14 1_555 1_555
H10 C15 1_555 1_555
C16 C15 1_555 1_555
H11 C16 1_555 1_555
C17 C16 1_555 1_555
H12 C17 1_555 1_555
C18 C9 1_555 1_555
H13 N1 1_555 1_555
C5 C6 1_555 1_555
C5 C7 1_555 1_555
C9 C10 1_555 1_555
C13 C18 1_555 1_555
C17 C18 1_555 1_555

#END
