
#######################################################################
#
#                 Cambridge Crystallographic Data Centre
#                                CCDC 
#
#######################################################################
#
# If this CIF has been generated from an entry in the Cambridge 
# Structural Database, then it will include bibliographic, chemical, 
# crystal, experimental, refinement or atomic coordinate data resulting 
# from the CCDC's data processing and validation procedures.
#
#######################################################################

data_IFUSIM
_chemical_formula_moiety         'C11 H14 N2 O2'
_chemical_name_systematic        
"(E)-Methyl N'-(1-(4-methylphenyl)ethylidene)hydrazinecarboxylate"
_symmetry_cell_setting           monoclinic
_symmetry_space_group_name_H-M   'P 21/c'
_symmetry_Int_Tables_number      14
_space_group_name_Hall           '-P 2ybc'
loop_
_symmetry_equiv_pos_site_id
_symmetry_equiv_pos_as_xyz
1 x,y,z
2 -x,1/2+y,1/2-z
3 -x,-y,-z
4 x,1/2-y,1/2+z
_cell_length_a                   11.5197(3)
_cell_length_b                   5.5734(6)
_cell_length_c                   17.3281(2)
_cell_angle_alpha                90
_cell_angle_beta                 94.193(14)
_cell_angle_gamma                90
_cell_volume                     1109.55
_exptl_crystal_colour            colorless
_exptl_crystal_description       Block
_chemical_melting_point          '453-455 K'
_cell_formula_units_Z            4
_exptl_crystal_recrystallization_method ethanol
loop_
_atom_site_label
_atom_site_type_symbol
_atom_site_fract_x
_atom_site_fract_y
_atom_site_fract_z
C1 C 0.4332(2) -0.0332(5) 0.39288(14)
C2 C 0.5218(2) -0.2016(5) 0.40434(17)
H1 H 0.5107 -0.3340 0.4357
C3 C 0.3200(2) -0.0595(5) 0.42808(15)
C4 C 0.4558(2) 0.1643(5) 0.34621(16)
H2 H 0.3994 0.2827 0.3379
C5 C 0.6471(2) 0.0163(5) 0.32361(16)
C6 C 0.5594(2) 0.1865(5) 0.31268(16)
H3 H 0.5712 0.3193 0.2817
C7 C 0.0517(2) 0.2495(5) 0.42066(17)
C8 C 0.6258(2) -0.1771(5) 0.37036(18)
H4 H 0.6830 -0.2937 0.3792
C9 C 0.7601(3) 0.0414(7) 0.28540(19)
H5 H 0.7559 0.1786 0.2518
H6 H 0.7732 -0.1002 0.2557
H7 H 0.8230 0.0618 0.3243
C10 C 0.3016(2) -0.2711(5) 0.47910(17)
H8 H 0.2698 -0.2178 0.5258
H9 H 0.3746 -0.3499 0.4916
H10 H 0.2484 -0.3812 0.4526
C11 C -0.0088(3) 0.5827(6) 0.3454(2)
H11 H -0.0725 0.5048 0.3167
H12 H 0.0235 0.7033 0.3137
H13 H -0.0362 0.6564 0.3907
N1 N 0.13765(19) 0.0920(4) 0.44132(14)
H14 H 0.1257 -0.0182 0.4746
N2 N 0.24476(18) 0.1054(4) 0.40979(13)
O1 O 0.07955(17) 0.4080(4) 0.36804(12)
O2 O -0.04293(16) 0.2424(4) 0.44769(13)
loop_
_geom_bond_atom_site_label_1
_geom_bond_atom_site_label_2
_geom_bond_site_symmetry_1
_geom_bond_site_symmetry_2
C1 C2 1_555 1_555
C2 H1 1_555 1_555
C3 C1 1_555 1_555
C4 C1 1_555 1_555
H2 C4 1_555 1_555
C5 C6 1_555 1_555
C6 C4 1_555 1_555
H3 C6 1_555 1_555
C7 N1 1_555 1_555
C8 C2 1_555 1_555
H4 C8 1_555 1_555
C9 C5 1_555 1_555
H5 C9 1_555 1_555
H6 C9 1_555 1_555
H7 C9 1_555 1_555
C10 C3 1_555 1_555
H8 C10 1_555 1_555
H9 C10 1_555 1_555
H10 C10 1_555 1_555
C11 H11 1_555 1_555
H12 C11 1_555 1_555
H13 C11 1_555 1_555
N1 H14 1_555 1_555
N2 C3 1_555 1_555
O1 C7 1_555 1_555
O2 C7 1_555 1_555
C5 C8 1_555 1_555
C11 O1 1_555 1_555
N1 N2 1_555 1_555

#END
