
#######################################################################
#
#                 Cambridge Crystallographic Data Centre
#                                CCDC 
#
#######################################################################
#
# If this CIF has been generated from an entry in the Cambridge 
# Structural Database, then it will include bibliographic, chemical, 
# crystal, experimental, refinement or atomic coordinate data resulting 
# from the CCDC's data processing and validation procedures.
#
#######################################################################

data_IFUTUB
_chemical_formula_moiety         'C44 H50 N2 O6'
_chemical_name_systematic        
2,7-bis[4-(nonyloxy)phenyl]benzo[lmn][3,8]phenanthroline-1,3,6,8(2H,7H)-tetrone
_symmetry_cell_setting           monoclinic
_symmetry_space_group_name_H-M   'P 21/n'
_symmetry_Int_Tables_number      14
_space_group_name_Hall           '-P 2yn'
loop_
_symmetry_equiv_pos_site_id
_symmetry_equiv_pos_as_xyz
1 x,y,z
2 1/2-x,1/2+y,1/2-z
3 -x,-y,-z
4 1/2+x,1/2-y,1/2+z
_cell_length_a                   4.2348(19)
_cell_length_b                   51.591(19)
_cell_length_c                   8.261(3)
_cell_angle_alpha                90
_cell_angle_beta                 93.622(11)
_cell_angle_gamma                90
_cell_volume                     1801.24
_exptl_crystal_colour            orange
_cell_formula_units_Z            2
loop_
_atom_site_label
_atom_site_type_symbol
_atom_site_fract_x
_atom_site_fract_y
_atom_site_fract_z
C1 C 0.0276(7) 0.44202(5) 0.1181(3)
C2 C 0.3672(7) 0.47169(5) 0.2897(3)
C3 C 0.2622(7) 0.49379(5) 0.1851(3)
C4 C 0.0482(7) 0.48942(5) 0.0502(3)
C5 C 0.3706(7) 0.51834(5) 0.2205(3)
H1 H 0.5136 0.5211 0.3121
C6 C 0.2713(7) 0.53936(5) 0.1221(3)
H2 H 0.3458 0.5563 0.1484
C7 C 0.0666(7) 0.53563(5) -0.0124(3)
C8 C 0.2746(7) 0.42751(5) 0.3808(3)
C9 C 0.1503(7) 0.43095(5) 0.5294(3)
H3 H 0.0237 0.4457 0.5484
C10 C 0.2110(7) 0.41269(5) 0.6521(3)
H4 H 0.1289 0.4151 0.7554
C11 C 0.3910(7) 0.39116(5) 0.6220(3)
C12 C 0.5054(7) 0.38749(5) 0.4695(3)
H5 H 0.6232 0.3723 0.4481
C13 C 0.4490(7) 0.40569(5) 0.3494(3)
H6 H 0.5294 0.4033 0.2457
C14 C 0.3386(8) 0.37397(5) 0.8889(3)
H7 H 0.1047 0.3742 0.8750
H8 H 0.4096 0.3901 0.9450
C15 C 0.4491(8) 0.35055(5) 0.9875(3)
H9 H 0.3513 0.3510 1.0932
H10 H 0.6813 0.3516 1.0093
C16 C 0.3680(8) 0.32489(5) 0.9044(3)
H11 H 0.4720 0.3242 0.8005
H12 H 0.1366 0.3242 0.8789
C17 C 0.4671(8) 0.30107(5) 1.0044(3)
H13 H 0.6974 0.3020 1.0331
H14 H 0.3570 0.3013 1.1066
C18 C 0.3933(8) 0.27569(5) 0.9160(3)
H15 H 0.1630 0.2749 0.8872
H16 H 0.5028 0.2756 0.8137
C19 C 0.4894(8) 0.25151(5) 1.0123(3)
H17 H 0.7195 0.2522 1.0416
H18 H 0.3787 0.2514 1.1144
C20 C 0.4151(8) 0.22644(5) 0.9216(3)
H19 H 0.5230 0.2266 0.8187
H20 H 0.1844 0.2255 0.8939
C21 C 0.5165(8) 0.20235(5) 1.0175(4)
H21 H 0.7472 0.2033 1.0448
H22 H 0.4095 0.2023 1.1207
C22 C 0.4429(9) 0.17706(6) 0.9292(4)
H23 H 0.2136 0.1754 0.9078
H24 H 0.5218 0.1625 0.9965
H25 H 0.5459 0.1769 0.8262
N1 N 0.2182(6) 0.44773(4) 0.2586(3)
O1 O -0.0591(5) 0.42015(3) 0.0865(2)
O2 O 0.5741(5) 0.47388(4) 0.3971(2)
O3 O 0.4720(5) 0.37228(3) 0.7339(2)
C1B C -0.0276(7) 0.55798(5) -0.1181(3)
C2B C -0.3672(7) 0.52831(5) -0.2897(3)
C3B C -0.2622(7) 0.50621(5) -0.1851(3)
C4B C -0.0482(7) 0.51058(5) -0.0502(3)
C5B C -0.3706(7) 0.48166(5) -0.2205(3)
H1B H -0.5136 0.4789 -0.3121
C6B C -0.2713(7) 0.46064(5) -0.1221(3)
H2B H -0.3458 0.4437 -0.1484
C7B C -0.0666(7) 0.46437(5) 0.0124(3)
C8B C -0.2746(7) 0.57249(5) -0.3808(3)
C9B C -0.1503(7) 0.56905(5) -0.5294(3)
H3B H -0.0237 0.5543 -0.5484
C10B C -0.2110(7) 0.58731(5) -0.6521(3)
H4B H -0.1289 0.5849 -0.7554
C11B C -0.3910(7) 0.60884(5) -0.6220(3)
C12B C -0.5054(7) 0.61251(5) -0.4695(3)
H5B H -0.6232 0.6277 -0.4481
C13B C -0.4490(7) 0.59431(5) -0.3494(3)
H6B H -0.5294 0.5967 -0.2457
C14B C -0.3386(8) 0.62603(5) -0.8889(3)
H7B H -0.1047 0.6258 -0.8750
H8B H -0.4096 0.6099 -0.9450
C15B C -0.4491(8) 0.64945(5) -0.9875(3)
H9B H -0.3513 0.6490 -1.0932
H10B H -0.6813 0.6484 -1.0093
C16B C -0.3680(8) 0.67511(5) -0.9044(3)
H11B H -0.4720 0.6758 -0.8005
H12B H -0.1366 0.6758 -0.8789
C17B C -0.4671(8) 0.69893(5) -1.0044(3)
H13B H -0.6974 0.6980 -1.0331
H14B H -0.3570 0.6987 -1.1066
C18B C -0.3933(8) 0.72431(5) -0.9160(3)
H15B H -0.1630 0.7251 -0.8872
H16B H -0.5028 0.7244 -0.8137
C19B C -0.4894(8) 0.74849(5) -1.0123(3)
H17B H -0.7195 0.7478 -1.0416
H18B H -0.3787 0.7486 -1.1144
C20B C -0.4151(8) 0.77356(5) -0.9216(3)
H19B H -0.5230 0.7734 -0.8187
H20B H -0.1844 0.7745 -0.8939
C21B C -0.5165(8) 0.79765(5) -1.0175(4)
H21B H -0.7472 0.7967 -1.0448
H22B H -0.4095 0.7977 -1.1207
C22B C -0.4429(9) 0.82294(6) -0.9292(4)
H23B H -0.2136 0.8246 -0.9078
H24B H -0.5218 0.8375 -0.9965
H25B H -0.5459 0.8231 -0.8262
N1B N -0.2182(6) 0.55227(4) -0.2586(3)
O1B O 0.0591(5) 0.57985(3) -0.0865(2)
O2B O -0.5741(5) 0.52612(4) -0.3971(2)
O3B O -0.4720(5) 0.62772(3) -0.7339(2)
loop_
_geom_bond_atom_site_label_1
_geom_bond_atom_site_label_2
_geom_bond_site_symmetry_1
_geom_bond_site_symmetry_2
C1 N1 1_555 1_555
C2 C3 1_555 1_555
C3 C4 1_555 1_555
C4 C4B 1_555 1_555
C5 C3 1_555 1_555
H1 C5 1_555 1_555
C6 C5 1_555 1_555
H2 C6 1_555 1_555
C7 C6 1_555 1_555
C8 C9 1_555 1_555
C9 H3 1_555 1_555
C10 C9 1_555 1_555
H4 C10 1_555 1_555
C11 C10 1_555 1_555
C12 C11 1_555 1_555
H5 C12 1_555 1_555
C13 C8 1_555 1_555
H6 C13 1_555 1_555
C14 H7 1_555 1_555
H8 C14 1_555 1_555
C15 C14 1_555 1_555
H9 C15 1_555 1_555
H10 C15 1_555 1_555
C16 C15 1_555 1_555
H11 C16 1_555 1_555
H12 C16 1_555 1_555
C17 C16 1_555 1_555
H13 C17 1_555 1_555
H14 C17 1_555 1_555
C18 C17 1_555 1_555
H15 C18 1_555 1_555
H16 C18 1_555 1_555
C19 C18 1_555 1_555
H17 C19 1_555 1_555
H18 C19 1_555 1_555
C20 C19 1_555 1_555
H19 C20 1_555 1_555
H20 C20 1_555 1_555
C21 C20 1_555 1_555
H21 C21 1_555 1_555
H22 C21 1_555 1_555
C22 C21 1_555 1_555
H23 C22 1_555 1_555
H24 C22 1_555 1_555
H25 C22 1_555 1_555
N1 C2 1_555 1_555
O1 C1 1_555 1_555
O2 C2 1_555 1_555
O3 C11 1_555 1_555
C1B C7 1_555 1_555
C2B C3B 1_555 1_555
C3B C4B 1_555 1_555
C4B C7 1_555 1_555
C5B C3B 1_555 1_555
H1B C5B 1_555 1_555
C6B C5B 1_555 1_555
H2B C6B 1_555 1_555
C7B C1 1_555 1_555
C8B C9B 1_555 1_555
C9B H3B 1_555 1_555
C10B C9B 1_555 1_555
H4B C10B 1_555 1_555
C11B C10B 1_555 1_555
C12B C11B 1_555 1_555
H5B C12B 1_555 1_555
C13B C8B 1_555 1_555
H6B C13B 1_555 1_555
C14B H7B 1_555 1_555
H8B C14B 1_555 1_555
C15B C14B 1_555 1_555
H9B C15B 1_555 1_555
H10B C15B 1_555 1_555
C16B C15B 1_555 1_555
H11B C16B 1_555 1_555
H12B C16B 1_555 1_555
C17B C16B 1_555 1_555
H13B C17B 1_555 1_555
H14B C17B 1_555 1_555
C18B C17B 1_555 1_555
H15B C18B 1_555 1_555
H16B C18B 1_555 1_555
C19B C18B 1_555 1_555
H17B C19B 1_555 1_555
H18B C19B 1_555 1_555
C20B C19B 1_555 1_555
H19B C20B 1_555 1_555
H20B C20B 1_555 1_555
C21B C20B 1_555 1_555
H21B C21B 1_555 1_555
H22B C21B 1_555 1_555
C22B C21B 1_555 1_555
H23B C22B 1_555 1_555
H24B C22B 1_555 1_555
H25B C22B 1_555 1_555
N1B C1B 1_555 1_555
O1B C1B 1_555 1_555
O2B C2B 1_555 1_555
O3B C11B 1_555 1_555
C4 C7B 1_555 1_555
C8 N1 1_555 1_555
C12 C13 1_555 1_555
C14 O3 1_555 1_555
C2B N1B 1_555 1_555
C6B C7B 1_555 1_555
C8B N1B 1_555 1_555
C12B C13B 1_555 1_555
C14B O3B 1_555 1_555

#END
