
#######################################################################
#
#                 Cambridge Crystallographic Data Centre
#                                CCDC 
#
#######################################################################
#
# If this CIF has been generated from an entry in the Cambridge 
# Structural Database, then it will include bibliographic, chemical, 
# crystal, experimental, refinement or atomic coordinate data resulting 
# from the CCDC's data processing and validation procedures.
#
#######################################################################

data_IFUVOX
_chemical_formula_moiety         'C27 H23 Cl1 N2 O3'
_chemical_name_systematic        
6-(4-chlorophenyl)-4-methyl-9-(2-oxo-2-phenylethyl)-2-phenyl-7-oxa-2,3-diazaspiro[4.4]non-3-en-1-one
_symmetry_cell_setting           triclinic
_symmetry_space_group_name_H-M   'P -1'
_symmetry_Int_Tables_number      2
_space_group_name_Hall           '-P 1'
loop_
_symmetry_equiv_pos_site_id
_symmetry_equiv_pos_as_xyz
1 x,y,z
2 -x,-y,-z
_cell_length_a                   10.0751(6)
_cell_length_b                   10.5272(5)
_cell_length_c                   12.2309(9)
_cell_angle_alpha                107.851(5)
_cell_angle_beta                 98.524(5)
_cell_angle_gamma                103.443(5)
_cell_volume                     1166.72
_exptl_crystal_colour            colorless
_exptl_crystal_description       block
_cell_formula_units_Z            2
_exptl_crystal_recrystallization_method 'dichloromethane and hexane'
loop_
_atom_site_label
_atom_site_type_symbol
_atom_site_fract_x
_atom_site_fract_y
_atom_site_fract_z
Cl1 Cl 1.07122(7) 0.27143(7) 0.88907(6)
O1 O 0.40503(14) 0.49269(13) 0.87822(12)
O2 O 0.38664(16) 0.09843(13) 0.63523(14)
N1 N 0.55908(17) 0.57334(15) 0.77407(14)
O3 O -0.00819(17) 0.18401(17) 0.53130(16)
N2 N 0.59787(17) 0.51670(16) 0.66683(14)
C1 C 0.4590(2) 0.47592(18) 0.79428(17)
C2 C 0.5266(2) 0.38677(19) 0.61900(17)
C3 C 0.4307(2) 0.34095(18) 0.69095(16)
C4 C -0.0177(2) 0.3080(2) 0.40099(17)
C5 C 0.2729(2) 0.27332(18) 0.63119(17)
H1 H 0.2214 0.2897 0.6936
C6 C 0.6127(2) 0.23140(19) 0.76974(18)
C7 C 0.6307(2) 0.71442(18) 0.84707(17)
C8 C 0.4611(2) 0.22289(18) 0.73279(18)
H2 H 0.4182 0.2223 0.7995
C9 C 0.2137(2) 0.3290(2) 0.53986(18)
H3 H 0.2359 0.4297 0.5752
H4 H 0.2586 0.3085 0.4743
C10 C 0.0565(2) 0.2666(2) 0.49341(18)
C11 C 0.6932(2) 0.3289(2) 0.87802(18)
H5 H 0.6520 0.3865 0.9268
C12 C 0.8335(2) 0.3415(2) 0.91420(19)
H6 H 0.8864 0.4075 0.9868
C13 C 0.8951(2) 0.2564(2) 0.8427(2)
C14 C -0.1609(2) 0.2418(2) 0.3532(2)
H7 H -0.2078 0.1737 0.3792
C15 C 0.5460(2) 0.2992(2) 0.50446(19)
H8 H 0.6199 0.3533 0.4813
H9 H 0.4603 0.2684 0.4448
H10 H 0.5705 0.2195 0.5135
C16 C 0.0504(3) 0.4092(2) 0.3617(2)
H11 H 0.1460 0.4539 0.3929
C17 C 0.8181(3) 0.1599(2) 0.7352(2)
H12 H 0.8603 0.1035 0.6865
C18 C 0.6775(3) 0.1466(2) 0.6996(2)
H13 H 0.6251 0.0797 0.6272
C19 C 0.7501(3) 0.7843(2) 0.8230(2)
H14 H 0.7832 0.7392 0.7595
C20 C 0.5814(3) 0.7818(2) 0.9413(2)
H15 H 0.5006 0.7355 0.9577
C21 C -0.2335(3) 0.2767(3) 0.2675(2)
H16 H -0.3290 0.2323 0.2357
C22 C -0.1639(3) 0.3775(3) 0.2293(2)
H17 H -0.2128 0.4006 0.1712
C23 C 0.2582(3) 0.1166(2) 0.5843(2)
H18 H 0.1800 0.0652 0.6064
H19 H 0.2411 0.0822 0.4988
C24 C -0.0233(3) 0.4443(3) 0.2760(2)
H20 H 0.0226 0.5130 0.2502
C25 C 0.8205(3) 0.9219(2) 0.8936(3)
H21 H 0.9011 0.9690 0.8775
C26 C 0.6541(3) 0.9192(2) 1.0111(2)
H22 H 0.6219 0.9647 1.0751
C27 C 0.7718(3) 0.9888(2) 0.9873(3)
H23 H 0.8190 1.0812 1.0344
loop_
_geom_bond_atom_site_label_1
_geom_bond_atom_site_label_2
_geom_bond_site_symmetry_1
_geom_bond_site_symmetry_2
Cl1 C13 1_555 1_555
O1 C1 1_555 1_555
O2 C8 1_555 1_555
N1 N2 1_555 1_555
O3 C10 1_555 1_555
N2 C2 1_555 1_555
C1 N1 1_555 1_555
C2 C3 1_555 1_555
C3 C1 1_555 1_555
C4 C10 1_555 1_555
C5 C3 1_555 1_555
H1 C5 1_555 1_555
C6 C8 1_555 1_555
C7 N1 1_555 1_555
C8 C3 1_555 1_555
H2 C8 1_555 1_555
C9 C5 1_555 1_555
H3 C9 1_555 1_555
H4 C9 1_555 1_555
C10 C9 1_555 1_555
C11 C6 1_555 1_555
H5 C11 1_555 1_555
C12 C11 1_555 1_555
H6 C12 1_555 1_555
C13 C12 1_555 1_555
C14 C4 1_555 1_555
H7 C14 1_555 1_555
C15 C2 1_555 1_555
H8 C15 1_555 1_555
H9 C15 1_555 1_555
H10 C15 1_555 1_555
C16 C4 1_555 1_555
H11 C16 1_555 1_555
C17 C13 1_555 1_555
H12 C17 1_555 1_555
C18 C6 1_555 1_555
H13 C18 1_555 1_555
C19 C7 1_555 1_555
H14 C19 1_555 1_555
C20 C7 1_555 1_555
H15 C20 1_555 1_555
C21 C14 1_555 1_555
H16 C21 1_555 1_555
C22 C21 1_555 1_555
H17 C22 1_555 1_555
C23 O2 1_555 1_555
H18 C23 1_555 1_555
H19 C23 1_555 1_555
C24 C16 1_555 1_555
H20 C24 1_555 1_555
C25 C19 1_555 1_555
H21 C25 1_555 1_555
C26 C20 1_555 1_555
H22 C26 1_555 1_555
C27 C25 1_555 1_555
H23 C27 1_555 1_555
C5 C23 1_555 1_555
C17 C18 1_555 1_555
C22 C24 1_555 1_555
C26 C27 1_555 1_555

#END
