
#######################################################################
#
#                 Cambridge Crystallographic Data Centre
#                                CCDC 
#
#######################################################################
#
# If this CIF has been generated from an entry in the Cambridge 
# Structural Database, then it will include bibliographic, chemical, 
# crystal, experimental, refinement or atomic coordinate data resulting 
# from the CCDC's data processing and validation procedures.
#
#######################################################################

data_IFUVUD
_chemical_formula_moiety         'C15 H15 F2 N3 O3'
_chemical_name_systematic        
'ethyl difluoro{2-methoxy-4-[(pyrimidin-2-yl)amino]phenyl}acetate unknown solvate'
_symmetry_cell_setting           triclinic
_symmetry_space_group_name_H-M   'P -1'
_symmetry_Int_Tables_number      2
_space_group_name_Hall           '-P 1'
loop_
_symmetry_equiv_pos_site_id
_symmetry_equiv_pos_as_xyz
1 x,y,z
2 -x,-y,-z
_cell_length_a                   12.5999(8)
_cell_length_b                   12.8512(7)
_cell_length_c                   13.5479(9)
_cell_angle_alpha                63.165(6)
_cell_angle_beta                 62.666(7)
_cell_angle_gamma                64.519(6)
_cell_volume                     1668.74
_exptl_crystal_colour            'dark yellow'
_exptl_crystal_description       block
_cell_formula_units_Z            4
_exptl_crystal_recrystallization_method 
'Re-crystallisation from solvent: DCM/PE'
loop_
_atom_site_label
_atom_site_type_symbol
_atom_site_fract_x
_atom_site_fract_y
_atom_site_fract_z
F1 F 0.2611(2) -0.02418(16) -0.09799(15)
F2 F 0.09535(17) -0.01889(16) 0.05505(17)
O1 O 0.1616(2) 0.08183(16) 0.18227(16)
O2 O 0.39800(19) -0.07982(18) 0.04302(19)
O3 O 0.2549(2) -0.18312(19) 0.16179(19)
N1 N 0.1332(3) 0.5008(2) 0.0957(2)
N2 N 0.1462(3) 0.6737(2) -0.0774(2)
N3 N 0.1596(2) 0.49383(19) -0.08470(19)
H1 H 0.1604 0.5374 -0.1552
C1 C 0.1231(4) 0.5684(3) 0.1527(3)
H2 H 0.1160 0.5326 0.2316
C2 C 0.1226(4) 0.6863(3) 0.1013(3)
H3 H 0.1155 0.7318 0.1425
C3 C 0.1332(3) 0.7355(3) -0.0153(3)
H4 H 0.1310 0.8171 -0.0524
C4 C 0.1465(3) 0.5559(2) -0.0180(2)
C5 C 0.1717(2) 0.3718(2) -0.0567(2)
C6 C 0.1596(2) 0.2885(2) 0.0558(2)
H5 H 0.1428 0.3131 0.1176
C7 C 0.1730(2) 0.1689(2) 0.0746(2)
C8 C 0.1982(2) 0.1289(2) -0.0168(2)
C9 C 0.2102(3) 0.2132(2) -0.1281(2)
H6 H 0.2263 0.1892 -0.1901
C10 C 0.1987(3) 0.3321(2) -0.1479(2)
H7 H 0.2090 0.3867 -0.2235
C11 C 0.1530(4) 0.1125(3) 0.2749(2)
H8 H 0.2245 0.1378 0.2527
H9 H 0.1498 0.0429 0.3442
H10 H 0.0789 0.1776 0.2901
C12 C 0.2093(3) 0.0008(2) 0.0059(2)
C13 C 0.2885(3) -0.0996(2) 0.0824(2)
C14 C 0.4847(3) -0.1665(3) 0.1064(4)
H11 H 0.5692 -0.1662 0.0546
H12 H 0.4775 -0.2475 0.1318
C15 C 0.4595(4) -0.1361(4) 0.2087(4)
H13 H 0.4717 -0.0580 0.1833
H14 H 0.5151 -0.1965 0.2510
H15 H 0.3750 -0.1339 0.2588
F3 F 0.1777(3) 0.3562(2) 0.4234(2)
F4 F 0.1230(2) 0.34302(19) 0.6049(2)
O4 O 0.3834(3) 0.1418(2) 0.3949(2)
O5 O 0.3850(4) 0.2406(4) 0.5755(3)
O6 O 0.3687(3) 0.3906(3) 0.4103(4)
N4 N 0.1612(3) -0.3522(2) 0.6576(2)
N5 N 0.1773(3) -0.1735(2) 0.4921(2)
N6 N 0.2048(3) -0.1981(2) 0.6596(2)
H16 H 0.2194 -0.2471 0.7239
C16 C 0.1295(4) -0.3921(3) 0.6031(3)
H17 H 0.1116 -0.4666 0.6413
C17 C 0.1219(4) -0.3277(4) 0.4920(3)
H18 H 0.1015 -0.3576 0.4540
C18 C 0.1464(4) -0.2169(4) 0.4404(3)
H19 H 0.1409 -0.1706 0.3659
C19 C 0.1807(3) -0.2426(2) 0.6007(2)
C20 C 0.2079(3) -0.0772(2) 0.6234(2)
C21 C 0.2974(3) -0.0296(3) 0.5215(3)
H20 H 0.3571 -0.0778 0.4748
C22 C 0.2978(3) 0.0868(3) 0.4902(2)
C23 C 0.2100(3) 0.1607(2) 0.5601(2)
C24 C 0.1232(3) 0.1118(3) 0.6621(3)
H21 H 0.0644 0.1593 0.7097
C25 C 0.1227(3) -0.0050(3) 0.6938(3)
H22 H 0.0646 -0.0365 0.7634
C26 C 0.4868(4) 0.0713(4) 0.3274(4)
H23 H 0.5465 0.1164 0.2744
H24 H 0.4597 0.0520 0.2835
H25 H 0.5244 -0.0025 0.3782
C27 C 0.2116(3) 0.2888(3) 0.5212(3)
C28 C 0.3329(4) 0.3030(3) 0.5050(4)
C29 C 0.4825(7) 0.4111(7) 0.3925(9)
H26 H 0.4883 0.3914 0.4683
H27 H 0.5537 0.3566 0.3529
C30 C 0.4875(12) 0.5207(11) 0.3324(14)
H28 H 0.5640 0.5286 0.3235
H29 H 0.4184 0.5752 0.3720
H30 H 0.4837 0.5404 0.2565
loop_
_geom_bond_atom_site_label_1
_geom_bond_atom_site_label_2
_geom_bond_site_symmetry_1
_geom_bond_site_symmetry_2
F1 C12 1_555 1_555
F2 C12 1_555 1_555
O1 C7 1_555 1_555
O2 C13 1_555 1_555
O3 C13 1_555 1_555
N1 C1 1_555 1_555
N2 C3 1_555 1_555
N3 H1 1_555 1_555
C1 H2 1_555 1_555
C2 C1 1_555 1_555
H3 C2 1_555 1_555
C3 C2 1_555 1_555
H4 C3 1_555 1_555
C4 N1 1_555 1_555
C5 N3 1_555 1_555
C6 C5 1_555 1_555
H5 C6 1_555 1_555
C7 C6 1_555 1_555
C8 C7 1_555 1_555
C9 C8 1_555 1_555
H6 C9 1_555 1_555
C10 C5 1_555 1_555
H7 C10 1_555 1_555
C11 O1 1_555 1_555
H8 C11 1_555 1_555
H9 C11 1_555 1_555
H10 C11 1_555 1_555
C12 C8 1_555 1_555
C13 C12 1_555 1_555
C14 O2 1_555 1_555
H11 C14 1_555 1_555
H12 C14 1_555 1_555
C15 C14 1_555 1_555
H13 C15 1_555 1_555
H14 C15 1_555 1_555
H15 C15 1_555 1_555
F3 C27 1_555 1_555
F4 C27 1_555 1_555
O4 C22 1_555 1_555
O5 C28 1_555 1_555
O6 C28 1_555 1_555
N4 C16 1_555 1_555
N5 C18 1_555 1_555
N6 H16 1_555 1_555
C16 H17 1_555 1_555
C17 C16 1_555 1_555
H18 C17 1_555 1_555
C18 C17 1_555 1_555
H19 C18 1_555 1_555
C19 N4 1_555 1_555
C20 N6 1_555 1_555
C21 C20 1_555 1_555
H20 C21 1_555 1_555
C22 C21 1_555 1_555
C23 C22 1_555 1_555
C24 C23 1_555 1_555
H21 C24 1_555 1_555
C25 C20 1_555 1_555
H22 C25 1_555 1_555
C26 O4 1_555 1_555
H23 C26 1_555 1_555
H24 C26 1_555 1_555
H25 C26 1_555 1_555
C27 C23 1_555 1_555
C28 C27 1_555 1_555
C29 O6 1_555 1_555
H26 C29 1_555 1_555
H27 C29 1_555 1_555
C30 C29 1_555 1_555
H28 C30 1_555 1_555
H29 C30 1_555 1_555
H30 C30 1_555 1_555
N2 C4 1_555 1_555
N3 C4 1_555 1_555
C9 C10 1_555 1_555
N5 C19 1_555 1_555
N6 C19 1_555 1_555
C24 C25 1_555 1_555

#END
