
#######################################################################
#
#                 Cambridge Crystallographic Data Centre
#                                CCDC 
#
#######################################################################
#
# If this CIF has been generated from an entry in the Cambridge 
# Structural Database, then it will include bibliographic, chemical, 
# crystal, experimental, refinement or atomic coordinate data resulting 
# from the CCDC's data processing and validation procedures.
#
#######################################################################

data_IFUWIP
_chemical_formula_moiety         'C42 H48 N3 1+,Br1 1-,3(C1 H1 Cl3)'
_chemical_name_systematic        
'2,6,6,10-Tetrabenzyl-2,10-diaza-6-azonia(11)paracyclophane bromide chloroform solvate'
_symmetry_cell_setting           triclinic
_symmetry_space_group_name_H-M   'P -1'
_symmetry_Int_Tables_number      2
_space_group_name_Hall           '-P 1'
loop_
_symmetry_equiv_pos_site_id
_symmetry_equiv_pos_as_xyz
1 x,y,z
2 -x,-y,-z
_cell_length_a                   12.8400(10)
_cell_length_b                   14.1630(10)
_cell_length_c                   14.4120(10)
_cell_angle_alpha                106.525(2)
_cell_angle_beta                 98.7850(10)
_cell_angle_gamma                95.484(2)
_cell_volume                     2456.26
_exptl_crystal_colour            colorless
_exptl_crystal_description       prism
_cell_formula_units_Z            2
loop_
_atom_site_label
_atom_site_type_symbol
_atom_site_fract_x
_atom_site_fract_y
_atom_site_fract_z
Br1 Br 0.35069(4) 0.35542(4) 0.60209(4)
C1 C 0.1631(4) 0.0580(3) 0.0962(3)
H1 H 0.1202 0.0412 0.1425
H2 H 0.1362 0.0089 0.0305
N1 N 0.2759(3) 0.0493(2) 0.1292(3)
C2 C 0.2949(4) -0.0539(3) 0.0870(3)
H3 H 0.2404 -0.0999 0.1007
H4 H 0.3656 -0.0621 0.1196
C3 C 0.3073(4) 0.0797(3) 0.2373(3)
H5 H 0.3734 0.0529 0.2550
H6 H 0.2508 0.0500 0.2646
C4 C 0.3258(4) 0.1928(3) 0.2848(3)
H7 H 0.2597 0.2205 0.2691
H8 H 0.3455 0.2092 0.3573
C5 C 0.4146(4) 0.2377(3) 0.2454(3)
H9 H 0.3936 0.2182 0.1727
H10 H 0.4788 0.2073 0.2605
N2 N 0.4453(3) 0.3507(2) 0.2836(2)
C6 C 0.3459(3) 0.3959(3) 0.2653(3)
H11 H 0.2920 0.3676 0.2961
H12 H 0.3184 0.3735 0.1933
C7 C 0.3533(3) 0.5094(3) 0.3014(3)
H13 H 0.3670 0.5337 0.3743
H14 H 0.4119 0.5410 0.2780
C8 C 0.2463(4) 0.5344(3) 0.2593(3)
H15 H 0.1877 0.4913 0.2713
H16 H 0.2407 0.6044 0.2938
N3 N 0.2344(3) 0.5204(3) 0.1530(3)
C9 C 0.2702(4) 0.6124(3) 0.1317(3)
H17 H 0.2695 0.5958 0.0601
H18 H 0.3450 0.6363 0.1660
C10 C 0.1322(4) 0.4662(3) 0.0946(3)
H19 H 0.1234 0.4739 0.0278
H20 H 0.0737 0.4936 0.1260
C11 C 0.1276(4) 0.3571(3) 0.0873(3)
C12 C 0.1910(3) 0.3000(3) 0.0299(3)
H21 H 0.2277 0.3270 -0.0114
C13 C 0.2006(3) 0.2045(3) 0.0327(3)
H22 H 0.2450 0.1674 -0.0061
C14 C 0.1473(3) 0.1614(3) 0.0904(3)
C15 C 0.0784(3) 0.2156(3) 0.1425(3)
H23 H 0.0372 0.1864 0.1794
C16 C 0.0696(4) 0.3127(3) 0.1410(3)
H24 H 0.0229 0.3489 0.1775
C17 C 0.2908(4) -0.0813(3) -0.0222(3)
C18 C 0.2236(4) -0.1643(3) -0.0869(4)
H25 H 0.1773 -0.2036 -0.0623
C19 C 0.2237(4) -0.1900(4) -0.1869(4)
H26 H 0.1774 -0.2468 -0.2305
C20 C 0.2898(5) -0.1343(4) -0.2235(4)
H27 H 0.2898 -0.1524 -0.2923
C21 C 0.3575(4) -0.0506(4) -0.1593(4)
H28 H 0.4035 -0.0115 -0.1843
C22 C 0.3575(4) -0.0249(3) -0.0598(4)
H29 H 0.4038 0.0320 -0.0164
C23 C 0.2064(4) 0.6975(3) 0.1603(3)
C24 C 0.2336(4) 0.7669(3) 0.2526(3)
H30 H 0.2953 0.7637 0.2967
C25 C 0.1718(5) 0.8413(3) 0.2816(4)
H31 H 0.1910 0.8885 0.3454
C26 C 0.0839(4) 0.8468(3) 0.2190(4)
H32 H 0.0405 0.8965 0.2399
C27 C 0.0573(4) 0.7806(3) 0.1252(4)
H33 H -0.0024 0.7863 0.0803
C28 C 0.1183(4) 0.7059(3) 0.0972(3)
H34 H 0.0990 0.6594 0.0330
C29 C 0.5302(3) 0.3796(3) 0.2288(3)
H35 H 0.5515 0.4527 0.2542
H36 H 0.5938 0.3487 0.2448
C30 C 0.4980(3) 0.3507(3) 0.1191(3)
C31 C 0.5228(4) 0.2627(3) 0.0589(3)
H37 H 0.5579 0.2191 0.0879
C32 C 0.4971(4) 0.2389(4) -0.0421(4)
H38 H 0.5136 0.1783 -0.0819
C33 C 0.4479(4) 0.3009(4) -0.0859(4)
H39 H 0.4306 0.2835 -0.1557
C34 C 0.4238(4) 0.3883(4) -0.0287(4)
H40 H 0.3895 0.4314 -0.0590
C35 C 0.4493(4) 0.4140(3) 0.0732(3)
H41 H 0.4335 0.4753 0.1122
C36 C 0.4920(4) 0.3871(3) 0.3944(3)
H42 H 0.5124 0.4602 0.4145
H43 H 0.4354 0.3731 0.4302
C37 C 0.5866(4) 0.3422(3) 0.4264(3)
C38 C 0.6897(4) 0.3876(4) 0.4339(3)
H44 H 0.7004 0.4461 0.4146
C39 C 0.7765(4) 0.3489(4) 0.4687(4)
H45 H 0.8465 0.3807 0.4736
C40 C 0.7613(4) 0.2639(4) 0.4964(4)
H46 H 0.8212 0.2364 0.5190
C41 C 0.6613(5) 0.2191(4) 0.4915(3)
H47 H 0.6515 0.1611 0.5115
C42 C 0.5738(4) 0.2579(3) 0.4574(3)
H48 H 0.5042 0.2267 0.4551
C43 C 0.1006(5) 0.2150(4) 0.4586(4)
H49 H 0.1799 0.2285 0.4797
Cl1 Cl 0.06878(19) 0.10202(14) 0.36734(14)
Cl2 Cl 0.06131(18) 0.30998(15) 0.41099(13)
Cl3 Cl 0.04608(14) 0.21352(14) 0.56061(12)
C44 C 0.1534(4) 0.4539(4) 0.7420(4)
H50 H 0.2015 0.4165 0.7013
Cl4 Cl 0.08952(13) 0.37470(10) 0.79671(11)
Cl5 Cl 0.23020(12) 0.55628(11) 0.83396(11)
Cl6 Cl 0.05996(13) 0.49424(12) 0.66549(11)
C45 C 0.3641(5) 0.1134(4) 0.6115(4)
H51 H 0.3595 0.1857 0.6228
Cl7 Cl 0.25806(17) 0.06112(19) 0.6486(2)
Cl8 Cl 0.36043(19) 0.05680(12) 0.48474(12)
Cl9 Cl 0.48373(15) 0.10222(13) 0.67850(12)
loop_
_geom_bond_atom_site_label_1
_geom_bond_atom_site_label_2
_geom_bond_site_symmetry_1
_geom_bond_site_symmetry_2
C1 H1 1_555 1_555
H2 C1 1_555 1_555
N1 C1 1_555 1_555
C2 N1 1_555 1_555
H3 C2 1_555 1_555
H4 C2 1_555 1_555
C3 N1 1_555 1_555
H5 C3 1_555 1_555
H6 C3 1_555 1_555
C4 C3 1_555 1_555
H7 C4 1_555 1_555
H8 C4 1_555 1_555
C5 C4 1_555 1_555
H9 C5 1_555 1_555
H10 C5 1_555 1_555
N2 C5 1_555 1_555
C6 N2 1_555 1_555
H11 C6 1_555 1_555
H12 C6 1_555 1_555
C7 C6 1_555 1_555
H13 C7 1_555 1_555
H14 C7 1_555 1_555
C8 C7 1_555 1_555
H15 C8 1_555 1_555
H16 C8 1_555 1_555
N3 C8 1_555 1_555
C9 N3 1_555 1_555
H17 C9 1_555 1_555
H18 C9 1_555 1_555
C10 N3 1_555 1_555
H19 C10 1_555 1_555
H20 C10 1_555 1_555
C11 C10 1_555 1_555
C12 C11 1_555 1_555
H21 C12 1_555 1_555
C13 C12 1_555 1_555
H22 C13 1_555 1_555
C14 C1 1_555 1_555
C15 C14 1_555 1_555
H23 C15 1_555 1_555
C16 C11 1_555 1_555
H24 C16 1_555 1_555
C17 C2 1_555 1_555
C18 C17 1_555 1_555
H25 C18 1_555 1_555
C19 C18 1_555 1_555
H26 C19 1_555 1_555
C20 C19 1_555 1_555
H27 C20 1_555 1_555
C21 C20 1_555 1_555
H28 C21 1_555 1_555
C22 C17 1_555 1_555
H29 C22 1_555 1_555
C23 C9 1_555 1_555
C24 C23 1_555 1_555
H30 C24 1_555 1_555
C25 C24 1_555 1_555
H31 C25 1_555 1_555
C26 C25 1_555 1_555
H32 C26 1_555 1_555
C27 C26 1_555 1_555
H33 C27 1_555 1_555
C28 C23 1_555 1_555
H34 C28 1_555 1_555
C29 N2 1_555 1_555
H35 C29 1_555 1_555
H36 C29 1_555 1_555
C30 C29 1_555 1_555
C31 C30 1_555 1_555
H37 C31 1_555 1_555
C32 C31 1_555 1_555
H38 C32 1_555 1_555
C33 C32 1_555 1_555
H39 C33 1_555 1_555
C34 C33 1_555 1_555
H40 C34 1_555 1_555
C35 C30 1_555 1_555
H41 C35 1_555 1_555
C36 N2 1_555 1_555
H42 C36 1_555 1_555
H43 C36 1_555 1_555
C37 C36 1_555 1_555
C38 C37 1_555 1_555
H44 C38 1_555 1_555
C39 C38 1_555 1_555
H45 C39 1_555 1_555
C40 C39 1_555 1_555
H46 C40 1_555 1_555
C41 C40 1_555 1_555
H47 C41 1_555 1_555
C42 C37 1_555 1_555
H48 C42 1_555 1_555
C43 H49 1_555 1_555
Cl1 C43 1_555 1_555
Cl2 C43 1_555 1_555
Cl3 C43 1_555 1_555
C44 H50 1_555 1_555
Cl4 C44 1_555 1_555
Cl5 C44 1_555 1_555
Cl6 C44 1_555 1_555
C45 H51 1_555 1_555
Cl7 C45 1_555 1_555
Cl8 C45 1_555 1_555
Cl9 C45 1_555 1_555
C13 C14 1_555 1_555
C15 C16 1_555 1_555
C21 C22 1_555 1_555
C27 C28 1_555 1_555
C34 C35 1_555 1_555
C41 C42 1_555 1_555

#END
