
#######################################################################
#
#                 Cambridge Crystallographic Data Centre
#                                CCDC 
#
#######################################################################
#
# If this CIF has been generated from an entry in the Cambridge 
# Structural Database, then it will include bibliographic, chemical, 
# crystal, experimental, refinement or atomic coordinate data resulting 
# from the CCDC's data processing and validation procedures.
#
#######################################################################

data_IFUWEO
_chemical_formula_moiety         'C18 H17 N1'
_chemical_name_systematic        
1-methyl-3-phenyl-2-(prop-1-en-2-yl)-1H-indole
_symmetry_cell_setting           monoclinic
_symmetry_space_group_name_H-M   'C 2/c'
_symmetry_Int_Tables_number      15
_space_group_name_Hall           '-C 2yn'
loop_
_symmetry_equiv_pos_site_id
_symmetry_equiv_pos_as_xyz
1 x,y,z
2 -x,y,1/2-z
3 1/2+x,1/2+y,z
4 1/2-x,1/2+y,1/2-z
5 -x,-y,-z
6 x,-y,1/2+z
7 1/2-x,1/2-y,-z
8 1/2+x,1/2-y,1/2+z
_cell_length_a                   22.1891(17)
_cell_length_b                   6.3782(6)
_cell_length_c                   19.734(2)
_cell_angle_alpha                90
_cell_angle_beta                 90.833(8)
_cell_angle_gamma                90
_cell_volume                     2792.59
_exptl_crystal_colour            'light colorless'
_exptl_crystal_description       block
_cell_formula_units_Z            8
loop_
_atom_site_label
_atom_site_type_symbol
_atom_site_fract_x
_atom_site_fract_y
_atom_site_fract_z
N1 N 0.31782(6) -0.2820(2) 0.18523(8)
C1 C 0.27297(9) -0.4390(3) 0.16709(13)
H1 H 0.2907 -0.5760 0.1700
H2 H 0.2588 -0.4146 0.1216
H3 H 0.2398 -0.4302 0.1977
C2 C 0.33780(7) -0.2456(2) 0.24998(9)
C3 C 0.32392(8) -0.3499(3) 0.30984(11)
H4 H 0.2973 -0.4624 0.3100
C4 C 0.35097(9) -0.2806(3) 0.36834(11)
H5 H 0.3422 -0.3465 0.4091
C5 C 0.39109(8) -0.1143(3) 0.36833(10)
H6 H 0.4086 -0.0707 0.4091
C6 C 0.40568(7) -0.0122(3) 0.30937(9)
H7 H 0.4333 0.0975 0.3099
C7 C 0.37836(6) -0.0759(2) 0.24883(8)
C8 C 0.38258(6) -0.0108(2) 0.17917(8)
C9 C 0.34530(7) -0.1407(2) 0.14193(9)
C10 C 0.33206(7) -0.1412(3) 0.06849(9)
C11 C 0.34808(12) -0.3102(4) 0.02924(14)
H8 H 0.3340(13) -0.317(4) -0.0155(17)
H9 H 0.3664(13) -0.424(5) 0.0468(15)
C12 C 0.30341(10) 0.0428(4) 0.04045(11)
H10 H 0.2645 0.0604 0.0602
H11 H 0.2989 0.0269 -0.0077
H12 H 0.3278 0.1638 0.0502
C13 C 0.42254(6) 0.1524(2) 0.15232(8)
C14 C 0.45379(7) 0.1215(3) 0.09239(9)
H13 H 0.4490 -0.0036 0.0687
C15 C 0.49168(8) 0.2732(3) 0.06763(10)
H14 H 0.5116 0.2504 0.0272
C16 C 0.50032(9) 0.4569(3) 0.10190(11)
H15 H 0.5263 0.5582 0.0852
C17 C 0.47029(8) 0.4911(3) 0.16130(11)
H16 H 0.4761 0.6160 0.1848
C18 C 0.43154(7) 0.3409(2) 0.18631(9)
H17 H 0.4113 0.3663 0.2264
loop_
_geom_bond_atom_site_label_1
_geom_bond_atom_site_label_2
_geom_bond_site_symmetry_1
_geom_bond_site_symmetry_2
N1 C1 1_555 1_555
C1 H1 1_555 1_555
H2 C1 1_555 1_555
H3 C1 1_555 1_555
C2 N1 1_555 1_555
C3 C2 1_555 1_555
H4 C3 1_555 1_555
C4 C3 1_555 1_555
H5 C4 1_555 1_555
C5 C4 1_555 1_555
H6 C5 1_555 1_555
C6 C5 1_555 1_555
H7 C6 1_555 1_555
C7 C2 1_555 1_555
C8 C7 1_555 1_555
C9 N1 1_555 1_555
C10 C9 1_555 1_555
C11 C10 1_555 1_555
H8 C11 1_555 1_555
H9 C11 1_555 1_555
C12 C10 1_555 1_555
H10 C12 1_555 1_555
H11 C12 1_555 1_555
H12 C12 1_555 1_555
C13 C8 1_555 1_555
C14 C13 1_555 1_555
H13 C14 1_555 1_555
C15 C14 1_555 1_555
H14 C15 1_555 1_555
C16 C15 1_555 1_555
H15 C16 1_555 1_555
C17 C16 1_555 1_555
H16 C17 1_555 1_555
C18 C13 1_555 1_555
H17 C18 1_555 1_555
C6 C7 1_555 1_555
C8 C9 1_555 1_555
C17 C18 1_555 1_555

#END
