
#######################################################################
#
#                 Cambridge Crystallographic Data Centre
#                                CCDC 
#
#######################################################################
#
# If this CIF has been generated from an entry in the Cambridge 
# Structural Database, then it will include bibliographic, chemical, 
# crystal, experimental, refinement or atomic coordinate data resulting 
# from the CCDC's data processing and validation procedures.
#
#######################################################################

data_IFUXIT
_chemical_formula_moiety         'C24 H17 Br2 N1 O2'
_chemical_name_systematic        
5-bromo-3a-(4-bromophenyl)-1,2,13b,13c-tetrahydrofuro[3,2-c]isoindolo[2,1-a]quinolin-9(3aH)-one
_symmetry_cell_setting           monoclinic
_symmetry_space_group_name_H-M   'P 21/c'
_symmetry_Int_Tables_number      14
_space_group_name_Hall           '-P 2ybc'
loop_
_symmetry_equiv_pos_site_id
_symmetry_equiv_pos_as_xyz
1 x,y,z
2 -x,1/2+y,1/2-z
3 -x,-y,-z
4 x,1/2-y,1/2+z
_cell_length_a                   13.498(2)
_cell_length_b                   15.224(2)
_cell_length_c                   10.0932(15)
_cell_angle_alpha                90
_cell_angle_beta                 105.787(4)
_cell_angle_gamma                90
_cell_volume                     1995.85
_exptl_crystal_colour            colorless
_exptl_crystal_description       block
_cell_formula_units_Z            4
loop_
_atom_site_label
_atom_site_type_symbol
_atom_site_fract_x
_atom_site_fract_y
_atom_site_fract_z
Br1 Br 0.32103(4) 0.33844(6) 0.38872(6)
Br2 Br 0.59017(5) 0.52565(5) 1.17899(6)
C1 C 1.0725(4) 0.4573(3) 0.6428(5)
H1 H 1.0792 0.5149 0.6158
C2 C 1.1273(4) 0.3898(4) 0.6041(5)
H2 H 1.1716 0.4018 0.5502
C3 C 1.1163(4) 0.3047(3) 0.6453(5)
H3 H 1.1536 0.2599 0.6185
C4 C 1.0514(3) 0.2844(3) 0.7250(5)
H4 H 1.0451 0.2270 0.7530
C5 C 0.9959(3) 0.3519(3) 0.7623(4)
C6 C 1.0074(3) 0.4367(3) 0.7228(4)
C7 C 0.9420(3) 0.4952(3) 0.7778(5)
C8 C 0.9186(3) 0.3500(2) 0.8462(4)
H5 H 0.9518 0.3303 0.9402
C9 C 0.8232(3) 0.2946(2) 0.7837(4)
H6 H 0.8007 0.3046 0.6841
C10 C 0.7334(3) 0.3160(2) 0.8466(4)
C11 C 0.7441(3) 0.4011(2) 0.9266(4)
C12 C 0.8155(3) 0.4662(3) 0.9135(4)
C13 C 0.8132(4) 0.5490(3) 0.9710(5)
H7 H 0.8581 0.5926 0.9585
C14 C 0.7444(4) 0.5663(3) 1.0462(5)
H8 H 0.7421 0.6217 1.0839
C15 C 0.6788(4) 0.5010(3) 1.0654(4)
C16 C 0.6761(3) 0.4194(3) 1.0051(4)
H9 H 0.6295 0.3771 1.0167
C17 C 0.6308(3) 0.3187(2) 0.7345(4)
C18 C 0.5504(4) 0.2633(3) 0.7334(5)
H10 H 0.5574 0.2217 0.8029
C19 C 0.4591(4) 0.2686(4) 0.6303(5)
H11 H 0.4054 0.2305 0.6306
C20 C 0.4476(3) 0.3291(3) 0.5286(4)
C21 C 0.5258(3) 0.3849(3) 0.5271(4)
H12 H 0.5177 0.4260 0.4568
C22 C 0.6172(3) 0.3807(3) 0.6299(4)
H13 H 0.6702 0.4196 0.6291
C23 C 0.8422(4) 0.1968(3) 0.8114(6)
H14 H 0.8305 0.1646 0.7255
H15 H 0.9125 0.1865 0.8657
C24 C 0.7688(6) 0.1688(3) 0.8877(6)
H16 H 0.7112 0.1380 0.8268
H17 H 0.8023 0.1295 0.9621
N1 N 0.8896(3) 0.4424(2) 0.8464(4)
O1 O 0.7338(2) 0.24537(18) 0.9412(3)
O2 O 0.9323(3) 0.5751(2) 0.7643(4)
loop_
_geom_bond_atom_site_label_1
_geom_bond_atom_site_label_2
_geom_bond_site_symmetry_1
_geom_bond_site_symmetry_2
Br1 C20 1_555 1_555
Br2 C15 1_555 1_555
C1 H1 1_555 1_555
C2 C1 1_555 1_555
H2 C2 1_555 1_555
C3 C2 1_555 1_555
H3 C3 1_555 1_555
C4 C3 1_555 1_555
H4 C4 1_555 1_555
C5 C4 1_555 1_555
C6 C1 1_555 1_555
C7 C6 1_555 1_555
C8 C5 1_555 1_555
H5 C8 1_555 1_555
C9 C8 1_555 1_555
H6 C9 1_555 1_555
C10 C9 1_555 1_555
C11 C10 1_555 1_555
C12 C11 1_555 1_555
C13 C12 1_555 1_555
H7 C13 1_555 1_555
C14 C13 1_555 1_555
H8 C14 1_555 1_555
C15 C14 1_555 1_555
C16 C11 1_555 1_555
H9 C16 1_555 1_555
C17 C10 1_555 1_555
C18 C17 1_555 1_555
H10 C18 1_555 1_555
C19 C18 1_555 1_555
H11 C19 1_555 1_555
C20 C19 1_555 1_555
C21 C20 1_555 1_555
H12 C21 1_555 1_555
C22 C17 1_555 1_555
H13 C22 1_555 1_555
C23 C9 1_555 1_555
H14 C23 1_555 1_555
H15 C23 1_555 1_555
C24 C23 1_555 1_555
H16 C24 1_555 1_555
H17 C24 1_555 1_555
N1 C7 1_555 1_555
O1 C10 1_555 1_555
O2 C7 1_555 1_555
C5 C6 1_555 1_555
C8 N1 1_555 1_555
C12 N1 1_555 1_555
C15 C16 1_555 1_555
C21 C22 1_555 1_555
C24 O1 1_555 1_555

#END
