
#######################################################################
#
#                 Cambridge Crystallographic Data Centre
#                                CCDC 
#
#######################################################################
#
# If this CIF has been generated from an entry in the Cambridge 
# Structural Database, then it will include bibliographic, chemical, 
# crystal, experimental, refinement or atomic coordinate data resulting 
# from the CCDC's data processing and validation procedures.
#
#######################################################################

data_IFUXUF
_chemical_formula_moiety         'C25 H20 Br1 N1 O2'
_chemical_name_systematic        
5-bromo-3a-(4-methylphenyl)-1,2,13b,13c-tetrahydrofuro[3,2-c]isoindolo[2,1-a]quinolin-9(3aH)-one
_symmetry_cell_setting           monoclinic
_symmetry_space_group_name_H-M   'P 21/c'
_symmetry_Int_Tables_number      14
_space_group_name_Hall           '-P 2ybc'
loop_
_symmetry_equiv_pos_site_id
_symmetry_equiv_pos_as_xyz
1 x,y,z
2 -x,1/2+y,1/2-z
3 -x,-y,-z
4 x,1/2-y,1/2+z
_cell_length_a                   13.333(2)
_cell_length_b                   15.334(2)
_cell_length_c                   10.1707(15)
_cell_angle_alpha                90
_cell_angle_beta                 105.845(4)
_cell_angle_gamma                90
_cell_volume                     2000.37
_exptl_crystal_colour            colorless
_exptl_crystal_description       block
_cell_formula_units_Z            4
loop_
_atom_site_label
_atom_site_type_symbol
_atom_site_fract_x
_atom_site_fract_y
_atom_site_fract_z
Br1 Br 0.59847(3) -0.02997(3) 1.16936(4)
C1 C 1.0796(3) 0.0567(3) 0.6338(4)
H1 H 1.0869 0.0001 0.6047
C2 C 1.1356(3) 0.1255(3) 0.5993(4)
H2 H 1.1812 0.1154 0.5462
C3 C 1.1236(3) 0.2087(3) 0.6437(4)
H3 H 1.1621 0.2538 0.6203
C4 C 1.0570(3) 0.2271(2) 0.7211(4)
H4 H 1.0498 0.2837 0.7501
C5 C 0.9999(2) 0.15831(19) 0.7556(3)
C6 C 1.0133(3) 0.0753(2) 0.7124(3)
C7 C 0.9467(3) 0.0140(2) 0.7638(4)
C8 C 0.9212(2) 0.15788(19) 0.8363(3)
H5 H 0.9534 0.1779 0.9298
C9 C 0.8213(3) 0.03902(18) 0.9037(3)
C10 C 0.8255(3) -0.0432(2) 0.9637(4)
H6 H 0.8740 -0.0842 0.9525
C11 C 0.7573(3) -0.0633(2) 1.0395(3)
H7 H 0.7592 -0.1181 1.0794
C12 C 0.6862(3) -0.0021(3) 1.0563(3)
C13 C 0.6782(3) 0.0785(2) 0.9931(3)
H8 H 0.6281 0.1184 1.0027
C14 C 0.7461(2) 0.09929(19) 0.9149(3)
C15 C 0.7321(2) 0.18550(18) 0.8358(3)
C16 C 0.8220(2) 0.20968(19) 0.7736(3)
H9 H 0.7996 0.1989 0.6749
C17 C 0.8363(3) 0.3068(2) 0.7984(5)
H10 H 0.9090 0.3203 0.8411
H11 H 0.8139 0.3385 0.7128
C18 C 0.7734(5) 0.3303(3) 0.8870(5)
H12 H 0.8155 0.3621 0.9652
H13 H 0.7170 0.3680 0.8386
C19 C 0.6293(2) 0.18201(19) 0.7248(3)
C20 C 0.5504(3) 0.2407(3) 0.7163(4)
H14 H 0.5576 0.2835 0.7830
C21 C 0.4607(4) 0.2371(4) 0.6107(5)
H15 H 0.4084 0.2777 0.6086
C22 C 0.4451(3) 0.1772(4) 0.5098(5)
C23 C 0.5221(3) 0.1166(3) 0.5175(4)
H16 H 0.5128 0.0732 0.4515
C24 C 0.6140(3) 0.1193(2) 0.6230(4)
H17 H 0.6660 0.0785 0.6252
C25 C 0.3469(4) 0.1764(5) 0.3911(5)
H18 H 0.2869 0.1822 0.4254
H19 H 0.3429 0.1224 0.3422
H20 H 0.3489 0.2241 0.3308
N1 N 0.8958(2) 0.06454(17) 0.8367(2)
O1 O 0.9365(2) -0.06416(16) 0.7462(3)
O2 O 0.7317(2) 0.25427(14) 0.9326(2)
loop_
_geom_bond_atom_site_label_1
_geom_bond_atom_site_label_2
_geom_bond_site_symmetry_1
_geom_bond_site_symmetry_2
Br1 C12 1_555 1_555
C1 H1 1_555 1_555
C2 C1 1_555 1_555
H2 C2 1_555 1_555
C3 C2 1_555 1_555
H3 C3 1_555 1_555
C4 C3 1_555 1_555
H4 C4 1_555 1_555
C5 C4 1_555 1_555
C6 C1 1_555 1_555
C7 C6 1_555 1_555
C8 C5 1_555 1_555
H5 C8 1_555 1_555
C9 C10 1_555 1_555
C10 H6 1_555 1_555
C11 C10 1_555 1_555
H7 C11 1_555 1_555
C12 C11 1_555 1_555
C13 C12 1_555 1_555
H8 C13 1_555 1_555
C14 C9 1_555 1_555
C15 C14 1_555 1_555
C16 C8 1_555 1_555
H9 C16 1_555 1_555
C17 C16 1_555 1_555
H10 C17 1_555 1_555
H11 C17 1_555 1_555
C18 C17 1_555 1_555
H12 C18 1_555 1_555
H13 C18 1_555 1_555
C19 C15 1_555 1_555
C20 C19 1_555 1_555
H14 C20 1_555 1_555
C21 C20 1_555 1_555
H15 C21 1_555 1_555
C22 C21 1_555 1_555
C23 C22 1_555 1_555
H16 C23 1_555 1_555
C24 C19 1_555 1_555
H17 C24 1_555 1_555
C25 C22 1_555 1_555
H18 C25 1_555 1_555
H19 C25 1_555 1_555
H20 C25 1_555 1_555
N1 C7 1_555 1_555
O1 C7 1_555 1_555
O2 C15 1_555 1_555
C5 C6 1_555 1_555
C8 N1 1_555 1_555
C9 N1 1_555 1_555
C13 C14 1_555 1_555
C15 C16 1_555 1_555
C18 O2 1_555 1_555
C23 C24 1_555 1_555

#END
