
#######################################################################
#
#                 Cambridge Crystallographic Data Centre
#                                CCDC 
#
#######################################################################
#
# If this CIF has been generated from an entry in the Cambridge 
# Structural Database, then it will include bibliographic, chemical, 
# crystal, experimental, refinement or atomic coordinate data resulting 
# from the CCDC's data processing and validation procedures.
#
#######################################################################

data_IFUZIV
_chemical_formula_moiety         'C40 H42 N2 O6'
_chemical_name_systematic        
2,7-bis[4-(heptyloxy)phenyl]benzo[lmn][3,8]phenanthroline-1,3,6,8(2H,7H)-tetrone
_symmetry_cell_setting           monoclinic
_symmetry_space_group_name_H-M   'P 21/n'
_symmetry_Int_Tables_number      14
_space_group_name_Hall           '-P 2yn'
loop_
_symmetry_equiv_pos_site_id
_symmetry_equiv_pos_as_xyz
1 x,y,z
2 1/2-x,1/2+y,1/2-z
3 -x,-y,-z
4 1/2+x,1/2-y,1/2+z
_cell_length_a                   4.1696(15)
_cell_length_b                   46.595(14)
_cell_length_c                   8.214(3)
_cell_angle_alpha                90
_cell_angle_beta                 93.529(10)
_cell_angle_gamma                90
_cell_volume                     1592.81
_exptl_crystal_colour            orange
_cell_formula_units_Z            2
loop_
_atom_site_label
_atom_site_type_symbol
_atom_site_fract_x
_atom_site_fract_y
_atom_site_fract_z
C1 C 0.0349(4) 0.56436(3) 0.11501(17)
C2 C 0.3771(4) 0.53162(3) 0.28943(17)
C3 C 0.2662(3) 0.50700(3) 0.18591(17)
C4 C 0.0509(3) 0.51176(3) 0.04969(17)
C5 C 0.3747(4) 0.47974(3) 0.22360(18)
H1 H 0.5199 0.4767 0.3157
C6 C 0.2704(4) 0.45628(3) 0.12561(18)
H2 H 0.3435 0.4375 0.1529
C7 C 0.0630(3) 0.46047(3) -0.00947(17)
C8 C 0.2828(3) 0.58063(3) 0.37886(17)
C9 C 0.1593(4) 0.57672(3) 0.52948(18)
H3 H 0.0344 0.5602 0.5492
C10 C 0.2171(4) 0.59696(3) 0.65263(18)
H4 H 0.1334 0.5943 0.7565
C11 C 0.3988(3) 0.62122(3) 0.62176(18)
C12 C 0.5146(4) 0.62532(3) 0.46769(18)
H5 H 0.6331 0.6422 0.4459
C13 C 0.4580(4) 0.60508(3) 0.34672(18)
H6 H 0.5385 0.6079 0.2422
C14 C 0.3444(4) 0.63950(3) 0.89097(18)
H7 H 0.4158 0.6214 0.9447
H8 H 0.1069 0.6394 0.8775
C15 C 0.4585(4) 0.66498(3) 0.99392(18)
H9 H 0.6943 0.6636 1.0155
H10 H 0.3591 0.6641 1.1002
C16 C 0.3777(4) 0.69384(3) 0.91411(18)
H11 H 0.1430 0.6948 0.8878
H12 H 0.4855 0.6951 0.8103
C17 C 0.4790(4) 0.71947(3) 1.02114(18)
H13 H 0.3649 0.7186 1.1232
H14 H 0.7122 0.7181 1.0508
C18 C 0.4090(4) 0.74836(3) 0.93884(19)
H15 H 0.5200 0.7491 0.8358
H16 H 0.1753 0.7499 0.9109
C19 C 0.5153(4) 0.77393(3) 1.04459(19)
H17 H 0.4063 0.7730 1.1482
H18 H 0.7495 0.7725 1.0714
C20 C 0.4418(4) 0.80273(3) 0.9631(2)
H19 H 0.5479 0.8037 0.8600
H20 H 0.5212 0.8183 1.0352
H21 H 0.2091 0.8047 0.9414
N1 N 0.2277(3) 0.55823(3) 0.25692(15)
O1 O -0.0503(3) 0.58868(2) 0.08157(13)
O2 O 0.5864(3) 0.52912(2) 0.39802(13)
O3 O 0.4791(3) 0.64199(2) 0.73467(12)
C1B C -0.0349(4) 0.43564(3) -0.11501(17)
C2B C -0.3771(4) 0.46838(3) -0.28943(17)
C3B C -0.2662(3) 0.49300(3) -0.18591(17)
C4B C -0.0509(3) 0.48824(3) -0.04969(17)
C5B C -0.3747(4) 0.52026(3) -0.22360(18)
H1B H -0.5199 0.5233 -0.3157
C6B C -0.2704(4) 0.54372(3) -0.12561(18)
H2B H -0.3435 0.5625 -0.1529
C7B C -0.0630(3) 0.53953(3) 0.00947(17)
C8B C -0.2828(3) 0.41937(3) -0.37886(17)
C9B C -0.1593(4) 0.42328(3) -0.52948(18)
H3B H -0.0344 0.4398 -0.5492
C10B C -0.2171(4) 0.40304(3) -0.65263(18)
H4B H -0.1334 0.4057 -0.7565
C11B C -0.3988(3) 0.37878(3) -0.62176(18)
C12B C -0.5146(4) 0.37468(3) -0.46769(18)
H5B H -0.6331 0.3578 -0.4459
C13B C -0.4580(4) 0.39492(3) -0.34672(18)
H6B H -0.5385 0.3921 -0.2422
C14B C -0.3444(4) 0.36050(3) -0.89097(18)
H7B H -0.4158 0.3786 -0.9447
H8B H -0.1069 0.3606 -0.8775
C15B C -0.4585(4) 0.33502(3) -0.99392(18)
H9B H -0.6943 0.3364 -1.0155
H10B H -0.3591 0.3359 -1.1002
C16B C -0.3777(4) 0.30616(3) -0.91411(18)
H11B H -0.1430 0.3052 -0.8878
H12B H -0.4855 0.3049 -0.8103
C17B C -0.4790(4) 0.28053(3) -1.02114(18)
H13B H -0.3649 0.2814 -1.1232
H14B H -0.7122 0.2819 -1.0508
C18B C -0.4090(4) 0.25164(3) -0.93884(19)
H15B H -0.5200 0.2509 -0.8358
H16B H -0.1753 0.2501 -0.9109
C19B C -0.5153(4) 0.22607(3) -1.04459(19)
H17B H -0.4063 0.2270 -1.1482
H18B H -0.7495 0.2275 -1.0714
C20B C -0.4418(4) 0.19727(3) -0.9631(2)
H19B H -0.5479 0.1963 -0.8600
H20B H -0.5212 0.1817 -1.0352
H21B H -0.2091 0.1953 -0.9414
N1B N -0.2277(3) 0.44177(3) -0.25692(15)
O1B O 0.0503(3) 0.41132(2) -0.08157(13)
O2B O -0.5864(3) 0.47088(2) -0.39802(13)
O3B O -0.4791(3) 0.35801(2) -0.73467(12)
loop_
_geom_bond_atom_site_label_1
_geom_bond_atom_site_label_2
_geom_bond_site_symmetry_1
_geom_bond_site_symmetry_2
C1 N1 1_555 1_555
C2 C3 1_555 1_555
C3 C4 1_555 1_555
C4 C4B 1_555 1_555
C5 C3 1_555 1_555
H1 C5 1_555 1_555
C6 C5 1_555 1_555
H2 C6 1_555 1_555
C7 C6 1_555 1_555
C8 C9 1_555 1_555
C9 H3 1_555 1_555
C10 C9 1_555 1_555
H4 C10 1_555 1_555
C11 C10 1_555 1_555
C12 C11 1_555 1_555
H5 C12 1_555 1_555
C13 C8 1_555 1_555
H6 C13 1_555 1_555
C14 H7 1_555 1_555
H8 C14 1_555 1_555
C15 C14 1_555 1_555
H9 C15 1_555 1_555
H10 C15 1_555 1_555
C16 C15 1_555 1_555
H11 C16 1_555 1_555
H12 C16 1_555 1_555
C17 C16 1_555 1_555
H13 C17 1_555 1_555
H14 C17 1_555 1_555
C18 C17 1_555 1_555
H15 C18 1_555 1_555
H16 C18 1_555 1_555
C19 C18 1_555 1_555
H17 C19 1_555 1_555
H18 C19 1_555 1_555
C20 C19 1_555 1_555
H19 C20 1_555 1_555
H20 C20 1_555 1_555
H21 C20 1_555 1_555
N1 C2 1_555 1_555
O1 C1 1_555 1_555
O2 C2 1_555 1_555
O3 C11 1_555 1_555
C1B C7 1_555 1_555
C2B C3B 1_555 1_555
C3B C4B 1_555 1_555
C4B C7 1_555 1_555
C5B C3B 1_555 1_555
H1B C5B 1_555 1_555
C6B C5B 1_555 1_555
H2B C6B 1_555 1_555
C7B C1 1_555 1_555
C8B C9B 1_555 1_555
C9B H3B 1_555 1_555
C10B C9B 1_555 1_555
H4B C10B 1_555 1_555
C11B C10B 1_555 1_555
C12B C11B 1_555 1_555
H5B C12B 1_555 1_555
C13B C8B 1_555 1_555
H6B C13B 1_555 1_555
C14B H7B 1_555 1_555
H8B C14B 1_555 1_555
C15B C14B 1_555 1_555
H9B C15B 1_555 1_555
H10B C15B 1_555 1_555
C16B C15B 1_555 1_555
H11B C16B 1_555 1_555
H12B C16B 1_555 1_555
C17B C16B 1_555 1_555
H13B C17B 1_555 1_555
H14B C17B 1_555 1_555
C18B C17B 1_555 1_555
H15B C18B 1_555 1_555
H16B C18B 1_555 1_555
C19B C18B 1_555 1_555
H17B C19B 1_555 1_555
H18B C19B 1_555 1_555
C20B C19B 1_555 1_555
H19B C20B 1_555 1_555
H20B C20B 1_555 1_555
H21B C20B 1_555 1_555
N1B C1B 1_555 1_555
O1B C1B 1_555 1_555
O2B C2B 1_555 1_555
O3B C11B 1_555 1_555
C4 C7B 1_555 1_555
C8 N1 1_555 1_555
C12 C13 1_555 1_555
C14 O3 1_555 1_555
C2B N1B 1_555 1_555
C6B C7B 1_555 1_555
C8B N1B 1_555 1_555
C12B C13B 1_555 1_555
C14B O3B 1_555 1_555

#END
