
#######################################################################
#
#                 Cambridge Crystallographic Data Centre
#                                CCDC 
#
#######################################################################
#
# If this CIF has been generated from an entry in the Cambridge 
# Structural Database, then it will include bibliographic, chemical, 
# crystal, experimental, refinement or atomic coordinate data resulting 
# from the CCDC's data processing and validation procedures.
#
#######################################################################

data_IFUZAL
_chemical_formula_moiety         'C29 H34 N2 S2'
_chemical_name_systematic        
4-(Cyclohexylsulfanyl)-1-((E)-2-(cyclohexylsulfanyl)-1-phenylethenyl)-3-phenyl-1H-pyrazole
_symmetry_cell_setting           orthorhombic
_symmetry_space_group_name_H-M   'P 21 21 21'
_symmetry_Int_Tables_number      19
_space_group_name_Hall           'P 2ac 2ab'
loop_
_symmetry_equiv_pos_site_id
_symmetry_equiv_pos_as_xyz
1 x,y,z
2 1/2-x,-y,1/2+z
3 -x,1/2+y,1/2-z
4 1/2+x,1/2-y,-z
_cell_length_a                   6.3859(5)
_cell_length_b                   19.1596(17)
_cell_length_c                   21.337(2)
_cell_angle_alpha                90
_cell_angle_beta                 90
_cell_angle_gamma                90
_cell_volume                     2610.61
_exptl_crystal_colour            colorless
_exptl_crystal_description       block
_cell_formula_units_Z            4
_exptl_crystal_recrystallization_method dichloromethane
loop_
_atom_site_label
_atom_site_type_symbol
_atom_site_fract_x
_atom_site_fract_y
_atom_site_fract_z
S1 S 1.40978(12) 0.48628(4) 0.39564(3)
S2 S 0.40247(11) 0.64092(3) 0.23133(3)
N1 N 0.8399(3) 0.61798(10) 0.36277(10)
N2 N 0.8853(3) 0.56795(10) 0.32015(9)
C1 C 0.7544(4) 0.57046(13) 0.27104(12)
H1 H 0.7592 0.5416 0.2360
C2 C 0.6130(4) 0.62265(12) 0.28137(11)
C3 C 0.6735(4) 0.65155(12) 0.33978(11)
C4 C 1.0582(4) 0.52201(12) 0.33064(11)
C5 C 1.1971(4) 0.53826(14) 0.37473(12)
H2 H 1.1795 0.5803 0.3959
C6 C 1.4367(4) 0.51105(14) 0.47716(13)
H3 H 1.4470 0.5620 0.4798
C7 C 1.2542(5) 0.4872(2) 0.51640(15)
H4 H 1.2377 0.4372 0.5117
H5 H 1.1275 0.5093 0.5011
C8 C 1.2808(6) 0.5042(3) 0.58490(18)
H6 H 1.1638 0.4854 0.6085
H7 H 1.2823 0.5544 0.5906
C9 C 1.4836(5) 0.4733(2) 0.60921(17)
H8 H 1.5042 0.4877 0.6524
H9 H 1.4741 0.4228 0.6084
C10 C 1.6674(5) 0.49605(19) 0.57090(18)
H10 H 1.7925 0.4729 0.5862
H11 H 1.6870 0.5460 0.5758
C11 C 1.6387(4) 0.47926(18) 0.50208(15)
H12 H 1.6350 0.4290 0.4965
H13 H 1.7566 0.4974 0.4785
C12 C 1.0638(4) 0.45828(13) 0.29141(11)
C13 C 1.2456(4) 0.44122(15) 0.25948(13)
H14 H 1.3617 0.4705 0.2614
C14 C 1.2534(5) 0.38010(18) 0.22451(14)
H15 H 1.3757 0.3683 0.2033
C15 C 1.0840(6) 0.33739(16) 0.22097(15)
H16 H 1.0904 0.2965 0.1975
C16 C 0.9053(6) 0.35457(15) 0.25173(15)
H17 H 0.7890 0.3255 0.2488
C17 C 0.8942(5) 0.41443(14) 0.28721(13)
H18 H 0.7713 0.4252 0.3085
C18 C 0.5010(4) 0.71168(13) 0.18284(13)
H19 H 0.5267 0.7524 0.2096
C19 C 0.6984(5) 0.69469(18) 0.14829(16)
H20 H 0.6779 0.6526 0.1238
H21 H 0.8100 0.6860 0.1781
C20 C 0.7614(5) 0.7546(2) 0.10494(18)
H22 H 0.7965 0.7953 0.1299
H23 H 0.8850 0.7413 0.0814
C21 C 0.5874(6) 0.7732(2) 0.05995(16)
H24 H 0.6285 0.8133 0.0351
H25 H 0.5630 0.7344 0.0316
C22 C 0.3890(5) 0.78953(16) 0.09496(17)
H26 H 0.2776 0.7990 0.0653
H27 H 0.4097 0.8310 0.1202
C23 C 0.3260(4) 0.72955(15) 0.13670(15)
H28 H 0.2947 0.6890 0.1112
H29 H 0.2004 0.7419 0.1597
C24 C 0.5914(4) 0.71108(11) 0.37568(11)
C25 C 0.3886(5) 0.73724(14) 0.36781(15)
H30 H 0.2979 0.7165 0.3392
C26 C 0.3239(5) 0.79383(15) 0.40263(17)
H31 H 0.1905 0.8119 0.3961
C27 C 0.4492(6) 0.82374(16) 0.44595(16)
H32 H 0.4020 0.8617 0.4692
C28 C 0.6466(6) 0.79767(16) 0.45541(16)
H33 H 0.7335 0.8175 0.4855
C29 C 0.7160(5) 0.74201(14) 0.42013(14)
H34 H 0.8506 0.7250 0.4266
loop_
_geom_bond_atom_site_label_1
_geom_bond_atom_site_label_2
_geom_bond_site_symmetry_1
_geom_bond_site_symmetry_2
S1 C5 1_555 1_555
S2 C2 1_555 1_555
N1 N2 1_555 1_555
N2 C1 1_555 1_555
C1 H1 1_555 1_555
C2 C1 1_555 1_555
C3 N1 1_555 1_555
C4 N2 1_555 1_555
C5 C4 1_555 1_555
H2 C5 1_555 1_555
C6 S1 1_555 1_555
H3 C6 1_555 1_555
C7 C6 1_555 1_555
H4 C7 1_555 1_555
H5 C7 1_555 1_555
C8 C7 1_555 1_555
H6 C8 1_555 1_555
H7 C8 1_555 1_555
C9 C8 1_555 1_555
H8 C9 1_555 1_555
H9 C9 1_555 1_555
C10 C9 1_555 1_555
H10 C10 1_555 1_555
H11 C10 1_555 1_555
C11 C6 1_555 1_555
H12 C11 1_555 1_555
H13 C11 1_555 1_555
C12 C4 1_555 1_555
C13 C12 1_555 1_555
H14 C13 1_555 1_555
C14 C13 1_555 1_555
H15 C14 1_555 1_555
C15 C14 1_555 1_555
H16 C15 1_555 1_555
C16 C15 1_555 1_555
H17 C16 1_555 1_555
C17 C12 1_555 1_555
H18 C17 1_555 1_555
C18 S2 1_555 1_555
H19 C18 1_555 1_555
C19 C18 1_555 1_555
H20 C19 1_555 1_555
H21 C19 1_555 1_555
C20 C19 1_555 1_555
H22 C20 1_555 1_555
H23 C20 1_555 1_555
C21 C20 1_555 1_555
H24 C21 1_555 1_555
H25 C21 1_555 1_555
C22 C21 1_555 1_555
H26 C22 1_555 1_555
H27 C22 1_555 1_555
C23 C18 1_555 1_555
H28 C23 1_555 1_555
H29 C23 1_555 1_555
C24 C3 1_555 1_555
C25 C24 1_555 1_555
H30 C25 1_555 1_555
C26 C25 1_555 1_555
H31 C26 1_555 1_555
C27 C26 1_555 1_555
H32 C27 1_555 1_555
C28 C27 1_555 1_555
H33 C28 1_555 1_555
C29 C24 1_555 1_555
H34 C29 1_555 1_555
C2 C3 1_555 1_555
C10 C11 1_555 1_555
C16 C17 1_555 1_555
C22 C23 1_555 1_555
C28 C29 1_555 1_555

#END
