
#######################################################################
#
#                 Cambridge Crystallographic Data Centre
#                                CCDC 
#
#######################################################################
#
# If this CIF has been generated from an entry in the Cambridge 
# Structural Database, then it will include bibliographic, chemical, 
# crystal, experimental, refinement or atomic coordinate data resulting 
# from the CCDC's data processing and validation procedures.
#
#######################################################################

data_IGACIE
_chemical_formula_moiety         'C26 H19 F1 N6'
_chemical_name_systematic        
5-Fluoro-N,N,N',N'-tetrakis(pyridin-2-yl)benzene-1,3-diamine
_symmetry_cell_setting           monoclinic
_symmetry_space_group_name_H-M   'P 21/c'
_symmetry_Int_Tables_number      14
_space_group_name_Hall           '-P 2ybc'
loop_
_symmetry_equiv_pos_site_id
_symmetry_equiv_pos_as_xyz
1 x,y,z
2 -x,1/2+y,1/2-z
3 -x,-y,-z
4 x,1/2-y,1/2+z
_cell_length_a                   13.9282(18)
_cell_length_b                   16.957(2)
_cell_length_c                   9.4902(12)
_cell_angle_alpha                90
_cell_angle_beta                 105.412(2)
_cell_angle_gamma                90
_cell_volume                     2160.8
_exptl_crystal_colour            colorless
_exptl_crystal_description       bar
_cell_formula_units_Z            4
loop_
_atom_site_label
_atom_site_type_symbol
_atom_site_fract_x
_atom_site_fract_y
_atom_site_fract_z
C1 C 0.42661(14) -0.11857(11) 0.8775(2)
C2 C 0.50994(15) -0.14646(11) 0.9809(2)
H1 H 0.5206 -0.1337 1.0791
C3 C 0.57616(16) -0.19325(12) 0.9351(3)
H2 H 0.6325 -0.2128 1.0021
C4 C 0.55831(17) -0.21085(13) 0.7895(3)
H3 H 0.6025 -0.2420 0.7558
C5 C 0.47431(19) -0.18165(14) 0.6953(3)
H4 H 0.4626 -0.1939 0.5966
C6 C 0.34938(14) -0.07578(12) 1.0661(2)
C7 C 0.36494(16) -0.01269(13) 1.1605(2)
H5 H 0.3806 0.0367 1.1302
C8 C 0.35697(19) -0.02374(16) 1.2998(3)
H6 H 0.3662 0.0183 1.3651
C9 C 0.3351(2) -0.09756(18) 1.3421(3)
H7 H 0.3297 -0.1070 1.4362
C10 C 0.3217(2) -0.15666(17) 1.2410(3)
H8 H 0.3077 -0.2068 1.2699
C11 C 0.31052(14) -0.00410(11) 0.8330(2)
C12 C 0.34721(15) 0.02885(12) 0.7238(2)
H9 H 0.4032 0.0081 0.7014
C13 C 0.29814(16) 0.09305(12) 0.6499(2)
C14 C 0.21676(16) 0.12783(12) 0.6783(2)
H10 H 0.1874 0.1723 0.6275
C15 C 0.18004(15) 0.09400(12) 0.7859(2)
C16 C 0.22533(14) 0.02805(12) 0.8611(2)
H11 H 0.1986 0.0049 0.9311
C17 C 0.08885(16) 0.12760(12) 0.9656(2)
C18 C 0.00471(19) 0.10358(15) 1.0040(3)
H12 H -0.0530 0.0908 0.9325
C19 C 0.0074(2) 0.09882(19) 1.1489(3)
H13 H -0.0483 0.0818 1.1769
C20 C 0.0925(2) 0.11921(18) 1.2524(3)
H14 H 0.0965 0.1156 1.3515
C21 C 0.1710(2) 0.14499(17) 1.2052(3)
H15 H 0.2283 0.1605 1.2753
C22 C 0.00742(16) 0.13835(13) 0.7030(2)
C23 C -0.05198(17) 0.20286(15) 0.7018(3)
H16 H -0.0376 0.2393 0.7778
C24 C -0.13397(19) 0.21186(19) 0.5836(4)
H17 H -0.1757 0.2553 0.5776
C25 C -0.1534(2) 0.1555(2) 0.4741(3)
H18 H -0.2085 0.1600 0.3937
C26 C -0.0901(2) 0.0934(2) 0.4870(3)
H19 H -0.1033 0.0556 0.4134
F1 F 0.33582(10) 0.12540(7) 0.54434(14)
N1 N 0.40725(14) -0.13607(11) 0.7363(2)
N2 N 0.35900(12) -0.06781(9) 0.92091(18)
N3 N 0.32716(16) -0.14764(11) 1.1035(2)
N4 N 0.17137(15) 0.14947(13) 1.0645(2)
N5 N 0.09427(13) 0.12677(11) 0.8197(2)
N6 N -0.01017(15) 0.08383(14) 0.5992(2)
loop_
_geom_bond_atom_site_label_1
_geom_bond_atom_site_label_2
_geom_bond_site_symmetry_1
_geom_bond_site_symmetry_2
C1 C2 1_555 1_555
C2 H1 1_555 1_555
C3 C2 1_555 1_555
H2 C3 1_555 1_555
C4 C3 1_555 1_555
H3 C4 1_555 1_555
C5 C4 1_555 1_555
H4 C5 1_555 1_555
C6 C7 1_555 1_555
C7 H5 1_555 1_555
C8 C7 1_555 1_555
H6 C8 1_555 1_555
C9 C8 1_555 1_555
H7 C9 1_555 1_555
C10 C9 1_555 1_555
H8 C10 1_555 1_555
C11 C12 1_555 1_555
C12 H9 1_555 1_555
C13 C12 1_555 1_555
C14 C13 1_555 1_555
H10 C14 1_555 1_555
C15 C14 1_555 1_555
C16 C11 1_555 1_555
H11 C16 1_555 1_555
C17 C18 1_555 1_555
C18 H12 1_555 1_555
C19 C18 1_555 1_555
H13 C19 1_555 1_555
C20 C19 1_555 1_555
H14 C20 1_555 1_555
C21 C20 1_555 1_555
H15 C21 1_555 1_555
C22 C23 1_555 1_555
C23 H16 1_555 1_555
C24 C23 1_555 1_555
H17 C24 1_555 1_555
C25 C24 1_555 1_555
H18 C25 1_555 1_555
C26 C25 1_555 1_555
H19 C26 1_555 1_555
F1 C13 1_555 1_555
N1 C1 1_555 1_555
N2 C1 1_555 1_555
N3 C6 1_555 1_555
N4 C17 1_555 1_555
N5 C15 1_555 1_555
N6 C22 1_555 1_555
C5 N1 1_555 1_555
C6 N2 1_555 1_555
C10 N3 1_555 1_555
C11 N2 1_555 1_555
C15 C16 1_555 1_555
C17 N5 1_555 1_555
C21 N4 1_555 1_555
C22 N5 1_555 1_555
C26 N6 1_555 1_555

#END
