
#######################################################################
#
#                 Cambridge Crystallographic Data Centre
#                                CCDC 
#
#######################################################################
#
# If this CIF has been generated from an entry in the Cambridge 
# Structural Database, then it will include bibliographic, chemical, 
# crystal, experimental, refinement or atomic coordinate data resulting 
# from the CCDC's data processing and validation procedures.
#
#######################################################################

data_IGADUR
_chemical_formula_moiety         'C48 H60 N2 Si2,C6 H14'
_chemical_name_systematic        
'2,3-bis(4-methylphenyl)-5,10-bis((triisopropylsilyl)ethynyl)benzo[g]quinoxaline n-hexane solvate'
_symmetry_cell_setting           triclinic
_symmetry_space_group_name_H-M   'P -1'
_symmetry_Int_Tables_number      2
_space_group_name_Hall           '-P 1'
loop_
_symmetry_equiv_pos_site_id
_symmetry_equiv_pos_as_xyz
1 x,y,z
2 -x,-y,-z
_cell_length_a                   11.1333(12)
_cell_length_b                   13.6022(15)
_cell_length_c                   17.6452(19)
_cell_angle_alpha                80.944(2)
_cell_angle_beta                 81.277(2)
_cell_angle_gamma                72.615(2)
_cell_volume                     2502.72
_exptl_crystal_colour            yellow
_exptl_crystal_description       block
_cell_formula_units_Z            2
loop_
_atom_site_label
_atom_site_type_symbol
_atom_site_fract_x
_atom_site_fract_y
_atom_site_fract_z
C1 C 0.75656(17) 0.61031(13) 0.78738(9)
C2 C 0.75633(17) 0.51249(13) 0.82775(10)
C3 C 0.75240(17) 0.43214(14) 0.78694(10)
C4 C 0.7496(2) 0.33228(15) 0.82528(11)
H1 H 0.7515 0.3185 0.8796
C5 C 0.7443(2) 0.25639(16) 0.78510(12)
H2 H 0.7428 0.1903 0.8116
C6 C 0.7411(2) 0.27498(16) 0.70454(12)
H3 H 0.7372 0.2213 0.6773
C7 C 0.7436(2) 0.36881(15) 0.66530(11)
H4 H 0.7414 0.3800 0.6110
C8 C 0.74941(18) 0.45086(14) 0.70483(10)
C9 C 0.75367(18) 0.54839(14) 0.66443(10)
C10 C 0.75944(17) 0.62710(13) 0.70568(10)
C11 C 0.76685(18) 0.79478(14) 0.70535(10)
C12 C 0.74336(18) 0.78279(14) 0.78921(10)
C13 C 0.71195(18) 0.86922(14) 0.83748(10)
C14 C 0.7527(2) 0.84921(15) 0.91075(11)
H5 H 0.8030 0.7818 0.9279
C15 C 0.7205(2) 0.92677(16) 0.95887(12)
H6 H 0.7503 0.9119 1.0083
C16 C 0.6454(2) 1.02568(15) 0.93614(12)
C17 C 0.6019(2) 1.04462(15) 0.86390(12)
H7 H 0.5480 1.1110 0.8479
C18 C 0.6357(2) 0.96818(15) 0.81480(11)
H8 H 0.6066 0.9834 0.7652
C19 C 0.6124(2) 1.10983(18) 0.98845(13)
H9 H 0.6513 1.0822 1.0364
H10 H 0.5202 1.1342 1.0003
H11 H 0.6442 1.1678 0.9626
C20 C 0.79268(19) 0.88820(14) 0.65741(10)
C21 C 0.7493(2) 0.91703(16) 0.58496(11)
H12 H 0.7012 0.8791 0.5682
C22 C 0.7760(2) 1.00096(17) 0.53690(12)
H13 H 0.7445 1.0202 0.4880
C23 C 0.8474(2) 1.05719(15) 0.55879(12)
C24 C 0.8936(2) 1.02610(15) 0.63038(12)
H14 H 0.9453 1.0620 0.6459
C25 C 0.8654(2) 0.94354(15) 0.67959(11)
H15 H 0.8962 0.9248 0.7287
C26 C 0.8739(3) 1.14964(17) 0.50678(13)
H16 H 0.8343 1.1595 0.4592
H17 H 0.9656 1.1375 0.4941
H18 H 0.8390 1.2119 0.5333
C27 C 0.75515(18) 0.49588(13) 0.91016(10)
C28 C 0.75397(19) 0.47864(14) 0.97908(10)
C29 C 0.7590(2) 0.57520(16) 1.11908(11)
H19 H 0.7560 0.5634 1.1766
C30 C 0.6463(2) 0.66769(17) 1.09801(14)
H20 H 0.6536 0.7297 1.1166
H21 H 0.5674 0.6529 1.1222
H22 H 0.6459 0.6797 1.0418
C31 C 0.8835(3) 0.6003(2) 1.08639(14)
H23 H 0.8855 0.6637 1.1053
H24 H 0.8896 0.6106 1.0299
H25 H 0.9549 0.5427 1.1031
C32 C 0.59360(18) 0.42649(15) 1.12299(10)
H26 H 0.5265 0.4905 1.1063
C33 C 0.5736(2) 0.4116(2) 1.21132(12)
H27 H 0.4914 0.3982 1.2285
H28 H 0.5755 0.4744 1.2311
H29 H 0.6411 0.3525 1.2309
C34 C 0.5710(2) 0.33788(19) 1.08846(16)
H30 H 0.4886 0.3281 1.1106
H31 H 0.6380 0.2738 1.1003
H32 H 0.5721 0.3550 1.0323
C35 C 0.89421(19) 0.34225(16) 1.10555(11)
H33 H 0.9682 0.3664 1.0792
C36 C 0.9144(2) 0.3173(2) 1.19148(14)
H34 H 0.9911 0.2595 1.1981
H35 H 0.8413 0.2981 1.2211
H36 H 0.9239 0.3785 1.2101
C37 C 0.9010(3) 0.2453(2) 1.0698(2)
H37 H 0.9781 0.1908 1.0823
H38 H 0.9028 0.2618 1.0136
H39 H 0.8267 0.2212 1.0906
C38 C 0.75096(19) 0.56851(14) 0.58262(10)
C39 C 0.7469(2) 0.58396(16) 0.51404(11)
C40 C 0.5908(3) 0.7089(2) 0.38957(14)
H40 H 0.5277 0.6684 0.4061
C41 C 0.5471(5) 0.7919(4) 0.4375(3)
H41 H 0.4649 0.8371 0.4235
H42 H 0.6085 0.8322 0.4299
H43 H 0.5380 0.7628 0.4918
C42 C 0.5756(3) 0.7431(3) 0.30425(15)
H44 H 0.4924 0.7933 0.2989
H45 H 0.5824 0.6826 0.2785
H46 H 0.6421 0.7754 0.2805
C43 C 0.8902(2) 0.65409(18) 0.36955(12)
H47 H 0.9635 0.5979 0.3892
C44 C 0.8921(3) 0.7517(2) 0.40045(18)
H48 H 0.9697 0.7703 0.3783
H49 H 0.8896 0.7392 0.4568
H50 H 0.8183 0.8087 0.3861
C45 C 0.9167(3) 0.6636(2) 0.28148(13)
H51 H 0.9932 0.6865 0.2654
H52 H 0.8447 0.7145 0.2588
H53 H 0.9291 0.5961 0.2639
C46 C 0.7579(3) 0.48288(18) 0.37393(12)
H54 H 0.7554 0.4958 0.3167
C47 C 0.6466(3) 0.4397(2) 0.40943(15)
H55 H 0.6567 0.3738 0.3898
H56 H 0.5670 0.4894 0.3953
H57 H 0.6449 0.4282 0.4658
C48 C 0.8841(3) 0.40235(19) 0.38957(15)
H58 H 0.8877 0.3373 0.3709
H59 H 0.8908 0.3900 0.4452
H60 H 0.9542 0.4283 0.3626
N1 N 0.74480(15) 0.69147(11) 0.82802(8)
N2 N 0.76962(15) 0.71972(12) 0.66599(8)
Si1 Si 0.74959(5) 0.45319(4) 1.08506(3)
Si2 Si 0.74552(6) 0.60983(4) 0.40837(3)
C55 C 0.4263(5) 0.8399(5) 0.6413(3)
H75 H 0.5188 0.8129 0.6344
H76 H 0.3975 0.8859 0.5949
H77 H 0.3884 0.7821 0.6497
C56 C 0.3851(5) 0.9019(4) 0.7125(3)
H78 H 0.4165 0.8551 0.7586
H79 H 0.4261 0.9587 0.7040
C57 C 0.2421(4) 0.9485(4) 0.7289(3)
H80 H 0.2115 0.9987 0.6840
H81 H 0.2006 0.8924 0.7340
C58 C 0.2022(5) 1.0022(4) 0.7997(3)
H82 H 0.2383 1.0617 0.7931
H83 H 0.2376 0.9536 0.8441
C59 C 0.0562(5) 1.0423(4) 0.8183(3)
H84 H 0.0196 1.0927 0.7751
H85 H 0.0185 0.9836 0.8251
C60 C 0.0269(7) 1.0930(5) 0.8907(4)
H86 H -0.0651 1.1187 0.9028
H87 H 0.0640 1.1512 0.8834
H88 H 0.0626 1.0425 0.9333
C49? C 0.4213(13) 0.8767(12) 0.6646(9)
H61? H 0.4234 0.8465 0.6174
H62? H 0.4647 0.8226 0.7029
H63? H 0.4639 0.9316 0.6528
C50? C 0.2840(15) 0.9222(12) 0.6970(8)
H64? H 0.2414 0.9739 0.6563
H65? H 0.2425 0.8657 0.7065
C51? C 0.2595(13) 0.9713(12) 0.7667(9)
H66? H 0.3004 1.0281 0.7578
H67? H 0.3002 0.9198 0.8081
C52? C 0.1262(14) 1.0137(10) 0.7937(7)
H68? H 0.0846 1.0732 0.7575
H69? H 0.0802 0.9603 0.8005
C53? C 0.1319(14) 1.0446(13) 0.8632(8)
H70? H 0.1679 1.1042 0.8555
H71? H 0.1840 0.9871 0.8964
C54? C -0.0088(13) 1.0762(12) 0.8995(8)
H72? H -0.0136 1.1000 0.9498
H73? H -0.0425 1.0162 0.9063
H74? H -0.0588 1.1323 0.8653
loop_
_geom_bond_atom_site_label_1
_geom_bond_atom_site_label_2
_geom_bond_site_symmetry_1
_geom_bond_site_symmetry_2
C1 C2 1_555 1_555
C2 C3 1_555 1_555
C3 C4 1_555 1_555
C4 H1 1_555 1_555
C5 C4 1_555 1_555
H2 C5 1_555 1_555
C6 C5 1_555 1_555
H3 C6 1_555 1_555
C7 C6 1_555 1_555
H4 C7 1_555 1_555
C8 C3 1_555 1_555
C9 C8 1_555 1_555
C10 C1 1_555 1_555
C11 C12 1_555 1_555
C12 C13 1_555 1_555
C13 C14 1_555 1_555
C14 H5 1_555 1_555
C15 C14 1_555 1_555
H6 C15 1_555 1_555
C16 C15 1_555 1_555
C17 C16 1_555 1_555
H7 C17 1_555 1_555
C18 C13 1_555 1_555
H8 C18 1_555 1_555
C19 C16 1_555 1_555
H9 C19 1_555 1_555
H10 C19 1_555 1_555
H11 C19 1_555 1_555
C20 C11 1_555 1_555
C21 C20 1_555 1_555
H12 C21 1_555 1_555
C22 C21 1_555 1_555
H13 C22 1_555 1_555
C23 C22 1_555 1_555
C24 C23 1_555 1_555
H14 C24 1_555 1_555
C25 C20 1_555 1_555
H15 C25 1_555 1_555
C26 C23 1_555 1_555
H16 C26 1_555 1_555
H17 C26 1_555 1_555
H18 C26 1_555 1_555
C27 C2 1_555 1_555
C28 C27 1_555 1_555
C29 H19 1_555 1_555
C30 C29 1_555 1_555
H20 C30 1_555 1_555
H21 C30 1_555 1_555
H22 C30 1_555 1_555
C31 C29 1_555 1_555
H23 C31 1_555 1_555
H24 C31 1_555 1_555
H25 C31 1_555 1_555
C32 H26 1_555 1_555
C33 C32 1_555 1_555
H27 C33 1_555 1_555
H28 C33 1_555 1_555
H29 C33 1_555 1_555
C34 C32 1_555 1_555
H30 C34 1_555 1_555
H31 C34 1_555 1_555
H32 C34 1_555 1_555
C35 H33 1_555 1_555
C36 C35 1_555 1_555
H34 C36 1_555 1_555
H35 C36 1_555 1_555
H36 C36 1_555 1_555
C37 C35 1_555 1_555
H37 C37 1_555 1_555
H38 C37 1_555 1_555
H39 C37 1_555 1_555
C38 C9 1_555 1_555
C39 C38 1_555 1_555
C40 H40 1_555 1_555
C41 C40 1_555 1_555
H41 C41 1_555 1_555
H42 C41 1_555 1_555
H43 C41 1_555 1_555
C42 C40 1_555 1_555
H44 C42 1_555 1_555
H45 C42 1_555 1_555
H46 C42 1_555 1_555
C43 H47 1_555 1_555
C44 C43 1_555 1_555
H48 C44 1_555 1_555
H49 C44 1_555 1_555
H50 C44 1_555 1_555
C45 C43 1_555 1_555
H51 C45 1_555 1_555
H52 C45 1_555 1_555
H53 C45 1_555 1_555
C46 H54 1_555 1_555
C47 C46 1_555 1_555
H55 C47 1_555 1_555
H56 C47 1_555 1_555
H57 C47 1_555 1_555
C48 C46 1_555 1_555
H58 C48 1_555 1_555
H59 C48 1_555 1_555
H60 C48 1_555 1_555
N1 C1 1_555 1_555
N2 C10 1_555 1_555
Si1 C28 1_555 1_555
Si2 C39 1_555 1_555
C55 H75 1_555 1_555
H76 C55 1_555 1_555
H77 C55 1_555 1_555
C56 C55 1_555 1_555
H78 C56 1_555 1_555
H79 C56 1_555 1_555
C57 C56 1_555 1_555
H80 C57 1_555 1_555
H81 C57 1_555 1_555
C58 C57 1_555 1_555
H82 C58 1_555 1_555
H83 C58 1_555 1_555
C59 C58 1_555 1_555
H84 C59 1_555 1_555
H85 C59 1_555 1_555
C60 C59 1_555 1_555
H86 C60 1_555 1_555
H87 C60 1_555 1_555
H88 C60 1_555 1_555
C7 C8 1_555 1_555
C9 C10 1_555 1_555
C11 N2 1_555 1_555
C12 N1 1_555 1_555
C17 C18 1_555 1_555
C24 C25 1_555 1_555
C29 Si1 1_555 1_555
C32 Si1 1_555 1_555
C35 Si1 1_555 1_555
C40 Si2 1_555 1_555
C43 Si2 1_555 1_555
C46 Si2 1_555 1_555

#END
