
#######################################################################
#
#                 Cambridge Crystallographic Data Centre
#                                CCDC 
#
#######################################################################
#
# If this CIF has been generated from an entry in the Cambridge 
# Structural Database, then it will include bibliographic, chemical, 
# crystal, experimental, refinement or atomic coordinate data resulting 
# from the CCDC's data processing and validation procedures.
#
#######################################################################

data_IGAFAZ
_chemical_formula_moiety         'C36 H52 N2 Si2'
_chemical_name_systematic        
2,3-Dimethyl-5,10-bis((triisopropylsilyl)ethynyl)benzo[g]quinoxaline
_symmetry_cell_setting           monoclinic
_symmetry_space_group_name_H-M   'P 21/c'
_symmetry_Int_Tables_number      14
_space_group_name_Hall           '-P 2ybc'
loop_
_symmetry_equiv_pos_site_id
_symmetry_equiv_pos_as_xyz
1 x,y,z
2 -x,1/2+y,1/2-z
3 -x,-y,-z
4 x,1/2-y,1/2+z
_cell_length_a                   14.5474(8)
_cell_length_b                   14.9254(9)
_cell_length_c                   16.2869(10)
_cell_angle_alpha                90
_cell_angle_beta                 97.065(4)
_cell_angle_gamma                90
_cell_volume                     3509.46
_exptl_crystal_colour            yellow
_exptl_crystal_description       plate
_cell_formula_units_Z            4
loop_
_atom_site_label
_atom_site_type_symbol
_atom_site_fract_x
_atom_site_fract_y
_atom_site_fract_z
C1 C 0.7167(2) 1.01444(19) 0.04875(18)
C2 C 0.7966(2) 0.96316(19) 0.03302(17)
C3 C 0.80037(19) 0.89817(17) 0.16134(16)
C4 C 0.84295(19) 0.83870(17) 0.22154(16)
C5 C 0.81119(19) 0.83485(17) 0.30038(17)
C6 C 0.8531(2) 0.77751(19) 0.36386(18)
H1 H 0.9023 0.7392 0.3528
C7 C 0.8242(2) 0.7764(2) 0.44027(19)
H2 H 0.8540 0.7385 0.4823
C8 C 0.7498(2) 0.8316(2) 0.45693(19)
H3 H 0.7296 0.8301 0.5102
C9 C 0.7069(2) 0.8865(2) 0.39824(18)
H4 H 0.6569 0.9229 0.4108
C10 C 0.73560(19) 0.89054(17) 0.31768(17)
C11 C 0.69220(19) 0.94808(18) 0.25617(17)
C12 C 0.72457(19) 0.95148(17) 0.17790(17)
C13 C 0.6164(2) 1.00351(19) 0.27214(18)
C14 C 0.5523(2) 1.0499(2) 0.28779(19)
C15 C 0.4337(2) 1.1921(2) 0.2033(2)
H5 H 0.3792 1.2319 0.2078
C16 C 0.4106(3) 1.1324(3) 0.1269(2)
H6 H 0.3999 1.1700 0.0773
H7 H 0.3547 1.0975 0.1327
H8 H 0.4624 1.0916 0.1220
C17 C 0.5163(3) 1.2517(3) 0.1917(3)
H9 H 0.5025 1.2867 0.1408
H10 H 0.5709 1.2142 0.1878
H11 H 0.5286 1.2923 0.2391
C18 C 0.4821(5) 1.1928(4) 0.3934(3)
H12 H 0.4446 1.1576 0.4297
C19 C 0.5624(4) 1.1874(4) 0.4434(4)
H13 H 0.5605 1.2277 0.4907
H14 H 0.6135 1.2049 0.4128
H15 H 0.5719 1.1257 0.4633
C20 C 0.4255(4) 1.2786(3) 0.3935(3)
H16 H 0.4419 1.3104 0.4459
H17 H 0.3594 1.2638 0.3870
H18 H 0.4389 1.3170 0.3475
C21 C 0.3518(3) 1.0430(4) 0.3044(3)
H19 H 0.3500 1.0057 0.2532
C22 C 0.3612(4) 0.9779(3) 0.3726(3)
H20 H 0.3060 0.9397 0.3685
H21 H 0.3677 1.0099 0.4256
H22 H 0.4161 0.9406 0.3693
C23 C 0.2584(3) 1.0924(4) 0.2953(3)
H23 H 0.2081 1.0489 0.2972
H24 H 0.2497 1.1243 0.2423
H25 H 0.2576 1.1354 0.3407
C24 C 0.9197(2) 0.78567(17) 0.20404(16)
C25 C 0.9846(2) 0.73949(19) 0.19117(17)
C26 C 1.0820(2) 0.6665(2) 0.05425(18)
H26 H 1.0261 0.6317 0.0308
C27 C 1.1656(3) 0.6163(3) 0.0285(2)
H27 H 1.1631 0.6176 -0.0319
H28 H 1.1644 0.5540 0.0473
H29 H 1.2228 0.6451 0.0535
C28 C 1.0719(3) 0.7598(3) 0.0139(2)
H30 H 1.0726 0.7541 -0.0460
H31 H 1.1235 0.7980 0.0371
H32 H 1.0132 0.7868 0.0248
C29 C 1.1920(2) 0.7125(2) 0.22690(18)
H33 H 1.2429 0.6710 0.2155
C30 C 1.1925(3) 0.7153(3) 0.3201(2)
H34 H 1.2519 0.7393 0.3458
H35 H 1.1840 0.6546 0.3408
H36 H 1.1421 0.7539 0.3338
C31 C 1.2169(3) 0.8048(3) 0.1969(2)
H37 H 1.2751 0.8248 0.2283
H38 H 1.1675 0.8473 0.2053
H39 H 1.2242 0.8020 0.1380
C32 C 1.0557(2) 0.5502(2) 0.20772(19)
H40 H 1.1165 0.5186 0.2194
C33 C 1.0117(3) 0.5505(2) 0.2887(2)
H41 H 1.0006 0.4887 0.3052
H42 H 0.9528 0.5831 0.2805
H43 H 1.0537 0.5799 0.3322
C34 C 0.9957(3) 0.4941(2) 0.1433(2)
H44 H 0.9854 0.4348 0.1664
H45 H 1.0273 0.4874 0.0939
H46 H 0.9360 0.5240 0.1284
C35 C 0.6710(3) 1.0796(2) -0.0137(2)
H47 H 0.6181 1.1076 0.0080
H48 H 0.6496 1.0479 -0.0651
H49 H 0.7157 1.1260 -0.0246
C36 C 0.8397(3) 0.9749(2) -0.04542(19)
H50 H 0.8930 0.9347 -0.0449
H51 H 0.8602 1.0371 -0.0497
H52 H 0.7940 0.9606 -0.0930
N1 N 0.68187(17) 1.00871(15) 0.11890(15)
N2 N 0.83568(16) 0.90527(15) 0.08665(14)
Si1 Si 0.45354(6) 1.12275(6) 0.29964(5)
Si2 Si 1.08117(5) 0.66641(5) 0.16994(5)
loop_
_geom_bond_atom_site_label_1
_geom_bond_atom_site_label_2
_geom_bond_site_symmetry_1
_geom_bond_site_symmetry_2
C1 C2 1_555 1_555
C2 C36 1_555 1_555
C3 C4 1_555 1_555
C4 C5 1_555 1_555
C5 C6 1_555 1_555
C6 H1 1_555 1_555
C7 C6 1_555 1_555
H2 C7 1_555 1_555
C8 C7 1_555 1_555
H3 C8 1_555 1_555
C9 C8 1_555 1_555
H4 C9 1_555 1_555
C10 C5 1_555 1_555
C11 C10 1_555 1_555
C12 C3 1_555 1_555
C13 C11 1_555 1_555
C14 C13 1_555 1_555
C15 H5 1_555 1_555
C16 C15 1_555 1_555
H6 C16 1_555 1_555
H7 C16 1_555 1_555
H8 C16 1_555 1_555
C17 C15 1_555 1_555
H9 C17 1_555 1_555
H10 C17 1_555 1_555
H11 C17 1_555 1_555
C18 H12 1_555 1_555
C19 C18 1_555 1_555
H13 C19 1_555 1_555
H14 C19 1_555 1_555
H15 C19 1_555 1_555
C20 C18 1_555 1_555
H16 C20 1_555 1_555
H17 C20 1_555 1_555
H18 C20 1_555 1_555
C21 H19 1_555 1_555
C22 C21 1_555 1_555
H20 C22 1_555 1_555
H21 C22 1_555 1_555
H22 C22 1_555 1_555
C23 C21 1_555 1_555
H23 C23 1_555 1_555
H24 C23 1_555 1_555
H25 C23 1_555 1_555
C24 C4 1_555 1_555
C25 C24 1_555 1_555
C26 H26 1_555 1_555
C27 C26 1_555 1_555
H27 C27 1_555 1_555
H28 C27 1_555 1_555
H29 C27 1_555 1_555
C28 C26 1_555 1_555
H30 C28 1_555 1_555
H31 C28 1_555 1_555
H32 C28 1_555 1_555
C29 H33 1_555 1_555
C30 C29 1_555 1_555
H34 C30 1_555 1_555
H35 C30 1_555 1_555
H36 C30 1_555 1_555
C31 C29 1_555 1_555
H37 C31 1_555 1_555
H38 C31 1_555 1_555
H39 C31 1_555 1_555
C32 H40 1_555 1_555
C33 C32 1_555 1_555
H41 C33 1_555 1_555
H42 C33 1_555 1_555
H43 C33 1_555 1_555
C34 C32 1_555 1_555
H44 C34 1_555 1_555
H45 C34 1_555 1_555
H46 C34 1_555 1_555
C35 C1 1_555 1_555
H47 C35 1_555 1_555
H48 C35 1_555 1_555
H49 C35 1_555 1_555
C36 H50 1_555 1_555
H51 C36 1_555 1_555
H52 C36 1_555 1_555
N1 C1 1_555 1_555
N2 C2 1_555 1_555
Si1 C14 1_555 1_555
Si2 C25 1_555 1_555
C3 N2 1_555 1_555
C9 C10 1_555 1_555
C11 C12 1_555 1_555
C12 N1 1_555 1_555
C15 Si1 1_555 1_555
C18 Si1 1_555 1_555
C21 Si1 1_555 1_555
C26 Si2 1_555 1_555
C29 Si2 1_555 1_555
C32 Si2 1_555 1_555

#END
