
#######################################################################
#
#                 Cambridge Crystallographic Data Centre
#                                CCDC 
#
#######################################################################
#
# If this CIF has been generated from an entry in the Cambridge 
# Structural Database, then it will include bibliographic, chemical, 
# crystal, experimental, refinement or atomic coordinate data resulting 
# from the CCDC's data processing and validation procedures.
#
#######################################################################

data_IGAFOM01
_chemical_formula_moiety         'C18 H19 N1 O2'
_chemical_name_systematic        
1,1,3-trimethyl-3-(4-nitrophenyl)-2,3-dihydro-1H-indene
_symmetry_cell_setting           monoclinic
_symmetry_space_group_name_H-M   'P 21/c'
_symmetry_Int_Tables_number      14
_space_group_name_Hall           '-P 2ybc'
loop_
_symmetry_equiv_pos_site_id
_symmetry_equiv_pos_as_xyz
1 x,y,z
2 -x,1/2+y,1/2-z
3 -x,-y,-z
4 x,1/2-y,1/2+z
_cell_length_a                   11.1208(9)
_cell_length_b                   11.5061(10)
_cell_length_c                   11.8471(10)
_cell_angle_alpha                90
_cell_angle_beta                 102.556(2)
_cell_angle_gamma                90
_cell_volume                     1479.67
_exptl_crystal_colour            colorless
_cell_formula_units_Z            4
loop_
_atom_site_label
_atom_site_type_symbol
_atom_site_fract_x
_atom_site_fract_y
_atom_site_fract_z
O1 O 0.83943(13) 0.80132(10) -0.05655(10)
O2 O 0.85975(12) 0.67132(11) -0.18205(10)
N1 N 0.84483(11) 0.69921(11) -0.08675(11)
C1 C 0.83050(12) 0.60745(13) -0.00547(12)
C2 C 0.82220(13) 0.63875(13) 0.10551(13)
H1 H 0.8263 0.7180 0.1284
C3 C 0.80784(13) 0.55201(13) 0.18203(12)
H2 H 0.8034 0.5723 0.2587
C4 C 0.79972(12) 0.43488(13) 0.14917(11)
C5 C 0.78669(12) 0.34224(13) 0.23883(12)
C6 C 0.76592(13) 0.22149(13) 0.18699(12)
C7 C 0.85249(14) 0.14660(13) 0.15654(13)
H3 H 0.9365 0.1691 0.1680
C8 C 0.81425(15) 0.03909(14) 0.10948(13)
H4 H 0.8723 -0.0123 0.0881
C9 C 0.69211(15) 0.00599(14) 0.09342(14)
H5 H 0.6671 -0.0678 0.0607
C10 C 0.60579(14) 0.07935(14) 0.12452(13)
H6 H 0.5222 0.0559 0.1141
C11 C 0.64327(13) 0.18803(13) 0.17132(12)
C12 C 0.56620(13) 0.28244(14) 0.21081(13)
C13 C 0.47781(16) 0.23333(17) 0.28161(16)
H7 H 0.4160 0.1844 0.2319
H8 H 0.4367 0.2975 0.3125
H9 H 0.5242 0.1867 0.3457
C14 C 0.66702(13) 0.35929(14) 0.28559(13)
H10 H 0.6813 0.3356 0.3678
H11 H 0.6416 0.4419 0.2795
C15 C 0.49304(15) 0.34986(16) 0.10665(15)
H12 H 0.5500 0.3833 0.0629
H13 H 0.4465 0.4124 0.1337
H14 H 0.4359 0.2970 0.0567
C16 C 0.90219(13) 0.34742(14) 0.33721(13)
H15 H 0.9001 0.2836 0.3915
H16 H 0.9043 0.4218 0.3779
H17 H 0.9759 0.3402 0.3050
C17 C 0.80731(13) 0.40762(13) 0.03618(12)
H18 H 0.8013 0.3287 0.0121
C18 C 0.82337(13) 0.49309(13) -0.04173(12)
H19 H 0.8293 0.4735 -0.1182
loop_
_geom_bond_atom_site_label_1
_geom_bond_atom_site_label_2
_geom_bond_site_symmetry_1
_geom_bond_site_symmetry_2
O1 N1 1_555 1_555
O2 N1 1_555 1_555
N1 C1 1_555 1_555
C1 C2 1_555 1_555
C2 H1 1_555 1_555
C3 C2 1_555 1_555
H2 C3 1_555 1_555
C4 C3 1_555 1_555
C5 C4 1_555 1_555
C6 C5 1_555 1_555
C7 C6 1_555 1_555
H3 C7 1_555 1_555
C8 C7 1_555 1_555
H4 C8 1_555 1_555
C9 C8 1_555 1_555
H5 C9 1_555 1_555
C10 C9 1_555 1_555
H6 C10 1_555 1_555
C11 C6 1_555 1_555
C12 C11 1_555 1_555
C13 C12 1_555 1_555
H7 C13 1_555 1_555
H8 C13 1_555 1_555
H9 C13 1_555 1_555
C14 C5 1_555 1_555
H10 C14 1_555 1_555
H11 C14 1_555 1_555
C15 C12 1_555 1_555
H12 C15 1_555 1_555
H13 C15 1_555 1_555
H14 C15 1_555 1_555
C16 C5 1_555 1_555
H15 C16 1_555 1_555
H16 C16 1_555 1_555
H17 C16 1_555 1_555
C17 C4 1_555 1_555
H18 C17 1_555 1_555
C18 C1 1_555 1_555
H19 C18 1_555 1_555
C10 C11 1_555 1_555
C12 C14 1_555 1_555
C17 C18 1_555 1_555

#END
