
#######################################################################
#
#                 Cambridge Crystallographic Data Centre
#                                CCDC 
#
#######################################################################
#
# If this CIF has been generated from an entry in the Cambridge 
# Structural Database, then it will include bibliographic, chemical, 
# crystal, experimental, refinement or atomic coordinate data resulting 
# from the CCDC's data processing and validation procedures.
#
#######################################################################

data_IGAGAZ
_chemical_formula_moiety         'C23 H19 F1 O5 S2'
_chemical_name_systematic        
(Z)-3-(4-Fluorophenyl)-1-(4-(methylsulfonyl)phenyl)-2-p-tosylprop-2-en-1-one
_symmetry_cell_setting           monoclinic
_symmetry_space_group_name_H-M   'P 21/n'
_symmetry_Int_Tables_number      14
_space_group_name_Hall           '-P 2yn'
loop_
_symmetry_equiv_pos_site_id
_symmetry_equiv_pos_as_xyz
1 x,y,z
2 1/2-x,1/2+y,1/2-z
3 -x,-y,-z
4 1/2+x,1/2-y,1/2+z
_cell_length_a                   9.6962(7)
_cell_length_b                   22.8539(16)
_cell_length_c                   10.8217(7)
_cell_angle_alpha                90
_cell_angle_beta                 109.672(2)
_cell_angle_gamma                90
_cell_volume                     2258.08
_exptl_crystal_colour            colorless
_exptl_crystal_description       block
_cell_formula_units_Z            4
_exptl_crystal_recrystallization_method chloroform/methanol
loop_
_atom_site_label
_atom_site_type_symbol
_atom_site_fract_x
_atom_site_fract_y
_atom_site_fract_z
C1 C 1.3723(4) 0.4255(2) -0.0871(5)
H1 H 1.3540 0.4621 -0.1335
H2 H 1.3282 0.3943 -0.1466
H3 H 1.4760 0.4191 -0.0502
C2 C 1.1672(4) 0.3762(2) -0.0248(4)
C3 C 1.1626(4) 0.33042(19) -0.1075(4)
H4 H 1.2361 0.3260 -0.1441
C4 C 1.0497(4) 0.29108(18) -0.1363(4)
H5 H 1.0475 0.2598 -0.1918
C5 C 0.9391(4) 0.29742(17) -0.0836(3)
C6 C 0.932(2) 0.3505(5) -0.0214(16)
H6 H 0.8507 0.3582 0.0025
C8 C 1.0415(11) 0.3915(9) 0.0058(15)
H8 H 1.0331 0.4276 0.0425
C10 C 0.8192(4) 0.25372(19) -0.1142(3)
C11 C 0.6772(4) 0.27111(17) -0.0973(3)
C12 C 0.5902(4) 0.31364(17) -0.1618(4)
H10 H 0.5098 0.3228 -0.1370
C13 C 0.6107(4) 0.34758(16) -0.2697(4)
C14 C 0.5815(6) 0.4061(2) -0.2782(5)
H11 H 0.5487 0.4239 -0.2158
C15 C 0.5997(7) 0.4391(2) -0.3770(6)
H12 H 0.5812 0.4792 -0.3816
C16 C 0.6457(6) 0.4119(2) -0.4688(4)
C17 C 0.6751(5) 0.3547(2) -0.4645(4)
H13 H 0.7066 0.3373 -0.5280
C18 C 0.6576(5) 0.32188(17) -0.3637(4)
H14 H 0.6776 0.2820 -0.3592
C19 C 0.5859(5) 0.1628(2) -0.0386(4)
C20 C 0.6805(8) 0.1184(3) 0.0090(6)
H15 H 0.7669 0.1254 0.0781
C21 C 0.4581(5) 0.1538(3) -0.1417(5)
H16 H 0.3927 0.1842 -0.1762
O1 O 1.4436(7) 0.3984(4) 0.1553(7)
O2 O 1.268(4) 0.4774(8) 0.071(3)
O4 O 0.8339(3) 0.20504(15) -0.1523(4)
O5 O 0.7600(3) 0.22936(15) 0.1392(3)
O6 O 0.5023(4) 0.25992(15) 0.0377(3)
S1 S 1.31187(15) 0.42709(8) 0.01374(16)
S2 S 0.63094(12) 0.23274(5) 0.02559(10)
F1 F 0.6602(4) 0.44442(14) -0.5693(3)
C22 C 0.4298(7) 0.0953(4) -0.1942(6)
H17 H 0.3440 0.0871 -0.2630
C23 C 0.5310(10) 0.0515(3) -0.1415(8)
C24 C 0.6521(10) 0.0637(3) -0.0419(8)
H18 H 0.7192 0.0339 -0.0063
C25 C 0.4865(13) -0.0082(4) -0.2075(9)
H19 H 0.5557 -0.0199 -0.2486
H20 H 0.3907 -0.0054 -0.2725
H21 H 0.4852 -0.0366 -0.1426
C7? C 0.957(2) 0.3373(7) 0.0188(16)
H7? H 0.8912 0.3383 0.0641
C9? C 1.0744(16) 0.3748(10) 0.0514(15)
H9? H 1.0927 0.3993 0.1237
O3? O 1.255(5) 0.4845(8) 0.021(3)
loop_
_geom_bond_atom_site_label_1
_geom_bond_atom_site_label_2
_geom_bond_site_symmetry_1
_geom_bond_site_symmetry_2
C1 H1 1_555 1_555
H2 C1 1_555 1_555
H3 C1 1_555 1_555
C2 C3 1_555 1_555
C3 H4 1_555 1_555
C4 C3 1_555 1_555
H5 C4 1_555 1_555
C5 C4 1_555 1_555
C6 C5 1_555 1_555
H6 C6 1_555 1_555
C8 C2 1_555 1_555
H8 C8 1_555 1_555
C10 C5 1_555 1_555
C11 C10 1_555 1_555
C12 C11 1_555 1_555
H10 C12 1_555 1_555
C13 C12 1_555 1_555
C14 C13 1_555 1_555
H11 C14 1_555 1_555
C15 C14 1_555 1_555
H12 C15 1_555 1_555
C16 C15 1_555 1_555
C17 C16 1_555 1_555
H13 C17 1_555 1_555
C18 C13 1_555 1_555
H14 C18 1_555 1_555
C19 C20 1_555 1_555
C20 H15 1_555 1_555
C21 C19 1_555 1_555
H16 C21 1_555 1_555
O1 S1 1_555 1_555
O2 S1 1_555 1_555
O4 C10 1_555 1_555
O5 S2 1_555 1_555
O6 S2 1_555 1_555
S1 C1 1_555 1_555
S2 C11 1_555 1_555
F1 C16 1_555 1_555
C22 C21 1_555 1_555
H17 C22 1_555 1_555
C23 C22 1_555 1_555
C24 C20 1_555 1_555
H18 C24 1_555 1_555
C25 C23 1_555 1_555
H19 C25 1_555 1_555
H20 C25 1_555 1_555
H21 C25 1_555 1_555
C2 S1 1_555 1_555
C6 C8 1_555 1_555
C17 C18 1_555 1_555
C19 S2 1_555 1_555
C23 C24 1_555 1_555

#END
