
#######################################################################
#
#                 Cambridge Crystallographic Data Centre
#                                CCDC 
#
#######################################################################
#
# If this CIF has been generated from an entry in the Cambridge 
# Structural Database, then it will include bibliographic, chemical, 
# crystal, experimental, refinement or atomic coordinate data resulting 
# from the CCDC's data processing and validation procedures.
#
#######################################################################

data_IGAGED
_chemical_formula_moiety         'C12 H16 N2 O4,H2 O1'
_chemical_name_systematic        
"(E)-Ethyl N'-(3,4-dimethoxybenzylidene)hydrazinecarboxylate monohydrate"
_symmetry_cell_setting           orthorhombic
_symmetry_space_group_name_H-M   'P n a 21'
_symmetry_Int_Tables_number      33
_space_group_name_Hall           'P 2c -2n'
loop_
_symmetry_equiv_pos_site_id
_symmetry_equiv_pos_as_xyz
1 x,y,z
2 -x,-y,1/2+z
3 1/2-x,1/2+y,1/2+z
4 1/2+x,1/2-y,z
_cell_length_a                   7.211(2)
_cell_length_b                   17.688(5)
_cell_length_c                   11.026(3)
_cell_angle_alpha                90
_cell_angle_beta                 90
_cell_angle_gamma                90
_cell_volume                     1406.35
_exptl_crystal_colour            colorless
_exptl_crystal_description       Block
_chemical_melting_point          '458-460 K'
_cell_formula_units_Z            4
_exptl_crystal_recrystallization_method ethanol
loop_
_atom_site_label
_atom_site_type_symbol
_atom_site_fract_x
_atom_site_fract_y
_atom_site_fract_z
C1 C 1.0427(4) 0.67958(16) 0.2893(3)
H1 H 1.1372 0.7154 0.3172
H2 H 0.9915 0.6969 0.2117
H3 H 1.0989 0.6296 0.2786
C2 C 0.4765(4) 0.69467(15) 0.6084(3)
H4 H 0.5117 0.7319 0.6701
H5 H 0.4388 0.6476 0.6482
H6 H 0.3730 0.7144 0.5603
C3 C 0.6065(3) 0.62962(12) 0.4381(2)
C4 C 0.7529(3) 0.62623(13) 0.3535(2)
C5 C 0.4527(3) 0.58339(12) 0.4241(2)
H7 H 0.3536 0.5859 0.4806
C6 C 0.7444(3) 0.57723(14) 0.2568(2)
H8 H 0.8428 0.5753 0.1995
C7 C 0.5889(3) 0.53002(14) 0.2433(2)
H9 H 0.5833 0.4959 0.1769
C8 C 0.4438(3) 0.53255(13) 0.3255(2)
C9 C 0.2842(3) 0.48227(14) 0.3094(3)
H10 H 0.2729 0.4534 0.2371
C10 C -0.1176(4) 0.42102(13) 0.4535(2)
C11 C -0.4016(4) 0.36234(19) 0.5028(3)
H11 H -0.4699 0.4105 0.5130
H12 H -0.3517 0.3471 0.5828
C12 C -0.5286(5) 0.3030(2) 0.4560(4)
H13 H -0.6307 0.2956 0.5134
H14 H -0.4602 0.2555 0.4463
H15 H -0.5786 0.3188 0.3773
N1 N 0.1595(3) 0.47690(10) 0.3921(2)
N2 N 0.0153(3) 0.42736(11) 0.3681(2)
H16 H 0.0107 0.4012 0.3002
O1 O 0.8976(2) 0.67502(9) 0.37704(18)
O2 O 0.6305(2) 0.68036(11) 0.53107(17)
O3 O -0.1179(3) 0.45274(11) 0.55163(18)
O4 O -0.2508(2) 0.37243(9) 0.41722(18)
O5 O 0.0397(3) 0.59890(12) 0.6111(2)
H17 H 0.003(5) 0.6288(18) 0.561(3)
H18 H 0.030(5) 0.5563(13) 0.579(3)
loop_
_geom_bond_atom_site_label_1
_geom_bond_atom_site_label_2
_geom_bond_site_symmetry_1
_geom_bond_site_symmetry_2
C1 H1 1_555 1_555
H2 C1 1_555 1_555
H3 C1 1_555 1_555
C2 H4 1_555 1_555
H5 C2 1_555 1_555
H6 C2 1_555 1_555
C3 C4 1_555 1_555
C4 C6 1_555 1_555
C5 C3 1_555 1_555
H7 C5 1_555 1_555
C6 H8 1_555 1_555
C7 C6 1_555 1_555
H9 C7 1_555 1_555
C8 C5 1_555 1_555
C9 C8 1_555 1_555
H10 C9 1_555 1_555
C10 N2 1_555 1_555
C11 H11 1_555 1_555
H12 C11 1_555 1_555
C12 C11 1_555 1_555
H13 C12 1_555 1_555
H14 C12 1_555 1_555
H15 C12 1_555 1_555
N1 C9 1_555 1_555
N2 N1 1_555 1_555
H16 N2 1_555 1_555
O1 C1 1_555 1_555
O2 C2 1_555 1_555
O3 C10 1_555 1_555
O4 C10 1_555 1_555
O5 H17 1_555 1_555
H18 O5 1_555 1_555
C3 O2 1_555 1_555
C4 O1 1_555 1_555
C7 C8 1_555 1_555
C11 O4 1_555 1_555

#END
