
#######################################################################
#
#                 Cambridge Crystallographic Data Centre
#                                CCDC 
#
#######################################################################
#
# If this CIF has been generated from an entry in the Cambridge 
# Structural Database, then it will include bibliographic, chemical, 
# crystal, experimental, refinement or atomic coordinate data resulting 
# from the CCDC's data processing and validation procedures.
#
#######################################################################

data_IGAHII
_chemical_formula_moiety         'C16 H10 N2 O8,2(C3 H7 N1 O1)'
_chemical_name_systematic        
"(E)-5,5'-(1,2-diazenediyl)diisophthalic acid N,N-dimethylformamide solvate"
_symmetry_cell_setting           triclinic
_symmetry_space_group_name_H-M   'P -1'
_symmetry_Int_Tables_number      2
_space_group_name_Hall           '-P 1'
loop_
_symmetry_equiv_pos_site_id
_symmetry_equiv_pos_as_xyz
1 x,y,z
2 -x,-y,-z
_cell_length_a                   6.2926(13)
_cell_length_b                   7.2114(13)
_cell_length_c                   13.653(4)
_cell_angle_alpha                80.94(4)
_cell_angle_beta                 85.30(4)
_cell_angle_gamma                81.72(3)
_cell_volume                     604.331
_exptl_crystal_colour            colorless
_exptl_crystal_description       cuboid
_cell_formula_units_Z            1
_exptl_crystal_recrystallization_method dimethylformamide
loop_
_atom_site_label
_atom_site_type_symbol
_atom_site_fract_x
_atom_site_fract_y
_atom_site_fract_z
C1 C 1.2504(3) 0.1247(3) 0.53879(14)
C2 C 1.1485(3) 0.1486(3) 0.63147(14)
H1 H 1.2213 0.1037 0.6889
C3 C 0.9387(3) 0.2393(3) 0.63829(14)
C4 C 0.8321(3) 0.3072(3) 0.55177(14)
H2 H 0.6909 0.3664 0.5558
C5 C 0.9357(3) 0.2870(2) 0.45901(13)
C6 C 1.1450(3) 0.1962(2) 0.45217(14)
H3 H 1.2144 0.1830 0.3903
C7 C 0.8248(3) 0.3644(3) 0.36581(14)
C8 C 0.8253(3) 0.2634(3) 0.73691(14)
N1 N 1.4637(2) 0.0230(2) 0.54104(12)
O1 O 0.9368(2) 0.1852(3) 0.81263(10)
H11 H 0.8628 0.1957 0.8643
O2 O 0.6425(2) 0.3456(2) 0.74637(11)
O3 O 0.6225(2) 0.4372(2) 0.38429(11)
H12 H 0.5702 0.4880 0.3321
O4 O 0.9084(2) 0.3631(3) 0.28388(11)
C1A C 1.7496(3) -0.1247(3) 0.46121(14)
C2A C 1.8515(3) -0.1486(3) 0.36853(14)
H1A H 1.7787 -0.1037 0.3111
C3A C 2.0613(3) -0.2393(3) 0.36171(14)
C4A C 2.1679(3) -0.3072(3) 0.44823(14)
H2A H 2.3091 -0.3664 0.4442
C5A C 2.0643(3) -0.2870(2) 0.54099(13)
C6A C 1.8550(3) -0.1962(2) 0.54783(14)
H3A H 1.7856 -0.1830 0.6097
C7A C 2.1752(3) -0.3644(3) 0.63419(14)
C8A C 2.1747(3) -0.2634(3) 0.26309(14)
N1A N 1.5363(2) -0.0230(2) 0.45896(12)
O1A O 2.0632(2) -0.1852(3) 0.18737(10)
H11A H 2.1372 -0.1957 0.1357
O2A O 2.3575(2) -0.3456(2) 0.25363(11)
O3A O 2.3775(2) -0.4372(2) 0.61571(11)
H12A H 2.4298 -0.4880 0.6679
O4A O 2.0916(2) -0.3631(3) 0.71612(11)
C9 C 0.5021(5) 0.1873(5) 0.1616(2)
H4 H 0.6554 0.1852 0.1536
H5 H 0.4689 0.0633 0.1894
H6 H 0.4427 0.2763 0.2052
C10 C 0.1791(4) 0.2888(5) 0.0659(2)
H7 H 0.1367 0.3194 -0.0013
H8 H 0.1337 0.3953 0.1003
H9 H 0.1133 0.1817 0.0988
C11 C 0.5328(4) 0.2465(4) -0.01670(17)
H10 H 0.4662 0.2823 -0.0764
N2 N 0.4107(3) 0.2433(3) 0.06578(13)
O5 O 0.7304(3) 0.2054(3) -0.02061(11)
loop_
_geom_bond_atom_site_label_1
_geom_bond_atom_site_label_2
_geom_bond_site_symmetry_1
_geom_bond_site_symmetry_2
C1 C2 1_555 1_555
C2 H1 1_555 1_555
C3 C2 1_555 1_555
C4 C3 1_555 1_555
H2 C4 1_555 1_555
C5 C4 1_555 1_555
C6 C1 1_555 1_555
H3 C6 1_555 1_555
C7 C5 1_555 1_555
C8 C3 1_555 1_555
C9 H4 1_555 1_555
H5 C9 1_555 1_555
H6 C9 1_555 1_555
C10 H7 1_555 1_555
H8 C10 1_555 1_555
H9 C10 1_555 1_555
C11 H10 1_555 1_555
N1 C1 1_555 1_555
N2 C9 1_555 1_555
O1 C8 1_555 1_555
H11 O1 1_555 1_555
O2 C8 1_555 1_555
O3 C7 1_555 1_555
H12 O3 1_555 1_555
O4 C7 1_555 1_555
O5 C11 1_555 1_555
C1A C2A 1_555 1_555
C2A H1A 1_555 1_555
C3A C2A 1_555 1_555
C4A C3A 1_555 1_555
H2A C4A 1_555 1_555
C5A C4A 1_555 1_555
C6A C1A 1_555 1_555
H3A C6A 1_555 1_555
C7A C5A 1_555 1_555
C8A C3A 1_555 1_555
N1A N1 1_555 1_555
O1A C8A 1_555 1_555
H11A O1A 1_555 1_555
O2A C8A 1_555 1_555
O3A C7A 1_555 1_555
H12A O3A 1_555 1_555
O4A C7A 1_555 1_555
C5 C6 1_555 1_555
C10 N2 1_555 1_555
C11 N2 1_555 1_555
C1A N1A 1_555 1_555
C5A C6A 1_555 1_555

#END
