
#######################################################################
#
#                 Cambridge Crystallographic Data Centre
#                                CCDC 
#
#######################################################################
#
# If this CIF has been generated from an entry in the Cambridge 
# Structural Database, then it will include bibliographic, chemical, 
# crystal, experimental, refinement or atomic coordinate data resulting 
# from the CCDC's data processing and validation procedures.
#
#######################################################################

data_IGAHEG
_chemical_formula_moiety         'C26 H40 N2 O2 Si2'
_chemical_name_systematic        
7-[bis(trimethylsilyl)amino]-3-[2,6-bis(propan-2-yl)phenyl]-3,7-dihydro-2H-1,3-benzoxazin-2-one
_symmetry_cell_setting           orthorhombic
_symmetry_space_group_name_H-M   'P b c a'
_symmetry_Int_Tables_number      61
_space_group_name_Hall           '-P 2ac 2ab'
loop_
_symmetry_equiv_pos_site_id
_symmetry_equiv_pos_as_xyz
1 x,y,z
2 1/2-x,-y,1/2+z
3 -x,1/2+y,1/2-z
4 1/2+x,1/2-y,-z
5 -x,-y,-z
6 1/2+x,y,1/2-z
7 x,1/2-y,1/2+z
8 1/2-x,1/2+y,z
_cell_length_a                   15.045(3)
_cell_length_b                   12.070(2)
_cell_length_c                   29.942(6)
_cell_angle_alpha                90
_cell_angle_beta                 90
_cell_angle_gamma                90
_cell_volume                     5437.26
_exptl_crystal_colour            colorless
_exptl_crystal_description       needle
_cell_formula_units_Z            8
_exptl_crystal_recrystallization_method pentane
loop_
_atom_site_label
_atom_site_type_symbol
_atom_site_fract_x
_atom_site_fract_y
_atom_site_fract_z
Si1 Si 0.31316(3) 0.44936(5) 0.30243(2)
Si2 Si 0.45456(3) 0.62850(5) 0.28364(2)
O1 O 0.33734(8) 0.37403(11) 0.45777(4)
O2 O 0.29863(9) 0.27390(12) 0.51636(4)
N1 N 0.22048(10) 0.43264(14) 0.50307(5)
N2 N 0.38603(10) 0.55367(14) 0.31976(5)
C1 C 0.33148(11) 0.46886(16) 0.43093(6)
C2 C 0.26201(12) 0.54655(16) 0.44158(6)
C3 C 0.20895(12) 0.52649(17) 0.47645(6)
H1 H 0.1635 0.5760 0.4831
C4 C 0.20253(12) 0.45753(18) 0.33047(6)
H2 H 0.2089 0.4391 0.3615
H3 H 0.1623 0.4063 0.3166
H4 H 0.1795 0.5314 0.3278
C5 C 0.25701(13) 0.64430(17) 0.41330(6)
H5 H 0.2124 0.6962 0.4182
C6 C 0.38992(12) 0.48102(16) 0.39796(6)
H6 H 0.4321 0.4261 0.3930
C7 C 0.38879(13) 0.58222(17) 0.36855(6)
H7 H 0.4448 0.6216 0.3738
C8 C 0.28525(11) 0.35607(17) 0.49450(6)
C9 C 0.15980(12) 0.41372(17) 0.54008(6)
C10 C 0.31537(13) 0.66061(17) 0.38043(6)
H8 H 0.3101 0.7252 0.3637
C11 C 0.08983(12) 0.33873(18) 0.53390(6)
C12 C 0.17221(13) 0.47495(17) 0.57934(6)
C13 C 0.07837(13) 0.27584(18) 0.49024(6)
H9 H 0.1368 0.2718 0.4759
C14 C 0.02956(14) 0.3267(2) 0.56894(7)
H10 H -0.0180 0.2781 0.5660
C15 C 0.25134(13) 0.55165(18) 0.58549(6)
H11 H 0.2688 0.5782 0.5558
C16 C 0.39017(15) 0.71220(19) 0.24224(7)
H12 H 0.3713 0.6653 0.2181
H13 H 0.4271 0.7705 0.2308
H14 H 0.3390 0.7437 0.2566
C17 C 0.10965(14) 0.45913(19) 0.61344(6)
H15 H 0.1153 0.4983 0.6400
C18 C 0.52465(14) 0.7285(2) 0.31553(7)
H16 H 0.4871 0.7791 0.3315
H17 H 0.5617 0.7691 0.2952
H18 H 0.5613 0.6888 0.3363
C19 C 0.36096(14) 0.30783(19) 0.31127(7)
H19 H 0.4212 0.3063 0.3007
H20 H 0.3264 0.2544 0.2951
H21 H 0.3598 0.2902 0.3425
C20 C 0.03976(15) 0.3863(2) 0.60815(7)
H22 H -0.0010 0.3771 0.6312
C21 C 0.29195(15) 0.4630(2) 0.24112(7)
H23 H 0.2610 0.5310 0.2354
H24 H 0.2565 0.4017 0.2311
H25 H 0.3475 0.4632 0.2254
C22 C 0.53152(15) 0.5344(2) 0.25310(8)
H26 H 0.5688 0.4964 0.2741
H27 H 0.5678 0.5771 0.2331
H28 H 0.4976 0.4813 0.2364
C23 C 0.23105(16) 0.6531(2) 0.61402(7)
H29 H 0.1790 0.6895 0.6027
H30 H 0.2806 0.7031 0.6130
H31 H 0.2207 0.6304 0.6443
C24 C 0.04587(14) 0.15758(19) 0.49716(8)
H32 H 0.0851 0.1198 0.5173
H33 H 0.0450 0.1195 0.4690
H34 H -0.0130 0.1589 0.5095
C25 C 0.01607(16) 0.3393(2) 0.45861(7)
H35 H -0.0428 0.3403 0.4709
H36 H 0.0150 0.3032 0.4300
H37 H 0.0371 0.4139 0.4551
C26 C 0.33015(16) 0.4870(2) 0.60474(9)
H38 H 0.3145 0.4581 0.6336
H39 H 0.3804 0.5355 0.6077
H40 H 0.3450 0.4270 0.5851
loop_
_geom_bond_atom_site_label_1
_geom_bond_atom_site_label_2
_geom_bond_site_symmetry_1
_geom_bond_site_symmetry_2
Si1 N2 1_555 1_555
Si2 N2 1_555 1_555
O1 C1 1_555 1_555
O2 C8 1_555 1_555
N1 C3 1_555 1_555
N2 C7 1_555 1_555
C1 C2 1_555 1_555
C2 C3 1_555 1_555
C3 H1 1_555 1_555
C4 Si1 1_555 1_555
H2 C4 1_555 1_555
H3 C4 1_555 1_555
H4 C4 1_555 1_555
C5 C2 1_555 1_555
H5 C5 1_555 1_555
C6 C1 1_555 1_555
H6 C6 1_555 1_555
C7 C6 1_555 1_555
H7 C7 1_555 1_555
C8 O1 1_555 1_555
C9 N1 1_555 1_555
C10 C5 1_555 1_555
H8 C10 1_555 1_555
C11 C9 1_555 1_555
C12 C9 1_555 1_555
C13 C11 1_555 1_555
H9 C13 1_555 1_555
C14 C11 1_555 1_555
H10 C14 1_555 1_555
C15 C12 1_555 1_555
H11 C15 1_555 1_555
C16 Si2 1_555 1_555
H12 C16 1_555 1_555
H13 C16 1_555 1_555
H14 C16 1_555 1_555
C17 C12 1_555 1_555
H15 C17 1_555 1_555
C18 Si2 1_555 1_555
H16 C18 1_555 1_555
H17 C18 1_555 1_555
H18 C18 1_555 1_555
C19 Si1 1_555 1_555
H19 C19 1_555 1_555
H20 C19 1_555 1_555
H21 C19 1_555 1_555
C20 C14 1_555 1_555
H22 C20 1_555 1_555
C21 Si1 1_555 1_555
H23 C21 1_555 1_555
H24 C21 1_555 1_555
H25 C21 1_555 1_555
C22 Si2 1_555 1_555
H26 C22 1_555 1_555
H27 C22 1_555 1_555
H28 C22 1_555 1_555
C23 C15 1_555 1_555
H29 C23 1_555 1_555
H30 C23 1_555 1_555
H31 C23 1_555 1_555
C24 C13 1_555 1_555
H32 C24 1_555 1_555
H33 C24 1_555 1_555
H34 C24 1_555 1_555
C25 C13 1_555 1_555
H35 C25 1_555 1_555
H36 C25 1_555 1_555
H37 C25 1_555 1_555
C26 C15 1_555 1_555
H38 C26 1_555 1_555
H39 C26 1_555 1_555
H40 C26 1_555 1_555
N1 C8 1_555 1_555
C7 C10 1_555 1_555
C17 C20 1_555 1_555

#END
