
#######################################################################
#
#                 Cambridge Crystallographic Data Centre
#                                CCDC 
#
#######################################################################
#
# If this CIF has been generated from an entry in the Cambridge 
# Structural Database, then it will include bibliographic, chemical, 
# crystal, experimental, refinement or atomic coordinate data resulting 
# from the CCDC's data processing and validation procedures.
#
#######################################################################

data_IGAJOS
_chemical_formula_moiety         'C20 H21 N1 O2 Se1'
_chemical_name_systematic        
3-[2,6-bis(propan-2-yl)phenyl]-4-selanylidene-3,4-dihydro-2H-1,3-benzoxazin-2-one
_symmetry_cell_setting           monoclinic
_symmetry_space_group_name_H-M   'C 2/c'
_symmetry_Int_Tables_number      15
_space_group_name_Hall           '-C 2yn'
loop_
_symmetry_equiv_pos_site_id
_symmetry_equiv_pos_as_xyz
1 x,y,z
2 -x,y,1/2-z
3 1/2+x,1/2+y,z
4 1/2-x,1/2+y,1/2-z
5 -x,-y,-z
6 x,-y,1/2+z
7 1/2-x,1/2-y,-z
8 1/2+x,1/2-y,1/2+z
_cell_length_a                   14.285(4)
_cell_length_b                   9.516(2)
_cell_length_c                   31.452(9)
_cell_angle_alpha                90
_cell_angle_beta                 98.002(9)
_cell_angle_gamma                90
_cell_volume                     4233.83
_exptl_crystal_colour            'light blue'
_exptl_crystal_description       block
_cell_formula_units_Z            8
_chemical_properties_physical    Light-sensitive
_exptl_crystal_recrystallization_method ether/pentane
loop_
_atom_site_label
_atom_site_type_symbol
_atom_site_fract_x
_atom_site_fract_y
_atom_site_fract_z
Se1 Se 0.72222(10) 0.35331(12) 0.54863(4)
O1 O 0.7354(6) 0.4366(8) 0.6938(2)
N1 N 0.7306(6) 0.5158(8) 0.6221(3)
O2 O 0.7415(7) 0.6630(8) 0.6804(3)
C1 C 0.7287(7) 0.6383(9) 0.5944(3)
C2 C 0.7274(7) 0.3811(10) 0.6044(3)
C3 C 0.7378(8) 0.5449(11) 0.6670(3)
C4 C 0.6421(7) 0.6950(11) 0.5773(3)
C5 C 0.8136(7) 0.6948(10) 0.5868(3)
C6 C 0.6437(8) 0.8099(11) 0.5507(4)
H1 H 0.5857 0.8518 0.5386
C7 C 0.7350(8) 0.2982(11) 0.6794(3)
C8 C 0.7324(7) 0.2681(10) 0.6362(3)
C9 C 0.7319(8) 0.1238(10) 0.6238(4)
H2 H 0.7293 0.0979 0.5945
C10 C 0.9101(8) 0.6331(12) 0.6056(4)
H3 H 0.8981 0.5419 0.6196
C11 C 0.7261(9) 0.8644(11) 0.5416(4)
H4 H 0.7252 0.9431 0.5229
C12 C 0.7326(9) 0.1951(14) 0.7104(4)
H5 H 0.7297 0.2198 0.7394
C13 C 0.7353(9) 0.0225(14) 0.6557(5)
H6 H 0.7383 -0.0739 0.6481
C14 C 0.5483(9) 0.6349(13) 0.5876(5)
H7 H 0.5597 0.5358 0.5975
C15 C 0.8098(10) 0.8076(12) 0.5588(4)
H8 H 0.8670 0.8458 0.5516
C16 C 0.7346(10) 0.0590(14) 0.6985(4)
H9 H 0.7354 -0.0127 0.7196
C17 C 0.9571(11) 0.7336(18) 0.6409(5)
H10 H 0.9566 0.8295 0.6296
H11 H 1.0225 0.7039 0.6501
H12 H 0.9220 0.7309 0.6656
C18 C 0.9736(10) 0.6015(18) 0.5702(5)
H13 H 0.9342 0.5673 0.5442
H14 H 1.0204 0.5296 0.5806
H15 H 1.0062 0.6876 0.5635
C19 C 0.4735(11) 0.6329(18) 0.5477(6)
H16 H 0.4689 0.7264 0.5346
H17 H 0.4122 0.6066 0.5560
H18 H 0.4916 0.5643 0.5271
C20 C 0.5147(12) 0.720(2) 0.6248(5)
H19 H 0.5567 0.7005 0.6515
H20 H 0.4501 0.6916 0.6280
H21 H 0.5160 0.8202 0.6183
loop_
_geom_bond_atom_site_label_1
_geom_bond_atom_site_label_2
_geom_bond_site_symmetry_1
_geom_bond_site_symmetry_2
Se1 C2 1_555 1_555
O1 C3 1_555 1_555
N1 C1 1_555 1_555
O2 C3 1_555 1_555
C1 C4 1_555 1_555
C2 N1 1_555 1_555
C3 N1 1_555 1_555
C4 C6 1_555 1_555
C5 C1 1_555 1_555
C6 H1 1_555 1_555
C7 O1 1_555 1_555
C8 C2 1_555 1_555
C9 C8 1_555 1_555
H2 C9 1_555 1_555
C10 C5 1_555 1_555
H3 C10 1_555 1_555
C11 C6 1_555 1_555
H4 C11 1_555 1_555
C12 C7 1_555 1_555
H5 C12 1_555 1_555
C13 C9 1_555 1_555
H6 C13 1_555 1_555
C14 C4 1_555 1_555
H7 C14 1_555 1_555
C15 C5 1_555 1_555
H8 C15 1_555 1_555
C16 C12 1_555 1_555
H9 C16 1_555 1_555
C17 C10 1_555 1_555
H10 C17 1_555 1_555
H11 C17 1_555 1_555
H12 C17 1_555 1_555
C18 C10 1_555 1_555
H13 C18 1_555 1_555
H14 C18 1_555 1_555
H15 C18 1_555 1_555
C19 C14 1_555 1_555
H16 C19 1_555 1_555
H17 C19 1_555 1_555
H18 C19 1_555 1_555
C20 C14 1_555 1_555
H19 C20 1_555 1_555
H20 C20 1_555 1_555
H21 C20 1_555 1_555
C7 C8 1_555 1_555
C11 C15 1_555 1_555
C13 C16 1_555 1_555

#END
