
#######################################################################
#
#                 Cambridge Crystallographic Data Centre
#                                CCDC 
#
#######################################################################
#
# If this CIF has been generated from an entry in the Cambridge 
# Structural Database, then it will include bibliographic, chemical, 
# crystal, experimental, refinement or atomic coordinate data resulting 
# from the CCDC's data processing and validation procedures.
#
#######################################################################

data_IGAKOT
_chemical_formula_moiety         'C26 H29 N3 O4,C1 H4 O1'
_chemical_name_systematic        
"2',2',8,8-tetramethyl-2,2',3,8',8a,9-hexahydro-1H,5H,6H,7'H,8H,10H-spiro[5a,9a-(epiminomethano)cyclopenta[f]indolizine-7,6'-pyrano[3,2-f]indole]-5,7',10-trione methanol solvate"
_symmetry_cell_setting           triclinic
_symmetry_space_group_name_H-M   'P 1'
_symmetry_Int_Tables_number      1
_space_group_name_Hall           'P 1'
loop_
_symmetry_equiv_pos_site_id
_symmetry_equiv_pos_as_xyz
1 x,y,z
_cell_length_a                   7.01728(18)
_cell_length_b                   8.2752(2)
_cell_length_c                   10.7566(3)
_cell_angle_alpha                93.959(2)
_cell_angle_beta                 106.285(2)
_cell_angle_gamma                95.686(2)
_cell_volume                     593.545
_exptl_crystal_colour            colorless
_exptl_crystal_description       block
_cell_formula_units_Z            1
loop_
_atom_site_label
_atom_site_type_symbol
_atom_site_fract_x
_atom_site_fract_y
_atom_site_fract_z
O1 O 0.6120(2) 0.89281(17) 0.66348(13)
O2 O 0.2929(2) 0.69709(17) 0.29541(14)
O3 O 0.6451(2) -0.02562(19) 0.12017(13)
O4 O 0.3538(2) 0.46462(19) 0.91526(14)
N1 N 0.4724(2) 0.5141(2) 0.74226(15)
H1 H 0.558314 0.445334 0.756916
N2 N 0.3641(2) 0.8156(2) 0.75490(16)
N3 N 0.3539(2) 0.4676(2) 0.18778(15)
H2 H 0.318852 0.495782 0.109879
C1 C 0.5880(3) 0.0851(2) 0.19919(18)
C2 C 0.5490(3) 0.1785(2) 0.40687(18)
H3 H 0.566903 0.166605 0.494606
C3 C 0.4873(3) 0.7882(2) 0.68297(17)
C4 C 0.2163(3) 0.5830(2) 0.54861(18)
H4 H 0.194750 0.672370 0.492991
C5 C 0.5478(3) 0.5483(2) 0.53080(18)
H5 H 0.644156 0.476912 0.570511
H6 H 0.618263 0.640061 0.503921
C6 C 0.4324(3) 0.3223(2) 0.22058(18)
C7 C 0.3853(3) 0.4537(2) 0.41076(17)
C8 C 0.3603(3) 0.5408(2) 0.82186(18)
C9 C 0.3396(3) 0.5590(2) 0.29410(18)
C10 C 0.6176(3) 0.0673(2) 0.33144(18)
C11 C 0.8109(3) -0.1178(2) 0.17672(19)
C12 C -0.0056(3) 0.4133(2) 0.34661(19)
H7 H -0.117232 0.395120 0.381128
H8 H -0.010525 0.324265 0.283221
H9 H -0.011460 0.513295 0.306190
C13 C 0.4416(3) 0.6084(2) 0.62769(17)
C14 C 0.4545(3) 0.3067(2) 0.35212(17)
C15 C 0.1900(3) 0.4250(2) 0.45734(18)
C16 C 0.0879(3) 0.6020(2) 0.64191(19)
H10 H 0.020520 0.496755 0.649791
H11 H -0.012397 0.673672 0.609716
C17 C 0.4947(3) 0.2132(2) 0.14128(18)
H12 H 0.475084 0.224807 0.053355
C18 C 0.7259(3) -0.0660(2) 0.38405(19)
H13 H 0.732946 -0.090617 0.468174
C19 C 0.1879(3) 0.2678(2) 0.52542(19)
H14 H 0.315910 0.265869 0.587592
H15 H 0.160415 0.174714 0.461839
H16 H 0.086112 0.264498 0.569352
C20 C 0.2315(3) 0.6762(2) 0.77595(19)
C21 C 0.7716(3) -0.2728(3) 0.0851(2)
H17 H 0.657144 -0.340053 0.093388
H18 H 0.886284 -0.331041 0.106637
H19 H 0.746457 -0.245438 -0.002907
C22 C 0.3393(3) 0.9716(3) 0.8175(2)
H20 H 0.333685 1.056993 0.759590
H21 H 0.446856 1.004690 0.897030
C23 C 1.0053(3) -0.0187(3) 0.1770(2)
H22 H 0.998787 0.005326 0.089931
H23 H 1.114792 -0.080182 0.208969
H24 H 1.025026 0.081473 0.232164
C24 C 0.8143(3) -0.1525(3) 0.3132(2)
H25 H 0.880846 -0.237704 0.348922
C25 C 0.1348(3) 0.7523(3) 0.8725(2)
H26 H 0.210396 0.741504 0.961395
H27 H -0.001544 0.701585 0.857143
C26 C 0.1397(4) 0.9320(3) 0.8457(2)
H28 H 0.028997 0.947033 0.771534
H29 H 0.133231 1.000576 0.920966
O5 O 0.7129(2) 1.2419(2) 0.75901(16)
H30 H 0.687976 1.143241 0.737906
C27 C 0.8408(4) 1.2715(3) 0.8889(3)
H31 H 0.977753 1.277427 0.888050
H32 H 0.812381 1.184191 0.937870
H33 H 0.818650 1.372755 0.928496
loop_
_geom_bond_atom_site_label_1
_geom_bond_atom_site_label_2
_geom_bond_site_symmetry_1
_geom_bond_site_symmetry_2
O1 C3 1_555 1_555
O2 C9 1_555 1_555
O3 C1 1_555 1_555
O4 C8 1_555 1_555
N1 H1 1_555 1_555
N2 C3 1_555 1_555
N3 H2 1_555 1_555
C1 C10 1_555 1_555
C2 H3 1_555 1_555
C3 C13 1_555 1_555
C4 H4 1_555 1_555
C5 H5 1_555 1_555
H6 C5 1_555 1_555
C6 N3 1_555 1_555
C7 C5 1_555 1_555
C8 N1 1_555 1_555
C9 N3 1_555 1_555
C10 C2 1_555 1_555
C11 O3 1_555 1_555
C12 H7 1_555 1_555
H8 C12 1_555 1_555
H9 C12 1_555 1_555
C13 N1 1_555 1_555
C14 C2 1_555 1_555
C15 C4 1_555 1_555
C16 C4 1_555 1_555
H10 C16 1_555 1_555
H11 C16 1_555 1_555
C17 C1 1_555 1_555
H12 C17 1_555 1_555
C18 C10 1_555 1_555
H13 C18 1_555 1_555
C19 C15 1_555 1_555
H14 C19 1_555 1_555
H15 C19 1_555 1_555
H16 C19 1_555 1_555
C20 N2 1_555 1_555
C21 C11 1_555 1_555
H17 C21 1_555 1_555
H18 C21 1_555 1_555
H19 C21 1_555 1_555
C22 N2 1_555 1_555
H20 C22 1_555 1_555
H21 C22 1_555 1_555
C23 C11 1_555 1_555
H22 C23 1_555 1_555
H23 C23 1_555 1_555
H24 C23 1_555 1_555
C24 C11 1_555 1_555
H25 C24 1_555 1_555
C25 C20 1_555 1_555
H26 C25 1_555 1_555
H27 C25 1_555 1_555
C26 C22 1_555 1_555
H28 C26 1_555 1_555
H29 C26 1_555 1_555
O5 H30 1_555 1_555
C27 O5 1_555 1_555
H31 C27 1_555 1_555
H32 C27 1_555 1_555
H33 C27 1_555 1_555
C4 C13 1_555 1_555
C5 C13 1_555 1_555
C6 C14 1_555 1_555
C6 C17 1_555 1_555
C7 C9 1_555 1_555
C7 C14 1_555 1_555
C7 C15 1_555 1_555
C8 C20 1_555 1_555
C12 C15 1_555 1_555
C16 C20 1_555 1_555
C18 C24 1_555 1_555
C25 C26 1_555 1_555

#END
