
#######################################################################
#
#                 Cambridge Crystallographic Data Centre
#                                CCDC 
#
#######################################################################
#
# If this CIF has been generated from an entry in the Cambridge 
# Structural Database, then it will include bibliographic, chemical, 
# crystal, experimental, refinement or atomic coordinate data resulting 
# from the CCDC's data processing and validation procedures.
#
#######################################################################

data_IGALEK
_chemical_formula_moiety         'C16 H11 Cl2 N1 O2'
_chemical_name_systematic        
3'-(2,4-dichlorophenyl)-1-methylspiro[indole-3,2'-oxiran]-2(1H)-one
_symmetry_cell_setting           monoclinic
_symmetry_space_group_name_H-M   'P 21/c'
_symmetry_Int_Tables_number      14
_space_group_name_Hall           '-P 2ybc'
loop_
_symmetry_equiv_pos_site_id
_symmetry_equiv_pos_as_xyz
1 x,y,z
2 -x,1/2+y,1/2-z
3 -x,-y,-z
4 x,1/2-y,1/2+z
_cell_length_a                   11.445(13)
_cell_length_b                   8.726(9)
_cell_length_c                   14.519(16)
_cell_angle_alpha                90
_cell_angle_beta                 102.75(5)
_cell_angle_gamma                90
_cell_volume                     1414.25
_exptl_crystal_colour            'pale yellow'
_exptl_crystal_description       block
_cell_formula_units_Z            4
loop_
_atom_site_label
_atom_site_type_symbol
_atom_site_fract_x
_atom_site_fract_y
_atom_site_fract_z
Cl1 Cl 0.12220(4) 0.10600(5) 0.44638(3)
Cl2 Cl 0.22831(5) 0.70023(6) 0.51440(4)
C1 C 0.12836(14) 0.2656(2) 0.51932(12)
C2 C 0.09316(16) 0.2527(2) 0.60395(13)
H1 H 0.0678 0.1592 0.6233
C3 C 0.09658(16) 0.3822(2) 0.65929(12)
H2 H 0.0714 0.3754 0.7158
C4 C 0.13643(14) 0.5216(2) 0.63296(11)
C5 C 0.13349(15) 0.6636(2) 0.68839(12)
H3 H 0.0917 0.7499 0.6523
C6 C 0.22811(15) 0.70719(19) 0.77131(11)
C7 C 0.34282(15) 0.62967(19) 0.81130(11)
C8 C 0.37613(16) 0.4782(2) 0.82289(13)
H4 H 0.3204 0.4006 0.8035
C9 C 0.49486(18) 0.4433(2) 0.86423(15)
H5 H 0.5188 0.3415 0.8726
C10 C 0.57698(18) 0.5583(3) 0.89268(16)
H6 H 0.6561 0.5327 0.9195
C11 C 0.17359(14) 0.5279(2) 0.54818(12)
C12 C 0.16891(15) 0.4023(2) 0.49018(12)
H7 H 0.1924 0.4094 0.4330
C13 C 0.54467(18) 0.7113(2) 0.88235(16)
H8 H 0.6006 0.7886 0.9017
C14 C 0.42698(16) 0.7449(2) 0.84251(12)
N1 N 0.37186(14) 0.88949(17) 0.82703(11)
C15 C 0.4317(2) 1.0345(2) 0.85420(16)
H9 H 0.4481 1.0449 0.9217
H10 H 0.3811 1.1171 0.8256
H11 H 0.5056 1.0374 0.8333
C16 C 0.25239(17) 0.8767(2) 0.78902(12)
O1 O 0.18059(13) 0.98074(16) 0.77136(10)
O2 O 0.11507(10) 0.64914(16) 0.78211(9)
loop_
_geom_bond_atom_site_label_1
_geom_bond_atom_site_label_2
_geom_bond_site_symmetry_1
_geom_bond_site_symmetry_2
Cl1 C1 1_555 1_555
Cl2 C11 1_555 1_555
C1 C2 1_555 1_555
C2 H1 1_555 1_555
C3 C2 1_555 1_555
H2 C3 1_555 1_555
C4 C3 1_555 1_555
C5 C4 1_555 1_555
H3 C5 1_555 1_555
C6 C5 1_555 1_555
C7 C6 1_555 1_555
C8 C7 1_555 1_555
H4 C8 1_555 1_555
C9 C8 1_555 1_555
H5 C9 1_555 1_555
C10 C9 1_555 1_555
H6 C10 1_555 1_555
C11 C4 1_555 1_555
C12 C1 1_555 1_555
H7 C12 1_555 1_555
C13 C10 1_555 1_555
H8 C13 1_555 1_555
C14 C7 1_555 1_555
N1 C14 1_555 1_555
C15 N1 1_555 1_555
H9 C15 1_555 1_555
H10 C15 1_555 1_555
H11 C15 1_555 1_555
C16 C6 1_555 1_555
O1 C16 1_555 1_555
O2 C5 1_555 1_555
C6 O2 1_555 1_555
C11 C12 1_555 1_555
C13 C14 1_555 1_555
N1 C16 1_555 1_555

#END
