
#######################################################################
#
#                 Cambridge Crystallographic Data Centre
#                                CCDC 
#
#######################################################################
#
# If this CIF has been generated from an entry in the Cambridge 
# Structural Database, then it will include bibliographic, chemical, 
# crystal, experimental, refinement or atomic coordinate data resulting 
# from the CCDC's data processing and validation procedures.
#
#######################################################################

data_IGAROX
_chemical_formula_moiety         'C12 H18 O3'
_chemical_name_systematic        
8,9-Dimethyl-1-hydroxy-6-methoxybicyclo(4.3.0)non-8-en-7-one
_symmetry_cell_setting           monoclinic
_symmetry_space_group_name_H-M   'P 21/a'
_symmetry_Int_Tables_number      14
_space_group_name_Hall           '-P 2yab'
loop_
_symmetry_equiv_pos_site_id
_symmetry_equiv_pos_as_xyz
1 x,y,z
2 1/2+x,1/2-y,z
3 -x,-y,-z
4 1/2-x,1/2+y,-z
_cell_length_a                   7.8681(3)
_cell_length_b                   12.7181(5)
_cell_length_c                   11.7397(3)
_cell_angle_alpha                90
_cell_angle_beta                 107.332(2)
_cell_angle_gamma                90
_cell_volume                     1121.42
_exptl_crystal_colour            colorless
_exptl_crystal_description       prism
_cell_formula_units_Z            4
loop_
_atom_site_label
_atom_site_type_symbol
_atom_site_fract_x
_atom_site_fract_y
_atom_site_fract_z
O1 O 0.28781(13) -0.04549(7) 0.98994(8)
O2 O 0.04819(11) -0.01205(7) 0.71635(7)
O3 O 0.52248(11) 0.02445(8) 0.75589(9)
H1 H 0.571(3) 0.0331(15) 0.837(2)
C1 C 0.27461(14) 0.00646(9) 0.90031(10)
C2 C 0.28746(15) 0.12208(9) 0.89202(10)
C3 C 0.31091(15) 0.14727(9) 0.78625(11)
C4 C 0.33508(15) 0.04795(9) 0.72058(10)
C5 C 0.27381(19) 0.04201(11) 0.58535(12)
H2 H 0.145(2) 0.0615(12) 0.5517(16)
H3 H 0.343(2) 0.0930(14) 0.5538(15)
C6 C 0.3077(2) -0.06988(12) 0.54733(13)
H4 H 0.438(2) -0.0817(13) 0.5669(15)
H5 H 0.257(3) -0.0779(15) 0.4591(18)
C7 C 0.2279(2) -0.15601(11) 0.60680(12)
H6 H 0.267(2) -0.2251(14) 0.5882(15)
H7 H 0.098(2) -0.1545(13) 0.5729(15)
C8 C 0.28011(19) -0.14496(10) 0.74380(11)
H8 H 0.407(2) -0.1560(12) 0.7798(13)
H9 H 0.218(2) -0.1981(14) 0.7783(14)
C9 C 0.23435(14) -0.03446(9) 0.77232(10)
C10 C -0.0721(2) -0.06520(14) 0.76585(16)
H10 H -0.191(2) -0.0442(14) 0.7250(16)
H11 H -0.053(3) -0.0420(17) 0.851(2)
H12 H -0.059(3) -0.138(2) 0.764(2)
C11 C 0.2762(2) 0.19213(12) 0.99122(14)
H13 H 0.274(3) 0.264(2) 0.973(2)
H14 H 0.337(4) 0.161(2) 1.062(3)
H15 H 0.166(5) 0.179(3) 1.008(3)
C12 C 0.3283(2) 0.25419(11) 0.73907(15)
H16 H 0.450(3) 0.2606(17) 0.727(2)
H17 H 0.313(3) 0.313(2) 0.791(2)
H18 H 0.234(3) 0.2640(16) 0.6651(19)
loop_
_geom_bond_atom_site_label_1
_geom_bond_atom_site_label_2
_geom_bond_site_symmetry_1
_geom_bond_site_symmetry_2
O1 C1 1_555 1_555
O2 C9 1_555 1_555
O3 H1 1_555 1_555
C1 C2 1_555 1_555
C2 C3 1_555 1_555
C3 C4 1_555 1_555
C4 O3 1_555 1_555
C5 C4 1_555 1_555
H2 C5 1_555 1_555
H3 C5 1_555 1_555
C6 C5 1_555 1_555
H4 C6 1_555 1_555
H5 C6 1_555 1_555
C7 C6 1_555 1_555
H6 C7 1_555 1_555
H7 C7 1_555 1_555
C8 C7 1_555 1_555
H8 C8 1_555 1_555
H9 C8 1_555 1_555
C9 C1 1_555 1_555
C10 O2 1_555 1_555
H10 C10 1_555 1_555
H11 C10 1_555 1_555
H12 C10 1_555 1_555
C11 C2 1_555 1_555
H13 C11 1_555 1_555
H14 C11 1_555 1_555
H15 C11 1_555 1_555
C12 C3 1_555 1_555
H16 C12 1_555 1_555
H17 C12 1_555 1_555
H18 C12 1_555 1_555
C4 C9 1_555 1_555
C8 C9 1_555 1_555

#END
