
#######################################################################
#
#                 Cambridge Crystallographic Data Centre
#                                CCDC 
#
#######################################################################
#
# If this CIF has been generated from an entry in the Cambridge 
# Structural Database, then it will include bibliographic, chemical, 
# crystal, experimental, refinement or atomic coordinate data resulting 
# from the CCDC's data processing and validation procedures.
#
#######################################################################

data_IGARIS
_chemical_formula_moiety         'C14 H13 N7'
_chemical_name_systematic        
1-(2-Pyridyl)-N,N'-dipyrimidin-2-ylmethanediamine
_symmetry_cell_setting           monoclinic
_symmetry_space_group_name_H-M   'P 21/n'
_symmetry_Int_Tables_number      14
_space_group_name_Hall           '-P 2yn'
loop_
_symmetry_equiv_pos_site_id
_symmetry_equiv_pos_as_xyz
1 x,y,z
2 1/2-x,1/2+y,1/2-z
3 -x,-y,-z
4 1/2+x,1/2-y,1/2+z
_cell_length_a                   9.5781(19)
_cell_length_b                   9.3543(16)
_cell_length_c                   15.975(4)
_cell_angle_alpha                90
_cell_angle_beta                 97.521(17)
_cell_angle_gamma                90
_cell_volume                     1418.99
_exptl_crystal_colour            colorless
_exptl_crystal_description       plate
_cell_formula_units_Z            4
loop_
_atom_site_label
_atom_site_type_symbol
_atom_site_fract_x
_atom_site_fract_y
_atom_site_fract_z
C1 C 0.9822(4) 0.8397(4) 0.2536(3)
H1 H 1.065(4) 0.909(5) 0.265(3)
C2 C 0.9364(4) 0.7672(5) 0.3161(2)
H2 H 0.973(4) 0.786(4) 0.372(3)
C3 C 0.8303(4) 0.6738(5) 0.2982(2)
H3 H 0.783(4) 0.619(4) 0.328(3)
C4 C 0.7696(3) 0.6561(3) 0.21369(16)
H4 H 0.702(3) 0.604(3) 0.2000(16)
C5 C 0.82060(18) 0.7345(2) 0.15391(11)
C6 C 0.76338(17) 0.7253(2) 0.06118(11)
H5 H 0.7549(19) 0.821(2) 0.0380(12)
C7 C 0.87637(17) 0.6815(2) -0.06540(11)
C8 C 0.8208(3) 0.8159(3) -0.18238(15)
H6 H 0.753(3) 0.896(3) -0.2127(17)
C9 C 0.9149(3) 0.7437(3) -0.22277(16)
H7 H 0.928(3) 0.768(3) -0.2817(19)
C10 C 0.9855(3) 0.6351(3) -0.17964(14)
H8 H 1.054(3) 0.577(3) -0.2047(16)
C11 C 0.50462(17) 0.72192(19) 0.05133(10)
C12 C 0.3865(2) 0.9233(2) 0.07540(14)
H9 H 0.394(2) 1.026(3) 0.0921(14)
C13 C 0.2605(2) 0.8541(3) 0.05806(16)
H10 H 0.170(3) 0.897(3) 0.0602(16)
C14 C 0.2664(2) 0.7119(3) 0.03806(16)
H11 H 0.180(3) 0.652(3) 0.0280(15)
N1 N 0.9275(2) 0.8262(3) 0.17169(15)
N2 N 0.86343(15) 0.65215(18) 0.01597(9)
H12 H 0.915(2) 0.583(2) 0.0422(13)
N3 N 0.7991(2) 0.7869(2) -0.10338(11)
N4 N 0.96897(16) 0.59970(18) -0.10065(10)
N5 N 0.62782(15) 0.65417(19) 0.04528(11)
H13 H 0.623(2) 0.575(2) 0.0285(13)
N6 N 0.51088(15) 0.85980(16) 0.07449(10)
N7 N 0.38702(15) 0.64257(18) 0.03335(11)
loop_
_geom_bond_atom_site_label_1
_geom_bond_atom_site_label_2
_geom_bond_site_symmetry_1
_geom_bond_site_symmetry_2
C1 H1 1_555 1_555
C2 C1 1_555 1_555
H2 C2 1_555 1_555
C3 C2 1_555 1_555
H3 C3 1_555 1_555
C4 C3 1_555 1_555
H4 C4 1_555 1_555
C5 C4 1_555 1_555
C6 C5 1_555 1_555
H5 C6 1_555 1_555
C7 N2 1_555 1_555
C8 H6 1_555 1_555
C9 C8 1_555 1_555
H7 C9 1_555 1_555
C10 C9 1_555 1_555
H8 C10 1_555 1_555
C11 N5 1_555 1_555
C12 H9 1_555 1_555
C13 C12 1_555 1_555
H10 C13 1_555 1_555
C14 C13 1_555 1_555
H11 C14 1_555 1_555
N1 C1 1_555 1_555
N2 C6 1_555 1_555
H12 N2 1_555 1_555
N3 C7 1_555 1_555
N4 C7 1_555 1_555
N5 C6 1_555 1_555
H13 N5 1_555 1_555
N6 C11 1_555 1_555
N7 C11 1_555 1_555
C5 N1 1_555 1_555
C8 N3 1_555 1_555
C10 N4 1_555 1_555
C12 N6 1_555 1_555
C14 N7 1_555 1_555

#END
