
#######################################################################
#
#                 Cambridge Crystallographic Data Centre
#                                CCDC 
#
#######################################################################
#
# If this CIF has been generated from an entry in the Cambridge 
# Structural Database, then it will include bibliographic, chemical, 
# crystal, experimental, refinement or atomic coordinate data resulting 
# from the CCDC's data processing and validation procedures.
#
#######################################################################

data_IGASIS01
_chemical_name_common            
N,N-diethyl-2,2-bis(2-nitrophenylthio)ethenamine
_chemical_formula_moiety         'C18 H19 N3 O4 S2'
_chemical_name_systematic        
1-(N,N-Diethylamino)-2,2-bis(2-nitrophenylthio)ethene
_symmetry_cell_setting           monoclinic
_symmetry_space_group_name_H-M   'P 21/a'
_symmetry_Int_Tables_number      14
_space_group_name_Hall           '-P 2yab'
loop_
_symmetry_equiv_pos_site_id
_symmetry_equiv_pos_as_xyz
1 x,y,z
2 1/2+x,1/2-y,z
3 -x,-y,-z
4 1/2-x,1/2+y,-z
_cell_length_a                   11.1030(4)
_cell_length_b                   15.1325(7)
_cell_length_c                   12.4504(7)
_cell_angle_alpha                90
_cell_angle_beta                 114.606(3)
_cell_angle_gamma                90
_cell_volume                     1901.91
_exptl_crystal_colour            orange
_exptl_crystal_description       needles
_chemical_melting_point          '195-197 deg.C'
_cell_formula_units_Z            4
_exptl_crystal_recrystallization_method ethanol
loop_
_atom_site_label
_atom_site_type_symbol
_atom_site_fract_x
_atom_site_fract_y
_atom_site_fract_z
S1 S 0.65123(10) 0.06746(8) 0.33645(10)
C1 C 0.5160(4) 0.1413(3) 0.2743(4)
C2 C 0.4077(4) 0.1199(3) 0.1675(4)
H1 H 0.4099 0.0666 0.1282
C3 C 0.2983(5) 0.1744(4) 0.1184(5)
H2 H 0.2273 0.1583 0.0460
C4 C 0.2916(6) 0.2530(4) 0.1746(6)
H3 H 0.2156 0.2898 0.1413
C5 C 0.3950(6) 0.2764(3) 0.2777(5)
H4 H 0.3915 0.3298 0.3165
C6 C 0.5060(5) 0.2215(3) 0.3257(4)
N1 N 0.6104(5) 0.2487(3) 0.4393(4)
O1 O 0.5958(5) 0.3207(3) 0.4806(4)
O2 O 0.7051(4) 0.1985(3) 0.4897(3)
S2 S 0.67877(10) 0.00917(8) 0.11787(10)
C7 C 0.8521(4) -0.0043(3) 0.2006(4)
C8 C 0.9039(4) -0.0416(3) 0.3123(4)
H5 H 0.8446 -0.0619 0.3442
C9 C 1.0382(4) -0.0506(3) 0.3791(4)
H6 H 1.0697 -0.0770 0.4552
C10 C 1.1282(4) -0.0208(4) 0.3351(4)
H7 H 1.2208 -0.0270 0.3810
C11 C 1.0817(5) 0.0172(4) 0.2253(4)
H8 H 1.1419 0.0380 0.1946
C12 C 0.9455(4) 0.0250(3) 0.1588(4)
N2 N 0.9038(4) 0.0647(3) 0.0429(4)
O3 O 0.9837(4) 0.1061(3) 0.0191(3)
O4 O 0.7875(3) 0.0530(3) -0.0284(3)
C13 C 0.6181(4) -0.0133(3) 0.2259(4)
C14 C 0.5566(5) -0.0941(4) 0.2075(6)
H9 H 0.5650 -0.1268 0.1459
N3 N 0.4887(5) -0.1360(3) 0.2566(5)
C15 C 0.4711(6) -0.0962(5) 0.3591(7)
H10 H 0.3877 -0.1184 0.3601
H11 H 0.4637 -0.0313 0.3495
C16 C 0.5868(8) -0.1187(5) 0.4766(7)
H12 H 0.5928 -0.1829 0.4875
H13 H 0.5723 -0.0911 0.5415
H14 H 0.6695 -0.0963 0.4762
C17 C 0.4523(7) -0.2278(4) 0.2357(10)
H15 H 0.5029 -0.2622 0.3082
H16 H 0.4756 -0.2504 0.1722
C18 C 0.2983(7) -0.2412(5) 0.1986(8)
H17 H 0.2793 -0.2349 0.2683
H18 H 0.2721 -0.3003 0.1648
H19 H 0.2486 -0.1965 0.1398
loop_
_geom_bond_atom_site_label_1
_geom_bond_atom_site_label_2
_geom_bond_site_symmetry_1
_geom_bond_site_symmetry_2
S1 C1 1_555 1_555
C1 C2 1_555 1_555
C2 H1 1_555 1_555
C3 C2 1_555 1_555
H2 C3 1_555 1_555
C4 C3 1_555 1_555
H3 C4 1_555 1_555
C5 C4 1_555 1_555
H4 C5 1_555 1_555
C6 C1 1_555 1_555
N1 C6 1_555 1_555
O1 N1 1_555 1_555
O2 N1 1_555 1_555
S2 C7 1_555 1_555
C7 C8 1_555 1_555
C8 H5 1_555 1_555
C9 C8 1_555 1_555
H6 C9 1_555 1_555
C10 C9 1_555 1_555
H7 C10 1_555 1_555
C11 C10 1_555 1_555
H8 C11 1_555 1_555
C12 C7 1_555 1_555
N2 C12 1_555 1_555
O3 N2 1_555 1_555
O4 N2 1_555 1_555
C13 S1 1_555 1_555
C14 C13 1_555 1_555
H9 C14 1_555 1_555
N3 C14 1_555 1_555
C15 N3 1_555 1_555
H10 C15 1_555 1_555
H11 C15 1_555 1_555
C16 C15 1_555 1_555
H12 C16 1_555 1_555
H13 C16 1_555 1_555
H14 C16 1_555 1_555
C17 N3 1_555 1_555
H15 C17 1_555 1_555
H16 C17 1_555 1_555
C18 C17 1_555 1_555
H17 C18 1_555 1_555
H18 C18 1_555 1_555
H19 C18 1_555 1_555
C5 C6 1_555 1_555
S2 C13 1_555 1_555
C11 C12 1_555 1_555

#END
