
#######################################################################
#
#                 Cambridge Crystallographic Data Centre
#                                CCDC 
#
#######################################################################
#
# If this CIF has been generated from an entry in the Cambridge 
# Structural Database, then it will include bibliographic, chemical, 
# crystal, experimental, refinement or atomic coordinate data resulting 
# from the CCDC's data processing and validation procedures.
#
#######################################################################

data_IGATOA
_chemical_formula_moiety         'C12 H21 N1 O3'
_chemical_name_systematic        
(3aS,9aR,10S,10aS)-2,2-Dimethyloctahydro-4H-[1,3]dioxolo[4,5-b]quinolizin-10-ol
_symmetry_cell_setting           orthorhombic
_symmetry_space_group_name_H-M   'P 21 21 21'
_symmetry_Int_Tables_number      19
_space_group_name_Hall           'P 2ac 2ab'
loop_
_symmetry_equiv_pos_site_id
_symmetry_equiv_pos_as_xyz
1 x,y,z
2 1/2-x,-y,1/2+z
3 1/2+x,1/2-y,-z
4 -x,1/2+y,1/2-z
_cell_length_a                   9.7250(11)
_cell_length_b                   6.4790(7)
_cell_length_c                   20.325(2)
_cell_angle_alpha                90
_cell_angle_beta                 90
_cell_angle_gamma                90
_cell_volume                     1280.64
_exptl_crystal_colour            colorless
_exptl_crystal_description       needle
_chemical_melting_point          '133-134 deg.C'
_cell_formula_units_Z            4
_exptl_crystal_recrystallization_method 'ethyl acetate/hexanes'
loop_
_atom_site_label
_atom_site_type_symbol
_atom_site_fract_x
_atom_site_fract_y
_atom_site_fract_z
O1 O 0.8765(2) 0.4920(4) 0.62078(10)
C1 C 0.8435(4) 0.5802(6) 0.55755(17)
O2 O 0.7887(2) 0.7825(4) 0.56891(10)
C2 C 0.8155(3) 0.8266(5) 0.63636(13)
H1 H 0.9095 0.8787 0.6412
C3 C 0.7162(3) 0.9730(5) 0.66944(14)
H2 H 0.7242 1.1099 0.6505
H3 H 0.6225 0.9253 0.6636
N1 N 0.7515(2) 0.9783(4) 0.73980(11)
C4 C 0.6537(3) 1.1152(5) 0.77323(16)
H4 H 0.5619 1.0581 0.7693
H5 H 0.6541 1.2488 0.7517
C5 C 0.6879(3) 1.1432(6) 0.84488(16)
H6 H 0.6197 1.2315 0.8653
H7 H 0.7769 1.2096 0.8490
C6 C 0.6909(4) 0.9372(6) 0.87955(16)
H8 H 0.5994 0.8776 0.8800
H9 H 0.7206 0.9556 0.9247
C7 C 0.7896(3) 0.7930(5) 0.84386(13)
H10 H 0.8825 0.8461 0.8478
H11 H 0.7870 0.6581 0.8645
C8 C 0.7533(3) 0.7718(4) 0.77212(13)
H12 H 0.6604 0.7137 0.7693
C9 C 0.8523(3) 0.6234(4) 0.73643(14)
H13 H 0.8462 0.4852 0.7558
C10 C 0.8050(3) 0.6185(5) 0.66639(14)
H14 H 0.7080 0.5775 0.6660
O3 O 0.98896(17) 0.6998(3) 0.74178(10)
H15 H 1.0420 0.6031 0.7476
C11 C 0.9755(5) 0.5919(7) 0.51835(17)
H16 H 1.0370 0.6885 0.5388
H17 H 0.9555 0.6364 0.4743
H18 H 1.0179 0.4581 0.5171
C12 C 0.7326(4) 0.4504(7) 0.52468(17)
H19 H 0.7658 0.3122 0.5186
H20 H 0.7100 0.5092 0.4827
H21 H 0.6521 0.4480 0.5520
loop_
_geom_bond_atom_site_label_1
_geom_bond_atom_site_label_2
_geom_bond_site_symmetry_1
_geom_bond_site_symmetry_2
O1 C1 1_555 1_555
C1 O2 1_555 1_555
O2 C2 1_555 1_555
C2 H1 1_555 1_555
C3 C2 1_555 1_555
H2 C3 1_555 1_555
H3 C3 1_555 1_555
N1 C3 1_555 1_555
C4 N1 1_555 1_555
H4 C4 1_555 1_555
H5 C4 1_555 1_555
C5 C4 1_555 1_555
H6 C5 1_555 1_555
H7 C5 1_555 1_555
C6 C5 1_555 1_555
H8 C6 1_555 1_555
H9 C6 1_555 1_555
C7 C6 1_555 1_555
H10 C7 1_555 1_555
H11 C7 1_555 1_555
C8 N1 1_555 1_555
H12 C8 1_555 1_555
C9 C8 1_555 1_555
H13 C9 1_555 1_555
C10 O1 1_555 1_555
H14 C10 1_555 1_555
O3 C9 1_555 1_555
H15 O3 1_555 1_555
C11 C1 1_555 1_555
H16 C11 1_555 1_555
H17 C11 1_555 1_555
H18 C11 1_555 1_555
C12 C1 1_555 1_555
H19 C12 1_555 1_555
H20 C12 1_555 1_555
H21 C12 1_555 1_555
C2 C10 1_555 1_555
C7 C8 1_555 1_555
C9 C10 1_555 1_555

#END
