
#######################################################################
#
#                 Cambridge Crystallographic Data Centre
#                                CCDC 
#
#######################################################################
#
# If this CIF has been generated from an entry in the Cambridge 
# Structural Database, then it will include bibliographic, chemical, 
# crystal, experimental, refinement or atomic coordinate data resulting 
# from the CCDC's data processing and validation procedures.
#
#######################################################################

data_IGATIU
_chemical_formula_moiety         'C27 H21 Br1 Cl2 N2 O2 Se1'
_chemical_name_systematic        
'(2Z,5Z)-Methyl 4-(4-bromobenzylamino)-5-(3,4-dichlorophenylimino)-2-(2-phenylethylidene)-2,5-dihydroselenophene-3-carboxylate'
_symmetry_cell_setting           triclinic
_symmetry_space_group_name_H-M   'P -1'
_symmetry_Int_Tables_number      2
_space_group_name_Hall           '-P 1'
loop_
_symmetry_equiv_pos_site_id
_symmetry_equiv_pos_as_xyz
1 x,y,z
2 -x,-y,-z
_cell_length_a                   9.781(2)
_cell_length_b                   11.518(2)
_cell_length_c                   11.812(2)
_cell_angle_alpha                88.96(3)
_cell_angle_beta                 72.07(3)
_cell_angle_gamma                80.99(3)
_cell_volume                     1249.82
_exptl_crystal_colour            yellow
_chemical_melting_point          '121-122 deg.C'
_cell_formula_units_Z            2
loop_
_atom_site_label
_atom_site_type_symbol
_atom_site_fract_x
_atom_site_fract_y
_atom_site_fract_z
Se1 Se 1.10363(3) 0.24579(3) 0.37834(3)
Br1 Br 0.65616(4) -0.20558(3) 0.94542(3)
Cl1 Cl 1.61971(8) -0.00200(7) 0.24160(7)
Cl2 Cl 1.57762(10) -0.26624(8) 0.30198(9)
O1 O 0.7246(3) 0.47691(19) 0.73743(19)
O2 O 0.6723(2) 0.5059(2) 0.5672(2)
N1 N 0.9387(3) 0.3056(2) 0.7385(2)
N2 N 1.1428(3) 0.1231(2) 0.5830(2)
C1 C 0.7649(4) 0.1215(3) 0.8364(3)
H1 H 0.7179 0.1929 0.8143
C2 C 0.6896(3) 0.0272(3) 0.8685(3)
H2 H 0.5919 0.0334 0.8678
C3 C 0.7590(3) -0.0758(3) 0.9014(3)
C4 C 0.9001(3) -0.0875(3) 0.9014(3)
H3 H 0.9466 -0.1590 0.9236
C5 C 0.9746(3) 0.0078(3) 0.8682(3)
H4 H 1.0730 0.0003 0.8675
C6 C 0.9090(3) 0.1125(3) 0.8364(3)
C7 C 0.9877(4) 0.2173(3) 0.8143(3)
H5 H 0.9755 0.2555 0.8919
H6 H 1.0929 0.1891 0.7769
C8 C 0.9646(3) 0.3009(3) 0.6187(3)
C9 C 1.0788(3) 0.2117(3) 0.5417(3)
C10 C 0.9400(3) 0.3680(3) 0.4296(3)
C11 C 0.8873(3) 0.3780(3) 0.5605(3)
C12 C 0.7587(4) 0.4564(3) 0.6298(3)
C13 C 0.5421(4) 0.5819(3) 0.6345(3)
H7 H 0.4829 0.5373 0.6970
H8 H 0.4863 0.6129 0.5814
H9 H 0.5685 0.6473 0.6710
C14 C 0.8934(3) 0.4324(3) 0.3488(3)
H10 H 0.8115 0.4924 0.3782
C15 C 0.9592(3) 0.4178(3) 0.2166(3)
H11 H 1.0365 0.3479 0.1981
H12 H 1.0054 0.4874 0.1859
C16 C 0.8492(3) 0.4031(3) 0.1527(3)
C17 C 0.8136(3) 0.4901(3) 0.0785(3)
H13 H 0.8558 0.5600 0.0698
C18 C 0.7163(3) 0.4750(3) 0.0170(3)
H14 H 0.6926 0.5344 -0.0338
C19 C 0.6543(3) 0.3736(3) 0.0300(3)
H15 H 0.5888 0.3632 -0.0125
C20 C 0.6870(3) 0.2876(3) 0.1043(3)
H16 H 0.6439 0.2182 0.1133
C21 C 0.7838(3) 0.3028(3) 0.1663(3)
H17 H 0.8052 0.2439 0.2184
C22 C 1.2464(3) 0.0357(3) 0.5100(3)
C23 C 1.3686(3) 0.0581(3) 0.4180(3)
H18 H 1.3814 0.1370 0.3989
C24 C 1.4699(3) -0.0330(3) 0.3551(3)
C25 C 1.4523(3) -0.1498(3) 0.3801(3)
C26 C 1.3317(3) -0.1731(3) 0.4715(3)
H19 H 1.3191 -0.2522 0.4895
C27 C 1.2298(4) -0.0819(3) 0.5365(3)
H20 H 1.1483 -0.0988 0.5993
H21 H 0.870(4) 0.349(3) 0.769(3)
loop_
_geom_bond_atom_site_label_1
_geom_bond_atom_site_label_2
_geom_bond_site_symmetry_1
_geom_bond_site_symmetry_2
Se1 C9 1_555 1_555
Br1 C3 1_555 1_555
Cl1 C24 1_555 1_555
Cl2 C25 1_555 1_555
O1 C12 1_555 1_555
O2 C12 1_555 1_555
N1 C7 1_555 1_555
N2 C9 1_555 1_555
C1 H1 1_555 1_555
C2 C1 1_555 1_555
H2 C2 1_555 1_555
C3 C2 1_555 1_555
C4 C3 1_555 1_555
H3 C4 1_555 1_555
C5 C4 1_555 1_555
H4 C5 1_555 1_555
C6 C1 1_555 1_555
C7 C6 1_555 1_555
H5 C7 1_555 1_555
H6 C7 1_555 1_555
C8 N1 1_555 1_555
C9 C8 1_555 1_555
C10 Se1 1_555 1_555
C11 C8 1_555 1_555
C12 C11 1_555 1_555
C13 O2 1_555 1_555
H7 C13 1_555 1_555
H8 C13 1_555 1_555
H9 C13 1_555 1_555
C14 C10 1_555 1_555
H10 C14 1_555 1_555
C15 C14 1_555 1_555
H11 C15 1_555 1_555
H12 C15 1_555 1_555
C16 C15 1_555 1_555
C17 C16 1_555 1_555
H13 C17 1_555 1_555
C18 C17 1_555 1_555
H14 C18 1_555 1_555
C19 C18 1_555 1_555
H15 C19 1_555 1_555
C20 C19 1_555 1_555
H16 C20 1_555 1_555
C21 C16 1_555 1_555
H17 C21 1_555 1_555
C22 N2 1_555 1_555
C23 C22 1_555 1_555
H18 C23 1_555 1_555
C24 C23 1_555 1_555
C25 C24 1_555 1_555
C26 C25 1_555 1_555
H19 C26 1_555 1_555
C27 C22 1_555 1_555
H20 C27 1_555 1_555
H21 N1 1_555 1_555
C5 C6 1_555 1_555
C10 C11 1_555 1_555
C20 C21 1_555 1_555
C26 C27 1_555 1_555

#END
