
#######################################################################
#
#                 Cambridge Crystallographic Data Centre
#                                CCDC 
#
#######################################################################
#
# If this CIF has been generated from an entry in the Cambridge 
# Structural Database, then it will include bibliographic, chemical, 
# crystal, experimental, refinement or atomic coordinate data resulting 
# from the CCDC's data processing and validation procedures.
#
#######################################################################

data_IGAVAP
_chemical_formula_moiety         'C21 H17 N2 P1'
_chemical_name_systematic        
4-Diphenylphosphanyl-8-methyl-1,5-naphthyridine
_symmetry_cell_setting           triclinic
_symmetry_space_group_name_H-M   'P -1'
_symmetry_Int_Tables_number      2
_space_group_name_Hall           '-P 1'
loop_
_symmetry_equiv_pos_site_id
_symmetry_equiv_pos_as_xyz
1 x,y,z
2 -x,-y,-z
_cell_length_a                   7.2320(14)
_cell_length_b                   7.4470(15)
_cell_length_c                   16.780(3)
_cell_angle_alpha                99.78(3)
_cell_angle_beta                 93.35(3)
_cell_angle_gamma                98.58(3)
_cell_volume                     877.354
_exptl_crystal_colour            yellow
_exptl_crystal_description       block
_cell_formula_units_Z            2
loop_
_atom_site_label
_atom_site_type_symbol
_atom_site_fract_x
_atom_site_fract_y
_atom_site_fract_z
P1 P 0.18105(10) 0.17196(9) 0.71974(4)
N1 N 0.2284(3) 0.3164(3) 0.89550(13)
C1 C -0.0068(5) -0.0965(4) 0.59708(17)
H1 H -0.1116 -0.0650 0.6223
N2 N 0.2453(3) -0.1579(3) 0.92992(13)
C2 C -0.0308(6) -0.2312(5) 0.5287(2)
H2 H -0.1507 -0.2917 0.5087
C3 C 0.1213(7) -0.2762(5) 0.4901(2)
H3 H 0.1048 -0.3655 0.4432
C4 C 0.2974(6) -0.1907(5) 0.5202(2)
H4 H 0.4009 -0.2230 0.4942
C5 C 0.3227(5) -0.0553(4) 0.58980(18)
H5 H 0.4433 0.0028 0.6098
C6 C 0.1710(4) -0.0060(3) 0.62951(15)
C7 C 0.4103(3) 0.3111(3) 0.71826(14)
C8 C 0.5758(4) 0.2855(4) 0.75679(17)
H6 H 0.5754 0.1889 0.7854
C9 C 0.7416(4) 0.4013(4) 0.75339(19)
H7 H 0.8516 0.3842 0.7806
C10 C 0.7445(5) 0.5412(4) 0.7101(2)
H8 H 0.8568 0.6181 0.7071
C11 C 0.5835(5) 0.5682(4) 0.6713(2)
H9 H 0.5859 0.6635 0.6419
C12 C 0.4175(4) 0.4557(3) 0.67539(17)
H10 H 0.3080 0.4764 0.6491
C13 C 0.2210(3) 0.0390(3) 0.79998(14)
C14 C 0.2313(3) 0.1306(3) 0.88168(14)
C15 C 0.2393(5) 0.3962(4) 0.97172(18)
H11 H 0.2379 0.5226 0.9827
C16 C 0.2527(4) 0.3065(4) 1.03778(18)
H12 H 0.2609 0.3736 1.0903
C17 C 0.2539(3) 0.1222(4) 1.02590(15)
C18 C 0.2437(3) 0.0284(3) 0.94493(15)
C19 C 0.2366(4) -0.2382(3) 0.85361(17)
H13 H 0.2389 -0.3645 0.8426
C20 C 0.2241(4) -0.1471(3) 0.78760(16)
H14 H 0.2179 -0.2133 0.7350
C21 C 0.2657(4) 0.0179(4) 1.09549(16)
H15 H 0.2718 0.1022 1.1460
H16 H 0.3761 -0.0394 1.0935
H17 H 0.1565 -0.0752 1.0911
loop_
_geom_bond_atom_site_label_1
_geom_bond_atom_site_label_2
_geom_bond_site_symmetry_1
_geom_bond_site_symmetry_2
P1 C6 1_555 1_555
N1 C14 1_555 1_555
C1 H1 1_555 1_555
N2 C18 1_555 1_555
C2 C1 1_555 1_555
H2 C2 1_555 1_555
C3 C2 1_555 1_555
H3 C3 1_555 1_555
C4 C3 1_555 1_555
H4 C4 1_555 1_555
C5 C4 1_555 1_555
H5 C5 1_555 1_555
C6 C1 1_555 1_555
C7 P1 1_555 1_555
C8 C7 1_555 1_555
H6 C8 1_555 1_555
C9 C8 1_555 1_555
H7 C9 1_555 1_555
C10 C9 1_555 1_555
H8 C10 1_555 1_555
C11 C10 1_555 1_555
H9 C11 1_555 1_555
C12 C7 1_555 1_555
H10 C12 1_555 1_555
C13 P1 1_555 1_555
C14 C13 1_555 1_555
C15 N1 1_555 1_555
H11 C15 1_555 1_555
C16 C15 1_555 1_555
H12 C16 1_555 1_555
C17 C16 1_555 1_555
C18 C14 1_555 1_555
C19 N2 1_555 1_555
H13 C19 1_555 1_555
C20 C13 1_555 1_555
H14 C20 1_555 1_555
C21 C17 1_555 1_555
H15 C21 1_555 1_555
H16 C21 1_555 1_555
H17 C21 1_555 1_555
C5 C6 1_555 1_555
C11 C12 1_555 1_555
C17 C18 1_555 1_555
C19 C20 1_555 1_555

#END
