
#######################################################################
#
#                 Cambridge Crystallographic Data Centre
#                                CCDC 
#
#######################################################################
#
# If this CIF has been generated from an entry in the Cambridge 
# Structural Database, then it will include bibliographic, chemical, 
# crystal, experimental, refinement or atomic coordinate data resulting 
# from the CCDC's data processing and validation procedures.
#
#######################################################################

data_IGEBOM01
_chemical_formula_moiety         'C34 H22'
_chemical_name_systematic        9-(di-1-naphthylmethylene)-9H-fluorene
_symmetry_cell_setting           monoclinic
_symmetry_space_group_name_H-M   'P 21/c'
_symmetry_Int_Tables_number      14
_space_group_name_Hall           '-P 2ybc'
loop_
_symmetry_equiv_pos_site_id
_symmetry_equiv_pos_as_xyz
1 x,y,z
2 -x,1/2+y,1/2-z
3 -x,-y,-z
4 x,1/2-y,1/2+z
_cell_length_a                   12.5099(18)
_cell_length_b                   13.0134(19)
_cell_length_c                   14.188(2)
_cell_angle_alpha                90
_cell_angle_beta                 99.235(2)
_cell_angle_gamma                90
_cell_volume                     2279.82
_cell_formula_units_Z            4
loop_
_atom_site_label
_atom_site_type_symbol
_atom_site_fract_x
_atom_site_fract_y
_atom_site_fract_z
C1 C 0.24794(9) 0.77742(9) 0.00862(8)
C2 C 0.17645(9) 0.77567(10) -0.08619(8)
C3 C 0.15511(12) 0.70039(12) -0.15661(10)
H1 H 0.1880 0.6362 -0.1480
C4 C 0.08406(13) 0.72255(14) -0.23977(10)
H2 H 0.0695 0.6726 -0.2869
C5 C 0.03451(13) 0.81756(15) -0.25377(11)
H3 H -0.0133 0.8305 -0.3098
C6 C 0.05555(12) 0.89319(13) -0.18539(11)
H4 H 0.0228 0.9573 -0.1951
C7 C 0.12610(10) 0.87245(11) -0.10188(9)
C8 C 0.16116(10) 0.93771(10) -0.01844(9)
C9 C 0.13238(12) 1.03782(11) 0.00068(12)
H5 H 0.0853 1.0749 -0.0442
C10 C 0.17456(13) 1.08128(11) 0.08707(12)
H6 H 0.1566 1.1485 0.1003
C11 C 0.24334(13) 1.02596(11) 0.15436(11)
H7 H 0.2701 1.0561 0.2128
C12 C 0.27309(11) 0.92613(10) 0.13618(9)
H8 H 0.3193 0.8894 0.1821
C13 C 0.23306(9) 0.88155(9) 0.04853(8)
C14 C 0.31363(9) 0.70176(9) 0.04873(8)
C15 C 0.31621(10) 0.59830(9) 0.00241(8)
C16 C 0.39163(11) 0.57930(12) -0.05576(9)
H9 H 0.4406 0.6305 -0.0656
C17 C 0.39585(13) 0.48278(13) -0.10097(11)
H10 H 0.4467 0.4714 -0.1410
C18 C 0.32631(13) 0.40680(12) -0.08628(10)
H11 H 0.3304 0.3436 -0.1160
C19 C 0.24793(11) 0.42218(10) -0.02660(9)
C20 C 0.17422(13) 0.34401(11) -0.01003(11)
H12 H 0.1783 0.2801 -0.0385
C21 C 0.09821(13) 0.35993(12) 0.04605(12)
H13 H 0.0510 0.3073 0.0560
C22 C 0.09072(12) 0.45617(12) 0.08933(12)
H14 H 0.0381 0.4672 0.1277
C23 C 0.16017(11) 0.53380(10) 0.07558(10)
H15 H 0.1538 0.5971 0.1046
C24 C 0.24159(10) 0.51977(9) 0.01804(8)
C25 C 0.39125(10) 0.71199(9) 0.14031(8)
C26 C 0.37646(13) 0.65328(11) 0.21779(9)
H16 H 0.3166 0.6101 0.2131
C27 C 0.44974(14) 0.65707(12) 0.30381(10)
H17 H 0.4380 0.6164 0.3551
C28 C 0.53743(13) 0.71952(12) 0.31264(9)
H18 H 0.5845 0.7224 0.3704
C29 C 0.55820(10) 0.78037(10) 0.23513(8)
C30 C 0.65098(12) 0.84351(12) 0.24161(11)
H19 H 0.6984 0.8473 0.2991
C31 C 0.67242(13) 0.89880(13) 0.16551(12)
H20 H 0.7344 0.9392 0.1711
C32 C 0.60090(12) 0.89494(12) 0.07854(11)
H21 H 0.6158 0.9329 0.0266
C33 C 0.50953(11) 0.83574(10) 0.06973(9)
H22 H 0.4627 0.8343 0.0118
C34 C 0.48475(9) 0.77649(9) 0.14722(8)
loop_
_geom_bond_atom_site_label_1
_geom_bond_atom_site_label_2
_geom_bond_site_symmetry_1
_geom_bond_site_symmetry_2
C1 C2 1_555 1_555
C2 C3 1_555 1_555
C3 H1 1_555 1_555
C4 C3 1_555 1_555
H2 C4 1_555 1_555
C5 C4 1_555 1_555
H3 C5 1_555 1_555
C6 C5 1_555 1_555
H4 C6 1_555 1_555
C7 C2 1_555 1_555
C8 C7 1_555 1_555
C9 C8 1_555 1_555
H5 C9 1_555 1_555
C10 C9 1_555 1_555
H6 C10 1_555 1_555
C11 C10 1_555 1_555
H7 C11 1_555 1_555
C12 C11 1_555 1_555
H8 C12 1_555 1_555
C13 C1 1_555 1_555
C14 C1 1_555 1_555
C15 C14 1_555 1_555
C16 C15 1_555 1_555
H9 C16 1_555 1_555
C17 C16 1_555 1_555
H10 C17 1_555 1_555
C18 C17 1_555 1_555
H11 C18 1_555 1_555
C19 C18 1_555 1_555
C20 C19 1_555 1_555
H12 C20 1_555 1_555
C21 C20 1_555 1_555
H13 C21 1_555 1_555
C22 C21 1_555 1_555
H14 C22 1_555 1_555
C23 C22 1_555 1_555
H15 C23 1_555 1_555
C24 C15 1_555 1_555
C25 C14 1_555 1_555
C26 C25 1_555 1_555
H16 C26 1_555 1_555
C27 C26 1_555 1_555
H17 C27 1_555 1_555
C28 C27 1_555 1_555
H18 C28 1_555 1_555
C29 C28 1_555 1_555
C30 C29 1_555 1_555
H19 C30 1_555 1_555
C31 C30 1_555 1_555
H20 C31 1_555 1_555
C32 C31 1_555 1_555
H21 C32 1_555 1_555
C33 C32 1_555 1_555
H22 C33 1_555 1_555
C34 C25 1_555 1_555
C6 C7 1_555 1_555
C8 C13 1_555 1_555
C12 C13 1_555 1_555
C19 C24 1_555 1_555
C23 C24 1_555 1_555
C29 C34 1_555 1_555
C33 C34 1_555 1_555

#END
