
#######################################################################
#
#                 Cambridge Crystallographic Data Centre
#                                CCDC 
#
#######################################################################
#
# If this CIF has been generated from an entry in the Cambridge 
# Structural Database, then it will include bibliographic, chemical, 
# crystal, experimental, refinement or atomic coordinate data resulting 
# from the CCDC's data processing and validation procedures.
#
#######################################################################

data_IGECAA
_chemical_formula_moiety         'C48 H36 N2 O8'
_chemical_name_systematic        
"tetramethyl 4,4',4'',4'''-(buta-1,3-diyne-1,4-diylbis(4,1-phenylenenitrilo))tetrabenzoate"
_symmetry_cell_setting           monoclinic
_symmetry_space_group_name_H-M   'P 21/n'
_symmetry_Int_Tables_number      14
_space_group_name_Hall           '-P 2yn'
loop_
_symmetry_equiv_pos_site_id
_symmetry_equiv_pos_as_xyz
1 x,y,z
2 1/2-x,1/2+y,1/2-z
3 -x,-y,-z
4 1/2+x,1/2-y,1/2+z
_cell_length_a                   11.6944(18)
_cell_length_b                   10.2243(16)
_cell_length_c                   16.901(3)
_cell_angle_alpha                90
_cell_angle_beta                 96.579(4)
_cell_angle_gamma                90
_cell_volume                     2007.5
_exptl_crystal_colour            yellow
_exptl_crystal_description       Block
_cell_formula_units_Z            2
loop_
_atom_site_label
_atom_site_type_symbol
_atom_site_fract_x
_atom_site_fract_y
_atom_site_fract_z
N1 N 0.19893(14) 0.65595(15) 0.16275(10)
O1 O 0.65545(12) 0.97036(15) 0.12108(9)
C1 C 0.10236(16) 0.86110(19) 0.18705(12)
H1 H 0.1388 0.9016 0.1475
C2 C 0.12680(15) 0.73281(18) 0.20682(11)
O2 O -0.14081(13) 1.05945(16) 0.29922(11)
C3 C 0.15847(16) 0.53353(17) 0.13146(11)
C4 C 0.49646(17) 0.83163(18) 0.09443(12)
C5 C 0.07952(17) 0.29139(19) 0.07145(11)
C6 C 0.19692(18) 0.31806(19) 0.08539(11)
H2 H 0.2498 0.2550 0.0738
C7 C -0.00172(18) 0.7439(2) 0.30674(12)
H3 H -0.0361 0.7040 0.3475
C8 C 0.30019(16) 0.71257(17) 0.13944(11)
C9 C 0.04151(17) 0.50846(19) 0.11626(12)
H4 H -0.0112 0.5734 0.1253
C10 C -0.12389(19) 0.9359(2) 0.32236(13)
C11 C -0.03161(16) 0.87099(19) 0.28455(11)
C12 C 0.02362(16) 0.9301(2) 0.22602(12)
H5 H 0.0078 1.0170 0.2127
C13 C 0.01498(18) 0.0608(2) 0.01495(12)
C14 C 0.37288(16) 0.78237(19) 0.19425(12)
H6 H 0.3562 0.7896 0.2466
C15 C 0.07791(18) 0.67623(19) 0.26933(12)
H7 H 0.0991 0.5921 0.2860
O3 O 0.62336(15) 0.88424(17) -0.00057(11)
C16 C 0.00262(18) 0.3880(2) 0.08790(12)
H8 H -0.0761 0.3715 0.0797
C17 C 0.04173(18) 0.1660(2) 0.04067(12)
C18 C 0.23521(16) 0.43663(18) 0.11602(11)
H9 H 0.3139 0.4519 0.1265
C19 C 0.32841(18) 0.6997(2) 0.06287(12)
H10 H 0.2812 0.6511 0.0258
C20 C 0.47005(17) 0.84137(19) 0.17170(12)
H11 H 0.5184 0.8883 0.2090
O4 O -0.18247(18) 0.88279(19) 0.36712(12)
C21 C 0.42544(19) 0.7577(2) 0.04090(13)
H12 H 0.4438 0.7472 -0.0108
C22 C 0.59700(18) 0.8960(2) 0.06570(14)
C23 C 0.75692(19) 1.0336(3) 0.09809(17)
H13 H 0.7926 1.0845 0.1419
H14 H 0.7356 1.0898 0.0533
H15 H 0.8101 0.9685 0.0838
C24 C -0.2359(2) 1.1261(3) 0.3286(2)
H16 H -0.2403 1.2140 0.3085
H17 H -0.2247 1.1278 0.3857
H18 H -0.3062 1.0808 0.3110
N1B N -0.19893(14) -0.65595(15) -0.16275(10)
O1B O -0.65545(12) -0.97036(15) -0.12108(9)
C1B C -0.10236(16) -0.86110(19) -0.18705(12)
H1B H -0.1388 -0.9016 -0.1475
C2B C -0.12680(15) -0.73281(18) -0.20682(11)
O2B O 0.14081(13) -1.05945(16) -0.29922(11)
C3B C -0.15847(16) -0.53353(17) -0.13146(11)
C4B C -0.49646(17) -0.83163(18) -0.09443(12)
C5B C -0.07952(17) -0.29139(19) -0.07145(11)
C6B C -0.19692(18) -0.31806(19) -0.08539(11)
H2B H -0.2498 -0.2550 -0.0738
C7B C 0.00172(18) -0.7439(2) -0.30674(12)
H3B H 0.0361 -0.7040 -0.3475
C8B C -0.30019(16) -0.71257(17) -0.13944(11)
C9B C -0.04151(17) -0.50846(19) -0.11626(12)
H4B H 0.0112 -0.5734 -0.1253
C10B C 0.12389(19) -0.9359(2) -0.32236(13)
C11B C 0.03161(16) -0.87099(19) -0.28455(11)
C12B C -0.02362(16) -0.9301(2) -0.22602(12)
H5B H -0.0078 -1.0170 -0.2127
C13B C -0.01498(18) -0.0608(2) -0.01495(12)
C14B C -0.37288(16) -0.78237(19) -0.19425(12)
H6B H -0.3562 -0.7896 -0.2466
C15B C -0.07791(18) -0.67623(19) -0.26933(12)
H7B H -0.0991 -0.5921 -0.2860
O3B O -0.62336(15) -0.88424(17) 0.00057(11)
C16B C -0.00262(18) -0.3880(2) -0.08790(12)
H8B H 0.0761 -0.3715 -0.0797
C17B C -0.04173(18) -0.1660(2) -0.04067(12)
C18B C -0.23521(16) -0.43663(18) -0.11602(11)
H9B H -0.3139 -0.4519 -0.1265
C19B C -0.32841(18) -0.6997(2) -0.06287(12)
H10B H -0.2812 -0.6511 -0.0258
C20B C -0.47005(17) -0.84137(19) -0.17170(12)
H11B H -0.5184 -0.8883 -0.2090
O4B O 0.18247(18) -0.88279(19) -0.36712(12)
C21B C -0.42544(19) -0.7577(2) -0.04090(13)
H12B H -0.4438 -0.7472 0.0108
C22B C -0.59700(18) -0.8960(2) -0.06570(14)
C23B C -0.75692(19) -1.0336(3) -0.09809(17)
H13B H -0.7926 -1.0845 -0.1419
H14B H -0.7356 -1.0898 -0.0533
H15B H -0.8101 -0.9685 -0.0838
C24B C 0.2359(2) -1.1261(3) -0.3286(2)
H16B H 0.2403 -1.2140 -0.3085
H17B H 0.2247 -1.1278 -0.3857
H18B H 0.3062 -1.0808 -0.3110
loop_
_geom_bond_atom_site_label_1
_geom_bond_atom_site_label_2
_geom_bond_site_symmetry_1
_geom_bond_site_symmetry_2
N1 C2 1_555 1_555
O1 C22 1_555 1_555
C1 H1 1_555 1_555
C2 C1 1_555 1_555
O2 C10 1_555 1_555
C3 N1 1_555 1_555
C4 C20 1_555 1_555
C5 C6 1_555 1_555
C6 H2 1_555 1_555
C7 H3 1_555 1_555
C8 N1 1_555 1_555
C9 C3 1_555 1_555
H4 C9 1_555 1_555
C10 C11 1_555 1_555
C11 C7 1_555 1_555
C12 C1 1_555 1_555
H5 C12 1_555 1_555
C13 C17 1_555 1_555
C14 C8 1_555 1_555
H6 C14 1_555 1_555
C15 C2 1_555 1_555
H7 C15 1_555 1_555
O3 C22 1_555 1_555
C16 C5 1_555 1_555
H8 C16 1_555 1_555
C17 C5 1_555 1_555
C18 C3 1_555 1_555
H9 C18 1_555 1_555
C19 C8 1_555 1_555
H10 C19 1_555 1_555
C20 C14 1_555 1_555
H11 C20 1_555 1_555
O4 C10 1_555 1_555
C21 C4 1_555 1_555
H12 C21 1_555 1_555
C22 C4 1_555 1_555
C23 O1 1_555 1_555
H13 C23 1_555 1_555
H14 C23 1_555 1_555
H15 C23 1_555 1_555
C24 O2 1_555 1_555
H16 C24 1_555 1_555
H17 C24 1_555 1_555
H18 C24 1_555 1_555
N1B C2B 1_555 1_555
O1B C22B 1_555 1_555
C1B H1B 1_555 1_555
C2B C1B 1_555 1_555
O2B C10B 1_555 1_555
C3B N1B 1_555 1_555
C4B C20B 1_555 1_555
C5B C6B 1_555 1_555
C6B H2B 1_555 1_555
C7B H3B 1_555 1_555
C8B N1B 1_555 1_555
C9B C3B 1_555 1_555
H4B C9B 1_555 1_555
C10B C11B 1_555 1_555
C11B C7B 1_555 1_555
C12B C1B 1_555 1_555
H5B C12B 1_555 1_555
C13B C13 1_555 1_555
C14B C8B 1_555 1_555
H6B C14B 1_555 1_555
C15B C2B 1_555 1_555
H7B C15B 1_555 1_555
O3B C22B 1_555 1_555
C16B C5B 1_555 1_555
H8B C16B 1_555 1_555
C17B C5B 1_555 1_555
C18B C3B 1_555 1_555
H9B C18B 1_555 1_555
C19B C8B 1_555 1_555
H10B C19B 1_555 1_555
C20B C14B 1_555 1_555
H11B C20B 1_555 1_555
O4B C10B 1_555 1_555
C21B C4B 1_555 1_555
H12B C21B 1_555 1_555
C22B C4B 1_555 1_555
C23B O1B 1_555 1_555
H13B C23B 1_555 1_555
H14B C23B 1_555 1_555
H15B C23B 1_555 1_555
C24B O2B 1_555 1_555
H16B C24B 1_555 1_555
H17B C24B 1_555 1_555
H18B C24B 1_555 1_555
C6 C18 1_555 1_555
C7 C15 1_555 1_555
C9 C16 1_555 1_555
C11 C12 1_555 1_555
C19 C21 1_555 1_555
C6B C18B 1_555 1_555
C7B C15B 1_555 1_555
C9B C16B 1_555 1_555
C11B C12B 1_555 1_555
C13B C17B 1_555 1_555
C19B C21B 1_555 1_555

#END
