
#######################################################################
#
#                 Cambridge Crystallographic Data Centre
#                                CCDC 
#
#######################################################################
#
# If this CIF has been generated from an entry in the Cambridge 
# Structural Database, then it will include bibliographic, chemical, 
# crystal, experimental, refinement or atomic coordinate data resulting 
# from the CCDC's data processing and validation procedures.
#
#######################################################################

data_IGEFOR
_chemical_formula_moiety         'C22 H19 N1 O4'
_chemical_name_systematic        
'ethyl 6-((4-(dimethylamino)phenyl)ethynyl)-2-oxo-2H-chromene-3-carboxylate'
_symmetry_cell_setting           monoclinic
_symmetry_space_group_name_H-M   'I 2/a'
_symmetry_Int_Tables_number      15
_space_group_name_Hall           '-I 2ya'
loop_
_symmetry_equiv_pos_site_id
_symmetry_equiv_pos_as_xyz
1 x,y,z
2 1/2-x,y,-z
3 1/2+x,1/2+y,1/2+z
4 -x,1/2+y,1/2-z
5 -x,-y,-z
6 1/2+x,-y,z
7 1/2-x,1/2-y,1/2-z
8 x,1/2-y,1/2+z
_cell_length_a                   22.0146(15)
_cell_length_b                   6.9363(3)
_cell_length_c                   24.0365(15)
_cell_angle_alpha                90
_cell_angle_beta                 95.483(6)
_cell_angle_gamma                90
_cell_volume                     3653.58
_cell_formula_units_Z            8
loop_
_atom_site_label
_atom_site_type_symbol
_atom_site_fract_x
_atom_site_fract_y
_atom_site_fract_z
O1 O 0.26609(7) 1.63979(19) 0.68164(7)
O2 O 0.18690(9) 1.2282(2) 0.53539(7)
O3 O 0.21212(9) 1.7714(2) 0.61027(8)
N1 N 0.53979(9) 0.2294(3) 0.89682(8)
C1 C 0.35717(10) 1.1854(3) 0.76418(9)
C2 C 0.28909(10) 1.3012(3) 0.68637(9)
C3 C 0.51352(10) 0.3997(3) 0.87895(9)
C4 C 0.39134(10) 1.0321(3) 0.79294(9)
C5 C 0.29516(10) 1.4857(3) 0.70850(9)
C6 C 0.36079(11) 1.3729(3) 0.78536(10)
H1 H 0.3847 1.3971 0.8187
O4 O 0.14644(12) 1.5173(3) 0.53588(10)
C7 C 0.44357(11) 0.6641(3) 0.89065(9)
H2 H 0.4162 0.7246 0.9121
C8 C 0.25019(10) 1.2774(3) 0.63558(9)
H3 H 0.2440 1.1544 0.6208
C9 C 0.47223(11) 0.4976(3) 0.91007(9)
H4 H 0.4641 0.4486 0.9446
C10 C 0.32069(10) 1.1515(3) 0.71492(9)
H5 H 0.3173 1.0269 0.7007
C11 C 0.32991(10) 1.5222(3) 0.75811(10)
H6 H 0.3324 1.6461 0.7729
C12 C 0.45484(10) 0.7437(3) 0.83958(9)
C13 C 0.52640(11) 0.4864(3) 0.82865(9)
H7 H 0.5550 0.4299 0.8077
C14 C 0.49769(11) 0.6526(3) 0.80980(10)
H8 H 0.5071 0.7059 0.7762
C15 C 0.42088(11) 0.9061(3) 0.81599(9)
C16 C 0.15004(13) 1.1816(4) 0.48376(11)
H9 H 0.1597 1.2681 0.4541
H10 H 0.1070 1.1949 0.4887
C17 C 0.18163(12) 1.4017(4) 0.55619(11)
C18 C 0.22230(10) 1.4280(3) 0.60866(9)
C19 C 0.23109(11) 1.6236(3) 0.63062(10)
C20 C 0.52142(14) 0.1333(4) 0.94586(11)
H11 H 0.5445 0.0167 0.9522
H12 H 0.4787 0.1029 0.9402
H13 H 0.5288 0.2166 0.9777
C21 C 0.16394(15) 0.9808(4) 0.46924(13)
H14 H 0.1401 0.9455 0.4352
H15 H 0.1542 0.8966 0.4988
H16 H 0.2065 0.9696 0.4642
C22 C 0.57966(14) 0.1264(3) 0.86295(12)
H17 H 0.5939 0.0109 0.8820
H18 H 0.6139 0.2064 0.8565
H19 H 0.5577 0.0932 0.8278
loop_
_geom_bond_atom_site_label_1
_geom_bond_atom_site_label_2
_geom_bond_site_symmetry_1
_geom_bond_site_symmetry_2
O1 C5 1_555 1_555
O2 C16 1_555 1_555
O3 C19 1_555 1_555
N1 C3 1_555 1_555
C1 C4 1_555 1_555
C2 C5 1_555 1_555
C3 C9 1_555 1_555
C4 C15 1_555 1_555
C5 C11 1_555 1_555
C6 C1 1_555 1_555
H1 C6 1_555 1_555
O4 C17 1_555 1_555
C7 H2 1_555 1_555
C8 C2 1_555 1_555
H3 C8 1_555 1_555
C9 C7 1_555 1_555
H4 C9 1_555 1_555
C10 C1 1_555 1_555
H5 C10 1_555 1_555
C11 C6 1_555 1_555
H6 C11 1_555 1_555
C12 C7 1_555 1_555
C13 C3 1_555 1_555
H7 C13 1_555 1_555
C14 C12 1_555 1_555
H8 C14 1_555 1_555
C15 C12 1_555 1_555
C16 H9 1_555 1_555
H10 C16 1_555 1_555
C17 O2 1_555 1_555
C18 C8 1_555 1_555
C19 O1 1_555 1_555
C20 N1 1_555 1_555
H11 C20 1_555 1_555
H12 C20 1_555 1_555
H13 C20 1_555 1_555
C21 C16 1_555 1_555
H14 C21 1_555 1_555
H15 C21 1_555 1_555
H16 C21 1_555 1_555
C22 N1 1_555 1_555
H17 C22 1_555 1_555
H18 C22 1_555 1_555
H19 C22 1_555 1_555
C2 C10 1_555 1_555
C13 C14 1_555 1_555
C17 C18 1_555 1_555
C18 C19 1_555 1_555

#END
