
#######################################################################
#
#                 Cambridge Crystallographic Data Centre
#                                CCDC 
#
#######################################################################
#
# If this CIF has been generated from an entry in the Cambridge 
# Structural Database, then it will include bibliographic, chemical, 
# crystal, experimental, refinement or atomic coordinate data resulting 
# from the CCDC's data processing and validation procedures.
#
#######################################################################

data_IGEJOU
_chemical_formula_moiety         
'C31 H44 N2 O6 S1 2+,1.75(C6 H6),0.5(C2 H3 N1),2(Cl1 O4 1-)'
_chemical_name_systematic        
'3-(6-Ammoniohexyl)-2-(2-(2,3,5,6,8,9,11,12,14,15-decahydro-1,4,7,10,13,16-benzohexaoxacyclooctadecin-18-yl)vinyl)-1,3-benzothiazol-3-ium diperchlorate acetonitrile benzene solvate'
_symmetry_cell_setting           triclinic
_symmetry_space_group_name_H-M   'P -1'
_symmetry_Int_Tables_number      2
_space_group_name_Hall           '-P 1'
loop_
_symmetry_equiv_pos_site_id
_symmetry_equiv_pos_as_xyz
1 x,y,z
2 -x,-y,-z
_cell_length_a                   15.0555(5)
_cell_length_b                   17.8109(7)
_cell_length_c                   19.3290(7)
_cell_angle_alpha                110.425(2)
_cell_angle_beta                 98.185(2)
_cell_angle_gamma                103.351(2)
_cell_volume                     4582.51
_exptl_crystal_colour            yellow
_exptl_crystal_description       block
_cell_formula_units_Z            4
loop_
_atom_site_label
_atom_site_type_symbol
_atom_site_fract_x
_atom_site_fract_y
_atom_site_fract_z
Cl1 Cl 0.90591(15) 0.68053(15) 0.34939(13)
O1 O 0.9885(4) 0.6549(4) 0.3610(3)
O2 O 0.9270(4) 0.7677(4) 0.3983(3)
O3 O 0.8336(4) 0.6300(4) 0.3699(4)
O4 O 0.8744(5) 0.6672(4) 0.2708(3)
Cl2 Cl 0.52703(15) 0.20890(15) 0.37993(12)
O5 O 0.5399(4) 0.2504(4) 0.3286(3)
O6 O 0.5987(4) 0.1706(4) 0.3864(3)
O7 O 0.5356(4) 0.2708(4) 0.4556(3)
O8 O 0.4372(4) 0.1513(4) 0.3555(4)
Cl3 Cl 0.52611(17) 0.68176(15) 0.28095(13)
O9 O 0.6172(4) 0.6702(4) 0.2961(3)
O10 O 0.4663(11) 0.6080(11) 0.2324(11)
O11 O 0.5477(10) 0.7487(9) 0.2548(9)
O12 O 0.5021(11) 0.7124(12) 0.3540(9)
Cl4 Cl 0.96307(18) 0.24639(16) 0.02872(14)
O13 O 1.0163(6) 0.2662(5) -0.0193(5)
O14 O 1.0028(6) 0.2928(6) 0.1129(5)
O15 O 0.9189(11) 0.1647(10) 0.0144(8)
O16 O 0.8865(11) 0.2830(11) 0.0187(9)
S1 S 0.77322(15) 0.32614(15) 0.37609(12)
O17 O 1.0167(4) 0.8269(3) 0.7313(3)
O18 O 1.0030(5) 0.9841(4) 0.8274(4)
O19 O 1.1251(4) 1.1300(4) 0.8210(4)
O20 O 1.2256(4) 1.1063(4) 0.7093(4)
O21 O 1.1788(4) 0.9466(4) 0.5848(3)
O22 O 1.0775(3) 0.8067(3) 0.6096(3)
N1 N 0.8695(4) 0.3739(4) 0.2926(3)
N2 N 0.7573(5) 0.4939(5) -0.0394(4)
H1 H 0.734(4) 0.518(4) -0.068(3)
H2 H 0.716(4) 0.495(5) -0.010(3)
H3 H 0.752(7) 0.441(3) -0.070(4)
C1 C 0.7601(5) 0.2531(6) 0.2852(5)
C2 C 0.7025(5) 0.1730(6) 0.2477(5)
H4 H 0.6617 0.1480 0.2722
C3 C 0.7039(6) 0.1282(6) 0.1734(5)
H5 H 0.6652 0.0714 0.1476
C4 C 0.7606(6) 0.1645(6) 0.1360(5)
H6 H 0.7591 0.1329 0.0846
C5 C 0.8187(5) 0.2454(6) 0.1724(4)
H7 H 0.8584 0.2701 0.1470
C6 C 0.8183(5) 0.2905(5) 0.2470(5)
C7 C 0.8531(5) 0.4011(5) 0.3625(5)
C8 C 0.8909(6) 0.4839(5) 0.4156(5)
H8 H 0.9267 0.5251 0.4015
C9 C 0.8773(6) 0.5073(6) 0.4885(5)
H9 H 0.8396 0.4642 0.4994
C10 C 0.9143(5) 0.5916(5) 0.5515(4)
C11 C 0.8832(5) 0.6032(5) 0.6185(4)
H10 H 0.8404 0.5574 0.6226
C12 C 0.9148(5) 0.6812(5) 0.6788(4)
H11 H 0.8917 0.6889 0.7232
C13 C 0.9794(5) 0.7479(5) 0.6750(4)
C14 C 1.0120(5) 0.7373(5) 0.6072(4)
C15 C 0.9778(5) 0.6595(5) 0.5459(4)
H12 H 0.9976 0.6522 0.5001
C16 C 0.9846(6) 0.8395(6) 0.8005(5)
H13 H 0.9989 0.7997 0.8223
H14 H 0.9157 0.8299 0.7896
C17 C 1.0355(7) 0.9293(6) 0.8562(5)
H15 H 1.0225 0.9381 0.9067
H16 H 1.1043 0.9409 0.8618
C18 C 1.0235(8) 1.0682(7) 0.8828(6)
H17 H 1.0201 1.0659 0.9329
H18 H 0.9744 1.0924 0.8685
C19 C 1.1158(7) 1.1240(6) 0.8906(6)
H19 H 1.1243 1.1806 0.9294
H20 H 1.1656 1.1025 0.9085
C20 C 1.1984(7) 1.1931(6) 0.8259(6)
H21 H 1.2565 1.1918 0.8561
H22 H 1.1877 1.2475 0.8525
C21 C 1.2110(8) 1.1856(6) 0.7481(6)
H23 H 1.1544 1.1899 0.7186
H24 H 1.2659 1.2320 0.7531
C22 C 1.2435(9) 1.0948(7) 0.6359(6)
H25 H 1.2980 1.1416 0.6410
H26 H 1.1880 1.0952 0.6019
C23 C 1.2632(7) 1.0152(7) 0.6028(6)
H27 H 1.2848 1.0113 0.5559
H28 H 1.3139 1.0118 0.6393
C24 C 1.1988(6) 0.8691(6) 0.5614(5)
H29 H 1.2457 0.8694 0.6031
H30 H 1.2262 0.8616 0.5168
C25 C 1.1122(6) 0.7983(5) 0.5413(5)
H31 H 1.0638 0.7992 0.5014
H32 H 1.1263 0.7442 0.5213
C26 C 0.9308(5) 0.4257(5) 0.2632(4)
H33 H 0.9680 0.3927 0.2346
H34 H 0.9754 0.4752 0.3065
C27 C 0.8756(5) 0.4555(5) 0.2115(4)
H35 H 0.8233 0.4071 0.1739
H36 H 0.8479 0.4969 0.2424
C28 C 0.9346(6) 0.4947(6) 0.1704(4)
H37 H 0.9700 0.4572 0.1451
H38 H 0.9804 0.5488 0.2068
C29 C 0.8672(6) 0.5101(7) 0.1085(6)
H39 H 0.8119 0.4593 0.0819
H40 H 0.8439 0.5573 0.1351
C30 C 0.9119(7) 0.5289(7) 0.0519(5)
H41 H 0.9256 0.4782 0.0193
H42 H 0.9726 0.5739 0.0783
C31 C 0.8524(6) 0.5564(6) 0.0028(5)
H43 H 0.8862 0.5674 -0.0346
H44 H 0.8438 0.6099 0.0351
S2 S 0.62029(14) 0.43876(14) 0.45570(11)
O23 O 0.6363(3) 0.3506(3) -0.0096(3)
O24 O 0.7329(4) 0.3240(3) -0.1332(3)
O25 O 0.8239(3) 0.4582(4) -0.1754(3)
O26 O 0.7189(4) 0.5789(3) -0.1367(3)
O27 O 0.6718(3) 0.6284(3) 0.0101(3)
O28 O 0.6318(3) 0.5005(3) 0.0678(3)
N3 N 0.6387(4) 0.5942(4) 0.4851(3)
N4 N 1.0603(6) 0.9767(5) 0.6899(5)
H45 H 1.112(4) 1.022(3) 0.708(4)
H46 H 1.060(8) 0.923(3) 0.675(7)
H47 H 1.030(4) 0.988(4) 0.728(3)
C32 C 0.6170(5) 0.5029(5) 0.5467(4)
C33 C 0.6003(5) 0.4774(6) 0.6056(4)
H48 H 0.5897 0.4207 0.6000
C34 C 0.6001(5) 0.5399(6) 0.6724(4)
H49 H 0.5917 0.5259 0.7147
C35 C 0.6116(5) 0.6213(6) 0.6801(4)
H50 H 0.6088 0.6615 0.7268
C36 C 0.6273(5) 0.6468(6) 0.6210(4)
H51 H 0.6360 0.7031 0.6260
C37 C 0.6293(5) 0.5837(5) 0.5543(4)
C38 C 0.6352(5) 0.5219(5) 0.4289(4)
C39 C 0.6404(5) 0.5124(5) 0.3512(4)
H52 H 0.6565 0.5607 0.3396
C40 C 0.6224(4) 0.4359(5) 0.2968(4)
H53 H 0.6082 0.3903 0.3123
C41 C 0.6217(5) 0.4135(5) 0.2165(4)
C42 C 0.6156(4) 0.3315(5) 0.1710(4)
H54 H 0.6079 0.2903 0.1922
C43 C 0.6207(5) 0.3080(5) 0.0954(4)
H55 H 0.6188 0.2521 0.0661
C44 C 0.6284(4) 0.3666(5) 0.0632(4)
C45 C 0.6297(4) 0.4492(5) 0.1071(4)
C46 C 0.6279(4) 0.4740(5) 0.1831(4)
H56 H 0.6308 0.5302 0.2126
C47 C 0.6542(6) 0.2730(5) -0.0507(4)
H57 H 0.6052 0.2248 -0.0513
H58 H 0.7162 0.2728 -0.0256
C48 C 0.6530(6) 0.2656(5) -0.1317(4)
H59 H 0.6517 0.2079 -0.1637
H60 H 0.5954 0.2757 -0.1533
C49 C 0.7336(6) 0.3117(6) -0.2131(4)
H61 H 0.6779 0.3224 -0.2372
H62 H 0.7323 0.2535 -0.2429
C50 C 0.8223(6) 0.3730(6) -0.2101(4)
H63 H 0.8765 0.3647 -0.1814
H64 H 0.8297 0.3612 -0.2626
C51 C 0.7807(6) 0.4889(6) -0.2258(4)
H65 H 0.7141 0.4542 -0.2490
H66 H 0.8135 0.4855 -0.2672
C52 C 0.7860(5) 0.5782(5) -0.1819(5)
H67 H 0.8501 0.6098 -0.1488
H68 H 0.7721 0.6052 -0.2173
C53 C 0.7228(6) 0.6627(5) -0.0920(5)
H69 H 0.7122 0.6929 -0.1252
H70 H 0.7855 0.6930 -0.0561
C54 C 0.6459(6) 0.6589(5) -0.0477(5)
H71 H 0.6391 0.7156 -0.0236
H72 H 0.5848 0.6209 -0.0830
C55 C 0.6000(5) 0.6193(5) 0.0497(5)
H73 H 0.5400 0.5810 0.0130
H74 H 0.5908 0.6747 0.0757
C56 C 0.6267(6) 0.5843(5) 0.1077(4)
H75 H 0.6884 0.6208 0.1429
H76 H 0.5790 0.5824 0.1380
C57 C 0.6489(5) 0.6767(5) 0.4796(4)
H77 H 0.6025 0.7014 0.5029
H78 H 0.6345 0.6678 0.4252
C58 C 0.7463(6) 0.7379(6) 0.5184(5)
H79 H 0.7919 0.7190 0.4896
H80 H 0.7658 0.7404 0.5705
C59 C 0.7455(8) 0.8247(6) 0.5221(6)
H81 H 0.7109 0.8173 0.4714
H82 H 0.7082 0.8457 0.5586
C60 C 0.8372(10) 0.8927(9) 0.5438(8)
H83 H 0.8713 0.8765 0.5035
H84 H 0.8236 0.9451 0.5458
C61 C 0.8941(7) 0.9087(9) 0.6114(8)
H85 H 0.9087 0.8567 0.6097
H86 H 0.8605 0.9251 0.6521
C62 C 0.9907(7) 0.9821(8) 0.6320(6)
H87 H 1.0145 0.9760 0.5858
H88 H 0.9797 1.0376 0.6515
C63 C 0.4822(8) 0.0101(8) 0.4329(7)
H89 H 0.4689 0.0166 0.3861
C64 C 0.4782(7) 0.0704(7) 0.4986(8)
H90 H 0.4641 0.1193 0.4976
C65 C 0.5054(7) -0.0604(8) 0.4341(7)
H91 H 0.5099 -0.1014 0.3886
C63A C 0.5178(8) -0.0101(8) 0.5671(7)
H89A H 0.5311 -0.0166 0.6139
C64A C 0.5218(7) -0.0704(7) 0.5014(8)
H90A H 0.5359 -0.1193 0.5024
C65A C 0.4946(7) 0.0604(8) 0.5659(7)
H91A H 0.4901 0.1014 0.6114
C66 C 0.5706(8) 0.8924(7) 0.0963(7)
H92 H 0.6081 0.8624 0.0694
C67 C 0.5072(7) 0.9232(6) 0.0594(6)
H93 H 0.4996 0.9130 0.0069
C68 C 0.4566(8) 0.9694(8) 0.1041(10)
H94 H 0.4131 0.9897 0.0808
C69 C 0.4678(9) 0.9853(8) 0.1773(9)
H95 H 0.4360 1.0197 0.2070
C70 C 0.5237(9) 0.9528(8) 0.2084(7)
H96 H 0.5279 0.9619 0.2604
C71 C 0.5758(8) 0.9072(7) 0.1715(6)
H97 H 0.6154 0.8858 0.1973
C72 C 0.3585(8) 0.1427(7) 0.0924(8)
H98 H 0.4057 0.1740 0.0767
C73 C 0.3652(10) 0.1591(8) 0.1685(9)
H99 H 0.4190 0.2004 0.2055
C74 C 0.2952(12) 0.1163(11) 0.1913(7)
H100 H 0.2991 0.1306 0.2441
C75 C 0.2199(9) 0.0535(10) 0.1387(9)
H101 H 0.1723 0.0221 0.1540
C76 C 0.2150(8) 0.0368(9) 0.0627(8)
H102 H 0.1631 -0.0065 0.0251
C77 C 0.2831(9) 0.0811(9) 0.0408(7)
H103 H 0.2777 0.0686 -0.0119
C78 C 0.2523(10) 0.9248(9) 0.2835(11)
H104 H 0.3082 0.9665 0.2887
C79 C 0.2281(9) 0.9125(9) 0.3463(8)
H105 H 0.2681 0.9455 0.3958
C80 C 0.1445(10) 0.8513(9) 0.3362(8)
H106 H 0.1269 0.8436 0.3792
C81 C 0.0885(8) 0.8029(8) 0.2656(9)
H107 H 0.0323 0.7610 0.2590
C82 C 0.1126(10) 0.8143(10) 0.2043(8)
H108 H 0.0733 0.7798 0.1548
C83 C 0.1918(10) 0.8740(10) 0.2129(9)
H109 H 0.2065 0.8815 0.1691
N5 N 0.2131(6) 0.6220(6) 0.4272(4)
C84 C 0.2621(7) 0.6794(7) 0.4242(4)
C85 C 0.3235(7) 0.7521(6) 0.4188(5)
H110 H 0.3038 0.8017 0.4432
H111 H 0.3195 0.7421 0.3651
H112 H 0.3885 0.7616 0.4445
O29? O 0.4677(10) 0.6554(12) 0.3257(8)
O30? O 0.5249(11) 0.7600(10) 0.2860(10)
O31? O 0.4624(8) 0.6197(8) 0.2004(8)
O32? O 1.0108(16) 0.1891(14) 0.0434(12)
O33? O 0.8696(11) 0.2019(11) -0.0078(9)
O34? O 0.9771(14) 0.3188(14) 0.0909(12)
loop_
_geom_bond_atom_site_label_1
_geom_bond_atom_site_label_2
_geom_bond_site_symmetry_1
_geom_bond_site_symmetry_2
Cl1 O1 1_555 1_555
O2 Cl1 1_555 1_555
O3 Cl1 1_555 1_555
O4 Cl1 1_555 1_555
Cl2 O5 1_555 1_555
O6 Cl2 1_555 1_555
O7 Cl2 1_555 1_555
O8 Cl2 1_555 1_555
Cl3 O9 1_555 1_555
O10 Cl3 1_555 1_555
O11 Cl3 1_555 1_555
O12 Cl3 1_555 1_555
Cl4 O13 1_555 1_555
O14 Cl4 1_555 1_555
O15 Cl4 1_555 1_555
O16 Cl4 1_555 1_555
S1 C1 1_555 1_555
O17 C13 1_555 1_555
O18 C17 1_555 1_555
O19 C19 1_555 1_555
O20 C21 1_555 1_555
O21 C23 1_555 1_555
O22 C14 1_555 1_555
N1 C6 1_555 1_555
N2 H1 1_555 1_555
H2 N2 1_555 1_555
H3 N2 1_555 1_555
C1 C2 1_555 1_555
C2 H4 1_555 1_555
C3 C2 1_555 1_555
H5 C3 1_555 1_555
C4 C3 1_555 1_555
H6 C4 1_555 1_555
C5 C4 1_555 1_555
H7 C5 1_555 1_555
C6 C1 1_555 1_555
C7 S1 1_555 1_555
C8 C7 1_555 1_555
H8 C8 1_555 1_555
C9 C8 1_555 1_555
H9 C9 1_555 1_555
C10 C9 1_555 1_555
C11 C10 1_555 1_555
H10 C11 1_555 1_555
C12 C11 1_555 1_555
H11 C12 1_555 1_555
C13 C12 1_555 1_555
C14 C13 1_555 1_555
C15 C10 1_555 1_555
H12 C15 1_555 1_555
C16 O17 1_555 1_555
H13 C16 1_555 1_555
H14 C16 1_555 1_555
C17 C16 1_555 1_555
H15 C17 1_555 1_555
H16 C17 1_555 1_555
C18 O18 1_555 1_555
H17 C18 1_555 1_555
H18 C18 1_555 1_555
C19 C18 1_555 1_555
H19 C19 1_555 1_555
H20 C19 1_555 1_555
C20 O19 1_555 1_555
H21 C20 1_555 1_555
H22 C20 1_555 1_555
C21 C20 1_555 1_555
H23 C21 1_555 1_555
H24 C21 1_555 1_555
C22 O20 1_555 1_555
H25 C22 1_555 1_555
H26 C22 1_555 1_555
C23 C22 1_555 1_555
H27 C23 1_555 1_555
H28 C23 1_555 1_555
C24 O21 1_555 1_555
H29 C24 1_555 1_555
H30 C24 1_555 1_555
C25 O22 1_555 1_555
H31 C25 1_555 1_555
H32 C25 1_555 1_555
C26 N1 1_555 1_555
H33 C26 1_555 1_555
H34 C26 1_555 1_555
C27 C26 1_555 1_555
H35 C27 1_555 1_555
H36 C27 1_555 1_555
C28 C27 1_555 1_555
H37 C28 1_555 1_555
H38 C28 1_555 1_555
C29 C28 1_555 1_555
H39 C29 1_555 1_555
H40 C29 1_555 1_555
C30 C29 1_555 1_555
H41 C30 1_555 1_555
H42 C30 1_555 1_555
C31 N2 1_555 1_555
H43 C31 1_555 1_555
H44 C31 1_555 1_555
S2 C32 1_555 1_555
O23 C44 1_555 1_555
O24 C48 1_555 1_555
O25 C50 1_555 1_555
O26 C52 1_555 1_555
O27 C54 1_555 1_555
O28 C45 1_555 1_555
N3 C37 1_555 1_555
N4 H45 1_555 1_555
H46 N4 1_555 1_555
H47 N4 1_555 1_555
C32 C33 1_555 1_555
C33 H48 1_555 1_555
C34 C33 1_555 1_555
H49 C34 1_555 1_555
C35 C34 1_555 1_555
H50 C35 1_555 1_555
C36 C35 1_555 1_555
H51 C36 1_555 1_555
C37 C32 1_555 1_555
C38 S2 1_555 1_555
C39 C38 1_555 1_555
H52 C39 1_555 1_555
C40 C39 1_555 1_555
H53 C40 1_555 1_555
C41 C40 1_555 1_555
C42 C41 1_555 1_555
H54 C42 1_555 1_555
C43 C42 1_555 1_555
H55 C43 1_555 1_555
C44 C43 1_555 1_555
C45 C44 1_555 1_555
C46 C41 1_555 1_555
H56 C46 1_555 1_555
C47 O23 1_555 1_555
H57 C47 1_555 1_555
H58 C47 1_555 1_555
C48 C47 1_555 1_555
H59 C48 1_555 1_555
H60 C48 1_555 1_555
C49 O24 1_555 1_555
H61 C49 1_555 1_555
H62 C49 1_555 1_555
C50 C49 1_555 1_555
H63 C50 1_555 1_555
H64 C50 1_555 1_555
C51 O25 1_555 1_555
H65 C51 1_555 1_555
H66 C51 1_555 1_555
C52 C51 1_555 1_555
H67 C52 1_555 1_555
H68 C52 1_555 1_555
C53 O26 1_555 1_555
H69 C53 1_555 1_555
H70 C53 1_555 1_555
C54 C53 1_555 1_555
H71 C54 1_555 1_555
H72 C54 1_555 1_555
C55 O27 1_555 1_555
H73 C55 1_555 1_555
H74 C55 1_555 1_555
C56 O28 1_555 1_555
H75 C56 1_555 1_555
H76 C56 1_555 1_555
C57 N3 1_555 1_555
H77 C57 1_555 1_555
H78 C57 1_555 1_555
C58 C57 1_555 1_555
H79 C58 1_555 1_555
H80 C58 1_555 1_555
C59 C58 1_555 1_555
H81 C59 1_555 1_555
H82 C59 1_555 1_555
C60 C59 1_555 1_555
H83 C60 1_555 1_555
H84 C60 1_555 1_555
C61 C60 1_555 1_555
H85 C61 1_555 1_555
H86 C61 1_555 1_555
C62 N4 1_555 1_555
H87 C62 1_555 1_555
H88 C62 1_555 1_555
C63 H89 1_555 1_555
C64 C63 1_555 1_555
H90 C64 1_555 1_555
C65 C63 1_555 1_555
H91 C65 1_555 1_555
C66 H92 1_555 1_555
C67 C66 1_555 1_555
H93 C67 1_555 1_555
C68 C67 1_555 1_555
H94 C68 1_555 1_555
C69 C68 1_555 1_555
H95 C69 1_555 1_555
C70 C69 1_555 1_555
H96 C70 1_555 1_555
C71 C66 1_555 1_555
H97 C71 1_555 1_555
C72 H98 1_555 1_555
C73 C72 1_555 1_555
H99 C73 1_555 1_555
C74 C73 1_555 1_555
H100 C74 1_555 1_555
C75 C74 1_555 1_555
H101 C75 1_555 1_555
C76 C75 1_555 1_555
H102 C76 1_555 1_555
C77 C72 1_555 1_555
H103 C77 1_555 1_555
C78 H104 1_555 1_555
C79 C78 1_555 1_555
H105 C79 1_555 1_555
C80 C79 1_555 1_555
H106 C80 1_555 1_555
C81 C80 1_555 1_555
H107 C81 1_555 1_555
C82 C81 1_555 1_555
H108 C82 1_555 1_555
C83 C78 1_555 1_555
H109 C83 1_555 1_555
N5 C84 1_555 1_555
C84 C85 1_555 1_555
C85 H110 1_555 1_555
H111 C85 1_555 1_555
H112 C85 1_555 1_555
C63A H89A 1_555 1_555
C64A C65 1_555 1_555
H90A C64A 1_555 1_555
C65A C64 1_555 1_555
H91A C65A 1_555 1_555
N1 C7 1_555 1_555
C5 C6 1_555 1_555
C14 C15 1_555 1_555
C24 C25 1_555 1_555
C30 C31 1_555 1_555
N3 C38 1_555 1_555
C36 C37 1_555 1_555
C45 C46 1_555 1_555
C55 C56 1_555 1_555
C61 C62 1_555 1_555
C70 C71 1_555 1_555
C76 C77 1_555 1_555
C82 C83 1_555 1_555
C63A C64A 1_555 1_555
C63A C65A 1_555 1_555

#END
