
#######################################################################
#
#                 Cambridge Crystallographic Data Centre
#                                CCDC 
#
#######################################################################
#
# If this CIF has been generated from an entry in the Cambridge 
# Structural Database, then it will include bibliographic, chemical, 
# crystal, experimental, refinement or atomic coordinate data resulting 
# from the CCDC's data processing and validation procedures.
#
#######################################################################

data_IGEKIQ
_chemical_formula_moiety         'C19 H24 O5'
_chemical_name_systematic        
16-hydroxy-14-methoxy-3-methyl-3,4,7,8,9,10-hexahydro-1H-2-benzoxacyclotetradecine-1,11(12H)-dione
_symmetry_cell_setting           orthorhombic
_symmetry_space_group_name_H-M   'P 21 21 21'
_symmetry_Int_Tables_number      19
_space_group_name_Hall           'P 2ac 2ab'
loop_
_symmetry_equiv_pos_site_id
_symmetry_equiv_pos_as_xyz
1 x,y,z
2 1/2+x,1/2-y,-z
3 -x,1/2+y,1/2-z
4 1/2-x,-y,1/2+z
_cell_length_a                   5.18300(10)
_cell_length_b                   12.7946(2)
_cell_length_c                   26.0924(3)
_cell_angle_alpha                90
_cell_angle_beta                 90
_cell_angle_gamma                90
_cell_volume                     1730.3
_exptl_crystal_colour            colorless
_exptl_crystal_description       prism
_cell_formula_units_Z            4
loop_
_atom_site_label
_atom_site_type_symbol
_atom_site_fract_x
_atom_site_fract_y
_atom_site_fract_z
C1 C 0.5031(3) 0.73612(14) 0.20601(6)
C2 C 0.5841(3) 0.78883(12) 0.25546(6)
C3 C 0.3999(4) 0.87386(13) 0.27220(6)
C4 C 0.4920(4) 0.93481(14) 0.31692(7)
C5 C 0.3492(5) 0.96507(16) 0.35680(8)
C6 C 0.4491(6) 1.03405(17) 0.39866(8)
C7 C 0.3622(5) 1.00756(15) 0.45261(8)
C8 C 0.4817(4) 0.90939(14) 0.47533(7)
C9 C 0.3755(3) 0.80646(13) 0.45531(6)
C10 C 0.5422(3) 0.74630(11) 0.41831(5)
C11 C 0.4097(3) 0.65261(12) 0.39354(5)
C12 C 0.5943(3) 0.56500(11) 0.38117(5)
C13 C 0.5918(3) 0.48032(12) 0.41414(6)
C14 C 0.7698(3) 0.39851(12) 0.40859(6)
C15 C 0.9558(3) 0.40231(12) 0.37106(6)
C16 C 0.9602(3) 0.48718(12) 0.33751(6)
C17 C 0.7769(3) 0.56875(11) 0.34077(6)
C18 C 0.7895(3) 0.64993(12) 0.30092(6)
C19 C 0.9317(5) 0.23696(15) 0.44053(8)
O1 O 0.7656(2) 0.76747(9) 0.41017(4)
O2 O 0.7437(3) 0.31863(9) 0.44286(5)
O3 O 1.1477(2) 0.48505(10) 0.30163(5)
O4 O 0.9731(2) 0.65827(10) 0.27151(5)
O5 O 0.5842(2) 0.71113(8) 0.29714(4)
H1 H 0.3318 0.7071 0.2090
H2 H 0.5055 0.7872 0.1779
H3 H 0.6213 0.6798 0.1978
H4 H 0.7580 0.8171 0.2528
H5 H 0.2288 0.8453 0.2806
H6 H 0.3838 0.9220 0.2421
H7 H 0.6673 0.9544 0.3155
H8 H 0.1778 0.9426 0.3607
H9 H 0.3874 1.1068 0.3912
H10 H 0.6442 1.0283 0.3950
H11 H 0.1728 0.9966 0.4510
H12 H 0.4034 1.0695 0.4742
H13 H 0.6661 0.9104 0.4687
H14 H 0.4523 0.9110 0.5130
H15 H 0.3526 0.7603 0.4840
H16 H 0.2057 0.8163 0.4389
H17 H 0.3218 0.6763 0.3629
H18 H 0.2791 0.6278 0.4167
H19 H 0.4652 0.4753 0.4443
H20 H 1.0772 0.3495 0.3674
H21 H 0.8943 0.1892 0.4682
H22 H 0.9207 0.2003 0.4077
H23 H 1.1041 0.2647 0.4449
H24 H 1.126(5) 0.547(2) 0.2833(9)
loop_
_geom_bond_atom_site_label_1
_geom_bond_atom_site_label_2
_geom_bond_site_symmetry_1
_geom_bond_site_symmetry_2
C1 C2 1_555 1_555
C2 C3 1_555 1_555
C3 C4 1_555 1_555
C4 C5 1_555 1_555
C5 C6 1_555 1_555
C6 C7 1_555 1_555
C7 C8 1_555 1_555
C8 C9 1_555 1_555
C9 C10 1_555 1_555
C10 C11 1_555 1_555
C11 C12 1_555 1_555
C12 C13 1_555 1_555
C13 C14 1_555 1_555
C14 C15 1_555 1_555
C15 C16 1_555 1_555
C16 C17 1_555 1_555
C17 C12 1_555 1_555
C18 C17 1_555 1_555
C19 O2 1_555 1_555
O1 C10 1_555 1_555
O2 C14 1_555 1_555
O3 C16 1_555 1_555
O4 C18 1_555 1_555
O5 C2 1_555 1_555
H1 C1 1_555 1_555
H2 C1 1_555 1_555
H3 C1 1_555 1_555
H4 C2 1_555 1_555
H5 C3 1_555 1_555
H6 C3 1_555 1_555
H7 C4 1_555 1_555
H8 C5 1_555 1_555
H9 C6 1_555 1_555
H10 C6 1_555 1_555
H11 C7 1_555 1_555
H12 C7 1_555 1_555
H13 C8 1_555 1_555
H14 C8 1_555 1_555
H15 C9 1_555 1_555
H16 C9 1_555 1_555
H17 C11 1_555 1_555
H18 C11 1_555 1_555
H19 C13 1_555 1_555
H20 C15 1_555 1_555
H21 C19 1_555 1_555
H22 C19 1_555 1_555
H23 C19 1_555 1_555
H24 O3 1_555 1_555
C18 O5 1_555 1_555

#END
