
#######################################################################
#
#                 Cambridge Crystallographic Data Centre
#                                CCDC 
#
#######################################################################
#
# If this CIF has been generated from an entry in the Cambridge 
# Structural Database, then it will include bibliographic, chemical, 
# crystal, experimental, refinement or atomic coordinate data resulting 
# from the CCDC's data processing and validation procedures.
#
#######################################################################

data_IGEPAM
_chemical_formula_moiety         'C22 H19 I1 O2 S1'
_chemical_name_systematic        
(E)-1-((1-Iodo-2,3-diphenylprop-1-en-1-yl)sulfonyl)-4-methylbenzene
_symmetry_cell_setting           monoclinic
_symmetry_space_group_name_H-M   'P 21/c'
_symmetry_Int_Tables_number      14
_space_group_name_Hall           '-P 2ybc'
loop_
_symmetry_equiv_pos_site_id
_symmetry_equiv_pos_as_xyz
1 x,y,z
2 -x,1/2+y,1/2-z
3 -x,-y,-z
4 x,1/2-y,1/2+z
_cell_length_a                   5.7758(6)
_cell_length_b                   18.474(2)
_cell_length_c                   19.807(2)
_cell_angle_alpha                90
_cell_angle_beta                 106.835(2)
_cell_angle_gamma                90
_cell_volume                     2022.87
_exptl_crystal_colour            colorless
_exptl_crystal_description       block
_chemical_melting_point          '119-120 deg.C'
_cell_formula_units_Z            4
loop_
_atom_site_label
_atom_site_type_symbol
_atom_site_fract_x
_atom_site_fract_y
_atom_site_fract_z
S1 S 0.7434(2) 0.24025(6) 0.43610(5)
I1 I 0.59872(7) 0.364630(19) 0.529450(15)
O1 O 0.7115(6) 0.21016(17) 0.36761(15)
O2 O 0.9816(5) 0.26303(18) 0.47571(17)
C1 C 0.5423(8) 0.3147(2) 0.43045(19)
C2 C 0.3707(7) 0.3359(2) 0.3728(2)
C3 C 0.2002(8) 0.3980(2) 0.3725(2)
H1 H 0.0352 0.3820 0.3512
H2 H 0.2152 0.4121 0.4208
C4 C 0.6376(7) 0.1768(2) 0.4863(2)
C5 C 0.7866(8) 0.1511(2) 0.5483(2)
H3 H 0.9432 0.1690 0.5655
C6 C 0.7046(10) 0.0984(3) 0.5856(2)
H4 H 0.8083 0.0802 0.6272
C7 C 0.4704(10) 0.0726(2) 0.5617(3)
C8 C 0.3243(9) 0.0987(3) 0.4989(3)
H5 H 0.1673 0.0811 0.4818
C9 C 0.4040(8) 0.1505(2) 0.4604(3)
H6 H 0.3025 0.1674 0.4178
C10 C 0.3791(12) 0.0177(3) 0.6044(3)
H7 H 0.2148 0.0052 0.5800
H8 H 0.3864 0.0379 0.6496
H9 H 0.4780 -0.0250 0.6108
C11 C 0.3276(7) 0.3019(2) 0.30114(19)
C12 C 0.1293(7) 0.2575(2) 0.2748(2)
H10 H 0.0254 0.2479 0.3019
C13 C 0.0850(9) 0.2274(3) 0.2085(2)
H11 H -0.0481 0.1973 0.1913
C14 C 0.2344(9) 0.2413(3) 0.1678(2)
H12 H 0.2045 0.2202 0.1235
C15 C 0.4273(9) 0.2863(3) 0.1924(2)
H13 H 0.5275 0.2966 0.1644
C16 C 0.4752(8) 0.3168(2) 0.2592(2)
H14 H 0.6073 0.3475 0.2756
C17 C 0.2504(8) 0.4629(2) 0.3325(2)
C18 C 0.0740(10) 0.4915(3) 0.2766(2)
H15 H -0.0790 0.4706 0.2627
C19 C 0.1233(16) 0.5515(3) 0.2405(3)
H16 H 0.0032 0.5704 0.2025
C20 C 0.3459(17) 0.5828(3) 0.2604(3)
H17 H 0.3775 0.6231 0.2363
C21 C 0.5213(12) 0.5553(3) 0.3152(3)
H18 H 0.6731 0.5769 0.3289
C22 C 0.4766(10) 0.4950(2) 0.3512(3)
H19 H 0.5997 0.4760 0.3882
loop_
_geom_bond_atom_site_label_1
_geom_bond_atom_site_label_2
_geom_bond_site_symmetry_1
_geom_bond_site_symmetry_2
S1 O1 1_555 1_555
I1 C1 1_555 1_555
O2 S1 1_555 1_555
C1 S1 1_555 1_555
C2 C1 1_555 1_555
C3 C2 1_555 1_555
H1 C3 1_555 1_555
H2 C3 1_555 1_555
C4 S1 1_555 1_555
C5 C4 1_555 1_555
H3 C5 1_555 1_555
C6 C5 1_555 1_555
H4 C6 1_555 1_555
C7 C6 1_555 1_555
C8 C7 1_555 1_555
H5 C8 1_555 1_555
C9 C4 1_555 1_555
H6 C9 1_555 1_555
C10 C7 1_555 1_555
H7 C10 1_555 1_555
H8 C10 1_555 1_555
H9 C10 1_555 1_555
C11 C2 1_555 1_555
C12 C11 1_555 1_555
H10 C12 1_555 1_555
C13 C12 1_555 1_555
H11 C13 1_555 1_555
C14 C13 1_555 1_555
H12 C14 1_555 1_555
C15 C14 1_555 1_555
H13 C15 1_555 1_555
C16 C11 1_555 1_555
H14 C16 1_555 1_555
C17 C3 1_555 1_555
C18 C17 1_555 1_555
H15 C18 1_555 1_555
C19 C18 1_555 1_555
H16 C19 1_555 1_555
C20 C19 1_555 1_555
H17 C20 1_555 1_555
C21 C20 1_555 1_555
H18 C21 1_555 1_555
C22 C17 1_555 1_555
H19 C22 1_555 1_555
C8 C9 1_555 1_555
C15 C16 1_555 1_555
C21 C22 1_555 1_555

#END
