
#######################################################################
#
#                 Cambridge Crystallographic Data Centre
#                                CCDC 
#
#######################################################################
#
# If this CIF has been generated from an entry in the Cambridge 
# Structural Database, then it will include bibliographic, chemical, 
# crystal, experimental, refinement or atomic coordinate data resulting 
# from the CCDC's data processing and validation procedures.
#
#######################################################################

data_IGEPOZ
_chemical_formula_moiety         'C6 H25 B10 N1'
_chemical_name_systematic        
nido-7-t-Butyl(methyl)amino-7-carbadodecaborane(12)
_symmetry_cell_setting           monoclinic
_symmetry_space_group_name_H-M   'P 21/c'
_symmetry_Int_Tables_number      14
_space_group_name_Hall           '-P 2ybc'
loop_
_symmetry_equiv_pos_site_id
_symmetry_equiv_pos_as_xyz
1 x,y,z
2 x,1/2-y,1/2+z
3 -x,-y,-z
4 -x,1/2+y,1/2-z
_cell_length_a                   11.3418(14)
_cell_length_b                   8.8099(11)
_cell_length_c                   13.7750(15)
_cell_angle_alpha                90
_cell_angle_beta                 95.852(4)
_cell_angle_gamma                90
_cell_volume                     1369.23
_exptl_crystal_colour            colorless
_exptl_crystal_description       'irregular shape'
_cell_formula_units_Z            4
loop_
_atom_site_label
_atom_site_type_symbol
_atom_site_fract_x
_atom_site_fract_y
_atom_site_fract_z
B1 B 0.79501(15) 0.36895(19) 0.99330(11)
H1 H 0.8449(15) 0.473(2) 1.0128(12)
B2 B 0.77682(14) 0.29671(18) 0.87402(11)
H2 H 0.8105(14) 0.342(2) 0.8076(12)
B3 B 0.86743(14) 0.20065(19) 0.96422(11)
H3 H 0.9625(15) 0.187(2) 0.9594(12)
B4 B 0.80091(14) 0.20902(19) 1.07442(11)
H4 H 0.8585(16) 0.212(2) 1.1444(13)
B5 B 0.66822(14) 0.31751(19) 1.05116(11)
H5 H 0.6339(15) 0.386(2) 1.1080(12)
B6 B 0.65117(15) 0.37013(18) 0.92513(11)
H6 H 0.6127(15) 0.471(2) 0.8990(12)
C1 C 0.76550(11) 0.10501(15) 0.88736(9)
B7 B 0.77971(13) 0.04168(18) 1.00132(11)
H7 H 0.8279(15) -0.060(2) 1.0198(12)
B8 B 0.65873(14) 0.12023(18) 1.06932(11)
H8 H 0.6316(15) 0.074(2) 1.1386(12)
B9 B 0.56074(14) 0.22558(19) 0.97131(11)
H9 H 0.4652(17) 0.251(2) 0.9738(14)
B10 B 0.63740(14) 0.19407(18) 0.86085(11)
H10 H 0.5961(15) 0.1818(19) 0.7868(12)
H11 H 0.5663(15) 0.122(2) 0.9157(12)
H12 H 0.6698(15) 0.015(2) 1.0138(13)
N1 N 0.80569(10) 0.01479(13) 0.80166(8)
H13 H 0.7710(15) 0.059(2) 0.7492(13)
C2 C 0.93603(13) 0.02983(17) 0.79208(11)
H14 H 0.9802(14) -0.0150(19) 0.8472(12)
H15 H 0.9467(14) -0.0229(18) 0.7325(12)
H16 H 0.9546(16) 0.139(2) 0.7876(13)
C3 C 0.76105(12) -0.15418(15) 0.78862(10)
C4 C 0.63118(13) -0.16070(18) 0.80754(12)
H17 H 0.5831(15) -0.094(2) 0.7621(13)
H18 H 0.6246(15) -0.136(2) 0.8770(13)
H19 H 0.6052(16) -0.266(2) 0.7971(13)
C5 C 0.83607(14) -0.26153(17) 0.85588(11)
H20 H 0.9184(16) -0.255(2) 0.8449(12)
H21 H 0.8075(16) -0.359(2) 0.8397(13)
H22 H 0.8267(17) -0.245(2) 0.9256(15)
C6 C 0.77191(15) -0.19654(17) 0.68191(10)
H23 H 0.8532(16) -0.206(2) 0.6646(13)
H24 H 0.7247(16) -0.126(2) 0.6383(14)
H25 H 0.7363(17) -0.299(2) 0.6721(13)
loop_
_geom_bond_atom_site_label_1
_geom_bond_atom_site_label_2
_geom_bond_site_symmetry_1
_geom_bond_site_symmetry_2
B1 H1 1_555 1_555
B2 B1 1_555 1_555
H2 B2 1_555 1_555
B3 B1 1_555 1_555
H3 B3 1_555 1_555
B4 B1 1_555 1_555
H4 B4 1_555 1_555
B5 B1 1_555 1_555
H5 B5 1_555 1_555
B6 B1 1_555 1_555
H6 B6 1_555 1_555
C1 B2 1_555 1_555
B7 B3 1_555 1_555
H7 B7 1_555 1_555
B8 B4 1_555 1_555
H8 B8 1_555 1_555
B9 B5 1_555 1_555
H9 B9 1_555 1_555
B10 B2 1_555 1_555
H10 B10 1_555 1_555
H11 B9 1_555 1_555
H12 B7 1_555 1_555
N1 C1 1_555 1_555
H13 N1 1_555 1_555
C2 N1 1_555 1_555
H14 C2 1_555 1_555
H15 C2 1_555 1_555
H16 C2 1_555 1_555
C3 N1 1_555 1_555
C4 C3 1_555 1_555
H17 C4 1_555 1_555
H18 C4 1_555 1_555
H19 C4 1_555 1_555
C5 C3 1_555 1_555
H20 C5 1_555 1_555
H21 C5 1_555 1_555
H22 C5 1_555 1_555
C6 C3 1_555 1_555
H23 C6 1_555 1_555
H24 C6 1_555 1_555
H25 C6 1_555 1_555
B2 B3 1_555 1_555
B2 B6 1_555 1_555
B3 C1 1_555 1_555
B3 B4 1_555 1_555
B4 B7 1_555 1_555
B4 B5 1_555 1_555
B5 B8 1_555 1_555
B5 B6 1_555 1_555
B6 B10 1_555 1_555
B6 B9 1_555 1_555
C1 B10 1_555 1_555
C1 B7 1_555 1_555
B7 B8 1_555 1_555
B8 B9 1_555 1_555
B8 H12 1_555 1_555
B9 B10 1_555 1_555
B10 H11 1_555 1_555

#END
