
#######################################################################
#
#                 Cambridge Crystallographic Data Centre
#                                CCDC 
#
#######################################################################
#
# If this CIF has been generated from an entry in the Cambridge 
# Structural Database, then it will include bibliographic, chemical, 
# crystal, experimental, refinement or atomic coordinate data resulting 
# from the CCDC's data processing and validation procedures.
#
#######################################################################

data_IGEPEQ
_chemical_formula_moiety         'C36 H34 O4 S2'
_chemical_name_systematic        
(Z,Z)-1,1'-((4,7-Diphenyldeca-1,4,6,9-tetraene-5,6-diyl)disulfonyl)bis(4-methylbenzene)
_symmetry_cell_setting           monoclinic
_symmetry_space_group_name_H-M   'P 21/c'
_symmetry_Int_Tables_number      14
_space_group_name_Hall           '-P 2ybc'
loop_
_symmetry_equiv_pos_site_id
_symmetry_equiv_pos_as_xyz
1 x,y,z
2 -x,1/2+y,1/2-z
3 -x,-y,-z
4 x,1/2-y,1/2+z
_cell_length_a                   16.849(3)
_cell_length_b                   11.533(2)
_cell_length_c                   18.945(4)
_cell_angle_alpha                90
_cell_angle_beta                 119.63(3)
_cell_angle_gamma                90
_cell_volume                     3199.99
_exptl_crystal_colour            colorless
_exptl_crystal_description       block
_chemical_melting_point          '124-126 deg.C'
_cell_formula_units_Z            4
loop_
_atom_site_label
_atom_site_type_symbol
_atom_site_fract_x
_atom_site_fract_y
_atom_site_fract_z
S1 S 0.81586(9) 0.15992(13) 0.41059(9)
S2 S 0.65378(10) 0.42031(13) 0.37109(10)
O1 O 0.8426(2) 0.0532(3) 0.4560(2)
O2 O 0.7364(2) 0.1576(3) 0.3316(2)
O3 O 0.6314(3) 0.5064(3) 0.4141(3)
O4 O 0.7231(2) 0.4474(4) 0.3504(2)
C1 C 0.7849(6) 0.4010(7) 0.6719(5)
H1 H 0.7291 0.4327 0.6341
H2 H 0.7949 0.3795 0.7230
C2 C 0.8490(5) 0.3868(6) 0.6534(4)
H3 H 0.9041 0.3549 0.6923
C3 C 0.8387(4) 0.4189(5) 0.5729(3)
H4 H 0.8790 0.4834 0.5802
H5 H 0.7765 0.4446 0.5374
C4 C 0.8600(4) 0.3205(5) 0.5324(3)
C5 C 0.7935(3) 0.2678(5) 0.4671(3)
C6 C 0.6942(3) 0.2926(5) 0.4331(3)
C7 C 0.6400(4) 0.2253(5) 0.4486(3)
C8 C 0.6738(4) 0.1129(5) 0.4967(4)
H6 H 0.6443 0.0482 0.4604
H7 H 0.7389 0.1062 0.5171
C9 C 0.6570(6) 0.1044(7) 0.5644(6)
H8 H 0.5977 0.1209 0.5525
C10 C 0.7132(9) 0.0770(11) 0.6394(5)
H9 H 0.7737 0.0595 0.6556
H10 H 0.6929 0.0749 0.6770
C11 C 0.9586(4) 0.2899(6) 0.5706(3)
C12 C 0.9905(4) 0.1812(6) 0.6070(3)
H11 H 0.9497 0.1265 0.6065
C13 C 1.0821(5) 0.1557(7) 0.6436(4)
H12 H 1.1033 0.0839 0.6681
C14 C 1.1427(5) 0.2369(10) 0.6438(5)
H13 H 1.2042 0.2184 0.6664
C15 C 1.1125(5) 0.3429(9) 0.6112(5)
H14 H 1.1538 0.3978 0.6128
C16 C 1.0221(4) 0.3702(6) 0.5762(4)
H15 H 1.0029 0.4444 0.5556
C17 C 0.9076(3) 0.2078(5) 0.3981(3)
C18 C 0.8989(4) 0.3031(5) 0.3518(4)
H16 H 0.8474 0.3499 0.3327
C19 C 0.9665(4) 0.3301(6) 0.3336(4)
H17 H 0.9602 0.3949 0.3020
C20 C 1.0439(4) 0.2612(6) 0.3619(4)
C21 C 1.0529(4) 0.1679(6) 0.4102(4)
H18 H 1.1056 0.1229 0.4312
C22 C 0.9850(4) 0.1395(5) 0.4283(3)
H19 H 0.9915 0.0752 0.4603
C23 C 1.1182(4) 0.2865(7) 0.3406(4)
H20 H 1.1660 0.2300 0.3661
H21 H 1.1426 0.3625 0.3596
H22 H 1.0928 0.2828 0.2828
C24 C 0.5537(4) 0.3850(5) 0.2812(4)
C25 C 0.5570(4) 0.3062(6) 0.2274(4)
H23 H 0.6118 0.2706 0.2395
C26 C 0.4792(4) 0.2816(6) 0.1568(4)
H24 H 0.4817 0.2294 0.1206
C27 C 0.3963(4) 0.3327(6) 0.1377(4)
C28 C 0.3945(4) 0.4103(6) 0.1907(4)
H25 H 0.3397 0.4464 0.1780
C29 C 0.4724(4) 0.4372(5) 0.2635(4)
H26 H 0.4698 0.4895 0.2996
C30 C 0.3113(4) 0.3022(6) 0.0585(4)
H27 H 0.2601 0.3447 0.0543
H28 H 0.2996 0.2205 0.0573
H29 H 0.3203 0.3220 0.0138
C31 C 0.5410(4) 0.2469(5) 0.4172(4)
C32 C 0.4763(4) 0.1791(6) 0.3554(4)
H30 H 0.4950 0.1210 0.3328
C33 C 0.3848(5) 0.1962(7) 0.3266(5)
H31 H 0.3419 0.1526 0.2832
C34 C 0.3568(5) 0.2774(9) 0.3621(6)
H32 H 0.2949 0.2879 0.3435
C35 C 0.4187(5) 0.3425(8) 0.4239(5)
H33 H 0.3992 0.3973 0.4480
C36 C 0.5116(4) 0.3284(6) 0.4519(4)
H34 H 0.5539 0.3742 0.4943
loop_
_geom_bond_atom_site_label_1
_geom_bond_atom_site_label_2
_geom_bond_site_symmetry_1
_geom_bond_site_symmetry_2
S1 O1 1_555 1_555
S2 O3 1_555 1_555
O2 S1 1_555 1_555
O4 S2 1_555 1_555
C1 H1 1_555 1_555
H2 C1 1_555 1_555
C2 C1 1_555 1_555
H3 C2 1_555 1_555
C3 C2 1_555 1_555
H4 C3 1_555 1_555
H5 C3 1_555 1_555
C4 C3 1_555 1_555
C5 S1 1_555 1_555
C6 S2 1_555 1_555
C7 C6 1_555 1_555
C8 C7 1_555 1_555
H6 C8 1_555 1_555
H7 C8 1_555 1_555
C9 C8 1_555 1_555
H8 C9 1_555 1_555
C10 C9 1_555 1_555
H9 C10 1_555 1_555
H10 C10 1_555 1_555
C11 C4 1_555 1_555
C12 C11 1_555 1_555
H11 C12 1_555 1_555
C13 C12 1_555 1_555
H12 C13 1_555 1_555
C14 C13 1_555 1_555
H13 C14 1_555 1_555
C15 C14 1_555 1_555
H14 C15 1_555 1_555
C16 C11 1_555 1_555
H15 C16 1_555 1_555
C17 S1 1_555 1_555
C18 C17 1_555 1_555
H16 C18 1_555 1_555
C19 C18 1_555 1_555
H17 C19 1_555 1_555
C20 C19 1_555 1_555
C21 C20 1_555 1_555
H18 C21 1_555 1_555
C22 C17 1_555 1_555
H19 C22 1_555 1_555
C23 C20 1_555 1_555
H20 C23 1_555 1_555
H21 C23 1_555 1_555
H22 C23 1_555 1_555
C24 S2 1_555 1_555
C25 C24 1_555 1_555
H23 C25 1_555 1_555
C26 C25 1_555 1_555
H24 C26 1_555 1_555
C27 C26 1_555 1_555
C28 C27 1_555 1_555
H25 C28 1_555 1_555
C29 C24 1_555 1_555
H26 C29 1_555 1_555
C30 C27 1_555 1_555
H27 C30 1_555 1_555
H28 C30 1_555 1_555
H29 C30 1_555 1_555
C31 C7 1_555 1_555
C32 C31 1_555 1_555
H30 C32 1_555 1_555
C33 C32 1_555 1_555
H31 C33 1_555 1_555
C34 C33 1_555 1_555
H32 C34 1_555 1_555
C35 C34 1_555 1_555
H33 C35 1_555 1_555
C36 C31 1_555 1_555
H34 C36 1_555 1_555
C4 C5 1_555 1_555
C5 C6 1_555 1_555
C15 C16 1_555 1_555
C21 C22 1_555 1_555
C28 C29 1_555 1_555
C35 C36 1_555 1_555

#END
