
#######################################################################
#
#                 Cambridge Crystallographic Data Centre
#                                CCDC 
#
#######################################################################
#
# If this CIF has been generated from an entry in the Cambridge 
# Structural Database, then it will include bibliographic, chemical, 
# crystal, experimental, refinement or atomic coordinate data resulting 
# from the CCDC's data processing and validation procedures.
#
#######################################################################

data_IGEVIB
_chemical_formula_moiety         'C22 H24 N2 O2'
_chemical_name_systematic        
2-((5,5-dimethyl-3-oxocyclohex-1-en-1-yl)amino)-N-(4-methylphenyl)benzamide
_symmetry_cell_setting           monoclinic
_symmetry_space_group_name_H-M   'P 21/n'
_symmetry_Int_Tables_number      14
_space_group_name_Hall           '-P 2yn'
loop_
_symmetry_equiv_pos_site_id
_symmetry_equiv_pos_as_xyz
1 x,y,z
2 1/2-x,1/2+y,1/2-z
3 -x,-y,-z
4 1/2+x,1/2-y,1/2+z
_cell_length_a                   10.869(3)
_cell_length_b                   11.571(4)
_cell_length_c                   15.586(5)
_cell_angle_alpha                90
_cell_angle_beta                 91.281(4)
_cell_angle_gamma                90
_cell_volume                     1959.69
_cell_formula_units_Z            4
loop_
_atom_site_label
_atom_site_type_symbol
_atom_site_fract_x
_atom_site_fract_y
_atom_site_fract_z
N1 N 0.44031(18) 0.48440(17) 0.14135(13)
O1 O 0.55534(14) 0.57803(13) 0.24190(10)
C1 C 0.6544(2) 0.43270(17) 0.16014(14)
C2 C 0.7463(2) 0.40442(18) 0.22119(14)
C3 C 0.5469(2) 0.50477(18) 0.18434(15)
C4 C 0.3250(2) 0.53868(19) 0.15477(14)
N2 N 0.73994(18) 0.45150(18) 0.30411(12)
O2 O 0.90163(16) 0.16707(15) 0.49475(11)
C5 C 0.8443(2) 0.3360(2) 0.19683(16)
H1 H 0.9055 0.3168 0.2370
C6 C 0.3129(2) 0.6466(2) 0.19174(14)
H2 H 0.3825 0.6881 0.2089
C7 C 0.6667(2) 0.39297(19) 0.07652(15)
H3 H 0.6074 0.4128 0.0352
C8 C 0.7659(2) 0.4442(2) 0.54206(15)
C9 C 0.78088(19) 0.40967(19) 0.38124(14)
C10 C 0.7689(2) 0.49578(19) 0.45230(14)
H4 H 0.6939 0.5397 0.4424
H5 H 0.8373 0.5494 0.4499
C11 C 0.7640(2) 0.3254(2) 0.05366(16)
H6 H 0.7702 0.2995 -0.0026
C12 C 0.8286(2) 0.30318(19) 0.39602(15)
H7 H 0.8356 0.2520 0.3504
C13 C 0.1968(3) 0.6927(2) 0.20312(16)
H8 H 0.1899 0.7651 0.2284
C14 C 0.2203(2) 0.4800(2) 0.12896(17)
H9 H 0.2268 0.4071 0.1043
C15 C 0.8681(2) 0.2677(2) 0.47967(16)
C16 C 0.8520(2) 0.2961(2) 0.11386(17)
H10 H 0.9174 0.2491 0.0987
C17 C 0.1058(2) 0.5285(3) 0.13950(19)
H11 H 0.0364 0.4886 0.1200
C18 C 0.8694(2) 0.3554(2) 0.54993(16)
H12 H 0.9477 0.3956 0.5501
H13 H 0.8630 0.3158 0.6045
C19 C 0.6429(2) 0.3839(3) 0.55622(18)
H14 H 0.6432 0.3497 0.6124
H15 H 0.6307 0.3246 0.5137
H16 H 0.5773 0.4393 0.5514
C20 C 0.0912(2) 0.6350(3) 0.17830(19)
C21 C 0.7838(4) 0.5397(2) 0.60777(18)
H17 H 0.8619 0.5764 0.5997
H18 H 0.7815 0.5075 0.6645
H19 H 0.7192 0.5957 0.6008
C22 C -0.0341(3) 0.6857(3) 0.1927(2)
H20 H -0.0920 0.6541 0.1516
H21 H -0.0306 0.7681 0.1860
H22 H -0.0597 0.6674 0.2496
H23 H 0.4393(18) 0.4312(18) 0.1033(14)
H24 H 0.6903(19) 0.5103(18) 0.3040(13)
loop_
_geom_bond_atom_site_label_1
_geom_bond_atom_site_label_2
_geom_bond_site_symmetry_1
_geom_bond_site_symmetry_2
N1 C3 1_555 1_555
O1 C3 1_555 1_555
C1 C2 1_555 1_555
C2 N2 1_555 1_555
C3 C1 1_555 1_555
C4 N1 1_555 1_555
N2 C9 1_555 1_555
O2 C15 1_555 1_555
C5 C2 1_555 1_555
H1 C5 1_555 1_555
C6 C4 1_555 1_555
H2 C6 1_555 1_555
C7 C1 1_555 1_555
H3 C7 1_555 1_555
C8 C10 1_555 1_555
C9 C10 1_555 1_555
C10 H4 1_555 1_555
H5 C10 1_555 1_555
C11 C7 1_555 1_555
H6 C11 1_555 1_555
C12 C9 1_555 1_555
H7 C12 1_555 1_555
C13 C6 1_555 1_555
H8 C13 1_555 1_555
C14 C4 1_555 1_555
H9 C14 1_555 1_555
C15 C12 1_555 1_555
C16 C5 1_555 1_555
H10 C16 1_555 1_555
C17 C14 1_555 1_555
H11 C17 1_555 1_555
C18 C8 1_555 1_555
H12 C18 1_555 1_555
H13 C18 1_555 1_555
C19 C8 1_555 1_555
H14 C19 1_555 1_555
H15 C19 1_555 1_555
H16 C19 1_555 1_555
C20 C13 1_555 1_555
C21 C8 1_555 1_555
H17 C21 1_555 1_555
H18 C21 1_555 1_555
H19 C21 1_555 1_555
C22 C20 1_555 1_555
H20 C22 1_555 1_555
H21 C22 1_555 1_555
H22 C22 1_555 1_555
H23 N1 1_555 1_555
H24 N2 1_555 1_555
C11 C16 1_555 1_555
C15 C18 1_555 1_555
C17 C20 1_555 1_555

#END
