
#######################################################################
#
#                 Cambridge Crystallographic Data Centre
#                                CCDC 
#
#######################################################################
#
# If this CIF has been generated from an entry in the Cambridge 
# Structural Database, then it will include bibliographic, chemical, 
# crystal, experimental, refinement or atomic coordinate data resulting 
# from the CCDC's data processing and validation procedures.
#
#######################################################################

data_IGEVEX
_chemical_formula_moiety         'C22 H24 N4 O2'
_chemical_name_systematic        
2-(2,2-dimethyl-3-(2-methyl-4-oxo-1,2,3,4-tetrahydroquinazolin-2-yl)propyl)quinazolin-4(3H)-one
_symmetry_cell_setting           monoclinic
_symmetry_space_group_name_H-M   'P 21/c'
_symmetry_Int_Tables_number      14
_space_group_name_Hall           '-P 2ybc'
loop_
_symmetry_equiv_pos_site_id
_symmetry_equiv_pos_as_xyz
1 x,y,z
2 -x,1/2+y,1/2-z
3 -x,-y,-z
4 x,1/2-y,1/2+z
_cell_length_a                   10.6419(10)
_cell_length_b                   10.6748(10)
_cell_length_c                   17.4055(15)
_cell_angle_alpha                90
_cell_angle_beta                 96.316(6)
_cell_angle_gamma                90
_cell_volume                     1965.27
_exptl_crystal_colour            colorless
_exptl_crystal_description       block
_cell_formula_units_Z            4
loop_
_atom_site_label
_atom_site_type_symbol
_atom_site_fract_x
_atom_site_fract_y
_atom_site_fract_z
N1 N 0.5737(4) 0.1956(4) 0.2152(3)
H1 H 0.5442 0.1249 0.1977
N2 N 0.7514(4) 0.3283(3) 0.2269(2)
H2 H 0.8255 0.3405 0.2129
N3 N 1.1287(3) 0.1810(3) 0.1299(2)
H3 H 1.1456 0.1024 0.1348
N4 N 0.9791(3) 0.3376(3) 0.1470(2)
O1 O 0.8115(3) 0.4324(3) 0.3366(2)
O2 O 1.3125(4) 0.2121(4) 0.0785(3)
C1 C 0.6594(4) 0.2649(4) 0.1714(3)
C2 C 0.7319(4) 0.3692(4) 0.2973(3)
C3 C 0.6129(4) 0.3291(4) 0.3262(2)
C4 C 0.5810(5) 0.3705(6) 0.3966(3)
H4 H 0.6306 0.4313 0.4236
C5 C 0.4779(6) 0.3238(6) 0.4276(3)
H5 H 0.4583 0.3518 0.4755
C6 C 0.4037(6) 0.2352(6) 0.3875(4)
H6 H 0.3336 0.2032 0.4084
C7 C 0.4325(6) 0.1930(5) 0.3158(4)
H7 H 0.3810 0.1335 0.2889
C8 C 0.5389(4) 0.2393(4) 0.2834(3)
C9 C 0.5863(5) 0.3634(5) 0.1209(3)
H8 H 0.5435 0.4187 0.1529
H9 H 0.5255 0.3228 0.0844
H10 H 0.6441 0.4108 0.0937
C10 C 0.7275(4) 0.1768(4) 0.1202(2)
H11 H 0.6620 0.1336 0.0872
H12 H 0.7713 0.2300 0.0866
C11 C 0.8219(4) 0.0771(4) 0.1513(2)
C12 C 0.7641(5) -0.0133(5) 0.2070(3)
H13 H 0.7413 0.0326 0.2509
H14 H 0.8249 -0.0766 0.2242
H15 H 0.6901 -0.0522 0.1808
C13 C 0.8596(5) 0.0027(5) 0.0812(3)
H16 H 0.8956 0.0587 0.0464
H17 H 0.7860 -0.0368 0.0549
H18 H 0.9206 -0.0602 0.0988
C14 C 0.9444(4) 0.1304(4) 0.1962(2)
H19 H 0.9217 0.1695 0.2431
H20 H 0.9997 0.0605 0.2118
C15 C 1.0189(4) 0.2240(4) 0.1551(2)
C16 C 1.2136(4) 0.2564(5) 0.0973(3)
C17 C 1.1731(4) 0.3860(4) 0.0887(2)
C18 C 1.2504(5) 0.4771(5) 0.0594(3)
H21 H 1.3277 0.4539 0.0435
C19 C 1.2130(5) 0.5991(5) 0.0542(3)
H22 H 1.2657 0.6593 0.0361
C20 C 1.0961(5) 0.6337(5) 0.0760(3)
H23 H 1.0703 0.7168 0.0715
C21 C 1.0187(5) 0.5462(4) 0.1039(2)
H24 H 0.9401 0.5704 0.1174
C22 C 1.0562(4) 0.4212(4) 0.1122(2)
loop_
_geom_bond_atom_site_label_1
_geom_bond_atom_site_label_2
_geom_bond_site_symmetry_1
_geom_bond_site_symmetry_2
N1 H1 1_555 1_555
N2 H2 1_555 1_555
N3 H3 1_555 1_555
N4 C15 1_555 1_555
O1 C2 1_555 1_555
O2 C16 1_555 1_555
C1 N1 1_555 1_555
C2 N2 1_555 1_555
C3 C2 1_555 1_555
C4 C3 1_555 1_555
H4 C4 1_555 1_555
C5 C4 1_555 1_555
H5 C5 1_555 1_555
C6 C5 1_555 1_555
H6 C6 1_555 1_555
C7 C6 1_555 1_555
H7 C7 1_555 1_555
C8 N1 1_555 1_555
C9 C1 1_555 1_555
H8 C9 1_555 1_555
H9 C9 1_555 1_555
H10 C9 1_555 1_555
C10 C1 1_555 1_555
H11 C10 1_555 1_555
H12 C10 1_555 1_555
C11 C10 1_555 1_555
C12 C11 1_555 1_555
H13 C12 1_555 1_555
H14 C12 1_555 1_555
H15 C12 1_555 1_555
C13 C11 1_555 1_555
H16 C13 1_555 1_555
H17 C13 1_555 1_555
H18 C13 1_555 1_555
C14 C11 1_555 1_555
H19 C14 1_555 1_555
H20 C14 1_555 1_555
C15 N3 1_555 1_555
C16 N3 1_555 1_555
C17 C16 1_555 1_555
C18 C17 1_555 1_555
H21 C18 1_555 1_555
C19 C18 1_555 1_555
H22 C19 1_555 1_555
C20 C19 1_555 1_555
H23 C20 1_555 1_555
C21 C20 1_555 1_555
H24 C21 1_555 1_555
C22 N4 1_555 1_555
N2 C1 1_555 1_555
C3 C8 1_555 1_555
C7 C8 1_555 1_555
C14 C15 1_555 1_555
C17 C22 1_555 1_555
C21 C22 1_555 1_555

#END
