
#######################################################################
#
#                 Cambridge Crystallographic Data Centre
#                                CCDC 
#
#######################################################################
#
# If this CIF has been generated from an entry in the Cambridge 
# Structural Database, then it will include bibliographic, chemical, 
# crystal, experimental, refinement or atomic coordinate data resulting 
# from the CCDC's data processing and validation procedures.
#
#######################################################################

data_IGEYUO
_chemical_formula_moiety         'C17 H22 Cl1 N3 O3'
_chemical_name_systematic        
'(Z)-Ethoxyethyl 3-(2-chloro-5-pyridylmethylamino)-2-cyano-4-methylpent-2-enoate'
_chemical_properties_biological  'possible herbicidal activity'
_symmetry_cell_setting           monoclinic
_symmetry_space_group_name_H-M   'P 21/n'
_symmetry_Int_Tables_number      14
_space_group_name_Hall           '-P 2yn'
loop_
_symmetry_equiv_pos_site_id
_symmetry_equiv_pos_as_xyz
1 x,y,z
2 1/2-x,1/2+y,1/2-z
3 -x,-y,-z
4 1/2+x,1/2-y,1/2+z
_cell_length_a                   14.7641(1)
_cell_length_b                   9.0050(7)
_cell_length_c                   15.4874(1)
_cell_angle_alpha                90
_cell_angle_beta                 116.9590(1)
_cell_angle_gamma                90
_cell_volume                     1835.31
_exptl_crystal_colour            colorless
_chemical_melting_point          '108-109 deg.C'
_cell_formula_units_Z            4
_exptl_crystal_recrystallization_method 'ethyl acetate/petroleum ether 1:3'
loop_
_atom_site_label
_atom_site_type_symbol
_atom_site_fract_x
_atom_site_fract_y
_atom_site_fract_z
Cl1 Cl 0.1462(1) 0.5579(1) 1.0270(1)
O1 O 0.1389(1) 0.6245(2) 0.5884(1)
O2 O 0.1752(1) 0.6686(2) 0.4655(1)
O3 O 0.2887(1) 0.4994(3) 0.3948(1)
N1 N 0.0178(2) 0.4989(3) 0.8420(2)
N2 N -0.0407(2) 0.7082(2) 0.5650(1)
N3 N -0.0133(2) 0.8333(3) 0.2794(2)
C1 C 0.0712(2) 0.6090(3) 0.9054(2)
C2 C 0.0731(5) 0.7481(3) 0.8841(2)
C3 C 0.0167(2) 0.7862(3) 0.7916(2)
C4 C -0.0412(2) 0.6870(3) 0.7199(2)
C5 C -0.0406(2) 0.5415(3) 0.7467(2)
C6 C -0.1015(2) 0.7361(3) 0.6166(2)
C7 C -0.0625(2) 0.7450(2) 0.4749(2)
C8 C 0.0118(2) 0.7292(2) 0.4430(2)
C9 C 0.1115(2) 0.6701(2) 0.5059(2)
C10 C -0.1679(2) 0.8047(3) 0.4114(2)
C11 C -0.1651(3) 0.9726(3) 0.4022(3)
C12 C -0.2205(2) 0.7281(4) 0.3129(2)
C13 C -0.0030(2) 0.7863(3) 0.3519(2)
C14 C 0.2762(2) 0.6118(4) 0.5264(2)
C15 C 0.3335(2) 0.6061(4) 0.4683(3)
C16 C 0.3467(3) 0.4647(6) 0.3468(4)
C17 C 0.2933(3) 0.3601(6) 0.2675(3)
loop_
_geom_bond_atom_site_label_1
_geom_bond_atom_site_label_2
_geom_bond_site_symmetry_1
_geom_bond_site_symmetry_2
Cl1 C1 1_555 1_555
O1 C9 1_555 1_555
O2 C9 1_555 1_555
O3 C15 1_555 1_555
N1 C1 1_555 1_555
N2 C6 1_555 1_555
N3 C13 1_555 1_555
C1 C2 1_555 1_555
C2 C3 1_555 1_555
C3 C4 1_555 1_555
C4 C5 1_555 1_555
C5 N1 1_555 1_555
C6 C4 1_555 1_555
C7 N2 1_555 1_555
C8 C7 1_555 1_555
C9 C8 1_555 1_555
C10 C7 1_555 1_555
C11 C10 1_555 1_555
C12 C10 1_555 1_555
C13 C8 1_555 1_555
C14 O2 1_555 1_555
C15 C14 1_555 1_555
C16 O3 1_555 1_555
C17 C16 1_555 1_555

#END
