
#######################################################################
#
#                 Cambridge Crystallographic Data Centre
#                                CCDC 
#
#######################################################################
#
# If this CIF has been generated from an entry in the Cambridge 
# Structural Database, then it will include bibliographic, chemical, 
# crystal, experimental, refinement or atomic coordinate data resulting 
# from the CCDC's data processing and validation procedures.
#
#######################################################################

data_IGEZUR
_chemical_name_common            
'(ethylenedithio)(2-hydroxypropylene-1,3-dithio)tetrathiafulvalene hexane solvate'
_chemical_formula_moiety         'C11 H10 O1 S8,x(C6 H14)'
_chemical_name_systematic        
'2-(5,6-dihydro[1,3]dithiolo[4,5-b][1,4]dithiin-2-ylidene)-6,7-dihydro-5H-[1,3]dithiolo[4,5-b][1,4]dithiepin-6-ol hexane solvate'
_symmetry_cell_setting           triclinic
_symmetry_space_group_name_H-M   'P -1'
_symmetry_Int_Tables_number      2
_space_group_name_Hall           '-P 1'
loop_
_symmetry_equiv_pos_site_id
_symmetry_equiv_pos_as_xyz
1 x,y,z
2 -x,-y,-z
_cell_length_a                   6.5765(10)
_cell_length_b                   15.314(2)
_cell_length_c                   16.664(2)
_cell_angle_alpha                89.607(7)
_cell_angle_beta                 89.350(8)
_cell_angle_gamma                88.861(7)
_cell_volume                     1677.8
_exptl_crystal_colour            orange
_exptl_crystal_description       plate
_cell_formula_units_Z            4
_exptl_crystal_recrystallization_method hexane/tetrahydrofuran
loop_
_atom_site_label
_atom_site_type_symbol
_atom_site_fract_x
_atom_site_fract_y
_atom_site_fract_z
S9 S 0.99224(9) 0.27976(4) 0.32233(4)
S10 S 0.49312(9) 0.36749(4) 0.33700(5)
S11 S 0.83689(7) 0.13968(3) 0.42546(3)
S12 S 0.41957(7) 0.21255(3) 0.44001(3)
S13 S 0.75879(7) 0.01653(3) 0.58281(3)
S14 S 0.34348(7) 0.08945(3) 0.59776(3)
S15 S 0.78354(7) -0.04277(3) 0.75337(3)
S16 S 0.30365(8) 0.04807(3) 0.77314(3)
O2 O 0.5175(2) -0.07167(10) 0.90825(9)
H11 H 0.4181 -0.0611 0.9390
C12 C 0.9023(4) 0.38752(18) 0.2963(2)
H12 H 0.9070 0.4248 0.3445
H13 H 0.9955 0.4124 0.2555
C13 C 0.6881(4) 0.3907(3) 0.2638(2)
H14 H 0.6794 0.3480 0.2196
H15 H 0.6610 0.4495 0.2408
C14 C 0.7852(3) 0.23988(12) 0.37651(13)
C15 C 0.5947(3) 0.27332(13) 0.38292(13)
C16 C 0.6066(3) 0.14075(12) 0.47893(12)
C17 C 0.5747(3) 0.09035(11) 0.54422(11)
C18 C 0.6417(3) 0.00908(12) 0.67802(11)
C19 C 0.4519(3) 0.04367(12) 0.68530(11)
C20 C 0.6278(3) -0.13415(13) 0.78278(12)
H16 H 0.5745 -0.1607 0.7335
H17 H 0.7166 -0.1786 0.8090
C21 C 0.4493(3) -0.11438(12) 0.83879(12)
H18 H 0.3970 -0.1721 0.8572
C22 C 0.2707(3) -0.06599(14) 0.79994(13)
H19 H 0.1525 -0.0695 0.8371
H20 H 0.2353 -0.0977 0.7506
S1 S 1.35288(10) 0.62385(5) 0.31826(4)
S2 S 0.86288(9) 0.71976(4) 0.30900(4)
S3 S 1.23928(7) 0.53806(3) 0.16954(3)
S4 S 0.82365(7) 0.61231(3) 0.16142(3)
S5 S 1.12200(7) 0.37315(3) 0.06917(3)
S6 S 0.70508(7) 0.44108(3) 0.04493(3)
S7 S 1.02271(8) 0.18868(3) 0.03300(4)
S8 S 0.54508(8) 0.26927(3) -0.00669(3)
O1 O 0.6925(3) 0.07720(10) -0.05016(11)
H1 H 0.642(4) 0.0346(12) -0.0737(16)
C1 C 1.2419(6) 0.7074(3) 0.3824(3)
H2 H 1.1685 0.6787 0.4273
H3 H 1.3527 0.7416 0.4057
C2 C 1.0960(5) 0.7695(2) 0.3398(3)
H4 H 1.1653 0.7936 0.2917
H5 H 1.0619 0.8188 0.3759
C3 C 1.1599(3) 0.60526(13) 0.24981(12)
C4 C 0.9706(3) 0.63973(13) 0.24603(13)
C5 C 0.9912(3) 0.52641(12) 0.13353(12)
C6 C 0.9418(3) 0.45635(12) 0.09019(12)
C7 C 0.9400(3) 0.29775(12) 0.03873(13)
C8 C 0.7513(3) 0.32938(12) 0.02610(12)
C9 C 0.9903(4) 0.16236(15) -0.07220(16)
H6 H 1.0431 0.2113 -0.1049
H7 H 1.0759 0.1101 -0.0845
C10 C 0.7741(4) 0.14474(14) -0.09891(14)
H8 H 0.7846 0.1214 -0.1547
C11 C 0.6332(4) 0.22474(15) -0.10224(14)
H9 H 0.5124 0.2096 -0.1338
H10 H 0.7045 0.2714 -0.1320
C23? C 0.855(2) 0.3529(9) 0.2571(7)
H21? H 0.9543 0.3849 0.2236
H22? H 0.7719 0.3178 0.2207
C24? C 0.7166(17) 0.4187(8) 0.2990(11)
H23? H 0.6775 0.4657 0.2608
H24? H 0.7902 0.4455 0.3438
loop_
_geom_bond_atom_site_label_1
_geom_bond_atom_site_label_2
_geom_bond_site_symmetry_1
_geom_bond_site_symmetry_2
S1 C1 1_555 1_555
S2 C2 1_555 1_555
S3 C3 1_555 1_555
S4 C4 1_555 1_555
S5 C6 1_555 1_555
S6 C6 1_555 1_555
S7 C7 1_555 1_555
S8 C8 1_555 1_555
O1 H1 1_555 1_555
C1 H2 1_555 1_555
H3 C1 1_555 1_555
C2 C1 1_555 1_555
H4 C2 1_555 1_555
H5 C2 1_555 1_555
C3 S1 1_555 1_555
C4 S2 1_555 1_555
C5 S3 1_555 1_555
C6 C5 1_555 1_555
C7 S5 1_555 1_555
C8 S6 1_555 1_555
C9 S7 1_555 1_555
H6 C9 1_555 1_555
H7 C9 1_555 1_555
C10 O1 1_555 1_555
H8 C10 1_555 1_555
C11 S8 1_555 1_555
H9 C11 1_555 1_555
H10 C11 1_555 1_555
S9 C12 1_555 1_555
S10 C13 1_555 1_555
S11 C14 1_555 1_555
S12 C15 1_555 1_555
S13 C17 1_555 1_555
S14 C17 1_555 1_555
S15 C18 1_555 1_555
S16 C19 1_555 1_555
O2 H11 1_555 1_555
C12 H12 1_555 1_555
H13 C12 1_555 1_555
C13 C12 1_555 1_555
H14 C13 1_555 1_555
H15 C13 1_555 1_555
C14 S9 1_555 1_555
C15 S10 1_555 1_555
C16 S11 1_555 1_555
C17 C16 1_555 1_555
C18 S13 1_555 1_555
C19 S14 1_555 1_555
C20 S15 1_555 1_555
H16 C20 1_555 1_555
H17 C20 1_555 1_555
C21 O2 1_555 1_555
H18 C21 1_555 1_555
C22 S16 1_555 1_555
H19 C22 1_555 1_555
H20 C22 1_555 1_555
S4 C5 1_555 1_555
C3 C4 1_555 1_555
C7 C8 1_555 1_555
C9 C10 1_555 1_555
C10 C11 1_555 1_555
S12 C16 1_555 1_555
C14 C15 1_555 1_555
C18 C19 1_555 1_555
C20 C21 1_555 1_555
C21 C22 1_555 1_555

#END
