
#######################################################################
#
#                 Cambridge Crystallographic Data Centre
#                                CCDC 
#
#######################################################################
#
# If this CIF has been generated from an entry in the Cambridge 
# Structural Database, then it will include bibliographic, chemical, 
# crystal, experimental, refinement or atomic coordinate data resulting 
# from the CCDC's data processing and validation procedures.
#
#######################################################################

data_IGIBAD
_chemical_name_common            
(4,4-(bishydroxymethyl)cyclopentan-1,2-dithio)(ethylenedithio)tetrathiafulvalene
_chemical_formula_moiety         'C15 H16 O2 S8'
_chemical_name_systematic        
(2-(5,6-dihydro[1,3]dithiolo[4,5-b][1,4]dithiin-2-ylidene)-5,6,7,7a-tetrahydro-4aH-cyclopenta[b][1,3]dithiolo[4,5-e][1,4]dithiine-6,6-diyl)dimethanol
_symmetry_cell_setting           monoclinic
_symmetry_space_group_name_H-M   'C 2/c'
_symmetry_Int_Tables_number      15
_space_group_name_Hall           '-C 2yn'
loop_
_symmetry_equiv_pos_site_id
_symmetry_equiv_pos_as_xyz
1 x,y,z
2 -x,y,1/2-z
3 1/2+x,1/2+y,z
4 1/2-x,1/2+y,1/2-z
5 -x,-y,-z
6 x,-y,1/2+z
7 1/2-x,1/2-y,-z
8 1/2+x,1/2-y,1/2+z
_cell_length_a                   18.2374(17)
_cell_length_b                   6.1992(6)
_cell_length_c                   34.267(3)
_cell_angle_alpha                90
_cell_angle_beta                 103.472(4)
_cell_angle_gamma                90
_cell_volume                     3767.53
_exptl_crystal_colour            orange
_exptl_crystal_description       plate
_cell_formula_units_Z            8
loop_
_atom_site_label
_atom_site_type_symbol
_atom_site_fract_x
_atom_site_fract_y
_atom_site_fract_z
S1 S 0.85619(11) 0.3079(4) 0.18809(7)
S2 S 0.79851(11) -0.1916(3) 0.21941(6)
S3 S 0.69399(10) 0.4126(3) 0.16968(6)
S4 S 0.64491(10) -0.0126(3) 0.19248(6)
S5 S 0.52061(10) 0.5308(3) 0.12624(6)
S6 S 0.47342(10) 0.0937(3) 0.14486(6)
S7 S 0.37547(10) 0.6167(3) 0.06576(6)
S8 S 0.32052(10) 0.1416(3) 0.08648(6)
O1 O 0.0844(3) 0.8285(9) 0.03422(16)
O2 O 0.0387(3) 0.2539(9) 0.02501(17)
C1 C 0.9112(4) 0.0701(14) 0.2045(3)
H1 H 0.9079 -0.0271 0.1812
H2 H 0.9647 0.1125 0.2142
C2 C 0.8866(4) -0.0526(15) 0.2375(3)
H3 H 0.8814 0.0495 0.2589
H4 H 0.9261 -0.1589 0.2494
C3 C 0.7648(4) 0.2191(13) 0.1870(2)
C4 C 0.7426(4) 0.0241(12) 0.1978(2)
C5 C 0.6189(4) 0.2300(13) 0.1665(2)
C6 C 0.5478(4) 0.2773(12) 0.1478(2)
C7 C 0.4322(4) 0.4385(12) 0.0994(2)
C8 C 0.4105(4) 0.2400(13) 0.1070(2)
C9 C 0.2806(4) 0.5801(12) 0.0757(2)
H5 H 0.2696 0.7073 0.0914
C10 C 0.2690(4) 0.3742(11) 0.0984(2)
H6 H 0.2827 0.4014 0.1280
C11 C 0.2211(4) 0.5707(13) 0.0362(2)
H7 H 0.2373 0.4747 0.0167
H8 H 0.2109 0.7162 0.0243
C12 C 0.1836(4) 0.3272(13) 0.0844(2)
H9 H 0.1584 0.3538 0.1066
H10 H 0.1755 0.1745 0.0760
C13 C 0.1503(4) 0.4787(12) 0.0484(2)
C14 C 0.1070(4) 0.6604(13) 0.0628(2)
H11 H 0.0615 0.5992 0.0697
H12 H 0.1389 0.7228 0.0875
C15 C 0.1009(4) 0.3585(13) 0.0132(2)
H13 H 0.0812 0.4611 -0.0089
H14 H 0.1316 0.2490 0.0032
H15 H 0.051(5) 0.124(7) 0.037(3)
H16 H 0.053(4) 0.803(16) 0.0103(13)
loop_
_geom_bond_atom_site_label_1
_geom_bond_atom_site_label_2
_geom_bond_site_symmetry_1
_geom_bond_site_symmetry_2
S1 C1 1_555 1_555
S2 C2 1_555 1_555
S3 C3 1_555 1_555
S4 C4 1_555 1_555
S5 C6 1_555 1_555
S6 C6 1_555 1_555
S7 C7 1_555 1_555
S8 C8 1_555 1_555
O1 C14 1_555 1_555
O2 C15 1_555 1_555
C1 H1 1_555 1_555
H2 C1 1_555 1_555
C2 C1 1_555 1_555
H3 C2 1_555 1_555
H4 C2 1_555 1_555
C3 S1 1_555 1_555
C4 S2 1_555 1_555
C5 S3 1_555 1_555
C6 C5 1_555 1_555
C7 S5 1_555 1_555
C8 S6 1_555 1_555
C9 S7 1_555 1_555
H5 C9 1_555 1_555
C10 S8 1_555 1_555
H6 C10 1_555 1_555
C11 C9 1_555 1_555
H7 C11 1_555 1_555
H8 C11 1_555 1_555
C12 C10 1_555 1_555
H9 C12 1_555 1_555
H10 C12 1_555 1_555
C13 C11 1_555 1_555
C14 C13 1_555 1_555
H11 C14 1_555 1_555
H12 C14 1_555 1_555
C15 C13 1_555 1_555
H13 C15 1_555 1_555
H14 C15 1_555 1_555
H15 O2 1_555 1_555
H16 O1 1_555 1_555
S4 C5 1_555 1_555
C3 C4 1_555 1_555
C7 C8 1_555 1_555
C9 C10 1_555 1_555
C12 C13 1_555 1_555

#END
