
#######################################################################
#
#                 Cambridge Crystallographic Data Centre
#                                CCDC 
#
#######################################################################
#
# If this CIF has been generated from an entry in the Cambridge 
# Structural Database, then it will include bibliographic, chemical, 
# crystal, experimental, refinement or atomic coordinate data resulting 
# from the CCDC's data processing and validation procedures.
#
#######################################################################

data_IGIBEH
_chemical_name_common            
(cis-4",4"-bis(acetoxymethyl)cyclopenta-1,2-dithio)(ethylenedithio)tetrathiafulvalene
_chemical_formula_moiety         'C19 H20 O4 S8'
_chemical_name_systematic        
'(2-(5,6-dihydro[1,3]dithiolo[4,5-b][1,4]dithiin-2-ylidene)-5,6,7,7a-tetrahydro-4aH-cyclopenta[b][1,3]dithiolo[4,5-e][1,4]dithiine-6,6-diyl)bis(methylene) diacetate'
_symmetry_cell_setting           triclinic
_symmetry_space_group_name_H-M   'P -1'
_symmetry_Int_Tables_number      2
_space_group_name_Hall           '-P 1'
loop_
_symmetry_equiv_pos_site_id
_symmetry_equiv_pos_as_xyz
1 x,y,z
2 -x,-y,-z
_cell_length_a                   6.5807(3)
_cell_length_b                   12.1870(7)
_cell_length_c                   15.5413(9)
_cell_angle_alpha                111.004(3)
_cell_angle_beta                 100.434(3)
_cell_angle_gamma                91.420(3)
_cell_volume                     1138.87
_exptl_crystal_colour            orange
_exptl_crystal_description       plate
_cell_formula_units_Z            2
loop_
_atom_site_label
_atom_site_type_symbol
_atom_site_fract_x
_atom_site_fract_y
_atom_site_fract_z
S1 S 0.29234(6) 0.23040(3) 0.20185(3)
S2 S 0.83585(6) 0.28973(4) 0.27061(3)
S3 S 0.28966(6) 0.46523(3) 0.34916(3)
S4 S 0.74751(6) 0.51421(3) 0.40609(3)
S5 S 0.23970(6) 0.72729(3) 0.49369(3)
S6 S 0.70043(6) 0.77610(3) 0.54649(3)
S7 S 0.18297(6) 0.96024(3) 0.64196(3)
S8 S 0.67228(6) 1.01731(3) 0.69209(3)
O1 O 0.16986(18) 1.20486(11) 0.87506(9)
O2 O 0.2829(2) 1.08078(12) 0.94605(9)
O3 O 0.13447(18) 1.41709(10) 0.83321(9)
O4 O 0.2538(2) 1.59637(11) 0.94165(9)
C1 C 0.4909(2) 0.13511(13) 0.16397(11)
H1 H 0.5318 0.0954 0.2091
H2 H 0.4319 0.0732 0.1018
C2 C 0.6834(3) 0.19952(14) 0.15636(11)
H3 H 0.6411 0.2502 0.1200
H4 H 0.7698 0.1410 0.1216
C3 C 0.4388(2) 0.35510(13) 0.29003(10)
C4 C 0.6464(2) 0.37818(13) 0.31617(11)
C5 C 0.5043(2) 0.56462(13) 0.42103(10)
C6 C 0.4833(2) 0.67344(13) 0.48111(10)
C7 C 0.3456(3) 0.86030(14) 0.58563(13)
C8 C 0.5535(3) 0.88356(14) 0.60764(12)
C9 C 0.2820(3) 1.09253(14) 0.62553(11)
H5 H 0.2352 1.0828 0.5581
C10 C 0.5207(3) 1.12235(14) 0.65371(11)
H6 H 0.5717 1.1310 0.5994
C11 C 0.1906(3) 1.20154(14) 0.68794(12)
H7 H 0.1518 1.2549 0.6536
H8 H 0.0652 1.1766 0.7057
C12 C 0.3600(2) 1.26497(13) 0.77628(11)
C13 C 0.5615(3) 1.24366(15) 0.73692(13)
H9 H 0.6789 1.2426 0.7864
H10 H 0.5961 1.3072 0.7148
C14 C 0.3716(3) 1.20773(15) 0.84921(12)
H11 H 0.4115 1.1264 0.8230
H12 H 0.4783 1.2533 0.9057
C15 C 0.1468(3) 1.13532(14) 0.92374(11)
C16 C -0.0657(3) 1.13355(16) 0.94504(12)
H13 H -0.1674 1.0929 0.8865
H14 H -0.0994 1.2148 0.9743
H15 H -0.0696 1.0918 0.9882
C17 C 0.3432(3) 1.39739(14) 0.81781(12)
H16 H 0.4443 1.4335 0.8782
H17 H 0.3751 1.4346 0.7741
C18 C 0.1115(3) 1.52245(14) 0.89650(11)
C19 C -0.1119(3) 1.53303(16) 0.90280(13)
H18 H -0.1220 1.5988 0.9605
H19 H -0.1730 1.4596 0.9040
H20 H -0.1869 1.5476 0.8480
S9? S 0.1628(10) 0.9822(5) 0.5658(4)
S10? S 0.6525(10) 1.0410(5) 0.6262(4)
C20? C 0.335(5) 0.868(3) 0.552(2)
C21? C 0.540(5) 0.895(3) 0.576(2)
C22? C 0.266(4) 1.070(2) 0.6874(18)
H21? H 0.2075 1.0418 0.7318
C23? C 0.514(4) 1.100(2) 0.7165(18)
H22? H 0.5734 1.0810 0.7731
H23? H 0.2108 1.2183 0.6321
H24? H 0.0477 1.2139 0.6985
H25? H 0.6895 1.2823 0.7843
H26? H 0.5569 1.2612 0.6792
loop_
_geom_bond_atom_site_label_1
_geom_bond_atom_site_label_2
_geom_bond_site_symmetry_1
_geom_bond_site_symmetry_2
S1 C1 1_555 1_555
S2 C2 1_555 1_555
S3 C3 1_555 1_555
S4 C4 1_555 1_555
S5 C6 1_555 1_555
S6 C6 1_555 1_555
S7 C7 1_555 1_555
S8 C8 1_555 1_555
O1 C14 1_555 1_555
O2 C15 1_555 1_555
O3 C17 1_555 1_555
O4 C18 1_555 1_555
C1 H1 1_555 1_555
H2 C1 1_555 1_555
C2 C1 1_555 1_555
H3 C2 1_555 1_555
H4 C2 1_555 1_555
C3 S1 1_555 1_555
C4 S2 1_555 1_555
C5 S3 1_555 1_555
C6 C5 1_555 1_555
C7 S5 1_555 1_555
C8 S6 1_555 1_555
C9 S7 1_555 1_555
H5 C9 1_555 1_555
C10 S8 1_555 1_555
H6 C10 1_555 1_555
C11 C9 1_555 1_555
H7 C11 1_555 1_555
H8 C11 1_555 1_555
C12 C11 1_555 1_555
C13 C10 1_555 1_555
H9 C13 1_555 1_555
H10 C13 1_555 1_555
C14 C12 1_555 1_555
H11 C14 1_555 1_555
H12 C14 1_555 1_555
C15 O1 1_555 1_555
C16 C15 1_555 1_555
H13 C16 1_555 1_555
H14 C16 1_555 1_555
H15 C16 1_555 1_555
C17 C12 1_555 1_555
H16 C17 1_555 1_555
H17 C17 1_555 1_555
C18 O3 1_555 1_555
C19 C18 1_555 1_555
H18 C19 1_555 1_555
H19 C19 1_555 1_555
H20 C19 1_555 1_555
S4 C5 1_555 1_555
C3 C4 1_555 1_555
C7 C8 1_555 1_555
C9 C10 1_555 1_555
C12 C13 1_555 1_555

#END
