
#######################################################################
#
#                 Cambridge Crystallographic Data Centre
#                                CCDC 
#
#######################################################################
#
# If this CIF has been generated from an entry in the Cambridge 
# Structural Database, then it will include bibliographic, chemical, 
# crystal, experimental, refinement or atomic coordinate data resulting 
# from the CCDC's data processing and validation procedures.
#
#######################################################################

data_IGIBOR
_chemical_name_common            
'(ethylenedithio)(1-hydroxypropyl-2,3 dithio)tetrathiafulvalene radical cation triiodide'
_chemical_formula_moiety         'C11 H10 O1 S8 1+,I3 1-'
_chemical_name_systematic        
'2-(5,6-dihydro[1,3]dithiolo[4,5-b][1,4]dithiin-2-ylidene)-6-(hydroxymethyl)-5,6-dihydro[1,3]dithiolo[4,5-b][1,4]dithiin-4-ium radical cation triiodide'
_symmetry_cell_setting           monoclinic
_symmetry_space_group_name_H-M   'I 2/c'
_symmetry_Int_Tables_number      15
_space_group_name_Hall           '-I 2yc'
loop_
_symmetry_equiv_pos_site_id
_symmetry_equiv_pos_as_xyz
1 x,y,z
2 -x,y,1/2-z
3 1/2+x,1/2+y,1/2+z
4 1/2-x,1/2+y,-z
5 -x,-y,-z
6 x,-y,1/2+z
7 1/2-x,1/2-y,1/2-z
8 1/2+x,1/2-y,z
_cell_length_a                   14.5595(7)
_cell_length_b                   13.7315(7)
_cell_length_c                   33.707(3)
_cell_angle_alpha                90
_cell_angle_beta                 98.022(6)
_cell_angle_gamma                90
_cell_volume                     6672.89
_exptl_crystal_colour            black
_exptl_crystal_description       plate
_cell_formula_units_Z            12
loop_
_atom_site_label
_atom_site_type_symbol
_atom_site_fract_x
_atom_site_fract_y
_atom_site_fract_z
S1 S 0.4554(3) 0.7336(3) -0.11930(13)
S2 S 0.5568(4) 0.5212(3) -0.14466(13)
C1 C 0.525(2) 0.628(2) -0.1747(8)
H1 H 0.4603 0.6196 -0.1887
C2 C 0.5312(15) 0.7229(16) -0.1551(7)
H2 H 0.5187 0.7758 -0.1755
C3 C 0.590(5) 0.627(3) -0.2056(13)
H3 H 0.6470 0.6639 -0.1961
H4 H 0.6069 0.5592 -0.2115
O1 O 0.542(7) 0.670(11) -0.2392(16)
S3 S 0.6027(3) 0.4912(2) -0.05771(11)
S4 S 0.5138(2) 0.6694(2) -0.03552(11)
S5 S 0.6867(2) 0.4559(2) 0.03431(12)
S6 S 0.5965(2) 0.6325(2) 0.05678(11)
C4 C 0.5486(10) 0.5633(9) -0.0968(4)
C5 C 0.5076(10) 0.6437(9) -0.0866(4)
C6 C 0.5806(9) 0.5682(9) -0.0201(4)
C7 C 0.6170(9) 0.5538(9) 0.0192(4)
C8 C 0.7059(10) 0.4891(11) 0.0850(5)
C9 C 0.6633(10) 0.5701(10) 0.0953(5)
S7 S 0.7808(3) 0.4125(3) 0.11599(15)
S8 S 0.6681(4) 0.6207(3) 0.14295(14)
C10 C 0.8215(18) 0.5013(16) 0.1526(7)
H5 H 0.8696 0.4704 0.1728
C11 C 0.7542(16) 0.5512(18) 0.1741(7)
H6 H 0.7238 0.5036 0.1905
S1A S 0.5446(3) 0.7336(3) -0.38070(13)
S2A S 0.4432(4) 0.5212(3) -0.35534(13)
C1A C 0.475(2) 0.628(2) -0.3253(8)
H1A H 0.5397 0.6196 -0.3113
C2A C 0.4688(15) 0.7229(16) -0.3449(7)
H2A H 0.4813 0.7758 -0.3245
C3A C 0.410(5) 0.627(3) -0.2944(13)
H3A H 0.3530 0.6639 -0.3039
H4A H 0.3931 0.5592 -0.2885
O1A O 0.458(7) 0.670(11) -0.2608(16)
S3A S 0.3973(3) 0.4912(2) -0.44229(11)
S4A S 0.4862(2) 0.6694(2) -0.46448(11)
S5A S 0.3133(2) 0.4559(2) -0.53431(12)
S6A S 0.4035(2) 0.6325(2) -0.55678(11)
C4A C 0.4514(10) 0.5633(9) -0.4032(4)
C5A C 0.4924(10) 0.6437(9) -0.4134(4)
C6A C 0.4194(9) 0.5682(9) -0.4799(4)
C7A C 0.3830(9) 0.5538(9) -0.5192(4)
C8A C 0.2941(10) 0.4891(11) -0.5850(5)
C9A C 0.3367(10) 0.5701(10) -0.5953(5)
S7A S 0.2192(3) 0.4125(3) -0.61599(15)
S8A S 0.3319(4) 0.6207(3) -0.64295(14)
C10A C 0.1785(18) 0.5013(16) -0.6526(7)
H5A H 0.1304 0.4704 -0.6728
C11A C 0.2458(16) 0.5512(18) -0.6741(7)
H6A H 0.2762 0.5036 -0.6905
S9 S 1.1150(3) 0.5844(3) 0.02989(11)
S10 S 0.9852(3) 0.4523(3) 0.06000(11)
C12 C 1.0216(9) 0.5077(9) 0.0189(4)
C13 C 1.1278(10) 0.5669(9) 0.0805(5)
C14 C 1.0685(10) 0.5039(10) 0.0950(4)
S11 S 1.0633(3) 0.4749(3) 0.14523(12)
S12 S 1.2198(3) 0.6326(3) 0.10642(13)
C15 C 1.1770(15) 0.510(2) 0.1671(10)
H7 H 1.1822 0.5030 0.1968
C16 C 1.2103(17) 0.6077(17) 0.1579(5)
H8 H 1.2717 0.6197 0.1745
C17 C 1.141(5) 0.680(3) 0.1693(15)
H9 H 1.1717 0.7283 0.1884
H10 H 1.1094 0.7137 0.1454
O2 O 1.079(8) 0.623(6) 0.187(5)
S9D S 0.8850(3) 0.4156(3) -0.02989(11)
S10D S 1.0148(3) 0.5477(3) -0.06000(11)
C12D C 0.9784(9) 0.4923(9) -0.0189(4)
C13D C 0.8722(10) 0.4331(9) -0.0805(5)
C14D C 0.9315(10) 0.4961(10) -0.0950(4)
S11D S 0.9367(3) 0.5251(3) -0.14523(12)
S12D S 0.7802(3) 0.3674(3) -0.10642(13)
C15D C 0.8230(15) 0.490(2) -0.1671(10)
H7D H 0.8178 0.4970 -0.1968
C16D C 0.7897(17) 0.3923(17) -0.1579(5)
H8D H 0.7283 0.3803 -0.1745
C17D C 0.859(5) 0.320(3) -0.1693(15)
H9D H 0.8283 0.2717 -0.1884
H10D H 0.8906 0.2863 -0.1454
O2D O 0.921(8) 0.377(6) -0.187(5)
I1 I 0.93921(8) 0.74181(8) 0.11648(4)
I2 I 0.85477(7) 0.71441(6) 0.03402(3)
I3 I 0.78074(8) 0.69520(7) -0.05066(4)
C18? C 0.868(6) 0.577(4) 0.1300(18)
H11? H 0.8593 0.6425 0.1408
H12? H 0.9351 0.5632 0.1317
O3? O 0.82(3) 0.57(3) 0.091(4)
I4? I 0.740(3) 0.340(2) 0.2623(6)
I5? I 1.0000 0.5070(15) 0.2500
I6? I 1.0000 0.693(3) 0.2500
I7? I 1.0635(19) 0.8767(19) 0.2513(6)
C19? C 1.2392(17) 0.437(3) 0.151(3)
H13? H 1.3000 0.4664 0.1483
H14? H 1.2493 0.3803 0.1694
O4? O 1.193(16) 0.41(2) 0.114(6)
C20? C 0.6270(13) 0.734(6) -0.1325(16)
H15? H 0.6698 0.7613 -0.1501
H16? H 0.6264 0.7781 -0.1093
O5? O 0.653(9) 0.641(8) -0.120(8)
C21? C 0.806(3) 0.627(4) 0.2006(17)
H17? H 0.8375 0.5970 0.2255
H18? H 0.8524 0.6600 0.1866
O6? O 0.739(5) 0.692(13) 0.209(8)
I8? I 1.0000 0.4303(5) 0.2500
I9? I 0.8343(4) 0.3121(4) 0.24968(11)
loop_
_geom_bond_atom_site_label_1
_geom_bond_atom_site_label_2
_geom_bond_site_symmetry_1
_geom_bond_site_symmetry_2
I1 I2 1_555 1_555
I2 I3 1_555 1_555
S1 C2 1_555 1_555
S2 C1 1_555 1_555
C1 H1 1_555 1_555
C2 C1 1_555 1_555
H2 C2 1_555 1_555
C3 C1 1_555 1_555
H3 C3 1_555 1_555
H4 C3 1_555 1_555
O1 C3 1_555 1_555
S3 C4 1_555 1_555
S4 C5 1_555 1_555
S5 C7 1_555 1_555
S6 C7 1_555 1_555
C4 S2 1_555 1_555
C5 S1 1_555 1_555
C6 S3 1_555 1_555
C7 C6 1_555 1_555
C8 S5 1_555 1_555
C9 S6 1_555 1_555
S7 C8 1_555 1_555
S8 C9 1_555 1_555
C10 S7 1_555 1_555
H5 C10 1_555 1_555
C11 S8 1_555 1_555
H6 C11 1_555 1_555
S9 C12 1_555 1_555
S10 C12 1_555 1_555
C12 C12D 1_555 1_555
C13 S9 1_555 1_555
C14 S10 1_555 1_555
S11 C14 1_555 1_555
S12 C13 1_555 1_555
C15 S11 1_555 1_555
H7 C15 1_555 1_555
C16 S12 1_555 1_555
H8 C16 1_555 1_555
C17 C16 1_555 1_555
H9 C17 1_555 1_555
H10 C17 1_555 1_555
O2 C17 1_555 1_555
S1A C2A 1_555 1_555
S2A C1A 1_555 1_555
C1A H1A 1_555 1_555
C2A C1A 1_555 1_555
H2A C2A 1_555 1_555
C3A C1A 1_555 1_555
H3A C3A 1_555 1_555
H4A C3A 1_555 1_555
O1A C3A 1_555 1_555
S3A C4A 1_555 1_555
S4A C5A 1_555 1_555
S5A C7A 1_555 1_555
S6A C7A 1_555 1_555
C4A S2A 1_555 1_555
C5A S1A 1_555 1_555
C6A S3A 1_555 1_555
C7A C6A 1_555 1_555
C8A S5A 1_555 1_555
C9A S6A 1_555 1_555
S7A C8A 1_555 1_555
S8A C9A 1_555 1_555
C10A S7A 1_555 1_555
H5A C10A 1_555 1_555
C11A S8A 1_555 1_555
H6A C11A 1_555 1_555
S9D C12D 1_555 1_555
S10D C12D 1_555 1_555
C13D S9D 1_555 1_555
C14D S10D 1_555 1_555
S11D C14D 1_555 1_555
S12D C13D 1_555 1_555
C15D S11D 1_555 1_555
H7D C15D 1_555 1_555
C16D S12D 1_555 1_555
H8D C16D 1_555 1_555
C17D C16D 1_555 1_555
H9D C17D 1_555 1_555
H10D C17D 1_555 1_555
O2D C17D 1_555 1_555
S4 C6 1_555 1_555
C4 C5 1_555 1_555
C8 C9 1_555 1_555
C10 C11 1_555 1_555
C13 C14 1_555 1_555
C15 C16 1_555 1_555
S4A C6A 1_555 1_555
C4A C5A 1_555 1_555
C8A C9A 1_555 1_555
C10A C11A 1_555 1_555
C13D C14D 1_555 1_555
C15D C16D 1_555 1_555

#END
