
#######################################################################
#
#                 Cambridge Crystallographic Data Centre
#                                CCDC 
#
#######################################################################
#
# If this CIF has been generated from an entry in the Cambridge 
# Structural Database, then it will include bibliographic, chemical, 
# crystal, experimental, refinement or atomic coordinate data resulting 
# from the CCDC's data processing and validation procedures.
#
#######################################################################

data_IGIBIL
_chemical_name_common            
'(ethylenedithio)(2-hydroxypropylene-1,3 dithio)tetrathiafulvalene radical cation iodine triiodide'
_chemical_formula_moiety         'C11 H10 O1 S8 1+,I3 1-,0.15(I2)'
_chemical_name_systematic        
'2-(6-hydroxy-6,7-dihydro-5H-[1,3]dithiolo[4,5-b][1,4]dithiepin-2-ylidene)-5,6-dihydro[1,3]dithiolo[4,5-b][1,4]dithiin-1-ium radical cation iodine triiodide'
_symmetry_cell_setting           triclinic
_symmetry_space_group_name_H-M   'P -1'
_symmetry_Int_Tables_number      2
_space_group_name_Hall           '-P 1'
loop_
_symmetry_equiv_pos_site_id
_symmetry_equiv_pos_as_xyz
1 x,y,z
2 -x,-y,-z
_cell_length_a                   7.9246(4)
_cell_length_b                   8.6449(4)
_cell_length_c                   16.2901(8)
_cell_angle_alpha                87.891(2)
_cell_angle_beta                 86.545(2)
_cell_angle_gamma                76.982(2)
_cell_volume                     1085.02
_exptl_crystal_colour            black
_exptl_crystal_description       plate
_cell_formula_units_Z            2
loop_
_atom_site_label
_atom_site_type_symbol
_atom_site_fract_x
_atom_site_fract_y
_atom_site_fract_z
S1 S 0.4459(4) 0.0329(5) 0.16871(19)
S2 S 0.8068(3) -0.2513(3) 0.21162(15)
S3 S 0.4681(3) 0.1462(3) 0.33597(16)
S4 S 0.7773(3) -0.0924(3) 0.37367(14)
S5 S 0.4649(3) 0.3007(3) 0.51273(15)
S6 S 0.7763(3) 0.0642(3) 0.55167(16)
S7 S 0.4298(3) 0.4717(3) 0.66624(16)
S8 S 0.8133(4) 0.1942(4) 0.71200(19)
O1 O 0.826(2) -0.0192(19) -0.0067(8)
H1 H 0.7663 0.0626 -0.0256
C1 C 0.8805(14) -0.1368(14) 0.1269(7)
H2 H 0.9226 -0.0511 0.1496
H3 H 0.9781 -0.2048 0.0978
C2 C 0.7454(17) -0.0648(17) 0.0646(7)
H4 H 0.6843 -0.1465 0.0510
C3 C 0.6132(19) 0.0766(18) 0.0970(8)
H5 H 0.5578 0.1364 0.0506
H6 H 0.6740 0.1447 0.1238
C4 C 0.5523(13) 0.0093(12) 0.2607(7)
C5 C 0.6982(12) -0.1017(11) 0.2774(6)
C6 C 0.6216(11) 0.0685(10) 0.4057(6)
C7 C 0.6200(11) 0.1360(10) 0.4818(6)
C8 C 0.5507(11) 0.3178(10) 0.6071(6)
C9 C 0.6968(11) 0.2082(11) 0.6244(6)
C10 C 0.7408(18) 0.4065(18) 0.7436(10)
H7 H 0.7924 0.4195 0.7947
H8 H 0.7820 0.4744 0.7020
C11 C 0.5572(18) 0.4553(15) 0.7545(8)
H9 H 0.5305 0.5579 0.7803
H10 H 0.5183 0.3810 0.7933
I1 I 0.01330(9) 0.58545(8) 0.57116(6)
I1A I -0.01330(9) 0.41455(8) 0.42884(6)
I2 I -0.04752(12) 0.24151(10) 0.25610(8)
I3 I 0.1365(7) 0.3947(5) 0.1037(4)
I4 I 0.3717(7) 0.5129(4) -0.0059(2)
I2A I 1.04752(12) 0.75849(10) -0.25610(8)
I3A I 0.8635(7) 0.6053(5) -0.1037(4)
I4A I 0.6283(7) 0.4871(4) 0.0059(2)
I5? I -0.0857(8) 0.4180(6) 0.0818(4)
I6? I 0.1149(16) 0.4098(9) 0.0698(6)
I7? I 0.0006(9) 0.4162(4) 0.0806(3)
loop_
_geom_bond_atom_site_label_1
_geom_bond_atom_site_label_2
_geom_bond_site_symmetry_1
_geom_bond_site_symmetry_2
S1 C3 1_555 1_555
S2 C1 1_555 1_555
S3 C4 1_555 1_555
S4 C5 1_555 1_555
S5 C7 1_555 1_555
S6 C7 1_555 1_555
S7 C8 1_555 1_555
S8 C9 1_555 1_555
O1 H1 1_555 1_555
C1 H2 1_555 1_555
H3 C1 1_555 1_555
C2 O1 1_555 1_555
H4 C2 1_555 1_555
C3 C2 1_555 1_555
H5 C3 1_555 1_555
H6 C3 1_555 1_555
C4 S1 1_555 1_555
C5 S2 1_555 1_555
C6 S3 1_555 1_555
C7 C6 1_555 1_555
C8 S5 1_555 1_555
C9 S6 1_555 1_555
C10 S8 1_555 1_555
H7 C10 1_555 1_555
H8 C10 1_555 1_555
C11 S7 1_555 1_555
H9 C11 1_555 1_555
H10 C11 1_555 1_555
I1 I1A 1_555 1_555
I2 I3 1_555 1_555
I3 I4 1_555 1_555
I2A I3A 1_555 1_555
I3A I4A 1_555 1_555
S4 C6 1_555 1_555
C1 C2 1_555 1_555
C4 C5 1_555 1_555
C8 C9 1_555 1_555
C10 C11 1_555 1_555

#END
