
#######################################################################
#
#                 Cambridge Crystallographic Data Centre
#                                CCDC 
#
#######################################################################
#
# If this CIF has been generated from an entry in the Cambridge 
# Structural Database, then it will include bibliographic, chemical, 
# crystal, experimental, refinement or atomic coordinate data resulting 
# from the CCDC's data processing and validation procedures.
#
#######################################################################

data_IGODAL
_chemical_formula_moiety         'C18 H11 B1 Cl1 F2 N3'
_chemical_name_systematic        
(2-chloro-3-((1H-pyrrol-2-yl)(2H-pyrrol-2-ylidene)methyl)quinolinato)(difluoro)borate
_symmetry_cell_setting           monoclinic
_symmetry_space_group_name_H-M   'P 21/c'
_symmetry_Int_Tables_number      14
_space_group_name_Hall           '-P 2ybc'
loop_
_symmetry_equiv_pos_site_id
_symmetry_equiv_pos_as_xyz
1 x,y,z
2 -x,1/2+y,1/2-z
3 -x,-y,-z
4 x,1/2-y,1/2+z
_cell_length_a                   9.7361(2)
_cell_length_b                   14.5464(2)
_cell_length_c                   12.2140(2)
_cell_angle_alpha                90
_cell_angle_beta                 111.146(2)
_cell_angle_gamma                90
_cell_volume                     1613.33
_exptl_crystal_colour            orange
_exptl_crystal_description       block
_cell_formula_units_Z            4
loop_
_atom_site_label
_atom_site_type_symbol
_atom_site_fract_x
_atom_site_fract_y
_atom_site_fract_z
Cl1 Cl 0.61194(5) 0.00163(3) 0.23104(4)
B1 B 0.9054(3) 0.31712(16) 0.2394(2)
F1 F 0.8406(2) 0.37919(10) 0.28945(13)
F2 F 1.03683(16) 0.35319(10) 0.23750(12)
N1 N 0.93620(18) 0.22470(11) 0.30842(14)
N2 N 0.80152(17) 0.29417(11) 0.11366(14)
N3 N 0.63305(16) -0.10663(10) 0.07137(13)
C1 C 1.0217(2) 0.21253(14) 0.42158(17)
H1 H 1.0619 0.2607 0.4764
C2 C 1.0430(2) 0.11879(14) 0.44687(16)
H2 H 1.0998 0.0924 0.5205
C3 C 0.9661(2) 0.07160(13) 0.34506(16)
H3 H 0.9601 0.0068 0.3352
C4 C 0.89840(19) 0.13815(12) 0.25859(15)
C5 C 0.80844(19) 0.12886(12) 0.14032(15)
C6 C 0.76128(19) 0.20617(12) 0.06884(15)
C7 C 0.6687(2) 0.21476(14) -0.05032(16)
H4 H 0.6242 0.1659 -0.1027
C8 C 0.6551(2) 0.30705(15) -0.07601(19)
H5 H 0.5999 0.3340 -0.1496
C9 C 0.7377(2) 0.35371(14) 0.02652(18)
H6 H 0.7472 0.4187 0.0335
C10 C 0.76542(18) 0.03700(12) 0.08613(14)
C11 C 0.67694(19) -0.02762(12) 0.11948(15)
C12 C 0.67326(19) -0.13213(13) -0.02103(15)
C13 C 0.6238(2) -0.21751(14) -0.07636(18)
H7 H 0.5659 -0.2569 -0.0483
C14 C 0.6597(2) -0.24320(15) -0.17066(18)
H8 H 0.6263 -0.3006 -0.2078
C15 C 0.7456(2) -0.18548(16) -0.21324(17)
H9 H 0.7693 -0.2043 -0.2788
C16 C 0.7949(2) -0.10287(15) -0.16102(16)
H10 H 0.8525 -0.0644 -0.1905
C17 C 0.76045(19) -0.07419(13) -0.06268(15)
C18 C 0.8051(2) 0.01088(13) -0.00630(16)
H11 H 0.8637 0.0510 -0.0327
loop_
_geom_bond_atom_site_label_1
_geom_bond_atom_site_label_2
_geom_bond_site_symmetry_1
_geom_bond_site_symmetry_2
Cl1 C11 1_555 1_555
B1 F1 1_555 1_555
F2 B1 1_555 1_555
N1 B1 1_555 1_555
N2 B1 1_555 1_555
N3 C11 1_555 1_555
C1 N1 1_555 1_555
H1 C1 1_555 1_555
C2 C1 1_555 1_555
H2 C2 1_555 1_555
C3 C2 1_555 1_555
H3 C3 1_555 1_555
C4 N1 1_555 1_555
C5 C4 1_555 1_555
C6 N2 1_555 1_555
C7 C6 1_555 1_555
H4 C7 1_555 1_555
C8 C7 1_555 1_555
H5 C8 1_555 1_555
C9 N2 1_555 1_555
H6 C9 1_555 1_555
C10 C5 1_555 1_555
C11 C10 1_555 1_555
C12 N3 1_555 1_555
C13 C12 1_555 1_555
H7 C13 1_555 1_555
C14 C13 1_555 1_555
H8 C14 1_555 1_555
C15 C14 1_555 1_555
H9 C15 1_555 1_555
C16 C15 1_555 1_555
H10 C16 1_555 1_555
C17 C12 1_555 1_555
C18 C10 1_555 1_555
H11 C18 1_555 1_555
C3 C4 1_555 1_555
C5 C6 1_555 1_555
C8 C9 1_555 1_555
C16 C17 1_555 1_555
C17 C18 1_555 1_555

#END
