
#######################################################################
#
#                 Cambridge Crystallographic Data Centre
#                                CCDC 
#
#######################################################################
#
# If this CIF has been generated from an entry in the Cambridge 
# Structural Database, then it will include bibliographic, chemical, 
# crystal, experimental, refinement or atomic coordinate data resulting 
# from the CCDC's data processing and validation procedures.
#
#######################################################################

data_IGOGUI
_chemical_formula_moiety         'C10 H15 N2 1+,C11 H7 O3 1-'
_chemical_name_systematic        
'4-phenylpiperazin-1-ium 3-hydroxy-2-naphthoate'
_symmetry_cell_setting           orthorhombic
_symmetry_space_group_name_H-M   'P 21 21 21'
_symmetry_Int_Tables_number      19
_space_group_name_Hall           'P 2ac 2ab'
loop_
_symmetry_equiv_pos_site_id
_symmetry_equiv_pos_as_xyz
1 x,y,z
2 1/2-x,-y,1/2+z
3 -x,1/2+y,1/2-z
4 1/2+x,1/2-y,-z
_cell_length_a                   6.2836(6)
_cell_length_b                   8.1666(10)
_cell_length_c                   34.870(3)
_cell_angle_alpha                90
_cell_angle_beta                 90
_cell_angle_gamma                90
_cell_volume                     1789.38
_exptl_crystal_colour            colorless
_exptl_crystal_description       block
_cell_formula_units_Z            4
loop_
_atom_site_label
_atom_site_type_symbol
_atom_site_fract_x
_atom_site_fract_y
_atom_site_fract_z
N1 N 0.6167(4) 0.9219(3) 0.14221(7)
N2 N 0.4844(4) 1.0504(4) 0.21540(8)
H1 H 0.4043 1.0423 0.2391
H2 H 0.5608 1.1536 0.2155
C1 C 0.4538(5) 1.0491(5) 0.14472(10)
H3 H 0.3526 1.0346 0.1240
H4 H 0.5203 1.1554 0.1416
C2 C 0.6367(5) 0.9130(4) 0.21269(10)
H5 H 0.5604 0.8100 0.2142
H6 H 0.7355 0.9179 0.2340
C3 C 0.7581(4) 0.9213(5) 0.17547(9)
H7 H 0.8443 1.0199 0.1752
H8 H 0.8532 0.8280 0.1738
C4 C 0.3374(5) 1.0449(5) 0.18235(10)
H9 H 0.2410 1.1375 0.1837
H10 H 0.2529 0.9457 0.1837
C5 C 0.7122(5) 0.8999(4) 0.10585(10)
C6 C 0.6123(6) 0.9526(6) 0.07260(11)
H11 H 0.4829 1.0074 0.0743
C7 C 0.9042(6) 0.8176(5) 0.10157(11)
H12 H 0.9762 0.7804 0.1232
C8 C 0.8901(9) 0.8433(6) 0.03326(13)
H13 H 0.9493 0.8241 0.0092
C9 C 0.7018(8) 0.9252(6) 0.03682(12)
H14 H 0.6326 0.9630 0.0150
C10 C 0.9893(7) 0.7905(6) 0.06568(12)
H15 H 1.1177 0.7347 0.0636
O1 O 1.2100(4) 1.6461(3) 0.21103(7)
H16 H 1.1078 1.6361 0.2255
C11 C 0.9919(4) 1.4561(4) 0.17519(9)
C12 C 1.1784(5) 1.5536(4) 0.17904(9)
O2 O 0.6851(4) 1.3453(4) 0.20500(8)
C13 C 0.9642(5) 1.3694(4) 0.14196(10)
H17 H 0.8422 1.3060 0.1393
C14 C 1.3258(5) 1.5572(4) 0.15055(10)
H18 H 1.4477 1.6204 0.1537
C15 C 1.1125(6) 1.3723(4) 0.11172(10)
C16 C 1.2991(5) 1.4680(4) 0.11643(10)
C17 C 1.4498(6) 1.4699(5) 0.08613(11)
H19 H 1.5732 1.5319 0.0887
O3 O 0.8486(4) 1.5527(4) 0.23347(8)
C18 C 0.8295(5) 1.4487(5) 0.20669(11)
C19 C 1.0853(7) 1.2827(5) 0.07712(11)
H20 H 0.9639 1.2193 0.0736
C20 C 1.4173(8) 1.3833(6) 0.05364(12)
H21 H 1.5179 1.3868 0.0341
C21 C 1.2348(8) 1.2889(6) 0.04915(11)
H22 H 1.2152 1.2293 0.0267
loop_
_geom_bond_atom_site_label_1
_geom_bond_atom_site_label_2
_geom_bond_site_symmetry_1
_geom_bond_site_symmetry_2
N1 C1 1_555 1_555
N2 H1 1_555 1_555
H2 N2 1_555 1_555
C1 H3 1_555 1_555
H4 C1 1_555 1_555
C2 N2 1_555 1_555
H5 C2 1_555 1_555
H6 C2 1_555 1_555
C3 N1 1_555 1_555
H7 C3 1_555 1_555
H8 C3 1_555 1_555
C4 N2 1_555 1_555
H9 C4 1_555 1_555
H10 C4 1_555 1_555
C5 N1 1_555 1_555
C6 C5 1_555 1_555
H11 C6 1_555 1_555
C7 C5 1_555 1_555
H12 C7 1_555 1_555
C8 H13 1_555 1_555
C9 C6 1_555 1_555
H14 C9 1_555 1_555
C10 C7 1_555 1_555
H15 C10 1_555 1_555
O1 H16 1_555 1_555
C11 C12 1_555 1_555
C12 O1 1_555 1_555
O2 C18 1_555 1_555
C13 C11 1_555 1_555
H17 C13 1_555 1_555
C14 C12 1_555 1_555
H18 C14 1_555 1_555
C15 C13 1_555 1_555
C16 C14 1_555 1_555
C17 C16 1_555 1_555
H19 C17 1_555 1_555
O3 C18 1_555 1_555
C18 C11 1_555 1_555
C19 C15 1_555 1_555
H20 C19 1_555 1_555
C20 C17 1_555 1_555
H21 C20 1_555 1_555
C21 C19 1_555 1_555
H22 C21 1_555 1_555
C1 C4 1_555 1_555
C2 C3 1_555 1_555
C8 C9 1_555 1_555
C8 C10 1_555 1_555
C15 C16 1_555 1_555
C20 C21 1_555 1_555

#END
