
#######################################################################
#
#                 Cambridge Crystallographic Data Centre
#                                CCDC 
#
#######################################################################
#
# If this CIF has been generated from an entry in the Cambridge 
# Structural Database, then it will include bibliographic, chemical, 
# crystal, experimental, refinement or atomic coordinate data resulting 
# from the CCDC's data processing and validation procedures.
#
#######################################################################

data_IGOGOC
_chemical_formula_moiety         'C11 H7 O3 1-,C6 H10 N3 1+'
_chemical_name_systematic        
'2-amino-4,6-dimethylpyrimidin-1-ium 3-hydroxy-2-naphthoate'
_symmetry_cell_setting           triclinic
_symmetry_space_group_name_H-M   'P -1'
_symmetry_Int_Tables_number      2
_space_group_name_Hall           '-P 1'
loop_
_symmetry_equiv_pos_site_id
_symmetry_equiv_pos_as_xyz
1 x,y,z
2 -x,-y,-z
_cell_length_a                   7.6965(5)
_cell_length_b                   9.3446(6)
_cell_length_c                   11.9676(9)
_cell_angle_alpha                76.523(6)
_cell_angle_beta                 86.187(6)
_cell_angle_gamma                67.033(7)
_cell_volume                     770.38
_exptl_crystal_colour            colorless
_exptl_crystal_description       block
_cell_formula_units_Z            2
loop_
_atom_site_label
_atom_site_type_symbol
_atom_site_fract_x
_atom_site_fract_y
_atom_site_fract_z
C1 C 0.8034(2) 0.29130(18) 0.77882(15)
O1 O 0.9755(2) 0.05190(14) 0.71631(12)
O2 O 0.8328(2) 0.03500(15) 0.88296(13)
C2 C 0.6746(2) 0.62326(19) 0.75570(15)
C3 C 0.7666(2) 0.55381(18) 0.66311(15)
O3 O 0.6715(2) 0.27520(15) 0.96816(12)
H1 H 0.7126 0.1813 0.9643
C4 C 0.6461(3) 0.5258(2) 0.85718(16)
H2 H 0.5853 0.5715 0.9175
C5 C 0.8302(2) 0.38664(18) 0.67929(15)
H3 H 0.8928 0.3395 0.6200
C6 C 0.7936(2) 0.6530(2) 0.56061(16)
H4 H 0.8505 0.6082 0.4992
C7 C 0.7062(2) 0.3638(2) 0.86939(15)
C8 C 0.6173(3) 0.7913(2) 0.74077(18)
H5 H 0.5564 0.8396 0.7999
C9 C 0.7380(3) 0.8129(2) 0.54994(18)
H6 H 0.7583 0.8763 0.4821
C10 C 0.8772(2) 0.11303(19) 0.79257(16)
C11 C 0.6499(3) 0.8820(2) 0.64189(19)
H7 H 0.6135 0.9911 0.6348
N1 N 0.8859(2) 0.27011(16) 0.24822(12)
H8 H 0.9305 0.1682 0.2564
N2 N 0.8574(2) 0.52214(16) 0.13518(13)
C12 C 0.7084(2) 0.4973(2) 0.31548(17)
H9 H 0.6333 0.5465 0.3707
C13 C 0.7506(2) 0.5882(2) 0.21587(17)
N3 N 1.0333(2) 0.29176(16) 0.07542(13)
H10 H 1.0606 0.3481 0.0145
H11 H 1.0769 0.1896 0.0859
C14 C 0.7784(2) 0.3350(2) 0.33124(16)
C15 C 0.9255(2) 0.36152(19) 0.15213(15)
C16 C 0.7459(3) 0.2231(2) 0.43317(17)
H12 H 0.7028 0.1519 0.4082
H13 H 0.6523 0.2825 0.4800
H14 H 0.8618 0.1626 0.4771
C17 C 0.6784(3) 0.7660(2) 0.1954(2)
H15 H 0.7325 0.7949 0.2523
H16 H 0.5434 0.8085 0.2005
H17 H 0.7129 0.8087 0.1203
loop_
_geom_bond_atom_site_label_1
_geom_bond_atom_site_label_2
_geom_bond_site_symmetry_1
_geom_bond_site_symmetry_2
C1 C5 1_555 1_555
O1 C10 1_555 1_555
O2 C10 1_555 1_555
C2 C3 1_555 1_555
C3 C5 1_555 1_555
O3 H1 1_555 1_555
C4 C2 1_555 1_555
H2 C4 1_555 1_555
C5 H3 1_555 1_555
C6 C3 1_555 1_555
H4 C6 1_555 1_555
C7 C1 1_555 1_555
C8 C2 1_555 1_555
H5 C8 1_555 1_555
C9 C6 1_555 1_555
H6 C9 1_555 1_555
C10 C1 1_555 1_555
C11 C8 1_555 1_555
H7 C11 1_555 1_555
N1 H8 1_555 1_555
N2 C13 1_555 1_555
C12 H9 1_555 1_555
C13 C12 1_555 1_555
N3 H10 1_555 1_555
H11 N3 1_555 1_555
C14 N1 1_555 1_555
C15 N1 1_555 1_555
C16 C14 1_555 1_555
H12 C16 1_555 1_555
H13 C16 1_555 1_555
H14 C16 1_555 1_555
C17 C13 1_555 1_555
H15 C17 1_555 1_555
H16 C17 1_555 1_555
H17 C17 1_555 1_555
O3 C7 1_555 1_555
C4 C7 1_555 1_555
C9 C11 1_555 1_555
N2 C15 1_555 1_555
C12 C14 1_555 1_555
N3 C15 1_555 1_555

#END
