
#######################################################################
#
#                 Cambridge Crystallographic Data Centre
#                                CCDC 
#
#######################################################################
#
# If this CIF has been generated from an entry in the Cambridge 
# Structural Database, then it will include bibliographic, chemical, 
# crystal, experimental, refinement or atomic coordinate data resulting 
# from the CCDC's data processing and validation procedures.
#
#######################################################################

data_IGOHET
_chemical_formula_moiety         'C12 H24 N1 1+,C11 H7 O3 1-'
_chemical_name_systematic        
'N,N-dicyclohexylammonium 3-hydroxy-2-naphthoate'
_symmetry_cell_setting           monoclinic
_symmetry_space_group_name_H-M   'P 21/c'
_symmetry_Int_Tables_number      14
_space_group_name_Hall           '-P 2ybc'
loop_
_symmetry_equiv_pos_site_id
_symmetry_equiv_pos_as_xyz
1 x,y,z
2 -x,1/2+y,1/2-z
3 -x,-y,-z
4 x,1/2-y,1/2+z
_cell_length_a                   13.1744(4)
_cell_length_b                   14.8970(4)
_cell_length_c                   21.1083(7)
_cell_angle_alpha                90
_cell_angle_beta                 90.01
_cell_angle_gamma                90
_cell_volume                     4142.69
_exptl_crystal_colour            colorless
_exptl_crystal_description       block
_cell_formula_units_Z            8
loop_
_atom_site_label
_atom_site_type_symbol
_atom_site_fract_x
_atom_site_fract_y
_atom_site_fract_z
N1 N -0.06946(10) -0.11742(9) 0.03819(6)
H1 H -0.0024 -0.0905 0.0386
H2 H -0.1061 -0.0915 0.0028
C1 C -0.12283(12) -0.08939(11) 0.09794(8)
H3 H -0.0830 -0.1103 0.1343
C2 C -0.22804(13) -0.12902(13) 0.10243(9)
H4 H -0.2239 -0.1940 0.1011
H5 H -0.2685 -0.1092 0.0667
C3 C -0.27830(15) -0.09977(14) 0.16376(10)
H6 H -0.3466 -0.1240 0.1655
H7 H -0.2406 -0.1239 0.1993
C4 C -0.28286(15) 0.00131(15) 0.16928(10)
H8 H -0.3087 0.0173 0.2108
H9 H -0.3297 0.0246 0.1378
C5 C -0.17988(16) 0.04452(13) 0.15991(10)
H10 H -0.1372 0.0310 0.1961
H11 H -0.1881 0.1092 0.1578
C6 C -0.12740(14) 0.01220(12) 0.09990(9)
H12 H -0.1641 0.0341 0.0632
H13 H -0.0591 0.0364 0.0983
C7 C -0.05660(13) -0.21613(11) 0.02507(8)
H14 H -0.1233 -0.2415 0.0149
C8 C 0.01090(15) -0.22577(13) -0.03251(9)
H15 H 0.0750 -0.1957 -0.0246
H16 H -0.0212 -0.1967 -0.0684
C9 C 0.03101(19) -0.32384(15) -0.04859(11)
H17 H -0.0318 -0.3520 -0.0620
H18 H 0.0789 -0.3272 -0.0834
C10 C 0.07340(17) -0.37384(15) 0.00796(11)
H19 H 0.0812 -0.4369 -0.0025
H20 H 0.1398 -0.3501 0.0185
C11 C -0.01384(15) -0.26627(12) 0.08127(9)
H21 H -0.0607 -0.2622 0.1166
H22 H 0.0499 -0.2392 0.0941
C12 C 0.00348(17) -0.36435(13) 0.06436(11)
H23 H 0.0328 -0.3952 0.1004
H24 H -0.0612 -0.3924 0.0548
N2 N -0.48275(10) -0.37743(8) 0.04334(6)
H25 H -0.4654 -0.3950 0.0004
H26 H -0.5323 -0.4203 0.0588
C13 C -0.59890(16) -0.12630(13) -0.02720(11)
H27 H -0.5711 -0.1338 -0.0694
H28 H -0.6350 -0.0696 -0.0261
C14 C -0.51351(16) -0.12395(12) 0.02017(11)
H29 H -0.5405 -0.1090 0.0616
H30 H -0.4656 -0.0775 0.0082
C15 C -0.45873(13) -0.21353(11) 0.02382(9)
H31 H -0.4269 -0.2266 -0.0166
H32 H -0.4060 -0.2107 0.0558
C16 C -0.53337(12) -0.28701(10) 0.04025(8)
H33 H -0.5631 -0.2737 0.0818
C17 C -0.61805(13) -0.29146(12) -0.00826(9)
H34 H -0.6663 -0.3375 0.0040
H35 H -0.5901 -0.3077 -0.0492
C18 C -0.67231(15) -0.20197(13) -0.01359(11)
H36 H -0.7222 -0.2052 -0.0473
H37 H -0.7079 -0.1897 0.0257
C19 C -0.38922(13) -0.38672(11) 0.08320(8)
H38 H -0.3369 -0.3471 0.0656
C20 C -0.40622(16) -0.36063(14) 0.15160(9)
H39 H -0.4582 -0.3987 0.1700
H40 H -0.4294 -0.2989 0.1538
C21 C -0.30822(18) -0.37074(15) 0.18863(11)
H41 H -0.2591 -0.3275 0.1731
H42 H -0.3210 -0.3575 0.2329
C22 C -0.26407(17) -0.46416(16) 0.18312(11)
H43 H -0.3078 -0.5062 0.2051
H44 H -0.1981 -0.4655 0.2034
C23 C -0.25296(16) -0.49327(16) 0.11471(11)
H45 H -0.2322 -0.5557 0.1133
H46 H -0.2003 -0.4578 0.0946
C24 C -0.35164(14) -0.48223(12) 0.07822(9)
H47 H -0.3408 -0.4974 0.0341
H48 H -0.4024 -0.5228 0.0952
O1 O -0.39720(10) -0.10813(9) 0.42515(6)
O2 O -0.19692(11) 0.06914(8) 0.34124(7)
H49 H -0.2479 0.0782 0.3625
O3 O -0.35825(10) 0.03213(9) 0.40057(7)
C25 C -0.04752(18) -0.32643(18) 0.27970(11)
H50 H -0.0378 -0.3875 0.2731
C26 C 0.02403(18) -0.2652(2) 0.25770(11)
H51 H 0.0814 -0.2861 0.2367
C27 C 0.01141(15) -0.17530(18) 0.26645(10)
H52 H 0.0600 -0.1354 0.2513
C28 C -0.07583(13) -0.14208(14) 0.29864(8)
C29 C -0.09374(14) -0.05033(14) 0.30812(8)
H53 H -0.0458 -0.0089 0.2943
C30 C -0.18002(13) -0.02031(12) 0.33712(8)
C31 C -0.25133(12) -0.08281(11) 0.36224(7)
C32 C -0.23379(12) -0.17241(11) 0.35372(7)
H54 H -0.2800 -0.2135 0.3701
C33 C -0.14788(13) -0.20491(12) 0.32083(8)
C34 C -0.13114(16) -0.29738(13) 0.31067(9)
H55 H -0.1782 -0.3389 0.3255
C35 C -0.34299(14) -0.05185(13) 0.39875(8)
O4 O -0.63537(10) 0.09856(8) 0.11797(6)
H56 H -0.6824 0.1069 0.0932
O5 O -0.87895(10) -0.06352(10) 0.07080(7)
O6 O -0.79752(10) 0.06474(10) 0.05701(6)
C36 C -0.59654(18) -0.26469(16) 0.27390(11)
H57 H -0.6020 -0.3205 0.2933
C37 C -0.51654(17) -0.20790(17) 0.28973(10)
H58 H -0.4695 -0.2257 0.3201
C38 C -0.50680(14) -0.12723(15) 0.26127(9)
H59 H -0.4523 -0.0905 0.2719
C39 C -0.57792(12) -0.09723(12) 0.21543(8)
C40 C -0.66045(13) -0.15434(12) 0.20035(8)
C41 C -0.66663(16) -0.23913(14) 0.23033(10)
H60 H -0.7195 -0.2779 0.2200
C42 C -0.73330(13) -0.12283(12) 0.15696(8)
H61 H -0.7877 -0.1600 0.1468
C43 C -0.72789(12) -0.04032(11) 0.12901(7)
C44 C -0.64409(12) 0.01594(11) 0.14403(8)
C45 C -0.57160(12) -0.01276(12) 0.18602(8)
H62 H -0.5170 0.0245 0.1952
C46 C -0.80808(13) -0.01156(14) 0.08253(8)
loop_
_geom_bond_atom_site_label_1
_geom_bond_atom_site_label_2
_geom_bond_site_symmetry_1
_geom_bond_site_symmetry_2
N1 H1 1_555 1_555
H2 N1 1_555 1_555
C1 N1 1_555 1_555
H3 C1 1_555 1_555
C2 C1 1_555 1_555
H4 C2 1_555 1_555
H5 C2 1_555 1_555
C3 C2 1_555 1_555
H6 C3 1_555 1_555
H7 C3 1_555 1_555
C4 C3 1_555 1_555
H8 C4 1_555 1_555
H9 C4 1_555 1_555
C5 C4 1_555 1_555
H10 C5 1_555 1_555
H11 C5 1_555 1_555
C6 C1 1_555 1_555
H12 C6 1_555 1_555
H13 C6 1_555 1_555
C7 N1 1_555 1_555
H14 C7 1_555 1_555
C8 C7 1_555 1_555
H15 C8 1_555 1_555
H16 C8 1_555 1_555
C9 C8 1_555 1_555
H17 C9 1_555 1_555
H18 C9 1_555 1_555
C10 C9 1_555 1_555
H19 C10 1_555 1_555
H20 C10 1_555 1_555
C11 C7 1_555 1_555
H21 C11 1_555 1_555
H22 C11 1_555 1_555
C12 C10 1_555 1_555
H23 C12 1_555 1_555
H24 C12 1_555 1_555
N2 H25 1_555 1_555
H26 N2 1_555 1_555
C13 H27 1_555 1_555
H28 C13 1_555 1_555
C14 C13 1_555 1_555
H29 C14 1_555 1_555
H30 C14 1_555 1_555
C15 C14 1_555 1_555
H31 C15 1_555 1_555
H32 C15 1_555 1_555
C16 N2 1_555 1_555
H33 C16 1_555 1_555
C17 C16 1_555 1_555
H34 C17 1_555 1_555
H35 C17 1_555 1_555
C18 C13 1_555 1_555
H36 C18 1_555 1_555
H37 C18 1_555 1_555
C19 N2 1_555 1_555
H38 C19 1_555 1_555
C20 C19 1_555 1_555
H39 C20 1_555 1_555
H40 C20 1_555 1_555
C21 C20 1_555 1_555
H41 C21 1_555 1_555
H42 C21 1_555 1_555
C22 C21 1_555 1_555
H43 C22 1_555 1_555
H44 C22 1_555 1_555
C23 C22 1_555 1_555
H45 C23 1_555 1_555
H46 C23 1_555 1_555
C24 C19 1_555 1_555
H47 C24 1_555 1_555
H48 C24 1_555 1_555
O1 C35 1_555 1_555
O2 H49 1_555 1_555
O3 C35 1_555 1_555
C25 H50 1_555 1_555
C26 C25 1_555 1_555
H51 C26 1_555 1_555
C27 C26 1_555 1_555
H52 C27 1_555 1_555
C28 C27 1_555 1_555
C29 C28 1_555 1_555
H53 C29 1_555 1_555
C30 O2 1_555 1_555
C31 C30 1_555 1_555
C32 C31 1_555 1_555
H54 C32 1_555 1_555
C33 C28 1_555 1_555
C34 C25 1_555 1_555
H55 C34 1_555 1_555
C35 C31 1_555 1_555
O4 H56 1_555 1_555
O5 C46 1_555 1_555
O6 C46 1_555 1_555
C36 H57 1_555 1_555
C37 C36 1_555 1_555
H58 C37 1_555 1_555
C38 C37 1_555 1_555
H59 C38 1_555 1_555
C39 C38 1_555 1_555
C40 C39 1_555 1_555
C41 C36 1_555 1_555
H60 C41 1_555 1_555
C42 C40 1_555 1_555
H61 C42 1_555 1_555
C43 C42 1_555 1_555
C44 O4 1_555 1_555
C45 C39 1_555 1_555
H62 C45 1_555 1_555
C46 C43 1_555 1_555
C5 C6 1_555 1_555
C11 C12 1_555 1_555
C15 C16 1_555 1_555
C17 C18 1_555 1_555
C23 C24 1_555 1_555
C29 C30 1_555 1_555
C32 C33 1_555 1_555
C33 C34 1_555 1_555
C40 C41 1_555 1_555
C43 C44 1_555 1_555
C44 C45 1_555 1_555

#END
