
#######################################################################
#
#                 Cambridge Crystallographic Data Centre
#                                CCDC 
#
#######################################################################
#
# If this CIF has been generated from an entry in the Cambridge 
# Structural Database, then it will include bibliographic, chemical, 
# crystal, experimental, refinement or atomic coordinate data resulting 
# from the CCDC's data processing and validation procedures.
#
#######################################################################

data_IGOHAP
_chemical_formula_moiety         'C11 H7 O3 1-,C6 H14 N1 1+'
_chemical_name_systematic        'cyclohexanaminium 3-hydroxy-2-naphthoate'
_symmetry_cell_setting           monoclinic
_symmetry_space_group_name_H-M   'P 21/n'
_symmetry_Int_Tables_number      14
_space_group_name_Hall           '-P 2yn'
loop_
_symmetry_equiv_pos_site_id
_symmetry_equiv_pos_as_xyz
1 x,y,z
2 1/2-x,1/2+y,1/2-z
3 -x,-y,-z
4 1/2+x,1/2-y,1/2+z
_cell_length_a                   7.0998(11)
_cell_length_b                   16.265(3)
_cell_length_c                   14.012(3)
_cell_angle_alpha                90
_cell_angle_beta                 97.333(18)
_cell_angle_gamma                90
_cell_volume                     1604.85
_exptl_crystal_colour            colorless
_exptl_crystal_description       block
_cell_formula_units_Z            4
loop_
_atom_site_label
_atom_site_type_symbol
_atom_site_fract_x
_atom_site_fract_y
_atom_site_fract_z
C1 C 0.5272(3) 0.12832(14) 0.12320(19)
O1 O 0.6348(3) 0.08513(12) -0.02249(17)
O2 O 0.3065(2) 0.13940(13) -0.02207(14)
H1 H 0.3992 0.1194 -0.0428
C2 C 0.5631(3) 0.13978(15) 0.2210(2)
H2 H 0.6835 0.1278 0.2521
C3 C 0.3444(3) 0.14868(14) 0.0754(2)
C4 C 0.2072(3) 0.17693(14) 0.1266(2)
H3 H 0.0881 0.1899 0.0945
C5 C 0.2415(4) 0.18692(14) 0.2266(2)
C6 C 0.6774(4) 0.09363(15) 0.0681(2)
C7 C 0.4238(4) 0.16904(14) 0.2758(2)
O3 O 0.8352(3) 0.07579(12) 0.11243(16)
C8 C 0.4549(5) 0.18037(19) 0.3773(2)
H4 H 0.5750 0.1705 0.4102
C9 C 0.0967(4) 0.21320(17) 0.2827(3)
H5 H -0.0242 0.2251 0.2520
C10 C 0.1330(6) 0.2209(2) 0.3791(3)
H6 H 0.0359 0.2368 0.4138
C11 C 0.3121(7) 0.2055(2) 0.4275(3)
H7 H 0.3351 0.2122 0.4938
N1 N 0.9584(3) 0.06710(13) -0.11402(14)
H8 H 1.0034 0.0160 -0.1128
H9 H 0.8562 0.0689 -0.0833
H10 H 1.0470 0.1007 -0.0852
C12 C 0.9058(4) 0.09343(15) -0.21555(19)
H11 H 0.8640 0.1508 -0.2153
C13 C 0.7430(5) 0.0428(2) -0.2609(2)
H12 H 0.6352 0.0502 -0.2257
H13 H 0.7781 -0.0149 -0.2575
C14 C 1.0753(5) 0.0890(2) -0.2697(3)
H14 H 1.1279 0.0340 -0.2646
H15 H 1.1721 0.1269 -0.2412
C15 C 1.0208(8) 0.1108(3) -0.3760(4)
H16 H 0.9871 0.1686 -0.3818
H17 H 1.1286 0.1015 -0.4107
C16 C 0.6872(8) 0.0671(3) -0.3656(3)
H18 H 0.5843 0.0323 -0.3942
H19 H 0.6431 0.1236 -0.3689
C17 C 0.8531(11) 0.0585(3) -0.4199(3)
H20 H 0.8165 0.0750 -0.4861
H21 H 0.8914 0.0012 -0.4198
loop_
_geom_bond_atom_site_label_1
_geom_bond_atom_site_label_2
_geom_bond_site_symmetry_1
_geom_bond_site_symmetry_2
C1 C2 1_555 1_555
O1 C6 1_555 1_555
O2 H1 1_555 1_555
C2 H2 1_555 1_555
C3 C1 1_555 1_555
C4 C3 1_555 1_555
H3 C4 1_555 1_555
C5 C4 1_555 1_555
C6 C1 1_555 1_555
C7 C2 1_555 1_555
O3 C6 1_555 1_555
C8 C7 1_555 1_555
H4 C8 1_555 1_555
C9 C5 1_555 1_555
H5 C9 1_555 1_555
C10 C9 1_555 1_555
H6 C10 1_555 1_555
C11 C8 1_555 1_555
H7 C11 1_555 1_555
N1 H8 1_555 1_555
H9 N1 1_555 1_555
H10 N1 1_555 1_555
C12 N1 1_555 1_555
H11 C12 1_555 1_555
C13 C12 1_555 1_555
H12 C13 1_555 1_555
H13 C13 1_555 1_555
C14 C12 1_555 1_555
H14 C14 1_555 1_555
H15 C14 1_555 1_555
C15 C14 1_555 1_555
H16 C15 1_555 1_555
H17 C15 1_555 1_555
C16 C13 1_555 1_555
H18 C16 1_555 1_555
H19 C16 1_555 1_555
C17 C15 1_555 1_555
H20 C17 1_555 1_555
H21 C17 1_555 1_555
O2 C3 1_555 1_555
C5 C7 1_555 1_555
C10 C11 1_555 1_555
C16 C17 1_555 1_555

#END
