
#######################################################################
#
#                 Cambridge Crystallographic Data Centre
#                                CCDC 
#
#######################################################################
#
# If this CIF has been generated from an entry in the Cambridge 
# Structural Database, then it will include bibliographic, chemical, 
# crystal, experimental, refinement or atomic coordinate data resulting 
# from the CCDC's data processing and validation procedures.
#
#######################################################################

data_IGOYEJ
_chemical_formula_moiety         'C23 H25 O3 P1 S1'
_chemical_name_systematic        
((2-(Tritylsulfanyl)ethyl)phosphoryl)dimethanol
_symmetry_cell_setting           monoclinic
_symmetry_space_group_name_H-M   'P 21/n'
_symmetry_Int_Tables_number      14
_space_group_name_Hall           '-P 2yn'
loop_
_symmetry_equiv_pos_site_id
_symmetry_equiv_pos_as_xyz
1 x,y,z
2 1/2-x,1/2+y,1/2-z
3 -x,-y,-z
4 1/2+x,1/2-y,1/2+z
_cell_length_a                   7.00660(10)
_cell_length_b                   34.1821(7)
_cell_length_c                   9.0994(2)
_cell_angle_alpha                90
_cell_angle_beta                 112.9130(10)
_cell_angle_gamma                90
_cell_volume                     2007.36
_exptl_crystal_colour            colorless
_exptl_crystal_description       prism
_cell_formula_units_Z            4
_exptl_crystal_recrystallization_method thf/hexane
loop_
_atom_site_label
_atom_site_type_symbol
_atom_site_fract_x
_atom_site_fract_y
_atom_site_fract_z
S1 S 0.77444(12) 0.14880(2) 0.85480(9)
P1 P 0.85035(13) 0.22433(2) 0.59861(9)
O1 O 0.5911(4) 0.27854(7) 0.6183(3)
H1 H 0.4696 0.2759 0.6298
O2 O 1.2203(3) 0.26448(7) 0.6800(3)
H2 H 1.2092 0.2760 0.7591
O3 O 0.6955(4) 0.20876(7) 0.4442(2)
C1 C 0.7249(5) 0.24897(9) 0.7136(4)
H3 H 0.6459 0.2303 0.7470
H4 H 0.8287 0.2606 0.8083
C2 C 1.0228(5) 0.25901(11) 0.5592(4)
H5 H 1.0408 0.2505 0.4637
H6 H 0.9538 0.2842 0.5357
C3 C 1.0169(5) 0.18758(9) 0.7263(4)
H7 H 1.1337 0.1837 0.6960
H8 H 1.0707 0.1972 0.8352
C4 C 0.9114(5) 0.14793(9) 0.7215(4)
H9 H 1.0149 0.1273 0.7537
H10 H 0.8147 0.1425 0.6135
C5 C 0.6054(5) 0.10471(8) 0.7932(3)
C6 C 0.4050(5) 0.11231(9) 0.6456(3)
C7 C 0.3775(5) 0.14409(9) 0.5438(4)
H11 H 0.4832 0.1623 0.5647
C8 C 0.1932(5) 0.14885(10) 0.4111(4)
H12 H 0.1775 0.1703 0.3444
C9 C 0.0335(5) 0.12227(11) 0.3770(4)
H13 H -0.0895 0.1256 0.2884
C10 C 0.0596(5) 0.09058(10) 0.4769(4)
H14 H -0.0461 0.0723 0.4546
C11 C 0.2410(5) 0.08578(9) 0.6096(4)
H15 H 0.2545 0.0645 0.6765
C12 C 0.7314(5) 0.07053(9) 0.7673(4)
C13 C 0.6628(5) 0.04800(9) 0.6297(4)
H16 H 0.5378 0.0541 0.5470
C14 C 0.7773(6) 0.01648(10) 0.6132(4)
H17 H 0.7275 0.0017 0.5202
C15 C 0.9635(5) 0.00685(10) 0.7328(4)
H18 H 1.0387 -0.0146 0.7223
C16 C 1.0372(5) 0.02965(10) 0.8693(4)
H19 H 1.1641 0.0237 0.9503
C17 C 0.9238(5) 0.06103(9) 0.8859(4)
H20 H 0.9763 0.0762 0.9779
C18 C 0.5473(5) 0.09806(9) 0.9386(3)
C19 C 0.5829(5) 0.06318(9) 1.0243(4)
H21 H 0.6450 0.0422 0.9948
C20 C 0.5258(5) 0.05965(11) 1.1543(4)
H22 H 0.5512 0.0363 1.2113
C21 C 0.4324(6) 0.09008(11) 1.1994(4)
H23 H 0.3945 0.0874 1.2861
C22 C 0.3952(6) 0.12484(11) 1.1145(4)
H24 H 0.3333 0.1457 1.1445
C23 C 0.4503(5) 0.12838(10) 0.9853(4)
H25 H 0.4221 0.1516 0.9278
loop_
_geom_bond_atom_site_label_1
_geom_bond_atom_site_label_2
_geom_bond_site_symmetry_1
_geom_bond_site_symmetry_2
S1 C4 1_555 1_555
P1 O3 1_555 1_555
O1 H1 1_555 1_555
O2 H2 1_555 1_555
C1 P1 1_555 1_555
H3 C1 1_555 1_555
H4 C1 1_555 1_555
C2 P1 1_555 1_555
H5 C2 1_555 1_555
H6 C2 1_555 1_555
C3 P1 1_555 1_555
H7 C3 1_555 1_555
H8 C3 1_555 1_555
C4 C3 1_555 1_555
H9 C4 1_555 1_555
H10 C4 1_555 1_555
C5 S1 1_555 1_555
C6 C5 1_555 1_555
C7 C6 1_555 1_555
H11 C7 1_555 1_555
C8 C7 1_555 1_555
H12 C8 1_555 1_555
C9 C8 1_555 1_555
H13 C9 1_555 1_555
C10 C9 1_555 1_555
H14 C10 1_555 1_555
C11 C6 1_555 1_555
H15 C11 1_555 1_555
C12 C5 1_555 1_555
C13 C12 1_555 1_555
H16 C13 1_555 1_555
C14 C13 1_555 1_555
H17 C14 1_555 1_555
C15 C14 1_555 1_555
H18 C15 1_555 1_555
C16 C15 1_555 1_555
H19 C16 1_555 1_555
C17 C12 1_555 1_555
H20 C17 1_555 1_555
C18 C5 1_555 1_555
C19 C18 1_555 1_555
H21 C19 1_555 1_555
C20 C19 1_555 1_555
H22 C20 1_555 1_555
C21 C20 1_555 1_555
H23 C21 1_555 1_555
C22 C21 1_555 1_555
H24 C22 1_555 1_555
C23 C18 1_555 1_555
H25 C23 1_555 1_555
O1 C1 1_555 1_555
O2 C2 1_555 1_555
C10 C11 1_555 1_555
C16 C17 1_555 1_555
C22 C23 1_555 1_555

#END
