
#######################################################################
#
#                 Cambridge Crystallographic Data Centre
#                                CCDC 
#
#######################################################################
#
# If this CIF has been generated from an entry in the Cambridge 
# Structural Database, then it will include bibliographic, chemical, 
# crystal, experimental, refinement or atomic coordinate data resulting 
# from the CCDC's data processing and validation procedures.
#
#######################################################################

data_IGUPUX
_chemical_formula_moiety         'C15 H15 F3 N2 O1 S1'
_chemical_name_systematic        
2,2-Dimethyl-N-(quinolin-8-yl)-3-((trifluoromethyl)sulfanyl)propanamide
_symmetry_cell_setting           monoclinic
_symmetry_space_group_name_H-M   'P 21/c'
_symmetry_Int_Tables_number      14
_space_group_name_Hall           '-P 2ybc'
loop_
_symmetry_equiv_pos_site_id
_symmetry_equiv_pos_as_xyz
1 x,y,z
2 -x,1/2+y,1/2-z
3 -x,-y,-z
4 x,1/2-y,1/2+z
_cell_length_a                   11.7263(10)
_cell_length_b                   8.0477(7)
_cell_length_c                   16.6817(15)
_cell_angle_alpha                90
_cell_angle_beta                 102.5100(10)
_cell_angle_gamma                90
_cell_volume                     1536.87
_exptl_crystal_colour            colorless
_exptl_crystal_description       prism
_cell_formula_units_Z            4
loop_
_atom_site_label
_atom_site_type_symbol
_atom_site_fract_x
_atom_site_fract_y
_atom_site_fract_z
C1 C 0.76447(17) 1.7635(2) -0.07978(12)
H1 H 0.7147 1.8413 -0.0643
C2 C 0.82974(18) 1.8118(2) -0.13659(12)
H2 H 0.8228 1.9187 -0.1582
C3 C 0.90347(17) 1.7009(2) -0.15997(11)
H3 H 0.9472 1.7314 -0.198
C4 C 0.91362(13) 1.5393(2) -0.12651(9)
C5 C 0.98882(15) 1.4158(2) -0.14574(10)
H4 H 1.0348 1.4384 -0.1834
C6 C 0.99428(15) 1.2648(2) -0.10953(11)
H5 H 1.0441 1.1846 -0.123
C7 C 0.92672(14) 1.2260(2) -0.05221(10)
H6 H 0.9324 1.1215 -0.0278
C8 C 0.85217(13) 1.34301(19) -0.03218(9)
C9 C 0.84411(12) 1.50267(18) -0.06951(9)
C10 C 0.77472(13) 1.19340(19) 0.07514(9)
C11 C 0.68987(14) 1.2165(2) 0.13237(10)
C12 C 0.73376(18) 1.3574(2) 0.19316(12)
H7 H 0.8121 1.3336 0.2222
H8 H 0.6839 1.3667 0.2316
H9 H 0.7328 1.4601 0.1637
C13 C 0.56665(15) 1.2549(2) 0.08357(12)
H10 H 0.5667 1.3599 0.0562
H11 H 0.514 1.2598 0.1203
H12 H 0.5419 1.1692 0.0436
C14 C 0.69150(16) 1.0574(2) 0.18308(10)
H13 H 0.637 1.0704 0.2188
H14 H 0.7688 1.0443 0.2177
C15 C 0.53116(18) 0.8050(3) 0.16025(13)
F1 F 0.49289(14) 0.66049(18) 0.12597(10)
F2 F 0.44177(12) 0.9076(2) 0.14387(12)
F3 F 0.55237(15) 0.7808(2) 0.24048(9)
N1 N 0.76931(12) 1.61477(17) -0.04703(9)
N2 N 0.78152(12) 1.32206(17) 0.02490(8)
H15 H 0.7356 1.4038 0.0283
O1 O 0.83281(12) 1.06759(16) 0.07650(9)
S1 S 0.65449(4) 0.86923(6) 0.12303(3)
loop_
_geom_bond_atom_site_label_1
_geom_bond_atom_site_label_2
_geom_bond_site_symmetry_1
_geom_bond_site_symmetry_2
C1 H1 1_555 1_555
C2 C1 1_555 1_555
H2 C2 1_555 1_555
C3 C2 1_555 1_555
H3 C3 1_555 1_555
C4 C3 1_555 1_555
C5 C4 1_555 1_555
H4 C5 1_555 1_555
C6 C5 1_555 1_555
H5 C6 1_555 1_555
C7 C6 1_555 1_555
H6 C7 1_555 1_555
C8 C7 1_555 1_555
C9 C4 1_555 1_555
C10 C11 1_555 1_555
C11 C12 1_555 1_555
C12 H7 1_555 1_555
H8 C12 1_555 1_555
H9 C12 1_555 1_555
C13 C11 1_555 1_555
H10 C13 1_555 1_555
H11 C13 1_555 1_555
H12 C13 1_555 1_555
C14 C11 1_555 1_555
H13 C14 1_555 1_555
H14 C14 1_555 1_555
C15 F1 1_555 1_555
F2 C15 1_555 1_555
F3 C15 1_555 1_555
N1 C1 1_555 1_555
N2 C8 1_555 1_555
H15 N2 1_555 1_555
O1 C10 1_555 1_555
S1 C14 1_555 1_555
C8 C9 1_555 1_555
C9 N1 1_555 1_555
C10 N2 1_555 1_555
C15 S1 1_555 1_555

#END
