
#######################################################################
#
#                 Cambridge Crystallographic Data Centre
#                                CCDC 
#
#######################################################################
#
# If this CIF has been generated from an entry in the Cambridge 
# Structural Database, then it will include bibliographic, chemical, 
# crystal, experimental, refinement or atomic coordinate data resulting 
# from the CCDC's data processing and validation procedures.
#
#######################################################################

data_IGUQEG01
_chemical_formula_moiety         'C24 H16 F18 N2 O6'
_chemical_name_systematic        
1^3^,1^5^,9^3^,9^5^-Tetrafluoro-1^4^,9^4^-diperfluoropropyl-2,5,8,10,13,16-hexaoxa-1,9(2,6)-pyridinahexadecaphane
_symmetry_cell_setting           triclinic
_symmetry_space_group_name_H-M   'P -1'
_symmetry_Int_Tables_number      2
_space_group_name_Hall           '-P 1'
loop_
_symmetry_equiv_pos_site_id
_symmetry_equiv_pos_as_xyz
1 x,y,z
2 -x,-y,-z
_cell_length_a                   10.771(1)
_cell_length_b                   11.765(1)
_cell_length_c                   12.279(1)
_cell_angle_alpha                69.53(1)
_cell_angle_beta                 85.10(1)
_cell_angle_gamma                85.96(1)
_cell_volume                     1451.05
_exptl_crystal_colour            colorless
_exptl_crystal_description       plate
_cell_formula_units_Z            2
loop_
_atom_site_label
_atom_site_type_symbol
_atom_site_fract_x
_atom_site_fract_y
_atom_site_fract_z
O1 O 0.0334(3) -0.0006(3) 0.2671(3)
O2 O 0.1497(3) -0.1301(3) 0.4809(3)
O3 O 0.2845(3) 0.0053(3) 0.5931(3)
O4 O 0.4629(3) 0.0366(3) 0.2244(3)
O5 O 0.3768(3) -0.1369(3) 0.1245(3)
O6 O 0.2136(3) -0.0624(3) -0.0688(3)
N1 N 0.1188(4) -0.0343(4) 0.0994(4)
N2 N 0.3776(4) 0.0179(4) 0.4099(4)
C1 C 0.1659(5) 0.0129(5) -0.0113(4)
C2 C 0.1652(5) 0.1358(5) -0.0703(4)
C3 C 0.1155(4) 0.2191(5) -0.0198(4)
C4 C 0.0685(5) 0.1674(5) 0.0967(5)
C5 C 0.0744(4) 0.0412(5) 0.1537(5)
C6 C 0.0349(6) -0.1306(5) 0.3251(5)
C7 C 0.0321(6) -0.1565(6) 0.4548(5)
C8 C 0.1601(5) -0.1664(5) 0.6035(5)
C9 C 0.2825(6) -0.1275(5) 0.6252(5)
C10 C 0.3292(4) 0.0713(5) 0.4852(4)
C11 C 0.3235(5) 0.1968(5) 0.4546(4)
C12 C 0.3706(5) 0.2727(5) 0.3465(4)
C13 C 0.4160(5) 0.2124(5) 0.2707(4)
C14 C 0.4178(4) 0.0873(4) 0.3044(4)
C15 C 0.4854(6) -0.0948(5) 0.2669(5)
C16 C 0.4962(5) -0.1375(5) 0.1645(5)
C17 C 0.3774(5) -0.1961(5) 0.0416(5)
C18 C 0.2477(5) -0.1874(5) 0.0016(5)
C19 C 0.1124(5) 0.3565(5) -0.0764(5)
C20 C 0.1033(6) 0.4095(5) -0.2099(5)
C21 C 0.2196(5) 0.4108(5) -0.0390(5)
C22 C 0.3791(5) 0.4097(5) 0.3153(4)
C23 C 0.5018(5) 0.4373(5) 0.3516(5)
C24 C 0.2655(5) 0.4761(5) 0.3606(5)
F1 F 0.2151(3) 0.1752(3) -0.1825(2)
F2 F 0.0198(3) 0.2362(3) 0.1588(3)
F3 F 0.0011(3) 0.4039(3) -0.0383(3)
F4 F 0.0248(3) 0.3484(3) -0.2455(3)
F5 F 0.0624(3) 0.5253(3) -0.2440(3)
F6 F 0.2152(3) 0.4070(3) -0.2688(3)
F7 F 0.2095(3) 0.3870(3) 0.0754(3)
F8 F 0.2237(3) 0.5311(3) -0.0906(3)
F9 F 0.3284(3) 0.3619(3) -0.0657(3)
F10 F 0.2774(3) 0.2429(3) 0.5384(2)
F11 F 0.4685(3) 0.2751(3) 0.1628(2)
F12 F 0.3816(3) 0.4662(3) 0.1956(3)
F13 F 0.5181(3) 0.3759(3) 0.4642(3)
F14 F 0.5133(3) 0.5552(3) 0.3301(3)
F15 F 0.5984(3) 0.4001(3) 0.2919(3)
F16 F 0.2576(3) 0.5922(3) 0.2915(3)
F17 F 0.2820(3) 0.4764(3) 0.4678(3)
F18 F 0.1613(3) 0.4246(3) 0.3629(3)
H1 H 0.106(5) -0.166(4) 0.302(4)
H2 H -0.030(6) -0.152(6) 0.305(6)
H3 H 0.024(5) -0.239(5) 0.487(5)
H4 H -0.031(5) -0.103(5) 0.470(4)
H5 H 0.165(5) -0.256(5) 0.635(4)
H6 H 0.102(5) -0.123(5) 0.626(4)
H7 H 0.299(5) -0.156(5) 0.707(5)
H8 H 0.346(6) -0.155(5) 0.588(6)
H9 H 0.423(5) -0.130(4) 0.301(4)
H10 H 0.566(5) -0.117(4) 0.316(4)
H11 H 0.425(6) -0.157(5) -0.015(5)
H12 H 0.404(4) -0.296(4) 0.083(4)
H13 H 0.550(5) -0.090(4) 0.104(4)
H14 H 0.532(5) -0.225(5) 0.193(4)
H15 H 0.239(5) -0.227(5) -0.054(5)
H16 H 0.179(6) -0.223(5) 0.062(5)
loop_
_geom_bond_atom_site_label_1
_geom_bond_atom_site_label_2
_geom_bond_site_symmetry_1
_geom_bond_site_symmetry_2
O1 C5 1_555 1_555
O2 C7 1_555 1_555
O3 C9 1_555 1_555
O4 C14 1_555 1_555
O5 C16 1_555 1_555
O6 C1 1_555 1_555
N1 C1 1_555 1_555
N2 C10 1_555 1_555
C1 C2 1_555 1_555
C2 C3 1_555 1_555
C3 C4 1_555 1_555
C4 C5 1_555 1_555
C5 N1 1_555 1_555
C6 O1 1_555 1_555
C7 C6 1_555 1_555
C8 O2 1_555 1_555
C9 C8 1_555 1_555
C10 O3 1_555 1_555
C11 C10 1_555 1_555
C12 C11 1_555 1_555
C13 C12 1_555 1_555
C14 N2 1_555 1_555
C15 O4 1_555 1_555
C16 C15 1_555 1_555
C17 O5 1_555 1_555
C18 O6 1_555 1_555
C19 C3 1_555 1_555
C20 C19 1_555 1_555
C21 C19 1_555 1_555
C22 C12 1_555 1_555
C23 C22 1_555 1_555
C24 C22 1_555 1_555
F1 C2 1_555 1_555
F2 C4 1_555 1_555
F3 C19 1_555 1_555
F4 C20 1_555 1_555
F5 C20 1_555 1_555
F6 C20 1_555 1_555
F7 C21 1_555 1_555
F8 C21 1_555 1_555
F9 C21 1_555 1_555
F10 C11 1_555 1_555
F11 C13 1_555 1_555
F12 C22 1_555 1_555
F13 C23 1_555 1_555
F14 C23 1_555 1_555
F15 C23 1_555 1_555
F16 C24 1_555 1_555
F17 C24 1_555 1_555
F18 C24 1_555 1_555
H1 C6 1_555 1_555
H2 C6 1_555 1_555
H3 C7 1_555 1_555
H4 C7 1_555 1_555
H5 C8 1_555 1_555
H6 C8 1_555 1_555
H7 C9 1_555 1_555
H8 C9 1_555 1_555
H9 C15 1_555 1_555
H10 C15 1_555 1_555
H11 C17 1_555 1_555
H12 C17 1_555 1_555
H13 C16 1_555 1_555
H14 C16 1_555 1_555
H15 C18 1_555 1_555
H16 C18 1_555 1_555
C13 C14 1_555 1_555
C17 C18 1_555 1_555

#END
