
#######################################################################
#
#                 Cambridge Crystallographic Data Centre
#                                CCDC 
#
#######################################################################
#
# If this CIF has been generated from an entry in the Cambridge 
# Structural Database, then it will include bibliographic, chemical, 
# crystal, experimental, refinement or atomic coordinate data resulting 
# from the CCDC's data processing and validation procedures.
#
#######################################################################

data_IGURUY
_chemical_name_common            
'7,9,10-Trideacetyl-1-deoxybaccatin VI ethyl acetate solvate'
_chemical_formula_moiety         'C31 H40 O10,2(C4 H8 O2)'
_chemical_name_systematic        
'4,13-Diacetoxy-7,9,10-trihydroxy-5,20-epoxytax-11-en-2-yl benzoate ethyl acetate solvate'
_symmetry_cell_setting           orthorhombic
_symmetry_space_group_name_H-M   'P 21 21 21'
_symmetry_Int_Tables_number      19
_space_group_name_Hall           'P 2ac 2ab'
loop_
_symmetry_equiv_pos_site_id
_symmetry_equiv_pos_as_xyz
1 x,y,z
2 1/2-x,-y,1/2+z
3 -x,1/2+y,1/2-z
4 1/2+x,1/2-y,-z
_cell_length_a                   10.431(3)
_cell_length_b                   14.709(3)
_cell_length_c                   25.793(4)
_cell_angle_alpha                90
_cell_angle_beta                 90
_cell_angle_gamma                90
_cell_volume                     3957.41
_exptl_crystal_colour            colorless
_exptl_crystal_description       prismatic
_chemical_melting_point          152-154deg.C
_cell_formula_units_Z            4
_exptl_crystal_recrystallization_method 'ethyl acetate/hexane'
loop_
_atom_site_label
_atom_site_type_symbol
_atom_site_fract_x
_atom_site_fract_y
_atom_site_fract_z
O1 O 0.6741(6) 0.3152(3) 0.23467(15)
O2 O 0.6692(8) 0.1826(4) 0.2752(2)
O3 O 0.5689(6) 0.4738(3) 0.19706(18)
O4 O 0.5259(8) 0.5291(4) 0.1171(2)
O5 O 0.2959(8) 0.3951(4) 0.2235(2)
O6 O 0.2811(7) 0.2779(4) 0.0605(2)
H1 H 0.2498 0.3117 0.0386
O7 O 0.4158(6) 0.1326(3) 0.06643(19)
H2 H 0.4196 0.1390 0.0349
O8 O 0.6431(6) 0.1413(3) 0.01782(18)
H3 H 0.6543 0.0967 0.0364
O9 O 0.8435(6) 0.4932(3) 0.0922(2)
O10 O 1.0085(9) 0.5051(4) 0.0380(3)
C1 C 0.7930(10) 0.2712(5) 0.1609(3)
H4 H 0.8474 0.2432 0.1874
C2 C 0.6579(10) 0.2725(5) 0.1838(2)
H5 H 0.6301 0.2095 0.1890
C3 C 0.5492(9) 0.3245(5) 0.1550(2)
H6 H 0.5928 0.3581 0.1273
C4 C 0.4845(11) 0.3985(5) 0.1888(3)
C5 C 0.3482(11) 0.4297(6) 0.1745(3)
H7 H 0.3442 0.4962 0.1742
C6 C 0.2789(11) 0.3916(6) 0.1274(3)
H8 H 0.2482 0.4415 0.1062
H9 H 0.2050 0.3569 0.1389
C7 C 0.3654(10) 0.3302(5) 0.0944(3)
H10 H 0.4220 0.3682 0.0732
C8 C 0.4469(9) 0.2633(5) 0.1261(3)
C9 C 0.5113(9) 0.1901(5) 0.0910(3)
H11 H 0.5584 0.1502 0.1148
C10 C 0.6091(10) 0.2195(4) 0.0499(3)
H12 H 0.5671 0.2641 0.0274
C11 C 0.7261(9) 0.2617(4) 0.0704(3)
C12 C 0.7544(9) 0.3481(5) 0.0606(3)
C13 C 0.8591(9) 0.3943(4) 0.0934(3)
H13 H 0.9437 0.3780 0.0798
C14 C 0.8511(10) 0.3680(4) 0.1513(3)
H14 H 0.7990 0.4127 0.1692
H15 H 0.9365 0.3702 0.1661
C15 C 0.8098(11) 0.2120(5) 0.1119(3)
C16 C 0.9506(10) 0.2052(5) 0.0931(3)
H16 H 0.9600 0.1531 0.0711
H17 H 1.0063 0.1993 0.1226
H18 H 0.9727 0.2592 0.0742
C17 C 0.7771(10) 0.1104(4) 0.1263(3)
H19 H 0.6983 0.1085 0.1455
H20 H 0.8450 0.0855 0.1471
H21 H 0.7682 0.0752 0.0952
C18 C 0.6933(10) 0.4080(4) 0.0206(3)
H22 H 0.6537 0.3710 -0.0055
H23 H 0.7575 0.4458 0.0049
H24 H 0.6295 0.4455 0.0368
C19 C 0.3647(10) 0.2091(5) 0.1644(3)
H25 H 0.3195 0.2504 0.1867
H26 H 0.4189 0.1706 0.1850
H27 H 0.3042 0.1725 0.1457
C20 C 0.4232(13) 0.3749(6) 0.2406(3)
H28 H 0.4345 0.3116 0.2501
H29 H 0.4516 0.4142 0.2686
C21 C 0.6856(10) 0.2627(5) 0.2757(3)
C22 C 0.7221(10) 0.3140(6) 0.3229(3)
C23 C 0.7450(11) 0.2678(7) 0.3688(3)
H30 H 0.7356 0.2050 0.3700
C24 C 0.7813(12) 0.3144(10) 0.4122(3)
H31 H 0.7984 0.2827 0.4427
C25 C 0.7926(15) 0.4057(10) 0.4114(4)
H32 H 0.8127 0.4371 0.4416
C26 C 0.7743(12) 0.4522(8) 0.3657(4)
H33 H 0.7846 0.5149 0.3651
C27 C 0.7410(11) 0.4076(6) 0.3209(3)
H34 H 0.7313 0.4392 0.2899
C28 C 0.5786(12) 0.5370(5) 0.1594(4)
C29 C 0.6561(12) 0.6156(6) 0.1765(4)
H35 H 0.7374 0.6147 0.1591
H36 H 0.6695 0.6122 0.2133
H37 H 0.6117 0.6709 0.1683
C30 C 0.9252(12) 0.5400(5) 0.0638(3)
C31 C 0.9015(13) 0.6376(5) 0.0646(4)
H38 H 0.9270 0.6620 0.0975
H39 H 0.8119 0.6489 0.0592
H40 H 0.9501 0.6663 0.0375
O11 O 0.9323(13) 0.6362(8) 0.2775(4)
O12 O 0.9809(8) 0.6996(5) 0.2032(3)
C32 C 1.0554(13) 0.5541(8) 0.2178(5)
H41 H 1.0151 0.4996 0.2301
H42 H 1.1421 0.5567 0.2302
H43 H 1.0555 0.5542 0.1805
C33 C 0.9864(12) 0.6313(7) 0.2362(5)
C34 C 0.9241(13) 0.7813(7) 0.2206(4)
H44 H 0.9810 0.8123 0.2445
H45 H 0.8441 0.7685 0.2383
C35 C 0.9002(13) 0.8384(7) 0.1749(4)
H46 H 0.9276 0.8069 0.1443
H47 H 0.9471 0.8943 0.1782
H48 H 0.8102 0.8515 0.1725
O13 O 0.6359(11) 0.7898(7) 0.0319(4)
O14 O 0.7341(10) 0.9155(6) 0.0484(4)
C36 C 0.5603(15) 0.8944(10) 0.0992(5)
H49 H 0.6102 0.9315 0.1222
H50 H 0.5231 0.8449 0.1183
H51 H 0.4934 0.9303 0.0840
C37 C 0.6428(14) 0.8583(9) 0.0584(5)
C38 C 0.791(2) 0.8942(17) -0.0006(8)
H52 H 0.7871 0.8293 -0.0072
H53 H 0.7465 0.9256 -0.0284
C39 C 0.915(2) 0.9230(15) 0.0029(9)
H54 H 0.9170 0.9870 0.0101
H55 H 0.9587 0.9113 -0.0292
H56 H 0.9576 0.8909 0.0304
loop_
_geom_bond_atom_site_label_1
_geom_bond_atom_site_label_2
_geom_bond_site_symmetry_1
_geom_bond_site_symmetry_2
O1 C2 1_555 1_555
O2 C21 1_555 1_555
O3 C4 1_555 1_555
O4 C28 1_555 1_555
O5 C5 1_555 1_555
O6 H1 1_555 1_555
O7 H2 1_555 1_555
O8 H3 1_555 1_555
O9 C13 1_555 1_555
O10 C30 1_555 1_555
C1 H4 1_555 1_555
C2 C1 1_555 1_555
H5 C2 1_555 1_555
C3 C2 1_555 1_555
H6 C3 1_555 1_555
C4 C3 1_555 1_555
C5 C4 1_555 1_555
H7 C5 1_555 1_555
C6 C5 1_555 1_555
H8 C6 1_555 1_555
H9 C6 1_555 1_555
C7 O6 1_555 1_555
H10 C7 1_555 1_555
C8 C3 1_555 1_555
C9 O7 1_555 1_555
H11 C9 1_555 1_555
C10 O8 1_555 1_555
H12 C10 1_555 1_555
C11 C10 1_555 1_555
C12 C11 1_555 1_555
C13 C12 1_555 1_555
H13 C13 1_555 1_555
C14 C1 1_555 1_555
H14 C14 1_555 1_555
H15 C14 1_555 1_555
C15 C1 1_555 1_555
C16 C15 1_555 1_555
H16 C16 1_555 1_555
H17 C16 1_555 1_555
H18 C16 1_555 1_555
C17 C15 1_555 1_555
H19 C17 1_555 1_555
H20 C17 1_555 1_555
H21 C17 1_555 1_555
C18 C12 1_555 1_555
H22 C18 1_555 1_555
H23 C18 1_555 1_555
H24 C18 1_555 1_555
C19 C8 1_555 1_555
H25 C19 1_555 1_555
H26 C19 1_555 1_555
H27 C19 1_555 1_555
C20 O5 1_555 1_555
H28 C20 1_555 1_555
H29 C20 1_555 1_555
C21 O1 1_555 1_555
C22 C21 1_555 1_555
C23 C22 1_555 1_555
H30 C23 1_555 1_555
C24 C23 1_555 1_555
H31 C24 1_555 1_555
C25 C24 1_555 1_555
H32 C25 1_555 1_555
C26 C25 1_555 1_555
H33 C26 1_555 1_555
C27 C22 1_555 1_555
H34 C27 1_555 1_555
C28 O3 1_555 1_555
C29 C28 1_555 1_555
H35 C29 1_555 1_555
H36 C29 1_555 1_555
H37 C29 1_555 1_555
C30 O9 1_555 1_555
C31 C30 1_555 1_555
H38 C31 1_555 1_555
H39 C31 1_555 1_555
H40 C31 1_555 1_555
O11 C33 1_555 1_555
O12 C33 1_555 1_555
C32 H41 1_555 1_555
H42 C32 1_555 1_555
H43 C32 1_555 1_555
C33 C32 1_555 1_555
C34 O12 1_555 1_555
H44 C34 1_555 1_555
H45 C34 1_555 1_555
C35 C34 1_555 1_555
H46 C35 1_555 1_555
H47 C35 1_555 1_555
H48 C35 1_555 1_555
O13 C37 1_555 1_555
O14 C37 1_555 1_555
C36 H49 1_555 1_555
H50 C36 1_555 1_555
H51 C36 1_555 1_555
C37 C36 1_555 1_555
C38 O14 1_555 1_555
H52 C38 1_555 1_555
H53 C38 1_555 1_555
C39 C38 1_555 1_555
H54 C39 1_555 1_555
H55 C39 1_555 1_555
H56 C39 1_555 1_555
C4 C20 1_555 1_555
C6 C7 1_555 1_555
C7 C8 1_555 1_555
C8 C9 1_555 1_555
C9 C10 1_555 1_555
C11 C15 1_555 1_555
C13 C14 1_555 1_555
C26 C27 1_555 1_555

#END
