
#######################################################################
#
#                 Cambridge Crystallographic Data Centre
#                                CCDC 
#
#######################################################################
#
# If this CIF has been generated from an entry in the Cambridge 
# Structural Database, then it will include bibliographic, chemical, 
# crystal, experimental, refinement or atomic coordinate data resulting 
# from the CCDC's data processing and validation procedures.
#
#######################################################################

data_IGURIM
_chemical_name_common            
'7,9,10-Trideacetyl-1-deoxybaccatin VI-9,10-acetonide methanol solvate'
_chemical_formula_moiety         'C34 H44 O10,0.13(C1 H4 O1)'
_chemical_name_systematic        
'13,18-Diacetoxy-8-hydroxy-4,4,7,19,20,20-hexamethyl-3,5,11-trioxapentacyclo[14.3.1.0^2,6^.0^7,14^.0^10,13^]icos-1(19)-en-15-yl benzoate methanol solvate'
_symmetry_cell_setting           monoclinic
_symmetry_space_group_name_H-M   'P 21'
_symmetry_Int_Tables_number      4
_space_group_name_Hall           'P 2yb'
loop_
_symmetry_equiv_pos_site_id
_symmetry_equiv_pos_as_xyz
1 x,y,z
2 -x,1/2+y,-z
_cell_length_a                   11.227(4)
_cell_length_b                   16.924(5)
_cell_length_c                   17.871(6)
_cell_angle_alpha                90
_cell_angle_beta                 96.10(3)
_cell_angle_gamma                90
_cell_volume                     3376.37
_exptl_crystal_colour            colorless
_exptl_crystal_description       plate
_chemical_melting_point          181-183deg.C
_cell_formula_units_Z            4
_exptl_crystal_recrystallization_method methanol
loop_
_atom_site_label
_atom_site_type_symbol
_atom_site_fract_x
_atom_site_fract_y
_atom_site_fract_z
O1 O -0.0300(4) 0.5446(3) 0.6433(3)
O2 O 0.2889(4) 0.2879(3) 0.6105(3)
O3 O 0.2375(4) 0.1584(3) 0.6286(3)
O4 O -0.2099(3) 0.3539(2) 0.53895(18)
O5 O -0.1538(5) 0.3702(5) 0.4240(2)
O6 O -0.2089(3) 0.4094(2) 0.6835(2)
O7 O -0.1151(5) 0.3788(3) 0.7975(2)
O8 O -0.2192(4) 0.1945(3) 0.7675(2)
O9 O -0.3342(5) 0.0873(4) 0.7715(3)
O10 O 0.2863(4) 0.4022(4) 0.7137(3)
H1 H 0.3144 0.3718 0.6844
C1 C -0.1471(5) 0.2223(3) 0.5691(3)
H3 H -0.1977 0.2121 0.5220
C2 C -0.1012(5) 0.3095(3) 0.5630(3)
H4 H -0.0489 0.3116 0.5225
C3 C -0.0343(4) 0.3505(3) 0.6342(3)
H5 H -0.0411 0.3141 0.6762
C4 C -0.0955(5) 0.4278(3) 0.6551(3)
C5 C -0.0208(6) 0.4881(4) 0.7041(3)
H6 H -0.0650 0.5066 0.7451
C6 C 0.1091(6) 0.4684(4) 0.7335(4)
H7 H 0.1600 0.5102 0.7177
H8 H 0.1156 0.4694 0.7881
C7 C 0.1581(5) 0.3909(4) 0.7097(4)
H9 H 0.1415 0.3505 0.7465
C8 C 0.1057(5) 0.3624(4) 0.6299(3)
C9 C 0.1603(5) 0.2830(4) 0.6092(3)
H10 H 0.1278 0.2702 0.5575
C10 C 0.1495(5) 0.2089(4) 0.6568(3)
H11 H 0.1747 0.2214 0.7096
C11 C 0.0245(5) 0.1735(3) 0.6503(3)
C12 C -0.0362(5) 0.1727(3) 0.7111(3)
C13 C -0.1687(5) 0.1646(4) 0.7003(3)
H12 H -0.1889 0.1084 0.6942
C14 C -0.2277(5) 0.2100(4) 0.6316(3)
H13 H -0.2987 0.1815 0.6111
H14 H -0.2533 0.2613 0.6482
C15 C -0.0468(5) 0.1589(3) 0.5733(3)
C16 C 0.3353(6) 0.2082(5) 0.6131(4)
C17 C -0.1149(5) 0.4956(3) 0.5991(3)
H15 H -0.0910 0.4830 0.5499
H16 H -0.1958 0.5165 0.5946
C18 C -0.2281(5) 0.3766(4) 0.4669(3)
C19 C -0.3484(5) 0.4116(4) 0.4467(3)
C20 C -0.4340(6) 0.4098(6) 0.4944(5)
H17 H -0.4164 0.3894 0.5427
C21 C -0.5517(8) 0.4393(9) 0.4709(7)
H18 H -0.6112 0.4377 0.5033
C22 C -0.5751(8) 0.4699(6) 0.3996(6)
H19 H -0.6516 0.4881 0.3832
C23 C -0.4859(8) 0.4738(6) 0.3523(5)
H20 H -0.5016 0.4966 0.3049
C24 C -0.3738(7) 0.4441(5) 0.3748(4)
H21 H -0.3146 0.4457 0.3422
C25 C -0.2062(7) 0.3904(4) 0.7569(4)
C26 C -0.3305(8) 0.3886(6) 0.7817(5)
H22 H -0.3830 0.3599 0.7454
H23 H -0.3595 0.4417 0.7856
H24 H -0.3282 0.3631 0.8298
C27 C 0.1348(6) 0.4211(4) 0.5689(4)
H25 H 0.1039 0.4723 0.5796
H26 H 0.0986 0.4035 0.5207
H27 H 0.2200 0.4244 0.5682
C28 C 0.0186(7) 0.1825(5) 0.7922(4)
H28 H 0.1028 0.1715 0.7955
H29 H -0.0191 0.1465 0.8238
H30 H 0.0065 0.2358 0.8083
C29 C -0.2975(6) 0.1490(5) 0.7983(4)
C30 C -0.3345(8) 0.1846(7) 0.8688(4)
H31 H -0.4151 0.2038 0.8596
H32 H -0.2818 0.2275 0.8845
H33 H -0.3303 0.1452 0.9077
C31 C 0.0195(6) 0.1618(4) 0.5005(4)
H34 H 0.0290 0.2158 0.4857
H35 H -0.0266 0.1338 0.4607
H36 H 0.0969 0.1376 0.5105
C32 C -0.1004(7) 0.0736(4) 0.5721(4)
H37 H -0.0380 0.0358 0.5669
H38 H -0.1612 0.0685 0.5303
H39 H -0.1348 0.0640 0.6181
C33 C 0.3751(8) 0.1860(7) 0.5366(6)
H40 H 0.3183 0.2061 0.4972
H41 H 0.3794 0.1295 0.5326
H42 H 0.4525 0.2084 0.5319
C34 C 0.4349(7) 0.2051(7) 0.6761(6)
H43 H 0.4965 0.2418 0.6662
H44 H 0.4676 0.1526 0.6798
H45 H 0.4043 0.2189 0.7225
O11 O 0.1487(4) 0.3860(3) 0.3462(2)
O12 O -0.2444(3) 0.2367(3) 0.1659(2)
O13 O -0.2282(3) 0.1869(3) 0.0487(2)
O14 O 0.2692(3) 0.2043(2) 0.22305(19)
O15 O 0.2576(4) 0.0781(3) 0.2618(3)
O16 O 0.2763(3) 0.3639(2) 0.1970(2)
O17 O 0.1633(5) 0.4469(3) 0.1213(3)
O18 O 0.2334(4) 0.3218(3) -0.0301(2)
O19 O 0.3277(7) 0.2581(5) -0.1159(5)
O20 O -0.2072(4) 0.3855(3) 0.2075(3)
H2 H -0.2485 0.3560 0.1790
C35 C 0.1657(5) 0.1606(3) 0.1057(3)
H46 H 0.2122 0.1124 0.1176
C36 C 0.1472(4) 0.1996(3) 0.1834(3)
H47 H 0.1001 0.1632 0.2113
C37 C 0.0904(5) 0.2848(3) 0.1866(3)
H48 H 0.0869 0.3057 0.1353
C38 C 0.1726(5) 0.3425(4) 0.2365(3)
C39 C 0.1162(6) 0.4160(4) 0.2707(4)
H49 H 0.1624 0.4636 0.2619
C40 C -0.0170(6) 0.4316(4) 0.2532(4)
H50 H -0.0275 0.4847 0.2330
H51 H -0.0535 0.4301 0.3000
C41 C -0.0846(5) 0.3741(4) 0.1977(4)
H52 H -0.0722 0.3908 0.1466
C42 C -0.0413(5) 0.2875(4) 0.2081(3)
C43 C -0.1192(5) 0.2307(4) 0.1558(3)
H53 H -0.0937 0.1768 0.1695
C44 C -0.1267(5) 0.2368(4) 0.0701(3)
H54 H -0.1470 0.2912 0.0551
C45 C -0.0163(5) 0.2124(4) 0.0357(3)
C46 C 0.0432(5) 0.2668(4) -0.0011(3)
C47 C 0.1732(5) 0.2494(4) -0.0124(3)
H55 H 0.1750 0.2125 -0.0545
C48 C 0.2428(5) 0.2125(4) 0.0585(3)
H56 H 0.3077 0.1806 0.0430
H57 H 0.2783 0.2548 0.0901
C49 C 0.0473(5) 0.1335(3) 0.0580(3)
C50 C -0.3114(5) 0.1995(5) 0.1028(4)
C51 C 0.2142(5) 0.3215(4) 0.3183(3)
H58 H 0.1863 0.2701 0.3330
H59 H 0.3002 0.3260 0.3306
C52 C 0.3125(5) 0.1396(4) 0.2602(3)
C53 C 0.4371(5) 0.1516(4) 0.2968(3)
C54 C 0.4914(7) 0.0888(5) 0.3364(5)
H60 H 0.4507 0.0415 0.3406
C55 C 0.6079(8) 0.0979(7) 0.3698(6)
H61 H 0.6456 0.0561 0.3966
C56 C 0.6666(6) 0.1660(7) 0.3638(5)
H62 H 0.7449 0.1708 0.3863
C57 C 0.6137(5) 0.2285(5) 0.3251(4)
H63 H 0.6551 0.2758 0.3219
C58 C 0.4983(5) 0.2208(4) 0.2910(3)
H64 H 0.4619 0.2629 0.2640
C59 C 0.2595(6) 0.4195(4) 0.1427(4)
C60 C 0.3781(7) 0.4398(5) 0.1140(5)
H65 H 0.3691 0.4867 0.0837
H66 H 0.4029 0.3968 0.0842
H67 H 0.4374 0.4487 0.1559
C61 C -0.0542(5) 0.2581(5) 0.2888(3)
H68 H -0.0152 0.2946 0.3246
H69 H -0.0177 0.2070 0.2960
H70 H -0.1375 0.2545 0.2960
C62 C -0.0052(7) 0.3465(5) -0.0287(4)
H71 H -0.0911 0.3446 -0.0358
H72 H 0.0248 0.3590 -0.0756
H73 H 0.0201 0.3863 0.0079
C63 C 0.3091(7) 0.3175(5) -0.0835(4)
C64 C 0.3667(9) 0.3953(6) -0.0953(5)
H74 H 0.4018 0.3943 -0.1420
H75 H 0.4279 0.4052 -0.0547
H76 H 0.3075 0.4363 -0.0969
C65 C 0.0770(6) 0.0865(4) -0.0130(3)
H77 H 0.1412 0.0501 0.0010
H78 H 0.1007 0.1227 -0.0501
H79 H 0.0073 0.0578 -0.0336
C66 C -0.0162(5) 0.0713(4) 0.1007(3)
H80 H -0.0070 0.0837 0.1534
H81 H 0.0180 0.0204 0.0930
H82 H -0.0999 0.0706 0.0826
C67 C -0.4092(6) 0.2552(7) 0.0723(5)
H83 H -0.3743 0.3018 0.0531
H84 H -0.4567 0.2696 0.1118
H85 H -0.4591 0.2297 0.0324
C68 C -0.3574(7) 0.1198(6) 0.1257(5)
H86 H -0.3872 0.0907 0.0816
H87 H -0.4208 0.1274 0.1570
H88 H -0.2933 0.0909 0.1531
O21 O 0.6340(18) 0.5332(14) 0.0742(9)
H89 H 0.5975 0.4912 0.0729
C69 C 0.6643(16) 0.5575(11) 0.1534(8)
H90 H 0.7482 0.5492 0.1676
H91 H 0.6187 0.5267 0.1852
H92 H 0.6457 0.6125 0.1586
loop_
_geom_bond_atom_site_label_1
_geom_bond_atom_site_label_2
_geom_bond_site_symmetry_1
_geom_bond_site_symmetry_2
O1 C5 1_555 1_555
O2 C9 1_555 1_555
O3 C10 1_555 1_555
O4 C2 1_555 1_555
O5 C18 1_555 1_555
O6 C4 1_555 1_555
O7 C25 1_555 1_555
O8 C13 1_555 1_555
O9 C29 1_555 1_555
O10 H1 1_555 1_555
O11 C39 1_555 1_555
O12 C43 1_555 1_555
O13 C44 1_555 1_555
O14 C36 1_555 1_555
O15 C52 1_555 1_555
O16 C38 1_555 1_555
O17 C59 1_555 1_555
O18 C47 1_555 1_555
O19 C63 1_555 1_555
O20 H2 1_555 1_555
C1 H3 1_555 1_555
C2 C1 1_555 1_555
H4 C2 1_555 1_555
C3 C2 1_555 1_555
H5 C3 1_555 1_555
C4 C3 1_555 1_555
C5 C4 1_555 1_555
H6 C5 1_555 1_555
C6 C5 1_555 1_555
H7 C6 1_555 1_555
H8 C6 1_555 1_555
C7 O10 1_555 1_555
H9 C7 1_555 1_555
C8 C3 1_555 1_555
C9 C8 1_555 1_555
H10 C9 1_555 1_555
C10 C9 1_555 1_555
H11 C10 1_555 1_555
C11 C10 1_555 1_555
C12 C11 1_555 1_555
C13 C12 1_555 1_555
H12 C13 1_555 1_555
C14 C1 1_555 1_555
H13 C14 1_555 1_555
H14 C14 1_555 1_555
C15 C1 1_555 1_555
C16 O2 1_555 1_555
C17 O1 1_555 1_555
H15 C17 1_555 1_555
H16 C17 1_555 1_555
C18 O4 1_555 1_555
C19 C18 1_555 1_555
C20 C19 1_555 1_555
H17 C20 1_555 1_555
C21 C20 1_555 1_555
H18 C21 1_555 1_555
C22 C21 1_555 1_555
H19 C22 1_555 1_555
C23 C22 1_555 1_555
H20 C23 1_555 1_555
C24 C19 1_555 1_555
H21 C24 1_555 1_555
C25 O6 1_555 1_555
C26 C25 1_555 1_555
H22 C26 1_555 1_555
H23 C26 1_555 1_555
H24 C26 1_555 1_555
C27 C8 1_555 1_555
H25 C27 1_555 1_555
H26 C27 1_555 1_555
H27 C27 1_555 1_555
C28 C12 1_555 1_555
H28 C28 1_555 1_555
H29 C28 1_555 1_555
H30 C28 1_555 1_555
C29 O8 1_555 1_555
C30 C29 1_555 1_555
H31 C30 1_555 1_555
H32 C30 1_555 1_555
H33 C30 1_555 1_555
C31 C15 1_555 1_555
H34 C31 1_555 1_555
H35 C31 1_555 1_555
H36 C31 1_555 1_555
C32 C15 1_555 1_555
H37 C32 1_555 1_555
H38 C32 1_555 1_555
H39 C32 1_555 1_555
C33 C16 1_555 1_555
H40 C33 1_555 1_555
H41 C33 1_555 1_555
H42 C33 1_555 1_555
C34 C16 1_555 1_555
H43 C34 1_555 1_555
H44 C34 1_555 1_555
H45 C34 1_555 1_555
C35 H46 1_555 1_555
C36 C35 1_555 1_555
H47 C36 1_555 1_555
C37 C36 1_555 1_555
H48 C37 1_555 1_555
C38 C37 1_555 1_555
C39 C38 1_555 1_555
H49 C39 1_555 1_555
C40 C39 1_555 1_555
H50 C40 1_555 1_555
H51 C40 1_555 1_555
C41 O20 1_555 1_555
H52 C41 1_555 1_555
C42 C37 1_555 1_555
C43 C42 1_555 1_555
H53 C43 1_555 1_555
C44 C43 1_555 1_555
H54 C44 1_555 1_555
C45 C44 1_555 1_555
C46 C45 1_555 1_555
C47 C46 1_555 1_555
H55 C47 1_555 1_555
C48 C35 1_555 1_555
H56 C48 1_555 1_555
H57 C48 1_555 1_555
C49 C35 1_555 1_555
C50 O12 1_555 1_555
C51 O11 1_555 1_555
H58 C51 1_555 1_555
H59 C51 1_555 1_555
C52 O14 1_555 1_555
C53 C52 1_555 1_555
C54 C53 1_555 1_555
H60 C54 1_555 1_555
C55 C54 1_555 1_555
H61 C55 1_555 1_555
C56 C55 1_555 1_555
H62 C56 1_555 1_555
C57 C56 1_555 1_555
H63 C57 1_555 1_555
C58 C53 1_555 1_555
H64 C58 1_555 1_555
C59 O16 1_555 1_555
C60 C59 1_555 1_555
H65 C60 1_555 1_555
H66 C60 1_555 1_555
H67 C60 1_555 1_555
C61 C42 1_555 1_555
H68 C61 1_555 1_555
H69 C61 1_555 1_555
H70 C61 1_555 1_555
C62 C46 1_555 1_555
H71 C62 1_555 1_555
H72 C62 1_555 1_555
H73 C62 1_555 1_555
C63 O18 1_555 1_555
C64 C63 1_555 1_555
H74 C64 1_555 1_555
H75 C64 1_555 1_555
H76 C64 1_555 1_555
C65 C49 1_555 1_555
H77 C65 1_555 1_555
H78 C65 1_555 1_555
H79 C65 1_555 1_555
C66 C49 1_555 1_555
H80 C66 1_555 1_555
H81 C66 1_555 1_555
H82 C66 1_555 1_555
C67 C50 1_555 1_555
H83 C67 1_555 1_555
H84 C67 1_555 1_555
H85 C67 1_555 1_555
C68 C50 1_555 1_555
H86 C68 1_555 1_555
H87 C68 1_555 1_555
H88 C68 1_555 1_555
O21 H89 1_555 1_555
C69 O21 1_555 1_555
H90 C69 1_555 1_555
H91 C69 1_555 1_555
H92 C69 1_555 1_555
O3 C16 1_555 1_555
O13 C50 1_555 1_555
C4 C17 1_555 1_555
C6 C7 1_555 1_555
C7 C8 1_555 1_555
C11 C15 1_555 1_555
C13 C14 1_555 1_555
C23 C24 1_555 1_555
C38 C51 1_555 1_555
C40 C41 1_555 1_555
C41 C42 1_555 1_555
C45 C49 1_555 1_555
C47 C48 1_555 1_555
C57 C58 1_555 1_555

#END
