
#######################################################################
#
#                 Cambridge Crystallographic Data Centre
#                                CCDC 
#
#######################################################################
#
# If this CIF has been generated from an entry in the Cambridge 
# Structural Database, then it will include bibliographic, chemical, 
# crystal, experimental, refinement or atomic coordinate data resulting 
# from the CCDC's data processing and validation procedures.
#
#######################################################################

data_IGUTUA
_chemical_formula_moiety         
'C56 H36 N4 O12,1.26(C2 H6 O1 S1),0.55(C1 H4 O1)'
_chemical_name_systematic        
'2,8,14,20-tetrakis(4-Cyanophenyl)pyrogallol[4]arene dimethylsulfoxide methanol solvate'
_symmetry_cell_setting           triclinic
_symmetry_space_group_name_H-M   'P -1'
_symmetry_Int_Tables_number      2
_space_group_name_Hall           '-P 1'
loop_
_symmetry_equiv_pos_site_id
_symmetry_equiv_pos_as_xyz
1 x,y,z
2 -x,-y,-z
_cell_length_a                   12.548(3)
_cell_length_b                   15.506(3)
_cell_length_c                   19.017(4)
_cell_angle_alpha                73.75(3)
_cell_angle_beta                 88.54(3)
_cell_angle_gamma                69.65(3)
_cell_volume                     3319.97
_exptl_crystal_colour            colorless
_exptl_crystal_description       rhombohedral
_cell_formula_units_Z            2
loop_
_atom_site_label
_atom_site_type_symbol
_atom_site_fract_x
_atom_site_fract_y
_atom_site_fract_z
O1 O 0.7678(2) 0.22968(19) 0.32464(13)
H1 H 0.7083 0.2223 0.3128
O2 O 0.74042(19) 0.07620(19) 0.29275(12)
H2 H 0.7037 0.0567 0.3273
O3 O 0.9253(2) -0.09772(18) 0.31857(12)
H3 H 0.8559 -0.0907 0.3160
O4 O 1.2457(3) -0.3168(2) 0.38143(15)
H4 H 1.2270 -0.2666 0.3458
O5 O 1.2459(3) -0.4641(2) 0.50165(17)
H5 H 1.2442 -0.4672 0.4583
O6 O 1.1320(3) -0.4264(2) 0.62087(14)
H6 H 1.1307 -0.4119 0.6603
N1 N 1.5325(3) 0.2186(3) 0.3446(2)
N2 N 1.6424(3) -0.0391(3) 0.3958(2)
C1 C 0.8472(3) 0.0668(3) 0.32127(17)
C2 C 0.8592(3) 0.1448(3) 0.33474(16)
C3 C 0.9370(3) -0.0186(3) 0.33346(16)
C4 C 0.9660(3) 0.1414(3) 0.35794(16)
C5 C 1.0437(3) -0.0273(3) 0.35976(15)
C6 C 1.0565(3) 0.0536(3) 0.37135(16)
H7 H 1.1291 0.0489 0.3889
C7 C 0.9783(3) 0.2317(3) 0.36837(17)
H8 H 0.9335 0.2858 0.3254
C8 C 1.1438(3) -0.1243(3) 0.37271(16)
H9 H 1.1435 -0.1470 0.3284
C9 C 1.1001(3) 0.2302(3) 0.36513(17)
C10 C 1.1366(4) 0.2692(3) 0.29893(19)
H10 H 1.0834 0.2999 0.2570
C11 C 1.1786(3) 0.1871(3) 0.4259(2)
H11 H 1.1555 0.1593 0.4720
C12 C 1.2477(4) 0.2653(3) 0.2914(2)
H12 H 1.2709 0.2910 0.2446
C13 C 1.2891(4) 0.1840(4) 0.4206(2)
H13 H 1.3410 0.1550 0.4632
C14 C 1.3261(3) 0.2230(3) 0.3532(2)
C15 C 1.4392(4) 0.2217(4) 0.3481(2)
C16 C 1.2557(3) -0.1122(3) 0.38033(17)
C17 C 1.3177(3) -0.0968(3) 0.31859(18)
H14 H 1.2900 -0.0977 0.2729
C18 C 1.3002(3) -0.1107(3) 0.44697(17)
H15 H 1.2613 -0.1233 0.4900
C19 C 1.4172(3) -0.0802(3) 0.32292(19)
H16 H 1.4588 -0.0718 0.2806
C20 C 1.3974(3) -0.0916(3) 0.45128(18)
H17 H 1.4241 -0.0890 0.4967
C21 C 1.4585(3) -0.0757(3) 0.38897(19)
C22 C 1.5601(4) -0.0559(3) 0.3933(2)
C23 C 1.1308(3) -0.2024(3) 0.44003(17)
C24 C 1.0765(3) -0.1818(3) 0.50044(17)
H18 H 1.0384 -0.1167 0.4995
C25 C 1.1877(3) -0.2972(3) 0.44065(19)
C26 C 1.1875(4) -0.3719(3) 0.5027(2)
C27 C 1.1304(4) -0.3492(3) 0.56275(19)
C28 C 0.9233(3) 0.2555(3) 0.43680(18)
O1A O 1.2322(2) -0.22968(19) 0.67536(13)
H1A H 1.2917 -0.2223 0.6872
O2A O 1.25958(19) -0.07620(19) 0.70725(12)
H2A H 1.2963 -0.0567 0.6727
O3A O 1.0747(2) 0.09772(18) 0.68143(12)
H3A H 1.1441 0.0907 0.6840
O4A O 0.7543(3) 0.3168(2) 0.61857(15)
H4A H 0.7730 0.2666 0.6542
O5A O 0.7541(3) 0.4641(2) 0.49835(17)
H5A H 0.7558 0.4672 0.5417
O6A O 0.8680(3) 0.4264(2) 0.37913(14)
H6A H 0.8693 0.4119 0.3397
N1A N 0.4675(3) -0.2186(3) 0.6554(2)
N2A N 0.3576(3) 0.0391(3) 0.6042(2)
C1A C 1.1528(3) -0.0668(3) 0.67873(17)
C2A C 1.1408(3) -0.1448(3) 0.66526(16)
C3A C 1.0630(3) 0.0186(3) 0.66654(16)
C4A C 1.0340(3) -0.1414(3) 0.64206(16)
C5A C 0.9563(3) 0.0273(3) 0.64024(15)
C6A C 0.9435(3) -0.0536(3) 0.62865(16)
H7A H 0.8709 -0.0489 0.6111
C7A C 1.0217(3) -0.2317(3) 0.63163(17)
H8A H 1.0665 -0.2858 0.6746
C8A C 0.8562(3) 0.1243(3) 0.62729(16)
H9A H 0.8565 0.1470 0.6716
C9A C 0.8999(3) -0.2302(3) 0.63487(17)
C10A C 0.8634(4) -0.2692(3) 0.70107(19)
H10A H 0.9166 -0.2999 0.7430
C11A C 0.8214(3) -0.1871(3) 0.5741(2)
H11A H 0.8445 -0.1593 0.5280
C12A C 0.7523(4) -0.2653(3) 0.7086(2)
H12A H 0.7291 -0.2910 0.7554
C13A C 0.7109(4) -0.1840(4) 0.5794(2)
H13A H 0.6590 -0.1550 0.5368
C14A C 0.6739(3) -0.2230(3) 0.6468(2)
C15A C 0.5608(4) -0.2217(4) 0.6519(2)
C16A C 0.7443(3) 0.1122(3) 0.61967(17)
C17A C 0.6823(3) 0.0968(3) 0.68141(18)
H14A H 0.7100 0.0977 0.7271
C18A C 0.6998(3) 0.1107(3) 0.55303(17)
H15A H 0.7387 0.1233 0.5100
C19A C 0.5828(3) 0.0802(3) 0.67708(19)
H16A H 0.5412 0.0718 0.7194
C20A C 0.6026(3) 0.0916(3) 0.54872(18)
H17A H 0.5759 0.0890 0.5033
C21A C 0.5415(3) 0.0757(3) 0.61103(19)
C22A C 0.4399(4) 0.0559(3) 0.6067(2)
C23A C 0.8692(3) 0.2024(3) 0.55997(17)
C24A C 0.9235(3) 0.1818(3) 0.49956(17)
H18A H 0.9616 0.1167 0.5005
C25A C 0.8123(3) 0.2972(3) 0.55935(19)
C26A C 0.8125(4) 0.3719(3) 0.4973(2)
C27A C 0.8696(4) 0.3492(3) 0.43725(19)
C28A C 1.0767(3) -0.2555(3) 0.56320(18)
O7 O 0.7181(2) -0.2360(2) 0.18540(15)
H19 H 0.7810 -0.2296 0.1905
O8 O 0.7552(2) -0.0818(2) 0.21432(13)
H20 H 0.7937 -0.0609 0.1816
O9 O 0.5804(2) 0.0976(2) 0.17963(13)
H21 H 0.5414 0.1125 0.2138
O10 O 0.4195(3) 0.4151(2) -0.12169(15)
H22 H 0.4081 0.4050 -0.1615
O11 O 0.3160(4) 0.4647(3) -0.0010(2)
H23 H 0.2446 0.4868 -0.0012
O12 O 0.2823(3) 0.3250(2) 0.11555(15)
H24 H 0.2271 0.3772 0.1009
N3 N -0.0533(4) -0.1812(5) 0.1481(3)
N4 N -0.1567(4) 0.0683(4) 0.1124(2)
C29 C 0.6507(3) -0.0693(3) 0.18277(18)
C30 C 0.6324(3) -0.1483(3) 0.17133(17)
C31 C 0.5646(3) 0.0186(3) 0.16684(16)
C32 C 0.5253(3) -0.1388(3) 0.14457(16)
C33 C 0.4571(3) 0.0304(3) 0.13928(16)
C34 C 0.4406(3) -0.0491(3) 0.12849(16)
H25 H 0.3678 -0.0415 0.1092
C35 C 0.5084(3) -0.2271(3) 0.13381(17)
H26 H 0.5506 -0.2824 0.1769
C36 C 0.3856(3) -0.2188(3) 0.13527(17)
C37 C 0.3430(3) -0.2538(3) 0.20226(19)
H27 H 0.3937 -0.2840 0.2455
C38 C 0.3085(3) -0.1733(3) 0.07390(19)
H28 H 0.3348 -0.1489 0.0279
C39 C 0.2334(4) -0.2460(3) 0.2072(2)
H29 H 0.2076 -0.2716 0.2530
C40 C 0.1954(4) -0.1623(3) 0.0775(2)
H30 H 0.1443 -0.1293 0.0346
C41 C 0.1560(3) -0.1991(3) 0.1431(2)
C42 C 0.0389(4) -0.1895(4) 0.1466(2)
C43 C 0.3613(3) 0.1294(3) 0.12420(17)
H31 H 0.3647 0.1526 0.1678
C44 C 0.2440(3) 0.1218(3) 0.11956(17)
C45 C 0.1808(3) 0.1156(3) 0.18086(19)
H32 H 0.2086 0.1217 0.2246
C46 C 0.1982(3) 0.1172(3) 0.05528(17)
H33 H 0.2384 0.1243 0.0123
C47 C 0.0794(3) 0.1008(3) 0.17949(19)
H34 H 0.0388 0.0947 0.2224
C48 C 0.0974(3) 0.1027(3) 0.05221(19)
H35 H 0.0690 0.0980 0.0081
C49 C 0.0363(3) 0.0949(3) 0.1151(2)
C50 C -0.0687(4) 0.0788(4) 0.1144(2)
C51 C 0.3769(3) 0.2054(3) 0.05718(17)
C52 C 0.4279(3) 0.1807(3) -0.00342(16)
H36 H 0.4554 0.1152 -0.0032
C53 C 0.3361(4) 0.3017(3) 0.05667(19)
C54 C 0.4395(3) 0.2516(3) -0.06546(17)
C55 C 0.3504(4) 0.3719(3) -0.0032(2)
C56 C 0.4034(4) 0.3453(3) -0.0642(2)
O7A O 0.2819(2) 0.2360(2) -0.18540(15)
H19A H 0.2190 0.2296 -0.1905
O8A O 0.2448(2) 0.0818(2) -0.21432(13)
H20A H 0.2063 0.0609 -0.1816
O9A O 0.4196(2) -0.0976(2) -0.17963(13)
H21A H 0.4586 -0.1125 -0.2138
O10A O 0.5805(3) -0.4151(2) 0.12169(15)
H22A H 0.5919 -0.4050 0.1615
O11A O 0.6840(4) -0.4647(3) 0.0010(2)
H23A H 0.7554 -0.4868 0.0012
O12A O 0.7177(3) -0.3250(2) -0.11555(15)
H24A H 0.7729 -0.3772 -0.1009
N3A N 1.0533(4) 0.1812(5) -0.1481(3)
N4A N 1.1567(4) -0.0683(4) -0.1124(2)
C29A C 0.3493(3) 0.0693(3) -0.18277(18)
C30A C 0.3676(3) 0.1483(3) -0.17133(17)
C31A C 0.4354(3) -0.0186(3) -0.16684(16)
C32A C 0.4747(3) 0.1388(3) -0.14457(16)
C33A C 0.5429(3) -0.0304(3) -0.13928(16)
C34A C 0.5594(3) 0.0491(3) -0.12849(16)
H25A H 0.6322 0.0415 -0.1092
C35A C 0.4916(3) 0.2271(3) -0.13381(17)
H26A H 0.4494 0.2824 -0.1769
C36A C 0.6144(3) 0.2188(3) -0.13527(17)
C37A C 0.6570(3) 0.2538(3) -0.20226(19)
H27A H 0.6063 0.2840 -0.2455
C38A C 0.6915(3) 0.1733(3) -0.07390(19)
H28A H 0.6652 0.1489 -0.0279
C39A C 0.7666(4) 0.2460(3) -0.2072(2)
H29A H 0.7924 0.2716 -0.2530
C40A C 0.8046(4) 0.1623(3) -0.0775(2)
H30A H 0.8557 0.1293 -0.0346
C41A C 0.8440(3) 0.1991(3) -0.1431(2)
C42A C 0.9611(4) 0.1895(4) -0.1466(2)
C43A C 0.6387(3) -0.1294(3) -0.12420(17)
H31A H 0.6353 -0.1526 -0.1678
C44A C 0.7560(3) -0.1218(3) -0.11956(17)
C45A C 0.8192(3) -0.1156(3) -0.18086(19)
H32A H 0.7914 -0.1217 -0.2246
C46A C 0.8018(3) -0.1172(3) -0.05528(17)
H33A H 0.7616 -0.1243 -0.0123
C47A C 0.9206(3) -0.1008(3) -0.17949(19)
H34A H 0.9612 -0.0947 -0.2224
C48A C 0.9026(3) -0.1027(3) -0.05221(19)
H35A H 0.9310 -0.0980 -0.0081
C49A C 0.9637(3) -0.0949(3) -0.1151(2)
C50A C 1.0687(4) -0.0788(4) -0.1144(2)
C51A C 0.6231(3) -0.2054(3) -0.05718(17)
C52A C 0.5721(3) -0.1807(3) 0.00342(16)
H36A H 0.5446 -0.1152 0.0032
C53A C 0.6639(4) -0.3017(3) -0.05667(19)
C54A C 0.5605(3) -0.2516(3) 0.06546(17)
C55A C 0.6496(4) -0.3719(3) 0.0032(2)
C56A C 0.5966(4) -0.3453(3) 0.0642(2)
S1 S 0.67919(17) 0.30876(10) 0.14547(7)
O13 O 0.7034(4) 0.3992(3) 0.1444(3)
C57 C 0.5350(6) 0.3298(5) 0.1640(3)
H37 H 0.5257 0.3310 0.2150
H38 H 0.5127 0.2783 0.1562
H39 H 0.4867 0.3916 0.1309
C58 C 0.6522(7) 0.3140(6) 0.0532(4)
H40 H 0.7236 0.3022 0.0291
H41 H 0.5978 0.3777 0.0274
H42 H 0.6202 0.2649 0.0522
S2 S 0.9750(2) -0.33465(16) 0.33853(14)
O14 O 0.8764(6) -0.3337(4) 0.2948(4)
C59 C 0.9084(9) -0.3091(9) 0.4183(6)
H43 H 0.8555 -0.2423 0.4051
H44 H 0.9668 -0.3187 0.4558
H45 H 0.8663 -0.3523 0.4376
C60 C 1.0682(10) -0.4564(8) 0.3683(7)
H46 H 1.1067 -0.4749 0.3264
H47 H 1.0242 -0.4976 0.3889
H48 H 1.1252 -0.4639 0.4060
O15 O 1.3042(6) -0.6135(4) 0.6335(4)
H49 H 1.2463 -0.6228 0.6522
C61 C 1.3837(8) -0.6963(6) 0.6366(5)
H50 H 1.4554 -0.6865 0.6232
H51 H 1.3610 -0.7248 0.6024
H52 H 1.3941 -0.7395 0.6867
loop_
_geom_bond_atom_site_label_1
_geom_bond_atom_site_label_2
_geom_bond_site_symmetry_1
_geom_bond_site_symmetry_2
O1 H1 1_555 1_555
O2 H2 1_555 1_555
O3 H3 1_555 1_555
O4 H4 1_555 1_555
O5 H5 1_555 1_555
O6 H6 1_555 1_555
N1 C15 1_555 1_555
N2 C22 1_555 1_555
C1 O2 1_555 1_555
C2 O1 1_555 1_555
C3 O3 1_555 1_555
C4 C2 1_555 1_555
C5 C3 1_555 1_555
C6 C4 1_555 1_555
H7 C6 1_555 1_555
C7 C4 1_555 1_555
H8 C7 1_555 1_555
C8 C5 1_555 1_555
H9 C8 1_555 1_555
C9 C7 1_555 1_555
C10 C9 1_555 1_555
H10 C10 1_555 1_555
C11 C9 1_555 1_555
H11 C11 1_555 1_555
C12 C10 1_555 1_555
H12 C12 1_555 1_555
C13 C11 1_555 1_555
H13 C13 1_555 1_555
C14 C12 1_555 1_555
C15 C14 1_555 1_555
C16 C8 1_555 1_555
C17 C16 1_555 1_555
H14 C17 1_555 1_555
C18 C16 1_555 1_555
H15 C18 1_555 1_555
C19 C17 1_555 1_555
H16 C19 1_555 1_555
C20 C18 1_555 1_555
H17 C20 1_555 1_555
C21 C19 1_555 1_555
C22 C21 1_555 1_555
C23 C8 1_555 1_555
C24 C23 1_555 1_555
H18 C24 1_555 1_555
C25 O4 1_555 1_555
C26 O5 1_555 1_555
C27 O6 1_555 1_555
C28 C7 1_555 1_555
O7 H19 1_555 1_555
O8 H20 1_555 1_555
O9 H21 1_555 1_555
O10 H22 1_555 1_555
O11 H23 1_555 1_555
O12 H24 1_555 1_555
N3 C42 1_555 1_555
N4 C50 1_555 1_555
C29 O8 1_555 1_555
C30 O7 1_555 1_555
C31 O9 1_555 1_555
C32 C30 1_555 1_555
C33 C31 1_555 1_555
C34 C32 1_555 1_555
H25 C34 1_555 1_555
C35 C32 1_555 1_555
H26 C35 1_555 1_555
C36 C35 1_555 1_555
C37 C36 1_555 1_555
H27 C37 1_555 1_555
C38 C36 1_555 1_555
H28 C38 1_555 1_555
C39 C37 1_555 1_555
H29 C39 1_555 1_555
C40 C38 1_555 1_555
H30 C40 1_555 1_555
C41 C39 1_555 1_555
C42 C41 1_555 1_555
C43 C33 1_555 1_555
H31 C43 1_555 1_555
C44 C43 1_555 1_555
C45 C44 1_555 1_555
H32 C45 1_555 1_555
C46 C44 1_555 1_555
H33 C46 1_555 1_555
C47 C45 1_555 1_555
H34 C47 1_555 1_555
C48 C46 1_555 1_555
H35 C48 1_555 1_555
C49 C47 1_555 1_555
C50 C49 1_555 1_555
C51 C43 1_555 1_555
C52 C51 1_555 1_555
H36 C52 1_555 1_555
C53 O12 1_555 1_555
C54 C52 1_555 1_555
C55 O11 1_555 1_555
C56 O10 1_555 1_555
S1 O13 1_555 1_555
C57 S1 1_555 1_555
H37 C57 1_555 1_555
H38 C57 1_555 1_555
H39 C57 1_555 1_555
C58 S1 1_555 1_555
H40 C58 1_555 1_555
H41 C58 1_555 1_555
H42 C58 1_555 1_555
S2 O14 1_555 1_555
C59 S2 1_555 1_555
H43 C59 1_555 1_555
H44 C59 1_555 1_555
H45 C59 1_555 1_555
C60 S2 1_555 1_555
H46 C60 1_555 1_555
H47 C60 1_555 1_555
H48 C60 1_555 1_555
O15 H49 1_555 1_555
C61 O15 1_555 1_555
H50 C61 1_555 1_555
H51 C61 1_555 1_555
H52 C61 1_555 1_555
O1A H1A 1_555 1_555
O2A H2A 1_555 1_555
O3A H3A 1_555 1_555
O4A H4A 1_555 1_555
O5A H5A 1_555 1_555
O6A H6A 1_555 1_555
N1A C15A 1_555 1_555
N2A C22A 1_555 1_555
C1A O2A 1_555 1_555
C2A O1A 1_555 1_555
C3A O3A 1_555 1_555
C4A C2A 1_555 1_555
C5A C3A 1_555 1_555
C6A C4A 1_555 1_555
H7A C6A 1_555 1_555
C7A C4A 1_555 1_555
H8A C7A 1_555 1_555
C8A C5A 1_555 1_555
H9A C8A 1_555 1_555
C9A C7A 1_555 1_555
C10A C9A 1_555 1_555
H10A C10A 1_555 1_555
C11A C9A 1_555 1_555
H11A C11A 1_555 1_555
C12A C10A 1_555 1_555
H12A C12A 1_555 1_555
C13A C11A 1_555 1_555
H13A C13A 1_555 1_555
C14A C12A 1_555 1_555
C15A C14A 1_555 1_555
C16A C8A 1_555 1_555
C17A C16A 1_555 1_555
H14A C17A 1_555 1_555
C18A C16A 1_555 1_555
H15A C18A 1_555 1_555
C19A C17A 1_555 1_555
H16A C19A 1_555 1_555
C20A C18A 1_555 1_555
H17A C20A 1_555 1_555
C21A C19A 1_555 1_555
C22A C21A 1_555 1_555
C23A C8A 1_555 1_555
C24A C28 1_555 1_555
H18A C24A 1_555 1_555
C25A O4A 1_555 1_555
C26A O5A 1_555 1_555
C27A C28 1_555 1_555
C28A C24 1_555 1_555
O7A H19A 1_555 1_555
O8A H20A 1_555 1_555
O9A H21A 1_555 1_555
O10A H22A 1_555 1_555
O11A H23A 1_555 1_555
O12A H24A 1_555 1_555
N3A C42A 1_555 1_555
N4A C50A 1_555 1_555
C29A O8A 1_555 1_555
C30A O7A 1_555 1_555
C31A O9A 1_555 1_555
C32A C30A 1_555 1_555
C33A C31A 1_555 1_555
C34A C32A 1_555 1_555
H25A C34A 1_555 1_555
C35A C54 1_555 1_555
H26A C35A 1_555 1_555
C36A C35A 1_555 1_555
C37A C36A 1_555 1_555
H27A C37A 1_555 1_555
C38A C36A 1_555 1_555
H28A C38A 1_555 1_555
C39A C37A 1_555 1_555
H29A C39A 1_555 1_555
C40A C38A 1_555 1_555
H30A C40A 1_555 1_555
C41A C39A 1_555 1_555
C42A C41A 1_555 1_555
C43A C33A 1_555 1_555
H31A C43A 1_555 1_555
C44A C43A 1_555 1_555
C45A C44A 1_555 1_555
H32A C45A 1_555 1_555
C46A C44A 1_555 1_555
H33A C46A 1_555 1_555
C47A C45A 1_555 1_555
H34A C47A 1_555 1_555
C48A C46A 1_555 1_555
H35A C48A 1_555 1_555
C49A C47A 1_555 1_555
C50A C49A 1_555 1_555
C51A C43A 1_555 1_555
C52A C51A 1_555 1_555
H36A C52A 1_555 1_555
C53A O12A 1_555 1_555
C54A C35 1_555 1_555
C55A O11A 1_555 1_555
C56A O10A 1_555 1_555
C1 C2 1_555 1_555
C1 C3 1_555 1_555
C5 C6 1_555 1_555
C13 C14 1_555 1_555
C20 C21 1_555 1_555
C23 C25 1_555 1_555
C25 C26 1_555 1_555
C26 C27 1_555 1_555
C27 C28A 1_555 1_555
C29 C30 1_555 1_555
C29 C31 1_555 1_555
C33 C34 1_555 1_555
C40 C41 1_555 1_555
C48 C49 1_555 1_555
C51 C53 1_555 1_555
C53 C55 1_555 1_555
C54 C56 1_555 1_555
C55 C56 1_555 1_555
O6A C27A 1_555 1_555
C1A C2A 1_555 1_555
C1A C3A 1_555 1_555
C5A C6A 1_555 1_555
C7A C28A 1_555 1_555
C13A C14A 1_555 1_555
C20A C21A 1_555 1_555
C23A C24A 1_555 1_555
C23A C25A 1_555 1_555
C25A C26A 1_555 1_555
C26A C27A 1_555 1_555
C29A C30A 1_555 1_555
C29A C31A 1_555 1_555
C32A C35A 1_555 1_555
C33A C34A 1_555 1_555
C40A C41A 1_555 1_555
C48A C49A 1_555 1_555
C51A C53A 1_555 1_555
C52A C54A 1_555 1_555
C53A C55A 1_555 1_555
C54A C56A 1_555 1_555
C55A C56A 1_555 1_555

#END
