
#######################################################################
#
#                 Cambridge Crystallographic Data Centre
#                                CCDC 
#
#######################################################################
#
# If this CIF has been generated from an entry in the Cambridge 
# Structural Database, then it will include bibliographic, chemical, 
# crystal, experimental, refinement or atomic coordinate data resulting 
# from the CCDC's data processing and validation procedures.
#
#######################################################################

data_IGUTOV
_chemical_formula_moiety         'C29 H33 N1 O3 S1'
_chemical_name_systematic        
N-(1-(cyclohexyloxy)-1,1-diphenylpentan-2-ylidene)benzenesulfonamide
_symmetry_cell_setting           monoclinic
_symmetry_space_group_name_H-M   'P 21/c'
_symmetry_Int_Tables_number      14
_space_group_name_Hall           '-P 2ybc'
loop_
_symmetry_equiv_pos_site_id
_symmetry_equiv_pos_as_xyz
1 x,y,z
2 -x,1/2+y,1/2-z
3 -x,-y,-z
4 x,1/2-y,1/2+z
_cell_length_a                   18.573(5)
_cell_length_b                   8.531(5)
_cell_length_c                   17.976(5)
_cell_angle_alpha                90
_cell_angle_beta                 112.747(5)
_cell_angle_gamma                90
_cell_volume                     2626.7
_exptl_crystal_colour            colorless
_exptl_crystal_description       block
_cell_formula_units_Z            4
loop_
_atom_site_label
_atom_site_type_symbol
_atom_site_fract_x
_atom_site_fract_y
_atom_site_fract_z
C1 C 0.3757(2) 0.4557(5) 0.6234(2)
C2 C 0.3868(3) 0.3316(6) 0.6765(3)
H1 H 0.3459 0.2976 0.6901
C3 C 0.4580(5) 0.2591(9) 0.7089(4)
H2 H 0.4669 0.1779 0.7459
C4 C 0.5160(5) 0.3099(13) 0.6850(7)
H3 H 0.5637 0.2579 0.7045
C5 C 0.5067(4) 0.4316(12) 0.6346(7)
H4 H 0.5479 0.4655 0.6215
C6 C 0.4338(3) 0.5071(7) 0.6019(4)
H5 H 0.4257 0.5905 0.5663
C7 C 0.19318(16) 0.4992(3) 0.43426(19)
C8 C 0.15786(17) 0.6615(3) 0.41991(19)
H6 H 0.1310 0.6778 0.3623
H7 H 0.1995 0.7382 0.4399
C9 C 0.1004(2) 0.6892(4) 0.4606(2)
H8 H 0.1267 0.6727 0.5183
H9 H 0.0580 0.6141 0.4402
C10 C 0.0672(2) 0.8552(4) 0.4450(2)
H10 H 0.0315 0.8695 0.4713
H11 H 0.0403 0.8710 0.3880
H12 H 0.1091 0.9296 0.4658
C11 C 0.27146(16) 0.1856(3) 0.40915(19)
H13 H 0.3027 0.2817 0.4189
C12 C 0.29626(17) 0.0902(4) 0.4859(2)
H14 H 0.2609 0.0022 0.4777
H15 H 0.2925 0.1547 0.5287
C13 C 0.37959(19) 0.0289(4) 0.5117(2)
H16 H 0.4157 0.1165 0.5259
H17 H 0.3919 -0.0368 0.5590
C14 C 0.3896(2) -0.0651(4) 0.4445(3)
H18 H 0.4438 -0.0962 0.4609
H19 H 0.3581 -0.1595 0.4345
C15 C 0.3653(2) 0.0305(5) 0.3684(3)
H20 H 0.3693 -0.0334 0.3255
H21 H 0.4007 0.1186 0.3770
C16 C 0.2819(2) 0.0914(5) 0.3425(2)
H22 H 0.2695 0.1567 0.2950
H23 H 0.2460 0.0035 0.3284
C17 C 0.18511(16) 0.4349(3) 0.29330(19)
C18 C 0.23970(18) 0.5514(4) 0.3005(2)
H24 H 0.2634 0.6036 0.3493
C19 C 0.2593(2) 0.5910(5) 0.2358(3)
H25 H 0.2953 0.6706 0.2415
C20 C 0.2259(2) 0.5134(5) 0.1634(3)
H26 H 0.2390 0.5403 0.1200
C21 C 0.1732(2) 0.3962(4) 0.1558(2)
H27 H 0.1510 0.3420 0.1074
C22 C 0.15294(19) 0.3582(4) 0.2199(2)
H28 H 0.1167 0.2789 0.2135
C23 C 0.04576(18) 0.2776(3) 0.3851(2)
H29 H 0.0797 0.2154 0.4263
C24 C 0.07464(15) 0.3732(3) 0.34050(17)
C25 C -0.03328(19) 0.2745(4) 0.3686(2)
H30 H -0.0522 0.2085 0.3981
C26 C -0.08466(19) 0.3679(4) 0.3089(2)
H31 H -0.1376 0.3668 0.2991
C27 C -0.05700(18) 0.4623(4) 0.2643(2)
H32 H -0.0914 0.5246 0.2236
C28 C 0.02209(17) 0.4654(3) 0.27941(19)
H33 H 0.0403 0.5294 0.2486
C29 C 0.16340(16) 0.3817(3) 0.36358(17)
N1 N 0.24349(14) 0.4464(3) 0.50091(16)
O1 O 0.24470(16) 0.5181(4) 0.63601(16)
O2 O 0.29841(15) 0.7106(3) 0.57008(16)
O3 O 0.19019(10) 0.2250(2) 0.38738(12)
S1 S 0.28494(5) 0.55058(10) 0.58459(5)
loop_
_geom_bond_atom_site_label_1
_geom_bond_atom_site_label_2
_geom_bond_site_symmetry_1
_geom_bond_site_symmetry_2
C1 C2 1_555 1_555
C2 H1 1_555 1_555
C3 C2 1_555 1_555
H2 C3 1_555 1_555
C4 C3 1_555 1_555
H3 C4 1_555 1_555
C5 C4 1_555 1_555
H4 C5 1_555 1_555
C6 C1 1_555 1_555
H5 C6 1_555 1_555
C7 C8 1_555 1_555
C8 H6 1_555 1_555
H7 C8 1_555 1_555
C9 C8 1_555 1_555
H8 C9 1_555 1_555
H9 C9 1_555 1_555
C10 C9 1_555 1_555
H10 C10 1_555 1_555
H11 C10 1_555 1_555
H12 C10 1_555 1_555
C11 H13 1_555 1_555
C12 C11 1_555 1_555
H14 C12 1_555 1_555
H15 C12 1_555 1_555
C13 C12 1_555 1_555
H16 C13 1_555 1_555
H17 C13 1_555 1_555
C14 C13 1_555 1_555
H18 C14 1_555 1_555
H19 C14 1_555 1_555
C15 C14 1_555 1_555
H20 C15 1_555 1_555
H21 C15 1_555 1_555
C16 C11 1_555 1_555
H22 C16 1_555 1_555
H23 C16 1_555 1_555
C17 C18 1_555 1_555
C18 H24 1_555 1_555
C19 C18 1_555 1_555
H25 C19 1_555 1_555
C20 C19 1_555 1_555
H26 C20 1_555 1_555
C21 C20 1_555 1_555
H27 C21 1_555 1_555
C22 C17 1_555 1_555
H28 C22 1_555 1_555
C23 H29 1_555 1_555
C24 C23 1_555 1_555
C25 C23 1_555 1_555
H30 C25 1_555 1_555
C26 C25 1_555 1_555
H31 C26 1_555 1_555
C27 C26 1_555 1_555
H32 C27 1_555 1_555
C28 C24 1_555 1_555
H33 C28 1_555 1_555
C29 C7 1_555 1_555
N1 C7 1_555 1_555
O1 S1 1_555 1_555
O2 S1 1_555 1_555
O3 C11 1_555 1_555
S1 C1 1_555 1_555
C5 C6 1_555 1_555
C15 C16 1_555 1_555
C17 C29 1_555 1_555
C21 C22 1_555 1_555
C24 C29 1_555 1_555
C27 C28 1_555 1_555
C29 O3 1_555 1_555
N1 S1 1_555 1_555

#END
