
#######################################################################
#
#                 Cambridge Crystallographic Data Centre
#                                CCDC 
#
#######################################################################
#
# If this CIF has been generated from an entry in the Cambridge 
# Structural Database, then it will include bibliographic, chemical, 
# crystal, experimental, refinement or atomic coordinate data resulting 
# from the CCDC's data processing and validation procedures.
#
#######################################################################

data_IGUWUE
_chemical_formula_moiety         'C15 H20 N2 O2'
_chemical_name_systematic        
N^2^-((2-phenylcyclopropyl)carbonyl)valinamide
_symmetry_cell_setting           monoclinic
_symmetry_space_group_name_H-M   'P 21'
_symmetry_Int_Tables_number      4
_space_group_name_Hall           'P 2yb'
loop_
_symmetry_equiv_pos_site_id
_symmetry_equiv_pos_as_xyz
1 x,y,z
2 -x,1/2+y,-z
_cell_length_a                   9.4882(18)
_cell_length_b                   10.3774(19)
_cell_length_c                   15.575(3)
_cell_angle_alpha                90
_cell_angle_beta                 107.509(6)
_cell_angle_gamma                90
_cell_volume                     1462.51
_exptl_crystal_colour            white
_exptl_crystal_description       rod
_cell_formula_units_Z            4
loop_
_atom_site_label
_atom_site_type_symbol
_atom_site_fract_x
_atom_site_fract_y
_atom_site_fract_z
N1 N 0.8856(7) 0.7925(6) 0.6454(4)
H1 H 0.7895 0.8009 0.6347
N2 N 0.9637(8) 0.4727(7) 0.6147(5)
H2 H 0.9247 0.4036 0.5839
H3 H 1.0602 0.4831 0.6327
O1 O 1.0970(6) 0.8865(5) 0.6388(4)
O2 O 0.7425(6) 0.5525(6) 0.6112(4)
C1 C 0.8591(11) 1.1152(10) 0.7885(6)
H4 H 0.7549 1.1077 0.7636
C2 C 0.9195(14) 1.1173(10) 0.8797(7)
H5 H 0.8575 1.1096 0.9172
C3 C 1.0705(15) 1.1305(10) 0.9180(6)
H6 H 1.1133 1.1326 0.9815
C4 C 1.1581(13) 1.1407(10) 0.8606(7)
H7 H 1.2620 1.1511 0.8852
C5 C 1.0946(12) 1.1357(11) 0.7675(7)
H8 H 1.1552 1.1407 0.7289
C6 C 0.9442(10) 1.1236(8) 0.7318(5)
C7 C 0.8659(10) 1.1194(8) 0.6310(5)
H9 H 0.7683 1.1647 0.6126
C8 C 0.9415(10) 1.1183(8) 0.5605(6)
H10 H 0.8941 1.1656 0.5039
H11 H 1.0508 1.1205 0.5803
C9 C 0.8699(10) 1.0003(8) 0.5772(5)
H12 H 0.7750 0.9781 0.5305
C10 C 0.9604(8) 0.8896(7) 0.6208(5)
C11 C 0.9551(8) 0.6757(7) 0.6882(5)
H13 H 1.0605 0.6756 0.6883
C12 C 0.8774(8) 0.5607(7) 0.6340(5)
C13 C 0.9515(9) 0.6611(8) 0.7872(5)
H14 H 0.8462 0.6558 0.7871
C14 C 1.0240(17) 0.7772(11) 0.8428(7)
H15 H 1.0209 0.7670 0.9048
H16 H 0.9707 0.8557 0.8168
H17 H 1.1270 0.7836 0.8428
C15 C 1.0319(12) 0.5370(10) 0.8285(6)
H18 H 1.0282 0.5279 0.8905
H19 H 1.1351 0.5412 0.8287
H20 H 0.9836 0.4627 0.7929
N3 N 0.4762(7) 0.6404(6) 0.6615(4)
H21 H 0.5617 0.6259 0.6521
N4 N 0.3331(7) 0.9247(7) 0.5646(4)
H22 H 0.3324 0.9730 0.5180
H23 H 0.2538 0.9199 0.5826
O3 O 0.2655(6) 0.5516(6) 0.6712(4)
O4 O 0.5687(6) 0.8627(7) 0.5846(4)
C16 C 0.4140(11) 0.3602(10) 0.8300(6)
H24 H 0.3133 0.3487 0.7960
C17 C 0.4541(15) 0.3926(10) 0.9225(7)
H25 H 0.3778 0.4048 0.9496
C18 C 0.6004(16) 0.4072(11) 0.9755(7)
H26 H 0.6243 0.4263 1.0379
C19 C 0.7066(14) 0.3934(10) 0.9353(7)
H27 H 0.8067 0.4042 0.9706
C20 C 0.6760(10) 0.3632(8) 0.8422(7)
H28 H 0.7536 0.3550 0.8156
C21 C 0.5262(10) 0.3456(7) 0.7903(5)
C22 C 0.4979(10) 0.3205(9) 0.6931(6)
H29 H 0.5780 0.2687 0.6801
C23 C 0.3539(9) 0.2983(8) 0.6282(6)
H30 H 0.2662 0.3041 0.6500
H31 H 0.3469 0.2322 0.5813
C24 C 0.4336(9) 0.4204(8) 0.6221(5)
H32 H 0.4779 0.4281 0.5717
C25 C 0.3810(9) 0.5404(8) 0.6537(5)
C26 C 0.4432(8) 0.7712(7) 0.6848(5)
H33 H 0.3388 0.7734 0.6868
C27 C 0.4551(7) 0.8583(7) 0.6081(4)
C28 C 0.5437(9) 0.8209(7) 0.7744(5)
H34 H 0.6457 0.8278 0.7688
C29 C 0.5499(13) 0.7257(10) 0.8504(7)
H35 H 0.5798 0.6407 0.8347
H36 H 0.4521 0.7194 0.8592
H37 H 0.6217 0.7559 0.9062
C30 C 0.4960(11) 0.9558(8) 0.7930(6)
H38 H 0.4922 1.0122 0.7419
H39 H 0.5672 0.9903 0.8475
H40 H 0.3979 0.9516 0.8016
loop_
_geom_bond_atom_site_label_1
_geom_bond_atom_site_label_2
_geom_bond_site_symmetry_1
_geom_bond_site_symmetry_2
N1 H1 1_555 1_555
N2 H2 1_555 1_555
H3 N2 1_555 1_555
O1 C10 1_555 1_555
O2 C12 1_555 1_555
C1 H4 1_555 1_555
C2 C1 1_555 1_555
H5 C2 1_555 1_555
C3 C2 1_555 1_555
H6 C3 1_555 1_555
C4 C3 1_555 1_555
H7 C4 1_555 1_555
C5 C4 1_555 1_555
H8 C5 1_555 1_555
C6 C1 1_555 1_555
C7 C6 1_555 1_555
H9 C7 1_555 1_555
C8 C7 1_555 1_555
H10 C8 1_555 1_555
H11 C8 1_555 1_555
C9 C7 1_555 1_555
H12 C9 1_555 1_555
C10 N1 1_555 1_555
C11 N1 1_555 1_555
H13 C11 1_555 1_555
C12 N2 1_555 1_555
C13 C11 1_555 1_555
H14 C13 1_555 1_555
C14 C13 1_555 1_555
H15 C14 1_555 1_555
H16 C14 1_555 1_555
H17 C14 1_555 1_555
C15 C13 1_555 1_555
H18 C15 1_555 1_555
H19 C15 1_555 1_555
H20 C15 1_555 1_555
N3 H21 1_555 1_555
N4 H22 1_555 1_555
H23 N4 1_555 1_555
O3 C25 1_555 1_555
O4 C27 1_555 1_555
C16 H24 1_555 1_555
C17 C16 1_555 1_555
H25 C17 1_555 1_555
C18 C17 1_555 1_555
H26 C18 1_555 1_555
C19 C18 1_555 1_555
H27 C19 1_555 1_555
C20 C19 1_555 1_555
H28 C20 1_555 1_555
C21 C16 1_555 1_555
C22 C21 1_555 1_555
H29 C22 1_555 1_555
C23 C22 1_555 1_555
H30 C23 1_555 1_555
H31 C23 1_555 1_555
C24 C22 1_555 1_555
H32 C24 1_555 1_555
C25 N3 1_555 1_555
C26 N3 1_555 1_555
H33 C26 1_555 1_555
C27 N4 1_555 1_555
C28 C26 1_555 1_555
H34 C28 1_555 1_555
C29 C28 1_555 1_555
H35 C29 1_555 1_555
H36 C29 1_555 1_555
H37 C29 1_555 1_555
C30 C28 1_555 1_555
H38 C30 1_555 1_555
H39 C30 1_555 1_555
H40 C30 1_555 1_555
C5 C6 1_555 1_555
C8 C9 1_555 1_555
C9 C10 1_555 1_555
C11 C12 1_555 1_555
C20 C21 1_555 1_555
C23 C24 1_555 1_555
C24 C25 1_555 1_555
C26 C27 1_555 1_555

#END
