
#######################################################################
#
#                 Cambridge Crystallographic Data Centre
#                                CCDC 
#
#######################################################################
#
# If this CIF has been generated from an entry in the Cambridge 
# Structural Database, then it will include bibliographic, chemical, 
# crystal, experimental, refinement or atomic coordinate data resulting 
# from the CCDC's data processing and validation procedures.
#
#######################################################################

data_IGUYUG
_chemical_formula_moiety         'C25 H18 Br1 N1 O3'
_chemical_name_systematic        
5-bromo-3-hydroxy-4',6'-diphenyl-3',4'-dihydro-3H-spiro[1-benzofuran-2,2'-pyran]-5'-carbonitrile
_symmetry_cell_setting           triclinic
_symmetry_space_group_name_H-M   'P -1'
_symmetry_Int_Tables_number      2
_space_group_name_Hall           '-P 1'
loop_
_symmetry_equiv_pos_site_id
_symmetry_equiv_pos_as_xyz
1 x,y,z
2 -x,-y,-z
_cell_length_a                   8.9490(8)
_cell_length_b                   10.2348(13)
_cell_length_c                   12.3226(15)
_cell_angle_alpha                92.848(10)
_cell_angle_beta                 91.746(8)
_cell_angle_gamma                112.595(10)
_cell_volume                     1039.22
_exptl_crystal_colour            'light colorless'
_exptl_crystal_description       plate
_cell_formula_units_Z            2
loop_
_atom_site_label
_atom_site_type_symbol
_atom_site_fract_x
_atom_site_fract_y
_atom_site_fract_z
Br1 Br 0.78405(6) 0.82449(5) 0.03460(4)
O1 O 1.4206(2) 1.0810(2) 0.39120(17)
O2 O 1.1918(2) 0.9119(2) 0.4466(2)
O3 O 1.2597(3) 1.2415(3) 0.3305(2)
H1 H 1.247(6) 1.324(6) 0.363(4)
N1 N 1.7977(4) 1.5423(3) 0.5255(3)
C1 C 1.0893(4) 0.8776(4) 0.3530(3)
C2 C 1.0097(4) 0.7427(4) 0.3069(3)
H2 H 1.0177 0.6644 0.3379
C3 C 0.9167(4) 0.7285(4) 0.2117(3)
H3 H 0.8600 0.6389 0.1778
C4 C 0.9072(4) 0.8466(4) 0.1665(3)
C5 C 0.9857(4) 0.9819(4) 0.2170(3)
H4 H 0.9767 1.0607 0.1876
C6 C 1.0762(4) 0.9948(3) 0.3111(3)
C7 C 1.1716(4) 1.1226(3) 0.3875(3)
H5 H 1.0987 1.1450 0.4360
C8 C 1.2799(3) 1.0620(3) 0.4528(3)
C9 C 1.3284(4) 1.1139(3) 0.5692(3)
H6 H 1.3848 1.0598 0.6014
H7 H 1.2323 1.0994 0.6093
C10 C 1.4391(4) 1.2719(3) 0.5780(3)
H8 H 1.3724 1.3253 0.5598
C11 C 1.5655(3) 1.2978(3) 0.4932(3)
C12 C 1.5502(3) 1.2074(3) 0.4064(2)
C13 C 1.5154(4) 1.3246(3) 0.6917(3)
C14 C 1.6101(4) 1.2640(4) 0.7434(3)
H9 H 1.6226 1.1856 0.7100
C15 C 1.6859(5) 1.3191(5) 0.8439(3)
H10 H 1.7499 1.2781 0.8777
C16 C 1.6674(5) 1.4343(5) 0.8945(3)
H11 H 1.7186 1.4708 0.9625
C17 C 1.5750(5) 1.4946(4) 0.8455(3)
H12 H 1.5622 1.5723 0.8800
C18 C 1.4992(4) 1.4405(4) 0.7436(3)
H13 H 1.4368 1.4830 0.7101
C19 C 1.6576(4) 1.2298(3) 0.3153(3)
C20 C 1.8250(4) 1.3011(3) 0.3286(3)
H14 H 1.8738 1.3318 0.3980
C21 C 1.9189(4) 1.3265(4) 0.2390(3)
H15 H 2.0305 1.3759 0.2483
C22 C 1.8488(5) 1.2794(5) 0.1363(3)
H16 H 1.9124 1.2967 0.0762
C23 C 1.6837(5) 1.2064(5) 0.1231(3)
H17 H 1.6360 1.1741 0.0536
C24 C 1.5886(4) 1.1807(4) 0.2109(3)
H18 H 1.4774 1.1301 0.2007
C25 C 1.6987(4) 1.4326(4) 0.5071(3)
loop_
_geom_bond_atom_site_label_1
_geom_bond_atom_site_label_2
_geom_bond_site_symmetry_1
_geom_bond_site_symmetry_2
Br1 C4 1_555 1_555
O1 C8 1_555 1_555
O2 C1 1_555 1_555
O3 H1 1_555 1_555
N1 C25 1_555 1_555
C1 C2 1_555 1_555
C2 H2 1_555 1_555
C3 C2 1_555 1_555
H3 C3 1_555 1_555
C4 C3 1_555 1_555
C5 C4 1_555 1_555
H4 C5 1_555 1_555
C6 C1 1_555 1_555
C7 O3 1_555 1_555
H5 C7 1_555 1_555
C8 O2 1_555 1_555
C9 C8 1_555 1_555
H6 C9 1_555 1_555
H7 C9 1_555 1_555
C10 C9 1_555 1_555
H8 C10 1_555 1_555
C11 C10 1_555 1_555
C12 O1 1_555 1_555
C13 C10 1_555 1_555
C14 C13 1_555 1_555
H9 C14 1_555 1_555
C15 C14 1_555 1_555
H10 C15 1_555 1_555
C16 C15 1_555 1_555
H11 C16 1_555 1_555
C17 C16 1_555 1_555
H12 C17 1_555 1_555
C18 C13 1_555 1_555
H13 C18 1_555 1_555
C19 C12 1_555 1_555
C20 C19 1_555 1_555
H14 C20 1_555 1_555
C21 C20 1_555 1_555
H15 C21 1_555 1_555
C22 C21 1_555 1_555
H16 C22 1_555 1_555
C23 C22 1_555 1_555
H17 C23 1_555 1_555
C24 C19 1_555 1_555
H18 C24 1_555 1_555
C25 C11 1_555 1_555
C5 C6 1_555 1_555
C6 C7 1_555 1_555
C7 C8 1_555 1_555
C11 C12 1_555 1_555
C17 C18 1_555 1_555
C23 C24 1_555 1_555

#END
