
#######################################################################
#
#                 Cambridge Crystallographic Data Centre
#                                CCDC 
#
#######################################################################
#
# If this CIF has been generated from an entry in the Cambridge 
# Structural Database, then it will include bibliographic, chemical, 
# crystal, experimental, refinement or atomic coordinate data resulting 
# from the CCDC's data processing and validation procedures.
#
#######################################################################

data_IHAKUZ
_chemical_formula_moiety         'C54 H72 N4 O4 Si2,2(C4 H8 O1)'
_chemical_name_systematic        
'2,4-bis(1,3-bis(2,6-diisopropylphenyl)-1H-imidazol-3-ium-2-yl)-1,3,2,4-dioxadisiletane-2,4-diolate tetrahydrofuran solvate'
_symmetry_cell_setting           triclinic
_symmetry_space_group_name_H-M   'P -1'
_symmetry_Int_Tables_number      2
_space_group_name_Hall           '-P 1'
loop_
_symmetry_equiv_pos_site_id
_symmetry_equiv_pos_as_xyz
1 x,y,z
2 -x,-y,-z
_cell_length_a                   12.172(5)
_cell_length_b                   12.376(5)
_cell_length_c                   12.778(6)
_cell_angle_alpha                89.908(6)
_cell_angle_beta                 64.477(6)
_cell_angle_gamma                65.198(6)
_cell_volume                     1538.66
_exptl_crystal_colour            yellow
_exptl_crystal_description       plate
_cell_formula_units_Z            1
loop_
_atom_site_label
_atom_site_type_symbol
_atom_site_fract_x
_atom_site_fract_y
_atom_site_fract_z
Si1 Si 0.56535(5) 0.93062(5) 0.91455(5)
O1 O 0.55847(17) 0.85087(17) 0.82791(15)
O2 O 0.4794(3) 1.0811(2) 0.9439(2)
N1 N 0.84931(16) 0.82243(14) 0.88057(15)
N2 N 0.81148(16) 0.96579(15) 0.78627(15)
C1 C 0.75285(18) 0.90339(16) 0.85570(16)
C2 C 0.9685(2) 0.8332(2) 0.8257(2)
H1 H 1.0496 0.7871 0.8289
C3 C 0.9451(2) 0.9225(2) 0.7670(2)
H2 H 1.0070 0.9505 0.7217
C4 C 0.7523(2) 1.05419(19) 0.72582(19)
C5 C 0.7710(2) 1.0092(2) 0.6158(2)
C6 C 0.7205(3) 1.0960(3) 0.5568(3)
H3 H 0.7310 1.0704 0.4832
C7 C 0.6560(4) 1.2179(3) 0.6048(3)
H4 H 0.6248 1.2739 0.5629
C8 C 0.6367(3) 1.2588(2) 0.7143(3)
H5 H 0.5914 1.3423 0.7456
C9 C 0.6835(2) 1.1781(2) 0.7797(2)
C10 C 0.6600(2) 1.2247(2) 0.9004(2)
H6 H 0.6695 1.1576 0.9423
C11 C 0.5157(3) 1.3308(2) 0.9763(3)
H7 H 0.4482 1.3056 0.9850
H8 H 0.5043 1.3987 0.9383
H9 H 0.5043 1.3545 1.0533
C12 C 0.7690(3) 1.2623(4) 0.8883(3)
H10 H 0.8588 1.1951 0.8409
H11 H 0.7573 1.2848 0.9657
H12 H 0.7593 1.3305 0.8507
C13 C 0.8415(3) 0.8747(2) 0.5614(2)
H13 H 0.8591 0.8302 0.6205
C14 C 0.7535(4) 0.8371(3) 0.5315(3)
H14 H 0.6674 0.8602 0.6014
H15 H 0.8001 0.7502 0.5028
H16 H 0.7372 0.8768 0.4713
C15 C 0.9794(4) 0.8362(4) 0.4523(4)
H17 H 1.0351 0.8592 0.4726
H18 H 0.9655 0.8756 0.3911
H19 H 1.0249 0.7493 0.4242
C16 C 0.83746(19) 0.72425(18) 0.94023(18)
C17 C 0.8753(2) 0.61574(19) 0.8702(2)
C18 C 0.8664(3) 0.5220(2) 0.9277(2)
H20 H 0.8918 0.4480 0.8837
C19 C 0.8211(3) 0.5363(2) 1.0475(3)
H21 H 0.8163 0.4721 1.0839
C20 C 0.7826(2) 0.6450(2) 1.1144(2)
H22 H 0.7510 0.6534 1.1959
C21 C 0.7897(2) 0.7427(2) 1.06331(19)
C22 C 0.7519(2) 0.8605(2) 1.1369(2)
H23 H 0.7259 0.9257 1.0954
C23 C 0.6311(3) 0.8957(3) 1.2607(2)
H24 H 0.5530 0.9019 1.2544
H25 H 0.6091 0.9729 1.3014
H26 H 0.6551 0.8346 1.3043
C24 C 0.8781(3) 0.8510(3) 1.1445(3)
H27 H 0.9529 0.8300 1.0658
H28 H 0.9042 0.7890 1.1867
H29 H 0.8561 0.9279 1.1858
C25 C 0.9264(3) 0.5979(2) 0.7368(2)
H30 H 0.9121 0.6774 0.7163
C26 C 1.0813(3) 0.5108(3) 0.6688(3)
H31 H 1.1118 0.5007 0.5849
H32 H 1.0990 0.4330 0.6901
H33 H 1.1299 0.5441 0.6889
C27 C 0.8466(4) 0.5546(3) 0.6993(3)
H34 H 0.7504 0.6113 0.7423
H35 H 0.8608 0.4756 0.7161
H36 H 0.8779 0.5496 0.6156
Si1A Si 0.43465(5) 1.06938(5) 1.08545(5)
O1A O 0.44153(17) 1.14913(17) 1.17209(15)
O2A O 0.5206(3) 0.9189(2) 1.0561(2)
N1A N 0.15069(16) 1.17757(14) 1.11943(15)
N2A N 0.18852(16) 1.03421(15) 1.21373(15)
C1A C 0.24715(18) 1.09661(16) 1.14430(16)
C2A C 0.0315(2) 1.1668(2) 1.1743(2)
H1A H -0.0496 1.2129 1.1711
C3A C 0.0549(2) 1.0775(2) 1.2330(2)
H2A H -0.0070 1.0495 1.2783
C4A C 0.2477(2) 0.94581(19) 1.27418(19)
C5A C 0.2290(2) 0.9908(2) 1.3842(2)
C6A C 0.2795(3) 0.9040(3) 1.4432(3)
H3A H 0.2690 0.9296 1.5168
C7A C 0.3440(4) 0.7821(3) 1.3952(3)
H4A H 0.3752 0.7261 1.4371
C8A C 0.3633(3) 0.7412(2) 1.2857(3)
H5A H 0.4086 0.6577 1.2544
C9A C 0.3165(2) 0.8219(2) 1.2203(2)
C10A C 0.3400(2) 0.7753(2) 1.0996(2)
H6A H 0.3305 0.8424 1.0577
C11A C 0.4843(3) 0.6692(2) 1.0237(3)
H7A H 0.5518 0.6944 1.0150
H8A H 0.4957 0.6013 1.0617
H9A H 0.4957 0.6455 0.9467
C12A C 0.2310(3) 0.7377(4) 1.1117(3)
H10A H 0.1412 0.8049 1.1591
H11A H 0.2427 0.7152 1.0343
H12A H 0.2407 0.6695 1.1493
C13A C 0.1585(3) 1.1253(2) 1.4386(2)
H13A H 0.1409 1.1698 1.3795
C14A C 0.2465(4) 1.1629(3) 1.4685(3)
H14A H 0.3326 1.1398 1.3986
H15A H 0.1999 1.2498 1.4972
H16A H 0.2628 1.1232 1.5287
C15A C 0.0206(4) 1.1638(4) 1.5477(4)
H17A H -0.0351 1.1408 1.5274
H18A H 0.0345 1.1244 1.6089
H19A H -0.0249 1.2507 1.5758
C16A C 0.16254(19) 1.27575(18) 1.05977(18)
C17A C 0.1247(2) 1.38426(19) 1.1298(2)
C18A C 0.1336(3) 1.4780(2) 1.0723(2)
H20A H 0.1082 1.5520 1.1163
C19A C 0.1789(3) 1.4637(2) 0.9525(3)
H21A H 0.1837 1.5279 0.9161
C20A C 0.2174(2) 1.3550(2) 0.8856(2)
H22A H 0.2490 1.3466 0.8041
C21A C 0.2103(2) 1.2573(2) 0.93669(19)
C22A C 0.2481(2) 1.1395(2) 0.8631(2)
H23A H 0.2741 1.0743 0.9046
C23A C 0.3689(3) 1.1043(3) 0.7393(2)
H24A H 0.4470 1.0981 0.7456
H25A H 0.3909 1.0271 0.6986
H26A H 0.3449 1.1654 0.6957
C24A C 0.1219(3) 1.1490(3) 0.8555(3)
H27A H 0.0471 1.1700 0.9342
H28A H 0.0958 1.2110 0.8133
H29A H 0.1439 1.0721 0.8142
C25A C 0.0736(3) 1.4021(2) 1.2632(2)
H30A H 0.0879 1.3226 1.2837
C26A C -0.0813(3) 1.4892(3) 1.3312(3)
H31A H -0.1118 1.4993 1.4151
H32A H -0.0990 1.5670 1.3099
H33A H -0.1299 1.4559 1.3111
C27A C 0.1534(4) 1.4454(3) 1.3007(3)
H34A H 0.2496 1.3887 1.2577
H35A H 0.1392 1.5244 1.2839
H36A H 0.1221 1.4504 1.3844
O3 O 1.2890(3) 0.6911(3) 0.7704(4)
C28 C 1.3300(6) 0.7802(4) 0.7560(6)
H37 H 1.3213 0.8117 0.8301
H38 H 1.2719 0.8469 0.7341
C29 C 1.4725(7) 0.7290(7) 0.6633(5)
H39 H 1.5265 0.7493 0.6899
H40 H 1.4786 0.7593 0.5920
C30 C 1.5197(5) 0.5984(5) 0.6417(6)
H41 H 1.5688 0.5630 0.5572
H42 H 1.5795 0.5585 0.6760
C31 C 1.3954(5) 0.5870(5) 0.6989(6)
H43 H 1.3770 0.5619 0.6390
H44 H 1.4076 0.5243 0.7446
loop_
_geom_bond_atom_site_label_1
_geom_bond_atom_site_label_2
_geom_bond_site_symmetry_1
_geom_bond_site_symmetry_2
Si1 O1 1_555 1_555
O2 Si1 1_555 1_555
N1 C1 1_555 1_555
N2 C1 1_555 1_555
C1 Si1 1_555 1_555
C2 N1 1_555 1_555
H1 C2 1_555 1_555
C3 N2 1_555 1_555
H2 C3 1_555 1_555
C4 N2 1_555 1_555
C5 C4 1_555 1_555
C6 C5 1_555 1_555
H3 C6 1_555 1_555
C7 C6 1_555 1_555
H4 C7 1_555 1_555
C8 C7 1_555 1_555
H5 C8 1_555 1_555
C9 C4 1_555 1_555
C10 C9 1_555 1_555
H6 C10 1_555 1_555
C11 C10 1_555 1_555
H7 C11 1_555 1_555
H8 C11 1_555 1_555
H9 C11 1_555 1_555
C12 C10 1_555 1_555
H10 C12 1_555 1_555
H11 C12 1_555 1_555
H12 C12 1_555 1_555
C13 C5 1_555 1_555
H13 C13 1_555 1_555
C14 C13 1_555 1_555
H14 C14 1_555 1_555
H15 C14 1_555 1_555
H16 C14 1_555 1_555
C15 C13 1_555 1_555
H17 C15 1_555 1_555
H18 C15 1_555 1_555
H19 C15 1_555 1_555
C16 N1 1_555 1_555
C17 C16 1_555 1_555
C18 C17 1_555 1_555
H20 C18 1_555 1_555
C19 C18 1_555 1_555
H21 C19 1_555 1_555
C20 C19 1_555 1_555
H22 C20 1_555 1_555
C21 C16 1_555 1_555
C22 C21 1_555 1_555
H23 C22 1_555 1_555
C23 C22 1_555 1_555
H24 C23 1_555 1_555
H25 C23 1_555 1_555
H26 C23 1_555 1_555
C24 C22 1_555 1_555
H27 C24 1_555 1_555
H28 C24 1_555 1_555
H29 C24 1_555 1_555
C25 C17 1_555 1_555
H30 C25 1_555 1_555
C26 C25 1_555 1_555
H31 C26 1_555 1_555
H32 C26 1_555 1_555
H33 C26 1_555 1_555
C27 C25 1_555 1_555
H34 C27 1_555 1_555
H35 C27 1_555 1_555
H36 C27 1_555 1_555
O3 C28 1_555 1_555
C28 H37 1_555 1_555
H38 C28 1_555 1_555
C29 C28 1_555 1_555
H39 C29 1_555 1_555
H40 C29 1_555 1_555
C30 C29 1_555 1_555
H41 C30 1_555 1_555
H42 C30 1_555 1_555
C31 O3 1_555 1_555
H43 C31 1_555 1_555
H44 C31 1_555 1_555
Si1A O2 1_555 1_555
O1A Si1A 1_555 1_555
O2A Si1 1_555 1_555
N1A C1A 1_555 1_555
N2A C1A 1_555 1_555
C1A Si1A 1_555 1_555
C2A N1A 1_555 1_555
H1A C2A 1_555 1_555
C3A N2A 1_555 1_555
H2A C3A 1_555 1_555
C4A N2A 1_555 1_555
C5A C4A 1_555 1_555
C6A C5A 1_555 1_555
H3A C6A 1_555 1_555
C7A C6A 1_555 1_555
H4A C7A 1_555 1_555
C8A C7A 1_555 1_555
H5A C8A 1_555 1_555
C9A C4A 1_555 1_555
C10A C9A 1_555 1_555
H6A C10A 1_555 1_555
C11A C10A 1_555 1_555
H7A C11A 1_555 1_555
H8A C11A 1_555 1_555
H9A C11A 1_555 1_555
C12A C10A 1_555 1_555
H10A C12A 1_555 1_555
H11A C12A 1_555 1_555
H12A C12A 1_555 1_555
C13A C5A 1_555 1_555
H13A C13A 1_555 1_555
C14A C13A 1_555 1_555
H14A C14A 1_555 1_555
H15A C14A 1_555 1_555
H16A C14A 1_555 1_555
C15A C13A 1_555 1_555
H17A C15A 1_555 1_555
H18A C15A 1_555 1_555
H19A C15A 1_555 1_555
C16A N1A 1_555 1_555
C17A C16A 1_555 1_555
C18A C17A 1_555 1_555
H20A C18A 1_555 1_555
C19A C18A 1_555 1_555
H21A C19A 1_555 1_555
C20A C19A 1_555 1_555
H22A C20A 1_555 1_555
C21A C16A 1_555 1_555
C22A C21A 1_555 1_555
H23A C22A 1_555 1_555
C23A C22A 1_555 1_555
H24A C23A 1_555 1_555
H25A C23A 1_555 1_555
H26A C23A 1_555 1_555
C24A C22A 1_555 1_555
H27A C24A 1_555 1_555
H28A C24A 1_555 1_555
H29A C24A 1_555 1_555
C25A C17A 1_555 1_555
H30A C25A 1_555 1_555
C26A C25A 1_555 1_555
H31A C26A 1_555 1_555
H32A C26A 1_555 1_555
H33A C26A 1_555 1_555
C27A C25A 1_555 1_555
H34A C27A 1_555 1_555
H35A C27A 1_555 1_555
H36A C27A 1_555 1_555
C2 C3 1_555 1_555
C8 C9 1_555 1_555
C20 C21 1_555 1_555
C30 C31 1_555 1_555
Si1A O2A 1_555 1_555
C2A C3A 1_555 1_555
C8A C9A 1_555 1_555
C20A C21A 1_555 1_555

#END
