
#######################################################################
#
#                 Cambridge Crystallographic Data Centre
#                                CCDC 
#
#######################################################################
#
# If this CIF has been generated from an entry in the Cambridge 
# Structural Database, then it will include bibliographic, chemical, 
# crystal, experimental, refinement or atomic coordinate data resulting 
# from the CCDC's data processing and validation procedures.
#
#######################################################################

data_IHALAG01
_chemical_formula_moiety         'C54 H72 N4 O4 Si2'
_chemical_name_systematic        
2,4-bis(1,3-bis(2,6-diisopropylphenyl)-1H-imidazol-3-ium-2-yl)-1,3,2,4-dioxadisiletane-2,4-diolate
_symmetry_cell_setting           monoclinic
_symmetry_space_group_name_H-M   'P 21/n'
_symmetry_Int_Tables_number      14
_space_group_name_Hall           '-P 2yn'
loop_
_symmetry_equiv_pos_site_id
_symmetry_equiv_pos_as_xyz
1 x,y,z
2 1/2-x,1/2+y,1/2-z
3 -x,-y,-z
4 1/2+x,1/2-y,1/2+z
_cell_length_a                   12.4902(12)
_cell_length_b                   14.8447(15)
_cell_length_c                   14.6364(14)
_cell_angle_alpha                90
_cell_angle_beta                 106.9419(15)
_cell_angle_gamma                90
_cell_volume                     2596.01
_exptl_crystal_colour            colorless
_exptl_crystal_description       plate
_cell_formula_units_Z            2
loop_
_atom_site_label
_atom_site_type_symbol
_atom_site_fract_x
_atom_site_fract_y
_atom_site_fract_z
Si1 Si 0.51751(4) 0.07926(3) 0.01102(3)
O1 O 0.58155(12) 0.14703(9) 0.08536(9)
O2 O 0.57814(10) -0.00743(8) -0.02808(9)
N1 N 0.33458(11) 0.17121(9) -0.13540(10)
N2 N 0.48448(11) 0.15980(10) -0.17786(10)
C1 C 0.44084(13) 0.13979(11) -0.10617(12)
C2 C 0.31273(16) 0.21086(13) -0.22430(13)
H1 H 0.2459 0.2375 -0.2592
C3 C 0.40630(16) 0.20348(14) -0.25045(13)
H2 H 0.4167 0.2241 -0.3073
C4 C 0.60111(14) 0.14796(13) -0.17494(12)
C5 C 0.63133(17) 0.07239(15) -0.21739(14)
C6 C 0.74340(19) 0.06756(18) -0.21648(17)
H3 H 0.7676 0.0180 -0.2439
C7 C 0.81832(19) 0.13394(19) -0.17630(18)
H4 H 0.8920 0.1295 -0.1778
C8 C 0.78563(17) 0.20671(16) -0.13396(16)
H5 H 0.8379 0.2509 -0.1064
C9 C 0.67576(15) 0.21610(13) -0.13123(13)
C10 C 0.64199(17) 0.29753(14) -0.08442(15)
H6 H 0.5675 0.2855 -0.0777
C11 C 0.7194(3) 0.31616(17) 0.01420(18)
H7 H 0.7240 0.2636 0.0534
H8 H 0.6908 0.3658 0.0421
H9 H 0.7925 0.3309 0.0097
C12 C 0.6323(3) 0.38036(18) -0.1474(2)
H10 H 0.5824 0.3678 -0.2097
H11 H 0.7048 0.3957 -0.1530
H12 H 0.6036 0.4298 -0.1195
C13 C 0.5494(2) -0.00002(17) -0.26612(18)
H13 H 0.4803 0.0089 -0.2484
C14 C 0.5924(3) -0.09493(18) -0.2353(2)
H14 H 0.6070 -0.1008 -0.1675
H15 H 0.6601 -0.1054 -0.2521
H16 H 0.5369 -0.1383 -0.2671
C15 C 0.5214(3) 0.0111(2) -0.3745(2)
H17 H 0.4689 -0.0345 -0.4056
H18 H 0.5886 0.0052 -0.3934
H19 H 0.4893 0.0695 -0.3926
C16 C 0.25997(14) 0.17530(12) -0.07544(13)
C17 C 0.18930(15) 0.10246(13) -0.07562(13)
C18 C 0.11940(18) 0.11127(17) -0.01751(17)
H20 H 0.0707 0.0645 -0.0150
C19 C 0.1205(2) 0.1871(2) 0.0360(2)
H21 H 0.0725 0.1911 0.0739
C20 C 0.1913(2) 0.25698(18) 0.03468(19)
H22 H 0.1910 0.3078 0.0718
C21 C 0.26379(16) 0.25281(14) -0.02174(15)
C22 C 0.34200(19) 0.33069(15) -0.02253(18)
H23 H 0.3860 0.3142 -0.0656
C23 C 0.4238(2) 0.3465(2) 0.0756(2)
H24 H 0.4633 0.2917 0.0984
H25 H 0.3836 0.3655 0.1190
H26 H 0.4763 0.3924 0.0714
C24 C 0.2779(3) 0.41658(18) -0.0616(2)
H27 H 0.2276 0.4050 -0.1239
H28 H 0.3298 0.4629 -0.0659
H29 H 0.2360 0.4358 -0.0196
C25 C 0.18729(16) 0.01971(13) -0.13593(14)
H30 H 0.2631 0.0114 -0.1412
C26 C 0.1561(2) -0.06601(16) -0.0927(2)
H31 H 0.2061 -0.0743 -0.0296
H32 H 0.1618 -0.1166 -0.1319
H33 H 0.0807 -0.0612 -0.0894
C27 C 0.1099(2) 0.03425(19) -0.23666(17)
H34 H 0.1309 0.0885 -0.2627
H35 H 0.0341 0.0393 -0.2345
H36 H 0.1161 -0.0160 -0.2762
Si1B Si 0.48249(4) -0.07926(3) -0.01102(3)
O1B O 0.41845(12) -0.14703(9) -0.08536(9)
O2B O 0.42186(10) 0.00743(8) 0.02808(9)
N1B N 0.66542(11) -0.17121(9) 0.13540(10)
N2B N 0.51552(11) -0.15980(10) 0.17786(10)
C1B C 0.55916(13) -0.13979(11) 0.10617(12)
C2B C 0.68727(16) -0.21086(13) 0.22430(13)
H1B H 0.7541 -0.2375 0.2592
C3B C 0.59370(16) -0.20348(14) 0.25045(13)
H2B H 0.5833 -0.2241 0.3073
C4B C 0.39889(14) -0.14796(13) 0.17494(12)
C5B C 0.36867(17) -0.07239(15) 0.21739(14)
C6B C 0.25660(19) -0.06756(18) 0.21648(17)
H3B H 0.2324 -0.0180 0.2439
C7B C 0.18168(19) -0.13394(19) 0.17630(18)
H4B H 0.1080 -0.1295 0.1778
C8B C 0.21437(17) -0.20671(16) 0.13396(16)
H5B H 0.1621 -0.2509 0.1064
C9B C 0.32424(15) -0.21610(13) 0.13123(13)
C10B C 0.35801(17) -0.29753(14) 0.08442(15)
H6B H 0.4325 -0.2855 0.0777
C11B C 0.2806(3) -0.31616(17) -0.01420(18)
H7B H 0.2760 -0.2636 -0.0534
H8B H 0.3092 -0.3658 -0.0421
H9B H 0.2075 -0.3309 -0.0097
C12B C 0.3677(3) -0.38036(18) 0.1474(2)
H10B H 0.4176 -0.3678 0.2097
H11B H 0.2952 -0.3957 0.1530
H12B H 0.3964 -0.4298 0.1195
C13B C 0.4506(2) 0.00002(17) 0.26612(18)
H13B H 0.5197 -0.0089 0.2484
C14B C 0.4076(3) 0.09493(18) 0.2353(2)
H14B H 0.3930 0.1008 0.1675
H15B H 0.3399 0.1054 0.2521
H16B H 0.4631 0.1383 0.2671
C15B C 0.4786(3) -0.0111(2) 0.3745(2)
H17B H 0.5311 0.0345 0.4056
H18B H 0.4114 -0.0052 0.3934
H19B H 0.5107 -0.0695 0.3926
C16B C 0.74003(14) -0.17530(12) 0.07544(13)
C17B C 0.81070(15) -0.10246(13) 0.07562(13)
C18B C 0.88060(18) -0.11127(17) 0.01751(17)
H20B H 0.9293 -0.0645 0.0150
C19B C 0.8795(2) -0.1871(2) -0.0360(2)
H21B H 0.9275 -0.1911 -0.0739
C20B C 0.8087(2) -0.25698(18) -0.03468(19)
H22B H 0.8090 -0.3078 -0.0718
C21B C 0.73621(16) -0.25281(14) 0.02174(15)
C22B C 0.65800(19) -0.33069(15) 0.02253(18)
H23B H 0.6140 -0.3142 0.0656
C23B C 0.5762(2) -0.3465(2) -0.0756(2)
H24B H 0.5367 -0.2917 -0.0984
H25B H 0.6164 -0.3655 -0.1190
H26B H 0.5237 -0.3924 -0.0714
C24B C 0.7221(3) -0.41658(18) 0.0616(2)
H27B H 0.7724 -0.4050 0.1239
H28B H 0.6702 -0.4629 0.0659
H29B H 0.7640 -0.4358 0.0196
C25B C 0.81271(16) -0.01971(13) 0.13593(14)
H30B H 0.7369 -0.0114 0.1412
C26B C 0.8439(2) 0.06601(16) 0.0927(2)
H31B H 0.7939 0.0743 0.0296
H32B H 0.8382 0.1166 0.1319
H33B H 0.9193 0.0612 0.0894
C27B C 0.8901(2) -0.03425(19) 0.23666(17)
H34B H 0.8691 -0.0885 0.2627
H35B H 0.9659 -0.0393 0.2345
H36B H 0.8839 0.0160 0.2762
loop_
_geom_bond_atom_site_label_1
_geom_bond_atom_site_label_2
_geom_bond_site_symmetry_1
_geom_bond_site_symmetry_2
Si1 O1 1_555 1_555
O2 Si1 1_555 1_555
N1 C1 1_555 1_555
N2 C1 1_555 1_555
C1 Si1 1_555 1_555
C2 N1 1_555 1_555
H1 C2 1_555 1_555
C3 N2 1_555 1_555
H2 C3 1_555 1_555
C4 N2 1_555 1_555
C5 C4 1_555 1_555
C6 C5 1_555 1_555
H3 C6 1_555 1_555
C7 C6 1_555 1_555
H4 C7 1_555 1_555
C8 C7 1_555 1_555
H5 C8 1_555 1_555
C9 C4 1_555 1_555
C10 C9 1_555 1_555
H6 C10 1_555 1_555
C11 C10 1_555 1_555
H7 C11 1_555 1_555
H8 C11 1_555 1_555
H9 C11 1_555 1_555
C12 C10 1_555 1_555
H10 C12 1_555 1_555
H11 C12 1_555 1_555
H12 C12 1_555 1_555
C13 C5 1_555 1_555
H13 C13 1_555 1_555
C14 C13 1_555 1_555
H14 C14 1_555 1_555
H15 C14 1_555 1_555
H16 C14 1_555 1_555
C15 C13 1_555 1_555
H17 C15 1_555 1_555
H18 C15 1_555 1_555
H19 C15 1_555 1_555
C16 N1 1_555 1_555
C17 C16 1_555 1_555
C18 C17 1_555 1_555
H20 C18 1_555 1_555
C19 C18 1_555 1_555
H21 C19 1_555 1_555
C20 C19 1_555 1_555
H22 C20 1_555 1_555
C21 C16 1_555 1_555
C22 C21 1_555 1_555
H23 C22 1_555 1_555
C23 C22 1_555 1_555
H24 C23 1_555 1_555
H25 C23 1_555 1_555
H26 C23 1_555 1_555
C24 C22 1_555 1_555
H27 C24 1_555 1_555
H28 C24 1_555 1_555
H29 C24 1_555 1_555
C25 C17 1_555 1_555
H30 C25 1_555 1_555
C26 C25 1_555 1_555
H31 C26 1_555 1_555
H32 C26 1_555 1_555
H33 C26 1_555 1_555
C27 C25 1_555 1_555
H34 C27 1_555 1_555
H35 C27 1_555 1_555
H36 C27 1_555 1_555
Si1B O2 1_555 1_555
O1B Si1B 1_555 1_555
O2B Si1 1_555 1_555
N1B C1B 1_555 1_555
N2B C1B 1_555 1_555
C1B Si1B 1_555 1_555
C2B N1B 1_555 1_555
H1B C2B 1_555 1_555
C3B N2B 1_555 1_555
H2B C3B 1_555 1_555
C4B N2B 1_555 1_555
C5B C4B 1_555 1_555
C6B C5B 1_555 1_555
H3B C6B 1_555 1_555
C7B C6B 1_555 1_555
H4B C7B 1_555 1_555
C8B C7B 1_555 1_555
H5B C8B 1_555 1_555
C9B C4B 1_555 1_555
C10B C9B 1_555 1_555
H6B C10B 1_555 1_555
C11B C10B 1_555 1_555
H7B C11B 1_555 1_555
H8B C11B 1_555 1_555
H9B C11B 1_555 1_555
C12B C10B 1_555 1_555
H10B C12B 1_555 1_555
H11B C12B 1_555 1_555
H12B C12B 1_555 1_555
C13B C5B 1_555 1_555
H13B C13B 1_555 1_555
C14B C13B 1_555 1_555
H14B C14B 1_555 1_555
H15B C14B 1_555 1_555
H16B C14B 1_555 1_555
C15B C13B 1_555 1_555
H17B C15B 1_555 1_555
H18B C15B 1_555 1_555
H19B C15B 1_555 1_555
C16B N1B 1_555 1_555
C17B C16B 1_555 1_555
C18B C17B 1_555 1_555
H20B C18B 1_555 1_555
C19B C18B 1_555 1_555
H21B C19B 1_555 1_555
C20B C19B 1_555 1_555
H22B C20B 1_555 1_555
C21B C16B 1_555 1_555
C22B C21B 1_555 1_555
H23B C22B 1_555 1_555
C23B C22B 1_555 1_555
H24B C23B 1_555 1_555
H25B C23B 1_555 1_555
H26B C23B 1_555 1_555
C24B C22B 1_555 1_555
H27B C24B 1_555 1_555
H28B C24B 1_555 1_555
H29B C24B 1_555 1_555
C25B C17B 1_555 1_555
H30B C25B 1_555 1_555
C26B C25B 1_555 1_555
H31B C26B 1_555 1_555
H32B C26B 1_555 1_555
H33B C26B 1_555 1_555
C27B C25B 1_555 1_555
H34B C27B 1_555 1_555
H35B C27B 1_555 1_555
H36B C27B 1_555 1_555
C2 C3 1_555 1_555
C8 C9 1_555 1_555
C20 C21 1_555 1_555
Si1B O2B 1_555 1_555
C2B C3B 1_555 1_555
C8B C9B 1_555 1_555
C20B C21B 1_555 1_555

#END
