
#######################################################################
#
#                 Cambridge Crystallographic Data Centre
#                                CCDC 
#
#######################################################################
#
# If this CIF has been generated from an entry in the Cambridge 
# Structural Database, then it will include bibliographic, chemical, 
# crystal, experimental, refinement or atomic coordinate data resulting 
# from the CCDC's data processing and validation procedures.
#
#######################################################################

data_IHANIQ
_chemical_formula_moiety         'C37 H32 N3 P1 S1'
_chemical_name_systematic        
'anti-N-(1-cyano-1-(9H-fluoren-9-ylideneamino)-2-methyl-4-phenylbutan-2-yl)-P,P-diphenylphosphinothioic amide'
_symmetry_cell_setting           orthorhombic
_symmetry_space_group_name_H-M   'P 21 21 21'
_symmetry_Int_Tables_number      19
_space_group_name_Hall           'P 2ac 2ab'
loop_
_symmetry_equiv_pos_site_id
_symmetry_equiv_pos_as_xyz
1 x,y,z
2 1/2+x,1/2-y,-z
3 -x,1/2+y,1/2-z
4 1/2-x,-y,1/2+z
_cell_length_a                   11.9949(2)
_cell_length_b                   13.4963(3)
_cell_length_c                   19.0237(4)
_cell_angle_alpha                90
_cell_angle_beta                 90
_cell_angle_gamma                90
_cell_volume                     3079.69
_exptl_crystal_colour            colorless
_exptl_crystal_description       platelet
_cell_formula_units_Z            4
loop_
_atom_site_label
_atom_site_type_symbol
_atom_site_fract_x
_atom_site_fract_y
_atom_site_fract_z
S1 S 0.47322(5) 0.74590(4) 0.71951(3)
P1 P 0.52475(5) 0.61332(4) 0.74591(3)
N1 N 0.21785(17) 0.58136(15) 0.76446(10)
N2 N 0.44118(15) 0.54525(14) 0.79675(10)
N3 N 0.12919(18) 0.69857(17) 0.91578(11)
C1 C 0.3460(2) 0.33898(18) 0.96713(12)
C2 C 0.3779(2) 0.24115(19) 0.95836(13)
C3 C 0.4008(2) 0.42047(18) 0.92460(13)
C4 C 0.36762(18) 0.58084(17) 0.85337(12)
C5 C 0.1015(2) 0.72101(19) 0.71085(13)
C6 C 0.6492(2) 0.4219(2) 0.59815(15)
C7 C 0.7356(2) 0.69170(19) 0.76895(13)
C8 C 0.14825(19) 0.61935(19) 0.72096(13)
C9 C 0.2172(2) 0.2856(2) 1.05751(13)
C10 C 0.65831(18) 0.62002(17) 0.78984(12)
C11 C 0.4304(2) 0.64863(17) 0.90376(12)
C12 C 0.8618(2) 0.6367(2) 0.85878(14)
C13 C 0.2526(2) 0.18910(19) 1.04969(13)
C14 C 0.4462(2) 0.50572(19) 0.63304(13)
C15 C 0.5550(3) 0.39954(19) 0.55905(13)
C16 C 0.27039(19) 0.64178(18) 0.81863(13)
C17 C 0.6845(2) 0.55621(19) 0.84491(14)
C18 C 0.0912(2) 0.5559(2) 0.66858(13)
C19 C 0.8380(2) 0.6986(2) 0.80268(14)
C20 C 0.0174(2) 0.7145(2) 0.65921(12)
C21 C 0.1278(2) 0.8118(2) 0.74080(14)
C22 C 0.3174(2) 0.48952(18) 0.89000(13)
C23 C 0.0692(2) 0.8958(2) 0.71929(15)
C24 C 0.5405(2) 0.52895(17) 0.67234(11)
C25 C 0.2650(2) 0.36012(19) 1.01695(14)
C26 C 0.1900(2) 0.67386(18) 0.87284(13)
C27 C 0.6423(2) 0.48644(19) 0.65455(14)
C28 C -0.0626(2) 0.5666(3) 0.58684(13)
C29 C 0.0377(3) 0.4123(2) 0.60410(14)
C30 C 0.1076(2) 0.4569(2) 0.65347(13)
C31 C 0.0092(2) 0.6118(2) 0.63489(13)
C32 C 0.7859(2) 0.5659(2) 0.87957(15)
C33 C 0.4533(3) 0.44093(19) 0.57693(14)
C34 C -0.0409(2) 0.7984(2) 0.63846(14)
C35 C 0.3328(3) 0.16736(19) 0.99991(14)
C36 C -0.0466(2) 0.4664(3) 0.57256(14)
C37 C -0.0146(3) 0.8883(2) 0.66896(15)
H1 H 0.44103 0.481 0.78886
H2 H 0.43124 0.22461 0.92339
H3 H 0.44803 0.39006 0.88778
H4 H 0.44993 0.45962 0.95584
H5 H 0.71873 0.39281 0.5862
H6 H 0.71804 0.73577 0.73162
H7 H 0.16037 0.30112 1.09048
H8 H 0.3797 0.67124 0.94085
H9 H 0.49262 0.61222 0.9249
H10 H 0.45918 0.70602 0.87795
H11 H 0.93069 0.64304 0.88299
H12 H 0.22221 0.13805 1.07823
H13 H 0.37644 0.5346 0.64486
H14 H 0.56025 0.35587 0.52002
H15 H 0.30288 0.70204 0.79591
H16 H 0.63322 0.50622 0.85874
H17 H 0.89155 0.74568 0.78731
H18 H 0.18467 0.81663 0.77537
H19 H 0.2642 0.51262 0.92628
H20 H 0.2744 0.45124 0.85483
H21 H 0.08665 0.95854 0.7391
H22 H 0.24171 0.42676 1.02351
H23 H 0.70715 0.5017 0.6811
H24 H -0.12052 0.60296 0.56462
H25 H 0.04801 0.34454 0.59212
H26 H 0.16489 0.42018 0.67606
H27 H 0.80295 0.52343 0.9179
H28 H 0.38838 0.42483 0.55067
H29 H -0.09786 0.794 0.60389
H30 H 0.35733 0.10091 0.99419
H31 H -0.09488 0.43429 0.54022
H32 H -0.0545 0.94598 0.65535
loop_
_geom_bond_atom_site_label_1
_geom_bond_atom_site_label_2
_geom_bond_site_symmetry_1
_geom_bond_site_symmetry_2
S1 P1 1_555 1_555
P1 N2 1_555 1_555
N1 C8 1_555 1_555
N2 C4 1_555 1_555
N3 C26 1_555 1_555
C1 C2 1_555 1_555
C2 C35 1_555 1_555
C3 C1 1_555 1_555
C4 C11 1_555 1_555
C5 C8 1_555 1_555
C6 C15 1_555 1_555
C7 C10 1_555 1_555
C8 C18 1_555 1_555
C9 C13 1_555 1_555
C10 P1 1_555 1_555
C11 H8 1_555 1_555
C12 C19 1_555 1_555
C13 C35 1_555 1_555
C14 C24 1_555 1_555
C15 C33 1_555 1_555
C16 N1 1_555 1_555
C17 C10 1_555 1_555
C18 C30 1_555 1_555
C19 C7 1_555 1_555
C20 C5 1_555 1_555
C21 C5 1_555 1_555
C22 C3 1_555 1_555
C23 C21 1_555 1_555
C24 P1 1_555 1_555
C25 C1 1_555 1_555
C26 C16 1_555 1_555
C27 C6 1_555 1_555
C28 C31 1_555 1_555
C29 C30 1_555 1_555
C30 H26 1_555 1_555
C31 C18 1_555 1_555
C32 C12 1_555 1_555
C33 C14 1_555 1_555
C34 C20 1_555 1_555
C35 H30 1_555 1_555
C36 C28 1_555 1_555
C37 C23 1_555 1_555
H1 N2 1_555 1_555
H2 C2 1_555 1_555
H3 C3 1_555 1_555
H4 C3 1_555 1_555
H5 C6 1_555 1_555
H6 C7 1_555 1_555
H7 C9 1_555 1_555
H9 C11 1_555 1_555
H10 C11 1_555 1_555
H11 C12 1_555 1_555
H12 C13 1_555 1_555
H13 C14 1_555 1_555
H14 C15 1_555 1_555
H15 C16 1_555 1_555
H16 C17 1_555 1_555
H17 C19 1_555 1_555
H18 C21 1_555 1_555
H19 C22 1_555 1_555
H20 C22 1_555 1_555
H21 C23 1_555 1_555
H22 C25 1_555 1_555
H23 C27 1_555 1_555
H24 C28 1_555 1_555
H25 C29 1_555 1_555
H27 C32 1_555 1_555
H28 C33 1_555 1_555
H29 C34 1_555 1_555
H31 C36 1_555 1_555
H32 C37 1_555 1_555
C4 C16 1_555 1_555
C4 C22 1_555 1_555
C9 C25 1_555 1_555
C17 C32 1_555 1_555
C20 C31 1_555 1_555
C24 C27 1_555 1_555
C29 C36 1_555 1_555
C34 C37 1_555 1_555

#END
