
#######################################################################
#
#                 Cambridge Crystallographic Data Centre
#                                CCDC 
#
#######################################################################
#
# If this CIF has been generated from an entry in the Cambridge 
# Structural Database, then it will include bibliographic, chemical, 
# crystal, experimental, refinement or atomic coordinate data resulting 
# from the CCDC's data processing and validation procedures.
#
#######################################################################

data_IHAPEO01
_chemical_formula_moiety         'C44 H36'
_chemical_name_systematic        
9,10-bis(bis(4-methylphenyl)methylene)-9,10-dihydroanthracene
_symmetry_cell_setting           triclinic
_symmetry_space_group_name_H-M   'P -1'
_symmetry_Int_Tables_number      2
_space_group_name_Hall           '-P 1'
loop_
_symmetry_equiv_pos_site_id
_symmetry_equiv_pos_as_xyz
1 x,y,z
2 -x,-y,-z
_cell_length_a                   10.4299(16)
_cell_length_b                   11.9506(18)
_cell_length_c                   13.855(2)
_cell_angle_alpha                99.954(3)
_cell_angle_beta                 101.968(3)
_cell_angle_gamma                107.734(3)
_cell_volume                     1556.64
_exptl_crystal_colour            colorless
_exptl_crystal_description       block
_cell_formula_units_Z            2
loop_
_atom_site_label
_atom_site_type_symbol
_atom_site_fract_x
_atom_site_fract_y
_atom_site_fract_z
C1 C -0.19693(17) 0.56691(15) 0.57695(13)
H1 H -0.1962 0.6357 0.6275
H2 H -0.1565 0.5158 0.6120
H3 H -0.2936 0.5189 0.5366
C2 C -0.11129(15) 0.61372(12) 0.50718(11)
C3 C 0.03499(15) 0.65818(13) 0.54023(11)
H4 H 0.0808 0.6553 0.6061
C4 C 0.11465(14) 0.70647(12) 0.47860(11)
H5 H 0.2139 0.7371 0.5033
C5 C 0.05096(14) 0.71071(11) 0.38052(10)
C6 C -0.09513(14) 0.66637(12) 0.34732(11)
H6 H -0.1410 0.6697 0.2816
C7 C -0.17463(14) 0.61713(13) 0.40937(11)
H7 H -0.2739 0.5853 0.3844
C8 C 0.13635(13) 0.77422(12) 0.31863(10)
C9 C 0.21690(14) 0.90572(11) 0.36956(10)
C10 C 0.15796(15) 0.98070(12) 0.41927(10)
H8 H 0.0628 0.9486 0.4195
C11 C 0.23716(16) 1.10213(13) 0.46853(11)
H9 H 0.1945 1.1520 0.5007
C12 C 0.37805(16) 1.15157(13) 0.47137(11)
C13 C 0.43694(15) 1.07599(13) 0.42317(11)
H10 H 0.5328 1.1076 0.4244
C14 C 0.35849(14) 0.95554(13) 0.37345(10)
H11 H 0.4016 0.9060 0.3415
C15 C 0.46764(19) 1.28141(14) 0.52782(13)
H12 H 0.5559 1.2834 0.5710
H13 H 0.4177 1.3155 0.5705
H14 H 0.4874 1.3295 0.4786
C16 C 0.14847(13) 0.72256(11) 0.22693(10)
C17 C 0.11122(13) 0.59068(11) 0.17879(9)
C18 C -0.00950(14) 0.49694(12) 0.17785(10)
H15 H -0.0733 0.5153 0.2122
C19 C -0.03690(14) 0.37727(12) 0.12712(11)
H16 H -0.1178 0.3146 0.1288
C20 C 0.05330(14) 0.34890(12) 0.07401(10)
H17 H 0.0328 0.2676 0.0377
C21 C 0.20580(13) 0.56013(11) 0.12842(9)
C22 C 0.33802(13) 0.65913(11) 0.13370(9)
C23 C 0.31080(13) 0.77065(11) 0.11772(9)
C24 C 0.21407(13) 0.80054(11) 0.16414(10)
C25 C 0.17526(14) 0.89940(12) 0.14735(10)
H18 H 0.1089 0.9190 0.1781
C26 C 0.23302(15) 0.96881(13) 0.08609(11)
H19 H 0.2068 1.0361 0.0754
C27 C 0.32969(15) 0.93973(13) 0.04010(11)
H20 H 0.3690 0.9871 -0.0021
C28 C 0.36859(14) 0.84162(12) 0.05586(10)
H21 H 0.4347 0.8224 0.0246
C29 C 0.46719(14) 0.65087(11) 0.15566(10)
C30 C 0.49511(13) 0.54002(12) 0.17677(10)
C31 C 0.43461(14) 0.47684(12) 0.24235(10)
H22 H 0.3740 0.5044 0.2747
C32 C 0.46227(14) 0.37473(12) 0.26036(10)
H23 H 0.4195 0.3333 0.3045
C33 C 0.55179(14) 0.33123(12) 0.21500(10)
C34 C 0.61261(14) 0.39458(12) 0.15091(10)
H24 H 0.6739 0.3673 0.1191
C35 C 0.58539(14) 0.49730(12) 0.13245(10)
H25 H 0.6292 0.5391 0.0888
C36 C 0.58470(17) 0.22193(14) 0.23706(12)
H26 H 0.6248 0.1909 0.1850
H27 H 0.4984 0.1585 0.2361
H28 H 0.6522 0.2455 0.3044
C37 C 0.59600(13) 0.75962(12) 0.17007(10)
C38 C 0.64320(14) 0.85266(12) 0.25982(11)
H29 H 0.5947 0.8448 0.3107
C39 C 0.75952(15) 0.95638(13) 0.27606(11)
H30 H 0.7885 1.0185 0.3374
C40 C 0.83440(14) 0.97070(12) 0.20365(11)
C41 C 0.79048(14) 0.87643(13) 0.11576(11)
H31 H 0.8420 0.8828 0.0666
C42 C 0.67264(14) 0.77300(12) 0.09828(10)
H32 H 0.6440 0.7109 0.0370
C43 C 0.95737(16) 1.08612(13) 0.21942(13)
H33 H 1.0397 1.0847 0.2677
H34 H 0.9342 1.1565 0.2467
H35 H 0.9776 1.0917 0.1541
C44 C 0.17324(14) 0.44026(12) 0.07460(10)
H36 H 0.2344 0.4211 0.0378
loop_
_geom_bond_atom_site_label_1
_geom_bond_atom_site_label_2
_geom_bond_site_symmetry_1
_geom_bond_site_symmetry_2
C1 H1 1_555 1_555
H2 C1 1_555 1_555
H3 C1 1_555 1_555
C2 C1 1_555 1_555
C3 C2 1_555 1_555
H4 C3 1_555 1_555
C4 C3 1_555 1_555
H5 C4 1_555 1_555
C5 C4 1_555 1_555
C6 C5 1_555 1_555
H6 C6 1_555 1_555
C7 C2 1_555 1_555
H7 C7 1_555 1_555
C8 C5 1_555 1_555
C9 C8 1_555 1_555
C10 C9 1_555 1_555
H8 C10 1_555 1_555
C11 C10 1_555 1_555
H9 C11 1_555 1_555
C12 C11 1_555 1_555
C13 C12 1_555 1_555
H10 C13 1_555 1_555
C14 C9 1_555 1_555
H11 C14 1_555 1_555
C15 C12 1_555 1_555
H12 C15 1_555 1_555
H13 C15 1_555 1_555
H14 C15 1_555 1_555
C16 C8 1_555 1_555
C17 C16 1_555 1_555
C18 C17 1_555 1_555
H15 C18 1_555 1_555
C19 C18 1_555 1_555
H16 C19 1_555 1_555
C20 C19 1_555 1_555
H17 C20 1_555 1_555
C21 C17 1_555 1_555
C22 C21 1_555 1_555
C23 C22 1_555 1_555
C24 C16 1_555 1_555
C25 C24 1_555 1_555
H18 C25 1_555 1_555
C26 C25 1_555 1_555
H19 C26 1_555 1_555
C27 C26 1_555 1_555
H20 C27 1_555 1_555
C28 C23 1_555 1_555
H21 C28 1_555 1_555
C29 C22 1_555 1_555
C30 C29 1_555 1_555
C31 C30 1_555 1_555
H22 C31 1_555 1_555
C32 C31 1_555 1_555
H23 C32 1_555 1_555
C33 C32 1_555 1_555
C34 C33 1_555 1_555
H24 C34 1_555 1_555
C35 C30 1_555 1_555
H25 C35 1_555 1_555
C36 C33 1_555 1_555
H26 C36 1_555 1_555
H27 C36 1_555 1_555
H28 C36 1_555 1_555
C37 C29 1_555 1_555
C38 C37 1_555 1_555
H29 C38 1_555 1_555
C39 C38 1_555 1_555
H30 C39 1_555 1_555
C40 C39 1_555 1_555
C41 C40 1_555 1_555
H31 C41 1_555 1_555
C42 C37 1_555 1_555
H32 C42 1_555 1_555
C43 C40 1_555 1_555
H33 C43 1_555 1_555
H34 C43 1_555 1_555
H35 C43 1_555 1_555
C44 C20 1_555 1_555
H36 C44 1_555 1_555
C6 C7 1_555 1_555
C13 C14 1_555 1_555
C21 C44 1_555 1_555
C23 C24 1_555 1_555
C27 C28 1_555 1_555
C34 C35 1_555 1_555
C41 C42 1_555 1_555

#END
