
#######################################################################
#
#                 Cambridge Crystallographic Data Centre
#                                CCDC 
#
#######################################################################
#
# If this CIF has been generated from an entry in the Cambridge 
# Structural Database, then it will include bibliographic, chemical, 
# crystal, experimental, refinement or atomic coordinate data resulting 
# from the CCDC's data processing and validation procedures.
#
#######################################################################

data_IHAQOX
_chemical_formula_moiety         '2(C6 H9 N2 1+),C8 H4 O4 2-'
_chemical_name_systematic        'bis(2-Amino-3-methylpyridinium) o-phthalate'
_symmetry_cell_setting           monoclinic
_symmetry_space_group_name_H-M   'P 21/c'
_symmetry_Int_Tables_number      14
_space_group_name_Hall           '-P 2ybc'
loop_
_symmetry_equiv_pos_site_id
_symmetry_equiv_pos_as_xyz
1 x,y,z
2 x,1/2-y,1/2+z
3 -x,-y,-z
4 -x,1/2+y,1/2-z
_cell_length_a                   11.015(2)
_cell_length_b                   11.057(2)
_cell_length_c                   15.767(2)
_cell_angle_alpha                90
_cell_angle_beta                 96.220(10)
_cell_angle_gamma                90
_cell_volume                     1909
_exptl_crystal_colour            'pale yellow'
_exptl_crystal_description       prism
_cell_formula_units_Z            4
loop_
_atom_site_label
_atom_site_type_symbol
_atom_site_fract_x
_atom_site_fract_y
_atom_site_fract_z
O1 O 0.98549(10) -0.32987(11) 0.18544(8)
O2 O 0.99763(11) -0.50583(11) 0.11821(8)
O3 O 0.73371(12) -0.27989(11) 0.29931(8)
O4 O 0.81026(12) -0.46531(11) 0.28966(8)
C1 C 0.94015(15) -0.41635(15) 0.13983(11)
C2 C 0.80708(14) -0.40318(14) 0.10791(11)
C3 C 0.77053(16) -0.41218(15) 0.02075(11)
H7 H 0.8274 -0.4326 -0.0164
C4 C 0.65072(17) -0.39103(17) -0.01093(12)
H8 H 0.6272 -0.3959 -0.0693
C5 C 0.56620(17) -0.36271(17) 0.04410(12)
H9 H 0.4853 -0.3490 0.0228
C6 C 0.60074(15) -0.35460(16) 0.13050(12)
H10 H 0.5429 -0.3356 0.1672
C7 C 0.72135(15) -0.37462(14) 0.16347(10)
C8 C 0.75746(15) -0.37144(16) 0.25837(11)
N1 N 0.98032(14) 0.03810(13) 0.11055(9)
H1 H 1.0474 0.0348 0.1439
N2 N 1.01876(14) 0.23993(13) 0.09375(10)
H2 H 1.0847 0.2320 0.1279
H3 H 0.9993 0.3093 0.0717
C9 C 0.91433(19) -0.06473(16) 0.09684(13)
H11 H 0.9417 -0.1364 0.1232
C10 C 0.80823(19) -0.06273(18) 0.04448(14)
H12 H 0.7609 -0.1321 0.0351
C11 C 0.77248(18) 0.04555(19) 0.00551(13)
H13 H 0.7007 0.0469 -0.0315
C12 C 0.83742(16) 0.15097(16) 0.01865(11)
C13 C 0.94693(16) 0.14470(15) 0.07500(10)
C14 C 0.80194(19) 0.26762(19) -0.02462(13)
H14 H 0.7296 0.2559 -0.0635
H15 H 0.8671 0.2952 -0.0555
H16 H 0.7862 0.3269 0.0173
N3 N 0.78916(12) -0.82906(12) 0.24359(9)
H4 H 0.8612 -0.8308 0.2708
N4 N 0.77247(13) -1.02931(13) 0.27758(9)
H5 H 0.8442 -1.0252 0.3050
H6 H 0.7328 -1.0964 0.2756
C15 C 0.74776(17) -0.72373(16) 0.20828(11)
H17 H 0.7968 -0.6551 0.2141
C16 C 0.63511(17) -0.71722(17) 0.16438(12)
H18 H 0.6060 -0.6450 0.1397
C17 C 0.56422(16) -0.82179(18) 0.15728(12)
H19 H 0.4866 -0.8184 0.1276
C18 C 0.60495(15) -0.92923(16) 0.19257(11)
C19 C 0.72272(15) -0.93170(15) 0.23824(10)
C20 C 0.53011(18) -1.04251(19) 0.18553(15)
H20 H 0.4476 -1.0232 0.1638
H21 H 0.5310 -1.0791 0.2408
H22 H 0.5637 -1.0979 0.1474
loop_
_geom_bond_atom_site_label_1
_geom_bond_atom_site_label_2
_geom_bond_site_symmetry_1
_geom_bond_site_symmetry_2
O1 C1 1_555 1_555
O2 C1 1_555 1_555
O3 C8 1_555 1_555
O4 C8 1_555 1_555
N1 H1 1_555 1_555
N2 H2 1_555 1_555
H3 N2 1_555 1_555
N3 H4 1_555 1_555
N4 H5 1_555 1_555
H6 N4 1_555 1_555
C1 C2 1_555 1_555
C2 C3 1_555 1_555
C3 H7 1_555 1_555
C4 C3 1_555 1_555
H8 C4 1_555 1_555
C5 C4 1_555 1_555
H9 C5 1_555 1_555
C6 C5 1_555 1_555
H10 C6 1_555 1_555
C7 C2 1_555 1_555
C8 C7 1_555 1_555
C9 N1 1_555 1_555
H11 C9 1_555 1_555
C10 C9 1_555 1_555
H12 C10 1_555 1_555
C11 C10 1_555 1_555
H13 C11 1_555 1_555
C12 C11 1_555 1_555
C13 N1 1_555 1_555
C14 C12 1_555 1_555
H14 C14 1_555 1_555
H15 C14 1_555 1_555
H16 C14 1_555 1_555
C15 N3 1_555 1_555
H17 C15 1_555 1_555
C16 C15 1_555 1_555
H18 C16 1_555 1_555
C17 C16 1_555 1_555
H19 C17 1_555 1_555
C18 C17 1_555 1_555
C19 N3 1_555 1_555
C20 C18 1_555 1_555
H20 C20 1_555 1_555
H21 C20 1_555 1_555
H22 C20 1_555 1_555
N2 C13 1_555 1_555
N4 C19 1_555 1_555
C6 C7 1_555 1_555
C12 C13 1_555 1_555
C18 C19 1_555 1_555

#END
