
#######################################################################
#
#                 Cambridge Crystallographic Data Centre
#                                CCDC 
#
#######################################################################
#
# If this CIF has been generated from an entry in the Cambridge 
# Structural Database, then it will include bibliographic, chemical, 
# crystal, experimental, refinement or atomic coordinate data resulting 
# from the CCDC's data processing and validation procedures.
#
#######################################################################

data_IHASOB
_chemical_formula_moiety         'C17 H15 Cl1 N2 O2'
_chemical_name_systematic        
1,1'-(2-(2-chlorophenyl)-1H-benzimidazole-1,3(2H)-diyl)diethanone
_symmetry_cell_setting           monoclinic
_symmetry_space_group_name_H-M   'C 2/c'
_symmetry_Int_Tables_number      15
_space_group_name_Hall           '-C 2yn'
loop_
_symmetry_equiv_pos_site_id
_symmetry_equiv_pos_as_xyz
1 x,y,z
2 -x,y,1/2-z
3 1/2+x,1/2+y,z
4 1/2-x,1/2+y,1/2-z
5 -x,-y,-z
6 x,-y,1/2+z
7 1/2-x,1/2-y,-z
8 1/2+x,1/2-y,1/2+z
_cell_length_a                   25.341(5)
_cell_length_b                   7.5290(15)
_cell_length_c                   19.011(4)
_cell_angle_alpha                90
_cell_angle_beta                 125.46(3)
_cell_angle_gamma                90
_cell_volume                     2954.39
_cell_formula_units_Z            8
loop_
_atom_site_label
_atom_site_type_symbol
_atom_site_fract_x
_atom_site_fract_y
_atom_site_fract_z
Cl1 Cl 0.63895(3) 0.50905(8) 0.39583(4)
O1 O 0.70843(8) 0.5691(3) 0.61884(11)
N1 N 0.53721(8) 0.3095(2) 0.49218(11)
C1 C 0.60315(10) 0.2906(3) 0.63950(13)
N2 N 0.63859(8) 0.3780(2) 0.61334(10)
O2 O 0.42949(8) 0.2700(3) 0.39626(11)
C2 C 0.62107(12) 0.2355(3) 0.71977(14)
H1 H 0.6631 0.2523 0.7686
C3 C 0.57468(13) 0.1545(4) 0.72560(17)
H2 H 0.5858 0.1177 0.7793
C4 C 0.51244(13) 0.1274(3) 0.65354(18)
H3 H 0.4820 0.0761 0.6597
C5 C 0.49450(11) 0.1752(3) 0.57188(16)
H4 H 0.4528 0.1544 0.5230
C6 C 0.54111(10) 0.2549(3) 0.56615(13)
C7 C 0.60198(10) 0.3711(3) 0.51829(12)
H5 H 0.5986 0.4903 0.4953
C8 C 0.63408(9) 0.2457(3) 0.49115(12)
C9 C 0.65191(10) 0.2942(3) 0.43689(13)
C10 C 0.68092(12) 0.1739(4) 0.41379(15)
H6 H 0.6919 0.2082 0.3769
C11 C 0.69324(12) 0.0039(4) 0.44591(16)
H7 H 0.7124 -0.0773 0.4303
C12 C 0.67736(11) -0.0472(3) 0.50107(15)
H8 H 0.6862 -0.1620 0.5231
C13 C 0.64815(10) 0.0738(3) 0.52344(13)
H9 H 0.6378 0.0388 0.5609
C14 C 0.68918(10) 0.4950(3) 0.65682(14)
C15 C 0.71899(13) 0.5273(4) 0.75057(16)
H10 H 0.7538 0.6112 0.7729
H11 H 0.7355 0.4176 0.7818
H12 H 0.6868 0.5740 0.7571
C16 C 0.48106(10) 0.3121(3) 0.40986(14)
C17 C 0.48662(12) 0.3651(4) 0.33855(15)
H13 H 0.4445 0.3628 0.2846
H14 H 0.5147 0.2835 0.3362
H15 H 0.5042 0.4828 0.3491
loop_
_geom_bond_atom_site_label_1
_geom_bond_atom_site_label_2
_geom_bond_site_symmetry_1
_geom_bond_site_symmetry_2
Cl1 C9 1_555 1_555
O1 C14 1_555 1_555
N1 C6 1_555 1_555
C1 N2 1_555 1_555
N2 C7 1_555 1_555
O2 C16 1_555 1_555
C2 C1 1_555 1_555
H1 C2 1_555 1_555
C3 C2 1_555 1_555
H2 C3 1_555 1_555
C4 C3 1_555 1_555
H3 C4 1_555 1_555
C5 C4 1_555 1_555
H4 C5 1_555 1_555
C6 C1 1_555 1_555
C7 N1 1_555 1_555
H5 C7 1_555 1_555
C8 C7 1_555 1_555
C9 C8 1_555 1_555
C10 C9 1_555 1_555
H6 C10 1_555 1_555
C11 C10 1_555 1_555
H7 C11 1_555 1_555
C12 C11 1_555 1_555
H8 C12 1_555 1_555
C13 C8 1_555 1_555
H9 C13 1_555 1_555
C14 N2 1_555 1_555
C15 C14 1_555 1_555
H10 C15 1_555 1_555
H11 C15 1_555 1_555
H12 C15 1_555 1_555
C16 N1 1_555 1_555
C17 C16 1_555 1_555
H13 C17 1_555 1_555
H14 C17 1_555 1_555
H15 C17 1_555 1_555
C5 C6 1_555 1_555
C12 C13 1_555 1_555

#END
