
#######################################################################
#
#                 Cambridge Crystallographic Data Centre
#                                CCDC 
#
#######################################################################
#
# If this CIF has been generated from an entry in the Cambridge 
# Structural Database, then it will include bibliographic, chemical, 
# crystal, experimental, refinement or atomic coordinate data resulting 
# from the CCDC's data processing and validation procedures.
#
#######################################################################

data_IHAVUI
_chemical_compound_source        'roots of Goniothalamus cheliensis'
_chemical_formula_moiety         'C26 H24 O7'
_chemical_name_systematic        'Goniolactone A'
_chemical_properties_biological  'potential cytotoxicity'
_symmetry_cell_setting           monoclinic
_symmetry_space_group_name_H-M   'P 21'
_symmetry_Int_Tables_number      4
_space_group_name_Hall           'P 2yb'
loop_
_symmetry_equiv_pos_site_id
_symmetry_equiv_pos_as_xyz
1 x,y,z
2 -x,1/2+y,-z
_cell_length_a                   9.2600(4)
_cell_length_b                   9.2890(2)
_cell_length_c                   13.2200(2)
_cell_angle_alpha                90
_cell_angle_beta                 80.692(2)
_cell_angle_gamma                90
_cell_volume                     1122.16
_exptl_crystal_colour            white
_exptl_crystal_description       needles
_chemical_melting_point          166-168deg.C
_cell_formula_units_Z            2
loop_
_atom_site_label
_atom_site_type_symbol
_atom_site_fract_x
_atom_site_fract_y
_atom_site_fract_z
O1 O -0.3259(3) -0.2571 -0.0383(2)
C1 C -0.2666(4) -0.2153(6) -0.1340(3)
C2 C -0.2550(6) -0.3223(6) -0.2165(3)
C3 C -0.3224(6) -0.4477(6) -0.2027(4)
C4 C -0.4020(5) -0.4912(6) -0.0999(4)
C5 C -0.3393(5) -0.4121(5) -0.0160(3)
C6 C -0.4371(4) -0.4255(5) 0.0882(3)
C7 C -0.3780(4) -0.3492(5) 0.1761(3)
O2 O -0.2330(3) -0.0894(4) -0.1482(3)
O3 O -0.5776(3) -0.3623(4) 0.0830(3)
O4 O -0.2312(3) -0.4044(3) 0.1734(2)
C8 C -0.4698(4) -0.3808(6) 0.2796(3)
C9 C -0.5025(5) -0.5238(6) 0.3100(4)
C10 C -0.5839(6) -0.5532(8) 0.4063(4)
C11 C -0.6317(6) -0.4402(9) 0.4714(4)
C12 C -0.6002(6) -0.3007(8) 0.4443(4)
C13 C -0.5181(5) -0.2680(7) 0.3460(4)
O5 O -0.1181(4) -0.4922(4) 0.3742(3)
C14 C -0.1368(6) -0.4148(7) 0.4635(4)
C15 C -0.0460(7) -0.2858(7) 0.4673(4)
C16 C 0.0588(5) -0.2494(7) 0.3925(4)
C17 C 0.0857(5) -0.3297(6) 0.2934(4)
C18 C -0.0441(5) -0.4249(5) 0.2808(3)
C19 C -0.1459(4) -0.3233(5) 0.2347(3)
C20 C -0.0398(5) -0.2197(6) 0.1685(3)
O6 O 0.0968(3) -0.2296(4) 0.2089(3)
O7 O -0.2239(5) -0.4618(5) 0.5339(3)
C21 C -0.0883(5) -0.0637(6) 0.1691(3)
C22 C -0.1205(6) -0.0033(7) 0.0786(4)
C23 C -0.1682(6) 0.1378(7) 0.0783(5)
C24 C -0.1823(6) 0.2225(7) 0.1658(5)
C25 C -0.1492(7) 0.1620(7) 0.2565(5)
C26 C -0.1019(6) 0.0197(6) 0.2573(4)
H1 H -0.188 -0.296 -0.291
H2 H -0.320 -0.521 -0.269
H3 H -0.392 -0.608 -0.090
H4 H -0.518 -0.467 -0.094
H5 H -0.232 -0.457 -0.010
H6 H -0.451 -0.539 0.107
H7 H -0.376 -0.234 0.161
H8 H -0.647 -0.428 0.094
H9 H -0.461 -0.611 0.258
H10 H -0.614 -0.664 0.430
H11 H -0.697 -0.463 0.547
H12 H -0.636 -0.215 0.500
H13 H -0.492 -0.155 0.322
H14 H -0.068 -0.214 0.534
H15 H 0.132 -0.159 0.404
H16 H 0.186 -0.394 0.287
H17 H -0.007 -0.507 0.224
H18 H -0.214 -0.263 0.296
H19 H -0.023 -0.259 0.090
H20 H -0.110 -0.068 0.008
H21 H -0.193 0.187 0.007
H22 H -0.224 0.333 0.165
H23 H -0.157 0.228 0.326
H24 H -0.078 -0.027 0.330
loop_
_geom_bond_atom_site_label_1
_geom_bond_atom_site_label_2
_geom_bond_site_symmetry_1
_geom_bond_site_symmetry_2
O1 C1 1_555 1_555
C1 C2 1_555 1_555
C2 C3 1_555 1_555
C3 C4 1_555 1_555
C4 C5 1_555 1_555
C5 O1 1_555 1_555
C6 C5 1_555 1_555
C7 C6 1_555 1_555
O2 C1 1_555 1_555
O3 C6 1_555 1_555
O4 C7 1_555 1_555
C8 C7 1_555 1_555
C9 C8 1_555 1_555
C10 C9 1_555 1_555
C11 C10 1_555 1_555
C12 C11 1_555 1_555
C13 C8 1_555 1_555
O5 C14 1_555 1_555
C14 C15 1_555 1_555
C15 C16 1_555 1_555
C16 C17 1_555 1_555
C17 C18 1_555 1_555
C18 O5 1_555 1_555
C19 O4 1_555 1_555
C20 C19 1_555 1_555
O6 C17 1_555 1_555
O7 C14 1_555 1_555
C21 C20 1_555 1_555
C22 C21 1_555 1_555
C23 C22 1_555 1_555
C24 C23 1_555 1_555
C25 C24 1_555 1_555
C26 C21 1_555 1_555
H1 C2 1_555 1_555
H2 C3 1_555 1_555
H3 C4 1_555 1_555
H4 C4 1_555 1_555
H5 C5 1_555 1_555
H6 C6 1_555 1_555
H7 C7 1_555 1_555
H8 O3 1_555 1_555
H9 C9 1_555 1_555
H10 C10 1_555 1_555
H11 C11 1_555 1_555
H12 C12 1_555 1_555
H13 C13 1_555 1_555
H14 C15 1_555 1_555
H15 C16 1_555 1_555
H16 C17 1_555 1_555
H17 C18 1_555 1_555
H18 C19 1_555 1_555
H19 C20 1_555 1_555
H20 C22 1_555 1_555
H21 C23 1_555 1_555
H22 C24 1_555 1_555
H23 C25 1_555 1_555
H24 C26 1_555 1_555
C12 C13 1_555 1_555
C18 C19 1_555 1_555
C20 O6 1_555 1_555
C25 C26 1_555 1_555

#END
