
#######################################################################
#
#                 Cambridge Crystallographic Data Centre
#                                CCDC 
#
#######################################################################
#
# If this CIF has been generated from an entry in the Cambridge 
# Structural Database, then it will include bibliographic, chemical, 
# crystal, experimental, refinement or atomic coordinate data resulting 
# from the CCDC's data processing and validation procedures.
#
#######################################################################

data_IHAWOF
_chemical_formula_moiety         'C16 H24 I1 N1 O4'
_chemical_name_systematic        
'methyl 3-(5-(2-cyanopropyl)-3a-(iodomethyl)hexahydro-2H-furo[3,2-b]pyran-2-yl)propanoate'
_symmetry_cell_setting           monoclinic
_symmetry_space_group_name_H-M   'P 21'
_symmetry_Int_Tables_number      4
_space_group_name_Hall           'P 2yb'
loop_
_symmetry_equiv_pos_site_id
_symmetry_equiv_pos_as_xyz
1 x,y,z
2 -x,1/2+y,-z
_cell_length_a                   9.3653(14)
_cell_length_b                   8.1888(12)
_cell_length_c                   12.1039(18)
_cell_angle_alpha                90
_cell_angle_beta                 93.570(2)
_cell_angle_gamma                90
_cell_volume                     926.454
_exptl_crystal_colour            colorless
_exptl_crystal_description       chunk
_cell_formula_units_Z            2
loop_
_atom_site_label
_atom_site_type_symbol
_atom_site_fract_x
_atom_site_fract_y
_atom_site_fract_z
I1 I -0.074829(14) 0.27913(4) 0.647724(14)
O1 O 0.26716(14) 0.3050(2) 0.71588(11)
O2 O 0.34036(19) 0.1238(2) 0.45193(13)
O3 O 0.2262(2) 0.0962(3) 0.03618(15)
O4 O 0.0387(2) 0.2068(3) 0.11266(18)
N1 N 0.3466(5) 0.8106(5) 0.7685(3)
C1 C 0.3199(4) 0.6997(4) 0.8181(3)
C2 C 0.2890(3) 0.5531(3) 0.88433(19)
H1 H 0.1948 0.5106 0.8589
C3 C 0.2850(4) 0.6021(4) 1.0063(2)
H2 H 0.3776 0.6410 1.0329
H3 H 0.2593 0.5091 1.0491
H4 H 0.2155 0.6871 1.0134
C4 C 0.4013(3) 0.4224(3) 0.86582(18)
H5 H 0.4945 0.4641 0.8914
H6 H 0.3815 0.3277 0.9105
C5 C 0.4070(2) 0.3692(3) 0.74666(18)
H7 H 0.4243 0.4650 0.7009
C6 C 0.5195(2) 0.2425(3) 0.7279(2)
H8 H 0.5027 0.1459 0.7717
H9 H 0.6135 0.2851 0.7505
C7 C 0.5125(3) 0.1985(3) 0.6048(2)
H10 H 0.5310 0.2950 0.5615
H11 H 0.5854 0.1180 0.5913
C8 C 0.3656(3) 0.1303(3) 0.56969(18)
H12 H 0.3552 0.0210 0.6011
C9 C 0.2446(2) 0.2421(3) 0.60633(18)
C10 C 0.2369(3) 0.3717(3) 0.51416(18)
H13 H 0.2930 0.4671 0.5362
H14 H 0.1388 0.4049 0.4963
C11 C 0.2996(2) 0.2859(5) 0.41483(15)
H15 H 0.3849 0.3451 0.3942
C12 C 0.1099(3) 0.1400(3) 0.6089(2)
H16 H 0.1254 0.0540 0.6634
H17 H 0.0913 0.0886 0.5372
C13 C 0.1950(2) 0.2717(5) 0.31444(16)
H18 H 0.1667 0.3801 0.2893
H19 H 0.1099 0.2146 0.3350
C14 C 0.2611(3) 0.1801(3) 0.2205(2)
H20 H 0.3467 0.2370 0.2008
H21 H 0.2892 0.0718 0.2461
C15 C 0.1607(3) 0.1645(3) 0.1195(2)
C16 C 0.1378(4) 0.0754(5) -0.0659(2)
H22 H 0.0664 -0.0063 -0.0554
H23 H 0.1966 0.0419 -0.1240
H24 H 0.0919 0.1771 -0.0857
loop_
_geom_bond_atom_site_label_1
_geom_bond_atom_site_label_2
_geom_bond_site_symmetry_1
_geom_bond_site_symmetry_2
I1 C12 1_555 1_555
O1 C5 1_555 1_555
O2 C8 1_555 1_555
O3 C15 1_555 1_555
O4 C15 1_555 1_555
N1 C1 1_555 1_555
C1 C2 1_555 1_555
C2 H1 1_555 1_555
C3 C2 1_555 1_555
H2 C3 1_555 1_555
H3 C3 1_555 1_555
H4 C3 1_555 1_555
C4 C2 1_555 1_555
H5 C4 1_555 1_555
H6 C4 1_555 1_555
C5 C4 1_555 1_555
H7 C5 1_555 1_555
C6 C5 1_555 1_555
H8 C6 1_555 1_555
H9 C6 1_555 1_555
C7 C6 1_555 1_555
H10 C7 1_555 1_555
H11 C7 1_555 1_555
C8 C7 1_555 1_555
H12 C8 1_555 1_555
C9 O1 1_555 1_555
C10 C9 1_555 1_555
H13 C10 1_555 1_555
H14 C10 1_555 1_555
C11 O2 1_555 1_555
H15 C11 1_555 1_555
C12 C9 1_555 1_555
H16 C12 1_555 1_555
H17 C12 1_555 1_555
C13 C11 1_555 1_555
H18 C13 1_555 1_555
H19 C13 1_555 1_555
C14 C13 1_555 1_555
H20 C14 1_555 1_555
H21 C14 1_555 1_555
C15 C14 1_555 1_555
C16 O3 1_555 1_555
H22 C16 1_555 1_555
H23 C16 1_555 1_555
H24 C16 1_555 1_555
C8 C9 1_555 1_555
C10 C11 1_555 1_555

#END
