
#######################################################################
#
#                 Cambridge Crystallographic Data Centre
#                                CCDC 
#
#######################################################################
#
# If this CIF has been generated from an entry in the Cambridge 
# Structural Database, then it will include bibliographic, chemical, 
# crystal, experimental, refinement or atomic coordinate data resulting 
# from the CCDC's data processing and validation procedures.
#
#######################################################################

data_IHAWUL
_chemical_formula_moiety         'C13 H19 N1 O4'
_chemical_name_systematic        
3-(9-hydroxy-2,7,10-trioxatricyclo[6.3.1.0^1,6^]dodec-3-yl)-2-methylpropanenitrile
_symmetry_cell_setting           orthorhombic
_symmetry_space_group_name_H-M   'P 21 21 21'
_symmetry_Int_Tables_number      19
_space_group_name_Hall           'P 2ac 2ab'
loop_
_symmetry_equiv_pos_site_id
_symmetry_equiv_pos_as_xyz
1 x,y,z
2 1/2-x,-y,1/2+z
3 -x,1/2+y,1/2-z
4 1/2+x,1/2-y,-z
_cell_length_a                   6.3435(15)
_cell_length_b                   10.568(2)
_cell_length_c                   19.187(4)
_cell_angle_alpha                90
_cell_angle_beta                 90
_cell_angle_gamma                90
_cell_volume                     1286.26
_exptl_crystal_colour            colorless
_exptl_crystal_description       chunk
_cell_formula_units_Z            4
loop_
_atom_site_label
_atom_site_type_symbol
_atom_site_fract_x
_atom_site_fract_y
_atom_site_fract_z
O1 O 1.2670(2) 0.23359(10) 0.07090(6)
H1 H 1.301(3) 0.2649(19) 0.0327(10)
O2 O 0.91791(17) 0.16527(10) 0.05463(5)
O3 O 1.02958(17) -0.07413(9) 0.09820(5)
O4 O 0.75623(17) 0.10439(8) 0.23299(5)
N1 N 1.0898(3) 0.04522(18) 0.42762(10)
C1 C 1.1355(2) 0.13122(13) 0.05514(7)
H2 H 1.154(3) 0.0998(17) 0.0100(9)
C2 C 1.1734(2) 0.02835(14) 0.10995(7)
H3 H 1.316(3) -0.0072(18) 0.1044(9)
C3 C 1.1174(2) 0.07670(14) 0.18210(6)
H4 H 1.159(3) 0.0191(17) 0.2189(9)
H5 H 1.175(3) 0.1605(17) 0.1919(10)
C4 C 0.8788(2) 0.08050(11) 0.17227(6)
C5 C 0.8280(2) 0.18955(13) 0.12224(7)
H6 H 0.682(3) 0.1919(16) 0.1135(9)
H7 H 0.876(3) 0.2760(16) 0.1427(9)
C6 C 0.8368(2) -0.04796(12) 0.13605(7)
H8 H 0.712(3) -0.0419(15) 0.1035(9)
C7 C 0.7918(3) -0.15578(13) 0.18650(8)
H9 H 0.753(3) -0.2255(19) 0.1614(10)
H10 H 0.922(3) -0.1801(18) 0.2085(10)
C8 C 0.6375(2) -0.11257(13) 0.24251(7)
H11 H 0.505(3) -0.0864(16) 0.2227(8)
H12 H 0.606(3) -0.1805(18) 0.2759(9)
C9 C 0.7362(2) -0.00160(12) 0.28023(6)
H13 H 0.870(3) -0.0266(16) 0.2953(9)
C10 C 0.6140(2) 0.04579(13) 0.34293(7)
H14 H 0.486(3) 0.0786(16) 0.3287(9)
H15 H 0.578(3) -0.0277(18) 0.3731(9)
C11 C 0.7363(2) 0.14506(12) 0.38526(7)
H16 H 0.774(3) 0.2192(15) 0.3548(9)
C12 C 0.9367(3) 0.09025(16) 0.40961(8)
C13 C 0.6116(3) 0.19705(18) 0.44704(8)
H17 H 0.468(4) 0.225(2) 0.4294(11)
H18 H 0.695(4) 0.259(2) 0.4728(10)
H19 H 0.590(4) 0.131(2) 0.4808(12)
loop_
_geom_bond_atom_site_label_1
_geom_bond_atom_site_label_2
_geom_bond_site_symmetry_1
_geom_bond_site_symmetry_2
O1 H1 1_555 1_555
O2 C1 1_555 1_555
O3 C2 1_555 1_555
O4 C4 1_555 1_555
N1 C12 1_555 1_555
C1 O1 1_555 1_555
H2 C1 1_555 1_555
C2 C1 1_555 1_555
H3 C2 1_555 1_555
C3 C2 1_555 1_555
H4 C3 1_555 1_555
H5 C3 1_555 1_555
C4 C3 1_555 1_555
C5 O2 1_555 1_555
H6 C5 1_555 1_555
H7 C5 1_555 1_555
C6 O3 1_555 1_555
H8 C6 1_555 1_555
C7 C6 1_555 1_555
H9 C7 1_555 1_555
H10 C7 1_555 1_555
C8 C7 1_555 1_555
H11 C8 1_555 1_555
H12 C8 1_555 1_555
C9 O4 1_555 1_555
H13 C9 1_555 1_555
C10 C9 1_555 1_555
H14 C10 1_555 1_555
H15 C10 1_555 1_555
C11 C10 1_555 1_555
H16 C11 1_555 1_555
C12 C11 1_555 1_555
C13 C11 1_555 1_555
H17 C13 1_555 1_555
H18 C13 1_555 1_555
H19 C13 1_555 1_555
C4 C5 1_555 1_555
C4 C6 1_555 1_555
C8 C9 1_555 1_555

#END
