
#######################################################################
#
#                 Cambridge Crystallographic Data Centre
#                                CCDC 
#
#######################################################################
#
# If this CIF has been generated from an entry in the Cambridge 
# Structural Database, then it will include bibliographic, chemical, 
# crystal, experimental, refinement or atomic coordinate data resulting 
# from the CCDC's data processing and validation procedures.
#
#######################################################################

data_IHAXAS
_chemical_formula_moiety         'C16 H21 N1 O4'
_chemical_name_systematic        
'3-(2-cyanopropyl)-2,7-dioxatricyclo[6.3.1.0^1,6^]dodec-10-en-9-yl acetate'
_symmetry_cell_setting           orthorhombic
_symmetry_space_group_name_H-M   'P 21 21 21'
_symmetry_Int_Tables_number      19
_space_group_name_Hall           'P 2ac 2ab'
loop_
_symmetry_equiv_pos_site_id
_symmetry_equiv_pos_as_xyz
1 x,y,z
2 1/2-x,-y,1/2+z
3 -x,1/2+y,1/2-z
4 1/2+x,1/2-y,-z
_cell_length_a                   8.627(4)
_cell_length_b                   12.436(5)
_cell_length_c                   14.456(6)
_cell_angle_alpha                90
_cell_angle_beta                 90
_cell_angle_gamma                90
_cell_volume                     1550.92
_exptl_crystal_colour            colorless
_exptl_crystal_description       needle
_cell_formula_units_Z            4
loop_
_atom_site_label
_atom_site_type_symbol
_atom_site_fract_x
_atom_site_fract_y
_atom_site_fract_z
O1 O 1.11634(10) 0.01269(7) 0.25571(6)
O2 O 0.81226(13) -0.15401(7) 0.35436(8)
O3 O 0.56924(11) 0.08456(8) 0.35833(7)
O4 O 0.52471(16) 0.15521(10) 0.49924(8)
N1 N 1.15746(18) 0.09647(14) -0.03641(11)
C1 C 1.22734(17) 0.09918(12) 0.03096(11)
C2 C 1.31754(16) 0.10060(11) 0.11718(9)
H1 H 1.262(2) 0.1437(14) 0.1588(12)
C3 C 1.4777(2) 0.15123(14) 0.10152(12)
H2 H 1.526(3) 0.1562(17) 0.1604(15)
H3 H 1.542(2) 0.1062(14) 0.0627(12)
H4 H 1.465(3) 0.2210(19) 0.0823(14)
C4 C 1.32950(16) -0.01355(11) 0.15722(9)
H5 H 1.400(2) -0.0111(14) 0.2106(11)
H6 H 1.373(2) -0.0619(16) 0.1137(12)
C5 C 1.17525(16) -0.06075(10) 0.18714(9)
H7 H 1.1069(19) -0.0612(14) 0.1378(11)
C6 C 1.19166(18) -0.17332(11) 0.22737(12)
H8 H 1.263(2) -0.1696(15) 0.2816(13)
H9 H 1.231(2) -0.2182(15) 0.1793(13)
C7 C 1.03449(19) -0.21280(11) 0.26170(12)
H10 H 0.963(3) -0.2171(18) 0.2064(14)
H11 H 1.036(3) -0.2801(19) 0.2865(13)
C8 C 0.97355(17) -0.13560(10) 0.33473(10)
H12 H 1.031(2) -0.1421(13) 0.3945(11)
C9 C 0.97808(15) -0.01745(9) 0.30124(8)
C10 C 0.96252(17) 0.05604(10) 0.38389(8)
H13 H 1.055(2) 0.0884(14) 0.4026(11)
C11 C 0.82896(17) 0.06939(11) 0.42726(9)
H14 H 0.824(2) 0.1140(14) 0.4803(12)
C12 C 0.68498(16) 0.01132(10) 0.39659(9)
H15 H 0.6400(19) -0.0222(13) 0.4451(11)
C13 C 0.72198(16) -0.06642(10) 0.31732(9)
H16 H 0.629(2) -0.0911(15) 0.2921(12)
C14 C 0.82569(15) -0.01244(10) 0.24605(9)
H17 H 0.838(2) -0.0553(14) 0.1890(12)
H18 H 0.7955(19) 0.0583(14) 0.2328(10)
C15 C 0.49300(18) 0.14849(11) 0.41830(10)
C16 C 0.3676(2) 0.20908(16) 0.36921(14)
H19 H 0.308(3) 0.1616(18) 0.3290(16)
H20 H 0.302(4) 0.241(2) 0.417(2)
H21 H 0.411(3) 0.260(2) 0.3252(19)
loop_
_geom_bond_atom_site_label_1
_geom_bond_atom_site_label_2
_geom_bond_site_symmetry_1
_geom_bond_site_symmetry_2
O1 C5 1_555 1_555
O2 C8 1_555 1_555
O3 C12 1_555 1_555
O4 C15 1_555 1_555
N1 C1 1_555 1_555
C1 C2 1_555 1_555
C2 H1 1_555 1_555
C3 C2 1_555 1_555
H2 C3 1_555 1_555
H3 C3 1_555 1_555
H4 C3 1_555 1_555
C4 C2 1_555 1_555
H5 C4 1_555 1_555
H6 C4 1_555 1_555
C5 C4 1_555 1_555
H7 C5 1_555 1_555
C6 C5 1_555 1_555
H8 C6 1_555 1_555
H9 C6 1_555 1_555
C7 C6 1_555 1_555
H10 C7 1_555 1_555
H11 C7 1_555 1_555
C8 C7 1_555 1_555
H12 C8 1_555 1_555
C9 O1 1_555 1_555
C10 C9 1_555 1_555
H13 C10 1_555 1_555
C11 C10 1_555 1_555
H14 C11 1_555 1_555
C12 C11 1_555 1_555
H15 C12 1_555 1_555
C13 O2 1_555 1_555
H16 C13 1_555 1_555
C14 C9 1_555 1_555
H17 C14 1_555 1_555
H18 C14 1_555 1_555
C15 O3 1_555 1_555
C16 C15 1_555 1_555
H19 C16 1_555 1_555
H20 C16 1_555 1_555
H21 C16 1_555 1_555
C8 C9 1_555 1_555
C12 C13 1_555 1_555
C13 C14 1_555 1_555

#END
