
#######################################################################
#
#                 Cambridge Crystallographic Data Centre
#                                CCDC 
#
#######################################################################
#
# If this CIF has been generated from an entry in the Cambridge 
# Structural Database, then it will include bibliographic, chemical, 
# crystal, experimental, refinement or atomic coordinate data resulting 
# from the CCDC's data processing and validation procedures.
#
#######################################################################

data_IHECIH01
_chemical_formula_moiety         'C7 H7 N1 O3'
_chemical_name_systematic        '2-oxo-1,2-dihydropyridine-1-acetic acid'
_symmetry_cell_setting           monoclinic
_symmetry_space_group_name_H-M   'P 21/c'
_symmetry_Int_Tables_number      14
_space_group_name_Hall           '-P 2ybc'
loop_
_symmetry_equiv_pos_site_id
_symmetry_equiv_pos_as_xyz
1 x,y,z
2 -x,1/2+y,1/2-z
3 -x,-y,-z
4 x,1/2-y,1/2+z
_cell_length_a                   7.4370(15)
_cell_length_b                   9.991(2)
_cell_length_c                   9.974(2)
_cell_angle_alpha                90
_cell_angle_beta                 110.23(3)
_cell_angle_gamma                90
_cell_volume                     695.382
_chemical_melting_point          '491-493 K'
_cell_formula_units_Z            4
loop_
_atom_site_label
_atom_site_type_symbol
_atom_site_fract_x
_atom_site_fract_y
_atom_site_fract_z
O1 O 0.2942(1) 0.4307(1) 0.0225(1)
O2 O 0.5627(1) 0.3827(1) 0.2002(1)
O3 O 0.5111(1) 0.0700(1) 0.1553(1)
N1 N 0.6746(1) 0.1983(1) 0.0502(1)
C1 C 0.6684(2) 0.0953(1) 0.1401(1)
C2 C 0.8428(2) 0.0275(1) 0.2087(1)
C3 C 1.0050(2) 0.0639(2) 0.1858(2)
C4 C 1.0040(2) 0.1704(2) 0.0941(2)
C5 C 0.8392(2) 0.2353(1) 0.0288(2)
C6 C 0.4977(2) 0.2695(1) -0.0218(1)
C7 C 0.4409(2) 0.3691(1) 0.0708(1)
loop_
_geom_bond_atom_site_label_1
_geom_bond_atom_site_label_2
_geom_bond_site_symmetry_1
_geom_bond_site_symmetry_2
O1 C7 1_555 1_555
O2 C7 1_555 1_555
O3 C1 1_555 1_555
N1 C1 1_555 1_555
C1 C2 1_555 1_555
C2 C3 1_555 1_555
C3 C4 1_555 1_555
C4 C5 1_555 1_555
C5 N1 1_555 1_555
C6 N1 1_555 1_555
C7 C6 1_555 1_555

#END
