
#######################################################################
#
#                 Cambridge Crystallographic Data Centre
#                                CCDC 
#
#######################################################################
#
# If this CIF has been generated from an entry in the Cambridge 
# Structural Database, then it will include bibliographic, chemical, 
# crystal, experimental, refinement or atomic coordinate data resulting 
# from the CCDC's data processing and validation procedures.
#
#######################################################################

data_IHEDAC
_chemical_formula_moiety         'C20 H29 N1 O4'
_chemical_name_systematic        
2-methyl-3-(4',6',9',14'-tetraoxaspiro[cyclohexane-1,5'-tetracyclo[6.6.1.0^1,10^.0^3,7^]pentadecan]-13'-yl)propanenitrile
_symmetry_cell_setting           orthorhombic
_symmetry_space_group_name_H-M   'P 21 21 21'
_symmetry_Int_Tables_number      19
_space_group_name_Hall           'P 2ac 2ab'
loop_
_symmetry_equiv_pos_site_id
_symmetry_equiv_pos_as_xyz
1 x,y,z
2 1/2+x,1/2-y,-z
3 -x,1/2+y,1/2-z
4 1/2-x,-y,1/2+z
_cell_length_a                   6.2691(2)
_cell_length_b                   10.7718(3)
_cell_length_c                   27.8921(7)
_cell_angle_alpha                90
_cell_angle_beta                 90
_cell_angle_gamma                90
_cell_volume                     1883.54
_exptl_crystal_colour            colorless
_exptl_crystal_description       needle
_cell_formula_units_Z            4
loop_
_atom_site_label
_atom_site_type_symbol
_atom_site_fract_x
_atom_site_fract_y
_atom_site_fract_z
O1 O 0.7271(6) 0.6023(3) 0.91703(13)
O2 O 1.0558(6) 0.5201(4) 0.91881(14)
O3 O 1.2866(6) 0.8281(4) 0.92547(14)
O4 O 0.8743(6) 0.9462(3) 0.84683(14)
N1 N 0.4077(12) 1.1643(7) 0.7205(2)
C1 C 0.8362(9) 0.4869(6) 0.9244(2)
C2 C 0.7927(9) 0.4327(5) 0.9734(2)
H1 H 0.8260 0.4954 0.9983
H2 H 0.8867 0.3602 0.9787
C3 C 0.5621(10) 0.3929(6) 0.9783(2)
H3 H 0.4684 0.4666 0.9760
H4 H 0.5400 0.3545 1.0102
C4 C 0.5018(10) 0.2997(6) 0.9391(2)
H5 H 0.5875 0.2231 0.9428
H6 H 0.3493 0.2772 0.9421
C5 C 0.5422(10) 0.3558(6) 0.8900(2)
H7 H 0.4443 0.4268 0.8851
H8 H 0.5110 0.2930 0.8650
C6 C 0.7738(9) 0.4005(6) 0.8844(2)
H9 H 0.8705 0.3279 0.8843
H10 H 0.7897 0.4439 0.8533
C7 C 0.8567(9) 0.6963(5) 0.9402(2)
H11 H 0.8143 0.7038 0.9746
C8 C 1.0838(9) 0.6446(5) 0.9368(2)
H12 H 1.1532 0.6434 0.9691
C9 C 1.2207(10) 0.7127(6) 0.9011(2)
H13 H 1.3475 0.6618 0.8918
C10 C 1.0966(10) 0.7527(5) 0.8578(2)
H14 H 0.9942 0.6884 0.8472
H15 H 1.1909 0.7761 0.8308
C11 C 0.9846(9) 0.8649(5) 0.8795(2)
C12 C 0.8132(9) 0.8197(6) 0.9142(2)
H16 H 0.6779 0.8112 0.8962
H17 H 0.7913 0.8848 0.9388
C13 C 1.1667(9) 0.9297(5) 0.9052(2)
H18 H 1.1084 0.9827 0.9316
C14 C 1.3089(9) 1.0077(6) 0.8730(2)
H19 H 1.3930 0.9532 0.8515
H20 H 1.4091 1.0572 0.8926
C15 C 1.1669(10) 1.0937(6) 0.8433(2)
H21 H 1.0892 1.1511 0.8648
H22 H 1.2559 1.1438 0.8213
C16 C 1.0084(10) 1.0168(6) 0.8146(2)
H23 H 1.0873 0.9588 0.7929
C17 C 0.8551(9) 1.0957(5) 0.7853(2)
H24 H 0.7785 1.1531 0.8070
H25 H 0.9378 1.1464 0.7622
C18 C 0.6937(10) 1.0183(6) 0.7580(2)
H26 H 0.6205 0.9625 0.7815
C19 C 0.5320(14) 1.0996(8) 0.7366(3)
C20 C 0.7946(12) 0.9362(6) 0.7189(2)
H27 H 0.8715 0.9887 0.6960
H28 H 0.6823 0.8902 0.7021
H29 H 0.8942 0.8776 0.7337
loop_
_geom_bond_atom_site_label_1
_geom_bond_atom_site_label_2
_geom_bond_site_symmetry_1
_geom_bond_site_symmetry_2
O1 C1 1_555 1_555
O2 C1 1_555 1_555
O3 C9 1_555 1_555
O4 C11 1_555 1_555
N1 C19 1_555 1_555
C1 C2 1_555 1_555
C2 H1 1_555 1_555
H2 C2 1_555 1_555
C3 C2 1_555 1_555
H3 C3 1_555 1_555
H4 C3 1_555 1_555
C4 C3 1_555 1_555
H5 C4 1_555 1_555
H6 C4 1_555 1_555
C5 C4 1_555 1_555
H7 C5 1_555 1_555
H8 C5 1_555 1_555
C6 C1 1_555 1_555
H9 C6 1_555 1_555
H10 C6 1_555 1_555
C7 O1 1_555 1_555
H11 C7 1_555 1_555
C8 O2 1_555 1_555
H12 C8 1_555 1_555
C9 C8 1_555 1_555
H13 C9 1_555 1_555
C10 C9 1_555 1_555
H14 C10 1_555 1_555
H15 C10 1_555 1_555
C11 C10 1_555 1_555
C12 C7 1_555 1_555
H16 C12 1_555 1_555
H17 C12 1_555 1_555
C13 O3 1_555 1_555
H18 C13 1_555 1_555
C14 C13 1_555 1_555
H19 C14 1_555 1_555
H20 C14 1_555 1_555
C15 C14 1_555 1_555
H21 C15 1_555 1_555
H22 C15 1_555 1_555
C16 O4 1_555 1_555
H23 C16 1_555 1_555
C17 C16 1_555 1_555
H24 C17 1_555 1_555
H25 C17 1_555 1_555
C18 C17 1_555 1_555
H26 C18 1_555 1_555
C19 C18 1_555 1_555
C20 C18 1_555 1_555
H27 C20 1_555 1_555
H28 C20 1_555 1_555
H29 C20 1_555 1_555
C5 C6 1_555 1_555
C7 C8 1_555 1_555
C11 C12 1_555 1_555
C11 C13 1_555 1_555
C15 C16 1_555 1_555

#END
