
#######################################################################
#
#                 Cambridge Crystallographic Data Centre
#                                CCDC 
#
#######################################################################
#
# If this CIF has been generated from an entry in the Cambridge 
# Structural Database, then it will include bibliographic, chemical, 
# crystal, experimental, refinement or atomic coordinate data resulting 
# from the CCDC's data processing and validation procedures.
#
#######################################################################

data_IHEDOQ
_chemical_formula_moiety         'C19 H27 N1 O4'
_chemical_name_systematic        
3-(4',6',9',14'-tetraoxaspiro[cyclohexane-1,5'-tetracyclo[6.6.1.0^1,10^.0^3,7^]pentadecan]-13'-yl)propanenitrile
_symmetry_cell_setting           orthorhombic
_symmetry_space_group_name_H-M   'P 21 21 21'
_symmetry_Int_Tables_number      19
_space_group_name_Hall           'P 2ac 2ab'
loop_
_symmetry_equiv_pos_site_id
_symmetry_equiv_pos_as_xyz
1 x,y,z
2 1/2-x,-y,1/2+z
3 -x,1/2+y,1/2-z
4 1/2+x,1/2-y,-z
_cell_length_a                   10.4667(15)
_cell_length_b                   12.9694(18)
_cell_length_c                   12.969
_cell_angle_alpha                90
_cell_angle_beta                 90
_cell_angle_gamma                90
_cell_volume                     1760.5
_exptl_crystal_colour            colorless
_exptl_crystal_description       chunk
_cell_formula_units_Z            4
loop_
_atom_site_label
_atom_site_type_symbol
_atom_site_fract_x
_atom_site_fract_y
_atom_site_fract_z
O1 O 0.11265(8) 0.57163(7) 0.59164(7)
O2 O -0.08580(9) 0.64198(7) 0.56447(6)
O3 O -0.14452(9) 0.42908(7) 0.38621(7)
O4 O 0.07780(8) 0.57218(7) 0.22453(6)
N1 N 0.29097(14) 0.75689(11) -0.09147(11)
C1 C 0.05475(12) 0.51811(9) 0.50719(9)
H1 H 0.0731(14) 0.4463(12) 0.5137(11)
C2 C -0.08701(12) 0.53969(9) 0.52355(9)
H2 H -0.1224(15) 0.4915(13) 0.5731(13)
C3 C -0.16359(12) 0.53296(10) 0.42436(9)
H3 H -0.2556(15) 0.5410(12) 0.4348(12)
C4 C -0.11033(11) 0.60229(9) 0.34034(9)
H4 H -0.1670(15) 0.6058(12) 0.2864(13)
H5 H -0.0913(17) 0.6696(14) 0.3658(14)
C5 C 0.01109(11) 0.54154(8) 0.31508(8)
C6 C 0.10649(11) 0.55588(10) 0.40279(9)
H6 H 0.1866(17) 0.5223(13) 0.3865(13)
H7 H 0.1235(17) 0.6326(14) 0.4105(13)
C7 C -0.04034(12) 0.42936(9) 0.31304(9)
H8 H 0.0250(16) 0.3795(13) 0.3372(11)
C8 C -0.08880(15) 0.39451(10) 0.20803(10)
H9 H -0.1723(16) 0.4268(13) 0.1947(13)
H10 H -0.1021(15) 0.3217(12) 0.2135(12)
C9 C 0.00398(15) 0.42682(11) 0.12388(10)
H11 H 0.087(2) 0.3958(16) 0.1342(14)
H12 H -0.0297(17) 0.4051(15) 0.0589(15)
C10 C 0.02214(12) 0.54288(9) 0.12809(9)
H13 H -0.0627(14) 0.5763(11) 0.1197(10)
C11 C 0.11304(13) 0.58070(10) 0.04551(10)
H14 H 0.1947(17) 0.5512(13) 0.0540(13)
H15 H 0.0731(15) 0.5630(12) -0.0239(12)
C12 C 0.12911(13) 0.69769(10) 0.04841(10)
H16 H 0.1636(17) 0.7246(15) 0.1145(15)
H17 H 0.0466(18) 0.7305(14) 0.0338(13)
C13 C 0.22002(13) 0.73288(10) -0.02972(10)
C14 C 0.02604(12) 0.64999(9) 0.62711(9)
C15 C -0.00492(15) 0.62970(11) 0.74044(9)
H18 H 0.0714(19) 0.6254(14) 0.7756(15)
H19 H -0.0430(16) 0.5642(15) 0.7490(13)
C16 C -0.08791(15) 0.71500(11) 0.78599(10)
H20 H -0.169(2) 0.7136(14) 0.7546(15)
H21 H -0.1027(19) 0.7020(15) 0.8577(15)
C17 C -0.02974(16) 0.82127(12) 0.77022(11)
H22 H -0.091(2) 0.8750(15) 0.7955(15)
H23 H 0.050(2) 0.8300(16) 0.8067(16)
C18 C -0.00257(16) 0.83994(10) 0.65590(11)
H24 H -0.0799(18) 0.8360(13) 0.6198(14)
H25 H 0.0393(18) 0.9140(16) 0.6433(15)
C19 C 0.08346(13) 0.75585(10) 0.61262(10)
H26 H 0.1674(17) 0.7545(13) 0.6490(13)
H27 H 0.1030(17) 0.7672(14) 0.5376(13)
loop_
_geom_bond_atom_site_label_1
_geom_bond_atom_site_label_2
_geom_bond_site_symmetry_1
_geom_bond_site_symmetry_2
O1 C1 1_555 1_555
O2 C2 1_555 1_555
O3 C3 1_555 1_555
O4 C5 1_555 1_555
N1 C13 1_555 1_555
C1 H1 1_555 1_555
C2 C1 1_555 1_555
H2 C2 1_555 1_555
C3 C2 1_555 1_555
H3 C3 1_555 1_555
C4 C3 1_555 1_555
H4 C4 1_555 1_555
H5 C4 1_555 1_555
C5 C4 1_555 1_555
C6 C1 1_555 1_555
H6 C6 1_555 1_555
H7 C6 1_555 1_555
C7 O3 1_555 1_555
H8 C7 1_555 1_555
C8 C7 1_555 1_555
H9 C8 1_555 1_555
H10 C8 1_555 1_555
C9 C8 1_555 1_555
H11 C9 1_555 1_555
H12 C9 1_555 1_555
C10 O4 1_555 1_555
H13 C10 1_555 1_555
C11 C10 1_555 1_555
H14 C11 1_555 1_555
H15 C11 1_555 1_555
C12 C11 1_555 1_555
H16 C12 1_555 1_555
H17 C12 1_555 1_555
C13 C12 1_555 1_555
C14 O1 1_555 1_555
C15 C14 1_555 1_555
H18 C15 1_555 1_555
H19 C15 1_555 1_555
C16 C15 1_555 1_555
H20 C16 1_555 1_555
H21 C16 1_555 1_555
C17 C16 1_555 1_555
H22 C17 1_555 1_555
H23 C17 1_555 1_555
C18 C17 1_555 1_555
H24 C18 1_555 1_555
H25 C18 1_555 1_555
C19 C14 1_555 1_555
H26 C19 1_555 1_555
H27 C19 1_555 1_555
O2 C14 1_555 1_555
C5 C6 1_555 1_555
C5 C7 1_555 1_555
C9 C10 1_555 1_555
C18 C19 1_555 1_555

#END
