
#######################################################################
#
#                 Cambridge Crystallographic Data Centre
#                                CCDC 
#
#######################################################################
#
# If this CIF has been generated from an entry in the Cambridge 
# Structural Database, then it will include bibliographic, chemical, 
# crystal, experimental, refinement or atomic coordinate data resulting 
# from the CCDC's data processing and validation procedures.
#
#######################################################################

data_IHEDEG
_chemical_formula_moiety         'C20 H29 N1 O4'
_chemical_name_systematic        
2-methyl-3-(4',6',9',14'-tetraoxaspiro[cyclohexane-1,5'-tetracyclo[6.6.1.0^1,10^.0^3,7^]pentadecan]-13'-yl)propanenitrile
_symmetry_cell_setting           orthorhombic
_symmetry_space_group_name_H-M   'P 21 21 21'
_symmetry_Int_Tables_number      19
_space_group_name_Hall           'P 2ac 2ab'
loop_
_symmetry_equiv_pos_site_id
_symmetry_equiv_pos_as_xyz
1 x,y,z
2 1/2-x,-y,1/2+z
3 -x,1/2+y,1/2-z
4 1/2+x,1/2-y,-z
_cell_length_a                   8.552(3)
_cell_length_b                   8.745(3)
_cell_length_c                   24.563(8)
_cell_angle_alpha                90
_cell_angle_beta                 90
_cell_angle_gamma                90
_cell_volume                     1837
_exptl_crystal_colour            colorless
_exptl_crystal_description       chunk
_cell_formula_units_Z            4
loop_
_atom_site_label
_atom_site_type_symbol
_atom_site_fract_x
_atom_site_fract_y
_atom_site_fract_z
O1 O 0.87393(12) 0.50692(11) 0.10260(4)
O2 O 0.69922(15) 0.82018(11) 0.02584(4)
O3 O 0.78559(12) 1.02878(11) 0.15137(4)
O4 O 0.57514(13) 0.90286(12) 0.18840(4)
N1 N 1.3741(3) 0.4556(3) 0.09233(11)
C1 C 1.2687(2) 0.3890(2) 0.10679(8)
C2 C 1.13390(18) 0.29794(16) 0.12428(6)
H1 H 1.0830 0.3522 0.1554
C3 C 1.1885(2) 0.14084(18) 0.14460(7)
H2 H 1.2549 0.0929 0.1169
H3 H 1.0973 0.0759 0.1515
H4 H 1.2482 0.1534 0.1784
C4 C 1.01347(18) 0.28415(16) 0.07824(6)
H5 H 1.0618 0.2281 0.0475
H6 H 0.9241 0.2225 0.0914
C5 C 0.95191(18) 0.43606(16) 0.05727(6)
H7 H 1.0413 0.5016 0.0453
C6 C 0.8378(2) 0.41546(17) 0.01044(6)
H8 H 0.7476 0.3529 0.0224
H9 H 0.8898 0.3619 -0.0201
C7 C 0.7814(2) 0.57265(18) -0.00823(6)
H10 H 0.8710 0.6322 -0.0225
H11 H 0.7043 0.5605 -0.0380
C8 C 0.70661(19) 0.65843(15) 0.03898(6)
H12 H 0.5989 0.6181 0.0457
C9 C 0.80324(16) 0.65174(15) 0.09199(5)
C10 C 0.91774(17) 0.78506(15) 0.08354(6)
H13 H 0.9671 0.8178 0.1181
H14 H 0.9997 0.7602 0.0565
C11 C 0.80285(19) 0.90308(16) 0.06220(5)
H15 H 0.8578 0.9882 0.0429
C12 C 0.69772(18) 0.96348(15) 0.10762(6)
H16 H 0.6231 1.0408 0.0927
C13 C 0.60753(17) 0.83572(16) 0.13635(6)
H17 H 0.5073 0.8156 0.1167
C14 C 0.70127(18) 0.68558(15) 0.14180(6)
H18 H 0.7689 0.6920 0.1744
H19 H 0.6274 0.5997 0.1473
C15 C 0.68542(17) 1.02403(16) 0.19832(6)
C16 C 0.78207(19) 0.98642(17) 0.24838(6)
H20 H 0.8464 0.8947 0.2408
H21 H 0.7109 0.9616 0.2789
C17 C 0.8897(2) 1.11794(18) 0.26555(7)
H22 H 0.9431 1.0910 0.3000
H23 H 0.9707 1.1339 0.2373
C18 C 0.7967(2) 1.26512(19) 0.27336(7)
H24 H 0.7231 1.2524 0.3041
H25 H 0.8691 1.3497 0.2824
C19 C 0.7057(2) 1.30535(17) 0.22204(7)
H26 H 0.7799 1.3274 0.1921
H27 H 0.6429 1.3986 0.2287
C20 C 0.59739(19) 1.17456(17) 0.20509(6)
H28 H 0.5149 1.1616 0.2330
H29 H 0.5458 1.2012 0.1703
loop_
_geom_bond_atom_site_label_1
_geom_bond_atom_site_label_2
_geom_bond_site_symmetry_1
_geom_bond_site_symmetry_2
O1 C5 1_555 1_555
O2 C8 1_555 1_555
O3 C12 1_555 1_555
O4 C13 1_555 1_555
N1 C1 1_555 1_555
C1 C2 1_555 1_555
C2 H1 1_555 1_555
C3 C2 1_555 1_555
H2 C3 1_555 1_555
H3 C3 1_555 1_555
H4 C3 1_555 1_555
C4 C2 1_555 1_555
H5 C4 1_555 1_555
H6 C4 1_555 1_555
C5 C4 1_555 1_555
H7 C5 1_555 1_555
C6 C5 1_555 1_555
H8 C6 1_555 1_555
H9 C6 1_555 1_555
C7 C6 1_555 1_555
H10 C7 1_555 1_555
H11 C7 1_555 1_555
C8 C7 1_555 1_555
H12 C8 1_555 1_555
C9 O1 1_555 1_555
C10 C9 1_555 1_555
H13 C10 1_555 1_555
H14 C10 1_555 1_555
C11 O2 1_555 1_555
H15 C11 1_555 1_555
C12 C11 1_555 1_555
H16 C12 1_555 1_555
C13 C12 1_555 1_555
H17 C13 1_555 1_555
C14 C9 1_555 1_555
H18 C14 1_555 1_555
H19 C14 1_555 1_555
C15 O3 1_555 1_555
C16 C15 1_555 1_555
H20 C16 1_555 1_555
H21 C16 1_555 1_555
C17 C16 1_555 1_555
H22 C17 1_555 1_555
H23 C17 1_555 1_555
C18 C17 1_555 1_555
H24 C18 1_555 1_555
H25 C18 1_555 1_555
C19 C18 1_555 1_555
H26 C19 1_555 1_555
H27 C19 1_555 1_555
C20 C15 1_555 1_555
H28 C20 1_555 1_555
H29 C20 1_555 1_555
O4 C15 1_555 1_555
C8 C9 1_555 1_555
C10 C11 1_555 1_555
C13 C14 1_555 1_555
C19 C20 1_555 1_555

#END
