
#######################################################################
#
#                 Cambridge Crystallographic Data Centre
#                                CCDC 
#
#######################################################################
#
# If this CIF has been generated from an entry in the Cambridge 
# Structural Database, then it will include bibliographic, chemical, 
# crystal, experimental, refinement or atomic coordinate data resulting 
# from the CCDC's data processing and validation procedures.
#
#######################################################################

data_IHEFAE
_chemical_formula_moiety         'C17 H24 O7'
_chemical_name_systematic        
"3',5',10'-trioxaspiro[cyclohexane-1,4'-tricyclo[6.2.1.0^2,6^]undecane]-8',9'-diyl diacetate"
_symmetry_cell_setting           orthorhombic
_symmetry_space_group_name_H-M   'P 21 21 21'
_symmetry_Int_Tables_number      19
_space_group_name_Hall           'P 2ac 2ab'
loop_
_symmetry_equiv_pos_site_id
_symmetry_equiv_pos_as_xyz
1 x,y,z
2 1/2-x,-y,1/2+z
3 -x,1/2+y,1/2-z
4 1/2+x,1/2-y,-z
_cell_length_a                   5.8998(14)
_cell_length_b                   13.049(3)
_cell_length_c                   21.788(5)
_cell_angle_alpha                90
_cell_angle_beta                 90
_cell_angle_gamma                90
_cell_volume                     1677.38
_exptl_crystal_colour            colorless
_exptl_crystal_description       needle
_cell_formula_units_Z            4
loop_
_atom_site_label
_atom_site_type_symbol
_atom_site_fract_x
_atom_site_fract_y
_atom_site_fract_z
O1 O 0.3681(2) 0.81032(8) 0.03270(5)
O2 O 0.37082(17) 1.02487(7) -0.07485(5)
O3 O 0.1573(2) 1.11196(9) -0.00354(5)
O4 O 0.58745(19) 0.77646(8) 0.11924(5)
O5 O 0.2854(3) 0.69708(11) 0.16004(7)
O6 O 0.76957(16) 0.96279(8) 0.11625(5)
O7 O 0.53230(19) 0.96697(9) 0.19708(5)
C1 C 0.4411(3) 0.84892(11) 0.08974(7)
H1 H 0.3093 0.8668 0.1165
C2 C 0.5839(2) 0.94492(10) 0.07436(6)
C3 C 0.6788(2) 0.91620(11) 0.01192(7)
H2 H 0.7334 0.9769 -0.0109
H3 H 0.8024 0.8652 0.0152
C4 C 0.4676(3) 0.87090(11) -0.01667(7)
H4 H 0.5039 0.8279 -0.0534
C5 C 0.2905(2) 0.95229(11) -0.03115(7)
H5 H 0.1494 0.9189 -0.0468
C6 C 0.2339(2) 1.01955(11) 0.02432(6)
H6 H 0.1071 0.9878 0.0481
C7 C 0.4357(2) 1.03993(11) 0.06744(6)
H7 H 0.5280 1.0969 0.0508
H8 H 0.3784 1.0609 0.1083
C8 C 0.4869(3) 0.70681(12) 0.15665(8)
C9 C 0.6586(4) 0.64812(15) 0.19164(9)
H9 H 0.5827 0.5963 0.2169
H10 H 0.7439 0.6949 0.2182
H11 H 0.7626 0.6144 0.1630
C10 C 0.7212(3) 0.97087(11) 0.17683(7)
C11 C 0.9322(3) 0.98319(17) 0.21401(8)
H12 H 0.8933 1.0105 0.2546
H13 H 1.0352 1.0307 0.1932
H14 H 1.0065 0.9165 0.2187
C12 C 0.2478(3) 1.11820(12) -0.06472(7)
C13 C 0.4100(3) 1.20733(12) -0.07037(8)
H15 H 0.5464 1.1932 -0.0453
H16 H 0.3367 1.2697 -0.0538
C14 C 0.4822(3) 1.22725(14) -0.13640(8)
H17 H 0.5716 1.1683 -0.1516
H18 H 0.5800 1.2889 -0.1379
C15 C 0.2760(3) 1.24329(13) -0.17770(9)
H19 H 0.1923 1.3052 -0.1644
H20 H 0.3262 1.2538 -0.2206
C16 C 0.1209(3) 1.15033(14) -0.17428(8)
H21 H 0.2013 1.0897 -0.1908
H22 H -0.0147 1.1624 -0.2000
C17 C 0.0471(3) 1.12879(12) -0.10848(7)
H23 H -0.0429 1.0648 -0.1076
H24 H -0.0517 1.1853 -0.0942
loop_
_geom_bond_atom_site_label_1
_geom_bond_atom_site_label_2
_geom_bond_site_symmetry_1
_geom_bond_site_symmetry_2
O1 C1 1_555 1_555
O2 C5 1_555 1_555
O3 C6 1_555 1_555
O4 C1 1_555 1_555
O5 C8 1_555 1_555
O6 C2 1_555 1_555
O7 C10 1_555 1_555
C1 H1 1_555 1_555
C2 C1 1_555 1_555
C3 C2 1_555 1_555
H2 C3 1_555 1_555
H3 C3 1_555 1_555
C4 O1 1_555 1_555
H4 C4 1_555 1_555
C5 C4 1_555 1_555
H5 C5 1_555 1_555
C6 C5 1_555 1_555
H6 C6 1_555 1_555
C7 C2 1_555 1_555
H7 C7 1_555 1_555
H8 C7 1_555 1_555
C8 O4 1_555 1_555
C9 C8 1_555 1_555
H9 C9 1_555 1_555
H10 C9 1_555 1_555
H11 C9 1_555 1_555
C10 O6 1_555 1_555
C11 C10 1_555 1_555
H12 C11 1_555 1_555
H13 C11 1_555 1_555
H14 C11 1_555 1_555
C12 O2 1_555 1_555
C13 C12 1_555 1_555
H15 C13 1_555 1_555
H16 C13 1_555 1_555
C14 C13 1_555 1_555
H17 C14 1_555 1_555
H18 C14 1_555 1_555
C15 C14 1_555 1_555
H19 C15 1_555 1_555
H20 C15 1_555 1_555
C16 C15 1_555 1_555
H21 C16 1_555 1_555
H22 C16 1_555 1_555
C17 C12 1_555 1_555
H23 C17 1_555 1_555
H24 C17 1_555 1_555
O3 C12 1_555 1_555
C3 C4 1_555 1_555
C6 C7 1_555 1_555
C16 C17 1_555 1_555

#END
