
#######################################################################
#
#                 Cambridge Crystallographic Data Centre
#                                CCDC 
#
#######################################################################
#
# If this CIF has been generated from an entry in the Cambridge 
# Structural Database, then it will include bibliographic, chemical, 
# crystal, experimental, refinement or atomic coordinate data resulting 
# from the CCDC's data processing and validation procedures.
#
#######################################################################

data_IHEGAE
_chemical_formula_moiety         'C20 H27 N1 O3'
_chemical_name_systematic        
2-Ethoxy-6-isopropyl-3-(piperidin-1-ylmethylene)-2,3-dihydro-4H-chromen-4-one
_symmetry_cell_setting           monoclinic
_symmetry_space_group_name_H-M   'P 21/n'
_symmetry_Int_Tables_number      14
_space_group_name_Hall           '-P 2yn'
loop_
_symmetry_equiv_pos_site_id
_symmetry_equiv_pos_as_xyz
1 x,y,z
2 1/2-x,1/2+y,1/2-z
3 -x,-y,-z
4 1/2+x,1/2-y,1/2+z
_cell_length_a                   13.385(3)
_cell_length_b                   8.6838(17)
_cell_length_c                   16.684(3)
_cell_angle_alpha                90
_cell_angle_beta                 108.59(3)
_cell_angle_gamma                90
_cell_volume                     1838.04
_exptl_crystal_colour            yellow
_exptl_crystal_description       prismatic
_cell_formula_units_Z            4
loop_
_atom_site_label
_atom_site_type_symbol
_atom_site_fract_x
_atom_site_fract_y
_atom_site_fract_z
N1 N 0.7736(2) 0.7139(3) 0.40695(18)
O1 O 0.9021(2) 0.7730(3) 0.18982(15)
O2 O 1.0374(2) 0.5024(4) 0.39581(18)
O3 O 0.75294(19) 0.6396(3) 0.19188(15)
C1 C 0.9792(3) 0.6688(4) 0.1891(2)
C2 C 1.0138(3) 0.6695(4) 0.1190(2)
H1 H 0.9815 0.7325 0.0730
C3 C 1.0970(3) 0.5751(4) 0.1185(2)
H2 H 1.1200 0.5763 0.0715
C4 C 1.1474(3) 0.4789(4) 0.1856(2)
C5 C 1.1098(3) 0.4800(4) 0.2538(2)
H3 H 1.1418 0.4164 0.2997
C6 C 1.0256(3) 0.5728(4) 0.2564(2)
C7 C 0.9883(3) 0.5747(4) 0.3312(2)
C8 C 0.8921(3) 0.6590(4) 0.3218(2)
C9 C 0.8352(3) 0.7346(4) 0.2391(2)
H4 H 0.8041 0.8304 0.2512
C10 C 0.8596(3) 0.6599(4) 0.3927(2)
H5 H 0.9073 0.6137 0.4397
C11 C 0.7644(3) 0.6996(5) 0.4919(2)
H6 H 0.7534 0.8004 0.5127
H7 H 0.8291 0.6571 0.5302
C12 C 0.6722(4) 0.5947(5) 0.4888(3)
H8 H 0.6877 0.4908 0.4750
H9 H 0.6628 0.5922 0.5441
C13 C 0.5710(4) 0.6491(5) 0.4239(3)
H10 H 0.5158 0.5737 0.4189
H11 H 0.5490 0.7455 0.4425
C14 C 0.5860(3) 0.6718(4) 0.3386(2)
H12 H 0.5976 0.5727 0.3163
H13 H 0.5226 0.7163 0.2996
C15 C 0.6778(3) 0.7751(4) 0.3452(2)
H14 H 0.6880 0.7835 0.2904
H15 H 0.6634 0.8772 0.3624
C16 C 1.2439(3) 0.3854(4) 0.1867(2)
H16 H 1.2573 0.3112 0.2332
C17 C 1.2266(4) 0.2941(5) 0.1054(3)
H17 H 1.1658 0.2294 0.0957
H18 H 1.2874 0.2315 0.1104
H19 H 1.2158 0.3640 0.0588
C18 C 1.3400(3) 0.4871(5) 0.2043(3)
H20 H 1.3497 0.5429 0.2559
H21 H 1.3304 0.5584 0.1585
H22 H 1.4009 0.4246 0.2097
C19 C 0.6828(3) 0.7151(5) 0.1181(3)
H23 H 0.7194 0.7341 0.0774
H24 H 0.6604 0.8134 0.1342
C20 C 0.5902(4) 0.6172(6) 0.0798(4)
H25 H 0.5437 0.6678 0.0310
H26 H 0.5540 0.5993 0.1202
H27 H 0.6126 0.5206 0.0633
loop_
_geom_bond_atom_site_label_1
_geom_bond_atom_site_label_2
_geom_bond_site_symmetry_1
_geom_bond_site_symmetry_2
N1 C10 1_555 1_555
O1 C1 1_555 1_555
O2 C7 1_555 1_555
O3 C9 1_555 1_555
C1 C2 1_555 1_555
C2 H1 1_555 1_555
C3 C2 1_555 1_555
H2 C3 1_555 1_555
C4 C3 1_555 1_555
C5 C4 1_555 1_555
H3 C5 1_555 1_555
C6 C1 1_555 1_555
C7 C6 1_555 1_555
C8 C7 1_555 1_555
C9 O1 1_555 1_555
H4 C9 1_555 1_555
C10 C8 1_555 1_555
H5 C10 1_555 1_555
C11 N1 1_555 1_555
H6 C11 1_555 1_555
H7 C11 1_555 1_555
C12 C11 1_555 1_555
H8 C12 1_555 1_555
H9 C12 1_555 1_555
C13 C12 1_555 1_555
H10 C13 1_555 1_555
H11 C13 1_555 1_555
C14 C13 1_555 1_555
H12 C14 1_555 1_555
H13 C14 1_555 1_555
C15 N1 1_555 1_555
H14 C15 1_555 1_555
H15 C15 1_555 1_555
C16 C4 1_555 1_555
H16 C16 1_555 1_555
C17 C16 1_555 1_555
H17 C17 1_555 1_555
H18 C17 1_555 1_555
H19 C17 1_555 1_555
C18 C16 1_555 1_555
H20 C18 1_555 1_555
H21 C18 1_555 1_555
H22 C18 1_555 1_555
C19 O3 1_555 1_555
H23 C19 1_555 1_555
H24 C19 1_555 1_555
C20 C19 1_555 1_555
H25 C20 1_555 1_555
H26 C20 1_555 1_555
H27 C20 1_555 1_555
C5 C6 1_555 1_555
C8 C9 1_555 1_555
C14 C15 1_555 1_555

#END
