
#######################################################################
#
#                 Cambridge Crystallographic Data Centre
#                                CCDC 
#
#######################################################################
#
# If this CIF has been generated from an entry in the Cambridge 
# Structural Database, then it will include bibliographic, chemical, 
# crystal, experimental, refinement or atomic coordinate data resulting 
# from the CCDC's data processing and validation procedures.
#
#######################################################################

data_IHEGEI
_chemical_formula_moiety         'C42 H70 O35,C16 H30 O6,9.9(H2 O1)'
_chemical_name_systematic        
'\b-Cyclodextrin (-)-menthyl-O-\b-D-glucopyranoside clathrate hydrate'
_symmetry_cell_setting           orthorhombic
_symmetry_space_group_name_H-M   'P 21 21 21'
_symmetry_Int_Tables_number      19
_space_group_name_Hall           'P 2ac 2ab'
loop_
_symmetry_equiv_pos_site_id
_symmetry_equiv_pos_as_xyz
1 x,y,z
2 1/2-x,-y,1/2+z
3 1/2+x,1/2-y,-z
4 -x,1/2+y,1/2-z
_cell_length_a                   15.342(3)
_cell_length_b                   21.983(3)
_cell_length_c                   22.960(4)
_cell_angle_alpha                90
_cell_angle_beta                 90
_cell_angle_gamma                90
_cell_volume                     7743.56
_exptl_crystal_colour            colorless
_exptl_crystal_description       platelet
_cell_formula_units_Z            4
_exptl_crystal_recrystallization_method aqueous
loop_
_atom_site_label
_atom_site_type_symbol
_atom_site_fract_x
_atom_site_fract_y
_atom_site_fract_z
C43 C -0.0260(3) -0.0518(2) 0.4300(2)
H71 H -0.0692 -0.0252 0.4433
C44 C -0.0028(3) -0.0370(2) 0.3676(2)
H72 H 0.0420 -0.0679 0.3526
O36 O 0.0310(3) 0.02277(16) 0.36409(15)
H73 H 0.0821 0.0220 0.3363
C45 C -0.0870(3) -0.0423(2) 0.33205(19)
H74 H -0.1348 -0.0076 0.3507
O37 O -0.0712(3) -0.02571(16) 0.27354(13)
H75 H -0.0475 -0.0553 0.2557
C46 C -0.1287(4) -0.1041(2) 0.3376(2)
H76 H -0.0903 -0.1379 0.3165
O38 O -0.2139(3) -0.10023(18) 0.31169(17)
H77 H -0.2321 -0.1345 0.3046
C47 C -0.1390(4) -0.1194(2) 0.4031(2)
H78 H -0.1795 -0.0923 0.4198
O39 O -0.0575(2) -0.11264(15) 0.43239(14)
C48 C -0.1685(4) -0.1841(2) 0.4157(3)
H79 H -0.1780 -0.1889 0.4602
H80 H -0.2276 -0.1924 0.3952
O40 O -0.1073(3) -0.22768(16) 0.39691(18)
H81 H -0.1179 -0.2447 0.3645
O41 O 0.0465(2) -0.04882(17) 0.46603(14)
C49 C 0.0266(4) -0.0551(2) 0.5281(2)
H82 H -0.0220 -0.0781 0.5323
C50 C 0.0100(4) 0.0070(3) 0.5535(2)
H83 H -0.0433 0.0267 0.5332
H84 H 0.0637 0.0345 0.5459
C51 C -0.0070(5) 0.0035(3) 0.6197(2)
H85 H -0.0568 -0.0223 0.6258
C52 C -0.0255(6) 0.0650(3) 0.6468(3)
H86 H -0.0364 0.0594 0.6939
H87 H -0.0844 0.0843 0.6264
H88 H 0.0301 0.0958 0.6396
C53 C 0.0713(6) -0.0269(3) 0.6480(3)
H89 H 0.0612 -0.0305 0.6894
H90 H 0.1223 -0.0020 0.6425
C54 C 0.0871(6) -0.0896(3) 0.6227(2)
H91 H 0.0368 -0.1161 0.6312
H92 H 0.1386 -0.1074 0.6419
C55 C 0.1027(5) -0.0877(3) 0.5566(2)
H93 H 0.1547 -0.0628 0.5496
C56 C 0.1206(6) -0.1503(3) 0.5305(3)
H94 H 0.1263 -0.1448 0.4892
C57 C 0.2083(7) -0.1745(4) 0.5508(4)
H95 H 0.2526 -0.1443 0.5447
H96 H 0.2043 -0.1838 0.5915
H97 H 0.2231 -0.2107 0.5296
C58 C 0.0458(7) -0.1968(3) 0.5396(3)
H98 H -0.0171 -0.1774 0.5237
H99 H 0.0404 -0.2073 0.5870
H100 H 0.0609 -0.2393 0.5151
O42 O 0.3824(4) 0.3798(3) 0.1170(3)
O43 O 0.9467(4) 0.7801(2) 0.20219(19)
O44 O 0.7788(3) 0.4669(2) 0.0726(2)
O45 O 0.9377(4) 0.2368(3) 0.1009(3)
O46 O 0.2361(7) 0.8771(4) 0.3419(5)
O47 O 0.1325(9) 0.7246(8) 0.2191(5)
O48 O 0.4806(10) 0.4881(7) 0.1081(6)
O50 O 0.3434(10) 0.8909(5) 0.2471(5)
O51 O 0.3626(12) -0.1170(9) 0.4463(7)
O52 O 0.4253(19) -0.1296(17) 0.4497(12)
O53 O 0.5880(5) 0.6862(3) -0.3083(3)
C1 C -0.2293(3) 0.1406(2) 0.4730(2)
H1 H -0.2873 0.1477 0.4663
C2 C -0.1807(3) 0.1403(2) 0.4161(2)
H2 H -0.1894 0.1700 0.4007
O1 O -0.2121(2) 0.09188(16) 0.38018(14)
H3 H -0.2331 0.0682 0.3991
C3 C -0.0827(3) 0.1344(2) 0.4260(2)
H4 H -0.0711 0.0951 0.4426
O2 O -0.0358(2) 0.13970(16) 0.37253(14)
H5 H -0.0115 0.1059 0.3647
C4 C -0.0523(3) 0.1828(2) 0.46846(19)
H6 H -0.0602 0.2253 0.4509
O3 O 0.0373(2) 0.17164(14) 0.48012(14)
C5 C -0.1052(3) 0.1768(2) 0.52451(19)
H7 H -0.0991 0.1336 0.5386
O4 O -0.1961(2) 0.18676(14) 0.51003(14)
C6 C -0.0794(4) 0.2184(2) 0.5733(2)
H8 H -0.1227 0.2173 0.6022
H9 H -0.0275 0.2038 0.5900
O5 O -0.0661(2) 0.27971(14) 0.55530(14)
H10 H -0.0970 0.2915 0.5695
C7 C -0.3443(3) -0.0552(2) 0.5848(2)
H11 H -0.3841 -0.0781 0.5986
C8 C -0.3493(4) -0.0561(2) 0.5196(2)
H12 H -0.4023 -0.0444 0.5090
O6 O -0.3344(3) -0.11661(16) 0.50036(15)
H13 H -0.3726 -0.1263 0.4772
C9 C -0.2840(4) -0.0129(2) 0.49348(19)
H14 H -0.2258 -0.0280 0.5011
O7 O -0.2980(3) -0.01061(16) 0.43172(14)
H15 H -0.2765 0.0146 0.4202
C10 C -0.2934(3) 0.0499(2) 0.51939(19)
H16 H -0.3512 0.0705 0.5046
O8 O -0.2187(2) 0.08252(14) 0.49874(14)
C11 C -0.2926(4) 0.0475(2) 0.5855(2)
H17 H -0.2397 0.0360 0.5979
O9 O -0.3573(2) 0.00487(15) 0.60544(15)
C12 C -0.3166(4) 0.1082(2) 0.6128(2)
H18 H -0.3247 0.1028 0.6523
H19 H -0.2708 0.1349 0.6079
O10 O -0.3920(3) 0.13414(17) 0.5887(2)
H20 H -0.4390 0.1305 0.6159
C13 C -0.1595(3) -0.2069(2) 0.7178(2)
H21 H -0.1609 -0.2389 0.7468
C14 C -0.2003(4) -0.2298(2) 0.6616(2)
H22 H -0.2666 -0.2500 0.6727
O11 O -0.1463(3) -0.27714(18) 0.63850(19)
H23 H -0.1661 -0.3026 0.6410
C15 C -0.2137(4) -0.1797(2) 0.6176(2)
H24 H -0.1582 -0.1666 0.6033
O12 O -0.2632(3) -0.20448(17) 0.57058(16)
H25 H -0.2839 -0.1755 0.5504
C16 C -0.2602(3) -0.1256(2) 0.6455(2)
H26 H -0.3201 -0.1371 0.6559
O13 O -0.2622(2) -0.07788(15) 0.60298(14)
C17 C -0.2113(4) -0.1058(2) 0.7002(2)
H27 H -0.1561 -0.0940 0.6900
O14 O -0.2063(2) -0.15619(16) 0.73942(14)
C18 C -0.2560(4) -0.0548(3) 0.7336(2)
H28 H -0.2135 -0.0398 0.7680
H29 H -0.2683 -0.0167 0.7052
O15 O -0.3345(3) -0.0762(2) 0.75798(17)
H30 H -0.3697 -0.0451 0.7645
C19 C 0.1711(3) -0.2056(2) 0.7831(2)
H31 H 0.2198 -0.2179 0.8102
C20 C 0.1391(3) -0.2617(2) 0.7501(2)
H32 H 0.1159 -0.2948 0.7815
O16 O 0.2084(2) -0.28755(16) 0.71826(18)
H33 H 0.1858 -0.3106 0.6927
C21 C 0.0629(3) -0.2429(2) 0.7112(2)
H34 H 0.0837 -0.2147 0.6815
O17 O 0.0270(3) -0.29592(16) 0.68363(17)
H35 H -0.0240 -0.2879 0.6714
C22 C -0.0079(3) -0.2127(2) 0.7473(2)
H36 H -0.0317 -0.2397 0.7701
O18 O -0.0720(2) -0.19098(15) 0.70722(14)
C23 C 0.0275(3) -0.1610(2) 0.7842(2)
H37 H 0.0415 -0.1335 0.7631
O19 O 0.1028(2) -0.18021(16) 0.81603(13)
C24 C -0.0360(4) -0.1358(2) 0.8282(2)
H38 H -0.0114 -0.1073 0.8477
H39 H -0.0797 -0.1203 0.8104
O20 O -0.0670(2) -0.18205(18) 0.86689(15)
H40 H -0.0273 -0.1937 0.8901
C25 C 0.4169(3) -0.0534(2) 0.7081(2)
H41 H 0.4780 -0.0303 0.7123
C26 C 0.4319(3) -0.1214(2) 0.7012(2)
H42 H 0.4660 -0.1353 0.7339
O21 O 0.4795(2) -0.13225(17) 0.64902(18)
H43 H 0.4954 -0.1678 0.6481
C27 C 0.3459(3) -0.1555(2) 0.7019(2)
H44 H 0.3186 -0.1473 0.6697
O22 O 0.3604(2) -0.21953(15) 0.70390(16)
H45 H 0.3136 -0.2372 0.7077
C28 C 0.2879(3) -0.1371(2) 0.7518(2)
H46 H 0.3099 -0.1504 0.7848
O23 O 0.2040(2) -0.16378(15) 0.74152(13)
C29 C 0.2782(3) -0.0676(2) 0.7531(2)
H47 H 0.2516 -0.0543 0.7155
O24 O 0.3643(2) -0.04149(15) 0.75778(14)
C30 C 0.2231(4) -0.0432(2) 0.8023(2)
H48 H 0.2204 0.0035 0.8000
H49 H 0.1606 -0.0598 0.7990
O25 O 0.2589(3) -0.06189(19) 0.85608(16)
H50 H 0.3161 -0.0465 0.8601
C31 C 0.3820(3) 0.1050(3) 0.5370(2)
H51 H 0.4089 0.1404 0.5081
C32 C 0.4166(4) 0.0440(3) 0.5183(2)
H52 H 0.4741 0.0462 0.5186
O26 O 0.3926(3) 0.0301(2) 0.45995(16)
H53 H 0.3360 0.0298 0.4545
C33 C 0.3907(3) -0.0053(2) 0.5601(2)
H54 H 0.3327 -0.0110 0.5576
O27 O 0.4336(3) -0.06135(17) 0.54816(17)
H55 H 0.4183 -0.0742 0.5148
C34 C 0.4133(4) 0.0126(2) 0.6224(2)
H56 H 0.4756 0.0113 0.6277
O28 O 0.3726(2) -0.03290(16) 0.65765(14)
C35 C 0.3782(4) 0.0745(2) 0.6375(2)
H57 H 0.3105 0.0728 0.6361
O29 O 0.4072(2) 0.11834(15) 0.59541(15)
C36 C 0.4046(4) 0.0985(2) 0.6960(2)
H58 H 0.3772 0.1395 0.7021
H59 H 0.3828 0.0706 0.7273
O30 O 0.4972(3) 0.10389(17) 0.69955(16)
H60 H 0.5107 0.1414 0.7004
C37 C 0.0931(3) 0.2230(2) 0.48379(19)
H61 H 0.0598 0.2601 0.4744
C38 C 0.1643(3) 0.2133(2) 0.4387(2)
H62 H 0.1993 0.2465 0.4384
O31 O 0.1273(2) 0.20629(16) 0.38187(13)
H63 H 0.0780 0.1852 0.3846
C39 C 0.2190(3) 0.1586(2) 0.45491(19)
H64 H 0.1777 0.1152 0.4496
O32 O 0.2926(2) 0.15487(17) 0.41731(14)
H65 H 0.2879 0.1236 0.3888
C40 C 0.2512(3) 0.1625(2) 0.5175(2)
H66 H 0.2955 0.1958 0.5210
O33 O 0.2911(2) 0.10521(15) 0.53204(15)
C41 C 0.1761(3) 0.1752(2) 0.5587(2)
H67 H 0.1402 0.1433 0.5598
O34 O 0.1290(2) 0.22856(15) 0.53968(13)
C42 C 0.2090(4) 0.1905(3) 0.6197(2)
H68 H 0.2178 0.1459 0.6432
H69 H 0.2297 0.2410 0.6335
O35 O 0.1394(3) 0.2039(2) 0.65773(16)
H70 H 0.1172 0.2384 0.6501
O49? O 0.5431(13) 0.4504(10) 0.1315(12)
O54? O 0.1165(18) 0.7150(14) 0.2421(9)
O55? O 0.401(2) -0.177(3) 0.4815(17)
loop_
_geom_bond_atom_site_label_1
_geom_bond_atom_site_label_2
_geom_bond_site_symmetry_1
_geom_bond_site_symmetry_2
C1 H1 1_555 1_555
C2 C1 1_555 1_555
H2 C2 1_555 1_555
O1 C2 1_555 1_555
H3 O1 1_555 1_555
C3 C2 1_555 1_555
H4 C3 1_555 1_555
O2 C3 1_555 1_555
H5 O2 1_555 1_555
C4 C3 1_555 1_555
H6 C4 1_555 1_555
O3 C4 1_555 1_555
C5 C4 1_555 1_555
H7 C5 1_555 1_555
O4 C1 1_555 1_555
C6 C5 1_555 1_555
H8 C6 1_555 1_555
H9 C6 1_555 1_555
O5 C6 1_555 1_555
H10 O5 1_555 1_555
C7 H11 1_555 1_555
C8 C7 1_555 1_555
H12 C8 1_555 1_555
O6 C8 1_555 1_555
H13 O6 1_555 1_555
C9 C8 1_555 1_555
H14 C9 1_555 1_555
O7 C9 1_555 1_555
H15 O7 1_555 1_555
C10 C9 1_555 1_555
H16 C10 1_555 1_555
O8 C1 1_555 1_555
C11 C10 1_555 1_555
H17 C11 1_555 1_555
O9 C7 1_555 1_555
C12 C11 1_555 1_555
H18 C12 1_555 1_555
H19 C12 1_555 1_555
O10 C12 1_555 1_555
H20 O10 1_555 1_555
C13 H21 1_555 1_555
C14 C13 1_555 1_555
H22 C14 1_555 1_555
O11 C14 1_555 1_555
H23 O11 1_555 1_555
C15 C14 1_555 1_555
H24 C15 1_555 1_555
O12 C15 1_555 1_555
H25 O12 1_555 1_555
C16 C15 1_555 1_555
H26 C16 1_555 1_555
O13 C7 1_555 1_555
C17 C16 1_555 1_555
H27 C17 1_555 1_555
O14 C13 1_555 1_555
C18 C17 1_555 1_555
H28 C18 1_555 1_555
H29 C18 1_555 1_555
O15 C18 1_555 1_555
H30 O15 1_555 1_555
C19 H31 1_555 1_555
C20 C19 1_555 1_555
H32 C20 1_555 1_555
O16 C20 1_555 1_555
H33 O16 1_555 1_555
C21 C20 1_555 1_555
H34 C21 1_555 1_555
O17 C21 1_555 1_555
H35 O17 1_555 1_555
C22 C21 1_555 1_555
H36 C22 1_555 1_555
O18 C13 1_555 1_555
C23 C22 1_555 1_555
H37 C23 1_555 1_555
O19 C19 1_555 1_555
C24 C23 1_555 1_555
H38 C24 1_555 1_555
H39 C24 1_555 1_555
O20 C24 1_555 1_555
H40 O20 1_555 1_555
C25 H41 1_555 1_555
C26 C25 1_555 1_555
H42 C26 1_555 1_555
O21 C26 1_555 1_555
H43 O21 1_555 1_555
C27 C26 1_555 1_555
H44 C27 1_555 1_555
O22 C27 1_555 1_555
H45 O22 1_555 1_555
C28 C27 1_555 1_555
H46 C28 1_555 1_555
O23 C19 1_555 1_555
C29 C28 1_555 1_555
H47 C29 1_555 1_555
O24 C25 1_555 1_555
C30 C29 1_555 1_555
H48 C30 1_555 1_555
H49 C30 1_555 1_555
O25 C30 1_555 1_555
H50 O25 1_555 1_555
C31 H51 1_555 1_555
C32 C31 1_555 1_555
H52 C32 1_555 1_555
O26 C32 1_555 1_555
H53 O26 1_555 1_555
C33 C32 1_555 1_555
H54 C33 1_555 1_555
O27 C33 1_555 1_555
H55 O27 1_555 1_555
C34 C33 1_555 1_555
H56 C34 1_555 1_555
O28 C25 1_555 1_555
C35 C34 1_555 1_555
H57 C35 1_555 1_555
O29 C31 1_555 1_555
C36 C35 1_555 1_555
H58 C36 1_555 1_555
H59 C36 1_555 1_555
O30 C36 1_555 1_555
H60 O30 1_555 1_555
C37 O3 1_555 1_555
H61 C37 1_555 1_555
C38 C37 1_555 1_555
H62 C38 1_555 1_555
O31 C38 1_555 1_555
H63 O31 1_555 1_555
C39 C38 1_555 1_555
H64 C39 1_555 1_555
O32 C39 1_555 1_555
H65 O32 1_555 1_555
C40 C39 1_555 1_555
H66 C40 1_555 1_555
O33 C31 1_555 1_555
C41 C40 1_555 1_555
H67 C41 1_555 1_555
O34 C37 1_555 1_555
C42 C41 1_555 1_555
H68 C42 1_555 1_555
H69 C42 1_555 1_555
O35 C42 1_555 1_555
H70 O35 1_555 1_555
C43 H71 1_555 1_555
C44 C43 1_555 1_555
H72 C44 1_555 1_555
O36 C44 1_555 1_555
H73 O36 1_555 1_555
C45 C44 1_555 1_555
H74 C45 1_555 1_555
O37 C45 1_555 1_555
H75 O37 1_555 1_555
C46 C45 1_555 1_555
H76 C46 1_555 1_555
O38 C46 1_555 1_555
H77 O38 1_555 1_555
C47 C46 1_555 1_555
H78 C47 1_555 1_555
O39 C43 1_555 1_555
C48 C47 1_555 1_555
H79 C48 1_555 1_555
H80 C48 1_555 1_555
O40 C48 1_555 1_555
H81 O40 1_555 1_555
O41 C43 1_555 1_555
C49 O41 1_555 1_555
H82 C49 1_555 1_555
C50 C49 1_555 1_555
H83 C50 1_555 1_555
H84 C50 1_555 1_555
C51 C50 1_555 1_555
H85 C51 1_555 1_555
C52 C51 1_555 1_555
H86 C52 1_555 1_555
H87 C52 1_555 1_555
H88 C52 1_555 1_555
C53 C51 1_555 1_555
H89 C53 1_555 1_555
H90 C53 1_555 1_555
C54 C53 1_555 1_555
H91 C54 1_555 1_555
H92 C54 1_555 1_555
C55 C49 1_555 1_555
H93 C55 1_555 1_555
C56 C55 1_555 1_555
H94 C56 1_555 1_555
C57 C56 1_555 1_555
H95 C57 1_555 1_555
H96 C57 1_555 1_555
H97 C57 1_555 1_555
C58 C56 1_555 1_555
H98 C58 1_555 1_555
H99 C58 1_555 1_555
H100 C58 1_555 1_555
O51 O52 1_555 1_555
C5 O4 1_555 1_555
C10 O8 1_555 1_555
C11 O9 1_555 1_555
C16 O13 1_555 1_555
C17 O14 1_555 1_555
C22 O18 1_555 1_555
C23 O19 1_555 1_555
C28 O23 1_555 1_555
C29 O24 1_555 1_555
C34 O28 1_555 1_555
C35 O29 1_555 1_555
C40 O33 1_555 1_555
C41 O34 1_555 1_555
C47 O39 1_555 1_555
C54 C55 1_555 1_555

#END
