
#######################################################################
#
#                 Cambridge Crystallographic Data Centre
#                                CCDC 
#
#######################################################################
#
# If this CIF has been generated from an entry in the Cambridge 
# Structural Database, then it will include bibliographic, chemical, 
# crystal, experimental, refinement or atomic coordinate data resulting 
# from the CCDC's data processing and validation procedures.
#
#######################################################################

data_IHEJEM
_chemical_name_common            2-Hydroxy-7,8-dioxa[6]helicene-13-tosylate
_chemical_formula_moiety         'C29 H18 O6 S1'
_chemical_name_systematic        
"13-hydroxynaphtho[2,1-b]naphtho[1',2':4,5]furo[3,2-d]furan-2-yl 4-methylbenzenesulfonate"
_symmetry_cell_setting           triclinic
_symmetry_space_group_name_H-M   'P -1'
_symmetry_Int_Tables_number      2
_space_group_name_Hall           '-P 1'
loop_
_symmetry_equiv_pos_site_id
_symmetry_equiv_pos_as_xyz
1 x,y,z
2 -x,-y,-z
_cell_length_a                   9.5106(8)
_cell_length_b                   9.8857(11)
_cell_length_c                   12.4619(11)
_cell_angle_alpha                73.308(9)
_cell_angle_beta                 85.877(7)
_cell_angle_gamma                84.372(8)
_cell_volume                     1115.7
_exptl_crystal_colour            colorless
_exptl_crystal_description       block
_cell_formula_units_Z            2
loop_
_atom_site_label
_atom_site_type_symbol
_atom_site_fract_x
_atom_site_fract_y
_atom_site_fract_z
S1 S 0.20002(5) 0.11235(5) 0.45302(4)
O1 O -0.06592(15) 0.45622(15) 0.34617(12)
H1 H -0.0153 0.3828 0.3514
O2 O 0.27052(15) 0.67130(15) -0.20608(11)
O3 O 0.42946(15) 0.47098(15) -0.19169(11)
O4 O 0.35123(13) 0.16706(13) 0.40659(10)
O5 O 0.09716(15) 0.19216(14) 0.37658(12)
O6 O 0.19252(17) 0.11862(15) 0.56522(11)
C1 C 0.05593(18) 0.52142(18) 0.16577(15)
H2 H 0.1074 0.4336 0.1805
C2 C -0.04039(19) 0.54948(19) 0.24490(16)
C3 C -0.1197(2) 0.6814(2) 0.22421(19)
H3 H -0.1823 0.7017 0.2793
C4 C -0.1039(2) 0.7783(2) 0.1236(2)
H4 H -0.1590 0.8641 0.1098
C5 C 0.0019(2) 0.8557(2) -0.06771(19)
H5 H -0.0551 0.9402 -0.0805
C6 C 0.0913(2) 0.8330(2) -0.15113(18)
H6 H 0.0959 0.8986 -0.2215
C7 C 0.1757(2) 0.7067(2) -0.12593(16)
C8 C 0.17921(18) 0.60301(17) -0.02311(14)
C9 C -0.0075(2) 0.75424(19) 0.03895(17)
C10 C 0.07847(18) 0.62333(17) 0.06242(15)
C11 C 0.29004(18) 0.49633(18) -0.03904(14)
C12 C 0.3300(2) 0.5468(2) -0.14765(15)
C13 C 0.38348(18) 0.36675(18) -0.00242(15)
C14 C 0.4618(2) 0.3563(2) -0.09878(16)
C15 C 0.5622(2) 0.2478(2) -0.10668(19)
H7 H 0.6094 0.2468 -0.1745
C16 C 0.5884(2) 0.1431(2) -0.01135(19)
H8 H 0.6530 0.0671 -0.0141
C17 C 0.5532(2) 0.0396(2) 0.19154(18)
H9 H 0.6173 -0.0360 0.1869
C18 C 0.4948(2) 0.04324(19) 0.29331(17)
H10 H 0.5169 -0.0292 0.3577
C19 C 0.40040(18) 0.15905(18) 0.29867(15)
C20 C 0.36203(17) 0.26498(17) 0.20615(14)
H11 H 0.2990 0.3402 0.2136
C21 C 0.51970(19) 0.14682(19) 0.09264(17)
C22 C 0.41734(17) 0.26104(17) 0.09927(15)
C23 C 0.21670(18) -0.06174(18) 0.44651(14)
C24 C 0.1641(2) -0.0957(2) 0.35781(16)
H12 H 0.1148 -0.0269 0.3031
C25 C 0.1860(2) -0.2326(2) 0.35180(18)
H13 H 0.1500 -0.2562 0.2927
C26 C 0.2604(2) -0.3363(2) 0.43147(17)
C27 C 0.3120(2) -0.2994(2) 0.51882(16)
H14 H 0.3628 -0.3679 0.5728
C28 C 0.2902(2) -0.16356(19) 0.52791(15)
H15 H 0.3243 -0.1405 0.5880
C29 C 0.2825(3) -0.4863(2) 0.4252(2)
H16 H 0.3574 -0.5358 0.4725
H17 H 0.3073 -0.4865 0.3492
H18 H 0.1970 -0.5326 0.4498
loop_
_geom_bond_atom_site_label_1
_geom_bond_atom_site_label_2
_geom_bond_site_symmetry_1
_geom_bond_site_symmetry_2
S1 O4 1_555 1_555
O1 H1 1_555 1_555
O2 C7 1_555 1_555
O3 C12 1_555 1_555
O4 C19 1_555 1_555
O5 S1 1_555 1_555
O6 S1 1_555 1_555
C1 H2 1_555 1_555
C2 O1 1_555 1_555
C3 C2 1_555 1_555
H3 C3 1_555 1_555
C4 C3 1_555 1_555
H4 C4 1_555 1_555
C5 H5 1_555 1_555
C6 C5 1_555 1_555
H6 C6 1_555 1_555
C7 C6 1_555 1_555
C8 C7 1_555 1_555
C9 C4 1_555 1_555
C10 C1 1_555 1_555
C11 C8 1_555 1_555
C12 O2 1_555 1_555
C13 C11 1_555 1_555
C14 O3 1_555 1_555
C15 C14 1_555 1_555
H7 C15 1_555 1_555
C16 C15 1_555 1_555
H8 C16 1_555 1_555
C17 H9 1_555 1_555
C18 C17 1_555 1_555
H10 C18 1_555 1_555
C19 C18 1_555 1_555
C20 C19 1_555 1_555
H11 C20 1_555 1_555
C21 C16 1_555 1_555
C22 C13 1_555 1_555
C23 S1 1_555 1_555
C24 C23 1_555 1_555
H12 C24 1_555 1_555
C25 C24 1_555 1_555
H13 C25 1_555 1_555
C26 C25 1_555 1_555
C27 C26 1_555 1_555
H14 C27 1_555 1_555
C28 C23 1_555 1_555
H15 C28 1_555 1_555
C29 C26 1_555 1_555
H16 C29 1_555 1_555
H17 C29 1_555 1_555
H18 C29 1_555 1_555
C1 C2 1_555 1_555
C5 C9 1_555 1_555
C8 C10 1_555 1_555
C9 C10 1_555 1_555
C11 C12 1_555 1_555
C13 C14 1_555 1_555
C17 C21 1_555 1_555
C20 C22 1_555 1_555
C21 C22 1_555 1_555
C27 C28 1_555 1_555

#END
