
#######################################################################
#
#                 Cambridge Crystallographic Data Centre
#                                CCDC 
#
#######################################################################
#
# If this CIF has been generated from an entry in the Cambridge 
# Structural Database, then it will include bibliographic, chemical, 
# crystal, experimental, refinement or atomic coordinate data resulting 
# from the CCDC's data processing and validation procedures.
#
#######################################################################

data_IHEPUG01
_chemical_formula_moiety         'C8 H11 N1 O2'
_chemical_name_systematic        Perhydrophthalimide
_symmetry_cell_setting           orthorhombic
_symmetry_space_group_name_H-M   'P 21 21 21'
_symmetry_Int_Tables_number      19
_space_group_name_Hall           'P 2ac 2ab'
loop_
_symmetry_equiv_pos_site_id
_symmetry_equiv_pos_as_xyz
1 x,y,z
2 1/2-x,-y,1/2+z
3 -x,1/2+y,1/2-z
4 1/2+x,1/2-y,-z
_cell_length_a                   6.7574(12)
_cell_length_b                   7.8615(14)
_cell_length_c                   14.371(3)
_cell_angle_alpha                90
_cell_angle_beta                 90
_cell_angle_gamma                90
_cell_volume                     763.435
_exptl_crystal_colour            colorless
_exptl_crystal_description       block
_cell_formula_units_Z            4
_exptl_crystal_recrystallization_method 'ethyl acetate'
loop_
_atom_site_label
_atom_site_type_symbol
_atom_site_fract_x
_atom_site_fract_y
_atom_site_fract_z
O1 O 0.47695(15) 0.91918(12) 0.12610(7)
O2 O -0.03151(14) 0.63013(12) 0.25855(7)
N1 N 0.20581(16) 0.80816(13) 0.20032(7)
H1 H 0.148(2) 0.903(2) 0.2135(11)
C1 C 0.26087(16) 0.51872(14) 0.17742(8)
H2 H 0.2780 0.4225 0.2200
C2 C 0.16634(17) 0.46046(16) 0.08509(8)
H3 H 0.0623 0.3789 0.0982
H4 H 0.1066 0.5577 0.0545
C3 C 0.3167(2) 0.37982(18) 0.02014(9)
H5 H 0.3715 0.2787 0.0490
H6 H 0.2521 0.3461 -0.0372
C4 C 0.48208(18) 0.50434(17) -0.00141(8)
H7 H 0.4270 0.6053 -0.0303
H8 H 0.5737 0.4528 -0.0451
C5 C 0.59260(17) 0.55445(19) 0.08653(10)
H9 H 0.6858 0.6443 0.0717
H10 H 0.6678 0.4574 0.1085
C6 C 0.45644(16) 0.61537(15) 0.16426(8)
H11 H 0.5305 0.6043 0.2226
C7 C 0.38956(17) 0.79860(15) 0.15769(7)
C8 C 0.12617(18) 0.65170(15) 0.21917(8)
loop_
_geom_bond_atom_site_label_1
_geom_bond_atom_site_label_2
_geom_bond_site_symmetry_1
_geom_bond_site_symmetry_2
O1 C7 1_555 1_555
O2 C8 1_555 1_555
N1 H1 1_555 1_555
C1 H2 1_555 1_555
C2 C1 1_555 1_555
H3 C2 1_555 1_555
H4 C2 1_555 1_555
C3 C2 1_555 1_555
H5 C3 1_555 1_555
H6 C3 1_555 1_555
C4 C3 1_555 1_555
H7 C4 1_555 1_555
H8 C4 1_555 1_555
C5 C4 1_555 1_555
H9 C5 1_555 1_555
H10 C5 1_555 1_555
C6 C1 1_555 1_555
H11 C6 1_555 1_555
C7 N1 1_555 1_555
C8 N1 1_555 1_555
C1 C8 1_555 1_555
C5 C6 1_555 1_555
C6 C7 1_555 1_555

#END
