
#######################################################################
#
#                 Cambridge Crystallographic Data Centre
#                                CCDC 
#
#######################################################################
#
# If this CIF has been generated from an entry in the Cambridge 
# Structural Database, then it will include bibliographic, chemical, 
# crystal, experimental, refinement or atomic coordinate data resulting 
# from the CCDC's data processing and validation procedures.
#
#######################################################################

data_IHEPAO
_chemical_formula_moiety         'C19 H19 Cl2 N1 O1'
_chemical_name_systematic        
2-((4-chlorophenyl)((4-chlorophenyl)amino)methyl)cyclohexanone
_symmetry_cell_setting           monoclinic
_symmetry_space_group_name_H-M   'P 21/n'
_symmetry_Int_Tables_number      14
_space_group_name_Hall           '-P 2yn'
loop_
_symmetry_equiv_pos_site_id
_symmetry_equiv_pos_as_xyz
1 x,y,z
2 1/2-x,1/2+y,1/2-z
3 -x,-y,-z
4 1/2+x,1/2-y,1/2+z
_cell_length_a                   12.7822(8)
_cell_length_b                   9.2192(7)
_cell_length_c                   14.7283(8)
_cell_angle_alpha                90
_cell_angle_beta                 97.896(6)
_cell_angle_gamma                90
_cell_volume                     1719.15
_cell_formula_units_Z            4
loop_
_atom_site_label
_atom_site_type_symbol
_atom_site_fract_x
_atom_site_fract_y
_atom_site_fract_z
Cl1 Cl 1.21543(5) 1.11610(9) 0.23133(5)
Cl2 Cl 0.90146(6) 0.25670(9) -0.06231(5)
C1 C 0.98303(18) 0.8495(2) 0.27907(15)
H1 H 0.9728 0.7788 0.3220
C2 C 0.90134(17) 0.8821(2) 0.20963(13)
C3 C 1.01472(19) 1.0614(3) 0.15457(16)
H2 H 1.0252 1.1337 0.1127
C4 C 0.77822(16) 0.6491(2) 0.07213(13)
C5 C 0.62332(17) 0.7747(2) 0.13167(14)
H3 H 0.6158 0.7043 0.1802
C6 C 1.09482(17) 1.0251(3) 0.22286(16)
C7 C 0.91906(18) 0.9910(3) 0.14815(15)
H4 H 0.8653 1.0166 0.1019
C8 C 0.85431(18) 0.4087(3) -0.01041(16)
C9 C 0.5836(2) 0.9205(3) 0.15982(16)
C10 C 0.77899(19) 0.5133(3) 0.11272(15)
H5 H 0.7534 0.5031 0.1685
C11 C 0.8170(2) 0.3928(3) 0.07211(16)
H6 H 0.8173 0.3024 0.1002
C12 C 0.81596(19) 0.6606(3) -0.01119(15)
H7 H 0.8157 0.7504 -0.0399
C13 C 0.8541(2) 0.5402(3) -0.05246(17)
H8 H 0.8794 0.5492 -0.1085
C14 C 0.55032(19) 0.7288(3) 0.04465(16)
H9 H 0.5608 0.7942 -0.0049
H10 H 0.5698 0.6320 0.0272
C15 C 0.4343(2) 0.7294(3) 0.0571(2)
H11 H 0.3919 0.7093 -0.0014
H12 H 0.4215 0.6527 0.0993
C16 C 0.4001(2) 0.8727(3) 0.0934(2)
H13 H 0.3279 0.8645 0.1065
H14 H 0.4017 0.9469 0.0469
C17 C 0.4713(2) 0.9179(3) 0.1801(2)
H15 H 0.4512 1.0133 0.1994
H16 H 0.4646 0.8497 0.2291
C18 C 1.07901(19) 0.9200(3) 0.28556(16)
H17 H 1.1328 0.8964 0.3323
N1 N 0.80496(14) 0.8096(2) 0.20661(11)
H18 H 0.7839 0.7810 0.2566
C19 C 0.73943(16) 0.7819(2) 0.11829(13)
H19 H 0.7476 0.8652 0.0786
O1 O 0.63388(14) 1.03159(19) 0.15679(12)
loop_
_geom_bond_atom_site_label_1
_geom_bond_atom_site_label_2
_geom_bond_site_symmetry_1
_geom_bond_site_symmetry_2
Cl1 C6 1_555 1_555
Cl2 C8 1_555 1_555
C1 H1 1_555 1_555
C2 C1 1_555 1_555
C3 H2 1_555 1_555
C4 C10 1_555 1_555
C5 H3 1_555 1_555
C6 C3 1_555 1_555
C7 C2 1_555 1_555
H4 C7 1_555 1_555
C8 C11 1_555 1_555
C9 C5 1_555 1_555
C10 H5 1_555 1_555
C11 C10 1_555 1_555
H6 C11 1_555 1_555
C12 C4 1_555 1_555
H7 C12 1_555 1_555
C13 C8 1_555 1_555
H8 C13 1_555 1_555
C14 C5 1_555 1_555
H9 C14 1_555 1_555
H10 C14 1_555 1_555
C15 C14 1_555 1_555
H11 C15 1_555 1_555
H12 C15 1_555 1_555
C16 C15 1_555 1_555
H13 C16 1_555 1_555
H14 C16 1_555 1_555
C17 C9 1_555 1_555
H15 C17 1_555 1_555
H16 C17 1_555 1_555
C18 C1 1_555 1_555
H17 C18 1_555 1_555
N1 C2 1_555 1_555
H18 N1 1_555 1_555
C19 C4 1_555 1_555
H19 C19 1_555 1_555
O1 C9 1_555 1_555
C3 C7 1_555 1_555
C5 C19 1_555 1_555
C6 C18 1_555 1_555
C12 C13 1_555 1_555
C16 C17 1_555 1_555
N1 C19 1_555 1_555

#END
