
#######################################################################
#
#                 Cambridge Crystallographic Data Centre
#                                CCDC 
#
#######################################################################
#
# If this CIF has been generated from an entry in the Cambridge 
# Structural Database, then it will include bibliographic, chemical, 
# crystal, experimental, refinement or atomic coordinate data resulting 
# from the CCDC's data processing and validation procedures.
#
#######################################################################

data_IHEQIX
_chemical_formula_moiety         'C25 H27 N1 O3 S1'
_chemical_name_systematic        
N-(2-(4-methylphenyl)-1-oxo-1-phenylhexan-2-yl)benzenesulfonamide
_symmetry_cell_setting           triclinic
_symmetry_space_group_name_H-M   'P -1'
_symmetry_Int_Tables_number      2
_space_group_name_Hall           '-P 1'
loop_
_symmetry_equiv_pos_site_id
_symmetry_equiv_pos_as_xyz
1 x,y,z
2 -x,-y,-z
_cell_length_a                   10.118(5)
_cell_length_b                   11.626(5)
_cell_length_c                   11.966(5)
_cell_angle_alpha                72.126(5)
_cell_angle_beta                 65.159(5)
_cell_angle_gamma                66.608(5)
_cell_volume                     1155.65
_exptl_crystal_colour            colorless
_exptl_crystal_description       block
_cell_formula_units_Z            2
loop_
_atom_site_label
_atom_site_type_symbol
_atom_site_fract_x
_atom_site_fract_y
_atom_site_fract_z
S1 S 0.21532(10) -0.55567(8) 0.82215(7)
O1 O 0.2752(3) -0.5546(2) 0.69122(19)
O2 O 0.0754(3) -0.5851(2) 0.8954(2)
N1 N 0.1866(3) -0.4177(2) 0.8454(2)
H1 H 0.1178 -0.3960 0.9146
C1 C 0.4375(3) -0.3822(3) 0.7346(3)
C2 C 0.2654(3) -0.3237(3) 0.7611(3)
O3 O 0.1116(3) -0.2249(3) 0.9420(2)
C3 C 0.2221(4) -0.2696(3) 0.6423(3)
H2 H 0.2693 -0.2035 0.5933
H3 H 0.2658 -0.3368 0.5932
C4 C 0.2460(3) -0.0965(3) 0.7821(3)
C5 C 0.5427(3) -0.4095(3) 0.6190(3)
H4 H 0.5088 -0.3896 0.5521
C6 C 0.2020(4) -0.2154(3) 0.8376(3)
C7 C 0.1401(4) 0.0127(3) 0.8298(3)
H5 H 0.0451 0.0094 0.8886
C8 C 0.6981(4) -0.4662(3) 0.6009(3)
H6 H 0.7664 -0.4838 0.5222
C9 C 0.7518(4) -0.4964(4) 0.6971(4)
C10 C 0.3851(4) -0.0876(3) 0.6934(3)
H7 H 0.4573 -0.1587 0.6587
C11 C 0.4179(4) 0.0258(3) 0.6556(3)
H8 H 0.5123 0.0302 0.5963
C12 C 0.3560(5) -0.6694(3) 0.8826(4)
C13 C 0.4947(4) -0.4118(3) 0.8314(3)
H9 H 0.4275 -0.3938 0.9102
C14 C 0.0514(4) -0.2144(4) 0.6630(4)
H10 H 0.0006 -0.2751 0.7225
H11 H 0.0100 -0.1379 0.6990
C15 C 0.6472(4) -0.4665(4) 0.8120(3)
H12 H 0.6821 -0.4844 0.8779
C16 C 0.3138(5) 0.1306(3) 0.7041(4)
H13 H 0.3372 0.2064 0.6785
C17 C 0.1732(5) 0.1254(3) 0.7915(4)
H14 H 0.1013 0.1975 0.8242
C18 C 0.5060(6) -0.7079(4) 0.8058(5)
H15 H 0.5342 -0.6718 0.7217
C19 C 0.4277(11) -0.8148(7) 1.0501(6)
H16 H 0.4005 -0.8497 1.1345
C20 C 0.3149(7) -0.7232(5) 1.0058(4)
H17 H 0.2137 -0.6988 1.0587
C21 C 0.0168(5) -0.1832(4) 0.5452(5)
H18 H 0.0637 -0.2589 0.5071
H19 H 0.0637 -0.1195 0.4875
C22 C 0.9217(5) -0.5600(6) 0.6775(5)
H20 H 0.9763 -0.5730 0.5924
H21 H 0.9362 -0.6405 0.7323
H22 H 0.9597 -0.5066 0.6956
C23 C 0.6153(7) -0.8006(5) 0.8540(8)
H23 H 0.7173 -0.8259 0.8029
C24 C -0.1528(6) -0.1343(6) 0.5630(6)
H24 H -0.1655 -0.1164 0.4836
H25 H -0.2001 -0.0579 0.5986
H26 H -0.2002 -0.1976 0.6181
C25 C 0.5715(11) -0.8549(7) 0.9783(9)
H27 H 0.6429 -0.9193 1.0111
loop_
_geom_bond_atom_site_label_1
_geom_bond_atom_site_label_2
_geom_bond_site_symmetry_1
_geom_bond_site_symmetry_2
S1 O1 1_555 1_555
O2 S1 1_555 1_555
N1 S1 1_555 1_555
H1 N1 1_555 1_555
C1 C2 1_555 1_555
C2 N1 1_555 1_555
O3 C6 1_555 1_555
C3 C2 1_555 1_555
H2 C3 1_555 1_555
H3 C3 1_555 1_555
C4 C6 1_555 1_555
C5 C1 1_555 1_555
H4 C5 1_555 1_555
C6 C2 1_555 1_555
C7 C4 1_555 1_555
H5 C7 1_555 1_555
C8 C5 1_555 1_555
H6 C8 1_555 1_555
C9 C8 1_555 1_555
C10 C4 1_555 1_555
H7 C10 1_555 1_555
C11 C10 1_555 1_555
H8 C11 1_555 1_555
C12 S1 1_555 1_555
C13 C1 1_555 1_555
H9 C13 1_555 1_555
C14 C3 1_555 1_555
H10 C14 1_555 1_555
H11 C14 1_555 1_555
C15 C9 1_555 1_555
H12 C15 1_555 1_555
C16 C11 1_555 1_555
H13 C16 1_555 1_555
C17 C7 1_555 1_555
H14 C17 1_555 1_555
C18 C12 1_555 1_555
H15 C18 1_555 1_555
C19 H16 1_555 1_555
C20 C12 1_555 1_555
H17 C20 1_555 1_555
C21 C14 1_555 1_555
H18 C21 1_555 1_555
H19 C21 1_555 1_555
C22 C9 1_555 1_555
H20 C22 1_555 1_555
H21 C22 1_555 1_555
H22 C22 1_555 1_555
C23 C18 1_555 1_555
H23 C23 1_555 1_555
C24 C21 1_555 1_555
H24 C24 1_555 1_555
H25 C24 1_555 1_555
H26 C24 1_555 1_555
C25 C19 1_555 1_555
H27 C25 1_555 1_555
C13 C15 1_555 1_555
C16 C17 1_555 1_555
C19 C20 1_555 1_555
C23 C25 1_555 1_555

#END
