
#######################################################################
#
#                 Cambridge Crystallographic Data Centre
#                                CCDC 
#
#######################################################################
#
# If this CIF has been generated from an entry in the Cambridge 
# Structural Database, then it will include bibliographic, chemical, 
# crystal, experimental, refinement or atomic coordinate data resulting 
# from the CCDC's data processing and validation procedures.
#
#######################################################################

data_IHEROE
_chemical_formula_moiety         'C96 H142 Li2 Mg2 O10'
_chemical_name_systematic        
bis(\m-2,2'-((5-t-butyl-2-oxy-1,3-phenylene)bis(methylene))bis(4,6-di-t-butylphenolato))-tetrakis(tetrahydrofuran)-di-lithium-di-magnesium
_symmetry_cell_setting           orthorhombic
_symmetry_space_group_name_H-M   'C c c a'
_symmetry_Int_Tables_number      68
_space_group_name_Hall           '-C 2b 2bc'
loop_
_symmetry_equiv_pos_site_id
_symmetry_equiv_pos_as_xyz
1 x,y,z
2 1/2-x,-y,z
3 -x,y,1/2-z
4 1/2+x,-y,1/2-z
5 1/2+x,1/2+y,z
6 -x,1/2-y,z
7 1/2-x,1/2+y,1/2-z
8 x,1/2-y,1/2-z
9 -x,-y,-z
10 1/2+x,y,-z
11 x,-y,1/2+z
12 1/2-x,y,1/2+z
13 1/2-x,1/2-y,-z
14 x,1/2+y,-z
15 1/2+x,1/2-y,1/2+z
16 -x,1/2+y,1/2+z
_cell_length_a                   21.310(10)
_cell_length_b                   27.370(12)
_cell_length_c                   21.250(10)
_cell_angle_alpha                90
_cell_angle_beta                 90
_cell_angle_gamma                90
_cell_volume                     12394.2
_exptl_crystal_colour            colorless
_exptl_crystal_description       block
_cell_formula_units_Z            4
_chemical_properties_physical    
'Air-sensitive, Moisture-sensitive, Oxygen-sensitive'
_exptl_crystal_recrystallization_method tetrahydrofuran
loop_
_atom_site_label
_atom_site_type_symbol
_atom_site_fract_x
_atom_site_fract_y
_atom_site_fract_z
Mg1 Mg 0.0000 0.2500 0.31751(5)
Li1 Li 0.0000 0.2500 0.4465(3)
O1 O 0.06484(6) 0.25087(5) 0.38058(7)
O2 O 0.0000 0.29996(6) 0.2500
O3 O -0.01880(9) 0.19683(8) 0.50745(10)
C1 C 0.11355(10) 0.28201(8) 0.37213(10)
C2 C 0.17655(11) 0.26450(8) 0.37154(13)
C3 C 0.22338(12) 0.29982(10) 0.36417(13)
H1 H 0.2648 0.2892 0.3649
C4 C 0.21289(12) 0.34893(9) 0.35597(14)
C5 C 0.15141(11) 0.36391(9) 0.35542(11)
H2 H 0.1427 0.3968 0.3492
C6 C 0.10214(10) 0.33193(8) 0.36375(11)
C7 C 0.03535(10) 0.35158(8) 0.36454(11)
H3 H 0.0068 0.3247 0.3727
H4 H 0.0313 0.3747 0.3989
C8 C 0.01584(10) 0.37657(7) 0.30397(10)
C9 C 0.01491(11) 0.42729(8) 0.30287(12)
H5 H 0.0248 0.4441 0.3396
C10 C 0.0000 0.45378(12) 0.2500
C11 C 0.0000 0.35001(10) 0.2500
C12 C 0.19161(11) 0.21081(9) 0.37881(15)
C13 C 0.16747(15) 0.19144(12) 0.44010(15)
H6 H 0.1852 0.2099 0.4741
H7 H 0.1791 0.1577 0.4443
H8 H 0.1226 0.1943 0.4411
C14 C 0.26296(13) 0.20176(13) 0.3786(2)
H9 H 0.2805 0.2133 0.3398
H10 H 0.2710 0.1674 0.3828
H11 H 0.2819 0.2189 0.4132
C15 C 0.16166(14) 0.18184(11) 0.32438(18)
H12 H 0.1176 0.1890 0.3224
H13 H 0.1676 0.1475 0.3314
H14 H 0.1812 0.1910 0.2854
C16 C 0.26779(14) 0.38416(11) 0.34537(18)
C17 C 0.32129(18) 0.37377(18) 0.3905(3)
H15 H 0.3518 0.3995 0.3877
H16 H 0.3405 0.3432 0.3796
H17 H 0.3054 0.3721 0.4327
C18 C 0.2459(3) 0.43641(19) 0.3513(6)
H18 H 0.2309 0.4421 0.3932
H19 H 0.2128 0.4423 0.3217
H20 H 0.2803 0.4580 0.3426
C19 C 0.2912(3) 0.3780(3) 0.2773(3)
H21 H 0.2784 0.4057 0.2527
H22 H 0.2736 0.3488 0.2595
H23 H 0.3361 0.3757 0.2771
C20 C 0.0000 0.50995(13) 0.2500
C21 C 0.0623(5) 0.5246(2) 0.2067(6)
H24 H 0.0888 0.4964 0.2020
H25 H 0.0853 0.5502 0.2271
H26 H 0.0487 0.5355 0.1660
C22 C -0.0343(3) 0.53170(14) 0.2016(3)
H27 H -0.0320 0.5666 0.2056
H28 H -0.0773 0.5215 0.2042
H29 H -0.0171 0.5220 0.1618
C23 C -0.08027(18) 0.18796(17) 0.53116(17)
H30 H -0.0999 0.2184 0.5438
H31 H -0.1061 0.1727 0.4992
C24 C -0.0736(3) 0.1572(2) 0.5825(3)
H32 H -0.0851 0.1743 0.6208
H33 H -0.1009 0.1291 0.5780
C25 C -0.0131(2) 0.1424(2) 0.5859(3)
H34 H -0.0103 0.1078 0.5767
H35 H 0.0030 0.1479 0.6281
C26 C 0.02205(18) 0.16883(18) 0.5427(2)
H36 H 0.0518 0.1897 0.5644
H37 H 0.0452 0.1468 0.5155
O1B O -0.06484(6) 0.25087(5) 0.11942(7)
C1B C -0.11355(10) 0.28201(8) 0.12787(10)
C2B C -0.17655(11) 0.26450(8) 0.12846(13)
C3B C -0.22338(12) 0.29982(10) 0.13583(13)
H1B H -0.2648 0.2892 0.1351
C4B C -0.21289(12) 0.34893(9) 0.14403(14)
C5B C -0.15141(11) 0.36391(9) 0.14458(11)
H2B H -0.1427 0.3968 0.1508
C6B C -0.10214(10) 0.33193(8) 0.13625(11)
C7B C -0.03535(10) 0.35158(8) 0.13546(11)
H3B H -0.0068 0.3247 0.1273
H4B H -0.0313 0.3747 0.1011
C8B C -0.01584(10) 0.37657(7) 0.19603(10)
C9B C -0.01491(11) 0.42729(8) 0.19713(12)
H5B H -0.0248 0.4441 0.1604
C12B C -0.19161(11) 0.21081(9) 0.12119(15)
C13B C -0.16747(15) 0.19144(12) 0.05990(15)
H6B H -0.1852 0.2099 0.0259
H7B H -0.1791 0.1577 0.0557
H8B H -0.1226 0.1943 0.0589
C14B C -0.26296(13) 0.20176(13) 0.1214(2)
H9B H -0.2805 0.2133 0.1602
H10B H -0.2710 0.1674 0.1172
H11B H -0.2819 0.2189 0.0868
C15B C -0.16166(14) 0.18184(11) 0.17562(18)
H12B H -0.1176 0.1890 0.1776
H13B H -0.1676 0.1475 0.1686
H14B H -0.1812 0.1910 0.2146
C16B C -0.26779(14) 0.38416(11) 0.15463(18)
C17B C -0.32129(18) 0.37377(18) 0.1095(3)
H15B H -0.3518 0.3995 0.1123
H16B H -0.3405 0.3432 0.1204
H17B H -0.3054 0.3721 0.0673
C18B C -0.2459(3) 0.43641(19) 0.1487(6)
H18B H -0.2309 0.4421 0.1068
H19B H -0.2128 0.4423 0.1783
H20B H -0.2803 0.4580 0.1574
C19B C -0.2912(3) 0.3780(3) 0.2227(3)
H21B H -0.2784 0.4057 0.2473
H22B H -0.2736 0.3488 0.2405
H23B H -0.3361 0.3757 0.2229
C21B C -0.0623(5) 0.5246(2) 0.2933(6)
H24B H -0.0888 0.4964 0.2980
H25B H -0.0853 0.5502 0.2729
H26B H -0.0487 0.5355 0.3340
C22B C 0.0343(3) 0.53170(14) 0.2984(3)
H27B H 0.0320 0.5666 0.2944
H28B H 0.0773 0.5215 0.2958
H29B H 0.0171 0.5220 0.3382
Mg1B Mg 0.0000 0.2500 0.18249(5)
Li1B Li 0.0000 0.2500 0.0535(3)
O3B O 0.01880(9) 0.19683(8) -0.00745(10)
C23B C 0.08027(18) 0.18796(17) -0.03116(17)
H30B H 0.0999 0.2184 -0.0438
H31B H 0.1061 0.1727 0.0008
C24B C 0.0736(3) 0.1572(2) -0.0825(3)
H32B H 0.0851 0.1743 -0.1208
H33B H 0.1009 0.1291 -0.0780
C25B C 0.0131(2) 0.1424(2) -0.0859(3)
H34B H 0.0103 0.1078 -0.0767
H35B H -0.0030 0.1479 -0.1281
C26B C -0.02205(18) 0.16883(18) -0.0427(2)
H36B H -0.0518 0.1897 -0.0644
H37B H -0.0452 0.1468 -0.0155
O1E O -0.06484(6) 0.24913(5) 0.38058(7)
O2E O 0.0000 0.20004(6) 0.2500
O3E O 0.01880(9) 0.30317(8) 0.50745(10)
C1E C -0.11355(10) 0.21799(8) 0.37213(10)
C2E C -0.17655(11) 0.23550(8) 0.37154(13)
C3E C -0.22338(12) 0.20018(10) 0.36417(13)
H1E H -0.2648 0.2108 0.3649
C4E C -0.21289(12) 0.15107(9) 0.35597(14)
C5E C -0.15141(11) 0.13609(9) 0.35542(11)
H2E H -0.1427 0.1032 0.3492
C6E C -0.10214(10) 0.16807(8) 0.36375(11)
C7E C -0.03535(10) 0.14842(8) 0.36454(11)
H3E H -0.0068 0.1753 0.3727
H4E H -0.0313 0.1253 0.3989
C8E C -0.01584(10) 0.12343(7) 0.30397(10)
C9E C -0.01491(11) 0.07271(8) 0.30287(12)
H5E H -0.0248 0.0559 0.3396
C10E C 0.0000 0.04622(12) 0.2500
C11E C 0.0000 0.14999(10) 0.2500
C12E C -0.19161(11) 0.28919(9) 0.37881(15)
C13E C -0.16747(15) 0.30856(12) 0.44010(15)
H6E H -0.1852 0.2901 0.4741
H7E H -0.1791 0.3423 0.4443
H8E H -0.1226 0.3057 0.4411
C14E C -0.26296(13) 0.29824(13) 0.3786(2)
H9E H -0.2805 0.2867 0.3398
H10E H -0.2710 0.3326 0.3828
H11E H -0.2819 0.2811 0.4132
C15E C -0.16166(14) 0.31816(11) 0.32438(18)
H12E H -0.1176 0.3110 0.3224
H13E H -0.1676 0.3525 0.3314
H14E H -0.1812 0.3090 0.2854
C16E C -0.26779(14) 0.11584(11) 0.34537(18)
C17E C -0.32129(18) 0.12623(18) 0.3905(3)
H15E H -0.3518 0.1005 0.3877
H16E H -0.3405 0.1568 0.3796
H17E H -0.3054 0.1279 0.4327
C18E C -0.2459(3) 0.06359(19) 0.3513(6)
H18E H -0.2309 0.0579 0.3932
H19E H -0.2128 0.0577 0.3217
H20E H -0.2803 0.0420 0.3426
C19E C -0.2912(3) 0.1220(3) 0.2773(3)
H21E H -0.2784 0.0943 0.2527
H22E H -0.2736 0.1512 0.2595
H23E H -0.3361 0.1243 0.2771
C20E C 0.0000 -0.00995(13) 0.2500
C21E C -0.0623(5) -0.0246(2) 0.2067(6)
H24E H -0.0888 0.0036 0.2020
H25E H -0.0853 -0.0502 0.2271
H26E H -0.0487 -0.0355 0.1660
C22E C 0.0343(3) -0.03170(14) 0.2016(3)
H27E H 0.0320 -0.0666 0.2056
H28E H 0.0773 -0.0215 0.2042
H29E H 0.0171 -0.0220 0.1618
C23E C 0.08027(18) 0.31204(17) 0.53116(17)
H30E H 0.0999 0.2816 0.5438
H31E H 0.1061 0.3273 0.4992
C24E C 0.0736(3) 0.3428(2) 0.5825(3)
H32E H 0.0851 0.3257 0.6208
H33E H 0.1009 0.3709 0.5780
C25E C 0.0131(2) 0.3576(2) 0.5859(3)
H34E H 0.0103 0.3922 0.5767
H35E H -0.0030 0.3521 0.6281
C26E C -0.02205(18) 0.33117(18) 0.5427(2)
H36E H -0.0518 0.3103 0.5644
H37E H -0.0452 0.3532 0.5155
O1G O 0.06484(6) 0.24913(5) 0.11942(7)
C1G C 0.11355(10) 0.21799(8) 0.12787(10)
C2G C 0.17655(11) 0.23550(8) 0.12846(13)
C3G C 0.22338(12) 0.20018(10) 0.13583(13)
H1G H 0.2648 0.2108 0.1351
C4G C 0.21289(12) 0.15107(9) 0.14403(14)
C5G C 0.15141(11) 0.13609(9) 0.14458(11)
H2G H 0.1427 0.1032 0.1508
C6G C 0.10214(10) 0.16807(8) 0.13625(11)
C7G C 0.03535(10) 0.14842(8) 0.13546(11)
H3G H 0.0068 0.1753 0.1273
H4G H 0.0313 0.1253 0.1011
C8G C 0.01584(10) 0.12343(7) 0.19603(10)
C9G C 0.01491(11) 0.07271(8) 0.19713(12)
H5G H 0.0248 0.0559 0.1604
C12G C 0.19161(11) 0.28919(9) 0.12119(15)
C13G C 0.16747(15) 0.30856(12) 0.05990(15)
H6G H 0.1852 0.2901 0.0259
H7G H 0.1791 0.3423 0.0557
H8G H 0.1226 0.3057 0.0589
C14G C 0.26296(13) 0.29824(13) 0.1214(2)
H9G H 0.2805 0.2867 0.1602
H10G H 0.2710 0.3326 0.1172
H11G H 0.2819 0.2811 0.0868
C15G C 0.16166(14) 0.31816(11) 0.17562(18)
H12G H 0.1176 0.3110 0.1776
H13G H 0.1676 0.3525 0.1686
H14G H 0.1812 0.3090 0.2146
C16G C 0.26779(14) 0.11584(11) 0.15463(18)
C17G C 0.32129(18) 0.12623(18) 0.1095(3)
H15G H 0.3518 0.1005 0.1123
H16G H 0.3405 0.1568 0.1204
H17G H 0.3054 0.1279 0.0673
C18G C 0.2459(3) 0.06359(19) 0.1487(6)
H18G H 0.2309 0.0579 0.1068
H19G H 0.2128 0.0577 0.1783
H20G H 0.2803 0.0420 0.1574
C19G C 0.2912(3) 0.1220(3) 0.2227(3)
H21G H 0.2784 0.0943 0.2473
H22G H 0.2736 0.1512 0.2405
H23G H 0.3361 0.1243 0.2229
C21G C 0.0623(5) -0.0246(2) 0.2933(6)
H24G H 0.0888 0.0036 0.2980
H25G H 0.0853 -0.0502 0.2729
H26G H 0.0487 -0.0355 0.3340
C22G C -0.0343(3) -0.03170(14) 0.2984(3)
H27G H -0.0320 -0.0666 0.2944
H28G H -0.0773 -0.0215 0.2958
H29G H -0.0171 -0.0220 0.3382
O3G O -0.01880(9) 0.30317(8) -0.00745(10)
C23G C -0.08027(18) 0.31204(17) -0.03116(17)
H30G H -0.0999 0.2816 -0.0438
H31G H -0.1061 0.3273 0.0008
C24G C -0.0736(3) 0.3428(2) -0.0825(3)
H32G H -0.0851 0.3257 -0.1208
H33G H -0.1009 0.3709 -0.0780
C25G C -0.0131(2) 0.3576(2) -0.0859(3)
H34G H -0.0103 0.3922 -0.0767
H35G H 0.0030 0.3521 -0.1281
C26G C 0.02205(18) 0.33117(18) -0.0427(2)
H36G H 0.0518 0.3103 -0.0644
H37G H 0.0452 0.3532 -0.0155
loop_
_geom_bond_atom_site_label_1
_geom_bond_atom_site_label_2
_geom_bond_site_symmetry_1
_geom_bond_site_symmetry_2
Mg1 O1 1_555 1_555
Li1 O1 1_555 1_555
O1 C1 1_555 1_555
O2 Mg1 1_555 1_555
O3 Li1 1_555 1_555
C1 C2 1_555 1_555
C2 C3 1_555 1_555
C3 H1 1_555 1_555
C4 C3 1_555 1_555
C5 C4 1_555 1_555
H2 C5 1_555 1_555
C6 C1 1_555 1_555
C7 C6 1_555 1_555
H3 C7 1_555 1_555
H4 C7 1_555 1_555
C8 C7 1_555 1_555
C9 C8 1_555 1_555
H5 C9 1_555 1_555
C10 C9 1_555 1_555
C11 O2 1_555 1_555
C12 C2 1_555 1_555
C13 C12 1_555 1_555
H6 C13 1_555 1_555
H7 C13 1_555 1_555
H8 C13 1_555 1_555
C14 C12 1_555 1_555
H9 C14 1_555 1_555
H10 C14 1_555 1_555
H11 C14 1_555 1_555
C15 C12 1_555 1_555
H12 C15 1_555 1_555
H13 C15 1_555 1_555
H14 C15 1_555 1_555
C16 C4 1_555 1_555
C17 C16 1_555 1_555
H15 C17 1_555 1_555
H16 C17 1_555 1_555
H17 C17 1_555 1_555
C18 C16 1_555 1_555
H18 C18 1_555 1_555
H19 C18 1_555 1_555
H20 C18 1_555 1_555
C19 C16 1_555 1_555
H21 C19 1_555 1_555
H22 C19 1_555 1_555
H23 C19 1_555 1_555
C20 C10 1_555 1_555
C21 C20 1_555 1_555
H24 C21 1_555 1_555
H25 C21 1_555 1_555
H26 C21 1_555 1_555
C22 C20 1_555 1_555
H27 C22 1_555 1_555
H28 C22 1_555 1_555
H29 C22 1_555 1_555
C23 O3 1_555 1_555
H30 C23 1_555 1_555
H31 C23 1_555 1_555
C24 C23 1_555 1_555
H32 C24 1_555 1_555
H33 C24 1_555 1_555
C25 C24 1_555 1_555
H34 C25 1_555 1_555
H35 C25 1_555 1_555
C26 O3 1_555 1_555
H36 C26 1_555 1_555
H37 C26 1_555 1_555
O1B C1B 1_555 1_555
C1B C2B 1_555 1_555
C2B C3B 1_555 1_555
C3B H1B 1_555 1_555
C4B C3B 1_555 1_555
C5B C4B 1_555 1_555
H2B C5B 1_555 1_555
C6B C1B 1_555 1_555
C7B C6B 1_555 1_555
H3B C7B 1_555 1_555
H4B C7B 1_555 1_555
C8B C11 1_555 1_555
C9B C10 1_555 1_555
H5B C9B 1_555 1_555
C12B C2B 1_555 1_555
C13B C12B 1_555 1_555
H6B C13B 1_555 1_555
H7B C13B 1_555 1_555
H8B C13B 1_555 1_555
C14B C12B 1_555 1_555
H9B C14B 1_555 1_555
H10B C14B 1_555 1_555
H11B C14B 1_555 1_555
C15B C12B 1_555 1_555
H12B C15B 1_555 1_555
H13B C15B 1_555 1_555
H14B C15B 1_555 1_555
C16B C4B 1_555 1_555
C17B C16B 1_555 1_555
H15B C17B 1_555 1_555
H16B C17B 1_555 1_555
H17B C17B 1_555 1_555
C18B C16B 1_555 1_555
H18B C18B 1_555 1_555
H19B C18B 1_555 1_555
H20B C18B 1_555 1_555
C19B C16B 1_555 1_555
H21B C19B 1_555 1_555
H22B C19B 1_555 1_555
H23B C19B 1_555 1_555
C21B C20 1_555 1_555
H24B C21B 1_555 1_555
H25B C21B 1_555 1_555
H26B C21B 1_555 1_555
C22B C20 1_555 1_555
H27B C22B 1_555 1_555
H28B C22B 1_555 1_555
H29B C22B 1_555 1_555
Mg1B O2 1_555 1_555
Li1B O1B 1_555 1_555
O3B Li1B 1_555 1_555
C23B O3B 1_555 1_555
H30B C23B 1_555 1_555
H31B C23B 1_555 1_555
C24B C23B 1_555 1_555
H32B C24B 1_555 1_555
H33B C24B 1_555 1_555
C25B C24B 1_555 1_555
H34B C25B 1_555 1_555
H35B C25B 1_555 1_555
C26B O3B 1_555 1_555
H36B C26B 1_555 1_555
H37B C26B 1_555 1_555
O1E Mg1 1_555 1_555
O2E Mg1 1_555 1_555
O3E Li1 1_555 1_555
C1E O1E 1_555 1_555
C2E C1E 1_555 1_555
C3E C2E 1_555 1_555
H1E C3E 1_555 1_555
C4E C3E 1_555 1_555
C5E C4E 1_555 1_555
H2E C5E 1_555 1_555
C6E C1E 1_555 1_555
C7E C6E 1_555 1_555
H3E C7E 1_555 1_555
H4E C7E 1_555 1_555
C8E C7E 1_555 1_555
C9E C8E 1_555 1_555
H5E C9E 1_555 1_555
C10E C9E 1_555 1_555
C11E O2E 1_555 1_555
C12E C2E 1_555 1_555
C13E C12E 1_555 1_555
H6E C13E 1_555 1_555
H7E C13E 1_555 1_555
H8E C13E 1_555 1_555
C14E C12E 1_555 1_555
H9E C14E 1_555 1_555
H10E C14E 1_555 1_555
H11E C14E 1_555 1_555
C15E C12E 1_555 1_555
H12E C15E 1_555 1_555
H13E C15E 1_555 1_555
H14E C15E 1_555 1_555
C16E C4E 1_555 1_555
C17E C16E 1_555 1_555
H15E C17E 1_555 1_555
H16E C17E 1_555 1_555
H17E C17E 1_555 1_555
C18E C16E 1_555 1_555
H18E C18E 1_555 1_555
H19E C18E 1_555 1_555
H20E C18E 1_555 1_555
C19E C16E 1_555 1_555
H21E C19E 1_555 1_555
H22E C19E 1_555 1_555
H23E C19E 1_555 1_555
C20E C10E 1_555 1_555
C21E C20E 1_555 1_555
H24E C21E 1_555 1_555
H25E C21E 1_555 1_555
H26E C21E 1_555 1_555
C22E C20E 1_555 1_555
H27E C22E 1_555 1_555
H28E C22E 1_555 1_555
H29E C22E 1_555 1_555
C23E O3E 1_555 1_555
H30E C23E 1_555 1_555
H31E C23E 1_555 1_555
C24E C23E 1_555 1_555
H32E C24E 1_555 1_555
H33E C24E 1_555 1_555
C25E C24E 1_555 1_555
H34E C25E 1_555 1_555
H35E C25E 1_555 1_555
C26E O3E 1_555 1_555
H36E C26E 1_555 1_555
H37E C26E 1_555 1_555
O1G Mg1B 1_555 1_555
C1G O1G 1_555 1_555
C2G C1G 1_555 1_555
C3G C2G 1_555 1_555
H1G C3G 1_555 1_555
C4G C3G 1_555 1_555
C5G C4G 1_555 1_555
H2G C5G 1_555 1_555
C6G C1G 1_555 1_555
C7G C6G 1_555 1_555
H3G C7G 1_555 1_555
H4G C7G 1_555 1_555
C8G C11E 1_555 1_555
C9G C10E 1_555 1_555
H5G C9G 1_555 1_555
C12G C2G 1_555 1_555
C13G C12G 1_555 1_555
H6G C13G 1_555 1_555
H7G C13G 1_555 1_555
H8G C13G 1_555 1_555
C14G C12G 1_555 1_555
H9G C14G 1_555 1_555
H10G C14G 1_555 1_555
H11G C14G 1_555 1_555
C15G C12G 1_555 1_555
H12G C15G 1_555 1_555
H13G C15G 1_555 1_555
H14G C15G 1_555 1_555
C16G C4G 1_555 1_555
C17G C16G 1_555 1_555
H15G C17G 1_555 1_555
H16G C17G 1_555 1_555
H17G C17G 1_555 1_555
C18G C16G 1_555 1_555
H18G C18G 1_555 1_555
H19G C18G 1_555 1_555
H20G C18G 1_555 1_555
C19G C16G 1_555 1_555
H21G C19G 1_555 1_555
H22G C19G 1_555 1_555
H23G C19G 1_555 1_555
C21G C20E 1_555 1_555
H24G C21G 1_555 1_555
H25G C21G 1_555 1_555
H26G C21G 1_555 1_555
C22G C20E 1_555 1_555
H27G C22G 1_555 1_555
H28G C22G 1_555 1_555
H29G C22G 1_555 1_555
O3G Li1B 1_555 1_555
C23G O3G 1_555 1_555
H30G C23G 1_555 1_555
H31G C23G 1_555 1_555
C24G C23G 1_555 1_555
H32G C24G 1_555 1_555
H33G C24G 1_555 1_555
C25G C24G 1_555 1_555
H34G C25G 1_555 1_555
H35G C25G 1_555 1_555
C26G O3G 1_555 1_555
H36G C26G 1_555 1_555
H37G C26G 1_555 1_555
Li1 O1E 1_555 1_555
C5 C6 1_555 1_555
C8 C11 1_555 1_555
C25 C26 1_555 1_555
O1B Mg1B 1_555 1_555
C5B C6B 1_555 1_555
C7B C8B 1_555 1_555
C8B C9B 1_555 1_555
Mg1B O2E 1_555 1_555
Li1B O1G 1_555 1_555
C25B C26B 1_555 1_555
C5E C6E 1_555 1_555
C8E C11E 1_555 1_555
C25E C26E 1_555 1_555
C5G C6G 1_555 1_555
C7G C8G 1_555 1_555
C8G C9G 1_555 1_555
C25G C26G 1_555 1_555

#END
