
#######################################################################
#
#                 Cambridge Crystallographic Data Centre
#                                CCDC 
#
#######################################################################
#
# If this CIF has been generated from an entry in the Cambridge 
# Structural Database, then it will include bibliographic, chemical, 
# crystal, experimental, refinement or atomic coordinate data resulting 
# from the CCDC's data processing and validation procedures.
#
#######################################################################

data_IHIMET
_chemical_formula_moiety         'C2 H6 N5 1+,Cl1 O4 1-'
_chemical_name_systematic        
'4,5-diamino-4H-1,2,4-triazol-1-ium perchlorate'
_symmetry_cell_setting           monoclinic
_symmetry_space_group_name_H-M   'P 21/n'
_symmetry_Int_Tables_number      14
_space_group_name_Hall           '-P 2yn'
loop_
_symmetry_equiv_pos_site_id
_symmetry_equiv_pos_as_xyz
1 x,y,z
2 1/2-x,1/2+y,1/2-z
3 -x,-y,-z
4 1/2+x,1/2-y,1/2+z
_cell_length_a                   8.2870(17)
_cell_length_b                   9.1930(18)
_cell_length_c                   9.926(2)
_cell_angle_alpha                90
_cell_angle_beta                 102.89(3)
_cell_angle_gamma                90
_cell_volume                     737.131
_exptl_crystal_colour            colorless
_exptl_crystal_description       block
_cell_formula_units_Z            4
loop_
_atom_site_label
_atom_site_type_symbol
_atom_site_fract_x
_atom_site_fract_y
_atom_site_fract_z
Cl1 Cl 0.11384(6) 0.22094(6) 0.40156(5)
O1 O 0.2420(9) 0.2825(8) 0.5079(6)
O2 O 0.1660(9) 0.0885(4) 0.3490(7)
O3 O 0.0632(5) 0.3232(3) 0.2910(2)
O4 O -0.0306(3) 0.1890(4) 0.4600(3)
C1 C 0.1350(3) 0.2015(2) 0.9701(2)
N1 N 0.1841(2) 0.09113(19) 1.05585(17)
H1 H 0.1909 0.1017 1.1430
H2 H 0.2091 0.0091 1.0242
N2 N 0.1239(2) 0.19735(17) 0.83266(17)
C2 C 0.0736(2) 0.3334(2) 0.7819(2)
H3 H 0.0577 0.3603 0.6896
N3 N 0.1762(3) 0.07530(19) 0.76860(19)
H4 H 0.252(3) 0.106(3) 0.728(3)
H5 H 0.087(2) 0.057(3) 0.7042(19)
N4 N 0.0516(2) 0.41835(18) 0.87933(17)
N5 N 0.0913(2) 0.33508(18) 0.99730(18)
H6 H 0.0881 0.3659 1.0785
O5? O 0.238(2) 0.257(3) 0.5267(16)
O6? O 0.142(3) 0.0718(11) 0.370(2)
O7? O 0.171(2) 0.3076(10) 0.2916(8)
O8? O -0.0395(10) 0.2604(18) 0.4120(17)
loop_
_geom_bond_atom_site_label_1
_geom_bond_atom_site_label_2
_geom_bond_site_symmetry_1
_geom_bond_site_symmetry_2
Cl1 O1 1_555 1_555
O2 Cl1 1_555 1_555
O3 Cl1 1_555 1_555
O4 Cl1 1_555 1_555
C1 N1 1_555 1_555
N1 H1 1_555 1_555
H2 N1 1_555 1_555
N2 C1 1_555 1_555
C2 N2 1_555 1_555
H3 C2 1_555 1_555
N3 N2 1_555 1_555
H4 N3 1_555 1_555
H5 N3 1_555 1_555
N4 C2 1_555 1_555
N5 C1 1_555 1_555
H6 N5 1_555 1_555
N4 N5 1_555 1_555

#END
