
#######################################################################
#
#                 Cambridge Crystallographic Data Centre
#                                CCDC 
#
#######################################################################
#
# If this CIF has been generated from an entry in the Cambridge 
# Structural Database, then it will include bibliographic, chemical, 
# crystal, experimental, refinement or atomic coordinate data resulting 
# from the CCDC's data processing and validation procedures.
#
#######################################################################

data_IHINAQ
_chemical_formula_moiety         'C4 H2 N3 O4 1-,C2 H6 N5 1+'
_chemical_name_systematic        
'4-amino-2,4-dihydro-3H-1,2,4-triazol-3-iminium 4-carboxy-1H-1,2,3-triazole-5-carboxylate'
_symmetry_cell_setting           monoclinic
_symmetry_space_group_name_H-M   'P 21/c'
_symmetry_Int_Tables_number      14
_space_group_name_Hall           '-P 2ybc'
loop_
_symmetry_equiv_pos_site_id
_symmetry_equiv_pos_as_xyz
1 x,y,z
2 -x,1/2+y,1/2-z
3 -x,-y,-z
4 x,1/2-y,1/2+z
_cell_length_a                   5.1010(4)
_cell_length_b                   7.9797(6)
_cell_length_c                   24.095(2)
_cell_angle_alpha                90
_cell_angle_beta                 91.788(2)
_cell_angle_gamma                90
_cell_volume                     980.296
_exptl_crystal_colour            colorless
_exptl_crystal_description       block
_cell_formula_units_Z            4
loop_
_atom_site_label
_atom_site_type_symbol
_atom_site_fract_x
_atom_site_fract_y
_atom_site_fract_z
C1 C -0.1186(3) 0.92972(19) 0.59578(6)
C2 C 0.1001(3) 0.80814(18) 0.59070(6)
C3 C 0.1807(3) 0.71149(18) 0.54688(6)
C4 C 0.0808(3) 0.68882(18) 0.48837(6)
H1 H -0.220(4) 0.877(3) 0.5215(9)
H2 H 0.488(4) 0.555(2) 0.5516(7)
N1 N 0.2626(3) 0.77704(17) 0.63535(5)
N2 N 0.4383(3) 0.66628(17) 0.62128(5)
N3 N 0.3883(3) 0.62668(17) 0.56785(5)
O1 O -0.1317(2) 0.76225(15) 0.47556(4)
O2 O 0.2084(2) 0.59854(14) 0.45687(4)
O3 O -0.2761(2) 0.95266(15) 0.55230(5)
O4 O -0.1499(2) 1.00544(15) 0.63882(4)
C5 C 0.7646(3) 0.71026(19) 0.33498(6)
C6 C 0.9357(3) 0.6104(2) 0.25985(7)
H3 H 0.666(4) 0.787(3) 0.4041(10)
H4 H 0.479(4) 0.845(3) 0.3563(9)
H5 H 0.436(4) 0.721(3) 0.2300(10)
H6 H 0.627(4) 0.863(3) 0.2247(9)
H7 H 0.956(4) 0.587(3) 0.2207(9)
H8 H 1.054(4) 0.603(2) 0.3789(9)
N4 N 0.6092(3) 0.78576(19) 0.36918(6)
N5 N 0.5422(3) 0.7991(2) 0.24977(6)
N6 N 0.7372(3) 0.70740(17) 0.27903(5)
N7 N 1.0855(3) 0.55410(19) 0.29966(6)
N8 N 0.9753(3) 0.61728(17) 0.34703(6)
loop_
_geom_bond_atom_site_label_1
_geom_bond_atom_site_label_2
_geom_bond_site_symmetry_1
_geom_bond_site_symmetry_2
C1 C2 1_555 1_555
C2 C3 1_555 1_555
C3 C4 1_555 1_555
C4 O1 1_555 1_555
H1 O3 1_555 1_555
H2 N3 1_555 1_555
N1 C2 1_555 1_555
N2 N1 1_555 1_555
N3 C3 1_555 1_555
O2 C4 1_555 1_555
O3 C1 1_555 1_555
O4 C1 1_555 1_555
C5 N4 1_555 1_555
C6 H7 1_555 1_555
H3 N4 1_555 1_555
H4 N4 1_555 1_555
H5 N5 1_555 1_555
H6 N5 1_555 1_555
H8 N8 1_555 1_555
N5 N6 1_555 1_555
N6 C5 1_555 1_555
N7 C6 1_555 1_555
N8 C5 1_555 1_555
N2 N3 1_555 1_555
C6 N6 1_555 1_555
N7 N8 1_555 1_555

#END
