
#######################################################################
#
#                 Cambridge Crystallographic Data Centre
#                                CCDC 
#
#######################################################################
#
# If this CIF has been generated from an entry in the Cambridge 
# Structural Database, then it will include bibliographic, chemical, 
# crystal, experimental, refinement or atomic coordinate data resulting 
# from the CCDC's data processing and validation procedures.
#
#######################################################################

data_IHINEU
_chemical_formula_moiety         'C2 H6 N5 1+,C1 N3 O6 1-'
_chemical_name_systematic        
'4-amino-2,4-dihydro-3H-1,2,4-triazol-3-iminium trinitromethanide'
_symmetry_cell_setting           triclinic
_symmetry_space_group_name_H-M   'P -1'
_symmetry_Int_Tables_number      2
_space_group_name_Hall           '-P 1'
loop_
_symmetry_equiv_pos_site_id
_symmetry_equiv_pos_as_xyz
1 x,y,z
2 -x,-y,-z
_cell_length_a                   6.4007(4)
_cell_length_b                   7.6439(5)
_cell_length_c                   10.1075(8)
_cell_angle_alpha                70.9850(10)
_cell_angle_beta                 87.798(2)
_cell_angle_gamma                85.279(2)
_cell_volume                     465.917
_exptl_crystal_colour            yellow
_exptl_crystal_description       block
_cell_formula_units_Z            2
loop_
_atom_site_label
_atom_site_type_symbol
_atom_site_fract_x
_atom_site_fract_y
_atom_site_fract_z
N1 N -0.0951(12) 0.7968(12) 0.4360(8)
N2 N 0.0627(11) 0.7408(11) 0.5340(7)
H1 H 0.0406 0.6923 0.6224
N3 N 0.2180(10) 0.8480(9) 0.3387(6)
N4 N 0.4334(13) 0.7347(13) 0.5338(8)
H2 H 0.4424 0.6840 0.6230
H3 H 0.5451 0.7612 0.4835
N5 N 0.3878(11) 0.8947(10) 0.2452(7)
H4 H 0.3695 1.0142 0.1946
H5 H 0.3917 0.8260 0.1889
C1 C 0.2542(13) 0.7704(12) 0.4760(7)
C2 C 0.0070(16) 0.8593(13) 0.3201(9)
H6 H -0.0564 0.9069 0.2331
N6 N 0.2374(10) 0.7009(9) 0.9315(6)
N7 N 0.2681(9) 0.3844(9) 0.9201(6)
N8 N 0.2386(9) 0.4362(9) 1.1454(6)
O1 O 0.1517(9) 0.8022(8) 0.9943(6)
O2 O 0.3167(10) 0.7588(8) 0.8134(6)
O3 O 0.2003(9) 0.4445(8) 0.7998(6)
O4 O 0.3480(9) 0.2287(8) 0.9734(6)
O5 O 0.1778(8) 0.2802(7) 1.2029(5)
O6 O 0.2951(9) 0.5289(8) 1.2159(6)
C3 C 0.2475(12) 0.5071(11) 1.0009(7)
loop_
_geom_bond_atom_site_label_1
_geom_bond_atom_site_label_2
_geom_bond_site_symmetry_1
_geom_bond_site_symmetry_2
N1 N2 1_555 1_555
N2 H1 1_555 1_555
N3 N5 1_555 1_555
N4 H2 1_555 1_555
H3 N4 1_555 1_555
N5 H4 1_555 1_555
H5 N5 1_555 1_555
C1 N2 1_555 1_555
C2 N1 1_555 1_555
H6 C2 1_555 1_555
N6 O1 1_555 1_555
N7 O3 1_555 1_555
N8 O5 1_555 1_555
O2 N6 1_555 1_555
O4 N7 1_555 1_555
O6 N8 1_555 1_555
C3 N6 1_555 1_555
N3 C1 1_555 1_555
N3 C2 1_555 1_555
N4 C1 1_555 1_555
N7 C3 1_555 1_555
N8 C3 1_555 1_555

#END
