
#######################################################################
#
#                 Cambridge Crystallographic Data Centre
#                                CCDC 
#
#######################################################################
#
# If this CIF has been generated from an entry in the Cambridge 
# Structural Database, then it will include bibliographic, chemical, 
# crystal, experimental, refinement or atomic coordinate data resulting 
# from the CCDC's data processing and validation procedures.
#
#######################################################################

data_IHISAV
_chemical_formula_moiety         'C23 H27 N1 O2 S1'
_chemical_name_systematic        
'Methyl 3-(4-isopropylphenyl)-1-methyl-1,2,3,9 b-tetrahydrothiochromeno[4,3-b]pyrrole-3a(4H)-carboxylate'
_symmetry_cell_setting           monoclinic
_symmetry_space_group_name_H-M   'P 21/n'
_symmetry_Int_Tables_number      14
_space_group_name_Hall           '-P 2yn'
loop_
_symmetry_equiv_pos_site_id
_symmetry_equiv_pos_as_xyz
1 x,y,z
2 1/2-x,1/2+y,1/2-z
3 -x,-y,-z
4 1/2+x,1/2-y,1/2+z
_cell_length_a                   10.7330(3)
_cell_length_b                   7.7568(2)
_cell_length_c                   24.9436(7)
_cell_angle_alpha                90
_cell_angle_beta                 98.4850(10)
_cell_angle_gamma                90
_cell_volume                     2053.92
_exptl_crystal_colour            colorless
_exptl_crystal_description       block
_cell_formula_units_Z            4
loop_
_atom_site_label
_atom_site_type_symbol
_atom_site_fract_x
_atom_site_fract_y
_atom_site_fract_z
C1 C 0.64364(15) 0.4800(2) 0.14949(7)
C2 C 0.60663(18) 0.4940(3) 0.20060(8)
H1 H 0.5834 0.6015 0.2124
C3 C 0.6033(2) 0.3533(3) 0.23429(9)
H2 H 0.5765 0.3660 0.2679
C4 C 0.6398(2) 0.1946(3) 0.21793(9)
H3 H 0.6379 0.0994 0.2405
C5 C 0.67929(19) 0.1762(3) 0.16824(9)
H4 H 0.7052 0.0687 0.1576
C6 C 0.68086(16) 0.3175(2) 0.13353(7)
C7 C 0.70294(16) 0.4766(2) 0.03604(7)
H5 H 0.7507 0.4820 0.0060
H6 H 0.6142 0.4775 0.0212
C8 C 0.73260(14) 0.6355(2) 0.07149(6)
C9 C 0.64648(14) 0.6410(2) 0.11561(7)
H7 H 0.6724 0.7380 0.1399
C10 C 0.42438(19) 0.7312(3) 0.11351(10)
H8 H 0.4083 0.6368 0.1364
H9 H 0.3492 0.7573 0.0889
H10 H 0.4495 0.8305 0.1354
C11 C 0.55213(17) 0.8256(2) 0.04721(8)
H11 H 0.5384 0.9360 0.0636
H12 H 0.4980 0.8183 0.0125
C12 C 0.69127(16) 0.8060(2) 0.03967(7)
H13 H 0.7370 0.9003 0.0600
C13 C 0.87070(15) 0.6497(2) 0.09487(7)
C14 C 1.07866(18) 0.6040(4) 0.07703(11)
H14 H 1.1210 0.5552 0.0493
H15 H 1.1034 0.5433 0.1105
H16 H 1.1010 0.7234 0.0818
C15 C 0.72199(16) 0.8169(2) -0.01743(7)
C16 C 0.64436(17) 0.7505(2) -0.06219(7)
H17 H 0.5687 0.6984 -0.0575
C17 C 0.67758(19) 0.7603(3) -0.11355(8)
H18 H 0.6232 0.7158 -0.1428
C18 C 0.7893(2) 0.8346(3) -0.12255(8)
C19 C 0.8153(7) 0.8254(11) -0.1815(2)
H19 H 0.7602 0.7432 -0.2035
C20 C 0.8006(10) 1.0118(12) -0.2041(3)
H20 H 0.7144 1.0475 -0.2061
H21 H 0.8248 1.0152 -0.2396
H22 H 0.8536 1.0882 -0.1805
C21 C 0.9546(11) 0.7867(18) -0.1814(5)
H23 H 0.9717 0.7809 -0.2181
H24 H 0.9752 0.6784 -0.1637
H25 H 1.0044 0.8765 -0.1624
C22 C 0.8668(2) 0.9020(3) -0.07806(9)
H26 H 0.9427 0.9532 -0.0829
C23 C 0.83327(18) 0.8944(3) -0.02667(8)
H27 H 0.8865 0.9422 0.0023
N1 N 0.52473(13) 0.68409(19) 0.08280(6)
O1 O 0.90964(14) 0.7164(3) 0.13667(7)
O2 O 0.94460(11) 0.5889(2) 0.06139(6)
S1 S 0.73931(5) 0.27778(6) 0.07238(2)
C24? C 0.8449(11) 0.8718(19) -0.1752(3)
H28? H 0.8974 0.9752 -0.1685
C25? C 0.7403(12) 0.915(2) -0.2199(4)
H29? H 0.6884 1.0039 -0.2079
H30? H 0.6902 0.8143 -0.2295
H31? H 0.7753 0.9552 -0.2509
C26? C 0.9299(17) 0.728(2) -0.1893(8)
H32? H 0.9944 0.7061 -0.1591
H33? H 0.9681 0.7605 -0.2203
H34? H 0.8810 0.6248 -0.1976
loop_
_geom_bond_atom_site_label_1
_geom_bond_atom_site_label_2
_geom_bond_site_symmetry_1
_geom_bond_site_symmetry_2
C1 C2 1_555 1_555
C2 H1 1_555 1_555
C3 C2 1_555 1_555
H2 C3 1_555 1_555
C4 C3 1_555 1_555
H3 C4 1_555 1_555
C5 C4 1_555 1_555
H4 C5 1_555 1_555
C6 C1 1_555 1_555
C7 H5 1_555 1_555
H6 C7 1_555 1_555
C8 C7 1_555 1_555
C9 C1 1_555 1_555
H7 C9 1_555 1_555
C10 H8 1_555 1_555
H9 C10 1_555 1_555
H10 C10 1_555 1_555
C11 H11 1_555 1_555
H12 C11 1_555 1_555
C12 C8 1_555 1_555
H13 C12 1_555 1_555
C13 C8 1_555 1_555
C14 H14 1_555 1_555
H15 C14 1_555 1_555
H16 C14 1_555 1_555
C15 C12 1_555 1_555
C16 C15 1_555 1_555
H17 C16 1_555 1_555
C17 C16 1_555 1_555
H18 C17 1_555 1_555
C18 C17 1_555 1_555
C19 C18 1_555 1_555
H19 C19 1_555 1_555
C20 C19 1_555 1_555
H20 C20 1_555 1_555
H21 C20 1_555 1_555
H22 C20 1_555 1_555
C21 C19 1_555 1_555
H23 C21 1_555 1_555
H24 C21 1_555 1_555
H25 C21 1_555 1_555
C22 C18 1_555 1_555
H26 C22 1_555 1_555
C23 C15 1_555 1_555
H27 C23 1_555 1_555
N1 C9 1_555 1_555
O1 C13 1_555 1_555
O2 C13 1_555 1_555
S1 C6 1_555 1_555
C5 C6 1_555 1_555
C7 S1 1_555 1_555
C8 C9 1_555 1_555
C10 N1 1_555 1_555
C11 C12 1_555 1_555
C11 N1 1_555 1_555
C14 O2 1_555 1_555
C22 C23 1_555 1_555

#END
