
#######################################################################
#
#                 Cambridge Crystallographic Data Centre
#                                CCDC 
#
#######################################################################
#
# If this CIF has been generated from an entry in the Cambridge 
# Structural Database, then it will include bibliographic, chemical, 
# crystal, experimental, refinement or atomic coordinate data resulting 
# from the CCDC's data processing and validation procedures.
#
#######################################################################

data_IHOGOB
_chemical_formula_moiety         'C18 H19 N1 O1'
_chemical_name_systematic        4-Cyano-3,5-diphenyl-pentan-2-ol
_symmetry_cell_setting           triclinic
_symmetry_space_group_name_H-M   'P -1'
_symmetry_Int_Tables_number      2
_space_group_name_Hall           '-P 1'
loop_
_symmetry_equiv_pos_site_id
_symmetry_equiv_pos_as_xyz
1 x,y,z
2 -x,-y,-z
_cell_length_a                   10.173(2)
_cell_length_b                   13.192(2)
_cell_length_c                   5.805(1)
_cell_angle_alpha                91.36(2)
_cell_angle_beta                 93.11(2)
_cell_angle_gamma                82.63(1)
_cell_volume                     771.359
_exptl_crystal_colour            colorless
_exptl_crystal_description       plate
_chemical_melting_point          '380-385 K'
_cell_formula_units_Z            2
_exptl_crystal_recrystallization_method 'ethyl acetate/hexanes'
loop_
_atom_site_label
_atom_site_type_symbol
_atom_site_fract_x
_atom_site_fract_y
_atom_site_fract_z
O1 O 0.3189(2) 0.4191(1) 0.4107(3)
N1 N 0.6310(2) 0.3987(2) 0.8372(4)
C1 C 0.1696(3) 0.5318(2) 0.6445(6)
C2 C 0.2969(2) 0.4592(2) 0.6371(4)
C3 C 0.2981(2) 0.3688(2) 0.7977(3)
C4 C 0.4297(2) 0.2956(2) 0.7919(4)
C5 C 0.4424(2) 0.2149(2) 0.9806(4)
C6 C 0.5438(2) 0.3531(2) 0.8148(4)
C7 C 0.5664(2) 0.1390(2) 0.9752(4)
C8 C 0.5868(3) 0.0722(2) 0.7904(4)
C9 C 0.6986(3) 0.0009(2) 0.7861(5)
C10 C 0.7900(3) -0.0056(2) 0.9669(6)
C11 C 0.7725(3) 0.0593(3) 1.1510(6)
C12 C 0.6611(3) 0.1323(2) 1.1550(4)
C13 C 0.1796(2) 0.3109(2) 0.7606(4)
C14 C 0.1592(2) 0.2521(2) 0.5623(4)
C15 C 0.0493(3) 0.2018(2) 0.5320(4)
C16 C -0.0443(2) 0.2082(2) 0.6966(5)
C17 C -0.0259(2) 0.2654(2) 0.8928(5)
C18 C 0.0844(2) 0.3156(2) 0.9247(4)
H1 H 0.3419 0.4780 0.3065
H2 H 0.1722 0.5873 0.5411
H3 H 0.0967 0.4962 0.5936
H4 H 0.1553 0.5589 0.7947
H5 H 0.3688 0.4976 0.6895
H6 H 0.2955 0.3964 0.9538
H7 H 0.4296 0.2602 0.6440
H8 H 0.3659 0.1778 0.9693
H9 H 0.4407 0.2496 1.1296
H10 H 0.5213 0.0750 0.6607
H11 H 0.7118 -0.0436 0.6493
H12 H 0.8673 -0.0579 0.9654
H13 H 0.8406 0.0575 1.2770
H14 H 0.6488 0.1791 1.2895
H15 H 0.2265 0.2463 0.4453
H16 H 0.0359 0.1624 0.3916
H17 H -0.1218 0.1724 0.6729
H18 H -0.0913 0.2694 1.0099
H19 H 0.0976 0.3554 1.0663
loop_
_geom_bond_atom_site_label_1
_geom_bond_atom_site_label_2
_geom_bond_site_symmetry_1
_geom_bond_site_symmetry_2
O1 C2 1_555 1_555
N1 C6 1_555 1_555
C1 C2 1_555 1_555
C2 C3 1_555 1_555
C3 C4 1_555 1_555
C4 C5 1_555 1_555
C5 C7 1_555 1_555
C6 C4 1_555 1_555
C7 C8 1_555 1_555
C8 C9 1_555 1_555
C9 C10 1_555 1_555
C10 C11 1_555 1_555
C11 C12 1_555 1_555
C12 C7 1_555 1_555
C13 C3 1_555 1_555
C14 C13 1_555 1_555
C15 C14 1_555 1_555
C16 C15 1_555 1_555
C17 C16 1_555 1_555
C18 C13 1_555 1_555
H1 O1 1_555 1_555
H2 C1 1_555 1_555
H3 C1 1_555 1_555
H4 C1 1_555 1_555
H5 C2 1_555 1_555
H6 C3 1_555 1_555
H7 C4 1_555 1_555
H8 C5 1_555 1_555
H9 C5 1_555 1_555
H10 C8 1_555 1_555
H11 C9 1_555 1_555
H12 C10 1_555 1_555
H13 C11 1_555 1_555
H14 C12 1_555 1_555
H15 C14 1_555 1_555
H16 C15 1_555 1_555
H17 C16 1_555 1_555
H18 C17 1_555 1_555
H19 C18 1_555 1_555
C17 C18 1_555 1_555

#END
