
#######################################################################
#
#                 Cambridge Crystallographic Data Centre
#                                CCDC 
#
#######################################################################
#
# If this CIF has been generated from an entry in the Cambridge 
# Structural Database, then it will include bibliographic, chemical, 
# crystal, experimental, refinement or atomic coordinate data resulting 
# from the CCDC's data processing and validation procedures.
#
#######################################################################

data_IHOGER
_chemical_formula_moiety         'C18 H16 N2 O4'
_chemical_name_systematic        4-(4-Nitrobenzoyloxy)-3-phenylpentanenitrile
_symmetry_cell_setting           monoclinic
_symmetry_space_group_name_H-M   'C 2/c'
_symmetry_Int_Tables_number      15
_space_group_name_Hall           '-C 2yn'
loop_
_symmetry_equiv_pos_site_id
_symmetry_equiv_pos_as_xyz
1 x,y,z
2 1/2+x,1/2+y,z
3 x,-y,1/2+z
4 1/2+x,1/2-y,1/2+z
5 -x,-y,-z
6 1/2-x,1/2-y,-z
7 -x,y,1/2-z
8 1/2-x,1/2+y,1/2-z
_cell_length_a                   20.052(4)
_cell_length_b                   10.940(1)
_cell_length_c                   18.691(2)
_cell_angle_alpha                90
_cell_angle_beta                 124.292(7)
_cell_angle_gamma                90
_cell_volume                     3387.51
_exptl_crystal_colour            colorless
_chemical_melting_point          '377-380 K'
_cell_formula_units_Z            8
_exptl_crystal_recrystallization_method 'ethyl acetate/n-hexane'
loop_
_atom_site_label
_atom_site_type_symbol
_atom_site_fract_x
_atom_site_fract_y
_atom_site_fract_z
O1 O 0.1542(2) 0.0062(2) 0.0782(2)
O2 O 0.2066(2) 0.1686(3) 0.1665(2)
O3 O 0.0728(2) 0.3416(3) -0.2685(2)
O4 O 0.1295(2) 0.4982(3) -0.1876(2)
N1 N 0.2918(3) -0.4392(4) 0.1437(3)
N2 N 0.1078(2) 0.3927(4) -0.1985(3)
C1 C 0.2573(3) -0.2164(4) 0.1591(2)
C2 C 0.1689(3) -0.2001(4) 0.1287(3)
C3 C 0.1543(3) -0.0684(4) 0.1433(2)
C4 C 0.0752(3) -0.0486(4) 0.1332(3)
C5 C 0.2766(3) -0.3421(4) 0.1508(3)
C6 C 0.1093(2) -0.2455(3) 0.0369(2)
C7 C 0.1196(3) -0.2180(4) -0.0290(3)
C8 C 0.0645(3) -0.2586(4) -0.1123(3)
C9 C -0.0005(3) -0.3280(5) -0.1318(3)
C10 C -0.0110(3) -0.3555(5) -0.0672(4)
C11 C 0.0438(3) -0.3155(4) 0.0169(3)
C12 C 0.1762(3) 0.1230(4) 0.0961(3)
C13 C 0.1583(2) 0.1909(4) 0.0183(2)
C14 C 0.1277(2) 0.1333(4) -0.0601(3)
C15 C 0.1108(2) 0.1994(4) -0.1315(2)
C16 C 0.1248(2) 0.3222(4) -0.1228(3)
C17 C 0.1551(3) 0.3829(4) -0.0462(3)
C18 C 0.1724(2) 0.3151(4) 0.0249(3)
H1 H 0.2668 -0.1644 0.1251
H2 H 0.2907 -0.1923 0.2181
H3 H 0.1610 -0.2497 0.1652
H4 H 0.1955 -0.0423 0.2000
H5 H 0.0309 -0.0760 0.0731
H6 H 0.0702 -0.0972 0.1712
H7 H 0.0653 0.0338 0.1367
H8 H 0.1649 -0.1699 -0.0158
H9 H 0.0719 -0.2370 -0.1574
H10 H -0.0374 -0.3580 -0.1882
H11 H -0.0491 -0.4124 -0.0862
H12 H 0.0367 -0.3371 0.0613
H13 H 0.1169 0.0474 -0.0654
H14 H 0.0895 0.1596 -0.1857
H15 H 0.1617 0.4692 -0.0426
H16 H 0.1950 0.3547 0.0795
loop_
_geom_bond_atom_site_label_1
_geom_bond_atom_site_label_2
_geom_bond_site_symmetry_1
_geom_bond_site_symmetry_2
O1 C3 1_555 1_555
O2 C12 1_555 1_555
O3 N2 1_555 1_555
O4 N2 1_555 1_555
N1 C5 1_555 1_555
N2 C16 1_555 1_555
C1 C2 1_555 1_555
C2 C3 1_555 1_555
C3 C4 1_555 1_555
C4 H5 1_555 1_555
C5 C1 1_555 1_555
C6 C2 1_555 1_555
C7 C6 1_555 1_555
C8 C7 1_555 1_555
C9 C8 1_555 1_555
C10 C9 1_555 1_555
C11 C6 1_555 1_555
C12 O1 1_555 1_555
C13 C12 1_555 1_555
C14 C13 1_555 1_555
C15 C14 1_555 1_555
C16 C15 1_555 1_555
C17 C16 1_555 1_555
C18 C13 1_555 1_555
H1 C1 1_555 1_555
H2 C1 1_555 1_555
H3 C2 1_555 1_555
H4 C3 1_555 1_555
H6 C4 1_555 1_555
H7 C4 1_555 1_555
H8 C7 1_555 1_555
H9 C8 1_555 1_555
H10 C9 1_555 1_555
H11 C10 1_555 1_555
H12 C11 1_555 1_555
H13 C14 1_555 1_555
H14 C15 1_555 1_555
H15 C17 1_555 1_555
H16 C18 1_555 1_555
C10 C11 1_555 1_555
C17 C18 1_555 1_555

#END
