
#######################################################################
#
#                 Cambridge Crystallographic Data Centre
#                                CCDC 
#
#######################################################################
#
# If this CIF has been generated from an entry in the Cambridge 
# Structural Database, then it will include bibliographic, chemical, 
# crystal, experimental, refinement or atomic coordinate data resulting 
# from the CCDC's data processing and validation procedures.
#
#######################################################################

data_IHOGIV
_chemical_formula_moiety         'C32 H25 N3 O8'
_chemical_name_systematic        
2-Cyano-1,3-diphenyl-1,4-bis(4-nitrobenzoyloxy)pentane
_symmetry_cell_setting           orthorhombic
_symmetry_space_group_name_H-M   'P c a 21'
_symmetry_Int_Tables_number      29
_space_group_name_Hall           'P 2c -2ac'
loop_
_symmetry_equiv_pos_site_id
_symmetry_equiv_pos_as_xyz
1 x,y,z
2 -x,-y,1/2+z
3 1/2-x,y,1/2+z
4 1/2+x,-y,z
_cell_length_a                   13.401(2)
_cell_length_b                   11.024(2)
_cell_length_c                   20.021(2)
_cell_angle_alpha                90
_cell_angle_beta                 90
_cell_angle_gamma                90
_cell_volume                     2957.75
_exptl_crystal_colour            colorless
_exptl_crystal_description       plate
_chemical_melting_point          '461-463 K'
_cell_formula_units_Z            4
_exptl_crystal_recrystallization_method 'ethyl acetate/hexanes'
loop_
_atom_site_label
_atom_site_type_symbol
_atom_site_fract_x
_atom_site_fract_y
_atom_site_fract_z
O1 O 0.3047(3) 0.2939(4) 0.2583(7)
O2 O 0.2775(5) 0.0944(5) 0.2531(8)
O3 O 0.7537(7) 0.230(1) 0.4090(9)
O4 O 0.7427(6) 0.031(1) 0.4012(8)
O5 O 0.2532(3) 0.6475(4) 0.1020(8)
O6 O 0.2705(4) 0.7299(4) 0.2034(8)
O7 O -0.0822(5) 1.0833(6) 0.0138(8)
O8 O -0.0636(7) 1.1658(8) 0.1084(8)
N1 N 0.0484(4) 0.5432(5) 0.1738(8)
N2 N 0.7133(7) 0.137(1) 0.3920(9)
N3 N -0.0486(6) 1.0863(7) 0.0687(9)
C1 C 0.2072(4) 0.3194(6) 0.2316(8)
C2 C 0.2215(4) 0.4444(5) 0.1977(8)
C3 C 0.2884(4) 0.4355(5) 0.1349(8)
C4 C 0.3322(5) 0.5592(6) 0.1145(8)
C5 C 0.3937(5) 0.5528(6) 0.0511(9)
C6 C 0.1251(5) 0.4983(6) 0.1829(8)
C7 C 0.1304(5) 0.3188(6) 0.2863(8)
C8 C 0.1539(6) 0.3441(8) 0.3515(8)
C9 C 0.0814(8) 0.344(1) 0.3995(8)
C10 C -0.0153(7) 0.3214(9) 0.3844(8)
C11 C -0.0423(5) 0.2980(8) 0.3192(8)
C12 C 0.0293(5) 0.2939(6) 0.2706(8)
C13 C 0.2441(5) 0.3606(6) 0.0796(8)
C14 C 0.1720(5) 0.4040(6) 0.0372(8)
C15 C 0.1327(5) 0.3312(9) -0.0130(8)
C16 C 0.1647(7) 0.2130(9) -0.0201(8)
C17 C 0.2350(7) 0.1684(7) 0.0215(9)
C18 C 0.2755(5) 0.2407(7) 0.0708(8)
C19 C 0.3297(6) 0.1764(7) 0.2676(8)
C20 C 0.4312(5) 0.1689(7) 0.2991(8)
C21 C 0.4651(6) 0.0541(7) 0.3176(8)
C22 C 0.5587(8) 0.042(1) 0.3478(9)
C23 C 0.6124(6) 0.146(1) 0.3585(8)
C24 C 0.5816(6) 0.2580(8) 0.3414(8)
C25 C 0.4895(6) 0.2716(7) 0.3112(9)
C26 C 0.2347(5) 0.7313(6) 0.1483(9)
C27 C 0.1616(5) 0.8220(5) 0.1251(8)
C28 C 0.1227(6) 0.8203(6) 0.0627(8)
C29 C 0.0543(6) 0.9083(8) 0.0431(8)
C30 C 0.0245(5) 0.9927(7) 0.0887(8)
C31 C 0.0638(6) 0.9982(7) 0.1501(8)
C32 C 0.1328(6) 0.9124(7) 0.1687(8)
H1 H 0.1903 0.2606 0.1979
H2 H 0.2549 0.4957 0.2285
H3 H 0.3448 0.3893 0.1487
H4 H 0.3743 0.5877 0.1492
H5 H 0.4475 0.4963 0.0561
H6 H 0.3530 0.5261 0.0145
H7 H 0.4206 0.6302 0.0404
H8 H 0.2209 0.3636 0.3630
H9 H 0.0995 0.3603 0.4454
H10 H -0.0644 0.3210 0.4184
H11 H -0.1102 0.2852 0.3076
H12 H 0.0115 0.2750 0.2257
H13 H 0.1485 0.4854 0.0420
H14 H 0.0831 0.3632 -0.0437
H15 H 0.1382 0.1626 -0.0540
H16 H 0.2585 0.0866 0.0167
H17 H 0.3255 0.2095 0.0995
H18 H 0.4235 -0.0142 0.3091
H19 H 0.5806 -0.0381 0.3585
H20 H 0.6229 0.3270 0.3502
H21 H 0.4657 0.3495 0.2976
H22 H 0.1412 0.7581 0.0319
H23 H 0.0296 0.9112 -0.0021
H24 H 0.0447 1.0608 0.1798
H25 H 0.1607 0.9150 0.2119
loop_
_geom_bond_atom_site_label_1
_geom_bond_atom_site_label_2
_geom_bond_site_symmetry_1
_geom_bond_site_symmetry_2
O1 C1 1_555 1_555
O2 C19 1_555 1_555
O3 N2 1_555 1_555
O4 N2 1_555 1_555
O5 C4 1_555 1_555
O6 C26 1_555 1_555
O7 N3 1_555 1_555
O8 N3 1_555 1_555
N1 C6 1_555 1_555
N2 C23 1_555 1_555
N3 C30 1_555 1_555
C1 C2 1_555 1_555
C2 C3 1_555 1_555
C3 C4 1_555 1_555
C4 C5 1_555 1_555
C5 H5 1_555 1_555
C6 C2 1_555 1_555
C7 C1 1_555 1_555
C8 C7 1_555 1_555
C9 C8 1_555 1_555
C10 C9 1_555 1_555
C11 C10 1_555 1_555
C12 C7 1_555 1_555
C13 C3 1_555 1_555
C14 C13 1_555 1_555
C15 C14 1_555 1_555
C16 C15 1_555 1_555
C17 C16 1_555 1_555
C18 C13 1_555 1_555
C19 O1 1_555 1_555
C20 C19 1_555 1_555
C21 C20 1_555 1_555
C22 C21 1_555 1_555
C23 C22 1_555 1_555
C24 C23 1_555 1_555
C25 C20 1_555 1_555
C26 O5 1_555 1_555
C27 C26 1_555 1_555
C28 C27 1_555 1_555
C29 C28 1_555 1_555
C30 C29 1_555 1_555
C31 C30 1_555 1_555
C32 C27 1_555 1_555
H1 C1 1_555 1_555
H2 C2 1_555 1_555
H3 C3 1_555 1_555
H4 C4 1_555 1_555
H6 C5 1_555 1_555
H7 C5 1_555 1_555
H8 C8 1_555 1_555
H9 C9 1_555 1_555
H10 C10 1_555 1_555
H11 C11 1_555 1_555
H12 C12 1_555 1_555
H13 C14 1_555 1_555
H14 C15 1_555 1_555
H15 C16 1_555 1_555
H16 C17 1_555 1_555
H17 C18 1_555 1_555
H18 C21 1_555 1_555
H19 C22 1_555 1_555
H20 C24 1_555 1_555
H21 C25 1_555 1_555
H22 C28 1_555 1_555
H23 C29 1_555 1_555
H24 C31 1_555 1_555
H25 C32 1_555 1_555
C11 C12 1_555 1_555
C17 C18 1_555 1_555
C24 C25 1_555 1_555
C31 C32 1_555 1_555

#END
