
#######################################################################
#
#                 Cambridge Crystallographic Data Centre
#                                CCDC 
#
#######################################################################
#
# If this CIF has been generated from an entry in the Cambridge 
# Structural Database, then it will include bibliographic, chemical, 
# crystal, experimental, refinement or atomic coordinate data resulting 
# from the CCDC's data processing and validation procedures.
#
#######################################################################

data_IHOHOE
_chemical_formula_moiety         'C16 H11 Br1 N4 O1'
_chemical_name_systematic        
2-bromo-5-(2-methylphenyl)pyrazolo[1,5-a]pyrido[2,3-e]pyrazin-4(5H)-one
_symmetry_cell_setting           monoclinic
_symmetry_space_group_name_H-M   'P 21/c'
_symmetry_Int_Tables_number      14
_space_group_name_Hall           '-P 2ybc'
loop_
_symmetry_equiv_pos_site_id
_symmetry_equiv_pos_as_xyz
1 x,y,z
2 -x,1/2+y,1/2-z
3 -x,-y,-z
4 x,1/2-y,1/2+z
_cell_length_a                   7.447(3)
_cell_length_b                   10.412(4)
_cell_length_c                   18.261(7)
_cell_angle_alpha                90
_cell_angle_beta                 98.687(7)
_cell_angle_gamma                90
_cell_volume                     1399.68
_cell_formula_units_Z            4
loop_
_atom_site_label
_atom_site_type_symbol
_atom_site_fract_x
_atom_site_fract_y
_atom_site_fract_z
Br1 Br 0.26316(17) -0.40493(9) 0.47276(6)
N1 N 0.2531(13) -0.1476(8) 0.5130(4)
N2 N 0.2571(12) -0.0308(7) 0.4809(4)
N3 N 0.2655(12) 0.1915(7) 0.4016(4)
N4 N 0.2407(12) 0.3111(8) 0.5060(4)
O1 O 0.2795(12) 0.0723(7) 0.2976(4)
C1 C 0.2652(15) -0.2293(9) 0.4573(5)
C2 C 0.2758(15) -0.1672(10) 0.3904(6)
H1 H 0.2858 -0.2050 0.3438
C3 C 0.2683(15) -0.0381(10) 0.4075(6)
C4 C 0.2737(14) 0.0757(9) 0.3639(6)
C5 C 0.2474(16) 0.1951(9) 0.4763(6)
C6 C 0.2465(14) 0.0830(9) 0.5182(5)
C7 C 0.2342(16) 0.0922(10) 0.5926(5)
H2 H 0.2319 0.0172 0.6221
C8 C 0.2254(17) 0.2126(10) 0.6233(6)
H3 H 0.2172 0.2226 0.6743
C9 C 0.2288(16) 0.3175(10) 0.5782(6)
H4 H 0.2222 0.4001 0.5996
C10 C 0.2737(16) 0.3065(9) 0.3587(6)
C11 C 0.4478(16) 0.3483(10) 0.3484(6)
H5 H 0.5539 0.3031 0.3696
C12 C 0.4586(17) 0.4587(11) 0.3058(6)
H6 H 0.5739 0.4899 0.2977
C13 C 0.3053(18) 0.5216(10) 0.2760(6)
H7 H 0.3145 0.5965 0.2471
C14 C 0.1376(17) 0.4787(10) 0.2869(6)
H8 H 0.0320 0.5246 0.2658
C15 C 0.1197(16) 0.3678(10) 0.3289(6)
C16 C -0.0598(16) 0.3204(12) 0.3405(6)
H9 H -0.0769 0.2326 0.3213
H10 H -0.1544 0.3762 0.3143
H11 H -0.0678 0.3208 0.3935
loop_
_geom_bond_atom_site_label_1
_geom_bond_atom_site_label_2
_geom_bond_site_symmetry_1
_geom_bond_site_symmetry_2
Br1 C1 1_555 1_555
N1 N2 1_555 1_555
N2 C3 1_555 1_555
N3 C4 1_555 1_555
N4 C5 1_555 1_555
O1 C4 1_555 1_555
C1 N1 1_555 1_555
C2 C1 1_555 1_555
H1 C2 1_555 1_555
C3 C2 1_555 1_555
C4 C3 1_555 1_555
C5 N3 1_555 1_555
C6 N2 1_555 1_555
C7 C6 1_555 1_555
H2 C7 1_555 1_555
C8 C7 1_555 1_555
H3 C8 1_555 1_555
C9 N4 1_555 1_555
H4 C9 1_555 1_555
C10 N3 1_555 1_555
C11 C10 1_555 1_555
H5 C11 1_555 1_555
C12 C11 1_555 1_555
H6 C12 1_555 1_555
C13 C12 1_555 1_555
H7 C13 1_555 1_555
C14 C13 1_555 1_555
H8 C14 1_555 1_555
C15 C10 1_555 1_555
C16 C15 1_555 1_555
H9 C16 1_555 1_555
H10 C16 1_555 1_555
H11 C16 1_555 1_555
C5 C6 1_555 1_555
C8 C9 1_555 1_555
C14 C15 1_555 1_555

#END
