
#######################################################################
#
#                 Cambridge Crystallographic Data Centre
#                                CCDC 
#
#######################################################################
#
# If this CIF has been generated from an entry in the Cambridge 
# Structural Database, then it will include bibliographic, chemical, 
# crystal, experimental, refinement or atomic coordinate data resulting 
# from the CCDC's data processing and validation procedures.
#
#######################################################################

data_IHOHIW
_chemical_formula_moiety         'C34 H30 O5'
_chemical_name_systematic        
2-((2S*,3S*,4R*,5R*)-4-Benzoyl-5-((R*)-1-acetoxy-1-phenylmethyl)-2-phenyltetrahydro-3-furanyl)-1-phenyl-1-ethanone
_symmetry_cell_setting           monoclinic
_symmetry_space_group_name_H-M   'C 2/c'
_symmetry_Int_Tables_number      15
_space_group_name_Hall           '-C 2yn'
loop_
_symmetry_equiv_pos_site_id
_symmetry_equiv_pos_as_xyz
1 x,y,z
2 1/2+x,1/2+y,z
3 x,-y,1/2+z
4 1/2+x,1/2-y,1/2+z
5 -x,-y,-z
6 1/2-x,1/2-y,-z
7 -x,y,1/2-z
8 1/2-x,1/2+y,1/2-z
_cell_length_a                   19.9779(14)
_cell_length_b                   13.9738(10)
_cell_length_c                   19.1132(14)
_cell_angle_alpha                90
_cell_angle_beta                 96.462(2)
_cell_angle_gamma                90
_cell_volume                     5301.88
_exptl_crystal_colour            colorless
_exptl_crystal_description       block
_chemical_melting_point          '184-186 deg.C'
_cell_formula_units_Z            8
loop_
_atom_site_label
_atom_site_type_symbol
_atom_site_fract_x
_atom_site_fract_y
_atom_site_fract_z
O1 O 0.28727(5) 0.52266(9) -0.08225(7)
O2 O 0.24797(6) 0.70507(9) -0.11635(6)
O3 O 0.24406(7) 0.68781(10) -0.23372(6)
O4 O 0.22613(7) 0.36606(11) 0.02923(7)
O5 O 0.07822(6) 0.35119(9) -0.17525(7)
C1 C 0.22508(7) 0.55679(11) -0.06127(8)
H1 H 0.2328 0.5834 -0.0130
C2 C 0.17770(7) 0.46915(11) -0.06205(8)
H2 H 0.1306 0.4881 -0.0773
C3 C 0.20523(7) 0.40635(11) -0.11829(8)
H3 H 0.1891 0.4342 -0.1648
C4 C 0.28127(7) 0.42404(12) -0.10534(8)
H4 H 0.3008 0.3820 -0.0666
C5 C 0.19583(8) 0.63461(11) -0.11262(8)
H5 H 0.1832 0.6064 -0.1598
C6 C 0.26769(8) 0.72469(12) -0.18020(8)
C7 C 0.32240(10) 0.79783(15) -0.17340(11)
H6 H 0.3382 0.8082 -0.2190
H7 H 0.3594 0.7754 -0.1402
H8 H 0.3052 0.8574 -0.1566
C8 C 0.13556(8) 0.68274(11) -0.08734(8)
C9 C 0.07064(8) 0.65974(12) -0.11671(9)
H9 H 0.0643 0.6171 -0.1549
C10 C 0.01541(9) 0.69945(13) -0.08991(10)
H10 H -0.0283 0.6826 -0.1093
C11 C 0.02429(10) 0.76373(14) -0.03477(11)
H11 H -0.0134 0.7908 -0.0169
C12 C 0.08838(10) 0.78813(13) -0.00598(10)
H12 H 0.0945 0.8324 0.0312
C13 C 0.14372(9) 0.74756(12) -0.03185(9)
H13 H 0.1873 0.7640 -0.0117
C14 C 0.18377(8) 0.42632(12) 0.01169(8)
C15 C 0.13910(8) 0.46177(11) 0.06394(8)
C16 C 0.15348(8) 0.43068(13) 0.13367(9)
H14 H 0.1897 0.3888 0.1461
C17 C 0.11405(10) 0.46200(15) 0.18427(9)
H15 H 0.1237 0.4411 0.2311
C18 C 0.06074(9) 0.52360(14) 0.16685(9)
H16 H 0.0345 0.5448 0.2017
C19 C 0.04603(8) 0.55404(13) 0.09805(9)
H17 H 0.0095 0.5956 0.0860
C20 C 0.08507(8) 0.52338(12) 0.04667(8)
H18 H 0.0749 0.5444 0.0000
C21 C 0.18476(8) 0.30152(11) -0.12011(9)
H19 H 0.2105 0.2671 -0.1528
H20 H 0.1959 0.2737 -0.0732
C22 C 0.11035(8) 0.28847(12) -0.14272(8)
C23 C 0.07724(8) 0.19649(12) -0.12637(9)
C24 C 0.01136(10) 0.17974(15) -0.15654(10)
H21 H -0.0113 0.2260 -0.1860
C25 C -0.02063(12) 0.09479(17) -0.14297(12)
H22 H -0.0643 0.0825 -0.1649
C26 C 0.01124(13) 0.02812(15) -0.09752(13)
H23 H -0.0111 -0.0287 -0.0878
C27 C 0.07549(12) 0.04472(14) -0.06658(12)
H24 H 0.0969 -0.0006 -0.0353
C28 C 0.10904(10) 0.12810(13) -0.08119(10)
H25 H 0.1534 0.1384 -0.0605
C29 C 0.31904(8) 0.40954(12) -0.16809(9)
C30 C 0.30559(10) 0.46547(14) -0.22837(10)
H26 H 0.2725 0.5135 -0.2300
C31 C 0.34077(11) 0.45069(16) -0.28598(11)
H27 H 0.3316 0.4890 -0.3263
C32 C 0.38918(10) 0.38011(15) -0.28447(11)
H28 H 0.4126 0.3699 -0.3238
C33 C 0.40297(11) 0.32475(16) -0.22513(12)
H29 H 0.4362 0.2769 -0.2237
C34 C 0.36780(9) 0.33942(14) -0.16724(10)
H30 H 0.3774 0.3010 -0.1270
loop_
_geom_bond_atom_site_label_1
_geom_bond_atom_site_label_2
_geom_bond_site_symmetry_1
_geom_bond_site_symmetry_2
O1 C1 1_555 1_555
O2 C5 1_555 1_555
O3 C6 1_555 1_555
O4 C14 1_555 1_555
O5 C22 1_555 1_555
C1 H1 1_555 1_555
C2 C1 1_555 1_555
H2 C2 1_555 1_555
C3 C2 1_555 1_555
H3 C3 1_555 1_555
C4 O1 1_555 1_555
H4 C4 1_555 1_555
C5 C1 1_555 1_555
H5 C5 1_555 1_555
C6 O2 1_555 1_555
C7 C6 1_555 1_555
H6 C7 1_555 1_555
H7 C7 1_555 1_555
H8 C7 1_555 1_555
C8 C5 1_555 1_555
C9 C8 1_555 1_555
H9 C9 1_555 1_555
C10 C9 1_555 1_555
H10 C10 1_555 1_555
C11 C10 1_555 1_555
H11 C11 1_555 1_555
C12 C11 1_555 1_555
H12 C12 1_555 1_555
C13 C8 1_555 1_555
H13 C13 1_555 1_555
C14 C2 1_555 1_555
C15 C14 1_555 1_555
C16 C15 1_555 1_555
H14 C16 1_555 1_555
C17 C16 1_555 1_555
H15 C17 1_555 1_555
C18 C17 1_555 1_555
H16 C18 1_555 1_555
C19 C18 1_555 1_555
H17 C19 1_555 1_555
C20 C15 1_555 1_555
H18 C20 1_555 1_555
C21 C3 1_555 1_555
H19 C21 1_555 1_555
H20 C21 1_555 1_555
C22 C21 1_555 1_555
C23 C22 1_555 1_555
C24 C23 1_555 1_555
H21 C24 1_555 1_555
C25 C24 1_555 1_555
H22 C25 1_555 1_555
C26 C25 1_555 1_555
H23 C26 1_555 1_555
C27 C26 1_555 1_555
H24 C27 1_555 1_555
C28 C23 1_555 1_555
H25 C28 1_555 1_555
C29 C4 1_555 1_555
C30 C29 1_555 1_555
H26 C30 1_555 1_555
C31 C30 1_555 1_555
H27 C31 1_555 1_555
C32 C31 1_555 1_555
H28 C32 1_555 1_555
C33 C32 1_555 1_555
H29 C33 1_555 1_555
C34 C29 1_555 1_555
H30 C34 1_555 1_555
C3 C4 1_555 1_555
C12 C13 1_555 1_555
C19 C20 1_555 1_555
C27 C28 1_555 1_555
C33 C34 1_555 1_555

#END
