
#######################################################################
#
#                 Cambridge Crystallographic Data Centre
#                                CCDC 
#
#######################################################################
#
# If this CIF has been generated from an entry in the Cambridge 
# Structural Database, then it will include bibliographic, chemical, 
# crystal, experimental, refinement or atomic coordinate data resulting 
# from the CCDC's data processing and validation procedures.
#
#######################################################################

data_IHOMAV
_chemical_formula_moiety         'C25 H18 N4 O3,2(C1 H1 Cl3)'
_chemical_name_systematic        
"17b-hydroxy-13,17b,18,18a-tetrahydro-11H-indolo[3',2':4,5]pyrrolo[2,1-c]quinazolino[3,2-a][1,4]benzodiazepine-5,11(12aH)-dione chloroform solvate"
_symmetry_cell_setting           monoclinic
_symmetry_space_group_name_H-M   'P 21/n'
_symmetry_Int_Tables_number      14
_space_group_name_Hall           '-P 2yn'
loop_
_symmetry_equiv_pos_site_id
_symmetry_equiv_pos_as_xyz
1 x,y,z
2 1/2-x,1/2+y,1/2-z
3 -x,-y,-z
4 1/2+x,1/2-y,1/2+z
_cell_length_a                   11.120(2)
_cell_length_b                   11.349(2)
_cell_length_c                   23.369(5)
_cell_angle_alpha                90
_cell_angle_beta                 99.08(3)
_cell_angle_gamma                90
_cell_volume                     2912.23
_cell_formula_units_Z            4
loop_
_atom_site_label
_atom_site_type_symbol
_atom_site_fract_x
_atom_site_fract_y
_atom_site_fract_z
C1 C 0.5896(5) 0.8772(5) 0.1184(3)
Cl1 Cl 0.5511(2) 0.8871(2) 0.18812(9)
Cl2 Cl 0.4810(2) 0.7959(2) 0.07548(11)
Cl3 Cl 0.6069(4) 1.0145(2) 0.09090(17)
H1 H 0.6675(5) 0.8356(5) 0.1212(3)
C2 C 0.6123(5) 0.4156(5) 0.2263(2)
C3 C 0.6626(4) 0.3457(4) 0.18729(17)
C4 C 1.4334(4) 0.3380(4) 0.0569(2)
C5 C 1.3322(3) 0.2688(4) 0.03961(18)
C6 C 0.6471(5) 0.5320(5) 0.2351(2)
C7 C 0.7337(4) 0.5818(4) 0.20607(19)
C8 C 1.4203(4) 0.4509(5) 0.0747(2)
C9 C 0.8000(4) 0.0003(4) -0.10726(19)
C10 C 0.8920(4) 0.0174(4) -0.14095(17)
C11 C 0.7853(3) 0.5118(3) 0.16805(15)
C12 C 1.3054(3) 0.4993(4) 0.07506(17)
C13 C 0.9925(4) 0.0827(3) -0.11988(16)
C14 C 1.0034(3) 0.1323(3) -0.06421(14)
C15 C 0.7488(3) 0.3950(3) 0.15828(14)
C16 C 0.8159(3) 0.3423(3) 0.11317(13)
C17 C 0.8101(4) 0.0480(3) -0.05239(18)
C18 C 1.2017(3) 0.4296(3) 0.05877(14)
C19 C 0.9128(3) 0.1148(3) -0.03027(14)
C20 C 1.0820(3) 0.4840(3) 0.06500(13)
C21 C 0.8787(3) 0.4530(3) 0.09130(13)
C22 C 0.9225(3) 0.2613(3) 0.13688(13)
C23 C 1.1082(3) 0.2042(3) -0.04217(14)
C24 C 1.0160(3) 0.2238(3) 0.04469(13)
C25 C 1.2167(3) 0.3151(3) 0.03942(14)
N1 N 0.8749(3) 0.5443(3) 0.13506(13)
N2 N 1.0034(2) 0.4142(2) 0.08764(11)
N3 N 0.9203(2) 0.1636(2) 0.02473(11)
N4 N 1.1134(2) 0.2432(2) 0.01509(11)
O1 O 0.7327(2) 0.2872(2) 0.06902(10)
O2 O 1.1887(2) 0.2312(2) -0.07057(11)
O3 O 1.0594(2) 0.5886(2) 0.05367(11)
C26 C 1.0235(3) 0.2883(3) 0.10172(13)
H2 H 0.5547(5) 0.3837(5) 0.2467(2)
H3 H 0.6116(5) 0.5776(5) 0.2609(2)
H4 H 0.7566(4) 0.6602(4) 0.21200(19)
H5 H 0.6386(4) 0.2677(4) 0.18094(17)
H6 H 1.3414(3) 0.1913(4) 0.02813(18)
H7 H 1.5109(4) 0.3076(4) 0.0563(2)
H8 H 1.4892(4) 0.4963(5) 0.0869(2)
H9 H 1.2975(3) 0.5774(4) 0.08601(17)
H10 H 0.7488(4) 0.0357(3) -0.03016(18)
H11 H 0.7314(4) -0.0435(4) -0.12200(19)
H12 H 0.8847(4) -0.0157(4) -0.17774(17)
H13 H 1.0535(4) 0.0942(3) -0.14232(16)
H14 H 0.8364(3) 0.4787(3) 0.05338(13)
H15 H 0.9498(3) 0.2769(3) 0.17767(13)
H16 H 0.8982(3) 0.1793(3) 0.13236(13)
H17 H 0.8678(3) 0.6150(3) 0.12178(13)
H18 H 0.7700(5) 0.244(3) 0.0498(14)
H19 H 1.1036(3) 0.2766(3) 0.12536(13)
Cl4 Cl 0.19188(15) 0.46840(12) 0.22030(6)
Cl5 Cl 0.1008(2) 0.6754(2) 0.26900(10)
Cl6 Cl 0.2876(2) 0.69558(18) 0.20059(10)
C27 C 0.1571(5) 0.6165(5) 0.2091(2)
H20 H 0.0959(5) 0.6254(5) 0.1743(2)
loop_
_geom_bond_atom_site_label_1
_geom_bond_atom_site_label_2
_geom_bond_site_symmetry_1
_geom_bond_site_symmetry_2
C1 Cl1 1_555 1_555
Cl2 C1 1_555 1_555
Cl3 C1 1_555 1_555
H1 C1 1_555 1_555
C2 C3 1_555 1_555
C3 C15 1_555 1_555
C4 C5 1_555 1_555
C5 C25 1_555 1_555
C6 C2 1_555 1_555
C7 C6 1_555 1_555
C8 C4 1_555 1_555
C9 C10 1_555 1_555
C10 C13 1_555 1_555
C11 C7 1_555 1_555
C12 C8 1_555 1_555
C13 C14 1_555 1_555
C14 C19 1_555 1_555
C15 C11 1_555 1_555
C16 C15 1_555 1_555
C17 C9 1_555 1_555
C18 C12 1_555 1_555
C19 C17 1_555 1_555
C20 C18 1_555 1_555
C21 C16 1_555 1_555
C22 C16 1_555 1_555
C23 C14 1_555 1_555
C24 N3 1_555 1_555
C25 C18 1_555 1_555
N1 C11 1_555 1_555
N2 C20 1_555 1_555
N3 C19 1_555 1_555
N4 C23 1_555 1_555
O1 C16 1_555 1_555
O2 C23 1_555 1_555
O3 C20 1_555 1_555
C26 C22 1_555 1_555
H2 C2 1_555 1_555
H3 C6 1_555 1_555
H4 C7 1_555 1_555
H5 C3 1_555 1_555
H6 C5 1_555 1_555
H7 C4 1_555 1_555
H8 C8 1_555 1_555
H9 C12 1_555 1_555
H10 C17 1_555 1_555
H11 C9 1_555 1_555
H12 C10 1_555 1_555
H13 C13 1_555 1_555
H14 C21 1_555 1_555
H15 C22 1_555 1_555
H16 C22 1_555 1_555
H17 N1 1_555 1_555
H18 O1 1_555 1_555
H19 C26 1_555 1_555
Cl4 C27 1_555 1_555
Cl5 C27 1_555 1_555
Cl6 C27 1_555 1_555
C27 H20 1_555 1_555
C21 N1 1_555 1_555
C21 N2 1_555 1_555
C24 N4 1_555 1_555
C24 C26 1_555 1_555
C25 N4 1_555 1_555
N2 C26 1_555 1_555

#END
