
#######################################################################
#
#                 Cambridge Crystallographic Data Centre
#                                CCDC 
#
#######################################################################
#
# If this CIF has been generated from an entry in the Cambridge 
# Structural Database, then it will include bibliographic, chemical, 
# crystal, experimental, refinement or atomic coordinate data resulting 
# from the CCDC's data processing and validation procedures.
#
#######################################################################

data_IHOSII
_chemical_formula_moiety         'C26 H22 Br4 Cl2 N2'
_chemical_name_systematic        
2,6,8,12-Tetrabromo-5,11-bis(4-chlorobutyl)-5,11-dihydroindolo[3,2-b]carbazole
_symmetry_cell_setting           monoclinic
_symmetry_space_group_name_H-M   'P 21/c'
_symmetry_Int_Tables_number      14
_space_group_name_Hall           '-P 2ybc'
loop_
_symmetry_equiv_pos_site_id
_symmetry_equiv_pos_as_xyz
1 x,y,z
2 -x,1/2+y,1/2-z
3 -x,-y,-z
4 x,1/2-y,1/2+z
_cell_length_a                   4.6427(9)
_cell_length_b                   11.425(2)
_cell_length_c                   24.511(4)
_cell_angle_alpha                90
_cell_angle_beta                 93.474(12)
_cell_angle_gamma                90
_cell_volume                     1297.74
_exptl_crystal_description       prism
_cell_formula_units_Z            2
_exptl_crystal_recrystallization_method chloroform
loop_
_atom_site_label
_atom_site_type_symbol
_atom_site_fract_x
_atom_site_fract_y
_atom_site_fract_z
Br1 Br 0.38447(8) 0.23598(3) 0.475176(13)
Br2 Br -0.01507(9) -0.30958(4) 0.739088(14)
C1 C 0.1070(8) -0.1859(3) 0.69350(12)
C2 C 0.3096(8) -0.1065(3) 0.71510(13)
H1 H 0.3831 -0.1142 0.7511
C3 C 0.4010(7) -0.0168(3) 0.68332(13)
H2 H 0.5349 0.0374 0.6974
C4 C 0.2884(7) -0.0086(3) 0.62915(11)
C5 C 0.0795(6) -0.0890(2) 0.60739(11)
C6 C -0.0114(7) -0.1790(3) 0.64082(12)
H3 H -0.1486 -0.2331 0.6278
C7 C 0.1872(6) 0.0465(2) 0.54162(12)
C8 C 0.1712(6) 0.1002(2) 0.49058(11)
C9 C -0.0136(6) 0.0541(2) 0.44904(11)
C10 C 0.5531(7) 0.1683(3) 0.60099(12)
H4 H 0.6611 0.1826 0.5690
H5 H 0.6897 0.1467 0.6308
C11 C 0.3994(7) 0.2799(3) 0.61592(13)
H6 H 0.2421 0.2949 0.5890
H7 H 0.3176 0.2699 0.6511
C12 C 0.6015(8) 0.3841(3) 0.61861(15)
H8 H 0.7505 0.3707 0.6474
H9 H 0.6951 0.3893 0.5844
C13 C 0.4593(10) 0.4984(4) 0.6289(2)
H10 H 0.6060 0.5582 0.6352
H11 H 0.3530 0.4922 0.6617
Cl1 Cl 0.2183(3) 0.54130(9) 0.57292(6)
N1 N 0.3547(6) 0.0713(2) 0.58973(10)
Br1B Br -0.38447(8) -0.23598(3) 0.524824(13)
Br2B Br 0.01507(9) 0.30958(4) 0.260912(14)
C1B C -0.1070(8) 0.1859(3) 0.30650(12)
C2B C -0.3096(8) 0.1065(3) 0.28490(13)
H1B H -0.3831 0.1142 0.2489
C3B C -0.4010(7) 0.0168(3) 0.31668(13)
H2B H -0.5349 -0.0374 0.3026
C4B C -0.2884(7) 0.0086(3) 0.37085(11)
C5B C -0.0795(6) 0.0890(2) 0.39261(11)
C6B C 0.0114(7) 0.1790(3) 0.35918(12)
H3B H 0.1486 0.2331 0.3722
C7B C -0.1872(6) -0.0465(2) 0.45838(12)
C8B C -0.1712(6) -0.1002(2) 0.50942(11)
C9B C 0.0136(6) -0.0541(2) 0.55096(11)
C10B C -0.5531(7) -0.1683(3) 0.39901(12)
H4B H -0.6611 -0.1826 0.4310
H5B H -0.6897 -0.1467 0.3692
C11B C -0.3994(7) -0.2799(3) 0.38408(13)
H6B H -0.2421 -0.2949 0.4110
H7B H -0.3176 -0.2699 0.3489
C12B C -0.6015(8) -0.3841(3) 0.38139(15)
H8B H -0.7505 -0.3707 0.3526
H9B H -0.6951 -0.3893 0.4156
C13B C -0.4593(10) -0.4984(4) 0.3711(2)
H10B H -0.6060 -0.5582 0.3648
H11B H -0.3530 -0.4922 0.3383
Cl1B Cl -0.2183(3) -0.54130(9) 0.42708(6)
N1B N -0.3547(6) -0.0713(2) 0.41027(10)
loop_
_geom_bond_atom_site_label_1
_geom_bond_atom_site_label_2
_geom_bond_site_symmetry_1
_geom_bond_site_symmetry_2
Br1 C8 1_555 1_555
Br2 C1 1_555 1_555
C1 C2 1_555 1_555
C2 H1 1_555 1_555
C3 C2 1_555 1_555
H2 C3 1_555 1_555
C4 C3 1_555 1_555
C5 C4 1_555 1_555
C6 C1 1_555 1_555
H3 C6 1_555 1_555
C7 C8 1_555 1_555
C8 C9 1_555 1_555
C9 C5B 1_555 1_555
C10 H4 1_555 1_555
H5 C10 1_555 1_555
C11 C10 1_555 1_555
H6 C11 1_555 1_555
H7 C11 1_555 1_555
C12 C11 1_555 1_555
H8 C12 1_555 1_555
H9 C12 1_555 1_555
C13 C12 1_555 1_555
H10 C13 1_555 1_555
H11 C13 1_555 1_555
Cl1 C13 1_555 1_555
N1 C4 1_555 1_555
Br1B C8B 1_555 1_555
Br2B C1B 1_555 1_555
C1B C2B 1_555 1_555
C2B H1B 1_555 1_555
C3B C2B 1_555 1_555
H2B C3B 1_555 1_555
C4B C3B 1_555 1_555
C5B C4B 1_555 1_555
C6B C1B 1_555 1_555
H3B C6B 1_555 1_555
C7B C9 1_555 1_555
C8B C7B 1_555 1_555
C9B C5 1_555 1_555
C10B H4B 1_555 1_555
H5B C10B 1_555 1_555
C11B C10B 1_555 1_555
H6B C11B 1_555 1_555
H7B C11B 1_555 1_555
C12B C11B 1_555 1_555
H8B C12B 1_555 1_555
H9B C12B 1_555 1_555
C13B C12B 1_555 1_555
H10B C13B 1_555 1_555
H11B C13B 1_555 1_555
Cl1B C13B 1_555 1_555
N1B C4B 1_555 1_555
C5 C6 1_555 1_555
C7 N1 1_555 1_555
C7 C9B 1_555 1_555
C10 N1 1_555 1_555
C5B C6B 1_555 1_555
C7B N1B 1_555 1_555
C8B C9B 1_555 1_555
C10B N1B 1_555 1_555

#END
