
#######################################################################
#
#                 Cambridge Crystallographic Data Centre
#                                CCDC 
#
#######################################################################
#
# If this CIF has been generated from an entry in the Cambridge 
# Structural Database, then it will include bibliographic, chemical, 
# crystal, experimental, refinement or atomic coordinate data resulting 
# from the CCDC's data processing and validation procedures.
#
#######################################################################

data_IHOWIN
_chemical_formula_moiety         'C21 H21 N3 O4 S2'
_chemical_name_systematic        
N-(3-(1-(phenylsulfonyl)pyrrolidin-2-yl)pyridin-2-yl)benzenesulfonamide
_symmetry_cell_setting           monoclinic
_symmetry_space_group_name_H-M   'P 21/n'
_symmetry_Int_Tables_number      14
_space_group_name_Hall           '-P 2yn'
loop_
_symmetry_equiv_pos_site_id
_symmetry_equiv_pos_as_xyz
1 x,y,z
2 1/2-x,1/2+y,1/2-z
3 -x,-y,-z
4 1/2+x,1/2-y,1/2+z
_cell_length_a                   6.4382(8)
_cell_length_b                   34.658(4)
_cell_length_c                   9.2790(12)
_cell_angle_alpha                90
_cell_angle_beta                 91.881(2)
_cell_angle_gamma                90
_cell_volume                     2069.36
_cell_formula_units_Z            4
_exptl_crystal_recrystallization_method MeOH
loop_
_atom_site_label
_atom_site_type_symbol
_atom_site_fract_x
_atom_site_fract_y
_atom_site_fract_z
S1 S 0.68893(17) 0.05371(3) 1.10688(10)
S2 S 0.56664(16) 0.16465(3) 0.59377(11)
C1 C 1.0438(7) 0.09632(15) 1.0787(4)
H1 H 1.0975 0.0750 1.0316
C2 C 1.1570(8) 0.12949(17) 1.0927(5)
H2 H 1.2890 0.1307 1.0552
C3 C 1.0779(8) 0.16148(16) 1.1621(5)
H3 H 1.1551 0.1841 1.1685
C4 C 0.8862(7) 0.15968(14) 1.2213(5)
H4 H 0.8358 0.1809 1.2706
C5 C 0.7666(7) 0.12652(13) 1.2082(4)
H5 H 0.6352 0.1254 1.2469
C6 C 0.8471(6) 0.09483(12) 1.1360(4)
C7 C 0.6326(6) 0.04815(10) 0.8284(4)
C8 C 0.8137(6) 0.00238(11) 0.6849(4)
H6 H 0.9014 -0.0189 0.6818
C9 C 0.7370(6) 0.01808(11) 0.5618(4)
H7 H 0.7680 0.0074 0.4730
C10 C 0.6088(6) 0.05085(10) 0.5695(4)
H8 H 0.5590 0.0624 0.4848
C11 C 0.5563(5) 0.06598(10) 0.6993(4)
C12 C 0.4145(6) 0.10044(10) 0.7116(4)
H9 H 0.4508 0.1149 0.7996
C13 C 0.1847(6) 0.08945(12) 0.7101(4)
H10 H 0.1657 0.0639 0.7504
H11 H 0.1052 0.1079 0.7643
C14 C 0.1203(6) 0.09033(12) 0.5516(4)
H12 H -0.0294 0.0925 0.5388
H13 H 0.1666 0.0673 0.5026
C15 C 0.2286(6) 0.12598(12) 0.4962(4)
H14 H 0.2546 0.1238 0.3942
H15 H 0.1477 0.1491 0.5127
C16 C 0.4802(6) 0.19253(11) 0.7403(4)
C17 C 0.5968(8) 0.19445(14) 0.8664(6)
H16 H 0.7209 0.1808 0.8763
C18 C 0.5280(10) 0.21683(16) 0.9788(6)
H17 H 0.6067 0.2180 1.0645
C19 C 0.3493(9) 0.23685(13) 0.9664(5)
H18 H 0.3077 0.2526 1.0413
C20 C 0.2299(8) 0.23386(13) 0.8430(5)
H19 H 0.1035 0.2468 0.8355
C21 C 0.2942(7) 0.21178(13) 0.7290(5)
H20 H 0.2119 0.2100 0.6450
N1 N 0.5748(5) 0.06202(10) 0.9565(3)
H21 H 0.4667 0.0766 0.9566
N2 N 0.7626(5) 0.01779(9) 0.8148(3)
N3 N 0.4259(5) 0.12613(8) 0.5841(3)
O1 O 0.5368(5) 0.05361(9) 1.2173(3)
O2 O 0.8267(5) 0.02073(9) 1.1034(3)
O3 O 0.7742(4) 0.15357(9) 0.6314(4)
O4 O 0.5220(5) 0.18579(8) 0.4636(3)
loop_
_geom_bond_atom_site_label_1
_geom_bond_atom_site_label_2
_geom_bond_site_symmetry_1
_geom_bond_site_symmetry_2
S1 C6 1_555 1_555
S2 C16 1_555 1_555
C1 H1 1_555 1_555
C2 C1 1_555 1_555
H2 C2 1_555 1_555
C3 C2 1_555 1_555
H3 C3 1_555 1_555
C4 C3 1_555 1_555
H4 C4 1_555 1_555
C5 C4 1_555 1_555
H5 C5 1_555 1_555
C6 C1 1_555 1_555
C7 C11 1_555 1_555
C8 H6 1_555 1_555
C9 C8 1_555 1_555
H7 C9 1_555 1_555
C10 C9 1_555 1_555
H8 C10 1_555 1_555
C11 C10 1_555 1_555
C12 C11 1_555 1_555
H9 C12 1_555 1_555
C13 C12 1_555 1_555
H10 C13 1_555 1_555
H11 C13 1_555 1_555
C14 C13 1_555 1_555
H12 C14 1_555 1_555
H13 C14 1_555 1_555
C15 C14 1_555 1_555
H14 C15 1_555 1_555
H15 C15 1_555 1_555
C16 C17 1_555 1_555
C17 H16 1_555 1_555
C18 C17 1_555 1_555
H17 C18 1_555 1_555
C19 C18 1_555 1_555
H18 C19 1_555 1_555
C20 C19 1_555 1_555
H19 C20 1_555 1_555
C21 C16 1_555 1_555
H20 C21 1_555 1_555
N1 S1 1_555 1_555
H21 N1 1_555 1_555
N2 C7 1_555 1_555
N3 S2 1_555 1_555
O1 S1 1_555 1_555
O2 S1 1_555 1_555
O3 S2 1_555 1_555
O4 S2 1_555 1_555
C5 C6 1_555 1_555
C7 N1 1_555 1_555
C8 N2 1_555 1_555
C12 N3 1_555 1_555
C15 N3 1_555 1_555
C20 C21 1_555 1_555

#END
