
#######################################################################
#
#                 Cambridge Crystallographic Data Centre
#                                CCDC 
#
#######################################################################
#
# If this CIF has been generated from an entry in the Cambridge 
# Structural Database, then it will include bibliographic, chemical, 
# crystal, experimental, refinement or atomic coordinate data resulting 
# from the CCDC's data processing and validation procedures.
#
#######################################################################

data_IHOXUY
_chemical_formula_moiety         'C18 H28 O6'
_chemical_name_systematic        
(6R,14R)-Dimethyl-(7R,15R)-dimethoxy-1,9-dioxacyclohexadeca-(4E,12E)-diene-2,10-dione
_symmetry_cell_setting           triclinic
_symmetry_space_group_name_H-M   'P 1'
_symmetry_Int_Tables_number      1
_space_group_name_Hall           'P 1'
loop_
_symmetry_equiv_pos_site_id
_symmetry_equiv_pos_as_xyz
1 x,y,z
_cell_length_a                   8.2496(11)
_cell_length_b                   10.1013(15)
_cell_length_c                   11.6656(17)
_cell_angle_alpha                82.558(6)
_cell_angle_beta                 82.658(6)
_cell_angle_gamma                82.064(6)
_cell_volume                     948.696
_exptl_crystal_colour            colorless
_exptl_crystal_description       needle
_chemical_melting_point          110-112deg.C
_cell_formula_units_Z            2
_exptl_crystal_recrystallization_method 'hexanes/methylene chloride'
loop_
_atom_site_label
_atom_site_type_symbol
_atom_site_fract_x
_atom_site_fract_y
_atom_site_fract_z
O1 O 1.1592(6) 1.7848(5) -0.2407(4)
O2 O 0.5983(5) 1.3716(4) 0.0666(3)
O3 O 0.6917(4) 1.5414(4) -0.1404(4)
O4 O 0.6100(6) 1.7500(5) -0.2196(4)
O5 O 1.3964(5) 1.5149(4) -0.5514(3)
O6 O 1.2522(4) 1.5992(4) -0.3282(4)
C1 C 1.2168(7) 1.6690(8) -0.2367(6)
C2 C 1.2494(7) 1.5788(6) -0.1253(5)
H1 H 1.3591 1.5254 -0.1362
H2 H 1.2492 1.6347 -0.0616
C3 C 1.1188(7) 1.4856(6) -0.0933(6)
H3 H 1.1115 1.4220 -0.1451
C4 C 1.0142(7) 1.4869(6) 0.0018(5)
H4 H 1.0196 1.5510 0.0536
C5 C 0.8856(6) 1.3908(6) 0.0324(5)
H5 H 0.8839 1.3420 -0.0368
C6 C 0.7148(7) 1.4661(6) 0.0593(5)
H6 H 0.7091 1.4976 0.1377
C7 C 0.6706(7) 1.5879(6) -0.0267(5)
H7 H 0.5552 1.6273 -0.0072
H8 H 0.7437 1.6573 -0.0248
C8 C 0.6561(8) 1.6345(8) -0.2294(6)
C9 C 0.6810(6) 1.5732(6) -0.3427(5)
H9 H 0.6047 1.5048 -0.3384
H10 H 0.6532 1.6442 -0.4065
C10 C 0.8548(7) 1.5084(6) -0.3708(5)
H11 H 0.9025 1.4452 -0.3131
C11 C 0.9446(7) 1.5348(6) -0.4713(5)
H12 H 0.8945 1.5981 -0.5279
C12 C 1.1182(6) 1.4744(6) -0.5045(5)
H13 H 1.1555 1.4105 -0.4374
C13 C 1.2333(7) 1.5826(6) -0.5322(5)
H14 H 1.2062 1.6382 -0.6061
C14 C 1.2198(7) 1.6750(6) -0.4384(5)
H15 H 1.2997 1.7411 -0.4606
H16 H 1.1078 1.7252 -0.4307
C15 C 0.9319(8) 1.2865(6) 0.1336(6)
H17 H 1.0424 1.2400 0.1138
H18 H 0.8523 1.2211 0.1488
H19 H 0.9309 1.3317 0.2032
C16 C 0.4513(7) 1.4032(6) 0.1405(5)
H20 H 0.3784 1.3341 0.1418
H21 H 0.3959 1.4910 0.1114
H22 H 0.4782 1.4064 0.2195
C17 C 1.1221(7) 1.3952(7) -0.6087(5)
H23 H 1.0471 1.3264 -0.5887
H24 H 1.2343 1.3519 -0.6282
H25 H 1.0874 1.4567 -0.6756
C18 C 1.5082(7) 1.5970(6) -0.6221(5)
H26 H 1.6173 1.5449 -0.6331
H27 H 1.5159 1.6762 -0.5835
H28 H 1.4678 1.6260 -0.6979
O7 O 1.2745(6) 0.7796(5) -0.8479(4)
O8 O 1.8937(5) 1.0710(4) -0.5618(4)
O9 O 1.8526(4) 0.9372(4) -0.7556(4)
O10 O 1.8335(6) 0.7396(5) -0.8155(5)
O11 O 1.2343(5) 1.1528(4) -1.1425(3)
O12 O 1.3027(4) 0.9873(4) -0.9324(4)
C19 C 1.2768(7) 0.8970(8) -0.8391(6)
C20 C 1.2561(7) 0.9629(6) -0.7302(5)
H29 H 1.1576 1.0311 -0.7311
H30 H 1.2355 0.8943 -0.6630
C21 C 1.4009(7) 1.0296(6) -0.7129(5)
H31 H 1.4440 1.0872 -0.7772
C22 C 1.4741(7) 1.0166(6) -0.6184(5)
H32 H 1.4349 0.9560 -0.5550
C23 C 1.6146(7) 1.0891(6) -0.6014(5)
H33 H 1.6514 1.1391 -0.6779
C24 C 1.7603(7) 0.9933(6) -0.5624(5)
H34 H 1.7298 0.9521 -0.4811
C25 C 1.8179(7) 0.8823(6) -0.6378(5)
H35 H 1.9184 0.8286 -0.6105
H36 H 1.7317 0.8219 -0.6319
C26 C 1.8577(7) 0.8533(8) -0.8370(6)
C27 C 1.8870(7) 0.9289(7) -0.9565(6)
H37 H 1.9127 0.8641 -1.0150
H38 H 1.9831 0.9787 -0.9599
C28 C 1.7391(7) 1.0260(6) -0.9853(6)
H39 H 1.6990 1.0903 -0.9325
C29 C 1.6597(7) 1.0301(6) -1.0773(6)
H40 H 1.6986 0.9656 -1.1301
C30 C 1.5144(7) 1.1278(6) -1.1043(5)
H41 H 1.4732 1.1738 -1.0334
C31 C 1.3748(7) 1.0558(6) -1.1336(5)
H42 H 1.4082 1.0216 -1.2110
C32 C 1.3370(7) 0.9381(6) -1.0442(5)
H43 H 1.2406 0.8996 -1.0626
H44 H 1.4324 0.8669 -1.0444
C33 C 1.5559(8) 1.1919(6) -0.5152(6)
H45 H 1.4628 1.2534 -0.5429
H46 H 1.6461 1.2432 -0.5083
H47 H 1.5212 1.1450 -0.4389
C34 C 1.9734(8) 1.0457(7) -0.4589(6)
H48 H 2.0634 1.1014 -0.4662
H49 H 2.0180 0.9505 -0.4472
H50 H 1.8940 1.0679 -0.3921
C35 C 1.5619(8) 1.2358(6) -1.2038(5)
H51 H 1.6510 1.2800 -1.1833
H52 H 1.4660 1.3027 -1.2164
H53 H 1.5990 1.1934 -1.2752
C36 C 1.1276(7) 1.1278(7) -1.2224(5)
H54 H 1.0350 1.1998 -1.2253
H55 H 1.0859 1.0413 -1.1968
H56 H 1.1888 1.1252 -1.3000
loop_
_geom_bond_atom_site_label_1
_geom_bond_atom_site_label_2
_geom_bond_site_symmetry_1
_geom_bond_site_symmetry_2
O1 C1 1_555 1_555
O2 C6 1_555 1_555
O3 C7 1_555 1_555
O4 C8 1_555 1_555
O5 C13 1_555 1_555
O6 C1 1_555 1_555
C1 C2 1_555 1_555
C2 H1 1_555 1_555
H2 C2 1_555 1_555
C3 C2 1_555 1_555
H3 C3 1_555 1_555
C4 C3 1_555 1_555
H4 C4 1_555 1_555
C5 C4 1_555 1_555
H5 C5 1_555 1_555
C6 C5 1_555 1_555
H6 C6 1_555 1_555
C7 C6 1_555 1_555
H7 C7 1_555 1_555
H8 C7 1_555 1_555
C8 O3 1_555 1_555
C9 C8 1_555 1_555
H9 C9 1_555 1_555
H10 C9 1_555 1_555
C10 C9 1_555 1_555
H11 C10 1_555 1_555
C11 C10 1_555 1_555
H12 C11 1_555 1_555
C12 C11 1_555 1_555
H13 C12 1_555 1_555
C13 C12 1_555 1_555
H14 C13 1_555 1_555
C14 O6 1_555 1_555
H15 C14 1_555 1_555
H16 C14 1_555 1_555
C15 C5 1_555 1_555
H17 C15 1_555 1_555
H18 C15 1_555 1_555
H19 C15 1_555 1_555
C16 O2 1_555 1_555
H20 C16 1_555 1_555
H21 C16 1_555 1_555
H22 C16 1_555 1_555
C17 C12 1_555 1_555
H23 C17 1_555 1_555
H24 C17 1_555 1_555
H25 C17 1_555 1_555
C18 O5 1_555 1_555
H26 C18 1_555 1_555
H27 C18 1_555 1_555
H28 C18 1_555 1_555
O7 C19 1_555 1_555
O8 C24 1_555 1_555
O9 C25 1_555 1_555
O10 C26 1_555 1_555
O11 C31 1_555 1_555
O12 C19 1_555 1_555
C19 C20 1_555 1_555
C20 H29 1_555 1_555
H30 C20 1_555 1_555
C21 C20 1_555 1_555
H31 C21 1_555 1_555
C22 C21 1_555 1_555
H32 C22 1_555 1_555
C23 C22 1_555 1_555
H33 C23 1_555 1_555
C24 C23 1_555 1_555
H34 C24 1_555 1_555
C25 C24 1_555 1_555
H35 C25 1_555 1_555
H36 C25 1_555 1_555
C26 O9 1_555 1_555
C27 C26 1_555 1_555
H37 C27 1_555 1_555
H38 C27 1_555 1_555
C28 C27 1_555 1_555
H39 C28 1_555 1_555
C29 C28 1_555 1_555
H40 C29 1_555 1_555
C30 C29 1_555 1_555
H41 C30 1_555 1_555
C31 C30 1_555 1_555
H42 C31 1_555 1_555
C32 O12 1_555 1_555
H43 C32 1_555 1_555
H44 C32 1_555 1_555
C33 C23 1_555 1_555
H45 C33 1_555 1_555
H46 C33 1_555 1_555
H47 C33 1_555 1_555
C34 O8 1_555 1_555
H48 C34 1_555 1_555
H49 C34 1_555 1_555
H50 C34 1_555 1_555
C35 C30 1_555 1_555
H51 C35 1_555 1_555
H52 C35 1_555 1_555
H53 C35 1_555 1_555
C36 O11 1_555 1_555
H54 C36 1_555 1_555
H55 C36 1_555 1_555
H56 C36 1_555 1_555
C13 C14 1_555 1_555
C31 C32 1_555 1_555

#END
