
#######################################################################
#
#                 Cambridge Crystallographic Data Centre
#                                CCDC 
#
#######################################################################
#
# If this CIF has been generated from an entry in the Cambridge 
# Structural Database, then it will include bibliographic, chemical, 
# crystal, experimental, refinement or atomic coordinate data resulting 
# from the CCDC's data processing and validation procedures.
#
#######################################################################

data_IHOYUZ
_chemical_formula_moiety         'C20 H32 O8'
_chemical_name_systematic        
5,6,13,14-Tetramethyl-7,15-dimethoxy-1,9-dioxacyclohexadeca-(4,5:12,13)-bis(epoxy)-2,10-dione
_symmetry_cell_setting           monoclinic
_symmetry_space_group_name_H-M   'P 21'
_symmetry_Int_Tables_number      4
_space_group_name_Hall           'P 2yb'
loop_
_symmetry_equiv_pos_site_id
_symmetry_equiv_pos_as_xyz
1 x,y,z
2 -x,1/2+y,-z
_cell_length_a                   5.5780(6)
_cell_length_b                   17.6572(16)
_cell_length_c                   20.963(2)
_cell_angle_alpha                90
_cell_angle_beta                 90.614(4)
_cell_angle_gamma                90
_cell_volume                     2064.57
_exptl_crystal_colour            colorless
_exptl_crystal_description       'flat rod'
_chemical_melting_point          162-165deg.C
_cell_formula_units_Z            4
_exptl_crystal_recrystallization_method 'hexanes/methylene chloride'
loop_
_atom_site_label
_atom_site_type_symbol
_atom_site_fract_x
_atom_site_fract_y
_atom_site_fract_z
O1 O 1.3585(11) 0.4424(3) 1.3781(3)
O2 O 0.8646(10) 0.5950(3) 1.5155(3)
O3 O 1.4031(14) 0.7912(5) 1.4757(3)
O4 O 1.1619(11) 0.7604(4) 1.3939(3)
O5 O 1.1249(11) 0.9133(3) 1.3475(3)
O6 O 0.7845(11) 0.7127(3) 1.2204(3)
O7 O 1.4652(12) 0.5550(4) 1.2577(3)
O8 O 1.2520(11) 0.5961(4) 1.3410(3)
C1 C 1.3740(16) 0.5057(5) 1.4216(4)
H1 H 1.5026 0.4948 1.4539
C2 C 1.1374(15) 0.5085(5) 1.4552(4)
H2 H 1.0115 0.5131 1.4211
C3 C 1.1123(15) 0.5780(5) 1.4975(4)
C4 C 0.9884(15) 0.6440(5) 1.4702(4)
H3 H 0.9361 0.6389 1.4247
C5 C 1.0276(17) 0.7266(5) 1.4942(4)
H4 H 0.8782 0.7563 1.4887
H5 H 1.0720 0.7264 1.5401
C6 C 1.2250(17) 0.7613(6) 1.4559(4)
C7 C 1.3288(15) 0.7906(5) 1.3491(4)
H6 H 1.3901 0.7497 1.3214
H7 H 1.4665 0.8139 1.3719
C8 C 1.1940(15) 0.8520(5) 1.3076(4)
H8 H 1.3023 0.8709 1.2734
C9 C 0.9621(15) 0.8206(4) 1.2774(4)
H9 H 0.8545 0.8045 1.3128
C10 C 1.0089(15) 0.7515(5) 1.2356(4)
C11 C 0.9526(15) 0.6756(5) 1.2625(4)
H10 H 0.9065 0.6760 1.3085
C12 C 1.0643(16) 0.6030(5) 1.2403(4)
H11 H 1.1091 0.6083 1.1950
H12 H 0.9443 0.5618 1.2432
C13 C 1.2862(16) 0.5809(5) 1.2792(4)
C14 C 1.4431(16) 0.5756(5) 1.3853(4)
H13 H 1.4730 0.6178 1.4155
H14 H 1.5926 0.5660 1.3616
C15 C 1.5863(17) 0.4104(6) 1.3648(5)
H15 H 1.690(6) 0.450(2) 1.3376(15)
H16 H 1.563(2) 0.359(3) 1.3381(14)
H17 H 1.678(5) 0.3981(9) 1.409(2)
C16 C 1.0832(19) 0.4342(5) 1.4914(5)
H18 H 1.221(7) 0.4221(9) 1.5213(17)
H19 H 1.062(2) 0.392(2) 1.4598(17)
H20 H 0.932(8) 0.4406(6) 1.5167(15)
C17 C 1.2856(17) 0.5834(6) 1.5538(4)
H21 H 1.244(3) 0.629(2) 1.5806(15)
H22 H 1.454(9) 0.5890(6) 1.5377(9)
H23 H 1.2741(17) 0.536(2) 1.5802(14)
C18 C 1.3213(17) 0.9609(6) 1.3654(4)
H24 H 1.443(7) 0.9300(16) 1.3932(15)
H25 H 1.258(3) 1.007(2) 1.3917(14)
H26 H 1.406(5) 0.9806(12) 1.324(2)
C19 C 0.8322(17) 0.8839(5) 1.2392(4)
H27 H 0.944(6) 0.9051(12) 1.2059(17)
H28 H 0.783(3) 0.926(2) 1.2694(15)
H29 H 0.684(8) 0.8621(11) 1.2174(12)
C20 C 1.1773(17) 0.7592(5) 1.1796(4)
H30 H 1.1556(19) 0.717(2) 1.1512(15)
H31 H 1.340(9) 0.7603(5) 1.1949(8)
H32 H 1.142(2) 0.805(2) 1.1571(12)
O9 O 1.1614(11) 0.0589(3) 1.1710(3)
O10 O 0.8086(10) 0.2681(3) 1.2838(2)
O11 O 1.4477(12) 0.3617(4) 1.2082(3)
O12 O 1.2088(10) 0.4415(3) 1.1532(2)
O13 O 1.3217(11) 0.5866(3) 1.0896(3)
O14 O 0.8277(10) 0.3978(3) 0.9847(2)
O15 O 1.4158(12) 0.2607(5) 1.0490(3)
O16 O 1.1456(10) 0.2090(3) 1.1128(3)
C21 C 1.2225(16) 0.1281(5) 1.2011(4)
H33 H 1.3434 0.1162 1.2352
C22 C 0.9982(16) 0.1576(5) 1.2343(4)
H34 H 0.8731 0.1656 1.2005
C23 C 1.0374(16) 0.2331(5) 1.2668(4)
C24 C 0.9520(15) 0.3011(5) 1.2352(4)
H35 H 0.8886 0.2918 1.1911
C25 C 1.0485(16) 0.3799(5) 1.2447(4)
H36 H 0.9215 0.4174 1.2348
H37 H 1.0983 0.3868 1.2898
C26 C 1.2539(16) 0.3925(5) 1.2032(4)
C27 C 1.4067(15) 0.4522(5) 1.1106(4)
H38 H 1.4477 0.4039 1.0894
H39 H 1.5494 0.4704 1.1346
C28 C 1.3284(16) 0.5104(5) 1.0618(4)
H40 H 1.4524 0.5111 1.0277
C29 C 1.0880(16) 0.4958(5) 1.0293(4)
H41 H 0.9628 0.4973 1.0631
C30 C 1.0727(15) 0.4170(5) 0.9971(4)
C31 C 0.9570(16) 0.3558(5) 1.0336(4)
H42 H 0.9154 0.3683 1.0787
C32 C 1.0076(17) 0.2737(5) 1.0203(4)
H43 H 0.8645 0.2429 1.0302
H44 H 1.0443 0.2669 0.9746
C33 C 1.2134(16) 0.2481(5) 1.0598(4)
C34 C 1.3346(16) 0.1828(5) 1.1575(4)
H45 H 1.4662 0.1583 1.1338
H46 H 1.4014 0.2261 1.1818
C35 C 1.355(2) 0.0106(6) 1.1585(5)
H47 H 1.453(7) 0.0323(15) 1.125(2)
H48 H 1.296(4) -0.038(3) 1.1447(10)
H49 H 1.451(7) 0.0043(7) 1.197(2)
C36 C 0.8979(16) 0.0986(5) 1.2812(4)
H50 H 1.022(6) 0.0879(8) 1.3159(18)
H51 H 0.860(3) 0.050(3) 1.2574(12)
H52 H 0.746(8) 0.1190(11) 1.3013(11)
C37 C 1.2268(16) 0.2367(5) 1.3191(4)
H53 H 1.2053(18) 0.281(2) 1.3432(13)
H54 H 1.379(8) 0.2373(5) 1.3009(10)
H55 H 1.2129(16) 0.194(2) 1.3455(14)
C38 C 1.5413(19) 0.6218(6) 1.0953(6)
H56 H 1.614(5) 0.6105(9) 1.139(3)
H57 H 1.520(2) 0.678(4) 1.0904(6)
H58 H 1.652(7) 0.6024(13) 1.061(2)
C39 C 1.0288(19) 0.5606(5) 0.9805(4)
H59 H 0.992(3) 0.612(3) 1.0060(13)
H60 H 0.873(8) 0.5449(9) 0.9522(15)
H61 H 1.180(8) 0.5691(7) 0.9495(16)
C40 C 1.2392(16) 0.4010(5) 0.9458(4)
H62 H 1.211(2) 0.362(3) 0.9316(10)
H63 H 1.368(9) 0.4013(5) 0.9591(9)
H64 H 1.2263(17) 0.431(2) 0.9198(17)
loop_
_geom_bond_atom_site_label_1
_geom_bond_atom_site_label_2
_geom_bond_site_symmetry_1
_geom_bond_site_symmetry_2
O1 C1 1_555 1_555
O2 C3 1_555 1_555
O3 C6 1_555 1_555
O4 C6 1_555 1_555
O5 C8 1_555 1_555
O6 C10 1_555 1_555
O7 C13 1_555 1_555
O8 C13 1_555 1_555
C1 H1 1_555 1_555
C2 C1 1_555 1_555
H2 C2 1_555 1_555
C3 C2 1_555 1_555
C4 O2 1_555 1_555
H3 C4 1_555 1_555
C5 C4 1_555 1_555
H4 C5 1_555 1_555
H5 C5 1_555 1_555
C6 C5 1_555 1_555
C7 O4 1_555 1_555
H6 C7 1_555 1_555
H7 C7 1_555 1_555
C8 C7 1_555 1_555
H8 C8 1_555 1_555
C9 C8 1_555 1_555
H9 C9 1_555 1_555
C10 C9 1_555 1_555
C11 O6 1_555 1_555
H10 C11 1_555 1_555
C12 C11 1_555 1_555
H11 C12 1_555 1_555
H12 C12 1_555 1_555
C13 C12 1_555 1_555
C14 O8 1_555 1_555
H13 C14 1_555 1_555
H14 C14 1_555 1_555
C15 O1 1_555 1_555
H15 C15 1_555 1_555
H16 C15 1_555 1_555
H17 C15 1_555 1_555
C16 C2 1_555 1_555
H18 C16 1_555 1_555
H19 C16 1_555 1_555
H20 C16 1_555 1_555
C17 C3 1_555 1_555
H21 C17 1_555 1_555
H22 C17 1_555 1_555
H23 C17 1_555 1_555
C18 O5 1_555 1_555
H24 C18 1_555 1_555
H25 C18 1_555 1_555
H26 C18 1_555 1_555
C19 C9 1_555 1_555
H27 C19 1_555 1_555
H28 C19 1_555 1_555
H29 C19 1_555 1_555
C20 C10 1_555 1_555
H30 C20 1_555 1_555
H31 C20 1_555 1_555
H32 C20 1_555 1_555
O9 C21 1_555 1_555
O10 C23 1_555 1_555
O11 C26 1_555 1_555
O12 C26 1_555 1_555
O13 C28 1_555 1_555
O14 C30 1_555 1_555
O15 C33 1_555 1_555
O16 C33 1_555 1_555
C21 H33 1_555 1_555
C22 C21 1_555 1_555
H34 C22 1_555 1_555
C23 C22 1_555 1_555
C24 O10 1_555 1_555
H35 C24 1_555 1_555
C25 C24 1_555 1_555
H36 C25 1_555 1_555
H37 C25 1_555 1_555
C26 C25 1_555 1_555
C27 O12 1_555 1_555
H38 C27 1_555 1_555
H39 C27 1_555 1_555
C28 C27 1_555 1_555
H40 C28 1_555 1_555
C29 C28 1_555 1_555
H41 C29 1_555 1_555
C30 C29 1_555 1_555
C31 O14 1_555 1_555
H42 C31 1_555 1_555
C32 C31 1_555 1_555
H43 C32 1_555 1_555
H44 C32 1_555 1_555
C33 C32 1_555 1_555
C34 O16 1_555 1_555
H45 C34 1_555 1_555
H46 C34 1_555 1_555
C35 O9 1_555 1_555
H47 C35 1_555 1_555
H48 C35 1_555 1_555
H49 C35 1_555 1_555
C36 C22 1_555 1_555
H50 C36 1_555 1_555
H51 C36 1_555 1_555
H52 C36 1_555 1_555
C37 C23 1_555 1_555
H53 C37 1_555 1_555
H54 C37 1_555 1_555
H55 C37 1_555 1_555
C38 O13 1_555 1_555
H56 C38 1_555 1_555
H57 C38 1_555 1_555
H58 C38 1_555 1_555
C39 C29 1_555 1_555
H59 C39 1_555 1_555
H60 C39 1_555 1_555
H61 C39 1_555 1_555
C40 C30 1_555 1_555
H62 C40 1_555 1_555
H63 C40 1_555 1_555
H64 C40 1_555 1_555
C1 C14 1_555 1_555
C3 C4 1_555 1_555
C10 C11 1_555 1_555
C21 C34 1_555 1_555
C23 C24 1_555 1_555
C30 C31 1_555 1_555

#END
