
#######################################################################
#
#                 Cambridge Crystallographic Data Centre
#                                CCDC 
#
#######################################################################
#
# If this CIF has been generated from an entry in the Cambridge 
# Structural Database, then it will include bibliographic, chemical, 
# crystal, experimental, refinement or atomic coordinate data resulting 
# from the CCDC's data processing and validation procedures.
#
#######################################################################

data_IHOYEJ
_chemical_formula_moiety         'C14 H20 O4'
_chemical_name_systematic        
(6S,13S)-Dimethyl-1,8-dioxacyclotetradeca-(4E,11E)-diene-2,9-dione
_symmetry_cell_setting           orthorhombic
_symmetry_space_group_name_H-M   'P 21 21 21'
_symmetry_Int_Tables_number      19
_space_group_name_Hall           'P 2ac 2ab'
loop_
_symmetry_equiv_pos_site_id
_symmetry_equiv_pos_as_xyz
1 x,y,z
2 1/2-x,-y,1/2+z
3 -x,1/2+y,1/2-z
4 1/2+x,1/2-y,-z
_cell_length_a                   4.7958(5)
_cell_length_b                   16.711(2)
_cell_length_c                   17.195(2)
_cell_angle_alpha                90
_cell_angle_beta                 90
_cell_angle_gamma                90
_cell_volume                     1378.05
_exptl_crystal_colour            colorless
_exptl_crystal_description       plate
_chemical_melting_point          63-65deg.C
_cell_formula_units_Z            4
_exptl_crystal_recrystallization_method 'hexanes/methylene chloride'
loop_
_atom_site_label
_atom_site_type_symbol
_atom_site_fract_x
_atom_site_fract_y
_atom_site_fract_z
O1 O -0.2407(5) 0.16487(12) 0.84002(12)
O2 O -0.0678(3) 0.26846(9) 0.77587(8)
O3 O -0.2869(4) 0.61680(10) 0.85269(11)
O4 O -0.0060(3) 0.51043(9) 0.84351(9)
C1 C -0.0872(5) 0.22067(13) 0.83702(13)
C2 C -0.2474(7) 0.24949(15) 0.71019(14)
H1 H -0.186(6) 0.2022(14) 0.6860(14)
H2 H -0.451(7) 0.2415(16) 0.7287(16)
C3 C -0.2368(6) 0.31877(14) 0.65439(13)
H3 H -0.035(5) 0.3242(12) 0.6429(12)
C4 C -0.3519(6) 0.39301(15) 0.68941(13)
H4 H -0.553(6) 0.3825(15) 0.7034(15)
C5 C -0.2126(6) 0.45850(15) 0.70618(12)
H5 H -0.002(6) 0.4550(16) 0.6940(14)
C6 C -0.3286(7) 0.53290(15) 0.74059(15)
H6 H -0.516(7) 0.5272(17) 0.751(2)
H7 H -0.314(7) 0.5877(18) 0.706(2)
C7 C -0.2077(5) 0.55911(13) 0.81764(14)
C8 C 0.1034(6) 0.53027(14) 0.91974(13)
H8 H 0.200(5) 0.5884(14) 0.9178(14)
H9 H -0.049(6) 0.5348(13) 0.9564(14)
C9 C 0.3054(5) 0.46497(13) 0.94490(12)
H10 H 0.461(4) 0.4610(11) 0.9094(11)
C10 C 0.1751(5) 0.38338(13) 0.94629(12)
H11 H 0.035(6) 0.3687(15) 0.9863(16)
C11 C 0.2342(5) 0.32491(13) 0.89811(13)
H12 H 0.375(6) 0.3286(14) 0.8593(16)
C12 C 0.1069(7) 0.24334(15) 0.90205(14)
H13 H 0.238(6) 0.2052(16) 0.9020(16)
H14 H -0.008(6) 0.2399(15) 0.9484(17)
C13 C -0.3903(7) 0.29499(18) 0.57976(14)
H15 H -0.311(6) 0.2416(17) 0.5593(15)
H16 H -0.369(6) 0.3324(16) 0.5442(17)
H17 H -0.583(6) 0.2798(15) 0.5901(14)
C14 C 0.4160(7) 0.48783(17) 1.02558(15)
H18 H 0.580(7) 0.4467(17) 1.0439(16)
H19 H 0.264(6) 0.4896(15) 1.0629(15)
H20 H 0.497(7) 0.5423(17) 1.0230(16)
loop_
_geom_bond_atom_site_label_1
_geom_bond_atom_site_label_2
_geom_bond_site_symmetry_1
_geom_bond_site_symmetry_2
O1 C1 1_555 1_555
O2 C1 1_555 1_555
O3 C7 1_555 1_555
O4 C7 1_555 1_555
C1 C12 1_555 1_555
C2 O2 1_555 1_555
H1 C2 1_555 1_555
H2 C2 1_555 1_555
C3 C2 1_555 1_555
H3 C3 1_555 1_555
C4 C3 1_555 1_555
H4 C4 1_555 1_555
C5 C4 1_555 1_555
H5 C5 1_555 1_555
C6 C5 1_555 1_555
H6 C6 1_555 1_555
H7 C6 1_555 1_555
C7 C6 1_555 1_555
C8 O4 1_555 1_555
H8 C8 1_555 1_555
H9 C8 1_555 1_555
C9 C8 1_555 1_555
H10 C9 1_555 1_555
C10 C9 1_555 1_555
H11 C10 1_555 1_555
C11 C10 1_555 1_555
H12 C11 1_555 1_555
C12 C11 1_555 1_555
H13 C12 1_555 1_555
H14 C12 1_555 1_555
C13 C3 1_555 1_555
H15 C13 1_555 1_555
H16 C13 1_555 1_555
H17 C13 1_555 1_555
C14 C9 1_555 1_555
H18 C14 1_555 1_555
H19 C14 1_555 1_555
H20 C14 1_555 1_555

#END
