
#######################################################################
#
#                 Cambridge Crystallographic Data Centre
#                                CCDC 
#
#######################################################################
#
# If this CIF has been generated from an entry in the Cambridge 
# Structural Database, then it will include bibliographic, chemical, 
# crystal, experimental, refinement or atomic coordinate data resulting 
# from the CCDC's data processing and validation procedures.
#
#######################################################################

data_IHOYAF
_chemical_formula_moiety         'C20 H32 O6'
_chemical_name_systematic        
(6S,14S)-Dimethyl-(7R,15R)-dimethoxy-5,13-dimethyl-1,9-dioxacyclohexadeca-(4E,12E)-diene-2,10-dione
_symmetry_cell_setting           monoclinic
_symmetry_space_group_name_H-M   'C 2'
_symmetry_Int_Tables_number      5
_space_group_name_Hall           'C 2y'
loop_
_symmetry_equiv_pos_site_id
_symmetry_equiv_pos_as_xyz
1 x,y,z
2 -x,y,-z
3 1/2+x,1/2+y,z
4 1/2-x,1/2+y,-z
_cell_length_a                   18.327(6)
_cell_length_b                   5.4780(18)
_cell_length_c                   13.272(4)
_cell_angle_alpha                90
_cell_angle_beta                 127.937(5)
_cell_angle_gamma                90
_cell_volume                     1050.88
_exptl_crystal_colour            colorless
_exptl_crystal_description       block
_chemical_melting_point          103-105deg.C
_cell_formula_units_Z            2
_exptl_crystal_recrystallization_method 'hexanes/methylene chloride'
loop_
_atom_site_label
_atom_site_type_symbol
_atom_site_fract_x
_atom_site_fract_y
_atom_site_fract_z
O1 O 0.63772(17) 0.5690(3) 0.6285(2)
O2 O 0.62325(8) 0.2754(2) 0.72946(11)
O3 O 0.36668(9) 0.2114(3) 0.04511(11)
C1 C 0.64440(12) 0.3591(4) 0.65577(15)
C2 C 0.67634(13) 0.1616(4) 0.61312(15)
H1 H 0.6922(13) 0.029(4) 0.6663(19)
H2 H 0.7308(15) 0.237(4) 0.6237(19)
C3 C 0.60087(11) 0.0931(4) 0.47560(15)
H3 H 0.5554(12) -0.013(4) 0.4610(16)
C4 C 0.59132(11) 0.1802(3) 0.37489(15)
C5 C 0.51023(12) 0.0997(3) 0.24124(15)
H4 H 0.4751(10) -0.014(3) 0.2474(14)
C6 C 0.44389(11) 0.3116(3) 0.16345(15)
H5 H 0.4741(13) 0.431(5) 0.1475(17)
C7 C 0.58427(13) 0.4496(4) 0.76682(18)
H6 H 0.6296(14) 0.568(5) 0.8153(18)
H7 H 0.5329(13) 0.522(4) 0.6912(18)
C8 C 0.65730(13) 0.3576(4) 0.38450(19)
H8 H 0.6335(4) 0.504(2) 0.3663(3)
H9 H 0.6677(2) 0.3165(8) 0.3307(9)
H10 H 0.7094(9) 0.3560(4) 0.4622(13)
C9 C 0.54106(19) -0.0187(5) 0.1685(2)
H11 H 0.590(2) -0.134(6) 0.218(3)
H12 H 0.4875(19) -0.096(7) 0.094(3)
H13 H 0.5702(16) 0.094(6) 0.153(2)
C10 C 0.31417(18) 0.3860(7) -0.0536(2)
H14 H 0.281(2) 0.501(6) -0.034(2)
H15 H 0.2644(17) 0.288(5) -0.134(3)
H16 H 0.357(2) 0.490(7) -0.058(3)
C6A C 0.55611(11) 0.3116(3) 0.83655(15)
O3A O 0.63332(9) 0.2114(3) 0.95489(11)
C10A C 0.68583(18) 0.3860(7) 1.0536(2)
H14A H 0.719(2) 0.501(6) 1.034(2)
H15A H 0.7356(17) 0.288(5) 1.134(3)
H16A H 0.643(2) 0.490(7) 1.058(3)
C5A C 0.48977(12) 0.0997(3) 0.75876(15)
C4A C 0.40868(11) 0.1802(3) 0.62511(15)
C3A C 0.39913(11) 0.0931(4) 0.52440(15)
C2A C 0.32366(13) 0.1616(4) 0.38688(15)
C1A C 0.35560(12) 0.3591(4) 0.34423(15)
O1A O 0.36228(17) 0.5690(3) 0.3715(2)
O2A O 0.37675(8) 0.2754(2) 0.27054(11)
C7A C 0.41573(13) 0.4496(4) 0.23318(18)
H6A H 0.3704(14) 0.568(5) 0.1847(18)
H7A H 0.4671(13) 0.522(4) 0.3088(18)
H1A H 0.3078(13) 0.029(4) 0.3337(19)
H2A H 0.2692(15) 0.237(4) 0.3763(19)
H3A H 0.4446(12) -0.013(4) 0.5390(16)
C8A C 0.34270(13) 0.3576(4) 0.61550(19)
H8A H 0.3665(4) 0.504(2) 0.6337(3)
H9A H 0.3323(2) 0.3165(8) 0.6693(9)
H10A H 0.2906(9) 0.3560(4) 0.5378(13)
H4A H 0.5249(10) -0.014(3) 0.7526(14)
C9A C 0.45894(19) -0.0187(5) 0.8315(2)
H11A H 0.410(2) -0.134(6) 0.782(3)
H12A H 0.5125(19) -0.096(7) 0.906(3)
H13A H 0.4298(16) 0.094(6) 0.847(2)
H5A H 0.5259(13) 0.431(5) 0.8525(17)
loop_
_geom_bond_atom_site_label_1
_geom_bond_atom_site_label_2
_geom_bond_site_symmetry_1
_geom_bond_site_symmetry_2
O1 C1 1_555 1_555
O2 C1 1_555 1_555
O3 C6 1_555 1_555
C1 C2 1_555 1_555
C2 H1 1_555 1_555
H2 C2 1_555 1_555
C3 C2 1_555 1_555
H3 C3 1_555 1_555
C4 C3 1_555 1_555
C5 C4 1_555 1_555
H4 C5 1_555 1_555
C6 C5 1_555 1_555
H5 C6 1_555 1_555
C7 O2 1_555 1_555
H6 C7 1_555 1_555
H7 C7 1_555 1_555
C8 C4 1_555 1_555
H8 C8 1_555 1_555
H9 C8 1_555 1_555
H10 C8 1_555 1_555
C9 C5 1_555 1_555
H11 C9 1_555 1_555
H12 C9 1_555 1_555
H13 C9 1_555 1_555
C10 O3 1_555 1_555
H14 C10 1_555 1_555
H15 C10 1_555 1_555
H16 C10 1_555 1_555
C6A C7 1_555 1_555
O3A C6A 1_555 1_555
C10A O3A 1_555 1_555
H14A C10A 1_555 1_555
H15A C10A 1_555 1_555
H16A C10A 1_555 1_555
C5A C6A 1_555 1_555
C4A C5A 1_555 1_555
C3A C4A 1_555 1_555
C2A C3A 1_555 1_555
C1A C2A 1_555 1_555
O1A C1A 1_555 1_555
O2A C1A 1_555 1_555
C7A C6 1_555 1_555
H6A C7A 1_555 1_555
H7A C7A 1_555 1_555
H1A C2A 1_555 1_555
H2A C2A 1_555 1_555
H3A C3A 1_555 1_555
C8A C4A 1_555 1_555
H8A C8A 1_555 1_555
H9A C8A 1_555 1_555
H10A C8A 1_555 1_555
H4A C5A 1_555 1_555
C9A C5A 1_555 1_555
H11A C9A 1_555 1_555
H12A C9A 1_555 1_555
H13A C9A 1_555 1_555
H5A C6A 1_555 1_555
O2A C7A 1_555 1_555

#END
