
#######################################################################
#
#                 Cambridge Crystallographic Data Centre
#                                CCDC 
#
#######################################################################
#
# If this CIF has been generated from an entry in the Cambridge 
# Structural Database, then it will include bibliographic, chemical, 
# crystal, experimental, refinement or atomic coordinate data resulting 
# from the CCDC's data processing and validation procedures.
#
#######################################################################

data_IHOYEL
_chemical_formula_moiety         'C40 H30 F2 N2'
_chemical_name_systematic        
N,N'-bis(5'-fluoro-1,1':3',1''-terphenyl-2'-yl)butane-2,3-diimine
_symmetry_cell_setting           monoclinic
_symmetry_space_group_name_H-M   'P 21/c'
_symmetry_Int_Tables_number      14
_space_group_name_Hall           '-P 2ybc'
loop_
_symmetry_equiv_pos_site_id
_symmetry_equiv_pos_as_xyz
1 x,y,z
2 -x,1/2+y,1/2-z
3 -x,-y,-z
4 x,1/2-y,1/2+z
_cell_length_a                   15.640(11)
_cell_length_b                   11.554(8)
_cell_length_c                   17.419(11)
_cell_angle_alpha                90
_cell_angle_beta                 101.913(8)
_cell_angle_gamma                90
_cell_volume                     3079.9
_exptl_crystal_colour            yellow
_exptl_crystal_description       block
_cell_formula_units_Z            4
loop_
_atom_site_label
_atom_site_type_symbol
_atom_site_fract_x
_atom_site_fract_y
_atom_site_fract_z
C1 C 1.03136(18) 0.3237(2) 0.27204(17)
H1 H 1.0737 0.2751 0.3006
C2 C 0.9745(2) 0.3812(3) 0.30817(17)
C3 C 0.90900(19) 0.4489(2) 0.26903(16)
H2 H 0.8710 0.4850 0.2960
C4 C 0.89864(17) 0.4643(2) 0.18764(15)
C5 C 0.96016(17) 0.4119(2) 0.15054(15)
C6 C 1.02503(17) 0.3387(2) 0.19193(16)
C7 C 1.08628(18) 0.2708(2) 0.15352(16)
C8 C 1.1741(2) 0.2661(2) 0.18715(18)
H3 H 1.1956 0.3101 0.2317
C9 C 1.2309(2) 0.1974(3) 0.1559(2)
H4 H 1.2901 0.1957 0.1789
C10 C 1.1990(2) 0.1318(3) 0.0909(2)
H5 H 1.2366 0.0849 0.0697
C11 C 1.1120(2) 0.1349(2) 0.05687(18)
H6 H 1.0907 0.0896 0.0130
C12 C 1.05552(19) 0.2052(2) 0.08738(17)
H7 H 0.9967 0.2082 0.0632
C13 C 0.82087(17) 0.5308(2) 0.14580(15)
C14 C 0.7407(2) 0.5078(2) 0.16623(16)
H8 H 0.7378 0.4513 0.2036
C15 C 0.6660(2) 0.5668(3) 0.13241(19)
H9 H 0.6137 0.5516 0.1480
C16 C 0.6689(2) 0.6482(3) 0.0756(2)
H10 H 0.6187 0.6878 0.0517
C17 C 0.7471(2) 0.6699(2) 0.05499(19)
H11 H 0.7502 0.7246 0.0165
C18 C 0.82287(19) 0.6102(2) 0.09137(17)
H12 H 0.8756 0.6268 0.0770
C19 C 1.00655(17) 0.4936(2) 0.04334(13)
C20 C 1.08104(19) 0.5572(2) 0.09359(15)
H13 H 1.0776 0.5494 0.1477
H14 H 1.0780 0.6376 0.0794
H15 H 1.1353 0.5253 0.0858
F1 F 0.98231(12) 0.36672(14) 0.38745(9)
N1 N 0.95184(13) 0.42897(16) 0.06842(12)
C1B C 0.96864(18) 0.6763(2) -0.27204(17)
H1B H 0.9263 0.7249 -0.3006
C2B C 1.0255(2) 0.6188(3) -0.30817(17)
C3B C 1.09100(19) 0.5511(2) -0.26903(16)
H2B H 1.1290 0.5150 -0.2960
C4B C 1.10136(17) 0.5357(2) -0.18764(15)
C5B C 1.03984(17) 0.5881(2) -0.15054(15)
C6B C 0.97497(17) 0.6613(2) -0.19193(16)
C7B C 0.91372(18) 0.7292(2) -0.15352(16)
C8B C 0.8259(2) 0.7339(2) -0.18715(18)
H3B H 0.8044 0.6899 -0.2317
C9B C 0.7691(2) 0.8026(3) -0.1559(2)
H4B H 0.7099 0.8043 -0.1789
C10B C 0.8010(2) 0.8682(3) -0.0909(2)
H5B H 0.7634 0.9151 -0.0697
C11B C 0.8880(2) 0.8651(2) -0.05687(18)
H6B H 0.9093 0.9104 -0.0130
C12B C 0.94448(19) 0.7948(2) -0.08738(17)
H7B H 1.0033 0.7918 -0.0632
C13B C 1.17913(17) 0.4692(2) -0.14580(15)
C14B C 1.2593(2) 0.4922(2) -0.16623(16)
H8B H 1.2622 0.5487 -0.2036
C15B C 1.3340(2) 0.4332(3) -0.13241(19)
H9B H 1.3863 0.4484 -0.1480
C16B C 1.3311(2) 0.3518(3) -0.0756(2)
H10B H 1.3813 0.3122 -0.0517
C17B C 1.2529(2) 0.3301(2) -0.05499(19)
H11B H 1.2498 0.2754 -0.0165
C18B C 1.17713(19) 0.3898(2) -0.09137(17)
H12B H 1.1244 0.3732 -0.0770
C19B C 0.99345(17) 0.5064(2) -0.04334(13)
C20B C 0.91896(19) 0.4428(2) -0.09359(15)
H13B H 0.9224 0.4506 -0.1477
H14B H 0.9220 0.3624 -0.0794
H15B H 0.8647 0.4747 -0.0858
F1B F 1.01769(12) 0.63328(14) -0.38745(9)
N1B N 1.04816(13) 0.57103(16) -0.06842(12)
C21 C 0.39533(19) 0.4445(2) 0.20028(17)
H16 H 0.3498 0.4729 0.1619
C22 C 0.4663(2) 0.3933(2) 0.17972(17)
C23 C 0.5335(2) 0.3478(2) 0.23239(18)
H17 H 0.5799 0.3127 0.2155
C24 C 0.53282(18) 0.3538(2) 0.31206(16)
C25 C 0.46202(18) 0.4091(2) 0.33520(16)
C26 C 0.39220(18) 0.4537(2) 0.27976(16)
C27 C 0.60737(19) 0.3057(2) 0.37100(15)
C28 C 0.5942(2) 0.2185(3) 0.42172(19)
H18 H 0.5381 0.1900 0.4197
C29 C 0.6636(3) 0.1738(3) 0.4753(2)
H19 H 0.6541 0.1151 0.5091
C30 C 0.7461(2) 0.2147(3) 0.4792(2)
H20 H 0.7927 0.1843 0.5155
C31 C 0.7599(2) 0.3005(3) 0.4294(2)
H21 H 0.8161 0.3287 0.4318
C32 C 0.6906(2) 0.3458(2) 0.37526(17)
H22 H 0.7006 0.4042 0.3414
C33 C 0.31592(17) 0.5120(2) 0.30164(16)
C34 C 0.2750(2) 0.4680(2) 0.35878(18)
H23 H 0.2974 0.4024 0.3868
C35 C 0.2016(2) 0.5205(3) 0.3744(2)
H24 H 0.1744 0.4899 0.4126
C36 C 0.1683(2) 0.6182(3) 0.3336(2)
H25 H 0.1186 0.6537 0.3441
C37 C 0.2086(2) 0.6624(3) 0.2778(2)
H26 H 0.1866 0.7287 0.2504
C38 C 0.2810(2) 0.6102(2) 0.26172(17)
H27 H 0.3075 0.6412 0.2232
C39 C 0.49981(16) 0.5010(2) 0.45724(13)
C40 C 0.5412(2) 0.6013(2) 0.42553(16)
H28 H 0.5346 0.5930 0.3698
H29 H 0.6022 0.6041 0.4496
H30 H 0.5134 0.6716 0.4368
F2 F 0.46805(12) 0.38795(14) 0.10139(10)
N2 N 0.46324(13) 0.41566(17) 0.41702(12)
C21B C 0.60467(19) 0.5555(2) 0.79972(17)
H16B H 0.6502 0.5271 0.8381
C22B C 0.5337(2) 0.6067(2) 0.82028(17)
C23B C 0.4665(2) 0.6522(2) 0.76761(18)
H17B H 0.4201 0.6873 0.7845
C24B C 0.46718(18) 0.6462(2) 0.68794(16)
C25B C 0.53798(18) 0.5909(2) 0.66480(16)
C26B C 0.60780(18) 0.5463(2) 0.72024(16)
C27B C 0.39263(19) 0.6943(2) 0.62900(15)
C28B C 0.4058(2) 0.7815(3) 0.57828(19)
H18B H 0.4619 0.8100 0.5803
C29B C 0.3364(3) 0.8262(3) 0.5247(2)
H19B H 0.3459 0.8849 0.4909
C30B C 0.2539(2) 0.7853(3) 0.5208(2)
H20B H 0.2073 0.8157 0.4845
C31B C 0.2401(2) 0.6995(3) 0.5706(2)
H21B H 0.1839 0.6713 0.5682
C32B C 0.3094(2) 0.6542(2) 0.62474(17)
H22B H 0.2994 0.5958 0.6586
C33B C 0.68408(17) 0.4880(2) 0.69836(16)
C34B C 0.7250(2) 0.5320(2) 0.64122(18)
H23B H 0.7026 0.5976 0.6132
C35B C 0.7984(2) 0.4795(3) 0.6256(2)
H24B H 0.8256 0.5101 0.5874
C36B C 0.8317(2) 0.3818(3) 0.6664(2)
H25B H 0.8814 0.3463 0.6559
C37B C 0.7914(2) 0.3376(3) 0.7222(2)
H26B H 0.8134 0.2713 0.7496
C38B C 0.7190(2) 0.3898(2) 0.73828(17)
H27B H 0.6925 0.3588 0.7768
C39B C 0.50019(16) 0.4990(2) 0.54276(13)
C40B C 0.4588(2) 0.3987(2) 0.57447(16)
H28B H 0.4654 0.4070 0.6302
H29B H 0.3978 0.3959 0.5504
H30B H 0.4866 0.3284 0.5632
F2B F 0.53195(12) 0.61205(14) 0.89861(10)
N2B N 0.53676(13) 0.58434(17) 0.58298(12)
loop_
_geom_bond_atom_site_label_1
_geom_bond_atom_site_label_2
_geom_bond_site_symmetry_1
_geom_bond_site_symmetry_2
C1 H1 1_555 1_555
C2 C1 1_555 1_555
C3 C2 1_555 1_555
H2 C3 1_555 1_555
C4 C3 1_555 1_555
C5 C4 1_555 1_555
C6 C1 1_555 1_555
C7 C6 1_555 1_555
C8 C7 1_555 1_555
H3 C8 1_555 1_555
C9 C8 1_555 1_555
H4 C9 1_555 1_555
C10 C9 1_555 1_555
H5 C10 1_555 1_555
C11 C10 1_555 1_555
H6 C11 1_555 1_555
C12 C7 1_555 1_555
H7 C12 1_555 1_555
C13 C4 1_555 1_555
C14 C13 1_555 1_555
H8 C14 1_555 1_555
C15 C14 1_555 1_555
H9 C15 1_555 1_555
C16 C15 1_555 1_555
H10 C16 1_555 1_555
C17 C16 1_555 1_555
H11 C17 1_555 1_555
C18 C13 1_555 1_555
H12 C18 1_555 1_555
C19 C20 1_555 1_555
C20 H13 1_555 1_555
H14 C20 1_555 1_555
H15 C20 1_555 1_555
F1 C2 1_555 1_555
N1 C5 1_555 1_555
C21 H16 1_555 1_555
C22 C21 1_555 1_555
C23 C22 1_555 1_555
H17 C23 1_555 1_555
C24 C23 1_555 1_555
C25 C24 1_555 1_555
C26 C21 1_555 1_555
C27 C24 1_555 1_555
C28 C27 1_555 1_555
H18 C28 1_555 1_555
C29 C28 1_555 1_555
H19 C29 1_555 1_555
C30 C29 1_555 1_555
H20 C30 1_555 1_555
C31 C30 1_555 1_555
H21 C31 1_555 1_555
C32 C27 1_555 1_555
H22 C32 1_555 1_555
C33 C26 1_555 1_555
C34 C33 1_555 1_555
H23 C34 1_555 1_555
C35 C34 1_555 1_555
H24 C35 1_555 1_555
C36 C35 1_555 1_555
H25 C36 1_555 1_555
C37 C36 1_555 1_555
H26 C37 1_555 1_555
C38 C33 1_555 1_555
H27 C38 1_555 1_555
C39 C40 1_555 1_555
C40 H28 1_555 1_555
H29 C40 1_555 1_555
H30 C40 1_555 1_555
F2 C22 1_555 1_555
N2 C25 1_555 1_555
C1B H1B 1_555 1_555
C2B C1B 1_555 1_555
C3B C2B 1_555 1_555
H2B C3B 1_555 1_555
C4B C3B 1_555 1_555
C5B C4B 1_555 1_555
C6B C1B 1_555 1_555
C7B C6B 1_555 1_555
C8B C7B 1_555 1_555
H3B C8B 1_555 1_555
C9B C8B 1_555 1_555
H4B C9B 1_555 1_555
C10B C9B 1_555 1_555
H5B C10B 1_555 1_555
C11B C10B 1_555 1_555
H6B C11B 1_555 1_555
C12B C7B 1_555 1_555
H7B C12B 1_555 1_555
C13B C4B 1_555 1_555
C14B C13B 1_555 1_555
H8B C14B 1_555 1_555
C15B C14B 1_555 1_555
H9B C15B 1_555 1_555
C16B C15B 1_555 1_555
H10B C16B 1_555 1_555
C17B C16B 1_555 1_555
H11B C17B 1_555 1_555
C18B C13B 1_555 1_555
H12B C18B 1_555 1_555
C19B C19 1_555 1_555
C20B C19B 1_555 1_555
H13B C20B 1_555 1_555
H14B C20B 1_555 1_555
H15B C20B 1_555 1_555
F1B C2B 1_555 1_555
N1B C5B 1_555 1_555
C21B H16B 1_555 1_555
C22B C21B 1_555 1_555
C23B C22B 1_555 1_555
H17B C23B 1_555 1_555
C24B C23B 1_555 1_555
C25B C24B 1_555 1_555
C26B C21B 1_555 1_555
C27B C24B 1_555 1_555
C28B C27B 1_555 1_555
H18B C28B 1_555 1_555
C29B C28B 1_555 1_555
H19B C29B 1_555 1_555
C30B C29B 1_555 1_555
H20B C30B 1_555 1_555
C31B C30B 1_555 1_555
H21B C31B 1_555 1_555
C32B C27B 1_555 1_555
H22B C32B 1_555 1_555
C33B C26B 1_555 1_555
C34B C33B 1_555 1_555
H23B C34B 1_555 1_555
C35B C34B 1_555 1_555
H24B C35B 1_555 1_555
C36B C35B 1_555 1_555
H25B C36B 1_555 1_555
C37B C36B 1_555 1_555
H26B C37B 1_555 1_555
C38B C33B 1_555 1_555
H27B C38B 1_555 1_555
C39B C39 1_555 1_555
C40B C39B 1_555 1_555
H28B C40B 1_555 1_555
H29B C40B 1_555 1_555
H30B C40B 1_555 1_555
F2B C22B 1_555 1_555
N2B C25B 1_555 1_555
C5 C6 1_555 1_555
C11 C12 1_555 1_555
C17 C18 1_555 1_555
C19 N1 1_555 1_555
C25 C26 1_555 1_555
C31 C32 1_555 1_555
C37 C38 1_555 1_555
C39 N2 1_555 1_555
C5B C6B 1_555 1_555
C11B C12B 1_555 1_555
C17B C18B 1_555 1_555
C19B N1B 1_555 1_555
C25B C26B 1_555 1_555
C31B C32B 1_555 1_555
C37B C38B 1_555 1_555
C39B N2B 1_555 1_555

#END
