
#######################################################################
#
#                 Cambridge Crystallographic Data Centre
#                                CCDC 
#
#######################################################################
#
# If this CIF has been generated from an entry in the Cambridge 
# Structural Database, then it will include bibliographic, chemical, 
# crystal, experimental, refinement or atomic coordinate data resulting 
# from the CCDC's data processing and validation procedures.
#
#######################################################################

data_IHUJUS
_chemical_formula_moiety         'C8 H8 O8 2-,2(C5 H8 N3 1+),H2 O1'
_chemical_name_systematic        
'bis(2,6-diaminopyridinium) 3,4-dicarboxyhexanedioate monohydrate'
_symmetry_cell_setting           triclinic
_symmetry_space_group_name_H-M   'P -1'
_symmetry_Int_Tables_number      2
_space_group_name_Hall           '-P 1'
loop_
_symmetry_equiv_pos_site_id
_symmetry_equiv_pos_as_xyz
1 x,y,z
2 -x,-y,-z
_cell_length_a                   7.3507(6)
_cell_length_b                   8.2631(8)
_cell_length_c                   8.8029(9)
_cell_angle_alpha                89.056(2)
_cell_angle_beta                 87.4740(10)
_cell_angle_gamma                89.143(2)
_cell_volume                     534.038
_exptl_crystal_colour            colorless
_exptl_crystal_description       block
_cell_formula_units_Z            1
loop_
_atom_site_label
_atom_site_type_symbol
_atom_site_fract_x
_atom_site_fract_y
_atom_site_fract_z
N1 N 0.7585(4) 0.4588(3) 0.4614(3)
H1 H 0.7028 0.5322 0.4101
N2 N 0.6731(4) 0.6038(4) 0.6725(3)
H2 H 0.6210 0.6722 0.6132
H3 H 0.6696 0.6192 0.7690
N3 N 0.8287(6) 0.3364(4) 0.2341(4)
H4 H 0.7709 0.4142 0.1904
H5 H 0.8786 0.2602 0.1807
C1 C 0.7596(5) 0.4736(4) 0.6147(4)
C2 C 0.8480(6) 0.3551(5) 0.6983(5)
H6 H 0.8503 0.3613 0.8036
C3 C 0.9315(6) 0.2297(5) 0.6236(6)
H7 H 0.9912 0.1502 0.6794
C4 C 0.9300(6) 0.2170(5) 0.4685(6)
H8 H 0.9886 0.1302 0.4201
C5 C 0.8410(5) 0.3340(4) 0.3844(5)
O1 O 0.5614(4) -0.1337(3) 1.4672(3)
O2 O 0.6276(4) -0.2961(3) 1.2771(3)
O3 O 0.8417(3) 0.0132(3) 1.0551(3)
H9 H 0.9476 -0.0074 1.0283
O4 O 0.7932(4) -0.2103(3) 0.9318(3)
C6 C 0.5708(5) -0.1654(4) 1.3247(4)
C7 C 0.5081(4) -0.0329(4) 1.2178(3)
H10 H 0.5721 0.0654 1.2389
H11 H 0.3793 -0.0123 1.2390
C8 C 0.5375(4) -0.0699(3) 1.0506(3)
H12 H 0.4722 -0.1690 1.0294
C9 C 0.7383(5) -0.0964(4) 1.0076(4)
O1A O 0.4386(4) 0.1337(3) 0.5328(3)
O2A O 0.3724(4) 0.2961(3) 0.7229(3)
O3A O 0.1583(3) -0.0132(3) 0.9449(3)
H9A H 0.0524 0.0074 0.9717
O4A O 0.2068(4) 0.2103(3) 1.0682(3)
C6A C 0.4292(5) 0.1654(4) 0.6753(4)
C7A C 0.4919(4) 0.0329(4) 0.7822(3)
H10A H 0.4279 -0.0654 0.7611
H11A H 0.6207 0.0123 0.7610
C8A C 0.4625(4) 0.0699(3) 0.9494(3)
H12A H 0.5278 0.1690 0.9706
C9A C 0.2617(5) 0.0964(4) 0.9924(4)
O5 O 0.562(6) 0.488(4) 0.018(3)
H13 H 0.5565 0.5225 0.1088
H14 H 0.6237 0.5549 -0.0362
loop_
_geom_bond_atom_site_label_1
_geom_bond_atom_site_label_2
_geom_bond_site_symmetry_1
_geom_bond_site_symmetry_2
N1 H1 1_555 1_555
N2 H2 1_555 1_555
H3 N2 1_555 1_555
N3 H4 1_555 1_555
H5 N3 1_555 1_555
C1 N1 1_555 1_555
C2 C1 1_555 1_555
H6 C2 1_555 1_555
C3 C2 1_555 1_555
H7 C3 1_555 1_555
C4 C3 1_555 1_555
H8 C4 1_555 1_555
C5 N1 1_555 1_555
O1 C6 1_555 1_555
O2 C6 1_555 1_555
O3 H9 1_555 1_555
O4 C9 1_555 1_555
C6 C7 1_555 1_555
C7 H10 1_555 1_555
H11 C7 1_555 1_555
C8 C7 1_555 1_555
H12 C8 1_555 1_555
C9 O3 1_555 1_555
O5 H13 1_555 1_555
H14 O5 1_555 1_555
O1A C6A 1_555 1_555
O2A C6A 1_555 1_555
O3A H9A 1_555 1_555
O4A C9A 1_555 1_555
C6A C7A 1_555 1_555
C7A H10A 1_555 1_555
H11A C7A 1_555 1_555
C8A C8 1_555 1_555
H12A C8A 1_555 1_555
C9A O3A 1_555 1_555
N2 C1 1_555 1_555
N3 C5 1_555 1_555
C4 C5 1_555 1_555
C8 C9 1_555 1_555
C7A C8A 1_555 1_555
C8A C9A 1_555 1_555

#END
