
#######################################################################
#
#                 Cambridge Crystallographic Data Centre
#                                CCDC 
#
#######################################################################
#
# If this CIF has been generated from an entry in the Cambridge 
# Structural Database, then it will include bibliographic, chemical, 
# crystal, experimental, refinement or atomic coordinate data resulting 
# from the CCDC's data processing and validation procedures.
#
#######################################################################

data_IHUJOM
_chemical_formula_moiety         'C29 H38 N2 O7'
_chemical_name_systematic        
4,6,7,16,18,19-hexamethoxy-5,17,23-trimethyl-11-oxa-22,23-diazahexacyclo[10.9.1.1^13,21^.0^3,8^.0^9,22^.0^15,20^]tricosa-3,5,7,15,17,19-hexaene
_symmetry_cell_setting           triclinic
_symmetry_space_group_name_H-M   'P -1'
_symmetry_Int_Tables_number      2
_space_group_name_Hall           '-P 1'
loop_
_symmetry_equiv_pos_site_id
_symmetry_equiv_pos_as_xyz
1 x,y,z
2 -x,-y,-z
_cell_length_a                   11.0963(2)
_cell_length_b                   11.2124(2)
_cell_length_c                   11.4822(2)
_cell_angle_alpha                99.8244(9)
_cell_angle_beta                 97.6722(9)
_cell_angle_gamma                107.8017(8)
_cell_volume                     1313.72
_exptl_crystal_colour            colorless
_exptl_crystal_description       block
_chemical_melting_point          '105-107 deg.C'
_cell_formula_units_Z            2
loop_
_atom_site_label
_atom_site_type_symbol
_atom_site_fract_x
_atom_site_fract_y
_atom_site_fract_z
O1 O 0.42115(10) 1.01666(9) 0.14937(9)
O2 O 0.22516(9) 1.14043(9) 0.43125(9)
O3 O 0.20513(9) 1.13390(10) 0.67233(9)
O4 O 0.30156(9) 0.74131(9) 0.62089(9)
O5 O 0.13084(9) 0.43268(10) -0.16134(9)
O6 O 0.19801(9) 0.26679(10) 0.19308(10)
O7 O 0.38869(9) 0.49649(9) 0.30447(9)
N1 N 0.50395(11) 0.78875(11) 0.11276(11)
N2 N 0.29400(11) 0.83785(11) 0.20679(11)
C1 C 0.44593(13) 0.71605(13) 0.19780(13)
C2 C 0.40166(13) 0.80777(14) 0.03068(13)
C3 C 0.33559(13) 0.88578(13) 0.10363(13)
C4 C 0.27383(13) 0.95084(13) 0.27678(13)
C5 C 0.27040(12) 0.94527(13) 0.40707(13)
C6 C 0.24458(13) 1.04253(13) 0.48153(13)
C7 C 0.23228(13) 1.03687(14) 0.60008(13)
C8 C 0.25020(13) 0.93558(14) 0.64845(13)
C9 C 0.27838(13) 0.84059(14) 0.57287(13)
C10 C 0.28982(13) 0.84357(13) 0.45331(13)
C11 C 0.33276(13) 0.74651(13) 0.37738(13)
C12 C 0.39423(13) 0.80363(13) 0.27962(13)
C13 C 0.30420(14) 0.67995(14) -0.04785(14)
C14 C 0.27596(13) 0.57107(14) 0.01749(13)
C15 C 0.18644(13) 0.45069(14) -0.04058(13)
C16 C 0.15668(13) 0.34696(14) 0.01532(14)
C17 C 0.22344(13) 0.36644(14) 0.13288(14)
C18 C 0.31890(13) 0.48325(14) 0.18996(13)
C19 C 0.34389(13) 0.58700(13) 0.13439(13)
C20 C 0.38138(14) 1.06711(14) 0.25546(14)
C21 C 0.58668(14) 0.73238(15) 0.05057(14)
C22 C 0.31119(16) 1.26767(15) 0.48934(15)
C23 C 0.07623(15) 1.13506(16) 0.63564(15)
C24 C 0.24404(14) 0.93313(14) 0.77825(13)
C25 C 0.19290(16) 0.62571(15) 0.59144(16)
C26 C 0.00576(15) 0.44631(17) -0.17975(15)
C27 C 0.06119(15) 0.21675(15) -0.04895(15)
C28 C 0.09099(15) 0.26267(19) 0.25162(18)
C29 C 0.49351(14) 0.44672(15) 0.29896(15)
H1 H 0.5162 0.6989 0.2492
H2 H 0.4436 0.8597 -0.0247
H3 H 0.2580 0.8868 0.0490
H4 H 0.1886 0.9539 0.2388
H5 H 0.2575 0.6682 0.3398
H6 H 0.3959 0.7220 0.4289
H7 H 0.4674 0.8845 0.3194
H8 H 0.2223 0.6938 -0.0762
H9 H 0.3387 0.6545 -0.1198
H10 H 0.3473 1.1368 0.2426
H11 H 0.4546 1.1013 0.3253
H12 H 0.6211 0.7840 -0.0059
H13 H 0.5363 0.6444 0.0061
H14 H 0.6582 0.7309 0.1097
H15 H 0.3077 1.3261 0.4355
H16 H 0.3995 1.2664 0.5080
H17 H 0.2851 1.2973 0.5642
H18 H 0.0596 1.1326 0.5491
H19 H 0.0676 1.2135 0.6807
H20 H 0.0138 1.0598 0.6521
H21 H 0.2210 0.8442 0.7878
H22 H 0.1787 0.9694 0.8020
H23 H 0.3284 0.9842 0.8294
H24 H 0.2118 0.5638 0.6354
H25 H 0.1747 0.5892 0.5045
H26 H 0.1175 0.6446 0.6142
H27 H -0.0562 0.3759 -0.1561
H28 H -0.0222 0.4437 -0.2651
H29 H 0.0101 0.5287 -0.1306
H30 H 0.0640 0.1543 0.0007
H31 H 0.0835 0.1893 -0.1265
H32 H -0.0259 0.2220 -0.0628
H33 H 0.0151 0.2538 0.1919
H34 H 0.1127 0.3423 0.3131
H35 H 0.0720 0.1891 0.2899
H36 H 0.5544 0.4959 0.2559
H37 H 0.4595 0.3561 0.2563
H38 H 0.5380 0.4542 0.3810
loop_
_geom_bond_atom_site_label_1
_geom_bond_atom_site_label_2
_geom_bond_site_symmetry_1
_geom_bond_site_symmetry_2
O1 C3 1_555 1_555
O2 C6 1_555 1_555
O3 C7 1_555 1_555
O4 C9 1_555 1_555
O5 C15 1_555 1_555
O6 C17 1_555 1_555
O7 C18 1_555 1_555
N1 C1 1_555 1_555
N2 C3 1_555 1_555
C1 C12 1_555 1_555
C2 N1 1_555 1_555
C3 C2 1_555 1_555
C4 N2 1_555 1_555
C5 C4 1_555 1_555
C6 C5 1_555 1_555
C7 C6 1_555 1_555
C8 C7 1_555 1_555
C9 C8 1_555 1_555
C10 C5 1_555 1_555
C11 C10 1_555 1_555
C12 N2 1_555 1_555
C13 C2 1_555 1_555
C14 C13 1_555 1_555
C15 C14 1_555 1_555
C16 C15 1_555 1_555
C17 C16 1_555 1_555
C18 C17 1_555 1_555
C19 C1 1_555 1_555
C20 O1 1_555 1_555
C21 N1 1_555 1_555
C22 O2 1_555 1_555
C23 O3 1_555 1_555
C24 C8 1_555 1_555
C25 O4 1_555 1_555
C26 O5 1_555 1_555
C27 C16 1_555 1_555
C28 O6 1_555 1_555
C29 O7 1_555 1_555
H1 C1 1_555 1_555
H2 C2 1_555 1_555
H3 C3 1_555 1_555
H4 C4 1_555 1_555
H5 C11 1_555 1_555
H6 C11 1_555 1_555
H7 C12 1_555 1_555
H8 C13 1_555 1_555
H9 C13 1_555 1_555
H10 C20 1_555 1_555
H11 C20 1_555 1_555
H12 C21 1_555 1_555
H13 C21 1_555 1_555
H14 C21 1_555 1_555
H15 C22 1_555 1_555
H16 C22 1_555 1_555
H17 C22 1_555 1_555
H18 C23 1_555 1_555
H19 C23 1_555 1_555
H20 C23 1_555 1_555
H21 C24 1_555 1_555
H22 C24 1_555 1_555
H23 C24 1_555 1_555
H24 C25 1_555 1_555
H25 C25 1_555 1_555
H26 C25 1_555 1_555
H27 C26 1_555 1_555
H28 C26 1_555 1_555
H29 C26 1_555 1_555
H30 C27 1_555 1_555
H31 C27 1_555 1_555
H32 C27 1_555 1_555
H33 C28 1_555 1_555
H34 C28 1_555 1_555
H35 C28 1_555 1_555
H36 C29 1_555 1_555
H37 C29 1_555 1_555
H38 C29 1_555 1_555
C4 C20 1_555 1_555
C9 C10 1_555 1_555
C11 C12 1_555 1_555
C14 C19 1_555 1_555
C18 C19 1_555 1_555

#END
