
#######################################################################
#
#                 Cambridge Crystallographic Data Centre
#                                CCDC 
#
#######################################################################
#
# If this CIF has been generated from an entry in the Cambridge 
# Structural Database, then it will include bibliographic, chemical, 
# crystal, experimental, refinement or atomic coordinate data resulting 
# from the CCDC's data processing and validation procedures.
#
#######################################################################

data_IHUKOM
_chemical_formula_moiety         'C17 H13 Cl2 N1 O3'
_chemical_name_systematic        
'(4S,5R)-Methyl 5-(2,3-dichlorophenyl)-4-phenyl-4,5-dihydro-1,3-oxazole-4-carboxylate'
_symmetry_cell_setting           orthorhombic
_symmetry_space_group_name_H-M   'P 21 21 21'
_symmetry_Int_Tables_number      19
_space_group_name_Hall           'P 2ac 2ab'
loop_
_symmetry_equiv_pos_site_id
_symmetry_equiv_pos_as_xyz
1 x,y,z
2 1/2-x,-y,1/2+z
3 1/2+x,1/2-y,-z
4 -x,1/2+y,1/2-z
_cell_length_a                   9.554
_cell_length_b                   10.941
_cell_length_c                   15.912
_cell_angle_alpha                90
_cell_angle_beta                 90
_cell_angle_gamma                90
_cell_volume                     1663.29
_exptl_crystal_colour            colorless
_exptl_crystal_description       block
_cell_formula_units_Z            4
loop_
_atom_site_label
_atom_site_type_symbol
_atom_site_fract_x
_atom_site_fract_y
_atom_site_fract_z
Cl1 Cl 0.87410(7) 0.99871(7) 0.60611(4)
Cl2 Cl 0.90214(12) 1.09341(7) 0.42258(5)
O1 O 0.9610(2) 0.83223(19) 0.81260(13)
O2 O 1.0581(2) 0.64221(16) 0.64502(13)
C1 C 1.2186(2) 1.0285(2) 0.69881(14)
H1 H 1.1261 1.0470 0.7118
C2 C 1.2620(2) 0.9071(2) 0.69839(13)
O3 O 1.1751(2) 0.8583(2) 0.86364(11)
C3 C 1.0677(2) 0.8280(2) 0.56495(14)
C4 C 1.3988(3) 0.8830(3) 0.67898(19)
H2 H 1.4304 0.8026 0.6777
C5 C 1.1602(2) 0.8055(2) 0.72027(14)
C6 C 1.0948(3) 0.9185(3) 0.40179(16)
H3 H 1.1037 0.9480 0.3472
C7 C 1.4902(3) 0.9772(3) 0.6613(2)
H4 H 1.5829 0.9593 0.6484
N1 N 1.2332(2) 0.6879(2) 0.73426(14)
C8 C 1.0489(3) 0.7749(2) 0.65137(15)
H5 H 0.9559 0.7970 0.6724
C9 C 1.0030(3) 0.9716(2) 0.45638(15)
C10 C 1.1605(3) 0.7762(3) 0.50835(17)
H6 H 1.2148 0.7100 0.5250
C11 C 1.1739(3) 0.8210(3) 0.42817(18)
H7 H 1.2371 0.7849 0.3913
C12 C 1.3103(3) 1.1217(2) 0.68038(15)
H8 H 1.2792 1.2023 0.6803
C13 C 1.4470(3) 1.0961(3) 0.66222(17)
H9 H 1.5098 1.1589 0.6507
C14 C 0.9895(2) 0.9279(2) 0.53823(14)
C15 C 1.1681(4) 0.6099(3) 0.6927(2)
C16 C 1.1174(5) 0.8813(3) 0.94668(17)
H10 H 1.1922 0.8972 0.9855
H11 H 1.0656 0.8111 0.9650
H12 H 1.0563 0.9509 0.9444
C17 C 1.0850(3) 0.8339(2) 0.80359(16)
H13 H 1.191(3) 0.521(3) 0.6892(17)
loop_
_geom_bond_atom_site_label_1
_geom_bond_atom_site_label_2
_geom_bond_site_symmetry_1
_geom_bond_site_symmetry_2
Cl1 C14 1_555 1_555
Cl2 C9 1_555 1_555
O1 C17 1_555 1_555
O2 C8 1_555 1_555
C1 H1 1_555 1_555
C2 C1 1_555 1_555
O3 C16 1_555 1_555
C3 C8 1_555 1_555
C4 C2 1_555 1_555
H2 C4 1_555 1_555
C5 C2 1_555 1_555
C6 H3 1_555 1_555
C7 C4 1_555 1_555
H4 C7 1_555 1_555
N1 C5 1_555 1_555
C8 C5 1_555 1_555
H5 C8 1_555 1_555
C9 C6 1_555 1_555
C10 C3 1_555 1_555
H6 C10 1_555 1_555
C11 C6 1_555 1_555
H7 C11 1_555 1_555
C12 C1 1_555 1_555
H8 C12 1_555 1_555
C13 C7 1_555 1_555
H9 C13 1_555 1_555
C14 C3 1_555 1_555
C15 O2 1_555 1_555
C16 H10 1_555 1_555
H11 C16 1_555 1_555
H12 C16 1_555 1_555
C17 O3 1_555 1_555
H13 C15 1_555 1_555
C5 C17 1_555 1_555
N1 C15 1_555 1_555
C9 C14 1_555 1_555
C10 C11 1_555 1_555
C12 C13 1_555 1_555

#END
