
#######################################################################
#
#                 Cambridge Crystallographic Data Centre
#                                CCDC 
#
#######################################################################
#
# If this CIF has been generated from an entry in the Cambridge 
# Structural Database, then it will include bibliographic, chemical, 
# crystal, experimental, refinement or atomic coordinate data resulting 
# from the CCDC's data processing and validation procedures.
#
#######################################################################

data_IHUMEF
_chemical_formula_moiety         'C8 H5 O4 1-,C5 H8 N3 1+'
_chemical_name_systematic        
'2,6-diaminopyridin-1-ium 1,3-benzodioxole-5-carboxylate'
_symmetry_cell_setting           monoclinic
_symmetry_space_group_name_H-M   'P 21/c'
_symmetry_Int_Tables_number      14
_space_group_name_Hall           '-P 2ybc'
loop_
_symmetry_equiv_pos_site_id
_symmetry_equiv_pos_as_xyz
1 x,y,z
2 -x,1/2+y,1/2-z
3 -x,-y,-z
4 x,1/2-y,1/2+z
_cell_length_a                   11.963(3)
_cell_length_b                   15.171(4)
_cell_length_c                   14.865(4)
_cell_angle_alpha                90
_cell_angle_beta                 107.584(3)
_cell_angle_gamma                90
_cell_volume                     2571.8
_exptl_crystal_colour            colorless
_exptl_crystal_description       block
_cell_formula_units_Z            8
loop_
_atom_site_label
_atom_site_type_symbol
_atom_site_fract_x
_atom_site_fract_y
_atom_site_fract_z
N1 N 0.00440(15) 0.47523(12) 0.12721(13)
H1 H 0.0060 0.4186 0.1274
N2 N 0.19558(17) 0.46999(14) 0.12688(16)
H2 H 0.1917 0.4135 0.1288
H3 H 0.2596 0.4951 0.1259
N3 N -0.18487(16) 0.46202(13) 0.13099(15)
H4 H -0.1757 0.4058 0.1316
H5 H -0.2508 0.4840 0.1319
C1 C 0.10258(19) 0.51861(16) 0.12550(16)
C2 C 0.0988(2) 0.60998(16) 0.12292(19)
H6 H 0.1644 0.6424 0.1218
C3 C -0.0031(2) 0.65185(18) 0.12200(19)
H7 H -0.0058 0.7131 0.1195
C4 C -0.1016(2) 0.60637(16) 0.12464(17)
H8 H -0.1699 0.6361 0.1238
C5 C -0.09636(19) 0.51550(15) 0.12856(15)
N4 N 0.53653(15) 0.21837(12) 0.39381(13)
H9 H 0.5345 0.1617 0.3929
N5 N 0.34783(17) 0.21412(13) 0.29550(15)
H10 H 0.3519 0.1575 0.2983
H11 H 0.2845 0.2394 0.2622
N6 N 0.72257(17) 0.20328(13) 0.49272(14)
H12 H 0.7124 0.1472 0.4882
H13 H 0.7882 0.2245 0.5272
C6 C 0.43924(19) 0.26236(15) 0.34257(16)
C7 C 0.4437(2) 0.35390(16) 0.34397(19)
H14 H 0.3791 0.3869 0.3103
C8 C 0.5449(2) 0.39490(17) 0.3958(2)
H15 H 0.5479 0.4562 0.3964
C9 C 0.6422(2) 0.34834(15) 0.44699(18)
H16 H 0.7102 0.3774 0.4813
C10 C 0.63627(19) 0.25765(15) 0.44612(16)
O1 O 1.15186(15) 0.28581(11) 0.15188(14)
O2 O 0.96020(15) 0.29930(11) 0.12045(14)
O3 O 0.83147(18) -0.02246(13) 0.13832(15)
O4 O 0.9874(2) -0.11166(12) 0.13188(16)
C11 C 1.0512(2) 0.25347(16) 0.13445(17)
C12 C 1.03812(19) 0.15506(15) 0.13110(16)
C13 C 0.9322(2) 0.11764(15) 0.13470(16)
H17 H 0.8698 0.1526 0.1381
C14 C 0.9247(2) 0.02864(17) 0.13297(17)
C15 C 1.0166(3) -0.02407(17) 0.12872(18)
C16 C 1.1200(2) 0.00997(18) 0.12560(19)
H18 H 1.1817 -0.0261 0.1227
C17 C 1.1297(2) 0.10164(16) 0.12696(17)
H19 H 1.1995 0.1273 0.1250
C18 C 0.8686(3) -0.1113(2) 0.1304(3)
H20 H 0.8596 -0.1463 0.1824
H21 H 0.8202 -0.1372 0.0719
O5 O 0.42051(14) 0.54201(10) 0.10221(13)
O6 O 0.61214(14) 0.52904(11) 0.16972(14)
O7 O 0.65485(19) 0.19047(12) 0.21087(16)
O8 O 0.48277(19) 0.12840(12) 0.11497(16)
C19 C 0.51322(19) 0.49636(15) 0.13142(17)
C20 C 0.50288(19) 0.39816(14) 0.12194(16)
C21 C 0.5940(2) 0.34474(15) 0.17489(17)
H22 H 0.6628 0.3688 0.2147
C22 C 0.5781(2) 0.25573(16) 0.16575(18)
C23 C 0.4771(2) 0.21904(16) 0.10837(19)
C24 C 0.3871(2) 0.26928(17) 0.05582(19)
H23 H 0.3189 0.2441 0.0165
C25 C 0.4018(2) 0.36005(15) 0.06353(17)
H24 H 0.3419 0.3964 0.0284
C26 C 0.5958(3) 0.10984(18) 0.1784(2)
H25 H 0.5881 0.0760 0.2316
H26 H 0.6407 0.0752 0.1466
loop_
_geom_bond_atom_site_label_1
_geom_bond_atom_site_label_2
_geom_bond_site_symmetry_1
_geom_bond_site_symmetry_2
N1 H1 1_555 1_555
N2 H2 1_555 1_555
H3 N2 1_555 1_555
N3 H4 1_555 1_555
H5 N3 1_555 1_555
C1 N1 1_555 1_555
C2 C1 1_555 1_555
H6 C2 1_555 1_555
C3 C2 1_555 1_555
H7 C3 1_555 1_555
C4 C3 1_555 1_555
H8 C4 1_555 1_555
C5 N1 1_555 1_555
N4 H9 1_555 1_555
N5 H10 1_555 1_555
H11 N5 1_555 1_555
N6 H12 1_555 1_555
H13 N6 1_555 1_555
C6 N4 1_555 1_555
C7 C6 1_555 1_555
H14 C7 1_555 1_555
C8 C7 1_555 1_555
H15 C8 1_555 1_555
C9 C8 1_555 1_555
H16 C9 1_555 1_555
C10 N4 1_555 1_555
O1 C11 1_555 1_555
O2 C11 1_555 1_555
O3 C14 1_555 1_555
O4 C15 1_555 1_555
C11 C12 1_555 1_555
C12 C13 1_555 1_555
C13 H17 1_555 1_555
C14 C13 1_555 1_555
C15 C14 1_555 1_555
C16 C15 1_555 1_555
H18 C16 1_555 1_555
C17 C12 1_555 1_555
H19 C17 1_555 1_555
C18 O3 1_555 1_555
H20 C18 1_555 1_555
H21 C18 1_555 1_555
O5 C19 1_555 1_555
O6 C19 1_555 1_555
O7 C22 1_555 1_555
O8 C23 1_555 1_555
C19 C20 1_555 1_555
C20 C21 1_555 1_555
C21 H22 1_555 1_555
C22 C21 1_555 1_555
C23 C22 1_555 1_555
C24 C23 1_555 1_555
H23 C24 1_555 1_555
C25 C20 1_555 1_555
H24 C25 1_555 1_555
C26 O7 1_555 1_555
H25 C26 1_555 1_555
H26 C26 1_555 1_555
N2 C1 1_555 1_555
N3 C5 1_555 1_555
C4 C5 1_555 1_555
N5 C6 1_555 1_555
N6 C10 1_555 1_555
C9 C10 1_555 1_555
O4 C18 1_555 1_555
C16 C17 1_555 1_555
O8 C26 1_555 1_555
C24 C25 1_555 1_555

#END
