
#######################################################################
#
#                 Cambridge Crystallographic Data Centre
#                                CCDC 
#
#######################################################################
#
# If this CIF has been generated from an entry in the Cambridge 
# Structural Database, then it will include bibliographic, chemical, 
# crystal, experimental, refinement or atomic coordinate data resulting 
# from the CCDC's data processing and validation procedures.
#
#######################################################################

data_IHUMUV
_chemical_formula_moiety         'C5 H8 N3 1+,C6 H4 N1 O2 1-,0.5(H2 O1)'
_chemical_name_systematic        
'2,6-diaminopyridin-1-ium nicotinate hemihydrate'
_symmetry_cell_setting           monoclinic
_symmetry_space_group_name_H-M   'C 2/c'
_symmetry_Int_Tables_number      15
_space_group_name_Hall           '-C 2yn'
loop_
_symmetry_equiv_pos_site_id
_symmetry_equiv_pos_as_xyz
1 x,y,z
2 -x,y,1/2-z
3 1/2+x,1/2+y,z
4 1/2-x,1/2+y,1/2-z
5 -x,-y,-z
6 x,-y,1/2+z
7 1/2-x,1/2-y,-z
8 1/2+x,1/2-y,1/2+z
_cell_length_a                   18.1344(12)
_cell_length_b                   9.4750(7)
_cell_length_c                   14.1737(9)
_cell_angle_alpha                90
_cell_angle_beta                 101.3150(10)
_cell_angle_gamma                90
_cell_volume                     2388.04
_exptl_crystal_colour            colorless
_exptl_crystal_description       block
_cell_formula_units_Z            8
loop_
_atom_site_label
_atom_site_type_symbol
_atom_site_fract_x
_atom_site_fract_y
_atom_site_fract_z
N1 N 0.17091(12) 0.4255(2) 0.67296(18)
H1 H 0.1363 0.4745 0.6375
N2 N 0.23586(14) 0.4381(3) 0.5495(2)
H2 H 0.2002 0.4895 0.5183
H3 H 0.2740 0.4177 0.5244
N3 N 0.09896(15) 0.4365(3) 0.7881(2)
H4 H 0.0678 0.4884 0.7494
H5 H 0.0901 0.4156 0.8439
C1 C 0.23213(16) 0.3905(3) 0.6363(3)
C2 C 0.28749(18) 0.3082(3) 0.6932(3)
H6 H 0.3304 0.2811 0.6712
C3 C 0.27672(19) 0.2687(3) 0.7825(3)
H7 H 0.3136 0.2143 0.8208
C4 C 0.21487(18) 0.3048(3) 0.8180(2)
H8 H 0.2090 0.2742 0.8784
C5 C 0.16075(17) 0.3884(3) 0.7616(2)
N4 N 0.37377(13) 0.3594(3) 0.4742(2)
O1 O 0.54777(12) 0.1028(2) 0.60719(16)
O2 O 0.60664(12) 0.1236(3) 0.48622(17)
C6 C 0.55360(16) 0.1522(3) 0.5276(2)
C7 C 0.42801(15) 0.2698(3) 0.5120(2)
H9 H 0.4205 0.2142 0.5633
C8 C 0.49470(15) 0.2536(3) 0.48005(19)
C9 C 0.50427(18) 0.3354(3) 0.4038(2)
H10 H 0.5481 0.3279 0.3794
C10 C 0.4491(2) 0.4282(4) 0.3634(3)
H11 H 0.4550 0.4849 0.3119
C11 C 0.38573(19) 0.4357(4) 0.4002(3)
H12 H 0.3483 0.4981 0.3718
O3 O 0.5000 0.2759(5) 0.7500
H13 H 0.5140 0.2235 0.7081
H13A H 0.4860 0.2235 0.7919
loop_
_geom_bond_atom_site_label_1
_geom_bond_atom_site_label_2
_geom_bond_site_symmetry_1
_geom_bond_site_symmetry_2
N1 H1 1_555 1_555
N2 H2 1_555 1_555
H3 N2 1_555 1_555
N3 H4 1_555 1_555
H5 N3 1_555 1_555
C1 N1 1_555 1_555
C2 C1 1_555 1_555
H6 C2 1_555 1_555
C3 C2 1_555 1_555
H7 C3 1_555 1_555
C4 C3 1_555 1_555
H8 C4 1_555 1_555
C5 N1 1_555 1_555
N4 C7 1_555 1_555
O1 C6 1_555 1_555
O2 C6 1_555 1_555
C6 C8 1_555 1_555
C7 H9 1_555 1_555
C8 C7 1_555 1_555
C9 C8 1_555 1_555
H10 C9 1_555 1_555
C10 C9 1_555 1_555
H11 C10 1_555 1_555
C11 N4 1_555 1_555
H12 C11 1_555 1_555
O3 H13 1_555 1_555
H13A O3 1_555 1_555
N2 C1 1_555 1_555
N3 C5 1_555 1_555
C4 C5 1_555 1_555
C10 C11 1_555 1_555

#END
