
#######################################################################
#
#                 Cambridge Crystallographic Data Centre
#                                CCDC 
#
#######################################################################
#
# If this CIF has been generated from an entry in the Cambridge 
# Structural Database, then it will include bibliographic, chemical, 
# crystal, experimental, refinement or atomic coordinate data resulting 
# from the CCDC's data processing and validation procedures.
#
#######################################################################

data_IHUQUZ
_chemical_formula_moiety         'C23 H18'
_chemical_name_systematic        1-(diphenylmethyl)naphthalene
_symmetry_cell_setting           monoclinic
_symmetry_space_group_name_H-M   'P 21/c'
_symmetry_Int_Tables_number      14
_space_group_name_Hall           '-P 2ybc'
loop_
_symmetry_equiv_pos_site_id
_symmetry_equiv_pos_as_xyz
1 x,y,z
2 -x,1/2+y,1/2-z
3 -x,-y,-z
4 x,1/2-y,1/2+z
_cell_length_a                   8.618(7)
_cell_length_b                   19.731(14)
_cell_length_c                   10.385(9)
_cell_angle_alpha                90
_cell_angle_beta                 112.144(9)
_cell_angle_gamma                90
_cell_volume                     1635.63
_exptl_crystal_colour            white
_exptl_crystal_description       prism
_cell_formula_units_Z            4
loop_
_atom_site_label
_atom_site_type_symbol
_atom_site_fract_x
_atom_site_fract_y
_atom_site_fract_z
C1 C 0.1461(2) 0.64812(9) 0.0202(2)
H1 H 0.1979 0.6928 0.0253
C2 C 0.2812(2) 0.60205(10) 0.1174(2)
C3 C 0.0862(3) 0.62612(10) -0.13126(19)
C4 C 0.3218(3) 0.54012(11) 0.0782(2)
H2 H 0.2675 0.5253 -0.0128
C5 C 0.1861(3) 0.64050(10) -0.2114(2)
C6 C 0.1271(3) 0.61922(12) -0.3528(2)
C7 C 0.0036(2) 0.65759(10) 0.0721(2)
C8 C -0.0596(3) 0.59124(12) -0.1932(2)
H3 H -0.1259 0.5820 -0.1424
C9 C -0.0528(3) 0.60556(13) 0.1325(2)
H4 H -0.0031 0.5631 0.1421
C10 C 0.3413(3) 0.67360(11) -0.1567(3)
H5 H 0.3840 0.6861 -0.0635
C11 C 0.3670(3) 0.62259(12) 0.2535(2)
H6 H 0.3431 0.6646 0.2821
C12 C 0.4423(3) 0.49960(12) 0.1725(3)
H7 H 0.4679 0.4577 0.1444
C13 C -0.1126(3) 0.56888(14) -0.3308(2)
H8 H -0.2108 0.5438 -0.3685
C14 C -0.0243(4) 0.58300(14) -0.4086(3)
H9 H -0.0631 0.5688 -0.5007
C15 C 0.3692(5) 0.66952(15) -0.3777(3)
H10 H 0.4295 0.6806 -0.4326
C16 C -0.0724(3) 0.71963(13) 0.0602(3)
H11 H -0.0378 0.7552 0.0188
C17 C 0.2239(5) 0.63608(15) -0.4340(3)
H12 H 0.1853 0.6236 -0.5272
C18 C -0.1820(3) 0.61572(18) 0.1788(3)
H13 H -0.2195 0.5801 0.2183
C19 C 0.5240(3) 0.52043(14) 0.3061(3)
H14 H 0.6047 0.4929 0.3693
C20 C 0.4312(4) 0.68797(13) -0.2374(3)
H15 H 0.5338 0.7100 -0.1989
C21 C 0.4863(3) 0.58228(14) 0.3468(3)
H16 H 0.5417 0.5969 0.4378
C22 C -0.1991(4) 0.73018(19) 0.1083(4)
H17 H -0.2471 0.7729 0.1012
C23 C -0.2545(4) 0.6783(2) 0.1663(4)
H18 H -0.3413 0.6854 0.1973
loop_
_geom_bond_atom_site_label_1
_geom_bond_atom_site_label_2
_geom_bond_site_symmetry_1
_geom_bond_site_symmetry_2
C1 H1 1_555 1_555
C2 C1 1_555 1_555
C3 C1 1_555 1_555
C4 C2 1_555 1_555
H2 C4 1_555 1_555
C5 C3 1_555 1_555
C6 C5 1_555 1_555
C7 C1 1_555 1_555
C8 C3 1_555 1_555
H3 C8 1_555 1_555
C9 C7 1_555 1_555
H4 C9 1_555 1_555
C10 C5 1_555 1_555
H5 C10 1_555 1_555
C11 C2 1_555 1_555
H6 C11 1_555 1_555
C12 C4 1_555 1_555
H7 C12 1_555 1_555
C13 C8 1_555 1_555
H8 C13 1_555 1_555
C14 C6 1_555 1_555
H9 C14 1_555 1_555
C15 H10 1_555 1_555
C16 C7 1_555 1_555
H11 C16 1_555 1_555
C17 C6 1_555 1_555
H12 C17 1_555 1_555
C18 C9 1_555 1_555
H13 C18 1_555 1_555
C19 C12 1_555 1_555
H14 C19 1_555 1_555
C20 C10 1_555 1_555
H15 C20 1_555 1_555
C21 C11 1_555 1_555
H16 C21 1_555 1_555
C22 C16 1_555 1_555
H17 C22 1_555 1_555
C23 C18 1_555 1_555
H18 C23 1_555 1_555
C13 C14 1_555 1_555
C15 C17 1_555 1_555
C15 C20 1_555 1_555
C19 C21 1_555 1_555
C22 C23 1_555 1_555

#END
