
#######################################################################
#
#                 Cambridge Crystallographic Data Centre
#                                CCDC 
#
#######################################################################
#
# If this CIF has been generated from an entry in the Cambridge 
# Structural Database, then it will include bibliographic, chemical, 
# crystal, experimental, refinement or atomic coordinate data resulting 
# from the CCDC's data processing and validation procedures.
#
#######################################################################

data_IHUVOY01
_chemical_formula_moiety         'C16 H16 Br1 N1 O2'
_chemical_name_systematic        
3a-bromo-3a,4,5,7,12b,12c-hexahydro-3H-[1,3]dioxolo[4,5-j]pyrrolo[3,2,1-de]phenanthridine
_symmetry_cell_setting           triclinic
_symmetry_space_group_name_H-M   'P -1'
_symmetry_Int_Tables_number      2
_space_group_name_Hall           '-P 1'
loop_
_symmetry_equiv_pos_site_id
_symmetry_equiv_pos_as_xyz
1 x,y,z
2 -x,-y,-z
_cell_length_a                   7.7674(11)
_cell_length_b                   9.4798(13)
_cell_length_c                   9.7608(14)
_cell_angle_alpha                103.452(2)
_cell_angle_beta                 95.382(2)
_cell_angle_gamma                93.343(2)
_cell_volume                     693.534
_exptl_crystal_colour            colorless
_exptl_crystal_description       block
_cell_formula_units_Z            2
loop_
_atom_site_label
_atom_site_type_symbol
_atom_site_fract_x
_atom_site_fract_y
_atom_site_fract_z
Br1 Br 0.47218(4) 0.24340(4) 0.49852(4)
O1 O 1.2054(3) 0.7730(3) 0.1265(3)
O2 O 0.9187(3) 0.8267(3) 0.0944(3)
N1 N 0.9166(3) 0.2382(3) 0.3096(2)
C1 C 0.8385(4) 0.4995(3) 0.2343(3)
C2 C 0.7954(4) 0.6209(3) 0.1814(3)
H1 H 0.6812 0.6447 0.1712
C3 C 0.9280(4) 0.7025(3) 0.1456(3)
C4 C 1.0922(5) 0.8595(4) 0.0660(4)
H2 H 1.0976 0.8396 -0.0356
H3 H 1.1274 0.9619 0.1061
C5 C 1.0976(4) 0.6698(4) 0.1626(3)
C6 C 1.1424(4) 0.5534(4) 0.2127(3)
H4 H 1.2576 0.5321 0.2229
C7 C 1.0098(4) 0.4660(3) 0.2488(3)
C8 C 1.0628(4) 0.3413(3) 0.3103(3)
H5 H 1.1490 0.2912 0.2560
H6 H 1.1158 0.3793 0.4070
C9 C 0.7686(3) 0.3113(3) 0.3671(3)
H7 H 0.8054 0.3700 0.4633
C10 C 0.6936(4) 0.4082(3) 0.2772(3)
H8 H 0.6271 0.4767 0.3382
C11 C 0.5682(4) 0.3259(4) 0.1545(3)
H9 H 0.5294 0.3747 0.0867
C12 C 0.5092(4) 0.1885(4) 0.1365(4)
H10 H 0.4261 0.1485 0.0602
C13 C 0.5677(4) 0.0940(3) 0.2311(4)
H11 H 0.6493 0.0301 0.1851
H12 H 0.4684 0.0334 0.2440
C14 C 0.6530(4) 0.1778(3) 0.3754(3)
C15 C 0.7811(4) 0.0901(4) 0.4432(4)
H13 H 0.7835 0.1150 0.5456
H14 H 0.7510 -0.0136 0.4079
C16 C 0.9558(4) 0.1350(4) 0.3983(4)
H15 H 1.0366 0.1813 0.4806
H16 H 1.0059 0.0510 0.3447
loop_
_geom_bond_atom_site_label_1
_geom_bond_atom_site_label_2
_geom_bond_site_symmetry_1
_geom_bond_site_symmetry_2
Br1 C14 1_555 1_555
O1 C4 1_555 1_555
O2 C3 1_555 1_555
N1 C8 1_555 1_555
C1 C2 1_555 1_555
C2 H1 1_555 1_555
C3 C2 1_555 1_555
C4 O2 1_555 1_555
H2 C4 1_555 1_555
H3 C4 1_555 1_555
C5 O1 1_555 1_555
C6 C5 1_555 1_555
H4 C6 1_555 1_555
C7 C1 1_555 1_555
C8 C7 1_555 1_555
H5 C8 1_555 1_555
H6 C8 1_555 1_555
C9 N1 1_555 1_555
H7 C9 1_555 1_555
C10 C1 1_555 1_555
H8 C10 1_555 1_555
C11 C10 1_555 1_555
H9 C11 1_555 1_555
C12 C11 1_555 1_555
H10 C12 1_555 1_555
C13 C12 1_555 1_555
H11 C13 1_555 1_555
H12 C13 1_555 1_555
C14 C9 1_555 1_555
C15 C14 1_555 1_555
H13 C15 1_555 1_555
H14 C15 1_555 1_555
C16 N1 1_555 1_555
H15 C16 1_555 1_555
H16 C16 1_555 1_555
C3 C5 1_555 1_555
C6 C7 1_555 1_555
C9 C10 1_555 1_555
C13 C14 1_555 1_555
C15 C16 1_555 1_555

#END
