
#######################################################################
#
#                 Cambridge Crystallographic Data Centre
#                                CCDC 
#
#######################################################################
#
# If this CIF has been generated from an entry in the Cambridge 
# Structural Database, then it will include bibliographic, chemical, 
# crystal, experimental, refinement or atomic coordinate data resulting 
# from the CCDC's data processing and validation procedures.
#
#######################################################################

data_IJABUQ
_chemical_formula_moiety         'C14 H16 Li1 N3 O3,H2 O1'
_chemical_name_systematic        
'Aqua-(N,N-di-(2-pyridylmethyl)glycinato)-lithium monohydrate'
_symmetry_cell_setting           monoclinic
_symmetry_space_group_name_H-M   'P 21/c'
_symmetry_Int_Tables_number      14
_space_group_name_Hall           '-P 2ybc'
loop_
_symmetry_equiv_pos_site_id
_symmetry_equiv_pos_as_xyz
1 x,y,z
2 -x,1/2+y,1/2-z
3 -x,-y,-z
4 x,1/2-y,1/2+z
_cell_length_a                   14.5899(3)
_cell_length_b                   10.2672(3)
_cell_length_c                   10.5696(1)
_cell_angle_alpha                90
_cell_angle_beta                 102.672(1)
_cell_angle_gamma                90
_cell_volume                     1544.73
_exptl_crystal_colour            yellow
_exptl_crystal_description       'rectangular rods'
_cell_formula_units_Z            4
loop_
_atom_site_label
_atom_site_type_symbol
_atom_site_fract_x
_atom_site_fract_y
_atom_site_fract_z
Li1 Li 0.2430(2) 0.0010(2) 0.7933(2)
O1 O 0.23432(8) 0.11422(9) 0.94159(10)
O2 O 0.20560(9) 0.11872(10) 1.14016(10)
O3 O 0.20370(10) 0.11223(12) 0.63956(11)
H1 H 0.2006(16) 0.1989(18) 0.6427(21)
H2 H 0.2217(15) 0.1008(22) 0.5648(19)
C1 C 0.22306(10) 0.06122(14) 1.04400(13)
C2 C 0.22855(11) -0.08714(14) 1.05087(13)
H3 H 0.26123(11) -0.11299(14) 1.13728(13)
H4 H 0.16542(11) -0.12251(14) 1.03562(13)
N1 N 0.27718(8) -0.14200(11) 0.95603(10)
C3 C 0.37896(10) -0.13709(15) 0.99936(14)
H5 H 0.40047(10) -0.21484(15) 1.04922(14)
H6 H 0.39610(10) -0.06242(15) 1.05582(14)
C4 C 0.24265(10) -0.27121(13) 0.91080(14)
H7 H 0.23280(10) -0.32237(13) 0.98382(14)
H8 H 0.28946(10) -0.31521(13) 0.87378(14)
N2 N 0.38451(9) -0.05309(12) 0.78751(12)
C5 C 0.42751(10) -0.12744(13) 0.88735(14)
C6 C 0.51348(11) -0.1860(2) 0.8901(2)
H9 H 0.54106(11) -0.2392(2) 0.9592(2)
C7 C 0.55786(12) -0.1648(2) 0.7891(2)
H10 H 0.61515(12) -0.2044(2) 0.7888(2)
C8 C 0.51626(12) -0.0846(2) 0.6896(2)
H11 H 0.54586(12) -0.0658(2) 0.6223(2)
C9 C 0.42940(12) -0.0324(2) 0.6913(2)
H12 H 0.40047(12) 0.0199(2) 0.6222(2)
N3 N 0.13944(9) -0.15436(12) 0.73750(12)
C10 C 0.15173(10) -0.26238(14) 0.81029(13)
C11 C 0.08743(12) -0.3633(2) 0.7913(2)
H13 H 0.09756(12) -0.4368(2) 0.8439(2)
C12 C 0.00822(14) -0.3532(2) 0.6934(2)
H14 H -0.03585(14) -0.4201(2) 0.6787(2)
C13 C -0.00491(12) -0.2435(2) 0.6178(2)
H15 H -0.05790(12) -0.2346(2) 0.5510(2)
C14 C 0.06189(12) -0.1470(2) 0.6428(2)
H16 H 0.05274(12) -0.0728(2) 0.5912(2)
O4 O 0.27204(11) 0.12532(12) 1.41084(12)
H17 H 0.2602(16) 0.2109(19) 1.4177(21)
H18 H 0.2452(15) 0.1074(21) 1.3304(19)
loop_
_geom_bond_atom_site_label_1
_geom_bond_atom_site_label_2
_geom_bond_site_symmetry_1
_geom_bond_site_symmetry_2
Li1 O1 1_555 1_555
O1 C1 1_555 1_555
O2 C1 1_555 1_555
O3 Li1 1_555 1_555
H1 O3 1_555 1_555
H2 O3 1_555 1_555
C1 C2 1_555 1_555
C2 H3 1_555 1_555
H4 C2 1_555 1_555
N1 Li1 1_555 1_555
C3 N1 1_555 1_555
H5 C3 1_555 1_555
H6 C3 1_555 1_555
C4 N1 1_555 1_555
H7 C4 1_555 1_555
H8 C4 1_555 1_555
N2 Li1 1_555 1_555
C5 C3 1_555 1_555
C6 C5 1_555 1_555
H9 C6 1_555 1_555
C7 C6 1_555 1_555
H10 C7 1_555 1_555
C8 C7 1_555 1_555
H11 C8 1_555 1_555
C9 N2 1_555 1_555
H12 C9 1_555 1_555
N3 Li1 1_555 1_555
C10 C4 1_555 1_555
C11 C10 1_555 1_555
H13 C11 1_555 1_555
C12 C11 1_555 1_555
H14 C12 1_555 1_555
C13 C12 1_555 1_555
H15 C13 1_555 1_555
C14 N3 1_555 1_555
H16 C14 1_555 1_555
O4 H17 1_555 1_555
H18 O4 1_555 1_555
C2 N1 1_555 1_555
N2 C5 1_555 1_555
C8 C9 1_555 1_555
N3 C10 1_555 1_555
C13 C14 1_555 1_555

#END
