
#######################################################################
#
#                 Cambridge Crystallographic Data Centre
#                                CCDC 
#
#######################################################################
#
# If this CIF has been generated from an entry in the Cambridge 
# Structural Database, then it will include bibliographic, chemical, 
# crystal, experimental, refinement or atomic coordinate data resulting 
# from the CCDC's data processing and validation procedures.
#
#######################################################################

data_IJACAZ
_chemical_formula_moiety         'C18 H14 N2 O1'
_chemical_name_systematic        
4-(3-(2-cyanoethyl)-3-phenyloxiran-2-yl)benzonitrile
_symmetry_cell_setting           monoclinic
_symmetry_space_group_name_H-M   'P 21/c'
_symmetry_Int_Tables_number      14
_space_group_name_Hall           '-P 2ybc'
loop_
_symmetry_equiv_pos_site_id
_symmetry_equiv_pos_as_xyz
1 x,y,z
2 -x,1/2+y,1/2-z
3 -x,-y,-z
4 x,1/2-y,1/2+z
_cell_length_a                   17.283(2)
_cell_length_b                   5.7200(4)
_cell_length_c                   16.0086(18)
_cell_angle_alpha                90
_cell_angle_beta                 115.367(8)
_cell_angle_gamma                90
_cell_volume                     1430
_exptl_crystal_colour            colorless
_exptl_crystal_description       prism
_cell_formula_units_Z            4
loop_
_atom_site_label
_atom_site_type_symbol
_atom_site_fract_x
_atom_site_fract_y
_atom_site_fract_z
O1 O 0.25850(7) 0.31472(17) 0.50180(7)
N1 N 0.03901(9) 0.4574(2) 0.35654(10)
N2 N 0.45101(9) -0.0816(3) 0.18100(10)
C1 C 0.23210(9) 0.0762(2) 0.50742(9)
C2 C 0.32150(9) 0.1295(2) 0.52437(10)
H1 H 0.3649 0.1222 0.5903
C3 C 0.17266(9) -0.0369(3) 0.41701(9)
H2 H 0.1817 -0.2082 0.4225
H3 H 0.1882 0.0187 0.3677
C4 C 0.07729(9) 0.0134(2) 0.38782(10)
H4 H 0.0430 -0.0754 0.3308
H5 H 0.0613 -0.0426 0.4369
C5 C 0.05590(9) 0.2632(3) 0.37101(10)
C6 C 0.20984(8) 0.0331(2) 0.58703(9)
C7 C 0.16350(9) 0.2002(3) 0.61000(9)
H6 H 0.1495 0.3451 0.5779
C8 C 0.13775(9) 0.1556(3) 0.67974(10)
H7 H 0.1057 0.2692 0.6948
C9 C 0.15898(9) -0.0556(3) 0.72732(10)
H8 H 0.1414 -0.0863 0.7749
C10 C 0.20594(10) -0.2220(3) 0.70512(10)
H9 H 0.2212 -0.3651 0.7384
C11 C 0.23071(9) -0.1794(3) 0.63436(10)
H10 H 0.2617 -0.2946 0.6184
C12 C 0.35430(9) 0.0820(2) 0.45329(9)
C13 C 0.39763(9) -0.1261(3) 0.45534(10)
H11 H 0.4081 -0.2365 0.5033
C14 C 0.42546(9) -0.1720(3) 0.38725(10)
H12 H 0.4544 -0.3138 0.3882
C15 C 0.41036(9) -0.0069(3) 0.31737(10)
C16 C 0.36893(9) 0.2038(3) 0.31612(10)
H13 H 0.3600 0.3166 0.2693
C17 C 0.34093(9) 0.2465(3) 0.38415(10)
H14 H 0.3124 0.3889 0.3836
C18 C 0.43472(9) -0.0528(3) 0.24288(10)
loop_
_geom_bond_atom_site_label_1
_geom_bond_atom_site_label_2
_geom_bond_site_symmetry_1
_geom_bond_site_symmetry_2
O1 C1 1_555 1_555
N1 C5 1_555 1_555
N2 C18 1_555 1_555
C1 C2 1_555 1_555
C2 O1 1_555 1_555
H1 C2 1_555 1_555
C3 C1 1_555 1_555
H2 C3 1_555 1_555
H3 C3 1_555 1_555
C4 C3 1_555 1_555
H4 C4 1_555 1_555
H5 C4 1_555 1_555
C5 C4 1_555 1_555
C6 C1 1_555 1_555
C7 C6 1_555 1_555
H6 C7 1_555 1_555
C8 C7 1_555 1_555
H7 C8 1_555 1_555
C9 C8 1_555 1_555
H8 C9 1_555 1_555
C10 C9 1_555 1_555
H9 C10 1_555 1_555
C11 C6 1_555 1_555
H10 C11 1_555 1_555
C12 C2 1_555 1_555
C13 C12 1_555 1_555
H11 C13 1_555 1_555
C14 C13 1_555 1_555
H12 C14 1_555 1_555
C15 C14 1_555 1_555
C16 C15 1_555 1_555
H13 C16 1_555 1_555
C17 C12 1_555 1_555
H14 C17 1_555 1_555
C18 C15 1_555 1_555
C10 C11 1_555 1_555
C16 C17 1_555 1_555

#END
