
#######################################################################
#
#                 Cambridge Crystallographic Data Centre
#                                CCDC 
#
#######################################################################
#
# If this CIF has been generated from an entry in the Cambridge 
# Structural Database, then it will include bibliographic, chemical, 
# crystal, experimental, refinement or atomic coordinate data resulting 
# from the CCDC's data processing and validation procedures.
#
#######################################################################

data_IJAGUV
_chemical_formula_moiety         'C26 H26 N2 O4 S1'
_chemical_name_systematic        
(2R,5S,7S,1'RS)-7-(Phenyl-N-(p-toluenesulfonyl)aminomethyl)-8-oxo-2-phenyl-1-aza-3-oxabicyclo(3.3.0)octane
_symmetry_cell_setting           orthorhombic
_symmetry_space_group_name_H-M   'P 21 21 21'
_symmetry_Int_Tables_number      19
_space_group_name_Hall           'P 2ac 2ab'
loop_
_symmetry_equiv_pos_site_id
_symmetry_equiv_pos_as_xyz
1 x,y,z
2 1/2+x,1/2-y,-z
3 -x,1/2+y,1/2-z
4 1/2-x,-y,1/2+z
_cell_length_a                   14.089(3)
_cell_length_b                   6.305(2)
_cell_length_c                   25.875(5)
_cell_angle_alpha                90
_cell_angle_beta                 90
_cell_angle_gamma                90
_cell_volume                     2298.51
_exptl_crystal_colour            colorless
_exptl_crystal_description       needle
_cell_formula_units_Z            4
loop_
_atom_site_label
_atom_site_type_symbol
_atom_site_fract_x
_atom_site_fract_y
_atom_site_fract_z
S1 S 1.23069(18) -0.0396(4) 0.26245(9)
O1 O 1.0448(4) 0.6463(8) 0.17667(19)
N1 N 0.9779(4) 0.434(1) 0.1157(2)
O2 O 1.2341(6) -0.2604(13) 0.2695(3)
O3 O 0.8526(4) 0.4593(16) 0.0612(2)
C1 C 1.0160(5) 0.4726(11) 0.1617(2)
C2 C 0.9922(6) 0.6494(15) 0.0365(3)
C3 C 1.1827(6) 0.0427(15) 0.1102(3)
C4 C 1.1822(5) 0.2092(13) 0.1454(2)
N2 N 1.1427(6) 0.0033(12) 0.2230(3)
C5 C 1.2354(6) 0.3903(13) 0.1349(3)
C6 C 1.1296(5) 0.2047(13) 0.1957(3)
C7 C 1.2375(7) 0.0583(17) 0.0668(3)
C8 C 1.0766(7) 0.5506(19) 0.0243(4)
C9 C 1.4957(6) 0.1636(18) 0.1720(3)
C10 C 0.9410(7) 0.2123(15) 0.1115(4)
C11 C 1.0229(6) 0.2680(13) 0.1923(3)
C12 C 0.8418(7) 0.274(2) 0.0924(4)
C13 C 1.4601(7) 0.3063(18) 0.2093(4)
C14 C 1.3362(6) 0.047(2) 0.2281(3)
C15 C 1.0158(7) 0.8953(17) -0.0335(4)
C16 C 1.2902(7) 0.3994(16) 0.0904(3)
C17 C 1.2916(7) 0.2350(18) 0.0562(3)
C18 C 0.9614(7) 0.8217(17) 0.0077(4)
C19 C 0.9302(6) 0.5816(14) 0.0817(3)
C20 C 0.9569(7) 0.1146(14) 0.1630(5)
C21 C 1.1010(7) 0.794(2) -0.0450(4)
C22 C 1.3710(6) -0.0767(18) 0.1930(3)
C23 C 1.3770(9) 0.247(2) 0.2372(3)
C24 C 1.4501(7) -0.0214(14) 0.1654(3)
C25 C 1.1322(8) 0.629(2) -0.0168(4)
C26 C 1.5843(8) 0.225(3) 0.1424(5)
O4 O 1.2283(6) 0.1207(14) 0.2930(6)
H1 H 1.1420 -0.0869 0.1175
H2 H 1.2351 0.5140 0.1604
H3 H 1.1583 0.3180 0.2187
H4 H 1.2381 -0.0639 0.0409
H5 H 1.0998 0.4352 0.0484
H6 H 0.9670 0.1033 0.0876
H7 H 1.0033 0.2672 0.2296
H8 H 0.7992 0.3015 0.1229
H9 H 0.8139 0.1503 0.0723
H10 H 1.4927 0.4477 0.2160
H11 H 0.9967 1.0192 -0.0551
H12 H 1.3298 0.5273 0.0828
H13 H 1.3310 0.2422 0.0239
H14 H 0.8975 0.8870 0.0154
H15 H 0.9123 0.7174 0.1005
H16 H 0.9866 -0.0262 0.1587
H17 H 0.8950 0.1017 0.1816
H18 H 1.1407 0.8394 -0.0763
H19 H 1.3414 -0.2220 0.1865
H20 H 1.3476 0.3475 0.2647
H21 H 1.4733 -0.1256 0.1392
H22 H 1.1943 0.5538 -0.0241
H23 H 1.6006 0.1063 0.1167
H24 H 1.6400 0.2367 0.1668
H25 H 1.5775 0.3589 0.1228
H26 H 1.0955 -0.1144 0.2165
loop_
_geom_bond_atom_site_label_1
_geom_bond_atom_site_label_2
_geom_bond_site_symmetry_1
_geom_bond_site_symmetry_2
S1 O2 1_555 1_555
O1 C1 1_555 1_555
N1 C1 1_555 1_555
O3 C12 1_555 1_555
C1 C11 1_555 1_555
C2 C8 1_555 1_555
C3 C4 1_555 1_555
C4 C5 1_555 1_555
N2 S1 1_555 1_555
C5 C16 1_555 1_555
C6 C4 1_555 1_555
C7 C3 1_555 1_555
C8 C25 1_555 1_555
C9 C13 1_555 1_555
C10 N1 1_555 1_555
C11 C6 1_555 1_555
C12 C10 1_555 1_555
C13 C23 1_555 1_555
C14 S1 1_555 1_555
C15 C18 1_555 1_555
C16 C17 1_555 1_555
C17 C7 1_555 1_555
C18 C2 1_555 1_555
C19 N1 1_555 1_555
C20 C10 1_555 1_555
C21 C15 1_555 1_555
C22 C14 1_555 1_555
C23 C14 1_555 1_555
C24 C9 1_555 1_555
C25 C21 1_555 1_555
C26 C9 1_555 1_555
O4 S1 1_555 1_555
H1 C3 1_555 1_555
H2 C5 1_555 1_555
H3 C6 1_555 1_555
H4 C7 1_555 1_555
H5 C8 1_555 1_555
H6 C10 1_555 1_555
H7 C11 1_555 1_555
H8 C12 1_555 1_555
H9 C12 1_555 1_555
H10 C13 1_555 1_555
H11 C15 1_555 1_555
H12 C16 1_555 1_555
H13 C17 1_555 1_555
H14 C18 1_555 1_555
H15 C19 1_555 1_555
H16 C20 1_555 1_555
H17 C20 1_555 1_555
H18 C21 1_555 1_555
H19 C22 1_555 1_555
H20 C23 1_555 1_555
H21 C24 1_555 1_555
H22 C25 1_555 1_555
H23 C26 1_555 1_555
H24 C26 1_555 1_555
H25 C26 1_555 1_555
H26 N2 1_555 1_555
O3 C19 1_555 1_555
C2 C19 1_555 1_555
N2 C6 1_555 1_555
C11 C20 1_555 1_555
C22 C24 1_555 1_555

#END
