
#######################################################################
#
#                 Cambridge Crystallographic Data Centre
#                                CCDC 
#
#######################################################################
#
# If this CIF has been generated from an entry in the Cambridge 
# Structural Database, then it will include bibliographic, chemical, 
# crystal, experimental, refinement or atomic coordinate data resulting 
# from the CCDC's data processing and validation procedures.
#
#######################################################################

data_IJATUK
_chemical_formula_moiety         'C16 H11 Br1 N2 O1'
_chemical_name_systematic        N-(5-Bromoquinolin-8-yl)benzamide
_symmetry_cell_setting           monoclinic
_symmetry_space_group_name_H-M   'C 2/c'
_symmetry_Int_Tables_number      15
_space_group_name_Hall           '-C 2yn'
loop_
_symmetry_equiv_pos_site_id
_symmetry_equiv_pos_as_xyz
1 x,y,z
2 -x,y,1/2-z
3 1/2+x,1/2+y,z
4 1/2-x,1/2+y,1/2-z
5 -x,-y,-z
6 x,-y,1/2+z
7 1/2-x,1/2-y,-z
8 1/2+x,1/2-y,1/2+z
_cell_length_a                   18.514(5)
_cell_length_b                   9.322(3)
_cell_length_c                   16.573(5)
_cell_angle_alpha                90
_cell_angle_beta                 107.484(3)
_cell_angle_gamma                90
_cell_volume                     2728.15
_exptl_crystal_colour            yellow
_exptl_crystal_description       block
_cell_formula_units_Z            8
loop_
_atom_site_label
_atom_site_type_symbol
_atom_site_fract_x
_atom_site_fract_y
_atom_site_fract_z
Br1 Br 0.09941(2) 0.94902(3) 0.20778(2)
N1 N 0.08349(12) 1.2446(3) -0.07301(14)
O1 O -0.15453(13) 1.4369(3) -0.05081(15)
C1 C 0.14740(15) 1.1826(4) -0.07307(19)
H1 H 0.1682 1.2075 -0.1157
N2 N -0.04643(12) 1.3675(2) -0.07668(14)
H2 H -0.0193 1.3828 -0.1098
C2 C 0.18605(17) 1.0818(4) -0.0131(2)
H3 H 0.2307 1.0406 -0.0166
C3 C 0.15729(16) 1.0449(3) 0.0506(2)
H4 H 0.1826 0.9788 0.0913
C4 C 0.08918(14) 1.1071(3) 0.05446(17)
C5 C 0.05405(16) 1.0788(3) 0.11805(17)
C6 C -0.01143(17) 1.1437(3) 0.11726(18)
H5 H -0.0331 1.1238 0.1599
C7 C -0.04702(16) 1.2406(3) 0.05294(17)
H6 H -0.0925 1.2830 0.0528
C8 C -0.01550(14) 1.2737(3) -0.00981(16)
C9 C 0.05403(14) 1.2071(3) -0.00933(16)
C10 C -0.11371(15) 1.4379(3) -0.09664(18)
C11 C -0.13554(14) 1.5170(3) -0.17871(17)
C12 C -0.18369(15) 1.6327(3) -0.18721(19)
H7 H -0.2011 1.6595 -0.1423
C13 C -0.20628(16) 1.7091(3) -0.2621(2)
H8 H -0.2377 1.7885 -0.2666
C14 C -0.18281(18) 1.6691(4) -0.3300(2)
H9 H -0.1981 1.7211 -0.3801
C15 C -0.13631(19) 1.5510(3) -0.3232(2)
H10 H -0.1211 1.5219 -0.3692
C16 C -0.11246(17) 1.4765(3) -0.24815(19)
H11 H -0.0805 1.3979 -0.2437
loop_
_geom_bond_atom_site_label_1
_geom_bond_atom_site_label_2
_geom_bond_site_symmetry_1
_geom_bond_site_symmetry_2
Br1 C5 1_555 1_555
N1 C1 1_555 1_555
O1 C10 1_555 1_555
C1 H1 1_555 1_555
N2 H2 1_555 1_555
C2 C1 1_555 1_555
H3 C2 1_555 1_555
C3 C2 1_555 1_555
H4 C3 1_555 1_555
C4 C3 1_555 1_555
C5 C4 1_555 1_555
C6 C5 1_555 1_555
H5 C6 1_555 1_555
C7 C6 1_555 1_555
H6 C7 1_555 1_555
C8 N2 1_555 1_555
C9 N1 1_555 1_555
C10 N2 1_555 1_555
C11 C10 1_555 1_555
C12 C11 1_555 1_555
H7 C12 1_555 1_555
C13 C12 1_555 1_555
H8 C13 1_555 1_555
C14 C13 1_555 1_555
H9 C14 1_555 1_555
C15 C14 1_555 1_555
H10 C15 1_555 1_555
C16 C11 1_555 1_555
H11 C16 1_555 1_555
C4 C9 1_555 1_555
C7 C8 1_555 1_555
C8 C9 1_555 1_555
C15 C16 1_555 1_555

#END
