
#######################################################################
#
#                 Cambridge Crystallographic Data Centre
#                                CCDC 
#
#######################################################################
#
# If this CIF has been generated from an entry in the Cambridge 
# Structural Database, then it will include bibliographic, chemical, 
# crystal, experimental, refinement or atomic coordinate data resulting 
# from the CCDC's data processing and validation procedures.
#
#######################################################################

data_IJEBAB
_chemical_formula_moiety         'C14 H10 N4 S2'
_chemical_name_systematic        
1,1'-(2,2'-Bithiene-5,5'-diyl)bis(1H-imidazole)
_symmetry_cell_setting           monoclinic
_symmetry_space_group_name_H-M   'P 21/c'
_symmetry_Int_Tables_number      14
_space_group_name_Hall           '-P 2ybc'
loop_
_symmetry_equiv_pos_site_id
_symmetry_equiv_pos_as_xyz
1 x,y,z
2 -x,1/2+y,1/2-z
3 -x,-y,-z
4 x,1/2-y,1/2+z
_cell_length_a                   3.9135(14)
_cell_length_b                   7.475(3)
_cell_length_c                   22.656(8)
_cell_angle_alpha                90
_cell_angle_beta                 95.447(7)
_cell_angle_gamma                90
_cell_volume                     659.773
_exptl_crystal_colour            yellow
_exptl_crystal_description       block
_cell_formula_units_Z            2
loop_
_atom_site_label
_atom_site_type_symbol
_atom_site_fract_x
_atom_site_fract_y
_atom_site_fract_z
C1 C 0.0977(16) 0.2519(9) 0.3893(2)
C2 C -0.0661(17) 0.4027(9) 0.3698(3)
H1 H -0.1377 0.4256 0.3302
C3 C -0.1156(17) 0.5215(9) 0.4167(3)
H2 H -0.2230 0.6319 0.4110
C4 C 0.0078(15) 0.4600(8) 0.4710(2)
C5 C 0.282(2) 0.1178(10) 0.2983(3)
H3 H 0.2821 0.2237 0.2767
C6 C 0.330(2) -0.1543(10) 0.3221(3)
H4 H 0.3711 -0.2766 0.3200
C7 C 0.2326(19) -0.0688(8) 0.3705(3)
H5 H 0.1941 -0.1197 0.4067
N1 N 0.2023(13) 0.1087(7) 0.3550(2)
N2 N 0.3595(17) -0.0370(8) 0.2771(2)
S1 S 0.1954(4) 0.2505(2) 0.46555(6)
C1B C -0.0977(16) 0.7481(9) 0.6107(2)
C2B C 0.0661(17) 0.5973(9) 0.6302(3)
H1B H 0.1377 0.5744 0.6698
C3B C 0.1156(17) 0.4785(9) 0.5833(3)
H2B H 0.2230 0.3681 0.5890
C4B C -0.0078(15) 0.5400(8) 0.5290(2)
C5B C -0.282(2) 0.8822(10) 0.7017(3)
H3B H -0.2821 0.7763 0.7233
C6B C -0.330(2) 1.1543(10) 0.6779(3)
H4B H -0.3711 1.2766 0.6800
C7B C -0.2326(19) 1.0688(8) 0.6295(3)
H5B H -0.1941 1.1197 0.5933
N1B N -0.2023(13) 0.8913(7) 0.6450(2)
N2B N -0.3595(17) 1.0370(8) 0.7229(2)
S1B S -0.1954(4) 0.7495(2) 0.53445(6)
loop_
_geom_bond_atom_site_label_1
_geom_bond_atom_site_label_2
_geom_bond_site_symmetry_1
_geom_bond_site_symmetry_2
C1 C2 1_555 1_555
C2 H1 1_555 1_555
C3 C2 1_555 1_555
H2 C3 1_555 1_555
C4 C3 1_555 1_555
C5 H3 1_555 1_555
C6 H4 1_555 1_555
C7 C6 1_555 1_555
H5 C7 1_555 1_555
N1 C1 1_555 1_555
N2 C5 1_555 1_555
S1 C1 1_555 1_555
C1B C2B 1_555 1_555
C2B H1B 1_555 1_555
C3B C2B 1_555 1_555
H2B C3B 1_555 1_555
C4B C4 1_555 1_555
C5B H3B 1_555 1_555
C6B H4B 1_555 1_555
C7B C6B 1_555 1_555
H5B C7B 1_555 1_555
N1B C1B 1_555 1_555
N2B C5B 1_555 1_555
S1B C1B 1_555 1_555
C4 S1 1_555 1_555
C5 N1 1_555 1_555
C6 N2 1_555 1_555
C7 N1 1_555 1_555
C3B C4B 1_555 1_555
C4B S1B 1_555 1_555
C5B N1B 1_555 1_555
C6B N2B 1_555 1_555
C7B N1B 1_555 1_555

#END
