
#######################################################################
#
#                 Cambridge Crystallographic Data Centre
#                                CCDC 
#
#######################################################################
#
# If this CIF has been generated from an entry in the Cambridge 
# Structural Database, then it will include bibliographic, chemical, 
# crystal, experimental, refinement or atomic coordinate data resulting 
# from the CCDC's data processing and validation procedures.
#
#######################################################################

data_IJEDIM
_chemical_formula_moiety         'C50 H38 N4,2(C1 H1 Cl3)'
_chemical_name_systematic        
'9,24-di-t-butyl-5,13,20,28-tetraazadodecacyclo[30.6.6.2^7,22^.0^2,31^.0^4,29^.0^6,27^.0^11,46^.0^12,21^.0^14,19^.0^26,45^.0^33,38^.0^39,44^]hexatetraconta-2,4,6,8,10,12(21),13,15,17,19,22,24,26,28,30,33,35,37,39,41,43,45-docosaene chloroform solvate'
_symmetry_cell_setting           triclinic
_symmetry_space_group_name_H-M   'P -1'
_symmetry_Int_Tables_number      2
_space_group_name_Hall           '-P 1'
loop_
_symmetry_equiv_pos_site_id
_symmetry_equiv_pos_as_xyz
1 x,y,z
2 -x,-y,-z
_cell_length_a                   12.189(5)
_cell_length_b                   13.883(6)
_cell_length_c                   14.941(6)
_cell_angle_alpha                65.088(11)
_cell_angle_beta                 78.737(12)
_cell_angle_gamma                75.295(12)
_cell_volume                     2206.67
_exptl_crystal_colour            yellow
_exptl_crystal_description       plate
_cell_formula_units_Z            2
loop_
_atom_site_label
_atom_site_type_symbol
_atom_site_fract_x
_atom_site_fract_y
_atom_site_fract_z
C1 C -0.3666(3) 1.0888(3) 0.4795(3)
C2 C -0.3594(3) 1.1770(3) 0.3880(3)
H1 H -0.2907 1.1770 0.3451
C3 C -0.4498(3) 1.2644(3) 0.3581(3)
C4 C -0.5515(3) 1.2579(3) 0.4198(3)
H2 H -0.6157 1.3144 0.3992
C5 C -0.5627(3) 1.1715(3) 0.5107(3)
C6 C -0.6692(3) 1.1682(3) 0.5765(3)
N1 N -0.7597(3) 1.2449(2) 0.5440(2)
C7 C -0.8565(3) 1.2414(3) 0.6070(3)
C8 C -0.9540(3) 1.3244(3) 0.5784(3)
H3 H -0.9532 1.3801 0.5137
C9 C -1.0489(3) 1.3239(3) 0.6442(3)
C10 C -1.1577(3) 1.4102(3) 0.6302(3)
H4 H -1.1552 1.4712 0.5636
C11 C -1.2541(3) 1.3520(3) 0.6479(3)
C12 C -1.3305(4) 1.3730(4) 0.5820(3)
H5 H -1.3283 1.4318 0.5192
C13 C -1.4108(4) 1.3079(4) 0.6076(4)
H6 H -1.4645 1.3225 0.5630
C14 C -1.4119(4) 1.2216(4) 0.6988(4)
H7 H -1.4660 1.1763 0.7160
C15 C -1.3354(4) 1.2002(4) 0.7654(3)
H8 H -1.3371 1.1407 0.8277
C16 C -1.2567(3) 1.2656(3) 0.7408(3)
C17 C -1.1684(3) 1.4466(3) 0.7143(3)
C18 C -1.1669(3) 1.5498(3) 0.7066(3)
H9 H -1.1626 1.6076 0.6434
C19 C -1.1717(3) 1.5675(3) 0.7923(3)
H10 H -1.1708 1.6377 0.7874
C20 C -1.1777(4) 1.4835(3) 0.8848(3)
H11 H -1.1812 1.4966 0.9429
C21 C -1.1788(3) 1.3804(3) 0.8931(3)
H12 H -1.1829 1.3229 0.9565
C22 C -1.1738(3) 1.3621(3) 0.8081(3)
C23 C -1.1650(3) 1.2529(3) 0.8027(3)
H13 H -1.1688 1.1924 0.8696
C24 C -1.0520(3) 1.2381(3) 0.7401(3)
C25 C -0.9606(3) 1.1565(3) 0.7699(3)
H14 H -0.9645 1.1000 0.8340
C26 C -0.8594(3) 1.1569(3) 0.7041(3)
N2 N -0.7670(3) 1.0791(2) 0.7357(2)
C27 C -0.6727(3) 1.0846(3) 0.6743(3)
C28 C -0.5700(3) 1.0032(3) 0.7089(3)
C29 C -0.5690(3) 0.9304(3) 0.8077(3)
H15 H -0.6368 0.9320 0.8515
C30 C -0.4710(3) 0.8553(3) 0.8441(3)
C31 C -0.3739(3) 0.8537(3) 0.7773(3)
H16 H -0.3068 0.8022 0.8001
C32 C -0.3723(3) 0.9254(3) 0.6781(3)
C33 C -0.2684(3) 0.9237(3) 0.6105(3)
N3 N -0.1759(3) 0.8481(2) 0.6440(2)
C34 C -0.0824(3) 0.8497(3) 0.5787(3)
C35 C 0.0190(4) 0.7738(3) 0.6102(3)
H17 H 0.0204 0.7218 0.6766
C36 C 0.1145(4) 0.7756(3) 0.5450(3)
H18 H 0.1824 0.7250 0.5669
C37 C 0.1146(4) 0.8513(3) 0.4455(3)
H19 H 0.1821 0.8508 0.4012
C38 C 0.0184(3) 0.9248(3) 0.4127(3)
H20 H 0.0187 0.9750 0.3456
C39 C -0.0820(3) 0.9266(3) 0.4783(3)
N4 N -0.1761(3) 1.0022(2) 0.4454(2)
C40 C -0.2668(3) 1.0023(3) 0.5105(3)
C41 C -0.4672(3) 1.0871(3) 0.5431(3)
C42 C -0.4698(3) 1.0037(3) 0.6426(3)
C43 C -0.4364(3) 1.3670(3) 0.2656(3)
C44 C -0.3244(4) 1.3498(4) 0.2011(3)
H21 H -0.3211 1.4150 0.1401
H22 H -0.3210 1.2880 0.1843
H23 H -0.2596 1.3355 0.2378
C45 C -0.4357(5) 1.4566(4) 0.2993(4)
H24 H -0.4231 1.5222 0.2412
H25 H -0.3744 1.4331 0.3421
H26 H -0.5091 1.4718 0.3363
C46 C -0.5333(4) 1.4017(4) 0.2020(3)
H27 H -0.5164 1.4601 0.1385
H28 H -0.6041 1.4275 0.2363
H29 H -0.5421 1.3400 0.1901
C47 C -0.4692(3) 0.7860(3) 0.9557(3)
C48 C -0.4599(4) 0.8593(4) 1.0063(3)
H30 H -0.4590 0.8174 1.0779
H31 H -0.5254 0.9196 0.9938
H32 H -0.3893 0.8878 0.9795
C49 C -0.3672(4) 0.6900(3) 0.9796(3)
H33 H -0.3735 0.6452 1.0508
H34 H -0.2960 0.7175 0.9607
H35 H -0.3672 0.6463 0.9424
C50 C -0.5774(4) 0.7396(3) 1.0004(3)
H36 H -0.5716 0.6935 1.0709
H37 H -0.5867 0.6965 0.9656
H38 H -0.6434 0.7989 0.9936
C52 C 0.1582(10) 0.3839(8) 0.7591(7)
H40 H 0.1022 0.3402 0.7632
Cl4 Cl 0.2947(5) 0.3084(4) 0.7523(6)
Cl5 Cl 0.1307(3) 0.4135(8) 0.8652(3)
Cl6 Cl 0.1406(5) 0.5021(5) 0.6540(5)
C53 C -0.0254(8) 0.8342(7) 0.8571(14)
H41 H -0.0240 0.8513 0.7849
Cl7 Cl -0.1430(3) 0.9203(3) 0.8749(4)
Cl8 Cl -0.0248(2) 0.6994(2) 0.9068(2)
Cl9 Cl 0.1006(6) 0.8693(6) 0.8587(6)
C51? C 0.1257(13) 0.4106(9) 0.7800(8)
H39? H 0.0482 0.3926 0.7925
Cl1? Cl 0.2248(9) 0.2908(3) 0.8213(7)
Cl2? Cl 0.1269(3) 0.4872(5) 0.8474(3)
Cl3? Cl 0.1521(9) 0.4858(8) 0.6553(6)
C54? C -0.0131(12) 0.8147(16) 0.9301(10)
H42? H 0.0150 0.7409 0.9798
Cl10? Cl -0.1083(7) 0.8945(8) 0.9813(6)
Cl11? Cl -0.0833(7) 0.8129(8) 0.8408(5)
Cl12? Cl 0.0965(9) 0.8706(10) 0.8371(9)
loop_
_geom_bond_atom_site_label_1
_geom_bond_atom_site_label_2
_geom_bond_site_symmetry_1
_geom_bond_site_symmetry_2
C1 C2 1_555 1_555
C2 H1 1_555 1_555
C3 C2 1_555 1_555
C4 C3 1_555 1_555
H2 C4 1_555 1_555
C5 C4 1_555 1_555
C6 C5 1_555 1_555
N1 C6 1_555 1_555
C7 N1 1_555 1_555
C8 C7 1_555 1_555
H3 C8 1_555 1_555
C9 C8 1_555 1_555
C10 C9 1_555 1_555
H4 C10 1_555 1_555
C11 C10 1_555 1_555
C12 C11 1_555 1_555
H5 C12 1_555 1_555
C13 C12 1_555 1_555
H6 C13 1_555 1_555
C14 C13 1_555 1_555
H7 C14 1_555 1_555
C15 C14 1_555 1_555
H8 C15 1_555 1_555
C16 C11 1_555 1_555
C17 C10 1_555 1_555
C18 C17 1_555 1_555
H9 C18 1_555 1_555
C19 C18 1_555 1_555
H10 C19 1_555 1_555
C20 C19 1_555 1_555
H11 C20 1_555 1_555
C21 C20 1_555 1_555
H12 C21 1_555 1_555
C22 C17 1_555 1_555
C23 C16 1_555 1_555
H13 C23 1_555 1_555
C24 C9 1_555 1_555
C25 C24 1_555 1_555
H14 C25 1_555 1_555
C26 C7 1_555 1_555
N2 C26 1_555 1_555
C27 C6 1_555 1_555
C28 C27 1_555 1_555
C29 C28 1_555 1_555
H15 C29 1_555 1_555
C30 C29 1_555 1_555
C31 C30 1_555 1_555
H16 C31 1_555 1_555
C32 C31 1_555 1_555
C33 C32 1_555 1_555
N3 C33 1_555 1_555
C34 N3 1_555 1_555
C35 C34 1_555 1_555
H17 C35 1_555 1_555
C36 C35 1_555 1_555
H18 C36 1_555 1_555
C37 C36 1_555 1_555
H19 C37 1_555 1_555
C38 C37 1_555 1_555
H20 C38 1_555 1_555
C39 C34 1_555 1_555
N4 C39 1_555 1_555
C40 C1 1_555 1_555
C41 C1 1_555 1_555
C42 C28 1_555 1_555
C43 C3 1_555 1_555
C44 C43 1_555 1_555
H21 C44 1_555 1_555
H22 C44 1_555 1_555
H23 C44 1_555 1_555
C45 C43 1_555 1_555
H24 C45 1_555 1_555
H25 C45 1_555 1_555
H26 C45 1_555 1_555
C46 C43 1_555 1_555
H27 C46 1_555 1_555
H28 C46 1_555 1_555
H29 C46 1_555 1_555
C47 C30 1_555 1_555
C48 C47 1_555 1_555
H30 C48 1_555 1_555
H31 C48 1_555 1_555
H32 C48 1_555 1_555
C49 C47 1_555 1_555
H33 C49 1_555 1_555
H34 C49 1_555 1_555
H35 C49 1_555 1_555
C50 C47 1_555 1_555
H36 C50 1_555 1_555
H37 C50 1_555 1_555
H38 C50 1_555 1_555
C52 H40 1_555 1_555
Cl4 C52 1_555 1_555
Cl5 C52 1_555 1_555
Cl6 C52 1_555 1_555
C53 H41 1_555 1_555
Cl7 C53 1_555 1_555
Cl8 C53 1_555 1_555
Cl9 C53 1_555 1_555
C5 C41 1_555 1_555
C15 C16 1_555 1_555
C21 C22 1_555 1_555
C22 C23 1_555 1_555
C23 C24 1_555 1_555
C25 C26 1_555 1_555
N2 C27 1_555 1_555
C32 C42 1_555 1_555
C33 C40 1_555 1_555
C38 C39 1_555 1_555
N4 C40 1_555 1_555
C41 C42 1_555 1_555

#END
