
#######################################################################
#
#                 Cambridge Crystallographic Data Centre
#                                CCDC 
#
#######################################################################
#
# If this CIF has been generated from an entry in the Cambridge 
# Structural Database, then it will include bibliographic, chemical, 
# crystal, experimental, refinement or atomic coordinate data resulting 
# from the CCDC's data processing and validation procedures.
#
#######################################################################

data_IJEJIR
_chemical_formula_moiety         'C11 H12 N2 O9,1.5(H2 O1)'
_chemical_name_systematic        
'(2-Hydroxy-4-(2-hydroxy-3-nitropropyl)-5-nitrophenoxy)acetic acid sesquihydrate'
_symmetry_cell_setting           monoclinic
_symmetry_space_group_name_H-M   'C c'
_symmetry_Int_Tables_number      9
_space_group_name_Hall           'C -2yc'
loop_
_symmetry_equiv_pos_site_id
_symmetry_equiv_pos_as_xyz
1 x,y,z
2 x,-y,1/2+z
3 1/2+x,1/2+y,z
4 1/2+x,1/2-y,1/2+z
_cell_length_a                   9.6418(5)
_cell_length_b                   17.1916(8)
_cell_length_c                   17.1612(8)
_cell_angle_alpha                90
_cell_angle_beta                 94.665(3)
_cell_angle_gamma                90
_cell_volume                     2835.18
_exptl_crystal_colour            colorless
_exptl_crystal_description       plate
_cell_formula_units_Z            8
loop_
_atom_site_label
_atom_site_type_symbol
_atom_site_fract_x
_atom_site_fract_y
_atom_site_fract_z
C1 C 0.8230(3) 0.9458(2) 0.8427(2)
C2 C 0.7145(3) 0.9973(2) 0.8207(2)
C3 C 0.6176(4) 0.9770(2) 0.7598(2)
H1 H 0.5457 1.0122 0.7425
C4 C 0.6266(3) 0.9045(2) 0.7245(2)
C5 C 0.7293(4) 0.8499(2) 0.7476(2)
C6 C 0.8269(4) 0.8734(2) 0.8074(2)
H2 H 0.8992 0.8383 0.8246
C7 C 0.7439(4) 0.7683(2) 0.7151(2)
H3 H 0.6505 0.7445 0.7057
H4 H 0.7990 0.7360 0.7541
C8 C 0.8158(4) 0.7694(2) 0.6381(2)
H5 H 0.7678 0.8089 0.6026
C9 C 0.8106(4) 0.6912(2) 0.5958(2)
H6 H 0.7130 0.6730 0.5886
H7 H 0.8453 0.6976 0.5435
C10 C 0.5882(3) 1.10805(19) 0.8574(2)
H8 H 0.5095 1.0741 0.8690
H9 H 0.5692 1.1291 0.8039
C11 C 0.6034(4) 1.1737(2) 0.9158(2)
N1 N 0.5164(3) 0.88779(18) 0.66233(19)
N2 N 0.8968(3) 0.63176(17) 0.64106(19)
O1 O 0.9236(3) 0.96334(14) 0.89973(15)
H10 H 0.9233 1.0115 0.9082
O2 O 0.4179(3) 0.93344(16) 0.65355(17)
O3 O 0.5251(3) 0.83015(17) 0.62117(19)
O4 O 0.7145(2) 1.06442(14) 0.86258(15)
O5 O 0.4888(3) 1.21545(15) 0.91426(16)
H11 H 0.5012 1.2533 0.9450
O6 O 0.7090(2) 1.18769(15) 0.95740(15)
O7 O 0.9594(2) 0.79108(13) 0.65120(14)
H12 H 0.9653 0.8392 0.6596
O8 O 1.0075(3) 0.61372(17) 0.6166(2)
O9 O 0.8537(3) 0.60686(15) 0.70132(17)
C12 C 0.7823(3) 0.74037(19) 0.2704(2)
C13 C 0.7687(3) 0.6621(2) 0.2909(2)
C14 C 0.8616(4) 0.6300(2) 0.3476(2)
H13 H 0.8522 0.5773 0.3629
C15 C 0.9695(3) 0.6756(2) 0.3823(2)
C16 C 0.9895(3) 0.7538(2) 0.3617(2)
C17 C 0.8914(4) 0.7843(2) 0.3055(2)
H14 H 0.8995 0.8372 0.2906
C18 C 1.1019(4) 0.8084(2) 0.3953(2)
H15 H 1.1120 0.8520 0.3585
H16 H 1.1917 0.7803 0.4015
C19 C 1.0673(3) 0.84085(19) 0.4749(2)
H17 H 1.0381 0.7960 0.5069
C20 C 1.1872(4) 0.8813(2) 0.5214(2)
H18 H 1.1608 0.8915 0.5751
H19 H 1.2691 0.8464 0.5254
C21 C 0.6566(4) 0.54177(19) 0.2621(2)
H20 H 0.6364 0.5300 0.3165
H21 H 0.7466 0.5176 0.2522
C22 C 0.5419(4) 0.5108(2) 0.2052(2)
N3 N 1.0658(3) 0.63450(17) 0.43871(18)
N4 N 1.2255(3) 0.95585(19) 0.4852(2)
O10 O 0.6934(3) 0.77505(14) 0.21637(15)
H22 H 0.6247 0.7459 0.2056
O11 O 1.0498(3) 0.56426(15) 0.44568(17)
O12 O 1.1582(3) 0.67134(16) 0.47526(16)
O13 O 0.6623(2) 0.62359(13) 0.25052(15)
O14 O 0.5236(3) 0.43621(15) 0.21653(17)
H23 H 0.4558 0.4204 0.1869
O15 O 0.4767(3) 0.54949(14) 0.15615(15)
O16 O 0.9530(3) 0.89433(14) 0.46667(15)
H24 H 0.8777 0.8695 0.4638
O17 O 1.2001(4) 1.01647(18) 0.5162(2)
O18 O 1.2805(3) 0.95119(18) 0.42200(18)
O19 O 0.4951(3) 0.33456(14) 0.00529(15)
H25 H 0.488(5) 0.373(2) -0.026(2)
H26 H 0.429(4) 0.341(3) 0.036(2)
O20 O 0.3269(3) 0.38105(16) 0.12424(16)
H27 H 0.270(4) 0.347(2) 0.140(3)
H28 H 0.276(5) 0.417(2) 0.104(3)
O21 O 0.7200(4) 0.0135(2) 0.0647(2)
H29 H 0.794(4) 0.036(3) 0.046(4)
H30 H 0.644(4) 0.024(3) 0.034(3)
loop_
_geom_bond_atom_site_label_1
_geom_bond_atom_site_label_2
_geom_bond_site_symmetry_1
_geom_bond_site_symmetry_2
C1 C2 1_555 1_555
C2 C3 1_555 1_555
C3 H1 1_555 1_555
C4 C3 1_555 1_555
C5 C4 1_555 1_555
C6 C1 1_555 1_555
H2 C6 1_555 1_555
C7 C5 1_555 1_555
H3 C7 1_555 1_555
H4 C7 1_555 1_555
C8 C7 1_555 1_555
H5 C8 1_555 1_555
C9 C8 1_555 1_555
H6 C9 1_555 1_555
H7 C9 1_555 1_555
C10 H8 1_555 1_555
H9 C10 1_555 1_555
C11 C10 1_555 1_555
N1 C4 1_555 1_555
N2 C9 1_555 1_555
O1 C1 1_555 1_555
H10 O1 1_555 1_555
O2 N1 1_555 1_555
O3 N1 1_555 1_555
O4 C2 1_555 1_555
O5 C11 1_555 1_555
H11 O5 1_555 1_555
O6 C11 1_555 1_555
O7 C8 1_555 1_555
H12 O7 1_555 1_555
O8 N2 1_555 1_555
O9 N2 1_555 1_555
C12 C13 1_555 1_555
C13 C14 1_555 1_555
C14 H13 1_555 1_555
C15 C14 1_555 1_555
C16 C15 1_555 1_555
C17 C12 1_555 1_555
H14 C17 1_555 1_555
C18 C16 1_555 1_555
H15 C18 1_555 1_555
H16 C18 1_555 1_555
C19 C18 1_555 1_555
H17 C19 1_555 1_555
C20 C19 1_555 1_555
H18 C20 1_555 1_555
H19 C20 1_555 1_555
C21 H20 1_555 1_555
H21 C21 1_555 1_555
C22 C21 1_555 1_555
N3 C15 1_555 1_555
N4 C20 1_555 1_555
O10 C12 1_555 1_555
H22 O10 1_555 1_555
O11 N3 1_555 1_555
O12 N3 1_555 1_555
O13 C13 1_555 1_555
O14 C22 1_555 1_555
H23 O14 1_555 1_555
O15 C22 1_555 1_555
O16 C19 1_555 1_555
H24 O16 1_555 1_555
O17 N4 1_555 1_555
O18 N4 1_555 1_555
O19 H25 1_555 1_555
H26 O19 1_555 1_555
O20 H27 1_555 1_555
H28 O20 1_555 1_555
O21 H29 1_555 1_555
H30 O21 1_555 1_555
C5 C6 1_555 1_555
C10 O4 1_555 1_555
C16 C17 1_555 1_555
C21 O13 1_555 1_555

#END
