
#######################################################################
#
#                 Cambridge Crystallographic Data Centre
#                                CCDC 
#
#######################################################################
#
# If this CIF has been generated from an entry in the Cambridge 
# Structural Database, then it will include bibliographic, chemical, 
# crystal, experimental, refinement or atomic coordinate data resulting 
# from the CCDC's data processing and validation procedures.
#
#######################################################################

data_IJEMUF
_chemical_name_common            
'2-(2,2-Dichloroacetylamino)-3-methyl butyric acid hydrate'
_chemical_formula_moiety         'C7 H11 Cl2 N1 O3,0.41(H2 O1)'
_chemical_name_systematic        'N-Dichloroacetyl-DL-valine hydrate'
_symmetry_cell_setting           monoclinic
_symmetry_space_group_name_H-M   'P 21/c'
_symmetry_Int_Tables_number      14
_space_group_name_Hall           '-P 2ybc'
loop_
_symmetry_equiv_pos_site_id
_symmetry_equiv_pos_as_xyz
1 x,y,z
2 x,1/2-y,1/2+z
3 -x,-y,-z
4 -x,1/2+y,1/2-z
_cell_length_a                   9.298(2)
_cell_length_b                   9.0110(10)
_cell_length_c                   13.990(2)
_cell_angle_alpha                90
_cell_angle_beta                 108.070(10)
_cell_angle_gamma                90
_cell_volume                     1114.33
_exptl_crystal_colour            colorless
_exptl_crystal_description       prism
_cell_formula_units_Z            4
_exptl_crystal_recrystallization_method '70% aqueous ethanol'
loop_
_atom_site_label
_atom_site_type_symbol
_atom_site_fract_x
_atom_site_fract_y
_atom_site_fract_z
C1 C 1.0096(3) 0.4937(2) 0.23560(15)
H1 H 1.0378 0.4104 0.2827
C2 C 0.8755(2) 0.5754(2) 0.25229(14)
C3 C 0.7364(2) 0.6161(2) 0.37047(15)
H2 H 0.6974 0.6997 0.3250
C4 C 0.8014(2) 0.6775(2) 0.47481(14)
C5 C 0.6029(3) 0.5107(3) 0.36352(18)
H3 H 0.5276 0.5670 0.3844
C6 C 0.5291(3) 0.4636(3) 0.25586(18)
H4 H 0.4460 0.3983 0.2523
H5 H 0.6018 0.4130 0.2317
H6 H 0.4926 0.5497 0.2151
C7 C 0.6482(3) 0.3819(3) 0.43219(19)
H7 H 0.5618 0.3195 0.4254
H8 H 0.6869 0.4164 0.5003
H9 H 0.7251 0.3263 0.4154
Cl1 Cl 0.96075(7) 0.42561(7) 0.11181(4)
Cl2 Cl 1.16245(7) 0.61549(7) 0.25804(5)
N1 N 0.85305(17) 0.54462(17) 0.33871(11)
H10 H 0.9099 0.4796 0.3776
O1 O 0.80101(17) 0.66421(17) 0.19258(11)
O2 O 0.70716(17) 0.76853(17) 0.49730(11)
H11 H 0.7381 0.7880 0.5575
O3 O 0.92209(17) 0.64560(16) 0.53092(10)
O4 O 0.3307(5) 0.5128(5) 0.0274(3)
H12 H 0.237(8) 0.485(7) 0.032(5)
H13 H 0.313(5) 0.586(6) -0.012(4)
loop_
_geom_bond_atom_site_label_1
_geom_bond_atom_site_label_2
_geom_bond_site_symmetry_1
_geom_bond_site_symmetry_2
C1 H1 1_555 1_555
C2 C1 1_555 1_555
C3 H2 1_555 1_555
C4 C3 1_555 1_555
C5 C3 1_555 1_555
H3 C5 1_555 1_555
C6 C5 1_555 1_555
H4 C6 1_555 1_555
H5 C6 1_555 1_555
H6 C6 1_555 1_555
C7 C5 1_555 1_555
H7 C7 1_555 1_555
H8 C7 1_555 1_555
H9 C7 1_555 1_555
Cl1 C1 1_555 1_555
Cl2 C1 1_555 1_555
N1 C2 1_555 1_555
H10 N1 1_555 1_555
O1 C2 1_555 1_555
O2 C4 1_555 1_555
H11 O2 1_555 1_555
O3 C4 1_555 1_555
O4 H12 1_555 1_555
H13 O4 1_555 1_555
C3 N1 1_555 1_555

#END
