
#######################################################################
#
#                 Cambridge Crystallographic Data Centre
#                                CCDC 
#
#######################################################################
#
# If this CIF has been generated from an entry in the Cambridge 
# Structural Database, then it will include bibliographic, chemical, 
# crystal, experimental, refinement or atomic coordinate data resulting 
# from the CCDC's data processing and validation procedures.
#
#######################################################################

data_IJEPIY
_chemical_formula_moiety         'C16 H11 Cl1 F2 N2 O2'
_chemical_name_systematic        
N-((4-chloropentacyclo[4.2.0.0^2,5^.0^3,8^.0^4,7^]oct-1-yl)carbamoyl)-2,6-difluorobenzamide
_symmetry_cell_setting           monoclinic
_symmetry_space_group_name_H-M   'I 2/a'
_symmetry_Int_Tables_number      15
_space_group_name_Hall           '-I 2ya'
loop_
_symmetry_equiv_pos_site_id
_symmetry_equiv_pos_as_xyz
1 x,y,z
2 1/2-x,y,-z
3 1/2+x,1/2+y,1/2+z
4 -x,1/2+y,1/2-z
5 -x,-y,-z
6 1/2+x,-y,z
7 1/2-x,1/2-y,1/2-z
8 x,1/2-y,1/2+z
_cell_length_a                   20.0309(7)
_cell_length_b                   5.7090(2)
_cell_length_c                   26.3097(9)
_cell_angle_alpha                90
_cell_angle_beta                 107.414(4)
_cell_angle_gamma                90
_cell_volume                     2870.79
_exptl_crystal_colour            colorless
_exptl_crystal_description       prism
_cell_formula_units_Z            8
loop_
_atom_site_label
_atom_site_type_symbol
_atom_site_fract_x
_atom_site_fract_y
_atom_site_fract_z
C1 C 0.60633(11) 0.4717(4) 0.31875(8)
C2 C 0.54673(11) 0.3913(4) 0.34116(8)
H1 H 0.4958 0.4258 0.3249
C3 C 0.59225(10) 0.4685(4) 0.39798(8)
H2 H 0.5747 0.5569 0.4242
C4 C 0.62609(10) 0.2194(4) 0.40717(7)
C5 C 0.68529(10) 0.3019(4) 0.38432(8)
H3 H 0.7363 0.268 0.4004
C6 C 0.63973(11) 0.2248(4) 0.32739(8)
H4 H 0.6572 0.1369 0.301
C7 C 0.58021(11) 0.1418(4) 0.35021(8)
H5 H 0.5541 -0.0093 0.3414
C8 C 0.65175(11) 0.5524(4) 0.37503(8)
H6 H 0.6777 0.704 0.3835
C9 C 0.58316(9) 0.0305(3) 0.47102(7)
C10 C 0.65570(10) -0.1842(4) 0.55044(8)
C11 C 0.64844(10) -0.3403(4) 0.59451(8)
C12 C 0.68989(10) -0.3114(4) 0.64700(8)
C13 C 0.68917(12) -0.4628(4) 0.68749(8)
H7 H 0.7186 -0.4371 0.7227
C14 C 0.64451(12) -0.6532(4) 0.67565(9)
H8 H 0.6435 -0.7601 0.7031
C15 C 0.60127(11) -0.6904(4) 0.62444(9)
H9 H 0.5704 -0.8208 0.6163
C16 C 0.60421(10) -0.5331(4) 0.58557(8)
N1 N 0.63816(8) 0.0863(3) 0.45485(6)
H10 H 0.6807 0.0422 0.4731
N2 N 0.59395(8) -0.1014(3) 0.51745(6)
H11 H 0.5563 -0.1355 0.5266
O1 O 0.71268(7) -0.1401(3) 0.54527(6)
O2 O 0.52306(7) 0.0911(2) 0.44608(5)
F1 F 0.73228(7) -0.1224(2) 0.65892(5)
F2 F 0.56309(7) -0.5717(2) 0.53539(5)
Cl1 Cl 0.59395(4) 0.63554(10) 0.25973(2)
loop_
_geom_bond_atom_site_label_1
_geom_bond_atom_site_label_2
_geom_bond_site_symmetry_1
_geom_bond_site_symmetry_2
C1 C2 1_555 1_555
C2 H1 1_555 1_555
C3 C2 1_555 1_555
H2 C3 1_555 1_555
C4 C3 1_555 1_555
C5 C4 1_555 1_555
H3 C5 1_555 1_555
C6 C1 1_555 1_555
H4 C6 1_555 1_555
C7 C2 1_555 1_555
H5 C7 1_555 1_555
C8 C1 1_555 1_555
H6 C8 1_555 1_555
C9 N1 1_555 1_555
C10 C11 1_555 1_555
C11 C12 1_555 1_555
C12 C13 1_555 1_555
C13 H7 1_555 1_555
C14 C13 1_555 1_555
H8 C14 1_555 1_555
C15 C14 1_555 1_555
H9 C15 1_555 1_555
C16 C11 1_555 1_555
N1 C4 1_555 1_555
H10 N1 1_555 1_555
N2 C9 1_555 1_555
H11 N2 1_555 1_555
O1 C10 1_555 1_555
O2 C9 1_555 1_555
F1 C12 1_555 1_555
F2 C16 1_555 1_555
Cl1 C1 1_555 1_555
C3 C8 1_555 1_555
C4 C7 1_555 1_555
C5 C6 1_555 1_555
C5 C8 1_555 1_555
C6 C7 1_555 1_555
C10 N2 1_555 1_555
C15 C16 1_555 1_555

#END
