
#######################################################################
#
#                 Cambridge Crystallographic Data Centre
#                                CCDC 
#
#######################################################################
#
# If this CIF has been generated from an entry in the Cambridge 
# Structural Database, then it will include bibliographic, chemical, 
# crystal, experimental, refinement or atomic coordinate data resulting 
# from the CCDC's data processing and validation procedures.
#
#######################################################################

data_IJETOI
_chemical_formula_moiety         'C87 H75 N7 O3'
_chemical_name_systematic        
"1,1',1''-(Nitrilotriethane-2,1-diyl)tris(3-(4-(triphenylvinyl)phenyl)urea) unknown solvate"
_symmetry_cell_setting           triclinic
_symmetry_space_group_name_H-M   'P -1'
_symmetry_Int_Tables_number      2
_space_group_name_Hall           '-P 1'
loop_
_symmetry_equiv_pos_site_id
_symmetry_equiv_pos_as_xyz
1 x,y,z
2 -x,-y,-z
_cell_length_a                   13.720(4)
_cell_length_b                   15.939(5)
_cell_length_c                   19.972(6)
_cell_angle_alpha                70.578(7)
_cell_angle_beta                 78.928(7)
_cell_angle_gamma                70.749(7)
_cell_volume                     3871.99
_exptl_crystal_colour            colorless
_exptl_crystal_description       block
_cell_formula_units_Z            2
loop_
_atom_site_label
_atom_site_type_symbol
_atom_site_fract_x
_atom_site_fract_y
_atom_site_fract_z
C1 C 0.6977(4) -0.1893(3) 0.1580(2)
H1 H 0.6807 -0.2195 0.2053
C2 C 0.6255(3) -0.1117(3) 0.1206(3)
C3 C 0.6509(4) -0.0666(3) 0.0499(2)
H2 H 0.6026 -0.0146 0.0249
C4 C 0.7485(4) -0.0991(4) 0.0167(2)
H3 H 0.7655 -0.0689 -0.0306
C5 C 0.8207(3) -0.1767(4) 0.0541(4)
H4 H 0.8860 -0.1985 0.0319
C6 C 0.7953(3) -0.2218(3) 0.1248(4)
H5 H 0.8436 -0.2738 0.1499
C7 C 0.7667(4) 0.5896(3) 0.4144(2)
C8 C 0.8144(3) 0.6516(4) 0.3639(2)
H6 H 0.8792 0.6295 0.3411
C9 C 0.7654(6) 0.7465(4) 0.3475(3)
H7 H 0.7973 0.7879 0.3138
C10 C 0.6686(6) 0.7794(3) 0.3816(4)
H8 H 0.6358 0.8429 0.3706
C11 C 0.6209(4) 0.7174(4) 0.4320(3)
H9 H 0.5561 0.7394 0.4548
C12 C 0.6699(4) 0.6225(4) 0.4484(2)
H10 H 0.6380 0.5810 0.4822
O1 O 0.89728(18) 0.5885(2) 0.03276(13)
O2 O 0.79659(19) 0.3426(2) -0.03138(14)
O3 O 0.4474(2) 0.4222(2) -0.05220(16)
N1 N 0.7485(2) 0.5559(2) -0.15448(16)
N2 N 0.7603(2) 0.6007(2) -0.02161(16)
H11 H 0.7052 0.5839 -0.0168
N3 N 0.7490(2) 0.5596(2) 0.10025(16)
H12 H 0.6863 0.5624 0.0972
N4 N 0.9324(2) 0.3988(2) -0.08961(16)
H13 H 0.9885 0.4092 -0.0858
N5 N 0.9106(2) 0.3513(2) 0.03431(17)
H14 H 0.9655 0.3668 0.0330
N6 N 0.6007(2) 0.4569(3) -0.0801(2)
H15 H 0.6634 0.4396 -0.0692
N7 N 0.5905(2) 0.3213(3) 0.0033(2)
H16 H 0.6511 0.3185 0.0112
C13 C 0.7344(3) 0.6492(3) -0.1486(2)
H17 H 0.6616 0.6770 -0.1363
H18 H 0.7548 0.6881 -0.1945
C14 C 0.7984(3) 0.6466(3) -0.0920(2)
H19 H 0.8706 0.6139 -0.1016
H20 H 0.7944 0.7095 -0.0946
C15 C 0.8076(3) 0.5827(3) 0.0374(2)
C16 C 0.7796(3) 0.5317(3) 0.1699(2)
C17 C 0.8769(3) 0.4761(3) 0.1879(2)
H21 H 0.9278 0.4593 0.1527
C18 C 0.8997(3) 0.4446(3) 0.2589(2)
H22 H 0.9651 0.4048 0.2703
C19 C 0.8289(3) 0.4705(3) 0.3127(2)
C20 C 0.7305(3) 0.5289(3) 0.2934(2)
H23 H 0.6807 0.5482 0.3281
C21 C 0.7063(3) 0.5582(3) 0.2235(2)
H24 H 0.6402 0.5962 0.2121
C22 C 0.8539(3) 0.4349(3) 0.3886(2)
C23 C 0.8204(3) 0.4861(3) 0.4348(2)
C24 C 0.8322(3) 0.4445(4) 0.5135(2)
C25 C 0.8064(4) 0.3639(4) 0.5529(3)
H25 H 0.7813 0.3331 0.5310
C26 C 0.8677(4) 0.4905(4) 0.5488(3)
H26 H 0.8822 0.5461 0.5230
C27 C 0.8816(5) 0.4551(7) 0.6208(4)
H27 H 0.9084 0.4847 0.6428
C28 C 0.8553(5) 0.3763(7) 0.6585(4)
H28 H 0.8622 0.3533 0.7072
C29 C 0.8185(4) 0.3290(4) 0.6267(3)
H29 H 0.8018 0.2747 0.6537
C30 C 0.9247(3) 0.3372(3) 0.4092(2)
C31 C 1.0160(4) 0.3150(4) 0.4399(3)
H30 H 1.0324 0.3613 0.4501
C32 C 0.9033(4) 0.2644(4) 0.3975(2)
H31 H 0.8426 0.2768 0.3772
C33 C 0.9685(5) 0.1732(4) 0.4148(3)
H32 H 0.9507 0.1260 0.4068
C34 C 1.0592(5) 0.1546(5) 0.4436(3)
H33 H 1.1043 0.0947 0.4549
C35 C 1.0828(5) 0.2265(6) 0.4558(3)
H34 H 1.1444 0.2147 0.4749
C36 C 0.8511(3) 0.5230(3) -0.1929(2)
H35 H 0.8963 0.5578 -0.1910
H36 H 0.8424 0.5348 -0.2425
C37 C 0.9020(3) 0.4187(3) -0.1602(2)
H37 H 0.8537 0.3846 -0.1573
H38 H 0.9627 0.3978 -0.1910
C38 C 0.8759(3) 0.3645(3) -0.0299(2)
C39 C 0.8625(3) 0.3142(3) 0.1023(2)
C40 C 0.9214(3) 0.2528(3) 0.1570(2)
H39 H 0.9934 0.2357 0.1490
C41 C 0.7543(3) 0.3414(3) 0.1166(2)
H40 H 0.7133 0.3858 0.0816
C42 C 0.7079(3) 0.3022(3) 0.1829(2)
H41 H 0.6360 0.3196 0.1908
C43 C 0.7663(3) 0.2377(3) 0.2377(2)
C44 C 0.8744(3) 0.2164(3) 0.2238(2)
H42 H 0.9158 0.1769 0.2602
C45 C 0.7132(3) 0.1962(3) 0.3081(2)
C46 C 0.6159(3) 0.2590(3) 0.3316(2)
C47 C 0.5235(4) 0.2357(4) 0.3514(2)
H43 H 0.5222 0.1773 0.3524
C48 C 0.4317(4) 0.2989(5) 0.3701(2)
H44 H 0.3702 0.2825 0.3826
C49 C 0.4324(5) 0.3846(5) 0.3701(3)
H45 H 0.3716 0.4257 0.3834
C50 C 0.5222(5) 0.4102(5) 0.3506(3)
H46 H 0.5225 0.4684 0.3506
C51 C 0.6116(4) 0.3492(4) 0.3310(2)
H47 H 0.6717 0.3679 0.3167
C52 C 0.7039(3) 0.0703(3) 0.4230(3)
C53 C 0.6996(4) 0.1129(4) 0.4736(3)
H48 H 0.7222 0.1655 0.4613
C54 C 0.6609(5) 0.0769(6) 0.5437(3)
H49 H 0.6584 0.1059 0.5776
C55 C 0.6261(6) -0.0014(7) 0.5639(4)
H50 H 0.6001 -0.0242 0.6107
C56 C 0.6306(5) -0.0441(5) 0.5143(4)
H51 H 0.6073 -0.0964 0.5274
C57 C 0.6698(4) -0.0105(4) 0.4438(3)
H52 H 0.6735 -0.0410 0.4106
C58 C 0.7459(3) 0.1050(3) 0.3471(2)
C59 C 0.8252(4) 0.0325(3) 0.3190(3)
C60 C 0.8169(4) 0.0231(4) 0.2527(3)
H53 H 0.7636 0.0653 0.2256
C61 C 0.8853(6) -0.0468(5) 0.2269(4)
H54 H 0.8807 -0.0511 0.1824
C62 C 0.9615(6) -0.1104(5) 0.2699(5)
H55 H 1.0074 -0.1592 0.2540
C63 C 0.9028(4) -0.0344(4) 0.3597(3)
H56 H 0.9078 -0.0314 0.4046
C64 C 0.9718(5) -0.1040(5) 0.3352(4)
H57 H 1.0250 -0.1467 0.3621
C65 C 0.6608(3) 0.5550(3) -0.1879(2)
H58 H 0.6840 0.5047 -0.2096
H59 H 0.6400 0.6128 -0.2254
C66 C 0.5687(3) 0.5430(3) -0.1352(2)
H60 H 0.5425 0.5944 -0.1147
H61 H 0.5138 0.5419 -0.1588
C67 C 0.5412(3) 0.4013(3) -0.0441(2)
C68 C 0.5571(3) 0.2427(3) 0.0411(2)
C69 C 0.4689(3) 0.2266(3) 0.0289(2)
H62 H 0.4270 0.2708 -0.0057
C70 C 0.4433(3) 0.1466(3) 0.0670(3)
H63 H 0.3836 0.1384 0.0579
C71 C 0.5020(4) 0.0786(4) 0.1179(3)
C72 C 0.5902(4) 0.0935(4) 0.1310(3)
H64 H 0.6323 0.0479 0.1648
C73 C 0.6162(4) 0.1738(3) 0.0953(3)
H65 H 0.6736 0.1831 0.1069
C74 C 0.4594(4) -0.0106(5) 0.1612(3)
C75 C 0.3531(4) 0.0137(3) 0.1996(3)
C76 C 0.3319(5) 0.0739(4) 0.2391(3)
H66 H 0.3847 0.0959 0.2433
C77 C 0.2312(8) 0.1046(7) 0.2741(4)
H67 H 0.2158 0.1447 0.3019
C78 C 0.1589(9) 0.0683(9) 0.2625(7)
H68 H 0.0919 0.0876 0.2834
C79 C 0.1741(6) 0.0096(9) 0.2254(6)
H69 H 0.1222 -0.0148 0.2233
C80 C 0.2716(5) -0.0136(5) 0.1898(4)
H70 H 0.2831 -0.0485 0.1583
C81 C 0.5174(5) -0.0857(5) 0.1585(4)
C82 C 0.4722(5) -0.1723(4) 0.1994(4)
C83 C 0.4512(5) -0.2188(5) 0.1572(4)
H71 H 0.4576 -0.1971 0.1077
C84 C 0.4203(6) -0.2986(7) 0.1931(8)
H72 H 0.4047 -0.3305 0.1671
C85 C 0.4129(8) -0.3297(8) 0.2636(8)
H73 H 0.3914 -0.3829 0.2853
C86 C 0.4341(6) -0.2900(7) 0.3045(7)
H74 H 0.4306 -0.3160 0.3537
C87 C 0.4628(5) -0.2060(5) 0.2723(4)
H75 H 0.4749 -0.1747 0.3003
loop_
_geom_bond_atom_site_label_1
_geom_bond_atom_site_label_2
_geom_bond_site_symmetry_1
_geom_bond_site_symmetry_2
C1 H1 1_555 1_555
C2 C1 1_555 1_555
C3 C2 1_555 1_555
H2 C3 1_555 1_555
C4 C3 1_555 1_555
H3 C4 1_555 1_555
C5 C4 1_555 1_555
H4 C5 1_555 1_555
C6 C1 1_555 1_555
H5 C6 1_555 1_555
C7 C8 1_555 1_555
C8 H6 1_555 1_555
C9 C8 1_555 1_555
H7 C9 1_555 1_555
C10 C9 1_555 1_555
H8 C10 1_555 1_555
C11 C10 1_555 1_555
H9 C11 1_555 1_555
C12 C7 1_555 1_555
H10 C12 1_555 1_555
O1 C15 1_555 1_555
O2 C38 1_555 1_555
O3 C67 1_555 1_555
N1 C13 1_555 1_555
N2 H11 1_555 1_555
N3 H12 1_555 1_555
N4 H13 1_555 1_555
N5 H14 1_555 1_555
N6 H15 1_555 1_555
N7 H16 1_555 1_555
C13 H17 1_555 1_555
H18 C13 1_555 1_555
C14 N2 1_555 1_555
H19 C14 1_555 1_555
H20 C14 1_555 1_555
C15 N2 1_555 1_555
C16 N3 1_555 1_555
C17 C16 1_555 1_555
H21 C17 1_555 1_555
C18 C17 1_555 1_555
H22 C18 1_555 1_555
C19 C18 1_555 1_555
C20 C19 1_555 1_555
H23 C20 1_555 1_555
C21 C16 1_555 1_555
H24 C21 1_555 1_555
C22 C19 1_555 1_555
C23 C7 1_555 1_555
C24 C23 1_555 1_555
C25 C24 1_555 1_555
H25 C25 1_555 1_555
C26 C24 1_555 1_555
H26 C26 1_555 1_555
C27 C26 1_555 1_555
H27 C27 1_555 1_555
C28 C27 1_555 1_555
H28 C28 1_555 1_555
C29 C25 1_555 1_555
H29 C29 1_555 1_555
C30 C22 1_555 1_555
C31 C30 1_555 1_555
H30 C31 1_555 1_555
C32 C30 1_555 1_555
H31 C32 1_555 1_555
C33 C32 1_555 1_555
H32 C33 1_555 1_555
C34 C33 1_555 1_555
H33 C34 1_555 1_555
C35 C31 1_555 1_555
H34 C35 1_555 1_555
C36 N1 1_555 1_555
H35 C36 1_555 1_555
H36 C36 1_555 1_555
C37 N4 1_555 1_555
H37 C37 1_555 1_555
H38 C37 1_555 1_555
C38 N4 1_555 1_555
C39 N5 1_555 1_555
C40 C39 1_555 1_555
H39 C40 1_555 1_555
C41 C39 1_555 1_555
H40 C41 1_555 1_555
C42 C41 1_555 1_555
H41 C42 1_555 1_555
C43 C42 1_555 1_555
C44 C40 1_555 1_555
H42 C44 1_555 1_555
C45 C43 1_555 1_555
C46 C45 1_555 1_555
C47 C46 1_555 1_555
H43 C47 1_555 1_555
C48 C47 1_555 1_555
H44 C48 1_555 1_555
C49 C48 1_555 1_555
H45 C49 1_555 1_555
C50 C49 1_555 1_555
H46 C50 1_555 1_555
C51 C46 1_555 1_555
H47 C51 1_555 1_555
C52 C53 1_555 1_555
C53 H48 1_555 1_555
C54 C53 1_555 1_555
H49 C54 1_555 1_555
C55 C54 1_555 1_555
H50 C55 1_555 1_555
C56 C55 1_555 1_555
H51 C56 1_555 1_555
C57 C52 1_555 1_555
H52 C57 1_555 1_555
C58 C45 1_555 1_555
C59 C58 1_555 1_555
C60 C59 1_555 1_555
H53 C60 1_555 1_555
C61 C60 1_555 1_555
H54 C61 1_555 1_555
C62 C61 1_555 1_555
H55 C62 1_555 1_555
C63 C59 1_555 1_555
H56 C63 1_555 1_555
C64 C62 1_555 1_555
H57 C64 1_555 1_555
C65 N1 1_555 1_555
H58 C65 1_555 1_555
H59 C65 1_555 1_555
C66 N6 1_555 1_555
H60 C66 1_555 1_555
H61 C66 1_555 1_555
C67 N6 1_555 1_555
C68 N7 1_555 1_555
C69 C68 1_555 1_555
H62 C69 1_555 1_555
C70 C69 1_555 1_555
H63 C70 1_555 1_555
C71 C70 1_555 1_555
C72 C71 1_555 1_555
H64 C72 1_555 1_555
C73 C68 1_555 1_555
H65 C73 1_555 1_555
C74 C71 1_555 1_555
C75 C74 1_555 1_555
C76 C75 1_555 1_555
H66 C76 1_555 1_555
C77 C76 1_555 1_555
H67 C77 1_555 1_555
C78 C77 1_555 1_555
H68 C78 1_555 1_555
C79 C78 1_555 1_555
H69 C79 1_555 1_555
C80 C75 1_555 1_555
H70 C80 1_555 1_555
C81 C2 1_555 1_555
C82 C81 1_555 1_555
C83 C82 1_555 1_555
H71 C83 1_555 1_555
C84 C83 1_555 1_555
H72 C84 1_555 1_555
C85 C84 1_555 1_555
H73 C85 1_555 1_555
C86 C85 1_555 1_555
H74 C86 1_555 1_555
C87 C82 1_555 1_555
H75 C87 1_555 1_555
C5 C6 1_555 1_555
C11 C12 1_555 1_555
N3 C15 1_555 1_555
N5 C38 1_555 1_555
N7 C67 1_555 1_555
C13 C14 1_555 1_555
C20 C21 1_555 1_555
C22 C23 1_555 1_555
C28 C29 1_555 1_555
C34 C35 1_555 1_555
C36 C37 1_555 1_555
C43 C44 1_555 1_555
C50 C51 1_555 1_555
C52 C58 1_555 1_555
C56 C57 1_555 1_555
C63 C64 1_555 1_555
C65 C66 1_555 1_555
C72 C73 1_555 1_555
C74 C81 1_555 1_555
C79 C80 1_555 1_555
C86 C87 1_555 1_555

#END
