
#######################################################################
#
#                 Cambridge Crystallographic Data Centre
#                                CCDC 
#
#######################################################################
#
# If this CIF has been generated from an entry in the Cambridge 
# Structural Database, then it will include bibliographic, chemical, 
# crystal, experimental, refinement or atomic coordinate data resulting 
# from the CCDC's data processing and validation procedures.
#
#######################################################################

data_IJETEY
_chemical_formula_moiety         'C25 H32 O4'
_chemical_name_systematic        
7-allyl-11-(benzyloxy)-9-hydroxy-2,2,10-trimethyl-13-oxatetracyclo[8.2.1.0^1,3^.0^8,12^]tridecan-6-one
_symmetry_cell_setting           monoclinic
_symmetry_space_group_name_H-M   'P 21/n'
_symmetry_Int_Tables_number      14
_space_group_name_Hall           '-P 2yn'
loop_
_symmetry_equiv_pos_site_id
_symmetry_equiv_pos_as_xyz
1 x,y,z
2 1/2-x,1/2+y,1/2-z
3 -x,-y,-z
4 1/2+x,1/2-y,1/2+z
_cell_length_a                   16.4740(9)
_cell_length_b                   7.9351(5)
_cell_length_c                   17.6499(12)
_cell_angle_alpha                90
_cell_angle_beta                 94.295(2)
_cell_angle_gamma                90
_cell_volume                     2300.77
_exptl_crystal_colour            colorless
_cell_formula_units_Z            4
_exptl_crystal_recrystallization_method dichloromethane/hexanes
loop_
_atom_site_label
_atom_site_type_symbol
_atom_site_fract_x
_atom_site_fract_y
_atom_site_fract_z
C1 C 0.10202(16) 1.0284(4) 0.13928(15)
H1 H 0.0663 1.1230 0.1238
C2 C 0.05153(16) 0.8967(4) 0.17874(15)
H2 H 0.0895 0.8214 0.2076
C3 C 0.00012(17) 0.7901(5) 0.12230(17)
C4 C 0.01815(19) 0.6066(4) 0.11813(18)
H3 H -0.0308 0.5460 0.1004
H4 H 0.0359 0.5648 0.1683
C5 C 0.08470(18) 0.5765(4) 0.06386(18)
H5 H 0.0868 0.4567 0.0532
H6 H 0.0691 0.6334 0.0163
C6 C 0.16934(16) 0.6343(4) 0.09135(16)
H7 H 0.1937 0.5703 0.1348
C7 C 0.19632(15) 0.8147(3) 0.08942(14)
C8 C 0.14506(16) 0.9675(4) 0.06879(15)
H8 H 0.1102 0.9587 0.0215
C9 C 0.21345(16) 1.0996(4) 0.06864(15)
H9 H 0.1911 1.2140 0.0650
C10 C 0.24674(16) 1.0607(3) 0.14883(15)
C11 C 0.17333(17) 1.0967(3) 0.19354(15)
H10 H 0.1772 1.0324 0.2411
C12 C -0.0015(2) 0.9828(5) 0.2352(2)
H11 H 0.0323 1.0580 0.2673
H12 H -0.0424 1.0508 0.2071
C13 C -0.0432(3) 0.8631(6) 0.2845(3)
H13 H -0.0585 0.7635 0.2596
C14 C -0.0602(7) 0.8658(9) 0.3445(5)
H14 H -0.0477 0.9596 0.3748
H15 H -0.0868 0.7743 0.3643
C15 C 0.23006(18) 0.6907(4) 0.03546(16)
C16 C 0.2052(2) 0.7015(4) -0.04897(17)
H16 H 0.1525 0.7531 -0.0564
H17 H 0.2031 0.5903 -0.0704
H18 H 0.2442 0.7681 -0.0735
C17 C 0.31814(19) 0.6374(4) 0.0520(2)
H19 H 0.3533 0.7189 0.0311
H20 H 0.3265 0.5293 0.0295
H21 H 0.3304 0.6304 0.1060
C18 C 0.32753(17) 1.1342(4) 0.17588(18)
H22 H 0.3439 1.0909 0.2255
H23 H 0.3231 1.2547 0.1783
H24 H 0.3673 1.1041 0.1412
C19 C 0.2541(2) 1.1548(5) -0.05399(18)
H25 H 0.2428 1.2730 -0.0457
H26 H 0.2060 1.1041 -0.0797
C20 C 0.3246(2) 1.1383(4) -0.10257(19)
C21 C 0.4027(3) 1.1391(6) -0.0730(3)
H27 H 0.4129 1.1474 -0.0206
C22 C 0.4672(3) 1.1283(7) -0.1171(4)
H28 H 0.5201 1.1284 -0.0948
C23 C 0.4538(4) 1.1177(6) -0.1920(4)
H29 H 0.4980 1.1140 -0.2218
C24 C 0.3791(4) 1.1124(7) -0.2253(3)
H30 H 0.3708 1.1018 -0.2778
C25 C 0.3120(3) 1.1231(6) -0.1795(3)
H31 H 0.2592 1.1197 -0.2021
O1 O -0.05251(13) 0.8556(4) 0.08020(15)
O2 O 0.25238(10) 0.8751(2) 0.15049(10)
O3 O 0.16128(14) 1.2708(2) 0.20891(12)
H32 H 0.1909 1.2989 0.2462
O4 O 0.27222(11) 1.0749(3) 0.01563(11)
loop_
_geom_bond_atom_site_label_1
_geom_bond_atom_site_label_2
_geom_bond_site_symmetry_1
_geom_bond_site_symmetry_2
C1 H1 1_555 1_555
C2 C1 1_555 1_555
H2 C2 1_555 1_555
C3 C2 1_555 1_555
C4 C3 1_555 1_555
H3 C4 1_555 1_555
H4 C4 1_555 1_555
C5 C4 1_555 1_555
H5 C5 1_555 1_555
H6 C5 1_555 1_555
C6 C5 1_555 1_555
H7 C6 1_555 1_555
C7 C6 1_555 1_555
C8 C1 1_555 1_555
H8 C8 1_555 1_555
C9 C8 1_555 1_555
H9 C9 1_555 1_555
C10 C9 1_555 1_555
C11 C1 1_555 1_555
H10 C11 1_555 1_555
C12 C2 1_555 1_555
H11 C12 1_555 1_555
H12 C12 1_555 1_555
C13 C12 1_555 1_555
H13 C13 1_555 1_555
C14 C13 1_555 1_555
H14 C14 1_555 1_555
H15 C14 1_555 1_555
C15 C6 1_555 1_555
C16 C15 1_555 1_555
H16 C16 1_555 1_555
H17 C16 1_555 1_555
H18 C16 1_555 1_555
C17 C15 1_555 1_555
H19 C17 1_555 1_555
H20 C17 1_555 1_555
H21 C17 1_555 1_555
C18 C10 1_555 1_555
H22 C18 1_555 1_555
H23 C18 1_555 1_555
H24 C18 1_555 1_555
C19 H25 1_555 1_555
H26 C19 1_555 1_555
C20 C19 1_555 1_555
C21 C20 1_555 1_555
H27 C21 1_555 1_555
C22 C21 1_555 1_555
H28 C22 1_555 1_555
C23 C22 1_555 1_555
H29 C23 1_555 1_555
C24 C23 1_555 1_555
H30 C24 1_555 1_555
C25 C20 1_555 1_555
H31 C25 1_555 1_555
O1 C3 1_555 1_555
O2 C7 1_555 1_555
O3 C11 1_555 1_555
H32 O3 1_555 1_555
O4 C9 1_555 1_555
C7 C8 1_555 1_555
C7 C15 1_555 1_555
C10 C11 1_555 1_555
C10 O2 1_555 1_555
C19 O4 1_555 1_555
C24 C25 1_555 1_555

#END
