
#######################################################################
#
#                 Cambridge Crystallographic Data Centre
#                                CCDC 
#
#######################################################################
#
# If this CIF has been generated from an entry in the Cambridge 
# Structural Database, then it will include bibliographic, chemical, 
# crystal, experimental, refinement or atomic coordinate data resulting 
# from the CCDC's data processing and validation procedures.
#
#######################################################################

data_IJEVAW
_chemical_formula_moiety         
'C87 H75 N7 O3,C4 H10 O1,H1 O4 P1 2-,2(C8 H20 N1 1+),C3 H7 N1 O1'
_chemical_name_systematic        
"1,1',1''-(Nitrilotriethane-2,1-diyl)tris(3-(4-(triphenylvinyl)phenyl)urea) bis(tetraethylammonium) hydrogen phosphate diethyl ether dimethylformamide solvate"
_symmetry_cell_setting           triclinic
_symmetry_space_group_name_H-M   'P -1'
_symmetry_Int_Tables_number      2
_space_group_name_Hall           '-P 1'
loop_
_symmetry_equiv_pos_site_id
_symmetry_equiv_pos_as_xyz
1 x,y,z
2 -x,-y,-z
_cell_length_a                   17.001(3)
_cell_length_b                   17.176(3)
_cell_length_c                   18.944(4)
_cell_angle_alpha                82.554(3)
_cell_angle_beta                 84.382(3)
_cell_angle_gamma                84.457(3)
_cell_volume                     5439.06
_exptl_crystal_colour            yellow
_exptl_crystal_description       block
_cell_formula_units_Z            2
loop_
_atom_site_label
_atom_site_type_symbol
_atom_site_fract_x
_atom_site_fract_y
_atom_site_fract_z
C1 C 0.2271(4) 0.6167(3) 0.3277(4)
H1 H 0.2183 0.5783 0.2951
H2 H 0.1930 0.6051 0.3726
C2 C 0.3121(4) 0.6075(3) 0.3436(4)
H3 H 0.3279 0.5508 0.3563
H4 H 0.3450 0.6260 0.2997
C3 C 0.3206(3) 0.6186(3) 0.4707(3)
C4 C 0.3283(3) 0.6566(3) 0.5935(3)
C5 C 0.3097(4) 0.5862(3) 0.6361(4)
H5 H 0.3001 0.5414 0.6147
C6 C 0.3058(4) 0.5835(4) 0.7091(4)
H6 H 0.2918 0.5359 0.7368
C7 C 0.3204(4) 0.6445(4) 0.7452(4)
C8 C 0.3379(4) 0.7128(3) 0.7007(3)
H7 H 0.3466 0.7579 0.7222
C9 C 0.3157(4) 0.6451(4) 0.8291(4)
C10 C 0.3493(4) 0.5845(4) 0.8692(4)
C11 C 0.3958(4) 0.5199(3) 0.8361(3)
C12 C 0.4611(4) 0.5251(3) 0.7871(3)
H8 H 0.4750 0.5762 0.7676
C13 C 0.5058(4) 0.4636(4) 0.7654(4)
H9 H 0.5507 0.4718 0.7323
C14 C 0.4888(5) 0.3924(5) 0.7891(5)
H10 H 0.5172 0.3495 0.7682
C15 C 0.4324(6) 0.3777(4) 0.8419(5)
H11 H 0.4256 0.3249 0.8620
C16 C 0.3816(4) 0.4415(5) 0.8687(4)
H12 H 0.3408 0.4323 0.9060
C17 C 0.3450(4) 0.5838(5) 0.9485(4)
C18 C 0.4155(5) 0.5707(7) 0.9837(5)
H13 H 0.4651 0.5627 0.9567
C19 C 0.4129(7) 0.5694(8) 1.0570(5)
H14 H 0.4608 0.5613 1.0799
C20 C 0.3459(7) 0.5791(6) 1.0949(5)
H15 H 0.3449 0.5798 1.1450
C21 C 0.2789(5) 0.5881(4) 1.0639(4)
H16 H 0.2302 0.5921 1.0930
C22 C 0.2766(4) 0.5919(4) 0.9911(3)
H17 H 0.2271 0.6001 0.9708
C23 C 0.2709(4) 0.7201(3) 0.8547(3)
C24 C 0.3038(6) 0.7568(5) 0.9057(4)
H18 H 0.3536 0.7343 0.9207
C25 C 0.2721(6) 0.8196(5) 0.9346(5)
H19 H 0.2955 0.8409 0.9706
C26 C 0.1996(6) 0.8525(5) 0.9072(7)
H20 H 0.1755 0.8997 0.9239
C27 C 0.1630(7) 0.8213(7) 0.8591(6)
H21 H 0.1137 0.8448 0.8436
C28 C 0.2025(5) 0.7479(5) 0.8308(5)
H22 H 0.1790 0.7229 0.7972
C29 C 0.1266(3) 0.7299(3) 0.3224(3)
H23 H 0.0899 0.6876 0.3315
H24 H 0.1047 0.7713 0.2865
C30 C 0.1324(4) 0.7642(3) 0.3906(3)
H25 H 0.0783 0.7798 0.4113
H26 H 0.1572 0.7233 0.4253
C31 C 0.1447(3) 0.9026(3) 0.3525(3)
C32 C 0.1775(3) 1.0409(3) 0.3174(3)
C33 C 0.1075(4) 1.0701(3) 0.2869(3)
H27 H 0.0700 1.0353 0.2790
C34 C 0.0936(4) 1.1500(4) 0.2684(3)
H28 H 0.0463 1.1691 0.2467
C35 C 0.1443(5) 1.2035(3) 0.2797(3)
C36 C 0.2140(4) 1.1737(3) 0.3062(3)
H29 H 0.2527 1.2087 0.3109
C37 C 0.2305(3) 1.0934(3) 0.3267(3)
H30 H 0.2787 1.0749 0.3472
C38 C 0.1112(7) 1.2938(6) 0.2679(4)
C39 C 0.1462(6) 1.3453(5) 0.2312(5)
C40 C 0.2235(4) 1.3261(4) 0.1913(4)
C41 C 0.2397(6) 1.2715(5) 0.1439(4)
H31 H 0.2004 1.2351 0.1474
C42 C 0.2969(7) 1.2589(7) 0.0954(5)
H32 H 0.2984 1.2205 0.0632
C43 C 0.3511(6) 1.3050(6) 0.0967(5)
H33 H 0.3971 1.2939 0.0657
C44 C 0.3564(4) 1.3675(5) 0.1340(5)
H34 H 0.3990 1.4005 0.1266
C45 C 0.2816(5) 1.3776(5) 0.1916(7)
H35 H 0.2774 1.4162 0.2237
C46 C 0.0276(3) 1.3068(4) 0.3126(3)
C47 C 0.0271(5) 1.2812(7) 0.3844(4)
H36 H 0.0701 1.2513 0.4063
C48 C -0.0480(10) 1.3057(11) 0.4230(7)
H37 H -0.0539 1.2954 0.4737
C49 C -0.1123(7) 1.3446(12) 0.3861(12)
H38 H -0.1613 1.3567 0.4126
C50 C -0.1065(7) 1.3643(7) 0.3174(8)
H39 H -0.1471 1.3958 0.2934
C51 C -0.0406(4) 1.3375(6) 0.2836(5)
H40 H -0.0402 1.3397 0.2332
C52 C 0.1068(5) 1.4288(4) 0.2290(4)
C53 C 0.0819(7) 1.4685(4) 0.2852(5)
H41 H 0.0876 1.4421 0.3320
C54 C 0.0491(6) 1.5443(6) 0.2786(8)
H42 H 0.0334 1.5694 0.3202
C55 C 0.0396(5) 1.5808(6) 0.2191(8)
H43 H 0.0111 1.6313 0.2166
C56 C 0.0683(5) 1.5520(6) 0.1563(6)
H44 H 0.0646 1.5830 0.1112
C57 C 0.1059(4) 1.4686(6) 0.1629(5)
H45 H 0.1281 1.4450 0.1220
C58 C 0.2172(4) 0.7075(4) 0.2178(3)
H46 H 0.1694 0.6942 0.1975
H47 H 0.2621 0.6702 0.2031
C59 C 0.2353(3) 0.7913(4) 0.1872(3)
H48 H 0.2407 0.7959 0.1343
H49 H 0.1909 0.8291 0.2020
C60 C 0.3759(3) 0.8139(3) 0.1709(3)
C61 C 0.5197(3) 0.8276(3) 0.1789(3)
C62 C 0.5450(3) 0.8274(3) 0.1063(3)
H50 H 0.5084 0.8207 0.0732
C63 C 0.6237(3) 0.8370(3) 0.0832(3)
H51 H 0.6400 0.8367 0.0338
C64 C 0.6798(3) 0.8470(3) 0.1291(3)
C65 C 0.6520(3) 0.8491(3) 0.2011(3)
H52 H 0.6882 0.8571 0.2341
C66 C 0.5747(3) 0.8399(3) 0.2251(3)
H53 H 0.5582 0.8420 0.2742
C67 C 0.7640(3) 0.8537(3) 0.1024(3)
C68 C 0.8263(3) 0.8203(3) 0.1365(3)
C69 C 0.8203(3) 0.7566(3) 0.1989(3)
C70 C 0.7708(4) 0.6967(3) 0.2004(3)
H54 H 0.7381 0.6964 0.1625
C71 C 0.7692(5) 0.6364(4) 0.2580(4)
H55 H 0.7351 0.5954 0.2594
C72 C 0.8167(5) 0.6368(4) 0.3123(4)
H56 H 0.8158 0.5953 0.3507
C73 C 0.8647(4) 0.6947(4) 0.3125(4)
H57 H 0.8966 0.6949 0.3509
C74 C 0.8667(4) 0.7551(4) 0.2543(3)
H58 H 0.9011 0.7956 0.2536
C75 C 0.7754(3) 0.9028(3) 0.0298(3)
C76 C 0.7319(3) 0.9739(3) 0.0152(3)
H59 H 0.6969 0.9943 0.0520
C77 C 0.7384(4) 1.0169(3) -0.0534(3)
H60 H 0.7078 1.0657 -0.0631
C78 C 0.7902(4) 0.9867(4) -0.1066(3)
H61 H 0.7949 1.0150 -0.1531
C79 C 0.8347(4) 0.9164(4) -0.0925(3)
H62 H 0.8704 0.8964 -0.1290
C80 C 0.8271(3) 0.8742(3) -0.0244(3)
H63 H 0.8577 0.8253 -0.0148
C81 C 0.9092(3) 0.8411(3) 0.1139(3)
C82 C 0.9277(4) 0.9196(4) 0.1072(3)
H64 H 0.8873 0.9602 0.1163
C83 C 1.0042(4) 0.9378(4) 0.0874(4)
H65 H 1.0161 0.9913 0.0829
C84 C 1.0638(4) 0.8807(5) 0.0741(4)
H66 H 1.1165 0.8943 0.0605
C85 C 1.0465(4) 0.8032(5) 0.0806(4)
H67 H 1.0874 0.7631 0.0713
C86 C 0.9702(3) 0.7836(4) 0.1003(3)
H68 H 0.9590 0.7300 0.1047
C87 C 0.3433(4) 0.7186(3) 0.6275(3)
H69 H 0.3577 0.7662 0.6001
N1 N 0.2043(3) 0.6977(3) 0.2943(2)
N2 N 0.3288(3) 0.6501(3) 0.4009(3)
H70 H 0.3447 0.6978 0.3903
N3 N 0.3352(3) 0.6679(3) 0.5173(3)
H71 H 0.3513 0.7136 0.4976
N4 N 0.1783(3) 0.8320(3) 0.3797(3)
H72 H 0.2278 0.8272 0.3906
N5 N 0.1968(3) 0.9606(3) 0.3395(3)
H73 H 0.2469 0.9460 0.3457
N6 N 0.3079(3) 0.8105(3) 0.2124(2)
H74 H 0.3072 0.8203 0.2569
N7 N 0.4414(2) 0.8165(2) 0.2073(2)
H75 H 0.4334 0.8105 0.2542
O1 O 0.3026(3) 0.5508(2) 0.4888(2)
O2 O 0.0741(2) 0.9132(2) 0.3423(2)
O3 O 0.3795(2) 0.8140(2) 0.1049(2)
C88 C 0.6161(4) 0.7677(3) 0.4594(3)
H76 H 0.5625 0.7848 0.4441
H77 H 0.6240 0.7974 0.4992
C89 C 0.6765(4) 0.7897(4) 0.3979(4)
H78 H 0.7294 0.7677 0.4102
H79 H 0.6756 0.8472 0.3882
H80 H 0.6636 0.7684 0.3552
C90 C 0.6983(4) 0.6516(4) 0.5174(3)
H81 H 0.6986 0.5942 0.5328
H82 H 0.7409 0.6594 0.4784
C91 C 0.7173(5) 0.6910(5) 0.5789(4)
H83 H 0.7049 0.7480 0.5687
H84 H 0.7739 0.6799 0.5858
H85 H 0.6857 0.6709 0.6223
C92 C 0.5500(4) 0.6725(3) 0.5444(3)
H86 H 0.5004 0.6932 0.5227
H87 H 0.5571 0.7055 0.5821
C93 C 0.5413(5) 0.5881(4) 0.5790(5)
H88 H 0.5390 0.5539 0.5418
H89 H 0.4924 0.5865 0.6110
H90 H 0.5869 0.5696 0.6065
C94 C 0.6119(4) 0.6318(3) 0.4297(3)
H91 H 0.6169 0.5755 0.4496
H92 H 0.6568 0.6405 0.3929
C95 C 0.5355(5) 0.6487(5) 0.3941(4)
H93 H 0.4906 0.6403 0.4300
H94 H 0.5350 0.6134 0.3576
H95 H 0.5313 0.7036 0.3718
N8 N 0.6189(3) 0.6802(2) 0.4876(2)
C96 C 0.5137(4) 0.1829(4) 0.1935(4)
H96 H 0.5716 0.1876 0.1868
H97 H 0.4909 0.2096 0.1496
C97 C 0.5363(4) 0.0502(3) 0.2663(3)
H98 H 0.5092 0.0724 0.3089
H99 H 0.5245 -0.0055 0.2703
C98 C 0.6237(4) 0.0520(4) 0.2690(4)
H100 H 0.6520 0.0245 0.2306
H101 H 0.6392 0.0259 0.3153
H102 H 0.6371 0.1068 0.2628
C99 C 0.5377(4) 0.0569(4) 0.1361(3)
H103 H 0.5945 0.0669 0.1295
H104 H 0.5349 -0.0008 0.1466
C100 C 0.5017(6) 0.0843(6) 0.0676(4)
H105 H 0.4438 0.0866 0.0760
H106 H 0.5199 0.0475 0.0328
H107 H 0.5178 0.1368 0.0490
C101 C 0.4117(3) 0.0883(3) 0.2086(3)
H108 H 0.3901 0.1102 0.2530
H109 H 0.3879 0.1219 0.1683
C102 C 0.3855(4) 0.0069(4) 0.2117(3)
H110 H 0.4053 -0.0153 0.1676
H111 H 0.3274 0.0094 0.2169
H112 H 0.4066 -0.0266 0.2526
N9 N 0.5000(3) 0.0946(3) 0.1998(2)
C103 C 0.4806(6) 0.2267(4) 0.2540(5)
H113 H 0.4230 0.2234 0.2613
H114 H 0.4919 0.2821 0.2431
H115 H 0.5049 0.2035 0.2976
C104 C 0.8156(5) 0.6222(5) 0.0220(5)
H116 H 0.8599 0.6405 -0.0110
H117 H 0.7869 0.6671 0.0430
H118 H 0.7796 0.5976 -0.0040
C105 C 0.8473(5) 0.5623(5) 0.0811(5)
H119 H 0.8853 0.5859 0.1067
H120 H 0.8033 0.5448 0.1158
C106 C 0.9131(5) 0.4344(6) 0.0967(5)
H121 H 0.8675 0.4147 0.1282
H122 H 0.9497 0.4535 0.1270
C107 C 0.9555(5) 0.3682(6) 0.0588(5)
H123 H 0.9187 0.3481 0.0303
H124 H 0.9748 0.3257 0.0942
H125 H 1.0004 0.3878 0.0275
O4 O 0.8864(3) 0.4965(4) 0.0476(3)
C108 C 0.3979(7) 0.1449(6) 0.3871(6)
C109 C 0.3363(5) 0.0527(5) 0.4875(5)
C110 C 0.47899(19) 0.04943(18) 0.46117(17)
N10 N 0.4030(5) 0.0682(4) 0.4165(4)
O5 O 0.5354(4) 0.1259(4) 0.4254(3)
O6 O 0.3619(2) 0.8097(2) 0.35233(19)
O7 O 0.4026(2) 0.8116(2) 0.47593(18)
O8 O 0.3347(2) 0.9334(2) 0.4106(2)
O9 O 0.4731(2) 0.8849(2) 0.36883(18)
H126 H 0.4890 0.9173 0.3928
P1 P 0.38909(9) 0.85922(8) 0.40365(7)
O10? O 0.4631(3) 0.0300(2) 0.5525(2)
loop_
_geom_bond_atom_site_label_1
_geom_bond_atom_site_label_2
_geom_bond_site_symmetry_1
_geom_bond_site_symmetry_2
C1 H1 1_555 1_555
H2 C1 1_555 1_555
C2 C1 1_555 1_555
H3 C2 1_555 1_555
H4 C2 1_555 1_555
C3 N2 1_555 1_555
C4 C5 1_555 1_555
C5 H5 1_555 1_555
C6 C5 1_555 1_555
H6 C6 1_555 1_555
C7 C6 1_555 1_555
C8 C7 1_555 1_555
H7 C8 1_555 1_555
C9 C7 1_555 1_555
C10 C9 1_555 1_555
C11 C10 1_555 1_555
C12 C11 1_555 1_555
H8 C12 1_555 1_555
C13 C12 1_555 1_555
H9 C13 1_555 1_555
C14 C13 1_555 1_555
H10 C14 1_555 1_555
C15 C14 1_555 1_555
H11 C15 1_555 1_555
C16 C11 1_555 1_555
H12 C16 1_555 1_555
C17 C10 1_555 1_555
C18 C17 1_555 1_555
H13 C18 1_555 1_555
C19 C18 1_555 1_555
H14 C19 1_555 1_555
C20 C19 1_555 1_555
H15 C20 1_555 1_555
C21 C20 1_555 1_555
H16 C21 1_555 1_555
C22 C17 1_555 1_555
H17 C22 1_555 1_555
C23 C9 1_555 1_555
C24 C23 1_555 1_555
H18 C24 1_555 1_555
C25 C24 1_555 1_555
H19 C25 1_555 1_555
C26 C25 1_555 1_555
H20 C26 1_555 1_555
C27 C26 1_555 1_555
H21 C27 1_555 1_555
C28 C23 1_555 1_555
H22 C28 1_555 1_555
C29 H23 1_555 1_555
H24 C29 1_555 1_555
C30 C29 1_555 1_555
H25 C30 1_555 1_555
H26 C30 1_555 1_555
C31 N4 1_555 1_555
C32 C33 1_555 1_555
C33 H27 1_555 1_555
C34 C33 1_555 1_555
H28 C34 1_555 1_555
C35 C34 1_555 1_555
C36 C35 1_555 1_555
H29 C36 1_555 1_555
C37 C32 1_555 1_555
H30 C37 1_555 1_555
C38 C35 1_555 1_555
C39 C38 1_555 1_555
C40 C39 1_555 1_555
C41 C40 1_555 1_555
H31 C41 1_555 1_555
C42 C41 1_555 1_555
H32 C42 1_555 1_555
C43 C42 1_555 1_555
H33 C43 1_555 1_555
C44 C43 1_555 1_555
H34 C44 1_555 1_555
C45 C40 1_555 1_555
H35 C45 1_555 1_555
C46 C38 1_555 1_555
C47 C46 1_555 1_555
H36 C47 1_555 1_555
C48 C47 1_555 1_555
H37 C48 1_555 1_555
C49 C48 1_555 1_555
H38 C49 1_555 1_555
C50 C49 1_555 1_555
H39 C50 1_555 1_555
C51 C46 1_555 1_555
H40 C51 1_555 1_555
C52 C39 1_555 1_555
C53 C52 1_555 1_555
H41 C53 1_555 1_555
C54 C53 1_555 1_555
H42 C54 1_555 1_555
C55 C54 1_555 1_555
H43 C55 1_555 1_555
C56 C55 1_555 1_555
H44 C56 1_555 1_555
C57 C52 1_555 1_555
H45 C57 1_555 1_555
C58 H46 1_555 1_555
H47 C58 1_555 1_555
C59 C58 1_555 1_555
H48 C59 1_555 1_555
H49 C59 1_555 1_555
C60 N6 1_555 1_555
C61 C62 1_555 1_555
C62 H50 1_555 1_555
C63 C62 1_555 1_555
H51 C63 1_555 1_555
C64 C63 1_555 1_555
C65 C64 1_555 1_555
H52 C65 1_555 1_555
C66 C61 1_555 1_555
H53 C66 1_555 1_555
C67 C64 1_555 1_555
C68 C67 1_555 1_555
C69 C68 1_555 1_555
C70 C69 1_555 1_555
H54 C70 1_555 1_555
C71 C70 1_555 1_555
H55 C71 1_555 1_555
C72 C71 1_555 1_555
H56 C72 1_555 1_555
C73 C72 1_555 1_555
H57 C73 1_555 1_555
C74 C69 1_555 1_555
H58 C74 1_555 1_555
C75 C67 1_555 1_555
C76 C75 1_555 1_555
H59 C76 1_555 1_555
C77 C76 1_555 1_555
H60 C77 1_555 1_555
C78 C77 1_555 1_555
H61 C78 1_555 1_555
C79 C78 1_555 1_555
H62 C79 1_555 1_555
C80 C75 1_555 1_555
H63 C80 1_555 1_555
C81 C68 1_555 1_555
C82 C81 1_555 1_555
H64 C82 1_555 1_555
C83 C82 1_555 1_555
H65 C83 1_555 1_555
C84 C83 1_555 1_555
H66 C84 1_555 1_555
C85 C84 1_555 1_555
H67 C85 1_555 1_555
C86 C81 1_555 1_555
H68 C86 1_555 1_555
C87 C4 1_555 1_555
H69 C87 1_555 1_555
N1 C1 1_555 1_555
N2 C2 1_555 1_555
H70 N2 1_555 1_555
N3 C3 1_555 1_555
H71 N3 1_555 1_555
N4 C30 1_555 1_555
H72 N4 1_555 1_555
N5 C31 1_555 1_555
H73 N5 1_555 1_555
N6 C59 1_555 1_555
H74 N6 1_555 1_555
N7 C60 1_555 1_555
H75 N7 1_555 1_555
O1 C3 1_555 1_555
O2 C31 1_555 1_555
O3 C60 1_555 1_555
C88 H76 1_555 1_555
H77 C88 1_555 1_555
C89 C88 1_555 1_555
H78 C89 1_555 1_555
H79 C89 1_555 1_555
H80 C89 1_555 1_555
C90 H81 1_555 1_555
H82 C90 1_555 1_555
C91 C90 1_555 1_555
H83 C91 1_555 1_555
H84 C91 1_555 1_555
H85 C91 1_555 1_555
C92 H86 1_555 1_555
H87 C92 1_555 1_555
C93 C92 1_555 1_555
H88 C93 1_555 1_555
H89 C93 1_555 1_555
H90 C93 1_555 1_555
C94 H91 1_555 1_555
H92 C94 1_555 1_555
C95 C94 1_555 1_555
H93 C95 1_555 1_555
H94 C95 1_555 1_555
H95 C95 1_555 1_555
N8 C88 1_555 1_555
C96 H96 1_555 1_555
H97 C96 1_555 1_555
C97 H98 1_555 1_555
H99 C97 1_555 1_555
C98 C97 1_555 1_555
H100 C98 1_555 1_555
H101 C98 1_555 1_555
H102 C98 1_555 1_555
C99 H103 1_555 1_555
H104 C99 1_555 1_555
C100 C99 1_555 1_555
H105 C100 1_555 1_555
H106 C100 1_555 1_555
H107 C100 1_555 1_555
C101 H108 1_555 1_555
H109 C101 1_555 1_555
C102 C101 1_555 1_555
H110 C102 1_555 1_555
H111 C102 1_555 1_555
H112 C102 1_555 1_555
N9 C96 1_555 1_555
C103 C96 1_555 1_555
H113 C103 1_555 1_555
H114 C103 1_555 1_555
H115 C103 1_555 1_555
C104 H116 1_555 1_555
H117 C104 1_555 1_555
H118 C104 1_555 1_555
C105 C104 1_555 1_555
H119 C105 1_555 1_555
H120 C105 1_555 1_555
C106 H121 1_555 1_555
H122 C106 1_555 1_555
C107 C106 1_555 1_555
H123 C107 1_555 1_555
H124 C107 1_555 1_555
H125 C107 1_555 1_555
O4 C105 1_555 1_555
C108 N10 1_555 1_555
C109 N10 1_555 1_555
C110 N10 1_555 1_555
O5 C110 1_555 1_555
O6 P1 1_555 1_555
O7 P1 1_555 1_555
O8 P1 1_555 1_555
O9 H126 1_555 1_555
P1 O9 1_555 1_555
C4 N3 1_555 1_555
C8 C87 1_555 1_555
C15 C16 1_555 1_555
C21 C22 1_555 1_555
C27 C28 1_555 1_555
C29 N1 1_555 1_555
C32 N5 1_555 1_555
C36 C37 1_555 1_555
C44 C45 1_555 1_555
C50 C51 1_555 1_555
C56 C57 1_555 1_555
C58 N1 1_555 1_555
C61 N7 1_555 1_555
C65 C66 1_555 1_555
C73 C74 1_555 1_555
C79 C80 1_555 1_555
C85 C86 1_555 1_555
C90 N8 1_555 1_555
C92 N8 1_555 1_555
C94 N8 1_555 1_555
C97 N9 1_555 1_555
C99 N9 1_555 1_555
C101 N9 1_555 1_555
C106 O4 1_555 1_555

#END
