
#######################################################################
#
#                 Cambridge Crystallographic Data Centre
#                                CCDC 
#
#######################################################################
#
# If this CIF has been generated from an entry in the Cambridge 
# Structural Database, then it will include bibliographic, chemical, 
# crystal, experimental, refinement or atomic coordinate data resulting 
# from the CCDC's data processing and validation procedures.
#
#######################################################################

data_IJEZIH01
_chemical_formula_moiety         'C34 H25 B1 N6 O1'
_chemical_name_systematic        
(4-t-butylphenolato)(2,11,20,28,29,30-hexaazaheptacyclo[19.6.1.1^3,10^.1^12,19^.0^4,9^.0^13,18^.0^22,27^]triaconta-1(28),2,4,6,8,10,12,14,16,18,20,22,24,26-tetradecaenato)boron
_symmetry_cell_setting           triclinic
_symmetry_space_group_name_H-M   'P -1'
_symmetry_Int_Tables_number      2
_space_group_name_Hall           '-P 1'
loop_
_symmetry_equiv_pos_site_id
_symmetry_equiv_pos_as_xyz
1 x,y,z
2 -x,-y,-z
_cell_length_a                   8.5172(9)
_cell_length_b                   12.7393(14)
_cell_length_c                   13.2237(15)
_cell_angle_alpha                79.896(6)
_cell_angle_beta                 78.303(6)
_cell_angle_gamma                70.711(5)
_cell_volume                     1316.98
_exptl_crystal_colour            red
_exptl_crystal_description       plate
_cell_formula_units_Z            2
loop_
_atom_site_label
_atom_site_type_symbol
_atom_site_fract_x
_atom_site_fract_y
_atom_site_fract_z
O1 O 0.4781(7) 0.6236(5) 0.7886(5)
C1 C 0.5522(11) 0.6374(7) 0.8642(7)
C2 C 0.7130(12) 0.6452(8) 0.8449(7)
C3 C 0.7881(12) 0.6541(7) 0.9273(7)
C4 C 0.7077(11) 0.6504(8) 1.0288(7)
C5 C 0.7919(12) 0.6564(8) 1.1190(7)
C6 C 0.9694(11) 0.6630(8) 1.0827(8)
C7 C 0.6867(13) 0.7551(8) 1.1778(7)
C8 C 0.8007(13) 0.5484(9) 1.1929(7)
C9 C 0.5456(12) 0.6441(8) 1.0471(8)
C10 C 0.4670(12) 0.6373(8) 0.9671(7)
B1 B 0.4000(13) 0.7217(9) 0.7179(8)
N1 N 0.3437(8) 0.6862(6) 0.6352(5)
C11 C 0.4371(11) 0.6720(8) 0.5403(7)
N2 N 0.5717(9) 0.7096(6) 0.5067(6)
C12 C 0.5956(10) 0.7765(7) 0.5666(7)
N3 N 0.5053(9) 0.7933(6) 0.6635(6)
C13 C 0.4984(12) 0.8917(8) 0.6947(7)
N4 N 0.3735(10) 0.9426(6) 0.7676(6)
C14 C 0.2452(11) 0.9020(7) 0.7969(6)
N5 N 0.2449(9) 0.8021(6) 0.7685(5)
C15 C 0.0861(11) 0.7989(8) 0.7709(7)
N6 N 0.0545(9) 0.7360(6) 0.7091(6)
C16 C 0.1820(11) 0.6865(7) 0.6391(7)
C17 C 0.1781(12) 0.6495(7) 0.5420(7)
C18 C 0.3410(11) 0.6371(7) 0.4798(7)
C19 C 0.3727(13) 0.6092(8) 0.3803(8)
C20 C 0.2469(13) 0.5900(8) 0.3418(8)
C21 C 0.0899(13) 0.5996(8) 0.4030(8)
C22 C 0.0539(12) 0.6301(8) 0.5017(8)
C23 C -0.0308(12) 0.8940(8) 0.8222(7)
C24 C 0.0700(11) 0.9583(8) 0.8384(7)
C25 C -0.0058(12) 1.0595(8) 0.8789(8)
C26 C -0.1784(13) 1.0939(8) 0.9078(8)
C27 C -0.2777(13) 1.0289(8) 0.8954(8)
C28 C -0.2042(11) 0.9298(9) 0.8509(7)
C29 C 0.6162(11) 0.9360(7) 0.6187(7)
C30 C 0.6783(11) 0.8642(8) 0.5387(7)
C31 C 0.7835(11) 0.8907(8) 0.4485(8)
C32 C 0.8335(12) 0.9842(8) 0.4434(8)
C33 C 0.7728(12) 1.0546(8) 0.5226(8)
C34 C 0.6636(12) 1.0309(8) 0.6107(7)
H1 H 0.7733 0.6451 0.7770
H2 H 0.8967 0.6629 0.9128
H3 H 1.0180 0.6648 1.1422
H4 H 0.9694 0.7291 1.0356
H5 H 1.0370 0.5978 1.0491
H6 H 0.7394 0.7556 1.2364
H7 H 0.6804 0.8231 1.1311
H8 H 0.5742 0.7497 1.2026
H9 H 0.8361 0.5566 1.2557
H10 H 0.6914 0.5353 1.2086
H11 H 0.8835 0.4868 1.1603
H12 H 0.4866 0.6442 1.1150
H13 H 0.3578 0.6320 0.9813
H14 H 0.4781 0.6029 0.3398
H15 H 0.2682 0.5685 0.2753
H16 H 0.0073 0.5866 0.3752
H17 H -0.0521 0.6368 0.5417
H18 H 0.0584 1.1036 0.8862
H19 H -0.2314 1.1605 0.9366
H20 H -0.3933 1.0533 0.9166
H21 H -0.2713 0.8883 0.8409
H22 H 0.8185 0.8460 0.3944
H23 H 0.9088 1.0007 0.3858
H24 H 0.8073 1.1185 0.5154
H25 H 0.6222 1.0774 0.6629
loop_
_geom_bond_atom_site_label_1
_geom_bond_atom_site_label_2
_geom_bond_site_symmetry_1
_geom_bond_site_symmetry_2
O1 C1 1_555 1_555
C1 C2 1_555 1_555
C2 C3 1_555 1_555
C3 C4 1_555 1_555
C4 C5 1_555 1_555
C5 C6 1_555 1_555
C6 H3 1_555 1_555
C7 C5 1_555 1_555
C8 C5 1_555 1_555
C9 C4 1_555 1_555
C10 C1 1_555 1_555
B1 O1 1_555 1_555
N1 B1 1_555 1_555
C11 N1 1_555 1_555
N2 C11 1_555 1_555
C12 N2 1_555 1_555
N3 B1 1_555 1_555
C13 N3 1_555 1_555
N4 C13 1_555 1_555
C14 N4 1_555 1_555
N5 B1 1_555 1_555
C15 N5 1_555 1_555
N6 C15 1_555 1_555
C16 N1 1_555 1_555
C17 C16 1_555 1_555
C18 C11 1_555 1_555
C19 C18 1_555 1_555
C20 C19 1_555 1_555
C21 C20 1_555 1_555
C22 C17 1_555 1_555
C23 C15 1_555 1_555
C24 C14 1_555 1_555
C25 C24 1_555 1_555
C26 C25 1_555 1_555
C27 C26 1_555 1_555
C28 C23 1_555 1_555
C29 C13 1_555 1_555
C30 C12 1_555 1_555
C31 C30 1_555 1_555
C32 C31 1_555 1_555
C33 C32 1_555 1_555
C34 C29 1_555 1_555
H1 C2 1_555 1_555
H2 C3 1_555 1_555
H4 C6 1_555 1_555
H5 C6 1_555 1_555
H6 C7 1_555 1_555
H7 C7 1_555 1_555
H8 C7 1_555 1_555
H9 C8 1_555 1_555
H10 C8 1_555 1_555
H11 C8 1_555 1_555
H12 C9 1_555 1_555
H13 C10 1_555 1_555
H14 C19 1_555 1_555
H15 C20 1_555 1_555
H16 C21 1_555 1_555
H17 C22 1_555 1_555
H18 C25 1_555 1_555
H19 C26 1_555 1_555
H20 C27 1_555 1_555
H21 C28 1_555 1_555
H22 C31 1_555 1_555
H23 C32 1_555 1_555
H24 C33 1_555 1_555
H25 C34 1_555 1_555
C9 C10 1_555 1_555
C12 N3 1_555 1_555
C14 N5 1_555 1_555
N6 C16 1_555 1_555
C17 C18 1_555 1_555
C21 C22 1_555 1_555
C23 C24 1_555 1_555
C27 C28 1_555 1_555
C29 C30 1_555 1_555
C33 C34 1_555 1_555

#END
