
#######################################################################
#
#                 Cambridge Crystallographic Data Centre
#                                CCDC 
#
#######################################################################
#
# If this CIF has been generated from an entry in the Cambridge 
# Structural Database, then it will include bibliographic, chemical, 
# crystal, experimental, refinement or atomic coordinate data resulting 
# from the CCDC's data processing and validation procedures.
#
#######################################################################

data_IJIFEO
_chemical_formula_moiety         'C36 H27 N5 O3,1.5(C1 H2 Cl2)'
_chemical_name_systematic        
'7a-Hydroxy-3-imino-2-(4-methoxyphenyl)-1-oxo-4,6,7-triphenyltetrahydro-1H-isoindole-3a,5,5(4H,6H)-tricarbonitrile dichloromethane solvate'
_symmetry_cell_setting           triclinic
_symmetry_space_group_name_H-M   'P -1'
_symmetry_Int_Tables_number      2
_space_group_name_Hall           '-P 1'
loop_
_symmetry_equiv_pos_site_id
_symmetry_equiv_pos_as_xyz
1 x,y,z
2 -x,-y,-z
_cell_length_a                   12.4377(11)
_cell_length_b                   15.8954(14)
_cell_length_c                   18.5112(14)
_cell_angle_alpha                101.370(7)
_cell_angle_beta                 103.881(7)
_cell_angle_gamma                96.274(7)
_cell_volume                     3435.64
_exptl_crystal_colour            colorless
_exptl_crystal_description       block
_cell_formula_units_Z            4
_exptl_crystal_recrystallization_method acetonitrile
loop_
_atom_site_label
_atom_site_type_symbol
_atom_site_fract_x
_atom_site_fract_y
_atom_site_fract_z
O1 O 0.4110(2) 0.36265(16) 0.49792(16)
H1 H 0.4625 0.4042 0.5127
O2 O 0.3826(2) 0.52398(16) 0.44759(16)
O3 O 0.0703(3) 0.6649(2) 0.1883(2)
N1 N 0.3073(3) 0.2200(2) 0.3309(2)
N2 N 0.0284(4) 0.1967(3) 0.5982(3)
N3 N -0.0400(3) 0.4000(2) 0.4895(2)
N4 N 0.0462(3) 0.3331(3) 0.3327(2)
N5 N 0.2088(3) 0.4453(2) 0.3775(2)
C1 C 0.2167(3) 0.3163(2) 0.4244(2)
C2 C 0.1450(3) 0.2552(2) 0.4575(2)
H2 H 0.0729 0.2359 0.4186
C3 C 0.1163(3) 0.3054(2) 0.5305(2)
C4 C 0.2232(3) 0.3628(3) 0.5896(2)
H3 H 0.2792 0.3245 0.5987
C5 C 0.2726(3) 0.4328(2) 0.5535(2)
H4 H 0.2138 0.4670 0.5379
C6 C 0.3083(3) 0.3926(2) 0.4811(2)
C7 C 0.2706(3) 0.2622(2) 0.3729(2)
C8 C 0.1900(4) 0.1724(3) 0.4690(2)
C9 C 0.3015(4) 0.1713(3) 0.5071(3)
H5 H 0.3518 0.2232 0.5270
C10 C 0.3373(4) 0.0935(3) 0.5154(3)
H6 H 0.4118 0.0937 0.5405
C11 C 0.2646(5) 0.0159(3) 0.4871(3)
H7 H 0.2892 -0.0361 0.4931
C12 C 0.1532(5) 0.0165(3) 0.4494(3)
H8 H 0.1029 -0.0355 0.4302
C13 C 0.1179(4) 0.0932(3) 0.4406(3)
H9 H 0.0436 0.0924 0.4150
C14 C 0.0668(3) 0.2430(3) 0.5678(3)
C15 C 0.0288(3) 0.3607(3) 0.5082(3)
C16 C 0.2060(3) 0.4018(3) 0.6671(3)
C17 C 0.1566(3) 0.4761(3) 0.6789(3)
H10 H 0.1276 0.5003 0.6380
C18 C 0.1506(4) 0.5139(3) 0.7518(3)
H11 H 0.1181 0.5637 0.7598
C19 C 0.1928(5) 0.4778(4) 0.8127(3)
H12 H 0.1896 0.5037 0.8616
C20 C 0.2395(5) 0.4034(3) 0.8007(3)
H13 H 0.2660 0.3778 0.8411
C21 C 0.2469(4) 0.3671(3) 0.7282(3)
H14 H 0.2806 0.3178 0.7207
C22 C 0.3708(3) 0.4946(3) 0.6124(2)
C23 C 0.3761(4) 0.5838(3) 0.6215(3)
H15 H 0.3198 0.6060 0.5917
C24 C 0.4662(4) 0.6401(3) 0.6754(3)
H16 H 0.4698 0.6999 0.6812
C25 C 0.5496(4) 0.6082(3) 0.7198(3)
H17 H 0.6101 0.6463 0.7548
C26 C 0.5437(4) 0.5202(3) 0.7126(3)
H18 H 0.5989 0.4986 0.7439
C27 C 0.4558(3) 0.4636(3) 0.6588(3)
H19 H 0.4532 0.4039 0.6534
C28 C 0.1439(3) 0.3652(2) 0.3729(2)
C29 C 0.3090(3) 0.4618(2) 0.4345(2)
C30 C 0.1739(3) 0.5034(3) 0.3300(2)
C31 C 0.1594(3) 0.5851(3) 0.3623(3)
H20 H 0.1727 0.6027 0.4151
C32 C 0.1250(4) 0.6418(3) 0.3165(3)
H21 H 0.1155 0.6975 0.3384
C33 C 0.1052(4) 0.6155(3) 0.2390(3)
C34 C 0.1210(4) 0.5324(3) 0.2061(3)
H22 H 0.1084 0.5151 0.1534
C35 C 0.1549(3) 0.4768(3) 0.2509(3)
H23 H 0.1653 0.4214 0.2289
C36 C 0.0506(6) 0.7502(4) 0.2184(4)
H24 H 0.0342 0.7804 0.1780
H25 H 0.1162 0.7818 0.2572
H26 H -0.0120 0.7456 0.2401
H27 H 0.017(3) 0.374(3) 0.315(3)
O4 O 0.0940(2) 0.14047(16) 0.00094(16)
H28 H 0.0423 0.0994 -0.0179
O5 O 0.1085(2) -0.02535(17) 0.04589(16)
O6 O 0.3703(3) -0.2076(2) 0.2845(2)
N6 N 0.1739(3) 0.2705(2) 0.1692(2)
N7 N 0.5059(4) 0.3093(2) -0.0678(3)
N8 N 0.5486(3) 0.0979(2) 0.0289(2)
N9 N 0.4412(3) 0.1599(3) 0.1836(2)
N10 N 0.2792(3) 0.0480(2) 0.12452(19)
C37 C 0.2836(3) 0.1813(2) 0.0845(2)
C38 C 0.3663(3) 0.2448(2) 0.0611(2)
H29 H 0.4352 0.2593 0.1032
C39 C 0.4001(3) 0.1975(2) -0.0110(2)
C40 C 0.2947(3) 0.1464(3) -0.0757(2)
H30 H 0.2408 0.1866 -0.0828
C41 C 0.2391(3) 0.0713(2) -0.0479(2)
H31 H 0.2966 0.0366 -0.0309
C42 C 0.1949(3) 0.1092(2) 0.0221(2)
C43 C 0.3307(4) 0.3307(3) 0.0510(2)
C44 C 0.4115(4) 0.4059(3) 0.0824(3)
H32 H 0.4825 0.4010 0.1104
C45 C 0.3898(5) 0.4858(3) 0.0735(3)
H33 H 0.4452 0.5346 0.0949
C46 C 0.2830(5) 0.4934(3) 0.0318(3)
H34 H 0.2671 0.5473 0.0243
C47 C 0.2008(4) 0.4200(3) 0.0017(3)
H35 H 0.1294 0.4254 -0.0251
C48 C 0.2236(4) 0.3395(3) 0.0110(3)
H36 H 0.1677 0.2908 -0.0093
C49 C 0.4601(4) 0.2627(3) -0.0419(3)
C50 C 0.4824(3) 0.1402(3) 0.0106(3)
C51 C 0.3185(3) 0.1153(3) -0.1530(2)
C52 C 0.2810(4) 0.1561(3) -0.2110(3)
H37 H 0.2450 0.2038 -0.2018
C53 C 0.2962(5) 0.1272(3) -0.2826(3)
H38 H 0.2709 0.1558 -0.3210
C54 C 0.3481(4) 0.0568(3) -0.2975(3)
H39 H 0.3579 0.0371 -0.3458
C55 C 0.3856(4) 0.0156(3) -0.2400(3)
H40 H 0.4215 -0.0320 -0.2497
C56 C 0.3709(3) 0.0436(3) -0.1678(3)
H41 H 0.3960 0.0146 -0.1296
C57 C 0.1445(3) 0.0117(3) -0.1108(2)
C58 C 0.0647(3) 0.0446(3) -0.1589(3)
H42 H 0.0695 0.1045 -0.1534
C59 C -0.0232(4) -0.0117(4) -0.2157(3)
H43 H -0.0754 0.0107 -0.2487
C60 C -0.0321(4) -0.0991(4) -0.2226(3)
H44 H -0.0920 -0.1363 -0.2590
C61 C 0.0475(4) -0.1331(3) -0.1757(3)
H45 H 0.0415 -0.1929 -0.1810
C62 C 0.1359(4) -0.0778(3) -0.1209(3)
H46 H 0.1903 -0.1010 -0.0905
C63 C 0.2205(3) 0.2324(2) 0.1316(2)
C64 C 0.3481(3) 0.1291(2) 0.1370(2)
C65 C 0.1849(3) 0.0360(2) 0.0647(2)
C66 C 0.3055(3) -0.0180(3) 0.1663(2)
C67 C 0.3227(3) -0.0968(3) 0.1276(3)
H47 H 0.3192 -0.1059 0.0758
C68 C 0.3451(3) -0.1617(3) 0.1656(3)
H48 H 0.3570 -0.2148 0.1396
C69 C 0.3496(4) -0.1480(3) 0.2422(3)
C70 C 0.3352(4) -0.0673(3) 0.2813(3)
H49 H 0.3414 -0.0571 0.3334
C71 C 0.3118(3) -0.0030(3) 0.2430(2)
H50 H 0.3002 0.0503 0.2687
C72 C 0.3885(5) -0.2908(3) 0.2468(4)
H51 H 0.3270 -0.3151 0.2023
H52 H 0.3934 -0.3292 0.2811
H53 H 0.4571 -0.2838 0.2319
H54 H 0.465(4) 0.125(3) 0.202(3)
Cl1 Cl 0.52643(11) 0.11345(10) 0.39621(9)
Cl2 Cl 0.62345(13) 0.21867(10) 0.55090(9)
C73 C 0.5785(5) 0.2191(3) 0.4540(3)
H55 H 0.6409 0.2449 0.4382
H56 H 0.5201 0.2548 0.4467
Cl3 Cl -0.27512(15) 0.22488(15) 0.27628(14)
Cl4 Cl -0.16921(12) 0.16478(11) 0.40969(10)
C74 C -0.1723(4) 0.1701(4) 0.3150(4)
H57 H -0.0999 0.1990 0.3143
H58 H -0.1851 0.1114 0.2836
Cl5 Cl -0.20567(17) 0.28571(12) 0.07888(14)
Cl6 Cl -0.09174(15) 0.31761(15) -0.03401(13)
C75 C -0.0914(6) 0.2699(5) 0.0406(5)
H59 H -0.0223 0.2934 0.0806
H60 H -0.0927 0.2080 0.0236
loop_
_geom_bond_atom_site_label_1
_geom_bond_atom_site_label_2
_geom_bond_site_symmetry_1
_geom_bond_site_symmetry_2
O1 H1 1_555 1_555
O2 C29 1_555 1_555
O3 C33 1_555 1_555
N1 C7 1_555 1_555
N2 C14 1_555 1_555
N3 C15 1_555 1_555
N4 C28 1_555 1_555
N5 C28 1_555 1_555
C1 C2 1_555 1_555
C2 H2 1_555 1_555
C3 C2 1_555 1_555
C4 C3 1_555 1_555
H3 C4 1_555 1_555
C5 C4 1_555 1_555
H4 C5 1_555 1_555
C6 O1 1_555 1_555
C7 C1 1_555 1_555
C8 C2 1_555 1_555
C9 C8 1_555 1_555
H5 C9 1_555 1_555
C10 C9 1_555 1_555
H6 C10 1_555 1_555
C11 C10 1_555 1_555
H7 C11 1_555 1_555
C12 C11 1_555 1_555
H8 C12 1_555 1_555
C13 C8 1_555 1_555
H9 C13 1_555 1_555
C14 C3 1_555 1_555
C15 C3 1_555 1_555
C16 C4 1_555 1_555
C17 C16 1_555 1_555
H10 C17 1_555 1_555
C18 C17 1_555 1_555
H11 C18 1_555 1_555
C19 C18 1_555 1_555
H12 C19 1_555 1_555
C20 C19 1_555 1_555
H13 C20 1_555 1_555
C21 C16 1_555 1_555
H14 C21 1_555 1_555
C22 C5 1_555 1_555
C23 C22 1_555 1_555
H15 C23 1_555 1_555
C24 C23 1_555 1_555
H16 C24 1_555 1_555
C25 C24 1_555 1_555
H17 C25 1_555 1_555
C26 C25 1_555 1_555
H18 C26 1_555 1_555
C27 C22 1_555 1_555
H19 C27 1_555 1_555
C28 C1 1_555 1_555
C29 N5 1_555 1_555
C30 N5 1_555 1_555
C31 C30 1_555 1_555
H20 C31 1_555 1_555
C32 C31 1_555 1_555
H21 C32 1_555 1_555
C33 C32 1_555 1_555
C34 C33 1_555 1_555
H22 C34 1_555 1_555
C35 C30 1_555 1_555
H23 C35 1_555 1_555
C36 O3 1_555 1_555
H24 C36 1_555 1_555
H25 C36 1_555 1_555
H26 C36 1_555 1_555
H27 N4 1_555 1_555
O4 H28 1_555 1_555
O5 C65 1_555 1_555
O6 C69 1_555 1_555
N6 C63 1_555 1_555
N7 C49 1_555 1_555
N8 C50 1_555 1_555
N9 C64 1_555 1_555
N10 C64 1_555 1_555
C37 C38 1_555 1_555
C38 H29 1_555 1_555
C39 C38 1_555 1_555
C40 C39 1_555 1_555
H30 C40 1_555 1_555
C41 C40 1_555 1_555
H31 C41 1_555 1_555
C42 O4 1_555 1_555
C43 C38 1_555 1_555
C44 C43 1_555 1_555
H32 C44 1_555 1_555
C45 C44 1_555 1_555
H33 C45 1_555 1_555
C46 C45 1_555 1_555
H34 C46 1_555 1_555
C47 C46 1_555 1_555
H35 C47 1_555 1_555
C48 C43 1_555 1_555
H36 C48 1_555 1_555
C49 C39 1_555 1_555
C50 C39 1_555 1_555
C51 C40 1_555 1_555
C52 C51 1_555 1_555
H37 C52 1_555 1_555
C53 C52 1_555 1_555
H38 C53 1_555 1_555
C54 C53 1_555 1_555
H39 C54 1_555 1_555
C55 C54 1_555 1_555
H40 C55 1_555 1_555
C56 C51 1_555 1_555
H41 C56 1_555 1_555
C57 C41 1_555 1_555
C58 C57 1_555 1_555
H42 C58 1_555 1_555
C59 C58 1_555 1_555
H43 C59 1_555 1_555
C60 C59 1_555 1_555
H44 C60 1_555 1_555
C61 C60 1_555 1_555
H45 C61 1_555 1_555
C62 C57 1_555 1_555
H46 C62 1_555 1_555
C63 C37 1_555 1_555
C64 C37 1_555 1_555
C65 N10 1_555 1_555
C66 N10 1_555 1_555
C67 C66 1_555 1_555
H47 C67 1_555 1_555
C68 C67 1_555 1_555
H48 C68 1_555 1_555
C69 C68 1_555 1_555
C70 C69 1_555 1_555
H49 C70 1_555 1_555
C71 C66 1_555 1_555
H50 C71 1_555 1_555
C72 O6 1_555 1_555
H51 C72 1_555 1_555
H52 C72 1_555 1_555
H53 C72 1_555 1_555
H54 N9 1_555 1_555
Cl1 C73 1_555 1_555
Cl2 C73 1_555 1_555
C73 H55 1_555 1_555
H56 C73 1_555 1_555
Cl3 C74 1_555 1_555
Cl4 C74 1_555 1_555
C74 H57 1_555 1_555
H58 C74 1_555 1_555
Cl5 C75 1_555 1_555
Cl6 C75 1_555 1_555
C75 H59 1_555 1_555
H60 C75 1_555 1_555
C1 C6 1_555 1_555
C5 C6 1_555 1_555
C6 C29 1_555 1_555
C12 C13 1_555 1_555
C20 C21 1_555 1_555
C26 C27 1_555 1_555
C34 C35 1_555 1_555
C37 C42 1_555 1_555
C41 C42 1_555 1_555
C42 C65 1_555 1_555
C47 C48 1_555 1_555
C55 C56 1_555 1_555
C61 C62 1_555 1_555
C70 C71 1_555 1_555

#END
