
#######################################################################
#
#                 Cambridge Crystallographic Data Centre
#                                CCDC 
#
#######################################################################
#
# If this CIF has been generated from an entry in the Cambridge 
# Structural Database, then it will include bibliographic, chemical, 
# crystal, experimental, refinement or atomic coordinate data resulting 
# from the CCDC's data processing and validation procedures.
#
#######################################################################

data_IJIHOZ02
_chemical_name_common            "bis(ibuprofen) 4,4'-bipyridine"
_chemical_formula_moiety         '2(C13 H18 O2),C10 H8 N2'
_chemical_name_systematic        
"bis(2-(4-Isobutylphenyl)propanoic acid) 4,4'-bipyridine"
_symmetry_cell_setting           triclinic
_symmetry_space_group_name_H-M   'P 1'
_symmetry_Int_Tables_number      1
_space_group_name_Hall           'P 1'
loop_
_symmetry_equiv_pos_site_id
_symmetry_equiv_pos_as_xyz
1 x,y,z
_cell_length_a                   5.7162(12)
_cell_length_b                   11.563(3)
_cell_length_c                   24.621(5)
_cell_angle_alpha                94.133(5)
_cell_angle_beta                 90.210(3)
_cell_angle_gamma                104.275(3)
_cell_volume                     1572.62
_exptl_crystal_colour            colorless
_exptl_crystal_description       'irregular plate'
_cell_formula_units_Z            2
loop_
_atom_site_label
_atom_site_type_symbol
_atom_site_fract_x
_atom_site_fract_y
_atom_site_fract_z
O1 O 0.3302(6) 0.9693(3) 0.95979(14)
O2 O 0.6491(6) 0.9485(3) 1.00696(14)
H1 H 0.6556 0.9003 0.9812
C1 C 0.4620(9) 0.9937(4) 1.0000(2)
C2 C 0.4410(9) 1.0813(5) 1.0482(2)
H2 H 0.6030 1.1302 1.0585
C3 C 0.2856(10) 1.1635(5) 1.0329(2)
H3 H 0.2749 1.2178 1.0636
H4 H 0.1268 1.1167 1.0222
H5 H 0.3567 1.2081 1.0031
C4 C 0.3404(9) 1.0084(4) 1.0959(2)
C5 C 0.4921(10) 1.0102(4) 1.1397(2)
H6 H 0.6532 1.0522 1.1390
C6 C 0.4027(10) 0.9481(4) 1.1858(2)
H7 H 0.5080 0.9478 1.2146
C7 C 0.1619(10) 0.8878(5) 1.1890(2)
C8 C 0.0143(10) 0.8858(5) 1.1436(2)
H8 H -0.1456 0.8418 1.1433
C9 C 0.1003(10) 0.9479(5) 1.0990(2)
H9 H -0.0055 0.9490 1.0703
C10 C 0.0614(12) 0.8244(4) 1.2381(3)
H10 H -0.0913 0.8429 1.2468
H11 H 0.1715 0.8540 1.2689
C11 C 0.0219(17) 0.6894(6) 1.2298(3)
H12 H -0.0709 0.6600 1.1959
C12 C 0.271(2) 0.6635(8) 1.2255(5)
H13 H 0.2546 0.5787 1.2240
H14 H 0.3693 0.7012 1.2567
H15 H 0.3468 0.6945 1.1930
C13 C -0.114(2) 0.6289(8) 1.2776(5)
H16 H -0.2750 0.6405 1.2778
H17 H -0.0314 0.6634 1.3111
H18 H -0.1222 0.5448 1.2738
O3 O 0.3318(6) 0.4803(3) 0.96124(14)
O4 O 0.6583(6) 0.4592(3) 1.00558(14)
H19 H 0.6745 0.4197 0.9774
C14 C 0.4643(9) 0.4998(4) 1.0011(2)
C15 C 0.4326(10) 0.5735(5) 1.0534(2)
H20 H 0.5913 0.6232 1.0657
C16 C 0.2679(10) 0.6549(5) 1.0442(3)
H21 H 0.2425 0.6955 1.0782
H22 H 0.1157 0.6081 1.0292
H23 H 0.3409 0.7127 1.0192
C17 C 0.3403(9) 0.4848(4) 1.0957(2)
C18 C 0.5065(10) 0.4621(5) 1.1329(2)
H24 H 0.6677 0.5041 1.1327
C19 C 0.4289(10) 0.3759(6) 1.1703(2)
H25 H 0.5422 0.3627 1.1947
C20 C 0.1948(10) 0.3098(5) 1.1729(2)
C21 C 0.0297(10) 0.3365(5) 1.1356(2)
H26 H -0.1322 0.2959 1.1363
C22 C 0.1019(10) 0.4207(5) 1.0983(2)
H27 H -0.0120 0.4348 1.0742
C23 C 0.1229(10) 0.2145(5) 1.21179(17)
H28 H 0.2296 0.1613 1.2066
H29 H -0.0387 0.1681 1.2014
C24 C 0.1236(15) 0.2506(7) 1.2714(3)
H30 H 0.2768 0.3088 1.2810
C25 C -0.081(2) 0.3119(11) 1.2824(4)
H31 H -0.2329 0.2555 1.2745
H32 H -0.0640 0.3775 1.2598
H33 H -0.0738 0.3412 1.3200
C26 C 0.1000(18) 0.1464(8) 1.3068(3)
H34 H 0.2296 0.1085 1.2996
H35 H -0.0516 0.0895 1.2989
H36 H 0.1072 0.1752 1.3445
O5 O 1.3233(7) 0.1460(4) 0.73058(17)
O6 O 1.0214(7) 0.1636(3) 0.67796(15)
H37 H 1.0003 0.2098 0.7033
C27 C 1.2099(12) 0.1244(5) 0.6887(2)
C28 C 1.348(2) 0.0632(10) 0.6456(4)
H38 H 1.5099 0.0609 0.6579
C29 C 1.170(2) -0.0616(8) 0.6374(4)
H39 H 1.2279 -0.1092 0.6095
H40 H 1.0139 -0.0529 0.6267
H41 H 1.1576 -0.1003 0.6708
C30 C 1.3431(14) 0.1151(6) 0.5912(2)
C31 C 1.1794(11) 0.1171(6) 0.5504(3)
H42 H 1.0178 0.0789 0.5546
C32 C 1.2452(11) 0.1726(6) 0.5048(3)
H43 H 1.1293 0.1690 0.4777
C33 C 1.4812(11) 0.2349(6) 0.4970(2)
C34 C 1.6456(13) 0.2381(7) 0.5384(3)
H44 H 1.8057 0.2796 0.5349
C35 C 1.5758(14) 0.1809(7) 0.5846(3)
H45 H 1.6892 0.1867 0.6125
C36 C 1.5549(14) 0.2973(5) 0.4451(2)
H46 H 1.7046 0.2810 0.4323
H47 H 1.4314 0.2671 0.4170
C37 C 1.588(2) 0.4316(7) 0.4567(5)
H48 H 1.6790 0.4592 0.4910
C38 C 1.3374(19) 0.4546(9) 0.4605(5)
H49 H 1.2473 0.4236 0.4274
H50 H 1.3516 0.5391 0.4659
H51 H 1.2551 0.4155 0.4907
C39 C 1.723(2) 0.4960(9) 0.4093(5)
H52 H 1.6166 0.4829 0.3779
H53 H 1.8606 0.4652 0.4008
H54 H 1.7748 0.5803 0.4194
O7 O 1.3208(7) -0.3652(3) 0.72768(16)
O8 O 1.0024(7) -0.3468(3) 0.67979(14)
H55 H 0.9919 -0.2982 0.7050
C40 C 1.1999(11) -0.3831(5) 0.6862(2)
C41 C 1.334(2) -0.4345(9) 0.6386(4)
H56 H 1.4970 -0.4397 0.6489
C42 C 1.1604(19) -0.5585(7) 0.6211(4)
H57 H 1.2277 -0.5964 0.5912
H58 H 1.0066 -0.5473 0.6102
H59 H 1.1398 -0.6081 0.6513
C43 C 1.3295(13) -0.3613(5) 0.5907(2)
C44 C 1.1663(12) -0.3455(7) 0.5549(3)
H60 H 1.0098 -0.3932 0.5559
C45 C 1.2163(12) -0.2634(7) 0.5169(3)
H61 H 1.0946 -0.2557 0.4933
C46 C 1.4470(11) -0.1915(5) 0.5132(2)
C47 C 1.6184(13) -0.2112(6) 0.5486(2)
H62 H 1.7783 -0.1683 0.5462
C48 C 1.5572(14) -0.2934(7) 0.5875(3)
H63 H 1.6752 -0.3022 0.6119
C49 C 1.5019(13) -0.0961(6) 0.4718(2)
H64 H 1.3735 -0.0546 0.4741
H65 H 1.6489 -0.0382 0.4845
C50 C 1.533(3) -0.1282(13) 0.4115(4)
H66 H 1.4060 -0.1994 0.3995
C51 C 1.514(3) -0.0260(14) 0.3777(5)
H67 H 1.6253 0.0463 0.3921
H68 H 1.3527 -0.0157 0.3790
H69 H 1.5529 -0.0440 0.3407
C52 C 1.777(2) -0.1568(13) 0.4053(4)
H70 H 1.7978 -0.1804 0.3678
H71 H 1.7845 -0.2209 0.4273
H72 H 1.9019 -0.0872 0.4167
N1 N 0.6996(7) 0.7797(3) 0.93358(16)
N2 N 0.9394(7) 0.3234(4) 0.75027(17)
C53 C 0.5701(9) 0.7423(4) 0.8881(2)
H73 H 0.4456 0.7778 0.8805
C54 C 0.6092(8) 0.6546(4) 0.8518(2)
H74 H 0.5124 0.6314 0.8205
C55 C 0.7942(8) 0.6001(4) 0.86182(19)
C56 C 0.9280(8) 0.6377(4) 0.91010(19)
H75 H 1.0506 0.6024 0.9196
C57 C 0.8750(9) 0.7285(4) 0.9436(2)
H76 H 0.9687 0.7548 0.9752
C58 C 0.7686(9) 0.3810(4) 0.7395(2)
H77 H 0.6812 0.3599 0.7069
C59 C 0.7168(8) 0.4691(4) 0.7742(2)
H78 H 0.5943 0.5048 0.7651
C60 C 0.8470(8) 0.5056(4) 0.82313(19)
C61 C 1.0271(8) 0.4467(4) 0.8342(2)
H79 H 1.1180 0.4668 0.8664
C62 C 1.0699(8) 0.3576(4) 0.79661(19)
H80 H 1.1929 0.3210 0.8041
N3 N 0.7099(7) 0.2910(4) 0.92992(17)
N4 N 0.9279(7) -0.1848(4) 0.75421(17)
C63 C 0.5783(9) 0.2495(4) 0.8851(2)
H81 H 0.4537 0.2845 0.8770
C64 C 0.6134(8) 0.1588(4) 0.8502(2)
H82 H 0.5156 0.1340 0.8192
C65 C 0.7946(8) 0.1041(5) 0.8613(2)
C66 C 0.9324(9) 0.1421(4) 0.90891(19)
H83 H 1.0512 0.1051 0.9191
C67 C 0.8842(9) 0.2393(5) 0.9412(2)
H84 H 0.9807 0.2685 0.9721
C68 C 0.7597(9) -0.1268(5) 0.7432(2)
H85 H 0.6696 -0.1497 0.7110
C69 C 0.7128(8) -0.0368(4) 0.7761(2)
H86 H 0.5896 -0.0023 0.7663
C70 C 0.8440(8) 0.0054(4) 0.82428(19)
C71 C 1.0248(9) -0.0536(4) 0.8363(2)
H87 H 1.1192 -0.0304 0.8679
C72 C 1.0623(9) -0.1470(4) 0.8006(2)
H88 H 1.1832 -0.1844 0.8090
C73? C 0.0614(12) 0.8244(4) 1.2381(3)
C74? C 0.163(3) 0.7233(11) 1.2555(5)
C75? C 0.052(4) 0.6731(15) 1.3076(5)
C76? C 0.127(4) 0.6249(13) 1.2098(6)
C77? C 0.1229(10) 0.2145(5) 1.21179(17)
C78? C 0.029(2) 0.2720(10) 1.2635(4)
C79? C -0.098(3) 0.1740(12) 1.2992(5)
C80? C 0.229(3) 0.3598(10) 1.2960(4)
C81? C 1.5549(14) 0.2973(5) 0.4451(2)
C82? C 1.473(3) 0.4147(9) 0.4445(5)
C83? C 1.473(4) 0.4639(11) 0.3897(4)
C84? C 1.639(2) 0.5055(8) 0.4845(4)
C85? C 1.219(2) -0.4607(11) 0.6326(5)
C86? C 1.383(2) -0.5407(10) 0.6412(5)
C87? C 1.5019(13) -0.0961(6) 0.4718(2)
C88? C 1.596(3) -0.1427(12) 0.4188(4)
C89? C 1.416(3) -0.2410(11) 0.3873(4)
C90? C 1.700(5) -0.0410(14) 0.3833(5)
H89? H -0.1108 0.7927 1.2316
H90? H 0.0810 0.8839 1.2687
H91? H 0.3369 0.7547 1.2622
H92? H 0.0969 0.6000 1.3130
H93? H -0.1206 0.6575 1.3046
H94? H 0.1098 0.7301 1.3379
H95? H 0.1869 0.6587 1.1766
H96? H -0.0423 0.5868 1.2052
H97? H 0.2125 0.5669 1.2187
H98? H 0.2605 0.1840 1.2211
H99? H -0.0029 0.1486 1.1956
H100? H -0.0884 0.3149 1.2521
H101? H -0.1915 0.2065 1.3258
H102? H 0.0205 0.1435 1.3175
H103? H -0.2022 0.1103 1.2770
H104? H 0.2807 0.4313 1.2771
H105? H 0.3633 0.3246 1.3003
H106? H 0.1716 0.3793 1.3312
H107? H 1.4837 0.2442 0.4139
H108? H 1.7290 0.3146 0.4421
H109? H 1.3088 0.4001 0.4583
H110? H 1.6206 0.4610 0.3717
H111? H 1.4607 0.5452 0.3942
H112? H 1.3384 0.4167 0.3681
H113? H 1.6034 0.5821 0.4831
H114? H 1.8043 0.5119 0.4750
H115? H 1.6142 0.4798 0.5207
H116? H 1.0585 -0.5078 0.6199
H117? H 1.3255 -0.5895 0.6707
H118? H 1.5431 -0.4929 0.6499
H119? H 1.3853 -0.5911 0.6086
H120? H 1.3561 -0.0710 0.4641
H121? H 1.6215 -0.0267 0.4875
H122? H 1.7301 -0.1764 0.4288
H123? H 1.2878 -0.2099 0.3737
H124? H 1.3504 -0.3035 0.4107
H125? H 1.4937 -0.2727 0.3573
H126? H 1.7440 -0.0731 0.3489
H127? H 1.8410 0.0111 0.4011
H128? H 1.5819 0.0033 0.3776
loop_
_geom_bond_atom_site_label_1
_geom_bond_atom_site_label_2
_geom_bond_site_symmetry_1
_geom_bond_site_symmetry_2
O1 C1 1_555 1_555
O2 H1 1_555 1_555
C1 O2 1_555 1_555
C2 C1 1_555 1_555
H2 C2 1_555 1_555
C3 C2 1_555 1_555
H3 C3 1_555 1_555
H4 C3 1_555 1_555
H5 C3 1_555 1_555
C4 C2 1_555 1_555
C5 C4 1_555 1_555
H6 C5 1_555 1_555
C6 C5 1_555 1_555
H7 C6 1_555 1_555
C7 C6 1_555 1_555
C8 C7 1_555 1_555
H8 C8 1_555 1_555
C9 C4 1_555 1_555
H9 C9 1_555 1_555
C10 C7 1_555 1_555
H10 C10 1_555 1_555
H11 C10 1_555 1_555
C11 C10 1_555 1_555
H12 C11 1_555 1_555
C12 C11 1_555 1_555
H13 C12 1_555 1_555
H14 C12 1_555 1_555
H15 C12 1_555 1_555
C13 C11 1_555 1_555
H16 C13 1_555 1_555
H17 C13 1_555 1_555
H18 C13 1_555 1_555
O3 C14 1_555 1_555
O4 H19 1_555 1_555
C14 O4 1_555 1_555
C15 C14 1_555 1_555
H20 C15 1_555 1_555
C16 C15 1_555 1_555
H21 C16 1_555 1_555
H22 C16 1_555 1_555
H23 C16 1_555 1_555
C17 C15 1_555 1_555
C18 C17 1_555 1_555
H24 C18 1_555 1_555
C19 C18 1_555 1_555
H25 C19 1_555 1_555
C20 C19 1_555 1_555
C21 C20 1_555 1_555
H26 C21 1_555 1_555
C22 C17 1_555 1_555
H27 C22 1_555 1_555
C23 C20 1_555 1_555
H28 C23 1_555 1_555
H29 C23 1_555 1_555
C24 C23 1_555 1_555
H30 C24 1_555 1_555
C25 C24 1_555 1_555
H31 C25 1_555 1_555
H32 C25 1_555 1_555
H33 C25 1_555 1_555
C26 C24 1_555 1_555
H34 C26 1_555 1_555
H35 C26 1_555 1_555
H36 C26 1_555 1_555
O5 C27 1_555 1_555
O6 H37 1_555 1_555
C27 O6 1_555 1_555
C28 C27 1_555 1_555
H38 C28 1_555 1_555
C29 C28 1_555 1_555
H39 C29 1_555 1_555
H40 C29 1_555 1_555
H41 C29 1_555 1_555
C30 C28 1_555 1_555
C31 C30 1_555 1_555
H42 C31 1_555 1_555
C32 C31 1_555 1_555
H43 C32 1_555 1_555
C33 C32 1_555 1_555
C34 C33 1_555 1_555
H44 C34 1_555 1_555
C35 C30 1_555 1_555
H45 C35 1_555 1_555
C36 C33 1_555 1_555
H46 C36 1_555 1_555
H47 C36 1_555 1_555
C37 C36 1_555 1_555
H48 C37 1_555 1_555
C38 C37 1_555 1_555
H49 C38 1_555 1_555
H50 C38 1_555 1_555
H51 C38 1_555 1_555
C39 C37 1_555 1_555
H52 C39 1_555 1_555
H53 C39 1_555 1_555
H54 C39 1_555 1_555
O7 C40 1_555 1_555
O8 H55 1_555 1_555
C40 O8 1_555 1_555
C41 C40 1_555 1_555
H56 C41 1_555 1_555
C42 C41 1_555 1_555
H57 C42 1_555 1_555
H58 C42 1_555 1_555
H59 C42 1_555 1_555
C43 C41 1_555 1_555
C44 C43 1_555 1_555
H60 C44 1_555 1_555
C45 C44 1_555 1_555
H61 C45 1_555 1_555
C46 C45 1_555 1_555
C47 C46 1_555 1_555
H62 C47 1_555 1_555
C48 C43 1_555 1_555
H63 C48 1_555 1_555
C49 C46 1_555 1_555
H64 C49 1_555 1_555
H65 C49 1_555 1_555
C50 C49 1_555 1_555
H66 C50 1_555 1_555
C51 C50 1_555 1_555
H67 C51 1_555 1_555
H68 C51 1_555 1_555
H69 C51 1_555 1_555
C52 C50 1_555 1_555
H70 C52 1_555 1_555
H71 C52 1_555 1_555
H72 C52 1_555 1_555
N1 C53 1_555 1_555
N2 C58 1_555 1_555
C53 H73 1_555 1_555
C54 C53 1_555 1_555
H74 C54 1_555 1_555
C55 C54 1_555 1_555
C56 C55 1_555 1_555
H75 C56 1_555 1_555
C57 N1 1_555 1_555
H76 C57 1_555 1_555
C58 H77 1_555 1_555
C59 C58 1_555 1_555
H78 C59 1_555 1_555
C60 C55 1_555 1_555
C61 C60 1_555 1_555
H79 C61 1_555 1_555
C62 N2 1_555 1_555
H80 C62 1_555 1_555
N3 C63 1_555 1_555
N4 C68 1_555 1_555
C63 H81 1_555 1_555
C64 C63 1_555 1_555
H82 C64 1_555 1_555
C65 C64 1_555 1_555
C66 C65 1_555 1_555
H83 C66 1_555 1_555
C67 N3 1_555 1_555
H84 C67 1_555 1_555
C68 H85 1_555 1_555
C69 C68 1_555 1_555
H86 C69 1_555 1_555
C70 C65 1_555 1_555
C71 C70 1_555 1_555
H87 C71 1_555 1_555
C72 N4 1_555 1_555
H88 C72 1_555 1_555
C8 C9 1_555 1_555
C21 C22 1_555 1_555
C34 C35 1_555 1_555
C47 C48 1_555 1_555
C56 C57 1_555 1_555
C59 C60 1_555 1_555
C61 C62 1_555 1_555
C66 C67 1_555 1_555
C69 C70 1_555 1_555
C71 C72 1_555 1_555

#END
