
#######################################################################
#
#                 Cambridge Crystallographic Data Centre
#                                CCDC 
#
#######################################################################
#
# If this CIF has been generated from an entry in the Cambridge 
# Structural Database, then it will include bibliographic, chemical, 
# crystal, experimental, refinement or atomic coordinate data resulting 
# from the CCDC's data processing and validation procedures.
#
#######################################################################

data_IJIJOC
_chemical_formula_moiety         'C25 H20 N2 O4 S2 Se1'
_chemical_name_systematic        
N-(2-(Phenylselanyl)-2-(pyridin-2-yl)vinyl)-N-(phenylsulfonyl)benzenesulfonamide
_symmetry_cell_setting           monoclinic
_symmetry_space_group_name_H-M   'P 21/n'
_symmetry_Int_Tables_number      14
_space_group_name_Hall           '-P 2yn'
loop_
_symmetry_equiv_pos_site_id
_symmetry_equiv_pos_as_xyz
1 x,y,z
2 1/2-x,1/2+y,1/2-z
3 -x,-y,-z
4 1/2+x,1/2-y,1/2+z
_cell_length_a                   9.6930(10)
_cell_length_b                   17.7020(18)
_cell_length_c                   16.3360(17)
_cell_angle_alpha                90
_cell_angle_beta                 92.158(2)
_cell_angle_gamma                90
_cell_volume                     2801.03
_exptl_crystal_colour            colorless
_exptl_crystal_description       block
_cell_formula_units_Z            4
loop_
_atom_site_label
_atom_site_type_symbol
_atom_site_fract_x
_atom_site_fract_y
_atom_site_fract_z
Se1 Se 0.95709(9) 0.15055(5) 0.32522(6)
S1 S 0.4339(2) 0.13125(14) 0.27752(15)
S2 S 0.4634(2) 0.25195(14) 0.40473(14)
N1 N 0.5281(7) 0.1803(4) 0.3492(4)
O1 O 0.3347(7) 0.2288(4) 0.4349(5)
O2 O 0.4933(8) 0.0582(4) 0.2760(5)
C1 C 0.7604(8) 0.0760(5) 0.4173(5)
O3 O 0.2933(7) 0.1415(5) 0.2966(5)
C2 C 0.6730(8) 0.1883(5) 0.3316(5)
H1 H 0.6993 0.2284 0.2989
C3 C 0.8483(8) 0.0209(4) 0.4059(5)
H2 H 0.9098 0.0234 0.3637
C4 C 0.4367(9) 0.3282(5) 0.3372(6)
N2 N 0.6688(9) 0.0739(5) 0.4816(6)
O4 O 0.5744(8) 0.2699(4) 0.4610(4)
C5 C 0.4648(11) 0.1766(5) 0.1853(6)
C6 C 0.7703(8) 0.1408(4) 0.3601(5)
C7 C 0.5496(10) 0.3705(5) 0.3131(7)
H3 H 0.6382 0.3584 0.3325
C8 C 0.9410(8) 0.2462(6) 0.2714(6)
C9 C 0.9336(9) 0.3131(6) 0.3141(6)
H4 H 0.9383 0.3119 0.3710
C10 C 0.3068(10) 0.3452(6) 0.3086(7)
H5 H 0.2320 0.3158 0.3231
C11 C 0.8479(11) -0.0377(6) 0.4549(7)
H6 H 0.9083 -0.0771 0.4450
C12 C 0.9144(11) 0.3838(7) 0.1914(8)
H7 H 0.9049 0.4302 0.1651
C13 C 0.7629(10) -0.0440(6) 0.5202(6)
H8 H 0.7668 -0.0858 0.5548
C14 C 0.6729(9) 0.0136(6) 0.5320(6)
H9 H 0.6135 0.0113 0.5754
C15 C 0.5285(12) 0.4302(6) 0.2607(7)
H10 H 0.6040 0.4581 0.2443
C16 C 0.9195(9) 0.3805(6) 0.2756(7)
H11 H 0.9134 0.4247 0.3061
C17 C 0.9377(11) 0.2514(6) 0.1869(6)
H12 H 0.9456 0.2074 0.1563
C18 C 0.4000(14) 0.4495(7) 0.2321(8)
H13 H 0.3874 0.4901 0.1964
C19 C 0.9231(13) 0.3194(7) 0.1467(7)
H14 H 0.9193 0.3212 0.0897
C20 C 0.2878(13) 0.4079(8) 0.2570(10)
H15 H 0.1991 0.4218 0.2392
C21 C 0.5826(13) 0.1638(7) 0.1447(7)
H16 H 0.6437 0.1281 0.1669
C22 C 0.525(3) 0.2437(13) 0.0446(12)
H17 H 0.5456 0.2677 -0.0042
C23 C 0.3674(16) 0.2249(8) 0.1536(8)
H18 H 0.2856 0.2346 0.1797
C24 C 0.399(2) 0.2604(10) 0.0763(12)
H19 H 0.3373 0.2929 0.0495
C25 C 0.618(2) 0.1986(12) 0.0749(10)
H20 H 0.7028 0.1907 0.0509
loop_
_geom_bond_atom_site_label_1
_geom_bond_atom_site_label_2
_geom_bond_site_symmetry_1
_geom_bond_site_symmetry_2
Se1 C6 1_555 1_555
S1 N1 1_555 1_555
S2 N1 1_555 1_555
N1 C2 1_555 1_555
O1 S2 1_555 1_555
O2 S1 1_555 1_555
C1 C3 1_555 1_555
O3 S1 1_555 1_555
C2 H1 1_555 1_555
C3 H2 1_555 1_555
C4 S2 1_555 1_555
N2 C1 1_555 1_555
O4 S2 1_555 1_555
C5 S1 1_555 1_555
C6 C1 1_555 1_555
C7 C4 1_555 1_555
H3 C7 1_555 1_555
C8 Se1 1_555 1_555
C9 C8 1_555 1_555
H4 C9 1_555 1_555
C10 C4 1_555 1_555
H5 C10 1_555 1_555
C11 C3 1_555 1_555
H6 C11 1_555 1_555
C12 H7 1_555 1_555
C13 C11 1_555 1_555
H8 C13 1_555 1_555
C14 N2 1_555 1_555
H9 C14 1_555 1_555
C15 C7 1_555 1_555
H10 C15 1_555 1_555
C16 C9 1_555 1_555
H11 C16 1_555 1_555
C17 C8 1_555 1_555
H12 C17 1_555 1_555
C18 C15 1_555 1_555
H13 C18 1_555 1_555
C19 C12 1_555 1_555
H14 C19 1_555 1_555
C20 C10 1_555 1_555
H15 C20 1_555 1_555
C21 C5 1_555 1_555
H16 C21 1_555 1_555
C22 H17 1_555 1_555
C23 C5 1_555 1_555
H18 C23 1_555 1_555
C24 C22 1_555 1_555
H19 C24 1_555 1_555
C25 C21 1_555 1_555
H20 C25 1_555 1_555
C2 C6 1_555 1_555
C12 C16 1_555 1_555
C13 C14 1_555 1_555
C17 C19 1_555 1_555
C18 C20 1_555 1_555
C22 C25 1_555 1_555
C23 C24 1_555 1_555

#END
