
#######################################################################
#
#                 Cambridge Crystallographic Data Centre
#                                CCDC 
#
#######################################################################
#
# If this CIF has been generated from an entry in the Cambridge 
# Structural Database, then it will include bibliographic, chemical, 
# crystal, experimental, refinement or atomic coordinate data resulting 
# from the CCDC's data processing and validation procedures.
#
#######################################################################

data_IJIJAN01
_chemical_name_common            "bis((S)-ibuprofen) 4,4'-bipyridine"
_chemical_formula_moiety         '2(C13 H18 O2),C10 H8 N2'
_chemical_name_systematic        
"bis(2-(4-Isobutylphenyl)propanoic acid) 4,4'-bipyridine"
_symmetry_cell_setting           monoclinic
_symmetry_space_group_name_H-M   'P 21'
_symmetry_Int_Tables_number      4
_space_group_name_Hall           'P 2yb'
loop_
_symmetry_equiv_pos_site_id
_symmetry_equiv_pos_as_xyz
1 x,y,z
2 -x,1/2+y,-z
_cell_length_a                   5.7654(4)
_cell_length_b                   48.700(3)
_cell_length_c                   11.5146(7)
_cell_angle_alpha                90
_cell_angle_beta                 103.6840(10)
_cell_angle_gamma                90
_cell_volume                     3141.24
_exptl_crystal_colour            colorless
_exptl_crystal_description       plate
_cell_formula_units_Z            4
loop_
_atom_site_label
_atom_site_type_symbol
_atom_site_fract_x
_atom_site_fract_y
_atom_site_fract_z
O1 O 0.2603(2) 0.32766(2) 0.77610(11)
O2 O 0.5740(2) 0.30407(3) 0.74702(11)
H1 H 0.578(4) 0.3173(5) 0.691(2)
C1 C 0.3883(3) 0.30773(3) 0.79422(13)
C2 C 0.3554(3) 0.28342(3) 0.87290(14)
H2 H 0.5133 0.2780 0.9202
C3 C 0.2033(3) 0.29148(3) 0.95943(15)
H3 H 0.2747 0.3069 1.0064
H4 H 0.1937 0.2763 1.0112
H5 H 0.0458 0.2963 0.9151
C4 C 0.2503(3) 0.25908(3) 0.79450(13)
C5 C 0.3895(3) 0.23634(3) 0.78396(15)
H6 H 0.5503 0.2363 0.8230
C6 C 0.2935(3) 0.21368(3) 0.71642(16)
H7 H 0.3909 0.1988 0.7109
C7 C 0.0531(3) 0.21294(3) 0.65679(15)
C8 C -0.0855(3) 0.23610(4) 0.66475(15)
H8 H -0.2453 0.2364 0.6238
C9 C 0.0106(3) 0.25876(3) 0.73266(15)
H9 H -0.0857 0.2739 0.7370
C10 C -0.0552(3) 0.18830(4) 0.58368(17)
H10 H -0.2134 0.1851 0.5965
H11 H 0.0410 0.1723 0.6125
C11 C -0.0749(4) 0.19122(4) 0.44949(17)
H12 H -0.1698 0.2076 0.4210
C12 C 0.1675(4) 0.19451(4) 0.42271(19)
H13 H 0.2633 0.1786 0.4505
H14 H 0.2442 0.2106 0.4625
H15 H 0.1493 0.1964 0.3380
C13 C -0.2044(5) 0.16617(6) 0.3838(2)
H16 H -0.1099 0.1500 0.4078
H17 H -0.2280 0.1687 0.2991
H18 H -0.3564 0.1641 0.4033
O3 O 0.2667(2) 0.32530(2) 1.29027(11)
O4 O 0.5934(2) 0.30408(2) 1.26237(11)
H19 H 0.591(4) 0.3176(5) 1.216(2)
C14 C 0.3992(3) 0.30571(3) 1.30453(13)
C15 C 0.3595(3) 0.27918(3) 1.36826(14)
H20 H 0.5145 0.2728 1.4155
C16 C 0.1953(3) 0.28375(4) 1.45299(16)
H21 H 0.2682 0.2965 1.5142
H22 H 0.1692 0.2666 1.4890
H23 H 0.0452 0.2910 1.4090
C17 C 0.2663(3) 0.25805(3) 1.27086(14)
C18 C 0.4220(3) 0.23983(3) 1.23480(15)
H24 H 0.5829 0.2400 1.2736
C19 C 0.3407(3) 0.22143(3) 1.14180(16)
H25 H 0.4485 0.2095 1.1193
C20 C 0.1013(3) 0.22044(3) 1.08164(15)
C21 C -0.0545(3) 0.23860(3) 1.11824(15)
H26 H -0.2157 0.2383 1.0799
C22 C 0.0255(3) 0.25720(3) 1.21072(15)
H27 H -0.0822 0.2692 1.2327
C23 C 0.0102(4) 0.20046(4) 0.98081(16)
H28 H 0.1362 0.1970 0.9399
H29 H -0.1217 0.2089 0.9239
C24 C -0.0736(4) 0.17295(4) 1.0210(2)
H30 H -0.1809 0.1767 1.0737
C25 C -0.2128(6) 0.15701(6) 0.9122(3)
H31 H -0.3524 0.1672 0.8739
H32 H -0.2597 0.1395 0.9374
H33 H -0.1136 0.1543 0.8569
C26 C 0.1376(6) 0.15602(5) 1.0908(3)
H34 H 0.2387 0.1511 1.0388
H35 H 0.0793 0.1397 1.1210
H36 H 0.2271 0.1667 1.1563
O5 O 1.2915(2) 0.44348(2) -0.00675(12)
O6 O 0.9978(2) 0.47132(2) 0.01466(11)
H37 H 0.954(5) 0.4560(6) 0.050(2)
C27 C 1.1996(3) 0.46607(3) -0.01649(13)
C28 C 1.3088(3) 0.49089(3) -0.06387(14)
H38 H 1.4596 0.4849 -0.0811
C29 C 1.1462(4) 0.50079(4) -0.18160(15)
H39 H 0.9948 0.5063 -0.1681
H40 H 1.1228 0.4862 -0.2391
H41 H 1.2191 0.5161 -0.2114
C30 C 1.3677(3) 0.51302(3) 0.03189(13)
C31 C 1.1968(3) 0.53149(3) 0.05197(14)
H42 H 1.0428 0.5309 0.0037
C32 C 1.2534(3) 0.55083(3) 0.14333(14)
H43 H 1.1369 0.5631 0.1548
C33 C 1.4831(3) 0.55217(3) 0.21823(13)
C34 C 1.6541(3) 0.53424(3) 0.19584(14)
H44 H 1.8092 0.5352 0.2427
C35 C 1.5979(3) 0.51477(3) 0.10409(14)
H45 H 1.7156 0.5029 0.0912
C36 C 1.5370(3) 0.57219(3) 0.32128(14)
H46 H 1.6890 0.5673 0.3738
H47 H 1.4157 0.5703 0.3665
C37 C 1.5473(3) 0.60240(3) 0.28496(15)
H48 H 1.4036 0.6063 0.2223
C38 C 1.5460(4) 0.62122(4) 0.3909(2)
H49 H 1.4027 0.6182 0.4178
H50 H 1.5523 0.6400 0.3667
H51 H 1.6823 0.6173 0.4547
C39 C 1.7627(4) 0.60834(4) 0.2346(2)
H52 H 1.9061 0.6057 0.2958
H53 H 1.7558 0.6270 0.2069
H54 H 1.7626 0.5961 0.1691
O7 O 1.2841(2) 0.43762(3) 0.50603(13)
O8 O 1.0297(2) 0.46991(2) 0.53478(11)
H55 H 0.975(6) 0.4544(7) 0.583(3)
C40 C 1.2187(3) 0.46135(3) 0.49931(13)
C41 C 1.3487(3) 0.48339(3) 0.44584(14)
H56 H 1.5114 0.4767 0.4516
C42 C 1.2273(3) 0.48585(4) 0.31202(14)
H57 H 1.0632 0.4910 0.3029
H58 H 1.2353 0.4685 0.2735
H59 H 1.3076 0.4996 0.2762
C43 C 1.3694(3) 0.51075(3) 0.51072(13)
C44 C 1.1767(3) 0.52851(3) 0.50210(14)
H60 H 1.0264 0.5234 0.4578
C45 C 1.2069(3) 0.55387(4) 0.55907(15)
H61 H 1.0761 0.5655 0.5516
C46 C 1.4279(3) 0.56235(3) 0.62697(14)
C47 C 1.6194(3) 0.54450(3) 0.63624(15)
H62 H 1.7691 0.5496 0.6815
C48 C 1.5911(3) 0.51906(3) 0.57878(15)
H63 H 1.7222 0.5075 0.5861
C49 C 1.4601(5) 0.59017(4) 0.68843(16)
H64 H 1.6144 0.5972 0.6826
H65 H 1.3405 0.6024 0.6418
C50 C 1.4473(7) 0.59294(7) 0.8168(3)
H66 H 1.4817 0.6120 0.8421
C51 C 1.1915(5) 0.58614(6) 0.8222(3)
H67 H 1.1582 0.5673 0.8007
H68 H 1.0827 0.5977 0.7674
H69 H 1.1727 0.5892 0.9019
C52 C 1.6216(15) 0.5741(2) 0.9012(7)
H70 H 1.5966 0.5757 0.9805
H71 H 1.7823 0.5794 0.9019
H72 H 1.5954 0.5555 0.8745
N1 N 0.6415(2) 0.34068(3) 0.59194(12)
N2 N 0.8884(2) 0.43309(3) 0.15815(12)
C53 C 0.8196(3) 0.33560(3) 0.53839(14)
H73 H 0.9102 0.3198 0.5597
C54 C 0.8756(3) 0.35277(3) 0.45272(14)
H74 H 0.9993 0.3483 0.4169
C55 C 0.7437(3) 0.37683(3) 0.42108(13)
C56 C 0.5571(3) 0.38194(3) 0.47693(14)
H75 H 0.4635 0.3976 0.4582
C57 C 0.5136(3) 0.36335(3) 0.56052(15)
H76 H 0.3883 0.3669 0.5965
C58 C 1.0119(3) 0.40963(3) 0.18419(14)
H77 H 1.1294 0.4057 0.1435
C59 C 0.9736(3) 0.39088(3) 0.26879(13)
H78 H 1.0632 0.3748 0.2834
C60 C 0.7981(3) 0.39644(3) 0.33182(13)
C61 C 0.6755(3) 0.42134(3) 0.30651(14)
H79 H 0.5615 0.4263 0.3479
C62 C 0.7243(3) 0.43857(3) 0.21974(15)
H80 H 0.6384 0.4548 0.2034
N3 N 0.6415(2) 0.34201(3) 1.10720(12)
N4 N 0.8911(3) 0.43354(3) 0.67283(12)
C63 C 0.8175(3) 0.33688(3) 1.05257(15)
H81 H 0.9115 0.3214 1.0753
C64 C 0.8667(3) 0.35357(3) 0.96361(14)
H82 H 0.9898 0.3491 0.9273
C65 C 0.7290(3) 0.37711(3) 0.92932(13)
C66 C 0.5425(3) 0.38213(3) 0.98507(14)
H83 H 0.4442 0.3974 0.9638
C67 C 0.5056(3) 0.36415(3) 1.07252(15)
H84 H 0.3805 0.3677 1.1087
C68 C 1.0009(3) 0.40915(3) 0.69313(14)
H85 H 1.1145 0.4047 0.6507
C69 C 0.9535(3) 0.39020(3) 0.77431(14)
H86 H 1.0330 0.3734 0.7853
C70 C 0.7844(3) 0.39659(3) 0.83945(13)
C71 C 0.6732(3) 0.42213(3) 0.81910(14)
H87 H 0.5613 0.4273 0.8613
C72 C 0.7308(3) 0.43967(3) 0.73550(15)
H88 H 0.6539 0.4566 0.7224
C73? C 1.4601(5) 0.59017(4) 0.68843(16)
C74? C 1.3721(11) 0.58363(13) 0.8118(4)
C75? C 1.591(3) 0.5713(4) 0.8990(9)
C76? C 1.3056(12) 0.61021(12) 0.8634(5)
H89? H 1.3609 0.6041 0.6404
H90? H 1.6255 0.5961 0.7059
H91? H 1.2379 0.5707 0.7964
H92? H 1.5603 0.5701 0.9773
H93? H 1.7271 0.5828 0.9018
H94? H 1.6214 0.5533 0.8724
H95? H 1.2710 0.6067 0.9396
H96? H 1.1673 0.6179 0.8101
H97? H 1.4362 0.6229 0.8732
loop_
_geom_bond_atom_site_label_1
_geom_bond_atom_site_label_2
_geom_bond_site_symmetry_1
_geom_bond_site_symmetry_2
O1 C1 1_555 1_555
O2 H1 1_555 1_555
C1 O2 1_555 1_555
C2 C1 1_555 1_555
H2 C2 1_555 1_555
C3 C2 1_555 1_555
H3 C3 1_555 1_555
H4 C3 1_555 1_555
H5 C3 1_555 1_555
C4 C2 1_555 1_555
C5 C4 1_555 1_555
H6 C5 1_555 1_555
C6 C5 1_555 1_555
H7 C6 1_555 1_555
C7 C6 1_555 1_555
C8 C7 1_555 1_555
H8 C8 1_555 1_555
C9 C4 1_555 1_555
H9 C9 1_555 1_555
C10 C7 1_555 1_555
H10 C10 1_555 1_555
H11 C10 1_555 1_555
C11 C10 1_555 1_555
H12 C11 1_555 1_555
C12 C11 1_555 1_555
H13 C12 1_555 1_555
H14 C12 1_555 1_555
H15 C12 1_555 1_555
C13 C11 1_555 1_555
H16 C13 1_555 1_555
H17 C13 1_555 1_555
H18 C13 1_555 1_555
O3 C14 1_555 1_555
O4 H19 1_555 1_555
C14 O4 1_555 1_555
C15 C14 1_555 1_555
H20 C15 1_555 1_555
C16 C15 1_555 1_555
H21 C16 1_555 1_555
H22 C16 1_555 1_555
H23 C16 1_555 1_555
C17 C15 1_555 1_555
C18 C17 1_555 1_555
H24 C18 1_555 1_555
C19 C18 1_555 1_555
H25 C19 1_555 1_555
C20 C19 1_555 1_555
C21 C20 1_555 1_555
H26 C21 1_555 1_555
C22 C17 1_555 1_555
H27 C22 1_555 1_555
C23 C20 1_555 1_555
H28 C23 1_555 1_555
H29 C23 1_555 1_555
C24 C23 1_555 1_555
H30 C24 1_555 1_555
C25 C24 1_555 1_555
H31 C25 1_555 1_555
H32 C25 1_555 1_555
H33 C25 1_555 1_555
C26 C24 1_555 1_555
H34 C26 1_555 1_555
H35 C26 1_555 1_555
H36 C26 1_555 1_555
O5 C27 1_555 1_555
O6 H37 1_555 1_555
C27 O6 1_555 1_555
C28 C27 1_555 1_555
H38 C28 1_555 1_555
C29 C28 1_555 1_555
H39 C29 1_555 1_555
H40 C29 1_555 1_555
H41 C29 1_555 1_555
C30 C28 1_555 1_555
C31 C30 1_555 1_555
H42 C31 1_555 1_555
C32 C31 1_555 1_555
H43 C32 1_555 1_555
C33 C32 1_555 1_555
C34 C33 1_555 1_555
H44 C34 1_555 1_555
C35 C30 1_555 1_555
H45 C35 1_555 1_555
C36 C33 1_555 1_555
H46 C36 1_555 1_555
H47 C36 1_555 1_555
C37 C36 1_555 1_555
H48 C37 1_555 1_555
C38 C37 1_555 1_555
H49 C38 1_555 1_555
H50 C38 1_555 1_555
H51 C38 1_555 1_555
C39 C37 1_555 1_555
H52 C39 1_555 1_555
H53 C39 1_555 1_555
H54 C39 1_555 1_555
O7 C40 1_555 1_555
O8 H55 1_555 1_555
C40 O8 1_555 1_555
C41 C40 1_555 1_555
H56 C41 1_555 1_555
C42 C41 1_555 1_555
H57 C42 1_555 1_555
H58 C42 1_555 1_555
H59 C42 1_555 1_555
C43 C41 1_555 1_555
C44 C43 1_555 1_555
H60 C44 1_555 1_555
C45 C44 1_555 1_555
H61 C45 1_555 1_555
C46 C45 1_555 1_555
C47 C46 1_555 1_555
H62 C47 1_555 1_555
C48 C43 1_555 1_555
H63 C48 1_555 1_555
C49 C46 1_555 1_555
H64 C49 1_555 1_555
H65 C49 1_555 1_555
C50 C49 1_555 1_555
H66 C50 1_555 1_555
C51 C50 1_555 1_555
H67 C51 1_555 1_555
H68 C51 1_555 1_555
H69 C51 1_555 1_555
C52 C50 1_555 1_555
H70 C52 1_555 1_555
H71 C52 1_555 1_555
H72 C52 1_555 1_555
N1 C53 1_555 1_555
N2 C58 1_555 1_555
C53 H73 1_555 1_555
C54 C53 1_555 1_555
H74 C54 1_555 1_555
C55 C54 1_555 1_555
C56 C55 1_555 1_555
H75 C56 1_555 1_555
C57 N1 1_555 1_555
H76 C57 1_555 1_555
C58 H77 1_555 1_555
C59 C58 1_555 1_555
H78 C59 1_555 1_555
C60 C55 1_555 1_555
C61 C60 1_555 1_555
H79 C61 1_555 1_555
C62 N2 1_555 1_555
H80 C62 1_555 1_555
N3 C63 1_555 1_555
N4 C68 1_555 1_555
C63 H81 1_555 1_555
C64 C63 1_555 1_555
H82 C64 1_555 1_555
C65 C64 1_555 1_555
C66 C65 1_555 1_555
H83 C66 1_555 1_555
C67 N3 1_555 1_555
H84 C67 1_555 1_555
C68 H85 1_555 1_555
C69 C68 1_555 1_555
H86 C69 1_555 1_555
C70 C65 1_555 1_555
C71 C70 1_555 1_555
H87 C71 1_555 1_555
C72 N4 1_555 1_555
H88 C72 1_555 1_555
C8 C9 1_555 1_555
C21 C22 1_555 1_555
C34 C35 1_555 1_555
C47 C48 1_555 1_555
C56 C57 1_555 1_555
C59 C60 1_555 1_555
C61 C62 1_555 1_555
C66 C67 1_555 1_555
C69 C70 1_555 1_555
C71 C72 1_555 1_555

#END
