
#######################################################################
#
#                 Cambridge Crystallographic Data Centre
#                                CCDC 
#
#######################################################################
#
# If this CIF has been generated from an entry in the Cambridge 
# Structural Database, then it will include bibliographic, chemical, 
# crystal, experimental, refinement or atomic coordinate data resulting 
# from the CCDC's data processing and validation procedures.
#
#######################################################################

data_IJIKAP
_chemical_formula_moiety         'C21 H18 Br1 N1 O4 S2 Se1'
_chemical_name_systematic        
N-(3-Bromo-2-(phenylselanyl)prop-1-en-1-yl)-N-(phenylsulfonyl)benzenesulfonamide
_symmetry_cell_setting           monoclinic
_symmetry_space_group_name_H-M   'P 21/c'
_symmetry_Int_Tables_number      14
_space_group_name_Hall           '-P 2ybc'
loop_
_symmetry_equiv_pos_site_id
_symmetry_equiv_pos_as_xyz
1 x,y,z
2 -x,1/2+y,1/2-z
3 -x,-y,-z
4 x,1/2-y,1/2+z
_cell_length_a                   9.293
_cell_length_b                   21.482
_cell_length_c                   11.733
_cell_angle_alpha                90
_cell_angle_beta                 109.27
_cell_angle_gamma                90
_cell_volume                     2211.06
_exptl_crystal_colour            colorless
_exptl_crystal_description       block
_cell_formula_units_Z            4
loop_
_atom_site_label
_atom_site_type_symbol
_atom_site_fract_x
_atom_site_fract_y
_atom_site_fract_z
Se1 Se 0.03090(9) 0.16385(4) 0.72629(7)
Br1 Br -0.13311(11) 0.15457(4) 0.97150(8)
S1 S 0.0994(2) 0.37754(9) 0.93601(18)
S2 S -0.2335(2) 0.36309(9) 0.81550(18)
O1 O 0.2143(7) 0.3356(3) 1.0027(6)
O2 O -0.3189(7) 0.3144(3) 0.7425(6)
N1 N -0.0550(7) 0.3325(3) 0.8687(6)
C1 C 0.0388(9) 0.2076(4) 0.9676(7)
H1 H 0.0441 0.2445 1.0164
H2 H 0.1340 0.1850 1.0001
O3 O 0.0457(7) 0.4253(3) 0.9951(5)
O4 O -0.2289(7) 0.4226(3) 0.7641(6)
C2 C 0.0148(9) 0.2257(3) 0.8402(7)
C3 C 0.2337(9) 0.1359(4) 0.8142(7)
C4 C 0.4137(10) 0.0513(4) 0.8606(8)
H3 H 0.4397 0.0109 0.8470
C5 C 0.4853(10) 0.1504(4) 0.9590(8)
H4 H 0.5572 0.1758 1.0128
C6 C -0.0282(8) 0.2818(3) 0.7942(7)
H5 H -0.0417 0.2891 0.7132
C7 C -0.3303(9) 0.3166(4) 0.9936(8)
H6 H -0.3161 0.2775 0.9652
C8 C -0.2916(9) 0.3703(4) 0.9422(7)
C9 C -0.3891(11) 0.3221(5) 1.0861(9)
H7 H -0.4147 0.2866 1.1206
C10 C 0.2669(11) 0.3760(4) 0.7852(9)
H8 H 0.3126 0.3401 0.8256
C11 C -0.3090(10) 0.4304(4) 0.9841(8)
H9 H -0.2795 0.4659 0.9522
C12 C 0.2691(9) 0.0738(4) 0.7966(7)
H10 H 0.1972 0.0482 0.7432
C13 C 0.5198(10) 0.0882(4) 0.9443(8)
H11 H 0.6134 0.0716 0.9904
C14 C 0.3410(9) 0.1743(4) 0.8919(7)
H12 H 0.3181 0.2159 0.9000
C15 C -0.4105(12) 0.3808(5) 1.1284(10)
H13 H -0.4498 0.3844 1.1914
C16 C 0.1556(10) 0.4086(4) 0.8187(8)
C17 C 0.3058(12) 0.4004(5) 0.6866(9)
H14 H 0.3788 0.3804 0.6613
C18 C -0.3737(12) 0.4338(5) 1.0771(10)
H15 H -0.3920 0.4726 1.1046
C19 C 0.2369(13) 0.4530(5) 0.6291(10)
H16 H 0.2622 0.4674 0.5634
C20 C 0.1298(14) 0.4861(6) 0.6650(11)
H17 H 0.0864 0.5224 0.6251
C21 C 0.0885(12) 0.4637(5) 0.7626(9)
H18 H 0.0183 0.4850 0.7890
loop_
_geom_bond_atom_site_label_1
_geom_bond_atom_site_label_2
_geom_bond_site_symmetry_1
_geom_bond_site_symmetry_2
Se1 C2 1_555 1_555
Br1 C1 1_555 1_555
S1 O1 1_555 1_555
S2 O2 1_555 1_555
N1 S1 1_555 1_555
C1 H1 1_555 1_555
H2 C1 1_555 1_555
O3 S1 1_555 1_555
O4 S2 1_555 1_555
C2 C1 1_555 1_555
C3 Se1 1_555 1_555
C4 H3 1_555 1_555
C5 H4 1_555 1_555
C6 N1 1_555 1_555
H5 C6 1_555 1_555
C7 H6 1_555 1_555
C8 S2 1_555 1_555
C9 C7 1_555 1_555
H7 C9 1_555 1_555
C10 H8 1_555 1_555
C11 C8 1_555 1_555
H9 C11 1_555 1_555
C12 C3 1_555 1_555
H10 C12 1_555 1_555
C13 C4 1_555 1_555
H11 C13 1_555 1_555
C14 C3 1_555 1_555
H12 C14 1_555 1_555
C15 C9 1_555 1_555
H13 C15 1_555 1_555
C16 S1 1_555 1_555
C17 C10 1_555 1_555
H14 C17 1_555 1_555
C18 C11 1_555 1_555
H15 C18 1_555 1_555
C19 C17 1_555 1_555
H16 C19 1_555 1_555
C20 C19 1_555 1_555
H17 C20 1_555 1_555
C21 C16 1_555 1_555
H18 C21 1_555 1_555
S2 N1 1_555 1_555
C2 C6 1_555 1_555
C4 C12 1_555 1_555
C5 C13 1_555 1_555
C5 C14 1_555 1_555
C7 C8 1_555 1_555
C10 C16 1_555 1_555
C15 C18 1_555 1_555
C20 C21 1_555 1_555

#END
