
#######################################################################
#
#                 Cambridge Crystallographic Data Centre
#                                CCDC 
#
#######################################################################
#
# If this CIF has been generated from an entry in the Cambridge 
# Structural Database, then it will include bibliographic, chemical, 
# crystal, experimental, refinement or atomic coordinate data resulting 
# from the CCDC's data processing and validation procedures.
#
#######################################################################

data_IJINOG
_chemical_formula_moiety         'C21 H27 N1 Si2'
_chemical_name_systematic        
1-(4-Methylphenyl)-2,5-bis((trimethylsilyl)ethynyl)-1H-pyrrole
_symmetry_cell_setting           orthorhombic
_symmetry_space_group_name_H-M   'P b c a'
_symmetry_Int_Tables_number      61
_space_group_name_Hall           '-P 2ac 2ab'
loop_
_symmetry_equiv_pos_site_id
_symmetry_equiv_pos_as_xyz
1 x,y,z
2 1/2-x,-y,1/2+z
3 -x,1/2+y,1/2-z
4 1/2+x,1/2-y,-z
5 -x,-y,-z
6 1/2+x,y,1/2-z
7 x,1/2-y,1/2+z
8 1/2-x,1/2+y,z
_cell_length_a                   11.2401(7)
_cell_length_b                   16.1507(10)
_cell_length_c                   23.6568(15)
_cell_angle_alpha                90
_cell_angle_beta                 90
_cell_angle_gamma                90
_cell_volume                     4294.55
_exptl_crystal_colour            colorless
_exptl_crystal_description       block
_cell_formula_units_Z            8
loop_
_atom_site_label
_atom_site_type_symbol
_atom_site_fract_x
_atom_site_fract_y
_atom_site_fract_z
C1 C 0.37760(15) -0.03624(11) 0.32642(7)
C2 C 0.26236(16) -0.00808(11) 0.33112(8)
H1 H 0.1975 -0.0263 0.3101
C3 C 0.26023(16) 0.05279(12) 0.37309(8)
H2 H 0.1935 0.0819 0.3850
C4 C 0.37369(15) 0.06217(11) 0.39368(7)
C5 C 0.42319(15) -0.10054(11) 0.29158(7)
C6 C 0.45478(16) -0.15586(12) 0.26134(8)
C7 C 0.36643(18) -0.25900(13) 0.16661(9)
H3 H 0.3489 -0.2080 0.1475
H4 H 0.2982 -0.2763 0.1879
H5 H 0.3861 -0.3007 0.1393
C8 C 0.5196(2) -0.33619(12) 0.25971(9)
H6 H 0.5456 -0.3814 0.2364
H7 H 0.4469 -0.3511 0.2784
H8 H 0.5795 -0.3240 0.2874
C9 C 0.63137(18) -0.21856(13) 0.17586(10)
H9 H 0.6168 -0.1727 0.1510
H10 H 0.6557 -0.2658 0.1541
H11 H 0.6931 -0.2042 0.2021
C10 C 0.41750(15) 0.11712(11) 0.43551(8)
C11 C 0.45504(16) 0.16327(11) 0.47110(8)
C12 C 0.4292(2) 0.23886(14) 0.58660(9)
H12 H 0.3591 0.2686 0.5755
H13 H 0.4698 0.2690 0.6158
H14 H 0.4071 0.1852 0.6005
C13 C 0.5617(2) 0.32900(14) 0.49363(10)
H15 H 0.6098 0.3217 0.4605
H16 H 0.6038 0.3624 0.5206
H17 H 0.4886 0.3559 0.4835
C14 C 0.6679(2) 0.17172(16) 0.54364(11)
H18 H 0.6488 0.1186 0.5594
H19 H 0.7117 0.2036 0.5708
H20 H 0.7153 0.1644 0.5103
C15 C 0.57261(15) 0.00183(10) 0.37073(7)
C16 C 0.62314(16) -0.00511(11) 0.42359(8)
H21 H 0.5752 -0.0092 0.4555
C17 C 0.74588(17) -0.00597(12) 0.42884(8)
H22 H 0.7799 -0.0098 0.4646
C18 C 0.81877(16) -0.00125(11) 0.38185(9)
C19 C 0.76572(16) 0.00311(11) 0.32905(8)
H23 H 0.8133 0.0046 0.2969
C20 C 0.64395(16) 0.00526(11) 0.32323(8)
H24 H 0.6098 0.0090 0.2875
C21 C 0.95204(17) -0.00041(14) 0.38702(10)
H25 H 0.9738 0.0024 0.4262
H26 H 0.9833 0.0469 0.3675
H27 H 0.9841 -0.0500 0.3707
N1 N 0.44632(12) 0.00713(8) 0.36487(6)
Si1 Si 0.49385(4) -0.24349(3) 0.21498(2)
Si2 Si 0.52862(5) 0.22694(4) 0.52508(2)
loop_
_geom_bond_atom_site_label_1
_geom_bond_atom_site_label_2
_geom_bond_site_symmetry_1
_geom_bond_site_symmetry_2
C1 C2 1_555 1_555
C2 H1 1_555 1_555
C3 C2 1_555 1_555
H2 C3 1_555 1_555
C4 C3 1_555 1_555
C5 C1 1_555 1_555
C6 C5 1_555 1_555
C7 H3 1_555 1_555
H4 C7 1_555 1_555
H5 C7 1_555 1_555
C8 H6 1_555 1_555
H7 C8 1_555 1_555
H8 C8 1_555 1_555
C9 H9 1_555 1_555
H10 C9 1_555 1_555
H11 C9 1_555 1_555
C10 C4 1_555 1_555
C11 C10 1_555 1_555
C12 H12 1_555 1_555
H13 C12 1_555 1_555
H14 C12 1_555 1_555
C13 H15 1_555 1_555
H16 C13 1_555 1_555
H17 C13 1_555 1_555
C14 H18 1_555 1_555
H19 C14 1_555 1_555
H20 C14 1_555 1_555
C15 C16 1_555 1_555
C16 H21 1_555 1_555
C17 C16 1_555 1_555
H22 C17 1_555 1_555
C18 C17 1_555 1_555
C19 C18 1_555 1_555
H23 C19 1_555 1_555
C20 C15 1_555 1_555
H24 C20 1_555 1_555
C21 C18 1_555 1_555
H25 C21 1_555 1_555
H26 C21 1_555 1_555
H27 C21 1_555 1_555
N1 C1 1_555 1_555
Si1 C6 1_555 1_555
Si2 C11 1_555 1_555
C4 N1 1_555 1_555
C7 Si1 1_555 1_555
C8 Si1 1_555 1_555
C9 Si1 1_555 1_555
C12 Si2 1_555 1_555
C13 Si2 1_555 1_555
C14 Si2 1_555 1_555
C15 N1 1_555 1_555
C19 C20 1_555 1_555

#END
