
#######################################################################
#
#                 Cambridge Crystallographic Data Centre
#                                CCDC 
#
#######################################################################
#
# If this CIF has been generated from an entry in the Cambridge 
# Structural Database, then it will include bibliographic, chemical, 
# crystal, experimental, refinement or atomic coordinate data resulting 
# from the CCDC's data processing and validation procedures.
#
#######################################################################

data_IJIPOH
_chemical_formula_moiety         'C38 H38 N6 2+,2(Br1 1-),C2 H3 N1'
_chemical_name_systematic        
"3,3'-((2,3,5,6-Tetramethylbenzene-1,4-diyl)bis(methylene))bis(1-(2-pyridylmethyl)-1H-benzimidazol-3-ium) dibromide acetonitrile solvate"
_symmetry_cell_setting           monoclinic
_symmetry_space_group_name_H-M   'P 21/c'
_symmetry_Int_Tables_number      14
_space_group_name_Hall           '-P 2ybc'
loop_
_symmetry_equiv_pos_site_id
_symmetry_equiv_pos_as_xyz
1 x,y,z
2 -x,1/2+y,1/2-z
3 -x,-y,-z
4 x,1/2-y,1/2+z
_cell_length_a                   14.7807(7)
_cell_length_b                   14.6784(7)
_cell_length_c                   18.5397(9)
_cell_angle_alpha                90
_cell_angle_beta                 111.032(1)
_cell_angle_gamma                90
_cell_volume                     3754.35
_exptl_crystal_colour            brown
_exptl_crystal_description       block
_chemical_melting_point          '324-326 deg.C'
_cell_formula_units_Z            4
loop_
_atom_site_label
_atom_site_type_symbol
_atom_site_fract_x
_atom_site_fract_y
_atom_site_fract_z
Br1 Br 0.25655(3) 0.79382(3) 0.32118(3)
Br2 Br 0.42225(4) 0.21335(3) 0.24727(3)
N1 N 0.1066(3) 0.3251(3) 0.1738(2)
N2 N 0.2447(2) 0.4143(2) 0.13643(17)
N3 N 0.3118(2) 0.51724(19) 0.22386(16)
N4 N 0.4261(2) 0.19774(18) 0.50309(16)
N5 N 0.3453(2) 0.09730(19) 0.41683(16)
N6 N 0.1578(2) 0.1624(2) 0.3679(2)
C1 C 0.1296(3) 0.2876(3) 0.1180(2)
C2 C 0.0311(5) 0.2885(4) 0.1884(4)
H1 H 0.0136 0.3147 0.2272
C3 C -0.0202(4) 0.2166(4) 0.1503(4)
H2 H -0.0712 0.1937 0.1631
C4 C 0.0033(4) 0.1774(4) 0.0928(4)
H3 H -0.0309 0.1272 0.0661
C5 C 0.0796(4) 0.2140(3) 0.0743(3)
H4 H 0.0964 0.1901 0.0344
C6 C 0.2157(3) 0.3253(3) 0.1023(2)
H5 H 0.2698 0.2835 0.1227
H6 H 0.1999 0.3295 0.0469
C7 C 0.2125(3) 0.4977(3) 0.1021(2)
C8 C 0.2566(3) 0.5643(3) 0.1567(2)
C9 C 0.2461(3) 0.6567(3) 0.1408(2)
H7 H 0.2766 0.7008 0.1775
C10 C 0.1870(4) 0.6784(4) 0.0664(3)
H8 H 0.1778 0.7394 0.0522
C11 C 0.1402(4) 0.6117(4) 0.0114(3)
H9 H 0.0998 0.6299 -0.0377
C12 C 0.1522(3) 0.5212(4) 0.0279(2)
H10 H 0.1215 0.4772 -0.0088
C13 C 0.3025(3) 0.4290(3) 0.2083(2)
H11 H 0.3328 0.3834 0.2435
C14 C 0.3714(3) 0.5604(2) 0.2982(2)
H12 H 0.3353 0.6098 0.3098
H13 H 0.4298 0.5857 0.2937
C15 C 0.3986(2) 0.4910(2) 0.36337(19)
C16 C 0.4893(2) 0.4492(2) 0.38762(19)
C17 C 0.5120(2) 0.3820(2) 0.44542(19)
C18 C 0.4441(3) 0.3599(2) 0.47945(19)
C19 C 0.3524(3) 0.4013(2) 0.4540(2)
C20 C 0.3290(2) 0.4670(2) 0.3958(2)
C21 C 0.5630(3) 0.4712(3) 0.3511(3)
H14 H 0.5629 0.4240 0.3152
H15 H 0.6263 0.4753 0.3905
H16 H 0.5468 0.5283 0.3243
C22 C 0.6078(3) 0.3320(3) 0.4667(3)
H17 H 0.6116 0.2862 0.5046
H18 H 0.6601 0.3745 0.4875
H19 H 0.6123 0.3037 0.4214
C23 C 0.2774(3) 0.3723(3) 0.4881(3)
H20 H 0.2398 0.3226 0.4585
H21 H 0.2353 0.4226 0.4866
H22 H 0.3096 0.3533 0.5406
C24 C 0.2288(3) 0.5096(3) 0.3648(3)
H23 H 0.1823 0.4645 0.3372
H24 H 0.2285 0.5588 0.3306
H25 H 0.2124 0.5324 0.4071
C25 C 0.4667(3) 0.2848(2) 0.5392(2)
H26 H 0.5364 0.2791 0.5644
H27 H 0.4398 0.3003 0.5782
C26 C 0.4336(2) 0.1148(2) 0.54184(19)
C27 C 0.3819(2) 0.0511(2) 0.4869(2)
C28 C 0.3771(3) -0.0406(2) 0.5046(2)
H28 H 0.3422 -0.0829 0.4678
C29 C 0.4276(3) -0.0643(3) 0.5803(2)
H29 H 0.4266 -0.1247 0.5952
C30 C 0.4800(3) -0.0009(3) 0.6352(2)
H30 H 0.5133 -0.0205 0.6855
C31 C 0.4844(3) 0.0905(2) 0.6178(2)
H31 H 0.5193 0.1327 0.6547
C32 C 0.3731(2) 0.1839(2) 0.4293(2)
H32 H 0.3573 0.2288 0.3914
C33 C 0.2744(3) 0.0626(3) 0.3450(2)
H33 H 0.2836 -0.0024 0.3412
H34 H 0.2839 0.0919 0.3013
C34 C 0.1727(3) 0.0809(3) 0.3424(2)
C35 C 0.0672(4) 0.1802(4) 0.3649(3)
H35 H 0.0551 0.2365 0.3826
C36 C -0.0074(4) 0.1206(4) 0.3375(3)
H36 H -0.0693 0.1368 0.3349
C37 C 0.0093(3) 0.0374(4) 0.3141(3)
H37 H -0.0406 -0.0050 0.2965
C38 C 0.1016(3) 0.0157(3) 0.3166(2)
H38 H 0.1151 -0.0415 0.3013
N7 N 1.0030(5) 0.0806(5) 0.8983(4)
C39 C 0.9244(6) 0.0669(5) 0.8843(4)
C40 C 0.8264(5) 0.0441(6) 0.8680(6)
H39 H 0.8134 -0.0149 0.8441
H40 H 0.7855 0.0885 0.8336
H41 H 0.8135 0.0430 0.9152
loop_
_geom_bond_atom_site_label_1
_geom_bond_atom_site_label_2
_geom_bond_site_symmetry_1
_geom_bond_site_symmetry_2
N1 C1 1_555 1_555
N2 C6 1_555 1_555
N3 C8 1_555 1_555
N4 C25 1_555 1_555
N5 C27 1_555 1_555
N6 C34 1_555 1_555
C1 C5 1_555 1_555
C2 N1 1_555 1_555
H1 C2 1_555 1_555
C3 C2 1_555 1_555
H2 C3 1_555 1_555
C4 C3 1_555 1_555
H3 C4 1_555 1_555
C5 C4 1_555 1_555
H4 C5 1_555 1_555
C6 C1 1_555 1_555
H5 C6 1_555 1_555
H6 C6 1_555 1_555
C7 N2 1_555 1_555
C8 C7 1_555 1_555
C9 C8 1_555 1_555
H7 C9 1_555 1_555
C10 C9 1_555 1_555
H8 C10 1_555 1_555
C11 C10 1_555 1_555
H9 C11 1_555 1_555
C12 C7 1_555 1_555
H10 C12 1_555 1_555
C13 N2 1_555 1_555
H11 C13 1_555 1_555
C14 N3 1_555 1_555
H12 C14 1_555 1_555
H13 C14 1_555 1_555
C15 C14 1_555 1_555
C16 C15 1_555 1_555
C17 C16 1_555 1_555
C18 C17 1_555 1_555
C19 C18 1_555 1_555
C20 C15 1_555 1_555
C21 C16 1_555 1_555
H14 C21 1_555 1_555
H15 C21 1_555 1_555
H16 C21 1_555 1_555
C22 C17 1_555 1_555
H17 C22 1_555 1_555
H18 C22 1_555 1_555
H19 C22 1_555 1_555
C23 C19 1_555 1_555
H20 C23 1_555 1_555
H21 C23 1_555 1_555
H22 C23 1_555 1_555
C24 C20 1_555 1_555
H23 C24 1_555 1_555
H24 C24 1_555 1_555
H25 C24 1_555 1_555
C25 C18 1_555 1_555
H26 C25 1_555 1_555
H27 C25 1_555 1_555
C26 N4 1_555 1_555
C27 C26 1_555 1_555
C28 C27 1_555 1_555
H28 C28 1_555 1_555
C29 C28 1_555 1_555
H29 C29 1_555 1_555
C30 C29 1_555 1_555
H30 C30 1_555 1_555
C31 C26 1_555 1_555
H31 C31 1_555 1_555
C32 N4 1_555 1_555
H32 C32 1_555 1_555
C33 N5 1_555 1_555
H33 C33 1_555 1_555
H34 C33 1_555 1_555
C34 C33 1_555 1_555
C35 N6 1_555 1_555
H35 C35 1_555 1_555
C36 C35 1_555 1_555
H36 C36 1_555 1_555
C37 C36 1_555 1_555
H37 C37 1_555 1_555
C38 C34 1_555 1_555
H38 C38 1_555 1_555
N7 C39 1_555 1_555
C39 C40 1_555 1_555
C40 H39 1_555 1_555
H40 C40 1_555 1_555
H41 C40 1_555 1_555
N3 C13 1_555 1_555
N5 C32 1_555 1_555
C11 C12 1_555 1_555
C19 C20 1_555 1_555
C30 C31 1_555 1_555
C37 C38 1_555 1_555

#END
