
#######################################################################
#
#                 Cambridge Crystallographic Data Centre
#                                CCDC 
#
#######################################################################
#
# If this CIF has been generated from an entry in the Cambridge 
# Structural Database, then it will include bibliographic, chemical, 
# crystal, experimental, refinement or atomic coordinate data resulting 
# from the CCDC's data processing and validation procedures.
#
#######################################################################

data_IJIQUO
_chemical_formula_moiety         
'C51 H62 N6 O12 S4,0.67(C1 H2 Cl2),1.17(C1 H4 O1)'
_chemical_name_systematic        
'5,11,17,23-Tetra-t-butyl-25,26,27-tris(N-carbamoylcarbamoylmethoxy)-28-carboxymethoxy-2,8,14,20-tetrathiacalix(4)arene dichloromethane methanol solvate'
_symmetry_cell_setting           rhombohedral
_symmetry_space_group_name_H-M   'R -3'
_symmetry_Int_Tables_number      148
_space_group_name_Hall           '-R 3'
loop_
_symmetry_equiv_pos_site_id
_symmetry_equiv_pos_as_xyz
1 x,y,z
2 -y,x-y,z
3 -x+y,-x,z
4 2/3+x,1/3+y,1/3+z
5 2/3-y,1/3+x-y,1/3+z
6 2/3-x+y,1/3-x,1/3+z
7 1/3+x,2/3+y,2/3+z
8 1/3-y,2/3+x-y,2/3+z
9 1/3-x+y,2/3-x,2/3+z
10 -x,-y,-z
11 y,-x+y,-z
12 x-y,x,-z
13 1/3-x,2/3-y,2/3-z
14 1/3+y,2/3-x+y,2/3-z
15 1/3+x-y,2/3+x,2/3-z
16 2/3-x,1/3-y,1/3-z
17 2/3+y,1/3-x+y,1/3-z
18 2/3+x-y,1/3+x,1/3-z
_cell_length_a                   20.3779(12)
_cell_length_b                   20.3779(12)
_cell_length_c                   76.563(9)
_cell_angle_alpha                90
_cell_angle_beta                 90
_cell_angle_gamma                120
_cell_volume                     27533.9
_exptl_crystal_colour            colorless
_exptl_crystal_description       plate
_chemical_melting_point          'above 300 deg.C'
_cell_formula_units_Z            18
loop_
_atom_site_label
_atom_site_type_symbol
_atom_site_fract_x
_atom_site_fract_y
_atom_site_fract_z
C1 C 0.8702(2) 0.7882(2) 0.08594(5)
C2 C 0.9120(2) 0.7869(3) 0.10035(6)
H1 H 0.9320 0.8277 0.1080
C3 C 0.9248(2) 0.7282(3) 0.10359(6)
C4 C 0.8921(2) 0.6672(3) 0.09230(5)
H2 H 0.8974 0.6253 0.0946
C5 C 0.8518(2) 0.6660(2) 0.07764(5)
C6 C 0.8428(2) 0.7280(2) 0.07385(5)
C7 C 0.9742(3) 0.7310(3) 0.11897(6)
C8 C 0.9295(5) 0.6660(5) 0.13142(12)
H3 H 0.9600 0.6714 0.1415
H4 H 0.9155 0.6190 0.1257
H5 H 0.8847 0.6665 0.1350
C9 C 1.0448(4) 0.7319(6) 0.11192(10)
H6 H 1.0312 0.6825 0.1076
H7 H 1.0813 0.7456 0.1211
H8 H 1.0662 0.7682 0.1026
C10 C 1.0025(6) 0.8055(5) 0.12999(12)
H9 H 0.9596 0.8070 0.1347
H10 H 1.0310 0.8488 0.1226
H11 H 1.0341 0.8062 0.1394
C11 C 0.8369(3) 0.7898(2) 0.04766(5)
H12 H 0.8818 0.8300 0.0532
H13 H 0.8013 0.8078 0.0461
C12 C 0.8581(3) 0.7746(3) 0.03026(6)
C13 C 0.8754(3) 0.6822(4) 0.01256(6)
C14 C 0.7242(2) 0.5445(2) 0.06112(5)
C15 C 0.6944(2) 0.5261(2) 0.04420(5)
H14 H 0.7274 0.5428 0.0347
C16 C 0.6168(2) 0.4836(2) 0.04110(5)
C17 C 0.5700(2) 0.4620(2) 0.05565(5)
H15 H 0.5178 0.4344 0.0540
C18 C 0.5974(2) 0.4797(2) 0.07255(5)
C19 C 0.6754(2) 0.5188(2) 0.07550(5)
C20 C 0.5859(2) 0.4582(2) 0.02259(5)
C21 C 0.5050(3) 0.4449(3) 0.02107(6)
H16 H 0.5034 0.4878 0.0257
H17 H 0.4709 0.4003 0.0275
H18 H 0.4901 0.4382 0.0090
C22 C 0.5837(3) 0.3832(3) 0.01915(7)
H19 H 0.5677 0.3673 0.0074
H20 H 0.5487 0.3453 0.0271
H21 H 0.6333 0.3898 0.0209
C23 C 0.6365(3) 0.5153(3) 0.00899(6)
H22 H 0.6429 0.5642 0.0117
H23 H 0.6136 0.4997 -0.0023
H24 H 0.6850 0.5183 0.0090
C24 C 0.7201(3) 0.4713(3) 0.09778(6)
H25 H 0.7620 0.4758 0.0908
H26 H 0.6762 0.4223 0.0952
C25 C 0.7391(4) 0.4736(4) 0.11629(9)
C26 C 0.7518(4) 0.5386(5) 0.14458(11)
C27 C 0.5479(2) 0.5161(2) 0.10388(5)
C28 C 0.5385(2) 0.4997(2) 0.12181(5)
H27 H 0.5321 0.4535 0.1256
C29 C 0.5381(2) 0.5487(3) 0.13401(5)
C30 C 0.5494(2) 0.6169(3) 0.12792(6)
H28 H 0.5499 0.6514 0.1359
C31 C 0.5601(2) 0.6369(2) 0.11058(6)
C32 C 0.5596(2) 0.5861(2) 0.09836(5)
C33 C 0.5216(3) 0.5271(3) 0.15328(6)
C34 C 0.5845(6) 0.5916(7) 0.16379(19)
H29 H 0.6320 0.5946 0.1613
H30 H 0.5737 0.5823 0.1760
H31 H 0.5872 0.6386 0.1607
C35 C 0.4474(5) 0.5333(7) 0.15748(15)
H32 H 0.4050 0.4950 0.1511
H33 H 0.4563 0.5824 0.1541
H34 H 0.4368 0.5263 0.1698
C36 C 0.5034(8) 0.4494(5) 0.15771(17)
H35 H 0.4615 0.4139 0.1507
H36 H 0.4901 0.4400 0.1699
H37 H 0.5466 0.4438 0.1554
C37 C 0.4985(3) 0.5819(3) 0.07199(6)
H38 H 0.4714 0.6028 0.0781
H39 H 0.4675 0.5271 0.0723
C38 C 0.5111(3) 0.6080(3) 0.05355(7)
C39 C 0.6140(4) 0.6814(3) 0.03159(6)
C40 C 0.6338(3) 0.7719(2) 0.08921(6)
C41 C 0.6184(3) 0.8080(3) 0.07615(6)
H40 H 0.5685 0.7962 0.0746
C42 C 0.6732(3) 0.8613(2) 0.06510(6)
C43 C 0.7458(3) 0.8749(2) 0.06761(5)
H41 H 0.7842 0.9095 0.0604
C44 C 0.7641(2) 0.8389(2) 0.08058(6)
C45 C 0.7078(3) 0.7877(2) 0.09161(5)
C46 C 0.6534(3) 0.9028(3) 0.05124(7)
C47 C 0.6180(6) 0.9456(5) 0.06082(13)
H42 H 0.6524 0.9781 0.0696
H43 H 0.5710 0.9095 0.0662
H44 H 0.6089 0.9755 0.0525
C48 C 0.5965(7) 0.8479(7) 0.03827(15)
H45 H 0.5543 0.8082 0.0444
H46 H 0.6200 0.8264 0.0312
H47 H 0.5791 0.8742 0.0309
C49 C 0.7251(4) 0.9660(6) 0.04224(14)
H48 H 0.7110 0.9928 0.0342
H49 H 0.7502 0.9438 0.0361
H50 H 0.7587 1.0005 0.0509
C50 C 0.7511(3) 0.7926(3) 0.11996(6)
H51 H 0.7131 0.8033 0.1246
H52 H 0.7962 0.8406 0.1174
C51 C 0.7697(4) 0.7511(5) 0.13351(8)
N1 N 0.85200(19) 0.7072(2) 0.02716(4)
H53 H 0.8306 0.6741 0.0353
N2 N 0.9132(3) 0.7333(2) 0.00046(5)
H54 H 0.9294 0.7211 -0.0086
H55 H 0.9217 0.7789 0.0017
N3 N 0.7311(2) 0.5233(3) 0.12625(7)
H56 H 0.7121 0.5481 0.1214
N4 N 0.7703(4) 0.4920(4) 0.15303(7)
H57 H 0.7793 0.4973 0.1641
H58 H 0.7731 0.4571 0.1474
N5 N 0.5844(2) 0.6480(2) 0.04809(5)
H59 H 0.6177 0.6538 0.0558
N6 N 0.5608(2) 0.6723(2) 0.02002(5)
H60 H 0.5739 0.6934 0.0099
H61 H 0.5137 0.6454 0.0227
O1 O 0.80369(14) 0.72552(15) 0.05904(3)
O2 O 0.8770(3) 0.8233(2) 0.01908(5)
O3 O 0.8605(2) 0.6169(2) 0.01211(4)
O4 O 0.70378(15) 0.53030(15) 0.09242(3)
O5 O 0.7626(3) 0.4330(3) 0.12165(5)
O6 O 0.7465(4) 0.5905(3) 0.15175(7)
O7 O 0.56860(16) 0.60449(15) 0.08074(3)
O8 O 0.4576(2) 0.5935(2) 0.04430(5)
O9 O 0.6805(2) 0.7169(2) 0.02949(4)
O10 O 0.72400(17) 0.75085(16) 0.10454(4)
O11 O 0.8068(3) 0.7831(3) 0.14638(6)
O12 O 0.7374(3) 0.6782(3) 0.13024(6)
H62 H 0.7471 0.6572 0.1382
S1 S 0.86208(7) 0.87101(6) 0.084001(15)
S2 S 0.82430(6) 0.59007(6) 0.062867(14)
S3 S 0.53120(6) 0.44070(6) 0.089758(14)
S4 S 0.56052(8) 0.72112(7) 0.104549(18)
C52? C 1.0550(7) 0.7953(11) 0.1159(3)
C53? C 0.5490(9) 0.5898(11) 0.1667(3)
C54? C 0.4377(6) 0.4683(11) 0.1561(3)
C55? C 0.5640(8) 0.4810(8) 0.1581(2)
C56? C 0.6776(12) 0.9830(7) 0.0563(3)
C57? C 0.5663(6) 0.8584(12) 0.0475(3)
C58? C 0.6906(11) 0.8993(12) 0.03378(16)
C59? C 0.9727(15) 0.6541(8) 0.1206(3)
C60? C 0.9432(15) 0.7428(18) 0.1364(2)
H63? H 1.0858 0.7995 0.1258
H64? H 1.0549 0.8420 0.1144
H65? H 1.0752 0.7848 0.1056
H66? H 0.5484 0.5696 0.1780
H67? H 0.5164 0.6111 0.1666
H68? H 0.5998 0.6285 0.1639
H69? H 0.4264 0.4216 0.1505
H70? H 0.4067 0.4868 0.1511
H71? H 0.4275 0.4599 0.1684
H72? H 0.5509 0.4616 0.1697
H73? H 0.6178 0.5142 0.1573
H74? H 0.5487 0.4397 0.1500
H75? H 0.7307 1.0096 0.0590
H76? H 0.6494 0.9828 0.0664
H77? H 0.6680 1.0078 0.0468
H78? H 0.5558 0.8794 0.0373
H79? H 0.5396 0.8625 0.0573
H80? H 0.5502 0.8060 0.0454
H81? H 0.6662 0.8479 0.0297
H82? H 0.7434 0.9172 0.0357
H83? H 0.6850 0.9306 0.0252
H84? H 0.9895 0.6501 0.1321
H85? H 1.0057 0.6517 0.1120
H86? H 0.9220 0.6132 0.1188
H87? H 0.8915 0.7303 0.1348
H88? H 0.9730 0.7948 0.1399
H89? H 0.9459 0.7107 0.1452
loop_
_geom_bond_atom_site_label_1
_geom_bond_atom_site_label_2
_geom_bond_site_symmetry_1
_geom_bond_site_symmetry_2
C1 C2 1_555 1_555
C2 H1 1_555 1_555
C3 C2 1_555 1_555
C4 C3 1_555 1_555
H2 C4 1_555 1_555
C5 C4 1_555 1_555
C6 C1 1_555 1_555
C7 C3 1_555 1_555
C8 C7 1_555 1_555
H3 C8 1_555 1_555
H4 C8 1_555 1_555
H5 C8 1_555 1_555
C9 C7 1_555 1_555
H6 C9 1_555 1_555
H7 C9 1_555 1_555
H8 C9 1_555 1_555
C10 C7 1_555 1_555
H9 C10 1_555 1_555
H10 C10 1_555 1_555
H11 C10 1_555 1_555
C11 H12 1_555 1_555
H13 C11 1_555 1_555
C12 C11 1_555 1_555
C13 N1 1_555 1_555
C14 C15 1_555 1_555
C15 H14 1_555 1_555
C16 C15 1_555 1_555
C17 C16 1_555 1_555
H15 C17 1_555 1_555
C18 C17 1_555 1_555
C19 C14 1_555 1_555
C20 C16 1_555 1_555
C21 C20 1_555 1_555
H16 C21 1_555 1_555
H17 C21 1_555 1_555
H18 C21 1_555 1_555
C22 C20 1_555 1_555
H19 C22 1_555 1_555
H20 C22 1_555 1_555
H21 C22 1_555 1_555
C23 C20 1_555 1_555
H22 C23 1_555 1_555
H23 C23 1_555 1_555
H24 C23 1_555 1_555
C24 H25 1_555 1_555
H26 C24 1_555 1_555
C25 C24 1_555 1_555
C26 N3 1_555 1_555
C27 C28 1_555 1_555
C28 H27 1_555 1_555
C29 C28 1_555 1_555
C30 C29 1_555 1_555
H28 C30 1_555 1_555
C31 C30 1_555 1_555
C32 C27 1_555 1_555
C33 C29 1_555 1_555
C34 C33 1_555 1_555
H29 C34 1_555 1_555
H30 C34 1_555 1_555
H31 C34 1_555 1_555
C35 C33 1_555 1_555
H32 C35 1_555 1_555
H33 C35 1_555 1_555
H34 C35 1_555 1_555
C36 C33 1_555 1_555
H35 C36 1_555 1_555
H36 C36 1_555 1_555
H37 C36 1_555 1_555
C37 H38 1_555 1_555
H39 C37 1_555 1_555
C38 C37 1_555 1_555
C39 N5 1_555 1_555
C40 C41 1_555 1_555
C41 H40 1_555 1_555
C42 C41 1_555 1_555
C43 C42 1_555 1_555
H41 C43 1_555 1_555
C44 C43 1_555 1_555
C45 C40 1_555 1_555
C46 C42 1_555 1_555
C47 C46 1_555 1_555
H42 C47 1_555 1_555
H43 C47 1_555 1_555
H44 C47 1_555 1_555
C48 C46 1_555 1_555
H45 C48 1_555 1_555
H46 C48 1_555 1_555
H47 C48 1_555 1_555
C49 C46 1_555 1_555
H48 C49 1_555 1_555
H49 C49 1_555 1_555
H50 C49 1_555 1_555
C50 H51 1_555 1_555
H52 C50 1_555 1_555
C51 C50 1_555 1_555
N1 C12 1_555 1_555
H53 N1 1_555 1_555
N2 C13 1_555 1_555
H54 N2 1_555 1_555
H55 N2 1_555 1_555
N3 C25 1_555 1_555
H56 N3 1_555 1_555
N4 C26 1_555 1_555
H57 N4 1_555 1_555
H58 N4 1_555 1_555
N5 C38 1_555 1_555
H59 N5 1_555 1_555
N6 C39 1_555 1_555
H60 N6 1_555 1_555
H61 N6 1_555 1_555
O1 C6 1_555 1_555
O2 C12 1_555 1_555
O3 C13 1_555 1_555
O4 C19 1_555 1_555
O5 C25 1_555 1_555
O6 C26 1_555 1_555
O7 C32 1_555 1_555
O8 C38 1_555 1_555
O9 C39 1_555 1_555
O10 C45 1_555 1_555
O11 C51 1_555 1_555
O12 C51 1_555 1_555
H62 O12 1_555 1_555
S1 C1 1_555 1_555
S2 C5 1_555 1_555
S3 C18 1_555 1_555
S4 C31 1_555 1_555
C5 C6 1_555 1_555
C11 O1 1_555 1_555
C14 S2 1_555 1_555
C18 C19 1_555 1_555
C24 O4 1_555 1_555
C27 S3 1_555 1_555
C31 C32 1_555 1_555
C37 O7 1_555 1_555
C40 S4 1_555 1_555
C44 C45 1_555 1_555
C44 S1 1_555 1_555
C50 O10 1_555 1_555

#END
