
#######################################################################
#
#                 Cambridge Crystallographic Data Centre
#                                CCDC 
#
#######################################################################
#
# If this CIF has been generated from an entry in the Cambridge 
# Structural Database, then it will include bibliographic, chemical, 
# crystal, experimental, refinement or atomic coordinate data resulting 
# from the CCDC's data processing and validation procedures.
#
#######################################################################

data_IJIQEY
_chemical_formula_moiety         'C50 H60 N4 O12 S4,2(C1 H2 Cl2)'
_chemical_name_systematic        
'5,11,17,23-Tetra-t-butyl-25,27-bis(N-carbamoylcarbamoylmethoxy)-26,28-bis(carboxymethoxy)-2,8,14,20-tetrathiacalix(4)arene dichloromethane solvate'
_symmetry_cell_setting           monoclinic
_symmetry_space_group_name_H-M   'C 2/c'
_symmetry_Int_Tables_number      15
_space_group_name_Hall           '-C 2yn'
loop_
_symmetry_equiv_pos_site_id
_symmetry_equiv_pos_as_xyz
1 x,y,z
2 -x,y,1/2-z
3 1/2+x,1/2+y,z
4 1/2-x,1/2+y,1/2-z
5 -x,-y,-z
6 x,-y,1/2+z
7 1/2-x,1/2-y,-z
8 1/2+x,1/2-y,1/2+z
_cell_length_a                   42.4396(7)
_cell_length_b                   14.2832(3)
_cell_length_c                   21.6031(5)
_cell_angle_alpha                90
_cell_angle_beta                 117.638(4)
_cell_angle_gamma                90
_cell_volume                     11601
_exptl_crystal_colour            colorless
_exptl_crystal_description       block
_chemical_melting_point          'above 260 deg.C'
_cell_formula_units_Z            8
loop_
_atom_site_label
_atom_site_type_symbol
_atom_site_fract_x
_atom_site_fract_y
_atom_site_fract_z
C1 C 0.10548(7) 0.6687(2) -0.09565(14)
C2 C 0.12868(8) 0.6953(2) -0.12082(14)
C3 C 0.15464(8) 0.6322(2) -0.11868(15)
H1 H 0.1701 0.6510 -0.1359
C4 C 0.15776(8) 0.5433(2) -0.09175(15)
C5 C 0.13351(7) 0.5168(2) -0.06860(15)
H2 H 0.1347 0.4566 -0.0512
C6 C 0.10750(7) 0.5780(2) -0.07078(14)
C7 C 0.18731(8) 0.4767(2) -0.08640(18)
C8 C 0.2171(3) 0.5196(7) -0.0891(8)
H3 H 0.2333 0.4720 -0.0882
H4 H 0.2291 0.5601 -0.0495
H5 H 0.2090 0.5555 -0.1313
C9 C 0.2033(3) 0.4289(9) -0.0099(5)
H6 H 0.2224 0.3875 -0.0034
H7 H 0.1849 0.3941 -0.0061
H8 H 0.2120 0.4768 0.0253
C10 C 0.1710(2) 0.3961(7) -0.1349(6)
H9 H 0.1625 0.4168 -0.1822
H10 H 0.1515 0.3718 -0.1289
H11 H 0.1885 0.3480 -0.1247
C11 C 0.02631(7) 0.9261(2) -0.04794(16)
C12 C 0.12443(7) 0.8926(2) -0.10858(15)
C13 C 0.04762(8) 0.7390(2) -0.14906(16)
H12 H 0.0364 0.6778 -0.1579
H13 H 0.0496 0.7579 -0.1903
C14 C 0.02508(8) 0.8088(2) -0.13476(16)
C15 C 0.14666(7) 0.89512(19) -0.03680(14)
C16 C 0.14894(7) 0.97677(19) 0.00000(14)
C17 C 0.12820(8) 1.0540(2) -0.03485(15)
H14 H 0.1299 1.1083 -0.0098
C18 C 0.10494(8) 1.0519(2) -0.10638(15)
C19 C 0.10343(8) 0.9698(2) -0.14261(15)
H15 H 0.0882 0.9666 -0.1903
C20 C 0.08127(9) 1.1347(2) -0.14464(15)
C21 C 0.09147(9) 1.2233(2) -0.10066(18)
H16 H 0.0888 1.2133 -0.0594
H17 H 0.0763 1.2738 -0.1273
H18 H 0.1158 1.2389 -0.0875
C22 C 0.08409(17) 1.1548(3) -0.2121(2)
H19 H 0.1085 1.1656 -0.2007
H20 H 0.0703 1.2092 -0.2347
H21 H 0.0753 1.1020 -0.2430
C23 C 0.04309(9) 1.1082(3) -0.1637(2)
H22 H 0.0363 1.0540 -0.1934
H23 H 0.0276 1.1594 -0.1879
H24 H 0.0413 1.0946 -0.1219
C24 C 0.20091(7) 0.8096(2) 0.00575(16)
H25 H 0.2144 0.8652 0.0287
H26 H 0.2001 0.8044 -0.0398
C25 C 0.21852(8) 0.7233(2) 0.04941(16)
C26 C 0.18621(7) 0.8959(2) 0.13733(14)
C27 C 0.15802(7) 0.85750(19) 0.14539(13)
C28 C 0.16441(7) 0.77810(19) 0.18741(14)
C29 C 0.19894(7) 0.7448(2) 0.22451(14)
H27 H 0.2029 0.6929 0.2532
C30 C 0.22804(7) 0.7849(2) 0.22106(15)
C31 C 0.22050(7) 0.8597(2) 0.17512(14)
H28 H 0.2389 0.8865 0.1693
C32 C 0.26534(8) 0.7450(3) 0.26534(16)
C33 C 0.27528(9) 0.7580(3) 0.34299(17)
H29 H 0.2756 0.8235 0.3531
H30 H 0.2984 0.7317 0.3715
H31 H 0.2581 0.7268 0.3528
C34 C 0.26537(10) 0.6399(3) 0.24970(19)
H32 H 0.2889 0.6152 0.2764
H33 H 0.2579 0.6313 0.2008
H34 H 0.2493 0.6077 0.2622
C35 C 0.29288(8) 0.7950(3) 0.24991(19)
H35 H 0.2924 0.8609 0.2581
H36 H 0.2873 0.7847 0.2020
H37 H 0.3161 0.7706 0.2799
C36 C 0.10750(8) 0.9250(2) 0.15013(15)
H38 H 0.1217 0.9034 0.1977
H39 H 0.0847 0.8932 0.1314
C37 C 0.10132(7) 1.0289(2) 0.15148(14)
C38 C 0.11475(7) 1.1829(2) 0.11589(14)
C39 C 0.09711(7) 0.68787(19) 0.12176(14)
C40 C 0.10201(7) 0.63547(19) 0.07250(14)
C41 C 0.07229(7) 0.60648(19) 0.01167(14)
C42 C 0.03819(7) 0.6263(2) 0.00245(15)
H40 H 0.0186 0.6076 -0.0386
C43 C 0.03277(7) 0.6734(2) 0.05313(15)
C44 C 0.06287(7) 0.70495(19) 0.11209(15)
H41 H 0.0599 0.7384 0.1460
C45 C -0.00446(7) 0.6907(2) 0.04618(16)
C46 C -0.03331(8) 0.6417(3) -0.01749(17)
H42 H -0.0334 0.6657 -0.0591
H43 H -0.0560 0.6529 -0.0194
H44 H -0.0287 0.5756 -0.0142
C47 C -0.00580(8) 0.6518(3) 0.11121(16)
H45 H -0.0290 0.6626 0.1073
H46 H 0.0118 0.6827 0.1521
H47 H -0.0010 0.5858 0.1148
C48 C -0.01225(10) 0.7953(2) 0.0392(2)
H48 H -0.0103 0.8193 -0.0003
H49 H 0.0045 0.8267 0.0808
H50 H -0.0359 0.8059 0.0328
C49 C 0.15599(8) 0.5458(2) 0.13126(17)
H51 H 0.1603 0.5684 0.1768
H52 H 0.1789 0.5386 0.1320
C50 C 0.13798(8) 0.4512(2) 0.11838(15)
N1 N 0.11509(6) 1.08501(17) 0.11921(12)
H57 H 0.1253 1.0568 0.0982
N2 N 0.04161(6) 0.86046(17) -0.07497(12)
H58 H 0.0642 0.8519 -0.0508
N3 N 0.10177(7) 1.22864(18) 0.15209(13)
H59 H 0.1018 1.2888 0.1523
H60 H 0.0933 1.1982 0.1754
N4 N -0.00742(6) 0.94860(18) -0.08832(13)
H61 H -0.0179 0.9880 -0.0738
H62 H -0.0189 0.9238 -0.1291
O1 O 0.08234(5) 0.73381(14) -0.09038(10)
O2 O -0.00656(6) 0.81491(18) -0.17618(12)
O3 O 0.04472(6) 0.95786(16) 0.01077(11)
O4 O 0.16595(5) 0.81597(13) -0.00177(10)
O5 O 0.19801(6) 0.66617(15) 0.06354(11)
H63 H 0.1776 0.6867 0.0458
O6 O 0.24952(6) 0.7078(2) 0.07031(13)
O7 O 0.12501(5) 0.89908(13) 0.10953(9)
O8 O 0.08506(5) 1.05750(15) 0.18173(11)
O9 O 0.12741(6) 1.22017(14) 0.08092(11)
O10 O 0.13537(5) 0.61476(13) 0.07911(10)
O11 O 0.14736(6) 0.39427(15) 0.08278(12)
H64 H 0.1369 0.3443 0.0774
O12 O 0.11744(6) 0.43189(15) 0.14101(13)
S1 S 0.12477(2) 0.80258(5) -0.16459(4)
S2 S 0.181541(18) 0.99853(5) 0.08768(4)
S3 S 0.132095(19) 0.72053(5) 0.20426(4)
S4 S 0.07496(2) 0.53018(5) -0.05010(4)
C51 C 0.07552(12) 0.5105(3) 0.7262(2)
H53 H 0.0721 0.4812 0.6829
H54 H 0.1004 0.5278 0.7520
Cl1 Cl 0.04964(3) 0.61217(7) 0.70608(5)
Cl2 Cl 0.06590(5) 0.43005(9) 0.77438(6)
C52 C 0.1943(10) 0.0460(9) 0.8989(9)
H55 H 0.1709 0.0235 0.8894
H56 H 0.2115 0.0005 0.9292
Cl3 Cl 0.20175(10) 0.1473(3) 0.9426(4)
Cl4 Cl 0.19634(13) 0.0492(4) 0.8201(2)
C53? C 0.1850(3) 0.4722(9) -0.1620(4)
C54? C 0.1989(12) 0.0293(8) 0.8894(7)
C55? C 0.1860(3) 0.3825(6) -0.0629(8)
C56? C 0.2228(3) 0.5243(9) -0.0420(7)
Cl5? Cl 0.19858(17) 0.1492(3) 0.8849(3)
Cl6? Cl 0.17663(8) -0.0284(3) 0.81041(19)
H65? H 0.1834 0.5345 -0.1798
H66? H 0.1643 0.4371 -0.1927
H67? H 0.2059 0.4421 -0.1590
H68? H 0.1885 0.0109 0.9191
H69? H 0.2234 0.0084 0.9118
H70? H 0.1658 0.3503 -0.0980
H71? H 0.1842 0.3851 -0.0203
H72? H 0.2073 0.3497 -0.0547
H73? H 0.2417 0.4793 -0.0285
H74? H 0.2229 0.5502 -0.0009
H75? H 0.2263 0.5735 -0.0684
loop_
_geom_bond_atom_site_label_1
_geom_bond_atom_site_label_2
_geom_bond_site_symmetry_1
_geom_bond_site_symmetry_2
C1 C2 1_555 1_555
C2 C3 1_555 1_555
C3 H1 1_555 1_555
C4 C3 1_555 1_555
C5 C4 1_555 1_555
H2 C5 1_555 1_555
C6 C1 1_555 1_555
C7 C4 1_555 1_555
C8 C7 1_555 1_555
H3 C8 1_555 1_555
H4 C8 1_555 1_555
H5 C8 1_555 1_555
C9 C7 1_555 1_555
H6 C9 1_555 1_555
H7 C9 1_555 1_555
H8 C9 1_555 1_555
C10 C7 1_555 1_555
H9 C10 1_555 1_555
H10 C10 1_555 1_555
H11 C10 1_555 1_555
C11 N2 1_555 1_555
C12 C15 1_555 1_555
C13 H12 1_555 1_555
H13 C13 1_555 1_555
C14 C13 1_555 1_555
C15 C16 1_555 1_555
C16 C17 1_555 1_555
C17 H14 1_555 1_555
C18 C17 1_555 1_555
C19 C12 1_555 1_555
H15 C19 1_555 1_555
C20 C18 1_555 1_555
C21 C20 1_555 1_555
H16 C21 1_555 1_555
H17 C21 1_555 1_555
H18 C21 1_555 1_555
C22 C20 1_555 1_555
H19 C22 1_555 1_555
H20 C22 1_555 1_555
H21 C22 1_555 1_555
C23 C20 1_555 1_555
H22 C23 1_555 1_555
H23 C23 1_555 1_555
H24 C23 1_555 1_555
C24 H25 1_555 1_555
H26 C24 1_555 1_555
C25 C24 1_555 1_555
C26 C27 1_555 1_555
C27 C28 1_555 1_555
C28 C29 1_555 1_555
C29 H27 1_555 1_555
C30 C29 1_555 1_555
C31 C26 1_555 1_555
H28 C31 1_555 1_555
C32 C30 1_555 1_555
C33 C32 1_555 1_555
H29 C33 1_555 1_555
H30 C33 1_555 1_555
H31 C33 1_555 1_555
C34 C32 1_555 1_555
H32 C34 1_555 1_555
H33 C34 1_555 1_555
H34 C34 1_555 1_555
C35 C32 1_555 1_555
H35 C35 1_555 1_555
H36 C35 1_555 1_555
H37 C35 1_555 1_555
C36 H38 1_555 1_555
H39 C36 1_555 1_555
C37 C36 1_555 1_555
C38 N1 1_555 1_555
C39 C40 1_555 1_555
C40 C41 1_555 1_555
C41 C42 1_555 1_555
C42 H40 1_555 1_555
C43 C42 1_555 1_555
C44 C39 1_555 1_555
H41 C44 1_555 1_555
C45 C43 1_555 1_555
C46 C45 1_555 1_555
H42 C46 1_555 1_555
H43 C46 1_555 1_555
H44 C46 1_555 1_555
C47 C45 1_555 1_555
H45 C47 1_555 1_555
H46 C47 1_555 1_555
H47 C47 1_555 1_555
C48 C45 1_555 1_555
H48 C48 1_555 1_555
H49 C48 1_555 1_555
H50 C48 1_555 1_555
C49 H51 1_555 1_555
H52 C49 1_555 1_555
C50 C49 1_555 1_555
C51 H53 1_555 1_555
H54 C51 1_555 1_555
Cl1 C51 1_555 1_555
Cl2 C51 1_555 1_555
C52 H55 1_555 1_555
H56 C52 1_555 1_555
Cl3 C52 1_555 1_555
Cl4 C52 1_555 1_555
N1 C37 1_555 1_555
H57 N1 1_555 1_555
N2 C14 1_555 1_555
H58 N2 1_555 1_555
N3 C38 1_555 1_555
H59 N3 1_555 1_555
H60 N3 1_555 1_555
N4 C11 1_555 1_555
H61 N4 1_555 1_555
H62 N4 1_555 1_555
O1 C1 1_555 1_555
O2 C14 1_555 1_555
O3 C11 1_555 1_555
O4 C15 1_555 1_555
O5 C25 1_555 1_555
H63 O5 1_555 1_555
O6 C25 1_555 1_555
O7 C27 1_555 1_555
O8 C37 1_555 1_555
O9 C38 1_555 1_555
O10 C40 1_555 1_555
O11 C50 1_555 1_555
H64 O11 1_555 1_555
O12 C50 1_555 1_555
S1 C2 1_555 1_555
S2 C16 1_555 1_555
S3 C28 1_555 1_555
S4 C6 1_555 1_555
C5 C6 1_555 1_555
C12 S1 1_555 1_555
C13 O1 1_555 1_555
C18 C19 1_555 1_555
C24 O4 1_555 1_555
C26 S2 1_555 1_555
C30 C31 1_555 1_555
C36 O7 1_555 1_555
C39 S3 1_555 1_555
C41 S4 1_555 1_555
C43 C44 1_555 1_555
C49 O10 1_555 1_555

#END
