
#######################################################################
#
#                 Cambridge Crystallographic Data Centre
#                                CCDC 
#
#######################################################################
#
# If this CIF has been generated from an entry in the Cambridge 
# Structural Database, then it will include bibliographic, chemical, 
# crystal, experimental, refinement or atomic coordinate data resulting 
# from the CCDC's data processing and validation procedures.
#
#######################################################################

data_IJIQOI
_chemical_formula_moiety         'C52 H64 N8 O12 S4,C4 H8 O1,0.5(H2 O1)'
_chemical_name_systematic        
'5,11,17,23-Tetra-t-butyl-25,26,27,28-tetrakis(N-carbamoylcarbamoylmethoxy)-2,8,14,20-tetrathiacalix(4)arene tetrahydrofuran solvate hemihydrate'
_symmetry_cell_setting           monoclinic
_symmetry_space_group_name_H-M   'P 21/n'
_symmetry_Int_Tables_number      14
_space_group_name_Hall           '-P 2yn'
loop_
_symmetry_equiv_pos_site_id
_symmetry_equiv_pos_as_xyz
1 x,y,z
2 1/2-x,1/2+y,1/2-z
3 -x,-y,-z
4 1/2+x,1/2-y,1/2+z
_cell_length_a                   14.9385(5)
_cell_length_b                   25.0431(8)
_cell_length_c                   15.9995(5)
_cell_angle_alpha                90
_cell_angle_beta                 91.281(2)
_cell_angle_gamma                90
_cell_volume                     5984.02
_exptl_crystal_colour            colorless
_exptl_crystal_description       block
_chemical_melting_point          '219-222 deg.C'
_cell_formula_units_Z            4
loop_
_atom_site_label
_atom_site_type_symbol
_atom_site_fract_x
_atom_site_fract_y
_atom_site_fract_z
O13 O 0.0516(7) 0.4981(4) 0.5047(7)
C1 C 0.45426(18) 0.17226(11) 0.31288(18)
C2 C 0.48260(18) 0.14847(11) 0.23891(19)
C3 C 0.51867(18) 0.09716(11) 0.24123(18)
H1 H 0.5388 0.0821 0.1920
C4 C 0.52550(19) 0.06762(11) 0.31527(18)
C5 C 0.49537(19) 0.09190(11) 0.38718(18)
H2 H 0.4979 0.0729 0.4371
C6 C 0.46142(18) 0.14380(11) 0.38758(18)
C7 C 0.5674(2) 0.01197(11) 0.31353(19)
C8 C 0.5291(3) -0.02139(13) 0.2411(2)
H3 H 0.4654 -0.0244 0.2462
H4 H 0.5555 -0.0563 0.2426
H5 H 0.5424 -0.0044 0.1891
C9 C 0.6685(2) 0.01878(14) 0.3057(3)
H6 H 0.6808 0.0383 0.2556
H7 H 0.6964 -0.0157 0.3033
H8 H 0.6918 0.0380 0.3533
C10 C 0.5500(3) -0.01910(14) 0.3940(2)
H9 H 0.5734 0.0006 0.4411
H10 H 0.5790 -0.0533 0.3915
H11 H 0.4868 -0.0241 0.3998
C11 C 0.4795(2) 0.26402(11) 0.3330(2)
H12 H 0.5281 0.2646 0.2938
H13 H 0.5048 0.2570 0.3883
C12 C 0.4328(2) 0.31743(12) 0.3324(2)
C13 C 0.2904(2) 0.36157(11) 0.29078(19)
C14 C 0.37927(18) 0.20628(10) 0.11815(17)
C15 C 0.37180(19) 0.25601(11) 0.08095(18)
H14 H 0.4227 0.2772 0.0772
C16 C 0.29107(19) 0.27539(11) 0.04905(17)
C17 C 0.21562(18) 0.24449(11) 0.06083(16)
H15 H 0.1602 0.2573 0.0424
C18 C 0.22041(18) 0.19483(11) 0.09942(17)
C19 C 0.30326(18) 0.17415(11) 0.12518(16)
C20 C 0.28707(19) 0.32926(11) 0.00268(18)
C21 C 0.3178(3) 0.31933(13) -0.0869(2)
H16 H 0.2750 0.2970 -0.1158
H17 H 0.3751 0.3019 -0.0853
H18 H 0.3226 0.3528 -0.1157
C22 C 0.1931(2) 0.35233(13) 0.0004(2)
H19 H 0.1944 0.3876 -0.0231
H20 H 0.1709 0.3540 0.0561
H21 H 0.1547 0.3300 -0.0334
C23 C 0.3504(2) 0.36974(12) 0.0451(2)
H22 H 0.3436 0.4039 0.0184
H23 H 0.4111 0.3578 0.0405
H24 H 0.3360 0.3729 0.1031
C24 C 0.34613(19) 0.08514(11) 0.09970(18)
H25 H 0.3682 0.0539 0.1295
H26 H 0.3957 0.1013 0.0708
C25 C 0.2734(2) 0.06908(11) 0.03736(19)
C26 C 0.1286(2) 0.01884(11) 0.03634(19)
C27 C 0.09772(18) 0.14244(11) 0.20760(17)
C28 C 0.10497(17) 0.18019(10) 0.27165(17)
C29 C 0.07877(18) 0.16524(11) 0.35141(17)
C30 C 0.04109(18) 0.11551(11) 0.36540(17)
H27 H 0.0237 0.1066 0.4191
C31 C 0.02868(18) 0.07861(10) 0.30144(17)
C32 C 0.06040(18) 0.09270(10) 0.22332(17)
H28 H 0.0565 0.0679 0.1801
C33 C -0.01588(19) 0.02437(11) 0.31611(18)
C34 C 0.0538(3) -0.01820(15) 0.3216(4)
H29 H 0.0893 -0.0135 0.3718
H30 H 0.0916 -0.0160 0.2740
H31 H 0.0253 -0.0526 0.3226
C35 C -0.0807(3) 0.01175(19) 0.2445(3)
H32 H -0.0477 0.0025 0.1958
H33 H -0.1173 0.0425 0.2327
H34 H -0.1181 -0.0177 0.2598
C36 C -0.0715(4) 0.02382(18) 0.3922(3)
H35 H -0.1065 -0.0083 0.3931
H36 H -0.1106 0.0542 0.3915
H37 H -0.0332 0.0252 0.4412
C37 C 0.0781(2) 0.26603(11) 0.21466(19)
H38 H 0.0465 0.2464 0.1708
H39 H 0.1116 0.2945 0.1888
C38 C 0.0110(2) 0.28972(13) 0.2738(2)
C39 C -0.0049(3) 0.36103(17) 0.3814(2)
C40 C 0.19184(19) 0.23074(11) 0.45669(17)
C41 C 0.20193(19) 0.28092(11) 0.49357(18)
H40 H 0.1526 0.3035 0.4956
C42 C 0.2831(2) 0.29808(11) 0.52727(18)
C43 C 0.35683(19) 0.26425(11) 0.51913(18)
H41 H 0.4128 0.2752 0.5392
C44 C 0.34771(19) 0.21440(12) 0.48137(18)
C45 C 0.2656(2) 0.19705(11) 0.45057(17)
C46 C 0.2921(2) 0.35087(12) 0.5760(2)
C47 C 0.2805(4) 0.33864(17) 0.6677(3)
H42 H 0.2247 0.3204 0.6751
H43 H 0.2806 0.3714 0.6990
H44 H 0.3289 0.3164 0.6874
C48 C 0.2194(3) 0.39133(14) 0.5497(3)
H45 H 0.2203 0.3964 0.4902
H46 H 0.2308 0.4248 0.5772
H47 H 0.1618 0.3781 0.5652
C49 C 0.3808(2) 0.37819(15) 0.5617(3)
H48 H 0.4287 0.3557 0.5818
H49 H 0.3825 0.4116 0.5912
H50 H 0.3874 0.3846 0.5030
C50 C 0.2428(2) 0.10564(11) 0.47513(18)
H51 H 0.1822 0.1087 0.4951
H52 H 0.2837 0.1104 0.5225
C51 C 0.25594(19) 0.05117(11) 0.43861(19)
C52 C 0.28119(19) 0.00149(11) 0.30735(19)
N1 N 0.34776(18) 0.31795(9) 0.29950(17)
H53 H 0.326(2) 0.2876(9) 0.2863(19)
N2 N 0.3179(2) 0.40719(10) 0.32360(18)
H54 H 0.3671(16) 0.4102(13) 0.3538(19)
H55 H 0.2810(19) 0.4332(10) 0.315(2)
N3 N 0.21325(16) 0.03353(9) 0.06819(15)
H56 H 0.224(2) 0.0284(12) 0.1197(12)
N4 N 0.1052(2) 0.03807(12) -0.03819(18)
H57 H 0.138(2) 0.0629(11) -0.057(2)
H58 H 0.0520(14) 0.0306(13) -0.055(2)
N5 N 0.0418(2) 0.33142(11) 0.32045(18)
H59 H 0.0984(13) 0.3361(14) 0.314(2)
N6 N -0.0879(3) 0.34582(18) 0.3941(3)
H60 H -0.123(3) 0.3630(16) 0.428(2)
H61 H -0.110(3) 0.3186(14) 0.366(3)
N7 N 0.26891(16) 0.04810(9) 0.35508(15)
N8 N 0.29544(19) -0.04300(10) 0.34932(18)
H62 H 0.301(2) -0.0730(9) 0.3218(18)
H63 H 0.286(2) -0.0426(13) 0.4015(12)
O1 O 0.41777(13) 0.22278(7) 0.31048(12)
O2 O 0.47313(16) 0.35646(9) 0.35841(16)
O3 O 0.21896(15) 0.35588(8) 0.25203(15)
O4 O 0.30920(12) 0.12301(7) 0.15815(12)
O5 O 0.26835(15) 0.08781(9) -0.03277(13)
O6 O 0.08201(13) -0.01015(8) 0.07902(13)
O7 O 0.13915(12) 0.23065(7) 0.25846(12)
H64 H 0.2673(19) 0.0769(9) 0.3249(17)
O8 O -0.06380(17) 0.27085(11) 0.27769(18)
O9 O 0.0343(2) 0.39766(13) 0.41622(19)
O10 O 0.25823(13) 0.14671(7) 0.41475(12)
O11 O 0.25382(17) 0.01277(8) 0.48473(14)
O12 O 0.28035(14) 0.00506(8) 0.23109(13)
S1 S 0.44363(5) 0.17186(3) 0.48807(5)
S2 S 0.48961(5) 0.18489(3) 0.14445(5)
S3 S 0.12014(5) 0.15636(3) 0.10082(4)
S4 S 0.07943(5) 0.21130(3) 0.43616(5)
H65? H 0.0044 0.4816 0.5359
H66? H 0.0951 0.4811 0.4895
loop_
_geom_bond_atom_site_label_1
_geom_bond_atom_site_label_2
_geom_bond_site_symmetry_1
_geom_bond_site_symmetry_2
C1 C2 1_555 1_555
C2 C3 1_555 1_555
C3 H1 1_555 1_555
C4 C3 1_555 1_555
C5 C4 1_555 1_555
H2 C5 1_555 1_555
C6 C1 1_555 1_555
C7 C4 1_555 1_555
C8 C7 1_555 1_555
H3 C8 1_555 1_555
H4 C8 1_555 1_555
H5 C8 1_555 1_555
C9 C7 1_555 1_555
H6 C9 1_555 1_555
H7 C9 1_555 1_555
H8 C9 1_555 1_555
C10 C7 1_555 1_555
H9 C10 1_555 1_555
H10 C10 1_555 1_555
H11 C10 1_555 1_555
C11 H12 1_555 1_555
H13 C11 1_555 1_555
C12 C11 1_555 1_555
C13 N1 1_555 1_555
C14 C15 1_555 1_555
C15 H14 1_555 1_555
C16 C15 1_555 1_555
C17 C16 1_555 1_555
H15 C17 1_555 1_555
C18 C17 1_555 1_555
C19 C14 1_555 1_555
C20 C16 1_555 1_555
C21 C20 1_555 1_555
H16 C21 1_555 1_555
H17 C21 1_555 1_555
H18 C21 1_555 1_555
C22 C20 1_555 1_555
H19 C22 1_555 1_555
H20 C22 1_555 1_555
H21 C22 1_555 1_555
C23 C20 1_555 1_555
H22 C23 1_555 1_555
H23 C23 1_555 1_555
H24 C23 1_555 1_555
C24 H25 1_555 1_555
H26 C24 1_555 1_555
C25 C24 1_555 1_555
C26 N3 1_555 1_555
C27 C28 1_555 1_555
C28 C29 1_555 1_555
C29 C30 1_555 1_555
C30 H27 1_555 1_555
C31 C30 1_555 1_555
C32 C27 1_555 1_555
H28 C32 1_555 1_555
C33 C31 1_555 1_555
C34 C33 1_555 1_555
H29 C34 1_555 1_555
H30 C34 1_555 1_555
H31 C34 1_555 1_555
C35 C33 1_555 1_555
H32 C35 1_555 1_555
H33 C35 1_555 1_555
H34 C35 1_555 1_555
C36 C33 1_555 1_555
H35 C36 1_555 1_555
H36 C36 1_555 1_555
H37 C36 1_555 1_555
C37 H38 1_555 1_555
H39 C37 1_555 1_555
C38 C37 1_555 1_555
C39 N5 1_555 1_555
C40 C41 1_555 1_555
C41 H40 1_555 1_555
C42 C41 1_555 1_555
C43 C42 1_555 1_555
H41 C43 1_555 1_555
C44 C43 1_555 1_555
C45 C40 1_555 1_555
C46 C42 1_555 1_555
C47 C46 1_555 1_555
H42 C47 1_555 1_555
H43 C47 1_555 1_555
H44 C47 1_555 1_555
C48 C46 1_555 1_555
H45 C48 1_555 1_555
H46 C48 1_555 1_555
H47 C48 1_555 1_555
C49 C46 1_555 1_555
H48 C49 1_555 1_555
H49 C49 1_555 1_555
H50 C49 1_555 1_555
C50 H51 1_555 1_555
H52 C50 1_555 1_555
C51 C50 1_555 1_555
C52 N7 1_555 1_555
N1 C12 1_555 1_555
H53 N1 1_555 1_555
N2 C13 1_555 1_555
H54 N2 1_555 1_555
H55 N2 1_555 1_555
N3 C25 1_555 1_555
H56 N3 1_555 1_555
N4 C26 1_555 1_555
H57 N4 1_555 1_555
H58 N4 1_555 1_555
N5 C38 1_555 1_555
H59 N5 1_555 1_555
N6 C39 1_555 1_555
H60 N6 1_555 1_555
H61 N6 1_555 1_555
N7 C51 1_555 1_555
N8 C52 1_555 1_555
H62 N8 1_555 1_555
H63 N8 1_555 1_555
O1 C1 1_555 1_555
O2 C12 1_555 1_555
O3 C13 1_555 1_555
O4 C19 1_555 1_555
O5 C25 1_555 1_555
O6 C26 1_555 1_555
O7 C28 1_555 1_555
H64 N7 1_555 1_555
O8 C38 1_555 1_555
O9 C39 1_555 1_555
O10 C45 1_555 1_555
O11 C51 1_555 1_555
O12 C52 1_555 1_555
S1 C6 1_555 1_555
S2 C2 1_555 1_555
S3 C18 1_555 1_555
S4 C29 1_555 1_555
C5 C6 1_555 1_555
C11 O1 1_555 1_555
C14 S2 1_555 1_555
C18 C19 1_555 1_555
C24 O4 1_555 1_555
C27 S3 1_555 1_555
C31 C32 1_555 1_555
C37 O7 1_555 1_555
C40 S4 1_555 1_555
C44 C45 1_555 1_555
C44 S1 1_555 1_555
C50 O10 1_555 1_555

#END
