
#######################################################################
#
#                 Cambridge Crystallographic Data Centre
#                                CCDC 
#
#######################################################################
#
# If this CIF has been generated from an entry in the Cambridge 
# Structural Database, then it will include bibliographic, chemical, 
# crystal, experimental, refinement or atomic coordinate data resulting 
# from the CCDC's data processing and validation procedures.
#
#######################################################################

data_IJIXUW
_chemical_formula_moiety         'C36 H27 N5 O3,2(C1 H1 Cl3)'
_chemical_name_systematic        
'7a-hydroxy-3-imino-2-(4-methoxyphenyl)-1-oxo-4,6,7-triphenyltetrahydro-1H-isoindole-3a,5,5(4H,6H)-tricarbonitrile chloroform solvate'
_symmetry_cell_setting           triclinic
_symmetry_space_group_name_H-M   'P -1'
_symmetry_Int_Tables_number      2
_space_group_name_Hall           '-P 1'
loop_
_symmetry_equiv_pos_site_id
_symmetry_equiv_pos_as_xyz
1 x,y,z
2 -x,-y,-z
_cell_length_a                   11.6605(6)
_cell_length_b                   12.4640(7)
_cell_length_c                   13.4795(8)
_cell_angle_alpha                91.563(5)
_cell_angle_beta                 106.687(5)
_cell_angle_gamma                92.230(5)
_cell_volume                     1873.63
_exptl_crystal_colour            colorless
_cell_formula_units_Z            2
loop_
_atom_site_label
_atom_site_type_symbol
_atom_site_fract_x
_atom_site_fract_y
_atom_site_fract_z
O1 O 0.8292(2) -0.36386(18) 0.35272(19)
O2 O 0.59182(18) 0.02475(16) 0.09759(15)
O3 O 0.36741(18) 0.13671(16) 0.03433(15)
H1 H 0.3857 0.0944 -0.0056
N1 N 0.5193(2) -0.03282(19) 0.23028(18)
N2 N 0.3983(3) -0.0537(2) 0.3467(2)
H2 H 0.460(3) -0.091(3) 0.382(3)
N3 N 0.2090(3) -0.0978(2) 0.0518(2)
N4 N 0.4438(3) 0.1822(2) 0.4584(2)
N5 N 0.1352(3) 0.3498(2) 0.2985(3)
C1 C 0.6802(3) -0.1165(2) 0.3599(2)
H3 H 0.6842 -0.0589 0.4063
C2 C 0.7553(3) -0.2006(2) 0.3881(2)
H4 H 0.8094 -0.1999 0.4540
C3 C 0.7506(3) -0.2863(2) 0.3184(3)
C4 C 0.6687(3) -0.2877(3) 0.2208(2)
H5 H 0.6650 -0.3447 0.1738
C5 C 0.5924(3) -0.2041(2) 0.1933(2)
H6 H 0.5366 -0.2056 0.1281
C6 C 0.5991(3) -0.1191(2) 0.2621(2)
C7 C 0.8179(4) -0.4583(3) 0.2867(3)
H7 H 0.8300 -0.4386 0.2219
H8 H 0.7392 -0.4916 0.2744
H9 H 0.8768 -0.5077 0.3196
C8 C 0.5217(3) 0.0301(2) 0.1490(2)
C9 C 0.4231(2) 0.1104(2) 0.1363(2)
C10 C 0.3340(2) 0.0497(2) 0.1862(2)
C11 C 0.4192(3) -0.0166(2) 0.2682(2)
C12 C 0.4799(2) 0.2160(2) 0.2001(2)
H10 H 0.5266 0.1952 0.2690
C13 C 0.3821(2) 0.2884(2) 0.2149(2)
H11 H 0.3287 0.2998 0.1456
C14 C 0.3050(3) 0.2273(2) 0.2755(2)
C15 C 0.2422(2) 0.1251(2) 0.2101(2)
H12 H 0.2019 0.1531 0.1423
C16 C 0.2636(3) -0.0329(2) 0.1093(2)
C17 C 0.3815(3) 0.2022(2) 0.3794(2)
C18 C 0.2098(3) 0.2972(3) 0.2901(3)
C19 C 0.1392(3) 0.0759(2) 0.2452(2)
C20 C 0.1533(3) 0.0350(3) 0.3423(3)
H13 H 0.2297 0.0309 0.3878
C21 C 0.0539(3) 0.0003(3) 0.3718(3)
H14 H 0.0637 -0.0272 0.4370
C22 C -0.0599(3) 0.0065(3) 0.3039(3)
H15 H -0.1265 -0.0165 0.3239
C23 C -0.0752(3) 0.0466(3) 0.2069(3)
H16 H -0.1516 0.0505 0.1612
C24 C 0.0248(3) 0.0810(3) 0.1782(3)
H17 H 0.0149 0.1081 0.1128
C25 C 0.5663(3) 0.2726(2) 0.1507(2)
C26 C 0.6885(3) 0.2595(3) 0.1893(3)
H18 H 0.7171 0.2172 0.2462
C27 C 0.7682(3) 0.3087(3) 0.1441(3)
H19 H 0.8499 0.2992 0.1705
C28 C 0.7269(3) 0.3715(3) 0.0601(3)
H20 H 0.7806 0.4042 0.0296
C29 C 0.6051(3) 0.3860(3) 0.0208(3)
H21 H 0.5771 0.4285 -0.0359
C30 C 0.5256(3) 0.3370(2) 0.0662(2)
H22 H 0.4440 0.3472 0.0400
C31 C 0.4262(3) 0.3992(2) 0.2647(2)
C32 C 0.5263(3) 0.4146(3) 0.3506(2)
H23 H 0.5716 0.3566 0.3771
C33 C 0.5587(3) 0.5162(3) 0.3970(3)
H24 H 0.6256 0.5260 0.4545
C34 C 0.4924(3) 0.6029(3) 0.3583(3)
H25 H 0.5142 0.6707 0.3901
C35 C 0.3944(3) 0.5890(3) 0.2730(3)
H26 H 0.3498 0.6475 0.2467
C36 C 0.3617(3) 0.4874(3) 0.2258(3)
H27 H 0.2958 0.4786 0.1673
C37 C -0.0183(4) 0.2875(3) -0.0821(4)
H28 H -0.0860 0.2426 -0.0747
Cl1 Cl 0.04746(14) 0.35672(13) 0.03855(11)
Cl2 Cl 0.0756(4) 0.2053(3) -0.1171(4)
Cl3 Cl -0.0751(2) 0.3770(2) -0.17683(13)
Cl7 Cl 0.93747(10) 0.26686(12) 0.43403(9)
Cl8 Cl 0.75079(11) 0.22150(11) 0.52937(15)
Cl9 Cl 0.86610(11) 0.43101(9) 0.55423(10)
C38 C 0.8856(3) 0.2941(3) 0.5410(3)
H30 H 0.9455 0.2722 0.6034
H29? H -0.0508 0.2659 -0.0258
Cl4? Cl -0.1065(9) 0.2247(9) -0.2197(6)
Cl5? Cl 0.1227(6) 0.2333(6) -0.0780(7)
Cl6? Cl -0.0447(11) 0.4097(8) -0.1184(14)
loop_
_geom_bond_atom_site_label_1
_geom_bond_atom_site_label_2
_geom_bond_site_symmetry_1
_geom_bond_site_symmetry_2
O1 C3 1_555 1_555
O2 C8 1_555 1_555
O3 H1 1_555 1_555
N1 C6 1_555 1_555
N2 H2 1_555 1_555
N3 C16 1_555 1_555
N4 C17 1_555 1_555
N5 C18 1_555 1_555
C1 H3 1_555 1_555
C2 C1 1_555 1_555
H4 C2 1_555 1_555
C3 C2 1_555 1_555
C4 C3 1_555 1_555
H5 C4 1_555 1_555
C5 C4 1_555 1_555
H6 C5 1_555 1_555
C6 C1 1_555 1_555
C7 O1 1_555 1_555
H7 C7 1_555 1_555
H8 C7 1_555 1_555
H9 C7 1_555 1_555
C8 N1 1_555 1_555
C9 O3 1_555 1_555
C10 C9 1_555 1_555
C11 N1 1_555 1_555
C12 C9 1_555 1_555
H10 C12 1_555 1_555
C13 C12 1_555 1_555
H11 C13 1_555 1_555
C14 C13 1_555 1_555
C15 C10 1_555 1_555
H12 C15 1_555 1_555
C16 C10 1_555 1_555
C17 C14 1_555 1_555
C18 C14 1_555 1_555
C19 C15 1_555 1_555
C20 C19 1_555 1_555
H13 C20 1_555 1_555
C21 C20 1_555 1_555
H14 C21 1_555 1_555
C22 C21 1_555 1_555
H15 C22 1_555 1_555
C23 C22 1_555 1_555
H16 C23 1_555 1_555
C24 C19 1_555 1_555
H17 C24 1_555 1_555
C25 C12 1_555 1_555
C26 C25 1_555 1_555
H18 C26 1_555 1_555
C27 C26 1_555 1_555
H19 C27 1_555 1_555
C28 C27 1_555 1_555
H20 C28 1_555 1_555
C29 C28 1_555 1_555
H21 C29 1_555 1_555
C30 C25 1_555 1_555
H22 C30 1_555 1_555
C31 C13 1_555 1_555
C32 C31 1_555 1_555
H23 C32 1_555 1_555
C33 C32 1_555 1_555
H24 C33 1_555 1_555
C34 C33 1_555 1_555
H25 C34 1_555 1_555
C35 C34 1_555 1_555
H26 C35 1_555 1_555
C36 C31 1_555 1_555
H27 C36 1_555 1_555
C37 H28 1_555 1_555
Cl1 C37 1_555 1_555
Cl2 C37 1_555 1_555
Cl3 C37 1_555 1_555
Cl7 C38 1_555 1_555
Cl8 C38 1_555 1_555
Cl9 C38 1_555 1_555
C38 H30 1_555 1_555
N2 C11 1_555 1_555
C5 C6 1_555 1_555
C8 C9 1_555 1_555
C10 C11 1_555 1_555
C14 C15 1_555 1_555
C23 C24 1_555 1_555
C29 C30 1_555 1_555
C35 C36 1_555 1_555

#END
