
#######################################################################
#
#                 Cambridge Crystallographic Data Centre
#                                CCDC 
#
#######################################################################
#
# If this CIF has been generated from an entry in the Cambridge 
# Structural Database, then it will include bibliographic, chemical, 
# crystal, experimental, refinement or atomic coordinate data resulting 
# from the CCDC's data processing and validation procedures.
#
#######################################################################

data_IJOKIB
_chemical_formula_moiety         'C8 H6 N2 O2'
_chemical_name_systematic        4-Hydroxy-2H-phthalazin-1-one
_symmetry_cell_setting           monoclinic
_symmetry_space_group_name_H-M   'C c'
_symmetry_Int_Tables_number      9
_space_group_name_Hall           'C -2yc'
loop_
_symmetry_equiv_pos_site_id
_symmetry_equiv_pos_as_xyz
1 x,y,z
2 x,-y,1/2+z
3 1/2+x,1/2+y,z
4 1/2+x,1/2-y,1/2+z
_cell_length_a                   22.472(2)
_cell_length_b                   13.931(2)
_cell_length_c                   7.0930(15)
_cell_angle_alpha                90
_cell_angle_beta                 101.490(12)
_cell_angle_gamma                90
_cell_volume                     2176.02
_exptl_crystal_colour            colorless
_exptl_crystal_description       'prismatic needles'
_cell_formula_units_Z            12
loop_
_atom_site_label
_atom_site_type_symbol
_atom_site_fract_x
_atom_site_fract_y
_atom_site_fract_z
N1 N 0.44044(10) 0.96109(14) 0.6320(4)
N2 N 0.41109(11) 0.8774(2) 0.5865(4)
H1 H 0.4352(10) 0.8266(12) 0.6255(37)
C1 C 0.35512(14) 0.8717(2) 0.4914(4)
O1 O 0.32880(10) 0.7889(2) 0.4506(3)
C2 C 0.32046(14) 0.9618(2) 0.4334(4)
C3 C 0.2616(2) 0.9627(3) 0.3380(5)
H2 H 0.2415(2) 0.9049(3) 0.3043(5)
C4 C 0.2317(2) 1.0475(3) 0.2910(5)
H3 H 0.1911(2) 1.0477(3) 0.2286(5)
C5 C 0.2633(2) 1.1354(3) 0.3388(5)
H4 H 0.2440(2) 1.1937(3) 0.3042(5)
C6 C 0.3205(2) 1.1334(2) 0.4332(4)
H5 H 0.3403(2) 1.1914(2) 0.4664(4)
C7 C 0.35178(15) 1.0494(2) 0.4843(4)
C8 C 0.41325(14) 1.0451(2) 0.5864(4)
O2 O 0.44537(11) 1.12243(14) 0.6331(4)
H6 H 0.4814(13) 1.1205(26) 0.7154(69)
N3 N 0.4695(2) 0.7007(3) 0.7086(7)
N4 N 0.5299(2) 0.6986(3) 0.7936(8)
H7 H 0.5448(15) 0.7587(10) 0.8113(50)
C9 C 0.5621(3) 0.6202(3) 0.8404(8)
O3 O 0.6182(2) 0.6241(3) 0.9179(7)
C10 C 0.5308(3) 0.5284(4) 0.7948(8)
C11 C 0.5593(3) 0.4407(4) 0.8387(9)
H8 H 0.5998(3) 0.4397(4) 0.9013(9)
C12 C 0.5304(5) 0.3574(4) 0.7940(11)
H9 H 0.5514(5) 0.3000(4) 0.8226(11)
C13 C 0.4700(5) 0.3558(5) 0.7061(11)
H10 H 0.4508(5) 0.2970(5) 0.6764(11)
C14 C 0.4365(3) 0.4420(4) 0.6600(10)
H11 H 0.3955(3) 0.4416(4) 0.6028(10)
C15 C 0.4694(3) 0.5288(3) 0.7063(9)
C16 C 0.4395(3) 0.6203(4) 0.6645(10)
O4 O 0.3824(2) 0.6245(3) 0.5817(7)
H12 H 0.3697(22) 0.6811(18) 0.5267(63)
N5 N 0.58922(11) 0.8740(2) 0.9140(4)
N6 N 0.55902(11) 0.9611(2) 0.8665(4)
H13 H 0.5200(5) 0.9522(22) 0.8087(44)
O5 O 0.55520(10) 1.12242(13) 0.8663(3)
C17 C 0.58392(14) 1.0439(2) 0.9152(5)
C18 C 0.64811(13) 1.0452(2) 1.0181(4)
C19 C 0.6775(2) 1.1355(3) 1.0661(5)
H14 H 0.6579(2) 1.1938(3) 1.0344(5)
C20 C 0.7395(2) 1.1292(3) 1.1670(5)
H15 H 0.7611(2) 1.1856(3) 1.2013(5)
C21 C 0.76774(14) 1.0438(3) 1.2140(5)
H16 H 0.80731(14) 1.0437(3) 1.2848(5)
C22 C 0.73993(13) 0.9581(2) 1.1607(4)
H17 H 0.76106(13) 0.9006(2) 1.1869(4)
C23 C 0.67737(13) 0.9584(2) 1.0634(4)
C24 C 0.64651(12) 0.8712(2) 1.0087(4)
O6 O 0.67122(10) 0.7894(2) 1.0495(4)
H18 H 0.6521(18) 0.7396(22) 0.9826(60)
loop_
_geom_bond_atom_site_label_1
_geom_bond_atom_site_label_2
_geom_bond_site_symmetry_1
_geom_bond_site_symmetry_2
N1 N2 1_555 1_555
N2 H1 1_555 1_555
C1 N2 1_555 1_555
O1 C1 1_555 1_555
C2 C1 1_555 1_555
C3 C2 1_555 1_555
H2 C3 1_555 1_555
C4 C3 1_555 1_555
H3 C4 1_555 1_555
C5 C4 1_555 1_555
H4 C5 1_555 1_555
C6 C5 1_555 1_555
H5 C6 1_555 1_555
C7 C2 1_555 1_555
C8 N1 1_555 1_555
O2 C8 1_555 1_555
H6 O2 1_555 1_555
N3 N4 1_555 1_555
N4 H7 1_555 1_555
C9 N4 1_555 1_555
O3 C9 1_555 1_555
C10 C9 1_555 1_555
C11 C10 1_555 1_555
H8 C11 1_555 1_555
C12 C11 1_555 1_555
H9 C12 1_555 1_555
C13 C12 1_555 1_555
H10 C13 1_555 1_555
C14 C13 1_555 1_555
H11 C14 1_555 1_555
C15 C10 1_555 1_555
C16 N3 1_555 1_555
O4 C16 1_555 1_555
H12 O4 1_555 1_555
N5 N6 1_555 1_555
N6 H13 1_555 1_555
O5 C17 1_555 1_555
C17 N6 1_555 1_555
C18 C17 1_555 1_555
C19 C18 1_555 1_555
H14 C19 1_555 1_555
C20 C19 1_555 1_555
H15 C20 1_555 1_555
C21 C20 1_555 1_555
H16 C21 1_555 1_555
C22 C21 1_555 1_555
H17 C22 1_555 1_555
C23 C18 1_555 1_555
C24 N5 1_555 1_555
O6 C24 1_555 1_555
H18 O6 1_555 1_555
C6 C7 1_555 1_555
C7 C8 1_555 1_555
C14 C15 1_555 1_555
C15 C16 1_555 1_555
C22 C23 1_555 1_555
C23 C24 1_555 1_555

#END
