
#######################################################################
#
#                 Cambridge Crystallographic Data Centre
#                                CCDC 
#
#######################################################################
#
# If this CIF has been generated from an entry in the Cambridge 
# Structural Database, then it will include bibliographic, chemical, 
# crystal, experimental, refinement or atomic coordinate data resulting 
# from the CCDC's data processing and validation procedures.
#
#######################################################################

data_IJOKOH
_chemical_formula_moiety         'C22 H19 N3 O6,H2 O1'
_chemical_name_systematic        
'(bis(2-(1,3-Dioxo-1,3-dihydroisoindol-2-yl)ethyl)ammonio)acetate monohydrate'
_symmetry_cell_setting           monoclinic
_symmetry_space_group_name_H-M   'P 21/m'
_symmetry_Int_Tables_number      11
_space_group_name_Hall           '-P 2yb'
loop_
_symmetry_equiv_pos_site_id
_symmetry_equiv_pos_as_xyz
1 x,y,z
2 -x,1/2+y,-z
3 -x,-y,-z
4 x,1/2-y,z
_cell_length_a                   5.4292(14)
_cell_length_b                   22.306(5)
_cell_length_c                   9.276(2)
_cell_angle_alpha                90
_cell_angle_beta                 93.35(2)
_cell_angle_gamma                90
_cell_volume                     1121.44
_exptl_crystal_description       'blocky needles'
_cell_formula_units_Z            2
loop_
_atom_site_label
_atom_site_type_symbol
_atom_site_fract_x
_atom_site_fract_y
_atom_site_fract_z
N1 N 0.0846(9) 0.5863(2) 0.1646(6)
C1 C 0.2358(12) 0.5583(3) 0.2698(7)
O1 O 0.4253(9) 0.5789(2) 0.3239(6)
C2 C 0.1143(10) 0.5008(3) 0.2987(7)
C3 C 0.1812(13) 0.4544(3) 0.3924(8)
H1 H 0.3264(13) 0.4563(3) 0.4506(8)
C4 C 0.0263(16) 0.4049(3) 0.3972(9)
H2 H 0.0670(16) 0.3737(3) 0.4608(9)
C5 C -0.1846(15) 0.4013(4) 0.3101(9)
H3 H -0.2834(15) 0.3674(4) 0.3133(9)
C6 C -0.2526(13) 0.4474(3) 0.2175(8)
H4 H -0.3984(13) 0.4455(3) 0.1599(8)
C7 C -0.0994(10) 0.4966(3) 0.2124(7)
C8 C -0.1196(11) 0.5518(3) 0.1236(7)
O2 O -0.2730(9) 0.5663(3) 0.0311(6)
C9 C 0.1456(13) 0.6414(3) 0.0929(8)
H5 H 0.0942(13) 0.6386(3) -0.0088(8)
H6 H 0.3230(13) 0.6472(3) 0.1007(8)
C10 C 0.0207(12) 0.6946(3) 0.1586(8)
H7 H -0.1542(12) 0.6864(3) 0.1625(8)
H8 H 0.0883(12) 0.7005(3) 0.2567(8)
N2 N 0.0543(11) 0.7500 0.0746(8)
H9 H 0.2089(52) 0.7500 0.0446(76)
C11 C -0.0928(14) 0.7500 -0.0667(10)
H10 H -0.0435(14) 0.7154 -0.1194(10)
C12 C -0.3683(16) 0.7500 -0.0683(12)
O3 O -0.4812(20) 0.7500 -0.1886(14)
O4 O -0.4640(11) 0.7500 0.0492(12)
C10C C 0.0207(12) 0.8054(3) 0.1586(8)
C9C C 0.1456(13) 0.8586(3) 0.0929(8)
N1C N 0.0846(9) 0.9137(2) 0.1646(6)
C1C C 0.2358(12) 0.9417(3) 0.2698(7)
O1C O 0.4253(9) 0.9211(2) 0.3239(6)
C2C C 0.1143(10) 0.9992(3) 0.2987(7)
C3C C 0.1812(13) 1.0456(3) 0.3924(8)
H1C H 0.3264(13) 1.0437(3) 0.4506(8)
C4C C 0.0263(16) 1.0951(3) 0.3972(9)
H2C H 0.0670(16) 1.1263(3) 0.4608(9)
C5C C -0.1846(15) 1.0987(4) 0.3101(9)
H3C H -0.2834(15) 1.1326(4) 0.3133(9)
C6C C -0.2526(13) 1.0526(3) 0.2175(8)
H4C H -0.3984(13) 1.0545(3) 0.1599(8)
C7C C -0.0994(10) 1.0034(3) 0.2124(7)
C8C C -0.1196(11) 0.9482(3) 0.1236(7)
O2C O -0.2730(9) 0.9337(3) 0.0311(6)
H5C H 0.0942(13) 0.8614(3) -0.0088(8)
H6C H 0.3230(13) 0.8528(3) 0.1007(8)
H7C H -0.1542(12) 0.8136(3) 0.1625(8)
H8C H 0.0883(12) 0.7995(3) 0.2567(8)
H10C H -0.0435(14) 0.7846 -0.1194(10)
O5 O -0.7556(41) 0.7500 -0.4531(24)
H11 H -0.717(21) 0.7500 -0.3574(38)
H12 H -0.9216(44) 0.7500 -0.463(12)
O6 O -1.2360(47) 0.7500 -0.4776(26)
H13 H -1.388(11) 0.7500 -0.521(11)
H14 H -1.257(22) 0.7500 -0.3822(30)
loop_
_geom_bond_atom_site_label_1
_geom_bond_atom_site_label_2
_geom_bond_site_symmetry_1
_geom_bond_site_symmetry_2
N1 C1 1_555 1_555
C1 O1 1_555 1_555
C2 C1 1_555 1_555
C3 C2 1_555 1_555
H1 C3 1_555 1_555
C4 C3 1_555 1_555
H2 C4 1_555 1_555
C5 C4 1_555 1_555
H3 C5 1_555 1_555
C6 C5 1_555 1_555
H4 C6 1_555 1_555
C7 C2 1_555 1_555
C8 N1 1_555 1_555
O2 C8 1_555 1_555
C9 N1 1_555 1_555
H5 C9 1_555 1_555
H6 C9 1_555 1_555
C10 C9 1_555 1_555
H7 C10 1_555 1_555
H8 C10 1_555 1_555
N2 C10 1_555 1_555
H9 N2 1_555 1_555
C11 N2 1_555 1_555
H10 C11 1_555 1_555
C12 C11 1_555 1_555
O3 C12 1_555 1_555
O4 C12 1_555 1_555
O5 H11 1_555 1_555
H12 O5 1_555 1_555
O6 H13 1_555 1_555
H14 O6 1_555 1_555
C10C N2 1_555 1_555
C9C C10C 1_555 1_555
N1C C9C 1_555 1_555
C1C N1C 1_555 1_555
O1C C1C 1_555 1_555
C2C C1C 1_555 1_555
C3C C2C 1_555 1_555
H1C C3C 1_555 1_555
C4C C3C 1_555 1_555
H2C C4C 1_555 1_555
C5C C4C 1_555 1_555
H3C C5C 1_555 1_555
C6C C5C 1_555 1_555
H4C C6C 1_555 1_555
C7C C2C 1_555 1_555
C8C N1C 1_555 1_555
O2C C8C 1_555 1_555
H5C C9C 1_555 1_555
H6C C9C 1_555 1_555
H7C C10C 1_555 1_555
H8C C10C 1_555 1_555
H10C C11 1_555 1_555
C6 C7 1_555 1_555
C7 C8 1_555 1_555
C6C C7C 1_555 1_555
C7C C8C 1_555 1_555

#END
