
#######################################################################
#
#                 Cambridge Crystallographic Data Centre
#                                CCDC 
#
#######################################################################
#
# If this CIF has been generated from an entry in the Cambridge 
# Structural Database, then it will include bibliographic, chemical, 
# crystal, experimental, refinement or atomic coordinate data resulting 
# from the CCDC's data processing and validation procedures.
#
#######################################################################

data_IJOROQ
_chemical_formula_moiety         'C12 H12 Br4 O2'
_chemical_name_systematic        'methyl 2,3,4,5-tetrabromo-5-phenylpentanoate'
_symmetry_cell_setting           monoclinic
_symmetry_space_group_name_H-M   'P 21/n'
_symmetry_Int_Tables_number      14
_space_group_name_Hall           '-P 2yn'
loop_
_symmetry_equiv_pos_site_id
_symmetry_equiv_pos_as_xyz
1 x,y,z
2 1/2-x,1/2+y,1/2-z
3 -x,-y,-z
4 1/2+x,1/2-y,1/2+z
_cell_length_a                   5.5793(3)
_cell_length_b                   22.6180(11)
_cell_length_c                   12.2493(7)
_cell_angle_alpha                90
_cell_angle_beta                 90.142(5)
_cell_angle_gamma                90
_cell_volume                     1545.77
_exptl_crystal_colour            'light colorless'
_exptl_crystal_description       plate
_cell_formula_units_Z            4
_exptl_crystal_recrystallization_method ethanol
loop_
_atom_site_label
_atom_site_type_symbol
_atom_site_fract_x
_atom_site_fract_y
_atom_site_fract_z
Br1 Br 0.7623(3) 0.16326(7) 0.55135(13)
Br2 Br 0.2589(3) 0.20815(7) 0.26121(13)
Br3 Br 0.2431(4) 0.28394(9) 0.52945(16)
Br4 Br 0.7688(3) 0.32524(9) 0.25146(15)
O1 O 0.420(3) 0.4281(5) 0.3969(12)
O2 O 0.694(2) 0.3804(5) 0.4964(10)
C1 C 0.510(3) 0.1008(7) 0.3858(14)
C2 C 0.688(4) 0.0832(8) 0.3178(16)
H1 H 0.8137 0.1086 0.3003
C3 C 0.678(4) 0.0259(9) 0.2749(18)
H2 H 0.8006 0.0128 0.2297
C4 C 0.497(5) -0.0102(8) 0.297(2)
H3 H 0.4939 -0.0477 0.2663
C5 C 0.324(5) 0.0063(10) 0.362(2)
H4 H 0.1992 -0.0196 0.3760
C6 C 0.324(3) 0.0617(9) 0.4086(17)
H5 H 0.2010 0.0729 0.4552
C7 C 0.494(3) 0.1595(7) 0.4433(14)
H6 H 0.3422 0.1612 0.4830
C8 C 0.513(3) 0.2128(6) 0.3727(13)
H7 H 0.6637 0.2080 0.3326
C9 C 0.526(3) 0.2733(6) 0.4235(12)
H8 H 0.6753 0.2756 0.4660
C10 C 0.505(3) 0.3278(8) 0.3579(15)
H9 H 0.3522 0.3273 0.3187
C11 C 0.528(3) 0.3852(7) 0.4194(14)
C12 C 0.765(5) 0.4333(9) 0.552(2)
H10 H 0.8796 0.4544 0.5085
H11 H 0.8371 0.4231 0.6210
H12 H 0.6275 0.4578 0.5644
loop_
_geom_bond_atom_site_label_1
_geom_bond_atom_site_label_2
_geom_bond_site_symmetry_1
_geom_bond_site_symmetry_2
Br1 C7 1_555 1_555
Br2 C8 1_555 1_555
Br3 C9 1_555 1_555
Br4 C10 1_555 1_555
O1 C11 1_555 1_555
O2 C11 1_555 1_555
C1 C2 1_555 1_555
C2 H1 1_555 1_555
C3 C2 1_555 1_555
H2 C3 1_555 1_555
C4 C3 1_555 1_555
H3 C4 1_555 1_555
C5 C4 1_555 1_555
H4 C5 1_555 1_555
C6 C1 1_555 1_555
H5 C6 1_555 1_555
C7 C1 1_555 1_555
H6 C7 1_555 1_555
C8 C7 1_555 1_555
H7 C8 1_555 1_555
C9 C8 1_555 1_555
H8 C9 1_555 1_555
C10 C9 1_555 1_555
H9 C10 1_555 1_555
C11 C10 1_555 1_555
C12 O2 1_555 1_555
H10 C12 1_555 1_555
H11 C12 1_555 1_555
H12 C12 1_555 1_555
C5 C6 1_555 1_555

#END
