
#######################################################################
#
#                 Cambridge Crystallographic Data Centre
#                                CCDC 
#
#######################################################################
#
# If this CIF has been generated from an entry in the Cambridge 
# Structural Database, then it will include bibliographic, chemical, 
# crystal, experimental, refinement or atomic coordinate data resulting 
# from the CCDC's data processing and validation procedures.
#
#######################################################################

data_IJOXOV
_chemical_formula_moiety         'C16 H12 Cl1 N1 O3'
_chemical_name_systematic        
5-Chloro-1-(4-methoxybenzyl)indoline-2,3-dione
_symmetry_cell_setting           orthorhombic
_symmetry_space_group_name_H-M   'P n a 21'
_symmetry_Int_Tables_number      33
_space_group_name_Hall           'P 2c -2n'
loop_
_symmetry_equiv_pos_site_id
_symmetry_equiv_pos_as_xyz
1 x,y,z
2 -x,-y,1/2+z
3 1/2+x,1/2-y,z
4 1/2-x,1/2+y,1/2+z
_cell_length_a                   7.5318(17)
_cell_length_b                   16.587(4)
_cell_length_c                   11.220(3)
_cell_angle_alpha                90
_cell_angle_beta                 90
_cell_angle_gamma                90
_cell_volume                     1401.71
_exptl_crystal_colour            red
_exptl_crystal_description       block
_chemical_melting_point          152-153deg.C
_cell_formula_units_Z            4
loop_
_atom_site_label
_atom_site_type_symbol
_atom_site_fract_x
_atom_site_fract_y
_atom_site_fract_z
Cl1 Cl 0.68342(11) 0.09999(5) 0.75885(8)
O1 O 1.0165(3) 0.41051(12) 0.32537(18)
O2 O 1.0012(3) 0.23283(12) 0.33272(17)
O3 O 0.1766(2) 0.61539(11) 0.48186(16)
N1 N 0.8772(3) 0.39659(11) 0.50677(17)
C1 C 0.4538(4) 0.61020(13) 0.5928(2)
H1 H 0.4197 0.6518 0.6435
C2 C 0.3403(3) 0.58404(13) 0.5057(2)
C3 C 0.3907(3) 0.52070(13) 0.4320(2)
H2 H 0.3127 0.5014 0.3745
C4 C 0.5565(3) 0.48649(13) 0.4443(2)
H3 H 0.5903 0.4448 0.3937
C5 C 0.6734(3) 0.51321(13) 0.5309(2)
C6 C 0.6183(4) 0.57500(13) 0.6055(2)
H4 H 0.6940 0.5930 0.6653
C7 C 0.8599(3) 0.48135(14) 0.5399(2)
H5 H 0.9362 0.5133 0.4887
H6 H 0.9012 0.4881 0.6212
C8 C 0.9424(3) 0.27675(16) 0.4091(2)
C9 C 0.9526(3) 0.37002(16) 0.4045(2)
C10 C 0.8176(3) 0.33139(13) 0.5770(2)
C11 C 0.8551(3) 0.25832(13) 0.52206(19)
C12 C 0.7381(3) 0.33395(14) 0.6865(2)
H7 H 0.7128 0.3829 0.7232
C13 C 0.6964(3) 0.26183(16) 0.7410(2)
H8 H 0.6416 0.2621 0.8153
C14 C 0.7354(3) 0.18880(15) 0.6861(2)
C15 C 0.8143(3) 0.18620(13) 0.5764(2)
H9 H 0.8396 0.1373 0.5397
C16 C 0.1141(4) 0.67967(17) 0.5534(3)
H10 H -0.0019 0.6956 0.5268
H11 H 0.1939 0.7246 0.5470
H12 H 0.1078 0.6625 0.6350
loop_
_geom_bond_atom_site_label_1
_geom_bond_atom_site_label_2
_geom_bond_site_symmetry_1
_geom_bond_site_symmetry_2
Cl1 C14 1_555 1_555
O1 C9 1_555 1_555
O2 C8 1_555 1_555
O3 C2 1_555 1_555
N1 C7 1_555 1_555
C1 H1 1_555 1_555
C2 C1 1_555 1_555
C3 C2 1_555 1_555
H2 C3 1_555 1_555
C4 C3 1_555 1_555
H3 C4 1_555 1_555
C5 C4 1_555 1_555
C6 C1 1_555 1_555
H4 C6 1_555 1_555
C7 C5 1_555 1_555
H5 C7 1_555 1_555
H6 C7 1_555 1_555
C8 C9 1_555 1_555
C9 N1 1_555 1_555
C10 N1 1_555 1_555
C11 C8 1_555 1_555
C12 C10 1_555 1_555
H7 C12 1_555 1_555
C13 C12 1_555 1_555
H8 C13 1_555 1_555
C14 C13 1_555 1_555
C15 C11 1_555 1_555
H9 C15 1_555 1_555
C16 O3 1_555 1_555
H10 C16 1_555 1_555
H11 C16 1_555 1_555
H12 C16 1_555 1_555
C5 C6 1_555 1_555
C10 C11 1_555 1_555
C14 C15 1_555 1_555

#END
