
#######################################################################
#
#                 Cambridge Crystallographic Data Centre
#                                CCDC 
#
#######################################################################
#
# If this CIF has been generated from an entry in the Cambridge 
# Structural Database, then it will include bibliographic, chemical, 
# crystal, experimental, refinement or atomic coordinate data resulting 
# from the CCDC's data processing and validation procedures.
#
#######################################################################

data_IJUCUM
_chemical_formula_moiety         'C29 H24 N4 O2 S1'
_chemical_name_systematic        
3-(4-(((2-Hydroxy-1-naphthyl)methylene)amino)-3-methyl-5-thioxo-4,5-dihydro-1H-1,2,4-triazol-1-yl)-1,3-diphenylpropan-1-one
_symmetry_cell_setting           monoclinic
_symmetry_space_group_name_H-M   'P 21/n'
_symmetry_Int_Tables_number      14
_space_group_name_Hall           '-P 2yn'
loop_
_symmetry_equiv_pos_site_id
_symmetry_equiv_pos_as_xyz
1 x,y,z
2 1/2-x,1/2+y,1/2-z
3 -x,-y,-z
4 1/2+x,1/2-y,1/2+z
_cell_length_a                   7.8192(16)
_cell_length_b                   20.248(4)
_cell_length_c                   15.360(3)
_cell_angle_alpha                90
_cell_angle_beta                 94.69(3)
_cell_angle_gamma                90
_cell_volume                     2423.7
_exptl_crystal_colour            colorless
_exptl_crystal_description       prism
_cell_formula_units_Z            4
loop_
_atom_site_label
_atom_site_type_symbol
_atom_site_fract_x
_atom_site_fract_y
_atom_site_fract_z
S1 S 0.28857(5) 0.20831(2) -0.04504(3)
O1 O 0.77192(16) -0.01503(7) -0.07589(10)
H1 H 0.760(3) 0.0246(14) -0.0519(16)
O2 O 0.64680(17) 0.36195(7) -0.03561(8)
N1 N 0.61510(18) 0.09480(7) -0.04258(9)
N2 N 0.60991(17) 0.15359(7) 0.00352(9)
N3 N 0.55703(17) 0.24391(7) 0.06788(9)
N4 N 0.72369(17) 0.22717(7) 0.09686(9)
C1 C 0.4776(2) 0.07206(9) -0.08296(11)
H2 H 0.3737 0.0963 -0.0827
C2 C 0.4795(2) 0.00970(8) -0.12901(11)
C3 C 0.3266(2) -0.01202(9) -0.17983(11)
C4 C 0.1714(2) 0.02452(9) -0.18680(12)
H3 H 0.1656 0.0655 -0.1570
C5 C 0.0298(3) 0.00162(10) -0.23590(12)
H4 H -0.0730 0.0269 -0.2393
C6 C 0.0336(3) -0.05847(11) -0.28135(12)
H5 H -0.0655 -0.0736 -0.3155
C7 C 0.1806(3) -0.09494(10) -0.27597(12)
H6 H 0.1831 -0.1357 -0.3065
C8 C 0.3299(2) -0.07301(9) -0.22563(11)
C9 C 0.4830(3) -0.11108(9) -0.21919(12)
H7 H 0.4860 -0.1515 -0.2505
C10 C 0.6248(3) -0.09121(9) -0.16955(13)
H8 H 0.7247 -0.1181 -0.1654
C11 C 0.6248(2) -0.03069(9) -0.12387(11)
C12 C 0.4817(2) 0.20104(8) 0.00885(11)
C13 C 0.7525(2) 0.17231(9) 0.05596(11)
C14 C 0.9162(2) 0.13542(9) 0.06260(12)
H9 H 0.9996 0.1582 0.1032
H10 H 0.9607 0.1329 0.0049
H11 H 0.8968 0.0907 0.0841
C15 C 0.4795(2) 0.30482(8) 0.09933(11)
H12 H 0.3971 0.3220 0.0515
C16 C 0.3790(2) 0.29017(8) 0.17815(11)
C17 C 0.2021(2) 0.28203(9) 0.16602(12)
H13 H 0.1450 0.2880 0.1096
C18 C 0.1083(2) 0.26531(10) 0.23552(13)
H14 H -0.0125 0.2598 0.2264
C19 C 0.1902(2) 0.25662(10) 0.31833(13)
H15 H 0.1264 0.2444 0.3658
C20 C 0.3654(2) 0.26592(10) 0.33109(12)
H16 H 0.4217 0.2607 0.3878
C21 C 0.4598(2) 0.28280(9) 0.26172(12)
H17 H 0.5802 0.2894 0.2713
C22 C 0.6197(2) 0.35606(9) 0.11750(11)
H18 H 0.5679 0.3971 0.1386
H19 H 0.7029 0.3396 0.1645
C23 C 0.7142(2) 0.37200(9) 0.03791(12)
C24 C 0.8901(2) 0.39992(8) 0.05155(11)
C25 C 0.9478(2) 0.42988(9) 0.13012(12)
H20 H 0.8764 0.4305 0.1773
C26 C 1.1086(2) 0.45870(10) 0.13988(12)
H21 H 1.1462 0.4801 0.1931
C27 C 1.2149(2) 0.45643(10) 0.07221(13)
H22 H 1.3257 0.4760 0.0790
C28 C 1.1596(2) 0.42573(10) -0.00498(13)
H23 H 1.2336 0.4235 -0.0509
C29 C 0.9982(2) 0.39815(9) -0.01643(12)
H24 H 0.9606 0.3780 -0.0705
loop_
_geom_bond_atom_site_label_1
_geom_bond_atom_site_label_2
_geom_bond_site_symmetry_1
_geom_bond_site_symmetry_2
S1 C12 1_555 1_555
O1 H1 1_555 1_555
O2 C23 1_555 1_555
N1 N2 1_555 1_555
N2 C12 1_555 1_555
N3 N4 1_555 1_555
N4 C13 1_555 1_555
C1 N1 1_555 1_555
H2 C1 1_555 1_555
C2 C1 1_555 1_555
C3 C2 1_555 1_555
C4 C3 1_555 1_555
H3 C4 1_555 1_555
C5 C4 1_555 1_555
H4 C5 1_555 1_555
C6 C5 1_555 1_555
H5 C6 1_555 1_555
C7 C6 1_555 1_555
H6 C7 1_555 1_555
C8 C3 1_555 1_555
C9 C8 1_555 1_555
H7 C9 1_555 1_555
C10 C9 1_555 1_555
H8 C10 1_555 1_555
C11 O1 1_555 1_555
C12 N3 1_555 1_555
C13 N2 1_555 1_555
C14 C13 1_555 1_555
H9 C14 1_555 1_555
H10 C14 1_555 1_555
H11 C14 1_555 1_555
C15 N3 1_555 1_555
H12 C15 1_555 1_555
C16 C15 1_555 1_555
C17 C16 1_555 1_555
H13 C17 1_555 1_555
C18 C17 1_555 1_555
H14 C18 1_555 1_555
C19 C18 1_555 1_555
H15 C19 1_555 1_555
C20 C19 1_555 1_555
H16 C20 1_555 1_555
C21 C16 1_555 1_555
H17 C21 1_555 1_555
C22 C15 1_555 1_555
H18 C22 1_555 1_555
H19 C22 1_555 1_555
C23 C22 1_555 1_555
C24 C23 1_555 1_555
C25 C24 1_555 1_555
H20 C25 1_555 1_555
C26 C25 1_555 1_555
H21 C26 1_555 1_555
C27 C26 1_555 1_555
H22 C27 1_555 1_555
C28 C27 1_555 1_555
H23 C28 1_555 1_555
C29 C24 1_555 1_555
H24 C29 1_555 1_555
C2 C11 1_555 1_555
C7 C8 1_555 1_555
C10 C11 1_555 1_555
C20 C21 1_555 1_555
C28 C29 1_555 1_555

#END
