
#######################################################################
#
#                 Cambridge Crystallographic Data Centre
#                                CCDC 
#
#######################################################################
#
# If this CIF has been generated from an entry in the Cambridge 
# Structural Database, then it will include bibliographic, chemical, 
# crystal, experimental, refinement or atomic coordinate data resulting 
# from the CCDC's data processing and validation procedures.
#
#######################################################################

data_IJUFAV
_chemical_name_common            
3-[(Furan-2-ylmethylidene)amino]-1-(4-methylphenyl)thiourea
_chemical_formula_moiety         'C13 H13 N3 O1 S1'
_chemical_name_systematic        
2-(2-Furylmethylene)-N-(4-methylphenyl)hydrazinecarbothioamide
_symmetry_cell_setting           monoclinic
_symmetry_space_group_name_H-M   'P 21/c'
_symmetry_Int_Tables_number      14
_space_group_name_Hall           '-P 2ybc'
loop_
_symmetry_equiv_pos_site_id
_symmetry_equiv_pos_as_xyz
1 x,y,z
2 -x,1/2+y,1/2-z
3 -x,-y,-z
4 x,1/2-y,1/2+z
_cell_length_a                   12.9464(3)
_cell_length_b                   13.8613(3)
_cell_length_c                   16.6155(5)
_cell_angle_alpha                90
_cell_angle_beta                 118.028(2)
_cell_angle_gamma                90
_cell_volume                     2632.02
_exptl_crystal_colour            colorless
_exptl_crystal_description       prismatic
_cell_formula_units_Z            8
loop_
_atom_site_label
_atom_site_type_symbol
_atom_site_fract_x
_atom_site_fract_y
_atom_site_fract_z
S1 S 0.12468(5) 0.04591(4) 0.57517(3)
O1 O 0.63171(13) 0.26407(12) 0.80209(9)
N1 N 0.42256(15) 0.16907(13) 0.73490(11)
N3 N 0.32088(16) 0.11669(14) 0.70435(12)
H1 H 0.3089 0.0811 0.7415
N5 N 0.26010(16) 0.18718(14) 0.56597(12)
H3 H 0.3172 0.2263 0.5953
C1 C 0.7393(2) 0.3023(2) 0.85542(18)
H5 H 0.7772 0.3453 0.8351
C3 C 0.7830(2) 0.2704(2) 0.93994(16)
H7 H 0.8552 0.2864 0.9884
C5 C 0.6988(2) 0.20724(19) 0.94272(15)
H9 H 0.7047 0.1737 0.9932
C7 C 0.60805(18) 0.20553(15) 0.85729(13)
C9 C 0.49801(19) 0.15645(15) 0.81887(13)
H11 H 0.4809 0.1150 0.8550
C11 C 0.23996(18) 0.12135(15) 0.61564(13)
C13 C 0.19719(18) 0.19935(14) 0.46945(14)
C15 C 0.2592(2) 0.20326(18) 0.42067(16)
H13 H 0.3405 0.1996 0.4512
C17 C 0.2013(2) 0.21261(18) 0.32708(17)
H15 H 0.2443 0.2155 0.2954
C19 C 0.0806(2) 0.21771(16) 0.27934(15)
C21 C 0.0199(2) 0.21777(18) 0.32891(16)
H17 H -0.0612 0.2233 0.2983
C23 C 0.07673(19) 0.20985(17) 0.42347(15)
H19 H 0.0341 0.2116 0.4555
C25 C 0.0164(3) 0.2217(2) 0.17613(17)
H21 H 0.0540 0.2675 0.1551
H22 H -0.0632 0.2410 0.1560
H23 H 0.0177 0.1591 0.1519
S2 S 0.30556(5) 0.53789(4) 0.36034(4)
O2 O -0.24494(16) 0.36883(14) 0.18097(11)
N2 N -0.02089(16) 0.45411(12) 0.24339(12)
N4 N 0.08617(16) 0.48994(14) 0.25989(11)
H2 H 0.0953 0.5122 0.2153
N6 N 0.15430(16) 0.45539(14) 0.40998(12)
H4 H 0.0848 0.4331 0.3913
C2 C -0.3614(3) 0.3434(2) 0.12705(19)
H6 H -0.4045 0.3037 0.1453
C4 C -0.4018(2) 0.3844(2) 0.04573(17)
H8 H -0.4772 0.3789 -0.0025
C6 C -0.3098(2) 0.43732(19) 0.04610(15)
H10 H -0.3126 0.4738 -0.0019
C8 C -0.2166(2) 0.42593(15) 0.12823(14)
C10 C -0.10118(19) 0.46325(15) 0.16071(14)
H12 H -0.0833 0.4958 0.1199
C12 C 0.17739(18) 0.49072(14) 0.34471(13)
C14 C 0.22866(19) 0.45001(15) 0.50532(14)
C16 C 0.1803(2) 0.4686(2) 0.56153(17)
H14 H 0.1016 0.4851 0.5362
C18 C 0.2462(3) 0.4631(2) 0.65487(17)
H16 H 0.2114 0.4764 0.6915
C20 C 0.3629(2) 0.43844(17) 0.69498(15)
C22 C 0.41067(19) 0.41712(16) 0.63797(14)
H18 H 0.4888 0.3987 0.6634
C24 C 0.34502(19) 0.42261(16) 0.54403(14)
H20 H 0.3790 0.4079 0.5071
C26 C 0.4365(3) 0.4347(2) 0.79706(17)
H24 H 0.3925 0.4598 0.8255
H25 H 0.5058 0.4728 0.8149
H26 H 0.4581 0.3691 0.8159
loop_
_geom_bond_atom_site_label_1
_geom_bond_atom_site_label_2
_geom_bond_site_symmetry_1
_geom_bond_site_symmetry_2
S1 C11 1_555 1_555
S2 C12 1_555 1_555
O1 C1 1_555 1_555
O2 C2 1_555 1_555
N1 N3 1_555 1_555
N2 N4 1_555 1_555
N3 H1 1_555 1_555
N4 H2 1_555 1_555
N5 H3 1_555 1_555
N6 H4 1_555 1_555
C1 H5 1_555 1_555
C2 H6 1_555 1_555
C3 C1 1_555 1_555
H7 C3 1_555 1_555
C4 C2 1_555 1_555
H8 C4 1_555 1_555
C5 C3 1_555 1_555
H9 C5 1_555 1_555
C6 C4 1_555 1_555
H10 C6 1_555 1_555
C7 O1 1_555 1_555
C8 O2 1_555 1_555
C9 N1 1_555 1_555
H11 C9 1_555 1_555
C10 N2 1_555 1_555
H12 C10 1_555 1_555
C11 N3 1_555 1_555
C12 N4 1_555 1_555
C13 N5 1_555 1_555
C14 N6 1_555 1_555
C15 C13 1_555 1_555
H13 C15 1_555 1_555
C16 C14 1_555 1_555
H14 C16 1_555 1_555
C17 C15 1_555 1_555
H15 C17 1_555 1_555
C18 C16 1_555 1_555
H16 C18 1_555 1_555
C19 C17 1_555 1_555
C20 C18 1_555 1_555
C21 C19 1_555 1_555
H17 C21 1_555 1_555
C22 C20 1_555 1_555
H18 C22 1_555 1_555
C23 C13 1_555 1_555
H19 C23 1_555 1_555
C24 C14 1_555 1_555
H20 C24 1_555 1_555
C25 C19 1_555 1_555
H21 C25 1_555 1_555
H22 C25 1_555 1_555
H23 C25 1_555 1_555
C26 C20 1_555 1_555
H24 C26 1_555 1_555
H25 C26 1_555 1_555
H26 C26 1_555 1_555
N5 C11 1_555 1_555
N6 C12 1_555 1_555
C5 C7 1_555 1_555
C6 C8 1_555 1_555
C7 C9 1_555 1_555
C8 C10 1_555 1_555
C21 C23 1_555 1_555
C22 C24 1_555 1_555

#END
