
#######################################################################
#
#                 Cambridge Crystallographic Data Centre
#                                CCDC 
#
#######################################################################
#
# If this CIF has been generated from an entry in the Cambridge 
# Structural Database, then it will include bibliographic, chemical, 
# crystal, experimental, refinement or atomic coordinate data resulting 
# from the CCDC's data processing and validation procedures.
#
#######################################################################

data_IJUHEC
_chemical_compound_source        'Pestalotiopsis disseminata (NRRL 62562)'
_chemical_formula_moiety         'C20 H25 Br1 O5'
_chemical_name_systematic        
'4-(4,5-Dimethylhexahydrofuro[2,3-b]furan-3-yl)-3-methyl-4-oxobutan-2-yl 4-bromobenzoate'
_symmetry_cell_setting           orthorhombic
_symmetry_space_group_name_H-M   'P 21 21 21'
_symmetry_Int_Tables_number      19
_space_group_name_Hall           'P 2ac 2ab'
loop_
_symmetry_equiv_pos_site_id
_symmetry_equiv_pos_as_xyz
1 x,y,z
2 1/2-x,-y,1/2+z
3 -x,1/2+y,1/2-z
4 1/2+x,1/2-y,-z
_cell_length_a                   5.6258(2)
_cell_length_b                   18.7127(8)
_cell_length_c                   18.9450(8)
_cell_angle_alpha                90
_cell_angle_beta                 90
_cell_angle_gamma                90
_cell_volume                     1994.41
_exptl_crystal_colour            colorless
_exptl_crystal_description       lath
_cell_formula_units_Z            4
loop_
_atom_site_label
_atom_site_type_symbol
_atom_site_fract_x
_atom_site_fract_y
_atom_site_fract_z
C1 C 0.6281(12) 0.3639(3) 0.1065(3)
O1 O 0.8273(7) 0.3797(2) 0.0900(3)
C2 C 0.5259(9) 0.2894(3) 0.1013(3)
C3 C 0.6638(9) 0.2382(3) 0.0686(3)
H1 H 0.8127 0.2510 0.0486
C4 C 0.5852(11) 0.1683(3) 0.0649(3)
H2 H 0.6782 0.1328 0.0420
C5 C 0.3705(10) 0.1510(3) 0.0947(3)
Br1 Br 0.26334(15) 0.05489(3) 0.09144(3)
C6 C 0.2278(11) 0.2014(3) 0.1268(3)
H3 H 0.0791 0.1882 0.1467
C7 C 0.3061(9) 0.2717(3) 0.1294(3)
H4 H 0.2094 0.3076 0.1503
C8 C 0.6349(14) 0.4931(3) 0.2150(4)
H5 H 0.7581 0.4574 0.2248
H6 H 0.5030 0.4869 0.2482
H7 H 0.7019 0.5411 0.2203
C9 C 0.5456(10) 0.4836(3) 0.1408(4)
H8 H 0.6766 0.4939 0.1066
O2 O 0.4676(6) 0.41018(19) 0.1328(2)
C10 C 0.3322(9) 0.5293(3) 0.1236(3)
H9 H 0.2061 0.5192 0.1595
C11 C 0.2283(14) 0.5134(3) 0.0496(3)
H10 H 0.1002 0.5474 0.0394
H11 H 0.1652 0.4646 0.0486
H12 H 0.3537 0.5183 0.0141
C12 C 0.3930(10) 0.6082(3) 0.1274(3)
O3 O 0.5931(7) 0.62883(19) 0.1145(2)
C13 C 0.1942(10) 0.6590(3) 0.1443(3)
H13 H 0.0600 0.6482 0.1114
C14 C 0.2540(16) 0.7377(3) 0.1365(3)
H14 H 0.3938 0.7448 0.1047
C15 C 0.0471(17) 0.7855(4) 0.1149(5)
H15 H -0.0812 0.7567 0.0920
C16 C 0.131(2) 0.8455(5) 0.0660(5)
H16 H -0.0065 0.8742 0.0513
H17 H 0.2070 0.8248 0.0242
H18 H 0.2445 0.8759 0.0910
C17 C -0.0367(18) 0.8152(5) 0.1841(7)
H19 H -0.1514 0.7796 0.2037
C18 C -0.1534(17) 0.8857(4) 0.1899(6)
H20 H -0.1973 0.8945 0.2392
H21 H -0.2967 0.8863 0.1604
H22 H -0.0438 0.9230 0.1739
O4 O 0.1708(14) 0.8139(3) 0.2305(3)
C19 C 0.3176(16) 0.7559(4) 0.2140(4)
H23 H 0.4887 0.7699 0.2179
O5 O 0.2708(14) 0.6960(3) 0.2555(3)
C20 C 0.100(3) 0.6512(5) 0.2197(4)
H24 H -0.0640 0.6696 0.2245
H25 H 0.1070 0.6011 0.2363
C21? C 0.278(2) 0.7365(3) 0.1379(5)
H26? H 0.4513 0.7379 0.1259
C22? C 0.137(3) 0.7830(6) 0.0860(6)
H27? H 0.0760 0.7544 0.0452
C23? C 0.286(3) 0.8468(8) 0.0615(9)
H28? H 0.1840 0.8805 0.0359
H29? H 0.4129 0.8301 0.0303
H30? H 0.3553 0.8707 0.1026
C24? C -0.063(2) 0.8081(7) 0.1331(9)
H31? H -0.1783 0.7677 0.1367
C25? C -0.203(3) 0.8728(8) 0.1165(9)
H32? H -0.2750 0.8914 0.1598
H33? H -0.3285 0.8606 0.0827
H34? H -0.0987 0.9091 0.0959
O6? O 0.045(3) 0.8163(6) 0.2028(6)
C26? C 0.236(3) 0.7697(5) 0.2120(6)
H35? H 0.3800 0.7971 0.2269
O7? O 0.192(3) 0.7154(5) 0.2598(4)
C27? C 0.152(5) 0.6488(7) 0.2235(5)
H36? H -0.0129 0.6324 0.2318
H37? H 0.2618 0.6119 0.2421
loop_
_geom_bond_atom_site_label_1
_geom_bond_atom_site_label_2
_geom_bond_site_symmetry_1
_geom_bond_site_symmetry_2
C1 O1 1_555 1_555
C2 C1 1_555 1_555
C3 C2 1_555 1_555
H1 C3 1_555 1_555
C4 C3 1_555 1_555
H2 C4 1_555 1_555
C5 C4 1_555 1_555
Br1 C5 1_555 1_555
C6 C5 1_555 1_555
H3 C6 1_555 1_555
C7 C2 1_555 1_555
H4 C7 1_555 1_555
C8 H5 1_555 1_555
H6 C8 1_555 1_555
H7 C8 1_555 1_555
C9 C8 1_555 1_555
H8 C9 1_555 1_555
O2 C1 1_555 1_555
C10 C9 1_555 1_555
H9 C10 1_555 1_555
C11 C10 1_555 1_555
H10 C11 1_555 1_555
H11 C11 1_555 1_555
H12 C11 1_555 1_555
C12 C10 1_555 1_555
O3 C12 1_555 1_555
C13 C12 1_555 1_555
H13 C13 1_555 1_555
C14 C13 1_555 1_555
H14 C14 1_555 1_555
C15 C14 1_555 1_555
H15 C15 1_555 1_555
C16 C15 1_555 1_555
H16 C16 1_555 1_555
H17 C16 1_555 1_555
H18 C16 1_555 1_555
C17 C15 1_555 1_555
H19 C17 1_555 1_555
C18 C17 1_555 1_555
H20 C18 1_555 1_555
H21 C18 1_555 1_555
H22 C18 1_555 1_555
O4 C17 1_555 1_555
C19 C14 1_555 1_555
H23 C19 1_555 1_555
O5 C19 1_555 1_555
C20 C13 1_555 1_555
H24 C20 1_555 1_555
H25 C20 1_555 1_555
C6 C7 1_555 1_555
C9 O2 1_555 1_555
O4 C19 1_555 1_555
O5 C20 1_555 1_555

#END
