
#######################################################################
#
#                 Cambridge Crystallographic Data Centre
#                                CCDC 
#
#######################################################################
#
# If this CIF has been generated from an entry in the Cambridge 
# Structural Database, then it will include bibliographic, chemical, 
# crystal, experimental, refinement or atomic coordinate data resulting 
# from the CCDC's data processing and validation procedures.
#
#######################################################################

data_IJUKEE
_chemical_formula_moiety         'C14 H11 N3 O5'
_chemical_name_systematic        
(E)-4-Hydroxy-N'-(4-hydroxy-3-nitrobenzylidene)benzohydrazide
_symmetry_cell_setting           monoclinic
_symmetry_space_group_name_H-M   'P 21/n'
_symmetry_Int_Tables_number      14
_space_group_name_Hall           '-P 2yn'
loop_
_symmetry_equiv_pos_site_id
_symmetry_equiv_pos_as_xyz
1 x,y,z
2 1/2-x,1/2+y,1/2-z
3 -x,-y,-z
4 1/2+x,1/2-y,1/2+z
_cell_length_a                   8.786(3)
_cell_length_b                   14.882(2)
_cell_length_c                   10.3064(17)
_cell_angle_alpha                90
_cell_angle_beta                 91.100(2)
_cell_angle_gamma                90
_cell_volume                     1347.35
_exptl_crystal_colour            yellow
_exptl_crystal_description       block
_cell_formula_units_Z            4
loop_
_atom_site_label
_atom_site_type_symbol
_atom_site_fract_x
_atom_site_fract_y
_atom_site_fract_z
N1 N 0.4602(3) 0.40859(16) 0.1386(3)
N2 N 0.3606(3) 0.34194(16) 0.0989(3)
O1 O 1.0054(2) 0.64891(13) 0.3680(3)
H1 H 0.9704 0.6998 0.3614
O2 O 0.6482(2) 0.30744(13) 0.1654(2)
O3 O -0.2256(3) 0.12672(15) -0.0998(3)
H2 H -0.3047 0.1529 -0.1200
O4 O -0.3830(3) 0.26935(19) -0.1553(3)
O5 O -0.2875(3) 0.40196(19) -0.1256(3)
C1 C 0.7049(3) 0.45812(18) 0.2226(3)
C2 C 0.6644(3) 0.54841(18) 0.2232(3)
H3 H 0.5691 0.5655 0.1909
C3 C 0.7623(3) 0.61274(19) 0.2707(3)
H4 H 0.7332 0.6728 0.2699
C4 C 0.9033(3) 0.58892(19) 0.3194(3)
C5 C 0.9456(4) 0.49917(19) 0.3202(3)
H5 H 1.0406 0.4824 0.3534
C6 C 0.8471(3) 0.4349(2) 0.2720(3)
H6 H 0.8766 0.3749 0.2726
C7 C 0.6036(3) 0.38575(19) 0.1743(3)
C8 C 0.2280(4) 0.3678(2) 0.0654(3)
H7 H 0.2047 0.4287 0.0685
C9 C 0.1110(3) 0.3044(2) 0.0222(3)
C10 C -0.0244(3) 0.3372(2) -0.0261(3)
H8 H -0.0398 0.3989 -0.0301
C11 C -0.1385(3) 0.2798(2) -0.0692(3)
C12 C -0.1193(4) 0.1874(2) -0.0631(3)
C13 C 0.0193(4) 0.1544(2) -0.0147(3)
H9 H 0.0347 0.0926 -0.0102
C14 C 0.1324(4) 0.2110(2) 0.0262(3)
H10 H 0.2243 0.1875 0.0569
N3 N -0.2779(3) 0.3202(2) -0.1195(3)
H11 H 0.424(3) 0.4649(10) 0.144(3)
loop_
_geom_bond_atom_site_label_1
_geom_bond_atom_site_label_2
_geom_bond_site_symmetry_1
_geom_bond_site_symmetry_2
N1 N2 1_555 1_555
N2 C8 1_555 1_555
O1 H1 1_555 1_555
O2 C7 1_555 1_555
O3 H2 1_555 1_555
O4 N3 1_555 1_555
O5 N3 1_555 1_555
C1 C2 1_555 1_555
C2 H3 1_555 1_555
C3 C2 1_555 1_555
H4 C3 1_555 1_555
C4 O1 1_555 1_555
C5 C4 1_555 1_555
H5 C5 1_555 1_555
C6 C1 1_555 1_555
H6 C6 1_555 1_555
C7 N1 1_555 1_555
C8 H7 1_555 1_555
C9 C8 1_555 1_555
C10 C9 1_555 1_555
H8 C10 1_555 1_555
C11 C10 1_555 1_555
C12 O3 1_555 1_555
C13 C12 1_555 1_555
H9 C13 1_555 1_555
C14 C9 1_555 1_555
H10 C14 1_555 1_555
N3 C11 1_555 1_555
H11 N1 1_555 1_555
C1 C7 1_555 1_555
C3 C4 1_555 1_555
C5 C6 1_555 1_555
C11 C12 1_555 1_555
C13 C14 1_555 1_555

#END
