
#######################################################################
#
#                 Cambridge Crystallographic Data Centre
#                                CCDC 
#
#######################################################################
#
# If this CIF has been generated from an entry in the Cambridge 
# Structural Database, then it will include bibliographic, chemical, 
# crystal, experimental, refinement or atomic coordinate data resulting 
# from the CCDC's data processing and validation procedures.
#
#######################################################################

data_IJULIK
_chemical_formula_moiety         'C20 H25 N1 Si2'
_chemical_name_systematic        
1-Phenyl-2,5-bis((trimethylsilyl)ethynyl)-1H-pyrrole
_symmetry_cell_setting           triclinic
_symmetry_space_group_name_H-M   'P -1'
_symmetry_Int_Tables_number      2
_space_group_name_Hall           '-P 1'
loop_
_symmetry_equiv_pos_site_id
_symmetry_equiv_pos_as_xyz
1 x,y,z
2 -x,-y,-z
_cell_length_a                   9.875(5)
_cell_length_b                   10.911(5)
_cell_length_c                   11.398(5)
_cell_angle_alpha                113.929(5)
_cell_angle_beta                 101.078(5)
_cell_angle_gamma                104.688(5)
_cell_volume                     1023.64
_exptl_crystal_colour            colorless
_exptl_crystal_description       block
_cell_formula_units_Z            2
loop_
_atom_site_label
_atom_site_type_symbol
_atom_site_fract_x
_atom_site_fract_y
_atom_site_fract_z
C1 C 0.2731(2) 0.58630(19) 1.14472(17)
C2 C 0.1761(2) 0.5211(2) 1.19156(18)
H1 H 0.0795 0.4496 1.1384
C3 C 0.2448(2) 0.5785(2) 1.33228(18)
H2 H 0.2028 0.5525 1.3911
C4 C 0.3829(2) 0.6787(2) 1.36973(17)
C5 C 0.53027(19) 0.77588(19) 1.24925(16)
C6 C 0.5887(2) 0.9221(2) 1.33986(18)
H3 H 0.5431 0.9617 1.4047
C7 C 0.7130(2) 1.0101(2) 1.3357(2)
H4 H 0.7548 1.1102 1.3994
C8 C 0.7774(2) 0.9533(2) 1.2390(2)
H5 H 0.8620 1.0145 1.2350
C9 C 0.7183(2) 0.8074(2) 1.14839(19)
H6 H 0.7626 0.7685 1.0821
C10 C 0.5957(2) 0.7179(2) 1.15328(18)
H7 H 0.5561 0.6174 1.0916
C11 C 0.25507(19) 0.56805(19) 1.01061(18)
C12 C 0.23956(19) 0.54937(19) 0.89650(18)
C13 C 0.4232(2) 0.5675(2) 0.7212(2)
H8 H 0.4224 0.5531 0.6304
H9 H 0.4684 0.5059 0.7434
H10 H 0.4810 0.6688 0.7885
C14 C 0.1475(2) 0.6426(2) 0.69071(19)
H11 H 0.1414 0.6290 0.5991
H12 H 0.2097 0.7429 0.7581
H13 H 0.0476 0.6208 0.6975
C15 C 0.1159(2) 0.3273(2) 0.60167(19)
H14 H 0.1095 0.3094 0.5089
H15 H 0.0159 0.3051 0.6082
H16 H 0.1616 0.2659 0.6234
C16 C 0.4974(2) 0.7617(2) 1.49930(18)
C17 C 0.5913(2) 0.8313(2) 1.61074(19)
C18 C 0.6578(2) 1.0144(2) 1.91222(19)
H17 H 0.7373 1.0768 2.0004
H18 H 0.5925 0.9320 1.9148
H19 H 0.6002 1.0692 1.8931
C19 C 0.8448(2) 0.8384(2) 1.8073(2)
H20 H 0.9251 0.8978 1.8952
H21 H 0.8869 0.8037 1.7346
H22 H 0.7776 0.7558 1.8083
C20 C 0.8574(2) 1.1006(2) 1.7633(2)
H23 H 0.9385 1.1662 1.8499
H24 H 0.7972 1.1527 1.7424
H25 H 0.8988 1.0634 1.6905
N1 N 0.40149(16) 0.68476(15) 1.25415(14)
Si1 Si 0.23048(6) 0.51962(6) 0.72372(5)
Si2 Si 0.73997(6) 0.94839(6) 1.77659(5)
loop_
_geom_bond_atom_site_label_1
_geom_bond_atom_site_label_2
_geom_bond_site_symmetry_1
_geom_bond_site_symmetry_2
C1 C2 1_555 1_555
C2 H1 1_555 1_555
C3 C2 1_555 1_555
H2 C3 1_555 1_555
C4 C3 1_555 1_555
C5 C6 1_555 1_555
C6 H3 1_555 1_555
C7 C6 1_555 1_555
H4 C7 1_555 1_555
C8 C7 1_555 1_555
H5 C8 1_555 1_555
C9 C8 1_555 1_555
H6 C9 1_555 1_555
C10 C5 1_555 1_555
H7 C10 1_555 1_555
C11 C1 1_555 1_555
C12 C11 1_555 1_555
C13 H8 1_555 1_555
H9 C13 1_555 1_555
H10 C13 1_555 1_555
C14 H11 1_555 1_555
H12 C14 1_555 1_555
H13 C14 1_555 1_555
C15 H14 1_555 1_555
H15 C15 1_555 1_555
H16 C15 1_555 1_555
C16 C4 1_555 1_555
C17 C16 1_555 1_555
C18 H17 1_555 1_555
H18 C18 1_555 1_555
H19 C18 1_555 1_555
C19 H20 1_555 1_555
H21 C19 1_555 1_555
H22 C19 1_555 1_555
C20 H23 1_555 1_555
H24 C20 1_555 1_555
H25 C20 1_555 1_555
N1 C1 1_555 1_555
Si1 C12 1_555 1_555
Si2 C17 1_555 1_555
C4 N1 1_555 1_555
C5 N1 1_555 1_555
C9 C10 1_555 1_555
C13 Si1 1_555 1_555
C14 Si1 1_555 1_555
C15 Si1 1_555 1_555
C18 Si2 1_555 1_555
C19 Si2 1_555 1_555
C20 Si2 1_555 1_555

#END
