
#######################################################################
#
#                 Cambridge Crystallographic Data Centre
#                                CCDC 
#
#######################################################################
#
# If this CIF has been generated from an entry in the Cambridge 
# Structural Database, then it will include bibliographic, chemical, 
# crystal, experimental, refinement or atomic coordinate data resulting 
# from the CCDC's data processing and validation procedures.
#
#######################################################################

data_IJUPUZ
_chemical_formula_moiety         'C9 H8 Cl2 O1'
_chemical_name_systematic        2,2-Dichloro-1-(4-methylphenyl)ethanone
_symmetry_cell_setting           monoclinic
_symmetry_space_group_name_H-M   'P 21/c'
_symmetry_Int_Tables_number      14
_space_group_name_Hall           '-P 2ybc'
loop_
_symmetry_equiv_pos_site_id
_symmetry_equiv_pos_as_xyz
1 x,y,z
2 -x,1/2+y,1/2-z
3 -x,-y,-z
4 x,1/2-y,1/2+z
_cell_length_a                   6.650(5)
_cell_length_b                   9.959(7)
_cell_length_c                   14.475(11)
_cell_angle_alpha                90
_cell_angle_beta                 92.921(9)
_cell_angle_gamma                90
_cell_volume                     957.395
_exptl_crystal_colour            colorless
_exptl_crystal_description       block
_cell_formula_units_Z            4
loop_
_atom_site_label
_atom_site_type_symbol
_atom_site_fract_x
_atom_site_fract_y
_atom_site_fract_z
Cl1 Cl 1.21054(15) 0.84106(11) 0.13668(8)
Cl2 Cl 0.79412(19) 0.87565(15) 0.07241(8)
O1 O 0.9705(4) 0.6849(3) 0.2551(2)
C1 C 0.9678(5) 0.8856(4) 0.1682(2)
H1 H 0.9707 0.9780 0.1915
C2 C 0.8918(5) 0.7929(4) 0.2428(2)
C3 C 0.7161(5) 0.8368(3) 0.2934(2)
C4 C 0.6500(5) 0.9690(4) 0.2946(2)
H2 H 0.7173 1.0350 0.2629
C5 C 0.4837(5) 1.0019(4) 0.3433(3)
H3 H 0.4403 1.0907 0.3436
C6 C 0.3800(5) 0.9072(4) 0.3915(2)
C7 C 0.4492(6) 0.7764(4) 0.3911(3)
H4 H 0.3823 0.7111 0.4238
C8 C 0.6142(6) 0.7406(4) 0.3439(3)
H5 H 0.6588 0.6521 0.3453
C9 C 0.1955(5) 0.9460(5) 0.4417(3)
H6 H 0.2314 1.0114 0.4884
H7 H 0.1410 0.8679 0.4701
H8 H 0.0965 0.9834 0.3985
loop_
_geom_bond_atom_site_label_1
_geom_bond_atom_site_label_2
_geom_bond_site_symmetry_1
_geom_bond_site_symmetry_2
Cl1 C1 1_555 1_555
Cl2 C1 1_555 1_555
O1 C2 1_555 1_555
C1 H1 1_555 1_555
C2 C1 1_555 1_555
C3 C2 1_555 1_555
C4 C3 1_555 1_555
H2 C4 1_555 1_555
C5 C4 1_555 1_555
H3 C5 1_555 1_555
C6 C5 1_555 1_555
C7 C6 1_555 1_555
H4 C7 1_555 1_555
C8 C3 1_555 1_555
H5 C8 1_555 1_555
C9 C6 1_555 1_555
H6 C9 1_555 1_555
H7 C9 1_555 1_555
H8 C9 1_555 1_555
C7 C8 1_555 1_555

#END
