
#######################################################################
#
#                 Cambridge Crystallographic Data Centre
#                                CCDC 
#
#######################################################################
#
# If this CIF has been generated from an entry in the Cambridge 
# Structural Database, then it will include bibliographic, chemical, 
# crystal, experimental, refinement or atomic coordinate data resulting 
# from the CCDC's data processing and validation procedures.
#
#######################################################################

data_IJUQAG
_chemical_formula_moiety         'C21 H22 O5'
_chemical_name_systematic        
'bis(2,2-dimethyl-2,3-dihydro-1-benzofuran-7-yl) carbonate'
_symmetry_cell_setting           orthorhombic
_symmetry_space_group_name_H-M   'P n a 21'
_symmetry_Int_Tables_number      33
_space_group_name_Hall           'P 2c -2n'
loop_
_symmetry_equiv_pos_site_id
_symmetry_equiv_pos_as_xyz
1 x,y,z
2 -x,-y,1/2+z
3 1/2+x,1/2-y,z
4 1/2-x,1/2+y,1/2+z
_cell_length_a                   16.6409(6)
_cell_length_b                   23.2581(9)
_cell_length_c                   14.5045(6)
_cell_angle_alpha                90
_cell_angle_beta                 90
_cell_angle_gamma                90
_cell_volume                     5613.76
_exptl_crystal_colour            colorless
_exptl_crystal_description       block
_chemical_melting_point          '361.45 K'
_cell_formula_units_Z            12
_exptl_crystal_recrystallization_method 'ethyl acetate'
loop_
_atom_site_label
_atom_site_type_symbol
_atom_site_fract_x
_atom_site_fract_y
_atom_site_fract_z
C1 C 0.72869(16) 0.64804(12) 0.2593(2)
C2 C 0.77503(17) 0.67717(12) 0.1957(2)
C3 C 0.81873(17) 0.64739(13) 0.1300(2)
C4 C 0.81567(17) 0.58778(13) 0.1275(2)
H1 H 0.8447 0.5670 0.0820
C5 C 0.76969(18) 0.55890(13) 0.1924(2)
H2 H 0.7679 0.5181 0.1916
C6 C 0.72644(17) 0.58870(13) 0.2582(2)
H3 H 0.6953 0.5684 0.3024
C7 C 0.8595(2) 0.69120(15) 0.0700(3)
H4 H 0.8345 0.6929 0.0082
H5 H 0.9175 0.6826 0.0632
C8 C 0.84633(17) 0.74798(13) 0.1235(2)
C9 C 0.8164(2) 0.79648(16) 0.0643(2)
H6 H 0.7684 0.7841 0.0307
H7 H 0.8584 0.8075 0.0203
H8 H 0.8031 0.8295 0.1034
C10 C 0.9177(2) 0.76493(18) 0.1789(2)
H9 H 0.9040 0.7979 0.2179
H10 H 0.9618 0.7755 0.1374
H11 H 0.9344 0.7326 0.2178
C11 C 0.63004(16) 0.71444(13) 0.2967(2)
C12 C 0.55604(16) 0.79348(12) 0.34947(19)
C13 C 0.48895(16) 0.79984(12) 0.40412(19)
C14 C 0.43827(17) 0.84686(12) 0.3926(2)
C15 C 0.45287(19) 0.88649(13) 0.3243(2)
H12 H 0.4176 0.9181 0.3154
C16 C 0.52035(19) 0.87953(14) 0.2683(2)
H13 H 0.5307 0.9064 0.2204
C17 C 0.57225(18) 0.83401(13) 0.2820(2)
H14 H 0.6191 0.8305 0.2450
C18 C 0.37437(19) 0.84320(14) 0.4653(2)
H15 H 0.3203 0.8490 0.4385
H16 H 0.3834 0.8720 0.5145
C19 C 0.38424(18) 0.78166(14) 0.5022(2)
C20 C 0.3244(2) 0.74160(16) 0.4557(3)
H17 H 0.3299 0.7448 0.3886
H18 H 0.2697 0.7523 0.4738
H19 H 0.3351 0.7019 0.4747
C21 C 0.3823(3) 0.77725(19) 0.6050(2)
H20 H 0.3937 0.7376 0.6235
H21 H 0.3290 0.7884 0.6275
H22 H 0.4229 0.8029 0.6314
O1 O 0.78087(13) 0.73538(9) 0.19029(16)
O2 O 0.68790(11) 0.67934(8) 0.32817(13)
O3 O 0.60238(12) 0.71474(10) 0.22166(15)
O4 O 0.60936(11) 0.74815(9) 0.36804(14)
O5 O 0.46542(12) 0.76326(9) 0.47200(14)
C22 C 0.50518(17) 0.52554(13) 0.3246(2)
C23 C 0.45542(19) 0.49810(13) 0.3866(2)
C24 C 0.4071(2) 0.52908(15) 0.4452(2)
C25 C 0.4077(2) 0.58836(15) 0.4427(3)
H23 H 0.3746 0.6099 0.4835
C26 C 0.4570(2) 0.61611(14) 0.3803(3)
H24 H 0.4579 0.6569 0.3782
C27 C 0.50489(19) 0.58482(14) 0.3211(2)
H25 H 0.5379 0.6042 0.2775
C28 C 0.3563(3) 0.48691(17) 0.4983(3)
H26 H 0.2992 0.4892 0.4792
H27 H 0.3600 0.4939 0.5655
C29 C 0.3931(2) 0.42830(16) 0.4725(3)
C30 C 0.4447(3) 0.40512(19) 0.5482(3)
H28 H 0.4758 0.3723 0.5252
H29 H 0.4106 0.3926 0.5996
H30 H 0.4815 0.4352 0.5696
C31 C 0.3326(3) 0.3848(2) 0.4381(3)
H31 H 0.3020 0.4014 0.3868
H32 H 0.2958 0.3745 0.4882
H33 H 0.3608 0.3503 0.4168
C32 C 0.60410(16) 0.45748(14) 0.2938(2)
C33 C 0.67945(18) 0.37786(13) 0.2413(2)
C34 C 0.74682(17) 0.37333(12) 0.1865(2)
C35 C 0.79846(19) 0.32660(13) 0.1949(2)
C36 C 0.7833(2) 0.28498(15) 0.2601(2)
H34 H 0.8187 0.2533 0.2671
C37 C 0.7160(2) 0.28993(16) 0.3153(3)
H35 H 0.7055 0.2615 0.3607
C38 C 0.6636(2) 0.33572(15) 0.3053(2)
H36 H 0.6168 0.3381 0.3426
C39 C 0.8623(2) 0.33340(14) 0.1226(3)
H37 H 0.8531 0.3071 0.0701
H38 H 0.9165 0.3262 0.1485
C40 C 0.85265(18) 0.39687(15) 0.0932(2)
C41 C 0.90819(19) 0.43531(15) 0.1465(3)
H39 H 0.8983 0.4755 0.1294
H40 H 0.9640 0.4252 0.1324
H41 H 0.8985 0.4304 0.2127
C42 C 0.8569(2) 0.40710(19) -0.0094(2)
H42 H 0.8183 0.3820 -0.0408
H43 H 0.9113 0.3986 -0.0315
H44 H 0.8438 0.4473 -0.0227
O6 O 0.44698(14) 0.44023(9) 0.39277(18)
O7 O 0.54932(12) 0.49397(9) 0.25984(15)
O8 O 0.62912(14) 0.45562(11) 0.37023(18)
O9 O 0.62560(12) 0.42365(10) 0.22312(15)
O10 O 0.76908(12) 0.41200(9) 0.12079(15)
C43 C 0.0015(2) 0.33792(15) 0.3517(3)
C44 C -0.05123(19) 0.36897(14) 0.4055(2)
C45 C -0.0936(2) 0.34370(15) 0.4767(3)
C46 C -0.0841(2) 0.28554(18) 0.4923(3)
H45 H -0.1126 0.2673 0.5409
C47 C -0.0327(3) 0.25404(18) 0.4367(4)
H46 H -0.0266 0.2139 0.4469
C48 C 0.0094(2) 0.28026(17) 0.3668(3)
H47 H 0.0441 0.2581 0.3289
C49 C -0.1459(3) 0.38968(18) 0.5191(3)
H48 H -0.1391 0.3911 0.5868
H49 H -0.2033 0.3831 0.5046
C50 C -0.11503(19) 0.44496(15) 0.4736(2)
C51 C -0.0575(2) 0.47812(19) 0.5336(3)
H50 H -0.0155 0.4522 0.5563
H51 H -0.0867 0.4946 0.5860
H52 H -0.0330 0.5091 0.4975
C52 C -0.1806(2) 0.4841(2) 0.4376(4)
H53 H -0.1563 0.5171 0.4062
H54 H -0.2136 0.4976 0.4892
H55 H -0.2144 0.4628 0.3940
C53 C 0.10357(19) 0.39918(16) 0.3031(3)
C54 C 0.19407(19) 0.46089(16) 0.2276(2)
C55 C 0.2647(2) 0.44617(16) 0.1850(2)
C56 C 0.3256(2) 0.48610(18) 0.1742(3)
C57 C 0.3172(3) 0.54066(18) 0.2108(3)
H56 H 0.3589 0.5683 0.2044
C58 C 0.2467(3) 0.55435(18) 0.2571(3)
H57 H 0.2407 0.5913 0.2840
C59 C 0.1853(2) 0.51498(18) 0.2643(3)
H58 H 0.1368 0.5252 0.2947
C60 C 0.3903(2) 0.4579(2) 0.1167(4)
H59 H 0.4438 0.4621 0.1458
H60 H 0.3921 0.4745 0.0539
C61 C 0.3646(2) 0.39495(18) 0.1140(3)
C62 C 0.3559(5) 0.3804(6) 0.0136(5)
H61 H 0.3247 0.4105 -0.0173
H62 H 0.3281 0.3435 0.0073
H63 H 0.4093 0.3778 -0.0147
C63 C 0.4127(7) 0.3545(6) 0.1693(11)
H64 H 0.4192 0.3697 0.2319
H65 H 0.4657 0.3496 0.1408
H66 H 0.3853 0.3172 0.1720
O11 O -0.06665(14) 0.42617(9) 0.39410(15)
O12 O 0.04291(14) 0.36401(11) 0.27900(16)
O13 O 0.12750(16) 0.40829(13) 0.37863(18)
O14 O 0.12937(14) 0.42191(12) 0.22380(17)
O15 O 0.28074(13) 0.39351(12) 0.1484(2)
C64? C 0.3733(10) 0.3503(10) 0.0322(12)
C65? C 0.4118(10) 0.3650(7) 0.1904(12)
H67? H 0.3470 0.3656 -0.0231
H68? H 0.3479 0.3139 0.0497
H69? H 0.4304 0.3438 0.0193
H70? H 0.4343 0.3939 0.2322
H71? H 0.4555 0.3425 0.1631
H72? H 0.3759 0.3394 0.2248
loop_
_geom_bond_atom_site_label_1
_geom_bond_atom_site_label_2
_geom_bond_site_symmetry_1
_geom_bond_site_symmetry_2
C1 C2 1_555 1_555
C2 C3 1_555 1_555
C3 C4 1_555 1_555
C4 H1 1_555 1_555
C5 C4 1_555 1_555
H2 C5 1_555 1_555
C6 C1 1_555 1_555
H3 C6 1_555 1_555
C7 C3 1_555 1_555
H4 C7 1_555 1_555
H5 C7 1_555 1_555
C8 C7 1_555 1_555
C9 C8 1_555 1_555
H6 C9 1_555 1_555
H7 C9 1_555 1_555
H8 C9 1_555 1_555
C10 C8 1_555 1_555
H9 C10 1_555 1_555
H10 C10 1_555 1_555
H11 C10 1_555 1_555
C11 O2 1_555 1_555
C12 C13 1_555 1_555
C13 C14 1_555 1_555
C14 C15 1_555 1_555
C15 H12 1_555 1_555
C16 C15 1_555 1_555
H13 C16 1_555 1_555
C17 C12 1_555 1_555
H14 C17 1_555 1_555
C18 C14 1_555 1_555
H15 C18 1_555 1_555
H16 C18 1_555 1_555
C19 C18 1_555 1_555
C20 C19 1_555 1_555
H17 C20 1_555 1_555
H18 C20 1_555 1_555
H19 C20 1_555 1_555
C21 C19 1_555 1_555
H20 C21 1_555 1_555
H21 C21 1_555 1_555
H22 C21 1_555 1_555
C22 C23 1_555 1_555
C23 C24 1_555 1_555
C24 C25 1_555 1_555
C25 H23 1_555 1_555
C26 C25 1_555 1_555
H24 C26 1_555 1_555
C27 C22 1_555 1_555
H25 C27 1_555 1_555
C28 C24 1_555 1_555
H26 C28 1_555 1_555
H27 C28 1_555 1_555
C29 C28 1_555 1_555
C30 C29 1_555 1_555
H28 C30 1_555 1_555
H29 C30 1_555 1_555
H30 C30 1_555 1_555
C31 C29 1_555 1_555
H31 C31 1_555 1_555
H32 C31 1_555 1_555
H33 C31 1_555 1_555
C32 O7 1_555 1_555
C33 C34 1_555 1_555
C34 C35 1_555 1_555
C35 C36 1_555 1_555
C36 H34 1_555 1_555
C37 C36 1_555 1_555
H35 C37 1_555 1_555
C38 C33 1_555 1_555
H36 C38 1_555 1_555
C39 C35 1_555 1_555
H37 C39 1_555 1_555
H38 C39 1_555 1_555
C40 C39 1_555 1_555
C41 C40 1_555 1_555
H39 C41 1_555 1_555
H40 C41 1_555 1_555
H41 C41 1_555 1_555
C42 C40 1_555 1_555
H42 C42 1_555 1_555
H43 C42 1_555 1_555
H44 C42 1_555 1_555
C43 C44 1_555 1_555
C44 C45 1_555 1_555
C45 C46 1_555 1_555
C46 H45 1_555 1_555
C47 C46 1_555 1_555
H46 C47 1_555 1_555
C48 C43 1_555 1_555
H47 C48 1_555 1_555
C49 C45 1_555 1_555
H48 C49 1_555 1_555
H49 C49 1_555 1_555
C50 C49 1_555 1_555
C51 C50 1_555 1_555
H50 C51 1_555 1_555
H51 C51 1_555 1_555
H52 C51 1_555 1_555
C52 C50 1_555 1_555
H53 C52 1_555 1_555
H54 C52 1_555 1_555
H55 C52 1_555 1_555
C53 O12 1_555 1_555
C54 C55 1_555 1_555
C55 C56 1_555 1_555
C56 C57 1_555 1_555
C57 H56 1_555 1_555
C58 C57 1_555 1_555
H57 C58 1_555 1_555
C59 C54 1_555 1_555
H58 C59 1_555 1_555
C60 C56 1_555 1_555
H59 C60 1_555 1_555
H60 C60 1_555 1_555
C61 C60 1_555 1_555
C62 C61 1_555 1_555
H61 C62 1_555 1_555
H62 C62 1_555 1_555
H63 C62 1_555 1_555
C63 C61 1_555 1_555
H64 C63 1_555 1_555
H65 C63 1_555 1_555
H66 C63 1_555 1_555
O1 C2 1_555 1_555
O2 C1 1_555 1_555
O3 C11 1_555 1_555
O4 C11 1_555 1_555
O5 C13 1_555 1_555
O6 C23 1_555 1_555
O7 C22 1_555 1_555
O8 C32 1_555 1_555
O9 C32 1_555 1_555
O10 C34 1_555 1_555
O11 C44 1_555 1_555
O12 C43 1_555 1_555
O13 C53 1_555 1_555
O14 C53 1_555 1_555
O15 C55 1_555 1_555
C5 C6 1_555 1_555
C8 O1 1_555 1_555
C12 O4 1_555 1_555
C16 C17 1_555 1_555
C19 O5 1_555 1_555
C26 C27 1_555 1_555
C29 O6 1_555 1_555
C33 O9 1_555 1_555
C37 C38 1_555 1_555
C40 O10 1_555 1_555
C47 C48 1_555 1_555
C50 O11 1_555 1_555
C54 O14 1_555 1_555
C58 C59 1_555 1_555
C61 O15 1_555 1_555

#END
