
#######################################################################
#
#                 Cambridge Crystallographic Data Centre
#                                CCDC 
#
#######################################################################
#
# If this CIF has been generated from an entry in the Cambridge 
# Structural Database, then it will include bibliographic, chemical, 
# crystal, experimental, refinement or atomic coordinate data resulting 
# from the CCDC's data processing and validation procedures.
#
#######################################################################

data_IJUREM
_chemical_formula_moiety         'C16 H13 N1 O3'
_chemical_name_systematic        2-Methoxy-3-(5-phenyl-1,3-oxazol-2-yl)phenol
_symmetry_cell_setting           monoclinic
_symmetry_space_group_name_H-M   'P 21/c'
_symmetry_Int_Tables_number      14
_space_group_name_Hall           '-P 2ybc'
loop_
_symmetry_equiv_pos_site_id
_symmetry_equiv_pos_as_xyz
1 x,y,z
2 -x,1/2+y,1/2-z
3 -x,-y,-z
4 x,1/2-y,1/2+z
_cell_length_a                   9.717(4)
_cell_length_b                   13.558(6)
_cell_length_c                   9.822(4)
_cell_angle_alpha                90
_cell_angle_beta                 91.040(9)
_cell_angle_gamma                90
_cell_volume                     1293.77
_exptl_crystal_colour            colorless
_exptl_crystal_description       Prism
_cell_formula_units_Z            4
loop_
_atom_site_label
_atom_site_type_symbol
_atom_site_fract_x
_atom_site_fract_y
_atom_site_fract_z
O1 O 0.70557(9) 0.66557(6) 0.54319(9)
O2 O 0.54345(11) 0.43739(7) 0.16029(11)
O3 O 0.70679(10) 0.53670(6) 0.33340(10)
N1 N 0.63022(12) 0.81038(8) 0.47074(11)
C1 C 0.40638(15) 0.69939(10) 0.32243(14)
H1 H 0.3772 0.7610 0.3579
C2 C 0.32333(15) 0.64867(10) 0.23210(15)
H2 H 0.2361 0.6750 0.2063
C3 C 0.36531(15) 0.55971(10) 0.17839(15)
H3 H 0.3068 0.5253 0.1161
C4 C 0.49180(15) 0.52067(10) 0.21471(14)
C5 C 0.57600(14) 0.57085(9) 0.30737(13)
C6 C 0.53356(14) 0.66034(9) 0.36198(13)
C7 C 0.62138(14) 0.71540(9) 0.45657(13)
C8 C 0.72798(14) 0.82444(10) 0.57251(14)
H4 H 0.7580 0.8868 0.6057
C9 C 0.77446(14) 0.73676(10) 0.61774(14)
C10 C 0.87556(14) 0.70339(10) 0.71697(14)
C11 C 0.93950(15) 0.77021(11) 0.80413(14)
H5 H 0.9151 0.8380 0.8000
C12 C 1.03838(16) 0.73893(12) 0.89689(15)
H6 H 1.0819 0.7854 0.9559
C13 C 1.07427(16) 0.64139(13) 0.90456(16)
H7 H 1.1433 0.6203 0.9678
C14 C 1.00978(18) 0.57409(12) 0.82006(17)
H8 H 1.0335 0.5062 0.8261
C15 C 0.91123(16) 0.60453(11) 0.72688(15)
H9 H 0.8673 0.5575 0.6690
C16 C 0.71310(16) 0.45109(10) 0.41870(16)
H10 H 0.6752 0.4669 0.5079
H11 H 0.8091 0.4301 0.4301
H12 H 0.6593 0.3978 0.3765
H13 H 0.466(2) 0.3983(14) 0.1106(18)
loop_
_geom_bond_atom_site_label_1
_geom_bond_atom_site_label_2
_geom_bond_site_symmetry_1
_geom_bond_site_symmetry_2
O1 C7 1_555 1_555
O2 C4 1_555 1_555
O3 C5 1_555 1_555
N1 C7 1_555 1_555
C1 H1 1_555 1_555
C2 C1 1_555 1_555
H2 C2 1_555 1_555
C3 C2 1_555 1_555
H3 C3 1_555 1_555
C4 C3 1_555 1_555
C5 C4 1_555 1_555
C6 C1 1_555 1_555
C7 C6 1_555 1_555
C8 N1 1_555 1_555
H4 C8 1_555 1_555
C9 O1 1_555 1_555
C10 C9 1_555 1_555
C11 C10 1_555 1_555
H5 C11 1_555 1_555
C12 C11 1_555 1_555
H6 C12 1_555 1_555
C13 C12 1_555 1_555
H7 C13 1_555 1_555
C14 C13 1_555 1_555
H8 C14 1_555 1_555
C15 C10 1_555 1_555
H9 C15 1_555 1_555
C16 O3 1_555 1_555
H10 C16 1_555 1_555
H11 C16 1_555 1_555
H12 C16 1_555 1_555
H13 O2 1_555 1_555
C5 C6 1_555 1_555
C8 C9 1_555 1_555
C14 C15 1_555 1_555

#END
