
#######################################################################
#
#                 Cambridge Crystallographic Data Centre
#                                CCDC 
#
#######################################################################
#
# If this CIF has been generated from an entry in the Cambridge 
# Structural Database, then it will include bibliographic, chemical, 
# crystal, experimental, refinement or atomic coordinate data resulting 
# from the CCDC's data processing and validation procedures.
#
#######################################################################

data_IJUTAJ02
_chemical_name_common            'Triamcinolone acetonide acetate'
_chemical_formula_moiety         'C26 H33 F1 O7'
_chemical_name_systematic        
"2-(4b-fluoro-5-hydroxy-4a,6a,8,8-tetramethyl-2-oxo-2,4a,4b,5,6,6a,9a,10,10a,10b,11,12-dodecahydro-6bH-naphtho[2',1':4,5]indeno[1,2-d][1,3]dioxol-6b-yl)-2-oxoethyl acetate"
_chemical_properties_biological  
'triamcinolone acetonide acetate is a drug used to treat rheumatoid arthritis and chronic inflammatory diseases'
_symmetry_cell_setting           monoclinic
_symmetry_space_group_name_H-M   'C 2'
_symmetry_Int_Tables_number      5
_space_group_name_Hall           'C 2y'
loop_
_symmetry_equiv_pos_site_id
_symmetry_equiv_pos_as_xyz
1 x,y,z
2 -x,y,-z
3 1/2+x,1/2+y,z
4 1/2-x,1/2+y,-z
_cell_length_a                   29.447(10)
_cell_length_b                   6.202(2)
_cell_length_c                   29.181(10)
_cell_angle_alpha                90
_cell_angle_beta                 117.596(6)
_cell_angle_gamma                90
_cell_volume                     4723.05
_exptl_crystal_colour            colorless
_exptl_crystal_description       needle
_cell_formula_units_Z            8
loop_
_atom_site_label
_atom_site_type_symbol
_atom_site_fract_x
_atom_site_fract_y
_atom_site_fract_z
F1 F -0.04573(12) 0.7585(7) 0.37449(12)
O1 O -0.22596(17) 0.7338(12) 0.28891(19)
O2 O 0.00034(15) 0.8228(10) 0.28178(15)
H1 H 0.0034 0.7207 0.2645
O3 O 0.13527(18) 0.9536(9) 0.53519(17)
O4 O 0.11759(14) 0.6714(8) 0.47959(15)
O5 O 0.20237(16) 0.9523(10) 0.44711(17)
O6 O 0.22936(16) 0.5539(10) 0.43186(16)
O7 O 0.16172(16) 0.6051(9) 0.35404(17)
C1 C -0.1160(2) 0.7674(12) 0.2669(2)
H2 H -0.1009 0.6867 0.2498
C2 C -0.1616(2) 0.6967(14) 0.2621(2)
H3 H -0.1778 0.5752 0.2410
C3 C -0.1854(2) 0.8062(13) 0.2890(3)
C4 C -0.1611(2) 0.9939(15) 0.3183(3)
H4 H -0.1770 1.0675 0.3356
C5 C -0.1163(2) 1.0725(14) 0.3227(3)
C6 C -0.0900(3) 1.2591(14) 0.3551(3)
H5 H -0.1104 1.3147 0.3715
H6 H -0.0876 1.3749 0.3329
C7 C -0.0372(2) 1.2048(13) 0.3963(2)
H7 H -0.0399 1.1122 0.4226
H8 H -0.0194 1.3393 0.4137
C8 C -0.0053(2) 1.0892(13) 0.3753(2)
H9 H 0.0024 1.1927 0.3536
C9 C -0.0347(2) 0.8907(12) 0.3409(2)
C10 C -0.0881(2) 0.9572(13) 0.2962(2)
C11 C -0.0019(2) 0.7394(13) 0.3260(2)
H10 H -0.0202 0.5979 0.3158
C12 C 0.0516(2) 0.6951(12) 0.3715(2)
H11 H 0.0477 0.5941 0.3958
H12 H 0.0729 0.6226 0.3580
C13 C 0.0793(2) 0.8907(12) 0.4009(2)
C14 C 0.0456(2) 1.0091(14) 0.4191(2)
H13 H 0.0362 0.9001 0.4385
C15 C 0.0814(3) 1.1696(14) 0.4599(3)
H14 H 0.0865 1.3007 0.4435
H15 H 0.0677 1.2117 0.4838
C16 C 0.1305(2) 1.0447(13) 0.4877(2)
H16 H 0.1608 1.1362 0.4941
C17 C 0.1275(2) 0.8449(13) 0.4548(3)
C18 C 0.0959(2) 1.0348(14) 0.3683(3)
H17 H 0.0654 1.0957 0.3392
H18 H 0.1151 0.9485 0.3550
H19 H 0.1176 1.1519 0.3898
C19 C -0.0848(3) 1.1207(14) 0.2577(3)
H20 H -0.1177 1.1961 0.2392
H21 H -0.0771 1.0438 0.2327
H22 H -0.0576 1.2256 0.2766
C20 C 0.1772(2) 0.8062(14) 0.4510(2)
C21 C 0.1928(2) 0.5726(13) 0.4516(2)
H23 H 0.2081 0.5166 0.4874
H24 H 0.1621 0.4848 0.4301
C22 C 0.2067(2) 0.5857(15) 0.3795(2)
C23 C 0.2458(2) 0.5963(15) 0.3599(2)
H25 H 0.2394 0.4796 0.3350
H26 H 0.2802 0.5808 0.3889
H27 H 0.2431 0.7355 0.3429
C24 C 0.1321(2) 0.7233(14) 0.5323(2)
C25 C 0.0894(3) 0.6554(16) 0.5448(3)
H28 H 0.0562 0.6924 0.5158
H29 H 0.0934 0.7306 0.5760
H30 H 0.0912 0.4994 0.5507
C26 C 0.1833(3) 0.6293(18) 0.5682(3)
H31 H 0.1814 0.4716 0.5659
H32 H 0.1930 0.6741 0.6037
H33 H 0.2090 0.6808 0.5583
F2 F 0.08242(12) 0.2379(7) 0.13290(13)
O8 O -0.00528(18) 0.4187(9) 0.23186(18)
O9 O 0.20083(16) -0.0173(9) 0.21803(17)
H34 H 0.2288 0.0414 0.2381
O10 O 0.09516(17) -0.0555(9) -0.03211(17)
O11 O 0.14326(15) 0.2025(8) 0.02528(15)
O12 O 0.24225(16) -0.1562(9) 0.04642(17)
O13 O 0.30071(15) 0.2117(9) 0.07542(17)
O14 O 0.31648(18) 0.0610(11) 0.15126(17)
C27 C 0.1118(2) 0.2110(13) 0.2417(2)
H35 H 0.1469 0.2508 0.2577
C28 C 0.0802(2) 0.3263(13) 0.2537(2)
H36 H 0.0936 0.4282 0.2811
C29 C 0.0255(2) 0.2938(14) 0.2243(2)
C30 C 0.0071(2) 0.1187(14) 0.1893(2)
H37 H -0.0286 0.0877 0.1732
C31 C 0.0375(2) -0.0039(13) 0.1780(2)
C32 C 0.0194(2) -0.1923(13) 0.1407(2)
H38 H -0.0185 -0.1953 0.1229
H39 H 0.0316 -0.3283 0.1605
C33 C 0.0389(2) -0.1791(14) 0.1002(2)
H40 H 0.0307 -0.3154 0.0803
H41 H 0.0209 -0.0606 0.0757
C34 C 0.0969(2) -0.1394(12) 0.1252(2)
H42 H 0.1158 -0.2705 0.1447
C35 C 0.1119(2) 0.0570(13) 0.1619(2)
C36 C 0.0959(2) 0.0261(13) 0.2055(2)
C37 C 0.1681(2) 0.1377(13) 0.1813(2)
H43 H 0.1724 0.2801 0.1989
C38 C 0.1823(2) 0.1617(13) 0.1367(2)
H44 H 0.1644 0.2894 0.1158
H45 H 0.2196 0.1880 0.1516
C39 C 0.1686(2) -0.0325(13) 0.1020(2)
C40 C 0.1112(2) -0.0878(12) 0.0819(2)
H46 H 0.0913 0.0433 0.0637
C41 C 0.1012(2) -0.2591(13) 0.0401(2)
H47 H 0.0642 -0.2705 0.0157
H48 H 0.1142 -0.4022 0.0558
C42 C 0.1316(2) -0.1708(14) 0.0130(2)
H49 H 0.1495 -0.2876 0.0041
C43 C 0.1687(2) 0.0000(13) 0.0482(2)
C44 C 0.2046(2) -0.2234(14) 0.1287(3)
H50 H 0.1986 -0.3378 0.1033
H51 H 0.1979 -0.2790 0.1564
H52 H 0.2403 -0.1750 0.1433
C45 C 0.1205(3) -0.1776(13) 0.2397(3)
H53 H 0.1573 -0.1544 0.2609
H54 H 0.1148 -0.3035 0.2175
H55 H 0.1046 -0.2024 0.2623
C46 C 0.2222(2) 0.0025(13) 0.0516(2)
C47 C 0.2481(2) 0.2255(14) 0.0629(2)
H56 H 0.2302 0.3192 0.0322
H57 H 0.2450 0.2927 0.0921
C48 C 0.3323(3) 0.1304(14) 0.1237(3)
C49 C 0.3877(2) 0.1588(16) 0.1372(3)
H58 H 0.4008 0.2914 0.1574
H59 H 0.3911 0.1686 0.1054
H60 H 0.4074 0.0352 0.1577
C50 C 0.1113(2) 0.1630(13) -0.0295(2)
C51 C 0.1411(2) 0.1916(14) -0.0594(2)
H61 H 0.1560 0.3367 -0.0533
H62 H 0.1181 0.1725 -0.0964
H63 H 0.1686 0.0842 -0.0480
C52 C 0.0650(2) 0.3037(14) -0.0475(2)
H64 H 0.0414 0.2705 -0.0837
H65 H 0.0754 0.4553 -0.0445
H66 H 0.0480 0.2777 -0.0261
loop_
_geom_bond_atom_site_label_1
_geom_bond_atom_site_label_2
_geom_bond_site_symmetry_1
_geom_bond_site_symmetry_2
F1 C9 1_555 1_555
O1 C3 1_555 1_555
O2 H1 1_555 1_555
O3 C16 1_555 1_555
O4 C17 1_555 1_555
O5 C20 1_555 1_555
O6 C21 1_555 1_555
O7 C22 1_555 1_555
C1 H2 1_555 1_555
C2 C1 1_555 1_555
H3 C2 1_555 1_555
C3 C2 1_555 1_555
C4 C3 1_555 1_555
H4 C4 1_555 1_555
C5 C4 1_555 1_555
C6 C5 1_555 1_555
H5 C6 1_555 1_555
H6 C6 1_555 1_555
C7 C6 1_555 1_555
H7 C7 1_555 1_555
H8 C7 1_555 1_555
C8 C7 1_555 1_555
H9 C8 1_555 1_555
C9 C8 1_555 1_555
C10 C1 1_555 1_555
C11 O2 1_555 1_555
H10 C11 1_555 1_555
C12 C11 1_555 1_555
H11 C12 1_555 1_555
H12 C12 1_555 1_555
C13 C12 1_555 1_555
C14 C8 1_555 1_555
H13 C14 1_555 1_555
C15 C14 1_555 1_555
H14 C15 1_555 1_555
H15 C15 1_555 1_555
C16 C15 1_555 1_555
H16 C16 1_555 1_555
C17 C13 1_555 1_555
C18 C13 1_555 1_555
H17 C18 1_555 1_555
H18 C18 1_555 1_555
H19 C18 1_555 1_555
C19 C10 1_555 1_555
H20 C19 1_555 1_555
H21 C19 1_555 1_555
H22 C19 1_555 1_555
C20 C17 1_555 1_555
C21 C20 1_555 1_555
H23 C21 1_555 1_555
H24 C21 1_555 1_555
C22 O6 1_555 1_555
C23 C22 1_555 1_555
H25 C23 1_555 1_555
H26 C23 1_555 1_555
H27 C23 1_555 1_555
C24 O3 1_555 1_555
C25 C24 1_555 1_555
H28 C25 1_555 1_555
H29 C25 1_555 1_555
H30 C25 1_555 1_555
C26 C24 1_555 1_555
H31 C26 1_555 1_555
H32 C26 1_555 1_555
H33 C26 1_555 1_555
F2 C35 1_555 1_555
O8 C29 1_555 1_555
O9 H34 1_555 1_555
O10 C42 1_555 1_555
O11 C43 1_555 1_555
O12 C46 1_555 1_555
O13 C47 1_555 1_555
O14 C48 1_555 1_555
C27 H35 1_555 1_555
C28 C27 1_555 1_555
H36 C28 1_555 1_555
C29 C28 1_555 1_555
C30 C29 1_555 1_555
H37 C30 1_555 1_555
C31 C30 1_555 1_555
C32 C31 1_555 1_555
H38 C32 1_555 1_555
H39 C32 1_555 1_555
C33 C32 1_555 1_555
H40 C33 1_555 1_555
H41 C33 1_555 1_555
C34 C33 1_555 1_555
H42 C34 1_555 1_555
C35 C34 1_555 1_555
C36 C27 1_555 1_555
C37 O9 1_555 1_555
H43 C37 1_555 1_555
C38 C37 1_555 1_555
H44 C38 1_555 1_555
H45 C38 1_555 1_555
C39 C38 1_555 1_555
C40 C34 1_555 1_555
H46 C40 1_555 1_555
C41 C40 1_555 1_555
H47 C41 1_555 1_555
H48 C41 1_555 1_555
C42 C41 1_555 1_555
H49 C42 1_555 1_555
C43 C39 1_555 1_555
C44 C39 1_555 1_555
H50 C44 1_555 1_555
H51 C44 1_555 1_555
H52 C44 1_555 1_555
C45 C36 1_555 1_555
H53 C45 1_555 1_555
H54 C45 1_555 1_555
H55 C45 1_555 1_555
C46 C43 1_555 1_555
C47 C46 1_555 1_555
H56 C47 1_555 1_555
H57 C47 1_555 1_555
C48 O13 1_555 1_555
C49 C48 1_555 1_555
H58 C49 1_555 1_555
H59 C49 1_555 1_555
H60 C49 1_555 1_555
C50 O10 1_555 1_555
C51 C50 1_555 1_555
H61 C51 1_555 1_555
H62 C51 1_555 1_555
H63 C51 1_555 1_555
C52 C50 1_555 1_555
H64 C52 1_555 1_555
H65 C52 1_555 1_555
H66 C52 1_555 1_555
O4 C24 1_555 1_555
C5 C10 1_555 1_555
C9 C10 1_555 1_555
C9 C11 1_555 1_555
C13 C14 1_555 1_555
C16 C17 1_555 1_555
O11 C50 1_555 1_555
C31 C36 1_555 1_555
C35 C36 1_555 1_555
C35 C37 1_555 1_555
C39 C40 1_555 1_555
C42 C43 1_555 1_555

#END
