
#######################################################################
#
#                 Cambridge Crystallographic Data Centre
#                                CCDC 
#
#######################################################################
#
# If this CIF has been generated from an entry in the Cambridge 
# Structural Database, then it will include bibliographic, chemical, 
# crystal, experimental, refinement or atomic coordinate data resulting 
# from the CCDC's data processing and validation procedures.
#
#######################################################################

data_IJUTIR
_chemical_formula_moiety         'C28 H22 N2 S1'
_chemical_name_systematic        
(Z)-5-Benzenecarbothioyl-1,11-dimethyl-6-phenyl-5H-dibenzo[d,f][1,3]diazepine
_symmetry_cell_setting           orthorhombic
_symmetry_space_group_name_H-M   'P 21 21 21'
_symmetry_Int_Tables_number      19
_space_group_name_Hall           'P 2ac 2ab'
loop_
_symmetry_equiv_pos_site_id
_symmetry_equiv_pos_as_xyz
1 x,y,z
2 1/2+x,1/2-y,-z
3 -x,1/2+y,1/2-z
4 1/2-x,-y,1/2+z
_cell_length_a                   8.7665(18)
_cell_length_b                   11.605(3)
_cell_length_c                   21.392(5)
_cell_angle_alpha                90
_cell_angle_beta                 90
_cell_angle_gamma                90
_cell_volume                     2176.32
_exptl_crystal_colour            yellow
_exptl_crystal_description       block
_cell_formula_units_Z            4
_exptl_crystal_recrystallization_method dichloromethane/hexane
loop_
_atom_site_label
_atom_site_type_symbol
_atom_site_fract_x
_atom_site_fract_y
_atom_site_fract_z
S1 S 1.09723(5) 0.47544(4) 0.76793(2)
N1 N 0.95131(14) 0.56476(11) 0.67231(6)
N2 N 0.76743(15) 0.41503(11) 0.66647(6)
C1 C 0.88897(18) 0.55478(13) 0.56264(7)
C2 C 0.92563(17) 0.62439(13) 0.61387(7)
C3 C 0.91869(17) 0.74326(13) 0.61224(7)
H1 H 0.9482 0.7880 0.6474
C4 C 0.86735(18) 0.79547(14) 0.55772(8)
H2 H 0.8658 0.8771 0.5546
C5 C 0.81855(18) 0.72897(15) 0.50809(8)
H3 H 0.7770 0.7660 0.4723
C6 C 0.82841(18) 0.60889(14) 0.50890(7)
C7 C 0.7658(2) 0.54265(15) 0.45397(8)
H4 H 0.6619 0.5690 0.4449
H5 H 0.7641 0.4602 0.4640
H6 H 0.8307 0.5556 0.4173
C8 C 0.91836(18) 0.42900(13) 0.56802(7)
C9 C 0.85781(17) 0.36525(13) 0.61850(7)
C10 C 0.88359(19) 0.24726(13) 0.62336(8)
H7 H 0.8367 0.2042 0.6559
C11 C 0.9777(2) 0.19306(15) 0.58068(8)
H8 H 0.9968 0.1128 0.5843
C12 C 1.0442(2) 0.25546(14) 0.53263(8)
H9 H 1.1099 0.2175 0.5039
C13 C 1.01628(18) 0.37322(14) 0.52574(7)
C14 C 1.1039(2) 0.43886(15) 0.47629(8)
H10 H 1.1978 0.3970 0.4660
H11 H 1.1298 0.5156 0.4921
H12 H 1.0409 0.4464 0.4387
C15 C 1.08502(18) 0.54891(12) 0.70153(7)
C16 C 1.22481(18) 0.59577(13) 0.67023(7)
C17 C 1.29579(18) 0.52874(14) 0.62485(7)
H13 H 1.2494 0.4592 0.6111
C18 C 1.43445(19) 0.56342(15) 0.59970(8)
H14 H 1.4845 0.5166 0.5696
C19 C 1.49930(19) 0.66606(16) 0.61859(8)
H15 H 1.5942 0.6898 0.6015
C20 C 1.4268(2) 0.73423(15) 0.66218(8)
H16 H 1.4712 0.8055 0.6743
C21 C 1.28956(19) 0.69967(14) 0.68849(8)
H17 H 1.2403 0.7467 0.7187
C22 C 0.81179(17) 0.50720(13) 0.69330(7)
C23 C 0.72239(18) 0.56611(13) 0.74184(7)
C24 C 0.58133(17) 0.52104(14) 0.75993(7)
H18 H 0.5459 0.4509 0.7423
C25 C 0.4935(2) 0.57849(15) 0.80349(8)
H19 H 0.3987 0.5467 0.8164
C26 C 0.5424(2) 0.68208(16) 0.82853(8)
H20 H 0.4804 0.7219 0.8579
C27 C 0.6819(2) 0.72744(16) 0.81069(9)
H21 H 0.7159 0.7983 0.8280
C28 C 0.7718(2) 0.66969(15) 0.76768(8)
H22 H 0.8677 0.7009 0.7557
loop_
_geom_bond_atom_site_label_1
_geom_bond_atom_site_label_2
_geom_bond_site_symmetry_1
_geom_bond_site_symmetry_2
S1 C15 1_555 1_555
N1 C2 1_555 1_555
N2 C9 1_555 1_555
C1 C2 1_555 1_555
C2 C3 1_555 1_555
C3 H1 1_555 1_555
C4 C3 1_555 1_555
H2 C4 1_555 1_555
C5 C4 1_555 1_555
H3 C5 1_555 1_555
C6 C1 1_555 1_555
C7 C6 1_555 1_555
H4 C7 1_555 1_555
H5 C7 1_555 1_555
H6 C7 1_555 1_555
C8 C1 1_555 1_555
C9 C8 1_555 1_555
C10 C9 1_555 1_555
H7 C10 1_555 1_555
C11 C10 1_555 1_555
H8 C11 1_555 1_555
C12 C11 1_555 1_555
H9 C12 1_555 1_555
C13 C8 1_555 1_555
C14 C13 1_555 1_555
H10 C14 1_555 1_555
H11 C14 1_555 1_555
H12 C14 1_555 1_555
C15 N1 1_555 1_555
C16 C15 1_555 1_555
C17 C16 1_555 1_555
H13 C17 1_555 1_555
C18 C17 1_555 1_555
H14 C18 1_555 1_555
C19 C18 1_555 1_555
H15 C19 1_555 1_555
C20 C19 1_555 1_555
H16 C20 1_555 1_555
C21 C16 1_555 1_555
H17 C21 1_555 1_555
C22 N1 1_555 1_555
C23 C22 1_555 1_555
C24 C23 1_555 1_555
H18 C24 1_555 1_555
C25 C24 1_555 1_555
H19 C25 1_555 1_555
C26 C25 1_555 1_555
H20 C26 1_555 1_555
C27 C26 1_555 1_555
H21 C27 1_555 1_555
C28 C23 1_555 1_555
H22 C28 1_555 1_555
N2 C22 1_555 1_555
C5 C6 1_555 1_555
C12 C13 1_555 1_555
C20 C21 1_555 1_555
C27 C28 1_555 1_555

#END
