
#######################################################################
#
#                 Cambridge Crystallographic Data Centre
#                                CCDC 
#
#######################################################################
#
# If this CIF has been generated from an entry in the Cambridge 
# Structural Database, then it will include bibliographic, chemical, 
# crystal, experimental, refinement or atomic coordinate data resulting 
# from the CCDC's data processing and validation procedures.
#
#######################################################################

data_IJUVEP
_chemical_formula_moiety         'C22 H28 N8 Si1'
_chemical_name_systematic        
bis[4-(2-isopropyl-2H-tetrazol-5-yl)phenyl]dimethylsilane
_symmetry_cell_setting           orthorhombic
_symmetry_space_group_name_H-M   'P b c n'
_symmetry_Int_Tables_number      60
_space_group_name_Hall           '-P 2n 2ab'
loop_
_symmetry_equiv_pos_site_id
_symmetry_equiv_pos_as_xyz
1 x,y,z
2 1/2-x,1/2-y,1/2+z
3 -x,y,1/2-z
4 1/2+x,1/2-y,-z
5 -x,-y,-z
6 1/2+x,1/2+y,1/2-z
7 x,-y,1/2+z
8 1/2-x,1/2+y,z
_cell_length_a                   7.2722(14)
_cell_length_b                   11.536(2)
_cell_length_c                   28.444(6)
_cell_angle_alpha                90
_cell_angle_beta                 90
_cell_angle_gamma                90
_cell_volume                     2386.23
_exptl_crystal_colour            colorless
_exptl_crystal_description       plate
_cell_formula_units_Z            4
_exptl_crystal_recrystallization_method methanol
loop_
_atom_site_label
_atom_site_type_symbol
_atom_site_fract_x
_atom_site_fract_y
_atom_site_fract_z
Si1 Si 0.0000 0.80602(11) 0.2500
N1 N 0.5087(4) 0.4553(2) 0.40351(9)
N2 N 0.5050(4) 0.3688(2) 0.43454(10)
N3 N 0.3420(5) 0.3270(3) 0.44279(12)
N4 N 0.2291(4) 0.3870(3) 0.41648(11)
C1 C 0.1069(4) 0.7079(3) 0.29478(10)
C2 C 0.2904(5) 0.7098(3) 0.30746(12)
H1 H 0.3668 0.7655 0.2942
C3 C 0.3639(5) 0.6321(3) 0.33902(12)
H2 H 0.4883 0.6361 0.3465
C4 C 0.2560(4) 0.5490(3) 0.35956(10)
C5 C 0.0720(5) 0.5455(3) 0.34793(12)
H3 H -0.0042 0.4903 0.3617
C6 C 0.0004(5) 0.6231(3) 0.31617(12)
H4 H -0.1239 0.6186 0.3087
C7 C 0.3320(5) 0.4640(3) 0.39285(10)
C8 C 0.6736(6) 0.3243(3) 0.45759(14)
H5 H 0.6317 0.2726 0.4828
C9 C 0.7768(6) 0.4185(4) 0.48099(16)
H6 H 0.8732 0.3859 0.4999
H7 H 0.6949 0.4622 0.5007
H8 H 0.8292 0.4687 0.4576
C10 C 0.7788(6) 0.2512(4) 0.42484(17)
H9 H 0.6997 0.1925 0.4120
H10 H 0.8788 0.2151 0.4413
H11 H 0.8264 0.2982 0.3998
C11 C 0.1814(6) 0.8966(3) 0.22270(15)
H12 H 0.2715 0.8474 0.2082
H13 H 0.2394 0.9431 0.2464
H14 H 0.1273 0.9461 0.1994
N1B N -0.5087(4) 0.4553(2) 0.09649(9)
N2B N -0.5050(4) 0.3688(2) 0.06546(10)
N3B N -0.3420(5) 0.3270(3) 0.05721(12)
N4B N -0.2291(4) 0.3870(3) 0.08352(11)
C1B C -0.1069(4) 0.7079(3) 0.20522(10)
C2B C -0.2904(5) 0.7098(3) 0.19254(12)
H1B H -0.3668 0.7655 0.2058
C3B C -0.3639(5) 0.6321(3) 0.16098(12)
H2B H -0.4883 0.6361 0.1535
C4B C -0.2560(4) 0.5490(3) 0.14044(10)
C5B C -0.0720(5) 0.5455(3) 0.15207(12)
H3B H 0.0042 0.4903 0.1383
C6B C -0.0004(5) 0.6231(3) 0.18383(12)
H4B H 0.1239 0.6186 0.1913
C7B C -0.3320(5) 0.4640(3) 0.10715(10)
C8B C -0.6736(6) 0.3243(3) 0.04241(14)
H5B H -0.6317 0.2726 0.0172
C9B C -0.7768(6) 0.4185(4) 0.01901(16)
H6B H -0.8732 0.3859 0.0001
H7B H -0.6949 0.4622 -0.0007
H8B H -0.8292 0.4687 0.0424
C10B C -0.7788(6) 0.2512(4) 0.07516(17)
H9B H -0.6997 0.1925 0.0880
H10B H -0.8788 0.2151 0.0587
H11B H -0.8264 0.2982 0.1002
C11B C -0.1814(6) 0.8966(3) 0.27730(15)
H12B H -0.2715 0.8474 0.2918
H13B H -0.2394 0.9431 0.2536
H14B H -0.1273 0.9461 0.3006
loop_
_geom_bond_atom_site_label_1
_geom_bond_atom_site_label_2
_geom_bond_site_symmetry_1
_geom_bond_site_symmetry_2
Si1 C1 1_555 1_555
N1 N2 1_555 1_555
N2 N3 1_555 1_555
N3 N4 1_555 1_555
N4 C7 1_555 1_555
C1 C2 1_555 1_555
C2 H1 1_555 1_555
C3 C2 1_555 1_555
H2 C3 1_555 1_555
C4 C3 1_555 1_555
C5 C4 1_555 1_555
H3 C5 1_555 1_555
C6 C1 1_555 1_555
H4 C6 1_555 1_555
C7 N1 1_555 1_555
C8 N2 1_555 1_555
H5 C8 1_555 1_555
C9 C8 1_555 1_555
H6 C9 1_555 1_555
H7 C9 1_555 1_555
H8 C9 1_555 1_555
C10 C8 1_555 1_555
H9 C10 1_555 1_555
H10 C10 1_555 1_555
H11 C10 1_555 1_555
C11 Si1 1_555 1_555
H12 C11 1_555 1_555
H13 C11 1_555 1_555
H14 C11 1_555 1_555
N1B N2B 1_555 1_555
N2B N3B 1_555 1_555
N3B N4B 1_555 1_555
N4B C7B 1_555 1_555
C1B Si1 1_555 1_555
C2B C1B 1_555 1_555
H1B C2B 1_555 1_555
C3B C2B 1_555 1_555
H2B C3B 1_555 1_555
C4B C3B 1_555 1_555
C5B C4B 1_555 1_555
H3B C5B 1_555 1_555
C6B C1B 1_555 1_555
H4B C6B 1_555 1_555
C7B N1B 1_555 1_555
C8B N2B 1_555 1_555
H5B C8B 1_555 1_555
C9B C8B 1_555 1_555
H6B C9B 1_555 1_555
H7B C9B 1_555 1_555
H8B C9B 1_555 1_555
C10B C8B 1_555 1_555
H9B C10B 1_555 1_555
H10B C10B 1_555 1_555
H11B C10B 1_555 1_555
C11B Si1 1_555 1_555
H12B C11B 1_555 1_555
H13B C11B 1_555 1_555
H14B C11B 1_555 1_555
C4 C7 1_555 1_555
C5 C6 1_555 1_555
C4B C7B 1_555 1_555
C5B C6B 1_555 1_555

#END
