
#######################################################################
#
#                 Cambridge Crystallographic Data Centre
#                                CCDC 
#
#######################################################################
#
# If this CIF has been generated from an entry in the Cambridge 
# Structural Database, then it will include bibliographic, chemical, 
# crystal, experimental, refinement or atomic coordinate data resulting 
# from the CCDC's data processing and validation procedures.
#
#######################################################################

data_IJUXIW
_chemical_formula_moiety         'C18 H21 N3 O6'
_chemical_name_systematic        
'2-((4-(morpholin-4-yl)-2,6-dioxo-3,6-dihydropyrimidin-1(2H)-yl)methoxy)ethyl benzoate'
_symmetry_cell_setting           triclinic
_symmetry_space_group_name_H-M   'P -1'
_symmetry_Int_Tables_number      2
_space_group_name_Hall           '-P 1'
loop_
_symmetry_equiv_pos_site_id
_symmetry_equiv_pos_as_xyz
1 x,y,z
2 -x,-y,-z
_cell_length_a                   6.6382(13)
_cell_length_b                   11.344(2)
_cell_length_c                   12.512(3)
_cell_angle_alpha                74.44(3)
_cell_angle_beta                 81.86(3)
_cell_angle_gamma                75.18(3)
_cell_volume                     874.776
_exptl_crystal_colour            colorless
_exptl_crystal_description       prism
_cell_formula_units_Z            2
loop_
_atom_site_label
_atom_site_type_symbol
_atom_site_fract_x
_atom_site_fract_y
_atom_site_fract_z
H1 H 1.133(3) 1.0667(18) 0.2766(16)
N1 N 1.0046(2) 1.06859(13) 0.27539(11)
C1 C 0.9651(2) 1.00659(14) 0.20271(13)
N2 N 0.76404(18) 0.98779(12) 0.21355(11)
C2 C 0.6107(2) 1.02592(14) 0.29437(13)
C3 C 0.6671(2) 1.08792(15) 0.36528(14)
H2 H 0.568(3) 1.1134(17) 0.4169(16)
C4 C 0.8616(2) 1.11087(13) 0.35483(12)
O1 O 1.09971(18) 0.97007(13) 0.13537(10)
O2 O 0.43556(16) 1.00442(12) 0.29866(11)
C5 C 0.7140(3) 0.92648(16) 0.13447(14)
H3 H 0.557(3) 0.9510(17) 0.1336(15)
H4 H 0.785(3) 0.9582(16) 0.0638(15)
O3 O 0.78722(19) 0.79556(11) 0.16462(11)
C6 C 0.6712(4) 0.73315(17) 0.25605(16)
H5 H 0.528(3) 0.7469(18) 0.2360(16)
H6 H 0.669(3) 0.7687(19) 0.3192(18)
C7 C 0.7802(5) 0.5972(2) 0.2872(2)
H7 H 0.717(4) 0.560(3) 0.359(2)
H8 H 0.928(4) 0.589(2) 0.290(2)
O4 O 0.7659(2) 0.53028(12) 0.20608(12)
C8 C 0.5944(3) 0.48556(16) 0.21678(15)
O5 O 0.4503(3) 0.50547(15) 0.28358(13)
C9 C 0.6063(3) 0.40629(14) 0.13750(14)
C10 C 0.7872(3) 0.37090(19) 0.07314(17)
H9 H 0.907(3) 0.400(2) 0.0783(17)
C11 C 0.7894(4) 0.2921(2) 0.00390(19)
H10 H 0.914(5) 0.279(3) -0.036(2)
C12 C 0.6152(5) 0.2515(2) -0.0009(2)
H11 H 0.620(4) 0.199(2) -0.050(2)
C13 C 0.4365(4) 0.2876(2) 0.0617(2)
H12 H 0.313(4) 0.257(3) 0.053(2)
C14 C 0.4305(3) 0.36499(18) 0.13098(17)
H13 H 0.304(4) 0.391(2) 0.173(2)
N3 N 0.92610(19) 1.17234(12) 0.41909(11)
C15 C 1.0765(3) 1.25087(17) 0.36835(15)
H14 H 1.197(3) 1.2038(18) 0.3310(16)
H15 H 1.005(3) 1.326(2) 0.3120(17)
C16 C 1.1564(3) 1.2926(2) 0.45539(17)
H16 H 1.237(4) 1.353(2) 0.4193(19)
H17 H 1.242(3) 1.215(2) 0.5106(18)
O6 O 0.9924(2) 1.35358(12) 0.52046(11)
C17 C 0.8671(3) 1.2691(2) 0.57714(16)
H18 H 0.762(4) 1.314(2) 0.6182(18)
H19 H 0.964(3) 1.190(2) 0.6252(17)
C18 C 0.7677(3) 1.22551(18) 0.49813(15)
H20 H 0.662(3) 1.3007(19) 0.4539(16)
H21 H 0.697(3) 1.159(2) 0.5428(17)
loop_
_geom_bond_atom_site_label_1
_geom_bond_atom_site_label_2
_geom_bond_site_symmetry_1
_geom_bond_site_symmetry_2
H1 N1 1_555 1_555
N1 C1 1_555 1_555
C1 N2 1_555 1_555
N2 C2 1_555 1_555
C2 C3 1_555 1_555
C3 H2 1_555 1_555
C4 N1 1_555 1_555
O1 C1 1_555 1_555
O2 C2 1_555 1_555
C5 N2 1_555 1_555
H3 C5 1_555 1_555
H4 C5 1_555 1_555
O3 C5 1_555 1_555
C6 O3 1_555 1_555
H5 C6 1_555 1_555
H6 C6 1_555 1_555
C7 C6 1_555 1_555
H7 C7 1_555 1_555
H8 C7 1_555 1_555
O4 C7 1_555 1_555
C8 O4 1_555 1_555
O5 C8 1_555 1_555
C9 C8 1_555 1_555
C10 C9 1_555 1_555
H9 C10 1_555 1_555
C11 C10 1_555 1_555
H10 C11 1_555 1_555
C12 C11 1_555 1_555
H11 C12 1_555 1_555
C13 C12 1_555 1_555
H12 C13 1_555 1_555
C14 C9 1_555 1_555
H13 C14 1_555 1_555
N3 C4 1_555 1_555
C15 N3 1_555 1_555
H14 C15 1_555 1_555
H15 C15 1_555 1_555
C16 C15 1_555 1_555
H16 C16 1_555 1_555
H17 C16 1_555 1_555
O6 C16 1_555 1_555
C17 O6 1_555 1_555
H18 C17 1_555 1_555
H19 C17 1_555 1_555
C18 N3 1_555 1_555
H20 C18 1_555 1_555
H21 C18 1_555 1_555
C3 C4 1_555 1_555
C13 C14 1_555 1_555
C17 C18 1_555 1_555

#END
