
#######################################################################
#
#                 Cambridge Crystallographic Data Centre
#                                CCDC 
#
#######################################################################
#
# If this CIF has been generated from an entry in the Cambridge 
# Structural Database, then it will include bibliographic, chemical, 
# crystal, experimental, refinement or atomic coordinate data resulting 
# from the CCDC's data processing and validation procedures.
#
#######################################################################

data_IJUYIW
_chemical_name_common            
5-[(2-Chloro-4-nitroanilino)methylidene]-2,2-dimethyl-1,3-dioxane-4,6-dione
_chemical_formula_moiety         'C13 H11 Cl1 N2 O6'
_chemical_name_systematic        
5-[(2-Chloro-4-nitroanilino)methylidene]-2,2-dimethyl-1,3-dioxane-4,6-dione
_symmetry_cell_setting           monoclinic
_symmetry_space_group_name_H-M   'P 21/c'
_symmetry_Int_Tables_number      14
_space_group_name_Hall           '-P 2ybc'
loop_
_symmetry_equiv_pos_site_id
_symmetry_equiv_pos_as_xyz
1 x,y,z
2 -x,1/2+y,1/2-z
3 -x,-y,-z
4 x,1/2-y,1/2+z
_cell_length_a                   13.5850(5)
_cell_length_b                   5.04379(14)
_cell_length_c                   21.0272(7)
_cell_angle_alpha                90
_cell_angle_beta                 104.427(4)
_cell_angle_gamma                90
_cell_volume                     1395.35
_exptl_crystal_colour            colorless
_exptl_crystal_description       block
_cell_formula_units_Z            4
_exptl_crystal_recrystallization_method ethanol
loop_
_atom_site_label
_atom_site_type_symbol
_atom_site_fract_x
_atom_site_fract_y
_atom_site_fract_z
Cl1 Cl 0.11303(4) 0.78022(10) 0.26632(2)
O1 O -0.23464(10) 0.7514(2) 0.04172(7)
O2 O -0.24014(10) 0.4073(3) -0.03503(6)
O3 O -0.09905(11) 0.8273(3) 0.12205(7)
O4 O -0.10943(10) 0.1444(3) -0.03156(7)
O5 O 0.46457(14) 0.3369(4) 0.35706(9)
O6 O 0.48067(14) 0.0203(4) 0.29216(9)
N1 N 0.43369(14) 0.2060(4) 0.30716(10)
N2 N 0.05320(11) 0.4776(3) 0.14363(7)
H1 H 0.0263 0.6155 0.1565
C1 C 0.33473(15) 0.2739(4) 0.26352(9)
C2 C 0.27826(15) 0.4698(4) 0.28308(9)
H2 H 0.3024 0.5569 0.3229
C3 C 0.18530(14) 0.5341(3) 0.24251(9)
C4 C 0.14835(13) 0.4042(3) 0.18250(8)
C5 C 0.20803(15) 0.2071(4) 0.16447(9)
H3 H 0.1847 0.1193 0.1247
C6 C 0.30095(15) 0.1410(4) 0.20485(10)
H4 H 0.3404 0.0086 0.1928
C7 C -0.00122(13) 0.3622(3) 0.08932(8)
H5 H 0.0254 0.2132 0.0736
C8 C -0.09479(13) 0.4525(3) 0.05552(8)
C9 C -0.14016(14) 0.6847(3) 0.07640(9)
C10 C -0.29653(14) 0.5492(4) 0.00333(10)
C11 C -0.14546(14) 0.3172(4) -0.00500(9)
C12 C -0.33222(18) 0.3613(4) 0.04848(13)
H6 H -0.3779 0.2337 0.0229
H7 H -0.3668 0.4590 0.0756
H8 H -0.2748 0.2713 0.0758
C13 C -0.38047(18) 0.6932(5) -0.04496(12)
H9 H -0.3514 0.8249 -0.0678
H10 H -0.4245 0.7774 -0.0218
H11 H -0.4188 0.5687 -0.0760
loop_
_geom_bond_atom_site_label_1
_geom_bond_atom_site_label_2
_geom_bond_site_symmetry_1
_geom_bond_site_symmetry_2
Cl1 C3 1_555 1_555
O1 C9 1_555 1_555
O2 C10 1_555 1_555
O3 C9 1_555 1_555
O4 C11 1_555 1_555
O5 N1 1_555 1_555
O6 N1 1_555 1_555
N1 C1 1_555 1_555
N2 H1 1_555 1_555
C1 C2 1_555 1_555
C2 H2 1_555 1_555
C3 C2 1_555 1_555
C4 N2 1_555 1_555
C5 C4 1_555 1_555
H3 C5 1_555 1_555
C6 C1 1_555 1_555
H4 C6 1_555 1_555
C7 N2 1_555 1_555
H5 C7 1_555 1_555
C8 C7 1_555 1_555
C9 C8 1_555 1_555
C10 O1 1_555 1_555
C11 O2 1_555 1_555
C12 C10 1_555 1_555
H6 C12 1_555 1_555
H7 C12 1_555 1_555
H8 C12 1_555 1_555
C13 C10 1_555 1_555
H9 C13 1_555 1_555
H10 C13 1_555 1_555
H11 C13 1_555 1_555
C3 C4 1_555 1_555
C5 C6 1_555 1_555
C8 C11 1_555 1_555

#END
