
#######################################################################
#
#                 Cambridge Crystallographic Data Centre
#                                CCDC 
#
#######################################################################
#
# If this CIF has been generated from an entry in the Cambridge 
# Structural Database, then it will include bibliographic, chemical, 
# crystal, experimental, refinement or atomic coordinate data resulting 
# from the CCDC's data processing and validation procedures.
#
#######################################################################

data_IJUYOC
_chemical_compound_source        'Delphinium anthriscifolium var. majus'
_chemical_name_common            
'14-Ethyl-4,6,19-trimethoxy-9,11-dioxa-14-azaheptacyclo[10.7.2.1$2,5!.0$1,13!.0$3,8!.0$8,12!.0$16,20!]docos-21-yl acetate'
_chemical_formula_moiety         'C26 H39 N1 O7'
_chemical_name_systematic        'Anthriscifolcine A'
_symmetry_cell_setting           orthorhombic
_symmetry_space_group_name_H-M   'P 21 21 21'
_symmetry_Int_Tables_number      19
_space_group_name_Hall           'P 2ac 2ab'
loop_
_symmetry_equiv_pos_site_id
_symmetry_equiv_pos_as_xyz
1 x,y,z
2 1/2-x,-y,1/2+z
3 -x,1/2+y,1/2-z
4 1/2+x,1/2-y,-z
_cell_length_a                   8.9444(16)
_cell_length_b                   14.135(3)
_cell_length_c                   19.112(3)
_cell_angle_alpha                90
_cell_angle_beta                 90
_cell_angle_gamma                90
_cell_volume                     2416.31
_exptl_crystal_colour            colorless
_exptl_crystal_description       block
_chemical_melting_point          '485-487 K'
_cell_formula_units_Z            4
_exptl_crystal_recrystallization_method ethanol
loop_
_atom_site_label
_atom_site_type_symbol
_atom_site_fract_x
_atom_site_fract_y
_atom_site_fract_z
O1 O 0.30623(14) 0.49917(9) 0.71667(6)
O2 O 0.44209(14) 0.42792(9) 0.62909(7)
O3 O 0.72126(15) 0.46178(8) 0.91841(6)
O4 O 0.36463(14) 0.26667(8) 0.70942(7)
O5 O 0.13732(16) 0.30454(11) 0.66750(8)
O6 O 0.77283(14) 0.39651(9) 0.59355(6)
O7 O 0.85214(15) 0.60530(9) 0.65703(7)
N1 N 0.37859(17) 0.49307(10) 0.87482(8)
C1 C 0.6416(2) 0.37444(12) 0.90962(9)
H1 H 0.7167 0.3220 0.9102
C2 C 0.5383(2) 0.36093(14) 0.97290(9)
H2 H 0.5983 0.3382 1.0130
H3 H 0.4949 0.4229 0.9859
C3 C 0.4122(3) 0.29143(15) 0.95935(10)
H4 H 0.3420 0.2917 0.9994
H5 H 0.4534 0.2268 0.9546
C4 C 0.3289(2) 0.31858(13) 0.89248(10)
H6 H 0.2426 0.2743 0.8867
C5 C 0.4337(2) 0.30608(12) 0.82959(9)
H7 H 0.4687 0.2391 0.8254
C6 C 0.3504(2) 0.33800(12) 0.76349(9)
H8 H 0.2420 0.3455 0.7752
C7 C 0.4165(2) 0.43769(12) 0.74658(9)
C8 C 0.53840(19) 0.43831(12) 0.69037(9)
C9 C 0.6448(2) 0.35546(11) 0.70054(8)
H9 H 0.5985 0.2951 0.6840
C10 C 0.6892(2) 0.34851(12) 0.78001(9)
H10 H 0.7135 0.2804 0.7886
C11 C 0.5674(2) 0.37552(11) 0.83597(9)
C12 C 0.84195(19) 0.40274(13) 0.78403(9)
H11 H 0.8383 0.4521 0.8207
H12 H 0.9244 0.3584 0.7950
C13 C 0.8657(2) 0.44761(12) 0.71208(9)
H13 H 0.9745 0.4553 0.7017
C14 C 0.7952(2) 0.37223(12) 0.66496(9)
H14 H 0.8562 0.3130 0.6676
C15 C 0.6204(2) 0.53451(12) 0.68240(9)
H15 H 0.6172 0.5522 0.6323
H16 H 0.5617 0.5826 0.7082
C16 C 0.7835(2) 0.54252(12) 0.70678(9)
H17 H 0.7850 0.5735 0.7538
C17 C 0.4825(2) 0.46807(12) 0.81829(9)
H18 H 0.5558 0.5206 0.8112
C18 C 0.2676(2) 0.42064(14) 0.89324(11)
H19 H 0.1831 0.4248 0.8600
H20 H 0.2282 0.4346 0.9405
C19 C 0.3093(2) 0.58623(13) 0.86550(10)
H21 H 0.2231 0.5803 0.8333
H22 H 0.3826 0.6297 0.8437
C20 C 0.2559(3) 0.62839(16) 0.93459(11)
H23 H 0.3375 0.6265 0.9688
H24 H 0.1710 0.5917 0.9522
H25 H 0.2250 0.6941 0.9272
C21 C 0.8432(2) 0.45474(15) 0.96600(10)
H26 H 0.9164 0.4092 0.9480
H27 H 0.8064 0.4333 1.0116
H28 H 0.8907 0.5168 0.9711
C22 C 0.3230(2) 0.49072(13) 0.64212(9)
H29 H 0.2297 0.4661 0.6211
H30 H 0.3448 0.5534 0.6213
C23 C 0.9100(2) 0.40192(14) 0.55639(9)
H31 H 0.9603 0.3404 0.5580
H32 H 0.9741 0.4500 0.5779
H33 H 0.8902 0.4191 0.5076
C24 C 0.9849(2) 0.64858(14) 0.68263(12)
H34 H 1.0587 0.5996 0.6938
H35 H 0.9618 0.6849 0.7249
H36 H 1.0256 0.6910 0.6468
C25 C 0.2532(2) 0.26281(12) 0.66158(10)
C26 C 0.2948(3) 0.20041(14) 0.60156(10)
H37 H 0.2156 0.2024 0.5662
H38 H 0.3074 0.1353 0.6182
H39 H 0.3888 0.2226 0.5809
loop_
_geom_bond_atom_site_label_1
_geom_bond_atom_site_label_2
_geom_bond_site_symmetry_1
_geom_bond_site_symmetry_2
O1 C7 1_555 1_555
O2 C8 1_555 1_555
O3 C1 1_555 1_555
O4 C6 1_555 1_555
O5 C25 1_555 1_555
O6 C14 1_555 1_555
O7 C16 1_555 1_555
N1 C17 1_555 1_555
C1 H1 1_555 1_555
C2 C1 1_555 1_555
H2 C2 1_555 1_555
H3 C2 1_555 1_555
C3 C2 1_555 1_555
H4 C3 1_555 1_555
H5 C3 1_555 1_555
C4 C3 1_555 1_555
H6 C4 1_555 1_555
C5 C4 1_555 1_555
H7 C5 1_555 1_555
C6 C5 1_555 1_555
H8 C6 1_555 1_555
C7 C6 1_555 1_555
C8 C7 1_555 1_555
C9 C8 1_555 1_555
H9 C9 1_555 1_555
C10 C9 1_555 1_555
H10 C10 1_555 1_555
C11 C1 1_555 1_555
C12 C10 1_555 1_555
H11 C12 1_555 1_555
H12 C12 1_555 1_555
C13 C12 1_555 1_555
H13 C13 1_555 1_555
C14 C9 1_555 1_555
H14 C14 1_555 1_555
C15 C8 1_555 1_555
H15 C15 1_555 1_555
H16 C15 1_555 1_555
C16 C13 1_555 1_555
H17 C16 1_555 1_555
C17 C7 1_555 1_555
H18 C17 1_555 1_555
C18 N1 1_555 1_555
H19 C18 1_555 1_555
H20 C18 1_555 1_555
C19 N1 1_555 1_555
H21 C19 1_555 1_555
H22 C19 1_555 1_555
C20 C19 1_555 1_555
H23 C20 1_555 1_555
H24 C20 1_555 1_555
H25 C20 1_555 1_555
C21 O3 1_555 1_555
H26 C21 1_555 1_555
H27 C21 1_555 1_555
H28 C21 1_555 1_555
C22 O1 1_555 1_555
H29 C22 1_555 1_555
H30 C22 1_555 1_555
C23 O6 1_555 1_555
H31 C23 1_555 1_555
H32 C23 1_555 1_555
H33 C23 1_555 1_555
C24 O7 1_555 1_555
H34 C24 1_555 1_555
H35 C24 1_555 1_555
H36 C24 1_555 1_555
C25 O4 1_555 1_555
C26 C25 1_555 1_555
H37 C26 1_555 1_555
H38 C26 1_555 1_555
H39 C26 1_555 1_555
O2 C22 1_555 1_555
C4 C18 1_555 1_555
C5 C11 1_555 1_555
C10 C11 1_555 1_555
C11 C17 1_555 1_555
C13 C14 1_555 1_555
C15 C16 1_555 1_555

#END
