
#######################################################################
#
#                 Cambridge Crystallographic Data Centre
#                                CCDC 
#
#######################################################################
#
# If this CIF has been generated from an entry in the Cambridge 
# Structural Database, then it will include bibliographic, chemical, 
# crystal, experimental, refinement or atomic coordinate data resulting 
# from the CCDC's data processing and validation procedures.
#
#######################################################################

data_IJUZUJ
_chemical_formula_moiety         'C22 H23 N1 O4'
_chemical_name_systematic        
'Ethyl 1-formamido-4-oxo-2,6-diphenylcyclohexanecarboxylate'
_symmetry_cell_setting           monoclinic
_symmetry_space_group_name_H-M   'P 21/n'
_symmetry_Int_Tables_number      14
_space_group_name_Hall           '-P 2yn'
loop_
_symmetry_equiv_pos_site_id
_symmetry_equiv_pos_as_xyz
1 x,y,z
2 1/2-x,1/2+y,1/2-z
3 -x,-y,-z
4 1/2+x,1/2-y,1/2+z
_cell_length_a                   11.3240(12)
_cell_length_b                   13.5100(15)
_cell_length_c                   12.5870(14)
_cell_angle_alpha                90
_cell_angle_beta                 99.149(2)
_cell_angle_gamma                90
_cell_volume                     1901.15
_exptl_crystal_colour            colorless
_exptl_crystal_description       block
_cell_formula_units_Z            4
loop_
_atom_site_label
_atom_site_type_symbol
_atom_site_fract_x
_atom_site_fract_y
_atom_site_fract_z
O1 O 1.03050(10) 0.14890(8) 0.47576(8)
O2 O 0.94334(8) 0.26361(7) 0.36180(7)
C1 C 0.98394(11) 0.17327(10) 0.38744(10)
N1 N 1.01302(10) 0.00919(8) 0.33120(9)
C2 C 0.95919(11) 0.10312(9) 0.29070(10)
C3 C 0.75462(12) 0.08726(11) 0.35380(11)
O3 O 0.95020(11) -0.09967(8) 0.19437(10)
O4 O 0.76178(11) 0.15572(10) -0.01954(9)
C4 C 0.81977(11) 0.09052(10) 0.25754(10)
H1 H 0.8083 0.0251 0.2239
C5 C 0.94777(13) 0.11160(11) 0.08583(11)
H2 H 0.9870 0.1368 0.0283
H3 H 0.9497 0.0399 0.0832
C6 C 1.14993(12) 0.13184(11) 0.20876(11)
C7 C 1.01555(12) 0.14705(10) 0.19429(10)
H4 H 1.0031 0.2188 0.1961
C8 C 0.76820(13) 0.16456(11) 0.17030(11)
H5 H 0.6819 0.1579 0.1554
H6 H 0.7870 0.2315 0.1955
C9 C 0.94851(15) 0.33379(11) 0.45037(13)
H7 H 1.0308 0.3516 0.4773
H8 H 0.9137 0.3050 0.5088
C10 C 0.81977(13) 0.14617(11) 0.06898(11)
C11 C 1.20075(13) 0.04802(12) 0.17129(12)
H9 H 1.1518 0.0000 0.1342
C12 C 1.22578(14) 0.20301(12) 0.26263(12)
H10 H 1.1936 0.2601 0.2878
C13 C 0.70022(14) 0.16996(13) 0.38990(13)
H11 H 0.7006 0.2295 0.3528
C14 C 0.74950(14) -0.00068(14) 0.40968(14)
H12 H 0.7837 -0.0576 0.3861
C15 C 1.00363(14) -0.07956(11) 0.28331(14)
H13 H 1.0424 -0.1318 0.3225
C16 C 1.34882(15) 0.18981(14) 0.27916(14)
H14 H 1.3985 0.2380 0.3152
C17 C 1.32359(15) 0.03502(15) 0.18842(14)
H15 H 1.3564 -0.0218 0.1633
C18 C 1.39736(15) 0.10596(16) 0.24257(14)
H16 H 1.4798 0.0970 0.2542
C19 C 0.64542(17) 0.16480(18) 0.48052(17)
H17 H 0.6105 0.2212 0.5044
C20 C 0.69387(18) -0.00491(19) 0.50051(17)
H18 H 0.6919 -0.0642 0.5378
C21 C 0.87950(17) 0.42237(12) 0.40695(16)
H19 H 0.8803 0.4706 0.4631
H20 H 0.7984 0.4036 0.3803
H21 H 0.9151 0.4502 0.3494
C22 C 0.64203(19) 0.0781(2) 0.53508(17)
H22 H 0.6046 0.0753 0.5957
H23 H 1.0524 0.0128 0.3939
loop_
_geom_bond_atom_site_label_1
_geom_bond_atom_site_label_2
_geom_bond_site_symmetry_1
_geom_bond_site_symmetry_2
O1 C1 1_555 1_555
O2 C1 1_555 1_555
C1 C2 1_555 1_555
N1 C2 1_555 1_555
C2 C4 1_555 1_555
C3 C4 1_555 1_555
O3 C15 1_555 1_555
O4 C10 1_555 1_555
C4 H1 1_555 1_555
C5 H2 1_555 1_555
H3 C5 1_555 1_555
C6 C7 1_555 1_555
C7 C2 1_555 1_555
H4 C7 1_555 1_555
C8 C4 1_555 1_555
H5 C8 1_555 1_555
H6 C8 1_555 1_555
C9 O2 1_555 1_555
H7 C9 1_555 1_555
H8 C9 1_555 1_555
C10 C5 1_555 1_555
C11 C6 1_555 1_555
H9 C11 1_555 1_555
C12 C6 1_555 1_555
H10 C12 1_555 1_555
C13 C3 1_555 1_555
H11 C13 1_555 1_555
C14 C3 1_555 1_555
H12 C14 1_555 1_555
C15 N1 1_555 1_555
H13 C15 1_555 1_555
C16 C12 1_555 1_555
H14 C16 1_555 1_555
C17 C11 1_555 1_555
H15 C17 1_555 1_555
C18 C16 1_555 1_555
H16 C18 1_555 1_555
C19 C13 1_555 1_555
H17 C19 1_555 1_555
C20 C14 1_555 1_555
H18 C20 1_555 1_555
C21 C9 1_555 1_555
H19 C21 1_555 1_555
H20 C21 1_555 1_555
H21 C21 1_555 1_555
C22 C19 1_555 1_555
H22 C22 1_555 1_555
H23 N1 1_555 1_555
C5 C7 1_555 1_555
C8 C10 1_555 1_555
C17 C18 1_555 1_555
C20 C22 1_555 1_555

#END
