
#######################################################################
#
#                 Cambridge Crystallographic Data Centre
#                                CCDC 
#
#######################################################################
#
# If this CIF has been generated from an entry in the Cambridge 
# Structural Database, then it will include bibliographic, chemical, 
# crystal, experimental, refinement or atomic coordinate data resulting 
# from the CCDC's data processing and validation procedures.
#
#######################################################################

data_IKADAA
_chemical_name_common            
'4-(1-Ethyl-1H-benzimidazol-2-yl)-N,N-diphenylaniline monohydrate'
_chemical_formula_moiety         'C27 H23 N3,H2 O1'
_chemical_name_systematic        
'4-(1-Ethyl-1H-1,3-benzimidazol-2-yl)-N,N-diphenylaniline monohydrate'
_symmetry_cell_setting           monoclinic
_symmetry_space_group_name_H-M   'P 21/c'
_symmetry_Int_Tables_number      14
_space_group_name_Hall           '-P 2ybc'
loop_
_symmetry_equiv_pos_site_id
_symmetry_equiv_pos_as_xyz
1 x,y,z
2 -x,1/2+y,1/2-z
3 -x,-y,-z
4 x,1/2-y,1/2+z
_cell_length_a                   12.278(3)
_cell_length_b                   9.2690(19)
_cell_length_c                   19.468(4)
_cell_angle_alpha                90
_cell_angle_beta                 97.81(3)
_cell_angle_gamma                90
_cell_volume                     2195
_exptl_crystal_colour            colorless
_exptl_crystal_description       block
_cell_formula_units_Z            4
loop_
_atom_site_label
_atom_site_type_symbol
_atom_site_fract_x
_atom_site_fract_y
_atom_site_fract_z
N1 N 0.12417(17) 0.8084(2) -0.08205(12)
C1 C 0.0167(2) 1.0299(3) -0.09280(14)
H1 H -0.0468 0.9764 -0.0906
N2 N 0.53509(16) 0.6320(2) 0.14215(10)
C2 C 0.0102(2) 1.1782(3) -0.10031(16)
H2 H -0.0578 1.2238 -0.1038
N3 N 0.47737(16) 0.4037(2) 0.12179(11)
C3 C 0.1033(3) 1.2582(3) -0.10260(16)
H3 H 0.0986 1.3580 -0.1072
C4 C 0.2031(2) 1.1914(3) -0.09818(15)
H4 H 0.2664 1.2461 -0.0993
C5 C 0.2108(2) 1.0429(3) -0.09211(14)
H5 H 0.2787 0.9977 -0.0905
C6 C 0.1169(2) 0.9614(3) -0.08850(13)
C7 C 0.03574(19) 0.7225(3) -0.11420(13)
C8 C -0.0220(2) 0.6349(3) -0.07465(15)
H6 H -0.0017 0.6299 -0.0269
C9 C -0.1095(2) 0.5549(3) -0.10554(18)
H7 H -0.1477 0.4955 -0.0786
C10 C -0.1405(3) 0.5620(3) -0.1750(2)
H8 H -0.2004 0.5088 -0.1956
C11 C -0.0834(3) 0.6476(4) -0.21467(17)
H9 H -0.1042 0.6516 -0.2624
C12 C 0.0048(2) 0.7282(3) -0.18469(14)
H10 H 0.0433 0.7861 -0.2121
C13 C 0.20766(19) 0.7440(3) -0.03508(13)
C14 C 0.2497(2) 0.8104(3) 0.02666(13)
H11 H 0.2234 0.9005 0.0375
C15 C 0.3298(2) 0.7442(3) 0.07189(13)
H12 H 0.3578 0.7910 0.1128
C16 C 0.37033(19) 0.6077(3) 0.05776(13)
C17 C 0.32912(19) 0.5432(3) -0.00436(13)
H13 H 0.3560 0.4536 -0.0154
C18 C 0.2488(2) 0.6091(3) -0.05033(13)
H14 H 0.2220 0.5633 -0.0917
C19 C 0.4598(2) 0.5481(3) 0.10699(13)
C20 C 0.6054(2) 0.5389(3) 0.18193(13)
C21 C 0.6991(2) 0.5681(3) 0.22815(14)
H15 H 0.7225 0.6625 0.2371
C22 C 0.7562(3) 0.4543(4) 0.26021(16)
H16 H 0.8196 0.4716 0.2910
C23 C 0.7204(3) 0.3122(3) 0.24720(16)
H17 H 0.7611 0.2374 0.2697
C24 C 0.6278(2) 0.2793(3) 0.20264(15)
H18 H 0.6040 0.1847 0.1947
C25 C 0.5710(2) 0.3962(3) 0.16973(13)
C26 C 0.4069(2) 0.2785(3) 0.10055(15)
H19 H 0.3350 0.3125 0.0803
H20 H 0.3975 0.2221 0.1413
C27 C 0.4534(3) 0.1826(3) 0.04887(17)
H21 H 0.4046 0.1029 0.0370
H22 H 0.5241 0.1471 0.0689
H23 H 0.4611 0.2371 0.0079
O1 O 0.5578(2) 0.9300(3) 0.18768(15)
H24 H 0.5151 0.8673 0.2015
H25 H 0.5919 0.8888 0.1579
loop_
_geom_bond_atom_site_label_1
_geom_bond_atom_site_label_2
_geom_bond_site_symmetry_1
_geom_bond_site_symmetry_2
N1 C6 1_555 1_555
C1 H1 1_555 1_555
N2 C19 1_555 1_555
C2 C1 1_555 1_555
H2 C2 1_555 1_555
N3 C19 1_555 1_555
C3 C2 1_555 1_555
H3 C3 1_555 1_555
C4 C3 1_555 1_555
H4 C4 1_555 1_555
C5 C4 1_555 1_555
H5 C5 1_555 1_555
C6 C1 1_555 1_555
C7 N1 1_555 1_555
C8 C7 1_555 1_555
H6 C8 1_555 1_555
C9 C8 1_555 1_555
H7 C9 1_555 1_555
C10 C9 1_555 1_555
H8 C10 1_555 1_555
C11 C10 1_555 1_555
H9 C11 1_555 1_555
C12 C7 1_555 1_555
H10 C12 1_555 1_555
C13 N1 1_555 1_555
C14 C13 1_555 1_555
H11 C14 1_555 1_555
C15 C14 1_555 1_555
H12 C15 1_555 1_555
C16 C15 1_555 1_555
C17 C16 1_555 1_555
H13 C17 1_555 1_555
C18 C13 1_555 1_555
H14 C18 1_555 1_555
C19 C16 1_555 1_555
C20 N2 1_555 1_555
C21 C20 1_555 1_555
H15 C21 1_555 1_555
C22 C21 1_555 1_555
H16 C22 1_555 1_555
C23 C22 1_555 1_555
H17 C23 1_555 1_555
C24 C23 1_555 1_555
H18 C24 1_555 1_555
C25 N3 1_555 1_555
C26 N3 1_555 1_555
H19 C26 1_555 1_555
H20 C26 1_555 1_555
C27 C26 1_555 1_555
H21 C27 1_555 1_555
H22 C27 1_555 1_555
H23 C27 1_555 1_555
O1 H24 1_555 1_555
H25 O1 1_555 1_555
C5 C6 1_555 1_555
C11 C12 1_555 1_555
C17 C18 1_555 1_555
C20 C25 1_555 1_555
C24 C25 1_555 1_555

#END
