
#######################################################################
#
#                 Cambridge Crystallographic Data Centre
#                                CCDC 
#
#######################################################################
#
# If this CIF has been generated from an entry in the Cambridge 
# Structural Database, then it will include bibliographic, chemical, 
# crystal, experimental, refinement or atomic coordinate data resulting 
# from the CCDC's data processing and validation procedures.
#
#######################################################################

data_IKAGOS
_chemical_formula_moiety         'C19 H18 Cl1 N1 O3'
_chemical_name_systematic        
3-Chloro-4-(dibenzylamino)-5-methoxyfuran-2(5H)-one
_symmetry_cell_setting           orthorhombic
_symmetry_space_group_name_H-M   'P b c a'
_symmetry_Int_Tables_number      61
_space_group_name_Hall           '-P 2ac 2ab'
loop_
_symmetry_equiv_pos_site_id
_symmetry_equiv_pos_as_xyz
1 x,y,z
2 1/2-x,-y,1/2+z
3 -x,1/2+y,1/2-z
4 1/2+x,1/2-y,-z
5 -x,-y,-z
6 1/2+x,y,1/2-z
7 x,1/2-y,1/2+z
8 1/2-x,1/2+y,z
_cell_length_a                   15.891(16)
_cell_length_b                   11.126(11)
_cell_length_c                   19.778(19)
_cell_angle_alpha                90
_cell_angle_beta                 90
_cell_angle_gamma                90
_cell_volume                     3496.81
_exptl_crystal_colour            colorless
_exptl_crystal_description       block
_cell_formula_units_Z            8
loop_
_atom_site_label
_atom_site_type_symbol
_atom_site_fract_x
_atom_site_fract_y
_atom_site_fract_z
Cl1 Cl 0.90327(4) 1.14573(6) 0.65568(4)
C1 C 0.70286(12) 0.86380(17) 0.83891(10)
C2 C 0.75747(12) 0.89493(18) 0.63847(10)
C3 C 0.69880(15) 0.9672(2) 0.87733(13)
H1 H 0.7430 1.0219 0.8762
C4 C 0.63705(14) 0.7847(2) 0.84330(12)
H2 H 0.6392 0.7133 0.8189
C5 C 0.82053(15) 0.8118(2) 0.62789(12)
H3 H 0.8622 0.8015 0.6604
C6 C 0.69655(14) 0.9064(2) 0.58949(12)
H4 H 0.6530 0.9611 0.5957
C7 C 0.82253(18) 0.7437(2) 0.56968(14)
H5 H 0.8655 0.6881 0.5632
C8 C 0.76197(18) 0.7572(3) 0.52164(14)
H6 H 0.7635 0.7114 0.4823
C9 C 0.69892(19) 0.8385(3) 0.53171(13)
H7 H 0.6573 0.8480 0.4991
C10 C 0.62993(18) 0.9898(2) 0.91730(14)
H8 H 0.6281 1.0594 0.9433
C11 C 0.56371(17) 0.9105(3) 0.91912(13)
H9 H 0.5164 0.9271 0.9451
C12 C 0.56818(17) 0.8083(3) 0.88282(15)
H10 H 0.5242 0.7533 0.8846
C13 C 0.75122(13) 0.97034(19) 0.70117(11)
H11 H 0.7627 1.0534 0.6894
H12 H 0.6940 0.9663 0.7181
C14 C 0.77770(12) 0.83222(17) 0.79574(11)
H13 H 0.8228 0.8041 0.8247
H14 H 0.7624 0.7668 0.7658
C15 C 0.88820(11) 0.97533(15) 0.75899(10)
C16 C 0.93164(12) 1.05849(17) 0.72312(10)
C17 C 0.94646(11) 0.93089(16) 0.81349(10)
H15 H 0.9561 0.8443 0.8090
C18 C 1.01434(12) 1.07538(18) 0.75180(11)
O1 O 1.02362(8) 0.99644(12) 0.80461(7)
O2 O 1.07006(9) 1.14405(13) 0.73696(9)
N1 N 0.80880(9) 0.93363(13) 0.75488(8)
O3 O 0.91245(8) 0.95800(13) 0.87626(7)
C19 C 0.95108(18) 0.8947(3) 0.92990(12)
H16 H 1.0102 0.9127 0.9307
H17 H 0.9433 0.8099 0.9234
H18 H 0.9260 0.9184 0.9720
loop_
_geom_bond_atom_site_label_1
_geom_bond_atom_site_label_2
_geom_bond_site_symmetry_1
_geom_bond_site_symmetry_2
Cl1 C16 1_555 1_555
C1 C3 1_555 1_555
C2 C5 1_555 1_555
C3 H1 1_555 1_555
C4 C1 1_555 1_555
H2 C4 1_555 1_555
C5 H3 1_555 1_555
C6 C2 1_555 1_555
H4 C6 1_555 1_555
C7 C5 1_555 1_555
H5 C7 1_555 1_555
C8 C7 1_555 1_555
H6 C8 1_555 1_555
C9 C6 1_555 1_555
H7 C9 1_555 1_555
C10 C3 1_555 1_555
H8 C10 1_555 1_555
C11 C10 1_555 1_555
H9 C11 1_555 1_555
C12 C4 1_555 1_555
H10 C12 1_555 1_555
C13 C2 1_555 1_555
H11 C13 1_555 1_555
H12 C13 1_555 1_555
C14 C1 1_555 1_555
H13 C14 1_555 1_555
H14 C14 1_555 1_555
C15 C16 1_555 1_555
C16 C18 1_555 1_555
C17 C15 1_555 1_555
H15 C17 1_555 1_555
C18 O1 1_555 1_555
O1 C17 1_555 1_555
O2 C18 1_555 1_555
N1 C13 1_555 1_555
O3 C17 1_555 1_555
C19 O3 1_555 1_555
H16 C19 1_555 1_555
H17 C19 1_555 1_555
H18 C19 1_555 1_555
C8 C9 1_555 1_555
C11 C12 1_555 1_555
C14 N1 1_555 1_555
C15 N1 1_555 1_555

#END
