
#######################################################################
#
#                 Cambridge Crystallographic Data Centre
#                                CCDC 
#
#######################################################################
#
# If this CIF has been generated from an entry in the Cambridge 
# Structural Database, then it will include bibliographic, chemical, 
# crystal, experimental, refinement or atomic coordinate data resulting 
# from the CCDC's data processing and validation procedures.
#
#######################################################################

data_IKAGUW
_chemical_formula_moiety         'C24 H26 O1'
_chemical_name_systematic        
1,3,6-Trimethyl-7,8-diphenylbicyclo(4.2.1)non-3-en-9-one
_symmetry_cell_setting           monoclinic
_symmetry_space_group_name_H-M   'P 21/c'
_symmetry_Int_Tables_number      14
_space_group_name_Hall           '-P 2ybc'
loop_
_symmetry_equiv_pos_site_id
_symmetry_equiv_pos_as_xyz
1 x,y,z
2 x,1/2-y,1/2+z
3 -x,-y,-z
4 -x,1/2+y,1/2-z
_cell_length_a                   11.7960(4)
_cell_length_b                   10.0080(4)
_cell_length_c                   16.2016(4)
_cell_angle_alpha                90
_cell_angle_beta                 100.637(2)
_cell_angle_gamma                90
_cell_volume                     1879.8
_exptl_crystal_colour            colorless
_exptl_crystal_description       prism
_chemical_melting_point          122-124deg.C
_cell_formula_units_Z            4
loop_
_atom_site_label
_atom_site_type_symbol
_atom_site_fract_x
_atom_site_fract_y
_atom_site_fract_z
O1 O 1.05566(13) 0.2864(2) 0.24439(10)
C1 C 0.90760(16) 0.2317(2) 0.12447(12)
C2 C 0.8571(2) 0.3649(2) 0.08547(16)
C3 C 0.8017(2) 0.4694(2) 0.1331(2)
C4 C 0.7948(3) 0.4761(3) 0.2161(3)
C5 C 0.8310(3) 0.3832(3) 0.2883(2)
C6 C 0.86203(18) 0.2428(2) 0.26709(13)
C7 C 0.75973(15) 0.1758(2) 0.20576(11)
C8 C 0.81643(15) 0.1237(2) 0.13418(11)
C9 C 0.95723(18) 0.2569(2) 0.21539(13)
C10 C 0.9973(2) 0.1823(3) 0.07510(16)
C11 C 0.7553(4) 0.5832(4) 0.0765(4)
C12 C 0.9069(2) 0.1591(4) 0.34644(15)
C13 C 0.69070(14) 0.07672(19) 0.24642(10)
C14 C 0.70012(17) -0.0610(2) 0.23838(13)
C15 C 0.6345(2) -0.1477(2) 0.27761(14)
C16 C 0.5599(2) -0.0984(3) 0.32624(15)
C17 C 0.5492(2) 0.0374(3) 0.33486(15)
C18 C 0.61311(18) 0.1247(2) 0.29498(13)
C19 C 0.73622(15) 0.08194(19) 0.05469(11)
C20 C 0.63978(17) 0.1549(2) 0.01859(12)
C21 C 0.56964(19) 0.1111(3) -0.05565(13)
C22 C 0.5956(2) -0.0043(3) -0.09389(14)
C23 C 0.6900(2) -0.0771(3) -0.05923(15)
C24 C 0.76019(19) -0.0352(2) 0.01435(13)
H1 H 0.798(2) 0.345(2) 0.0306(16)
H2 H 0.921(2) 0.416(3) 0.0713(14)
H3 H 0.758(2) 0.559(3) 0.2298(18)
H4 H 0.763(3) 0.373(4) 0.329(2)
H5 H 0.905(3) 0.422(3) 0.331(2)
H6 H 0.7084(16) 0.2482(19) 0.1821(11)
H7 H 0.8628(16) 0.044(2) 0.1556(11)
H8 H 0.962(2) 0.174(3) 0.0128(18)
H9 H 1.027(2) 0.094(3) 0.0942(15)
H10 H 1.062(2) 0.251(3) 0.0807(15)
H11 H 0.695(4) 0.545(4) 0.030(3)
H12 H 0.814(4) 0.612(4) 0.038(2)
H13 H 0.728(4) 0.665(5) 0.108(3)
H14 H 0.919(4) 0.048(5) 0.324(3)
H15 H 0.851(3) 0.168(3) 0.383(2)
H16 H 0.980(3) 0.209(3) 0.3743(19)
H17 H 0.7553(18) -0.100(2) 0.2021(13)
H18 H 0.647(2) -0.250(3) 0.2725(16)
H19 H 0.510(2) -0.161(3) 0.3532(16)
H20 H 0.499(2) 0.074(3) 0.3695(17)
H21 H 0.6049(18) 0.220(2) 0.2968(13)
H22 H 0.622(2) 0.240(3) 0.0451(14)
H23 H 0.503(2) 0.165(3) -0.0766(16)
H24 H 0.545(2) -0.039(3) -0.1435(17)
H25 H 0.706(2) -0.166(3) -0.0839(18)
H26 H 0.829(2) -0.088(2) 0.0399(14)
loop_
_geom_bond_atom_site_label_1
_geom_bond_atom_site_label_2
_geom_bond_site_symmetry_1
_geom_bond_site_symmetry_2
O1 C9 1_555 1_555
C1 C2 1_555 1_555
C2 C3 1_555 1_555
C3 C4 1_555 1_555
C4 C5 1_555 1_555
C5 C6 1_555 1_555
C6 C7 1_555 1_555
C7 C8 1_555 1_555
C8 C1 1_555 1_555
C9 C1 1_555 1_555
C10 C1 1_555 1_555
C11 C3 1_555 1_555
C12 C6 1_555 1_555
C13 C7 1_555 1_555
C14 C13 1_555 1_555
C15 C14 1_555 1_555
C16 C15 1_555 1_555
C17 C16 1_555 1_555
C18 C13 1_555 1_555
C19 C8 1_555 1_555
C20 C19 1_555 1_555
C21 C20 1_555 1_555
C22 C21 1_555 1_555
C23 C22 1_555 1_555
C24 C19 1_555 1_555
H1 C2 1_555 1_555
H2 C2 1_555 1_555
H3 C4 1_555 1_555
H4 C5 1_555 1_555
H5 C5 1_555 1_555
H6 C7 1_555 1_555
H7 C8 1_555 1_555
H8 C10 1_555 1_555
H9 C10 1_555 1_555
H10 C10 1_555 1_555
H11 C11 1_555 1_555
H12 C11 1_555 1_555
H13 C11 1_555 1_555
H14 C12 1_555 1_555
H15 C12 1_555 1_555
H16 C12 1_555 1_555
H17 C14 1_555 1_555
H18 C15 1_555 1_555
H19 C16 1_555 1_555
H20 C17 1_555 1_555
H21 C18 1_555 1_555
H22 C20 1_555 1_555
H23 C21 1_555 1_555
H24 C22 1_555 1_555
H25 C23 1_555 1_555
H26 C24 1_555 1_555
C6 C9 1_555 1_555
C17 C18 1_555 1_555
C23 C24 1_555 1_555

#END
