
#######################################################################
#
#                 Cambridge Crystallographic Data Centre
#                                CCDC 
#
#######################################################################
#
# If this CIF has been generated from an entry in the Cambridge 
# Structural Database, then it will include bibliographic, chemical, 
# crystal, experimental, refinement or atomic coordinate data resulting 
# from the CCDC's data processing and validation procedures.
#
#######################################################################

data_IKAGAD
_chemical_formula_moiety         'C15 H14 N2 O2'
_chemical_name_systematic        
(E)-1-(2-Hydroxy-5-[(4-methylphenyl)diazenyl]phenyl)ethanone
_symmetry_cell_setting           triclinic
_symmetry_space_group_name_H-M   'P -1'
_symmetry_Int_Tables_number      2
_space_group_name_Hall           '-P 1'
loop_
_symmetry_equiv_pos_site_id
_symmetry_equiv_pos_as_xyz
1 x,y,z
2 -x,-y,-z
_cell_length_a                   7.0919(7)
_cell_length_b                   7.0842(7)
_cell_length_c                   13.4094(13)
_cell_angle_alpha                92.722(8)
_cell_angle_beta                 93.045(8)
_cell_angle_gamma                101.926(9)
_cell_volume                     657.042
_exptl_crystal_colour            brown
_exptl_crystal_description       prism
_cell_formula_units_Z            2
loop_
_atom_site_label
_atom_site_type_symbol
_atom_site_fract_x
_atom_site_fract_y
_atom_site_fract_z
C1 C 0.5890(6) 0.1644(5) 0.6539(3)
H1 H 0.5339 0.1331 0.5892
C2 C 0.4713(5) 0.1621(5) 0.7323(3)
H2 H 0.3380 0.1268 0.7201
C3 C 0.5494(5) 0.2116(5) 0.8289(2)
C4 C 0.7472(5) 0.2595(5) 0.8461(3)
H3 H 0.8021 0.2911 0.9108
C5 C 0.8635(5) 0.2602(5) 0.7668(3)
H4 H 0.9969 0.2939 0.7788
C6 C 0.7860(5) 0.2119(5) 0.6695(3)
C7 C 0.3481(5) 0.2497(5) 1.0644(3)
C8 C 0.1491(5) 0.2170(5) 1.0434(3)
H5 H 0.0991 0.1991 0.9773
C9 C 0.0274(5) 0.2111(5) 1.1187(3)
H6 H -0.1053 0.1879 1.1040
C10 C 0.3008(5) 0.2802(4) 1.2409(2)
C11 C 0.4198(5) 0.2828(4) 1.1621(3)
H7 H 0.5529 0.3079 1.1759
C12 C 0.3760(5) 0.3186(5) 1.3452(3)
C13 C 0.5883(5) 0.3741(5) 1.3698(3)
H8 H 0.6130 0.3940 1.4410
H9 H 0.6403 0.4913 1.3387
H10 H 0.6484 0.2728 1.3456
C14 C 0.9185(6) 0.2152(5) 0.5837(3)
H11 H 1.0252 0.1579 0.6031
H12 H 0.9660 0.3464 0.5676
H13 H 0.8477 0.1434 0.5262
C15 C 0.1004(5) 0.2396(5) 1.2172(3)
N1 N 0.4117(4) 0.2099(4) 0.9032(2)
N2 N 0.4863(4) 0.2508(4) 0.9904(2)
O1 O -0.0261(3) 0.2310(3) 1.2899(2)
H14 H 0.0334 0.2494 1.3448
O2 O 0.2651(4) 0.3054(4) 1.41403(18)
loop_
_geom_bond_atom_site_label_1
_geom_bond_atom_site_label_2
_geom_bond_site_symmetry_1
_geom_bond_site_symmetry_2
C1 H1 1_555 1_555
C2 C1 1_555 1_555
H2 C2 1_555 1_555
C3 C2 1_555 1_555
C4 C3 1_555 1_555
H3 C4 1_555 1_555
C5 C4 1_555 1_555
H4 C5 1_555 1_555
C6 C1 1_555 1_555
C7 C8 1_555 1_555
C8 H5 1_555 1_555
C9 C8 1_555 1_555
H6 C9 1_555 1_555
C10 C11 1_555 1_555
C11 C7 1_555 1_555
H7 C11 1_555 1_555
C12 C10 1_555 1_555
C13 C12 1_555 1_555
H8 C13 1_555 1_555
H9 C13 1_555 1_555
H10 C13 1_555 1_555
C14 C6 1_555 1_555
H11 C14 1_555 1_555
H12 C14 1_555 1_555
H13 C14 1_555 1_555
C15 C9 1_555 1_555
N1 C3 1_555 1_555
N2 C7 1_555 1_555
O1 C15 1_555 1_555
H14 O1 1_555 1_555
O2 C12 1_555 1_555
C5 C6 1_555 1_555
C10 C15 1_555 1_555
N1 N2 1_555 1_555

#END
