
#######################################################################
#
#                 Cambridge Crystallographic Data Centre
#                                CCDC 
#
#######################################################################
#
# If this CIF has been generated from an entry in the Cambridge 
# Structural Database, then it will include bibliographic, chemical, 
# crystal, experimental, refinement or atomic coordinate data resulting 
# from the CCDC's data processing and validation procedures.
#
#######################################################################

data_IKAJAG
_chemical_formula_moiety         'C12 H9 N4 O1 1+,C7 H5 O2 1-'
_chemical_name_systematic        
'4-[5-(Pyridin-4-yl)-1,3,4-oxadiazol-2-yl]pyridinium benzoate'
_symmetry_cell_setting           monoclinic
_symmetry_space_group_name_H-M   'P 21/c'
_symmetry_Int_Tables_number      14
_space_group_name_Hall           '-P 2ybc'
loop_
_symmetry_equiv_pos_site_id
_symmetry_equiv_pos_as_xyz
1 x,y,z
2 -x,1/2+y,1/2-z
3 -x,-y,-z
4 x,1/2-y,1/2+z
_cell_length_a                   20.459(4)
_cell_length_b                   7.1958(14)
_cell_length_c                   11.249(2)
_cell_angle_alpha                90
_cell_angle_beta                 90.53(3)
_cell_angle_gamma                90
_cell_volume                     1655.99
_exptl_crystal_colour            colorless
_exptl_crystal_description       prism
_cell_formula_units_Z            4
loop_
_atom_site_label
_atom_site_type_symbol
_atom_site_fract_x
_atom_site_fract_y
_atom_site_fract_z
C1 C 0.11341(11) 0.8827(3) 0.1577(2)
C2 C 0.18546(10) 0.8838(3) 0.13768(18)
C3 C 0.22890(10) 0.9438(3) 0.22500(19)
H1 H 0.2133 0.9853 0.2977
C4 C 0.29500(11) 0.9420(3) 0.2041(2)
H2 H 0.3240 0.9831 0.2626
C5 C 0.31834(12) 0.8796(3) 0.0974(2)
H3 H 0.3631 0.8780 0.0839
C6 C 0.27599(13) 0.8197(3) 0.0105(2)
H4 H 0.2921 0.7771 -0.0615
C7 C 0.20926(12) 0.8224(3) 0.02954(19)
H5 H 0.1805 0.7831 -0.0299
O1 O 0.07395(8) 0.8483(3) 0.08005(16)
O2 O 0.09672(7) 0.9211(2) 0.26772(15)
C8 C 0.04872(11) 0.3443(3) 0.0797(2)
H6 H 0.0171 0.3137 0.0231
C9 C 0.11320(10) 0.3396(3) 0.0482(2)
H7 H 0.1251 0.3092 -0.0290
C10 C 0.16028(10) 0.3805(3) 0.13262(18)
C11 C 0.14062(10) 0.4269(3) 0.2463(2)
H8 H 0.1712 0.4538 0.3054
C12 C 0.07469(11) 0.4324(3) 0.2698(2)
H9 H 0.0612 0.4662 0.3455
C13 C 0.22928(10) 0.3753(3) 0.10114(18)
C14 C 0.33195(10) 0.3951(3) 0.12671(18)
C15 C 0.50844(12) 0.4366(4) 0.2044(3)
H10 H 0.5481 0.4410 0.1649
C16 C 0.45215(11) 0.4228(4) 0.1364(2)
H11 H 0.4541 0.4184 0.0539
C17 C 0.39284(10) 0.4158(3) 0.19378(19)
C18 C 0.39322(11) 0.4232(3) 0.3154(2)
H12 H 0.3542 0.4195 0.3572
C19 C 0.45201(13) 0.4362(4) 0.3748(2)
H13 H 0.4513 0.4400 0.4575
N1 N 0.02979(9) 0.3912(3) 0.1885(2)
H14 H -0.0111 0.3947 0.2058
N2 N 0.25515(9) 0.3426(3) -0.00105(16)
N3 N 0.32318(9) 0.3568(3) 0.01599(16)
N4 N 0.50991(10) 0.4439(3) 0.3221(2)
O3 O 0.27482(6) 0.40949(19) 0.18688(12)
loop_
_geom_bond_atom_site_label_1
_geom_bond_atom_site_label_2
_geom_bond_site_symmetry_1
_geom_bond_site_symmetry_2
C1 C2 1_555 1_555
C2 C3 1_555 1_555
C3 H1 1_555 1_555
C4 C3 1_555 1_555
H2 C4 1_555 1_555
C5 C4 1_555 1_555
H3 C5 1_555 1_555
C6 C5 1_555 1_555
H4 C6 1_555 1_555
C7 C2 1_555 1_555
H5 C7 1_555 1_555
C8 H6 1_555 1_555
C9 C8 1_555 1_555
H7 C9 1_555 1_555
C10 C9 1_555 1_555
C11 C10 1_555 1_555
H8 C11 1_555 1_555
C12 C11 1_555 1_555
H9 C12 1_555 1_555
C13 C10 1_555 1_555
C14 C17 1_555 1_555
C15 H10 1_555 1_555
C16 C15 1_555 1_555
H11 C16 1_555 1_555
C17 C16 1_555 1_555
C18 C17 1_555 1_555
H12 C18 1_555 1_555
C19 C18 1_555 1_555
H13 C19 1_555 1_555
N1 C8 1_555 1_555
H14 N1 1_555 1_555
N2 C13 1_555 1_555
N3 C14 1_555 1_555
N4 C15 1_555 1_555
O1 C1 1_555 1_555
O2 C1 1_555 1_555
O3 C13 1_555 1_555
C6 C7 1_555 1_555
C12 N1 1_555 1_555
C14 O3 1_555 1_555
C19 N4 1_555 1_555
N2 N3 1_555 1_555

#END
