
#######################################################################
#
#                 Cambridge Crystallographic Data Centre
#                                CCDC 
#
#######################################################################
#
# If this CIF has been generated from an entry in the Cambridge 
# Structural Database, then it will include bibliographic, chemical, 
# crystal, experimental, refinement or atomic coordinate data resulting 
# from the CCDC's data processing and validation procedures.
#
#######################################################################

data_IKAJIO
_chemical_name_common            1-Benzylideneamino-3-(4-methylphenyl)thiourea
_chemical_formula_moiety         'C15 H15 N3 S1'
_chemical_name_systematic        
2-Benzylidene-N-(4-methylphenyl)hydrazinecarbothioamide
_symmetry_cell_setting           monoclinic
_symmetry_space_group_name_H-M   'P 21/c'
_symmetry_Int_Tables_number      14
_space_group_name_Hall           '-P 2ybc'
loop_
_symmetry_equiv_pos_site_id
_symmetry_equiv_pos_as_xyz
1 x,y,z
2 -x,1/2+y,1/2-z
3 -x,-y,-z
4 x,1/2-y,1/2+z
_cell_length_a                   10.2359(3)
_cell_length_b                   16.0648(3)
_cell_length_c                   9.9703(3)
_cell_angle_alpha                90
_cell_angle_beta                 117.154(4)
_cell_angle_gamma                90
_cell_volume                     1458.79
_exptl_crystal_colour            colorless
_exptl_crystal_description       prismatic
_cell_formula_units_Z            4
loop_
_atom_site_label
_atom_site_type_symbol
_atom_site_fract_x
_atom_site_fract_y
_atom_site_fract_z
S1 S 0.13263(6) 0.10810(3) 0.02008(5)
N1 N 0.15900(15) -0.00305(8) 0.37897(15)
N2 N 0.12114(16) 0.01805(8) 0.23296(16)
N3 N 0.28187(16) 0.12678(9) 0.31818(17)
C1 C 0.2093(2) -0.05346(12) 0.6752(2)
H1 H 0.2567 -0.0052 0.6694
C2 C 0.2298(3) -0.08202(15) 0.8131(2)
H2 H 0.2905 -0.0528 0.9000
C3 C 0.1610(3) -0.15388(14) 0.8239(2)
H3 H 0.1763 -0.1736 0.9177
C4 C 0.0699(3) -0.19596(13) 0.6949(2)
H4 H 0.0226 -0.2441 0.7014
C5 C 0.0481(2) -0.16751(11) 0.5560(2)
H5 H -0.0140 -0.1964 0.4693
C6 C 0.11855(18) -0.09582(10) 0.5445(2)
C7 C 0.09253(18) -0.06621(10) 0.39603(19)
H6 H 0.0252 -0.0943 0.3110
C8 C 0.18293(17) 0.08400(9) 0.20078(19)
C9 C 0.35959(17) 0.19777(10) 0.30466(18)
C10 C 0.4599(2) 0.18975(13) 0.2504(3)
H7 H 0.4801 0.1375 0.2241
C11 C 0.5311(3) 0.25904(16) 0.2346(3)
H8 H 0.5983 0.2529 0.1965
C12 C 0.5053(2) 0.33670(13) 0.2737(2)
C13 C 0.4092(2) 0.34307(11) 0.3338(3)
H9 H 0.3933 0.3948 0.3656
C14 C 0.3353(2) 0.27444(11) 0.3483(2)
H10 H 0.2692 0.2804 0.3877
C15 C 0.5825(3) 0.41238(18) 0.2529(3)
H11 H 0.6778 0.3966 0.2653
H12 H 0.5928 0.4538 0.3265
H13 H 0.5257 0.4347 0.1536
H14 H 0.054(2) -0.0105(12) 0.158(2)
H15 H 0.294(2) 0.1122(12) 0.410(3)
loop_
_geom_bond_atom_site_label_1
_geom_bond_atom_site_label_2
_geom_bond_site_symmetry_1
_geom_bond_site_symmetry_2
S1 C8 1_555 1_555
N1 N2 1_555 1_555
N2 C8 1_555 1_555
N3 C8 1_555 1_555
C1 H1 1_555 1_555
C2 C1 1_555 1_555
H2 C2 1_555 1_555
C3 C2 1_555 1_555
H3 C3 1_555 1_555
C4 C3 1_555 1_555
H4 C4 1_555 1_555
C5 C4 1_555 1_555
H5 C5 1_555 1_555
C6 C1 1_555 1_555
C7 N1 1_555 1_555
H6 C7 1_555 1_555
C9 N3 1_555 1_555
C10 C9 1_555 1_555
H7 C10 1_555 1_555
C11 C10 1_555 1_555
H8 C11 1_555 1_555
C12 C11 1_555 1_555
C13 C12 1_555 1_555
H9 C13 1_555 1_555
C14 C9 1_555 1_555
H10 C14 1_555 1_555
C15 C12 1_555 1_555
H11 C15 1_555 1_555
H12 C15 1_555 1_555
H13 C15 1_555 1_555
H14 N2 1_555 1_555
H15 N3 1_555 1_555
C5 C6 1_555 1_555
C6 C7 1_555 1_555
C13 C14 1_555 1_555

#END
