
#######################################################################
#
#                 Cambridge Crystallographic Data Centre
#                                CCDC 
#
#######################################################################
#
# If this CIF has been generated from an entry in the Cambridge 
# Structural Database, then it will include bibliographic, chemical, 
# crystal, experimental, refinement or atomic coordinate data resulting 
# from the CCDC's data processing and validation procedures.
#
#######################################################################

data_IKANIS
_chemical_name_common            
1,5-Dimethyl-4-([(3-methyl-5-oxo-1-phenyl-4,5-dihydro-1H-pyrazol-4-ylidene)(thiophen-2-yl)methyl]amino)-2-phenyl-1H-pyrazol-3(2H)-one
_chemical_formula_moiety         'C26 H23 N5 O2 S1'
_chemical_name_systematic        
1,5-Dimethyl-4-(((3-methyl-5-oxo-1-phenyl-1,5-dihydro-4H-pyrazol-4-ylidene)(2-thienyl)methyl)amino)-2-phenyl-1,2-dihydro-3H-pyrazol-3-one
_symmetry_cell_setting           monoclinic
_symmetry_space_group_name_H-M   'C 2/c'
_symmetry_Int_Tables_number      15
_space_group_name_Hall           '-C 2yn'
loop_
_symmetry_equiv_pos_site_id
_symmetry_equiv_pos_as_xyz
1 x,y,z
2 -x,y,1/2-z
3 1/2+x,1/2+y,z
4 1/2-x,1/2+y,1/2-z
5 -x,-y,-z
6 x,-y,1/2+z
7 1/2-x,1/2-y,-z
8 1/2+x,1/2-y,1/2+z
_cell_length_a                   27.098(3)
_cell_length_b                   7.9045(8)
_cell_length_c                   22.308(2)
_cell_angle_alpha                90
_cell_angle_beta                 99.011(8)
_cell_angle_gamma                90
_cell_volume                     4719.32
_exptl_crystal_colour            colorless
_exptl_crystal_description       prism
_cell_formula_units_Z            8
_exptl_crystal_recrystallization_method ethanol
loop_
_atom_site_label
_atom_site_type_symbol
_atom_site_fract_x
_atom_site_fract_y
_atom_site_fract_z
O1 O 0.25433(4) 1.02510(13) 0.08661(6)
O2 O 0.08792(4) 0.72515(16) -0.01432(5)
N1 N 0.30507(4) 0.78662(15) 0.09168(6)
N2 N 0.29718(5) 0.61104(15) 0.09307(6)
N3 N 0.17055(5) 0.75910(17) 0.06681(6)
H1 H 0.1558 0.7573 0.0298
N4 N 0.01707(5) 0.77052(16) 0.03130(6)
N5 N 0.00673(5) 0.81903(18) 0.08851(7)
C1 C 0.25902(6) 0.87031(19) 0.08467(7)
C2 C 0.22290(5) 0.73667(18) 0.07704(7)
C3 C 0.24689(6) 0.58580(18) 0.07935(7)
C4 C 0.22546(7) 0.4148(2) 0.06696(9)
H2 H 0.1900 0.4190 0.0665
H3 H 0.2402 0.3383 0.0981
H4 H 0.2323 0.3762 0.0283
C5 C 0.35010(6) 0.8549(2) 0.12487(7)
C6 C 0.36892(6) 1.0029(2) 0.10435(8)
H5 H 0.3523 1.0563 0.0698
C7 C 0.41249(7) 1.0712(3) 0.13541(11)
H6 H 0.4250 1.1720 0.1223
C8 C 0.43721(8) 0.9902(3) 0.18544(12)
H7 H 0.4667 1.0357 0.2060
C9 C 0.41887(8) 0.8425(3) 0.20554(10)
H8 H 0.4363 0.7876 0.2392
C10 C 0.37464(7) 0.7747(3) 0.17596(9)
H9 H 0.3616 0.6765 0.1903
C11 C 0.33387(7) 0.4992(2) 0.07232(9)
H10 H 0.3337 0.3918 0.0924
H11 H 0.3665 0.5489 0.0816
H12 H 0.3256 0.4832 0.0293
C12 C 0.14164(6) 0.78314(18) 0.11001(7)
S1 S 0.16071(3) 0.63681(8) 0.22363(3)
C13 C 0.16636(6) 0.79831(19) 0.17339(7)
C14 C 0.19533(11) 0.9188(3) 0.20297(12)
H13 H 0.2031 1.0169 0.1834
C15 C 0.21288(18) 0.8917(6) 0.26270(14)
H14 H 0.2330 0.9675 0.2874
C16 C 0.19767(14) 0.7430(5) 0.28143(13)
H15 H 0.2060 0.7018 0.3208
C17 C 0.06744(5) 0.75638(19) 0.03103(7)
C18 C 0.09039(6) 0.78841(18) 0.09237(7)
C19 C 0.04936(6) 0.8289(2) 0.12425(8)
C20 C 0.05032(7) 0.8851(3) 0.18855(9)
H16 H 0.0181 0.9285 0.1934
H17 H 0.0750 0.9721 0.1982
H18 H 0.0585 0.7907 0.2153
C21 C -0.02273(6) 0.75001(19) -0.01723(7)
C22 C -0.01595(7) 0.6573(2) -0.06807(8)
H19 H 0.0149 0.6082 -0.0706
C23 C -0.05544(7) 0.6384(2) -0.11491(9)
H20 H -0.0511 0.5759 -0.1490
C24 C -0.10124(7) 0.7112(2) -0.11174(9)
H21 H -0.1276 0.6986 -0.1436
C25 C -0.10744(7) 0.8021(2) -0.06118(9)
H22 H -0.1383 0.8510 -0.0588
C26 C -0.06879(6) 0.8225(2) -0.01381(9)
H23 H -0.0735 0.8844 0.0203
C27? C 0.16636(6) 0.79831(19) 0.17339(7)
C28? C 0.1637(5) 0.6894(16) 0.2181(5)
C29? C 0.1879(8) 0.738(2) 0.2721(6)
C30? C 0.2097(7) 0.889(2) 0.2692(6)
H24? H 0.1463 0.5877 0.2123
H25? H 0.1895 0.6745 0.3075
H26? H 0.2278 0.9432 0.3025
S2? S 0.20046(19) 0.9710(5) 0.1965(2)
loop_
_geom_bond_atom_site_label_1
_geom_bond_atom_site_label_2
_geom_bond_site_symmetry_1
_geom_bond_site_symmetry_2
O1 C1 1_555 1_555
O2 C17 1_555 1_555
N1 N2 1_555 1_555
N2 C3 1_555 1_555
N3 H1 1_555 1_555
N4 N5 1_555 1_555
N5 C19 1_555 1_555
C1 N1 1_555 1_555
C2 N3 1_555 1_555
C3 C2 1_555 1_555
C4 C3 1_555 1_555
H2 C4 1_555 1_555
H3 C4 1_555 1_555
H4 C4 1_555 1_555
C5 N1 1_555 1_555
C6 C5 1_555 1_555
H5 C6 1_555 1_555
C7 C6 1_555 1_555
H6 C7 1_555 1_555
C8 C7 1_555 1_555
H7 C8 1_555 1_555
C9 C8 1_555 1_555
H8 C9 1_555 1_555
C10 C5 1_555 1_555
H9 C10 1_555 1_555
C11 N2 1_555 1_555
H10 C11 1_555 1_555
H11 C11 1_555 1_555
H12 C11 1_555 1_555
C12 N3 1_555 1_555
S1 C13 1_555 1_555
C13 C12 1_555 1_555
C14 C13 1_555 1_555
H13 C14 1_555 1_555
C15 C14 1_555 1_555
H14 C15 1_555 1_555
C16 S1 1_555 1_555
H15 C16 1_555 1_555
C17 N4 1_555 1_555
C18 C12 1_555 1_555
C19 C18 1_555 1_555
C20 C19 1_555 1_555
H16 C20 1_555 1_555
H17 C20 1_555 1_555
H18 C20 1_555 1_555
C21 N4 1_555 1_555
C22 C21 1_555 1_555
H19 C22 1_555 1_555
C23 C22 1_555 1_555
H20 C23 1_555 1_555
C24 C23 1_555 1_555
H21 C24 1_555 1_555
C25 C24 1_555 1_555
H22 C25 1_555 1_555
C26 C21 1_555 1_555
H23 C26 1_555 1_555
C1 C2 1_555 1_555
C9 C10 1_555 1_555
C15 C16 1_555 1_555
C17 C18 1_555 1_555
C25 C26 1_555 1_555

#END
