
#######################################################################
#
#                 Cambridge Crystallographic Data Centre
#                                CCDC 
#
#######################################################################
#
# If this CIF has been generated from an entry in the Cambridge 
# Structural Database, then it will include bibliographic, chemical, 
# crystal, experimental, refinement or atomic coordinate data resulting 
# from the CCDC's data processing and validation procedures.
#
#######################################################################

data_IKAQIW
_chemical_formula_moiety         'C41 H26 N4 O14,C3 H6 O1'
_chemical_name_systematic        
'ethyl methyl 3,7-bis(4-nitrobenzoyl)-4,8-bis(4-nitrophenyl)naphthalene-2,6-dicarboxylate acetone solvate'
_symmetry_cell_setting           monoclinic
_symmetry_space_group_name_H-M   'P 21/c'
_symmetry_Int_Tables_number      14
_space_group_name_Hall           '-P 2ybc'
loop_
_symmetry_equiv_pos_site_id
_symmetry_equiv_pos_as_xyz
1 x,y,z
2 -x,1/2+y,1/2-z
3 -x,-y,-z
4 x,1/2-y,1/2+z
_cell_length_a                   11.3311(8)
_cell_length_b                   19.2315(11)
_cell_length_c                   10.6080(7)
_cell_angle_alpha                90
_cell_angle_beta                 92.046(6)
_cell_angle_gamma                90
_cell_volume                     2310.16
_exptl_crystal_colour            yellow
_exptl_crystal_description       block
_cell_formula_units_Z            2
loop_
_atom_site_label
_atom_site_type_symbol
_atom_site_fract_x
_atom_site_fract_y
_atom_site_fract_z
O8 O 1.304(3) 0.1805(17) 0.0639(12)
C22 C 1.4241(8) 0.0829(6) 0.0274(13)
H15 H 1.3807 0.0402 0.0192
H16 H 1.5008 0.0738 0.0652
H17 H 1.4326 0.1032 -0.0545
C23 C 1.3605(8) 0.1311(6) 0.1069(10)
C24 C 1.3936(11) 0.1321(11) 0.2391(12)
H18 H 1.4214 0.1777 0.2621
H19 H 1.4552 0.0988 0.2558
H20 H 1.3263 0.1206 0.2875
O1 O 0.6085(2) 0.01048(14) 0.3009(3)
O2 O 0.6265(2) -0.07629(13) 0.4384(3)
O3 O 0.7012(2) 0.16018(12) 0.3646(2)
O4 O 0.7637(5) 0.1646(2) -0.2820(3)
O5 O 0.8196(6) 0.0613(3) -0.2729(4)
O6 O 1.2084(4) 0.36118(19) 0.2642(4)
O7 O 1.0896(5) 0.40005(19) 0.3949(7)
N1 N 0.7890(4) 0.1140(3) -0.2239(4)
N2 N 1.1301(4) 0.35331(19) 0.3370(5)
C1 C 1.1406(3) 0.04915(14) 0.5186(3)
H1 H 1.1709 0.0925 0.4979
C2 C 0.7589(3) 0.11610(14) 0.3118(3)
C3 C 1.0223(2) 0.03328(14) 0.4847(2)
C4 C 0.9468(2) 0.08219(13) 0.4202(2)
C5 C 0.8327(2) 0.06410(14) 0.3856(3)
C6 C 0.7882(3) -0.00231(14) 0.4187(3)
C7 C 0.6659(3) -0.02140(16) 0.3788(3)
C8 C 0.9933(3) 0.15330(14) 0.3941(3)
C9 C 1.0663(3) 0.16625(17) 0.2958(3)
H2 H 1.0855 0.1303 0.2416
C10 C 1.1113(3) 0.2316(2) 0.2767(4)
H3 H 1.1606 0.2401 0.2102
C11 C 1.0825(3) 0.28370(17) 0.3567(4)
C12 C 1.0108(3) 0.27263(17) 0.4557(4)
H4 H 0.9927 0.3089 0.5098
C13 C 0.9659(3) 0.20698(16) 0.4744(3)
H5 H 0.9169 0.1988 0.5413
C14 C 0.7665(3) 0.11465(14) 0.1714(3)
C15 C 0.8164(3) 0.05874(17) 0.1107(3)
H6 H 0.8460 0.0214 0.1578
C16 C 0.8226(4) 0.0578(2) -0.0181(3)
H7 H 0.8559 0.0202 -0.0591
C17 C 0.7784(4) 0.1137(2) -0.0852(3)
C18 C 0.7294(3) 0.17064(19) -0.0289(3)
H8 H 0.7015 0.2082 -0.0765
C19 C 0.7232(3) 0.17012(16) 0.0999(3)
H9 H 0.6893 0.2077 0.1403
C20 C 0.5187(12) -0.1739(8) 0.3995(18)
H10 H 0.5433 -0.1875 0.3175
H11 H 0.4441 -0.1951 0.4158
H12 H 0.5766 -0.1887 0.4622
C21 C 0.507(4) -0.101(2) 0.404(5)
H13 H 0.4516 -0.0878 0.4671
H14 H 0.4805 -0.0831 0.3229
O1B O 1.3915(2) -0.01048(14) 0.6991(3)
O2B O 1.3735(2) 0.07629(13) 0.5616(3)
O3B O 1.2988(2) -0.16018(12) 0.6354(2)
O4B O 1.2363(5) -0.1646(2) 1.2820(3)
O5B O 1.1804(6) -0.0613(3) 1.2729(4)
O6B O 0.7916(4) -0.36118(19) 0.7358(4)
O7B O 0.9104(5) -0.40005(19) 0.6051(7)
N1B N 1.2110(4) -0.1140(3) 1.2239(4)
N2B N 0.8699(4) -0.35331(19) 0.6630(5)
C1B C 0.8594(3) -0.04915(14) 0.4814(3)
H1B H 0.8291 -0.0925 0.5021
C2B C 1.2411(3) -0.11610(14) 0.6882(3)
C3B C 0.9777(2) -0.03328(14) 0.5153(2)
C4B C 1.0532(2) -0.08219(13) 0.5798(2)
C5B C 1.1673(2) -0.06410(14) 0.6144(3)
C6B C 1.2118(3) 0.00231(14) 0.5813(3)
C7B C 1.3341(3) 0.02140(16) 0.6212(3)
C8B C 1.0067(3) -0.15330(14) 0.6059(3)
C9B C 0.9337(3) -0.16625(17) 0.7042(3)
H2B H 0.9145 -0.1303 0.7584
C10B C 0.8887(3) -0.2316(2) 0.7233(4)
H3B H 0.8394 -0.2401 0.7898
C11B C 0.9175(3) -0.28370(17) 0.6433(4)
C12B C 0.9892(3) -0.27263(17) 0.5443(4)
H4B H 1.0073 -0.3089 0.4902
C13B C 1.0341(3) -0.20698(16) 0.5256(3)
H5B H 1.0831 -0.1988 0.4587
C14B C 1.2335(3) -0.11465(14) 0.8286(3)
C15B C 1.1836(3) -0.05874(17) 0.8893(3)
H6B H 1.1540 -0.0214 0.8422
C16B C 1.1774(4) -0.0578(2) 1.0181(3)
H7B H 1.1441 -0.0202 1.0591
C17B C 1.2216(4) -0.1137(2) 1.0852(3)
C18B C 1.2706(3) -0.17064(19) 1.0289(3)
H8B H 1.2985 -0.2082 1.0765
C19B C 1.2768(3) -0.17012(16) 0.9001(3)
H9B H 1.3107 -0.2077 0.8597
C20B C 1.4813(12) 0.1739(8) 0.6005(18)
H10B H 1.4567 0.1875 0.6825
H11B H 1.5559 0.1951 0.5842
H12B H 1.4234 0.1887 0.5378
C21B C 1.493(4) 0.101(2) 0.596(5)
H13B H 1.5484 0.0878 0.5329
H14B H 1.5195 0.0831 0.6771
O9? O 1.2464(18) 0.132(2) 0.0714(15)
C25? C 0.515(3) -0.1026(19) 0.400(5)
H21? H 0.4601 -0.0647 0.3878
H22? H 0.4865 -0.1333 0.4634
H23? H 0.5210 -0.1275 0.3220
loop_
_geom_bond_atom_site_label_1
_geom_bond_atom_site_label_2
_geom_bond_site_symmetry_1
_geom_bond_site_symmetry_2
O1 C7 1_555 1_555
O2 C7 1_555 1_555
O3 C2 1_555 1_555
O4 N1 1_555 1_555
O5 N1 1_555 1_555
O6 N2 1_555 1_555
O7 N2 1_555 1_555
N1 C17 1_555 1_555
N2 C11 1_555 1_555
C1 H1 1_555 1_555
C2 C5 1_555 1_555
C3 C1 1_555 1_555
C4 C3 1_555 1_555
C5 C4 1_555 1_555
C6 C5 1_555 1_555
C7 C6 1_555 1_555
C8 C4 1_555 1_555
C9 C8 1_555 1_555
H2 C9 1_555 1_555
C10 C9 1_555 1_555
H3 C10 1_555 1_555
C11 C10 1_555 1_555
C12 C11 1_555 1_555
H4 C12 1_555 1_555
C13 C8 1_555 1_555
H5 C13 1_555 1_555
C14 C2 1_555 1_555
C15 C14 1_555 1_555
H6 C15 1_555 1_555
C16 C15 1_555 1_555
H7 C16 1_555 1_555
C17 C16 1_555 1_555
C18 C17 1_555 1_555
H8 C18 1_555 1_555
C19 C14 1_555 1_555
H9 C19 1_555 1_555
C20 H10 1_555 1_555
H11 C20 1_555 1_555
H12 C20 1_555 1_555
C21 O2 1_555 1_555
H13 C21 1_555 1_555
H14 C21 1_555 1_555
O8 C23 1_555 1_555
C22 H15 1_555 1_555
H16 C22 1_555 1_555
H17 C22 1_555 1_555
C23 C22 1_555 1_555
C24 C23 1_555 1_555
H18 C24 1_555 1_555
H19 C24 1_555 1_555
H20 C24 1_555 1_555
O1B C7B 1_555 1_555
O2B C7B 1_555 1_555
O3B C2B 1_555 1_555
O4B N1B 1_555 1_555
O5B N1B 1_555 1_555
O6B N2B 1_555 1_555
O7B N2B 1_555 1_555
N1B C17B 1_555 1_555
N2B C11B 1_555 1_555
C1B C6 1_555 1_555
H1B C1B 1_555 1_555
C2B C5B 1_555 1_555
C3B C3 1_555 1_555
C4B C3B 1_555 1_555
C5B C4B 1_555 1_555
C6B C1 1_555 1_555
C7B C6B 1_555 1_555
C8B C4B 1_555 1_555
C9B C8B 1_555 1_555
H2B C9B 1_555 1_555
C10B C9B 1_555 1_555
H3B C10B 1_555 1_555
C11B C10B 1_555 1_555
C12B C11B 1_555 1_555
H4B C12B 1_555 1_555
C13B C8B 1_555 1_555
H5B C13B 1_555 1_555
C14B C2B 1_555 1_555
C15B C14B 1_555 1_555
H6B C15B 1_555 1_555
C16B C15B 1_555 1_555
H7B C16B 1_555 1_555
C17B C16B 1_555 1_555
C18B C17B 1_555 1_555
H8B C18B 1_555 1_555
C19B C14B 1_555 1_555
H9B C19B 1_555 1_555
C20B H10B 1_555 1_555
H11B C20B 1_555 1_555
H12B C20B 1_555 1_555
C21B O2B 1_555 1_555
H13B C21B 1_555 1_555
H14B C21B 1_555 1_555
C12 C13 1_555 1_555
C18 C19 1_555 1_555
C20 C21 1_555 1_555
C1B C3B 1_555 1_555
C5B C6B 1_555 1_555
C12B C13B 1_555 1_555
C18B C19B 1_555 1_555
C20B C21B 1_555 1_555

#END
