
#######################################################################
#
#                 Cambridge Crystallographic Data Centre
#                                CCDC 
#
#######################################################################
#
# If this CIF has been generated from an entry in the Cambridge 
# Structural Database, then it will include bibliographic, chemical, 
# crystal, experimental, refinement or atomic coordinate data resulting 
# from the CCDC's data processing and validation procedures.
#
#######################################################################

data_IKAQOB
_chemical_formula_moiety         'C20 H20 Cl2 N4 O2'
_chemical_name_systematic        
2-Chloro-N-((4-chlorophenyl)(phenyl)methyl)-N-(2-(4-nitro-1H-imidazol-1-yl)ethyl)ethanamine
_symmetry_cell_setting           monoclinic
_symmetry_space_group_name_H-M   'P 21/n'
_symmetry_Int_Tables_number      14
_space_group_name_Hall           '-P 2yn'
loop_
_symmetry_equiv_pos_site_id
_symmetry_equiv_pos_as_xyz
1 x,y,z
2 1/2-x,1/2+y,1/2-z
3 -x,-y,-z
4 1/2+x,1/2-y,1/2+z
_cell_length_a                   8.8206(16)
_cell_length_b                   25.005(5)
_cell_length_c                   9.0450(17)
_cell_angle_alpha                90
_cell_angle_beta                 100.802(3)
_cell_angle_gamma                90
_cell_volume                     1959.61
_exptl_crystal_colour            colorless
_exptl_crystal_description       block
_cell_formula_units_Z            4
loop_
_atom_site_label
_atom_site_type_symbol
_atom_site_fract_x
_atom_site_fract_y
_atom_site_fract_z
C1 C 0.3270(3) 0.05952(13) 0.0927(3)
C2 C 0.4173(4) 0.01834(13) 0.1569(4)
H1 H 0.3972 -0.0165 0.1231
C3 C 0.5385(4) 0.02915(12) 0.2723(3)
H2 H 0.5994 0.0009 0.3161
C4 C 0.5734(3) 0.07989(11) 0.3257(3)
C5 C 0.4771(3) 0.12070(12) 0.2588(3)
H3 H 0.4957 0.1556 0.2933
C6 C 0.3544(3) 0.11081(12) 0.1423(3)
H4 H 0.2917 0.1386 0.0985
C7 C 0.7143(3) 0.08861(11) 0.4496(3)
H5 H 0.7628 0.0533 0.4654
C8 C 0.6827(3) 0.10452(10) 0.6032(3)
C9 C 0.8038(3) 0.10174(11) 0.7245(3)
H6 H 0.8999 0.0902 0.7091
C10 C 0.7859(4) 0.11550(12) 0.8666(3)
H7 H 0.8695 0.1137 0.9463
C11 C 0.6439(4) 0.13203(13) 0.8913(4)
H8 H 0.6313 0.1417 0.9875
C12 C 0.5226(4) 0.13412(14) 0.7746(4)
H9 H 0.4263 0.1448 0.7912
C13 C 0.5415(3) 0.12044(12) 0.6309(3)
H10 H 0.4573 0.1220 0.5518
C14 C 0.9049(3) 0.10277(13) 0.2887(3)
H11 H 0.9671 0.1308 0.2559
H12 H 0.8231 0.0941 0.2046
C15 C 1.0037(4) 0.05433(13) 0.3272(4)
H13 H 1.0457 0.0436 0.2400
H14 H 0.9407 0.0252 0.3526
C16 C 0.7954(3) 0.18032(11) 0.3913(3)
H15 H 0.7132 0.1884 0.4456
H16 H 0.7574 0.1876 0.2855
C17 C 0.9333(4) 0.21643(13) 0.4485(3)
H17 H 1.0205 0.2049 0.4051
H18 H 0.9081 0.2528 0.4158
C18 C 1.1030(3) 0.19238(12) 0.6938(4)
H19 H 1.1775 0.1748 0.6516
C19 C 0.9802(3) 0.22472(11) 0.8478(3)
C20 C 0.8953(3) 0.23602(11) 0.7104(4)
H20 H 0.8017 0.2542 0.6891
Cl1 Cl 0.17478(11) 0.04618(4) -0.05458(11)
Cl2 Cl 1.15787(10) 0.06636(4) 0.48090(12)
N1 N 0.8356(2) 0.12352(9) 0.4102(2)
N2 N 0.9760(3) 0.21524(9) 0.6115(3)
N3 N 1.1106(3) 0.19743(10) 0.8388(3)
N4 N 0.9403(4) 0.23746(13) 0.9901(4)
O1 O 1.0250(3) 0.22177(12) 1.1050(3)
O2 O 0.8228(4) 0.26290(15) 0.9864(4)
loop_
_geom_bond_atom_site_label_1
_geom_bond_atom_site_label_2
_geom_bond_site_symmetry_1
_geom_bond_site_symmetry_2
C1 C2 1_555 1_555
C2 H1 1_555 1_555
C3 C2 1_555 1_555
H2 C3 1_555 1_555
C4 C3 1_555 1_555
C5 C4 1_555 1_555
H3 C5 1_555 1_555
C6 C1 1_555 1_555
H4 C6 1_555 1_555
C7 C4 1_555 1_555
H5 C7 1_555 1_555
C8 C7 1_555 1_555
C9 C8 1_555 1_555
H6 C9 1_555 1_555
C10 C9 1_555 1_555
H7 C10 1_555 1_555
C11 C10 1_555 1_555
H8 C11 1_555 1_555
C12 C11 1_555 1_555
H9 C12 1_555 1_555
C13 C8 1_555 1_555
H10 C13 1_555 1_555
C14 H11 1_555 1_555
H12 C14 1_555 1_555
C15 C14 1_555 1_555
H13 C15 1_555 1_555
H14 C15 1_555 1_555
C16 H15 1_555 1_555
H16 C16 1_555 1_555
C17 C16 1_555 1_555
H17 C17 1_555 1_555
H18 C17 1_555 1_555
C18 H19 1_555 1_555
C19 C20 1_555 1_555
C20 H20 1_555 1_555
Cl1 C1 1_555 1_555
Cl2 C15 1_555 1_555
N1 C7 1_555 1_555
N2 C17 1_555 1_555
N3 C18 1_555 1_555
N4 C19 1_555 1_555
O1 N4 1_555 1_555
O2 N4 1_555 1_555
C5 C6 1_555 1_555
C12 C13 1_555 1_555
C14 N1 1_555 1_555
C16 N1 1_555 1_555
C18 N2 1_555 1_555
C19 N3 1_555 1_555
C20 N2 1_555 1_555

#END
