
#######################################################################
#
#                 Cambridge Crystallographic Data Centre
#                                CCDC 
#
#######################################################################
#
# If this CIF has been generated from an entry in the Cambridge 
# Structural Database, then it will include bibliographic, chemical, 
# crystal, experimental, refinement or atomic coordinate data resulting 
# from the CCDC's data processing and validation procedures.
#
#######################################################################

data_IKAVOG
_chemical_formula_moiety         'C14 H12 O3'
_chemical_name_systematic        '2-(Biphenyl-4-yloxy)acetic acid'
_symmetry_cell_setting           monoclinic
_symmetry_space_group_name_H-M   'P 21/n'
_symmetry_Int_Tables_number      14
_space_group_name_Hall           '-P 2yn'
loop_
_symmetry_equiv_pos_site_id
_symmetry_equiv_pos_as_xyz
1 x,y,z
2 1/2-x,1/2+y,1/2-z
3 -x,-y,-z
4 1/2+x,1/2-y,1/2+z
_cell_length_a                   5.91180(10)
_cell_length_b                   28.5786(3)
_cell_length_c                   6.90170(10)
_cell_angle_alpha                90
_cell_angle_beta                 109.631(2)
_cell_angle_gamma                90
_cell_volume                     1098.27
_exptl_crystal_colour            colorless
_exptl_crystal_description       plate
_cell_formula_units_Z            4
loop_
_atom_site_label
_atom_site_type_symbol
_atom_site_fract_x
_atom_site_fract_y
_atom_site_fract_z
O1 O 0.54080(16) 0.06250(3) 0.05489(14)
O2 O 0.39398(17) 0.02975(3) -0.32997(15)
O3 O 0.76170(18) 0.00213(4) -0.29161(15)
H1 H 0.6955 -0.0065 -0.4105
C1 C 0.4590(2) 0.11281(5) 0.2933(2)
H2 H 0.2999 0.1139 0.2069
C2 C 0.6254(2) 0.08550(4) 0.24154(19)
C3 C 0.5320(2) 0.13840(4) 0.4743(2)
H3 H 0.4203 0.1565 0.5085
C4 C 0.7706(2) 0.13749(4) 0.6066(2)
C5 C 0.9320(2) 0.10893(5) 0.5536(2)
H4 H 1.0905 0.1073 0.6411
C6 C 0.7191(2) 0.04138(5) -0.0118(2)
H5 H 0.7931 0.0156 0.0790
H6 H 0.8430 0.0641 -0.0063
C7 C 0.8549(2) 0.16649(4) 0.7961(2)
C8 C 0.6092(2) 0.02357(4) -0.2277(2)
C9 C 0.8611(2) 0.08296(5) 0.3732(2)
H7 H 0.9711 0.0640 0.3408
C10 C 1.1469(3) 0.22017(5) 1.0158(2)
H8 H 1.2858 0.2379 1.0417
C11 C 1.0651(2) 0.19293(5) 0.8395(2)
H9 H 1.1512 0.1923 0.7489
C12 C 0.8131(3) 0.19494(5) 1.1128(2)
H10 H 0.7290 0.1954 1.2051
C13 C 0.7289(2) 0.16808(5) 0.9348(2)
H11 H 0.5876 0.1510 0.9079
C14 C 1.0218(3) 0.22096(5) 1.1534(2)
H12 H 1.0777 0.2389 1.2725
loop_
_geom_bond_atom_site_label_1
_geom_bond_atom_site_label_2
_geom_bond_site_symmetry_1
_geom_bond_site_symmetry_2
O1 C2 1_555 1_555
O2 C8 1_555 1_555
O3 H1 1_555 1_555
C1 H2 1_555 1_555
C2 C1 1_555 1_555
C3 C1 1_555 1_555
H3 C3 1_555 1_555
C4 C3 1_555 1_555
C5 C4 1_555 1_555
H4 C5 1_555 1_555
C6 O1 1_555 1_555
H5 C6 1_555 1_555
H6 C6 1_555 1_555
C7 C4 1_555 1_555
C8 O3 1_555 1_555
C9 C2 1_555 1_555
H7 C9 1_555 1_555
C10 H8 1_555 1_555
C11 C7 1_555 1_555
H9 C11 1_555 1_555
C12 H10 1_555 1_555
C13 C7 1_555 1_555
H11 C13 1_555 1_555
C14 C10 1_555 1_555
H12 C14 1_555 1_555
C5 C9 1_555 1_555
C6 C8 1_555 1_555
C10 C11 1_555 1_555
C12 C13 1_555 1_555
C12 C14 1_555 1_555

#END
