
#######################################################################
#
#                 Cambridge Crystallographic Data Centre
#                                CCDC 
#
#######################################################################
#
# If this CIF has been generated from an entry in the Cambridge 
# Structural Database, then it will include bibliographic, chemical, 
# crystal, experimental, refinement or atomic coordinate data resulting 
# from the CCDC's data processing and validation procedures.
#
#######################################################################

data_IKAVEW
_chemical_formula_moiety         'C13 H11 Br1 N2 O1'
_chemical_name_systematic        
4-Bromo-2-(((pyridin-3-ylmethyl)imino)methyl)phenol
_symmetry_cell_setting           monoclinic
_symmetry_space_group_name_H-M   'P 21/c'
_symmetry_Int_Tables_number      14
_space_group_name_Hall           '-P 2ybc'
loop_
_symmetry_equiv_pos_site_id
_symmetry_equiv_pos_as_xyz
1 x,y,z
2 -x,1/2+y,1/2-z
3 -x,-y,-z
4 x,1/2-y,1/2+z
_cell_length_a                   14.0947(19)
_cell_length_b                   6.0994(8)
_cell_length_c                   14.0373(19)
_cell_angle_alpha                90
_cell_angle_beta                 103.704(3)
_cell_angle_gamma                90
_cell_volume                     1172.42
_exptl_crystal_colour            yellow
_exptl_crystal_description       block
_cell_formula_units_Z            4
loop_
_atom_site_label
_atom_site_type_symbol
_atom_site_fract_x
_atom_site_fract_y
_atom_site_fract_z
Br1 Br 0.76468(3) 0.70338(8) 0.44621(4)
O1 O 0.3873(2) 0.1972(5) 0.3696(2)
H1 H 0.332(4) 0.283(9) 0.338(4)
N1 N 0.3004(2) 0.5487(6) 0.2840(2)
N2 N 0.0887(2) 0.9342(6) 0.4172(3)
C1 C 0.4726(3) 0.5284(6) 0.3484(3)
C2 C 0.4714(3) 0.3123(6) 0.3834(3)
C3 C 0.5585(3) 0.2149(7) 0.4341(3)
H2 H 0.5578 0.0687 0.4574
C4 C 0.6450(3) 0.3279(7) 0.4507(3)
H3 H 0.7038 0.2606 0.4855
C5 C 0.6462(3) 0.5405(7) 0.4164(3)
C6 C 0.5623(3) 0.6397(7) 0.3654(3)
H4 H 0.5649 0.7845 0.3413
C7 C 0.3835(3) 0.6408(7) 0.2984(3)
H5 H 0.3876 0.7867 0.2761
C8 C 0.2146(3) 0.6772(8) 0.2349(3)
H6 H 0.1805 0.6019 0.1740
H7 H 0.2358 0.8231 0.2169
C9 C 0.1454(2) 0.7050(7) 0.3019(3)
C10 C 0.1465(3) 0.8949(7) 0.3555(3)
H8 H 0.1915 1.0061 0.3483
C11 C 0.0261(3) 0.7758(7) 0.4251(3)
H9 H -0.0164 0.7995 0.4675
C12 C 0.0194(3) 0.5796(7) 0.3754(3)
H10 H -0.0261 0.4709 0.3842
C13 C 0.0800(3) 0.5436(7) 0.3127(3)
H11 H 0.0766 0.4098 0.2774
loop_
_geom_bond_atom_site_label_1
_geom_bond_atom_site_label_2
_geom_bond_site_symmetry_1
_geom_bond_site_symmetry_2
Br1 C5 1_555 1_555
O1 H1 1_555 1_555
N1 C7 1_555 1_555
N2 C10 1_555 1_555
C1 C2 1_555 1_555
C2 O1 1_555 1_555
C3 C2 1_555 1_555
H2 C3 1_555 1_555
C4 C3 1_555 1_555
H3 C4 1_555 1_555
C5 C4 1_555 1_555
C6 C1 1_555 1_555
H4 C6 1_555 1_555
C7 C1 1_555 1_555
H5 C7 1_555 1_555
C8 N1 1_555 1_555
H6 C8 1_555 1_555
H7 C8 1_555 1_555
C9 C8 1_555 1_555
C10 C9 1_555 1_555
H8 C10 1_555 1_555
C11 N2 1_555 1_555
H9 C11 1_555 1_555
C12 C11 1_555 1_555
H10 C12 1_555 1_555
C13 C9 1_555 1_555
H11 C13 1_555 1_555
C5 C6 1_555 1_555
C12 C13 1_555 1_555

#END
