
#######################################################################
#
#                 Cambridge Crystallographic Data Centre
#                                CCDC 
#
#######################################################################
#
# If this CIF has been generated from an entry in the Cambridge 
# Structural Database, then it will include bibliographic, chemical, 
# crystal, experimental, refinement or atomic coordinate data resulting 
# from the CCDC's data processing and validation procedures.
#
#######################################################################

data_IKAYIE
_chemical_formula_moiety         'C22 H19 F1 N4 O3'
_chemical_name_systematic        
2-(5-fluoro-1-methyl-2-(morpholin-4-ylcarbonyl)-1H-indol-3-yl)quinazolin-4(3H)-one
_chemical_properties_biological  'cytotoxic activity'
_symmetry_cell_setting           monoclinic
_symmetry_space_group_name_H-M   'P 21/c'
_symmetry_Int_Tables_number      14
_space_group_name_Hall           '-P 2ybc'
loop_
_symmetry_equiv_pos_site_id
_symmetry_equiv_pos_as_xyz
1 x,y,z
2 -x,1/2+y,1/2-z
3 -x,-y,-z
4 x,1/2-y,1/2+z
_cell_length_a                   11.9278(11)
_cell_length_b                   16.3251(15)
_cell_length_c                   9.9384(9)
_cell_angle_alpha                90
_cell_angle_beta                 95.183(5)
_cell_angle_gamma                90
_cell_volume                     1927.32
_exptl_crystal_colour            colorless
_chemical_melting_point          '423-424 K'
_cell_formula_units_Z            4
_exptl_crystal_recrystallization_method Dioxane
loop_
_atom_site_label
_atom_site_type_symbol
_atom_site_fract_x
_atom_site_fract_y
_atom_site_fract_z
O1 O 0.19167(9) 0.41307(7) 0.67918(12)
F1 F -0.40192(9) 0.39195(8) 0.26210(16)
N1 N -0.02898(11) 0.30974(8) 0.58514(12)
N2 N 0.24450(10) 0.30199(8) 0.56597(13)
N3 N 0.01106(11) 0.50646(8) 0.25341(12)
N4 N 0.17710(10) 0.44114(8) 0.34256(13)
O2 O 0.00395(12) 0.60153(9) 0.08698(14)
O3 O 0.40656(13) 0.18292(10) 0.52166(16)
C1 C 0.06840(12) 0.45081(8) 0.33714(14)
C2 C 0.00375(11) 0.39970(8) 0.42170(13)
C3 C -0.11547(11) 0.38173(9) 0.41168(14)
C4 C 0.05188(11) 0.35383(8) 0.52836(14)
C5 C 0.16966(12) 0.35874(9) 0.59574(14)
C6 C -0.13186(12) 0.32654(9) 0.51608(16)
C7 C -0.20859(13) 0.40369(10) 0.32245(18)
C8 C 0.23568(13) 0.49103(9) 0.26048(16)
C9 C 0.06011(14) 0.55445(10) 0.16091(16)
C10 C 0.18234(14) 0.54451(10) 0.16617(17)
C11 C -0.01045(19) 0.24765(13) 0.6899(2)
C12 C 0.22280(17) 0.24172(11) 0.45828(18)
C13 C 0.36323(14) 0.31510(12) 0.6112(2)
C14 C -0.23749(14) 0.29510(11) 0.5387(2)
C15 C -0.31012(14) 0.37137(12) 0.3472(2)
C16 C 0.35381(15) 0.48573(12) 0.2692(2)
C17 C -0.32753(15) 0.31853(13) 0.4516(2)
C18 C 0.42181(19) 0.23411(15) 0.6355(2)
C19 C 0.2892(2) 0.16530(14) 0.4936(2)
C20 C 0.2455(2) 0.59021(14) 0.0815(2)
C21 C 0.41354(19) 0.53146(14) 0.1848(3)
C22 C 0.3600(2) 0.58346(16) 0.0912(3)
H1 H -0.060(2) 0.5211(14) 0.272(2)
H2 H -0.2040(15) 0.4420(12) 0.247(2)
H3 H -0.2477(19) 0.2573(13) 0.615(2)
H4 H -0.4036(18) 0.2990(13) 0.457(2)
H5 H -0.034(2) 0.1903(17) 0.656(3)
H6 H -0.047(2) 0.2607(16) 0.761(3)
H7 H 0.068(3) 0.2419(15) 0.719(3)
H8 H 0.3905(17) 0.4512(13) 0.334(2)
H9 H 0.208(2) 0.6252(15) 0.022(2)
H10 H 0.401(2) 0.6117(16) 0.042(3)
H11 H 0.494(2) 0.5261(16) 0.193(3)
H12 H 0.2412(15) 0.2664(11) 0.376(2)
H13 H 0.3920(17) 0.3449(13) 0.535(2)
H14 H 0.3902(17) 0.2044(13) 0.718(2)
H15 H 0.1383(19) 0.2291(12) 0.4440(19)
H16 H 0.3662(17) 0.3540(14) 0.690(2)
H17 H 0.503(2) 0.2444(14) 0.655(2)
H18 H 0.259(2) 0.1370(15) 0.580(2)
H19 H 0.2828(19) 0.1232(14) 0.416(2)
loop_
_geom_bond_atom_site_label_1
_geom_bond_atom_site_label_2
_geom_bond_site_symmetry_1
_geom_bond_site_symmetry_2
O1 C5 1_555 1_555
F1 C15 1_555 1_555
N1 C4 1_555 1_555
N2 C5 1_555 1_555
N3 C1 1_555 1_555
N4 C1 1_555 1_555
O2 C9 1_555 1_555
O3 C18 1_555 1_555
C1 C2 1_555 1_555
C2 C3 1_555 1_555
C3 C6 1_555 1_555
C4 C2 1_555 1_555
C5 C4 1_555 1_555
C6 N1 1_555 1_555
C7 C3 1_555 1_555
C8 N4 1_555 1_555
C9 N3 1_555 1_555
C10 C8 1_555 1_555
C11 N1 1_555 1_555
C12 N2 1_555 1_555
C13 N2 1_555 1_555
C14 C6 1_555 1_555
C15 C7 1_555 1_555
C16 C8 1_555 1_555
C17 C14 1_555 1_555
C18 C13 1_555 1_555
C19 O3 1_555 1_555
C20 C10 1_555 1_555
C21 C16 1_555 1_555
C22 C20 1_555 1_555
H1 N3 1_555 1_555
H2 C7 1_555 1_555
H3 C14 1_555 1_555
H4 C17 1_555 1_555
H5 C11 1_555 1_555
H6 C11 1_555 1_555
H7 C11 1_555 1_555
H8 C16 1_555 1_555
H9 C20 1_555 1_555
H10 C22 1_555 1_555
H11 C21 1_555 1_555
H12 C12 1_555 1_555
H13 C13 1_555 1_555
H14 C18 1_555 1_555
H15 C12 1_555 1_555
H16 C13 1_555 1_555
H17 C18 1_555 1_555
H18 C19 1_555 1_555
H19 C19 1_555 1_555
C9 C10 1_555 1_555
C12 C19 1_555 1_555
C15 C17 1_555 1_555
C21 C22 1_555 1_555

#END
