
#######################################################################
#
#                 Cambridge Crystallographic Data Centre
#                                CCDC 
#
#######################################################################
#
# If this CIF has been generated from an entry in the Cambridge 
# Structural Database, then it will include bibliographic, chemical, 
# crystal, experimental, refinement or atomic coordinate data resulting 
# from the CCDC's data processing and validation procedures.
#
#######################################################################

data_IKEBIK
_chemical_name_common            
'2-(1-Phenylethylidene)hydrazinecarboxamide methanol solvate'
_chemical_formula_moiety         'C9 H11 N3 O1,C1 H4 O1'
_chemical_name_systematic        
'[(E)-(1-Phenylethylidene)amino]urea methanol solvate'
_symmetry_cell_setting           monoclinic
_symmetry_space_group_name_H-M   'P 21/n'
_symmetry_Int_Tables_number      14
_space_group_name_Hall           '-P 2yn'
loop_
_symmetry_equiv_pos_site_id
_symmetry_equiv_pos_as_xyz
1 x,y,z
2 1/2-x,1/2+y,1/2-z
3 -x,-y,-z
4 1/2+x,1/2-y,1/2+z
_cell_length_a                   6.629(3)
_cell_length_b                   8.371(4)
_cell_length_c                   20.329(9)
_cell_angle_alpha                90
_cell_angle_beta                 99.181(5)
_cell_angle_gamma                90
_cell_volume                     1113.63
_exptl_crystal_colour            colorless
_exptl_crystal_description       block
_cell_formula_units_Z            4
loop_
_atom_site_label
_atom_site_type_symbol
_atom_site_fract_x
_atom_site_fract_y
_atom_site_fract_z
C1 C 0.0487(3) 0.6825(3) 0.73837(11)
H1 H 0.0233 0.7479 0.7010
C2 C -0.0980(3) 0.5772(3) 0.75182(11)
H2 H -0.2233 0.5717 0.7238
C3 C -0.0590(3) 0.4793(3) 0.80720(10)
H3 H -0.1582 0.4076 0.8163
C4 C 0.1262(3) 0.4875(2) 0.84901(9)
H4 H 0.1504 0.4216 0.8863
C5 C 0.2773(2) 0.5931(2) 0.83614(8)
C6 C 0.2342(3) 0.6916(2) 0.78033(10)
H5 H 0.3319 0.7645 0.7712
C7 C 0.6059(3) 0.7470(2) 0.88452(10)
H6 H 0.6457 0.7752 0.9305
H7 H 0.5268 0.8322 0.8617
H8 H 0.7257 0.7294 0.8645
C8 C 0.4800(2) 0.5973(2) 0.87964(8)
C9 C 0.7858(2) 0.3143(2) 0.97715(8)
N1 N 0.5332(2) 0.46585(17) 0.91022(7)
N2 N 0.7209(2) 0.45770(17) 0.95027(7)
H12 H 0.7957 0.5416 0.9582
O1 O 0.96431(17) 0.30074(14) 1.00688(6)
N3 N 0.6552(2) 0.19317(18) 0.96944(9)
H13 H 0.6927 0.1007 0.9853
H14 H 0.5330 0.2071 0.9486
C10 C 0.0959(4) 0.0359(3) 0.89062(11)
H9 H -0.0277 0.0967 0.8798
H10 H 0.0627 -0.0746 0.8957
H11 H 0.1762 0.0466 0.8555
O2 O 0.20857(19) 0.09309(17) 0.95077(7)
H15 H 0.1370 0.1538 0.9688
loop_
_geom_bond_atom_site_label_1
_geom_bond_atom_site_label_2
_geom_bond_site_symmetry_1
_geom_bond_site_symmetry_2
C1 H1 1_555 1_555
C2 C1 1_555 1_555
H2 C2 1_555 1_555
C3 C2 1_555 1_555
H3 C3 1_555 1_555
C4 C3 1_555 1_555
H4 C4 1_555 1_555
C5 C4 1_555 1_555
C6 C1 1_555 1_555
H5 C6 1_555 1_555
C7 H6 1_555 1_555
H7 C7 1_555 1_555
H8 C7 1_555 1_555
C8 C5 1_555 1_555
C9 N2 1_555 1_555
C10 H9 1_555 1_555
H10 C10 1_555 1_555
H11 C10 1_555 1_555
N1 C8 1_555 1_555
N2 N1 1_555 1_555
H12 N2 1_555 1_555
O1 C9 1_555 1_555
N3 C9 1_555 1_555
H13 N3 1_555 1_555
H14 N3 1_555 1_555
O2 C10 1_555 1_555
H15 O2 1_555 1_555
C5 C6 1_555 1_555
C7 C8 1_555 1_555

#END
