
#######################################################################
#
#                 Cambridge Crystallographic Data Centre
#                                CCDC 
#
#######################################################################
#
# If this CIF has been generated from an entry in the Cambridge 
# Structural Database, then it will include bibliographic, chemical, 
# crystal, experimental, refinement or atomic coordinate data resulting 
# from the CCDC's data processing and validation procedures.
#
#######################################################################

data_IKEBUW
_chemical_formula_moiety         'C16 H14 F6 N2 O2'
_chemical_name_systematic        
5,5'-bis((2,2,2-trifluoroethoxy)methyl)-2,2'-bipyridine
_symmetry_cell_setting           triclinic
_symmetry_space_group_name_H-M   'P -1'
_symmetry_Int_Tables_number      2
_space_group_name_Hall           '-P 1'
loop_
_symmetry_equiv_pos_site_id
_symmetry_equiv_pos_as_xyz
1 x,y,z
2 -x,-y,-z
_cell_length_a                   4.6573(2)
_cell_length_b                   5.6842(3)
_cell_length_c                   15.7273(8)
_cell_angle_alpha                94.298(3)
_cell_angle_beta                 98.473(3)
_cell_angle_gamma                105.689(4)
_cell_volume                     393.571
_exptl_crystal_colour            colorless
_exptl_crystal_description       prism
_cell_formula_units_Z            1
loop_
_atom_site_label
_atom_site_type_symbol
_atom_site_fract_x
_atom_site_fract_y
_atom_site_fract_z
F1 F 1.8989(2) 1.22574(16) 0.98212(6)
F2 F 1.8270(2) 1.35589(16) 0.85765(6)
F3 F 1.4537(2) 1.23169(17) 0.92410(6)
O1 O 1.4170(2) 0.88799(19) 0.79273(7)
N1 N 0.6609(3) 0.3432(2) 0.58189(8)
C1 C 1.1096(3) 0.6201(3) 0.67039(9)
C2 C 0.8935(3) 0.3918(3) 0.64727(10)
C3 C 0.6289(3) 0.5286(2) 0.53652(8)
C4 C 0.8268(3) 0.7658(3) 0.55708(10)
C5 C 1.0718(3) 0.8098(3) 0.62300(10)
C6 C 1.3693(3) 0.6554(3) 0.74291(10)
C7 C 1.6509(4) 0.9271(3) 0.86434(10)
C8 C 1.7066(3) 1.1854(3) 0.90685(10)
H1 H 0.903(4) 0.259(4) 0.6804(12)
H2 H 0.789(4) 0.887(3) 0.5248(11)
H3 H 1.215(4) 0.970(4) 0.6343(12)
H4 H 1.556(4) 0.658(3) 0.7197(11)
H5 H 1.327(4) 0.527(3) 0.7796(12)
H6 H 1.594(4) 0.813(4) 0.9065(12)
H7 H 1.843(4) 0.916(3) 0.8461(12)
F1A F -0.8989(2) -0.22574(16) 0.01788(6)
F2A F -0.8270(2) -0.35589(16) 0.14235(6)
F3A F -0.4537(2) -0.23169(17) 0.07590(6)
O1A O -0.4170(2) 0.11201(19) 0.20727(7)
N1A N 0.3391(3) 0.6568(2) 0.41811(8)
C1A C -0.1096(3) 0.3799(3) 0.32961(9)
C2A C 0.1065(3) 0.6082(3) 0.35273(10)
C3A C 0.3711(3) 0.4714(2) 0.46348(8)
C4A C 0.1732(3) 0.2342(3) 0.44292(10)
C5A C -0.0718(3) 0.1902(3) 0.37700(10)
C6A C -0.3693(3) 0.3446(3) 0.25709(10)
C7A C -0.6509(4) 0.0729(3) 0.13566(10)
C8A C -0.7066(3) -0.1854(3) 0.09315(10)
H1A H 0.097(4) 0.741(4) 0.3196(12)
H2A H 0.211(4) 0.113(3) 0.4752(11)
H3A H -0.215(4) 0.030(4) 0.3657(12)
H4A H -0.556(4) 0.342(3) 0.2803(11)
H5A H -0.327(4) 0.473(3) 0.2204(12)
H6A H -0.594(4) 0.187(4) 0.0935(12)
H7A H -0.843(4) 0.084(3) 0.1539(12)
loop_
_geom_bond_atom_site_label_1
_geom_bond_atom_site_label_2
_geom_bond_site_symmetry_1
_geom_bond_site_symmetry_2
F1 C8 1_555 1_555
F2 C8 1_555 1_555
F3 C8 1_555 1_555
O1 C6 1_555 1_555
N1 C2 1_555 1_555
C1 C2 1_555 1_555
C2 H1 1_555 1_555
C3 N1 1_555 1_555
C4 C3 1_555 1_555
C5 C1 1_555 1_555
C6 C1 1_555 1_555
C7 O1 1_555 1_555
C8 C7 1_555 1_555
H2 C4 1_555 1_555
H3 C5 1_555 1_555
H4 C6 1_555 1_555
H5 C6 1_555 1_555
H6 C7 1_555 1_555
H7 C7 1_555 1_555
F1A C8A 1_555 1_555
F2A C8A 1_555 1_555
F3A C8A 1_555 1_555
O1A C6A 1_555 1_555
N1A C2A 1_555 1_555
C1A C2A 1_555 1_555
C2A H1A 1_555 1_555
C3A C3 1_555 1_555
C4A C3A 1_555 1_555
C5A C1A 1_555 1_555
C6A C1A 1_555 1_555
C7A O1A 1_555 1_555
C8A C7A 1_555 1_555
H2A C4A 1_555 1_555
H3A C5A 1_555 1_555
H4A C6A 1_555 1_555
H5A C6A 1_555 1_555
H6A C7A 1_555 1_555
H7A C7A 1_555 1_555
C4 C5 1_555 1_555
N1A C3A 1_555 1_555
C4A C5A 1_555 1_555

#END
