
#######################################################################
#
#                 Cambridge Crystallographic Data Centre
#                                CCDC 
#
#######################################################################
#
# If this CIF has been generated from an entry in the Cambridge 
# Structural Database, then it will include bibliographic, chemical, 
# crystal, experimental, refinement or atomic coordinate data resulting 
# from the CCDC's data processing and validation procedures.
#
#######################################################################

data_IKEGEK
_chemical_formula_moiety         'C18 H18'
_chemical_name_systematic        3,4-Diphenylhexa-2,4-diene
_symmetry_cell_setting           triclinic
_symmetry_space_group_name_H-M   'P -1'
_symmetry_Int_Tables_number      2
_space_group_name_Hall           '-P 1'
loop_
_symmetry_equiv_pos_site_id
_symmetry_equiv_pos_as_xyz
1 x,y,z
2 -x,-y,-z
_cell_length_a                   7.0995(9)
_cell_length_b                   15.467(2)
_cell_length_c                   19.529(4)
_cell_angle_alpha                73.402(6)
_cell_angle_beta                 80.258(6)
_cell_angle_gamma                79.595(14)
_cell_volume                     2005.49
_cell_formula_units_Z            6
loop_
_atom_site_label
_atom_site_type_symbol
_atom_site_fract_x
_atom_site_fract_y
_atom_site_fract_z
C1 C 0.866(3) 0.0508(15) -0.0974(12)
H1 H 0.8240 -0.0012 -0.0628
C2 C 1.003(3) 0.0397(16) -0.1505(12)
H2 H 1.0677 -0.0200 -0.1490
C3 C 1.057(3) 0.1112(14) -0.2087(11)
H3 H 1.1422 0.1001 -0.2492
C4 C 0.982(2) 0.1969(13) -0.2049(10)
H4 H 1.0222 0.2479 -0.2414
C5 C 0.846(2) 0.2093(13) -0.1473(10)
H5 H 0.7947 0.2701 -0.1465
C6 C 0.781(2) 0.1402(15) -0.0910(10)
C7 C 0.624(3) 0.1535(13) -0.0283(10)
C8 C 0.687(2) 0.1803(13) 0.0283(11)
C9 C 0.883(2) 0.1937(12) 0.0279(9)
H6 H 0.9749 0.1803 -0.0104
C10 C 0.954(2) 0.2263(12) 0.0815(9)
H7 H 1.0923 0.2296 0.0686
H8 H 0.9313 0.1841 0.1292
H9 H 0.8848 0.2870 0.0823
C11 C 0.451(3) 0.1398(15) -0.0268(13)
H10 H 0.3637 0.1456 0.0148
C12 C 0.372(3) 0.1160(14) -0.0832(10)
H11 H 0.2349 0.1107 -0.0686
H12 H 0.4419 0.0577 -0.0902
H13 H 0.3879 0.1636 -0.1285
C13 C 0.548(2) 0.1937(14) 0.0916(12)
C14 C 0.492(2) 0.1197(13) 0.1457(10)
H14 H 0.5475 0.0596 0.1441
C15 C 0.356(3) 0.1334(15) 0.2011(11)
H15 H 0.3139 0.0827 0.2375
C16 C 0.281(2) 0.2176(15) 0.2046(11)
H16 H 0.1867 0.2258 0.2439
C17 C 0.336(2) 0.2929(13) 0.1533(10)
H17 H 0.2845 0.3525 0.1576
C18 C 0.464(2) 0.2801(13) 0.0962(10)
H18 H 0.4976 0.3314 0.0585
C19 C 0.587(2) 0.7171(14) 0.3546(10)
H19 H 0.6394 0.6557 0.3558
C20 C 0.491(3) 0.7701(16) 0.2987(11)
H20 H 0.4796 0.7433 0.2617
C21 C 0.410(3) 0.8585(16) 0.2921(12)
H21 H 0.3398 0.8925 0.2533
C22 C 0.438(3) 0.8960(15) 0.3476(11)
H22 H 0.3965 0.9589 0.3439
C23 C 0.521(3) 0.8441(13) 0.4051(11)
H23 H 0.5213 0.8693 0.4440
C24 C 0.608(2) 0.7542(14) 0.4100(10)
C25 C 0.720(2) 0.6959(13) 0.4729(9)
C26 C 0.623(3) 0.6311(13) 0.5308(10)
C27 C 0.436(3) 0.6210(13) 0.5284(9)
H24 H 0.3722 0.6632 0.4907
C28 C 0.3239(18) 0.5524(11) 0.5776(9)
H25 H 0.1954 0.5607 0.5626
H26 H 0.3110 0.5592 0.6266
H27 H 0.3903 0.4914 0.5765
C29 C 0.903(2) 0.7110(13) 0.4720(10)
H28 H 0.9635 0.6799 0.5139
C30 C 1.022(2) 0.7709(13) 0.4124(10)
H29 H 1.1493 0.7680 0.4266
H30 H 0.9568 0.8339 0.4030
H31 H 1.0371 0.7499 0.3687
C31 C 0.723(2) 0.5796(13) 0.5924(10)
C32 C 0.796(3) 0.4896(15) 0.5924(11)
H32 H 0.7774 0.4624 0.5566
C33 C 0.896(3) 0.4443(15) 0.6494(11)
H33 H 0.9582 0.3844 0.6495
C34 C 0.917(2) 0.4757(13) 0.7060(9)
H34 H 0.9804 0.4375 0.7453
C35 C 0.841(2) 0.5658(14) 0.7041(11)
H35 H 0.8545 0.5907 0.7419
C36 C 0.749(3) 0.6180(16) 0.6474(12)
H36 H 0.7006 0.6801 0.6448
C37 C -0.076(2) 0.0528(13) 0.3546(10)
H37 H -0.0157 -0.0075 0.3557
C38 C -0.180(2) 0.1007(14) 0.2968(11)
H38 H -0.1986 0.0726 0.2615
C39 C -0.254(3) 0.1919(16) 0.2936(12)
H39 H -0.3183 0.2272 0.2536
C40 C -0.237(2) 0.2324(13) 0.3460(10)
H40 H -0.2919 0.2937 0.3442
C41 C -0.136(3) 0.1790(13) 0.4014(10)
H41 H -0.1187 0.2070 0.4369
C42 C -0.058(2) 0.0886(13) 0.4101(10)
C43 C 0.049(2) 0.0331(13) 0.4706(10)
C44 C 0.231(3) 0.0462(13) 0.4717(11)
H42 H 0.2920 0.0139 0.5132
C45 C 0.344(3) 0.1079(15) 0.4121(12)
H43 H 0.4730 0.1048 0.4247
H44 H 0.2774 0.1706 0.4048
H45 H 0.3543 0.0889 0.3677
C43A C -0.049(2) -0.0331(13) 0.5294(10)
C42A C 0.058(2) -0.0886(13) 0.5899(10)
C37A C 0.076(2) -0.0528(13) 0.6454(10)
H37A H 0.0157 0.0075 0.6443
C38A C 0.180(2) -0.1007(14) 0.7032(11)
H38A H 0.1986 -0.0726 0.7385
C39A C 0.254(3) -0.1919(16) 0.7064(12)
H39A H 0.3183 -0.2272 0.7464
C40A C 0.237(2) -0.2324(13) 0.6540(10)
H40A H 0.2919 -0.2937 0.6558
C41A C 0.136(3) -0.1790(13) 0.5986(10)
H41A H 0.1187 -0.2070 0.5631
C44A C -0.231(3) -0.0462(13) 0.5283(11)
H42A H -0.2920 -0.0139 0.4868
C45A C -0.344(3) -0.1079(15) 0.5879(12)
H43A H -0.4730 -0.1048 0.5753
H44A H -0.2774 -0.1706 0.5952
H45A H -0.3543 -0.0889 0.6323
C46 C 0.026(2) 0.5137(13) 0.0285(10)
C47 C 0.214(2) 0.5275(12) 0.0293(9)
H46 H 0.3023 0.5236 -0.0125
C48 C 0.294(3) 0.5478(13) 0.0883(11)
H47 H 0.4318 0.5531 0.0741
H48 H 0.2784 0.4984 0.1324
H49 H 0.2252 0.6052 0.0971
C49 C -0.116(2) 0.5248(13) 0.0901(10)
C50 C -0.197(2) 0.6102(15) 0.0935(10)
H50 H -0.1644 0.6606 0.0548
C51 C -0.329(3) 0.6263(16) 0.1528(12)
H51 H -0.3721 0.6871 0.1557
C52 C -0.397(2) 0.5547(15) 0.2071(11)
H52 H -0.4933 0.5638 0.2456
C53 C -0.310(3) 0.4658(16) 0.2000(13)
H53 H -0.3503 0.4147 0.2363
C54 C -0.170(3) 0.4488(15) 0.1441(11)
H54 H -0.1150 0.3885 0.1427
C46A C -0.026(2) 0.4863(13) -0.0285(10)
C47A C -0.214(2) 0.4725(12) -0.0293(9)
H46A H -0.3023 0.4764 0.0125
C48A C -0.294(3) 0.4522(13) -0.0883(11)
H47A H -0.4318 0.4469 -0.0741
H48A H -0.2784 0.5016 -0.1324
H49A H -0.2252 0.3948 -0.0971
C49A C 0.116(2) 0.4752(13) -0.0901(10)
C50A C 0.197(2) 0.3898(15) -0.0935(10)
H50A H 0.1644 0.3394 -0.0548
C51A C 0.329(3) 0.3737(16) -0.1528(12)
H51A H 0.3721 0.3129 -0.1557
C52A C 0.397(2) 0.4453(15) -0.2071(11)
H52A H 0.4933 0.4362 -0.2456
C53A C 0.310(3) 0.5342(16) -0.2000(13)
H53A H 0.3503 0.5853 -0.2363
C54A C 0.170(3) 0.5512(15) -0.1441(11)
H54A H 0.1150 0.6115 -0.1427
loop_
_geom_bond_atom_site_label_1
_geom_bond_atom_site_label_2
_geom_bond_site_symmetry_1
_geom_bond_site_symmetry_2
C1 H1 1_555 1_555
C2 C1 1_555 1_555
H2 C2 1_555 1_555
C3 C2 1_555 1_555
H3 C3 1_555 1_555
C4 C3 1_555 1_555
H4 C4 1_555 1_555
C5 C4 1_555 1_555
H5 C5 1_555 1_555
C6 C1 1_555 1_555
C7 C6 1_555 1_555
C8 C7 1_555 1_555
C9 C8 1_555 1_555
H6 C9 1_555 1_555
C10 C9 1_555 1_555
H7 C10 1_555 1_555
H8 C10 1_555 1_555
H9 C10 1_555 1_555
C11 C7 1_555 1_555
H10 C11 1_555 1_555
C12 C11 1_555 1_555
H11 C12 1_555 1_555
H12 C12 1_555 1_555
H13 C12 1_555 1_555
C13 C8 1_555 1_555
C14 C13 1_555 1_555
H14 C14 1_555 1_555
C15 C14 1_555 1_555
H15 C15 1_555 1_555
C16 C15 1_555 1_555
H16 C16 1_555 1_555
C17 C16 1_555 1_555
H17 C17 1_555 1_555
C18 C13 1_555 1_555
H18 C18 1_555 1_555
C19 H19 1_555 1_555
C20 C19 1_555 1_555
H20 C20 1_555 1_555
C21 C20 1_555 1_555
H21 C21 1_555 1_555
C22 C21 1_555 1_555
H22 C22 1_555 1_555
C23 C22 1_555 1_555
H23 C23 1_555 1_555
C24 C19 1_555 1_555
C25 C24 1_555 1_555
C26 C25 1_555 1_555
C27 C26 1_555 1_555
H24 C27 1_555 1_555
C28 C27 1_555 1_555
H25 C28 1_555 1_555
H26 C28 1_555 1_555
H27 C28 1_555 1_555
C29 C25 1_555 1_555
H28 C29 1_555 1_555
C30 C29 1_555 1_555
H29 C30 1_555 1_555
H30 C30 1_555 1_555
H31 C30 1_555 1_555
C31 C26 1_555 1_555
C32 C31 1_555 1_555
H32 C32 1_555 1_555
C33 C32 1_555 1_555
H33 C33 1_555 1_555
C34 C33 1_555 1_555
H34 C34 1_555 1_555
C35 C34 1_555 1_555
H35 C35 1_555 1_555
C36 C31 1_555 1_555
H36 C36 1_555 1_555
C37 H37 1_555 1_555
C38 C37 1_555 1_555
H38 C38 1_555 1_555
C39 C38 1_555 1_555
H39 C39 1_555 1_555
C40 C39 1_555 1_555
H40 C40 1_555 1_555
C41 C40 1_555 1_555
H41 C41 1_555 1_555
C42 C37 1_555 1_555
C43 C42 1_555 1_555
C44 C43 1_555 1_555
H42 C44 1_555 1_555
C45 C44 1_555 1_555
H43 C45 1_555 1_555
H44 C45 1_555 1_555
H45 C45 1_555 1_555
C46 C47 1_555 1_555
C47 H46 1_555 1_555
C48 C47 1_555 1_555
H47 C48 1_555 1_555
H48 C48 1_555 1_555
H49 C48 1_555 1_555
C49 C46 1_555 1_555
C50 C49 1_555 1_555
H50 C50 1_555 1_555
C51 C50 1_555 1_555
H51 C51 1_555 1_555
C52 C51 1_555 1_555
H52 C52 1_555 1_555
C53 C52 1_555 1_555
H53 C53 1_555 1_555
C54 C49 1_555 1_555
H54 C54 1_555 1_555
C43A C43 1_555 1_555
C42A C43A 1_555 1_555
C37A C42A 1_555 1_555
H37A C37A 1_555 1_555
C38A C37A 1_555 1_555
H38A C38A 1_555 1_555
C39A C38A 1_555 1_555
H39A C39A 1_555 1_555
C40A C39A 1_555 1_555
H40A C40A 1_555 1_555
C41A C42A 1_555 1_555
H41A C41A 1_555 1_555
C44A C43A 1_555 1_555
H42A C44A 1_555 1_555
C45A C44A 1_555 1_555
H43A C45A 1_555 1_555
H44A C45A 1_555 1_555
H45A C45A 1_555 1_555
C46A C46 1_555 1_555
C47A C46A 1_555 1_555
H46A C47A 1_555 1_555
C48A C47A 1_555 1_555
H47A C48A 1_555 1_555
H48A C48A 1_555 1_555
H49A C48A 1_555 1_555
C49A C46A 1_555 1_555
C50A C49A 1_555 1_555
H50A C50A 1_555 1_555
C51A C50A 1_555 1_555
H51A C51A 1_555 1_555
C52A C51A 1_555 1_555
H52A C52A 1_555 1_555
C53A C52A 1_555 1_555
H53A C53A 1_555 1_555
C54A C49A 1_555 1_555
H54A C54A 1_555 1_555
C5 C6 1_555 1_555
C17 C18 1_555 1_555
C23 C24 1_555 1_555
C35 C36 1_555 1_555
C41 C42 1_555 1_555
C53 C54 1_555 1_555
C40A C41A 1_555 1_555
C53A C54A 1_555 1_555

#END
