
#######################################################################
#
#                 Cambridge Crystallographic Data Centre
#                                CCDC 
#
#######################################################################
#
# If this CIF has been generated from an entry in the Cambridge 
# Structural Database, then it will include bibliographic, chemical, 
# crystal, experimental, refinement or atomic coordinate data resulting 
# from the CCDC's data processing and validation procedures.
#
#######################################################################

data_IKEJEN
_chemical_formula_moiety         'C28 H25 N1 O2'
_chemical_name_systematic        
4,7-Dimethyl-2,5,6-triphenyl-3a,4,7,7a-tetrahydro-1H-isoindole-1,3(2H)-dione
_symmetry_cell_setting           monoclinic
_symmetry_space_group_name_H-M   'P 21/c'
_symmetry_Int_Tables_number      14
_space_group_name_Hall           '-P 2ybc'
loop_
_symmetry_equiv_pos_site_id
_symmetry_equiv_pos_as_xyz
1 x,y,z
2 x,1/2-y,1/2+z
3 -x,-y,-z
4 -x,1/2+y,1/2-z
_cell_length_a                   9.1566(6)
_cell_length_b                   14.3945(10)
_cell_length_c                   16.8715(15)
_cell_angle_alpha                90
_cell_angle_beta                 104.291(3)
_cell_angle_gamma                90
_cell_volume                     2154.93
_cell_formula_units_Z            4
loop_
_atom_site_label
_atom_site_type_symbol
_atom_site_fract_x
_atom_site_fract_y
_atom_site_fract_z
H1 H 0.809(3) 0.725(2) -0.0332(18)
H2 H 0.733(3) 0.793(2) 0.0720(18)
H3 H 0.468(3) 0.9146(19) 0.0175(16)
H4 H 0.329(4) 0.971(3) -0.109(2)
H5 H 0.069(4) 0.946(2) -0.159(2)
H6 H -0.048(4) 0.848(2) -0.0751(19)
H7 H 0.083(3) 0.795(2) 0.0506(17)
H8 H 0.431(3) 0.8789(19) 0.2364(16)
H9 H 0.312(3) 0.7832(19) 0.3128(16)
H10 H 0.510(3) 0.685(2) 0.3237(19)
H11 H 0.625(3) 0.786(2) 0.2498(17)
H12 H 0.798(3) 0.689(2) 0.2091(18)
H13 H 0.753(3) 0.643(2) 0.285(2)
H14 H 0.674(3) 0.599(2) 0.1948(19)
H15 H 0.232(3) 0.969(2) 0.158(2)
H16 H 0.207(3) 0.938(2) 0.250(2)
H17 H 0.112(3) 0.890(2) 0.1677(18)
H18 H 0.245(3) 0.442(2) 0.2603(17)
H19 H 0.074(3) 0.316(3) 0.201(2)
H20 H -0.144(3) 0.345(2) 0.0874(16)
H21 H -0.175(3) 0.499(2) 0.0342(17)
H22 H -0.013(3) 0.619(2) 0.0843(18)
C1 C 0.4535(4) 0.6472(3) 0.0157(2)
C2 C 0.4954(4) 0.6077(3) -0.0509(2)
C3 C 0.6258(4) 0.6361(3) -0.0706(2)
C4 C 0.7149(4) 0.7035(3) -0.0237(2)
C5 C 0.6735(4) 0.7425(3) 0.0426(2)
C6 C 0.5419(3) 0.7155(2) 0.06285(19)
C7 C 0.4944(3) 0.7564(2) 0.13416(19)
C8 C 0.3765(3) 0.8138(2) 0.1255(2)
C9 C 0.2883(4) 0.8487(2) 0.0446(2)
C10 C 0.3585(4) 0.9015(3) -0.0041(2)
C11 C 0.2776(5) 0.9367(3) -0.0789(2)
C12 C 0.1247(5) 0.9198(3) -0.1067(3)
C13 C 0.0555(5) 0.8669(3) -0.0589(2)
C14 C 0.1349(4) 0.8313(3) 0.0157(2)
C15 C 0.3395(4) 0.8475(2) 0.2040(2)
C16 C 0.3238(3) 0.7613(2) 0.2567(2)
C17 C 0.4576(4) 0.6935(2) 0.2652(2)
C18 C 0.5756(4) 0.7287(3) 0.2206(2)
C19 C 0.7071(4) 0.6610(3) 0.2281(3)
C20 C 0.2109(5) 0.9171(3) 0.1953(3)
C21 C 0.3871(4) 0.6022(3) 0.2316(2)
C22 C 0.1859(4) 0.7038(2) 0.2191(2)
C23 C 0.1282(3) 0.5383(2) 0.17412(19)
C24 C 0.1507(4) 0.4513(2) 0.2098(2)
C25 C 0.0529(4) 0.3797(3) 0.1777(2)
C26 C -0.0679(4) 0.3956(3) 0.1118(2)
C27 C -0.0909(4) 0.4828(3) 0.0777(2)
C28 C 0.0077(4) 0.5554(3) 0.1079(2)
N1 N 0.2308(3) 0.61299(19) 0.20610(15)
O1 O 0.4514(2) 0.52950(17) 0.22671(15)
O2 O 0.0554(2) 0.72867(16) 0.20192(15)
H23 H 0.359(3) 0.626(2) 0.0318(18)
H24 H 0.429(4) 0.560(3) -0.085(2)
H25 H 0.656(4) 0.607(2) -0.118(2)
loop_
_geom_bond_atom_site_label_1
_geom_bond_atom_site_label_2
_geom_bond_site_symmetry_1
_geom_bond_site_symmetry_2
H1 C4 1_555 1_555
H2 C5 1_555 1_555
H3 C10 1_555 1_555
H4 C11 1_555 1_555
H5 C12 1_555 1_555
H6 C13 1_555 1_555
H7 C14 1_555 1_555
H8 C15 1_555 1_555
H9 C16 1_555 1_555
H10 C17 1_555 1_555
H11 C18 1_555 1_555
H12 C19 1_555 1_555
H13 C19 1_555 1_555
H14 C19 1_555 1_555
H15 C20 1_555 1_555
H16 C20 1_555 1_555
H17 C20 1_555 1_555
H18 C24 1_555 1_555
H19 C25 1_555 1_555
H20 C26 1_555 1_555
H21 C27 1_555 1_555
H22 C28 1_555 1_555
C1 C2 1_555 1_555
C2 C3 1_555 1_555
C3 C4 1_555 1_555
C4 C5 1_555 1_555
C5 C6 1_555 1_555
C6 C1 1_555 1_555
C7 C6 1_555 1_555
C8 C7 1_555 1_555
C9 C8 1_555 1_555
C10 C9 1_555 1_555
C11 C10 1_555 1_555
C12 C11 1_555 1_555
C13 C12 1_555 1_555
C14 C9 1_555 1_555
C15 C8 1_555 1_555
C16 C15 1_555 1_555
C17 C16 1_555 1_555
C18 C7 1_555 1_555
C19 C18 1_555 1_555
C20 C15 1_555 1_555
C21 C17 1_555 1_555
C22 C16 1_555 1_555
C23 C24 1_555 1_555
C24 C25 1_555 1_555
C25 C26 1_555 1_555
C26 C27 1_555 1_555
C27 C28 1_555 1_555
C28 C23 1_555 1_555
N1 C21 1_555 1_555
O1 C21 1_555 1_555
O2 C22 1_555 1_555
H23 C1 1_555 1_555
H24 C2 1_555 1_555
H25 C3 1_555 1_555
C13 C14 1_555 1_555
C17 C18 1_555 1_555
C22 N1 1_555 1_555
C23 N1 1_555 1_555

#END
