
#######################################################################
#
#                 Cambridge Crystallographic Data Centre
#                                CCDC 
#
#######################################################################
#
# If this CIF has been generated from an entry in the Cambridge 
# Structural Database, then it will include bibliographic, chemical, 
# crystal, experimental, refinement or atomic coordinate data resulting 
# from the CCDC's data processing and validation procedures.
#
#######################################################################

data_IKEMES
_chemical_formula_moiety         'C54 H73 N4 P2 1+,2(C4 H8 O1),Cl1 1-'
_chemical_name_systematic        
'1,2-bis(1,3-bis(2,6-diisopropylphenyl)imidazol-2-ylidene)diphosphan-1-ium chloride tetrahydrofuran solvate'
_symmetry_cell_setting           monoclinic
_symmetry_space_group_name_H-M   'P 21/n'
_symmetry_Int_Tables_number      14
_space_group_name_Hall           '-P 2yn'
loop_
_symmetry_equiv_pos_site_id
_symmetry_equiv_pos_as_xyz
1 x,y,z
2 1/2-x,1/2+y,1/2-z
3 -x,-y,-z
4 1/2+x,1/2-y,1/2+z
_cell_length_a                   12.974(3)
_cell_length_b                   31.717(7)
_cell_length_c                   15.286(3)
_cell_angle_alpha                90
_cell_angle_beta                 95.960(3)
_cell_angle_gamma                90
_cell_volume                     6256.13
_exptl_crystal_colour            orange
_exptl_crystal_description       plate
_cell_formula_units_Z            4
loop_
_atom_site_label
_atom_site_type_symbol
_atom_site_fract_x
_atom_site_fract_y
_atom_site_fract_z
P1 P 0.32584(8) 0.12224(4) 0.39239(6)
P2 P 0.1814(4) 0.14838(19) 0.4263(4)
N1 N 0.2346(2) 0.13115(9) 0.21182(18)
N2 N 0.3872(2) 0.15780(9) 0.23759(17)
N3 N 0.1453(2) 0.18081(9) 0.58586(17)
N4 N 0.2777(2) 0.13932(9) 0.60629(17)
C1 C 0.3133(2) 0.13776(11) 0.2765(2)
C2 C 0.2615(3) 0.14673(12) 0.1332(2)
H1 H 0.2214 0.1459 0.0791
C3 C 0.3556(3) 0.16320(12) 0.1495(2)
H2 H 0.3935 0.1761 0.1086
C4 C 0.4902(3) 0.16975(12) 0.2773(2)
C5 C 0.5035(3) 0.20993(13) 0.3124(2)
C6 C 0.6059(3) 0.22197(15) 0.3397(3)
H3 H 0.6194 0.2488 0.3626
C7 C 0.6856(3) 0.19469(18) 0.3329(3)
H4 H 0.7531 0.2036 0.3494
C8 C 0.6686(3) 0.15454(17) 0.3025(3)
H5 H 0.7242 0.1360 0.3025
C9 C 0.5701(3) 0.14100(13) 0.2715(2)
C10 C 0.5526(3) 0.09666(14) 0.2363(3)
H6 H 0.4808 0.0950 0.2093
C11 C 0.5654(6) 0.06430(18) 0.3088(4)
H7 H 0.5538 0.0366 0.2842
H8 H 0.6343 0.0659 0.3382
H9 H 0.5161 0.0697 0.3502
C12 C 0.6234(5) 0.0862(2) 0.1646(4)
H10 H 0.6099 0.0579 0.1440
H11 H 0.6098 0.1055 0.1164
H12 H 0.6945 0.0886 0.1884
C13 C 0.4144(3) 0.23912(13) 0.3235(3)
H13 H 0.3511 0.2221 0.3176
C14 C 0.4235(5) 0.2589(2) 0.4150(4)
H14 H 0.3656 0.2773 0.4198
H15 H 0.4240 0.2371 0.4585
H16 H 0.4867 0.2748 0.4241
C15 C 0.4026(6) 0.2720(2) 0.2535(5)
H17 H 0.3452 0.2899 0.2627
H18 H 0.4648 0.2885 0.2556
H19 H 0.3902 0.2586 0.1970
C16 C 0.1396(3) 0.10816(12) 0.2207(2)
C17 C 0.0487(3) 0.13183(13) 0.2235(2)
C18 C -0.0409(3) 0.10825(17) 0.2292(3)
H20 H -0.1039 0.1221 0.2305
C19 C -0.0386(4) 0.06567(19) 0.2328(4)
H21 H -0.0997 0.0510 0.2381
C20 C 0.0521(4) 0.04337(16) 0.2289(3)
H22 H 0.0513 0.0141 0.2311
C21 C 0.1438(3) 0.06423(14) 0.2217(3)
C22 C 0.2419(4) 0.03995(15) 0.2094(4)
H23 H 0.3007 0.0590 0.2239
C23 C 0.2590(5) 0.00125(19) 0.2679(4)
H24 H 0.3222 -0.0124 0.2565
H25 H 0.2634 0.0097 0.3285
H26 H 0.2020 -0.0179 0.2556
C24 C 0.2418(5) 0.0274(2) 0.1135(4)
H27 H 0.3040 0.0121 0.1058
H28 H 0.1826 0.0100 0.0964
H29 H 0.2387 0.0523 0.0775
C25 C 0.0453(3) 0.17887(13) 0.2184(2)
H30 H 0.1153 0.1894 0.2366
C26 C -0.0279(4) 0.19867(16) 0.2794(3)
H31 H -0.0269 0.2288 0.2733
H32 H -0.0970 0.1885 0.2638
H33 H -0.0057 0.1911 0.3392
C27 C 0.0145(4) 0.19415(16) 0.1241(3)
H34 H 0.0131 0.2244 0.1231
H35 H 0.0641 0.1842 0.0865
H36 H -0.0529 0.1834 0.1037
C28 C 0.2109(3) 0.15672(11) 0.5423(2)
C29 C 0.1730(3) 0.17828(13) 0.6757(2)
H37 H 0.1403 0.1919 0.7192
C30 C 0.2541(3) 0.15307(13) 0.6883(2)
H38 H 0.2892 0.1458 0.7424
C31 C 0.3525(3) 0.10666(12) 0.5956(2)
C32 C 0.4565(3) 0.11751(13) 0.6006(2)
C33 C 0.5262(4) 0.08413(18) 0.5931(3)
H39 H 0.5969 0.0897 0.5966
C34 C 0.4921(5) 0.04379(18) 0.5810(3)
H40 H 0.5399 0.0223 0.5756
C35 C 0.3897(5) 0.03417(15) 0.5766(3)
H41 H 0.3686 0.0063 0.5681
C36 C 0.3158(4) 0.06545(13) 0.5847(3)
C37 C 0.2028(4) 0.05387(16) 0.5847(4)
H42 H 0.1627 0.0800 0.5756
C38 C 0.1645(6) 0.0240(3) 0.5111(6)
H43 H 0.0925 0.0179 0.5145
H44 H 0.1727 0.0370 0.4555
H45 H 0.2038 -0.0016 0.5167
C39 C 0.1839(6) 0.0371(3) 0.6742(5)
H46 H 0.1121 0.0297 0.6742
H47 H 0.2260 0.0125 0.6874
H48 H 0.2017 0.0583 0.7180
C40 C 0.4950(3) 0.16206(15) 0.6123(3)
H49 H 0.4355 0.1808 0.5986
C41 C 0.5377(5) 0.1704(2) 0.7065(4)
H50 H 0.5616 0.1991 0.7120
H51 H 0.4841 0.1660 0.7444
H52 H 0.5943 0.1516 0.7228
C42 C 0.5756(4) 0.17343(19) 0.5507(4)
H53 H 0.5975 0.2021 0.5610
H54 H 0.6343 0.1550 0.5614
H55 H 0.5460 0.1704 0.4908
C43 C 0.0503(3) 0.20081(13) 0.5477(2)
C44 C -0.0408(3) 0.17770(13) 0.5452(3)
C45 C -0.1320(3) 0.19934(16) 0.5180(3)
H56 H -0.1949 0.1852 0.5166
C46 C -0.1318(3) 0.24070(16) 0.4936(3)
H57 H -0.1940 0.2546 0.4776
C47 C -0.0406(3) 0.26163(14) 0.4926(2)
H58 H -0.0414 0.2895 0.4736
C48 C 0.0544(3) 0.24236(12) 0.5196(2)
C49 C 0.1545(3) 0.26629(14) 0.5181(3)
H59 H 0.2105 0.2456 0.5175
C50 C 0.1768(5) 0.2929(2) 0.5989(5)
H60 H 0.2408 0.3077 0.5961
H61 H 0.1216 0.3128 0.6022
H62 H 0.1821 0.2752 0.6501
C51 C 0.1554(5) 0.2938(2) 0.4359(5)
H63 H 0.2204 0.3084 0.4377
H64 H 0.1466 0.2763 0.3844
H65 H 0.1000 0.3139 0.4340
C52 C -0.0444(4) 0.13149(15) 0.5673(3)
H66 H 0.0274 0.1222 0.5818
C53 C -0.0896(6) 0.10530(19) 0.4898(4)
H67 H -0.0905 0.0762 0.5066
H68 H -0.1591 0.1145 0.4718
H69 H -0.0480 0.1086 0.4419
C54 C -0.1018(6) 0.1223(2) 0.6469(5)
H70 H -0.1015 0.0924 0.6577
H71 H -0.0682 0.1366 0.6974
H72 H -0.1721 0.1320 0.6359
H73 H 0.296(4) 0.0843(8) 0.377(4)
Cl1 Cl 0.20047(13) 0.17054(4) 0.91422(8)
O1 O -0.0701(10) 0.0668(3) 0.8477(5)
C55 C 0.0257(9) 0.0674(5) 0.8990(10)
H74 H 0.0729 0.0876 0.8771
H75 H 0.0579 0.0397 0.9026
C56 C -0.0086(11) 0.0807(5) 0.9850(7)
H76 H -0.0035 0.0569 1.0250
H77 H 0.0375 0.1026 1.0104
C57 C -0.1197(13) 0.0973(6) 0.9762(9)
H78 H -0.1681 0.0775 0.9978
H79 H -0.1256 0.1246 1.0040
C58 C -0.1299(14) 0.1000(4) 0.8808(10)
H80 H -0.2021 0.0972 0.8578
H81 H -0.1050 0.1271 0.8625
O2 O 0.4768(15) 0.1059(4) 0.9141(13)
C59 C 0.5456(13) 0.0727(8) 0.9018(17)
H82 H 0.5716 0.0594 0.9569
H83 H 0.6031 0.0816 0.8704
C60 C 0.4670(17) 0.0438(7) 0.8443(14)
H84 H 0.4467 0.0560 0.7869
H85 H 0.4947 0.0157 0.8370
C61 C 0.3811(18) 0.0434(7) 0.8994(15)
H86 H 0.3144 0.0445 0.8644
H87 H 0.3837 0.0189 0.9375
C62 C 0.4042(18) 0.0849(6) 0.9527(16)
H88 H 0.3418 0.1018 0.9522
H89 H 0.4290 0.0784 1.0133
P3? P 0.2085(8) 0.1625(4) 0.4275(9)
O3? O 0.403(2) 0.0771(10) 0.8248(14)
C63? C 0.507(2) 0.0648(14) 0.837(2)
H90? H 0.5525 0.0882 0.8547
H91? H 0.5289 0.0516 0.7846
C64? C 0.498(3) 0.0322(12) 0.914(2)
H92? H 0.4539 0.0085 0.8958
H93? H 0.5657 0.0222 0.9390
C65? C 0.450(3) 0.0617(15) 0.9714(17)
H94? H 0.4277 0.0482 1.0230
H95? H 0.4940 0.0858 0.9884
C66? C 0.360(2) 0.0725(14) 0.9005(19)
H96? H 0.3090 0.0499 0.8953
H97? H 0.3255 0.0983 0.9154
loop_
_geom_bond_atom_site_label_1
_geom_bond_atom_site_label_2
_geom_bond_site_symmetry_1
_geom_bond_site_symmetry_2
P1 P2 1_555 1_555
P2 C28 1_555 1_555
N1 C1 1_555 1_555
N2 C1 1_555 1_555
N3 C28 1_555 1_555
N4 C28 1_555 1_555
C1 P1 1_555 1_555
C2 N1 1_555 1_555
H1 C2 1_555 1_555
C3 N2 1_555 1_555
H2 C3 1_555 1_555
C4 N2 1_555 1_555
C5 C4 1_555 1_555
C6 C5 1_555 1_555
H3 C6 1_555 1_555
C7 C6 1_555 1_555
H4 C7 1_555 1_555
C8 C7 1_555 1_555
H5 C8 1_555 1_555
C9 C4 1_555 1_555
C10 C9 1_555 1_555
H6 C10 1_555 1_555
C11 C10 1_555 1_555
H7 C11 1_555 1_555
H8 C11 1_555 1_555
H9 C11 1_555 1_555
C12 C10 1_555 1_555
H10 C12 1_555 1_555
H11 C12 1_555 1_555
H12 C12 1_555 1_555
C13 C5 1_555 1_555
H13 C13 1_555 1_555
C14 C13 1_555 1_555
H14 C14 1_555 1_555
H15 C14 1_555 1_555
H16 C14 1_555 1_555
C15 C13 1_555 1_555
H17 C15 1_555 1_555
H18 C15 1_555 1_555
H19 C15 1_555 1_555
C16 N1 1_555 1_555
C17 C16 1_555 1_555
C18 C17 1_555 1_555
H20 C18 1_555 1_555
C19 C18 1_555 1_555
H21 C19 1_555 1_555
C20 C19 1_555 1_555
H22 C20 1_555 1_555
C21 C16 1_555 1_555
C22 C21 1_555 1_555
H23 C22 1_555 1_555
C23 C22 1_555 1_555
H24 C23 1_555 1_555
H25 C23 1_555 1_555
H26 C23 1_555 1_555
C24 C22 1_555 1_555
H27 C24 1_555 1_555
H28 C24 1_555 1_555
H29 C24 1_555 1_555
C25 C17 1_555 1_555
H30 C25 1_555 1_555
C26 C25 1_555 1_555
H31 C26 1_555 1_555
H32 C26 1_555 1_555
H33 C26 1_555 1_555
C27 C25 1_555 1_555
H34 C27 1_555 1_555
H35 C27 1_555 1_555
H36 C27 1_555 1_555
C29 N3 1_555 1_555
H37 C29 1_555 1_555
C30 N4 1_555 1_555
H38 C30 1_555 1_555
C31 N4 1_555 1_555
C32 C31 1_555 1_555
C33 C32 1_555 1_555
H39 C33 1_555 1_555
C34 C33 1_555 1_555
H40 C34 1_555 1_555
C35 C34 1_555 1_555
H41 C35 1_555 1_555
C36 C31 1_555 1_555
C37 C36 1_555 1_555
H42 C37 1_555 1_555
C38 C37 1_555 1_555
H43 C38 1_555 1_555
H44 C38 1_555 1_555
H45 C38 1_555 1_555
C39 C37 1_555 1_555
H46 C39 1_555 1_555
H47 C39 1_555 1_555
H48 C39 1_555 1_555
C40 C32 1_555 1_555
H49 C40 1_555 1_555
C41 C40 1_555 1_555
H50 C41 1_555 1_555
H51 C41 1_555 1_555
H52 C41 1_555 1_555
C42 C40 1_555 1_555
H53 C42 1_555 1_555
H54 C42 1_555 1_555
H55 C42 1_555 1_555
C43 N3 1_555 1_555
C44 C43 1_555 1_555
C45 C44 1_555 1_555
H56 C45 1_555 1_555
C46 C45 1_555 1_555
H57 C46 1_555 1_555
C47 C46 1_555 1_555
H58 C47 1_555 1_555
C48 C43 1_555 1_555
C49 C48 1_555 1_555
H59 C49 1_555 1_555
C50 C49 1_555 1_555
H60 C50 1_555 1_555
H61 C50 1_555 1_555
H62 C50 1_555 1_555
C51 C49 1_555 1_555
H63 C51 1_555 1_555
H64 C51 1_555 1_555
H65 C51 1_555 1_555
C52 C44 1_555 1_555
H66 C52 1_555 1_555
C53 C52 1_555 1_555
H67 C53 1_555 1_555
H68 C53 1_555 1_555
H69 C53 1_555 1_555
C54 C52 1_555 1_555
H70 C54 1_555 1_555
H71 C54 1_555 1_555
H72 C54 1_555 1_555
H73 P1 1_555 1_555
O1 C55 1_555 1_555
C55 H74 1_555 1_555
H75 C55 1_555 1_555
C56 C55 1_555 1_555
H76 C56 1_555 1_555
H77 C56 1_555 1_555
C57 C56 1_555 1_555
H78 C57 1_555 1_555
H79 C57 1_555 1_555
C58 O1 1_555 1_555
H80 C58 1_555 1_555
H81 C58 1_555 1_555
O2 C59 1_555 1_555
C59 H82 1_555 1_555
H83 C59 1_555 1_555
C60 C59 1_555 1_555
H84 C60 1_555 1_555
H85 C60 1_555 1_555
C61 C60 1_555 1_555
H86 C61 1_555 1_555
H87 C61 1_555 1_555
C62 O2 1_555 1_555
H88 C62 1_555 1_555
H89 C62 1_555 1_555
C2 C3 1_555 1_555
C8 C9 1_555 1_555
C20 C21 1_555 1_555
C29 C30 1_555 1_555
C35 C36 1_555 1_555
C47 C48 1_555 1_555
C57 C58 1_555 1_555
C61 C62 1_555 1_555

#END
