
#######################################################################
#
#                 Cambridge Crystallographic Data Centre
#                                CCDC 
#
#######################################################################
#
# If this CIF has been generated from an entry in the Cambridge 
# Structural Database, then it will include bibliographic, chemical, 
# crystal, experimental, refinement or atomic coordinate data resulting 
# from the CCDC's data processing and validation procedures.
#
#######################################################################

data_IKIBUB
_chemical_formula_moiety         'C21 H21 Br1 N4 O4,2(H2 O1)'
_chemical_name_systematic        
'5-(2-(3-Bromophenyl)-1-(4-(dimethylamino)pyridinium-1-yl)-2-oxoethyl)-1,3-dimethyl-2,4,6-trioxohexahydropyrimidin-5-ide dihydrate'
_symmetry_cell_setting           orthorhombic
_symmetry_space_group_name_H-M   'P b c a'
_symmetry_Int_Tables_number      61
_space_group_name_Hall           '-P 2ac 2ab'
loop_
_symmetry_equiv_pos_site_id
_symmetry_equiv_pos_as_xyz
1 x,y,z
2 1/2-x,-y,1/2+z
3 1/2+x,1/2-y,-z
4 -x,1/2+y,1/2-z
5 -x,-y,-z
6 1/2+x,y,1/2-z
7 1/2-x,1/2+y,z
8 x,1/2-y,1/2+z
_cell_length_a                   12.4273(2)
_cell_length_b                   16.4467(3)
_cell_length_c                   21.9254(4)
_cell_angle_alpha                90
_cell_angle_beta                 90
_cell_angle_gamma                90
_cell_volume                     4481.29
_exptl_crystal_description       block
_cell_formula_units_Z            8
loop_
_atom_site_label
_atom_site_type_symbol
_atom_site_fract_x
_atom_site_fract_y
_atom_site_fract_z
Br1 Br 0.60675(2) 1.09016(2) 0.36829(2)
O1 O 0.41222(12) 0.80533(10) 0.33026(7)
O2 O 0.22192(12) 0.86937(9) 0.41453(6)
O3 O 0.10636(11) 0.83686(10) 0.60993(7)
O4 O 0.37002(12) 0.66759(10) 0.54081(7)
N1 N 0.32243(14) 0.67400(11) 0.38181(7)
N2 N 0.18703(15) 0.50569(11) 0.26520(8)
N3 N 0.17051(14) 0.85681(11) 0.51425(8)
N4 N 0.23703(14) 0.75132(11) 0.57554(7)
C1 C 0.57980(18) 0.99282(14) 0.41214(10)
C2 C 0.51235(17) 0.93587(14) 0.38612(10)
H1 H 0.4825 0.9450 0.3468
C3 C 0.48843(16) 0.86492(13) 0.41791(9)
C4 C 0.53232(17) 0.85219(14) 0.47576(9)
H2 H 0.5148 0.8045 0.4981
C5 C 0.60175(17) 0.90970(14) 0.50051(11)
H3 H 0.6331 0.9004 0.5394
C6 C 0.62564(17) 0.98038(15) 0.46889(11)
H4 H 0.6728 1.0197 0.4859
C7 C 0.42188(16) 0.80299(13) 0.38519(9)
C8 C 0.37197(16) 0.73514(13) 0.42312(9)
H5 H 0.4332 0.7069 0.4438
C9 C 0.37016(17) 0.60144(13) 0.37277(9)
H6 H 0.4355 0.5898 0.3935
C10 C 0.32776(17) 0.54453(13) 0.33504(9)
H7 H 0.3628 0.4936 0.3303
C11 C 0.23121(17) 0.56065(13) 0.30254(9)
C12 C 0.18453(18) 0.63831(14) 0.31177(9)
H8 H 0.1208 0.6529 0.2905
C13 C 0.23076(17) 0.69213(14) 0.35099(9)
H9 H 0.1980 0.7437 0.3570
C14 C 0.2392(2) 0.42735(14) 0.25502(11)
H10 H 0.1916 0.3923 0.2310
H11 H 0.2543 0.4015 0.2944
H12 H 0.3068 0.4357 0.2329
C15 C 0.0948(2) 0.52723(16) 0.22698(11)
H13 H 0.0356 0.5462 0.2529
H14 H 0.0715 0.4794 0.2039
H15 H 0.1155 0.5705 0.1986
C16 C 0.29903(16) 0.76415(13) 0.47278(9)
C17 C 0.23146(16) 0.83102(13) 0.46363(9)
C18 C 0.16828(16) 0.81589(13) 0.56921(9)
C19 C 0.30722(16) 0.72467(13) 0.52956(9)
C20 C 0.10394(17) 0.93008(14) 0.50914(10)
H16 H 0.0288 0.9144 0.5024
H17 H 0.1291 0.9630 0.4747
H18 H 0.1095 0.9618 0.5469
C21 C 0.23778(18) 0.70829(15) 0.63390(9)
H19 H 0.2428 0.6496 0.6266
H20 H 0.1712 0.7202 0.6562
H21 H 0.2997 0.7262 0.6581
O5 O 0.51197(14) 0.62661(13) 0.63480(8)
H22 H 0.465(2) 0.636(2) 0.6083(11)
H23 H 0.5718(14) 0.624(2) 0.6172(13)
O6 O 0.4730(2) 0.75923(15) 0.71472(10)
H24 H 0.524(3) 0.7205(19) 0.7133(17)
H25 H 0.440(3) 0.753(2) 0.7495(10)
loop_
_geom_bond_atom_site_label_1
_geom_bond_atom_site_label_2
_geom_bond_site_symmetry_1
_geom_bond_site_symmetry_2
Br1 C1 1_555 1_555
O1 C7 1_555 1_555
O2 C17 1_555 1_555
O3 C18 1_555 1_555
O4 C19 1_555 1_555
N1 C8 1_555 1_555
N2 C11 1_555 1_555
N3 C17 1_555 1_555
N4 C18 1_555 1_555
C1 C2 1_555 1_555
C2 H1 1_555 1_555
C3 C2 1_555 1_555
C4 C3 1_555 1_555
H2 C4 1_555 1_555
C5 C4 1_555 1_555
H3 C5 1_555 1_555
C6 C1 1_555 1_555
H4 C6 1_555 1_555
C7 C3 1_555 1_555
C8 C7 1_555 1_555
H5 C8 1_555 1_555
C9 N1 1_555 1_555
H6 C9 1_555 1_555
C10 C9 1_555 1_555
H7 C10 1_555 1_555
C11 C10 1_555 1_555
C12 C11 1_555 1_555
H8 C12 1_555 1_555
C13 N1 1_555 1_555
H9 C13 1_555 1_555
C14 N2 1_555 1_555
H10 C14 1_555 1_555
H11 C14 1_555 1_555
H12 C14 1_555 1_555
C15 N2 1_555 1_555
H13 C15 1_555 1_555
H14 C15 1_555 1_555
H15 C15 1_555 1_555
C16 C8 1_555 1_555
C17 C16 1_555 1_555
C18 N3 1_555 1_555
C19 N4 1_555 1_555
C20 N3 1_555 1_555
H16 C20 1_555 1_555
H17 C20 1_555 1_555
H18 C20 1_555 1_555
C21 N4 1_555 1_555
H19 C21 1_555 1_555
H20 C21 1_555 1_555
H21 C21 1_555 1_555
O5 H22 1_555 1_555
H23 O5 1_555 1_555
O6 H24 1_555 1_555
H25 O6 1_555 1_555
C5 C6 1_555 1_555
C12 C13 1_555 1_555
C16 C19 1_555 1_555

#END
