
#######################################################################
#
#                 Cambridge Crystallographic Data Centre
#                                CCDC 
#
#######################################################################
#
# If this CIF has been generated from an entry in the Cambridge 
# Structural Database, then it will include bibliographic, chemical, 
# crystal, experimental, refinement or atomic coordinate data resulting 
# from the CCDC's data processing and validation procedures.
#
#######################################################################

data_IKICIO
_chemical_formula_moiety         'C23 H28 N2 O2'
_chemical_name_systematic        
N-(4a-Morpholino-2,3,4,4a,9,9a-hexahydro-1H-xanthen-9-yl)phenylamine
_symmetry_cell_setting           triclinic
_symmetry_space_group_name_H-M   'P -1'
_symmetry_Int_Tables_number      2
_space_group_name_Hall           '-P 1'
loop_
_symmetry_equiv_pos_site_id
_symmetry_equiv_pos_as_xyz
1 x,y,z
2 -x,-y,-z
_cell_length_a                   9.6452(7)
_cell_length_b                   10.1247(8)
_cell_length_c                   11.1168(9)
_cell_angle_alpha                81.3590(10)
_cell_angle_beta                 80.1650(10)
_cell_angle_gamma                64.9200(10)
_cell_volume                     965.111
_exptl_crystal_colour            colorless
_exptl_crystal_description       block
_chemical_melting_point          429-431K
_cell_formula_units_Z            2
_exptl_crystal_recrystallization_method 'ethyl acetate'
loop_
_atom_site_label
_atom_site_type_symbol
_atom_site_fract_x
_atom_site_fract_y
_atom_site_fract_z
O1 O 0.63667(15) 0.25375(14) 0.17134(11)
C1 C 0.7884(2) 0.1737(2) 0.20895(16)
C2 C 0.8958(2) 0.1738(2) 0.09030(18)
H1 H 1.0016 0.1146 0.1057
H2 H 0.8726 0.1295 0.0291
C3 C 0.8796(3) 0.3276(3) 0.0403(2)
H3 H 0.9529 0.3224 -0.0324
H4 H 0.7767 0.3847 0.0173
C4 C 0.9088(3) 0.4018(3) 0.1363(2)
H5 H 0.8952 0.5006 0.1044
H6 H 1.0143 0.3485 0.1548
C5 C 0.7984(3) 0.4073(2) 0.2534(2)
H7 H 0.6937 0.4683 0.2360
H8 H 0.8218 0.4520 0.3141
C6 C 0.8086(2) 0.2550(2) 0.30666(17)
H9 H 0.9114 0.1984 0.3326
C7 C 0.6889(2) 0.2674(2) 0.41974(17)
H10 H 0.6817 0.3485 0.4624
C8 C 0.5305(2) 0.3101(2) 0.38125(17)
C9 C 0.3968(2) 0.3610(2) 0.46364(18)
H11 H 0.4052 0.3641 0.5452
C10 C 0.2532(2) 0.4067(2) 0.4277(2)
H12 H 0.1659 0.4380 0.4849
C11 C 0.2387(2) 0.4061(2) 0.3068(2)
H13 H 0.1414 0.4411 0.2816
C12 C 0.3687(2) 0.3536(2) 0.2228(2)
H14 H 0.3589 0.3519 0.1414
C13 C 0.5143(2) 0.30333(19) 0.26049(17)
N1 N 0.79895(17) 0.02740(17) 0.26236(14)
C14 C 0.9542(2) -0.0761(2) 0.2889(2)
H15 H 0.9949 -0.0319 0.3376
H16 H 1.0223 -0.0999 0.2130
C15 C 0.9471(3) -0.2134(2) 0.3580(2)
H17 H 1.0500 -0.2811 0.3756
H18 H 0.8828 -0.1892 0.4356
O2 O 0.88758(19) -0.28253(16) 0.29196(16)
C16 C 0.7387(3) -0.1820(3) 0.2638(2)
H19 H 0.6702 -0.1563 0.3394
H20 H 0.6983 -0.2286 0.2172
C17 C 0.7407(3) -0.0447(2) 0.1912(2)
H21 H 0.8063 -0.0688 0.1141
H22 H 0.6373 0.0208 0.1732
N2 N 0.7352(2) 0.1391(2) 0.50510(16)
H23 H 0.7949 0.0562 0.4772
C18 C 0.6874(2) 0.1424(3) 0.63196(18)
C19 C 0.6910(3) 0.0140(3) 0.6964(2)
H24 H 0.7175 -0.0681 0.6548
C20 C 0.6557(3) 0.0060(3) 0.8213(2)
H25 H 0.6600 -0.0822 0.8631
C21 C 0.6145(3) 0.1239(3) 0.8861(2)
H26 H 0.5907 0.1168 0.9708
C22 C 0.6090(3) 0.2535(3) 0.8234(2)
H27 H 0.5805 0.3353 0.8658
C23 C 0.6459(3) 0.2627(3) 0.6965(2)
H28 H 0.6425 0.3506 0.6549
loop_
_geom_bond_atom_site_label_1
_geom_bond_atom_site_label_2
_geom_bond_site_symmetry_1
_geom_bond_site_symmetry_2
O1 C1 1_555 1_555
C1 C2 1_555 1_555
C2 H1 1_555 1_555
H2 C2 1_555 1_555
C3 C2 1_555 1_555
H3 C3 1_555 1_555
H4 C3 1_555 1_555
C4 C3 1_555 1_555
H5 C4 1_555 1_555
H6 C4 1_555 1_555
C5 C4 1_555 1_555
H7 C5 1_555 1_555
H8 C5 1_555 1_555
C6 C1 1_555 1_555
H9 C6 1_555 1_555
C7 C6 1_555 1_555
H10 C7 1_555 1_555
C8 C7 1_555 1_555
C9 C8 1_555 1_555
H11 C9 1_555 1_555
C10 C9 1_555 1_555
H12 C10 1_555 1_555
C11 C10 1_555 1_555
H13 C11 1_555 1_555
C12 C11 1_555 1_555
H14 C12 1_555 1_555
C13 O1 1_555 1_555
N1 C1 1_555 1_555
C14 N1 1_555 1_555
H15 C14 1_555 1_555
H16 C14 1_555 1_555
C15 C14 1_555 1_555
H17 C15 1_555 1_555
H18 C15 1_555 1_555
O2 C15 1_555 1_555
C16 O2 1_555 1_555
H19 C16 1_555 1_555
H20 C16 1_555 1_555
C17 N1 1_555 1_555
H21 C17 1_555 1_555
H22 C17 1_555 1_555
N2 C7 1_555 1_555
H23 N2 1_555 1_555
C18 N2 1_555 1_555
C19 C18 1_555 1_555
H24 C19 1_555 1_555
C20 C19 1_555 1_555
H25 C20 1_555 1_555
C21 C20 1_555 1_555
H26 C21 1_555 1_555
C22 C21 1_555 1_555
H27 C22 1_555 1_555
C23 C18 1_555 1_555
H28 C23 1_555 1_555
C5 C6 1_555 1_555
C8 C13 1_555 1_555
C12 C13 1_555 1_555
C16 C17 1_555 1_555
C22 C23 1_555 1_555

#END
