
#######################################################################
#
#                 Cambridge Crystallographic Data Centre
#                                CCDC 
#
#######################################################################
#
# If this CIF has been generated from an entry in the Cambridge 
# Structural Database, then it will include bibliographic, chemical, 
# crystal, experimental, refinement or atomic coordinate data resulting 
# from the CCDC's data processing and validation procedures.
#
#######################################################################

data_IKICUC
_chemical_formula_moiety         'C28 H41 N1 O2'
_chemical_name_systematic        
N-(4-Ethoxyphenyl)-3-methyl-5-(1,2,4a,5-tetramethyl-1,2,3,4,4a,7,8,8a-octahydronaphthalen-1-yl)pent-2-enamide
_symmetry_cell_setting           monoclinic
_symmetry_space_group_name_H-M   'P 21'
_symmetry_Int_Tables_number      4
_space_group_name_Hall           'P 2yb'
loop_
_symmetry_equiv_pos_site_id
_symmetry_equiv_pos_as_xyz
1 x,y,z
2 -x,1/2+y,-z
_cell_length_a                   10.9721(2)
_cell_length_b                   9.73595(15)
_cell_length_c                   24.3510(5)
_cell_angle_alpha                90
_cell_angle_beta                 99.8125(19)
_cell_angle_gamma                90
_cell_volume                     2563.21
_cell_formula_units_Z            4
loop_
_atom_site_label
_atom_site_type_symbol
_atom_site_fract_x
_atom_site_fract_y
_atom_site_fract_z
O1 O 0.7066(2) 0.0462(3) 0.24449(10)
N1 N 0.7527(2) 0.2450(3) 0.20406(10)
H1 H 0.7810 0.3264 0.2118
O2 O 0.6443(3) 0.1404(3) -0.02377(10)
C1 C 0.7436(3) 0.1652(3) 0.24837(13)
C2 C 0.7223(3) 0.2141(3) 0.14645(13)
C3 C 0.6724(3) 0.1720(4) 0.03204(14)
C4 C 0.6964(3) 0.0833(4) 0.12538(13)
H2 H 0.6961 0.0092 0.1495
C5 C 0.7852(3) 0.2364(4) 0.30256(14)
H3 H 0.8554 0.2912 0.3052
C6 C 0.7235(3) 0.3219(4) 0.10959(15)
H4 H 0.7414 0.4100 0.1234
C7 C 0.6710(3) 0.0631(4) 0.06825(14)
H5 H 0.6528 -0.0247 0.0541
C8 C 0.6986(4) 0.3016(4) 0.05268(15)
H6 H 0.6996 0.3754 0.0285
C9 C 0.8453(4) 0.4928(4) 0.49621(14)
H7 H 0.8668 0.3961 0.4920
C10 C 0.7316(3) 0.2290(4) 0.34703(14)
C11 C 0.7145(5) 0.5085(5) 0.46068(16)
C12 C 0.9472(4) 0.5735(5) 0.47407(16)
H8 H 0.9342 0.5676 0.4337
H9 H 0.9431 0.6695 0.4843
C13 C 0.8580(6) 0.5143(5) 0.56010(16)
C14 C 0.7169(4) 0.4467(5) 0.40197(16)
H10 H 0.6320 0.4374 0.3831
H11 H 0.7567 0.5127 0.3810
C15 C 0.7807(4) 0.3086(4) 0.39889(16)
H12 H 0.8686 0.3239 0.4005
H13 H 0.7704 0.2541 0.4311
C16 C 0.6344(5) 0.2495(6) -0.06263(16)
H14 H 0.7145 0.2924 -0.0617
H15 H 0.5773 0.3183 -0.0534
C17 C 1.0808(7) 0.4770(6) 0.5584(3)
H16 H 1.1584 0.4526 0.5777
C18 C 0.9875(8) 0.4739(6) 0.5864(2)
C19 C 1.0723(5) 0.5167(7) 0.4978(2)
H17 H 1.1350 0.5851 0.4945
H18 H 1.0887 0.4367 0.4765
C20 C 0.6183(5) 0.1477(7) 0.3493(2)
H19 H 0.5809 0.1216 0.3122
H20 H 0.5610 0.2020 0.3657
H21 H 0.6396 0.0667 0.3713
C21 C 0.5884(7) 0.1920(8) -0.11940(19)
H22 H 0.5653 0.2660 -0.1452
H23 H 0.5178 0.1347 -0.1181
H24 H 0.6526 0.1386 -0.1314
C22 C 0.6167(6) 0.4266(7) 0.4874(2)
H25 H 0.6336 0.3290 0.4824
C23 C 0.7588(8) 0.4220(7) 0.5803(2)
H26 H 0.7787 0.3264 0.5750
H27 H 0.7613 0.4368 0.6199
C24 C 0.6746(6) 0.6566(6) 0.4512(3)
H28 H 0.6580 0.6952 0.4854
H29 H 0.6011 0.6606 0.4235
H30 H 0.7393 0.7078 0.4386
C25 C 0.8406(7) 0.6639(6) 0.5785(2)
H31 H 0.8944 0.7234 0.5622
H32 H 0.8603 0.6700 0.6184
H33 H 0.7562 0.6914 0.5664
C26 C 0.6299(8) 0.4505(9) 0.5500(2)
H34 H 0.6085 0.5450 0.5567
H35 H 0.5721 0.3916 0.5649
C27 C 0.4825(7) 0.4514(12) 0.4593(3)
H36 H 0.4601 0.5448 0.4653
H37 H 0.4288 0.3906 0.4751
H38 H 0.4746 0.4343 0.4201
C28 C 1.0130(10) 0.4348(9) 0.6473(2)
H39 H 0.9960 0.5118 0.6695
H40 H 1.0982 0.4087 0.6577
H41 H 0.9610 0.3591 0.6536
O3 O 0.1974(3) 0.0443(3) 0.77862(13)
C29 C 0.2033(3) 0.1683(3) 0.77542(13)
N2 N 0.2969(2) 0.2345(3) 0.75649(12)
H42 H 0.2907 0.3225 0.7544
C30 C -0.1384(2) 0.6007(4) 0.89268(13)
H43 H -0.1589 0.5059 0.9011
C31 C 0.0151(3) 0.2346(3) 0.81563(14)
C32 C -0.1402(3) 0.6013(3) 0.82896(13)
C33 C 0.1114(3) 0.2656(3) 0.79134(14)
H44 H 0.1222 0.3578 0.7836
O4 O 0.7252(3) 0.0152(4) 0.69574(17)
C34 C -0.2370(3) 0.6892(4) 0.91517(15)
C35 C 0.4032(3) 0.1770(4) 0.73985(13)
C36 C -0.0505(3) 0.4902(3) 0.81351(15)
H45 H -0.0568 0.4898 0.7733
H46 H 0.0332 0.5179 0.8291
C37 C -0.3644(3) 0.6464(4) 0.88299(16)
H47 H -0.3817 0.5527 0.8927
H48 H -0.4275 0.7050 0.8940
C38 C -0.2743(3) 0.5688(4) 0.79908(14)
H49 H -0.2910 0.4734 0.8083
C39 C 0.4363(4) 0.0412(4) 0.74575(18)
H50 H 0.3860 -0.0197 0.7610
C40 C -0.3706(3) 0.6564(4) 0.82069(16)
H51 H -0.3593 0.7515 0.8109
H52 H -0.4522 0.6281 0.8024
C41 C 0.5428(4) -0.0066(5) 0.7295(2)
H53 H 0.5619 -0.0996 0.7328
C42 C -0.0687(4) 0.3436(4) 0.83220(19)
H54 H -0.0593 0.3435 0.8725
H55 H -0.1533 0.3172 0.8178
C43 C -0.2286(3) 0.6584(5) 0.97692(17)
C44 C 0.6194(4) 0.0795(5) 0.70878(18)
C45 C -0.0941(3) 0.7365(4) 0.80751(16)
H56 H -0.1556 0.8065 0.8078
H57 H -0.0790 0.7239 0.7702
H58 H -0.0188 0.7638 0.8311
C46 C -0.0214(4) 0.0923(4) 0.82999(18)
H59 H -0.0969 0.0669 0.8061
H60 H -0.0335 0.0901 0.8681
H61 H 0.0428 0.0290 0.8250
C47 C -0.2212(5) 0.8458(5) 0.9098(2)
H62 H -0.1358 0.8697 0.9212
H63 H -0.2703 0.8923 0.9331
H64 H -0.2478 0.8728 0.8717
C48 C -0.0118(3) 0.6255(6) 0.92817(16)
H65 H 0.0510 0.5777 0.9120
H66 H 0.0071 0.7229 0.9288
C49 C 0.4793(4) 0.2642(5) 0.7173(2)
H67 H 0.4587 0.3565 0.7124
C50 C -0.2915(4) 0.5766(6) 0.73569(17)
H68 H -0.2824 0.6700 0.7245
H69 H -0.3726 0.5441 0.7200
H70 H -0.2304 0.5204 0.7227
C51 C 0.5883(5) 0.2143(6) 0.7016(3)
H71 H 0.6397 0.2739 0.6862
C52 C -0.3413(5) 0.6880(7) 1.0035(2)
H72 H -0.3740 0.7767 0.9917
H73 H -0.3182 0.6868 1.0433
H74 H -0.4032 0.6191 0.9922
C53 C -0.0105(4) 0.5749(8) 0.98687(19)
H75 H 0.0009 0.4761 0.9879
H76 H 0.0590 0.6158 1.0114
C54 C -0.1266(4) 0.6093(7) 1.00749(18)
H77 H -0.1277 0.5951 1.0452
C55 C 0.8074(6) 0.0992(7) 0.6759(2)
H78 H 0.7995 0.1931 0.6691
C56 C 0.9167(5) 0.0050(7) 0.6671(2)
H79 H 0.8917 -0.0520 0.6350
H80 H 0.9402 -0.0518 0.6994
H81 H 0.9858 0.0606 0.6615
loop_
_geom_bond_atom_site_label_1
_geom_bond_atom_site_label_2
_geom_bond_site_symmetry_1
_geom_bond_site_symmetry_2
O1 C1 1_555 1_555
N1 H1 1_555 1_555
O2 C3 1_555 1_555
C1 N1 1_555 1_555
C2 N1 1_555 1_555
C3 C7 1_555 1_555
C4 C2 1_555 1_555
H2 C4 1_555 1_555
C5 C1 1_555 1_555
H3 C5 1_555 1_555
C6 C2 1_555 1_555
H4 C6 1_555 1_555
C7 C4 1_555 1_555
H5 C7 1_555 1_555
C8 C3 1_555 1_555
H6 C8 1_555 1_555
C9 H7 1_555 1_555
C10 C5 1_555 1_555
C11 C9 1_555 1_555
C12 C9 1_555 1_555
H8 C12 1_555 1_555
H9 C12 1_555 1_555
C13 C9 1_555 1_555
C14 C11 1_555 1_555
H10 C14 1_555 1_555
H11 C14 1_555 1_555
C15 C10 1_555 1_555
H12 C15 1_555 1_555
H13 C15 1_555 1_555
C16 O2 1_555 1_555
H14 C16 1_555 1_555
H15 C16 1_555 1_555
C17 H16 1_555 1_555
C18 C13 1_555 1_555
C19 C12 1_555 1_555
H17 C19 1_555 1_555
H18 C19 1_555 1_555
C20 C10 1_555 1_555
H19 C20 1_555 1_555
H20 C20 1_555 1_555
H21 C20 1_555 1_555
C21 C16 1_555 1_555
H22 C21 1_555 1_555
H23 C21 1_555 1_555
H24 C21 1_555 1_555
C22 C11 1_555 1_555
H25 C22 1_555 1_555
C23 C13 1_555 1_555
H26 C23 1_555 1_555
H27 C23 1_555 1_555
C24 C11 1_555 1_555
H28 C24 1_555 1_555
H29 C24 1_555 1_555
H30 C24 1_555 1_555
C25 C13 1_555 1_555
H31 C25 1_555 1_555
H32 C25 1_555 1_555
H33 C25 1_555 1_555
C26 C22 1_555 1_555
H34 C26 1_555 1_555
H35 C26 1_555 1_555
C27 C22 1_555 1_555
H36 C27 1_555 1_555
H37 C27 1_555 1_555
H38 C27 1_555 1_555
C28 C18 1_555 1_555
H39 C28 1_555 1_555
H40 C28 1_555 1_555
H41 C28 1_555 1_555
O3 C29 1_555 1_555
C29 N2 1_555 1_555
N2 H42 1_555 1_555
C30 H43 1_555 1_555
C31 C33 1_555 1_555
C32 C30 1_555 1_555
C33 C29 1_555 1_555
H44 C33 1_555 1_555
O4 C44 1_555 1_555
C34 C30 1_555 1_555
C35 N2 1_555 1_555
C36 C32 1_555 1_555
H45 C36 1_555 1_555
H46 C36 1_555 1_555
C37 C34 1_555 1_555
H47 C37 1_555 1_555
H48 C37 1_555 1_555
C38 C32 1_555 1_555
H49 C38 1_555 1_555
C39 C35 1_555 1_555
H50 C39 1_555 1_555
C40 C37 1_555 1_555
H51 C40 1_555 1_555
H52 C40 1_555 1_555
C41 C39 1_555 1_555
H53 C41 1_555 1_555
C42 C31 1_555 1_555
H54 C42 1_555 1_555
H55 C42 1_555 1_555
C43 C34 1_555 1_555
C44 C41 1_555 1_555
C45 C32 1_555 1_555
H56 C45 1_555 1_555
H57 C45 1_555 1_555
H58 C45 1_555 1_555
C46 C31 1_555 1_555
H59 C46 1_555 1_555
H60 C46 1_555 1_555
H61 C46 1_555 1_555
C47 C34 1_555 1_555
H62 C47 1_555 1_555
H63 C47 1_555 1_555
H64 C47 1_555 1_555
C48 C30 1_555 1_555
H65 C48 1_555 1_555
H66 C48 1_555 1_555
C49 C35 1_555 1_555
H67 C49 1_555 1_555
C50 C38 1_555 1_555
H68 C50 1_555 1_555
H69 C50 1_555 1_555
H70 C50 1_555 1_555
C51 C44 1_555 1_555
H71 C51 1_555 1_555
C52 C43 1_555 1_555
H72 C52 1_555 1_555
H73 C52 1_555 1_555
H74 C52 1_555 1_555
C53 C48 1_555 1_555
H75 C53 1_555 1_555
H76 C53 1_555 1_555
C54 C43 1_555 1_555
H77 C54 1_555 1_555
C55 O4 1_555 1_555
H78 C55 1_555 1_555
C56 C55 1_555 1_555
H79 C56 1_555 1_555
H80 C56 1_555 1_555
H81 C56 1_555 1_555
C6 C8 1_555 1_555
C14 C15 1_555 1_555
C17 C18 1_555 1_555
C17 C19 1_555 1_555
C23 C26 1_555 1_555
C36 C42 1_555 1_555
C38 C40 1_555 1_555
C49 C51 1_555 1_555
C53 C54 1_555 1_555

#END
