
#######################################################################
#
#                 Cambridge Crystallographic Data Centre
#                                CCDC 
#
#######################################################################
#
# If this CIF has been generated from an entry in the Cambridge 
# Structural Database, then it will include bibliographic, chemical, 
# crystal, experimental, refinement or atomic coordinate data resulting 
# from the CCDC's data processing and validation procedures.
#
#######################################################################

data_IKIGAM
_chemical_formula_moiety         'C48 H58 Ca1 N4 Si2'
_chemical_name_systematic        
(1,4,7,10-Tetramethyl-1,4,7,10-tetra-azacyclododecane)-bis(triphenylsilyl)-calcium
_symmetry_cell_setting           monoclinic
_symmetry_space_group_name_H-M   'C 2/c'
_symmetry_Int_Tables_number      15
_space_group_name_Hall           '-C 2yn'
loop_
_symmetry_equiv_pos_site_id
_symmetry_equiv_pos_as_xyz
1 x,y,z
2 -x,y,1/2-z
3 1/2+x,1/2+y,z
4 1/2-x,1/2+y,1/2-z
5 -x,-y,-z
6 x,-y,1/2+z
7 1/2-x,1/2-y,-z
8 1/2+x,1/2-y,1/2+z
_cell_length_a                   15.624(5)
_cell_length_b                   15.655(4)
_cell_length_c                   18.215(5)
_cell_angle_alpha                90
_cell_angle_beta                 109.090(8)
_cell_angle_gamma                90
_cell_volume                     4210.26
_exptl_crystal_colour            colorless
_exptl_crystal_description       block
_cell_formula_units_Z            4
_chemical_properties_physical    'Air-sensitive, Moisture-sensitive'
_exptl_crystal_recrystallization_method tetrahydrofuran
loop_
_atom_site_label
_atom_site_type_symbol
_atom_site_fract_x
_atom_site_fract_y
_atom_site_fract_z
Ca1 Ca 0.5000 0.08366(7) 0.7500
N1 N 0.3643(2) -0.0008(2) 0.6632(2)
N2 N 0.5520(2) -0.0239(2) 0.6641(2)
Si1 Si 0.58889(7) 0.23192(7) 0.68129(6)
C1 C 0.5239(3) 0.2787(3) 0.5803(2)
C2 C 0.5547(3) 0.3495(3) 0.5491(2)
H1 H 0.6106 0.3749 0.5785
C3 C 0.5072(3) 0.3842(3) 0.4773(2)
H2 H 0.5291 0.4337 0.4590
C4 C 0.4274(3) 0.3455(3) 0.4329(2)
H3 H 0.3940 0.3684 0.3835
C5 C 0.3962(3) 0.2740(3) 0.4601(2)
H4 H 0.3422 0.2467 0.4290
C6 C 0.4437(3) 0.2420(3) 0.5330(2)
H5 H 0.4207 0.1931 0.5513
C7 C 0.6151(3) 0.3272(3) 0.7510(2)
C8 C 0.6549(3) 0.3114(3) 0.8303(2)
H6 H 0.6662 0.2537 0.8470
C9 C 0.6788(3) 0.3751(3) 0.8858(3)
H7 H 0.7063 0.3608 0.9391
C10 C 0.6626(3) 0.4594(3) 0.8638(3)
H8 H 0.6794 0.5039 0.9012
C11 C 0.6216(3) 0.4774(3) 0.7867(3)
H9 H 0.6090 0.5351 0.7707
C12 C 0.5982(3) 0.4130(3) 0.7316(3)
H10 H 0.5695 0.4279 0.6787
C13 C 0.7052(3) 0.2170(2) 0.6675(2)
C14 C 0.7145(3) 0.1998(3) 0.5950(2)
H11 H 0.6613 0.1959 0.5509
C15 C 0.7976(3) 0.1881(3) 0.5847(2)
H12 H 0.8007 0.1767 0.5344
C16 C 0.8763(3) 0.1930(3) 0.6481(2)
H13 H 0.9338 0.1856 0.6417
C17 C 0.8699(3) 0.2088(3) 0.7204(2)
H14 H 0.9234 0.2120 0.7643
C18 C 0.7865(3) 0.2202(3) 0.7299(2)
H15 H 0.7842 0.2306 0.7806
C19 C 0.3948(5) -0.0762(5) 0.6305(4)
H16 H 0.3772 -0.0683 0.5736
H17 H 0.3611 -0.1264 0.6397
C20 C 0.4951(7) -0.0973(6) 0.6610(6)
H18 H 0.5100 -0.1218 0.7138
H19 H 0.5085 -0.1412 0.6272
C21 C 0.6529(7) -0.0481(7) 0.7215(6)
H20 H 0.6731 -0.0991 0.6995
H21 H 0.6936 -0.0006 0.7190
C22 C 0.6669(7) -0.0648(7) 0.8006(5)
H22 H 0.6360 -0.1188 0.8050
H23 H 0.7326 -0.0729 0.8278
C23 C 0.2942(3) 0.0570(3) 0.6174(3)
H24 H 0.3180 0.0915 0.5836
H25 H 0.2752 0.0947 0.6523
H26 H 0.2421 0.0238 0.5856
C24 C 0.5768(4) 0.0166(3) 0.6025(3)
H27 H 0.6293 0.0538 0.6252
H28 H 0.5258 0.0507 0.5702
H29 H 0.5922 -0.0273 0.5705
N1A N 0.6357(2) -0.0008(2) 0.8368(2)
N2A N 0.4480(2) -0.0239(2) 0.8359(2)
C19A C 0.6052(5) -0.0762(5) 0.8695(4)
H16A H 0.6228 -0.0683 0.9264
H17A H 0.6389 -0.1264 0.8603
C20A C 0.5049(7) -0.0973(6) 0.8390(6)
H18A H 0.4900 -0.1218 0.7862
H19A H 0.4915 -0.1412 0.8728
C21A C 0.3471(7) -0.0481(7) 0.7785(6)
H20A H 0.3269 -0.0991 0.8005
H21A H 0.3064 -0.0006 0.7810
C22A C 0.3331(7) -0.0648(7) 0.6994(5)
H22A H 0.3640 -0.1188 0.6950
H23A H 0.2674 -0.0729 0.6722
C23A C 0.7058(3) 0.0570(3) 0.8826(3)
H24A H 0.6820 0.0915 0.9164
H25A H 0.7248 0.0947 0.8477
H26A H 0.7579 0.0238 0.9144
C24A C 0.4232(4) 0.0166(3) 0.8975(3)
H27A H 0.3707 0.0538 0.8748
H28A H 0.4742 0.0507 0.9298
H29A H 0.4078 -0.0273 0.9295
Si1A Si 0.41111(7) 0.23192(7) 0.81871(6)
C1A C 0.4761(3) 0.2787(3) 0.9197(2)
C2A C 0.4453(3) 0.3495(3) 0.9509(2)
H1A H 0.3894 0.3749 0.9215
C3A C 0.4928(3) 0.3842(3) 1.0227(2)
H2A H 0.4709 0.4337 1.0410
C4A C 0.5726(3) 0.3455(3) 1.0671(2)
H3A H 0.6060 0.3684 1.1165
C5A C 0.6038(3) 0.2740(3) 1.0399(2)
H4A H 0.6578 0.2467 1.0710
C6A C 0.5563(3) 0.2420(3) 0.9670(2)
H5A H 0.5793 0.1931 0.9487
C7A C 0.3849(3) 0.3272(3) 0.7490(2)
C8A C 0.3451(3) 0.3114(3) 0.6697(2)
H6A H 0.3338 0.2537 0.6530
C9A C 0.3212(3) 0.3751(3) 0.6142(3)
H7A H 0.2937 0.3608 0.5609
C10A C 0.3374(3) 0.4594(3) 0.6362(3)
H8A H 0.3206 0.5039 0.5988
C11A C 0.3784(3) 0.4774(3) 0.7133(3)
H9A H 0.3910 0.5351 0.7293
C12A C 0.4018(3) 0.4130(3) 0.7684(3)
H10A H 0.4305 0.4279 0.8213
C13A C 0.2948(3) 0.2170(2) 0.8325(2)
C14A C 0.2855(3) 0.1998(3) 0.9050(2)
H11A H 0.3387 0.1959 0.9491
C15A C 0.2024(3) 0.1881(3) 0.9153(2)
H12A H 0.1993 0.1767 0.9656
C16A C 0.1237(3) 0.1930(3) 0.8519(2)
H13A H 0.0662 0.1856 0.8583
C17A C 0.1301(3) 0.2088(3) 0.7796(2)
H14A H 0.0766 0.2120 0.7357
C18A C 0.2135(3) 0.2202(3) 0.7701(2)
H15A H 0.2158 0.2306 0.7194
C25? C 0.3900(7) -0.0323(6) 0.5911(5)
H30? H 0.3415 -0.0709 0.5599
H31? H 0.3911 0.0178 0.5583
C26? C 0.4679(6) -0.0724(6) 0.6070(5)
H32? H 0.4798 -0.0833 0.5577
H33? H 0.4624 -0.1286 0.6301
C27? C 0.6156(6) -0.0841(6) 0.7066(5)
H34? H 0.6492 -0.1089 0.6741
H35? H 0.5852 -0.1309 0.7251
C28? C 0.6815(6) -0.0343(6) 0.7771(6)
H36? H 0.7068 0.0150 0.7570
H37? H 0.7325 -0.0723 0.8047
loop_
_geom_bond_atom_site_label_1
_geom_bond_atom_site_label_2
_geom_bond_site_symmetry_1
_geom_bond_site_symmetry_2
Ca1 N1 1_555 1_555
N1 C19 1_555 1_555
N2 Ca1 1_555 1_555
Si1 Ca1 1_555 1_555
C1 Si1 1_555 1_555
C2 C1 1_555 1_555
H1 C2 1_555 1_555
C3 C2 1_555 1_555
H2 C3 1_555 1_555
C4 C3 1_555 1_555
H3 C4 1_555 1_555
C5 C4 1_555 1_555
H4 C5 1_555 1_555
C6 C1 1_555 1_555
H5 C6 1_555 1_555
C7 Si1 1_555 1_555
C8 C7 1_555 1_555
H6 C8 1_555 1_555
C9 C8 1_555 1_555
H7 C9 1_555 1_555
C10 C9 1_555 1_555
H8 C10 1_555 1_555
C11 C10 1_555 1_555
H9 C11 1_555 1_555
C12 C7 1_555 1_555
H10 C12 1_555 1_555
C13 Si1 1_555 1_555
C14 C13 1_555 1_555
H11 C14 1_555 1_555
C15 C14 1_555 1_555
H12 C15 1_555 1_555
C16 C15 1_555 1_555
H13 C16 1_555 1_555
C17 C16 1_555 1_555
H14 C17 1_555 1_555
C18 C13 1_555 1_555
H15 C18 1_555 1_555
C19 H16 1_555 1_555
H17 C19 1_555 1_555
C20 N2 1_555 1_555
H18 C20 1_555 1_555
H19 C20 1_555 1_555
C21 N2 1_555 1_555
H20 C21 1_555 1_555
H21 C21 1_555 1_555
C22 C21 1_555 1_555
H22 C22 1_555 1_555
H23 C22 1_555 1_555
C23 N1 1_555 1_555
H24 C23 1_555 1_555
H25 C23 1_555 1_555
H26 C23 1_555 1_555
C24 N2 1_555 1_555
H27 C24 1_555 1_555
H28 C24 1_555 1_555
H29 C24 1_555 1_555
N1A Ca1 1_555 1_555
N2A Ca1 1_555 1_555
C19A N1A 1_555 1_555
H16A C19A 1_555 1_555
H17A C19A 1_555 1_555
C20A N2A 1_555 1_555
H18A C20A 1_555 1_555
H19A C20A 1_555 1_555
C21A N2A 1_555 1_555
H20A C21A 1_555 1_555
H21A C21A 1_555 1_555
C22A N1 1_555 1_555
H22A C22A 1_555 1_555
H23A C22A 1_555 1_555
C23A N1A 1_555 1_555
H24A C23A 1_555 1_555
H25A C23A 1_555 1_555
H26A C23A 1_555 1_555
C24A N2A 1_555 1_555
H27A C24A 1_555 1_555
H28A C24A 1_555 1_555
H29A C24A 1_555 1_555
Si1A Ca1 1_555 1_555
C1A Si1A 1_555 1_555
C2A C1A 1_555 1_555
H1A C2A 1_555 1_555
C3A C2A 1_555 1_555
H2A C3A 1_555 1_555
C4A C3A 1_555 1_555
H3A C4A 1_555 1_555
C5A C4A 1_555 1_555
H4A C5A 1_555 1_555
C6A C1A 1_555 1_555
H5A C6A 1_555 1_555
C7A Si1A 1_555 1_555
C8A C7A 1_555 1_555
H6A C8A 1_555 1_555
C9A C8A 1_555 1_555
H7A C9A 1_555 1_555
C10A C9A 1_555 1_555
H8A C10A 1_555 1_555
C11A C10A 1_555 1_555
H9A C11A 1_555 1_555
C12A C7A 1_555 1_555
H10A C12A 1_555 1_555
C13A Si1A 1_555 1_555
C14A C13A 1_555 1_555
H11A C14A 1_555 1_555
C15A C14A 1_555 1_555
H12A C15A 1_555 1_555
C16A C15A 1_555 1_555
H13A C16A 1_555 1_555
C17A C16A 1_555 1_555
H14A C17A 1_555 1_555
C18A C13A 1_555 1_555
H15A C18A 1_555 1_555
C5 C6 1_555 1_555
C11 C12 1_555 1_555
C17 C18 1_555 1_555
C19 C20 1_555 1_555
C22 N1A 1_555 1_555
C19A C20A 1_555 1_555
C21A C22A 1_555 1_555
C5A C6A 1_555 1_555
C11A C12A 1_555 1_555
C17A C18A 1_555 1_555

#END
