
#######################################################################
#
#                 Cambridge Crystallographic Data Centre
#                                CCDC 
#
#######################################################################
#
# If this CIF has been generated from an entry in the Cambridge 
# Structural Database, then it will include bibliographic, chemical, 
# crystal, experimental, refinement or atomic coordinate data resulting 
# from the CCDC's data processing and validation procedures.
#
#######################################################################

data_IKIKUI
_chemical_compound_source        'Aspergillus sp. Y80118'
_chemical_formula_moiety         'C16 H14 O7'
_chemical_name_systematic        
'7,8-dihydro-1,7-dihydroxy-3-hydroxymethyl-9-oxo-9H-xanthen-8-carboxylic acid methyl ester'
_chemical_properties_biological  'antiangiogenic activity'
_symmetry_cell_setting           triclinic
_symmetry_space_group_name_H-M   'P -1'
_symmetry_Int_Tables_number      2
_space_group_name_Hall           '-P 1'
loop_
_symmetry_equiv_pos_site_id
_symmetry_equiv_pos_as_xyz
1 x,y,z
2 -x,-y,-z
_cell_length_a                   8.079(1)
_cell_length_b                   9.824(1)
_cell_length_c                   10.226(1)
_cell_angle_alpha                67.00(1)
_cell_angle_beta                 68.90(1)
_cell_angle_gamma                70.76(1)
_cell_volume                     679.944
_exptl_crystal_colour            yellow
_exptl_crystal_description       prism
_chemical_melting_point          '166-168 deg.C'
_cell_formula_units_Z            2
_exptl_crystal_recrystallization_method methanol
loop_
_atom_site_label
_atom_site_type_symbol
_atom_site_fract_x
_atom_site_fract_y
_atom_site_fract_z
O1 O 0.96794(8) 0.28782(7) 0.51049(7)
O2 O 1.39101(9) -0.17082(7) 0.68880(8)
O3 O 0.60105(9) 0.30830(9) 0.98620(8)
O4 O 1.22019(9) 0.02940(7) 0.83793(7)
O5 O 1.4649(1) -0.1471(1) 0.17454(9)
O6 O 1.1099(1) 0.3367(1) 0.99841(9)
O7 O 1.1461(1) 0.43587(9) 0.75597(8)
C1 C 1.3105(1) -0.0689(1) 0.5830(1)
C2 C 1.3569(1) -0.0950(1) 0.4499(1)
C3 C 1.2786(1) 0.0078(1) 0.3375(1)
C4 C 1.1469(1) 0.1357(1) 0.3599(1)
C5 C 0.7829(1) 0.4611(1) 0.6389(1)
C6 C 0.7056(1) 0.4974(1) 0.7629(1)
C7 C 0.7420(1) 0.3910(1) 0.9069(1)
C8 C 0.9324(1) 0.2816(1) 0.8881(1)
C9 C 1.1356(1) 0.1018(1) 0.7408(1)
C10 C 1.1809(1) 0.0627(1) 0.6076(1)
C11 C 1.0991(1) 0.1598(1) 0.4936(1)
C12 C 0.9179(1) 0.3196(1) 0.6387(1)
C13 C 0.9904(1) 0.2332(1) 0.7530(1)
C14 C 1.3363(2) -0.0107(1) 0.1867(1)
C15 C 1.0727(1) 0.3519(1) 0.8895(1)
C16 C 1.2738(2) 0.5171(2) 0.7433(2)
H1 H 1.360(2) -0.138(1) 0.763(1)
H2 H 0.596(2) 0.260(1) 0.928(1)
H3 H 1.562(3) -0.115(2) 0.157(2)
H4 H 1.442(1) -0.182(1) 0.437(1)
H5 H 1.090(2) 0.205(1) 0.287(1)
H6 H 0.755(1) 0.523(1) 0.545(1)
H7 H 0.618(1) 0.591(1) 0.762(1)
H8 H 0.733(1) 0.453(1) 0.970(1)
H9 H 0.917(1) 0.192(1) 0.974(1)
H10 H 1.232(1) -0.015(1) 0.153(1)
H11 H 1.388(1) 0.079(1) 0.119(1)
H12 H 1.321(2) 0.570(2) 0.638(2)
H13 H 1.219(2) 0.588(2) 0.791(2)
H14 H 1.362(2) 0.452(2) 0.797(1)
loop_
_geom_bond_atom_site_label_1
_geom_bond_atom_site_label_2
_geom_bond_site_symmetry_1
_geom_bond_site_symmetry_2
O1 C11 1_555 1_555
O2 C1 1_555 1_555
O3 C7 1_555 1_555
O4 C9 1_555 1_555
O5 C14 1_555 1_555
O6 C15 1_555 1_555
O7 C15 1_555 1_555
C1 C2 1_555 1_555
C2 C3 1_555 1_555
C3 C4 1_555 1_555
C4 C11 1_555 1_555
C5 C6 1_555 1_555
C6 C7 1_555 1_555
C7 C8 1_555 1_555
C8 C13 1_555 1_555
C9 C10 1_555 1_555
C10 C1 1_555 1_555
C11 C10 1_555 1_555
C12 O1 1_555 1_555
C13 C9 1_555 1_555
C14 C3 1_555 1_555
C15 C8 1_555 1_555
C16 O7 1_555 1_555
H1 O2 1_555 1_555
H2 O3 1_555 1_555
H3 O5 1_555 1_555
H4 C2 1_555 1_555
H5 C4 1_555 1_555
H6 C5 1_555 1_555
H7 C6 1_555 1_555
H8 C7 1_555 1_555
H9 C8 1_555 1_555
H10 C14 1_555 1_555
H11 C14 1_555 1_555
H12 C16 1_555 1_555
H13 C16 1_555 1_555
H14 C16 1_555 1_555
C5 C12 1_555 1_555
C12 C13 1_555 1_555

#END
