
#######################################################################
#
#                 Cambridge Crystallographic Data Centre
#                                CCDC 
#
#######################################################################
#
# If this CIF has been generated from an entry in the Cambridge 
# Structural Database, then it will include bibliographic, chemical, 
# crystal, experimental, refinement or atomic coordinate data resulting 
# from the CCDC's data processing and validation procedures.
#
#######################################################################

data_IKIRUR
_chemical_formula_moiety         'C54 H46 N2'
_chemical_name_systematic        
4,4'-(naphthalene-1,4-diyldiethene-2,1-diyl)bis(N,N-bis(4-methylphenyl)aniline)
_symmetry_cell_setting           triclinic
_symmetry_space_group_name_H-M   'P -1'
_symmetry_Int_Tables_number      2
_space_group_name_Hall           '-P 1'
loop_
_symmetry_equiv_pos_site_id
_symmetry_equiv_pos_as_xyz
1 x,y,z
2 -x,-y,-z
_cell_length_a                   7.4090(18)
_cell_length_b                   13.635(3)
_cell_length_c                   24.717(6)
_cell_angle_alpha                82.373(4)
_cell_angle_beta                 86.437(4)
_cell_angle_gamma                74.790(4)
_cell_volume                     2387.2
_exptl_crystal_colour            yellow
_exptl_crystal_description       prism
_cell_formula_units_Z            2
loop_
_atom_site_label
_atom_site_type_symbol
_atom_site_fract_x
_atom_site_fract_y
_atom_site_fract_z
C1 C 0.4737(8) 0.2012(6) -0.0235(2)
H1 H 0.5410 0.1650 -0.0523
H2 H 0.4618 0.2732 -0.0327
H3 H 0.3515 0.1890 -0.0186
C2 C 0.5791(7) 0.1638(5) 0.0291(2)
C3 C 0.5363(8) 0.2179(4) 0.0749(2)
H4 H 0.4412 0.2782 0.0730
C4 C 0.6332(7) 0.1829(4) 0.1225(2)
H5 H 0.6036 0.2207 0.1519
C5 C 0.7727(7) 0.0930(4) 0.12726(18)
C6 C 0.8180(7) 0.0397(4) 0.08188(19)
H6 H 0.9132 -0.0206 0.0837
C7 C 0.7216(7) 0.0763(5) 0.0341(2)
H7 H 0.7552 0.0399 0.0042
C8 C 1.0634(7) 0.0012(4) 0.17372(18)
C9 C 1.1895(7) 0.0307(4) 0.13623(19)
H8 H 1.1497 0.0905 0.1125
C10 C 1.3706(7) -0.0246(4) 0.1327(2)
H9 H 1.4495 -0.0039 0.1054
C11 C 1.4395(8) -0.1107(4) 0.1687(2)
C12 C 1.6425(8) -0.1704(5) 0.1678(3)
H10 H 1.6874 -0.1741 0.1306
H11 H 1.6540 -0.2383 0.1860
H12 H 1.7152 -0.1366 0.1861
C13 C 1.3118(9) -0.1402(4) 0.2077(2)
H13 H 1.3532 -0.1977 0.2329
C14 C 1.1284(8) -0.0865(4) 0.2095(2)
H14 H 1.0462 -0.1092 0.2350
C15 C 0.7828(7) 0.0710(4) 0.22805(18)
C16 C 0.5990(8) 0.0648(4) 0.2375(2)
H15 H 0.5325 0.0530 0.2094
C17 C 0.5140(8) 0.0762(5) 0.2891(2)
H16 H 0.3906 0.0726 0.2949
C18 C 0.6107(8) 0.0931(4) 0.33230(19)
C19 C 0.7947(7) 0.1007(4) 0.32084(19)
H17 H 0.8622 0.1138 0.3483
C20 C 0.8772(7) 0.0893(4) 0.27031(18)
H18 H 0.9999 0.0941 0.2643
C21 C 0.5159(8) 0.1035(4) 0.3853(2)
H19 H 0.3932 0.0977 0.3880
C22 C 0.5869(8) 0.1205(4) 0.4306(2)
H20 H 0.7134 0.1186 0.4290
C23 C 0.4874(7) 0.1416(4) 0.48205(19)
C24 C 0.2932(8) 0.1784(5) 0.4832(2)
H21 H 0.2267 0.1832 0.4518
C25 C 0.1983(8) 0.2081(5) 0.5314(2)
H22 H 0.0690 0.2339 0.5309
C26 C 0.2880(8) 0.2008(4) 0.5798(2)
C27 C 0.4831(7) 0.1572(4) 0.58064(18)
C28 C 0.5831(7) 0.1269(4) 0.53193(19)
C29 C 0.7782(8) 0.0833(5) 0.5349(2)
H23 H 0.8441 0.0621 0.5034
C30 C 0.8732(8) 0.0709(5) 0.5812(2)
H24 H 1.0021 0.0434 0.5812
C31 C 0.7754(8) 0.0999(5) 0.6289(2)
H25 H 0.8390 0.0914 0.6612
C32 C 0.5842(8) 0.1413(4) 0.6284(2)
H26 H 0.5208 0.1591 0.6607
C33 C 0.1813(8) 0.2396(4) 0.6283(2)
H27 H 0.2478 0.2268 0.6603
C34 C 0.0046(8) 0.2898(4) 0.6323(2)
H28 H -0.0662 0.3000 0.6013
C35 C -0.0903(7) 0.3309(4) 0.68091(19)
C36 C -0.2851(8) 0.3606(4) 0.6841(2)
H29 H -0.3533 0.3568 0.6544
C37 C -0.3795(7) 0.3960(4) 0.7313(2)
H30 H -0.5096 0.4155 0.7325
C38 C -0.2838(7) 0.4026(4) 0.77565(19)
C39 C -0.0881(7) 0.3780(4) 0.7717(2)
H31 H -0.0200 0.3850 0.8007
C40 C 0.0035(8) 0.3438(4) 0.7252(2)
H32 H 0.1334 0.3287 0.7233
C41 C -0.2934(7) 0.4033(4) 0.87612(19)
C42 C -0.1737(7) 0.3074(4) 0.8885(2)
H33 H -0.1485 0.2610 0.8629
C43 C -0.0911(8) 0.2802(5) 0.9388(2)
H34 H -0.0070 0.2165 0.9460
C44 C -0.1306(8) 0.3455(5) 0.9784(2)
C45 C -0.0381(10) 0.3144(6) 1.0340(2)
H35 H 0.0590 0.3487 1.0354
H36 H 0.0147 0.2416 1.0391
H37 H -0.1302 0.3332 1.0624
C46 C -0.2540(8) 0.4385(5) 0.9658(2)
H38 H -0.2840 0.4834 0.9921
C47 C -0.3352(8) 0.4685(4) 0.9163(2)
H39 H -0.4187 0.5326 0.9095
C48 C -0.5661(7) 0.4959(4) 0.8225(2)
C49 C -0.6133(8) 0.5859(4) 0.7882(2)
H40 H -0.5221 0.6080 0.7660
C50 C -0.7961(9) 0.6432(5) 0.7869(3)
H41 H -0.8280 0.7024 0.7622
C51 C -0.9325(8) 0.6159(5) 0.8206(3)
C52 C -1.1324(9) 0.6802(7) 0.8197(3)
H42 H -1.1407 0.7418 0.7951
H43 H -1.1720 0.6975 0.8557
H44 H -1.2116 0.6422 0.8078
C53 C -0.8832(8) 0.5262(5) 0.8547(2)
H45 H -0.9742 0.5054 0.8775
C54 C -0.7017(8) 0.4658(4) 0.8561(2)
H46 H -0.6713 0.4051 0.8796
N1 N 0.8717(6) 0.0563(3) 0.17586(15)
N2 N -0.3793(6) 0.4345(4) 0.82427(17)
loop_
_geom_bond_atom_site_label_1
_geom_bond_atom_site_label_2
_geom_bond_site_symmetry_1
_geom_bond_site_symmetry_2
C1 H1 1_555 1_555
H2 C1 1_555 1_555
H3 C1 1_555 1_555
C2 C1 1_555 1_555
C3 C2 1_555 1_555
H4 C3 1_555 1_555
C4 C3 1_555 1_555
H5 C4 1_555 1_555
C5 C4 1_555 1_555
C6 C5 1_555 1_555
H6 C6 1_555 1_555
C7 C2 1_555 1_555
H7 C7 1_555 1_555
C8 C9 1_555 1_555
C9 H8 1_555 1_555
C10 C9 1_555 1_555
H9 C10 1_555 1_555
C11 C10 1_555 1_555
C12 C11 1_555 1_555
H10 C12 1_555 1_555
H11 C12 1_555 1_555
H12 C12 1_555 1_555
C13 C11 1_555 1_555
H13 C13 1_555 1_555
C14 C8 1_555 1_555
H14 C14 1_555 1_555
C15 C16 1_555 1_555
C16 H15 1_555 1_555
C17 C16 1_555 1_555
H16 C17 1_555 1_555
C18 C17 1_555 1_555
C19 C18 1_555 1_555
H17 C19 1_555 1_555
C20 C15 1_555 1_555
H18 C20 1_555 1_555
C21 C18 1_555 1_555
H19 C21 1_555 1_555
C22 C21 1_555 1_555
H20 C22 1_555 1_555
C23 C22 1_555 1_555
C24 C23 1_555 1_555
H21 C24 1_555 1_555
C25 C24 1_555 1_555
H22 C25 1_555 1_555
C26 C25 1_555 1_555
C27 C26 1_555 1_555
C28 C23 1_555 1_555
C29 C28 1_555 1_555
H23 C29 1_555 1_555
C30 C29 1_555 1_555
H24 C30 1_555 1_555
C31 C30 1_555 1_555
H25 C31 1_555 1_555
C32 C27 1_555 1_555
H26 C32 1_555 1_555
C33 C26 1_555 1_555
H27 C33 1_555 1_555
C34 C33 1_555 1_555
H28 C34 1_555 1_555
C35 C34 1_555 1_555
C36 C35 1_555 1_555
H29 C36 1_555 1_555
C37 C36 1_555 1_555
H30 C37 1_555 1_555
C38 C37 1_555 1_555
C39 C38 1_555 1_555
H31 C39 1_555 1_555
C40 C35 1_555 1_555
H32 C40 1_555 1_555
C41 C42 1_555 1_555
C42 H33 1_555 1_555
C43 C42 1_555 1_555
H34 C43 1_555 1_555
C44 C43 1_555 1_555
C45 C44 1_555 1_555
H35 C45 1_555 1_555
H36 C45 1_555 1_555
H37 C45 1_555 1_555
C46 C44 1_555 1_555
H38 C46 1_555 1_555
C47 C41 1_555 1_555
H39 C47 1_555 1_555
C48 C49 1_555 1_555
C49 H40 1_555 1_555
C50 C49 1_555 1_555
H41 C50 1_555 1_555
C51 C50 1_555 1_555
C52 C51 1_555 1_555
H42 C52 1_555 1_555
H43 C52 1_555 1_555
H44 C52 1_555 1_555
C53 C51 1_555 1_555
H45 C53 1_555 1_555
C54 C48 1_555 1_555
H46 C54 1_555 1_555
N1 C5 1_555 1_555
N2 C38 1_555 1_555
C6 C7 1_555 1_555
C8 N1 1_555 1_555
C13 C14 1_555 1_555
C15 N1 1_555 1_555
C19 C20 1_555 1_555
C27 C28 1_555 1_555
C31 C32 1_555 1_555
C39 C40 1_555 1_555
C41 N2 1_555 1_555
C46 C47 1_555 1_555
C48 N2 1_555 1_555
C53 C54 1_555 1_555

#END
