
#######################################################################
#
#                 Cambridge Crystallographic Data Centre
#                                CCDC 
#
#######################################################################
#
# If this CIF has been generated from an entry in the Cambridge 
# Structural Database, then it will include bibliographic, chemical, 
# crystal, experimental, refinement or atomic coordinate data resulting 
# from the CCDC's data processing and validation procedures.
#
#######################################################################

data_IKOJAT
_chemical_formula_moiety         'C19 H19 N6 O1 P1,1.13(C1 H1 Cl3)'
_chemical_name_systematic        
'9-(2-((Diphenylphosphoryl)amino)ethyl)adenine chloroform solvate'
_symmetry_cell_setting           monoclinic
_symmetry_space_group_name_H-M   'P 21'
_symmetry_Int_Tables_number      4
_space_group_name_Hall           'P 2yb'
loop_
_symmetry_equiv_pos_site_id
_symmetry_equiv_pos_as_xyz
1 x,y,z
2 -x,1/2+y,-z
_cell_length_a                   15.8751(18)
_cell_length_b                   8.4370(10)
_cell_length_c                   20.658(2)
_cell_angle_alpha                90
_cell_angle_beta                 111.474(2)
_cell_angle_gamma                90
_cell_volume                     2574.83
_exptl_crystal_colour            colorless
_exptl_crystal_description       block
_cell_formula_units_Z            4
loop_
_atom_site_label
_atom_site_type_symbol
_atom_site_fract_x
_atom_site_fract_y
_atom_site_fract_z
P1 P 0.4731(2) 0.2262(7) 0.19756(16)
O1 O 0.3926(5) 0.3074(11) 0.2022(4)
N1 N 0.8941(7) 0.3770(15) 0.3445(6)
C1 C 0.8364(9) 0.4154(18) 0.3761(7)
H1 H 0.8436 0.5168 0.3949
N2 N 0.7725(7) 0.3326(15) 0.3844(5)
C2 C 0.7730(7) 0.1881(16) 0.3577(6)
C3 C 0.8291(8) 0.1280(15) 0.3261(6)
C4 C 0.8931(7) 0.2307(17) 0.3207(6)
N3 N 0.9511(6) 0.1884(14) 0.2895(5)
H2 H 0.9941 0.2659 0.2843
H3 H 0.9501 0.0801 0.2720
N4 N 0.8067(7) -0.0304(14) 0.3047(5)
C5 C 0.7380(8) -0.0614(17) 0.3262(6)
H4 H 0.7092 -0.1594 0.3198
N5 N 0.7139(7) 0.0635(14) 0.3582(5)
C6 C 0.6355(8) 0.0714(16) 0.3789(6)
H5 H 0.6544 0.1115 0.4260
H6 H 0.6117 -0.0347 0.3785
C7 C 0.5638(7) 0.1732(16) 0.3329(5)
H7 H 0.5880 0.2777 0.3306
H8 H 0.5160 0.1843 0.3514
N6 N 0.5263(5) 0.1041(13) 0.2624(4)
H9 H 0.5326 -0.0090 0.2544
C8 C 0.5566(8) 0.3656(16) 0.1967(6)
C9 C 0.5382(9) 0.5310(16) 0.1955(6)
H10 H 0.4818 0.5665 0.1935
C10 C 0.6048(10) 0.6384(17) 0.1974(7)
H11 H 0.5936 0.7463 0.1988
C11 C 0.6867(10) 0.589(2) 0.1973(6)
H12 H 0.7294 0.6643 0.1973
C12 C 0.7083(9) 0.428(2) 0.1971(6)
H13 H 0.7642 0.3938 0.1974
C13 C 0.6420(8) 0.3253(16) 0.1964(5)
H14 H 0.6546 0.2179 0.1956
C14 C 0.4487(7) 0.1069(15) 0.1211(6)
C15 C 0.4326(8) -0.0599(16) 0.1192(7)
H15 H 0.4391 -0.1118 0.1605
C16 C 0.4083(11) -0.1458(18) 0.0593(9)
H16 H 0.3959 -0.2535 0.0599
C17 C 0.4020(9) -0.075(2) -0.0009(8)
H17 H 0.3863 -0.1335 -0.0417
C18 C 0.4196(10) 0.090(2) -0.0017(7)
H18 H 0.4162 0.1402 -0.0427
C19 C 0.4431(8) 0.1791(18) 0.0630(7)
H19 H 0.4542 0.2874 0.0633
P2 P 0.3912(2) 0.7082(7) 0.29898(16)
O2 O 0.4584(5) 0.8043(10) 0.2796(4)
N7 N -0.0287(8) 0.8766(16) 0.2223(6)
C20 C 0.0161(9) 0.9062(17) 0.1810(8)
H20 H 0.0077 1.0087 0.1632
N8 N 0.0705(6) 0.8196(14) 0.1599(6)
C21 C 0.0724(8) 0.6766(17) 0.1862(7)
C22 C 0.0307(9) 0.6196(16) 0.2294(7)
C23 C -0.0254(8) 0.7346(17) 0.2459(6)
N9 N -0.0735(6) 0.6983(13) 0.2852(5)
H21 H -0.1107 0.7794 0.2958
H22 H -0.0715 0.5905 0.3035
N10 N 0.0496(6) 0.4608(13) 0.2465(5)
C24 C 0.1066(8) 0.4278(16) 0.2145(7)
H23 H 0.1331 0.3285 0.2171
N11 N 0.1232(6) 0.5485(13) 0.1781(5)
C25 C 0.1842(8) 0.5478(15) 0.1390(6)
H24 H 0.1521 0.5888 0.0926
H25 H 0.2020 0.4395 0.1345
C26 C 0.2694(7) 0.6481(15) 0.1746(6)
H26 H 0.3040 0.6539 0.1444
H27 H 0.2514 0.7550 0.1811
N12 N 0.3245(5) 0.5868(12) 0.2390(4)
H28 H 0.3238 0.4732 0.2486
C27 C 0.3134(8) 0.8459(17) 0.3172(6)
C28 C 0.3266(9) 1.0000(19) 0.3147(7)
H29 H 0.3748 1.0395 0.3043
C29 C 0.2637(12) 1.105(2) 0.3287(10)
H30 H 0.2686 1.2138 0.3253
C30 C 0.1972(14) 1.041(3) 0.3470(11)
H31 H 0.1569 1.1098 0.3556
C31 C 0.1862(11) 0.894(3) 0.3533(9)
H32 H 0.1390 0.8571 0.3656
C32 C 0.2482(9) 0.7883(18) 0.3409(6)
H33 H 0.2450 0.6803 0.3486
C33 C 0.4518(9) 0.5857(14) 0.3718(6)
C34 C 0.4072(11) 0.480(2) 0.4020(10)
H34 H 0.3447 0.4674 0.3834
C35 C 0.4645(18) 0.391(2) 0.4647(10)
H35 H 0.4373 0.3308 0.4892
C36 C 0.5515(16) 0.397(3) 0.4854(9)
H36 H 0.5858 0.3325 0.5220
C37 C 0.5954(14) 0.498(3) 0.4546(10)
H37 H 0.6582 0.5076 0.4717
C38 C 0.5436(10) 0.5807(17) 0.3998(8)
H38 H 0.5738 0.6425 0.3779
C39 C 0.1127(3) 0.0289(8) 0.0524(3)
H39 H 0.0946 -0.0623 0.0737
Cl1 Cl 0.2183(3) 0.1059(7) 0.1075(3)
Cl2 Cl 0.0333(3) 0.1851(7) 0.0364(2)
Cl3 Cl 0.1213(5) -0.0230(9) -0.0280(3)
C40 C 0.2252(3) 0.4762(6) -0.1121(4)
H40 H 0.1960 0.4484 -0.1614
Cl4 Cl 0.3441(3) 0.4900(7) -0.0876(3)
Cl5 Cl 0.1873(4) 0.6624(7) -0.0941(4)
Cl6 Cl 0.2040(4) 0.3312(12) -0.0581(5)
C41 C 0.9032(7) 0.8975(9) 0.5503(7)
Cl7 Cl 0.9412(6) 0.909(2) 0.4798(5)
Cl8 Cl 0.8922(10) 1.1036(9) 0.5333(6)
Cl9 Cl 0.8350(17) 0.7388(17) 0.5035(6)
Cl10? Cl 0.7899(6) 0.9147(19) 0.5452(6)
loop_
_geom_bond_atom_site_label_1
_geom_bond_atom_site_label_2
_geom_bond_site_symmetry_1
_geom_bond_site_symmetry_2
P1 O1 1_555 1_555
N1 C1 1_555 1_555
C1 H1 1_555 1_555
N2 C1 1_555 1_555
C2 N2 1_555 1_555
C3 C2 1_555 1_555
C4 N1 1_555 1_555
N3 C4 1_555 1_555
H2 N3 1_555 1_555
H3 N3 1_555 1_555
N4 C3 1_555 1_555
C5 N4 1_555 1_555
H4 C5 1_555 1_555
N5 C2 1_555 1_555
C6 N5 1_555 1_555
H5 C6 1_555 1_555
H6 C6 1_555 1_555
C7 C6 1_555 1_555
H7 C7 1_555 1_555
H8 C7 1_555 1_555
N6 P1 1_555 1_555
H9 N6 1_555 1_555
C8 P1 1_555 1_555
C9 C8 1_555 1_555
H10 C9 1_555 1_555
C10 C9 1_555 1_555
H11 C10 1_555 1_555
C11 C10 1_555 1_555
H12 C11 1_555 1_555
C12 C11 1_555 1_555
H13 C12 1_555 1_555
C13 C8 1_555 1_555
H14 C13 1_555 1_555
C14 P1 1_555 1_555
C15 C14 1_555 1_555
H15 C15 1_555 1_555
C16 C15 1_555 1_555
H16 C16 1_555 1_555
C17 C16 1_555 1_555
H17 C17 1_555 1_555
C18 C17 1_555 1_555
H18 C18 1_555 1_555
C19 C14 1_555 1_555
H19 C19 1_555 1_555
P2 O2 1_555 1_555
N7 C20 1_555 1_555
C20 H20 1_555 1_555
N8 C20 1_555 1_555
C21 N8 1_555 1_555
C22 C21 1_555 1_555
C23 N7 1_555 1_555
N9 C23 1_555 1_555
H21 N9 1_555 1_555
H22 N9 1_555 1_555
N10 C22 1_555 1_555
C24 N10 1_555 1_555
H23 C24 1_555 1_555
N11 C21 1_555 1_555
C25 N11 1_555 1_555
H24 C25 1_555 1_555
H25 C25 1_555 1_555
C26 C25 1_555 1_555
H26 C26 1_555 1_555
H27 C26 1_555 1_555
N12 P2 1_555 1_555
H28 N12 1_555 1_555
C27 P2 1_555 1_555
C28 C27 1_555 1_555
H29 C28 1_555 1_555
C29 C28 1_555 1_555
H30 C29 1_555 1_555
C30 C29 1_555 1_555
H31 C30 1_555 1_555
C31 C30 1_555 1_555
H32 C31 1_555 1_555
C32 C27 1_555 1_555
H33 C32 1_555 1_555
C33 P2 1_555 1_555
C34 C33 1_555 1_555
H34 C34 1_555 1_555
C35 C34 1_555 1_555
H35 C35 1_555 1_555
C36 C35 1_555 1_555
H36 C36 1_555 1_555
C37 C36 1_555 1_555
H37 C37 1_555 1_555
C38 C33 1_555 1_555
H38 C38 1_555 1_555
C39 H39 1_555 1_555
Cl1 C39 1_555 1_555
Cl2 C39 1_555 1_555
Cl3 C39 1_555 1_555
C40 H40 1_555 1_555
Cl4 C40 1_555 1_555
Cl5 C40 1_555 1_555
Cl6 C40 1_555 1_555
C41 Cl7 1_555 1_555
Cl8 C41 1_555 1_555
Cl9 C41 1_555 1_555
C3 C4 1_555 1_555
C5 N5 1_555 1_555
C7 N6 1_555 1_555
C12 C13 1_555 1_555
C18 C19 1_555 1_555
C22 C23 1_555 1_555
C24 N11 1_555 1_555
C26 N12 1_555 1_555
C31 C32 1_555 1_555
C37 C38 1_555 1_555

#END
