
#######################################################################
#
#                 Cambridge Crystallographic Data Centre
#                                CCDC 
#
#######################################################################
#
# If this CIF has been generated from an entry in the Cambridge 
# Structural Database, then it will include bibliographic, chemical, 
# crystal, experimental, refinement or atomic coordinate data resulting 
# from the CCDC's data processing and validation procedures.
#
#######################################################################

data_IKOJUP
_chemical_formula_moiety         'C31 H24 O5'
_chemical_name_systematic        
'dimethyl 9-phenyl-8-(phenylethynyl)-14-oxatetracyclo[9.2.1.0^2,10^.0^3,7^]tetradeca-2,7,9,12-tetraene-5,5-dicarboxylate'
_symmetry_cell_setting           monoclinic
_symmetry_space_group_name_H-M   'P 21/c'
_symmetry_Int_Tables_number      14
_space_group_name_Hall           '-P 2ybc'
loop_
_symmetry_equiv_pos_site_id
_symmetry_equiv_pos_as_xyz
1 x,y,z
2 -x,1/2+y,1/2-z
3 -x,-y,-z
4 x,1/2-y,1/2+z
_cell_length_a                   13.1622(19)
_cell_length_b                   16.885(2)
_cell_length_c                   11.4657(17)
_cell_angle_alpha                90
_cell_angle_beta                 92.337(2)
_cell_angle_gamma                90
_cell_volume                     2546.06
_exptl_crystal_colour            colorless
_exptl_crystal_description       block
_cell_formula_units_Z            4
loop_
_atom_site_label
_atom_site_type_symbol
_atom_site_fract_x
_atom_site_fract_y
_atom_site_fract_z
C1 C 0.6487(3) 0.4627(3) 0.1774(7)
C2 C 0.7411(3) 0.4240(4) 0.1964(6)
H1 H 0.7460 0.3699 0.1822
C3 C 0.8263(3) 0.4661(6) 0.2366(5)
H2 H 0.8881 0.4403 0.2493
C4 C 0.8190(5) 0.5469(5) 0.2579(4)
H3 H 0.8759 0.5751 0.2848
C5 C 0.7266(7) 0.5856(4) 0.2389(4)
H4 H 0.7217 0.6397 0.2531
C6 C 0.6414(5) 0.5435(3) 0.1987(6)
H5 H 0.5796 0.5694 0.1860
C7 C 0.56143(17) 0.41797(13) 0.13829(19)
C8 C 0.48336(16) 0.38600(12) 0.11050(17)
C9 C 0.38187(15) 0.35838(11) 0.08470(16)
C10 C 0.30343(15) 0.41310(11) 0.09437(16)
C11 C 0.20138(16) 0.39341(12) 0.07084(17)
C12 C 0.17931(15) 0.31729(12) 0.03659(17)
C13 C 0.25742(16) 0.26175(11) 0.02532(16)
C14 C 0.35858(15) 0.27905(11) 0.04850(16)
C15 C 0.43757(15) 0.21744(11) 0.03877(17)
C16 C 0.43864(18) 0.16810(13) -0.0591(2)
H6 H 0.3916 0.1764 -0.1206
C17 C 0.5080(2) 0.10745(15) -0.0660(2)
H7 H 0.5065 0.0747 -0.1312
C18 C 0.5788(2) 0.09521(14) 0.0222(3)
H8 H 0.6261 0.0546 0.0167
C19 C 0.5800(2) 0.14315(15) 0.1192(2)
H9 H 0.6281 0.1347 0.1795
C20 C 0.50981(17) 0.20389(13) 0.1277(2)
H10 H 0.5113 0.2358 0.1939
C21 C 0.31488(17) 0.49840(12) 0.12863(19)
H11 H 0.3453 0.5287 0.0672
H12 H 0.3567 0.5037 0.1998
C22 C 0.13372(18) 0.46403(13) 0.0868(2)
H13 H 0.0775 0.4509 0.1354
H14 H 0.1068 0.4835 0.0122
C23 C 0.20487(17) 0.52642(12) 0.14752(18)
C24 C 0.08158(18) 0.27128(13) 0.0049(2)
H15 H 0.0182 0.2941 0.0319
C25 C 0.0850(2) 0.25452(15) -0.1255(2)
H16 H 0.0440 0.2768 -0.1849
C26 C 0.1581(2) 0.20192(15) -0.1368(2)
H17 H 0.1793 0.1792 -0.2056
C27 C 0.20064(17) 0.18616(13) -0.01339(19)
H18 H 0.2381 0.1364 -0.0020
C28 C 0.18733(18) 0.52502(13) 0.2784(2)
C29 C 0.0985(3) 0.5771(3) 0.4327(3)
H19 H 0.0780 0.5253 0.4567
H20 H 0.0451 0.6143 0.4466
H21 H 0.1590 0.5925 0.4765
C30 C 0.1859(2) 0.60872(14) 0.0978(2)
C31 C 0.2564(4) 0.73807(19) 0.0908(5)
H22 H 0.2579 0.7379 0.0072
H23 H 0.3139 0.7670 0.1227
H24 H 0.1948 0.7628 0.1143
O1 O 0.23337(17) 0.48318(11) 0.34648(16)
O2 O 0.11887(18) 0.57612(16) 0.30711(18)
O3 O 0.11804(19) 0.62823(12) 0.0338(2)
O4 O 0.26025(18) 0.65736(10) 0.1336(2)
O5 O 0.10999(12) 0.19458(9) 0.05224(15)
C32? C 0.6623(9) 0.4462(10) 0.1793(19)
C33? C 0.7460(11) 0.3965(11) 0.1950(18)
H25? H 0.7393 0.3425 0.1809
C34? C 0.8396(9) 0.4276(14) 0.2320(15)
H26? H 0.8956 0.3944 0.2425
C35? C 0.8497(10) 0.5083(15) 0.2531(12)
H27? H 0.9123 0.5291 0.2778
C36? C 0.7660(13) 0.5580(12) 0.2373(12)
H28? H 0.7727 0.6120 0.2514
C37? C 0.6723(11) 0.5269(10) 0.2004(16)
H29? H 0.6164 0.5601 0.1898
loop_
_geom_bond_atom_site_label_1
_geom_bond_atom_site_label_2
_geom_bond_site_symmetry_1
_geom_bond_site_symmetry_2
C1 C2 1_555 1_555
C2 H1 1_555 1_555
C3 C2 1_555 1_555
H2 C3 1_555 1_555
C4 C3 1_555 1_555
H3 C4 1_555 1_555
C5 C4 1_555 1_555
H4 C5 1_555 1_555
C6 C1 1_555 1_555
H5 C6 1_555 1_555
C7 C1 1_555 1_555
C8 C7 1_555 1_555
C9 C8 1_555 1_555
C10 C9 1_555 1_555
C11 C10 1_555 1_555
C12 C11 1_555 1_555
C13 C12 1_555 1_555
C14 C9 1_555 1_555
C15 C14 1_555 1_555
C16 C15 1_555 1_555
H6 C16 1_555 1_555
C17 C16 1_555 1_555
H7 C17 1_555 1_555
C18 C17 1_555 1_555
H8 C18 1_555 1_555
C19 C18 1_555 1_555
H9 C19 1_555 1_555
C20 C15 1_555 1_555
H10 C20 1_555 1_555
C21 C10 1_555 1_555
H11 C21 1_555 1_555
H12 C21 1_555 1_555
C22 C11 1_555 1_555
H13 C22 1_555 1_555
H14 C22 1_555 1_555
C23 C21 1_555 1_555
C24 C12 1_555 1_555
H15 C24 1_555 1_555
C25 C24 1_555 1_555
H16 C25 1_555 1_555
C26 C25 1_555 1_555
H17 C26 1_555 1_555
C27 C13 1_555 1_555
H18 C27 1_555 1_555
C28 C23 1_555 1_555
C29 H19 1_555 1_555
H20 C29 1_555 1_555
H21 C29 1_555 1_555
C30 C23 1_555 1_555
C31 H22 1_555 1_555
H23 C31 1_555 1_555
H24 C31 1_555 1_555
O1 C28 1_555 1_555
O2 C28 1_555 1_555
O3 C30 1_555 1_555
O4 C30 1_555 1_555
O5 C24 1_555 1_555
C5 C6 1_555 1_555
C13 C14 1_555 1_555
C19 C20 1_555 1_555
C22 C23 1_555 1_555
C26 C27 1_555 1_555
C27 O5 1_555 1_555
C29 O2 1_555 1_555
C31 O4 1_555 1_555

#END
