
#######################################################################
#
#                 Cambridge Crystallographic Data Centre
#                                CCDC 
#
#######################################################################
#
# If this CIF has been generated from an entry in the Cambridge 
# Structural Database, then it will include bibliographic, chemical, 
# crystal, experimental, refinement or atomic coordinate data resulting 
# from the CCDC's data processing and validation procedures.
#
#######################################################################

data_IKOJOJ
_chemical_formula_moiety         'C32 H26 O4'
_chemical_name_systematic        
'dimethyl 8-methyl-5-phenyl-4-(phenylethynyl)-1,3-dihydro-2H-cyclopenta[a]naphthalene-2,2-dicarboxylate'
_symmetry_cell_setting           triclinic
_symmetry_space_group_name_H-M   'P -1'
_symmetry_Int_Tables_number      2
_space_group_name_Hall           '-P 1'
loop_
_symmetry_equiv_pos_site_id
_symmetry_equiv_pos_as_xyz
1 x,y,z
2 -x,-y,-z
_cell_length_a                   10.1815(14)
_cell_length_b                   11.3726(16)
_cell_length_c                   12.3220(17)
_cell_angle_alpha                64.700(2)
_cell_angle_beta                 87.039(2)
_cell_angle_gamma                86.601(2)
_cell_volume                     1287.1
_exptl_crystal_colour            colorless
_exptl_crystal_description       block
_cell_formula_units_Z            2
loop_
_atom_site_label
_atom_site_type_symbol
_atom_site_fract_x
_atom_site_fract_y
_atom_site_fract_z
C1 C 0.6441(2) 0.3809(2) 0.0957(2)
C2 C 0.7062(3) 0.3169(3) 0.0278(3)
H1 H 0.7721 0.3584 -0.0286
C3 C 0.6723(3) 0.1990(3) 0.0429(3)
C4 C 0.5713(3) 0.1344(3) 0.1300(3)
H2 H 0.5486 0.0491 0.1429
C5 C 0.5095(3) 0.1911(3) 0.1947(3)
H3 H 0.4432 0.1475 0.2496
C6 C 0.5428(2) 0.3177(2) 0.1816(2)
C7 C 0.4772(2) 0.3811(2) 0.2488(2)
C8 C 0.5114(2) 0.5061(2) 0.22783(19)
C9 C 0.6164(2) 0.5660(2) 0.14423(19)
C10 C 0.6802(2) 0.5045(2) 0.0820(2)
C11 C 0.7872(2) 0.5861(3) 0.0011(2)
H4 H 0.7601 0.6288 -0.0816
H5 H 0.8673 0.5339 0.0053
C12 C 0.8069(2) 0.6863(2) 0.0522(2)
C13 C 0.6723(2) 0.6955(2) 0.1144(2)
H6 H 0.6841 0.7079 0.1864
H7 H 0.6162 0.7661 0.0606
C14 C 0.7269(6) 0.1240(5) -0.0215(5)
H8 H 0.6656 0.1279 -0.0797
H9 H 0.7427 0.0350 0.0345
H10 H 0.8082 0.1600 -0.0615
C15 C 0.3757(2) 0.3124(2) 0.3433(2)
C16 C 0.2445(2) 0.3539(3) 0.3307(2)
H11 H 0.2186 0.4265 0.2622
C17 C 0.1520(3) 0.2893(3) 0.4181(3)
H12 H 0.0642 0.3180 0.4079
C18 C 0.1883(4) 0.1832(3) 0.5198(3)
H13 H 0.1251 0.1394 0.5784
C19 C 0.3177(4) 0.1414(3) 0.5353(3)
H14 H 0.3427 0.0700 0.6050
C20 C 0.4113(3) 0.2051(3) 0.4475(2)
H15 H 0.4990 0.1759 0.4583
C21 C 0.4469(2) 0.5738(2) 0.2916(2)
C22 C 0.3944(2) 0.6326(2) 0.3438(2)
C23 C 0.3282(2) 0.6990(2) 0.40795(19)
C24 C 0.2827(2) 0.6300(2) 0.5259(2)
H16 H 0.2945 0.5398 0.5629
C25 C 0.2204(3) 0.6945(3) 0.5882(2)
H17 H 0.1907 0.6477 0.6671
C26 C 0.2020(3) 0.8281(3) 0.5336(3)
H18 H 0.1601 0.8714 0.5758
C27 C 0.2452(3) 0.8971(3) 0.4176(3)
H19 H 0.2322 0.9871 0.3812
C28 C 0.3079(2) 0.8343(2) 0.3543(2)
H20 H 0.3369 0.8821 0.2754
C29 C 0.9141(2) 0.6352(2) 0.1459(2)
C30 C 1.0269(4) 0.6758(4) 0.2874(4)
H21 H 0.9976 0.6009 0.3563
H22 H 1.0387 0.7455 0.3099
H23 H 1.1090 0.6543 0.2569
C31 C 0.8467(3) 0.8130(3) -0.0494(2)
C32 C 1.0206(4) 0.9173(5) -0.1851(4)
H24 H 0.9683 0.9349 -0.2534
H25 H 1.1103 0.8986 -0.2025
H26 H 1.0163 0.9920 -0.1676
O1 O 0.9761(2) 0.53561(18) 0.17255(19)
O2 O 0.92916(19) 0.71633(19) 0.19519(19)
O3 O 0.7754(2) 0.9024(2) -0.1021(3)
O4 O 0.9705(2) 0.8061(2) -0.0821(2)
H27? H 0.7144 0.1582 -0.0044
C33? C 0.5532(9) 0.0074(7) 0.1326(8)
H28? H 0.5894 -0.0592 0.2045
H29? H 0.5972 0.0024 0.0638
H30? H 0.4609 -0.0049 0.1312
loop_
_geom_bond_atom_site_label_1
_geom_bond_atom_site_label_2
_geom_bond_site_symmetry_1
_geom_bond_site_symmetry_2
C1 C2 1_555 1_555
C2 H1 1_555 1_555
C3 C2 1_555 1_555
C4 C3 1_555 1_555
H2 C4 1_555 1_555
C5 C4 1_555 1_555
H3 C5 1_555 1_555
C6 C1 1_555 1_555
C7 C6 1_555 1_555
C8 C7 1_555 1_555
C9 C8 1_555 1_555
C10 C1 1_555 1_555
C11 C10 1_555 1_555
H4 C11 1_555 1_555
H5 C11 1_555 1_555
C12 C11 1_555 1_555
C13 C9 1_555 1_555
H6 C13 1_555 1_555
H7 C13 1_555 1_555
C14 C3 1_555 1_555
H8 C14 1_555 1_555
H9 C14 1_555 1_555
H10 C14 1_555 1_555
C15 C7 1_555 1_555
C16 C15 1_555 1_555
H11 C16 1_555 1_555
C17 C16 1_555 1_555
H12 C17 1_555 1_555
C18 C17 1_555 1_555
H13 C18 1_555 1_555
C19 C18 1_555 1_555
H14 C19 1_555 1_555
C20 C15 1_555 1_555
H15 C20 1_555 1_555
C21 C8 1_555 1_555
C22 C21 1_555 1_555
C23 C22 1_555 1_555
C24 C23 1_555 1_555
H16 C24 1_555 1_555
C25 C24 1_555 1_555
H17 C25 1_555 1_555
C26 C25 1_555 1_555
H18 C26 1_555 1_555
C27 C26 1_555 1_555
H19 C27 1_555 1_555
C28 C23 1_555 1_555
H20 C28 1_555 1_555
C29 C12 1_555 1_555
C30 H21 1_555 1_555
H22 C30 1_555 1_555
H23 C30 1_555 1_555
C31 C12 1_555 1_555
C32 H24 1_555 1_555
H25 C32 1_555 1_555
H26 C32 1_555 1_555
O1 C29 1_555 1_555
O2 C29 1_555 1_555
O3 C31 1_555 1_555
O4 C31 1_555 1_555
C5 C6 1_555 1_555
C9 C10 1_555 1_555
C12 C13 1_555 1_555
C19 C20 1_555 1_555
C27 C28 1_555 1_555
C30 O2 1_555 1_555
C32 O4 1_555 1_555

#END
