
#######################################################################
#
#                 Cambridge Crystallographic Data Centre
#                                CCDC 
#
#######################################################################
#
# If this CIF has been generated from an entry in the Cambridge 
# Structural Database, then it will include bibliographic, chemical, 
# crystal, experimental, refinement or atomic coordinate data resulting 
# from the CCDC's data processing and validation procedures.
#
#######################################################################

data_IKONED
_chemical_formula_moiety         'C21 H17 Br1 O2'
_chemical_name_systematic        
2-(4-bromo-2-methoxyphenyl)-1,2-diphenylethanone
_symmetry_cell_setting           orthorhombic
_symmetry_space_group_name_H-M   'P 21 21 21'
_symmetry_Int_Tables_number      19
_space_group_name_Hall           'P 2ac 2ab'
loop_
_symmetry_equiv_pos_site_id
_symmetry_equiv_pos_as_xyz
1 x,y,z
2 1/2-x,-y,1/2+z
3 1/2+x,1/2-y,-z
4 -x,1/2+y,1/2-z
_cell_length_a                   8.2974(4)
_cell_length_b                   13.6840(6)
_cell_length_c                   15.7750(8)
_cell_angle_alpha                90
_cell_angle_beta                 90
_cell_angle_gamma                90
_cell_volume                     1791.12
_exptl_crystal_colour            colorless
_exptl_crystal_description       block
_cell_formula_units_Z            4
loop_
_atom_site_label
_atom_site_type_symbol
_atom_site_fract_x
_atom_site_fract_y
_atom_site_fract_z
Br1 Br 0.90714(7) 0.49607(5) 0.10819(4)
O1 O 1.1736(5) 0.8406(3) 0.1484(3)
O2 O 0.9423(5) 0.9619(3) -0.0155(2)
C1 C 1.3216(8) 0.7910(6) 0.1664(7)
H1 H 1.3484 0.7488 0.1199
H2 H 1.3095 0.7529 0.2171
H3 H 1.4060 0.8381 0.1742
C2 C 1.0414(6) 0.7849(4) 0.1309(4)
C3 C 1.0455(6) 0.6834(4) 0.1258(4)
H4 H 1.1411 0.6493 0.1342
C4 C 0.9053(7) 0.6353(4) 0.1082(3)
C5 C 0.7646(7) 0.6825(4) 0.0922(4)
H5 H 0.6723 0.6482 0.0769
C6 C 0.7631(7) 0.7837(4) 0.0993(4)
H6 H 0.6670 0.8170 0.0897
C7 C 0.8980(6) 0.8364(4) 0.1200(3)
C8 C 0.8983(6) 0.9462(4) 0.1326(3)
H7 H 0.9757 0.9604 0.1778
C9 C 0.9569(5) 0.9995(5) 0.0531(3)
C10 C 1.0283(6) 1.0992(4) 0.0625(4)
C11 C 1.0870(7) 1.1450(4) -0.0090(4)
H8 H 1.0768 1.1151 -0.0616
C12 C 1.1613(8) 1.2356(5) -0.0027(5)
H9 H 1.2037 1.2649 -0.0510
C13 C 1.1726(8) 1.2815(5) 0.0729(5)
H10 H 1.2229 1.3421 0.0764
C14 C 1.1100(9) 1.2390(5) 0.1443(5)
H11 H 1.1148 1.2715 0.1960
C15 C 1.0401(7) 1.1478(4) 0.1391(4)
H12 H 1.0001 1.1185 0.1880
C16 C 0.7363(6) 0.9875(5) 0.1607(3)
C17 C 0.6230(6) 1.0197(4) 0.1039(3)
H13 H 0.6451 1.0166 0.0462
C18 C 0.4767(7) 1.0566(5) 0.1308(4)
H14 H 0.4025 1.0793 0.0912
C19 C 0.4404(7) 1.0598(5) 0.2153(4)
H15 H 0.3415 1.0839 0.2336
C20 C 0.5520(7) 1.0271(5) 0.2727(4)
H16 H 0.5287 1.0289 0.3303
C21 C 0.6982(6) 0.9915(5) 0.2457(3)
H17 H 0.7727 0.9698 0.2855
loop_
_geom_bond_atom_site_label_1
_geom_bond_atom_site_label_2
_geom_bond_site_symmetry_1
_geom_bond_site_symmetry_2
Br1 C4 1_555 1_555
O1 C1 1_555 1_555
O2 C9 1_555 1_555
C1 H1 1_555 1_555
H2 C1 1_555 1_555
H3 C1 1_555 1_555
C2 O1 1_555 1_555
C3 C2 1_555 1_555
H4 C3 1_555 1_555
C4 C3 1_555 1_555
C5 C4 1_555 1_555
H5 C5 1_555 1_555
C6 C5 1_555 1_555
H6 C6 1_555 1_555
C7 C2 1_555 1_555
C8 C7 1_555 1_555
H7 C8 1_555 1_555
C9 C8 1_555 1_555
C10 C9 1_555 1_555
C11 C10 1_555 1_555
H8 C11 1_555 1_555
C12 C11 1_555 1_555
H9 C12 1_555 1_555
C13 C12 1_555 1_555
H10 C13 1_555 1_555
C14 C13 1_555 1_555
H11 C14 1_555 1_555
C15 C10 1_555 1_555
H12 C15 1_555 1_555
C16 C8 1_555 1_555
C17 C16 1_555 1_555
H13 C17 1_555 1_555
C18 C17 1_555 1_555
H14 C18 1_555 1_555
C19 C18 1_555 1_555
H15 C19 1_555 1_555
C20 C19 1_555 1_555
H16 C20 1_555 1_555
C21 C16 1_555 1_555
H17 C21 1_555 1_555
C6 C7 1_555 1_555
C14 C15 1_555 1_555
C20 C21 1_555 1_555

#END
