
#######################################################################
#
#                 Cambridge Crystallographic Data Centre
#                                CCDC 
#
#######################################################################
#
# If this CIF has been generated from an entry in the Cambridge 
# Structural Database, then it will include bibliographic, chemical, 
# crystal, experimental, refinement or atomic coordinate data resulting 
# from the CCDC's data processing and validation procedures.
#
#######################################################################

data_IKOWOW
_chemical_formula_moiety         'C30 H26 O2 S2'
_chemical_name_systematic        
1,1'-(((2-((4-Methylphenyl)ethynyl)phenyl)methylene)disulfanediyl)bis(2-methoxybenzene)
_symmetry_cell_setting           monoclinic
_symmetry_space_group_name_H-M   'P 21/n'
_symmetry_Int_Tables_number      14
_space_group_name_Hall           '-P 2yn'
loop_
_symmetry_equiv_pos_site_id
_symmetry_equiv_pos_as_xyz
1 x,y,z
2 1/2-x,1/2+y,1/2-z
3 -x,-y,-z
4 1/2+x,1/2-y,1/2+z
_cell_length_a                   8.777(3)
_cell_length_b                   15.032(3)
_cell_length_c                   19.736(4)
_cell_angle_alpha                90
_cell_angle_beta                 94.35(2)
_cell_angle_gamma                90
_cell_volume                     2596.39
_cell_formula_units_Z            4
_exptl_crystal_recrystallization_method n-hexane/dichloromethane
loop_
_atom_site_label
_atom_site_type_symbol
_atom_site_fract_x
_atom_site_fract_y
_atom_site_fract_z
S1 S 0.56222(8) 0.80860(4) 0.18090(4)
S2 S 0.52246(8) 0.65060(4) 0.09191(4)
O1 O 0.5556(3) 0.50073(12) 0.18785(12)
C1 C 0.8073(3) 0.72878(14) 0.13314(13)
C2 C 0.6510(3) 0.70629(16) 0.15591(12)
H1 H 0.6646 0.6676 0.1959
C3 C 0.4606(3) 0.77567(17) 0.25074(13)
C4 C 0.9126(3) 0.69699(17) 0.24948(15)
C5 C 0.9333(3) 0.72429(15) 0.18088(14)
C6 C 0.6292(3) 0.48350(18) 0.13096(17)
O2 O 0.4357(3) 0.92750(13) 0.26695(13)
C7 C 0.8300(3) 0.75595(17) 0.06744(14)
H2 H 0.7471 0.7601 0.0353
C8 C 0.8621(3) 0.63307(17) 0.36939(15)
C9 C 0.8920(3) 0.67128(18) 0.30501(15)
C10 C 0.6254(3) 0.55001(18) 0.08180(16)
C11 C 0.4317(3) 0.68858(18) 0.26846(16)
H3 H 0.4647 0.6422 0.2421
C12 C 0.4072(3) 0.84473(19) 0.29018(16)
C13 C 0.9127(3) 0.67056(18) 0.43061(14)
H4 H 0.9655 0.7242 0.4312
C14 C 0.9756(4) 0.7770(2) 0.04935(18)
H5 H 0.9896 0.7955 0.0053
C15 C 0.8045(4) 0.5526(2) 0.49268(17)
C16 C 0.8860(4) 0.6296(2) 0.49089(15)
H6 H 0.9247 0.6551 0.5315
C17 C 1.0978(4) 0.7708(2) 0.0958(2)
H7 H 1.1951 0.7842 0.0832
C18 C 0.3294(4) 0.8254(3) 0.34684(18)
H8 H 0.2942 0.8711 0.3733
C19 C 0.7067(4) 0.4043(2) 0.1207(2)
H9 H 0.7101 0.3596 0.1534
C20 C 0.3540(4) 0.6702(2) 0.32522(18)
H10 H 0.3355 0.6115 0.3370
C21 C 1.0782(3) 0.74494(19) 0.16089(19)
H11 H 1.1625 0.7410 0.1923
C22 C 0.6981(4) 0.5360(2) 0.02306(18)
H12 H 0.6955 0.5800 -0.0101
C23 C 0.3045(4) 0.7377(3) 0.36388(18)
H13 H 0.2533 0.7247 0.4022
C24 C 0.7738(5) 0.5082(2) 0.5593(2)
H14 H 0.6672 0.5133 0.5666
H15 H 0.8334 0.5366 0.5959
H16 H 0.8012 0.4464 0.5576
C25 C 0.7778(5) 0.3930(3) 0.0620(3)
H17 H 0.8295 0.3400 0.0555
C26 C 0.3979(5) 1.0020(2) 0.3075(2)
H18 H 0.4110 1.0560 0.2825
H19 H 0.4639 1.0029 0.3486
H20 H 0.2936 0.9972 0.3185
C27 C 0.5397(5) 0.4305(2) 0.2356(2)
H21 H 0.4872 0.3813 0.2132
H22 H 0.4821 0.4514 0.2719
H23 H 0.6390 0.4115 0.2537
C28 C 0.7822(6) 0.5545(2) 0.3707(2)
H24 H 0.7473 0.5273 0.3301
C29 C 0.7537(6) 0.5157(2) 0.4319(2)
H25 H 0.6983 0.4629 0.4317
C30 C 0.7753(5) 0.4565(3) 0.0129(2)
H26 H 0.8242 0.4472 -0.0266
loop_
_geom_bond_atom_site_label_1
_geom_bond_atom_site_label_2
_geom_bond_site_symmetry_1
_geom_bond_site_symmetry_2
S1 C2 1_555 1_555
S2 C2 1_555 1_555
O1 C6 1_555 1_555
C1 C2 1_555 1_555
C2 H1 1_555 1_555
C3 S1 1_555 1_555
C4 C5 1_555 1_555
C5 C1 1_555 1_555
C6 C10 1_555 1_555
O2 C12 1_555 1_555
C7 C1 1_555 1_555
H2 C7 1_555 1_555
C8 C9 1_555 1_555
C9 C4 1_555 1_555
C10 S2 1_555 1_555
C11 C3 1_555 1_555
H3 C11 1_555 1_555
C12 C3 1_555 1_555
C13 C8 1_555 1_555
H4 C13 1_555 1_555
C14 C7 1_555 1_555
H5 C14 1_555 1_555
C15 C16 1_555 1_555
C16 C13 1_555 1_555
H6 C16 1_555 1_555
C17 C14 1_555 1_555
H7 C17 1_555 1_555
C18 C12 1_555 1_555
H8 C18 1_555 1_555
C19 C6 1_555 1_555
H9 C19 1_555 1_555
C20 C11 1_555 1_555
H10 C20 1_555 1_555
C21 C5 1_555 1_555
H11 C21 1_555 1_555
C22 C10 1_555 1_555
H12 C22 1_555 1_555
C23 C18 1_555 1_555
H13 C23 1_555 1_555
C24 C15 1_555 1_555
H14 C24 1_555 1_555
H15 C24 1_555 1_555
H16 C24 1_555 1_555
C25 C19 1_555 1_555
H17 C25 1_555 1_555
C26 O2 1_555 1_555
H18 C26 1_555 1_555
H19 C26 1_555 1_555
H20 C26 1_555 1_555
C27 O1 1_555 1_555
H21 C27 1_555 1_555
H22 C27 1_555 1_555
H23 C27 1_555 1_555
C28 C8 1_555 1_555
H24 C28 1_555 1_555
C29 C15 1_555 1_555
H25 C29 1_555 1_555
C30 C22 1_555 1_555
H26 C30 1_555 1_555
C17 C21 1_555 1_555
C20 C23 1_555 1_555
C25 C30 1_555 1_555
C28 C29 1_555 1_555

#END
