
#######################################################################
#
#                 Cambridge Crystallographic Data Centre
#                                CCDC 
#
#######################################################################
#
# If this CIF has been generated from an entry in the Cambridge 
# Structural Database, then it will include bibliographic, chemical, 
# crystal, experimental, refinement or atomic coordinate data resulting 
# from the CCDC's data processing and validation procedures.
#
#######################################################################

data_IKOXOX
_chemical_formula_moiety         'C28 H27 N1 O6'
_chemical_name_systematic        
'3,7-Diethyl 5-methyl 2,8-dimethyl-1-phenyl-1H-benzo[de]quinoline-3,5,7-tricarboxylate'
_symmetry_cell_setting           monoclinic
_symmetry_space_group_name_H-M   'P 21/c'
_symmetry_Int_Tables_number      14
_space_group_name_Hall           '-P 2ybc'
loop_
_symmetry_equiv_pos_site_id
_symmetry_equiv_pos_as_xyz
1 x,y,z
2 -x,1/2+y,1/2-z
3 -x,-y,-z
4 x,1/2-y,1/2+z
_cell_length_a                   12.3361(5)
_cell_length_b                   16.8521(5)
_cell_length_c                   12.0571(5)
_cell_angle_alpha                90
_cell_angle_beta                 112.100(5)
_cell_angle_gamma                90
_cell_volume                     2322.38
_exptl_crystal_colour            colorless
_exptl_crystal_description       plane
_cell_formula_units_Z            4
_chemical_properties_physical    Photo-sensitive
_exptl_crystal_recrystallization_method 'Vapour Deposition'
_exptl_crystal_preparation       Luminescent
loop_
_atom_site_label
_atom_site_type_symbol
_atom_site_fract_x
_atom_site_fract_y
_atom_site_fract_z
O1 O 0.73640(13) -0.19366(10) 0.65160(13)
O2 O 0.65120(15) -0.24642(11) 0.46877(15)
O3 O 1.09579(13) 0.02454(9) 0.16925(13)
O4 O 0.96591(13) 0.10140(9) 0.20627(14)
O5 O 0.60641(12) 0.05718(9) 0.13528(13)
O6 O 0.51074(13) -0.01649(11) 0.22328(16)
N1 N 1.04455(15) -0.19929(10) 0.56508(15)
C1 C 1.15476(18) -0.24092(12) 0.6223(2)
C2 C 1.2261(2) -0.22252(14) 0.7378(2)
H1 H 1.2045 -0.1835 0.7800
C3 C 1.3310(2) -0.26308(15) 0.7904(2)
H2 H 1.3796 -0.2518 0.8689
C4 C 1.3636(2) -0.32000(15) 0.7269(3)
H3 H 1.4343 -0.3466 0.7626
C5 C 1.2919(2) -0.33771(14) 0.6110(3)
H4 H 1.3146 -0.3760 0.5684
C6 C 1.1860(2) -0.29854(13) 0.5575(2)
H5 H 1.1367 -0.3107 0.4796
C7 C 0.94669(19) -0.22171(12) 0.58687(18)
C8 C 0.84069(18) -0.18857(12) 0.52315(18)
C9 C 0.82746(18) -0.12862(12) 0.43270(17)
C10 C 0.93126(17) -0.10294(12) 0.41759(17)
C11 C 1.04103(18) -0.13794(12) 0.48605(17)
C12 C 0.92704(17) -0.04228(11) 0.33397(17)
C13 C 0.71657(17) -0.03480(12) 0.28144(17)
C14 C 0.81645(17) -0.00946(12) 0.26587(18)
H6 H 0.8108 0.0298 0.2097
C15 C 0.72137(18) -0.09422(12) 0.36418(18)
H7 H 0.6532 -0.1106 0.3732
C16 C 1.13972(18) -0.05191(12) 0.39181(18)
C17 C 1.03322(17) -0.01828(12) 0.31995(18)
C18 C 1.14173(18) -0.11091(13) 0.47336(19)
H8 H 1.2132 -0.1330 0.5210
C19 C 1.02653(17) 0.04263(12) 0.22928(18)
C20 C 0.7339(2) -0.21372(12) 0.54319(18)
C21 C 0.9641(2) -0.28389(14) 0.6812(2)
H9 H 0.8907 -0.2948 0.6887
H10 H 1.0193 -0.2651 0.7564
H11 H 0.9933 -0.3316 0.6588
C22 C 1.25641(18) -0.02671(14) 0.3889(2)
H12 H 1.2442 0.0139 0.3296
H13 H 1.2937 -0.0716 0.3692
H14 H 1.3053 -0.0065 0.4660
C23 C 1.1036(2) 0.08346(14) 0.0852(2)
H15 H 1.1234 0.1349 0.1237
H16 H 1.0296 0.0879 0.0178
C24 C 1.1977(2) 0.05585(17) 0.0441(2)
H17 H 1.2063 0.0933 -0.0121
H18 H 1.1770 0.0049 0.0062
H19 H 1.2703 0.0516 0.1117
C25 C 0.60121(18) 0.00149(12) 0.21252(19)
C26 C 0.49695(19) 0.09563(14) 0.0671(2)
H20 H 0.5094 0.1343 0.0146
H21 H 0.4671 0.1214 0.1207
H22 H 0.4416 0.0567 0.0206
C27 C 0.6337(2) -0.21541(16) 0.6776(2)
H23 H 0.6553 -0.2189 0.7636
H24 H 0.6059 -0.2672 0.6436
C28 C 0.5375(2) -0.15596(18) 0.6273(3)
H25 H 0.4713 -0.1718 0.6456
H26 H 0.5150 -0.1531 0.5420
H27 H 0.5643 -0.1048 0.6618
loop_
_geom_bond_atom_site_label_1
_geom_bond_atom_site_label_2
_geom_bond_site_symmetry_1
_geom_bond_site_symmetry_2
O1 C20 1_555 1_555
O2 C20 1_555 1_555
O3 C19 1_555 1_555
O4 C19 1_555 1_555
O5 C25 1_555 1_555
O6 C25 1_555 1_555
N1 C1 1_555 1_555
C1 C2 1_555 1_555
C2 H1 1_555 1_555
C3 C2 1_555 1_555
H2 C3 1_555 1_555
C4 C3 1_555 1_555
H3 C4 1_555 1_555
C5 C4 1_555 1_555
H4 C5 1_555 1_555
C6 C1 1_555 1_555
H5 C6 1_555 1_555
C7 N1 1_555 1_555
C8 C7 1_555 1_555
C9 C8 1_555 1_555
C10 C9 1_555 1_555
C11 N1 1_555 1_555
C12 C10 1_555 1_555
C13 C14 1_555 1_555
C14 C12 1_555 1_555
H6 C14 1_555 1_555
C15 C9 1_555 1_555
H7 C15 1_555 1_555
C16 C17 1_555 1_555
C17 C12 1_555 1_555
C18 C11 1_555 1_555
H8 C18 1_555 1_555
C19 C17 1_555 1_555
C20 C8 1_555 1_555
C21 C7 1_555 1_555
H9 C21 1_555 1_555
H10 C21 1_555 1_555
H11 C21 1_555 1_555
C22 C16 1_555 1_555
H12 C22 1_555 1_555
H13 C22 1_555 1_555
H14 C22 1_555 1_555
C23 O3 1_555 1_555
H15 C23 1_555 1_555
H16 C23 1_555 1_555
C24 C23 1_555 1_555
H17 C24 1_555 1_555
H18 C24 1_555 1_555
H19 C24 1_555 1_555
C25 C13 1_555 1_555
C26 O5 1_555 1_555
H20 C26 1_555 1_555
H21 C26 1_555 1_555
H22 C26 1_555 1_555
C27 O1 1_555 1_555
H23 C27 1_555 1_555
H24 C27 1_555 1_555
C28 C27 1_555 1_555
H25 C28 1_555 1_555
H26 C28 1_555 1_555
H27 C28 1_555 1_555
C5 C6 1_555 1_555
C10 C11 1_555 1_555
C13 C15 1_555 1_555
C16 C18 1_555 1_555

#END
