
#######################################################################
#
#                 Cambridge Crystallographic Data Centre
#                                CCDC 
#
#######################################################################
#
# If this CIF has been generated from an entry in the Cambridge 
# Structural Database, then it will include bibliographic, chemical, 
# crystal, experimental, refinement or atomic coordinate data resulting 
# from the CCDC's data processing and validation procedures.
#
#######################################################################

data_IKOYIS
_chemical_formula_moiety         'C24 H24 N4 O1'
_chemical_name_systematic        
5-(Diethylamino)-2-(5,6-dihydrobenzimidazo[1,2-c]quinazolin-6-yl)phenol
_symmetry_cell_setting           monoclinic
_symmetry_space_group_name_H-M   'P 21/c'
_symmetry_Int_Tables_number      14
_space_group_name_Hall           '-P 2ybc'
loop_
_symmetry_equiv_pos_site_id
_symmetry_equiv_pos_as_xyz
1 x,y,z
2 -x,1/2+y,1/2-z
3 -x,-y,-z
4 x,1/2-y,1/2+z
_cell_length_a                   14.0046(13)
_cell_length_b                   8.9892(8)
_cell_length_c                   16.6000(15)
_cell_angle_alpha                90
_cell_angle_beta                 105.069(2)
_cell_angle_gamma                90
_cell_volume                     2017.92
_exptl_crystal_colour            orange
_exptl_crystal_description       rod
_cell_formula_units_Z            4
loop_
_atom_site_label
_atom_site_type_symbol
_atom_site_fract_x
_atom_site_fract_y
_atom_site_fract_z
O1 O 0.85459(14) 0.4227(2) 0.51399(15)
H1 H 0.8456(7) 0.327(4) 0.513(2)
N1 N 0.8148(3) 1.1250(5) 0.5272(3)
N2 N 0.8418(3) 0.8814(4) 0.5471(3)
N3 N 0.9322(2) 0.7366(4) 0.4754(2)
H2 H 0.9820 0.6703 0.4844
N4 N 0.50895(19) 0.3966(3) 0.3740(2)
C1 C 0.7873(3) 1.0802(7) 0.5973(2)
C2 C 0.7519(5) 1.1625(5) 0.6543(4)
H3 H 0.7405 1.2640 0.6461
C3 C 0.7334(7) 1.0932(8) 0.7235(4)
H4 H 0.7096 1.1482 0.7616
C4 C 0.7503(7) 0.9415(8) 0.7358(3)
H5 H 0.7380 0.8951 0.7822
C5 C 0.7858(5) 0.8592(5) 0.6789(4)
H6 H 0.7972 0.7577 0.6871
C6 C 0.8043(3) 0.9285(6) 0.6096(3)
C7 C 0.8471(6) 0.9995(10) 0.4981(5)
C8 C 0.8827(3) 0.9818(9) 0.4259(2)
C9 C 0.8807(4) 1.0978(6) 0.3701(5)
H7 H 0.8515 1.1879 0.3773
C10 C 0.9226(7) 1.0790(7) 0.3034(4)
H8 H 0.9213 1.1566 0.2661
C11 C 0.9663(6) 0.9443(9) 0.2926(4)
H9 H 0.9943 0.9317 0.2480
C12 C 0.9683(4) 0.8283(5) 0.3484(5)
H10 H 0.9975 0.7382 0.3411
C13 C 0.9264(4) 0.8471(6) 0.4150(3)
C14 C 0.8584(3) 0.7275(4) 0.5248(3)
H11 H 0.8887 0.6735 0.5764
C15 C 0.76540(19) 0.6466(3) 0.48096(16)
C16 C 0.6756(2) 0.7142(3) 0.44450(19)
H12 H 0.6725 0.8176 0.4445
C17 C 0.5913(2) 0.6363(3) 0.40848(19)
H13 H 0.5331 0.6873 0.3844
C18 C 0.5921(2) 0.4798(3) 0.40761(19)
C19 C 0.6828(2) 0.4105(3) 0.44205(19)
H14 H 0.6869 0.3073 0.4405
C20 C 0.76674(19) 0.4919(3) 0.47837(17)
C21 C 0.4079(3) 0.4572(5) 0.3612(3)
H15 H 0.3676 0.3874 0.3825
H16 H 0.4107 0.5497 0.3918
C22 C 0.3639(4) 0.4835(6) 0.2748(3)
H17 H 0.4025 0.5553 0.2542
H18 H 0.2980 0.5208 0.2676
H19 H 0.3616 0.3921 0.2444
C23 C 0.5165(3) 0.2357(4) 0.3563(3)
H20 H 0.4637 0.2091 0.3079
H21 H 0.5789 0.2173 0.3430
C24 C 0.5102(3) 0.1414(5) 0.4263(3)
H22 H 0.4502 0.1630 0.4418
H23 H 0.5659 0.1604 0.4729
H24 H 0.5105 0.0388 0.4103
N5? N 0.8372(6) 1.1197(10) 0.4822(6)
N6? N 0.8603(5) 0.8757(8) 0.4957(6)
N7? N 0.8584(5) 0.7392(8) 0.6140(4)
H25? H 0.8905 0.6709 0.6509
C25? C 0.8755(5) 1.0632(15) 0.4164(7)
C26? C 0.8983(9) 1.1369(8) 0.3502(10)
H26? H 0.8867 1.2385 0.3431
C27? C 0.9384(13) 1.0587(15) 0.2945(8)
H27? H 0.9536 1.1081 0.2502
C28? C 0.9557(11) 0.9068(15) 0.3051(8)
H28? H 0.9825 0.8545 0.2679
C29? C 0.9329(9) 0.8331(8) 0.3713(9)
H29? H 0.9445 0.7315 0.3784
C30? C 0.8928(7) 0.9113(16) 0.4270(5)
C31? C 0.8270(12) 1.007(3) 0.5231(11)
C32? C 0.7956(7) 0.9923(16) 0.5980(5)
C33? C 0.7500(9) 1.1100(11) 0.6276(7)
H30? H 0.7415 1.2005 0.5996
C34? C 0.7170(12) 1.0923(15) 0.6991(8)
H31? H 0.6865 1.1710 0.7189
C35? C 0.7296(14) 0.9569(19) 0.7410(8)
H32? H 0.7076 0.9451 0.7888
C36? C 0.7753(10) 0.8392(12) 0.7114(8)
H33? H 0.7837 0.7486 0.7395
C37? C 0.8082(6) 0.8569(11) 0.6399(8)
C38? C 0.8592 0.7266 0.5255
H34? H 0.9177 0.6718 0.5199
loop_
_geom_bond_atom_site_label_1
_geom_bond_atom_site_label_2
_geom_bond_site_symmetry_1
_geom_bond_site_symmetry_2
O1 H1 1_555 1_555
N1 C1 1_555 1_555
N2 C6 1_555 1_555
N3 H2 1_555 1_555
N4 C18 1_555 1_555
C1 C2 1_555 1_555
C2 H3 1_555 1_555
C3 C2 1_555 1_555
H4 C3 1_555 1_555
C4 C3 1_555 1_555
H5 C4 1_555 1_555
C5 C4 1_555 1_555
H6 C5 1_555 1_555
C6 C1 1_555 1_555
C7 N1 1_555 1_555
C8 C7 1_555 1_555
C9 C8 1_555 1_555
H7 C9 1_555 1_555
C10 C9 1_555 1_555
H8 C10 1_555 1_555
C11 C10 1_555 1_555
H9 C11 1_555 1_555
C12 C11 1_555 1_555
H10 C12 1_555 1_555
C13 N3 1_555 1_555
C14 N2 1_555 1_555
H11 C14 1_555 1_555
C15 C14 1_555 1_555
C16 C15 1_555 1_555
H12 C16 1_555 1_555
C17 C16 1_555 1_555
H13 C17 1_555 1_555
C18 C17 1_555 1_555
C19 C18 1_555 1_555
H14 C19 1_555 1_555
C20 O1 1_555 1_555
C21 N4 1_555 1_555
H15 C21 1_555 1_555
H16 C21 1_555 1_555
C22 C21 1_555 1_555
H17 C22 1_555 1_555
H18 C22 1_555 1_555
H19 C22 1_555 1_555
C23 N4 1_555 1_555
H20 C23 1_555 1_555
H21 C23 1_555 1_555
C24 C23 1_555 1_555
H22 C24 1_555 1_555
H23 C24 1_555 1_555
H24 C24 1_555 1_555
N2 C7 1_555 1_555
N3 C14 1_555 1_555
C5 C6 1_555 1_555
C8 C13 1_555 1_555
C12 C13 1_555 1_555
C15 C20 1_555 1_555
C19 C20 1_555 1_555

#END
