
#######################################################################
#
#                 Cambridge Crystallographic Data Centre
#                                CCDC 
#
#######################################################################
#
# If this CIF has been generated from an entry in the Cambridge 
# Structural Database, then it will include bibliographic, chemical, 
# crystal, experimental, refinement or atomic coordinate data resulting 
# from the CCDC's data processing and validation procedures.
#
#######################################################################

data_IKOZIT
_chemical_formula_moiety         'C21 H16 Cl2 O2'
_chemical_name_systematic        
2-(4,5-dichloro-2-methoxyphenyl)-1,2-diphenylethanone
_symmetry_cell_setting           triclinic
_symmetry_space_group_name_H-M   'P -1'
_symmetry_Int_Tables_number      2
_space_group_name_Hall           '-P 1'
loop_
_symmetry_equiv_pos_site_id
_symmetry_equiv_pos_as_xyz
1 x,y,z
2 -x,-y,-z
_cell_length_a                   7.5712(4)
_cell_length_b                   8.8981(7)
_cell_length_c                   14.6818(11)
_cell_angle_alpha                76.585(7)
_cell_angle_beta                 82.407(5)
_cell_angle_gamma                74.099(6)
_cell_volume                     922.812
_exptl_crystal_colour            colorless
_exptl_crystal_description       block
_cell_formula_units_Z            2
loop_
_atom_site_label
_atom_site_type_symbol
_atom_site_fract_x
_atom_site_fract_y
_atom_site_fract_z
Cl1 Cl 0.74099(11) 0.51170(8) 0.38893(5)
Cl2 Cl 0.72853(9) 0.25055(9) 0.27751(4)
O1 O 0.7515(2) -0.1367(2) 0.59587(12)
O2 O 0.4473(2) 0.0903(2) 0.71573(12)
C1 C 0.7541(3) -0.2611(3) 0.5489(2)
H1 H 0.8589 -0.2731 0.5041
H2 H 0.6434 -0.2344 0.5169
H3 H 0.7616 -0.3595 0.5940
C2 C 0.7509(3) 0.2784(3) 0.54282(16)
H4 H 0.7543 0.3561 0.5749
C3 C 0.7430(3) 0.3186(3) 0.44634(16)
C4 C 0.7384(3) 0.2037(3) 0.39848(15)
C5 C 0.7394(3) 0.0496(3) 0.44595(16)
H5 H 0.7345 -0.0270 0.4134
C6 C 0.7476(3) 0.0111(3) 0.54226(16)
C7 C 0.7539(3) 0.1258(3) 0.59260(15)
C8 C 0.7696(3) 0.0756(3) 0.69760(15)
H6 H 0.8711 -0.0209 0.7087
C9 C 0.5955(3) 0.0316(3) 0.74897(16)
C10 C 0.6101(3) -0.0796(3) 0.84246(16)
C11 C 0.7768(4) -0.1557(3) 0.88133(19)
H7 H 0.8856 -0.1370 0.8491
C12 C 0.7824(5) -0.2593(4) 0.9677(2)
H8 H 0.8947 -0.3109 0.9932
C13 C 0.6223(5) -0.2859(4) 1.0157(2)
H9 H 0.6263 -0.3563 1.0736
C14 C 0.4567(5) -0.2095(5) 0.9788(2)
H10 H 0.3481 -0.2266 1.0121
C15 C 0.4507(4) -0.1075(4) 0.89262(18)
H11 H 0.3376 -0.0565 0.8677
C16 C 0.8137(3) 0.1986(3) 0.74162(15)
C17 C 0.6797(3) 0.3320(3) 0.76071(17)
H12 H 0.5583 0.3460 0.7483
C18 C 0.7262(4) 0.4441(3) 0.79818(18)
H13 H 0.6360 0.5333 0.8104
C19 C 0.9042(4) 0.4244(3) 0.81731(19)
H14 H 0.9346 0.4996 0.8428
C20 C 1.0375(4) 0.2938(3) 0.79893(19)
H15 H 1.1585 0.2807 0.8117
C21 C 0.9928(3) 0.1816(3) 0.76145(16)
H16 H 1.0843 0.0932 0.7493
loop_
_geom_bond_atom_site_label_1
_geom_bond_atom_site_label_2
_geom_bond_site_symmetry_1
_geom_bond_site_symmetry_2
Cl1 C3 1_555 1_555
Cl2 C4 1_555 1_555
O1 C1 1_555 1_555
O2 C9 1_555 1_555
C1 H1 1_555 1_555
H2 C1 1_555 1_555
H3 C1 1_555 1_555
C2 H4 1_555 1_555
C3 C2 1_555 1_555
C4 C3 1_555 1_555
C5 C4 1_555 1_555
H5 C5 1_555 1_555
C6 O1 1_555 1_555
C7 C2 1_555 1_555
C8 C7 1_555 1_555
H6 C8 1_555 1_555
C9 C8 1_555 1_555
C10 C9 1_555 1_555
C11 C10 1_555 1_555
H7 C11 1_555 1_555
C12 C11 1_555 1_555
H8 C12 1_555 1_555
C13 C12 1_555 1_555
H9 C13 1_555 1_555
C14 C13 1_555 1_555
H10 C14 1_555 1_555
C15 C10 1_555 1_555
H11 C15 1_555 1_555
C16 C8 1_555 1_555
C17 C16 1_555 1_555
H12 C17 1_555 1_555
C18 C17 1_555 1_555
H13 C18 1_555 1_555
C19 C18 1_555 1_555
H14 C19 1_555 1_555
C20 C19 1_555 1_555
H15 C20 1_555 1_555
C21 C16 1_555 1_555
H16 C21 1_555 1_555
C5 C6 1_555 1_555
C6 C7 1_555 1_555
C14 C15 1_555 1_555
C20 C21 1_555 1_555

#END
