
#######################################################################
#
#                 Cambridge Crystallographic Data Centre
#                                CCDC 
#
#######################################################################
#
# If this CIF has been generated from an entry in the Cambridge 
# Structural Database, then it will include bibliographic, chemical, 
# crystal, experimental, refinement or atomic coordinate data resulting 
# from the CCDC's data processing and validation procedures.
#
#######################################################################

data_IKUFUP
_chemical_formula_moiety         'C12 H8 N2 O1,0.5(H2 O1)'
_chemical_name_systematic        '1H-1,10-Phenanthrolin-2-one hemihydrate'
_symmetry_cell_setting           monoclinic
_symmetry_space_group_name_H-M   'P 2/c'
_symmetry_Int_Tables_number      13
_space_group_name_Hall           '-P 2yc'
loop_
_symmetry_equiv_pos_site_id
_symmetry_equiv_pos_as_xyz
1 x,y,z
2 x,-y,1/2+z
3 -x,-y,-z
4 -x,y,1/2-z
_cell_length_a                   13.866(4)
_cell_length_b                   8.054(3)
_cell_length_c                   17.781(6)
_cell_angle_alpha                90
_cell_angle_beta                 97.956(6)
_cell_angle_gamma                90
_cell_volume                     1966.61
_chemical_melting_point          '159-160 deg.C'
_cell_formula_units_Z            8
_exptl_crystal_recrystallization_method 'diethyl ether/dichloromethane'
_exptl_crystal_preparation       photoluminescent
loop_
_atom_site_label
_atom_site_type_symbol
_atom_site_fract_x
_atom_site_fract_y
_atom_site_fract_z
O1 O 0.45307(13) 0.1998(3) 0.56665(11)
N1 N 0.56961(12) 0.2994(2) 0.65718(10)
H1 H 0.5184 0.3484 0.6850
N2 N 0.61322(12) 0.4560(2) 0.79598(10)
C1 C 0.54047(17) 0.2163(3) 0.59020(13)
C2 C 0.61930(19) 0.1556(3) 0.55161(14)
H3 H 0.6032 0.0955 0.5027
C3 C 0.71228(18) 0.1762(3) 0.58067(14)
H4 H 0.7606 0.1345 0.5545
C4 C 0.73999(16) 0.2609(3) 0.65137(12)
C5 C 0.83866(16) 0.2857(3) 0.68390(15)
H5 H 0.8905 0.2425 0.6570
C6 C 0.86058(16) 0.3707(3) 0.75027(16)
H6 H 0.9278 0.3848 0.7722
C7 C 0.78673(15) 0.4336(3) 0.78880(13)
C8 C 0.80578(17) 0.5256(3) 0.85712(14)
H7 H 0.8730 0.5470 0.8795
C9 C 0.73094(19) 0.5800(3) 0.89169(14)
H8 H 0.7418 0.6509 0.9378
C10 C 0.63613(18) 0.5407(3) 0.85993(14)
H9 H 0.5827 0.5752 0.8870
C11 C 0.68796(14) 0.4059(2) 0.75956(12)
C12 C 0.66587(14) 0.3212(2) 0.68860(12)
O2 O 0.93457(14) 0.3601(2) 0.08372(10)
N3 N 0.87568(12) 0.2184(2) 0.17718(9)
H2 H 0.9344 0.1973 0.1973
N4 N 0.91801(11) 0.0674(2) 0.31660(9)
C13 C 0.86230(18) 0.3076(3) 0.11076(13)
C14 C 0.76403(19) 0.3290(3) 0.07690(14)
H10 H 0.7493 0.3888 0.0284
C15 C 0.68893(18) 0.2701(3) 0.10972(15)
H11 H 0.6228 0.2842 0.0843
C16 C 0.70488(15) 0.1846(2) 0.18091(12)
C17 C 0.62899(15) 0.1208(3) 0.21826(15)
H12 H 0.5614 0.1385 0.1960
C18 C 0.64803(15) 0.0365(3) 0.28403(15)
H13 H 0.5949 -0.0109 0.3082
C19 C 0.74525(14) 0.0139(2) 0.31984(12)
C20 C 0.76960(17) -0.0692(3) 0.38983(13)
H14 H 0.7174 -0.1154 0.4155
C21 C 0.86441(18) -0.0817(3) 0.42009(13)
H15 H 0.8833 -0.1423 0.4683
C22 C 0.93613(16) -0.0102(3) 0.38244(12)
H16 H 1.0050 -0.0180 0.4059
C23 C 0.82273(13) 0.0780(2) 0.28498(11)
C24 C 0.80091(14) 0.1610(2) 0.21343(11)
O3 O 1.07210(14) 0.3081(2) -0.02051(11)
H17 H 1.0261 0.3262 0.0150
H18 H 1.0525 0.3938 -0.0575
loop_
_geom_bond_atom_site_label_1
_geom_bond_atom_site_label_2
_geom_bond_site_symmetry_1
_geom_bond_site_symmetry_2
O1 C1 1_555 1_555
O2 C13 1_555 1_555
N1 H1 1_555 1_555
N2 C10 1_555 1_555
N3 H2 1_555 1_555
N4 C22 1_555 1_555
C1 N1 1_555 1_555
C2 C1 1_555 1_555
H3 C2 1_555 1_555
C3 C2 1_555 1_555
H4 C3 1_555 1_555
C4 C3 1_555 1_555
C5 C4 1_555 1_555
H5 C5 1_555 1_555
C6 C5 1_555 1_555
H6 C6 1_555 1_555
C7 C6 1_555 1_555
C8 C7 1_555 1_555
H7 C8 1_555 1_555
C9 C8 1_555 1_555
H8 C9 1_555 1_555
C10 C9 1_555 1_555
H9 C10 1_555 1_555
C11 N2 1_555 1_555
C12 N1 1_555 1_555
C13 N3 1_555 1_555
C14 C13 1_555 1_555
H10 C14 1_555 1_555
C15 C14 1_555 1_555
H11 C15 1_555 1_555
C16 C15 1_555 1_555
C17 C16 1_555 1_555
H12 C17 1_555 1_555
C18 C17 1_555 1_555
H13 C18 1_555 1_555
C19 C18 1_555 1_555
C20 C19 1_555 1_555
H14 C20 1_555 1_555
C21 C20 1_555 1_555
H15 C21 1_555 1_555
C22 C21 1_555 1_555
H16 C22 1_555 1_555
C23 N4 1_555 1_555
C24 N3 1_555 1_555
O3 H17 1_555 1_555
H18 O3 1_555 1_555
C4 C12 1_555 1_555
C7 C11 1_555 1_555
C11 C12 1_555 1_555
C16 C24 1_555 1_555
C19 C23 1_555 1_555
C23 C24 1_555 1_555

#END
