
#######################################################################
#
#                 Cambridge Crystallographic Data Centre
#                                CCDC 
#
#######################################################################
#
# If this CIF has been generated from an entry in the Cambridge 
# Structural Database, then it will include bibliographic, chemical, 
# crystal, experimental, refinement or atomic coordinate data resulting 
# from the CCDC's data processing and validation procedures.
#
#######################################################################

data_IKUGEC
_chemical_formula_moiety         'C27 H20 Br2 O6'
_chemical_name_systematic        
'2-methoxyethyl 2-(5,11-dibromo-1-oxodibenzo[a,kl]xanthen-13c(1H)-yl)-3-oxobutanoate'
_chemical_properties_biological  'cytotoxic activity'
_symmetry_cell_setting           triclinic
_symmetry_space_group_name_H-M   'P -1'
_symmetry_Int_Tables_number      2
_space_group_name_Hall           '-P 1'
loop_
_symmetry_equiv_pos_site_id
_symmetry_equiv_pos_as_xyz
1 x,y,z
2 -x,-y,-z
_cell_length_a                   8.807(3)
_cell_length_b                   11.097(3)
_cell_length_c                   13.604(4)
_cell_angle_alpha                70.069(6)
_cell_angle_beta                 83.479(5)
_cell_angle_gamma                71.798(6)
_cell_volume                     1187.32
_exptl_crystal_colour            colorless
_exptl_crystal_description       block
_chemical_melting_point          '192-193 deg.C'
_cell_formula_units_Z            2
loop_
_atom_site_label
_atom_site_type_symbol
_atom_site_fract_x
_atom_site_fract_y
_atom_site_fract_z
Br1 Br 0.48274(11) 0.22587(10) 1.08924(6)
Br2 Br 0.85654(11) 0.48998(10) 0.09924(6)
C1 C 0.6390(7) 0.3040(6) 0.7346(5)
C2 C 0.5705(7) 0.2013(7) 0.7926(5)
H1 H 0.5533 0.1460 0.7594
C3 C 0.5289(8) 0.1802(8) 0.8950(5)
H2 H 0.4860 0.1104 0.9311
C4 C 0.5506(8) 0.2635(9) 0.9459(5)
C5 C 0.6133(8) 0.3635(8) 0.8978(5)
H3 H 0.6260 0.4176 0.9338
C6 C 0.6612(8) 0.3873(7) 0.7904(5)
C7 C 0.7343(8) 0.4870(7) 0.7411(6)
H4 H 0.7475 0.5401 0.7777
C8 C 0.7875(8) 0.5088(7) 0.6396(6)
H5 H 0.8367 0.5755 0.6069
C9 C 0.7649(7) 0.4258(7) 0.5861(5)
C10 C 0.6902(7) 0.3287(6) 0.6278(5)
C11 C 0.6737(7) 0.2456(6) 0.5615(4)
C12 C 0.7054(7) 0.3175(6) 0.4454(5)
C13 C 0.7897(7) 0.4107(6) 0.4157(5)
C14 C 0.8318(7) 0.4663(7) 0.3136(5)
H6 H 0.8864 0.5303 0.2955
C15 C 0.7906(8) 0.4242(7) 0.2392(5)
C16 C 0.7051(8) 0.3335(7) 0.2643(5)
H7 H 0.6791 0.3066 0.2122
C17 C 0.6581(7) 0.2823(6) 0.3647(5)
C18 C 0.5568(8) 0.1953(7) 0.3937(5)
H8 H 0.5439 0.1553 0.3465
C19 C 0.4804(8) 0.1702(6) 0.4863(5)
H9 H 0.4153 0.1140 0.5034
O1 O 0.3925(5) 0.2846(4) 0.6076(3)
C20 C 0.8023(7) 0.1016(6) 0.5895(5)
H10 H 0.8146 0.0805 0.5242
C21 C 0.7545(9) -0.0157(7) 0.6689(5)
C22 C 0.8900(9) -0.1382(8) 0.7213(6)
H11 H 0.9401 -0.1197 0.7714
H12 H 0.9673 -0.1598 0.6695
H13 H 0.8486 -0.2126 0.7562
C23 C 0.9640(8) 0.1114(6) 0.6047(5)
C24 C 1.1374(9) 0.1290(10) 0.7172(7)
H14 H 1.1660 0.1945 0.6559
H15 H 1.2235 0.0457 0.7317
C25 C 1.1064(14) 0.1818(12) 0.8147(8)
H16 H 1.1869 0.2237 0.8172
H17 H 1.0021 0.2473 0.8098
C26 C 1.0836(16) 0.1369(16) 0.9857(9)
H18 H 1.1761 0.1597 0.9956
H19 H 1.0626 0.0707 1.0483
H20 H 0.9930 0.2157 0.9704
O2 O 0.8340(5) 0.4550(4) 0.4873(3)
O3 O 0.6185(6) -0.0154(4) 0.6816(3)
O4 O 1.0635(6) 0.1222(5) 0.5356(4)
O5 O 0.9867(5) 0.1080(5) 0.7000(3)
O6 O 1.1135(11) 0.0814(10) 0.8955(7)
C27 C 0.5030(8) 0.2348(6) 0.5608(5)
loop_
_geom_bond_atom_site_label_1
_geom_bond_atom_site_label_2
_geom_bond_site_symmetry_1
_geom_bond_site_symmetry_2
Br1 C4 1_555 1_555
Br2 C15 1_555 1_555
C1 C2 1_555 1_555
C2 H1 1_555 1_555
C3 C2 1_555 1_555
H2 C3 1_555 1_555
C4 C3 1_555 1_555
C5 C4 1_555 1_555
H3 C5 1_555 1_555
C6 C1 1_555 1_555
C7 C6 1_555 1_555
H4 C7 1_555 1_555
C8 C7 1_555 1_555
H5 C8 1_555 1_555
C9 C8 1_555 1_555
C10 C1 1_555 1_555
C11 C10 1_555 1_555
C12 C11 1_555 1_555
C13 C12 1_555 1_555
C14 C13 1_555 1_555
H6 C14 1_555 1_555
C15 C14 1_555 1_555
C16 C15 1_555 1_555
H7 C16 1_555 1_555
C17 C12 1_555 1_555
C18 C17 1_555 1_555
H8 C18 1_555 1_555
C19 C18 1_555 1_555
H9 C19 1_555 1_555
O1 C27 1_555 1_555
C20 C11 1_555 1_555
H10 C20 1_555 1_555
C21 C20 1_555 1_555
C22 C21 1_555 1_555
H11 C22 1_555 1_555
H12 C22 1_555 1_555
H13 C22 1_555 1_555
C23 C20 1_555 1_555
C24 H14 1_555 1_555
H15 C24 1_555 1_555
C25 C24 1_555 1_555
H16 C25 1_555 1_555
H17 C25 1_555 1_555
C26 H18 1_555 1_555
H19 C26 1_555 1_555
H20 C26 1_555 1_555
O2 C9 1_555 1_555
O3 C21 1_555 1_555
O4 C23 1_555 1_555
O5 C23 1_555 1_555
O6 C25 1_555 1_555
C27 C11 1_555 1_555
C5 C6 1_555 1_555
C9 C10 1_555 1_555
C13 O2 1_555 1_555
C16 C17 1_555 1_555
C19 C27 1_555 1_555
C24 O5 1_555 1_555
C26 O6 1_555 1_555

#END
