
#######################################################################
#
#                 Cambridge Crystallographic Data Centre
#                                CCDC 
#
#######################################################################
#
# If this CIF has been generated from an entry in the Cambridge 
# Structural Database, then it will include bibliographic, chemical, 
# crystal, experimental, refinement or atomic coordinate data resulting 
# from the CCDC's data processing and validation procedures.
#
#######################################################################

data_IKUMUW
_chemical_compound_source        
'unsaponifiable matter from seeds of Trichosanthes kirilowii Maxim'
_chemical_formula_moiety         'C30 H48 O2,C1 H4 O1,H2 O1'
_chemical_name_systematic        'Karounidiol methanol solvate monohydrate'
_chemical_properties_biological  
'inhibits in vivo the inflammatory ear oedema induced by TPA in mice and suppresses the promoting effect of TPA on skin tumour formation in mice following initiation with 7,12-dimethylbenz(a)anthracene'
_symmetry_cell_setting           orthorhombic
_symmetry_space_group_name_H-M   'P 21 21 21'
_symmetry_Int_Tables_number      19
_space_group_name_Hall           'P 2ac 2ab'
loop_
_symmetry_equiv_pos_site_id
_symmetry_equiv_pos_as_xyz
1 x,y,z
2 1/2-x,-y,1/2+z
3 -x,1/2+y,1/2-z
4 1/2+x,1/2-y,-z
_cell_length_a                   7.515(1)
_cell_length_b                   14.407(1)
_cell_length_c                   27.799(2)
_cell_angle_alpha                90
_cell_angle_beta                 90
_cell_angle_gamma                90
_cell_volume                     3009.76
_exptl_crystal_colour            colorless
_exptl_crystal_description       needle
_cell_formula_units_Z            4
_exptl_crystal_recrystallization_method chloroform/methanol/cyclohexane
loop_
_atom_site_label
_atom_site_type_symbol
_atom_site_fract_x
_atom_site_fract_y
_atom_site_fract_z
O1 O -0.8444(16) -0.5024(7) -0.2146(4)
H1 H -0.9215(16) -0.5012(7) -0.2354(4)
O2 O -0.5117(15) -1.0642(8) -0.1934(3)
H2 H -0.4161(15) -1.0909(8) -0.1903(3)
C1 C -0.7271(17) -0.5662(8) -0.1196(5)
H3 H -0.6773(17) -0.5993(8) -0.1469(5)
H4 H -0.6375(17) -0.5646(8) -0.0945(5)
C2 C -0.7716(18) -0.4659(8) -0.1350(5)
H5 H -0.8098(18) -0.4309(8) -0.1070(5)
H6 H -0.6652(18) -0.4366(8) -0.1476(5)
C3 C -0.9123(21) -0.4631(9) -0.1717(3)
H7 H -0.9380(21) -0.3976(9) -0.1783(3)
C4 C -1.0891(19) -0.5099(8) -0.1575(5)
C5 C -1.0465(15) -0.6105(7) -0.1383(3)
H8 H -1.0071(15) -0.6455(7) -0.1666(3)
C6 C -1.2124(16) -0.6606(7) -0.1207(5)
H9 H -1.2703(16) -0.6225(7) -0.0966(5)
H10 H -1.2942(16) -0.6675(7) -0.1474(5)
C7 C -1.1768(14) -0.7534(9) -0.0999(4)
H11 H -1.2729(14) -0.7928(9) -0.0947(4)
C8 C -1.0109(15) -0.7843(6) -0.0879(3)
C9 C -0.8536(14) -0.7247(7) -0.0955(3)
C10 C -0.8896(15) -0.6188(7) -0.1012(3)
C11 C -0.6914(15) -0.7596(8) -0.0946(4)
H12 H -0.5966(15) -0.7193(8) -0.0999(4)
C12 C -0.6505(15) -0.8578(9) -0.0859(4)
H13 H -0.6018(15) -0.8641(9) -0.0538(4)
H14 H -0.5596(15) -0.8775(9) -0.1085(4)
C13 C -0.8139(14) -0.9231(7) -0.0908(3)
C14 C -0.9738(16) -0.8767(8) -0.0634(3)
C15 C -1.1339(15) -0.9457(8) -0.0680(4)
H15 H -1.2408(15) -0.9166(8) -0.0555(4)
H16 H -1.1539(15) -0.9602(8) -0.1016(4)
C16 C -1.0976(16) -1.0345(9) -0.0405(4)
H17 H -1.1996(16) -1.0751(9) -0.0442(4)
H18 H -1.0881(16) -1.0193(9) -0.0066(4)
C17 C -0.9260(17) -1.0899(7) -0.0555(4)
C18 C -0.7665(15) -1.0186(9) -0.0682(4)
H19 H -0.7211(15) -1.0014(9) -0.0364(4)
C19 C -0.6094(15) -1.0728(7) -0.0903(4)
H20 H -0.4938(15) -1.0564(7) -0.0819(4)
C20 C -0.6386(18) -1.1541(9) -0.1263(4)
C21 C -0.8080(20) -1.2109(10) -0.1135(5)
H21 H -0.8429(20) -1.2475(10) -0.1413(5)
H22 H -0.7802(20) -1.2534(10) -0.0876(5)
C22 C -0.9663(17) -1.1487(10) -0.0982(5)
H23 H -0.9987(17) -1.1088(10) -0.1249(5)
H24 H -1.0678(17) -1.1878(10) -0.0910(5)
C23 C -1.1840(22) -0.4447(10) -0.1221(5)
H25 H -1.2950(22) -0.4719(10) -0.1124(5)
H26 H -1.2061(22) -0.3861(10) -0.1374(5)
H27 H -1.1103(22) -0.4353(10) -0.0943(5)
C24 C -1.2105(22) -0.5160(12) -0.2022(6)
H28 H -1.1571(22) -0.5563(12) -0.2256(6)
H29 H -1.2253(22) -0.4552(12) -0.2158(6)
H30 H -1.3245(22) -0.5402(12) -0.1930(6)
C25 C -0.9434(20) -0.5832(9) -0.0491(4)
H31 H -1.0458(20) -0.6168(9) -0.0380(4)
H32 H -0.9708(20) -0.5182(9) -0.0505(4)
H33 H -0.8461(20) -0.5931(9) -0.0273(4)
C26 C -0.9320(17) -0.8572(8) -0.0114(4)
H34 H -0.9078(17) -0.9145(8) 0.0049(4)
H35 H -1.0319(17) -0.8271(8) 0.0034(4)
H36 H -0.8296(17) -0.8175(8) -0.0095(4)
C27 C -0.8542(15) -0.9298(7) -0.1451(4)
H37 H -0.9549(15) -0.9697(7) -0.1501(4)
H38 H -0.7526(15) -0.9548(7) -0.1615(4)
H39 H -0.8802(15) -0.8691(7) -0.1574(4)
C28 C -0.8732(23) -1.1478(11) -0.0127(6)
H40 H -0.8481(23) -1.1079(11) 0.0141(6)
H41 H -0.7690(23) -1.1834(11) -0.0205(6)
H42 H -0.9688(23) -1.1891(11) -0.0045(6)
C29 C -0.6512(23) -1.1236(10) -0.1785(5)
H43 H -0.6512(23) -1.1784(10) -0.1988(5)
H44 H -0.7637(23) -1.0920(10) -0.1832(5)
C30 C -0.4762(20) -1.2201(10) -0.1226(6)
H45 H -0.4636(20) -1.2410(10) -0.0900(6)
H46 H -0.3705(20) -1.1876(10) -0.1322(6)
H47 H -0.4940(20) -1.2726(10) -0.1433(6)
O3 O -0.4260(18) -0.9053(9) -0.2427(4)
H48 H -0.3810(16) -0.9590(7) -0.2400(4)
C31 C -0.3636(31) -0.8432(15) -0.2101(6)
H49 H -0.2440(20) -0.8630(10) -0.2070(6)
H50 H -0.4130(20) -0.8460(10) -0.1782(6)
H51 H -0.3584(20) -0.7798(10) -0.2199(6)
O4 O -0.2139(37) -1.1501(15) -0.2292(10)
loop_
_geom_bond_atom_site_label_1
_geom_bond_atom_site_label_2
_geom_bond_site_symmetry_1
_geom_bond_site_symmetry_2
O1 H1 1_555 1_555
O2 H2 1_555 1_555
C1 H3 1_555 1_555
H4 C1 1_555 1_555
C2 C1 1_555 1_555
H5 C2 1_555 1_555
H6 C2 1_555 1_555
C3 O1 1_555 1_555
H7 C3 1_555 1_555
C4 C3 1_555 1_555
C5 C4 1_555 1_555
H8 C5 1_555 1_555
C6 C5 1_555 1_555
H9 C6 1_555 1_555
H10 C6 1_555 1_555
C7 C6 1_555 1_555
H11 C7 1_555 1_555
C8 C7 1_555 1_555
C9 C8 1_555 1_555
C10 C1 1_555 1_555
C11 C9 1_555 1_555
H12 C11 1_555 1_555
C12 C11 1_555 1_555
H13 C12 1_555 1_555
H14 C12 1_555 1_555
C13 C12 1_555 1_555
C14 C8 1_555 1_555
C15 C14 1_555 1_555
H15 C15 1_555 1_555
H16 C15 1_555 1_555
C16 C15 1_555 1_555
H17 C16 1_555 1_555
H18 C16 1_555 1_555
C17 C16 1_555 1_555
C18 C13 1_555 1_555
H19 C18 1_555 1_555
C19 C18 1_555 1_555
H20 C19 1_555 1_555
C20 C19 1_555 1_555
C21 C20 1_555 1_555
H21 C21 1_555 1_555
H22 C21 1_555 1_555
C22 C17 1_555 1_555
H23 C22 1_555 1_555
H24 C22 1_555 1_555
C23 C4 1_555 1_555
H25 C23 1_555 1_555
H26 C23 1_555 1_555
H27 C23 1_555 1_555
C24 C4 1_555 1_555
H28 C24 1_555 1_555
H29 C24 1_555 1_555
H30 C24 1_555 1_555
C25 C10 1_555 1_555
H31 C25 1_555 1_555
H32 C25 1_555 1_555
H33 C25 1_555 1_555
C26 C14 1_555 1_555
H34 C26 1_555 1_555
H35 C26 1_555 1_555
H36 C26 1_555 1_555
C27 C13 1_555 1_555
H37 C27 1_555 1_555
H38 C27 1_555 1_555
H39 C27 1_555 1_555
C28 C17 1_555 1_555
H40 C28 1_555 1_555
H41 C28 1_555 1_555
H42 C28 1_555 1_555
C29 O2 1_555 1_555
H43 C29 1_555 1_555
H44 C29 1_555 1_555
C30 C20 1_555 1_555
H45 C30 1_555 1_555
H46 C30 1_555 1_555
H47 C30 1_555 1_555
O3 H48 1_555 1_555
C31 O3 1_555 1_555
H49 C31 1_555 1_555
H50 C31 1_555 1_555
H51 C31 1_555 1_555
C2 C3 1_555 1_555
C5 C10 1_555 1_555
C9 C10 1_555 1_555
C13 C14 1_555 1_555
C17 C18 1_555 1_555
C20 C29 1_555 1_555
C21 C22 1_555 1_555

#END
