
#######################################################################
#
#                 Cambridge Crystallographic Data Centre
#                                CCDC 
#
#######################################################################
#
# If this CIF has been generated from an entry in the Cambridge 
# Structural Database, then it will include bibliographic, chemical, 
# crystal, experimental, refinement or atomic coordinate data resulting 
# from the CCDC's data processing and validation procedures.
#
#######################################################################

data_ILAHEI
_chemical_formula_moiety         'C14 H15 Cl1 N2 O3'
_chemical_name_systematic        
4-(2-chlorophenyl)-5-(ethoxycarbonyl)-6-methyl-3,4-dihydropyrimidin-2H-one
_symmetry_cell_setting           triclinic
_symmetry_space_group_name_H-M   'P -1'
_symmetry_Int_Tables_number      2
_space_group_name_Hall           '-P 1'
loop_
_symmetry_equiv_pos_site_id
_symmetry_equiv_pos_as_xyz
1 x,y,z
2 -x,-y,-z
_cell_length_a                   7.6877(14)
_cell_length_b                   9.1061(16)
_cell_length_c                   11.412(2)
_cell_angle_alpha                102.963(3)
_cell_angle_beta                 105.957(2)
_cell_angle_gamma                102.484(2)
_cell_volume                     714.872
_exptl_crystal_colour            colorless
_exptl_crystal_description       block
_chemical_melting_point          488-490K
_cell_formula_units_Z            2
_exptl_crystal_recrystallization_method '95% ethanol'
loop_
_atom_site_label
_atom_site_type_symbol
_atom_site_fract_x
_atom_site_fract_y
_atom_site_fract_z
Cl1 Cl 0.0444(3) 0.1688(2) 0.1553(2)
O1 O 0.2701(5) 0.8583(4) 0.4415(4)
O2 O 0.8378(5) 0.4700(4) 0.3530(4)
O3 O 0.5545(4) 0.2911(4) 0.2905(3)
N1 N 0.5447(5) 0.8081(4) 0.4404(4)
H1 H 0.6016 0.9078 0.4668
N2 N 0.2688(5) 0.6060(4) 0.3709(4)
H2 H 0.1586 0.5717 0.3760
C1 C 0.2729(6) 0.4458(6) 0.1671(4)
C2 C 0.1378(7) 0.3067(7) 0.0907(5)
C3 C 0.0679(9) 0.2725(10) -0.0441(7)
H3 H -0.0241 0.1782 -0.0955
C4 C 0.1396(12) 0.3818(13) -0.0960(7)
H4 H 0.0961 0.3602 -0.1844
C5 C 0.2712(12) 0.5199(11) -0.0241(7)
H5 H 0.3168 0.5924 -0.0625
C6 C 0.3380(9) 0.5532(8) 0.1070(5)
H6 H 0.4283 0.6491 0.1566
C7 C 0.3501(6) 0.4898(5) 0.3128(4)
H7 H 0.3121 0.3942 0.3369
C8 C 0.5639(6) 0.5511(5) 0.3644(4)
C9 C 0.6528(6) 0.7060(5) 0.4252(4)
C10 C 0.3534(6) 0.7606(5) 0.4163(5)
C11 C 0.6703(6) 0.4390(5) 0.3384(4)
C12 C 0.6364(8) 0.1688(6) 0.2498(6)
H8 H 0.7240 0.1562 0.3237
H9 H 0.7059 0.1975 0.1951
C13 C 0.4853(11) 0.0212(8) 0.1803(9)
H10 H 0.5388 -0.0606 0.1528
H11 H 0.3995 0.0342 0.1071
H12 H 0.4179 -0.0072 0.2353
C14 C 0.8608(7) 0.7849(6) 0.4819(5)
H13 H 0.9269 0.7081 0.4678
H14 H 0.8945 0.8335 0.5720
H15 H 0.8950 0.8639 0.4422
loop_
_geom_bond_atom_site_label_1
_geom_bond_atom_site_label_2
_geom_bond_site_symmetry_1
_geom_bond_site_symmetry_2
Cl1 C2 1_555 1_555
O1 C10 1_555 1_555
O2 C11 1_555 1_555
O3 C11 1_555 1_555
N1 H1 1_555 1_555
N2 H2 1_555 1_555
C1 C2 1_555 1_555
C2 C3 1_555 1_555
C3 H3 1_555 1_555
C4 C3 1_555 1_555
H4 C4 1_555 1_555
C5 C4 1_555 1_555
H5 C5 1_555 1_555
C6 C1 1_555 1_555
H6 C6 1_555 1_555
C7 N2 1_555 1_555
H7 C7 1_555 1_555
C8 C7 1_555 1_555
C9 N1 1_555 1_555
C10 N1 1_555 1_555
C11 C8 1_555 1_555
C12 O3 1_555 1_555
H8 C12 1_555 1_555
H9 C12 1_555 1_555
C13 C12 1_555 1_555
H10 C13 1_555 1_555
H11 C13 1_555 1_555
H12 C13 1_555 1_555
C14 C9 1_555 1_555
H13 C14 1_555 1_555
H14 C14 1_555 1_555
H15 C14 1_555 1_555
N2 C10 1_555 1_555
C1 C7 1_555 1_555
C5 C6 1_555 1_555
C8 C9 1_555 1_555

#END
