
#######################################################################
#
#                 Cambridge Crystallographic Data Centre
#                                CCDC 
#
#######################################################################
#
# If this CIF has been generated from an entry in the Cambridge 
# Structural Database, then it will include bibliographic, chemical, 
# crystal, experimental, refinement or atomic coordinate data resulting 
# from the CCDC's data processing and validation procedures.
#
#######################################################################

data_ILAJUC
_chemical_name_common            
"2'-Hydroxy-1,1'-binaphthalen-2-yl ((2-(dimethylcarbamoyl)-27-((dimethylcarbamoyl)oxy)-23-nitro-26,28-dipropoxypentacyclo[19.3.1.1$3,7!.1$9,13!.1$15,19!]octacosa-1(25),3(28),4,6,9(27),10,12,15(26),16,18,21,23-dodecaen-25-yl)oxy)acetate toluene solvate"
_chemical_formula_moiety         'C62 H59 N3 O11,C7 H8'
_chemical_name_systematic        
"2-((Dimethylamino)carbonyl)-27-((dimethylcarbamoyl)oxy)-23-nitro-26,28-dipropoxy-25-((2-((2'-hydroxy(1,1'-binaphthalen)-2-yl)oxy)-2-oxoethyl)oxy)calix(4)arene toluene solvate"
_symmetry_cell_setting           orthorhombic
_symmetry_space_group_name_H-M   'P 21 21 21'
_symmetry_Int_Tables_number      19
_space_group_name_Hall           'P 2ac 2ab'
loop_
_symmetry_equiv_pos_site_id
_symmetry_equiv_pos_as_xyz
1 x,y,z
2 1/2-x,-y,1/2+z
3 -x,1/2+y,1/2-z
4 1/2+x,1/2-y,-z
_cell_length_a                   10.352(2)
_cell_length_b                   22.417(5)
_cell_length_c                   25.109(5)
_cell_angle_alpha                90
_cell_angle_beta                 90
_cell_angle_gamma                90
_cell_volume                     5826.81
_exptl_crystal_colour            colorless
_exptl_crystal_description       block
_cell_formula_units_Z            4
loop_
_atom_site_label
_atom_site_type_symbol
_atom_site_fract_x
_atom_site_fract_y
_atom_site_fract_z
O1 O 0.3171(3) 0.03067(11) 0.01076(10)
O2 O 0.3720(2) -0.12381(10) 0.01153(11)
O3 O 0.3014(2) -0.06184(10) 0.12224(9)
O4 O 0.1971(2) 0.08710(10) 0.11604(9)
O5 O 0.1037(2) 0.20302(10) 0.10355(10)
O6 O -0.0101(2) 0.19282(10) 0.18051(9)
O7 O 0.3068(2) 0.29944(10) 0.15100(9)
H1 H 0.3498 0.2858 0.1254
O8 O 0.4418(2) 0.23970(10) 0.07692(9)
O9 O 0.4781(3) -0.20346(12) -0.02210(12)
O10 O 0.7982(3) 0.11204(15) 0.10827(12)
O11 O 0.7828(3) 0.05110(13) 0.17344(12)
N1 N 0.3105(3) 0.25175(13) 0.00606(11)
N2 N 0.2592(3) -0.19601(14) -0.02913(14)
N3 N 0.7333(3) 0.08352(13) 0.13981(12)
C1 C 0.4041(3) 0.06261(15) -0.01943(13)
C2 C 0.4178(3) 0.12315(15) -0.01046(13)
C3 C 0.5044(3) 0.15589(16) -0.04131(13)
H2 H 0.5144 0.1975 -0.0356
C4 C 0.5764(4) 0.12699(17) -0.08062(14)
H3 H 0.6307 0.1496 -0.1035
C5 C 0.5693(4) 0.06570(17) -0.08640(14)
H4 H 0.6227 0.0463 -0.1119
C6 C 0.4847(3) 0.03196(16) -0.05531(13)
C7 C 0.4904(4) -0.03488(16) -0.05440(14)
H5 H 0.5427 -0.0492 -0.0848
H6 H 0.4021 -0.0513 -0.0583
C8 C 0.5494(3) -0.05708(16) -0.00266(14)
C9 C 0.6638(4) -0.03223(16) 0.01614(15)
H7 H 0.7060 -0.0023 -0.0042
C10 C 0.7173(4) -0.05055(17) 0.06415(15)
H8 H 0.7969 -0.0341 0.0760
C11 C 0.6546(3) -0.09271(15) 0.09458(15)
H9 H 0.6912 -0.1047 0.1276
C12 C 0.5390(3) -0.11807(15) 0.07811(15)
C13 C 0.4905(3) -0.10044(14) 0.02872(14)
C14 C 0.4679(4) -0.16081(15) 0.11494(17)
H10 H 0.3857 -0.1734 0.0983
H11 H 0.5213 -0.1968 0.1211
C15 C 0.4411(3) -0.13021(14) 0.16693(15)
C16 C 0.5010(3) -0.14752(16) 0.21422(16)
H12 H 0.5500 -0.1833 0.2150
C17 C 0.4905(4) -0.11359(17) 0.26008(15)
H13 H 0.5281 -0.1274 0.2923
C18 C 0.4246(3) -0.05892(16) 0.25901(15)
H14 H 0.4225 -0.0343 0.2898
C19 C 0.3626(3) -0.04109(13) 0.21270(13)
C20 C 0.3647(3) -0.07887(14) 0.16795(14)
C21 C 0.3034(3) 0.02104(14) 0.20673(14)
H15 H 0.2138 0.0176 0.1933
H16 H 0.3008 0.0412 0.2418
C22 C 0.3843(3) 0.05758(14) 0.16794(13)
C23 C 0.5167(3) 0.05708(14) 0.17321(13)
H17 H 0.5561 0.0366 0.2021
C24 C 0.5920(3) 0.08658(14) 0.13613(13)
C25 C 0.5390(3) 0.11801(14) 0.09407(13)
H18 H 0.5930 0.1385 0.0696
C26 C 0.4057(3) 0.11913(13) 0.08819(12)
C27 C 0.3289(3) 0.08966(14) 0.12527(13)
C28 C 0.3508(3) 0.14995(14) 0.03916(12)
H19 H 0.2561 0.1413 0.0370
C29 C 0.3697(3) 0.21746(14) 0.04243(13)
C30 C 0.2207(4) 0.22860(19) -0.03330(16)
H20 H 0.2685 0.2064 -0.0605
H21 H 0.1744 0.2618 -0.0500
H22 H 0.1587 0.2020 -0.0159
C31 C 0.3433(4) 0.31512(16) 0.00239(16)
H23 H 0.2642 0.3390 0.0044
H24 H 0.3869 0.3228 -0.0316
H25 H 0.4009 0.3259 0.0319
C32 C 0.2022(5) 0.0131(3) -0.0157(2)
H26 H 0.2255 -0.0024 -0.0513
H27 H 0.1627 -0.0202 0.0045
C33 C 0.1109(7) 0.0571(3) -0.0220(3)
H28 H 0.1510 0.0924 -0.0388
H29 H 0.0772 0.0691 0.0133
C34 C -0.0089(6) 0.0327(3) -0.0595(4)
H30 H 0.0261 0.0143 -0.0918
H31 H -0.0649 0.0662 -0.0692
H32 H -0.0591 0.0030 -0.0396
C35 C 0.3770(4) -0.17755(15) -0.01490(15)
C36 C 0.1392(4) -0.16333(19) -0.01990(19)
H33 H 0.1564 -0.1290 0.0031
H34 H 0.0763 -0.1897 -0.0026
H35 H 0.1044 -0.1494 -0.0540
C37 C 0.2460(5) -0.2511(2) -0.0605(2)
H36 H 0.2258 -0.2410 -0.0975
H37 H 0.1762 -0.2755 -0.0456
H38 H 0.3272 -0.2735 -0.0592
C38 C 0.1626(4) -0.07432(18) 0.12344(19)
H39 H 0.1233 -0.0586 0.0903
H40 H 0.1239 -0.0524 0.1537
C39 C 0.1285(4) -0.1385(2) 0.12855(19)
H41 H 0.1615 -0.1541 0.1628
H42 H 0.1698 -0.1614 0.0994
C40 C -0.0185(4) -0.1467(2) 0.12603(19)
H43 H -0.0593 -0.1232 0.1543
H44 H -0.0398 -0.1889 0.1308
H45 H -0.0504 -0.1331 0.0913
C41 C 0.1160(3) 0.11203(14) 0.15567(13)
H46 H 0.1631 0.1131 0.1900
H47 H 0.0391 0.0863 0.1603
C42 C 0.0729(3) 0.17427(14) 0.14139(13)
C43 C -0.0231(3) 0.25504(14) 0.18793(14)
C44 C -0.1420(3) 0.28113(16) 0.17607(15)
H48 H -0.2105 0.2577 0.1622
C45 C -0.1585(4) 0.34065(16) 0.18467(16)
H49 H -0.2388 0.3589 0.1762
C46 C -0.0573(3) 0.37560(16) 0.20611(14)
C47 C -0.0699(4) 0.43838(16) 0.21380(16)
H50 H -0.1485 0.4576 0.2045
C48 C 0.0289(4) 0.47104(16) 0.23423(17)
H51 H 0.0190 0.5128 0.2393
C49 C 0.1456(4) 0.44321(17) 0.24790(16)
H52 H 0.2135 0.4664 0.2628
C50 C 0.1634(4) 0.38362(16) 0.24029(14)
H53 H 0.2437 0.3658 0.2494
C51 C 0.0628(3) 0.34804(15) 0.21891(13)
C52 C 0.0791(3) 0.28547(14) 0.20988(13)
C53 C 0.2021(3) 0.25371(14) 0.22342(13)
C54 C 0.2065(3) 0.21168(15) 0.26706(13)
C55 C 0.0976(4) 0.20078(18) 0.29994(15)
H54 H 0.0203 0.2228 0.2945
C56 C 0.1032(5) 0.1583(2) 0.33998(17)
H55 H 0.0291 0.1508 0.3613
C57 C 0.2176(5) 0.1262(2) 0.34926(17)
H56 H 0.2205 0.0969 0.3765
C58 C 0.3237(4) 0.13715(18) 0.31939(16)
H57 H 0.4012 0.1161 0.3268
C59 C 0.3221(4) 0.17951(16) 0.27707(13)
C60 C 0.4300(3) 0.18828(15) 0.24432(13)
H58 H 0.5072 0.1666 0.2510
C61 C 0.4250(3) 0.22787(15) 0.20273(14)
H59 H 0.4988 0.2335 0.1808
C62 C 0.3108(3) 0.26031(14) 0.19225(13)
C63 C 0.7941(7) 0.8221(4) 0.9446(3)
H60 H 0.8185 0.8564 0.9666
H61 H 0.8594 0.7907 0.9483
H62 H 0.7101 0.8068 0.9564
C64 C 0.7855(4) 0.84024(17) 0.88943(13)
C65 C 0.8014(4) 0.90161(17) 0.88493(17)
H63 H 0.8215 0.9247 0.9155
C66 C 0.7878(5) 0.92915(16) 0.8356(2)
H64 H 0.7986 0.9711 0.8326
C67 C 0.7583(4) 0.8953(3) 0.79087(16)
H65 H 0.7490 0.9141 0.7572
C68 C 0.7423(4) 0.8340(3) 0.79538(14)
H66 H 0.7222 0.8108 0.7648
C69 C 0.7559(4) 0.80642(16) 0.84466(17)
H67 H 0.7451 0.7645 0.8477
loop_
_geom_bond_atom_site_label_1
_geom_bond_atom_site_label_2
_geom_bond_site_symmetry_1
_geom_bond_site_symmetry_2
O1 C1 1_555 1_555
O2 C13 1_555 1_555
O3 C20 1_555 1_555
O4 C27 1_555 1_555
O5 C42 1_555 1_555
O6 C42 1_555 1_555
O7 H1 1_555 1_555
O8 C29 1_555 1_555
O9 C35 1_555 1_555
O10 N3 1_555 1_555
O11 N3 1_555 1_555
N1 C29 1_555 1_555
N2 C35 1_555 1_555
N3 C24 1_555 1_555
C1 C2 1_555 1_555
C2 C3 1_555 1_555
C3 H2 1_555 1_555
C4 C3 1_555 1_555
H3 C4 1_555 1_555
C5 C4 1_555 1_555
H4 C5 1_555 1_555
C6 C1 1_555 1_555
C7 C6 1_555 1_555
H5 C7 1_555 1_555
H6 C7 1_555 1_555
C8 C7 1_555 1_555
C9 C8 1_555 1_555
H7 C9 1_555 1_555
C10 C9 1_555 1_555
H8 C10 1_555 1_555
C11 C10 1_555 1_555
H9 C11 1_555 1_555
C12 C11 1_555 1_555
C13 C8 1_555 1_555
C14 C12 1_555 1_555
H10 C14 1_555 1_555
H11 C14 1_555 1_555
C15 C14 1_555 1_555
C16 C15 1_555 1_555
H12 C16 1_555 1_555
C17 C16 1_555 1_555
H13 C17 1_555 1_555
C18 C17 1_555 1_555
H14 C18 1_555 1_555
C19 C18 1_555 1_555
C20 C15 1_555 1_555
C21 C19 1_555 1_555
H15 C21 1_555 1_555
H16 C21 1_555 1_555
C22 C21 1_555 1_555
C23 C22 1_555 1_555
H17 C23 1_555 1_555
C24 C23 1_555 1_555
C25 C24 1_555 1_555
H18 C25 1_555 1_555
C26 C25 1_555 1_555
C27 C22 1_555 1_555
C28 C2 1_555 1_555
H19 C28 1_555 1_555
C29 C28 1_555 1_555
C30 N1 1_555 1_555
H20 C30 1_555 1_555
H21 C30 1_555 1_555
H22 C30 1_555 1_555
C31 N1 1_555 1_555
H23 C31 1_555 1_555
H24 C31 1_555 1_555
H25 C31 1_555 1_555
C32 O1 1_555 1_555
H26 C32 1_555 1_555
H27 C32 1_555 1_555
C33 C32 1_555 1_555
H28 C33 1_555 1_555
H29 C33 1_555 1_555
C34 C33 1_555 1_555
H30 C34 1_555 1_555
H31 C34 1_555 1_555
H32 C34 1_555 1_555
C35 O2 1_555 1_555
C36 N2 1_555 1_555
H33 C36 1_555 1_555
H34 C36 1_555 1_555
H35 C36 1_555 1_555
C37 N2 1_555 1_555
H36 C37 1_555 1_555
H37 C37 1_555 1_555
H38 C37 1_555 1_555
C38 O3 1_555 1_555
H39 C38 1_555 1_555
H40 C38 1_555 1_555
C39 C38 1_555 1_555
H41 C39 1_555 1_555
H42 C39 1_555 1_555
C40 C39 1_555 1_555
H43 C40 1_555 1_555
H44 C40 1_555 1_555
H45 C40 1_555 1_555
C41 O4 1_555 1_555
H46 C41 1_555 1_555
H47 C41 1_555 1_555
C42 C41 1_555 1_555
C43 O6 1_555 1_555
C44 C43 1_555 1_555
H48 C44 1_555 1_555
C45 C44 1_555 1_555
H49 C45 1_555 1_555
C46 C45 1_555 1_555
C47 C46 1_555 1_555
H50 C47 1_555 1_555
C48 C47 1_555 1_555
H51 C48 1_555 1_555
C49 C48 1_555 1_555
H52 C49 1_555 1_555
C50 C49 1_555 1_555
H53 C50 1_555 1_555
C51 C46 1_555 1_555
C52 C43 1_555 1_555
C53 C52 1_555 1_555
C54 C53 1_555 1_555
C55 C54 1_555 1_555
H54 C55 1_555 1_555
C56 C55 1_555 1_555
H55 C56 1_555 1_555
C57 C56 1_555 1_555
H56 C57 1_555 1_555
C58 C57 1_555 1_555
H57 C58 1_555 1_555
C59 C54 1_555 1_555
C60 C59 1_555 1_555
H58 C60 1_555 1_555
C61 C60 1_555 1_555
H59 C61 1_555 1_555
C62 O7 1_555 1_555
C63 H60 1_555 1_555
H61 C63 1_555 1_555
H62 C63 1_555 1_555
C64 C63 1_555 1_555
C65 C64 1_555 1_555
H63 C65 1_555 1_555
C66 C65 1_555 1_555
H64 C66 1_555 1_555
C67 C66 1_555 1_555
H65 C67 1_555 1_555
C68 C67 1_555 1_555
H66 C68 1_555 1_555
C69 C64 1_555 1_555
H67 C69 1_555 1_555
C5 C6 1_555 1_555
C12 C13 1_555 1_555
C19 C20 1_555 1_555
C26 C27 1_555 1_555
C26 C28 1_555 1_555
C50 C51 1_555 1_555
C51 C52 1_555 1_555
C53 C62 1_555 1_555
C58 C59 1_555 1_555
C61 C62 1_555 1_555
C68 C69 1_555 1_555

#END
