
#######################################################################
#
#                 Cambridge Crystallographic Data Centre
#                                CCDC 
#
#######################################################################
#
# If this CIF has been generated from an entry in the Cambridge 
# Structural Database, then it will include bibliographic, chemical, 
# crystal, experimental, refinement or atomic coordinate data resulting 
# from the CCDC's data processing and validation procedures.
#
#######################################################################

data_ILEWEC
_chemical_formula_moiety         'C21 H13 F1 N4 O3'
_chemical_name_systematic        
(2-(2-Fluoro-4-nitrophenyl)-5-phenyl-2H-1,2,3-triazol-4-yl)(phenyl)methanone
_symmetry_cell_setting           monoclinic
_symmetry_space_group_name_H-M   'P 21/n'
_symmetry_Int_Tables_number      14
_space_group_name_Hall           '-P 2yn'
loop_
_symmetry_equiv_pos_site_id
_symmetry_equiv_pos_as_xyz
1 x,y,z
2 1/2-x,1/2+y,1/2-z
3 -x,-y,-z
4 1/2+x,1/2-y,1/2+z
_cell_length_a                   7.2673(8)
_cell_length_b                   33.408(3)
_cell_length_c                   7.3747(8)
_cell_angle_alpha                90
_cell_angle_beta                 98.931(5)
_cell_angle_gamma                90
_cell_volume                     1768.77
_cell_formula_units_Z            4
loop_
_atom_site_label
_atom_site_type_symbol
_atom_site_fract_x
_atom_site_fract_y
_atom_site_fract_z
C1 C 0.7751(5) 0.22027(9) 0.9715(4)
C2 C 0.8466(6) 0.25815(11) 1.0122(6)
H1 H 0.9740 0.2626 1.0216
C3 C 0.5863(6) 0.21465(11) 0.9590(6)
H2 H 0.5351 0.1895 0.9294
C4 C 0.5447(8) 0.28306(13) 1.0265(6)
H3 H 0.4673 0.3045 1.0435
C5 C 0.7303(8) 0.28884(13) 1.0383(7)
H4 H 0.7794 0.3143 1.0648
C6 C 0.4716(7) 0.24630(15) 0.9902(7)
H5 H 0.3445 0.2422 0.9861
C7 C 0.9212(4) 0.09061(9) 1.1016(4)
C8 C 0.9750(5) 0.11362(10) 1.2566(4)
H6 H 0.9564 0.1412 1.2513
C9 C 0.9472(5) 0.04989(10) 1.1139(5)
H7 H 0.9103 0.0339 1.0114
C10 C 1.0563(5) 0.09613(11) 1.4196(4)
H8 H 1.0921 0.1119 1.5228
C11 C 1.0841(5) 0.05578(11) 1.4292(5)
H9 H 1.1410 0.0442 1.5383
C12 C 1.0281(5) 0.03225(10) 1.2780(5)
H10 H 1.0441 0.0047 1.2852
C13 C 0.5955(4) 0.10047(9) 0.4804(4)
C14 C 0.5826(4) 0.06130(9) 0.4222(4)
C15 C 0.5014(5) 0.05126(10) 0.2465(4)
H11 H 0.4951 0.0248 0.2071
C16 C 0.4301(4) 0.08179(11) 0.1315(4)
C17 C 0.4350(5) 0.12075(11) 0.1859(5)
H12 H 0.3823 0.1407 0.1065
C18 C 0.5194(5) 0.12992(10) 0.3607(5)
H13 H 0.5255 0.1565 0.3990
C19 C 0.8358(4) 0.10858(9) 0.9264(4)
C20 C 0.9025(6) 0.18646(9) 0.9511(4)
N1 N 0.7487(4) 0.08563(7) 0.7902(3)
N2 N 0.6890(4) 0.11135(7) 0.6579(3)
C21 C 0.8220(4) 0.14870(9) 0.8677(4)
N3 N 0.7271(4) 0.14989(7) 0.6975(4)
N4 N 0.3478(4) 0.07174(12) -0.0570(4)
O1 O 0.3303(4) 0.03645(10) -0.1011(4)
O2 O 0.3027(4) 0.09991(10) -0.1617(4)
O3 O 1.0707(4) 0.18864(7) 1.0018(4)
F1 F 0.6520(3) 0.03147(6) 0.5298(3)
loop_
_geom_bond_atom_site_label_1
_geom_bond_atom_site_label_2
_geom_bond_site_symmetry_1
_geom_bond_site_symmetry_2
C1 C2 1_555 1_555
C2 H1 1_555 1_555
C3 C1 1_555 1_555
H2 C3 1_555 1_555
C4 H3 1_555 1_555
C5 C2 1_555 1_555
H4 C5 1_555 1_555
C6 C3 1_555 1_555
H5 C6 1_555 1_555
C7 C8 1_555 1_555
C8 H6 1_555 1_555
C9 C7 1_555 1_555
H7 C9 1_555 1_555
C10 C8 1_555 1_555
H8 C10 1_555 1_555
C11 C10 1_555 1_555
H9 C11 1_555 1_555
C12 C9 1_555 1_555
H10 C12 1_555 1_555
C13 C14 1_555 1_555
C14 C15 1_555 1_555
C15 H11 1_555 1_555
C16 C15 1_555 1_555
C17 C16 1_555 1_555
H12 C17 1_555 1_555
C18 C13 1_555 1_555
H13 C18 1_555 1_555
C19 C7 1_555 1_555
C20 C1 1_555 1_555
N1 C19 1_555 1_555
N2 C13 1_555 1_555
C21 C19 1_555 1_555
N3 N2 1_555 1_555
N4 C16 1_555 1_555
O1 N4 1_555 1_555
O2 N4 1_555 1_555
O3 C20 1_555 1_555
F1 C14 1_555 1_555
C4 C5 1_555 1_555
C4 C6 1_555 1_555
C11 C12 1_555 1_555
C17 C18 1_555 1_555
C20 C21 1_555 1_555
N1 N2 1_555 1_555
C21 N3 1_555 1_555

#END
