
#######################################################################
#
#                 Cambridge Crystallographic Data Centre
#                                CCDC 
#
#######################################################################
#
# If this CIF has been generated from an entry in the Cambridge 
# Structural Database, then it will include bibliographic, chemical, 
# crystal, experimental, refinement or atomic coordinate data resulting 
# from the CCDC's data processing and validation procedures.
#
#######################################################################

data_ILEYEE
_chemical_formula_moiety         'C12 H14 N4 O2 S1'
_chemical_name_systematic        
'Ethyl ((1-(2-methylphenyl)-1H-tetrazol-5-yl)sulfanyl)acetate'
_symmetry_cell_setting           monoclinic
_symmetry_space_group_name_H-M   'P 21/c'
_symmetry_Int_Tables_number      14
_space_group_name_Hall           '-P 2ybc'
loop_
_symmetry_equiv_pos_site_id
_symmetry_equiv_pos_as_xyz
1 x,y,z
2 -x,1/2+y,1/2-z
3 -x,-y,-z
4 x,1/2-y,1/2+z
_cell_length_a                   7.5908(15)
_cell_length_b                   17.547(4)
_cell_length_c                   10.757(2)
_cell_angle_alpha                90
_cell_angle_beta                 103.48(3)
_cell_angle_gamma                90
_cell_volume                     1393.32
_exptl_crystal_colour            colorless
_exptl_crystal_description       block
_cell_formula_units_Z            4
loop_
_atom_site_label
_atom_site_type_symbol
_atom_site_fract_x
_atom_site_fract_y
_atom_site_fract_z
S1 S 0.11560(7) 0.49553(3) 0.82888(6)
N1 N 0.4443(2) 0.45549(8) 0.79191(16)
O1 O 0.1326(2) 0.71415(8) 0.89165(14)
C1 C 0.3962(3) 0.38218(10) 0.73447(19)
N2 N 0.6135(2) 0.54953(10) 0.8615(2)
N3 N 0.4455(2) 0.56695(9) 0.87878(18)
C2 C 0.3433(3) 0.50784(10) 0.8346(2)
C3 C 0.0896(3) 0.65314(12) 0.8204(2)
C4 C 0.3066(3) 0.37846(11) 0.6063(2)
C5 C 0.4465(3) 0.31822(11) 0.8085(2)
H1 H 0.5045 0.3228 0.8944
C6 C 0.0765(3) 0.58431(11) 0.9012(2)
H2 H -0.0432 0.5831 0.9188
H3 H 0.1641 0.5894 0.9824
C7 C 0.2688(3) 0.30590(11) 0.5550(2)
H4 H 0.2069 0.3009 0.4700
C8 C 0.3206(3) 0.24156(11) 0.6267(2)
H5 H 0.2953 0.1938 0.5895
N4 N 0.6161(2) 0.48344(10) 0.81013(19)
C9 C 0.4098(3) 0.24739(11) 0.7534(3)
H6 H 0.4451 0.2036 0.8015
O2 O 0.0600(3) 0.65239(10) 0.70634(16)
C10 C 0.1344(3) 0.78599(13) 0.8243(3)
H7 H 0.0122 0.8000 0.7803
H8 H 0.2071 0.7812 0.7616
C11 C 0.2125(4) 0.84497(14) 0.9201(3)
H9 H 0.2148 0.8930 0.8779
H10 H 0.3337 0.8307 0.9626
H11 H 0.1397 0.8493 0.9817
C12 C 0.2567(4) 0.44833(13) 0.5257(2)
H12 H 0.1956 0.4337 0.4406
H13 H 0.3644 0.4763 0.5230
H14 H 0.1780 0.4798 0.5619
loop_
_geom_bond_atom_site_label_1
_geom_bond_atom_site_label_2
_geom_bond_site_symmetry_1
_geom_bond_site_symmetry_2
S1 C2 1_555 1_555
N1 C1 1_555 1_555
O1 C3 1_555 1_555
C1 C4 1_555 1_555
N2 N3 1_555 1_555
N3 C2 1_555 1_555
C2 N1 1_555 1_555
C3 C6 1_555 1_555
C4 C7 1_555 1_555
C5 C1 1_555 1_555
H1 C5 1_555 1_555
C6 S1 1_555 1_555
H2 C6 1_555 1_555
H3 C6 1_555 1_555
C7 H4 1_555 1_555
C8 C7 1_555 1_555
H5 C8 1_555 1_555
N4 N1 1_555 1_555
C9 C5 1_555 1_555
H6 C9 1_555 1_555
O2 C3 1_555 1_555
C10 O1 1_555 1_555
H7 C10 1_555 1_555
H8 C10 1_555 1_555
C11 C10 1_555 1_555
H9 C11 1_555 1_555
H10 C11 1_555 1_555
H11 C11 1_555 1_555
C12 C4 1_555 1_555
H12 C12 1_555 1_555
H13 C12 1_555 1_555
H14 C12 1_555 1_555
N2 N4 1_555 1_555
C8 C9 1_555 1_555

#END
