
#######################################################################
#
#                 Cambridge Crystallographic Data Centre
#                                CCDC 
#
#######################################################################
#
# If this CIF has been generated from an entry in the Cambridge 
# Structural Database, then it will include bibliographic, chemical, 
# crystal, experimental, refinement or atomic coordinate data resulting 
# from the CCDC's data processing and validation procedures.
#
#######################################################################

data_ILEZAC
_chemical_formula_moiety         'C14 H15 N3 O2'
_chemical_name_systematic        
N'-(2-hydroxybenzylidene)-3,4-dimethyl-1H-pyrrole-2-carbohydrazide
_symmetry_cell_setting           monoclinic
_symmetry_space_group_name_H-M   'P 21/c'
_symmetry_Int_Tables_number      14
_space_group_name_Hall           '-P 2ybc'
loop_
_symmetry_equiv_pos_site_id
_symmetry_equiv_pos_as_xyz
1 x,y,z
2 -x,1/2+y,1/2-z
3 -x,-y,-z
4 x,1/2-y,1/2+z
_cell_length_a                   8.2642(4)
_cell_length_b                   6.0481(3)
_cell_length_c                   25.6897(11)
_cell_angle_alpha                90
_cell_angle_beta                 95.319(3)
_cell_angle_gamma                90
_cell_volume                     1278.51
_exptl_crystal_colour            colorless
_exptl_crystal_description       block
_cell_formula_units_Z            4
loop_
_atom_site_label
_atom_site_type_symbol
_atom_site_fract_x
_atom_site_fract_y
_atom_site_fract_z
N1 N 0.42329(17) 0.5798(3) 0.10235(6)
H1 H 0.3718 0.4565 0.1033
O1 O 0.48039(16) 0.8916(3) 0.06004(5)
C1 C 0.3212(2) 0.6268(4) 0.01203(7)
N2 N 0.32509(17) 0.7494(3) -0.03270(6)
H2 H 0.3751 0.8733 -0.0349
O2 O 0.70538(18) 0.9665(3) 0.18554(6)
N3 N 0.51993(18) 0.6561(3) 0.14436(6)
C2 C 0.5582(2) 0.5302(3) 0.18335(7)
H3 H 0.5182 0.3866 0.1839
C3 C 0.4123(2) 0.7094(4) 0.05852(7)
C4 C 0.7354(2) 0.8252(4) 0.22626(7)
C5 C 0.1764(2) 0.4551(4) -0.05459(8)
C6 C 0.6649(2) 0.6137(3) 0.22684(7)
C7 C 0.2273(2) 0.4409(3) -0.00058(7)
C8 C 0.7003(2) 0.4830(4) 0.27087(8)
H4 H 0.6538 0.3432 0.2719
C9 C 0.2390(2) 0.6471(4) -0.07269(7)
H5 H 0.2245 0.6981 -0.1070
C10 C 0.8410(2) 0.8941(4) 0.26830(8)
H6 H 0.8904 1.0321 0.2675
C11 C 0.8729(3) 0.7597(5) 0.31098(9)
H7 H 0.9433 0.8078 0.3390
C12 C 0.1834(2) 0.2571(4) 0.03429(8)
H8 H 0.2778 0.1686 0.0440
H9 H 0.1008 0.1669 0.0161
H10 H 0.1432 0.3177 0.0651
C13 C 0.8015(3) 0.5534(5) 0.31275(9)
H11 H 0.8220 0.4638 0.3420
C14 C 0.0741(3) 0.2919(4) -0.08641(9)
H12 H 0.0461 0.1719 -0.0645
H13 H 0.1337 0.2358 -0.1139
H14 H -0.0233 0.3629 -0.1013
H15 H 0.638(3) 0.897(4) 0.1619(8)
H16? H 0.129(3) 0.152(5) -0.0834(9)
H17? H 0.061(3) 0.339(5) -0.1272(12)
H18? H -0.049(4) 0.285(5) -0.0755(11)
loop_
_geom_bond_atom_site_label_1
_geom_bond_atom_site_label_2
_geom_bond_site_symmetry_1
_geom_bond_site_symmetry_2
N1 H1 1_555 1_555
O1 C3 1_555 1_555
C1 N2 1_555 1_555
N2 H2 1_555 1_555
O2 C4 1_555 1_555
N3 N1 1_555 1_555
C2 N3 1_555 1_555
H3 C2 1_555 1_555
C3 N1 1_555 1_555
C4 C6 1_555 1_555
C5 C7 1_555 1_555
C6 C2 1_555 1_555
C7 C1 1_555 1_555
C8 C6 1_555 1_555
H4 C8 1_555 1_555
C9 N2 1_555 1_555
H5 C9 1_555 1_555
C10 C4 1_555 1_555
H6 C10 1_555 1_555
C11 C10 1_555 1_555
H7 C11 1_555 1_555
C12 C7 1_555 1_555
H8 C12 1_555 1_555
H9 C12 1_555 1_555
H10 C12 1_555 1_555
C13 C8 1_555 1_555
H11 C13 1_555 1_555
C14 C5 1_555 1_555
H12 C14 1_555 1_555
H13 C14 1_555 1_555
H14 C14 1_555 1_555
H15 O2 1_555 1_555
C1 C3 1_555 1_555
C5 C9 1_555 1_555
C11 C13 1_555 1_555

#END
