
#######################################################################
#
#                 Cambridge Crystallographic Data Centre
#                                CCDC 
#
#######################################################################
#
# If this CIF has been generated from an entry in the Cambridge 
# Structural Database, then it will include bibliographic, chemical, 
# crystal, experimental, refinement or atomic coordinate data resulting 
# from the CCDC's data processing and validation procedures.
#
#######################################################################

data_ILEZIK
_chemical_formula_moiety         'C22 H19 N3 O2,C2 H6 O1'
_chemical_name_systematic        
'2-methoxy-6-(((2-(1-methyl-1H-benzimidazol-2-yl)phenyl)imino)methyl)phenol ethanol solvate'
_symmetry_cell_setting           monoclinic
_symmetry_space_group_name_H-M   'P 21/n'
_symmetry_Int_Tables_number      14
_space_group_name_Hall           '-P 2yn'
loop_
_symmetry_equiv_pos_site_id
_symmetry_equiv_pos_as_xyz
1 x,y,z
2 1/2-x,1/2+y,1/2-z
3 -x,-y,-z
4 1/2+x,1/2-y,1/2+z
_cell_length_a                   10.2246(7)
_cell_length_b                   21.2529(7)
_cell_length_c                   10.6924(6)
_cell_angle_alpha                90
_cell_angle_beta                 116.990(8)
_cell_angle_gamma                90
_cell_volume                     2070.42
_exptl_crystal_colour            orange
_exptl_crystal_description       rhombic
_cell_formula_units_Z            4
loop_
_atom_site_label
_atom_site_type_symbol
_atom_site_fract_x
_atom_site_fract_y
_atom_site_fract_z
O1 O 0.48328(15) 0.16694(6) 0.91019(13)
H1 H 0.5236 0.1438 0.9786
N1 N 0.62210(16) 0.06954(7) 1.04996(15)
N2 N 0.72037(16) 0.18225(7) 1.34863(15)
O2 O 0.37895(16) 0.23309(6) 0.67914(14)
C1 C 0.63386(19) 0.05023(9) 0.94130(19)
H2 H 0.6834 0.0129 0.9464
C2 C 0.5002(2) 0.14322(9) 0.80195(19)
C3 C 0.4434(2) 0.17714(9) 0.6758(2)
N3 N 0.49251(16) 0.14420(7) 1.22811(15)
C4 C 0.68558(19) 0.03560(9) 1.17788(19)
C5 C 0.5803(2) 0.06192(9) 0.69291(19)
H3 H 0.6266 0.0236 0.6984
C6 C 0.73884(19) -0.02584(9) 1.1915(2)
H4 H 0.7302 -0.0474 1.1125
C7 C 0.69660(19) 0.06705(8) 1.29739(19)
C8 C 0.4539(2) 0.15303(9) 0.5611(2)
H5 H 0.4159 0.1757 0.4777
C9 C 0.57151(19) 0.08560(8) 0.81127(19)
C10 C 0.6259(2) 0.23255(9) 1.32768(18)
C11 C 0.6346(2) 0.13108(8) 1.28773(18)
C12 C 0.8041(2) -0.05490(9) 1.3209(2)
H6 H 0.8383 -0.0960 1.3285
C13 C 0.7660(2) 0.03772(9) 1.4278(2)
H7 H 0.7772 0.0592 1.5078
C14 C 0.8186(2) -0.02311(9) 1.4396(2)
H8 H 0.8636 -0.0426 1.5269
C15 C 0.3858(2) 0.30843(9) 1.2603(2)
H9 H 0.3058 0.3347 1.2393
C16 C 0.88042(19) 0.18426(9) 1.4214(2)
H10 H 0.9133 0.2258 1.4142
H11 H 0.9193 0.1545 1.3793
H12 H 0.9140 0.1738 1.5185
C17 C 0.3622(2) 0.24634(9) 1.2184(2)
H13 H 0.2676 0.2305 1.1689
C18 C 0.5208(2) 0.09489(9) 0.5688(2)
H14 H 0.5250 0.0785 0.4901
C19 C 0.4844(2) 0.20810(9) 1.25261(19)
C20 C 0.5283(2) 0.33261(9) 1.3340(2)
H15 H 0.5406 0.3747 1.3604
C21 C 0.6507(2) 0.29568(9) 1.3684(2)
H16 H 0.7451 0.3119 1.4164
C22 C 0.3192(3) 0.26955(10) 0.5536(2)
H17 H 0.2420 0.2463 0.4801
H18 H 0.3949 0.2787 0.5266
H19 H 0.2805 0.3082 0.5695
O3 O 0.23195(15) 0.07645(6) 1.11892(15)
H20 H 0.3106 0.0951 1.1493
C23 C 0.1535(2) 0.09674(10) 1.1913(2)
H21 H 0.1234 0.1402 1.1672
H22 H 0.2163 0.0945 1.2917
C24 C 0.0218(3) 0.05648(12) 1.1532(3)
H23 H 0.0520 0.0138 1.1805
H24 H -0.0395 0.0583 1.0537
H25 H -0.0323 0.0713 1.2010
loop_
_geom_bond_atom_site_label_1
_geom_bond_atom_site_label_2
_geom_bond_site_symmetry_1
_geom_bond_site_symmetry_2
O1 H1 1_555 1_555
N1 C1 1_555 1_555
N2 C10 1_555 1_555
O2 C3 1_555 1_555
C1 H2 1_555 1_555
C2 O1 1_555 1_555
C3 C2 1_555 1_555
N3 C11 1_555 1_555
C4 N1 1_555 1_555
C5 H3 1_555 1_555
C6 C4 1_555 1_555
H4 C6 1_555 1_555
C7 C4 1_555 1_555
C8 C3 1_555 1_555
H5 C8 1_555 1_555
C9 C1 1_555 1_555
C10 C19 1_555 1_555
C11 N2 1_555 1_555
C12 C6 1_555 1_555
H6 C12 1_555 1_555
C13 C7 1_555 1_555
H7 C13 1_555 1_555
C14 C12 1_555 1_555
H8 C14 1_555 1_555
C15 H9 1_555 1_555
C16 N2 1_555 1_555
H10 C16 1_555 1_555
H11 C16 1_555 1_555
H12 C16 1_555 1_555
C17 C15 1_555 1_555
H13 C17 1_555 1_555
C18 C5 1_555 1_555
H14 C18 1_555 1_555
C19 N3 1_555 1_555
C20 C15 1_555 1_555
H15 C20 1_555 1_555
C21 C10 1_555 1_555
H16 C21 1_555 1_555
C22 O2 1_555 1_555
H17 C22 1_555 1_555
H18 C22 1_555 1_555
H19 C22 1_555 1_555
O3 H20 1_555 1_555
C23 O3 1_555 1_555
H21 C23 1_555 1_555
H22 C23 1_555 1_555
C24 C23 1_555 1_555
H23 C24 1_555 1_555
H24 C24 1_555 1_555
H25 C24 1_555 1_555
C2 C9 1_555 1_555
C5 C9 1_555 1_555
C7 C11 1_555 1_555
C8 C18 1_555 1_555
C13 C14 1_555 1_555
C17 C19 1_555 1_555
C20 C21 1_555 1_555

#END
