
#######################################################################
#
#                 Cambridge Crystallographic Data Centre
#                                CCDC 
#
#######################################################################
#
# If this CIF has been generated from an entry in the Cambridge 
# Structural Database, then it will include bibliographic, chemical, 
# crystal, experimental, refinement or atomic coordinate data resulting 
# from the CCDC's data processing and validation procedures.
#
#######################################################################

data_ILIBEM
_chemical_formula_moiety         'C14 H10 Cl2 O2'
_chemical_name_systematic        
1-(2-chloro-4-(4-chlorophenoxy)phenyl)ethanone
_symmetry_cell_setting           orthorhombic
_symmetry_space_group_name_H-M   'P 21 21 21'
_symmetry_Int_Tables_number      19
_space_group_name_Hall           'P 2ac 2ab'
loop_
_symmetry_equiv_pos_site_id
_symmetry_equiv_pos_as_xyz
1 x,y,z
2 1/2-x,-y,1/2+z
3 1/2+x,1/2-y,-z
4 -x,1/2+y,1/2-z
_cell_length_a                   5.8499(3)
_cell_length_b                   8.6822(4)
_cell_length_c                   24.6389(13)
_cell_angle_alpha                90
_cell_angle_beta                 90
_cell_angle_gamma                90
_cell_volume                     1251.41
_exptl_crystal_colour            colorless
_exptl_crystal_description       block
_chemical_melting_point          '329.05 K'
_cell_formula_units_Z            4
loop_
_atom_site_label
_atom_site_type_symbol
_atom_site_fract_x
_atom_site_fract_y
_atom_site_fract_z
Cl1 Cl -0.62654(10) -0.95663(6) -0.08752(2)
Cl2 Cl -0.99914(11) -1.56170(9) -0.30913(3)
O1 O -0.1331(3) -0.93417(19) 0.02627(6)
O2 O -0.3347(3) -1.49780(16) -0.13133(7)
C1 C -0.1164(4) -1.3429(2) -0.07259(9)
H1 H -0.0109 -1.4255 -0.0694
C2 C -0.8514(5) -1.6070(3) -0.20595(10)
H2 H -0.9884 -1.6638 -0.2005
C3 C -0.4973(4) -1.5068(3) -0.17271(9)
C4 C -0.1740(4) -0.9333(3) -0.02215(9)
C5 C -0.1557(5) -0.7881(2) -0.05542(10)
H3 H -0.0156 -0.7329 -0.0455
H4 H -0.2885 -0.7224 -0.0483
H5 H -0.1510 -0.8147 -0.0941
C6 C -0.8057(4) -1.5398(3) -0.25597(10)
C7 C -0.6081(5) -1.4559(3) -0.26451(10)
H6 H -0.5793 -1.4103 -0.2989
C8 C -0.4527(4) -1.4389(3) -0.22271(9)
H7 H -0.3165 -1.3813 -0.2281
C9 C -0.0804(4) -1.2067(2) -0.04509(9)
H8 H 0.0489 -1.1972 -0.0220
C10 C -0.4236(4) -1.1032(2) -0.08257(9)
C11 C -0.2305(4) -1.0819(2) -0.05056(9)
C12 C -0.3098(4) -1.3575(3) -0.10516(9)
C13 C -0.4672(4) -1.2400(3) -0.10968(9)
H9 H -0.6018 -1.2525 -0.1308
C14 C -0.6945(4) -1.5903(3) -0.16408(10)
H10 H -0.7227 -1.6361 -0.1297
loop_
_geom_bond_atom_site_label_1
_geom_bond_atom_site_label_2
_geom_bond_site_symmetry_1
_geom_bond_site_symmetry_2
Cl1 C10 1_555 1_555
Cl2 C6 1_555 1_555
O1 C4 1_555 1_555
O2 C3 1_555 1_555
C1 H1 1_555 1_555
C2 H2 1_555 1_555
C3 C8 1_555 1_555
C4 C5 1_555 1_555
C5 H3 1_555 1_555
H4 C5 1_555 1_555
H5 C5 1_555 1_555
C6 C2 1_555 1_555
C7 C6 1_555 1_555
H6 C7 1_555 1_555
C8 C7 1_555 1_555
H7 C8 1_555 1_555
C9 C1 1_555 1_555
H8 C9 1_555 1_555
C10 C11 1_555 1_555
C11 C4 1_555 1_555
C12 O2 1_555 1_555
C13 C10 1_555 1_555
H9 C13 1_555 1_555
C14 C2 1_555 1_555
H10 C14 1_555 1_555
C1 C12 1_555 1_555
C3 C14 1_555 1_555
C9 C11 1_555 1_555
C12 C13 1_555 1_555

#END
