
#######################################################################
#
#                 Cambridge Crystallographic Data Centre
#                                CCDC 
#
#######################################################################
#
# If this CIF has been generated from an entry in the Cambridge 
# Structural Database, then it will include bibliographic, chemical, 
# crystal, experimental, refinement or atomic coordinate data resulting 
# from the CCDC's data processing and validation procedures.
#
#######################################################################

data_ILIQOJ
_chemical_formula_moiety         'C22 H18 Cl1 N1 O3'
_chemical_name_systematic        
2-Amino-4-(2-chlorophenyl)-3-ethoxycarbonyl-4H-benzo(f)chromene
_symmetry_cell_setting           monoclinic
_symmetry_space_group_name_H-M   'C c'
_symmetry_Int_Tables_number      9
_space_group_name_Hall           'C -2yc'
loop_
_symmetry_equiv_pos_site_id
_symmetry_equiv_pos_as_xyz
1 x,y,z
2 x,-y,1/2+z
3 1/2+x,1/2+y,z
4 1/2+x,1/2-y,1/2+z
_cell_length_a                   13.491(4)
_cell_length_b                   13.375(4)
_cell_length_c                   9.903(3)
_cell_angle_alpha                90
_cell_angle_beta                 93.51(2)
_cell_angle_gamma                90
_cell_volume                     1783.57
_exptl_crystal_colour            colorless
_exptl_crystal_description       block
_chemical_melting_point          448-450K
_cell_formula_units_Z            4
_exptl_crystal_recrystallization_method DMF-water
loop_
_atom_site_label
_atom_site_type_symbol
_atom_site_fract_x
_atom_site_fract_y
_atom_site_fract_z
Cl1 Cl 0.63107(7) 0.50647(5) 0.26109(8)
O1 O 0.72811(16) 0.88702(13) -0.01949(19)
O2 O 0.67390(19) 0.72533(13) 0.38998(19)
O3 O 0.67618(16) 0.89288(12) 0.39203(18)
N1 N 0.6880(2) 0.98445(16) 0.1496(3)
C1 C 0.7036(2) 0.88981(18) 0.1120(3)
C2 C 0.6980(2) 0.80503(17) 0.1881(3)
C3 C 0.70695(19) 0.70291(16) 0.1223(2)
H1 H 0.7401 0.6575 0.1883
C4 C 0.77185(19) 0.71258(17) 0.0011(2)
C5 C 0.7786(2) 0.80207(19) -0.0612(2)
C6 C 0.8374(2) 0.8192(2) -0.1714(3)
H2 H 0.8405 0.8825 -0.2099
C7 C 0.8894(2) 0.7421(2) -0.2205(3)
H3 H 0.9283 0.7525 -0.2936
C8 C 0.8852(2) 0.6462(2) -0.1620(3)
C9 C 0.9401(2) 0.5651(2) -0.2113(3)
H4 H 0.9811 0.5758 -0.2821
C10 C 0.9343(3) 0.4726(2) -0.1573(3)
H5 H 0.9705 0.4202 -0.1914
C11 C 0.8738(2) 0.4561(2) -0.0506(3)
H6 H 0.8691 0.3921 -0.0149
C12 C 0.8215(2) 0.53217(19) 0.0024(3)
H7 H 0.7826 0.5196 0.0748
C13 C 0.8253(2) 0.63030(18) -0.0512(2)
C14 C 0.6808(2) 0.81372(18) 0.3297(3)
C15 C 0.6672(3) 0.7240(2) 0.5355(3)
H8 H 0.7131 0.7729 0.5760
H9 H 0.6873 0.6587 0.5698
C16 C 0.5656(3) 0.7463(3) 0.5774(3)
H10 H 0.5187 0.7028 0.5302
H11 H 0.5491 0.8146 0.5560
H12 H 0.5632 0.7361 0.6731
C17 C 0.6056(2) 0.65828(17) 0.0771(2)
C18 C 0.5666(2) 0.57205(18) 0.1323(3)
C19 C 0.4740(2) 0.5346(2) 0.0863(3)
H13 H 0.4493 0.4771 0.1249
C20 C 0.4194(3) 0.5828(2) -0.0158(3)
H14 H 0.3583 0.5570 -0.0478
C21 C 0.4552(2) 0.6692(2) -0.0705(3)
H15 H 0.4175 0.7026 -0.1381
C22 C 0.5469(2) 0.70648(19) -0.0259(3)
H16 H 0.5704 0.7646 -0.0645
H17 H 0.670(2) 0.995(2) 0.233(4)
H18 H 0.686(2) 1.024(2) 0.083(3)
loop_
_geom_bond_atom_site_label_1
_geom_bond_atom_site_label_2
_geom_bond_site_symmetry_1
_geom_bond_site_symmetry_2
Cl1 C18 1_555 1_555
O1 C1 1_555 1_555
O2 C14 1_555 1_555
O3 C14 1_555 1_555
N1 C1 1_555 1_555
C1 C2 1_555 1_555
C2 C3 1_555 1_555
C3 H1 1_555 1_555
C4 C3 1_555 1_555
C5 O1 1_555 1_555
C6 C5 1_555 1_555
H2 C6 1_555 1_555
C7 C6 1_555 1_555
H3 C7 1_555 1_555
C8 C7 1_555 1_555
C9 C8 1_555 1_555
H4 C9 1_555 1_555
C10 C9 1_555 1_555
H5 C10 1_555 1_555
C11 C10 1_555 1_555
H6 C11 1_555 1_555
C12 C11 1_555 1_555
H7 C12 1_555 1_555
C13 C4 1_555 1_555
C14 C2 1_555 1_555
C15 O2 1_555 1_555
H8 C15 1_555 1_555
H9 C15 1_555 1_555
C16 C15 1_555 1_555
H10 C16 1_555 1_555
H11 C16 1_555 1_555
H12 C16 1_555 1_555
C17 C3 1_555 1_555
C18 C17 1_555 1_555
C19 C18 1_555 1_555
H13 C19 1_555 1_555
C20 C19 1_555 1_555
H14 C20 1_555 1_555
C21 C20 1_555 1_555
H15 C21 1_555 1_555
C22 C17 1_555 1_555
H16 C22 1_555 1_555
H17 N1 1_555 1_555
H18 N1 1_555 1_555
C4 C5 1_555 1_555
C8 C13 1_555 1_555
C12 C13 1_555 1_555
C21 C22 1_555 1_555

#END
