
#######################################################################
#
#                 Cambridge Crystallographic Data Centre
#                                CCDC 
#
#######################################################################
#
# If this CIF has been generated from an entry in the Cambridge 
# Structural Database, then it will include bibliographic, chemical, 
# crystal, experimental, refinement or atomic coordinate data resulting 
# from the CCDC's data processing and validation procedures.
#
#######################################################################

data_ILIRIG
_chemical_formula_moiety         'C29 H33 N3 O2 P2'
_chemical_name_systematic        
"N-(2-methoxyphenyl)-N'-(((2-methoxyphenyl)(methyl)amino)(phenyl)phosphino)-N,N'-dimethyl-P-phenylphosphonous diamide"
_symmetry_cell_setting           monoclinic
_symmetry_space_group_name_H-M   'P 21'
_symmetry_Int_Tables_number      4
_space_group_name_Hall           'P 2yb'
loop_
_symmetry_equiv_pos_site_id
_symmetry_equiv_pos_as_xyz
1 x,y,z
2 -x,1/2+y,-z
_cell_length_a                   9.8140(3)
_cell_length_b                   6.7216(2)
_cell_length_c                   20.3460(6)
_cell_angle_alpha                90
_cell_angle_beta                 99.8118(10)
_cell_angle_gamma                90
_cell_volume                     1322.51
_exptl_crystal_colour            colorless
_exptl_crystal_description       plate
_cell_formula_units_Z            2
_chemical_properties_physical    'Air-sensitive, Moisture-sensitive'
loop_
_atom_site_label
_atom_site_type_symbol
_atom_site_fract_x
_atom_site_fract_y
_atom_site_fract_z
C1 C 0.3890(2) 0.2759(3) 0.32279(13)
H1 H 0.3634 0.1592 0.3469
H2 H 0.4853 0.3119 0.3400
H3 H 0.3791 0.2448 0.2751
C2 C 0.15677(19) 0.3949(3) 0.32945(10)
C3 C 0.0957(2) 0.2354(3) 0.29145(12)
H4 H 0.1490 0.1595 0.2657
C4 C -0.0422(2) 0.1861(4) 0.29077(13)
H5 H -0.0817 0.0755 0.2654
C5 C -0.1211(2) 0.2967(4) 0.32667(14)
H6 H -0.2160 0.2650 0.3249
C6 C -0.0629(2) 0.4550(4) 0.36558(12)
H7 H -0.1179 0.5313 0.3904
C7 C 0.0761(2) 0.5015(3) 0.36809(10)
C8 C 0.0668(3) 0.7672(5) 0.44454(19)
H8 H 0.0020 0.8453 0.4126
H9 H 0.1290 0.8573 0.4733
H10 H 0.0150 0.6865 0.4719
C9 C 0.50103(19) 0.6963(3) 0.38807(9)
C10 C 0.5173(2) 0.5732(3) 0.44389(10)
H11 H 0.4515 0.4713 0.4469
C11 C 0.6295(2) 0.5980(4) 0.49555(11)
H12 H 0.6405 0.5113 0.5329
C12 C 0.7239(2) 0.7474(4) 0.49258(11)
H13 H 0.8003 0.7635 0.5277
C13 C 0.7075(2) 0.8741(3) 0.43828(11)
H14 H 0.7715 0.9792 0.4367
C14 C 0.5980(2) 0.8484(3) 0.38617(10)
H15 H 0.5885 0.9349 0.3487
C15 C 0.54311(19) 0.5940(3) 0.24282(10)
H16 H 0.5160 0.4592 0.2276
H17 H 0.6088 0.5869 0.2848
H18 H 0.5867 0.6614 0.2090
C16 C 0.44607(18) 0.9462(3) 0.14724(9)
C17 C 0.56123(19) 1.0451(3) 0.18215(10)
H19 H 0.5807 1.0364 0.2294
C18 C 0.64774(19) 1.1559(3) 0.14894(10)
H20 H 0.7249 1.2239 0.1735
C19 C 0.6213(2) 1.1672(3) 0.08009(10)
H21 H 0.6809 1.2413 0.0571
C20 C 0.5077(2) 1.0700(4) 0.04476(11)
H22 H 0.4893 1.0779 -0.0025
C21 C 0.4201(2) 0.9608(3) 0.07809(10)
H23 H 0.3419 0.8957 0.0534
C22 C 0.3090(2) 0.5088(3) 0.10814(11)
H24 H 0.3024 0.3915 0.1360
H25 H 0.4064 0.5434 0.1096
H26 H 0.2662 0.4796 0.0620
C23 C 0.08954(18) 0.6647(3) 0.12504(10)
C24 C 0.0222(2) 0.6633(4) 0.17959(11)
H27 H 0.0754 0.6606 0.2232
C25 C -0.1215(2) 0.6658(4) 0.17220(12)
H28 H -0.1655 0.6669 0.2103
C26 C -0.1989(2) 0.6664(4) 0.10907(12)
H29 H -0.2970 0.6693 0.1036
C27 C -0.1348(2) 0.6629(3) 0.05357(11)
H30 H -0.1892 0.6607 0.0102
C28 C 0.00892(19) 0.6626(3) 0.06073(10)
C29 C 0.0014(2) 0.6552(4) -0.05739(11)
H31 H -0.0626 0.5424 -0.0605
H32 H 0.0641 0.6376 -0.0896
H33 H -0.0511 0.7787 -0.0673
N1 N 0.29829(16) 0.4431(2) 0.33232(8)
N2 N 0.41923(15) 0.7065(3) 0.25335(7)
N3 N 0.23687(14) 0.6763(3) 0.13324(8)
O1 O 0.14470(14) 0.6419(3) 0.40974(8)
O2 O 0.08006(14) 0.6652(3) 0.00861(7)
P1 P 0.34575(4) 0.68654(7) 0.32400(2)
P2 P 0.31609(4) 0.83782(7) 0.19162(2)
loop_
_geom_bond_atom_site_label_1
_geom_bond_atom_site_label_2
_geom_bond_site_symmetry_1
_geom_bond_site_symmetry_2
C1 H1 1_555 1_555
H2 C1 1_555 1_555
H3 C1 1_555 1_555
C2 C3 1_555 1_555
C3 H4 1_555 1_555
C4 C3 1_555 1_555
H5 C4 1_555 1_555
C5 C4 1_555 1_555
H6 C5 1_555 1_555
C6 C5 1_555 1_555
H7 C6 1_555 1_555
C7 C2 1_555 1_555
C8 H8 1_555 1_555
H9 C8 1_555 1_555
H10 C8 1_555 1_555
C9 C10 1_555 1_555
C10 H11 1_555 1_555
C11 C10 1_555 1_555
H12 C11 1_555 1_555
C12 C11 1_555 1_555
H13 C12 1_555 1_555
C13 C12 1_555 1_555
H14 C13 1_555 1_555
C14 C9 1_555 1_555
H15 C14 1_555 1_555
C15 H16 1_555 1_555
H17 C15 1_555 1_555
H18 C15 1_555 1_555
C16 C17 1_555 1_555
C17 H19 1_555 1_555
C18 C17 1_555 1_555
H20 C18 1_555 1_555
C19 C18 1_555 1_555
H21 C19 1_555 1_555
C20 C19 1_555 1_555
H22 C20 1_555 1_555
C21 C16 1_555 1_555
H23 C21 1_555 1_555
C22 H24 1_555 1_555
H25 C22 1_555 1_555
H26 C22 1_555 1_555
C23 C24 1_555 1_555
C24 H27 1_555 1_555
C25 C24 1_555 1_555
H28 C25 1_555 1_555
C26 C25 1_555 1_555
H29 C26 1_555 1_555
C27 C26 1_555 1_555
H30 C27 1_555 1_555
C28 C23 1_555 1_555
C29 H31 1_555 1_555
H32 C29 1_555 1_555
H33 C29 1_555 1_555
N1 C1 1_555 1_555
N2 C15 1_555 1_555
N3 C22 1_555 1_555
O1 C7 1_555 1_555
O2 C28 1_555 1_555
P1 C9 1_555 1_555
P2 C16 1_555 1_555
C2 N1 1_555 1_555
C6 C7 1_555 1_555
C8 O1 1_555 1_555
C13 C14 1_555 1_555
C20 C21 1_555 1_555
C23 N3 1_555 1_555
C27 C28 1_555 1_555
C29 O2 1_555 1_555
N1 P1 1_555 1_555
N2 P1 1_555 1_555
N2 P2 1_555 1_555
N3 P2 1_555 1_555

#END
