
#######################################################################
#
#                 Cambridge Crystallographic Data Centre
#                                CCDC 
#
#######################################################################
#
# If this CIF has been generated from an entry in the Cambridge 
# Structural Database, then it will include bibliographic, chemical, 
# crystal, experimental, refinement or atomic coordinate data resulting 
# from the CCDC's data processing and validation procedures.
#
#######################################################################

data_ILISON
_chemical_formula_moiety         'C14 H15 N1 O3'
_chemical_name_systematic        
'ethyl 1-methoxy-2-phenyl-1H-pyrrole-3-carboxylate'
_symmetry_cell_setting           monoclinic
_symmetry_space_group_name_H-M   'P 21/c'
_symmetry_Int_Tables_number      14
_space_group_name_Hall           '-P 2ybc'
loop_
_symmetry_equiv_pos_site_id
_symmetry_equiv_pos_as_xyz
1 x,y,z
2 -x,1/2+y,1/2-z
3 -x,-y,-z
4 x,1/2-y,1/2+z
_cell_length_a                   14.579(3)
_cell_length_b                   9.8759(17)
_cell_length_c                   9.0753(15)
_cell_angle_alpha                90
_cell_angle_beta                 102.459(5)
_cell_angle_gamma                90
_cell_volume                     1275.9
_exptl_crystal_colour            colorless
_exptl_crystal_description       needle
_cell_formula_units_Z            4
loop_
_atom_site_label
_atom_site_type_symbol
_atom_site_fract_x
_atom_site_fract_y
_atom_site_fract_z
N1 N 0.91749(15) 0.2016(2) 1.1342(3)
O1 O 0.98932(13) 0.29552(18) 1.1723(2)
C1 C 1.0307(2) 0.3196(3) 1.0441(4)
H1 H 1.0533 0.2338 1.0108
H2 H 1.0835 0.3826 1.0725
H3 H 0.9835 0.3586 0.9616
C2 C 0.9323(2) 0.0653(3) 1.1454(3)
H4 H 0.9903 0.0207 1.1833
C3 C 0.84724(19) 0.0059(3) 1.0915(3)
H5 H 0.8349 -0.0886 1.0871
C4 C 0.78049(18) 0.1097(3) 1.0432(3)
C5 C 0.82641(17) 0.2340(3) 1.0700(3)
C6 C 0.68079(19) 0.0820(3) 0.9851(3)
O2 O 0.64696(13) -0.03163(19) 0.9748(2)
O3 O 0.62963(13) 0.19342(18) 0.9450(2)
C7 C 0.5306(2) 0.1747(3) 0.8777(4)
H6 H 0.4979 0.1328 0.9512
H7 H 0.5228 0.1153 0.7880
C8 C 0.4914(2) 0.3119(3) 0.8337(5)
H8 H 0.5012 0.3703 0.9230
H9 H 0.4239 0.3045 0.7901
H10 H 0.5231 0.3511 0.7589
C9 C 0.79457(18) 0.3767(2) 1.0491(3)
C10 C 0.80835(18) 0.4643(3) 1.1723(3)
H11 H 0.8403 0.4337 1.2689
C11 C 0.7754(2) 0.5965(3) 1.1538(4)
H12 H 0.7843 0.6558 1.2381
C12 C 0.72939(19) 0.6420(3) 1.0128(4)
H13 H 0.7065 0.7322 1.0003
C13 C 0.71696(19) 0.5556(3) 0.8905(3)
H14 H 0.6858 0.5868 0.7936
C14 C 0.74964(18) 0.4238(3) 0.9085(3)
H15 H 0.7411 0.3651 0.8237
loop_
_geom_bond_atom_site_label_1
_geom_bond_atom_site_label_2
_geom_bond_site_symmetry_1
_geom_bond_site_symmetry_2
N1 O1 1_555 1_555
O1 C1 1_555 1_555
C1 H1 1_555 1_555
H2 C1 1_555 1_555
H3 C1 1_555 1_555
C2 N1 1_555 1_555
H4 C2 1_555 1_555
C3 C2 1_555 1_555
H5 C3 1_555 1_555
C4 C3 1_555 1_555
C5 N1 1_555 1_555
C6 C4 1_555 1_555
O2 C6 1_555 1_555
O3 C6 1_555 1_555
C7 O3 1_555 1_555
H6 C7 1_555 1_555
H7 C7 1_555 1_555
C8 C7 1_555 1_555
H8 C8 1_555 1_555
H9 C8 1_555 1_555
H10 C8 1_555 1_555
C9 C5 1_555 1_555
C10 C9 1_555 1_555
H11 C10 1_555 1_555
C11 C10 1_555 1_555
H12 C11 1_555 1_555
C12 C11 1_555 1_555
H13 C12 1_555 1_555
C13 C12 1_555 1_555
H14 C13 1_555 1_555
C14 C9 1_555 1_555
H15 C14 1_555 1_555
C4 C5 1_555 1_555
C13 C14 1_555 1_555

#END
