
#######################################################################
#
#                 Cambridge Crystallographic Data Centre
#                                CCDC 
#
#######################################################################
#
# If this CIF has been generated from an entry in the Cambridge 
# Structural Database, then it will include bibliographic, chemical, 
# crystal, experimental, refinement or atomic coordinate data resulting 
# from the CCDC's data processing and validation procedures.
#
#######################################################################

data_ILIXAE
_chemical_formula_moiety         'C15 H14 O5'
_chemical_name_systematic        2-(2,3,4-Trimethoxyphenyl)-1,4-benzoquinone
_symmetry_cell_setting           triclinic
_symmetry_space_group_name_H-M   'P -1'
_symmetry_Int_Tables_number      2
_space_group_name_Hall           '-P 1'
loop_
_symmetry_equiv_pos_site_id
_symmetry_equiv_pos_as_xyz
1 x,y,z
2 -x,-y,-z
_cell_length_a                   7.3019(6)
_cell_length_b                   7.7920(4)
_cell_length_c                   11.6814(6)
_cell_angle_alpha                81.678(4)
_cell_angle_beta                 79.161(6)
_cell_angle_gamma                82.076(6)
_cell_volume                     641.699
_exptl_crystal_colour            orange
_exptl_crystal_description       parallelepiped
_cell_formula_units_Z            2
loop_
_atom_site_label
_atom_site_type_symbol
_atom_site_fract_x
_atom_site_fract_y
_atom_site_fract_z
O1 O 0.6161(3) 0.5991(2) 0.86892(17)
O2 O 0.1876(3) 1.1986(2) 0.84169(17)
O3 O 0.9406(3) 0.8127(2) 0.81464(14)
O4 O 1.2523(2) 0.7318(2) 0.64317(15)
O5 O 1.2054(2) 0.7184(2) 0.42073(14)
C1 C 0.5394(4) 0.7482(3) 0.8693(2)
C2 C 0.3936(4) 0.7958(3) 0.9693(2)
H1 H 0.3802 0.7188 1.0405
C3 C 0.2811(4) 0.9445(3) 0.9613(2)
H2 H 0.1877 0.9720 1.0264
C4 C 0.2994(4) 1.0672(3) 0.8525(2)
C5 C 0.4589(4) 1.0288(3) 0.7586(2)
H3 H 0.4771 1.1105 0.6899
C6 C 0.5793(4) 0.8831(3) 0.7664(2)
C7 C 0.7413(4) 0.8414(3) 0.6731(2)
C8 C 0.9213(4) 0.7983(3) 0.7016(2)
C9 C 1.0749(3) 0.7574(3) 0.6157(2)
C10 C 1.0467(4) 0.7576(3) 0.4998(2)
C11 C 0.8690(4) 0.7991(3) 0.4717(2)
H4 H 0.8502 0.7984 0.3935
C12 C 0.7178(4) 0.8418(3) 0.5585(2)
H5 H 0.5961 0.8718 0.5386
C13 C 1.0167(4) 0.6560(3) 0.8792(2)
H6 H 1.0241 0.6794 0.9583
H7 H 1.1426 0.6179 0.8385
H8 H 0.9353 0.5641 0.8846
C14 C 1.3443(4) 0.5562(3) 0.6388(2)
H9 H 1.4692 0.5493 0.6596
H10 H 1.3564 0.5247 0.5593
H11 H 1.2697 0.4753 0.6946
C15 C 1.1784(4) 0.7007(3) 0.3051(2)
H12 H 1.3003 0.6725 0.2561
H13 H 1.1163 0.8105 0.2709
H14 H 1.1000 0.6068 0.3092
loop_
_geom_bond_atom_site_label_1
_geom_bond_atom_site_label_2
_geom_bond_site_symmetry_1
_geom_bond_site_symmetry_2
O1 C1 1_555 1_555
O2 C4 1_555 1_555
O3 C8 1_555 1_555
O4 C9 1_555 1_555
O5 C10 1_555 1_555
C1 C2 1_555 1_555
C2 H1 1_555 1_555
C3 C2 1_555 1_555
H2 C3 1_555 1_555
C4 C3 1_555 1_555
C5 C4 1_555 1_555
H3 C5 1_555 1_555
C6 C1 1_555 1_555
C7 C6 1_555 1_555
C8 C7 1_555 1_555
C9 C8 1_555 1_555
C10 C9 1_555 1_555
C11 C10 1_555 1_555
H4 C11 1_555 1_555
C12 C7 1_555 1_555
H5 C12 1_555 1_555
C13 O3 1_555 1_555
H6 C13 1_555 1_555
H7 C13 1_555 1_555
H8 C13 1_555 1_555
C14 O4 1_555 1_555
H9 C14 1_555 1_555
H10 C14 1_555 1_555
H11 C14 1_555 1_555
C15 O5 1_555 1_555
H12 C15 1_555 1_555
H13 C15 1_555 1_555
H14 C15 1_555 1_555
C5 C6 1_555 1_555
C11 C12 1_555 1_555

#END
