
#######################################################################
#
#                 Cambridge Crystallographic Data Centre
#                                CCDC 
#
#######################################################################
#
# If this CIF has been generated from an entry in the Cambridge 
# Structural Database, then it will include bibliographic, chemical, 
# crystal, experimental, refinement or atomic coordinate data resulting 
# from the CCDC's data processing and validation procedures.
#
#######################################################################

data_ILOBOA
_chemical_formula_moiety         'C16 H21 N1 O7 S1'
_chemical_name_systematic        
'(+-)-2-(6-Methyl-2-oxo-tetrahydro-2H-1,3-oxazin-6-yl)-2-(p-toluenesulfonyloxy)acetic acid ethyl ester'
_symmetry_cell_setting           triclinic
_symmetry_space_group_name_H-M   'P -1'
_symmetry_Int_Tables_number      2
_space_group_name_Hall           '-P 1'
loop_
_symmetry_equiv_pos_site_id
_symmetry_equiv_pos_as_xyz
1 x,y,z
2 -x,-y,-z
_cell_length_a                   6.3260(7)
_cell_length_b                   8.8945(10)
_cell_length_c                   16.7124(18)
_cell_angle_alpha                81.957(2)
_cell_angle_beta                 85.111(2)
_cell_angle_gamma                77.680(2)
_cell_volume                     908.167
_exptl_crystal_colour            colorless
_chemical_melting_point          '115-117 deg.C'
_cell_formula_units_Z            2
loop_
_atom_site_label
_atom_site_type_symbol
_atom_site_fract_x
_atom_site_fract_y
_atom_site_fract_z
S1 S 0.71016(9) 0.73711(6) 0.38430(3)
O1 O 0.8393(2) 0.86445(17) -0.01011(8)
O2 O 0.6001(2) 0.83209(14) 0.09008(7)
O3 O 0.6549(3) 0.48779(17) 0.21723(10)
O4 O 0.9432(2) 0.58074(15) 0.16245(9)
O5 O 0.5719(2) 0.74230(15) 0.30796(7)
O6 O 0.8398(3) 0.85040(17) 0.36561(9)
O7 O 0.5495(3) 0.74656(18) 0.44894(9)
N1 N 0.7978(3) 1.02272(19) 0.08656(10)
C1 C 0.4893(4) 1.0270(2) 0.18113(15)
C2 C 0.6976(4) 1.0819(2) 0.15984(13)
C3 C 0.7529(3) 0.9071(2) 0.05301(12)
C4 C 0.5140(3) 0.8576(2) 0.17159(11)
C5 C 0.2979(4) 0.8083(3) 0.18033(17)
C6 C 0.6787(3) 0.7510(2) 0.22868(11)
C7 C 0.7541(3) 0.5893(2) 0.20278(12)
C8 C 1.0358(5) 0.4368(3) 0.1273(2)
C9 C 1.2408(5) 0.4562(4) 0.0827(2)
C10 C 0.8750(3) 0.5524(2) 0.39116(11)
C11 C 1.0882(4) 0.5305(3) 0.36284(13)
C12 C 1.2102(4) 0.3804(3) 0.36654(15)
C13 C 1.1236(4) 0.2560(3) 0.39905(13)
C14 C 0.9119(5) 0.2820(3) 0.42734(15)
C15 C 0.7867(4) 0.4278(3) 0.42391(14)
C16 C 1.2577(7) 0.0920(4) 0.4058(2)
H1 H 0.442(3) 1.043(2) 0.2354(13)
H2 H 0.380(3) 1.085(2) 0.1452(12)
H3 H 0.797(3) 1.048(2) 0.2045(11)
H4 H 0.671(3) 1.192(2) 0.1524(12)
H5 H 0.905(3) 1.059(2) 0.0641(11)
H6 H 0.207(3) 0.866(2) 0.1372(13)
H7 H 0.227(4) 0.836(3) 0.2294(14)
H8 H 0.315(3) 0.701(3) 0.1758(12)
H9 H 0.795(3) 0.7962(18) 0.2314(9)
H10 H 1.058(4) 0.359(3) 0.1743(16)
H11 H 0.924(4) 0.427(3) 0.0955(16)
H12 H 1.345(5) 0.467(4) 0.1199(18)
H13 H 1.301(4) 0.368(3) 0.0540(17)
H14 H 1.222(5) 0.560(4) 0.0452(19)
H15 H 1.144(3) 0.614(3) 0.3431(12)
H16 H 1.348(4) 0.374(3) 0.3470(15)
H17 H 0.859(4) 0.205(3) 0.4477(15)
H18 H 0.643(4) 0.445(2) 0.4422(13)
H19 H 1.406(5) 0.120(3) 0.3787(17)
H20 H 1.211(5) 0.037(3) 0.3670(18)
H21 H 1.271(5) 0.063(4) 0.4573(18)
loop_
_geom_bond_atom_site_label_1
_geom_bond_atom_site_label_2
_geom_bond_site_symmetry_1
_geom_bond_site_symmetry_2
S1 O5 1_555 1_555
O1 C3 1_555 1_555
O2 C3 1_555 1_555
O3 C7 1_555 1_555
O4 C7 1_555 1_555
O5 C6 1_555 1_555
O6 S1 1_555 1_555
O7 S1 1_555 1_555
N1 C2 1_555 1_555
C1 C2 1_555 1_555
C2 H3 1_555 1_555
C3 N1 1_555 1_555
C4 O2 1_555 1_555
C5 C4 1_555 1_555
C6 C4 1_555 1_555
C7 C6 1_555 1_555
C8 O4 1_555 1_555
C9 C8 1_555 1_555
C10 S1 1_555 1_555
C11 C10 1_555 1_555
C12 C11 1_555 1_555
C13 C12 1_555 1_555
C14 C13 1_555 1_555
C15 C10 1_555 1_555
C16 C13 1_555 1_555
H1 C1 1_555 1_555
H2 C1 1_555 1_555
H4 C2 1_555 1_555
H5 N1 1_555 1_555
H6 C5 1_555 1_555
H7 C5 1_555 1_555
H8 C5 1_555 1_555
H9 C6 1_555 1_555
H10 C8 1_555 1_555
H11 C8 1_555 1_555
H12 C9 1_555 1_555
H13 C9 1_555 1_555
H14 C9 1_555 1_555
H15 C11 1_555 1_555
H16 C12 1_555 1_555
H17 C14 1_555 1_555
H18 C15 1_555 1_555
H19 C16 1_555 1_555
H20 C16 1_555 1_555
H21 C16 1_555 1_555
C1 C4 1_555 1_555
C14 C15 1_555 1_555

#END
