
#######################################################################
#
#                 Cambridge Crystallographic Data Centre
#                                CCDC 
#
#######################################################################
#
# If this CIF has been generated from an entry in the Cambridge 
# Structural Database, then it will include bibliographic, chemical, 
# crystal, experimental, refinement or atomic coordinate data resulting 
# from the CCDC's data processing and validation procedures.
#
#######################################################################

data_ILOQUX
_chemical_formula_moiety         'C24 H25 Cl1 N2 O4'
_chemical_name_systematic        
'methyl 5-(2-t-butylphenyl)-3-(4-chlorophenyl)-4,6-dioxooctahydropyrrolo[3,4-c]pyrrole-1-carboxylate'
_symmetry_cell_setting           monoclinic
_symmetry_space_group_name_H-M   'C 2'
_symmetry_Int_Tables_number      5
_space_group_name_Hall           'C 2y'
loop_
_symmetry_equiv_pos_site_id
_symmetry_equiv_pos_as_xyz
1 x,y,z
2 -x,y,-z
3 1/2+x,1/2+y,z
4 1/2-x,1/2+y,-z
_cell_length_a                   21.203(4)
_cell_length_b                   5.8478(9)
_cell_length_c                   20.613(4)
_cell_angle_alpha                90
_cell_angle_beta                 118.361(12)
_cell_angle_gamma                90
_cell_volume                     2249.05
_exptl_crystal_colour            colorless
_exptl_crystal_description       bar
_cell_formula_units_Z            4
loop_
_atom_site_label
_atom_site_type_symbol
_atom_site_fract_x
_atom_site_fract_y
_atom_site_fract_z
Cl1 Cl 0.68578(8) 0.4976(3) 0.39661(8)
H1 H 0.511(3) 0.485(10) 0.581(3)
O1 O 0.5026(2) 0.1428(7) 0.6777(3)
N1 N 0.5457(2) 0.5043(8) 0.6226(2)
C1 C 0.6582(2) 0.5713(11) 0.4621(3)
O2 O 0.49713(18) 0.3623(7) 0.7636(2)
N2 N 0.72356(16) 0.5504(6) 0.77351(19)
H2 H 0.624(3) 0.917(13) 0.423(4)
C2 C 0.6287(3) 0.7814(10) 0.4591(3)
H3 H 0.594(2) 0.979(10) 0.519(2)
C3 C 0.6045(2) 0.8272(9) 0.5094(3)
O3 O 0.74814(16) 0.8098(7) 0.70420(19)
O4 O 0.66337(17) 0.3042(7) 0.8113(2)
C4 C 0.6091(2) 0.6676(8) 0.5610(2)
H4 H 0.645(2) 0.329(9) 0.600(3)
C5 C 0.6412(3) 0.4592(9) 0.5628(3)
H5 H 0.687(3) 0.273(10) 0.517(3)
C6 C 0.6659(3) 0.4124(10) 0.5130(3)
H6 H 0.543(3) 0.845(9) 0.593(3)
C7 C 0.5779(2) 0.7158(8) 0.6126(2)
C8 C 0.6289(2) 0.7900(8) 0.6929(3)
H7 H 0.625(4) 0.970(17) 0.700(4)
C9 C 0.7071(2) 0.7238(7) 0.7214(2)
C10 C 0.6644(2) 0.4732(9) 0.7795(2)
C11 C 0.6048(2) 0.6489(8) 0.7401(3)
H8 H 0.602(2) 0.739(8) 0.777(2)
C12 C 0.5331(2) 0.5414(9) 0.6844(2)
H9 H 0.497(3) 0.647(10) 0.675(3)
C13 C 0.5103(2) 0.3240(9) 0.7066(3)
C14 C 0.4729(4) 0.1688(13) 0.7883(5)
H10 H 0.4234 0.1397 0.7544
H11 H 0.4779 0.1999 0.8363
H12 H 0.5010 0.0372 0.7909
C15 C 0.7940(2) 0.4458(7) 0.8102(2)
C16 C 0.8097(2) 0.3022(9) 0.7668(3)
H13 H 0.775(2) 0.289(8) 0.713(3)
C17 C 0.8758(3) 0.1945(10) 0.7953(3)
H14 H 0.880(3) 0.103(10) 0.765(3)
C18 C 0.9231(2) 0.2317(10) 0.8672(3)
H15 H 0.9673 0.1582 0.8876
C19 C 0.9080(2) 0.3731(10) 0.9104(3)
H16 H 0.940(3) 0.383(9) 0.962(3)
C20 C 0.8427(2) 0.4925(8) 0.8835(2)
C21 C 0.8321(2) 0.6520(9) 0.9374(3)
C22 C 0.9019(3) 0.7574(14) 0.9945(4)
H17 H 0.8925 0.8607 1.0250
H18 H 0.9239 0.8394 0.9701
H19 H 0.9337 0.6387 1.0245
C23 C 0.8022(5) 0.5138(14) 0.9784(5)
H20 H 0.8368 0.4018 1.0086
H21 H 0.7591 0.4382 0.9436
H22 H 0.7916 0.6135 1.0089
C24 C 0.7827(3) 0.8577(10) 0.8994(3)
H23 H 0.7339 0.8063 0.8728
H24 H 0.7964 0.9275 0.8657
H25 H 0.7871 0.9674 0.9359
loop_
_geom_bond_atom_site_label_1
_geom_bond_atom_site_label_2
_geom_bond_site_symmetry_1
_geom_bond_site_symmetry_2
Cl1 C1 1_555 1_555
H1 N1 1_555 1_555
O1 C13 1_555 1_555
N1 C7 1_555 1_555
C1 C2 1_555 1_555
O2 C13 1_555 1_555
N2 C9 1_555 1_555
H2 C2 1_555 1_555
C2 C3 1_555 1_555
H3 C3 1_555 1_555
C3 C4 1_555 1_555
O3 C9 1_555 1_555
O4 C10 1_555 1_555
C4 C5 1_555 1_555
H4 C5 1_555 1_555
C5 C6 1_555 1_555
H5 C6 1_555 1_555
C6 C1 1_555 1_555
H6 C7 1_555 1_555
C7 C4 1_555 1_555
C8 C7 1_555 1_555
H7 C8 1_555 1_555
C9 C8 1_555 1_555
C10 N2 1_555 1_555
C11 C8 1_555 1_555
H8 C11 1_555 1_555
C12 N1 1_555 1_555
H9 C12 1_555 1_555
C13 C12 1_555 1_555
C14 O2 1_555 1_555
H10 C14 1_555 1_555
H11 C14 1_555 1_555
H12 C14 1_555 1_555
C15 N2 1_555 1_555
C16 C15 1_555 1_555
H13 C16 1_555 1_555
C17 C16 1_555 1_555
H14 C17 1_555 1_555
C18 C17 1_555 1_555
H15 C18 1_555 1_555
C19 C18 1_555 1_555
H16 C19 1_555 1_555
C20 C15 1_555 1_555
C21 C20 1_555 1_555
C22 C21 1_555 1_555
H17 C22 1_555 1_555
H18 C22 1_555 1_555
H19 C22 1_555 1_555
C23 C21 1_555 1_555
H20 C23 1_555 1_555
H21 C23 1_555 1_555
H22 C23 1_555 1_555
C24 C21 1_555 1_555
H23 C24 1_555 1_555
H24 C24 1_555 1_555
H25 C24 1_555 1_555
C10 C11 1_555 1_555
C11 C12 1_555 1_555
C19 C20 1_555 1_555

#END
