
#######################################################################
#
#                 Cambridge Crystallographic Data Centre
#                                CCDC 
#
#######################################################################
#
# If this CIF has been generated from an entry in the Cambridge 
# Structural Database, then it will include bibliographic, chemical, 
# crystal, experimental, refinement or atomic coordinate data resulting 
# from the CCDC's data processing and validation procedures.
#
#######################################################################

data_ILORUY
_chemical_formula_moiety         'C74 H72 Cl4 O2 P2'
_chemical_name_systematic        
"3,3'-bis(2,4,6-triisopropylphenyl)-1,1'-binaphthalene-2,2'-diyl bis(bis(4-chlorophenyl)(phosphinite))"
_symmetry_cell_setting           orthorhombic
_symmetry_space_group_name_H-M   'P 21 21 21'
_symmetry_Int_Tables_number      19
_space_group_name_Hall           'P 2ac 2ab'
loop_
_symmetry_equiv_pos_site_id
_symmetry_equiv_pos_as_xyz
1 x,y,z
2 1/2+x,1/2-y,-z
3 -x,1/2+y,1/2-z
4 1/2-x,-y,1/2+z
_cell_length_a                   14.0399(10)
_cell_length_b                   18.7329(14)
_cell_length_c                   25.5734(18)
_cell_angle_alpha                90
_cell_angle_beta                 90
_cell_angle_gamma                90
_cell_volume                     6726.01
_exptl_crystal_colour            colorless
_exptl_crystal_description       block
_cell_formula_units_Z            4
loop_
_atom_site_label
_atom_site_type_symbol
_atom_site_fract_x
_atom_site_fract_y
_atom_site_fract_z
P1 P 0.20748(6) -0.03629(5) 0.07204(3)
P2 P 0.42931(6) 0.02218(5) 0.13772(3)
Cl1 Cl 0.00933(15) -0.03517(16) -0.15059(6)
Cl2 Cl -0.02705(17) -0.26873(11) 0.19974(7)
Cl3 Cl 0.68706(19) -0.25148(10) 0.17815(9)
Cl4 Cl 0.69048(17) 0.25057(10) 0.24993(8)
O1 O 0.16288(16) 0.03841(12) 0.09575(9)
O2 O 0.45894(15) 0.03729(13) 0.07583(8)
C1 C 0.0117(3) 0.0186(2) 0.25043(16)
H1 H 0.0186 -0.0141 0.2776
C2 C -0.0758(3) 0.0376(3) 0.23673(18)
C3 C -0.0851(3) 0.0864(3) 0.1963(2)
H2 H -0.1459 0.1002 0.1861
C4 C -0.0069(3) 0.1156(3) 0.17049(17)
C5 C 0.0836(2) 0.0946(2) 0.18604(13)
C6 C 0.0941(3) 0.0445(2) 0.22659(14)
C7 C 0.1912(3) 0.0213(2) 0.24544(15)
H3 H 0.2378 0.0367 0.2192
C8 C 0.2007(5) -0.0596(3) 0.25108(19)
H4 H 0.1515 -0.0771 0.2738
H5 H 0.2618 -0.0709 0.2657
H6 H 0.1946 -0.0816 0.2173
C9 C 0.2161(4) 0.0585(3) 0.2966(2)
H7 H 0.2181 0.1092 0.2911
H8 H 0.2773 0.0423 0.3085
H9 H 0.1687 0.0475 0.3225
C10 C -0.1660(5) 0.0106(5) 0.2642(3)
H10 H -0.1388 -0.0327 0.2797
C11 C -0.2331(7) -0.0218(6) 0.2333(4)
H11 H -0.2969 -0.0207 0.2429
H12 H -0.2147 -0.0448 0.2027
C12 C -0.1872(7) 0.0460(6) 0.3102(4)
H13 H -0.2499 0.0487 0.3217
H14 H -0.1387 0.0670 0.3296
C13 C -0.0208(3) 0.1708(4) 0.1274(2)
H15 H 0.0409 0.1776 0.1102
C14 C -0.0915(5) 0.1447(6) 0.0856(3)
H16 H -0.1552 0.1567 0.0961
H17 H -0.0861 0.0939 0.0818
H18 H -0.0773 0.1673 0.0528
C15 C -0.0514(6) 0.2415(5) 0.1482(4)
H19 H -0.1084 0.2358 0.1684
H20 H -0.0634 0.2735 0.1196
H21 H -0.0019 0.2608 0.1699
C16 C 0.1687(2) 0.12700(17) 0.16081(12)
C17 C 0.2077(3) 0.18879(19) 0.18046(13)
H22 H 0.1827 0.2079 0.2111
C18 C 0.2839(2) 0.22417(18) 0.15601(13)
C19 C 0.3179(3) 0.2899(2) 0.17423(17)
H23 H 0.2928 0.3095 0.2047
C20 C 0.3884(3) 0.3260(2) 0.1475(2)
H24 H 0.4109 0.3694 0.1599
C21 C 0.4243(3) 0.2979(2) 0.1031(2)
H25 H 0.4710 0.3232 0.0852
C22 C 0.3950(3) 0.23357(18) 0.08328(16)
H26 H 0.4218 0.2156 0.0527
C23 C 0.3237(2) 0.19491(16) 0.10984(12)
C24 C 0.2862(2) 0.12793(15) 0.08957(11)
C25 C 0.2100(2) 0.09752(16) 0.11508(11)
C26 C 0.3234(2) 0.10015(15) 0.03875(11)
C27 C 0.4025(2) 0.05740(16) 0.03452(11)
C28 C 0.4369(2) 0.03179(16) -0.01479(11)
C29 C 0.3868(2) 0.05043(18) -0.05865(12)
H27 H 0.4065 0.0328 -0.0909
C30 C 0.3063(2) 0.09549(17) -0.05664(12)
C31 C 0.2577(3) 0.1163(2) -0.10251(15)
H28 H 0.2762 0.0973 -0.1345
C32 C 0.1845(3) 0.1637(2) -0.10075(16)
H29 H 0.1532 0.1770 -0.1313
C33 C 0.1568(3) 0.1920(2) -0.05289(16)
H30 H 0.1081 0.2256 -0.0519
C34 C 0.1993(2) 0.17151(17) -0.00735(14)
H31 H 0.1782 0.1900 0.0243
C35 C 0.2757(2) 0.12196(16) -0.00830(12)
C36 C 0.5256(2) -0.01291(16) -0.01820(12)
C37 C 0.6142(2) 0.01834(17) -0.02252(14)
C38 C 0.6946(3) -0.0229(2) -0.02598(15)
H32 H 0.7534 -0.0007 -0.0297
C39 C 0.6903(3) -0.09787(19) -0.02409(15)
C40 C 0.6023(3) -0.12788(19) -0.02073(16)
H33 H 0.5980 -0.1774 -0.0202
C41 C 0.5182(2) -0.08837(18) -0.01806(14)
C42 C 0.4242(3) -0.1258(2) -0.01462(18)
H34 H 0.3743 -0.0898 -0.0097
C43 C 0.4202(4) -0.1782(3) 0.0313(2)
H35 H 0.4671 -0.2149 0.0264
H36 H 0.3580 -0.1994 0.0330
H37 H 0.4330 -0.1531 0.0633
C44 C 0.4038(4) -0.1660(3) -0.0649(3)
H38 H 0.4021 -0.1330 -0.0936
H39 H 0.3435 -0.1898 -0.0621
H40 H 0.4530 -0.2007 -0.0708
C45 C 0.7798(3) -0.1433(2) -0.0279(2)
H41 H 0.7611 -0.1923 -0.0191
C46 C 0.8181(4) -0.1452(3) -0.0824(2)
H42 H 0.7693 -0.1615 -0.1058
H43 H 0.8715 -0.1770 -0.0839
H44 H 0.8380 -0.0981 -0.0924
C47 C 0.8557(4) -0.1208(3) 0.0123(3)
H45 H 0.8642 -0.0700 0.0109
H46 H 0.9149 -0.1440 0.0043
H47 H 0.8353 -0.1344 0.0467
C48 C 0.6256(3) 0.0998(2) -0.0244(2)
H48 H 0.5699 0.1207 -0.0071
C49 C 0.6251(6) 0.1251(3) -0.0805(3)
H49 H 0.6256 0.1763 -0.0813
H50 H 0.5689 0.1078 -0.0977
H51 H 0.6806 0.1072 -0.0981
C50 C 0.7137(4) 0.1254(3) 0.0049(3)
H52 H 0.7160 0.1032 0.0387
H53 H 0.7109 0.1763 0.0090
H54 H 0.7698 0.1129 -0.0146
C51 C 0.1346(3) -0.10017(19) 0.10846(14)
C52 C 0.1749(4) -0.1657(2) 0.12137(19)
H55 H 0.2375 -0.1750 0.1117
C53 C 0.1245(4) -0.2174(3) 0.1481(2)
H56 H 0.1517 -0.2617 0.1550
C54 C 0.0344(4) -0.2025(3) 0.16400(17)
C55 C -0.0069(4) -0.1384(3) 0.15357(19)
H57 H -0.0685 -0.1291 0.1650
C56 C 0.0435(3) -0.0865(2) 0.12566(18)
H58 H 0.0153 -0.0426 0.1187
C57 C 0.1413(2) -0.03694(19) 0.00991(13)
C58 C 0.0788(3) 0.0156(2) -0.00386(17)
H59 H 0.0644 0.0516 0.0199
C59 C 0.0360(4) 0.0160(3) -0.05348(19)
H60 H -0.0065 0.0521 -0.0625
C60 C 0.0563(4) -0.0353(3) -0.08744(16)
C61 C 0.1155(4) -0.0897(3) -0.07501(19)
H61 H 0.1272 -0.1261 -0.0989
C62 C 0.1592(3) -0.0903(3) -0.02548(17)
H62 H 0.2006 -0.1272 -0.0167
C63 C 0.5085(3) -0.05505(18) 0.14756(13)
C64 C 0.4886(3) -0.0995(2) 0.18890(18)
H63 H 0.4375 -0.0895 0.2108
C65 C 0.5445(4) -0.1594(3) 0.1982(2)
H64 H 0.5313 -0.1891 0.2264
C66 C 0.6184(4) -0.1743(2) 0.16570(19)
C67 C 0.6396(4) -0.1305(3) 0.12504(19)
H65 H 0.6905 -0.1412 0.1031
C68 C 0.5860(3) -0.0705(2) 0.11639(17)
H66 H 0.6021 -0.0398 0.0892
C69 C 0.5044(2) 0.09019(17) 0.16848(12)
C70 C 0.5832(3) 0.1199(2) 0.14386(16)
H67 H 0.5984 0.1057 0.1100
C71 C 0.6390(3) 0.1697(2) 0.1685(2)
H68 H 0.6906 0.1903 0.1513
C72 C 0.6172(3) 0.1889(2) 0.21953(19)
C73 C 0.5405(5) 0.1614(3) 0.2435(2)
H69 H 0.5255 0.1755 0.2774
C74 C 0.4835(4) 0.1118(2) 0.21796(16)
H70 H 0.4304 0.0932 0.2349
loop_
_geom_bond_atom_site_label_1
_geom_bond_atom_site_label_2
_geom_bond_site_symmetry_1
_geom_bond_site_symmetry_2
P1 O1 1_555 1_555
P2 O2 1_555 1_555
Cl1 C60 1_555 1_555
Cl2 C54 1_555 1_555
Cl3 C66 1_555 1_555
Cl4 C72 1_555 1_555
O1 C25 1_555 1_555
O2 C27 1_555 1_555
C1 H1 1_555 1_555
C2 C1 1_555 1_555
C3 C2 1_555 1_555
H2 C3 1_555 1_555
C4 C3 1_555 1_555
C5 C4 1_555 1_555
C6 C1 1_555 1_555
C7 C6 1_555 1_555
H3 C7 1_555 1_555
C8 C7 1_555 1_555
H4 C8 1_555 1_555
H5 C8 1_555 1_555
H6 C8 1_555 1_555
C9 C7 1_555 1_555
H7 C9 1_555 1_555
H8 C9 1_555 1_555
H9 C9 1_555 1_555
C10 C2 1_555 1_555
H10 C10 1_555 1_555
C11 C10 1_555 1_555
H11 C11 1_555 1_555
H12 C11 1_555 1_555
C12 C10 1_555 1_555
H13 C12 1_555 1_555
H14 C12 1_555 1_555
C13 C4 1_555 1_555
H15 C13 1_555 1_555
C14 C13 1_555 1_555
H16 C14 1_555 1_555
H17 C14 1_555 1_555
H18 C14 1_555 1_555
C15 C13 1_555 1_555
H19 C15 1_555 1_555
H20 C15 1_555 1_555
H21 C15 1_555 1_555
C16 C5 1_555 1_555
C17 C16 1_555 1_555
H22 C17 1_555 1_555
C18 C17 1_555 1_555
C19 C18 1_555 1_555
H23 C19 1_555 1_555
C20 C19 1_555 1_555
H24 C20 1_555 1_555
C21 C20 1_555 1_555
H25 C21 1_555 1_555
C22 C21 1_555 1_555
H26 C22 1_555 1_555
C23 C18 1_555 1_555
C24 C23 1_555 1_555
C25 C16 1_555 1_555
C26 C24 1_555 1_555
C27 C26 1_555 1_555
C28 C27 1_555 1_555
C29 C28 1_555 1_555
H27 C29 1_555 1_555
C30 C29 1_555 1_555
C31 C30 1_555 1_555
H28 C31 1_555 1_555
C32 C31 1_555 1_555
H29 C32 1_555 1_555
C33 C32 1_555 1_555
H30 C33 1_555 1_555
C34 C33 1_555 1_555
H31 C34 1_555 1_555
C35 C26 1_555 1_555
C36 C28 1_555 1_555
C37 C36 1_555 1_555
C38 C37 1_555 1_555
H32 C38 1_555 1_555
C39 C38 1_555 1_555
C40 C39 1_555 1_555
H33 C40 1_555 1_555
C41 C36 1_555 1_555
C42 C41 1_555 1_555
H34 C42 1_555 1_555
C43 C42 1_555 1_555
H35 C43 1_555 1_555
H36 C43 1_555 1_555
H37 C43 1_555 1_555
C44 C42 1_555 1_555
H38 C44 1_555 1_555
H39 C44 1_555 1_555
H40 C44 1_555 1_555
C45 C39 1_555 1_555
H41 C45 1_555 1_555
C46 C45 1_555 1_555
H42 C46 1_555 1_555
H43 C46 1_555 1_555
H44 C46 1_555 1_555
C47 C45 1_555 1_555
H45 C47 1_555 1_555
H46 C47 1_555 1_555
H47 C47 1_555 1_555
C48 C37 1_555 1_555
H48 C48 1_555 1_555
C49 C48 1_555 1_555
H49 C49 1_555 1_555
H50 C49 1_555 1_555
H51 C49 1_555 1_555
C50 C48 1_555 1_555
H52 C50 1_555 1_555
H53 C50 1_555 1_555
H54 C50 1_555 1_555
C51 P1 1_555 1_555
C52 C51 1_555 1_555
H55 C52 1_555 1_555
C53 C52 1_555 1_555
H56 C53 1_555 1_555
C54 C53 1_555 1_555
C55 C54 1_555 1_555
H57 C55 1_555 1_555
C56 C51 1_555 1_555
H58 C56 1_555 1_555
C57 P1 1_555 1_555
C58 C57 1_555 1_555
H59 C58 1_555 1_555
C59 C58 1_555 1_555
H60 C59 1_555 1_555
C60 C59 1_555 1_555
C61 C60 1_555 1_555
H61 C61 1_555 1_555
C62 C57 1_555 1_555
H62 C62 1_555 1_555
C63 P2 1_555 1_555
C64 C63 1_555 1_555
H63 C64 1_555 1_555
C65 C64 1_555 1_555
H64 C65 1_555 1_555
C66 C65 1_555 1_555
C67 C66 1_555 1_555
H65 C67 1_555 1_555
C68 C63 1_555 1_555
H66 C68 1_555 1_555
C69 P2 1_555 1_555
C70 C69 1_555 1_555
H67 C70 1_555 1_555
C71 C70 1_555 1_555
H68 C71 1_555 1_555
C72 C71 1_555 1_555
C73 C72 1_555 1_555
H69 C73 1_555 1_555
C74 C69 1_555 1_555
H70 C74 1_555 1_555
C5 C6 1_555 1_555
C22 C23 1_555 1_555
C24 C25 1_555 1_555
C30 C35 1_555 1_555
C34 C35 1_555 1_555
C40 C41 1_555 1_555
C55 C56 1_555 1_555
C61 C62 1_555 1_555
C67 C68 1_555 1_555
C73 C74 1_555 1_555

#END
