
#######################################################################
#
#                 Cambridge Crystallographic Data Centre
#                                CCDC 
#
#######################################################################
#
# If this CIF has been generated from an entry in the Cambridge 
# Structural Database, then it will include bibliographic, chemical, 
# crystal, experimental, refinement or atomic coordinate data resulting 
# from the CCDC's data processing and validation procedures.
#
#######################################################################

data_ILORAE
_chemical_formula_moiety         'C23 H27 N3 O4,C3 H7 N1 O1'
_chemical_name_systematic        
'2,6-bis(5-carboxy-3,4-diethyl-1H-pyrrol-2-yl)pyridine N,N-dimethylformamide solvate'
_symmetry_cell_setting           triclinic
_symmetry_space_group_name_H-M   'P -1'
_symmetry_Int_Tables_number      2
_space_group_name_Hall           '-P 1'
loop_
_symmetry_equiv_pos_site_id
_symmetry_equiv_pos_as_xyz
1 x,y,z
2 -x,-y,-z
_cell_length_a                   4.9105(19)
_cell_length_b                   10.503(4)
_cell_length_c                   24.057(10)
_cell_angle_alpha                85.058(10)
_cell_angle_beta                 88.604(8)
_cell_angle_gamma                88.473(11)
_cell_volume                     1235.38
_exptl_crystal_colour            colorless
_exptl_crystal_description       prism
_cell_formula_units_Z            2
loop_
_atom_site_label
_atom_site_type_symbol
_atom_site_fract_x
_atom_site_fract_y
_atom_site_fract_z
C1 C 1.1446(5) 0.2282(2) 0.83510(10)
C2 C 0.9290(5) 0.3185(2) 0.81769(9)
C3 C 0.8178(4) 0.4247(2) 0.84202(9)
C4 C 0.6185(4) 0.4804(2) 0.80561(9)
C5 C 0.6110(4) 0.4070(2) 0.75965(9)
C6 C 0.4286(4) 0.4174(2) 0.71188(9)
C7 C 0.3873(5) 0.3140(2) 0.68035(9)
H1 H 0.4840 0.2351 0.6881
C8 C 0.2025(5) 0.3292(2) 0.63763(9)
H2 H 0.1698 0.2602 0.6159
C9 C 0.0653(5) 0.4452(2) 0.62664(10)
H3 H -0.0628 0.4566 0.5976
C10 C 0.1192(4) 0.5449(2) 0.65922(9)
C11 C -0.0089(4) 0.6734(2) 0.65095(9)
C12 C -0.2137(5) 0.7300(2) 0.61639(9)
C13 C -0.2502(4) 0.8585(2) 0.62957(9)
C14 C -0.0667(5) 0.8767(2) 0.67128(9)
C15 C -0.0251(5) 0.9870(2) 0.70210(10)
C16 C 0.8873(5) 0.4707(2) 0.89726(10)
H4 H 0.8534 0.5642 0.8958
H5 H 1.0838 0.4541 0.9037
C17 C 0.7235(5) 0.4065(2) 0.94623(10)
H6 H 0.5291 0.4264 0.9411
H7 H 0.7814 0.4383 0.9811
H8 H 0.7550 0.3138 0.9479
C18 C 0.4578(5) 0.6011(2) 0.81457(9)
H9 H 0.4360 0.6098 0.8551
H10 H 0.2739 0.5958 0.7991
C19 C 0.5989(5) 0.7189(2) 0.78662(10)
H11 H 0.7804 0.7247 0.8022
H12 H 0.4905 0.7959 0.7935
H13 H 0.6163 0.7116 0.7463
C20 C -0.3643(5) 0.6692(2) 0.57217(10)
H14 H -0.5393 0.7164 0.5655
H15 H -0.4065 0.5803 0.5860
C21 C -0.2040(6) 0.6678(2) 0.51692(10)
H16 H -0.1629 0.7556 0.5027
H17 H -0.3130 0.6284 0.4897
H18 H -0.0336 0.6183 0.5229
C22 C -0.4406(5) 0.9591(2) 0.60315(10)
H19 H -0.5230 1.0092 0.6325
H20 H -0.5897 0.9169 0.5854
C23 C -0.2978(5) 1.0499(2) 0.55932(11)
H21 H -0.1490 1.0914 0.5766
H22 H -0.4290 1.1150 0.5442
H23 H -0.2239 1.0014 0.5291
N1 N 0.8012(4) 0.30949(18) 0.76762(8)
N2 N 0.2989(4) 0.53151(17) 0.70122(8)
N3 N 0.0765(4) 0.76439(18) 0.68317(8)
O1 O 1.2313(3) 0.23974(15) 0.88612(7)
O2 O 1.2394(3) 0.14434(14) 0.80664(7)
O3 O -0.1477(3) 1.08973(14) 0.69457(7)
O4 O 0.1685(4) 0.96595(16) 0.74029(7)
H24 H 0.838(5) 0.242(2) 0.7453(11)
H25 H 0.206(6) 0.753(3) 0.7086(12)
H26 H 1.384(7) 0.170(3) 0.8935(14)
H27 H 0.168(8) 1.043(4) 0.7592(16)
C24 C 1.7460(5) 0.0064(2) 0.89834(11)
H28 H 1.7755 0.0348 0.8601
C25 C 1.8615(7) -0.1440(3) 0.97680(12)
H29 H 2.0308 -0.1350 0.9967
H30 H 1.8171 -0.2347 0.9780
H31 H 1.7132 -0.0970 0.9947
C26 C 2.1094(5) -0.1518(2) 0.88676(12)
H32 H 2.1181 -0.1083 0.8491
H33 H 2.0702 -0.2422 0.8845
H34 H 2.2846 -0.1448 0.9048
N4 N 1.8958(4) -0.09283(19) 0.91914(9)
O5 O 1.5723(4) 0.06431(16) 0.92463(7)
loop_
_geom_bond_atom_site_label_1
_geom_bond_atom_site_label_2
_geom_bond_site_symmetry_1
_geom_bond_site_symmetry_2
C1 C2 1_555 1_555
C2 C3 1_555 1_555
C3 C4 1_555 1_555
C4 C5 1_555 1_555
C5 C6 1_555 1_555
C6 C7 1_555 1_555
C7 H1 1_555 1_555
C8 C7 1_555 1_555
H2 C8 1_555 1_555
C9 C8 1_555 1_555
H3 C9 1_555 1_555
C10 C9 1_555 1_555
C11 C10 1_555 1_555
C12 C11 1_555 1_555
C13 C12 1_555 1_555
C14 C13 1_555 1_555
C15 C14 1_555 1_555
C16 C3 1_555 1_555
H4 C16 1_555 1_555
H5 C16 1_555 1_555
C17 C16 1_555 1_555
H6 C17 1_555 1_555
H7 C17 1_555 1_555
H8 C17 1_555 1_555
C18 C4 1_555 1_555
H9 C18 1_555 1_555
H10 C18 1_555 1_555
C19 C18 1_555 1_555
H11 C19 1_555 1_555
H12 C19 1_555 1_555
H13 C19 1_555 1_555
C20 C12 1_555 1_555
H14 C20 1_555 1_555
H15 C20 1_555 1_555
C21 C20 1_555 1_555
H16 C21 1_555 1_555
H17 C21 1_555 1_555
H18 C21 1_555 1_555
C22 C13 1_555 1_555
H19 C22 1_555 1_555
H20 C22 1_555 1_555
C23 C22 1_555 1_555
H21 C23 1_555 1_555
H22 C23 1_555 1_555
H23 C23 1_555 1_555
N1 C2 1_555 1_555
N2 C6 1_555 1_555
N3 C11 1_555 1_555
O1 C1 1_555 1_555
O2 C1 1_555 1_555
O3 C15 1_555 1_555
O4 C15 1_555 1_555
H24 N1 1_555 1_555
H25 N3 1_555 1_555
H26 O1 1_555 1_555
H27 O4 1_555 1_555
C24 H28 1_555 1_555
C25 H29 1_555 1_555
H30 C25 1_555 1_555
H31 C25 1_555 1_555
C26 H32 1_555 1_555
H33 C26 1_555 1_555
H34 C26 1_555 1_555
N4 C24 1_555 1_555
O5 C24 1_555 1_555
C5 N1 1_555 1_555
C10 N2 1_555 1_555
C14 N3 1_555 1_555
C25 N4 1_555 1_555
C26 N4 1_555 1_555

#END
