
#######################################################################
#
#                 Cambridge Crystallographic Data Centre
#                                CCDC 
#
#######################################################################
#
# If this CIF has been generated from an entry in the Cambridge 
# Structural Database, then it will include bibliographic, chemical, 
# crystal, experimental, refinement or atomic coordinate data resulting 
# from the CCDC's data processing and validation procedures.
#
#######################################################################

data_ILOSOT
_chemical_formula_moiety         'C35 H29 N1 O3'
_chemical_name_systematic        
'ethyl 3-(1-(2-oxo-2-phenylethyl)-2,4-diphenyl-1H-pyrrol-3-yl)-3-phenylacrylate'
_symmetry_cell_setting           triclinic
_symmetry_space_group_name_H-M   'P -1'
_symmetry_Int_Tables_number      2
_space_group_name_Hall           '-P 1'
loop_
_symmetry_equiv_pos_site_id
_symmetry_equiv_pos_as_xyz
1 x,y,z
2 -x,-y,-z
_cell_length_a                   11.2211(14)
_cell_length_b                   12.2573(16)
_cell_length_c                   12.3317(17)
_cell_angle_alpha                64.763(3)
_cell_angle_beta                 84.332(3)
_cell_angle_gamma                62.918(2)
_cell_volume                     1356.39
_exptl_crystal_colour            colorless
_exptl_crystal_description       block
_cell_formula_units_Z            2
loop_
_atom_site_label
_atom_site_type_symbol
_atom_site_fract_x
_atom_site_fract_y
_atom_site_fract_z
O1 O 0.95870(15) 0.82251(17) 0.12435(17)
O2 O 0.80680(15) 0.35185(15) 0.50438(14)
O3 O 0.72457(17) 0.31352(15) 0.37559(16)
N1 N 0.95679(13) 0.62243(14) 0.33214(13)
C1 C 0.90543(17) 0.68622(18) 0.40507(16)
H1 H 0.9508 0.7142 0.4383
C2 C 0.77666(16) 0.70337(17) 0.42253(15)
C3 C 0.74849(16) 0.64652(17) 0.35429(15)
C4 C 0.86056(16) 0.59855(17) 0.29843(15)
C5 C 0.88528(17) 0.52884(19) 0.22072(16)
C6 C 0.79568(19) 0.5835(2) 0.12029(18)
H2 H 0.7208 0.6678 0.0991
C7 C 0.8168(2) 0.5139(3) 0.0519(2)
H3 H 0.7552 0.5507 -0.0146
C8 C 0.9281(3) 0.3901(3) 0.0809(2)
H4 H 0.9426 0.3440 0.0337
C9 C 1.0175(2) 0.3353(2) 0.1797(2)
H5 H 1.0931 0.2518 0.1996
C10 C 0.99560(19) 0.4035(2) 0.24919(18)
H6 H 1.0562 0.3646 0.3169
C11 C 0.62130(17) 0.64500(19) 0.33614(15)
C12 C 0.61496(18) 0.5305(2) 0.36180(17)
H7 H 0.5334 0.5389 0.3393
C13 C 0.7251(2) 0.3933(2) 0.42221(19)
C14 C 0.8312(3) 0.1746(3) 0.4252(3)
H8 H 0.8091 0.1206 0.5005
H9 H 0.9152 0.1725 0.4416
C15 C 0.8463(3) 0.1183(3) 0.3390(3)
H10 H 0.7642 0.1170 0.3258
H11 H 0.9189 0.0275 0.3704
H12 H 0.8660 0.1734 0.2640
C16 C 0.50218(17) 0.7788(2) 0.27293(17)
C17 C 0.5192(2) 0.8899(2) 0.19240(18)
H13 H 0.6056 0.8822 0.1842
C18 C 0.4104(3) 1.0114(2) 0.1244(2)
H14 H 0.4240 1.0840 0.0695
C19 C 0.2831(3) 1.0258(3) 0.1370(3)
H15 H 0.2100 1.1079 0.0903
C20 C 0.2626(2) 0.9195(3) 0.2187(3)
H16 H 0.1753 0.9301 0.2285
C21 C 0.37153(19) 0.7959(3) 0.2869(2)
H17 H 0.3568 0.7242 0.3423
C22 C 0.69459(16) 0.75749(17) 0.50454(15)
C23 C 0.71140(19) 0.85102(19) 0.52894(18)
H18 H 0.7708 0.8839 0.4883
C24 C 0.6415(2) 0.8955(2) 0.6122(2)
H19 H 0.6550 0.9571 0.6278
C25 C 0.5527(2) 0.8499(2) 0.67209(19)
H20 H 0.5059 0.8801 0.7284
C26 C 0.5328(2) 0.7594(2) 0.64872(19)
H21 H 0.4719 0.7284 0.6890
C27 C 0.60283(17) 0.71389(19) 0.56544(17)
H22 H 0.5880 0.6528 0.5501
C28 C 1.08276(16) 0.60621(18) 0.28296(16)
H23 H 1.1209 0.5255 0.2686
H24 H 1.1454 0.5926 0.3419
C29 C 1.06796(18) 0.72603(19) 0.16694(18)
C30 C 1.19073(18) 0.72068(19) 0.10635(16)
C31 C 1.31316(19) 0.6055(2) 0.14543(18)
H25 H 1.3205 0.5272 0.2114
C32 C 1.4248(2) 0.6050(3) 0.0878(2)
H26 H 1.5069 0.5265 0.1143
C33 C 1.4146(2) 0.7201(3) -0.0084(2)
H27 H 1.4900 0.7200 -0.0472
C34 C 1.2943(3) 0.8353(3) -0.0478(2)
H28 H 1.2883 0.9136 -0.1129
C35 C 1.1820(2) 0.8361(2) 0.0082(2)
H29 H 1.0998 0.9144 -0.0200
loop_
_geom_bond_atom_site_label_1
_geom_bond_atom_site_label_2
_geom_bond_site_symmetry_1
_geom_bond_site_symmetry_2
O1 C29 1_555 1_555
O2 C13 1_555 1_555
O3 C13 1_555 1_555
N1 C1 1_555 1_555
C1 H1 1_555 1_555
C2 C1 1_555 1_555
C3 C2 1_555 1_555
C4 N1 1_555 1_555
C5 C4 1_555 1_555
C6 C5 1_555 1_555
H2 C6 1_555 1_555
C7 C6 1_555 1_555
H3 C7 1_555 1_555
C8 C7 1_555 1_555
H4 C8 1_555 1_555
C9 C8 1_555 1_555
H5 C9 1_555 1_555
C10 C5 1_555 1_555
H6 C10 1_555 1_555
C11 C3 1_555 1_555
C12 C11 1_555 1_555
H7 C12 1_555 1_555
C13 C12 1_555 1_555
C14 O3 1_555 1_555
H8 C14 1_555 1_555
H9 C14 1_555 1_555
C15 C14 1_555 1_555
H10 C15 1_555 1_555
H11 C15 1_555 1_555
H12 C15 1_555 1_555
C16 C11 1_555 1_555
C17 C16 1_555 1_555
H13 C17 1_555 1_555
C18 C17 1_555 1_555
H14 C18 1_555 1_555
C19 C18 1_555 1_555
H15 C19 1_555 1_555
C20 C19 1_555 1_555
H16 C20 1_555 1_555
C21 C16 1_555 1_555
H17 C21 1_555 1_555
C22 C2 1_555 1_555
C23 C22 1_555 1_555
H18 C23 1_555 1_555
C24 C23 1_555 1_555
H19 C24 1_555 1_555
C25 C24 1_555 1_555
H20 C25 1_555 1_555
C26 C25 1_555 1_555
H21 C26 1_555 1_555
C27 C22 1_555 1_555
H22 C27 1_555 1_555
C28 N1 1_555 1_555
H23 C28 1_555 1_555
H24 C28 1_555 1_555
C29 C28 1_555 1_555
C30 C29 1_555 1_555
C31 C30 1_555 1_555
H25 C31 1_555 1_555
C32 C31 1_555 1_555
H26 C32 1_555 1_555
C33 C32 1_555 1_555
H27 C33 1_555 1_555
C34 C33 1_555 1_555
H28 C34 1_555 1_555
C35 C30 1_555 1_555
H29 C35 1_555 1_555
C3 C4 1_555 1_555
C9 C10 1_555 1_555
C20 C21 1_555 1_555
C26 C27 1_555 1_555
C34 C35 1_555 1_555

#END
