
#######################################################################
#
#                 Cambridge Crystallographic Data Centre
#                                CCDC 
#
#######################################################################
#
# If this CIF has been generated from an entry in the Cambridge 
# Structural Database, then it will include bibliographic, chemical, 
# crystal, experimental, refinement or atomic coordinate data resulting 
# from the CCDC's data processing and validation procedures.
#
#######################################################################

data_ILOVOW
_chemical_formula_moiety         'C39 H40 N2'
_chemical_name_systematic        
N,N,N',N'-tetrabenzyl-5-phenylpent-4-ene-1,3-diamine
_symmetry_cell_setting           monoclinic
_symmetry_space_group_name_H-M   'C 2'
_symmetry_Int_Tables_number      5
_space_group_name_Hall           'C 2y'
loop_
_symmetry_equiv_pos_site_id
_symmetry_equiv_pos_as_xyz
1 x,y,z
2 -x,y,-z
3 1/2+x,1/2+y,z
4 1/2-x,1/2+y,-z
_cell_length_a                   26.346(8)
_cell_length_b                   9.780(3)
_cell_length_c                   12.743(4)
_cell_angle_alpha                90
_cell_angle_beta                 101.641(5)
_cell_angle_gamma                90
_cell_volume                     3215.87
_exptl_crystal_colour            'light yellow'
_exptl_crystal_description       block
_cell_formula_units_Z            4
loop_
_atom_site_label
_atom_site_type_symbol
_atom_site_fract_x
_atom_site_fract_y
_atom_site_fract_z
C1 C -0.52555(19) -0.1268(6) -0.7235(5)
H1 H -0.5431 -0.0727 -0.6780
H2 H -0.5313 -0.0834 -0.7934
C2 C -0.46771(9) -0.1277(4) -0.6761(3)
C3 C -0.44703(11) -0.0398(3) -0.5926(3)
H3 H -0.4686 0.0196 -0.5651
C4 C -0.39409(12) -0.0406(4) -0.5505(2)
H4 H -0.3803 0.0182 -0.4946
C5 C -0.36182(9) -0.1294(5) -0.5917(3)
H5 H -0.3264 -0.1299 -0.5634
C6 C -0.38250(12) -0.2173(4) -0.6751(3)
H6 H -0.3609 -0.2766 -0.7026
C7 C -0.43544(13) -0.2164(4) -0.7173(3)
H7 H -0.4493 -0.2752 -0.7731
C8 C -0.5480(2) -0.3245(6) -0.6319(4)
H8 H -0.5751 -0.2820 -0.6017
H9 H -0.5151 -0.3045 -0.5845
C9 C -0.55611(15) -0.4759(3) -0.6341(3)
C10 C -0.58826(18) -0.5325(4) -0.5716(4)
H10 H -0.6052 -0.4762 -0.5309
C11 C -0.5951(2) -0.6734(4) -0.5698(5)
H11 H -0.6166 -0.7113 -0.5280
C12 C -0.5698(2) -0.7576(3) -0.6306(5)
H12 H -0.5743 -0.8518 -0.6295
C13 C -0.53762(19) -0.7009(4) -0.6932(4)
H13 H -0.5207 -0.7573 -0.7339
C14 C -0.53079(15) -0.5601(4) -0.6949(3)
H14 H -0.5093 -0.5222 -0.7368
C15 C -0.59989(19) -0.2681(6) -0.8066(4)
H15 H -0.6122 -0.3626 -0.8062
C16 C -0.63906(19) -0.1796(6) -0.7668(4)
H16 H -0.6347 -0.0853 -0.7691
C17 C -0.6785(2) -0.2246(6) -0.7295(4)
H17 H -0.6834 -0.3188 -0.7318
C18 C -0.7160(2) -0.1449(7) -0.6846(4)
C19 C -0.7161(2) -0.0037(8) -0.6789(5)
H18 H -0.6928 0.0461 -0.7098
C20 C -0.7504(3) 0.0647(8) -0.6275(6)
H19 H -0.7495 0.1596 -0.6234
C21 C -0.7853(3) -0.0057(13) -0.5831(7)
H20 H -0.8080 0.0409 -0.5485
C22 C -0.7869(3) -0.1410(13) -0.5892(7)
H21 H -0.8114 -0.1882 -0.5599
C23 C -0.7527(2) -0.2148(9) -0.6390(6)
H22 H -0.7543 -0.3098 -0.6418
C24 C -0.5970(2) -0.2343(6) -0.9219(4)
H23 H -0.5968 -0.1358 -0.9308
H24 H -0.5649 -0.2701 -0.9371
C25 C -0.6419(3) -0.2938(6) -0.9998(4)
H25 H -0.6737 -0.2736 -0.9754
H26 H -0.6441 -0.2503 -1.0690
C26 C -0.6020(3) -0.4779(8) -1.0860(5)
H27 H -0.6177 -0.4508 -1.1584
H28 H -0.5700 -0.4270 -1.0645
C27 C -0.5901(2) -0.6268(7) -1.0843(5)
C28 C -0.5927(3) -0.6997(9) -1.1795(6)
H29 H -0.6029 -0.6562 -1.2453
C29 C -0.5800(3) -0.8384(9) -1.1751(7)
H30 H -0.5807 -0.8856 -1.2387
C30 C -0.5671(3) -0.9051(9) -1.0828(8)
H31 H -0.5596 -0.9981 -1.0820
C31 C -0.5647(3) -0.8353(9) -0.9893(7)
H32 H -0.5558 -0.8809 -0.9242
C32 C -0.5756(3) -0.6970(7) -0.9911(6)
H33 H -0.5728 -0.6505 -0.9265
C33 C -0.6890(2) -0.5039(8) -1.0506(5)
H34 H -0.6849 -0.5951 -1.0777
H35 H -0.7081 -0.4494 -1.1090
C34 C -0.7267(3) -0.5980(7) -0.7903(5)
H36 H -0.7135 -0.6487 -0.7291
C35 C -0.7743(3) -0.5327(8) -0.8002(6)
H37 H -0.7930 -0.5398 -0.7457
C36 C -0.79411(18) -0.4569(7) -0.8916(7)
H38 H -0.8260 -0.4133 -0.8982
C37 C -0.76628(19) -0.4464(7) -0.9730(5)
H39 H -0.7795 -0.3956 -1.0341
C38 C -0.71867(18) -0.5116(6) -0.9630(4)
C39 C -0.69891(19) -0.5874(5) -0.8717(5)
H40 H -0.6671 -0.6311 -0.8650
N1 N -0.54796(15) -0.2634(4) -0.7347(3)
N2 N -0.63779(17) -0.4430(5) -1.0127(3)
loop_
_geom_bond_atom_site_label_1
_geom_bond_atom_site_label_2
_geom_bond_site_symmetry_1
_geom_bond_site_symmetry_2
C1 H1 1_555 1_555
H2 C1 1_555 1_555
C2 C1 1_555 1_555
C3 C2 1_555 1_555
H3 C3 1_555 1_555
C4 C3 1_555 1_555
H4 C4 1_555 1_555
C5 C4 1_555 1_555
H5 C5 1_555 1_555
C6 C5 1_555 1_555
H6 C6 1_555 1_555
C7 C2 1_555 1_555
H7 C7 1_555 1_555
C8 H8 1_555 1_555
H9 C8 1_555 1_555
C9 C8 1_555 1_555
C10 C9 1_555 1_555
H10 C10 1_555 1_555
C11 C10 1_555 1_555
H11 C11 1_555 1_555
C12 C11 1_555 1_555
H12 C12 1_555 1_555
C13 C12 1_555 1_555
H13 C13 1_555 1_555
C14 C9 1_555 1_555
H14 C14 1_555 1_555
C15 H15 1_555 1_555
C16 C15 1_555 1_555
H16 C16 1_555 1_555
C17 C16 1_555 1_555
H17 C17 1_555 1_555
C18 C17 1_555 1_555
C19 C18 1_555 1_555
H18 C19 1_555 1_555
C20 C19 1_555 1_555
H19 C20 1_555 1_555
C21 C20 1_555 1_555
H20 C21 1_555 1_555
C22 C21 1_555 1_555
H21 C22 1_555 1_555
C23 C18 1_555 1_555
H22 C23 1_555 1_555
C24 C15 1_555 1_555
H23 C24 1_555 1_555
H24 C24 1_555 1_555
C25 C24 1_555 1_555
H25 C25 1_555 1_555
H26 C25 1_555 1_555
C26 H27 1_555 1_555
H28 C26 1_555 1_555
C27 C26 1_555 1_555
C28 C27 1_555 1_555
H29 C28 1_555 1_555
C29 C28 1_555 1_555
H30 C29 1_555 1_555
C30 C29 1_555 1_555
H31 C30 1_555 1_555
C31 C30 1_555 1_555
H32 C31 1_555 1_555
C32 C27 1_555 1_555
H33 C32 1_555 1_555
C33 H34 1_555 1_555
H35 C33 1_555 1_555
C34 H36 1_555 1_555
C35 C34 1_555 1_555
H37 C35 1_555 1_555
C36 C35 1_555 1_555
H38 C36 1_555 1_555
C37 C36 1_555 1_555
H39 C37 1_555 1_555
C38 C33 1_555 1_555
C39 C34 1_555 1_555
H40 C39 1_555 1_555
N1 C1 1_555 1_555
N2 C25 1_555 1_555
C6 C7 1_555 1_555
C8 N1 1_555 1_555
C13 C14 1_555 1_555
C15 N1 1_555 1_555
C22 C23 1_555 1_555
C26 N2 1_555 1_555
C31 C32 1_555 1_555
C33 N2 1_555 1_555
C37 C38 1_555 1_555
C38 C39 1_555 1_555

#END
