
#######################################################################
#
#                 Cambridge Crystallographic Data Centre
#                                CCDC 
#
#######################################################################
#
# If this CIF has been generated from an entry in the Cambridge 
# Structural Database, then it will include bibliographic, chemical, 
# crystal, experimental, refinement or atomic coordinate data resulting 
# from the CCDC's data processing and validation procedures.
#
#######################################################################

data_ILOXIS
_chemical_formula_moiety         'C11 H11 N1 O2'
_chemical_name_systematic        1-Ethoxyisoquinolin-3-ol
_symmetry_cell_setting           monoclinic
_symmetry_space_group_name_H-M   'P 21/n'
_symmetry_Int_Tables_number      14
_space_group_name_Hall           '-P 2yn'
loop_
_symmetry_equiv_pos_site_id
_symmetry_equiv_pos_as_xyz
1 x,y,z
2 1/2-x,1/2+y,1/2-z
3 -x,-y,-z
4 1/2+x,1/2-y,1/2+z
_cell_length_a                   4.7994(4)
_cell_length_b                   13.7192(12)
_cell_length_c                   13.8234(13)
_cell_angle_alpha                90
_cell_angle_beta                 95.721(2)
_cell_angle_gamma                90
_cell_volume                     905.653
_exptl_crystal_colour            colorless
_exptl_crystal_description       block
_cell_formula_units_Z            4
loop_
_atom_site_label
_atom_site_type_symbol
_atom_site_fract_x
_atom_site_fract_y
_atom_site_fract_z
O1 O 0.21850(17) 0.55495(6) 1.09795(5)
H1 H 0.0919 0.5199 1.0736
O2 O 0.26126(16) 0.61999(6) 0.77074(5)
N1 N 0.23161(17) 0.58512(6) 0.93343(6)
C1 C 0.3350(2) 0.60306(7) 1.02728(7)
C2 C 0.5489(2) 0.66622(8) 1.05405(7)
H2 H 0.6154 0.6739 1.1191
C3 C 0.6669(2) 0.71958(7) 0.98105(7)
C4 C 0.8879(2) 0.78728(7) 1.00153(8)
H3 H 0.9630 0.7971 1.0654
C5 C 0.9917(2) 0.83829(8) 0.92791(8)
H4 H 1.1389 0.8817 0.9422
C6 C 0.8782(2) 0.82578(8) 0.83065(8)
H5 H 0.9473 0.8621 0.7815
C7 C 0.6666(2) 0.76029(8) 0.80846(7)
H6 H 0.5929 0.7518 0.7442
C8 C 0.5599(2) 0.70551(7) 0.88329(7)
C9 C 0.3436(2) 0.63426(7) 0.86529(7)
C10 C 0.0451(2) 0.54932(8) 0.74374(7)
H7 H -0.1233 0.5647 0.7740
H8 H 0.1070 0.4844 0.7638
C11 C -0.0095(3) 0.55501(9) 0.63483(8)
H9 H -0.0704 0.6196 0.6163
H10 H -0.1524 0.5090 0.6126
H11 H 0.1594 0.5401 0.6061
loop_
_geom_bond_atom_site_label_1
_geom_bond_atom_site_label_2
_geom_bond_site_symmetry_1
_geom_bond_site_symmetry_2
O1 H1 1_555 1_555
O2 C9 1_555 1_555
N1 C1 1_555 1_555
C1 O1 1_555 1_555
C2 C1 1_555 1_555
H2 C2 1_555 1_555
C3 C2 1_555 1_555
C4 C3 1_555 1_555
H3 C4 1_555 1_555
C5 C4 1_555 1_555
H4 C5 1_555 1_555
C6 C5 1_555 1_555
H5 C6 1_555 1_555
C7 C6 1_555 1_555
H6 C7 1_555 1_555
C8 C3 1_555 1_555
C9 N1 1_555 1_555
C10 O2 1_555 1_555
H7 C10 1_555 1_555
H8 C10 1_555 1_555
C11 C10 1_555 1_555
H9 C11 1_555 1_555
H10 C11 1_555 1_555
H11 C11 1_555 1_555
C7 C8 1_555 1_555
C8 C9 1_555 1_555

#END
