
#######################################################################
#
#                 Cambridge Crystallographic Data Centre
#                                CCDC 
#
#######################################################################
#
# If this CIF has been generated from an entry in the Cambridge 
# Structural Database, then it will include bibliographic, chemical, 
# crystal, experimental, refinement or atomic coordinate data resulting 
# from the CCDC's data processing and validation procedures.
#
#######################################################################

data_ILOYOZ
_chemical_name_common            
"15,20-bis(Pentafluorophenyl)-bis(5',6',7',8'-tetrafluoro-2H-chromene-annulated)-3-methoxychlorin pyridine solvate"
_chemical_formula_moiety         'C45 H12 F18 N4 O3,0.45(C5 H5 N1)'
_chemical_name_systematic        
'4,5,6,7,26,27,28,29-Octafluoro-36-methoxy-14,19-bis(pentafluorophenyl)-9,24-dioxa-12,21,35,37-tetra-azanonacyclo[30.2.1.1^10,13^.1^15,18^.1^20,23^.0^2,11^.0^3,8^.0^22,31^.0^25,30^]octatriaconta-1(34),2(11),3,5,7,10(38),12,14,16,18,20,22(31),23(36),25,27,29,32-heptadecaene pyridine solvate'
_symmetry_cell_setting           triclinic
_symmetry_space_group_name_H-M   'P -1'
_symmetry_Int_Tables_number      2
_space_group_name_Hall           '-P 1'
loop_
_symmetry_equiv_pos_site_id
_symmetry_equiv_pos_as_xyz
1 x,y,z
2 -x,-y,-z
_cell_length_a                   10.372(3)
_cell_length_b                   13.120(3)
_cell_length_c                   15.398(4)
_cell_angle_alpha                85.798(6)
_cell_angle_beta                 72.706(7)
_cell_angle_gamma                78.441(6)
_cell_volume                     1959.86
_exptl_crystal_colour            black
_exptl_crystal_description       rod
_cell_formula_units_Z            2
loop_
_atom_site_label
_atom_site_type_symbol
_atom_site_fract_x
_atom_site_fract_y
_atom_site_fract_z
C1 C 1.0304(3) 0.2517(2) -0.00415(19)
C2 C 1.1315(3) 0.1573(2) 0.0082(2)
H1 H 1.0819 0.1046 0.0470
C3 C 1.1996(3) 0.1165(2) -0.08812(19)
H2 H 1.1995 0.0405 -0.0902
C4 C 1.1039(3) 0.1798(2) -0.13812(19)
C5 C 1.1217(3) 0.1597(2) -0.22931(19)
C6 C 1.0473(3) 0.2167(2) -0.28366(19)
C7 C 1.0596(4) 0.1968(3) -0.3769(2)
H3 H 1.1215 0.1417 -0.4128
C8 C 0.9681(4) 0.2700(3) -0.4040(2)
H4 H 0.9544 0.2749 -0.4626
C9 C 0.8949(3) 0.3390(2) -0.3306(2)
C10 C 0.7902(3) 0.4228(2) -0.3290(2)
C11 C 0.7173(3) 0.4885(2) -0.2540(2)
C12 C 0.6075(3) 0.5738(2) -0.2567(2)
H5 H 0.5739 0.5981 -0.3070
C13 C 0.5633(3) 0.6112(3) -0.1721(2)
C14 C 0.6475(3) 0.5524(2) -0.1185(2)
C15 C 0.6316(3) 0.5827(2) -0.0290(2)
C16 C 0.7270(3) 0.5395(2) 0.02001(19)
C17 C 0.7645(3) 0.5827(2) 0.08837(19)
H6 H 0.7275 0.6502 0.1130
C18 C 0.8630(3) 0.5108(2) 0.11297(19)
H7 H 0.9068 0.5199 0.1572
C19 C 0.8884(3) 0.4203(2) 0.06087(18)
C20 C 0.9773(3) 0.3230(2) 0.06536(18)
C21 C 1.2299(3) 0.0703(3) -0.27323(19)
C22 C 1.3571(4) 0.0837(3) -0.3291(3)
C23 C 1.4578(4) 0.0008(4) -0.3695(3)
C24 C 1.4322(4) -0.0988(3) -0.3545(3)
C25 C 1.3075(4) -0.1157(3) -0.3000(3)
C26 C 1.2085(4) -0.0316(3) -0.2601(2)
F1 F 1.3845(4) 0.1803(3) -0.3458(2)
F2 F 1.5788(4) 0.0170(3) -0.4252(3)
F3 F 1.5301(2) -0.1782(2) -0.3951(2)
F4 F 1.2824(3) -0.21251(18) -0.2856(2)
F5 F 1.0872(3) -0.0509(3) -0.2058(2)
C27 C 0.7473(3) 0.4424(2) -0.4142(2)
C28 C 0.7814(4) 0.5235(3) -0.4730(2)
C29 C 0.7398(4) 0.5429(3) -0.5516(2)
C30 C 0.6637(4) 0.4806(3) -0.5723(2)
C31 C 0.6316(4) 0.3969(3) -0.5174(3)
C32 C 0.6724(3) 0.3794(3) -0.4386(2)
C33 C 0.5120(3) 0.6661(2) 0.0071(2)
C34 C 0.4380(3) 0.7192(2) -0.0515(2)
C35 C 0.3261(4) 0.7995(3) -0.0214(2)
C36 C 0.2830(4) 0.8299(3) 0.0676(2)
C37 C 0.3468(3) 0.7769(3) 0.1280(2)
C38 C 0.4553(3) 0.6955(2) 0.0990(2)
C39 C 1.0328(3) 0.2947(2) 0.14382(19)
C40 C 0.9672(3) 0.3264(2) 0.2339(2)
C41 C 1.0288(4) 0.3015(3) 0.3021(2)
C42 C 1.1565(4) 0.2422(3) 0.2856(2)
C43 C 1.2222(3) 0.2046(3) 0.1997(2)
C44 C 1.1612(3) 0.2282(2) 0.13051(19)
C45 C 1.4364(4) 0.0536(3) -0.1154(3)
H8 H 1.4250 -0.0110 -0.1380
H9 H 1.4292 0.0455 -0.0505
H10 H 1.5268 0.0692 -0.1489
N1 N 1.0121(3) 0.25672(18) -0.08846(15)
N2 N 0.9475(3) 0.3030(2) -0.25876(16)
H11 H 0.9204 0.3317 -0.2049
N3 N 0.7424(3) 0.47664(19) -0.17040(16)
N4 N 0.8090(3) 0.44284(18) 0.00259(15)
H12 H 0.8104 0.4012 -0.0401
O1 O 0.4665(2) 0.69725(17) -0.14056(15)
O2 O 1.2289(2) 0.18245(17) 0.04810(14)
O3 O 1.3309(2) 0.13746(17) -0.12844(15)
F6 F 0.8580(2) 0.58598(17) -0.45524(13)
F7 F 0.7764(3) 0.6228(2) -0.60711(15)
F8 F 0.6193(2) 0.5008(2) -0.64625(13)
F9 F 0.5571(2) 0.3348(2) -0.53772(16)
F10 F 0.6360(2) 0.29847(17) -0.38511(15)
F11 F 0.2586(2) 0.84668(15) -0.07992(14)
F12 F 0.1775(2) 0.90964(15) 0.09565(15)
F13 F 0.3025(2) 0.80249(15) 0.21610(13)
F14 F 0.50165(19) 0.64156(14) 0.16520(12)
F15 F 0.83651(19) 0.37932(14) 0.25741(11)
F16 F 0.9571(2) 0.33346(17) 0.38745(11)
F17 F 1.2144(2) 0.21574(18) 0.35339(13)
F18 F 1.3459(2) 0.14041(16) 0.18391(13)
C46? C 1.3550(14) 0.0940(17) -0.3249(10)
C47? C 1.450(2) 0.0273(16) -0.3899(13)
C48? C 1.418(2) -0.0654(16) -0.4025(12)
C49? C 1.295(2) -0.0898(15) -0.3521(12)
C50? C 1.204(2) -0.0233(11) -0.2895(12)
F19? F 1.399(4) 0.1823(19) -0.3187(19)
F20? F 1.570(3) 0.053(2) -0.4387(17)
F21? F 1.504(2) -0.1324(17) -0.4637(13)
F22? F 1.260(2) -0.1799(14) -0.3621(14)
F23? F 1.085(2) -0.047(3) -0.2410(14)
N5? N 1.1118(15) -0.0558(11) -0.5148(10)
C51? C 1.0967(16) 0.0017(12) -0.5919(9)
H13? H 1.1707 -0.0047 -0.6464
C52? C 0.9733(17) 0.0686(12) -0.5891(10)
H14? H 0.9630 0.1079 -0.6418
C53? C 0.8650(16) 0.0780(12) -0.5093(11)
H15? H 0.7807 0.1237 -0.5074
C54? C 0.8801(15) 0.0205(13) -0.4323(10)
H16? H 0.8061 0.0269 -0.3778
C55? C 1.0035(16) -0.0464(12) -0.4350(9)
H17? H 1.0138 -0.0857 -0.3824
loop_
_geom_bond_atom_site_label_1
_geom_bond_atom_site_label_2
_geom_bond_site_symmetry_1
_geom_bond_site_symmetry_2
C1 C2 1_555 1_555
C2 H1 1_555 1_555
C3 C2 1_555 1_555
H2 C3 1_555 1_555
C4 C3 1_555 1_555
C5 C4 1_555 1_555
C6 C5 1_555 1_555
C7 C6 1_555 1_555
H3 C7 1_555 1_555
C8 C7 1_555 1_555
H4 C8 1_555 1_555
C9 C8 1_555 1_555
C10 C9 1_555 1_555
C11 C10 1_555 1_555
C12 C11 1_555 1_555
H5 C12 1_555 1_555
C13 C12 1_555 1_555
C14 C13 1_555 1_555
C15 C14 1_555 1_555
C16 C15 1_555 1_555
C17 C16 1_555 1_555
H6 C17 1_555 1_555
C18 C17 1_555 1_555
H7 C18 1_555 1_555
C19 C18 1_555 1_555
C20 C1 1_555 1_555
C21 C5 1_555 1_555
C22 C21 1_555 1_555
C23 C22 1_555 1_555
C24 C23 1_555 1_555
C25 C24 1_555 1_555
C26 C21 1_555 1_555
F1 C22 1_555 1_555
F2 C23 1_555 1_555
F3 C24 1_555 1_555
F4 C25 1_555 1_555
F5 C26 1_555 1_555
C27 C10 1_555 1_555
C28 C27 1_555 1_555
C29 C28 1_555 1_555
C30 C29 1_555 1_555
C31 C30 1_555 1_555
C32 C27 1_555 1_555
C33 C15 1_555 1_555
C34 C33 1_555 1_555
C35 C34 1_555 1_555
C36 C35 1_555 1_555
C37 C36 1_555 1_555
C38 C33 1_555 1_555
C39 C20 1_555 1_555
C40 C39 1_555 1_555
C41 C40 1_555 1_555
C42 C41 1_555 1_555
C43 C42 1_555 1_555
C44 C39 1_555 1_555
C45 H8 1_555 1_555
H9 C45 1_555 1_555
H10 C45 1_555 1_555
N1 C1 1_555 1_555
N2 C6 1_555 1_555
H11 N2 1_555 1_555
N3 C11 1_555 1_555
N4 C16 1_555 1_555
H12 N4 1_555 1_555
O1 C13 1_555 1_555
O2 C2 1_555 1_555
O3 C3 1_555 1_555
F6 C28 1_555 1_555
F7 C29 1_555 1_555
F8 C30 1_555 1_555
F9 C31 1_555 1_555
F10 C32 1_555 1_555
F11 C35 1_555 1_555
F12 C36 1_555 1_555
F13 C37 1_555 1_555
F14 C38 1_555 1_555
F15 C40 1_555 1_555
F16 C41 1_555 1_555
F17 C42 1_555 1_555
F18 C43 1_555 1_555
C4 N1 1_555 1_555
C9 N2 1_555 1_555
C14 N3 1_555 1_555
C19 C20 1_555 1_555
C19 N4 1_555 1_555
C25 C26 1_555 1_555
C31 C32 1_555 1_555
C34 O1 1_555 1_555
C37 C38 1_555 1_555
C43 C44 1_555 1_555
C44 O2 1_555 1_555
C45 O3 1_555 1_555

#END
