
#######################################################################
#
#                 Cambridge Crystallographic Data Centre
#                                CCDC 
#
#######################################################################
#
# If this CIF has been generated from an entry in the Cambridge 
# Structural Database, then it will include bibliographic, chemical, 
# crystal, experimental, refinement or atomic coordinate data resulting 
# from the CCDC's data processing and validation procedures.
#
#######################################################################

data_ILOZIU
_chemical_formula_moiety         'C20 H23 N1 O3'
_chemical_name_systematic        
't-Butyl 4-hydroxy-2-phenyl-3,4-dihydroquinoline-1(2H)-carboxylate'
_symmetry_cell_setting           orthorhombic
_symmetry_space_group_name_H-M   'P 21 21 21'
_symmetry_Int_Tables_number      19
_space_group_name_Hall           'P 2ac 2ab'
loop_
_symmetry_equiv_pos_site_id
_symmetry_equiv_pos_as_xyz
1 x,y,z
2 1/2-x,-y,1/2+z
3 -x,1/2+y,1/2-z
4 1/2+x,1/2-y,-z
_cell_length_a                   8.6053(10)
_cell_length_b                   11.6403(14)
_cell_length_c                   17.468(2)
_cell_angle_alpha                90
_cell_angle_beta                 90
_cell_angle_gamma                90
_cell_volume                     1749.74
_exptl_crystal_colour            colorless
_exptl_crystal_description       prismatic
_cell_formula_units_Z            4
loop_
_atom_site_label
_atom_site_type_symbol
_atom_site_fract_x
_atom_site_fract_y
_atom_site_fract_z
N1 N 0.8531(2) 0.95531(15) 0.30430(9)
O1 O 1.2477(2) 1.12764(16) 0.36932(11)
H1 H 1.2642 1.1892 0.3480
O2 O 0.7705(2) 0.83527(15) 0.21133(10)
O3 O 0.67416(18) 1.01548(13) 0.22209(8)
C1 C 0.8322(3) 1.05736(17) 0.34814(10)
C2 C 0.6882(3) 1.0879(2) 0.37751(12)
H2 H 0.6011 1.0429 0.3678
C3 C 0.6763(4) 1.1860(2) 0.42131(13)
H3 H 0.5802 1.2080 0.4407
C4 C 0.8058(4) 1.2516(2) 0.43652(14)
H4 H 0.7965 1.3176 0.4662
C5 C 0.9482(3) 1.2203(2) 0.40822(13)
H5 H 1.0350 1.2651 0.4189
C6 C 0.9638(3) 1.12227(18) 0.36377(11)
C7 C 1.1166(2) 1.07472(19) 0.33619(12)
H6 H 1.1225 1.0800 0.2803
C8 C 1.1171(2) 0.94950(19) 0.36066(12)
H7 H 1.1039 0.9452 0.4157
H8 H 1.2169 0.9157 0.3481
C9 C 0.9875(2) 0.88005(18) 0.32161(11)
H9 H 1.0282 0.8506 0.2730
C10 C 0.9451(2) 0.77840(17) 0.37126(11)
C11 C 1.0161(3) 0.6737(2) 0.35967(14)
H10 H 1.0832 0.6638 0.3185
C12 C 0.9877(4) 0.5830(2) 0.40936(16)
H11 H 1.0360 0.5125 0.4013
C13 C 0.8893(3) 0.5967(2) 0.46998(16)
H12 H 0.8708 0.5358 0.5032
C14 C 0.8177(4) 0.7006(2) 0.48168(15)
H13 H 0.7512 0.7103 0.5231
C15 C 0.8441(3) 0.79013(19) 0.43225(13)
H14 H 0.7932 0.8597 0.4399
C16 C 0.7630(2) 0.92784(17) 0.24287(12)
C17 C 0.5372(3) 1.0013(2) 0.17196(13)
C18 C 0.5849(4) 0.9676(3) 0.09179(13)
H15 H 0.6242 0.8904 0.0921
H16 H 0.6643 1.0189 0.0739
H17 H 0.4965 0.9720 0.0584
C19 C 0.4297(3) 0.9146(3) 0.20799(18)
H18 H 0.4759 0.8397 0.2053
H19 H 0.3325 0.9142 0.1810
H20 H 0.4121 0.9347 0.2606
C20 C 0.4679(4) 1.1202(3) 0.1739(2)
H21 H 0.3737 1.1212 0.1445
H22 H 0.5405 1.1740 0.1526
H23 H 0.4454 1.1410 0.2259
loop_
_geom_bond_atom_site_label_1
_geom_bond_atom_site_label_2
_geom_bond_site_symmetry_1
_geom_bond_site_symmetry_2
N1 C1 1_555 1_555
O1 H1 1_555 1_555
O2 C16 1_555 1_555
O3 C16 1_555 1_555
C1 C2 1_555 1_555
C2 H2 1_555 1_555
C3 C2 1_555 1_555
H3 C3 1_555 1_555
C4 C3 1_555 1_555
H4 C4 1_555 1_555
C5 C4 1_555 1_555
H5 C5 1_555 1_555
C6 C1 1_555 1_555
C7 O1 1_555 1_555
H6 C7 1_555 1_555
C8 C7 1_555 1_555
H7 C8 1_555 1_555
H8 C8 1_555 1_555
C9 N1 1_555 1_555
H9 C9 1_555 1_555
C10 C9 1_555 1_555
C11 C10 1_555 1_555
H10 C11 1_555 1_555
C12 C11 1_555 1_555
H11 C12 1_555 1_555
C13 C12 1_555 1_555
H12 C13 1_555 1_555
C14 C13 1_555 1_555
H13 C14 1_555 1_555
C15 C10 1_555 1_555
H14 C15 1_555 1_555
C16 N1 1_555 1_555
C17 O3 1_555 1_555
C18 C17 1_555 1_555
H15 C18 1_555 1_555
H16 C18 1_555 1_555
H17 C18 1_555 1_555
C19 C17 1_555 1_555
H18 C19 1_555 1_555
H19 C19 1_555 1_555
H20 C19 1_555 1_555
C20 C17 1_555 1_555
H21 C20 1_555 1_555
H22 C20 1_555 1_555
H23 C20 1_555 1_555
C5 C6 1_555 1_555
C6 C7 1_555 1_555
C8 C9 1_555 1_555
C14 C15 1_555 1_555

#END
