
#######################################################################
#
#                 Cambridge Crystallographic Data Centre
#                                CCDC 
#
#######################################################################
#
# If this CIF has been generated from an entry in the Cambridge 
# Structural Database, then it will include bibliographic, chemical, 
# crystal, experimental, refinement or atomic coordinate data resulting 
# from the CCDC's data processing and validation procedures.
#
#######################################################################

data_ILUBOI
_chemical_formula_moiety         'C29 H30 B1 F10 N1'
_chemical_name_systematic        
(3-Methylbut-3-en-1-yn-1-yl)(bis(pentafluorophenyl))(3-(2,2,6,6-tetramethylpiperidinium-1-yl)propyl)borate
_symmetry_cell_setting           monoclinic
_symmetry_space_group_name_H-M   'P 21/n'
_symmetry_Int_Tables_number      14
_space_group_name_Hall           '-P 2yn'
loop_
_symmetry_equiv_pos_site_id
_symmetry_equiv_pos_as_xyz
1 x,y,z
2 1/2-x,1/2+y,1/2-z
3 -x,-y,-z
4 1/2+x,1/2-y,1/2+z
_cell_length_a                   9.3348(4)
_cell_length_b                   18.8671(7)
_cell_length_c                   15.8074(6)
_cell_angle_alpha                90
_cell_angle_beta                 91.0770(10)
_cell_angle_gamma                90
_cell_volume                     2783.52
_exptl_crystal_colour            colorless
_exptl_crystal_description       prism
_cell_formula_units_Z            4
loop_
_atom_site_label
_atom_site_type_symbol
_atom_site_fract_x
_atom_site_fract_y
_atom_site_fract_z
N1 N 0.84936(11) 0.32285(5) 0.33092(6)
H1 H 0.9295(16) 0.2961(8) 0.3320(9)
B1 B 0.81058(14) 0.32342(7) 0.62934(8)
C1 C 0.83287(12) 0.34969(7) 0.42154(7)
H2 H 0.834 0.4022 0.4214
H3 H 0.739 0.3341 0.443
C2 C 0.95096(13) 0.32284(7) 0.48062(7)
H4 H 1.0451 0.3354 0.4569
H5 H 0.9454 0.2705 0.4839
C3 C 0.94105(12) 0.35396(7) 0.57047(7)
H6 H 0.9297 0.406 0.5655
H7 H 1.0332 0.345 0.6006
C4 C 0.73146(13) 0.26809(6) 0.30472(8)
C5 C 0.75991(14) 0.24352(7) 0.21408(8)
H8 H 0.8478 0.2141 0.2144
H9 H 0.6793 0.2132 0.1945
C6 C 0.77780(14) 0.30396(7) 0.15146(8)
H10 H 0.794 0.2847 0.0942
H11 H 0.69 0.3334 0.1493
C7 C 0.90529(14) 0.34881(7) 0.17985(8)
H12 H 0.9204 0.3867 0.1376
H13 H 0.9921 0.3187 0.1814
C8 C 0.88712(13) 0.38280(6) 0.26691(7)
C9 C 0.75178(14) 0.20494(7) 0.36475(8)
H14 H 0.6904 0.1657 0.3458
H15 H 0.7258 0.219 0.4221
H16 H 0.8522 0.1898 0.3647
C10 C 0.58004(13) 0.29860(7) 0.31153(8)
H17 H 0.5103 0.2598 0.3116
H18 H 0.5601 0.3298 0.2632
H19 H 0.5729 0.3257 0.3642
C11 C 1.03104(13) 0.41333(7) 0.29694(8)
H20 H 1.0658 0.447 0.2548
H21 H 1.1006 0.3748 0.3043
H22 H 1.019 0.4378 0.351
C12 C 0.77234(13) 0.44041(7) 0.26388(8)
H23 H 0.7985 0.4766 0.2225
H24 H 0.7648 0.4622 0.3199
H25 H 0.68 0.4194 0.2473
C13 C 0.81423(13) 0.23893(7) 0.62594(7)
C14 C 0.82988(13) 0.17537(7) 0.62385(8)
C15 C 0.84777(14) 0.09971(7) 0.61583(9)
C16 C 0.86615(15) 0.05758(7) 0.68282(9)
H26 H 0.8678 0.0772 0.7382
H27 H 0.8776 0.008 0.6752
C17 C 0.8455(3) 0.07117(9) 0.52678(11)
H28 H 0.8619 0.0199 0.5281
H29 H 0.9211 0.0941 0.4944
H30 H 0.7521 0.081 0.4999
C18 C 0.82802(12) 0.34633(6) 0.73126(7)
C19 C 0.72905(13) 0.32270(7) 0.78980(8)
F1 F 0.62017(8) 0.27920(4) 0.76422(5)
C20 C 0.72959(14) 0.34053(7) 0.87456(8)
F2 F 0.62867(9) 0.31539(5) 0.92627(5)
C21 C 0.83401(14) 0.38554(7) 0.90623(8)
F3 F 0.83624(10) 0.40452(5) 0.98800(5)
C22 C 0.93529(13) 0.41098(6) 0.85179(8)
F4 F 1.03798(9) 0.45510(4) 0.88124(5)
C23 C 0.93076(13) 0.39095(6) 0.76725(7)
F5 F 1.03631(8) 0.41886(4) 0.72005(4)
C24 C 0.65397(12) 0.35802(6) 0.59897(7)
C25 C 0.62673(13) 0.42957(7) 0.61396(7)
F6 F 0.72971(8) 0.47083(4) 0.64990(5)
C26 C 0.49903(14) 0.46349(7) 0.59431(8)
F7 F 0.48252(8) 0.53311(4) 0.61128(5)
C27 C 0.38962(13) 0.42623(7) 0.55515(8)
F8 F 0.26632(8) 0.45883(5) 0.53281(5)
C28 C 0.41146(13) 0.35588(7) 0.53576(8)
F9 F 0.30871(8) 0.31946(4) 0.49338(5)
C29 C 0.54006(13) 0.32355(6) 0.55836(7)
F10 F 0.55097(8) 0.25456(4) 0.53580(5)
loop_
_geom_bond_atom_site_label_1
_geom_bond_atom_site_label_2
_geom_bond_site_symmetry_1
_geom_bond_site_symmetry_2
N1 H1 1_555 1_555
B1 C3 1_555 1_555
C1 N1 1_555 1_555
H2 C1 1_555 1_555
H3 C1 1_555 1_555
C2 C1 1_555 1_555
H4 C2 1_555 1_555
H5 C2 1_555 1_555
C3 C2 1_555 1_555
H6 C3 1_555 1_555
H7 C3 1_555 1_555
C4 N1 1_555 1_555
C5 C4 1_555 1_555
H8 C5 1_555 1_555
H9 C5 1_555 1_555
C6 C5 1_555 1_555
H10 C6 1_555 1_555
H11 C6 1_555 1_555
C7 C6 1_555 1_555
H12 C7 1_555 1_555
H13 C7 1_555 1_555
C8 N1 1_555 1_555
C9 C4 1_555 1_555
H14 C9 1_555 1_555
H15 C9 1_555 1_555
H16 C9 1_555 1_555
C10 C4 1_555 1_555
H17 C10 1_555 1_555
H18 C10 1_555 1_555
H19 C10 1_555 1_555
C11 C8 1_555 1_555
H20 C11 1_555 1_555
H21 C11 1_555 1_555
H22 C11 1_555 1_555
C12 C8 1_555 1_555
H23 C12 1_555 1_555
H24 C12 1_555 1_555
H25 C12 1_555 1_555
C13 B1 1_555 1_555
C14 C13 1_555 1_555
C15 C14 1_555 1_555
C16 C15 1_555 1_555
H26 C16 1_555 1_555
H27 C16 1_555 1_555
C17 C15 1_555 1_555
H28 C17 1_555 1_555
H29 C17 1_555 1_555
H30 C17 1_555 1_555
C18 B1 1_555 1_555
C19 C18 1_555 1_555
F1 C19 1_555 1_555
C20 C19 1_555 1_555
F2 C20 1_555 1_555
C21 C20 1_555 1_555
F3 C21 1_555 1_555
C22 C21 1_555 1_555
F4 C22 1_555 1_555
C23 C18 1_555 1_555
F5 C23 1_555 1_555
C24 B1 1_555 1_555
C25 C24 1_555 1_555
F6 C25 1_555 1_555
C26 C25 1_555 1_555
F7 C26 1_555 1_555
C27 C26 1_555 1_555
F8 C27 1_555 1_555
C28 C27 1_555 1_555
F9 C28 1_555 1_555
C29 C24 1_555 1_555
F10 C29 1_555 1_555
C7 C8 1_555 1_555
C22 C23 1_555 1_555
C28 C29 1_555 1_555

#END
