
#######################################################################
#
#                 Cambridge Crystallographic Data Centre
#                                CCDC 
#
#######################################################################
#
# If this CIF has been generated from an entry in the Cambridge 
# Structural Database, then it will include bibliographic, chemical, 
# crystal, experimental, refinement or atomic coordinate data resulting 
# from the CCDC's data processing and validation procedures.
#
#######################################################################

data_ILUFAX
_chemical_formula_moiety         'C14 H20 N4 S1'
_chemical_name_systematic        
N-Cyclohexyl-2-(1-(pyridin-2-yl)ethylidene)hydrazinecarbothioamide
_symmetry_cell_setting           triclinic
_symmetry_space_group_name_H-M   'P -1'
_symmetry_Int_Tables_number      2
_space_group_name_Hall           '-P 1'
loop_
_symmetry_equiv_pos_site_id
_symmetry_equiv_pos_as_xyz
1 x,y,z
2 -x,-y,-z
_cell_length_a                   5.8890(6)
_cell_length_b                   10.2355(10)
_cell_length_c                   12.3835(13)
_cell_angle_alpha                94.628(2)
_cell_angle_beta                 90.468(2)
_cell_angle_gamma                90.987(2)
_cell_volume                     743.86
_exptl_crystal_colour            colorless
_exptl_crystal_description       cuboid
_cell_formula_units_Z            2
loop_
_atom_site_label
_atom_site_type_symbol
_atom_site_fract_x
_atom_site_fract_y
_atom_site_fract_z
S1 S -0.01629(12) 0.88027(7) 0.12995(6)
N1 N -0.3968(4) 0.9300(2) 0.23986(18)
H1 H -0.5208 0.9729 0.2466
N2 N -0.3209(4) 1.05748(18) 0.10460(17)
H2 H -0.2496 1.0742 0.0468
N3 N -0.5051(3) 1.1330(2) 0.13969(17)
N4 N -0.7738(4) 1.4311(2) 0.1110(2)
C1 C -0.2250(6) 0.8871(4) 0.4130(3)
H3 H -0.3057 0.9610 0.4471
H4 H -0.0784 0.9189 0.3901
C2 C -0.1898(8) 0.7858(5) 0.4949(3)
H5 H -0.0954 0.7163 0.4634
H6 H -0.1115 0.8268 0.5584
C3 C -0.4139(7) 0.7285(4) 0.5280(3)
H7 H -0.3867 0.6609 0.5770
H8 H -0.5021 0.7964 0.5662
C4 C -0.5444(6) 0.6712(4) 0.4316(3)
H9 H -0.6906 0.6391 0.4546
H10 H -0.4628 0.5974 0.3979
C5 C -0.5809(6) 0.7721(4) 0.3487(3)
H11 H -0.6583 0.7303 0.2853
H12 H -0.6766 0.8414 0.3797
C6 C -0.3572(5) 0.8305(3) 0.3155(2)
H13 H -0.2681 0.7605 0.2787
C7 C -0.2569(4) 0.9599(2) 0.1611(2)
C8 C -0.5548(4) 1.2358(2) 0.0927(2)
C9 C -0.4343(5) 1.2926(2) -0.0021(2)
H14 H -0.3113 1.2371 -0.0253
H15 H -0.3759 1.3788 0.0204
H16 H -0.5400 1.2978 -0.0610
C10 C -0.7511(4) 1.3098(2) 0.1402(2)
C11 C -0.9001(5) 1.2540(3) 0.2094(2)
H17 H -0.8814 1.1682 0.2271
C12 C -1.0769(5) 1.3275(3) 0.2520(2)
H18 H -1.1783 1.2926 0.2997
C13 C -1.1008(6) 1.4526(3) 0.2227(3)
H19 H -1.2190 1.5043 0.2498
C14 C -0.9470(6) 1.5002(3) 0.1528(3)
H20 H -0.9640 1.5854 0.1333
loop_
_geom_bond_atom_site_label_1
_geom_bond_atom_site_label_2
_geom_bond_site_symmetry_1
_geom_bond_site_symmetry_2
S1 C7 1_555 1_555
N1 H1 1_555 1_555
N2 H2 1_555 1_555
N3 N2 1_555 1_555
N4 C10 1_555 1_555
C1 H3 1_555 1_555
H4 C1 1_555 1_555
C2 C1 1_555 1_555
H5 C2 1_555 1_555
H6 C2 1_555 1_555
C3 C2 1_555 1_555
H7 C3 1_555 1_555
H8 C3 1_555 1_555
C4 C3 1_555 1_555
H9 C4 1_555 1_555
H10 C4 1_555 1_555
C5 C4 1_555 1_555
H11 C5 1_555 1_555
H12 C5 1_555 1_555
C6 N1 1_555 1_555
H13 C6 1_555 1_555
C7 N1 1_555 1_555
C8 N3 1_555 1_555
C9 C8 1_555 1_555
H14 C9 1_555 1_555
H15 C9 1_555 1_555
H16 C9 1_555 1_555
C10 C8 1_555 1_555
C11 C10 1_555 1_555
H17 C11 1_555 1_555
C12 C11 1_555 1_555
H18 C12 1_555 1_555
C13 C12 1_555 1_555
H19 C13 1_555 1_555
C14 N4 1_555 1_555
H20 C14 1_555 1_555
N2 C7 1_555 1_555
C1 C6 1_555 1_555
C5 C6 1_555 1_555
C13 C14 1_555 1_555

#END
