
#######################################################################
#
#                 Cambridge Crystallographic Data Centre
#                                CCDC 
#
#######################################################################
#
# If this CIF has been generated from an entry in the Cambridge 
# Structural Database, then it will include bibliographic, chemical, 
# crystal, experimental, refinement or atomic coordinate data resulting 
# from the CCDC's data processing and validation procedures.
#
#######################################################################

data_ILUNEK
_chemical_formula_moiety         'C20 H18 B1 F2 N3'
_chemical_name_systematic        
5,5-Difluoro-1,3-dimethyl-7-(1-methyl-1H-pyrrol-2-yl)-5H-6\l^5^,5\l^5^-pyrrolo[1',2':3,4][1,3,2]diazaborinino[6,1-a]isoindole
_symmetry_cell_setting           triclinic
_symmetry_space_group_name_H-M   'P -1'
_symmetry_Int_Tables_number      2
_space_group_name_Hall           '-P 1'
loop_
_symmetry_equiv_pos_site_id
_symmetry_equiv_pos_as_xyz
1 x,y,z
2 -x,-y,-z
_cell_length_a                   7.6921(8)
_cell_length_b                   11.1753(19)
_cell_length_c                   11.9129(12)
_cell_angle_alpha                109.3120(10)
_cell_angle_beta                 108.5570(10)
_cell_angle_gamma                100.366(2)
_cell_volume                     868.39
_exptl_crystal_colour            red
_exptl_crystal_description       block
_cell_formula_units_Z            2
_chemical_properties_physical    'Efflorescent, Photo-sensitive'
_exptl_crystal_preparation       Luminescent
loop_
_atom_site_label
_atom_site_type_symbol
_atom_site_fract_x
_atom_site_fract_y
_atom_site_fract_z
B1 B 0.4226(3) 0.71282(16) 0.84780(16)
C1 C 0.4391(3) 0.68404(16) 1.05793(16)
C2 C 0.5406(3) 0.75828(18) 1.19181(17)
H1 H 0.5269 0.7321 1.2558
C3 C 0.6648(2) 0.87722(17) 1.21365(14)
C4 C 0.6382(2) 0.87362(14) 1.08970(14)
C5 C 0.7255(2) 0.96548(14) 1.05347(14)
H2 H 0.8173 1.0456 1.1182
C6 C 0.6815(2) 0.94260(13) 0.92534(14)
C7 C 0.7555(2) 1.02132(14) 0.86815(15)
C8 C 0.8868(2) 1.15028(15) 0.92043(17)
H3 H 0.9518 1.2000 1.0100
C9 C 0.9161(3) 1.20076(17) 0.8348(2)
H4 H 1.0041 1.2856 0.8677
C10 C 0.8180(3) 1.12865(17) 0.6999(2)
H5 H 0.8385 1.1676 0.6453
C11 C 0.6924(3) 1.00167(16) 0.64688(17)
H6 H 0.6284 0.9532 0.5571
C12 C 0.6632(2) 0.94681(14) 0.73235(15)
C13 C 0.5349(2) 0.82283(14) 0.70885(14)
C14 C 0.4075(2) 0.71547(15) 0.58183(14)
C15 C 0.2101(3) 0.65660(17) 0.52662(16)
H7 H 0.1266 0.6717 0.5676
C16 C 0.1582(3) 0.56954(18) 0.39698(17)
H8 H 0.0334 0.5171 0.3360
C17 C 0.3224(3) 0.57535(17) 0.37629(17)
H9 H 0.3292 0.5262 0.2987
C18 C 0.2838(3) 0.55162(18) 0.98824(19)
H10 H 0.1616 0.5632 0.9491
H11 H 0.2779 0.5137 1.0490
H12 H 0.3118 0.4927 0.9218
C19 C 0.8007(3) 0.9894(2) 1.34110(16)
H13 H 0.7298 1.0416 1.3772
H14 H 0.8962 1.0450 1.3281
H15 H 0.8634 0.9537 1.3999
C20 C 0.6766(3) 0.68203(19) 0.50660(19)
H16 H 0.6845 0.6033 0.4465
H17 H 0.7519 0.6961 0.5941
H18 H 0.7258 0.7580 0.4918
F1 F 0.23009(14) 0.70865(11) 0.80115(9)
F2 F 0.43827(19) 0.59001(9) 0.78434(10)
N1 N 0.49981(18) 0.75315(12) 0.99541(12)
N2 N 0.54533(17) 0.82277(11) 0.82420(11)
N3 N 0.4754(2) 0.66489(13) 0.48757(13)
loop_
_geom_bond_atom_site_label_1
_geom_bond_atom_site_label_2
_geom_bond_site_symmetry_1
_geom_bond_site_symmetry_2
B1 F1 1_555 1_555
C1 C2 1_555 1_555
C2 H1 1_555 1_555
C3 C2 1_555 1_555
C4 C3 1_555 1_555
C5 C4 1_555 1_555
H2 C5 1_555 1_555
C6 C5 1_555 1_555
C7 C6 1_555 1_555
C8 C7 1_555 1_555
H3 C8 1_555 1_555
C9 C8 1_555 1_555
H4 C9 1_555 1_555
C10 C9 1_555 1_555
H5 C10 1_555 1_555
C11 C10 1_555 1_555
H6 C11 1_555 1_555
C12 C7 1_555 1_555
C13 C12 1_555 1_555
C14 C13 1_555 1_555
C15 C14 1_555 1_555
H7 C15 1_555 1_555
C16 C15 1_555 1_555
H8 C16 1_555 1_555
C17 C16 1_555 1_555
H9 C17 1_555 1_555
C18 C1 1_555 1_555
H10 C18 1_555 1_555
H11 C18 1_555 1_555
H12 C18 1_555 1_555
C19 C3 1_555 1_555
H13 C19 1_555 1_555
H14 C19 1_555 1_555
H15 C19 1_555 1_555
C20 H16 1_555 1_555
H17 C20 1_555 1_555
H18 C20 1_555 1_555
F2 B1 1_555 1_555
N1 B1 1_555 1_555
N2 B1 1_555 1_555
N3 C14 1_555 1_555
C1 N1 1_555 1_555
C4 N1 1_555 1_555
C6 N2 1_555 1_555
C11 C12 1_555 1_555
C13 N2 1_555 1_555
C17 N3 1_555 1_555
C20 N3 1_555 1_555

#END
