
#######################################################################
#
#                 Cambridge Crystallographic Data Centre
#                                CCDC 
#
#######################################################################
#
# If this CIF has been generated from an entry in the Cambridge 
# Structural Database, then it will include bibliographic, chemical, 
# crystal, experimental, refinement or atomic coordinate data resulting 
# from the CCDC's data processing and validation procedures.
#
#######################################################################

data_ILUWET
_chemical_formula_moiety         'C23 H18 B1 F2 N3,H2 O1'
_chemical_name_systematic        
"5,5-Difluoro-7-(1H-indol-3-yl)-1,3-dimethyl-5H-6\l^5^,5\l^5^-pyrrolo[1',2':3,4][1,3,2]diazaborinino[6,1-a]isoindole monohydrate"
_symmetry_cell_setting           triclinic
_symmetry_space_group_name_H-M   'P -1'
_symmetry_Int_Tables_number      2
_space_group_name_Hall           '-P 1'
loop_
_symmetry_equiv_pos_site_id
_symmetry_equiv_pos_as_xyz
1 x,y,z
2 -x,-y,-z
_cell_length_a                   7.2020(15)
_cell_length_b                   11.602(2)
_cell_length_c                   12.935(3)
_cell_angle_alpha                69.074(2)
_cell_angle_beta                 76.029(3)
_cell_angle_gamma                81.505(3)
_cell_volume                     977.409
_exptl_crystal_colour            colorless
_exptl_crystal_description       block
_cell_formula_units_Z            2
_exptl_crystal_preparation       Luminescent
loop_
_atom_site_label
_atom_site_type_symbol
_atom_site_fract_x
_atom_site_fract_y
_atom_site_fract_z
B1 B 0.2539(4) 0.6240(2) 0.2056(2)
C1 C 0.2641(4) 0.9119(2) 0.1785(2)
H1 H 0.1600 0.8881 0.1619
F1 F 0.4196(2) 0.66905(13) 0.12683(10)
N1 N 0.3510(3) 1.01835(19) 0.11871(18)
C2 C 0.3510(3) 0.8439(2) 0.26688(18)
F2 F 0.0956(2) 0.70014(12) 0.17029(12)
N2 N 0.2670(2) 0.62705(16) 0.32277(14)
C3 C 0.5053(3) 0.9144(2) 0.25998(19)
N3 N 0.2334(3) 0.49208(17) 0.21568(15)
C4 C 0.6507(4) 0.8958(2) 0.3198(2)
H2 H 0.6581 0.8252 0.3826
C5 C 0.7832(4) 0.9835(3) 0.2846(2)
H3 H 0.8790 0.9721 0.3250
C6 C 0.7766(4) 1.0892(3) 0.1895(2)
H4 H 0.8687 1.1464 0.1673
C7 C 0.6369(4) 1.1097(2) 0.1287(2)
H5 H 0.6323 1.1799 0.0653
C8 C 0.5023(4) 1.0223(2) 0.1649(2)
C9 C 0.3055(3) 0.7229(2) 0.34891(18)
C10 C 0.3026(3) 0.6823(2) 0.46741(18)
C11 C 0.3222(3) 0.7453(2) 0.5389(2)
H6 H 0.3441 0.8290 0.5104
C12 C 0.3080(4) 0.6794(3) 0.6518(2)
H7 H 0.3211 0.7191 0.7005
C13 C 0.2742(4) 0.5534(3) 0.6951(2)
H8 H 0.2681 0.5108 0.7718
C14 C 0.2499(3) 0.4916(2) 0.62778(19)
H9 H 0.2249 0.4084 0.6579
C15 C 0.2635(3) 0.5566(2) 0.51237(18)
C16 C 0.2425(3) 0.5216(2) 0.42120(17)
C17 C 0.2174(3) 0.4105(2) 0.41572(18)
H10 H 0.2006 0.3433 0.4825
C18 C 0.2154(3) 0.3916(2) 0.31569(19)
C19 C 0.2005(3) 0.2844(2) 0.2921(2)
C20 C 0.2079(4) 0.3233(2) 0.1766(2)
H11 H 0.2016 0.2724 0.1361
C21 C 0.2260(3) 0.4492(2) 0.1313(2)
C22 C 0.1866(4) 0.1567(2) 0.3750(2)
H12 H 0.3122 0.1220 0.3873
H13 H 0.1328 0.1065 0.3460
H14 H 0.1058 0.1590 0.4452
C23 C 0.2366(4) 0.5325(3) 0.0123(2)
H15 H 0.1283 0.5919 0.0083
H16 H 0.2355 0.4845 -0.0345
H17 H 0.3528 0.5747 -0.0135
H18 H 0.316(4) 1.086(3) 0.054(2)
O1 O 0.7752(4) 0.7776(2) 0.05892(17)
H19 H 0.674(8) 0.735(4) 0.099(4)
H20 H 0.859(6) 0.787(4) 0.096(4)
loop_
_geom_bond_atom_site_label_1
_geom_bond_atom_site_label_2
_geom_bond_site_symmetry_1
_geom_bond_site_symmetry_2
B1 F1 1_555 1_555
C1 H1 1_555 1_555
N1 C1 1_555 1_555
C2 C1 1_555 1_555
F2 B1 1_555 1_555
N2 B1 1_555 1_555
C3 C2 1_555 1_555
N3 B1 1_555 1_555
C4 C3 1_555 1_555
H2 C4 1_555 1_555
C5 C4 1_555 1_555
H3 C5 1_555 1_555
C6 C5 1_555 1_555
H4 C6 1_555 1_555
C7 C6 1_555 1_555
H5 C7 1_555 1_555
C8 N1 1_555 1_555
C9 C2 1_555 1_555
C10 C9 1_555 1_555
C11 C10 1_555 1_555
H6 C11 1_555 1_555
C12 C11 1_555 1_555
H7 C12 1_555 1_555
C13 C12 1_555 1_555
H8 C13 1_555 1_555
C14 C13 1_555 1_555
H9 C14 1_555 1_555
C15 C10 1_555 1_555
C16 N2 1_555 1_555
C17 C16 1_555 1_555
H10 C17 1_555 1_555
C18 N3 1_555 1_555
C19 C18 1_555 1_555
C20 C19 1_555 1_555
H11 C20 1_555 1_555
C21 N3 1_555 1_555
C22 C19 1_555 1_555
H12 C22 1_555 1_555
H13 C22 1_555 1_555
H14 C22 1_555 1_555
C23 C21 1_555 1_555
H15 C23 1_555 1_555
H16 C23 1_555 1_555
H17 C23 1_555 1_555
H18 N1 1_555 1_555
O1 H19 1_555 1_555
H20 O1 1_555 1_555
N2 C9 1_555 1_555
C3 C8 1_555 1_555
C7 C8 1_555 1_555
C14 C15 1_555 1_555
C15 C16 1_555 1_555
C17 C18 1_555 1_555
C20 C21 1_555 1_555

#END
