
#######################################################################
#
#                 Cambridge Crystallographic Data Centre
#                                CCDC 
#
#######################################################################
#
# If this CIF has been generated from an entry in the Cambridge 
# Structural Database, then it will include bibliographic, chemical, 
# crystal, experimental, refinement or atomic coordinate data resulting 
# from the CCDC's data processing and validation procedures.
#
#######################################################################

data_ILUWAP
_chemical_formula_moiety         'C24 H20 B1 F2 N3'
_chemical_name_systematic        
5,5-Difluoro-1,3-dimethyl-7-(3-methyl-1H-indol-2-yl)-5H-6\l^5^,5\l^5^-pyrrolo[1',2':3,4][1,3,2]diazaborinino[6,1-a]isoindole
_symmetry_cell_setting           triclinic
_symmetry_space_group_name_H-M   'P -1'
_symmetry_Int_Tables_number      2
_space_group_name_Hall           '-P 1'
loop_
_symmetry_equiv_pos_site_id
_symmetry_equiv_pos_as_xyz
1 x,y,z
2 -x,-y,-z
_cell_length_a                   7.4969(9)
_cell_length_b                   9.2933(11)
_cell_length_c                   15.1595(17)
_cell_angle_alpha                97.6350(10)
_cell_angle_beta                 102.2550(10)
_cell_angle_gamma                106.7790(10)
_cell_volume                     966.66
_exptl_crystal_colour            colorless
_exptl_crystal_description       block
_cell_formula_units_Z            2
_exptl_crystal_preparation       Luminescent
loop_
_atom_site_label
_atom_site_type_symbol
_atom_site_fract_x
_atom_site_fract_y
_atom_site_fract_z
B1 B 0.6205(3) 0.7904(2) 0.43143(13)
C1 C 0.5576(2) 0.74696(19) 0.21519(11)
F1 F 0.73000(14) 0.69050(10) 0.42789(6)
N1 N 0.5792(2) 0.60868(16) 0.23208(10)
C2 C 0.4293(2) 0.7191(2) 0.13004(11)
F2 F 0.42862(13) 0.70572(10) 0.39538(6)
N2 N 0.68752(19) 0.91357(15) 0.37281(9)
C3 C 0.3694(2) 0.5575(2) 0.09375(11)
N3 N 0.6635(2) 0.87607(15) 0.53172(9)
C4 C 0.2440(3) 0.4611(2) 0.01131(12)
H1 H 0.1778 0.5008 -0.0331
C5 C 0.2208(3) 0.3074(2) -0.00269(13)
H2 H 0.1371 0.2426 -0.0570
C6 C 0.3195(3) 0.2462(2) 0.06259(13)
H3 H 0.3004 0.1413 0.0509
C7 C 0.4445(3) 0.3368(2) 0.14381(12)
H4 H 0.5119 0.2957 0.1868
C8 C 0.4663(2) 0.49257(19) 0.15923(11)
C9 C 0.3532(3) 0.8300(2) 0.08389(12)
H5 H 0.3945 0.9270 0.1263
H6 H 0.2146 0.7905 0.0651
H7 H 0.4016 0.8437 0.0307
C10 C 0.6626(2) 0.89120(19) 0.28002(11)
C11 C 0.7631(2) 1.03316(19) 0.25843(11)
C12 C 0.8013(3) 1.0713(2) 0.17601(13)
H8 H 0.7497 0.9993 0.1207
C13 C 0.9163(3) 1.2170(2) 0.17942(14)
H9 H 0.9435 1.2438 0.1256
C14 C 0.9941(3) 1.3268(2) 0.26216(14)
H10 H 1.0696 1.4256 0.2619
C15 C 0.9613(3) 1.2919(2) 0.34350(13)
H11 H 1.0142 1.3651 0.3983
C16 C 0.8454(2) 1.14228(19) 0.34171(12)
C17 C 0.7960(2) 1.06627(18) 0.41321(11)
C18 C 0.8368(2) 1.12115(18) 0.50661(11)
H12 H 0.9095 1.2239 0.5307
C19 C 0.7745(2) 1.03041(18) 0.56572(11)
C20 C 0.7998(2) 1.06467(19) 0.66218(11)
C21 C 0.7020(3) 0.9307(2) 0.68436(12)
H13 H 0.6926 0.9183 0.7433
C22 C 0.6192(3) 0.81641(19) 0.60431(12)
C23 C 0.9089(3) 1.2174(2) 0.72473(12)
H14 H 0.8244 1.2514 0.7556
H15 H 0.9579 1.2903 0.6892
H16 H 1.0146 1.2086 0.7697
C24 C 0.5013(3) 0.6537(2) 0.59526(13)
H17 H 0.4132 0.6164 0.5349
H18 H 0.4299 0.6470 0.6410
H19 H 0.5847 0.5926 0.6041
H20 H 0.642(3) 0.600(2) 0.2854(13)
loop_
_geom_bond_atom_site_label_1
_geom_bond_atom_site_label_2
_geom_bond_site_symmetry_1
_geom_bond_site_symmetry_2
B1 F1 1_555 1_555
C1 N1 1_555 1_555
N1 C8 1_555 1_555
C2 C1 1_555 1_555
F2 B1 1_555 1_555
N2 B1 1_555 1_555
C3 C2 1_555 1_555
N3 B1 1_555 1_555
C4 C3 1_555 1_555
H1 C4 1_555 1_555
C5 C4 1_555 1_555
H2 C5 1_555 1_555
C6 C5 1_555 1_555
H3 C6 1_555 1_555
C7 C6 1_555 1_555
H4 C7 1_555 1_555
C8 C3 1_555 1_555
C9 C2 1_555 1_555
H5 C9 1_555 1_555
H6 C9 1_555 1_555
H7 C9 1_555 1_555
C10 C1 1_555 1_555
C11 C10 1_555 1_555
C12 C11 1_555 1_555
H8 C12 1_555 1_555
C13 C12 1_555 1_555
H9 C13 1_555 1_555
C14 C13 1_555 1_555
H10 C14 1_555 1_555
C15 C14 1_555 1_555
H11 C15 1_555 1_555
C16 C11 1_555 1_555
C17 N2 1_555 1_555
C18 C17 1_555 1_555
H12 C18 1_555 1_555
C19 N3 1_555 1_555
C20 C19 1_555 1_555
C21 C20 1_555 1_555
H13 C21 1_555 1_555
C22 N3 1_555 1_555
C23 C20 1_555 1_555
H14 C23 1_555 1_555
H15 C23 1_555 1_555
H16 C23 1_555 1_555
C24 C22 1_555 1_555
H17 C24 1_555 1_555
H18 C24 1_555 1_555
H19 C24 1_555 1_555
H20 N1 1_555 1_555
N2 C10 1_555 1_555
C7 C8 1_555 1_555
C15 C16 1_555 1_555
C16 C17 1_555 1_555
C18 C19 1_555 1_555
C21 C22 1_555 1_555

#END
