
#######################################################################
#
#                 Cambridge Crystallographic Data Centre
#                                CCDC 
#
#######################################################################
#
# If this CIF has been generated from an entry in the Cambridge 
# Structural Database, then it will include bibliographic, chemical, 
# crystal, experimental, refinement or atomic coordinate data resulting 
# from the CCDC's data processing and validation procedures.
#
#######################################################################

data_IMANOB
_chemical_formula_moiety         'C37 H40 F2 N4 O2'
_chemical_name_systematic        
1''-Ethyl-5''-(4-fluorobenzylidene)-4'-(4-fluorophenyl)-1'-methyl-1-(piperidin-1-ylmethyl)-4''H-dispiro[indole-3,2'-pyrrolidine-3',3''-piperidine]-2,4''(1H)-dione
_symmetry_cell_setting           monoclinic
_symmetry_space_group_name_H-M   'P 21/c'
_symmetry_Int_Tables_number      14
_space_group_name_Hall           '-P 2ybc'
loop_
_symmetry_equiv_pos_site_id
_symmetry_equiv_pos_as_xyz
1 x,y,z
2 -x,1/2+y,1/2-z
3 -x,-y,-z
4 x,1/2-y,1/2+z
_cell_length_a                   12.1284(4)
_cell_length_b                   15.8117(6)
_cell_length_c                   17.2351(7)
_cell_angle_alpha                90
_cell_angle_beta                 101.641(2)
_cell_angle_gamma                90
_cell_volume                     3237.2
_exptl_crystal_colour            yellow
_exptl_crystal_description       prismatic
_cell_formula_units_Z            4
loop_
_atom_site_label
_atom_site_type_symbol
_atom_site_fract_x
_atom_site_fract_y
_atom_site_fract_z
C1 C -0.1322(4) -0.0776(3) -0.7018(3)
C2 C -0.1175(4) -0.1461(3) -0.7607(3)
C3 C -0.1812(4) -0.2140(3) -0.7894(3)
C4 C -0.1433(5) -0.2710(3) -0.8403(3)
C5 C -0.0410(5) -0.2582(4) -0.8596(3)
C6 C 0.0277(5) -0.1926(4) -0.8289(4)
C7 C -0.0115(4) -0.1370(3) -0.7789(3)
C8 C 0.1561(5) -0.0358(4) -0.7486(4)
C9 C 0.2833(6) -0.1515(5) -0.7062(4)
C10 C 0.4003(6) -0.1749(6) -0.6649(5)
C11 C 0.4237(7) -0.1474(7) -0.5791(5)
C12 C 0.3906(6) -0.0562(7) -0.5738(4)
C13 C 0.2730(6) -0.0399(5) -0.6162(4)
C14 C -0.0166(4) -0.0316(3) -0.6882(3)
C15 C -0.0674(6) -0.1667(4) -0.5846(3)
C16 C -0.1979(5) -0.0488(3) -0.5857(3)
C17 C -0.2772(4) 0.0025(3) -0.6489(3)
C18 C -0.2952(4) 0.0932(3) -0.6274(3)
C19 C -0.2112(4) 0.1415(3) -0.5824(3)
C20 C -0.2310(5) 0.2246(4) -0.5626(3)
C21 C -0.3339(6) 0.2596(4) -0.5927(4)
C22 C -0.4168(6) 0.2162(4) -0.6390(4)
C23 C -0.3989(5) 0.1308(4) -0.6557(3)
C24 C -0.2320(4) -0.0122(3) -0.7274(2)
C25 C -0.3233(4) -0.0541(3) -0.7905(3)
C26 C -0.3133(4) -0.0441(3) -0.8749(3)
C27 C -0.3615(4) -0.1026(3) -0.9264(3)
C28 C -0.3593(4) -0.1093(3) -1.0115(3)
C29 C -0.3789(4) -0.0419(3) -1.0635(3)
C30 C -0.3722(4) -0.0506(3) -1.1432(3)
C31 C -0.3479(4) -0.1280(3) -1.1681(3)
C32 C -0.3292(5) -0.1969(3) -1.1214(3)
C33 C -0.3363(5) -0.1880(3) -1.0426(3)
C34 C -0.2432(4) 0.0271(3) -0.8980(3)
C35 C -0.1964(4) 0.0692(3) -0.7635(3)
C36 C -0.0803(5) 0.1173(3) -0.8561(3)
C37 C -0.0181(5) 0.0922(4) -0.9197(3)
F1 F -0.3502(4) 0.3422(2) -0.5746(3)
F2 F -0.3416(3) -0.1365(2) -1.24649(17)
O1 O 0.0134(3) 0.0261(2) -0.6424(2)
O2 O -0.3981(3) -0.0964(3) -0.77379(19)
N1 N -0.1587(4) -0.1171(2) -0.6305(2)
N2 N -0.1493(3) 0.0490(2) -0.8331(2)
N3 N 0.0474(3) -0.0708(3) -0.7348(2)
N4 N 0.2606(4) -0.0646(3) -0.6985(3)
H1 H -0.4014 -0.1443 -0.9029
H2 H -0.3483 -0.0265 -0.6571
H3 H -0.2132 0.0096 -0.9429
H4 H -0.2907 0.0760 -0.9126
H5 H -0.2598 0.1064 -0.7786
H6 H -0.1390 0.0969 -0.7258
H7 H -0.4592 0.0975 -0.6854
H8 H -0.0276 0.1361 -0.8109
H9 H -0.1297 0.1636 -0.8772
H10 H 0.1024 -0.1843 -0.8382
H11 H -0.3972 0.0120 -1.0434
H12 H -0.1391 0.1169 -0.5626
H13 H 0.0255 0.1388 -0.9340
H14 H 0.0315 0.0465 -0.9001
H15 H -0.0706 0.0740 -0.9665
H16 H 0.2749 -0.1635 -0.7613
H17 H 0.2319 -0.1848 -0.6837
H18 H -0.3841 -0.0028 -1.1775
H19 H -0.1912 -0.3177 -0.8610
H20 H -0.2517 -0.2205 -0.7745
H21 H -0.1344 -0.0148 -0.5608
H22 H -0.2328 -0.0725 -0.5454
H23 H 0.1557 0.0245 -0.7412
H24 H 0.1634 -0.0471 -0.8027
H25 H 0.4531 -0.1446 -0.6898
H26 H 0.4140 -0.2344 -0.6678
H27 H -0.0923 -0.1898 -0.5390
H28 H -0.0500 -0.2120 -0.6167
H29 H -0.0041 -0.1314 -0.5677
H30 H -0.4886 0.2418 -0.6598
H31 H -0.1711 0.2556 -0.5295
H32 H -0.3277 -0.2356 -1.0072
H33 H -0.0189 -0.2975 -0.8961
H34 H -0.3109 -0.2498 -1.1428
H35 H 0.4008 -0.0438 -0.5191
H36 H 0.4417 -0.0223 -0.5975
H37 H 0.2200 -0.0723 -0.5923
H38 H 0.2550 0.0186 -0.6145
H39 H 0.5018 -0.1560 -0.5544
H40 H 0.3779 -0.1824 -0.5522
loop_
_geom_bond_atom_site_label_1
_geom_bond_atom_site_label_2
_geom_bond_site_symmetry_1
_geom_bond_site_symmetry_2
C1 C2 1_555 1_555
C2 C3 1_555 1_555
C3 C4 1_555 1_555
C4 C5 1_555 1_555
C5 C6 1_555 1_555
C6 C7 1_555 1_555
C7 C2 1_555 1_555
C8 N3 1_555 1_555
C9 C10 1_555 1_555
C10 C11 1_555 1_555
C11 C12 1_555 1_555
C12 C13 1_555 1_555
C13 N4 1_555 1_555
C14 C1 1_555 1_555
C15 N1 1_555 1_555
C16 C17 1_555 1_555
C17 C18 1_555 1_555
C18 C19 1_555 1_555
C19 C20 1_555 1_555
C20 C21 1_555 1_555
C21 C22 1_555 1_555
C22 C23 1_555 1_555
C23 C18 1_555 1_555
C24 C1 1_555 1_555
C25 C24 1_555 1_555
C26 C25 1_555 1_555
C27 C26 1_555 1_555
C28 C27 1_555 1_555
C29 C28 1_555 1_555
C30 C29 1_555 1_555
C31 C30 1_555 1_555
C32 C31 1_555 1_555
C33 C28 1_555 1_555
C34 C26 1_555 1_555
C35 C24 1_555 1_555
C36 C37 1_555 1_555
C37 H13 1_555 1_555
F1 C21 1_555 1_555
F2 C31 1_555 1_555
O1 C14 1_555 1_555
O2 C25 1_555 1_555
N1 C1 1_555 1_555
N2 C34 1_555 1_555
N3 C7 1_555 1_555
N4 C8 1_555 1_555
H1 C27 1_555 1_555
H2 C17 1_555 1_555
H3 C34 1_555 1_555
H4 C34 1_555 1_555
H5 C35 1_555 1_555
H6 C35 1_555 1_555
H7 C23 1_555 1_555
H8 C36 1_555 1_555
H9 C36 1_555 1_555
H10 C6 1_555 1_555
H11 C29 1_555 1_555
H12 C19 1_555 1_555
H14 C37 1_555 1_555
H15 C37 1_555 1_555
H16 C9 1_555 1_555
H17 C9 1_555 1_555
H18 C30 1_555 1_555
H19 C4 1_555 1_555
H20 C3 1_555 1_555
H21 C16 1_555 1_555
H22 C16 1_555 1_555
H23 C8 1_555 1_555
H24 C8 1_555 1_555
H25 C10 1_555 1_555
H26 C10 1_555 1_555
H27 C15 1_555 1_555
H28 C15 1_555 1_555
H29 C15 1_555 1_555
H30 C22 1_555 1_555
H31 C20 1_555 1_555
H32 C33 1_555 1_555
H33 C5 1_555 1_555
H34 C32 1_555 1_555
H35 C12 1_555 1_555
H36 C12 1_555 1_555
H37 C13 1_555 1_555
H38 C13 1_555 1_555
H39 C11 1_555 1_555
H40 C11 1_555 1_555
C9 N4 1_555 1_555
C14 N3 1_555 1_555
C16 N1 1_555 1_555
C17 C24 1_555 1_555
C32 C33 1_555 1_555
C35 N2 1_555 1_555
C36 N2 1_555 1_555

#END
