
#######################################################################
#
#                 Cambridge Crystallographic Data Centre
#                                CCDC 
#
#######################################################################
#
# If this CIF has been generated from an entry in the Cambridge 
# Structural Database, then it will include bibliographic, chemical, 
# crystal, experimental, refinement or atomic coordinate data resulting 
# from the CCDC's data processing and validation procedures.
#
#######################################################################

data_IMARAR
_chemical_formula_moiety         'C8 H9 N1 O4'
_chemical_name_systematic        
Tetrahydro-5H-furo[3',4':3,4]pyrrolo[1,2-c][1,3]oxazole-3,6(5aH)-dione
_symmetry_cell_setting           monoclinic
_symmetry_space_group_name_H-M   'P 21/c'
_symmetry_Int_Tables_number      14
_space_group_name_Hall           '-P 2ybc'
loop_
_symmetry_equiv_pos_site_id
_symmetry_equiv_pos_as_xyz
1 x,y,z
2 -x,1/2+y,1/2-z
3 -x,-y,-z
4 x,1/2-y,1/2+z
_cell_length_a                   8.814(6)
_cell_length_b                   10.352(7)
_cell_length_c                   8.529(6)
_cell_angle_alpha                90
_cell_angle_beta                 97.784(10)
_cell_angle_gamma                90
_cell_volume                     771.037
_exptl_crystal_colour            colorless
_exptl_crystal_description       Block
_cell_formula_units_Z            4
loop_
_atom_site_label
_atom_site_type_symbol
_atom_site_fract_x
_atom_site_fract_y
_atom_site_fract_z
N1 N 0.37891(14) 0.56238(13) 0.19849(15)
O1 O 0.06182(16) 0.28152(12) -0.01695(16)
O2 O 0.63399(13) 0.52918(14) 0.29244(16)
O3 O 0.48509(13) 0.65186(12) 0.42458(15)
O4 O -0.04373(12) 0.40843(11) 0.14673(14)
C1 C 0.07679(19) 0.34827(15) 0.09970(19)
C2 C 0.22027(17) 0.37819(15) 0.20633(18)
H1 H 0.2604 0.3005 0.2632
C3 C 0.3440(2) 0.44065(19) 0.1182(2)
H2 H 0.4344 0.3864 0.1251
H3 H 0.3052 0.4545 0.0076
C4 C 0.51017(18) 0.57506(16) 0.30268(19)
C5 C 0.3262(2) 0.69023(17) 0.4057(3)
H4 H 0.3154 0.7807 0.3767
H5 H 0.2827 0.6765 0.5029
C6 C 0.24796(17) 0.60467(15) 0.27384(19)
H6 H 0.1759 0.6547 0.2000
C7 C 0.17409(16) 0.47909(14) 0.32180(17)
H7 H 0.2128 0.4558 0.4313
C8 C -0.00015(17) 0.47670(16) 0.29422(18)
H8 H -0.0396 0.4326 0.3805
H9 H -0.0406 0.5640 0.2872
loop_
_geom_bond_atom_site_label_1
_geom_bond_atom_site_label_2
_geom_bond_site_symmetry_1
_geom_bond_site_symmetry_2
N1 C3 1_555 1_555
O1 C1 1_555 1_555
O2 C4 1_555 1_555
O3 C4 1_555 1_555
O4 C1 1_555 1_555
C1 C2 1_555 1_555
C2 H1 1_555 1_555
C3 C2 1_555 1_555
H2 C3 1_555 1_555
H3 C3 1_555 1_555
C4 N1 1_555 1_555
C5 O3 1_555 1_555
H4 C5 1_555 1_555
H5 C5 1_555 1_555
C6 N1 1_555 1_555
H6 C6 1_555 1_555
C7 C2 1_555 1_555
H7 C7 1_555 1_555
C8 O4 1_555 1_555
H8 C8 1_555 1_555
H9 C8 1_555 1_555
C5 C6 1_555 1_555
C6 C7 1_555 1_555
C7 C8 1_555 1_555

#END
