
#######################################################################
#
#                 Cambridge Crystallographic Data Centre
#                                CCDC 
#
#######################################################################
#
# If this CIF has been generated from an entry in the Cambridge 
# Structural Database, then it will include bibliographic, chemical, 
# crystal, experimental, refinement or atomic coordinate data resulting 
# from the CCDC's data processing and validation procedures.
#
#######################################################################

data_IMASAS
_chemical_formula_moiety         'C20 H20 N4 O2'
_chemical_name_systematic        
5-(5-Methoxy-1-methyl-1H-indol-3-yl)-3-phenyl-4,5-dihydro-1H-pyrazole-1-carboxamide
_chemical_properties_biological  'anticancer activity'
_symmetry_cell_setting           monoclinic
_symmetry_space_group_name_H-M   'P 21/c'
_symmetry_Int_Tables_number      14
_space_group_name_Hall           '-P 2ybc'
loop_
_symmetry_equiv_pos_site_id
_symmetry_equiv_pos_as_xyz
1 x,y,z
2 -x,1/2+y,1/2-z
3 -x,-y,-z
4 x,1/2-y,1/2+z
_cell_length_a                   11.5014(7)
_cell_length_b                   16.8971(10)
_cell_length_c                   9.9298(6)
_cell_angle_alpha                90
_cell_angle_beta                 113.895(2)
_cell_angle_gamma                90
_cell_volume                     1764.36
_exptl_crystal_colour            colorless
_exptl_crystal_description       block
_cell_formula_units_Z            4
loop_
_atom_site_label
_atom_site_type_symbol
_atom_site_fract_x
_atom_site_fract_y
_atom_site_fract_z
O1 O 1.01712(11) 0.08828(8) 0.39096(14)
N1 N 0.83340(13) 0.15699(9) 0.28961(15)
C1 C 0.77392(16) 0.10596(9) -0.04790(17)
N2 N 0.70794(13) 0.16509(9) 0.27012(14)
O2 O 0.45055(13) 0.02520(9) -0.23813(16)
N3 N 0.95484(14) 0.09274(9) -0.08228(17)
C2 C 0.65790(16) 0.22193(10) 0.17917(17)
C3 C 0.90579(16) 0.09669(11) 0.37454(18)
C4 C 0.64504(16) 0.09196(10) -0.08023(18)
H1 H 0.6060 0.1157 -0.0248
C5 C 0.6356(2) 0.00564(11) -0.2783(2)
H2 H 0.5879 -0.0278 -0.3552
C6 C 0.82981(16) 0.06891(10) -0.13369(18)
C7 C 0.87106(15) 0.15288(10) 0.06033(18)
C8 C 0.76117(19) 0.01789(10) -0.2485(2)
H3 H 0.7996 -0.0071 -0.3034
C9 C 0.52363(16) 0.24156(10) 0.13322(18)
C10 C 0.57760(18) 0.04246(11) -0.1955(2)
C11 C 0.97702(17) 0.14273(11) 0.0335(2)
H4 H 1.0548 0.1668 0.0873
N4 N 0.84792(15) 0.05062(11) 0.43813(18)
H5 H 0.8888 0.0123 0.4945
H6 H 0.7698 0.0593 0.4227
C12 C 0.86246(16) 0.20341(10) 0.17957(18)
H7 H 0.9420 0.2328 0.2291
C13 C 0.74955(17) 0.26084(10) 0.1269(2)
H8 H 0.7747 0.3127 0.1711
H9 H 0.7131 0.2661 0.0205
C14 C 0.44562(19) 0.19299(14) 0.1712(3)
H10 H 0.4793 0.1479 0.2273
C15 C 0.4700(2) 0.30716(13) 0.0485(2)
H11 H 0.5202 0.3408 0.0205
C16 C 0.3849(2) 0.06720(16) -0.1661(3)
H12 H 0.4219 0.0549 -0.0629
H13 H 0.2970 0.0520 -0.2075
H14 H 0.3917 0.1230 -0.1793
C17 C 0.3422(2) 0.32336(15) 0.0049(3)
H15 H 0.3074 0.3678 -0.0527
C18 C 1.0447(2) 0.07198(14) -0.1463(2)
H16 H 1.1295 0.0842 -0.0774
H17 H 1.0253 0.1017 -0.2352
H18 H 1.0385 0.0164 -0.1682
C19 C 0.2671(2) 0.27596(16) 0.0442(3)
H19 H 0.1814 0.2877 0.0154
C20 C 0.3194(2) 0.21005(17) 0.1275(3)
H20 H 0.2684 0.1766 0.1546
loop_
_geom_bond_atom_site_label_1
_geom_bond_atom_site_label_2
_geom_bond_site_symmetry_1
_geom_bond_site_symmetry_2
O1 C3 1_555 1_555
N1 N2 1_555 1_555
C1 C4 1_555 1_555
N2 C2 1_555 1_555
O2 C10 1_555 1_555
N3 C6 1_555 1_555
C2 C9 1_555 1_555
C3 N1 1_555 1_555
C4 H1 1_555 1_555
C5 H2 1_555 1_555
C6 C1 1_555 1_555
C7 C1 1_555 1_555
C8 C5 1_555 1_555
H3 C8 1_555 1_555
C9 C14 1_555 1_555
C10 C4 1_555 1_555
C11 N3 1_555 1_555
H4 C11 1_555 1_555
N4 C3 1_555 1_555
H5 N4 1_555 1_555
H6 N4 1_555 1_555
C12 N1 1_555 1_555
H7 C12 1_555 1_555
C13 C2 1_555 1_555
H8 C13 1_555 1_555
H9 C13 1_555 1_555
C14 H10 1_555 1_555
C15 C9 1_555 1_555
H11 C15 1_555 1_555
C16 O2 1_555 1_555
H12 C16 1_555 1_555
H13 C16 1_555 1_555
H14 C16 1_555 1_555
C17 C15 1_555 1_555
H15 C17 1_555 1_555
C18 N3 1_555 1_555
H16 C18 1_555 1_555
H17 C18 1_555 1_555
H18 C18 1_555 1_555
C19 C17 1_555 1_555
H19 C19 1_555 1_555
C20 C14 1_555 1_555
H20 C20 1_555 1_555
C5 C10 1_555 1_555
C6 C8 1_555 1_555
C7 C11 1_555 1_555
C7 C12 1_555 1_555
C12 C13 1_555 1_555
C19 C20 1_555 1_555

#END
