
#######################################################################
#
#                 Cambridge Crystallographic Data Centre
#                                CCDC 
#
#######################################################################
#
# If this CIF has been generated from an entry in the Cambridge 
# Structural Database, then it will include bibliographic, chemical, 
# crystal, experimental, refinement or atomic coordinate data resulting 
# from the CCDC's data processing and validation procedures.
#
#######################################################################

data_IMATOH
_chemical_formula_moiety         'C14 H9 N3 O1'
_chemical_name_systematic        
2-Phenyl[1,2,4]triazolo[5,1-b][1,3]benzoxazole
_symmetry_cell_setting           orthorhombic
_symmetry_space_group_name_H-M   'P c a 21'
_symmetry_Int_Tables_number      29
_space_group_name_Hall           'P 2c -2ac'
loop_
_symmetry_equiv_pos_site_id
_symmetry_equiv_pos_as_xyz
1 x,y,z
2 -x,-y,1/2+z
3 1/2-x,y,1/2+z
4 1/2+x,-y,z
_cell_length_a                   21.401(2)
_cell_length_b                   4.7059(5)
_cell_length_c                   10.6453(10)
_cell_angle_alpha                90
_cell_angle_beta                 90
_cell_angle_gamma                90
_cell_volume                     1072.1
_cell_formula_units_Z            4
loop_
_atom_site_label
_atom_site_type_symbol
_atom_site_fract_x
_atom_site_fract_y
_atom_site_fract_z
C1 C 0.37005(15) 0.9141(7) 0.9724(4)
C2 C 0.29563(15) 0.7727(8) 1.0785(4)
C3 C 0.21535(16) 0.4875(7) 1.0823(4)
C4 C 0.24489(15) 0.4438(7) 0.9663(4)
C5 C 0.22287(17) 0.2486(8) 0.8823(4)
H1 H 0.2427 0.2170 0.8037
C6 C 0.16989(16) 0.0988(8) 0.9180(4)
H2 H 0.1530 -0.0380 0.8618
C7 C 0.14082(16) 0.1417(8) 1.0325(4)
H3 H 0.1048 0.0330 1.0531
C8 C 0.16317(16) 0.3402(8) 1.1178(3)
H4 H 0.1433 0.3719 1.1964
C9 C 0.42658(16) 1.0718(7) 0.9394(4)
C10 C 0.45760(17) 1.0173(8) 0.8263(4)
H5 H 0.4416 0.8788 0.7698
C11 C 0.51109(18) 1.1636(8) 0.7969(4)
H6 H 0.5321 1.1257 0.7201
C12 C 0.53463(17) 1.3664(8) 0.8786(4)
H7 H 0.5716 1.4676 0.8579
C13 C 0.50407(16) 1.4205(8) 0.9898(4)
H8 H 0.5202 1.5589 1.0461
C14 C 0.45017(17) 1.2747(8) 1.0201(4)
H9 H 0.4292 1.3143 1.0968
N1 N 0.34393(12) 0.7235(6) 0.8972(3)
N2 N 0.29508(12) 0.6321(6) 0.9694(3)
N3 N 0.34086(14) 0.9513(6) 1.0893(3)
O1 O 0.24730(12) 0.6925(5) 1.1522(3)
loop_
_geom_bond_atom_site_label_1
_geom_bond_atom_site_label_2
_geom_bond_site_symmetry_1
_geom_bond_site_symmetry_2
C1 C9 1_555 1_555
C2 N2 1_555 1_555
C3 C4 1_555 1_555
C4 C5 1_555 1_555
C5 H1 1_555 1_555
C6 C5 1_555 1_555
H2 C6 1_555 1_555
C7 C6 1_555 1_555
H3 C7 1_555 1_555
C8 C3 1_555 1_555
H4 C8 1_555 1_555
C9 C10 1_555 1_555
C10 H5 1_555 1_555
C11 C10 1_555 1_555
H6 C11 1_555 1_555
C12 C11 1_555 1_555
H7 C12 1_555 1_555
C13 C12 1_555 1_555
H8 C13 1_555 1_555
C14 C9 1_555 1_555
H9 C14 1_555 1_555
N1 C1 1_555 1_555
N2 C4 1_555 1_555
N3 C1 1_555 1_555
O1 C2 1_555 1_555
C2 N3 1_555 1_555
C3 O1 1_555 1_555
C7 C8 1_555 1_555
C13 C14 1_555 1_555
N1 N2 1_555 1_555

#END
