
#######################################################################
#
#                 Cambridge Crystallographic Data Centre
#                                CCDC 
#
#######################################################################
#
# If this CIF has been generated from an entry in the Cambridge 
# Structural Database, then it will include bibliographic, chemical, 
# crystal, experimental, refinement or atomic coordinate data resulting 
# from the CCDC's data processing and validation procedures.
#
#######################################################################

data_IMEFOX
_chemical_formula_moiety         'C9 H7 Cl1 N2'
_chemical_name_systematic        N-Chloroquinolin-2-amine
_symmetry_cell_setting           monoclinic
_symmetry_space_group_name_H-M   'P 21/c'
_symmetry_Int_Tables_number      14
_space_group_name_Hall           '-P 2ybc'
loop_
_symmetry_equiv_pos_site_id
_symmetry_equiv_pos_as_xyz
1 x,y,z
2 -x,1/2+y,1/2-z
3 -x,-y,-z
4 x,1/2-y,1/2+z
_cell_length_a                   9.8146(3)
_cell_length_b                   3.92480(10)
_cell_length_c                   20.5530(6)
_cell_angle_alpha                90
_cell_angle_beta                 103.0210(10)
_cell_angle_gamma                90
_cell_volume                     771.352
_exptl_crystal_colour            yellow
_exptl_crystal_description       block
_cell_formula_units_Z            4
loop_
_atom_site_label
_atom_site_type_symbol
_atom_site_fract_x
_atom_site_fract_y
_atom_site_fract_z
Cl1 Cl 0.25536(4) 1.04817(10) 0.59487(2)
N1 N 0.36957(11) 0.7087(3) 0.44028(5)
N2 N 0.35588(12) 0.9589(3) 0.53758(6)
H1 H 0.4437 1.0228 0.5433
C1 C 0.28968(13) 0.7875(3) 0.48488(6)
C2 C 0.14509(13) 0.6773(4) 0.46817(7)
H2 H 0.0856 0.7273 0.4975
C3 C 0.09443(14) 0.5038(4) 0.41100(7)
H3 H -0.0007 0.4342 0.4009
C4 C 0.13076(14) 0.2449(4) 0.30514(7)
H4 H 0.0367 0.1675 0.2939
C5 C 0.21776(15) 0.1828(4) 0.26229(7)
H5 H 0.1833 0.0669 0.2213
C6 C 0.35770(15) 0.2919(4) 0.27963(7)
H6 H 0.4175 0.2482 0.2501
C7 C 0.40960(14) 0.4613(4) 0.33881(7)
H7 H 0.5048 0.5299 0.3504
C8 C 0.32052(13) 0.5313(3) 0.38174(6)
C9 C 0.18020(13) 0.4218(3) 0.36524(7)
loop_
_geom_bond_atom_site_label_1
_geom_bond_atom_site_label_2
_geom_bond_site_symmetry_1
_geom_bond_site_symmetry_2
Cl1 N2 1_555 1_555
N1 C1 1_555 1_555
N2 H1 1_555 1_555
C1 N2 1_555 1_555
C2 C1 1_555 1_555
H2 C2 1_555 1_555
C3 C2 1_555 1_555
H3 C3 1_555 1_555
C4 H4 1_555 1_555
C5 C4 1_555 1_555
H5 C5 1_555 1_555
C6 C5 1_555 1_555
H6 C6 1_555 1_555
C7 C6 1_555 1_555
H7 C7 1_555 1_555
C8 N1 1_555 1_555
C9 C3 1_555 1_555
C4 C9 1_555 1_555
C7 C8 1_555 1_555
C8 C9 1_555 1_555

#END
