
#######################################################################
#
#                 Cambridge Crystallographic Data Centre
#                                CCDC 
#
#######################################################################
#
# If this CIF has been generated from an entry in the Cambridge 
# Structural Database, then it will include bibliographic, chemical, 
# crystal, experimental, refinement or atomic coordinate data resulting 
# from the CCDC's data processing and validation procedures.
#
#######################################################################

data_IMEHUF
_chemical_formula_moiety         'C15 H11 Br1 N2 O1'
_chemical_name_systematic        7-bromo-4-methoxy-2-phenylquinazoline
_symmetry_cell_setting           monoclinic
_symmetry_space_group_name_H-M   'P 21/c'
_symmetry_Int_Tables_number      14
_space_group_name_Hall           '-P 2ybc'
loop_
_symmetry_equiv_pos_site_id
_symmetry_equiv_pos_as_xyz
1 x,y,z
2 -x,1/2+y,1/2-z
3 -x,-y,-z
4 x,1/2-y,1/2+z
_cell_length_a                   7.5865(15)
_cell_length_b                   11.136(2)
_cell_length_c                   15.609(3)
_cell_angle_alpha                90
_cell_angle_beta                 96.63(3)
_cell_angle_gamma                90
_cell_volume                     1309.88
_exptl_crystal_colour            colorless
_exptl_crystal_description       column
_cell_formula_units_Z            4
loop_
_atom_site_label
_atom_site_type_symbol
_atom_site_fract_x
_atom_site_fract_y
_atom_site_fract_z
Br1 Br 0.02003(4) 0.57691(2) 0.400907(16)
O1 O -0.3775(2) 0.83325(14) 0.03029(10)
N1 N -0.3257(3) 0.64397(18) -0.01788(12)
N2 N -0.1921(3) 0.49333(16) 0.07769(12)
C1 C -0.2226(3) 0.7770(2) 0.19906(15)
H1 H -0.2631 0.8553 0.1904
C2 C -0.1474(3) 0.7416(2) 0.27861(15)
H2 H -0.1355 0.7955 0.3244
C3 C -0.0888(3) 0.6236(2) 0.29026(14)
C4 C -0.1032(3) 0.5414(2) 0.22544(15)
H3 H -0.0633 0.4632 0.2357
C5 C -0.1792(3) 0.5763(2) 0.14270(14)
C6 C -0.2627(3) 0.5305(2) 0.00148(15)
C7 C -0.3140(3) 0.7212(2) 0.04472(15)
C8 C -0.2388(3) 0.6952(2) 0.13009(14)
C9 C -0.2794(3) 0.4448(2) -0.07099(15)
C10 C -0.2118(4) 0.3305(2) -0.06109(17)
H4 H -0.1548 0.3064 -0.0079
C11 C -0.2279(4) 0.2510(3) -0.1296(2)
H5 H -0.1814 0.1740 -0.1221
C12 C -0.3111(4) 0.2845(3) -0.20787(19)
H6 H -0.3212 0.2307 -0.2537
C13 C -0.3800(4) 0.3983(3) -0.21865(18)
H7 H -0.4369 0.4216 -0.2720
C14 C -0.3650(3) 0.4777(2) -0.15090(15)
H8 H -0.4129 0.5543 -0.1587
C15 C -0.4649(4) 0.8567(3) -0.05510(17)
H9 H -0.5050 0.9385 -0.0586
H10 H -0.5646 0.8038 -0.0668
H11 H -0.3831 0.8433 -0.0967
loop_
_geom_bond_atom_site_label_1
_geom_bond_atom_site_label_2
_geom_bond_site_symmetry_1
_geom_bond_site_symmetry_2
Br1 C3 1_555 1_555
O1 C7 1_555 1_555
N1 C6 1_555 1_555
N2 C5 1_555 1_555
C1 H1 1_555 1_555
C2 C1 1_555 1_555
H2 C2 1_555 1_555
C3 C2 1_555 1_555
C4 C3 1_555 1_555
H3 C4 1_555 1_555
C5 C4 1_555 1_555
C6 N2 1_555 1_555
C7 N1 1_555 1_555
C8 C1 1_555 1_555
C9 C6 1_555 1_555
C10 C9 1_555 1_555
H4 C10 1_555 1_555
C11 C10 1_555 1_555
H5 C11 1_555 1_555
C12 C11 1_555 1_555
H6 C12 1_555 1_555
C13 C12 1_555 1_555
H7 C13 1_555 1_555
C14 C9 1_555 1_555
H8 C14 1_555 1_555
C15 O1 1_555 1_555
H9 C15 1_555 1_555
H10 C15 1_555 1_555
H11 C15 1_555 1_555
C5 C8 1_555 1_555
C7 C8 1_555 1_555
C13 C14 1_555 1_555

#END
