
#######################################################################
#
#                 Cambridge Crystallographic Data Centre
#                                CCDC 
#
#######################################################################
#
# If this CIF has been generated from an entry in the Cambridge 
# Structural Database, then it will include bibliographic, chemical, 
# crystal, experimental, refinement or atomic coordinate data resulting 
# from the CCDC's data processing and validation procedures.
#
#######################################################################

data_IMEJAN
_chemical_formula_moiety         'C26 H20 O1'
_chemical_name_systematic        
2-(2-phenylvinyl)-2,3-dihydro-4'H-spiro[indene-1,1'-naphthalen]-4'-one
_symmetry_cell_setting           triclinic
_symmetry_space_group_name_H-M   'P -1'
_symmetry_Int_Tables_number      2
_space_group_name_Hall           '-P 1'
loop_
_symmetry_equiv_pos_site_id
_symmetry_equiv_pos_as_xyz
1 x,y,z
2 -x,-y,-z
_cell_length_a                   8.800(6)
_cell_length_b                   10.295(7)
_cell_length_c                   21.034(14)
_cell_angle_alpha                90.156(12)
_cell_angle_beta                 93.240(12)
_cell_angle_gamma                91.754(12)
_cell_volume                     1901.64
_exptl_crystal_colour            colorless
_exptl_crystal_description       block
_cell_formula_units_Z            4
loop_
_atom_site_label
_atom_site_type_symbol
_atom_site_fract_x
_atom_site_fract_y
_atom_site_fract_z
C1 C 0.7792(5) 0.7020(5) 0.2122(2)
C2 C 0.7582(5) 0.8888(5) 0.2793(2)
H1 H 0.7486 0.9247 0.3195
C3 C 0.7602(5) 0.7575(5) 0.2709(2)
C4 C 0.7504(5) 0.6519(4) 0.3214(2)
C5 C 0.6947(5) 0.2142(5) 0.3788(2)
C6 C 0.9028(6) 0.6378(5) 0.3544(2)
H2 H 0.9862 0.6380 0.3292
C7 C 0.7899(5) 0.7830(6) 0.1600(2)
H3 H 0.8013 0.7478 0.1199
C8 C 0.6273(5) 0.6725(4) 0.3677(2)
C9 C 0.6541(6) 0.6533(4) 0.4326(2)
C10 C 0.7838(6) 0.9142(6) 0.1675(2)
H4 H 0.7884 0.9682 0.1323
C11 C 0.4853(6) 0.7089(5) 0.3454(2)
H5 H 0.4671 0.7267 0.3024
C12 C 0.5364(7) 0.6639(5) 0.4733(2)
H6 H 0.5537 0.6481 0.5166
C13 C 0.7834(6) 0.5582(5) 0.2160(2)
H7 H 0.8873 0.5291 0.2166
H8 H 0.7252 0.5178 0.1803
C14 C 0.6565(6) 0.3268(5) 0.3395(2)
H9 H 0.5538 0.3450 0.3339
C15 C 0.7107(6) 0.5269(5) 0.2790(2)
H10 H 0.6001 0.5235 0.2703
C16 C 0.3971(7) 0.6971(5) 0.4504(3)
H11 H 0.3188 0.7052 0.4779
C17 C 0.9301(6) 0.6250(5) 0.4167(2)
H12 H 1.0295 0.6153 0.4330
C18 C 0.8065(7) 0.6260(5) 0.4595(2)
O1 O 0.8329(6) 0.6093(5) 0.51656(17)
C19 C 0.7516(6) 0.4045(5) 0.3114(2)
H13 H 0.8528 0.3809 0.3117
C20 C 0.7707(6) 0.9668(5) 0.2269(2)
H14 H 0.7704 1.0566 0.2317
C21 C 0.5852(6) 0.1236(5) 0.3943(2)
H15 H 0.4857 0.1331 0.3781
C22 C 0.3703(6) 0.7191(5) 0.3862(3)
H16 H 0.2736 0.7410 0.3705
C23 C 0.6173(7) 0.0201(5) 0.4327(3)
H17 H 0.5406 -0.0398 0.4420
C24 C 0.7611(8) 0.0051(6) 0.4570(3)
H18 H 0.7852 -0.0666 0.4820
C25 C 0.8371(6) 0.1984(6) 0.4052(3)
H19 H 0.9145 0.2581 0.3964
C26 C 0.8685(8) 0.0956(7) 0.4445(4)
H20 H 0.9664 0.0883 0.4630
C27 C 0.2286(5) 0.1856(5) 0.2884(2)
C28 C 0.2571(5) 0.3756(5) 0.2233(2)
H21 H 0.2716 0.4127 0.1838
C29 C 0.2174(5) 0.3978(6) 0.3340(2)
H22 H 0.2074 0.4507 0.3694
C30 C 0.2544(5) 0.2441(5) 0.23017(19)
C31 C 0.2679(5) 0.1402(5) 0.17885(19)
C32 C 0.2112(5) 0.2679(6) 0.3405(2)
H23 H 0.1951 0.2320 0.3802
C33 C 0.3044(6) -0.3035(5) 0.1241(2)
C34 C 0.3481(6) -0.1856(5) 0.1619(2)
H24 H 0.4517 -0.1647 0.1668
C35 C 0.3940(6) 0.1680(5) 0.1351(2)
C36 C 0.1161(6) 0.1198(5) 0.1440(2)
H25 H 0.0306 0.1170 0.1680
C37 C 0.3021(6) 0.0158(5) 0.2208(2)
H26 H 0.4123 0.0151 0.2306
C38 C 0.5345(6) 0.2121(5) 0.1584(3)
H27 H 0.5504 0.2277 0.2019
C39 C 0.3704(7) 0.1472(5) 0.0690(2)
C40 C 0.2382(6) 0.4533(5) 0.2756(2)
H28 H 0.2395 0.5432 0.2714
C41 C 0.2201(8) 0.1123(6) 0.0409(3)
C42 C 0.2252(6) 0.0426(5) 0.2839(2)
H29 H 0.1214 0.0077 0.2822
H30 H 0.2817 0.0049 0.3198
O2 O 0.1996(7) 0.0927(6) -0.01629(18)
C43 C 0.4927(8) 0.1679(6) 0.0306(3)
H31 H 0.4787 0.1522 -0.0130
C44 C 0.4140(6) -0.3819(5) 0.1038(3)
H32 H 0.5157 -0.3605 0.1145
C45 C 0.0943(7) 0.1057(6) 0.0826(2)
H33 H -0.0041 0.0911 0.0651
C46 C 0.2569(6) -0.1074(5) 0.1891(2)
H34 H 0.1542 -0.1322 0.1883
C47 C 0.6532(6) 0.2342(5) 0.1194(3)
H35 H 0.7476 0.2650 0.1362
C48 C 0.3791(7) -0.4909(5) 0.0682(2)
H36 H 0.4561 -0.5441 0.0561
C49 C 0.6293(8) 0.2097(6) 0.0545(3)
H37 H 0.7088 0.2224 0.0277
C50 C 0.2317(8) -0.5214(6) 0.0506(3)
H38 H 0.2075 -0.5928 0.0244
C51 C 0.1191(8) -0.4469(7) 0.0715(3)
H39 H 0.0176 -0.4700 0.0614
C52 C 0.1553(7) -0.3381(7) 0.1074(3)
H40 H 0.0778 -0.2868 0.1207
loop_
_geom_bond_atom_site_label_1
_geom_bond_atom_site_label_2
_geom_bond_site_symmetry_1
_geom_bond_site_symmetry_2
C1 C3 1_555 1_555
C2 H1 1_555 1_555
C3 C2 1_555 1_555
C4 C3 1_555 1_555
C5 C14 1_555 1_555
C6 C4 1_555 1_555
H2 C6 1_555 1_555
C7 C1 1_555 1_555
H3 C7 1_555 1_555
C8 C4 1_555 1_555
C9 C8 1_555 1_555
C10 C7 1_555 1_555
H4 C10 1_555 1_555
C11 C8 1_555 1_555
H5 C11 1_555 1_555
C12 C9 1_555 1_555
H6 C12 1_555 1_555
C13 C1 1_555 1_555
H7 C13 1_555 1_555
H8 C13 1_555 1_555
C14 H9 1_555 1_555
C15 C4 1_555 1_555
H10 C15 1_555 1_555
C16 C12 1_555 1_555
H11 C16 1_555 1_555
C17 C6 1_555 1_555
H12 C17 1_555 1_555
C18 C9 1_555 1_555
O1 C18 1_555 1_555
C19 C14 1_555 1_555
H13 C19 1_555 1_555
C20 C2 1_555 1_555
H14 C20 1_555 1_555
C21 C5 1_555 1_555
H15 C21 1_555 1_555
C22 C11 1_555 1_555
H16 C22 1_555 1_555
C23 C21 1_555 1_555
H17 C23 1_555 1_555
C24 C23 1_555 1_555
H18 C24 1_555 1_555
C25 C5 1_555 1_555
H19 C25 1_555 1_555
C26 C24 1_555 1_555
H20 C26 1_555 1_555
C27 C30 1_555 1_555
C28 H21 1_555 1_555
C29 H22 1_555 1_555
C30 C28 1_555 1_555
C31 C30 1_555 1_555
C32 C27 1_555 1_555
H23 C32 1_555 1_555
C33 C34 1_555 1_555
C34 H24 1_555 1_555
C35 C31 1_555 1_555
C36 C31 1_555 1_555
H25 C36 1_555 1_555
C37 C31 1_555 1_555
H26 C37 1_555 1_555
C38 C35 1_555 1_555
H27 C38 1_555 1_555
C39 C35 1_555 1_555
C40 C28 1_555 1_555
H28 C40 1_555 1_555
C41 C39 1_555 1_555
C42 C27 1_555 1_555
H29 C42 1_555 1_555
H30 C42 1_555 1_555
O2 C41 1_555 1_555
C43 C39 1_555 1_555
H31 C43 1_555 1_555
C44 C33 1_555 1_555
H32 C44 1_555 1_555
C45 C36 1_555 1_555
H33 C45 1_555 1_555
C46 C34 1_555 1_555
H34 C46 1_555 1_555
C47 C38 1_555 1_555
H35 C47 1_555 1_555
C48 C44 1_555 1_555
H36 C48 1_555 1_555
C49 C43 1_555 1_555
H37 C49 1_555 1_555
C50 C48 1_555 1_555
H38 C50 1_555 1_555
C51 C50 1_555 1_555
H39 C51 1_555 1_555
C52 C33 1_555 1_555
H40 C52 1_555 1_555
C10 C20 1_555 1_555
C13 C15 1_555 1_555
C15 C19 1_555 1_555
C16 C22 1_555 1_555
C17 C18 1_555 1_555
C25 C26 1_555 1_555
C29 C32 1_555 1_555
C29 C40 1_555 1_555
C37 C42 1_555 1_555
C37 C46 1_555 1_555
C41 C45 1_555 1_555
C47 C49 1_555 1_555
C51 C52 1_555 1_555

#END
