
#######################################################################
#
#                 Cambridge Crystallographic Data Centre
#                                CCDC 
#
#######################################################################
#
# If this CIF has been generated from an entry in the Cambridge 
# Structural Database, then it will include bibliographic, chemical, 
# crystal, experimental, refinement or atomic coordinate data resulting 
# from the CCDC's data processing and validation procedures.
#
#######################################################################

data_IMEQIC
_chemical_formula_moiety         'C16 H22'
_chemical_name_systematic        1-ethyl-2,4,5,6,7-pentamethyl-1H-indene
_symmetry_cell_setting           monoclinic
_symmetry_space_group_name_H-M   'C 2/c'
_symmetry_Int_Tables_number      15
_space_group_name_Hall           '-C 2yn'
loop_
_symmetry_equiv_pos_site_id
_symmetry_equiv_pos_as_xyz
1 x,y,z
2 -x,y,1/2-z
3 1/2+x,1/2+y,z
4 1/2-x,1/2+y,1/2-z
5 -x,-y,-z
6 x,-y,1/2+z
7 1/2-x,1/2-y,-z
8 1/2+x,1/2-y,1/2+z
_cell_length_a                   21.5383(7)
_cell_length_b                   5.15780(10)
_cell_length_c                   23.8471(6)
_cell_angle_alpha                90
_cell_angle_beta                 101.441(3)
_cell_angle_gamma                90
_cell_volume                     2596.54
_exptl_crystal_colour            colorless
_exptl_crystal_description       rod
_cell_formula_units_Z            8
loop_
_atom_site_label
_atom_site_type_symbol
_atom_site_fract_x
_atom_site_fract_y
_atom_site_fract_z
C1 C 0.04921(7) 0.3186(3) 0.06671(6)
H1 H 0.0236 0.2144 0.0384
C2 C 0.02742(7) 0.5014(4) 0.09797(7)
C3 C 0.08168(7) 0.6225(3) 0.14059(6)
H2 H 0.0840 0.8118 0.1322
C4 C 0.20293(7) 0.5242(3) 0.14855(6)
C5 C 0.24705(7) 0.3658(3) 0.12791(6)
C6 C 0.22650(7) 0.1814(3) 0.08451(6)
C7 C 0.16162(7) 0.1491(3) 0.06139(6)
C8 C 0.11875(7) 0.3034(3) 0.08288(6)
C9 C 0.13906(7) 0.4866(3) 0.12620(6)
C10 C -0.04014(8) 0.5741(4) 0.09643(9)
H3 H -0.0669 0.5027 0.0618
H4 H -0.0441 0.7633 0.0962
H5 H -0.0537 0.5038 0.1303
C11 C 0.07345(8) 0.5867(3) 0.20311(7)
H6 H 0.1075 0.6829 0.2288
H7 H 0.0324 0.6631 0.2072
C12 C 0.22397(7) 0.7337(3) 0.19268(6)
H8 H 0.1899 0.8608 0.1912
H9 H 0.2617 0.8203 0.1845
H10 H 0.2340 0.6557 0.2309
C13 C 0.31703(7) 0.3918(3) 0.15300(7)
H11 H 0.3347 0.2205 0.1646
H12 H 0.3229 0.5062 0.1864
H13 H 0.3387 0.4654 0.1242
C14 C 0.27385(7) 0.0136(3) 0.06219(7)
H14 H 0.2650 -0.1694 0.0683
H15 H 0.3168 0.0559 0.0826
H16 H 0.2705 0.0457 0.0212
C15 C 0.13907(8) -0.0487(3) 0.01505(6)
H17 H 0.0927 -0.0440 0.0046
H18 H 0.1528 -0.2220 0.0291
H19 H 0.1570 -0.0083 -0.0186
C16 C 0.07534(9) 0.3051(4) 0.22199(8)
H20 H 0.0419 0.2080 0.1967
H21 H 0.0687 0.2953 0.2614
H22 H 0.1167 0.2304 0.2200
loop_
_geom_bond_atom_site_label_1
_geom_bond_atom_site_label_2
_geom_bond_site_symmetry_1
_geom_bond_site_symmetry_2
C1 H1 1_555 1_555
C2 C1 1_555 1_555
C3 C2 1_555 1_555
H2 C3 1_555 1_555
C4 C5 1_555 1_555
C5 C6 1_555 1_555
C6 C7 1_555 1_555
C7 C8 1_555 1_555
C8 C1 1_555 1_555
C9 C3 1_555 1_555
C10 C2 1_555 1_555
H3 C10 1_555 1_555
H4 C10 1_555 1_555
H5 C10 1_555 1_555
C11 C3 1_555 1_555
H6 C11 1_555 1_555
H7 C11 1_555 1_555
C12 C4 1_555 1_555
H8 C12 1_555 1_555
H9 C12 1_555 1_555
H10 C12 1_555 1_555
C13 C5 1_555 1_555
H11 C13 1_555 1_555
H12 C13 1_555 1_555
H13 C13 1_555 1_555
C14 C6 1_555 1_555
H14 C14 1_555 1_555
H15 C14 1_555 1_555
H16 C14 1_555 1_555
C15 C7 1_555 1_555
H17 C15 1_555 1_555
H18 C15 1_555 1_555
H19 C15 1_555 1_555
C16 C11 1_555 1_555
H20 C16 1_555 1_555
H21 C16 1_555 1_555
H22 C16 1_555 1_555
C4 C9 1_555 1_555
C8 C9 1_555 1_555

#END
