
#######################################################################
#
#                 Cambridge Crystallographic Data Centre
#                                CCDC 
#
#######################################################################
#
# If this CIF has been generated from an entry in the Cambridge 
# Structural Database, then it will include bibliographic, chemical, 
# crystal, experimental, refinement or atomic coordinate data resulting 
# from the CCDC's data processing and validation procedures.
#
#######################################################################

data_IMEQEY
_chemical_formula_moiety         'C16 H22 O1'
_chemical_name_systematic        3-ethyl-2,4,5,6,7-pentamethylindan-1-one
_symmetry_cell_setting           triclinic
_symmetry_space_group_name_H-M   'P -1'
_symmetry_Int_Tables_number      2
_space_group_name_Hall           '-P 1'
loop_
_symmetry_equiv_pos_site_id
_symmetry_equiv_pos_as_xyz
1 x,y,z
2 -x,-y,-z
_cell_length_a                   5.2601(2)
_cell_length_b                   8.7982(3)
_cell_length_c                   15.0482(6)
_cell_angle_alpha                74.6900(10)
_cell_angle_beta                 85.558(2)
_cell_angle_gamma                78.454(2)
_cell_volume                     657.891
_exptl_crystal_colour            colorless
_exptl_crystal_description       shard
_cell_formula_units_Z            2
loop_
_atom_site_label
_atom_site_type_symbol
_atom_site_fract_x
_atom_site_fract_y
_atom_site_fract_z
C1 C 0.4356(3) -0.2869(2) 0.24530(11)
C2 C 0.1919(3) -0.3223(2) 0.30033(12)
H1 H 0.0715 -0.3339 0.2553
C3 C 0.0692(3) -0.1656(2) 0.32775(11)
H2 H -0.1222 -0.1437 0.3185
C4 C 0.1087(3) 0.12627(19) 0.23618(11)
C5 C 0.2513(3) 0.22052(19) 0.16776(11)
C6 C 0.4686(3) 0.1487(2) 0.12201(11)
C7 C 0.5473(3) -0.0180(2) 0.14287(11)
C8 C 0.4037(3) -0.11068(19) 0.21103(11)
C9 C 0.1895(3) -0.03979(19) 0.25655(11)
C10 C 0.2284(4) -0.4800(2) 0.37427(14)
H3 H 0.3126 -0.5673 0.3468
H4 H 0.0588 -0.5005 0.4010
H5 H 0.3372 -0.4737 0.4227
C11 C 0.1172(3) -0.1655(2) 0.42731(12)
H6 H 0.0065 -0.0692 0.4413
H7 H 0.0618 -0.2607 0.4696
C12 C -0.1235(3) 0.2002(2) 0.28601(13)
H8 H -0.2303 0.1194 0.3135
H9 H -0.2265 0.2900 0.2423
H10 H -0.0646 0.2392 0.3347
C13 C 0.1756(4) 0.4012(2) 0.14207(14)
H11 H 0.0187 0.4336 0.1772
H12 H 0.1417 0.4397 0.0760
H13 H 0.3172 0.4476 0.1563
C14 C 0.6154(4) 0.2541(2) 0.04860(13)
H14 H 0.7736 0.1886 0.0300
H15 H 0.6619 0.3372 0.0732
H16 H 0.5058 0.3048 -0.0050
C15 C 0.7745(3) -0.0963(2) 0.09222(12)
H17 H 0.7450 -0.0611 0.0258
H18 H 0.7917 -0.2132 0.1129
H19 H 0.9340 -0.0653 0.1051
C16 C 0.3971(4) -0.1669(2) 0.44689(13)
H20 H 0.5110 -0.2566 0.4283
H21 H 0.4141 -0.1794 0.5130
H22 H 0.4467 -0.0658 0.4121
O1 O 0.6182(2) -0.38879(15) 0.23213(10)
loop_
_geom_bond_atom_site_label_1
_geom_bond_atom_site_label_2
_geom_bond_site_symmetry_1
_geom_bond_site_symmetry_2
C1 C2 1_555 1_555
C2 H1 1_555 1_555
C3 C2 1_555 1_555
H2 C3 1_555 1_555
C4 C5 1_555 1_555
C5 C6 1_555 1_555
C6 C7 1_555 1_555
C7 C8 1_555 1_555
C8 C1 1_555 1_555
C9 C3 1_555 1_555
C10 C2 1_555 1_555
H3 C10 1_555 1_555
H4 C10 1_555 1_555
H5 C10 1_555 1_555
C11 C3 1_555 1_555
H6 C11 1_555 1_555
H7 C11 1_555 1_555
C12 C4 1_555 1_555
H8 C12 1_555 1_555
H9 C12 1_555 1_555
H10 C12 1_555 1_555
C13 C5 1_555 1_555
H11 C13 1_555 1_555
H12 C13 1_555 1_555
H13 C13 1_555 1_555
C14 C6 1_555 1_555
H14 C14 1_555 1_555
H15 C14 1_555 1_555
H16 C14 1_555 1_555
C15 C7 1_555 1_555
H17 C15 1_555 1_555
H18 C15 1_555 1_555
H19 C15 1_555 1_555
C16 C11 1_555 1_555
H20 C16 1_555 1_555
H21 C16 1_555 1_555
H22 C16 1_555 1_555
O1 C1 1_555 1_555
C4 C9 1_555 1_555
C8 C9 1_555 1_555

#END
