
#######################################################################
#
#                 Cambridge Crystallographic Data Centre
#                                CCDC 
#
#######################################################################
#
# If this CIF has been generated from an entry in the Cambridge 
# Structural Database, then it will include bibliographic, chemical, 
# crystal, experimental, refinement or atomic coordinate data resulting 
# from the CCDC's data processing and validation procedures.
#
#######################################################################

data_IMIJUL01
_chemical_formula_moiety         'C15 H19 N4 O1 1+,Cl1 1-'
_chemical_name_systematic        
'3-((1H-indazol-3-ylcarbonyl)amino)-1-azoniabicyclo[2.2.2]octane chloride'
_symmetry_cell_setting           monoclinic
_symmetry_space_group_name_H-M   'C 2'
_symmetry_Int_Tables_number      5
_space_group_name_Hall           'C 2y'
loop_
_symmetry_equiv_pos_site_id
_symmetry_equiv_pos_as_xyz
1 x,y,z
2 -x,y,-z
3 1/2+x,1/2+y,z
4 1/2-x,1/2+y,-z
_cell_length_a                   12.2062(8)
_cell_length_b                   7.4167(6)
_cell_length_c                   17.7567(12)
_cell_angle_alpha                90
_cell_angle_beta                 93.262(4)
_cell_angle_gamma                90
_cell_volume                     1604.9
_exptl_crystal_description       needle
_cell_formula_units_Z            4
loop_
_atom_site_label
_atom_site_type_symbol
_atom_site_fract_x
_atom_site_fract_y
_atom_site_fract_z
Cl1 Cl 0.83363(4) 0.32903(7) 0.09039(2)
O1 O 0.58916(11) 0.4898(2) 0.33140(8)
N1 N 0.85104(12) 0.3103(3) 0.30990(9)
N2 N 0.89554(13) 0.1632(3) 0.34497(9)
N3 N 0.68995(14) 0.5192(2) 0.22840(10)
N4 N 0.67414(11) 0.8286(3) 0.08093(8)
C1 C 0.74515(14) 0.3066(3) 0.32476(10)
C2 C 0.82016(16) 0.0634(3) 0.38083(11)
C3 C 0.83012(19) -0.1002(3) 0.41905(11)
C4 C 0.73480(18) -0.1719(4) 0.44536(11)
C5 C 0.63364(19) -0.0814(3) 0.43476(12)
C6 C 0.62402(18) 0.0805(3) 0.39784(12)
C7 C 0.71947(15) 0.1555(3) 0.36959(10)
C8 C 0.66900(15) 0.4468(3) 0.29553(11)
C9 C 0.62507(16) 0.6691(3) 0.19650(11)
C10 C 0.61940(17) 0.6639(3) 0.10939(11)
C11 C 0.67077(16) 0.8518(3) 0.22295(11)
C12 C 0.61135(18) 0.9956(3) 0.10065(13)
C13 C 0.59732(19) 0.9983(3) 0.18611(13)
C14 C 0.78882(17) 0.8752(3) 0.19810(12)
C15 C 0.79035(14) 0.8401(4) 0.11327(11)
H1 H 0.966(2) 0.137(4) 0.3401(14)
H2 H 0.8988 -0.1595 0.4267
H3 H 0.7377 -0.2843 0.4710
H4 H 0.5700 -0.1343 0.4538
H5 H 0.5553 0.1402 0.3915
H6 H 0.7405(17) 0.478(3) 0.2053(12)
H7 H 0.5487 0.6577 0.2136
H8 H 0.6754(17) 0.812(4) 0.0292(14)
H9 H 0.6568 0.5545 0.0918
H10 H 0.5419 0.6601 0.0898
H11 H 0.6700 0.8607 0.2791
H12 H 0.5385 0.9956 0.0731
H13 H 0.6517 1.1044 0.0857
H14 H 0.6183 1.1178 0.2071
H15 H 0.5197 0.9752 0.1964
H16 H 0.8149 0.9991 0.2096
H17 H 0.8384 0.7894 0.2259
H18 H 0.8294 0.9391 0.0887
H19 H 0.8293 0.7258 0.1041
loop_
_geom_bond_atom_site_label_1
_geom_bond_atom_site_label_2
_geom_bond_site_symmetry_1
_geom_bond_site_symmetry_2
O1 C8 1_555 1_555
N1 N2 1_555 1_555
N2 C2 1_555 1_555
N3 C8 1_555 1_555
N4 C10 1_555 1_555
C1 N1 1_555 1_555
C2 C3 1_555 1_555
C3 C4 1_555 1_555
C4 C5 1_555 1_555
C5 C6 1_555 1_555
C6 C7 1_555 1_555
C7 C1 1_555 1_555
C8 C1 1_555 1_555
C9 N3 1_555 1_555
C10 C9 1_555 1_555
C11 C9 1_555 1_555
C12 N4 1_555 1_555
C13 C11 1_555 1_555
C14 C11 1_555 1_555
C15 N4 1_555 1_555
H1 N2 1_555 1_555
H2 C3 1_555 1_555
H3 C4 1_555 1_555
H4 C5 1_555 1_555
H5 C6 1_555 1_555
H6 N3 1_555 1_555
H7 C9 1_555 1_555
H8 N4 1_555 1_555
H9 C10 1_555 1_555
H10 C10 1_555 1_555
H11 C11 1_555 1_555
H12 C12 1_555 1_555
H13 C12 1_555 1_555
H14 C13 1_555 1_555
H15 C13 1_555 1_555
H16 C14 1_555 1_555
H17 C14 1_555 1_555
H18 C15 1_555 1_555
H19 C15 1_555 1_555
C2 C7 1_555 1_555
C12 C13 1_555 1_555
C14 C15 1_555 1_555

#END
