
#######################################################################
#
#                 Cambridge Crystallographic Data Centre
#                                CCDC 
#
#######################################################################
#
# If this CIF has been generated from an entry in the Cambridge 
# Structural Database, then it will include bibliographic, chemical, 
# crystal, experimental, refinement or atomic coordinate data resulting 
# from the CCDC's data processing and validation procedures.
#
#######################################################################

data_IMIJOD
_chemical_formula_moiety         
'C41 H35 N15 O6 4+,4(C1 F3 O3 S1 1-),C2 H3 N1,2(H2 O1)'
_chemical_name_systematic        
'2,6-bis(6-(6-(6-Aminopyridin-2-ylaminocarbonyl)pyridin-2-ylcarbonylamino)pyridin-2-ylaminocarbonyl)pyridine tetrakis(trifluoromethanesulfonate) acetonitrile solvate dihydrate'
_symmetry_cell_setting           triclinic
_symmetry_space_group_name_H-M   'P -1'
_symmetry_Int_Tables_number      2
_space_group_name_Hall           '-P 1'
loop_
_symmetry_equiv_pos_site_id
_symmetry_equiv_pos_as_xyz
1 x,y,z
2 -x,-y,-z
_cell_length_a                   13.0862(2)
_cell_length_b                   14.0503(2)
_cell_length_c                   17.3915(4)
_cell_angle_alpha                81.144(5)
_cell_angle_beta                 86.481(5)
_cell_angle_gamma                68.789(5)
_cell_volume                     2945.46
_exptl_crystal_colour            colorless
_exptl_crystal_description       prism
_cell_formula_units_Z            2
loop_
_atom_site_label
_atom_site_type_symbol
_atom_site_fract_x
_atom_site_fract_y
_atom_site_fract_z
N1 N 2.0035(4) -0.1867(4) 1.0012(3)
C1 C 1.9374(6) -0.1657(5) 0.9407(4)
C2 C 1.8982(6) -0.2379(4) 0.9161(4)
C3 C 1.8308(6) -0.2092(5) 0.8532(4)
C4 C 1.7957(5) -0.1093(4) 0.8134(4)
C5 C 1.8333(5) -0.0395(4) 0.8377(4)
N2 N 1.9022(4) -0.0673(3) 0.9005(3)
N3 N 1.8028(4) 0.0605(3) 0.8015(3)
C6 C 1.8278(4) 0.1389(4) 0.8222(3)
O1 O 1.8840(3) 0.1304(3) 0.8784(3)
C7 C 1.7768(4) 0.2406(4) 0.7721(3)
C8 C 1.8023(4) 0.3255(4) 0.7838(4)
C9 C 1.7455(5) 0.4198(4) 0.7422(4)
C10 C 1.6649(5) 0.4282(4) 0.6909(4)
C11 C 1.6465(4) 0.3390(4) 0.6820(3)
N4 N 1.7016(4) 0.2462(3) 0.7207(3)
C12 C 1.5571(4) 0.3456(4) 0.6294(3)
O2 O 1.4884(3) 0.4274(3) 0.6032(3)
N5 N 1.5580(4) 0.2518(3) 0.6163(3)
C13 C 1.4804(5) 0.2340(4) 0.5775(4)
C14 C 1.4841(5) 0.1356(4) 0.5740(4)
C15 C 1.3992(5) 0.1227(4) 0.5395(4)
C16 C 1.3118(5) 0.2073(4) 0.5072(4)
C17 C 1.3132(5) 0.3037(4) 0.5089(3)
N6 N 1.3963(4) 0.3165(3) 0.5439(3)
N7 N 1.2296(4) 0.3906(3) 0.4758(3)
C18 C 1.2188(4) 0.4909(4) 0.4775(3)
O3 O 1.2837(3) 0.5161(3) 0.5090(2)
C19 C 1.1175(4) 0.5689(4) 0.4389(3)
C20 C 1.1000(5) 0.6731(4) 0.4334(4)
C21 C 1.0069(5) 0.7435(4) 0.3974(4)
C22 C 0.9324(5) 0.7081(4) 0.3693(4)
C23 C 0.9561(4) 0.6024(4) 0.3783(3)
N8 N 1.0462(3) 0.5333(3) 0.4123(3)
C24 C 0.8744(4) 0.5617(4) 0.3510(3)
O4 O 0.7840(3) 0.6200(3) 0.3282(3)
N9 N 0.9091(3) 0.4571(3) 0.3563(3)
C25 C 0.8513(4) 0.4012(4) 0.3326(3)
C26 C 0.8919(5) 0.2952(4) 0.3451(4)
C27 C 0.8349(5) 0.2429(4) 0.3155(4)
C28 C 0.7397(5) 0.2960(4) 0.2736(4)
C29 C 0.6999(4) 0.4020(4) 0.2640(3)
N10 N 0.7553(3) 0.4535(3) 0.2941(3)
N11 N 0.6066(4) 0.4589(3) 0.2211(3)
C30 C 0.5705(4) 0.5625(4) 0.1952(4)
O5 O 0.6082(3) 0.6217(3) 0.2167(3)
C31 C 0.4806(4) 0.5991(4) 0.1354(3)
C32 C 0.4352(5) 0.7040(4) 0.1078(4)
C33 C 0.3581(5) 0.7351(4) 0.0495(4)
C34 C 0.3289(5) 0.6622(5) 0.0204(4)
C35 C 0.3786(4) 0.5596(4) 0.0522(3)
N12 N 0.4525(3) 0.5275(3) 0.1092(3)
C36 C 0.3526(4) 0.4772(4) 0.0214(3)
O6 O 0.2977(3) 0.4962(3) -0.0380(3)
N13 N 0.3971(4) 0.3820(3) 0.0617(3)
C37 C 0.3919(5) 0.2905(4) 0.0441(4)
C38 C 0.4591(5) 0.1968(5) 0.0792(4)
C39 C 0.4468(6) 0.1087(5) 0.0609(5)
C40 C 0.3730(6) 0.1145(5) 0.0081(5)
C41 C 0.3062(5) 0.2100(5) -0.0290(4)
N14 N 0.2311(5) 0.2233(5) -0.0830(4)
N15 N 0.3175(4) 0.2982(4) -0.0104(3)
H1 H 1.9187 -0.3060 0.9434
H2 H 1.8073 -0.2589 0.8361
H3 H 1.7471 -0.0899 0.7706
H4 H 1.7589 0.0770 0.7564
H5 H 1.8576 0.3183 0.8195
H6 H 1.7615 0.4789 0.7486
H7 H 1.6233 0.4930 0.6627
H8 H 1.6186 0.1930 0.6362
H9 H 1.5444 0.0774 0.5952
H10 H 1.4003 0.0550 0.5377
H11 H 1.2524 0.1984 0.4843
H12 H 1.1743 0.3797 0.4494
H13 H 1.1515 0.6954 0.4542
H14 H 0.9939 0.8153 0.3917
H15 H 0.8668 0.7549 0.3447
H16 H 0.9793 0.4188 0.3784
H17 H 0.9576 0.2586 0.3735
H18 H 0.8616 0.1696 0.3240
H19 H 0.7024 0.2598 0.2518
H20 H 0.5630 0.4224 0.2083
H21 H 0.4567 0.7527 0.1284
H22 H 0.3253 0.8061 0.0295
H23 H 0.2764 0.6818 -0.0199
H24 H 0.4363 0.3767 0.1073
H25 H 0.5131 0.1919 0.1152
H26 H 0.4915 0.0430 0.0861
H27 H 0.3664 0.0532 -0.0037
S1 S 1.5753(1) -0.2869(1) 0.71810(9)
O7 O 1.6811(4) -0.2971(4) 0.7435(3)
O8 O 1.5735(4) -0.3264(3) 0.6474(3)
O9 O 1.5062(3) -0.3122(3) 0.7794(3)
C42 C 1.5076(6) -0.1481(5) 0.6910(4)
F1 F 1.4927(5) -0.0973(3) 0.7500(3)
F2 F 1.5657(5) -0.1118(3) 0.6379(3)
F3 F 1.4105(4) -0.1270(4) 0.6610(3)
S2 S 1.1976(1) -0.0456(1) 0.8859(1)
O10 O 1.2716(4) 0.0044(4) 0.8975(3)
O11 O 1.2510(5) -0.1512(4) 0.8725(4)
O12 O 1.1048(4) -0.0255(3) 0.9386(3)
C43 C 1.1383(6) 0.0174(6) 0.7912(5)
F4 F 1.2129(4) -0.0005(5) 0.7355(3)
F5 F 1.0949(4) 0.1207(4) 0.7917(3)
F6 F 1.0598(3) -0.0138(4) 0.7741(2)
S3 S 1.1733(1) 0.0146(1) 0.3942(1)
O13 O 1.2702(4) -0.0440(3) 0.3552(3)
O14 O 1.1692(6) 0.1121(4) 0.4063(4)
O15 O 1.0735(5) 0.0150(7) 0.3655(4)
C44 C 1.1841(7) -0.0547(6) 0.4919(5)
F7 F 1.2785(4) -0.0678(5) 0.5224(3)
F8 F 1.1090(5) -0.0068(6) 0.5382(4)
F9 F 1.1790(6) -0.1446(4) 0.4906(4)
S4 S 1.0446(1) 0.5255(1) 0.1454(1)
O16 O 1.1385(4) 0.4542(4) 0.1098(4)
O17 O 1.0088(5) 0.6278(4) 0.1042(4)
O18 O 1.0499(4) 0.5173(4) 0.2282(3)
C45 C 0.9322(6) 0.4859(6) 0.1326(4)
F10 F 0.9229(4) 0.4770(4) 0.0575(3)
F11 F 0.8388(4) 0.5510(3) 0.1539(3)
F12 F 0.9444(4) 0.3923(3) 0.1728(3)
O19 O 1.1337(3) 0.3157(3) 0.3619(2)
N16 N 1.5514(6) 0.0991(5) 0.7998(6)
C46 C 1.4643(6) 0.1246(5) 0.7806(5)
C47 C 1.3534(7) 0.1519(7) 0.7520(6)
O20 O 0.3956(9) 0.6589(7) 0.5543(7)
loop_
_geom_bond_atom_site_label_1
_geom_bond_atom_site_label_2
_geom_bond_site_symmetry_1
_geom_bond_site_symmetry_2
N1 C1 1_555 1_555
C1 C2 1_555 1_555
C2 C3 1_555 1_555
C3 C4 1_555 1_555
C4 C5 1_555 1_555
C5 N2 1_555 1_555
N2 C1 1_555 1_555
N3 C5 1_555 1_555
C6 N3 1_555 1_555
O1 C6 1_555 1_555
C7 C6 1_555 1_555
C8 C7 1_555 1_555
C9 C8 1_555 1_555
C10 C9 1_555 1_555
C11 C10 1_555 1_555
N4 C7 1_555 1_555
C12 C11 1_555 1_555
O2 C12 1_555 1_555
N5 C12 1_555 1_555
C13 N5 1_555 1_555
C14 C13 1_555 1_555
C15 C14 1_555 1_555
C16 C15 1_555 1_555
C17 C16 1_555 1_555
N6 C13 1_555 1_555
N7 C17 1_555 1_555
C18 N7 1_555 1_555
O3 C18 1_555 1_555
C19 C18 1_555 1_555
C20 C19 1_555 1_555
C21 C20 1_555 1_555
C22 C21 1_555 1_555
C23 C22 1_555 1_555
N8 C19 1_555 1_555
C24 C23 1_555 1_555
O4 C24 1_555 1_555
N9 C24 1_555 1_555
C25 N9 1_555 1_555
C26 C25 1_555 1_555
C27 C26 1_555 1_555
C28 C27 1_555 1_555
C29 C28 1_555 1_555
N10 C25 1_555 1_555
N11 C29 1_555 1_555
C30 N11 1_555 1_555
O5 C30 1_555 1_555
C31 C30 1_555 1_555
C32 C31 1_555 1_555
C33 C32 1_555 1_555
C34 C33 1_555 1_555
C35 C34 1_555 1_555
N12 C31 1_555 1_555
C36 C35 1_555 1_555
O6 C36 1_555 1_555
N13 C36 1_555 1_555
C37 N13 1_555 1_555
C38 C37 1_555 1_555
C39 C38 1_555 1_555
C40 C39 1_555 1_555
C41 C40 1_555 1_555
N14 C41 1_555 1_555
N15 C37 1_555 1_555
S1 O7 1_555 1_555
O8 S1 1_555 1_555
O9 S1 1_555 1_555
C42 S1 1_555 1_555
F1 C42 1_555 1_555
F2 C42 1_555 1_555
F3 C42 1_555 1_555
S2 O10 1_555 1_555
O11 S2 1_555 1_555
O12 S2 1_555 1_555
C43 S2 1_555 1_555
F4 C43 1_555 1_555
F5 C43 1_555 1_555
F6 C43 1_555 1_555
S3 O13 1_555 1_555
O14 S3 1_555 1_555
O15 S3 1_555 1_555
C44 S3 1_555 1_555
F7 C44 1_555 1_555
F8 C44 1_555 1_555
F9 C44 1_555 1_555
S4 O16 1_555 1_555
O17 S4 1_555 1_555
O18 S4 1_555 1_555
C45 S4 1_555 1_555
F10 C45 1_555 1_555
F11 C45 1_555 1_555
F12 C45 1_555 1_555
N16 C46 1_555 1_555
C46 C47 1_555 1_555
H1 C2 1_555 1_555
H2 C3 1_555 1_555
H3 C4 1_555 1_555
H4 N3 1_555 1_555
H5 C8 1_555 1_555
H6 C9 1_555 1_555
H7 C10 1_555 1_555
H8 N5 1_555 1_555
H9 C14 1_555 1_555
H10 C15 1_555 1_555
H11 C16 1_555 1_555
H12 N7 1_555 1_555
H13 C20 1_555 1_555
H14 C21 1_555 1_555
H15 C22 1_555 1_555
H16 N9 1_555 1_555
H17 C26 1_555 1_555
H18 C27 1_555 1_555
H19 C28 1_555 1_555
H20 N11 1_555 1_555
H21 C32 1_555 1_555
H22 C33 1_555 1_555
H23 C34 1_555 1_555
H24 N13 1_555 1_555
H25 C38 1_555 1_555
H26 C39 1_555 1_555
H27 C40 1_555 1_555
C11 N4 1_555 1_555
C17 N6 1_555 1_555
C23 N8 1_555 1_555
C29 N10 1_555 1_555
C35 N12 1_555 1_555
C41 N15 1_555 1_555

#END
