
#######################################################################
#
#                 Cambridge Crystallographic Data Centre
#                                CCDC 
#
#######################################################################
#
# If this CIF has been generated from an entry in the Cambridge 
# Structural Database, then it will include bibliographic, chemical, 
# crystal, experimental, refinement or atomic coordinate data resulting 
# from the CCDC's data processing and validation procedures.
#
#######################################################################

data_IMIKAQ
_chemical_formula_moiety         'C12 H12 N2'
_chemical_name_systematic        1,4-bis(Isocyano)-2,3,5,6-tetramethylbenzene
_symmetry_cell_setting           monoclinic
_symmetry_space_group_name_H-M   'C 2/c'
_symmetry_Int_Tables_number      15
_space_group_name_Hall           '-C 2yn'
loop_
_symmetry_equiv_pos_site_id
_symmetry_equiv_pos_as_xyz
1 x,y,z
2 1/2+x,1/2+y,z
3 x,-y,1/2+z
4 1/2+x,1/2-y,1/2+z
5 -x,-y,-z
6 1/2-x,1/2-y,-z
7 -x,y,1/2-z
8 1/2-x,1/2+y,1/2-z
_cell_length_a                   17.1518(17)
_cell_length_b                   5.1324(5)
_cell_length_c                   12.3670(12)
_cell_angle_alpha                90
_cell_angle_beta                 112.010(2)
_cell_angle_gamma                90
_cell_volume                     1009.32
_exptl_crystal_colour            colorless
_exptl_crystal_description       block
_cell_formula_units_Z            4
_exptl_crystal_recrystallization_method sublimation
loop_
_atom_site_label
_atom_site_type_symbol
_atom_site_fract_x
_atom_site_fract_y
_atom_site_fract_z
N1 N 0.35731(5) 1.04662(17) 0.68084(7)
C1 C 0.33877(6) 0.71435(19) 0.53560(8)
C2 C 0.21596(6) 0.93854(19) 0.55491(8)
C3 C 0.40179(7) 1.1675(2) 0.75919(9)
C4 C 0.30288(6) 0.89616(19) 0.58851(8)
C5 C 0.43300(6) 0.6884(2) 0.57347(9)
H1 H 0.4605 0.8340 0.6249
H2 H 0.4483 0.6906 0.5047
H3 H 0.4513 0.5237 0.6155
C6 C 0.18323(6) 1.1438(2) 0.61466(9)
H7 H 0.2260 1.2793 0.6467
H8 H 0.1320 1.2218 0.5581
H9 H 0.1704 1.0635 0.6780
C2E C 0.28404(6) 0.56146(19) 0.44509(8)
C4E C 0.19712(6) 0.60384(19) 0.41149(8)
N1E N 0.14269(5) 0.45338(17) 0.31916(7)
C3E C 0.09821(7) 0.3325(2) 0.24081(9)
C1E C 0.16123(6) 0.78565(19) 0.46440(8)
C5E C 0.06700(6) 0.8116(2) 0.42653(9)
H1E H 0.0395 0.6660 0.3751
H2E H 0.0517 0.8094 0.4953
H3E H 0.0487 0.9763 0.3845
C6E C 0.31677(6) 0.3562(2) 0.38534(9)
H7E H 0.2740 0.2207 0.3533
H8E H 0.3680 0.2782 0.4419
H9E H 0.3296 0.4365 0.3220
H4? H 0.4462 0.5315 0.5385
H5? H 0.4585 0.6749 0.6587
H6? H 0.4555 0.8418 0.5479
H10? H 0.3737 0.4029 0.3915
H11? H 0.2797 0.3454 0.3029
H12? H 0.3181 0.1872 0.4228
loop_
_geom_bond_atom_site_label_1
_geom_bond_atom_site_label_2
_geom_bond_site_symmetry_1
_geom_bond_site_symmetry_2
N1 C3 1_555 1_555
C1 C4 1_555 1_555
C2 C4 1_555 1_555
C4 N1 1_555 1_555
C5 C1 1_555 1_555
H1 C5 1_555 1_555
H2 C5 1_555 1_555
H3 C5 1_555 1_555
C6 C2 1_555 1_555
H7 C6 1_555 1_555
H8 C6 1_555 1_555
H9 C6 1_555 1_555
C2E C1 1_555 1_555
C4E C2E 1_555 1_555
N1E C4E 1_555 1_555
C3E N1E 1_555 1_555
C1E C2 1_555 1_555
C5E C1E 1_555 1_555
H1E C5E 1_555 1_555
H2E C5E 1_555 1_555
H3E C5E 1_555 1_555
C6E C2E 1_555 1_555
H7E C6E 1_555 1_555
H8E C6E 1_555 1_555
H9E C6E 1_555 1_555
C4E C1E 1_555 1_555

#END
