
#######################################################################
#
#                 Cambridge Crystallographic Data Centre
#                                CCDC 
#
#######################################################################
#
# If this CIF has been generated from an entry in the Cambridge 
# Structural Database, then it will include bibliographic, chemical, 
# crystal, experimental, refinement or atomic coordinate data resulting 
# from the CCDC's data processing and validation procedures.
#
#######################################################################

data_IMIKAR
_chemical_formula_moiety         'C39 H60 Li1 N2 O3 P1'
_chemical_name_systematic        
(1,3-bis(2,6-Di-isopropylphenyl)-2-phosphinidene-2,3-dihydro-1H-imidazol-4-yl)-tris(tetrahydrofuran)-lithium
_symmetry_cell_setting           triclinic
_symmetry_space_group_name_H-M   'P -1'
_symmetry_Int_Tables_number      2
_space_group_name_Hall           '-P 1'
loop_
_symmetry_equiv_pos_site_id
_symmetry_equiv_pos_as_xyz
1 x,y,z
2 -x,-y,-z
_cell_length_a                   10.4993(9)
_cell_length_b                   11.3546(10)
_cell_length_c                   19.1402(16)
_cell_angle_alpha                74.0970(10)
_cell_angle_beta                 89.7740(10)
_cell_angle_gamma                67.7320(10)
_cell_volume                     2017.98
_exptl_crystal_colour            yellow
_exptl_crystal_description       plate
_cell_formula_units_Z            2
loop_
_atom_site_label
_atom_site_type_symbol
_atom_site_fract_x
_atom_site_fract_y
_atom_site_fract_z
P1 P 0.15454(9) 0.95673(7) 0.22628(5)
H1 H 0.168(5) 0.980(4) 0.2842(15)
N1 N 0.26465(19) 0.69813(18) 0.32342(9)
N2 N 0.22573(18) 0.69726(17) 0.21370(9)
C1 C 0.2155(2) 0.7815(2) 0.25446(11)
C2 C 0.3051(2) 0.5657(2) 0.32221(12)
H2 H 0.3421 0.4918 0.3632
C3 C 0.2832(2) 0.5596(2) 0.25401(12)
C4 C 0.1730(2) 0.7454(2) 0.13756(12)
C5 C 0.2631(3) 0.7564(2) 0.08482(13)
C6 C 0.2096(3) 0.7992(3) 0.01166(14)
H3 H 0.2681 0.8058 -0.0245
C7 C 0.0726(4) 0.8316(3) -0.00796(15)
H4 H 0.0384 0.8612 -0.0571
C8 C -0.0145(3) 0.8204(3) 0.04495(16)
H5 H -0.1073 0.8420 0.0310
C9 C 0.0333(3) 0.7774(2) 0.11903(13)
C10 C -0.0641(3) 0.7650(3) 0.17641(16)
H6 H -0.0141 0.7459 0.2240
C11 C -0.1916(4) 0.8939(4) 0.1647(2)
H7 H -0.2499 0.8824 0.2025
H8 H -0.2419 0.9161 0.1179
H9 H -0.1633 0.9643 0.1661
C12 C -0.1078(4) 0.6510(4) 0.1799(2)
H10 H -0.1685 0.6457 0.2172
H11 H -0.0273 0.5691 0.1912
H12 H -0.1553 0.6659 0.1336
C13 C 0.4148(3) 0.7231(3) 0.10514(16)
H13 H 0.4337 0.6888 0.1585
C14 C 0.4471(4) 0.8471(4) 0.0808(3)
H14 H 0.5432 0.8240 0.0948
H15 H 0.3911 0.9117 0.1036
H16 H 0.4274 0.8839 0.0286
C15 C 0.5088(4) 0.6164(4) 0.0738(2)
H17 H 0.6037 0.5974 0.0882
H18 H 0.4911 0.6470 0.0214
H19 H 0.4911 0.5370 0.0919
C16 C 0.2765(2) 0.7387(2) 0.38699(12)
C17 C 0.4049(3) 0.7304(3) 0.41083(14)
C18 C 0.4139(3) 0.7676(3) 0.47402(17)
H20 H 0.4985 0.7631 0.4918
C19 C 0.3003(4) 0.8103(3) 0.51016(16)
H21 H 0.3088 0.8340 0.5522
C20 C 0.1755(3) 0.8185(3) 0.48535(15)
H22 H 0.0994 0.8485 0.5104
C21 C 0.1592(3) 0.7827(2) 0.42272(13)
C22 C 0.0226(3) 0.7864(3) 0.39649(16)
H23 H 0.0248 0.7877 0.3451
C23 C -0.1001(3) 0.9101(4) 0.4004(2)
H24 H -0.1841 0.9082 0.3823
H25 H -0.0888 0.9883 0.3712
H26 H -0.1045 0.9118 0.4503
C24 C 0.0024(4) 0.6613(4) 0.4390(3)
H27 H -0.0848 0.6649 0.4213
H28 H 0.0034 0.6556 0.4900
H29 H 0.0760 0.5844 0.4325
C25 C 0.5307(3) 0.6839(4) 0.37097(18)
H30 H 0.5056 0.6503 0.3334
C26 C 0.6534(4) 0.5716(4) 0.4204(2)
H31 H 0.7295 0.5448 0.3923
H32 H 0.6287 0.4974 0.4420
H33 H 0.6800 0.6012 0.4582
C27 C 0.5686(4) 0.7995(5) 0.3324(3)
H34 H 0.6476 0.7687 0.3069
H35 H 0.5902 0.8369 0.3678
H36 H 0.4919 0.8662 0.2982
Li1 Li 0.3769(5) 0.3781(4) 0.2282(2)
O1 O 0.3401(19) 0.342(2) 0.1331(11)
C28 C 0.3738(18) 0.2136(19) 0.1231(10)
H37 H 0.3780 0.1492 0.1694
H38 H 0.4634 0.1842 0.1049
C29 C 0.253(2) 0.2201(15) 0.0850(11)
H39 H 0.2898 0.2163 0.0387
H40 H 0.2213 0.1486 0.1024
C30 C 0.1435(13) 0.3472(16) 0.0778(6)
H41 H 0.0793 0.3389 0.1135
H42 H 0.0931 0.3839 0.0293
C31 C 0.211(2) 0.4322(17) 0.0903(13)
H43 H 0.2431 0.4712 0.0459
H44 H 0.1480 0.5029 0.1081
O2 O 0.3379(2) 0.2364(2) 0.30072(11)
C32 C 0.3991(11) 0.1813(13) 0.3747(5)
H45 H 0.4521 0.2296 0.3851
H46 H 0.4607 0.0886 0.3839
C33 C 0.2855(12) 0.1931(13) 0.4207(5)
H47 H 0.3079 0.1111 0.4600
H48 H 0.2702 0.2651 0.4419
C34 C 0.1714(13) 0.2180(15) 0.3779(8)
H49 H 0.0908 0.2838 0.3898
H50 H 0.1553 0.1373 0.3841
C35 C 0.1977(17) 0.2661(16) 0.3063(8)
H51 H 0.1640 0.2276 0.2749
H52 H 0.1471 0.3619 0.2893
O3 O 0.5839(2) 0.3184(2) 0.23940(13)
C36 C 0.6526(4) 0.3762(4) 0.2748(2)
H53 H 0.6438 0.3535 0.3267
H54 H 0.6124 0.4724 0.2547
C37 C 0.7958(5) 0.3244(5) 0.2626(4)
H55 H 0.8510 0.2548 0.3058
H56 H 0.8307 0.3945 0.2514
C38 C 0.8017(5) 0.2708(6) 0.2009(4)
H57 H 0.7976 0.3365 0.1553
H58 H 0.8860 0.1920 0.2068
C39 C 0.6812(5) 0.2384(5) 0.2026(3)
H59 H 0.6417 0.2561 0.1532
H60 H 0.7064 0.1448 0.2281
C40? C 0.3572(19) 0.2116(18) 0.1384(11)
C41? C 0.2673(19) 0.2246(16) 0.0711(10)
C42? C 0.1756(13) 0.3658(13) 0.0441(6)
C43? C 0.238(2) 0.4347(16) 0.0776(12)
C44? C 0.4126(16) 0.1492(16) 0.3588(8)
C45? C 0.320(2) 0.119(2) 0.4101(9)
C46? C 0.195(2) 0.1619(19) 0.3732(11)
C47? C 0.196(2) 0.242(2) 0.3014(8)
H61? H 0.119(5) 0.986(5) 0.1598(12)
H62? H 0.3565 0.1520 0.1856
H63? H 0.4488 0.1781 0.1228
H64? H 0.2158 0.1724 0.0946
H65? H 0.3083 0.1922 0.0311
H66? H 0.1692 0.3974 -0.0088
H67? H 0.0834 0.3800 0.0583
H68? H 0.2786 0.4838 0.0411
H69? H 0.1681 0.4976 0.0972
H70? H 0.4697 0.1840 0.3795
H71? H 0.4728 0.0694 0.3474
H72? H 0.3546 0.0234 0.4335
H73? H 0.3145 0.1625 0.4477
H74? H 0.1240 0.2141 0.3979
H75? H 0.1739 0.0867 0.3705
H76? H 0.1291 0.3324 0.2926
H77? H 0.1752 0.2053 0.2647
O4? O 0.322(2) 0.345(2) 0.1434(12)
loop_
_geom_bond_atom_site_label_1
_geom_bond_atom_site_label_2
_geom_bond_site_symmetry_1
_geom_bond_site_symmetry_2
P1 H1 1_555 1_555
N1 C1 1_555 1_555
N2 C1 1_555 1_555
C1 P1 1_555 1_555
C2 N1 1_555 1_555
H2 C2 1_555 1_555
C3 N2 1_555 1_555
C4 N2 1_555 1_555
C5 C4 1_555 1_555
C6 C5 1_555 1_555
H3 C6 1_555 1_555
C7 C6 1_555 1_555
H4 C7 1_555 1_555
C8 C7 1_555 1_555
H5 C8 1_555 1_555
C9 C4 1_555 1_555
C10 C9 1_555 1_555
H6 C10 1_555 1_555
C11 C10 1_555 1_555
H7 C11 1_555 1_555
H8 C11 1_555 1_555
H9 C11 1_555 1_555
C12 C10 1_555 1_555
H10 C12 1_555 1_555
H11 C12 1_555 1_555
H12 C12 1_555 1_555
C13 C5 1_555 1_555
H13 C13 1_555 1_555
C14 C13 1_555 1_555
H14 C14 1_555 1_555
H15 C14 1_555 1_555
H16 C14 1_555 1_555
C15 C13 1_555 1_555
H17 C15 1_555 1_555
H18 C15 1_555 1_555
H19 C15 1_555 1_555
C16 N1 1_555 1_555
C17 C16 1_555 1_555
C18 C17 1_555 1_555
H20 C18 1_555 1_555
C19 C18 1_555 1_555
H21 C19 1_555 1_555
C20 C19 1_555 1_555
H22 C20 1_555 1_555
C21 C16 1_555 1_555
C22 C21 1_555 1_555
H23 C22 1_555 1_555
C23 C22 1_555 1_555
H24 C23 1_555 1_555
H25 C23 1_555 1_555
H26 C23 1_555 1_555
C24 C22 1_555 1_555
H27 C24 1_555 1_555
H28 C24 1_555 1_555
H29 C24 1_555 1_555
C25 C17 1_555 1_555
H30 C25 1_555 1_555
C26 C25 1_555 1_555
H31 C26 1_555 1_555
H32 C26 1_555 1_555
H33 C26 1_555 1_555
C27 C25 1_555 1_555
H34 C27 1_555 1_555
H35 C27 1_555 1_555
H36 C27 1_555 1_555
Li1 C3 1_555 1_555
O1 Li1 1_555 1_555
C28 O1 1_555 1_555
H37 C28 1_555 1_555
H38 C28 1_555 1_555
C29 C28 1_555 1_555
H39 C29 1_555 1_555
H40 C29 1_555 1_555
C30 C29 1_555 1_555
H41 C30 1_555 1_555
H42 C30 1_555 1_555
C31 O1 1_555 1_555
H43 C31 1_555 1_555
H44 C31 1_555 1_555
O2 Li1 1_555 1_555
C32 O2 1_555 1_555
H45 C32 1_555 1_555
H46 C32 1_555 1_555
C33 C32 1_555 1_555
H47 C33 1_555 1_555
H48 C33 1_555 1_555
C34 C33 1_555 1_555
H49 C34 1_555 1_555
H50 C34 1_555 1_555
C35 O2 1_555 1_555
H51 C35 1_555 1_555
H52 C35 1_555 1_555
O3 Li1 1_555 1_555
C36 O3 1_555 1_555
H53 C36 1_555 1_555
H54 C36 1_555 1_555
C37 C36 1_555 1_555
H55 C37 1_555 1_555
H56 C37 1_555 1_555
C38 C37 1_555 1_555
H57 C38 1_555 1_555
H58 C38 1_555 1_555
C39 O3 1_555 1_555
H59 C39 1_555 1_555
H60 C39 1_555 1_555
C2 C3 1_555 1_555
C8 C9 1_555 1_555
C20 C21 1_555 1_555
C30 C31 1_555 1_555
C34 C35 1_555 1_555
C38 C39 1_555 1_555

#END
