
#######################################################################
#
#                 Cambridge Crystallographic Data Centre
#                                CCDC 
#
#######################################################################
#
# If this CIF has been generated from an entry in the Cambridge 
# Structural Database, then it will include bibliographic, chemical, 
# crystal, experimental, refinement or atomic coordinate data resulting 
# from the CCDC's data processing and validation procedures.
#
#######################################################################

data_IMIRIH
_chemical_formula_moiety         'C17 H11 N1 O1'
_chemical_name_systematic        2,5-diphenyl-3-furonitrile
_symmetry_cell_setting           triclinic
_symmetry_space_group_name_H-M   'P -1'
_symmetry_Int_Tables_number      2
_space_group_name_Hall           '-P 1'
loop_
_symmetry_equiv_pos_site_id
_symmetry_equiv_pos_as_xyz
1 x,y,z
2 -x,-y,-z
_cell_length_a                   3.991(5)
_cell_length_b                   10.967(5)
_cell_length_c                   15.118(5)
_cell_angle_alpha                73.536(5)
_cell_angle_beta                 86.417(5)
_cell_angle_gamma                81.507(5)
_cell_volume                     627.466
_cell_formula_units_Z            2
loop_
_atom_site_label
_atom_site_type_symbol
_atom_site_fract_x
_atom_site_fract_y
_atom_site_fract_z
C1 C 0.6809(11) 0.1064(4) 0.8850(3)
H1 H 0.6077 0.1160 0.9426
C2 C 0.8715(12) -0.0078(4) 0.8782(3)
H2 H 0.9264 -0.0738 0.9314
C3 C 0.9780(12) -0.0236(4) 0.7945(3)
H3 H 1.1080 -0.0997 0.7907
C4 C 0.8936(12) 0.0729(5) 0.7155(3)
H4 H 0.9622 0.0610 0.6583
C5 C 0.7056(11) 0.1887(4) 0.7206(3)
H5 H 0.6514 0.2540 0.6669
C6 C 0.5998(9) 0.2064(4) 0.8057(3)
C7 C 0.4063(9) 0.3282(4) 0.8118(3)
C8 C 0.3282(10) 0.3860(4) 0.8810(3)
C9 C 0.1250(11) 0.5055(4) 0.8413(3)
H6 H 0.0352 0.5659 0.8719
C10 C 0.0864(10) 0.5153(4) 0.7520(3)
C11 C -0.0774(10) 0.6140(4) 0.6751(3)
C12 C -0.2719(12) 0.7217(4) 0.6918(3)
H7 H -0.2976 0.7297 0.7516
C13 C -0.4280(12) 0.8175(4) 0.6191(4)
H8 H -0.5587 0.8891 0.6307
C14 C -0.3915(12) 0.8074(5) 0.5314(4)
H9 H -0.4922 0.8728 0.4831
C15 C -0.2037(13) 0.6994(5) 0.5142(3)
H10 H -0.1859 0.6904 0.4546
C16 C -0.0422(12) 0.6046(4) 0.5862(3)
H11 H 0.0913 0.5339 0.5741
C17 C 0.4382(11) 0.3394(4) 0.9741(3)
O1 O 0.2580(7) 0.4057(2) 0.73234(17)
N1 N 0.5292(12) 0.3060(4) 1.0487(3)
loop_
_geom_bond_atom_site_label_1
_geom_bond_atom_site_label_2
_geom_bond_site_symmetry_1
_geom_bond_site_symmetry_2
C1 H1 1_555 1_555
C2 C1 1_555 1_555
H2 C2 1_555 1_555
C3 C2 1_555 1_555
H3 C3 1_555 1_555
C4 C3 1_555 1_555
H4 C4 1_555 1_555
C5 C4 1_555 1_555
H5 C5 1_555 1_555
C6 C1 1_555 1_555
C7 C6 1_555 1_555
C8 C7 1_555 1_555
C9 C8 1_555 1_555
H6 C9 1_555 1_555
C10 C9 1_555 1_555
C11 C10 1_555 1_555
C12 C11 1_555 1_555
H7 C12 1_555 1_555
C13 C12 1_555 1_555
H8 C13 1_555 1_555
C14 C13 1_555 1_555
H9 C14 1_555 1_555
C15 C14 1_555 1_555
H10 C15 1_555 1_555
C16 C11 1_555 1_555
H11 C16 1_555 1_555
C17 C8 1_555 1_555
O1 C7 1_555 1_555
N1 C17 1_555 1_555
C5 C6 1_555 1_555
C10 O1 1_555 1_555
C15 C16 1_555 1_555

#END
