
#######################################################################
#
#                 Cambridge Crystallographic Data Centre
#                                CCDC 
#
#######################################################################
#
# If this CIF has been generated from an entry in the Cambridge 
# Structural Database, then it will include bibliographic, chemical, 
# crystal, experimental, refinement or atomic coordinate data resulting 
# from the CCDC's data processing and validation procedures.
#
#######################################################################

data_IMISEE
_chemical_compound_source        'Euphorbia peplus'
_chemical_name_common            'Pepluanol B'
_chemical_formula_moiety         'C20 H26 O3'
_chemical_name_systematic        
2a-Hydroxy-1,1,3,6,9-pentamethyl-1,1a,2,2a,4a,9,10,10a-octahydrocyclopropa[6,7]cycloocta[1,2-c]pentalene-5,8-dione
_chemical_properties_biological  'Kv1.3 potassium channel inhibitory activity'
_symmetry_cell_setting           orthorhombic
_symmetry_space_group_name_H-M   'P 21 21 21'
_symmetry_Int_Tables_number      19
_space_group_name_Hall           'P 2ac 2ab'
loop_
_symmetry_equiv_pos_site_id
_symmetry_equiv_pos_as_xyz
1 x,y,z
2 1/2+x,1/2-y,-z
3 -x,1/2+y,1/2-z
4 1/2-x,-y,1/2+z
_cell_length_a                   9.7169(2)
_cell_length_b                   10.1381(2)
_cell_length_c                   17.5286(3)
_cell_angle_alpha                90
_cell_angle_beta                 90
_cell_angle_gamma                90
_cell_volume                     1726.76
_exptl_crystal_colour            colorless
_exptl_crystal_description       block
_cell_formula_units_Z            4
loop_
_atom_site_label
_atom_site_type_symbol
_atom_site_fract_x
_atom_site_fract_y
_atom_site_fract_z
O1 O 0.00246(12) 0.23293(11) 0.77087(7)
O2 O 0.26247(10) -0.21572(9) 0.66730(5)
H1 H 0.1801 -0.2231 0.6812
O3 O 0.41381(10) 0.16413(9) 0.79488(6)
C1 C 0.73790(15) -0.07125(14) 0.56438(8)
H2 H 0.7369 -0.0895 0.5095
H3 H 0.6960 -0.1453 0.5918
H4 H 0.8331 -0.0597 0.5815
C2 C 0.65699(14) 0.05351(14) 0.58032(8)
C3 C 0.50537(14) 0.04485(13) 0.60269(7)
H5 H 0.4466 0.1185 0.5832
C4 C 0.43263(14) -0.08609(13) 0.61064(8)
H6 H 0.4930 -0.1468 0.6396
H7 H 0.4198 -0.1240 0.5591
C5 C 0.29158(14) -0.08072(13) 0.65060(8)
C6 C 0.27948(13) 0.01102(12) 0.72359(8)
C7 C 0.19021(14) 0.13049(13) 0.70108(8)
H8 H 0.2459 0.2130 0.6964
C8 C 0.08218(15) 0.14116(14) 0.76311(9)
C9 C 0.09013(14) 0.02128(13) 0.81062(8)
C10 C -0.00842(16) -0.00592(17) 0.87407(9)
H9 H 0.0208 -0.0851 0.9017
H10 H -0.1007 -0.0199 0.8530
H11 H -0.0100 0.0694 0.9091
C11 C 0.19518(13) -0.05207(13) 0.78677(7)
H12 H 0.2157 -0.1364 0.8074
C12 C 0.18147(14) -0.02229(14) 0.59883(8)
C13 C 0.12938(14) 0.08894(14) 0.62587(8)
H13 H 0.0601 0.1379 0.6002
C14 C 0.14173(17) -0.09078(17) 0.52656(9)
H14 H 0.0599 -0.0484 0.5050
H15 H 0.1215 -0.1836 0.5374
H16 H 0.2177 -0.0852 0.4900
C15 C 0.61376(13) 0.08589(13) 0.66117(8)
H17 H 0.6136 0.1825 0.6726
C16 C 0.65094(14) 0.00080(14) 0.72920(8)
H18 H 0.7153 0.0505 0.7623
H19 H 0.6997 -0.0788 0.7108
C17 C 0.52543(13) -0.04301(13) 0.77768(7)
H20 H 0.4941 -0.1318 0.7599
C18 C 0.56461(15) -0.05175(14) 0.86216(8)
H21 H 0.5918 0.0357 0.8806
H22 H 0.6417 -0.1132 0.8683
H23 H 0.4855 -0.0833 0.8916
C19 C 0.40996(14) 0.05508(13) 0.76648(8)
C20 C 0.70049(15) 0.16894(15) 0.53156(8)
H24 H 0.6439 0.2460 0.5441
H25 H 0.6883 0.1466 0.4776
H26 H 0.7975 0.1892 0.5413
loop_
_geom_bond_atom_site_label_1
_geom_bond_atom_site_label_2
_geom_bond_site_symmetry_1
_geom_bond_site_symmetry_2
O1 C8 1_555 1_555
O2 H1 1_555 1_555
O3 C19 1_555 1_555
C1 H2 1_555 1_555
H3 C1 1_555 1_555
H4 C1 1_555 1_555
C2 C1 1_555 1_555
C3 C2 1_555 1_555
H5 C3 1_555 1_555
C4 C3 1_555 1_555
H6 C4 1_555 1_555
H7 C4 1_555 1_555
C5 O2 1_555 1_555
C6 C5 1_555 1_555
C7 C6 1_555 1_555
H8 C7 1_555 1_555
C8 C7 1_555 1_555
C9 C8 1_555 1_555
C10 C9 1_555 1_555
H9 C10 1_555 1_555
H10 C10 1_555 1_555
H11 C10 1_555 1_555
C11 C6 1_555 1_555
H12 C11 1_555 1_555
C12 C5 1_555 1_555
C13 C7 1_555 1_555
H13 C13 1_555 1_555
C14 C12 1_555 1_555
H14 C14 1_555 1_555
H15 C14 1_555 1_555
H16 C14 1_555 1_555
C15 C2 1_555 1_555
H17 C15 1_555 1_555
C16 C15 1_555 1_555
H18 C16 1_555 1_555
H19 C16 1_555 1_555
C17 C16 1_555 1_555
H20 C17 1_555 1_555
C18 C17 1_555 1_555
H21 C18 1_555 1_555
H22 C18 1_555 1_555
H23 C18 1_555 1_555
C19 C6 1_555 1_555
C20 C2 1_555 1_555
H24 C20 1_555 1_555
H25 C20 1_555 1_555
H26 C20 1_555 1_555
C3 C15 1_555 1_555
C4 C5 1_555 1_555
C9 C11 1_555 1_555
C12 C13 1_555 1_555
C17 C19 1_555 1_555

#END
