
#######################################################################
#
#                 Cambridge Crystallographic Data Centre
#                                CCDC 
#
#######################################################################
#
# If this CIF has been generated from an entry in the Cambridge 
# Structural Database, then it will include bibliographic, chemical, 
# crystal, experimental, refinement or atomic coordinate data resulting 
# from the CCDC's data processing and validation procedures.
#
#######################################################################

data_IMISOO
_chemical_compound_source        'Euphorbia peplus'
_chemical_name_common            Pepluacetal
_chemical_formula_moiety         'C22 H32 O4'
_chemical_name_systematic        
2-(1,1-Dimethoxypropan-2-yl)-1,1,3,7-tetramethyl-1,1a,1b,2,2a,7,8,8a-octahydrocyclopenta[1,4]cyclobuta[1,2-a]cyclopropa[c][7]annulene-5,6-dione
_chemical_properties_biological  'Kv1.3 potassium channel inhibitory activity'
_symmetry_cell_setting           monoclinic
_symmetry_space_group_name_H-M   'C 2'
_symmetry_Int_Tables_number      5
_space_group_name_Hall           'C 2y'
loop_
_symmetry_equiv_pos_site_id
_symmetry_equiv_pos_as_xyz
1 x,y,z
2 -x,y,-z
3 1/2+x,1/2+y,z
4 1/2-x,1/2+y,-z
_cell_length_a                   18.2916(5)
_cell_length_b                   8.7712(3)
_cell_length_c                   12.9930(4)
_cell_angle_alpha                90
_cell_angle_beta                 103.2320(10)
_cell_angle_gamma                90
_cell_volume                     2029.24
_exptl_crystal_colour            colorless
_exptl_crystal_description       sheet
_cell_formula_units_Z            4
loop_
_atom_site_label
_atom_site_type_symbol
_atom_site_fract_x
_atom_site_fract_y
_atom_site_fract_z
O1 O 0.13656(8) 0.01040(18) 0.03578(10)
O2 O 0.32515(7) 0.42742(17) 0.30058(10)
O3 O 0.35645(7) 0.08999(18) 0.53600(9)
C1 C 0.11552(9) 0.0593(2) 0.20460(12)
H1 H 0.1063 0.0094 0.2697
C2 C 0.18688(9) 0.1541(2) 0.23733(12)
H2 H 0.1908 0.2213 0.1766
C3 C 0.20180(9) 0.2540(2) 0.34013(12)
H3 H 0.1959 0.3660 0.3263
C4 C 0.28465(9) 0.1993(2) 0.36799(12)
C5 C 0.34327(9) 0.3074(2) 0.34556(12)
C6 C 0.42462(9) 0.2563(2) 0.37785(12)
H4 H 0.4390 0.2572 0.4569
C7 C 0.47645(10) 0.3686(3) 0.33979(14)
H5 H 0.4659 0.3671 0.2624
H6 H 0.5289 0.3393 0.3685
H7 H 0.4679 0.4715 0.3640
C8 C 0.14370(14) -0.0872(3) -0.04770(16)
H8 H 0.1870 -0.1545 -0.0239
H9 H 0.1510 -0.0261 -0.1077
H10 H 0.0980 -0.1487 -0.0695
C9 C 0.26338(9) 0.0720(2) 0.27696(11)
H11 H 0.2565 -0.0302 0.3076
C10 C 0.31087(9) 0.0602(2) 0.19556(12)
H12 H 0.2887 0.1129 0.1273
C11 C 0.35776(9) -0.0789(2) 0.18378(13)
C12 C 0.36175(12) -0.1191(3) 0.07171(14)
H13 H 0.3553 -0.0266 0.0283
H14 H 0.3218 -0.1920 0.0421
H15 H 0.4107 -0.1649 0.0723
C13 C 0.35777(11) -0.2159(3) 0.25329(16)
H16 H 0.4049 -0.2722 0.2598
H17 H 0.3154 -0.2823 0.2219
H18 H 0.3530 -0.1827 0.3235
C14 C 0.39635(9) 0.0667(2) 0.22723(13)
H19 H 0.4202 0.1237 0.1768
C15 C 0.43336(9) 0.0911(2) 0.34265(13)
H20 H 0.4874 0.0661 0.3546
H21 H 0.4107 0.0209 0.3863
C16 C 0.17126(10) 0.2004(2) 0.43240(13)
C17 C 0.22429(10) 0.1367(2) 0.50839(13)
H22 H 0.2157 0.0975 0.5727
C18 C 0.29739(10) 0.1349(2) 0.48003(13)
C19 C 0.09131(10) 0.2263(3) 0.43799(14)
H23 H 0.0833 0.1854 0.5047
H24 H 0.0578 0.1746 0.3786
H25 H 0.0806 0.3359 0.4343
C20 C 0.04773(10) 0.1617(3) 0.15938(14)
H26 H 0.0436 0.2408 0.2111
H27 H 0.0019 0.1000 0.1441
H28 H 0.0544 0.2098 0.0941
C21 C 0.1236(9) -0.070(3) 0.1248(11)
H29 H 0.1715 -0.1241 0.1566
O4 O 0.07016(15) -0.1749(4) 0.1092(2)
C22 C 0.0911(4) -0.3142(6) 0.1638(5)
H30 H 0.0484 -0.3848 0.1490
H31 H 0.1058 -0.2944 0.2400
H32 H 0.1334 -0.3594 0.1402
C23? C 0.1233(12) -0.050(3) 0.1215(16)
H33? H 0.0719 -0.0950 0.0976
O5? O 0.16913(16) -0.1780(3) 0.1610(2)
C24? C 0.1369(4) -0.3079(7) 0.1972(5)
H34? H 0.1757 -0.3855 0.2202
H35? H 0.0974 -0.3489 0.1398
H36? H 0.1151 -0.2794 0.2567
loop_
_geom_bond_atom_site_label_1
_geom_bond_atom_site_label_2
_geom_bond_site_symmetry_1
_geom_bond_site_symmetry_2
O1 C8 1_555 1_555
O2 C5 1_555 1_555
O3 C18 1_555 1_555
C1 H1 1_555 1_555
C2 C1 1_555 1_555
H2 C2 1_555 1_555
C3 C2 1_555 1_555
H3 C3 1_555 1_555
C4 C3 1_555 1_555
C5 C4 1_555 1_555
C6 C5 1_555 1_555
H4 C6 1_555 1_555
C7 C6 1_555 1_555
H5 C7 1_555 1_555
H6 C7 1_555 1_555
H7 C7 1_555 1_555
C8 H8 1_555 1_555
H9 C8 1_555 1_555
H10 C8 1_555 1_555
C9 C2 1_555 1_555
H11 C9 1_555 1_555
C10 C9 1_555 1_555
H12 C10 1_555 1_555
C11 C10 1_555 1_555
C12 C11 1_555 1_555
H13 C12 1_555 1_555
H14 C12 1_555 1_555
H15 C12 1_555 1_555
C13 C11 1_555 1_555
H16 C13 1_555 1_555
H17 C13 1_555 1_555
H18 C13 1_555 1_555
C14 C10 1_555 1_555
H19 C14 1_555 1_555
C15 C6 1_555 1_555
H20 C15 1_555 1_555
H21 C15 1_555 1_555
C16 C3 1_555 1_555
C17 C16 1_555 1_555
H22 C17 1_555 1_555
C18 C4 1_555 1_555
C19 C16 1_555 1_555
H23 C19 1_555 1_555
H24 C19 1_555 1_555
H25 C19 1_555 1_555
C20 C1 1_555 1_555
H26 C20 1_555 1_555
H27 C20 1_555 1_555
H28 C20 1_555 1_555
C21 O1 1_555 1_555
H29 C21 1_555 1_555
O4 C21 1_555 1_555
C22 O4 1_555 1_555
H30 C22 1_555 1_555
H31 C22 1_555 1_555
H32 C22 1_555 1_555
C1 C21 1_555 1_555
C4 C9 1_555 1_555
C11 C14 1_555 1_555
C14 C15 1_555 1_555
C17 C18 1_555 1_555

#END
