
#######################################################################
#
#                 Cambridge Crystallographic Data Centre
#                                CCDC 
#
#######################################################################
#
# If this CIF has been generated from an entry in the Cambridge 
# Structural Database, then it will include bibliographic, chemical, 
# crystal, experimental, refinement or atomic coordinate data resulting 
# from the CCDC's data processing and validation procedures.
#
#######################################################################

data_IMIVOP
_chemical_formula_moiety         'C3 H6 N8 O2'
_chemical_name_systematic        3,5-Diamino-1-nitroamidino-1,2,4-triazole
_symmetry_cell_setting           orthorhombic
_symmetry_space_group_name_H-M   'P b c a'
_symmetry_Int_Tables_number      61
_space_group_name_Hall           '-P 2ac 2ab'
loop_
_symmetry_equiv_pos_site_id
_symmetry_equiv_pos_as_xyz
1 x,y,z
2 1/2-x,-y,1/2+z
3 1/2+x,1/2-y,-z
4 -x,1/2+y,1/2-z
5 -x,-y,-z
6 1/2+x,y,1/2-z
7 1/2-x,1/2+y,z
8 x,1/2-y,1/2+z
_cell_length_a                   20.678(1)
_cell_length_b                   7.2493(5)
_cell_length_c                   19.251(1)
_cell_angle_alpha                90
_cell_angle_beta                 90
_cell_angle_gamma                90
_cell_volume                     2885.74
_chemical_melting_point          '270-275 deg. C (dec.)'
_cell_formula_units_Z            16
loop_
_atom_site_label
_atom_site_type_symbol
_atom_site_fract_x
_atom_site_fract_y
_atom_site_fract_z
N1 N 0.2556(1) 0.0534(4) 0.2259(1)
C1 C 0.2871(2) -0.0153(5) 0.2836(2)
N3 N 0.3497(1) -0.0035(4) 0.2745(2)
C3 C 0.3561(2) 0.0761(5) 0.2110(2)
N5 N 0.3027(1) 0.1153(4) 0.1771(1)
N7 N 0.2566(1) -0.0852(4) 0.3386(2)
H1 H 0.279 -0.129 0.373
H3 H 0.215 -0.087 0.340
N9 N 0.4154(1) 0.1100(4) 0.1831(2)
H5 H 0.419 0.159 0.142
H7 H 0.450 0.083 0.206
C5 C 0.1918(2) 0.0801(5) 0.2098(2)
N11 N 0.1809(1) 0.1662(4) 0.1528(2)
H9 H 0.142 0.189 0.140
H11 H 0.213 0.202 0.127
N13 N 0.1513(1) 0.0109(4) 0.2585(2)
N15 N 0.0871(2) 0.0298(4) 0.2459(2)
O1 O 0.0524(1) -0.0310(5) 0.2916(2)
O3 O 0.0645(1) 0.0999(4) 0.1929(2)
N2 N 0.0589(1) 0.2191(4) 0.4949(1)
C2 C 0.0884(2) 0.2838(5) 0.4348(2)
N4 N 0.1505(1) 0.2446(4) 0.4370(1)
C4 C 0.1583(2) 0.1560(5) 0.4988(2)
N6 N 0.1065(1) 0.1361(4) 0.5367(2)
N8 N 0.0580(1) 0.3701(4) 0.3841(2)
H2 H 0.079 0.407 0.348
H4 H 0.017 0.390 0.387
N10 N 0.2164(2) 0.0971(5) 0.5216(2)
H6 H 0.220 0.045 0.562
H8 H 0.250 0.111 0.496
C6 C -0.0031(2) 0.2297(5) 0.5191(2)
N12 N -0.0120(2) 0.1642(4) 0.5820(4)
H10 H -0.050 0.164 0.600
H12 H 0.020 0.121 0.605
N14 N -0.0449(1) 0.3020(4) 0.4742(1)
N16 N -0.1080(2) 0.3137(4) 0.4939(2)
O2 O -0.1431(1) 0.3804(5) 0.4499(2)
O4 O -0.1293(1) 0.2617(4) 0.5511(1)
loop_
_geom_bond_atom_site_label_1
_geom_bond_atom_site_label_2
_geom_bond_site_symmetry_1
_geom_bond_site_symmetry_2
N1 C1 1_555 1_555
N2 C2 1_555 1_555
C1 N3 1_555 1_555
C2 N4 1_555 1_555
N3 C3 1_555 1_555
N4 C4 1_555 1_555
C3 N5 1_555 1_555
C4 N6 1_555 1_555
N5 N1 1_555 1_555
N6 N2 1_555 1_555
N7 C1 1_555 1_555
N8 C2 1_555 1_555
H1 N7 1_555 1_555
H2 N8 1_555 1_555
H3 N7 1_555 1_555
H4 N8 1_555 1_555
N9 C3 1_555 1_555
N10 C4 1_555 1_555
H5 N9 1_555 1_555
H6 N10 1_555 1_555
H7 N9 1_555 1_555
H8 N10 1_555 1_555
C5 N1 1_555 1_555
C6 N2 1_555 1_555
N11 C5 1_555 1_555
N12 C6 1_555 1_555
H9 N11 1_555 1_555
H10 N12 1_555 1_555
H11 N11 1_555 1_555
H12 N12 1_555 1_555
N13 C5 1_555 1_555
N14 C6 1_555 1_555
N15 N13 1_555 1_555
N16 N14 1_555 1_555
O1 N15 1_555 1_555
O2 N16 1_555 1_555
O3 N15 1_555 1_555
O4 N16 1_555 1_555

#END
