
#######################################################################
#
#                 Cambridge Crystallographic Data Centre
#                                CCDC 
#
#######################################################################
#
# If this CIF has been generated from an entry in the Cambridge 
# Structural Database, then it will include bibliographic, chemical, 
# crystal, experimental, refinement or atomic coordinate data resulting 
# from the CCDC's data processing and validation procedures.
#
#######################################################################

data_IMIWIK
_chemical_formula_moiety         'H4 N1 1+,C1 H1 N6 O2 1-'
_chemical_name_systematic        'Ammonium 5-nitroiminotetrazole'
_symmetry_cell_setting           orthorhombic
_symmetry_space_group_name_H-M   'P b c a'
_symmetry_Int_Tables_number      61
_space_group_name_Hall           '-P 2ac 2ab'
loop_
_symmetry_equiv_pos_site_id
_symmetry_equiv_pos_as_xyz
1 x,y,z
2 1/2-x,-y,1/2+z
3 1/2+x,1/2-y,-z
4 -x,1/2+y,1/2-z
5 -x,-y,-z
6 1/2+x,y,1/2-z
7 1/2-x,1/2+y,z
8 x,1/2-y,1/2+z
_cell_length_a                   10.077(1)
_cell_length_b                   17.009(1)
_cell_length_c                   6.6472(6)
_cell_angle_alpha                90
_cell_angle_beta                 90
_cell_angle_gamma                90
_cell_volume                     1139.33
_chemical_melting_point          '230-240 deg.C(dec.)'
_cell_formula_units_Z            8
_exptl_crystal_recrystallization_method ethanol
loop_
_atom_site_label
_atom_site_type_symbol
_atom_site_fract_x
_atom_site_fract_y
_atom_site_fract_z
C1 C 0.0507(2) 0.4303(1) 0.2953(3)
N1 N -0.0572(2) 0.47398(8) 0.2583(2)
N2 N -0.0187(2) 0.54764(8) 0.2146(2)
N3 N 0.1099(2) 0.54792(8) 0.2246(2)
N4 N 0.1564(2) 0.47601(8) 0.2739(2)
N5 N 0.0665(1) 0.35336(8) 0.3539(2)
N6 N -0.0415(1) 0.31237(8) 0.3810(2)
O1 O -0.1559(1) 0.33859(7) 0.3493(2)
O2 O -0.0266(1) 0.24337(8) 0.4436(3)
H1 H -0.137(3) 0.464(1) 0.248(3)
N7 N 0.2110(2) 0.1878(1) 0.2284(3)
H2 H 0.246(3) 0.238(2) 0.224(5)
H3 H 0.269(4) 0.152(2) 0.262(5)
H4 H 0.174(3) 0.177(2) 0.098(6)
H5 H 0.154(4) 0.192(2) 0.315(6)
loop_
_geom_bond_atom_site_label_1
_geom_bond_atom_site_label_2
_geom_bond_site_symmetry_1
_geom_bond_site_symmetry_2
C1 N1 1_555 1_555
N1 N2 1_555 1_555
N2 N3 1_555 1_555
N3 N4 1_555 1_555
N4 C1 1_555 1_555
N5 C1 1_555 1_555
N6 N5 1_555 1_555
N7 H2 1_555 1_555
O1 N6 1_555 1_555
O2 N6 1_555 1_555
H1 N1 1_555 1_555
H3 N7 1_555 1_555
H4 N7 1_555 1_555
H5 N7 1_555 1_555

#END
