
#######################################################################
#
#                 Cambridge Crystallographic Data Centre
#                                CCDC 
#
#######################################################################
#
# If this CIF has been generated from an entry in the Cambridge 
# Structural Database, then it will include bibliographic, chemical, 
# crystal, experimental, refinement or atomic coordinate data resulting 
# from the CCDC's data processing and validation procedures.
#
#######################################################################

data_IMOCAO
_chemical_formula_moiety         'C3 H8 N1 O2 1+,H2 O4 P1 1-'
_chemical_name_systematic        'L-alanine phosphate'
_symmetry_cell_setting           monoclinic
_symmetry_space_group_name_H-M   'P 1 1 21'
_symmetry_Int_Tables_number      4
_space_group_name_Hall           'P 2c'
loop_
_symmetry_equiv_pos_site_id
_symmetry_equiv_pos_as_xyz
1 x,y,z
2 -x,-y,1/2+z
_cell_length_a                   11.918(5)
_cell_length_b                   9.117(5)
_cell_length_c                   7.285(5)
_cell_angle_alpha                90
_cell_angle_beta                 90
_cell_angle_gamma                104.68(5)
_cell_volume                     765.722
_exptl_crystal_colour            colorless
_exptl_crystal_description       'distorted cube'
_cell_formula_units_Z            4
loop_
_atom_site_label
_atom_site_type_symbol
_atom_site_fract_x
_atom_site_fract_y
_atom_site_fract_z
P1 P 0.25886(3) 0.33853(4) 0.28764
O1 O 0.23880(9) 0.35093(15) 0.48935(21)
O2 O 0.36196(9) 0.45373(12) 0.21084(20)
O3 O 0.27944(14) 0.17961(14) 0.24112(29)
O4 O 0.14490(10) 0.34447(17) 0.18558(25)
H1 H 0.2439(33) 0.1033(44) 0.3180(66)
H2 H 0.1497(25) 0.4244(36) 0.1277(53)
P2 P 0.25407(3) 0.68104(4) 0.88061(8)
O5 O 0.26871(10) 0.69268(16) 0.67592(22)
O6 O 0.15081(8) 0.56086(13) 0.94944(22)
O7 O 0.37019(9) 0.65706(16) 0.95886(26)
O8 O 0.24231(16) 0.83500(16) 0.96257(32)
H3 H 0.3619(28) 0.5854(43) 1.0497(59)
H4 H 0.2519(31) 0.9119(44) 0.8812(72)
O9 O 0.28955(15) 0.08935(15) 0.77463(33)
O10 O 0.38190(11) 0.33156(14) 0.73563(25)
N1 N 0.53124(11) 0.34098(15) 1.00270(23)
C1 C 0.36953(13) 0.19886(16) 0.80810(30)
C2 C 0.46503(12) 0.18725(16) 0.94184(28)
C3 C 0.54511(16) 0.10020(22) 0.85604(36)
H5 H 0.3298(28) 0.3157(38) 0.6541(58)
H6 H 0.4329(21) 0.1385(30) 1.0573(42)
H7 H 0.5797(36) 0.1283(48) 0.7426(67)
H8 H 0.4977(34) 0.0023(43) 0.8341(54)
H9 H 0.6080(28) 0.0911(36) 0.9543(53)
H10 H 0.4849(23) 0.3821(32) 1.0659(51)
H11 H 0.5975(31) 0.3284(41) 1.0780(63)
H12 H 0.5592(27) 0.4076(35) 0.8951(53)
O11 O 0.17340(11) 0.91937(12) 0.40134(24)
O12 O 0.11197(11) 0.66967(13) 0.44002(26)
N2 N -0.03517(10) 0.63633(14) 0.16026(24)
C4 C 0.10456(11) 0.79932(14) 0.37115(28)
C5 C -0.00431(11) 0.78624(15) 0.25592(26)
C6 C 0.00358(16) 0.91571(20) 0.12386(36)
H13 H 0.1725(28) 0.6731(40) 0.5319(60)
H14 H -0.0631(24) 0.7775(32) 0.3447(48)
H15 H -0.0623(31) 0.9150(43) 0.0552(61)
H16 H 0.0579(30) 0.9213(41) 0.0231(61)
H17 H 0.0160(28) 1.0221(40) 0.1979(60)
H18 H -0.0963(26) 0.6334(35) 0.0949(57)
H19 H 0.0255(24) 0.6160(33) 0.0959(52)
H20 H -0.0571(26) 0.5584(35) 0.2590(57)
loop_
_geom_bond_atom_site_label_1
_geom_bond_atom_site_label_2
_geom_bond_site_symmetry_1
_geom_bond_site_symmetry_2
P1 O1 1_555 1_555
P2 O5 1_555 1_555
O2 P1 1_555 1_555
O3 P1 1_555 1_555
O4 P1 1_555 1_555
O6 P2 1_555 1_555
O7 P2 1_555 1_555
O8 P2 1_555 1_555
O9 C1 1_555 1_555
O10 C1 1_555 1_555
O11 C4 1_555 1_555
O12 C4 1_555 1_555
N1 C2 1_555 1_555
N2 C5 1_555 1_555
C1 C2 1_555 1_555
C2 C3 1_555 1_555
C3 H7 1_555 1_555
C4 C5 1_555 1_555
C5 C6 1_555 1_555
C6 H15 1_555 1_555
H1 O3 1_555 1_555
H2 O4 1_555 1_555
H3 O7 1_555 1_555
H4 O8 1_555 1_555
H5 O10 1_555 1_555
H6 C2 1_555 1_555
H8 C3 1_555 1_555
H9 C3 1_555 1_555
H10 N1 1_555 1_555
H11 N1 1_555 1_555
H12 N1 1_555 1_555
H13 O12 1_555 1_555
H14 C5 1_555 1_555
H16 C6 1_555 1_555
H17 C6 1_555 1_555
H18 N2 1_555 1_555
H19 N2 1_555 1_555
H20 N2 1_555 1_555

#END
