
#######################################################################
#
#                 Cambridge Crystallographic Data Centre
#                                CCDC 
#
#######################################################################
#
# If this CIF has been generated from an entry in the Cambridge 
# Structural Database, then it will include bibliographic, chemical, 
# crystal, experimental, refinement or atomic coordinate data resulting 
# from the CCDC's data processing and validation procedures.
#
#######################################################################

data_IMODOF
_chemical_formula_moiety         'C20 H24 N4 O4'
_chemical_name_systematic        
'diethyl (3-(4-aminophenyl)-4-cyano-5-(dimethylamino)-1H-pyrrol-2-yl)malonate'
_symmetry_cell_setting           triclinic
_symmetry_space_group_name_H-M   'P -1'
_symmetry_Int_Tables_number      2
_space_group_name_Hall           '-P 1'
loop_
_symmetry_equiv_pos_site_id
_symmetry_equiv_pos_as_xyz
1 x,y,z
2 -x,-y,-z
_cell_length_a                   7.8318(6)
_cell_length_b                   10.2287(9)
_cell_length_c                   13.5191(12)
_cell_angle_alpha                108.782(3)
_cell_angle_beta                 106.051(3)
_cell_angle_gamma                94.161(3)
_cell_volume                     969.699
_exptl_crystal_colour            colorless
_exptl_crystal_description       block
_cell_formula_units_Z            2
loop_
_atom_site_label
_atom_site_type_symbol
_atom_site_fract_x
_atom_site_fract_y
_atom_site_fract_z
O1 O 0.23657(11) 0.64889(10) 0.40713(7)
O2 O 0.72224(12) 0.68280(10) 0.53576(7)
O3 O 0.23500(12) 0.65460(10) 0.24135(8)
O4 O 0.61850(12) 0.84834(10) 0.46967(8)
N1 N 0.62473(14) 0.67152(12) 0.22677(9)
N2 N 0.73088(14) 0.68896(11) 0.08124(9)
N3 N 0.44178(16) -0.08218(12) 0.24826(10)
C1 C 0.74412(16) 0.36571(14) 0.05382(11)
C2 C 0.30852(16) 0.63939(13) 0.32634(10)
C3 C 0.61790(16) 0.72711(14) 0.46133(11)
N4 N 0.78690(15) 0.27422(12) -0.00463(10)
C4 C 0.48809(16) 0.04802(14) 0.23949(11)
C5 C 0.58361(16) 0.30916(13) 0.22269(11)
C6 C 0.68608(16) 0.47108(13) 0.12836(10)
C7 C 0.44830(17) 0.06205(14) 0.13627(11)
H1 H 0.3888 -0.0169 0.0713
C8 C 0.61842(15) 0.44634(13) 0.21137(10)
C9 C 0.49848(16) 0.60464(13) 0.36015(10)
H2 H 0.4890 0.5204 0.3819
C10 C 0.62835(16) 0.29247(14) 0.32498(11)
H3 H 0.6922 0.3703 0.3898
C11 C 0.49547(16) 0.19066(14) 0.12875(11)
H4 H 0.4674 0.1988 0.0582
C12 C 0.58078(16) 0.16394(14) 0.33315(11)
H5 H 0.6118 0.1550 0.4035
C13 C 0.58124(16) 0.57111(13) 0.26943(10)
C14 C 0.68626(15) 0.61202(13) 0.14040(10)
C15 C 0.05480(16) 0.68274(14) 0.38895(12)
H6 H -0.0049 0.6483 0.4338
H7 H -0.0174 0.6345 0.3104
C16 C 0.84816(18) 0.79143(15) 0.63484(11)
H8 H 0.7884 0.8718 0.6611
H9 H 0.9546 0.8257 0.6183
C17 C 0.82769(18) 0.83295(14) 0.14293(12)
H10 H 0.7700 0.8804 0.1970
H11 H 0.8247 0.8832 0.0920
H12 H 0.9533 0.8318 0.1812
C18 C 0.79940(18) 0.61385(15) -0.00731(11)
H13 H 0.9175 0.5921 0.0244
H14 H 0.8117 0.6726 -0.0505
H15 H 0.7150 0.5264 -0.0552
C19 C 0.06061(18) 0.83890(15) 0.41962(12)
H16 H 0.1184 0.8730 0.3747
H17 H 0.1298 0.8865 0.4977
H18 H -0.0626 0.8586 0.4063
C20 C 0.9055(2) 0.72722(18) 0.72138(13)
H19 H 0.9596 0.6454 0.6934
H20 H 0.8000 0.6980 0.7398
H21 H 0.9943 0.7964 0.7875
H22 H 0.588(2) 0.7545(15) 0.2403(13)
H23 H 0.347(2) -0.1394(17) 0.1908(13)
H24 H 0.432(2) -0.0736(18) 0.3147(12)
loop_
_geom_bond_atom_site_label_1
_geom_bond_atom_site_label_2
_geom_bond_site_symmetry_1
_geom_bond_site_symmetry_2
O1 C2 1_555 1_555
O2 C3 1_555 1_555
O3 C2 1_555 1_555
O4 C3 1_555 1_555
N1 C13 1_555 1_555
N2 C14 1_555 1_555
N3 C4 1_555 1_555
C1 N4 1_555 1_555
C2 C9 1_555 1_555
C3 C9 1_555 1_555
C4 C7 1_555 1_555
C5 C8 1_555 1_555
C6 C1 1_555 1_555
C7 H1 1_555 1_555
C8 C6 1_555 1_555
C9 H2 1_555 1_555
C10 C5 1_555 1_555
H3 C10 1_555 1_555
C11 C5 1_555 1_555
H4 C11 1_555 1_555
C12 C4 1_555 1_555
H5 C12 1_555 1_555
C13 C8 1_555 1_555
C14 N1 1_555 1_555
C15 O1 1_555 1_555
H6 C15 1_555 1_555
H7 C15 1_555 1_555
C16 O2 1_555 1_555
H8 C16 1_555 1_555
H9 C16 1_555 1_555
C17 N2 1_555 1_555
H10 C17 1_555 1_555
H11 C17 1_555 1_555
H12 C17 1_555 1_555
C18 N2 1_555 1_555
H13 C18 1_555 1_555
H14 C18 1_555 1_555
H15 C18 1_555 1_555
C19 C15 1_555 1_555
H16 C19 1_555 1_555
H17 C19 1_555 1_555
H18 C19 1_555 1_555
C20 C16 1_555 1_555
H19 C20 1_555 1_555
H20 C20 1_555 1_555
H21 C20 1_555 1_555
H22 N1 1_555 1_555
H23 N3 1_555 1_555
H24 N3 1_555 1_555
C6 C14 1_555 1_555
C7 C11 1_555 1_555
C9 C13 1_555 1_555
C10 C12 1_555 1_555

#END
