
#######################################################################
#
#                 Cambridge Crystallographic Data Centre
#                                CCDC 
#
#######################################################################
#
# If this CIF has been generated from an entry in the Cambridge 
# Structural Database, then it will include bibliographic, chemical, 
# crystal, experimental, refinement or atomic coordinate data resulting 
# from the CCDC's data processing and validation procedures.
#
#######################################################################

data_IMOGEY
_chemical_formula_moiety         'C28 H40 O5'
_chemical_name_systematic        
1,11-dihydroxy-2-isobutyryl-4,4,5a,9,9-pentamethyl-12-methylene-5a,6,9,10,11,12,13,14,14a,15-decahydrocycloundeca[b]chromen-3(4H)-one
_symmetry_cell_setting           orthorhombic
_symmetry_space_group_name_H-M   'P 21 21 21'
_symmetry_Int_Tables_number      19
_space_group_name_Hall           'P 2ac 2ab'
loop_
_symmetry_equiv_pos_site_id
_symmetry_equiv_pos_as_xyz
1 x,y,z
2 1/2+x,1/2-y,-z
3 -x,1/2+y,1/2-z
4 1/2-x,-y,1/2+z
_cell_length_a                   8.7878(5)
_cell_length_b                   20.2223(11)
_cell_length_c                   29.8190(16)
_cell_angle_alpha                90
_cell_angle_beta                 90
_cell_angle_gamma                90
_cell_volume                     5299.12
_exptl_crystal_colour            colorless
_exptl_crystal_description       block
_cell_formula_units_Z            8
loop_
_atom_site_label
_atom_site_type_symbol
_atom_site_fract_x
_atom_site_fract_y
_atom_site_fract_z
O1 O 0.4009(4) 0.39631(14) 0.58546(9)
O2 O 0.3855(5) 0.3534(2) 0.37607(11)
O3 O 0.6696(6) 0.2763(3) 0.47622(12)
O4 O 0.2413(4) 0.40166(19) 0.43571(11)
H1 H 0.1590 0.3836 0.4399
O5 O 0.2882(3) 0.71399(14) 0.53083(9)
H2 H 0.3597 0.7165 0.5132
C1 C 0.6636(5) 0.6186(3) 0.59382(16)
H3 H 0.7283 0.5889 0.6101
H4 H 0.7219 0.6560 0.5839
H5 H 0.6217 0.5961 0.5683
C2 C 0.5349(5) 0.6421(2) 0.62419(14)
C3 C 0.4356(5) 0.58591(19) 0.64019(13)
H6 H 0.3569 0.5972 0.6596
C4 C 0.4477(5) 0.5224(2) 0.62980(13)
H7 H 0.5324 0.5092 0.6134
C5 C 0.3348(5) 0.4705(2) 0.64263(13)
H8 H 0.2523 0.4910 0.6592
H9 H 0.3836 0.4387 0.6623
C6 C 0.2687(5) 0.4339(2) 0.60168(13)
C7 C 0.4126(5) 0.37867(19) 0.54184(13)
C8 C 0.5468(5) 0.3348(2) 0.53369(14)
C9 C 0.5666(6) 0.3159(3) 0.48440(15)
C10 C 0.4657(5) 0.3418(2) 0.45035(13)
C11 C 0.4876(6) 0.3318(2) 0.40296(15)
C12 C 0.6270(5) 0.3029(2) 0.38241(14)
H10 H 0.6548 0.2638 0.4000
C13 C 0.7584(7) 0.3527(3) 0.3863(2)
H11 H 0.7331 0.3922 0.3700
H12 H 0.8493 0.3336 0.3740
H13 H 0.7747 0.3635 0.4173
C14 C 0.6026(8) 0.2809(3) 0.33437(16)
H14 H 0.5167 0.2516 0.3330
H15 H 0.6917 0.2582 0.3239
H16 H 0.5838 0.3188 0.3158
C15 C 0.2159(4) 0.48163(18) 0.56471(13)
H17 H 0.3009 0.5116 0.5585
C16 C 0.1837(5) 0.4436(2) 0.52165(13)
H18 H 0.0919 0.4175 0.5253
H19 H 0.1672 0.4745 0.4973
C17 C 0.3143(5) 0.39882(19) 0.51027(13)
C18 C 0.3398(5) 0.3798(2) 0.46477(14)
C19 C 0.0795(5) 0.5246(2) 0.57815(15)
H20 H 0.0790 0.5298 0.6105
H21 H -0.0136 0.5020 0.5697
C20 C 0.0810(4) 0.59354(18) 0.55623(13)
H22 H 0.1254 0.5900 0.5265
H23 H -0.0230 0.6087 0.5527
C21 C 0.1686(4) 0.64418(18) 0.58265(12)
C22 C 0.3220(4) 0.66544(18) 0.56484(12)
H24 H 0.3691 0.6272 0.5501
C23 C 0.4352(5) 0.69314(19) 0.59846(14)
H25 H 0.3793 0.7190 0.6203
H26 H 0.5026 0.7232 0.5827
C24 C 0.6040(6) 0.6769(3) 0.66468(17)
H27 H 0.5246 0.6891 0.6852
H28 H 0.6570 0.7159 0.6549
H29 H 0.6741 0.6477 0.6794
C25 C 0.1067(5) 0.6703(2) 0.61884(14)
H30 H 0.0098 0.6574 0.6278
H31 H 0.1599 0.7017 0.6354
C26 C 0.1488(7) 0.3845(2) 0.61515(17)
H32 H 0.1209 0.3583 0.5896
H33 H 0.0608 0.4075 0.6262
H34 H 0.1883 0.3562 0.6383
C27 C 0.5266(6) 0.2706(2) 0.56070(15)
H35 H 0.5227 0.2808 0.5921
H36 H 0.6108 0.2416 0.5549
H37 H 0.4336 0.2493 0.5519
C28 C 0.6928(6) 0.3688(3) 0.5491(2)
H38 H 0.7040 0.4101 0.5337
H39 H 0.7784 0.3409 0.5425
H40 H 0.6879 0.3766 0.5808
O6 O 0.2912(4) 0.43182(14) 0.26279(14)
O7 O 0.4517(3) 0.34964(13) 0.23079(10)
H41 H 0.4767 0.3433 0.2046
O8 O 0.3334(3) 0.12364(11) 0.23562(8)
O9 O 0.0026(5) 0.27702(19) 0.30029(18)
O10 O 0.4708(3) 0.20949(13) 0.02660(9)
H42 H 0.3955 0.2332 0.0243
C29 C 0.1649(6) 0.0069(2) 0.04456(17)
H43 H 0.2468 -0.0217 0.0358
H44 H 0.1119 0.0220 0.0183
H45 H 0.0958 -0.0169 0.0636
C30 C 0.2296(4) 0.06682(18) 0.07021(13)
C31 C 0.3259(4) 0.04267(17) 0.10854(12)
H46 H 0.4052 0.0142 0.1011
C32 C 0.3112(4) 0.05702(17) 0.15116(13)
H47 H 0.2236 0.0796 0.1596
C33 C 0.4223(4) 0.04051(18) 0.18764(12)
H48 H 0.5101 0.0186 0.1747
H49 H 0.3751 0.0102 0.2087
C34 C 0.4749(4) 0.10304(18) 0.21285(12)
C35 C 0.5264(4) 0.15792(17) 0.18088(11)
H50 H 0.4447 0.1641 0.1589
C36 C 0.5434(4) 0.22328(17) 0.20632(12)
H51 H 0.6293 0.2206 0.2267
H52 H 0.5622 0.2590 0.1853
C37 C 0.4001(4) 0.23704(17) 0.23239(11)
C38 C 0.3578(4) 0.30399(18) 0.24334(12)
C39 C 0.2231(4) 0.32041(18) 0.26631(13)
C40 C 0.1962(5) 0.3890(2) 0.27627(16)
C41 C 0.0628(6) 0.4146(2) 0.3022(2)
H53 H 0.0292 0.3785 0.3218
C42 C -0.0595(11) 0.4283(5) 0.2727(3)
H54 H -0.1508 0.4351 0.2898
H55 H -0.0735 0.3917 0.2527
H56 H -0.0370 0.4674 0.2557
C43 C 0.1031(9) 0.4712(4) 0.3320(2)
H57 H 0.1163 0.5104 0.3142
H58 H 0.1961 0.4615 0.3476
H59 H 0.0230 0.4782 0.3534
C44 C 0.3070(4) 0.18777(18) 0.24459(11)
C45 C 0.1622(4) 0.19567(18) 0.27048(13)
C46 C 0.1800(7) 0.1605(3) 0.31612(17)
H60 H 0.2091 0.1153 0.3113
H61 H 0.0851 0.1619 0.3320
H62 H 0.2570 0.1824 0.3335
C47 C 0.1226(5) 0.2685(2) 0.28017(16)
C48 C 0.0302(5) 0.1653(3) 0.2445(2)
H63 H 0.0258 0.1844 0.2151
H64 H -0.0633 0.1740 0.2601
H65 H 0.0450 0.1184 0.2421
C49 C 0.0989(5) 0.1106(2) 0.08542(16)
H66 H 0.0357 0.0866 0.1060
H67 H 0.0396 0.1237 0.0599
H68 H 0.1387 0.1493 0.1000
C50 C 0.3301(5) 0.1065(2) 0.03684(13)
H69 H 0.3892 0.0753 0.0193
H70 H 0.2637 0.1300 0.0163
C51 C 0.4391(4) 0.15619(18) 0.05788(12)
H71 H 0.3887 0.1754 0.0842
C52 C 0.5934(4) 0.13143(18) 0.07247(12)
C53 C 0.6769(4) 0.17190(18) 0.10736(12)
H72 H 0.6327 0.2158 0.1084
H73 H 0.7823 0.1765 0.0983
C54 C 0.6715(4) 0.14167(19) 0.15450(12)
H74 H 0.7587 0.1574 0.1714
H75 H 0.6804 0.0940 0.1519
C55 C 0.6590(5) 0.0779(2) 0.05552(14)
H76 H 0.6096 0.0535 0.0334
H77 H 0.7544 0.0648 0.0657
C56 C 0.5888(5) 0.0867(2) 0.24926(13)
H78 H 0.6117 0.1259 0.2661
H79 H 0.6803 0.0699 0.2359
H80 H 0.5465 0.0539 0.2689
loop_
_geom_bond_atom_site_label_1
_geom_bond_atom_site_label_2
_geom_bond_site_symmetry_1
_geom_bond_site_symmetry_2
O1 C6 1_555 1_555
O2 C11 1_555 1_555
O3 C9 1_555 1_555
O4 H1 1_555 1_555
O5 H2 1_555 1_555
C1 H3 1_555 1_555
H4 C1 1_555 1_555
H5 C1 1_555 1_555
C2 C1 1_555 1_555
C3 C2 1_555 1_555
H6 C3 1_555 1_555
C4 C3 1_555 1_555
H7 C4 1_555 1_555
C5 C4 1_555 1_555
H8 C5 1_555 1_555
H9 C5 1_555 1_555
C6 C5 1_555 1_555
C7 O1 1_555 1_555
C8 C7 1_555 1_555
C9 C8 1_555 1_555
C10 C9 1_555 1_555
C11 C10 1_555 1_555
C12 C11 1_555 1_555
H10 C12 1_555 1_555
C13 C12 1_555 1_555
H11 C13 1_555 1_555
H12 C13 1_555 1_555
H13 C13 1_555 1_555
C14 C12 1_555 1_555
H14 C14 1_555 1_555
H15 C14 1_555 1_555
H16 C14 1_555 1_555
C15 C6 1_555 1_555
H17 C15 1_555 1_555
C16 C15 1_555 1_555
H18 C16 1_555 1_555
H19 C16 1_555 1_555
C17 C7 1_555 1_555
C18 O4 1_555 1_555
C19 C15 1_555 1_555
H20 C19 1_555 1_555
H21 C19 1_555 1_555
C20 C19 1_555 1_555
H22 C20 1_555 1_555
H23 C20 1_555 1_555
C21 C20 1_555 1_555
C22 O5 1_555 1_555
H24 C22 1_555 1_555
C23 C2 1_555 1_555
H25 C23 1_555 1_555
H26 C23 1_555 1_555
C24 C2 1_555 1_555
H27 C24 1_555 1_555
H28 C24 1_555 1_555
H29 C24 1_555 1_555
C25 C21 1_555 1_555
H30 C25 1_555 1_555
H31 C25 1_555 1_555
C26 C6 1_555 1_555
H32 C26 1_555 1_555
H33 C26 1_555 1_555
H34 C26 1_555 1_555
C27 C8 1_555 1_555
H35 C27 1_555 1_555
H36 C27 1_555 1_555
H37 C27 1_555 1_555
C28 C8 1_555 1_555
H38 C28 1_555 1_555
H39 C28 1_555 1_555
H40 C28 1_555 1_555
O6 C40 1_555 1_555
O7 H41 1_555 1_555
O8 C34 1_555 1_555
O9 C47 1_555 1_555
O10 H42 1_555 1_555
C29 H43 1_555 1_555
H44 C29 1_555 1_555
H45 C29 1_555 1_555
C30 C29 1_555 1_555
C31 C30 1_555 1_555
H46 C31 1_555 1_555
C32 C31 1_555 1_555
H47 C32 1_555 1_555
C33 C32 1_555 1_555
H48 C33 1_555 1_555
H49 C33 1_555 1_555
C34 C33 1_555 1_555
C35 C34 1_555 1_555
H50 C35 1_555 1_555
C36 C35 1_555 1_555
H51 C36 1_555 1_555
H52 C36 1_555 1_555
C37 C36 1_555 1_555
C38 O7 1_555 1_555
C39 C38 1_555 1_555
C40 C39 1_555 1_555
C41 C40 1_555 1_555
H53 C41 1_555 1_555
C42 C41 1_555 1_555
H54 C42 1_555 1_555
H55 C42 1_555 1_555
H56 C42 1_555 1_555
C43 C41 1_555 1_555
H57 C43 1_555 1_555
H58 C43 1_555 1_555
H59 C43 1_555 1_555
C44 O8 1_555 1_555
C45 C44 1_555 1_555
C46 C45 1_555 1_555
H60 C46 1_555 1_555
H61 C46 1_555 1_555
H62 C46 1_555 1_555
C47 C39 1_555 1_555
C48 C45 1_555 1_555
H63 C48 1_555 1_555
H64 C48 1_555 1_555
H65 C48 1_555 1_555
C49 C30 1_555 1_555
H66 C49 1_555 1_555
H67 C49 1_555 1_555
H68 C49 1_555 1_555
C50 C30 1_555 1_555
H69 C50 1_555 1_555
H70 C50 1_555 1_555
C51 O10 1_555 1_555
H71 C51 1_555 1_555
C52 C51 1_555 1_555
C53 C52 1_555 1_555
H72 C53 1_555 1_555
H73 C53 1_555 1_555
C54 C35 1_555 1_555
H74 C54 1_555 1_555
H75 C54 1_555 1_555
C55 C52 1_555 1_555
H76 C55 1_555 1_555
H77 C55 1_555 1_555
C56 C34 1_555 1_555
H78 C56 1_555 1_555
H79 C56 1_555 1_555
H80 C56 1_555 1_555
C10 C18 1_555 1_555
C16 C17 1_555 1_555
C17 C18 1_555 1_555
C21 C22 1_555 1_555
C22 C23 1_555 1_555
C37 C38 1_555 1_555
C37 C44 1_555 1_555
C45 C47 1_555 1_555
C50 C51 1_555 1_555
C53 C54 1_555 1_555

#END
