
#######################################################################
#
#                 Cambridge Crystallographic Data Centre
#                                CCDC 
#
#######################################################################
#
# If this CIF has been generated from an entry in the Cambridge 
# Structural Database, then it will include bibliographic, chemical, 
# crystal, experimental, refinement or atomic coordinate data resulting 
# from the CCDC's data processing and validation procedures.
#
#######################################################################

data_IMONON
_chemical_formula_moiety         'C28 H31 N1 O5'
_chemical_name_systematic        
'Methyl 2-N,N-dibenzylamino-4,6-O-benzylidene-2-deoxy-\b-D-glucopyranoside'
_symmetry_cell_setting           monoclinic
_symmetry_space_group_name_H-M   'P 21'
_symmetry_Int_Tables_number      4
_space_group_name_Hall           'P 2yb'
loop_
_symmetry_equiv_pos_site_id
_symmetry_equiv_pos_as_xyz
1 x,y,z
2 -x,1/2+y,-z
_cell_length_a                   10.073(1)
_cell_length_b                   19.170(1)
_cell_length_c                   13.434(1)
_cell_angle_alpha                90
_cell_angle_beta                 105.60(1)
_cell_angle_gamma                90
_cell_volume                     2498.54
_exptl_crystal_colour            colorless
_exptl_crystal_description       prism
_chemical_melting_point          136-137deg.C
_cell_formula_units_Z            4
loop_
_atom_site_label
_atom_site_type_symbol
_atom_site_fract_x
_atom_site_fract_y
_atom_site_fract_z
O1 O 0.0440(2) 0.00181(10) 0.36636(14)
O2 O 0.0145(3) -0.05267(10) 0.61859(15)
O3 O -0.00613(19) 0.06924(10) 0.60811(13)
O4 O -0.0386(2) 0.19408(11) 0.48024(15)
H1 H -0.021(4) 0.227(2) 0.438(3)
O5 O 0.0919(2) 0.05114(10) 0.22516(15)
N1 N 0.0805(2) 0.19399(12) 0.31426(16)
C1 C 0.1058(3) 0.06098(15) 0.3307(2)
H2 H 0.2056 0.0639 0.3688
C2 C 0.0320(3) 0.12782(14) 0.34823(19)
H3 H -0.0673 0.1225 0.3096
C3 C 0.0385(3) 0.13494(14) 0.4644(2)
H4 H 0.1368 0.1407 0.5051
C4 C -0.0190(3) 0.06892(15) 0.4988(2)
H5 H -0.1185 0.0641 0.4604
C5 C 0.0607(3) 0.00634(15) 0.4748(2)
H6 H 0.1606 0.0120 0.5112
C6 C 0.1751(3) -0.00553(16) 0.2063(2)
H7 H 0.2721 0.0033 0.2419
H8 H 0.1645 -0.0097 0.1318
H9 H 0.1453 -0.0490 0.2321
C7 C 0.0074(4) -0.06039(16) 0.5108(2)
H10 H -0.0890 -0.0688 0.4705
H11 H 0.0642 -0.1005 0.5007
C8 C -0.0621(3) 0.00580(16) 0.6350(2)
H12 H -0.1590 0.0009 0.5912
C9 C 0.2333(3) 0.19953(14) 0.3425(2)
H13 H 0.2689 0.1733 0.2916
H14 H 0.2716 0.1779 0.4111
C10 C 0.0230(3) 0.20979(15) 0.2036(2)
H15 H 0.0488 0.1719 0.1624
H16 H 0.0653 0.2534 0.1872
C11 C 0.2813(3) 0.27430(13) 0.3457(2)
C12 C 0.3198(3) 0.30404(15) 0.2621(2)
H17 H 0.3154 0.2770 0.2020
C13 C 0.3641(3) 0.37281(16) 0.2672(2)
H18 H 0.3883 0.3930 0.2099
C14 C 0.3733(3) 0.41229(15) 0.3552(2)
H19 H 0.4039 0.4593 0.3584
C15 C 0.3379(3) 0.38256(15) 0.4386(2)
H20 H 0.3457 0.4093 0.4995
C16 C 0.2908(3) 0.31419(15) 0.4340(2)
H21 H 0.2653 0.2946 0.4911
C17 C -0.1317(3) 0.21794(14) 0.1709(2)
C18 C -0.2134(3) 0.16928(17) 0.1052(2)
H22 H -0.1717 0.1293 0.0848
C19 C -0.3555(3) 0.17850(19) 0.0690(2)
H23 H -0.4097 0.1453 0.0231
C20 C -0.4167(3) 0.23587(19) 0.0998(3)
H24 H -0.5137 0.2420 0.0756
C21 C -0.3370(4) 0.28421(19) 0.1661(3)
H25 H -0.3795 0.3237 0.1873
C22 C -0.1943(3) 0.27547(16) 0.2021(2)
H26 H -0.1403 0.3087 0.2480
C23 C -0.0635(3) 0.00789(16) 0.7468(2)
C24 C -0.1401(3) 0.05965(19) 0.7787(2)
H27 H -0.1862 0.0940 0.7308
C25 C -0.1491(3) 0.0615(2) 0.8803(3)
H28 H -0.1992 0.0976 0.9023
C26 C -0.0849(5) 0.0106(2) 0.9485(3)
H29 H -0.0925 0.0111 1.0174
C27 C -0.0106(6) -0.0409(2) 0.9174(3)
H30 H 0.0325 -0.0762 0.9649
C28 C 0.0021(5) -0.04192(19) 0.8166(3)
H31 H 0.0549 -0.0772 0.7955
O6 O 0.35721(19) 0.12785(11) 0.87440(14)
O7 O 0.4959(2) 0.06761(12) 0.66715(16)
O8 O 0.37509(18) 0.17049(10) 0.61321(13)
O9 O 0.2323(2) 0.29049(11) 0.66542(16)
H32 H 0.178(3) 0.3109(19) 0.682(3)
O10 O 0.24933(19) 0.17768(10) 0.98533(13)
C29 C 0.2451(3) 0.11543(16) 1.0443(2)
H33 H 0.1539 0.0938 1.0203
H34 H 0.2629 0.1275 1.1176
H35 H 0.3155 0.0826 1.0353
N2 N 0.0975(2) 0.27547(12) 0.82300(16)
C30 C 0.2350(3) 0.16339(14) 0.88102(19)
H36 H 0.1520 0.1336 0.8524
C31 C 0.2208(2) 0.23340(14) 0.82335(19)
H37 H 0.3026 0.2621 0.8591
C32 C 0.2289(3) 0.22363(14) 0.7112(2)
H38 H 0.1468 0.1968 0.6709
C33 C 0.3584(3) 0.18376(14) 0.71456(19)
H39 H 0.4392 0.2114 0.7548
C34 C 0.3554(3) 0.11463(15) 0.7696(2)
H40 H 0.2705 0.0879 0.7345
C35 C 0.4828(4) 0.0726(2) 0.7707(2)
H41 H 0.5653 0.0952 0.8162
H42 H 0.4745 0.0252 0.7978
C36 C 0.5016(3) 0.13397(16) 0.6238(2)
H43 H 0.5785 0.1613 0.6700
C37 C 0.1195(3) 0.32333(14) 0.9122(2)
H44 H 0.1544 0.2967 0.9771
H45 H 0.0304 0.3447 0.9133
C38 C -0.0281(3) 0.23258(15) 0.8105(2)
H46 H -0.0236 0.2084 0.8765
H47 H -0.0305 0.1965 0.7574
C39 C 0.2206(3) 0.38006(13) 0.9063(2)
C40 C 0.3467(3) 0.38630(16) 0.9794(2)
H48 H 0.3707 0.3538 1.0348
C41 C 0.4389(3) 0.43894(18) 0.9730(3)
H49 H 0.5246 0.4428 1.0240
C42 C 0.4046(3) 0.48630(17) 0.8916(3)
H50 H 0.4672 0.5223 0.8866
C43 C 0.2794(3) 0.48073(16) 0.8178(2)
H51 H 0.2561 0.5132 0.7624
C44 C 0.1881(3) 0.42805(14) 0.8248(2)
H52 H 0.1024 0.4245 0.7737
C45 C -0.1592(3) 0.27505(15) 0.7797(2)
C46 C -0.2395(3) 0.28561(16) 0.8483(3)
H53 H -0.2099 0.2672 0.9163
C47 C -0.3623(3) 0.32288(18) 0.8184(3)
H54 H -0.4151 0.3305 0.8663
C48 C -0.4073(4) 0.34872(18) 0.7191(3)
H55 H -0.4924 0.3731 0.6982
C49 C -0.3295(4) 0.33925(18) 0.6496(3)
H56 H -0.3603 0.3577 0.5816
C50 C -0.2041(3) 0.30243(16) 0.6799(3)
H57 H -0.1503 0.2963 0.6324
C51 C 0.5288(3) 0.12604(16) 0.5187(2)
C52 C 0.5771(3) 0.18322(16) 0.4766(2)
H58 H 0.5913 0.2260 0.5136
C53 C 0.6048(3) 0.17902(18) 0.3813(2)
H59 H 0.6375 0.2188 0.3529
C54 C 0.5850(3) 0.11668(17) 0.3279(2)
H60 H 0.6041 0.1136 0.2625
C55 C 0.5367(3) 0.05873(17) 0.3692(2)
H61 H 0.5235 0.0159 0.3323
C56 C 0.5078(3) 0.06314(16) 0.4647(2)
H62 H 0.4739 0.0236 0.4929
loop_
_geom_bond_atom_site_label_1
_geom_bond_atom_site_label_2
_geom_bond_site_symmetry_1
_geom_bond_site_symmetry_2
O1 C1 1_555 1_555
O2 C7 1_555 1_555
O3 C4 1_555 1_555
O4 H1 1_555 1_555
O5 C1 1_555 1_555
N1 C2 1_555 1_555
C1 H2 1_555 1_555
C2 C1 1_555 1_555
H3 C2 1_555 1_555
C3 O4 1_555 1_555
H4 C3 1_555 1_555
C4 C3 1_555 1_555
H5 C4 1_555 1_555
C5 O1 1_555 1_555
H6 C5 1_555 1_555
C6 O5 1_555 1_555
H7 C6 1_555 1_555
H8 C6 1_555 1_555
H9 C6 1_555 1_555
C7 C5 1_555 1_555
H10 C7 1_555 1_555
H11 C7 1_555 1_555
C8 O2 1_555 1_555
H12 C8 1_555 1_555
C9 N1 1_555 1_555
H13 C9 1_555 1_555
H14 C9 1_555 1_555
C10 N1 1_555 1_555
H15 C10 1_555 1_555
H16 C10 1_555 1_555
C11 C9 1_555 1_555
C12 C11 1_555 1_555
H17 C12 1_555 1_555
C13 C12 1_555 1_555
H18 C13 1_555 1_555
C14 C13 1_555 1_555
H19 C14 1_555 1_555
C15 C14 1_555 1_555
H20 C15 1_555 1_555
C16 C11 1_555 1_555
H21 C16 1_555 1_555
C17 C10 1_555 1_555
C18 C17 1_555 1_555
H22 C18 1_555 1_555
C19 C18 1_555 1_555
H23 C19 1_555 1_555
C20 C19 1_555 1_555
H24 C20 1_555 1_555
C21 C20 1_555 1_555
H25 C21 1_555 1_555
C22 C17 1_555 1_555
H26 C22 1_555 1_555
C23 C8 1_555 1_555
C24 C23 1_555 1_555
H27 C24 1_555 1_555
C25 C24 1_555 1_555
H28 C25 1_555 1_555
C26 C25 1_555 1_555
H29 C26 1_555 1_555
C27 C26 1_555 1_555
H30 C27 1_555 1_555
C28 C23 1_555 1_555
H31 C28 1_555 1_555
O6 C30 1_555 1_555
O7 C35 1_555 1_555
O8 C33 1_555 1_555
O9 H32 1_555 1_555
O10 C29 1_555 1_555
C29 H33 1_555 1_555
H34 C29 1_555 1_555
H35 C29 1_555 1_555
N2 C31 1_555 1_555
C30 O10 1_555 1_555
H36 C30 1_555 1_555
C31 C30 1_555 1_555
H37 C31 1_555 1_555
C32 O9 1_555 1_555
H38 C32 1_555 1_555
C33 C32 1_555 1_555
H39 C33 1_555 1_555
C34 O6 1_555 1_555
H40 C34 1_555 1_555
C35 C34 1_555 1_555
H41 C35 1_555 1_555
H42 C35 1_555 1_555
C36 O7 1_555 1_555
H43 C36 1_555 1_555
C37 N2 1_555 1_555
H44 C37 1_555 1_555
H45 C37 1_555 1_555
C38 N2 1_555 1_555
H46 C38 1_555 1_555
H47 C38 1_555 1_555
C39 C37 1_555 1_555
C40 C39 1_555 1_555
H48 C40 1_555 1_555
C41 C40 1_555 1_555
H49 C41 1_555 1_555
C42 C41 1_555 1_555
H50 C42 1_555 1_555
C43 C42 1_555 1_555
H51 C43 1_555 1_555
C44 C39 1_555 1_555
H52 C44 1_555 1_555
C45 C38 1_555 1_555
C46 C45 1_555 1_555
H53 C46 1_555 1_555
C47 C46 1_555 1_555
H54 C47 1_555 1_555
C48 C47 1_555 1_555
H55 C48 1_555 1_555
C49 C48 1_555 1_555
H56 C49 1_555 1_555
C50 C45 1_555 1_555
H57 C50 1_555 1_555
C51 C36 1_555 1_555
C52 C51 1_555 1_555
H58 C52 1_555 1_555
C53 C52 1_555 1_555
H59 C53 1_555 1_555
C54 C53 1_555 1_555
H60 C54 1_555 1_555
C55 C54 1_555 1_555
H61 C55 1_555 1_555
C56 C51 1_555 1_555
H62 C56 1_555 1_555
O3 C8 1_555 1_555
C2 C3 1_555 1_555
C4 C5 1_555 1_555
C15 C16 1_555 1_555
C21 C22 1_555 1_555
C27 C28 1_555 1_555
O8 C36 1_555 1_555
C31 C32 1_555 1_555
C33 C34 1_555 1_555
C43 C44 1_555 1_555
C49 C50 1_555 1_555
C55 C56 1_555 1_555

#END
