
#######################################################################
#
#                 Cambridge Crystallographic Data Centre
#                                CCDC 
#
#######################################################################
#
# If this CIF has been generated from an entry in the Cambridge 
# Structural Database, then it will include bibliographic, chemical, 
# crystal, experimental, refinement or atomic coordinate data resulting 
# from the CCDC's data processing and validation procedures.
#
#######################################################################

data_IMOZER
_chemical_formula_moiety         'C23 H20 N2 O4 S2'
_chemical_name_systematic        
N-((6-Methylquinolin-8-yl)methyl)-N-(phenylsulfonyl)benzenesulfonamide
_symmetry_cell_setting           monoclinic
_symmetry_space_group_name_H-M   'P 21/c'
_symmetry_Int_Tables_number      14
_space_group_name_Hall           '-P 2ybc'
loop_
_symmetry_equiv_pos_site_id
_symmetry_equiv_pos_as_xyz
1 x,y,z
2 -x,1/2+y,1/2-z
3 -x,-y,-z
4 x,1/2-y,1/2+z
_cell_length_a                   8.4625(4)
_cell_length_b                   22.0335(9)
_cell_length_c                   33.7885(14)
_cell_angle_alpha                90
_cell_angle_beta                 90.0830(10)
_cell_angle_gamma                90
_cell_volume                     6300.15
_exptl_crystal_colour            colorless
_exptl_crystal_description       block
_cell_formula_units_Z            12
loop_
_atom_site_label
_atom_site_type_symbol
_atom_site_fract_x
_atom_site_fract_y
_atom_site_fract_z
S1 S 0.1511(2) 0.73792(9) 0.63151(6)
S2 S 0.1301(2) 0.60502(9) 0.63031(6)
O1 O 0.0712(6) 0.7818(3) 0.65462(18)
O2 O 0.1039(7) 0.7275(3) 0.59173(15)
O3 O 0.1454(7) 0.5619(3) 0.66108(18)
O4 O 0.2428(6) 0.6075(3) 0.59921(17)
N1 N 0.2181(8) 0.6347(3) 0.7751(2)
N2 N 0.1303(7) 0.6722(3) 0.65498(17)
C1 C 0.0289(9) 0.6551(4) 0.7241(2)
C2 C -0.1229(9) 0.6598(4) 0.7124(3)
H1 H -0.1440 0.6755 0.6874
C3 C -0.2522(10) 0.6420(4) 0.7364(3)
C4 C -0.2162(11) 0.6196(4) 0.7731(3)
H2 H -0.2984 0.6058 0.7890
C5 C -0.0601(10) 0.6162(4) 0.7882(3)
C6 C 0.0629(8) 0.6354(3) 0.7642(2)
C7 C 0.2475(13) 0.6191(5) 0.8135(3)
H3 H 0.3511 0.6203 0.8227
C8 C 0.1314(12) 0.6018(5) 0.8388(3)
H4 H 0.1560 0.5915 0.8648
C9 C -0.0226(13) 0.5996(5) 0.8259(3)
H5 H -0.1018 0.5866 0.8430
C10 C -0.0587(9) 0.5975(3) 0.6090(2)
C11 C -0.0817(10) 0.6123(4) 0.5700(2)
H6 H 0.0010 0.6278 0.5550
C12 C -0.2273(12) 0.6040(4) 0.5535(3)
H7 H -0.2438 0.6123 0.5268
C13 C -0.3516(10) 0.5830(4) 0.5770(3)
H8 H -0.4520 0.5789 0.5661
C14 C -0.3278(10) 0.5686(4) 0.6154(3)
H9 H -0.4113 0.5537 0.6304
C15 C -0.1819(10) 0.5756(4) 0.6326(3)
H10 H -0.1654 0.5660 0.6591
C16 C 0.3537(9) 0.7554(3) 0.6335(2)
C17 C 0.4095(10) 0.7953(4) 0.6614(2)
H11 H 0.3404 0.8132 0.6793
C18 C 0.5681(11) 0.8088(5) 0.6627(3)
H12 H 0.6063 0.8368 0.6809
C19 C 0.6692(11) 0.7810(4) 0.6370(3)
H13 H 0.7766 0.7899 0.6380
C20 C 0.6152(10) 0.7404(4) 0.6099(3)
H14 H 0.6859 0.7215 0.5929
C21 C 0.4555(10) 0.7270(4) 0.6076(3)
H15 H 0.4179 0.6994 0.5890
C22 C -0.4179(11) 0.6463(5) 0.7217(3)
H16 H -0.4891 0.6329 0.7419
H17 H -0.4301 0.6212 0.6987
H18 H -0.4412 0.6877 0.7149
C23 C 0.1639(10) 0.6719(5) 0.6985(2)
H19 H 0.2498 0.6438 0.7036
H20 H 0.1999 0.7121 0.7061
S3 S 0.2946(2) 0.69055(9) 0.29488(6)
S4 S 0.2892(2) 0.56227(10) 0.26999(6)
O5 O 0.2484(7) 0.6966(3) 0.25487(15)
O6 O 0.2079(6) 0.7201(3) 0.32535(16)
O7 O 0.3931(7) 0.5814(3) 0.23938(18)
O8 O 0.3191(7) 0.5082(3) 0.2913(2)
N3 N 0.3721(10) 0.5791(3) 0.4252(3)
N4 N 0.2851(7) 0.6163(3) 0.30496(18)
C24 C 0.0352(13) 0.5890(5) 0.3601(3)
H21 H 0.0162 0.5978 0.3336
C25 C -0.0975(12) 0.5763(5) 0.3855(3)
C26 C -0.0641(13) 0.5633(5) 0.4240(4)
H22 H -0.1464 0.5526 0.4408
C27 C 0.0995(14) 0.5656(5) 0.4401(3)
C28 C 0.1310(16) 0.5580(6) 0.4775(4)
H23 H 0.0472 0.5512 0.4947
C29 C 0.2734(15) 0.5594(5) 0.4921(3)
H24 H 0.2891 0.5541 0.5191
C30 C 0.4021(15) 0.5688(5) 0.4672(4)
H25 H 0.5047 0.5686 0.4772
C31 C 0.2105(13) 0.5767(3) 0.4161(3)
C32 C 0.1893(11) 0.5886(5) 0.3736(3)
C33 C 0.0976(9) 0.5589(3) 0.2503(2)
C34 C 0.0600(11) 0.5912(4) 0.2172(2)
H26 H 0.1359 0.6152 0.2049
C35 C -0.0916(12) 0.5883(4) 0.2020(3)
H27 H -0.1183 0.6095 0.1792
C36 C -0.2044(11) 0.5527(4) 0.2217(3)
H28 H -0.3073 0.5511 0.2120
C37 C -0.1655(11) 0.5208(4) 0.2545(3)
H29 H -0.2416 0.4973 0.2671
C38 C -0.0154(10) 0.5228(4) 0.2692(3)
H30 H 0.0115 0.5006 0.2916
C39 C 0.4960(9) 0.7103(4) 0.3005(2)
C40 C 0.5418(10) 0.7441(4) 0.3329(2)
H31 H 0.4689 0.7572 0.3515
C41 C 0.6999(11) 0.7575(5) 0.3364(3)
H32 H 0.7335 0.7805 0.3579
C42 C 0.8088(11) 0.7382(4) 0.3096(3)
H33 H 0.9148 0.7482 0.3128
C43 C 0.7617(12) 0.7044(5) 0.2784(3)
H34 H 0.8358 0.6907 0.2601
C44 C 0.6054(10) 0.6903(4) 0.2735(3)
H35 H 0.5733 0.6672 0.2519
C45 C 0.3189(15) 0.5996(5) 0.3478(3)
H36 H 0.3844 0.5635 0.3477
H37 H 0.3815 0.6320 0.3592
C46 C -0.2578(18) 0.5800(5) 0.3716(4)
H38 H -0.3285 0.5693 0.3927
H39 H -0.2724 0.5525 0.3499
H40 H -0.2797 0.6207 0.3631
S5 S 0.4287(2) 0.75049(9) 0.97285(6)
S6 S 0.4357(3) 0.62073(10) 0.95103(7)
O9 O 0.4693(8) 0.7813(3) 1.00802(18)
O10 O 0.5219(7) 0.7577(3) 0.93843(18)
O11 O 0.3463(7) 0.5722(3) 0.9673(2)
O12 O 0.3934(8) 0.6464(3) 0.91420(19)
N5 N 0.3281(10) 0.5854(4) 1.0908(3)
N6 N 0.4329(7) 0.6753(3) 0.98496(18)
C47 C 0.5196(10) 0.6326(4) 1.0489(3)
C48 C 0.6735(10) 0.6430(5) 1.0409(3)
H41 H 0.6974 0.6692 1.0202
C49 C 0.8000(11) 0.6168(5) 1.0619(3)
C50 C 0.7609(12) 0.5760(5) 1.0907(3)
H42 H 0.8407 0.5558 1.1043
C51 C 0.5989(12) 0.5638(4) 1.1002(3)
C52 C 0.5623(16) 0.5248(5) 1.1306(3)
H43 H 0.6427 0.5029 1.1428
C53 C 0.415(2) 0.5177(6) 1.1428(3)
H44 H 0.3901 0.4928 1.1641
C54 C 0.2957(15) 0.5501(6) 1.1218(4)
H45 H 0.1912 0.5464 1.1300
C55 C 0.4840(12) 0.5911(4) 1.0817(2)
C56 C 0.6355(10) 0.5977(4) 0.9492(2)
C57 C 0.7468(12) 0.6356(4) 0.9330(3)
H46 H 0.7175 0.6726 0.9220
C58 C 0.9048(12) 0.6174(5) 0.9333(3)
H47 H 0.9822 0.6429 0.9230
C59 C 0.9453(11) 0.5628(4) 0.9485(3)
H48 H 1.0503 0.5503 0.9479
C60 C 0.8329(13) 0.5257(4) 0.9647(3)
H49 H 0.8620 0.4884 0.9753
C61 C 0.6762(10) 0.5436(4) 0.9654(3)
H50 H 0.5999 0.5188 0.9769
C62 C 0.2288(9) 0.7655(3) 0.9618(2)
C63 C 0.1238(11) 0.7738(4) 0.9919(3)
H51 H 0.1574 0.7731 1.0181
C64 C -0.0334(10) 0.7833(4) 0.9827(3)
H52 H -0.1070 0.7880 1.0029
C65 C -0.0813(10) 0.7857(4) 0.9439(3)
H53 H -0.1868 0.7931 0.9378
C66 C 0.0249(10) 0.7773(4) 0.9142(3)
H54 H -0.0086 0.7789 0.8880
C67 C 0.1817(9) 0.7665(4) 0.9227(2)
H55 H 0.2542 0.7600 0.9025
C68 C 0.3894(13) 0.6589(5) 1.0269(3)
H56 H 0.3535 0.6951 1.0405
H57 H 0.3025 0.6302 1.0265
C69 C 0.9620(12) 0.6345(5) 1.0522(3)
H58 H 1.0344 0.6133 1.0692
H59 H 0.9741 0.6774 1.0559
H60 H 0.9839 0.6243 1.0251
loop_
_geom_bond_atom_site_label_1
_geom_bond_atom_site_label_2
_geom_bond_site_symmetry_1
_geom_bond_site_symmetry_2
S1 O1 1_555 1_555
S2 O3 1_555 1_555
O2 S1 1_555 1_555
O4 S2 1_555 1_555
N1 C6 1_555 1_555
N2 S1 1_555 1_555
C1 C2 1_555 1_555
C2 H1 1_555 1_555
C3 C2 1_555 1_555
C4 C3 1_555 1_555
H2 C4 1_555 1_555
C5 C4 1_555 1_555
C6 C1 1_555 1_555
C7 N1 1_555 1_555
H3 C7 1_555 1_555
C8 C7 1_555 1_555
H4 C8 1_555 1_555
C9 C5 1_555 1_555
H5 C9 1_555 1_555
C10 S2 1_555 1_555
C11 C10 1_555 1_555
H6 C11 1_555 1_555
C12 C11 1_555 1_555
H7 C12 1_555 1_555
C13 C12 1_555 1_555
H8 C13 1_555 1_555
C14 C13 1_555 1_555
H9 C14 1_555 1_555
C15 C10 1_555 1_555
H10 C15 1_555 1_555
C16 S1 1_555 1_555
C17 C16 1_555 1_555
H11 C17 1_555 1_555
C18 C17 1_555 1_555
H12 C18 1_555 1_555
C19 C18 1_555 1_555
H13 C19 1_555 1_555
C20 C19 1_555 1_555
H14 C20 1_555 1_555
C21 C16 1_555 1_555
H15 C21 1_555 1_555
C22 C3 1_555 1_555
H16 C22 1_555 1_555
H17 C22 1_555 1_555
H18 C22 1_555 1_555
C23 N2 1_555 1_555
H19 C23 1_555 1_555
H20 C23 1_555 1_555
S3 O5 1_555 1_555
S4 O7 1_555 1_555
O6 S3 1_555 1_555
O8 S4 1_555 1_555
N3 C30 1_555 1_555
N4 S3 1_555 1_555
C24 H21 1_555 1_555
C25 C24 1_555 1_555
C26 C25 1_555 1_555
H22 C26 1_555 1_555
C27 C26 1_555 1_555
C28 C27 1_555 1_555
H23 C28 1_555 1_555
C29 C28 1_555 1_555
H24 C29 1_555 1_555
C30 C29 1_555 1_555
H25 C30 1_555 1_555
C31 N3 1_555 1_555
C32 C24 1_555 1_555
C33 S4 1_555 1_555
C34 C33 1_555 1_555
H26 C34 1_555 1_555
C35 C34 1_555 1_555
H27 C35 1_555 1_555
C36 C35 1_555 1_555
H28 C36 1_555 1_555
C37 C36 1_555 1_555
H29 C37 1_555 1_555
C38 C33 1_555 1_555
H30 C38 1_555 1_555
C39 S3 1_555 1_555
C40 C39 1_555 1_555
H31 C40 1_555 1_555
C41 C40 1_555 1_555
H32 C41 1_555 1_555
C42 C41 1_555 1_555
H33 C42 1_555 1_555
C43 C42 1_555 1_555
H34 C43 1_555 1_555
C44 C39 1_555 1_555
H35 C44 1_555 1_555
C45 N4 1_555 1_555
H36 C45 1_555 1_555
H37 C45 1_555 1_555
C46 C25 1_555 1_555
H38 C46 1_555 1_555
H39 C46 1_555 1_555
H40 C46 1_555 1_555
S5 O9 1_555 1_555
S6 O11 1_555 1_555
O10 S5 1_555 1_555
O12 S6 1_555 1_555
N5 C54 1_555 1_555
N6 S5 1_555 1_555
C47 C48 1_555 1_555
C48 H41 1_555 1_555
C49 C48 1_555 1_555
C50 C49 1_555 1_555
H42 C50 1_555 1_555
C51 C50 1_555 1_555
C52 C51 1_555 1_555
H43 C52 1_555 1_555
C53 C52 1_555 1_555
H44 C53 1_555 1_555
C54 C53 1_555 1_555
H45 C54 1_555 1_555
C55 N5 1_555 1_555
C56 S6 1_555 1_555
C57 C56 1_555 1_555
H46 C57 1_555 1_555
C58 C57 1_555 1_555
H47 C58 1_555 1_555
C59 C58 1_555 1_555
H48 C59 1_555 1_555
C60 C59 1_555 1_555
H49 C60 1_555 1_555
C61 C56 1_555 1_555
H50 C61 1_555 1_555
C62 S5 1_555 1_555
C63 C62 1_555 1_555
H51 C63 1_555 1_555
C64 C63 1_555 1_555
H52 C64 1_555 1_555
C65 C64 1_555 1_555
H53 C65 1_555 1_555
C66 C65 1_555 1_555
H54 C66 1_555 1_555
C67 C62 1_555 1_555
H55 C67 1_555 1_555
C68 N6 1_555 1_555
H56 C68 1_555 1_555
H57 C68 1_555 1_555
C69 C49 1_555 1_555
H58 C69 1_555 1_555
H59 C69 1_555 1_555
H60 C69 1_555 1_555
S2 N2 1_555 1_555
C1 C23 1_555 1_555
C5 C6 1_555 1_555
C8 C9 1_555 1_555
C14 C15 1_555 1_555
C20 C21 1_555 1_555
S4 N4 1_555 1_555
C27 C31 1_555 1_555
C31 C32 1_555 1_555
C32 C45 1_555 1_555
C37 C38 1_555 1_555
C43 C44 1_555 1_555
S6 N6 1_555 1_555
C47 C55 1_555 1_555
C47 C68 1_555 1_555
C51 C55 1_555 1_555
C60 C61 1_555 1_555
C66 C67 1_555 1_555

#END
