
#######################################################################
#
#                 Cambridge Crystallographic Data Centre
#                                CCDC 
#
#######################################################################
#
# If this CIF has been generated from an entry in the Cambridge 
# Structural Database, then it will include bibliographic, chemical, 
# crystal, experimental, refinement or atomic coordinate data resulting 
# from the CCDC's data processing and validation procedures.
#
#######################################################################

data_IMUMEK
_chemical_formula_moiety         'C4 H12 N1 1+,C6 F18 P1 1-'
_chemical_name_systematic        
'Tetramethylammonium trifluorotris(pentafluoroethyl)phosphate'
_symmetry_cell_setting           orthorhombic
_symmetry_space_group_name_H-M   'P n m a'
_symmetry_Int_Tables_number      62
_space_group_name_Hall           '-P 2ac 2n'
loop_
_symmetry_equiv_pos_site_id
_symmetry_equiv_pos_as_xyz
1 x,y,z
2 1/2-x,-y,1/2+z
3 -x,1/2+y,-z
4 1/2+x,1/2-y,1/2-z
5 -x,-y,-z
6 1/2+x,y,1/2-z
7 x,1/2-y,z
8 1/2-x,1/2+y,1/2+z
_cell_length_a                   18.972(2)
_cell_length_b                   11.8654(13)
_cell_length_c                   7.9166(9)
_cell_angle_alpha                90
_cell_angle_beta                 90
_cell_angle_gamma                90
_cell_volume                     1782.11
_exptl_crystal_colour            colorless
_exptl_crystal_description       block
_cell_formula_units_Z            4
loop_
_atom_site_label
_atom_site_type_symbol
_atom_site_fract_x
_atom_site_fract_y
_atom_site_fract_z
C1 C 0.39226(9) 0.08720(16) 0.1229(2)
C2 C 0.36684(10) 0.02235(16) -0.0344(2)
C3 C 0.29741(11) 0.2500 0.2644(3)
C4 C 0.30055(13) 0.2500 0.4607(3)
F1 F 0.33055(7) 0.2500 -0.03512(17)
F2 F 0.45057(7) 0.2500 0.00248(18)
F3 F 0.43232(7) 0.2500 0.29533(17)
F4 F 0.46190(6) 0.06058(10) 0.13797(14)
F5 F 0.36106(6) 0.03380(10) 0.25658(13)
F6 F 0.38426(7) -0.08717(10) -0.01948(16)
F7 F 0.39811(6) 0.06013(10) -0.17474(14)
F8 F 0.29779(6) 0.02822(10) -0.05440(15)
F9 F 0.25695(5) 0.15923(9) 0.22261(14)
F10 F 0.33324(6) 0.15946(11) 0.52024(14)
F11 F 0.23502(9) 0.2500 0.5216(2)
P1 P 0.38278(3) 0.2500 0.12696(7)
C1F C 0.39226(9) 0.41280(16) 0.1229(2)
C2F C 0.36684(10) 0.47765(16) -0.0344(2)
F4F F 0.46190(6) 0.43942(10) 0.13797(14)
F5F F 0.36106(6) 0.46620(10) 0.25658(13)
F6F F 0.38426(7) 0.58717(10) -0.01948(16)
F7F F 0.39811(6) 0.43987(10) -0.17474(14)
F8F F 0.29779(6) 0.47178(10) -0.05440(15)
F9F F 0.25695(5) 0.34077(9) 0.22261(14)
F10F F 0.33324(6) 0.34054(11) 0.52024(14)
C5 C 0.02739(14) 0.2500 0.8350(4)
C6 C 0.08612(10) 0.14754(18) 1.0621(3)
H1 H 0.0428 0.1482 1.1296
H2 H 0.1271 0.1470 1.1374
H3 H 0.0869 0.0801 0.9907
C7 C 0.15624(12) 0.2500 0.8538(3)
N1 N 0.08845(9) 0.2500 0.9534(2)
H4 H -0.0142(7) 0.2500 0.902(3)
H5 H 0.0351(7) 0.18258(4) 0.7728(7)
H6 H 0.1930(8) 0.2500 0.935(2)
H7 H 0.1527(6) 0.18259(4) 0.7895(5)
C6F C 0.08612(10) 0.35246(18) 1.0621(3)
H1F H 0.0428 0.3518 1.1296
H2F H 0.1271 0.3530 1.1374
H3F H 0.0869 0.4199 0.9907
H5F H 0.0351(7) 0.31742(4) 0.7728(7)
H7F H 0.1527(6) 0.31741(4) 0.7895(5)
loop_
_geom_bond_atom_site_label_1
_geom_bond_atom_site_label_2
_geom_bond_site_symmetry_1
_geom_bond_site_symmetry_2
C1 C2 1_555 1_555
C2 F6 1_555 1_555
C3 C4 1_555 1_555
C4 F10 1_555 1_555
F1 P1 1_555 1_555
F2 P1 1_555 1_555
F3 P1 1_555 1_555
F4 C1 1_555 1_555
F5 C1 1_555 1_555
F7 C2 1_555 1_555
F8 C2 1_555 1_555
F9 C3 1_555 1_555
F11 C4 1_555 1_555
P1 C1 1_555 1_555
C5 N1 1_555 1_555
C6 H1 1_555 1_555
H2 C6 1_555 1_555
H3 C6 1_555 1_555
C7 N1 1_555 1_555
N1 C6 1_555 1_555
H4 C5 1_555 1_555
H5 C5 1_555 1_555
H6 C7 1_555 1_555
H7 C7 1_555 1_555
C1F P1 1_555 1_555
C2F C1F 1_555 1_555
F4F C1F 1_555 1_555
F5F C1F 1_555 1_555
F6F C2F 1_555 1_555
F7F C2F 1_555 1_555
F8F C2F 1_555 1_555
F9F C3 1_555 1_555
F10F C4 1_555 1_555
C6F N1 1_555 1_555
H1F C6F 1_555 1_555
H2F C6F 1_555 1_555
H3F C6F 1_555 1_555
H5F C5 1_555 1_555
H7F C7 1_555 1_555
C3 P1 1_555 1_555

#END
