
#######################################################################
#
#                 Cambridge Crystallographic Data Centre
#                                CCDC 
#
#######################################################################
#
# If this CIF has been generated from an entry in the Cambridge 
# Structural Database, then it will include bibliographic, chemical, 
# crystal, experimental, refinement or atomic coordinate data resulting 
# from the CCDC's data processing and validation procedures.
#
#######################################################################

data_IMURAJ
_chemical_compound_source        'leaves of Croton tonkinensis gagnep'
_chemical_formula_moiety         'C22 H32 O5,H2 O1'
_chemical_name_systematic        
'ent-1\a-acetoxy-7\b,14\a-dihydroxy-kaur-16-en-15-on monohydrate'
_chemical_properties_biological  
'leaves prescribed for stomach ache; inhibitory effect on malaria parasites'
_symmetry_cell_setting           orthorhombic
_symmetry_space_group_name_H-M   'P 21 21 21'
_symmetry_Int_Tables_number      19
_space_group_name_Hall           'P 2ac 2ab'
loop_
_symmetry_equiv_pos_site_id
_symmetry_equiv_pos_as_xyz
1 x,y,z
2 1/2-x,-y,1/2+z
3 1/2+x,1/2-y,-z
4 -x,1/2+y,1/2-z
_cell_length_a                   7.0240(6)
_cell_length_b                   12.121(3)
_cell_length_c                   24.823(2)
_cell_angle_alpha                90
_cell_angle_beta                 90
_cell_angle_gamma                90
_cell_volume                     2113.38
_exptl_crystal_colour            colorless
_exptl_crystal_description       Cube
_chemical_melting_point          '97-98 deg.C'
_cell_formula_units_Z            4
loop_
_atom_site_label
_atom_site_type_symbol
_atom_site_fract_x
_atom_site_fract_y
_atom_site_fract_z
O1 O 0.8447(7) -0.1942(4) 0.09304(19)
O2 O 0.8293(7) 0.0520(5) 0.2487(2)
O3 O 0.7379(7) 0.2646(4) 0.1650(2)
O4 O 0.3985(8) 0.2273(5) 0.1991(2)
C1 C 0.6731(9) -0.1604(6) 0.0642(3)
C2 C 0.7113(10) -0.1662(7) 0.0038(3)
C3 C 0.7679(9) 0.0389(6) 0.0613(3)
O5 O 0.7630(9) -0.3725(5) 0.0871(3)
C4 C 0.8608(11) -0.0836(6) -0.0146(3)
C5 C 0.8640(12) -0.3013(7) 0.1046(3)
C6 C 0.6283(10) -0.0410(6) 0.1460(3)
C7 C 0.7542(10) 0.1562(6) 0.1439(3)
C8 C 0.4119(9) -0.0227(7) 0.0629(3)
C9 C 0.6698(11) 0.0570(6) 0.2316(3)
C10 C 0.4068(10) 0.1160(6) 0.1786(3)
C11 C 0.6482(12) 0.0794(7) -0.0370(3)
C12 C 0.6156(9) 0.0762(6) 0.1718(3)
C13 C 0.3296(11) 0.0359(8) 0.2212(3)
C14 C 0.4898(11) 0.0362(7) 0.2627(3)
C15 C 0.7300(10) 0.1555(6) 0.0841(3)
C16 C 1.0313(13) -0.3205(8) 0.1400(4)
C17 C 0.4932(11) -0.1230(6) 0.1754(3)
C18 C 0.6181(9) -0.0442(6) 0.0835(2)
C19 C 0.9867(12) 0.1046(8) -0.0130(3)
C20 C 0.8099(10) 0.0354(6) -0.0004(3)
C21 C 0.3022(11) -0.0764(8) 0.1963(3)
C22 C 0.4856(14) 0.0162(8) 0.3151(3)
H1 H 0.7512 0.3477 0.1566
H2 H 0.5697 -0.2087 0.0734
H3 H 0.7561 -0.2389 -0.0050
H4 H 0.5960 -0.1514 -0.0156
H5 H 0.8908 0.0204 0.0756
H6 H 0.9800 -0.1000 0.0026
H7 H 0.8757 -0.0882 -0.0530
H8 H 0.7583 -0.0617 0.1523
H9 H 0.8798 0.1286 0.1511
H10 H 0.3723 0.0496 0.0739
H11 H 0.3273 -0.0768 0.0779
H12 H 0.4089 -0.0275 0.0243
H13 H 0.3386 0.1130 0.1451
H14 H 0.6845 0.0733 -0.0742
H15 H 0.6243 0.1554 -0.0285
H16 H 0.5349 0.0369 -0.0308
H17 H 0.2142 0.0597 0.2384
H18 H 0.8174 0.2069 0.0682
H19 H 0.6019 0.1770 0.0757
H20 H 1.0409 -0.3979 0.1477
H21 H 1.0156 -0.2804 0.1731
H22 H 1.1452 -0.2962 0.1223
H23 H 0.4605 -0.1819 0.1513
H24 H 0.5567 -0.1526 0.2065
H25 H 1.0119 0.1021 -0.0510
H26 H 1.0945 0.0760 0.0063
H27 H 0.9641 0.1795 -0.0022
H28 H 0.2518 -0.1261 0.2229
H29 H 0.2153 -0.0715 0.1665
H30 H 0.3674 0.0019 0.3332
H31 H 0.6025 0.0175 0.3352
O6 O 0.0657(9) 0.3452(7) 0.2014(4)
loop_
_geom_bond_atom_site_label_1
_geom_bond_atom_site_label_2
_geom_bond_site_symmetry_1
_geom_bond_site_symmetry_2
O1 C1 1_555 1_555
O2 C9 1_555 1_555
O3 C7 1_555 1_555
O4 C10 1_555 1_555
C1 C2 1_555 1_555
C2 C4 1_555 1_555
C3 C15 1_555 1_555
O5 C5 1_555 1_555
C4 C20 1_555 1_555
C5 O1 1_555 1_555
C6 C12 1_555 1_555
C7 C12 1_555 1_555
C8 C18 1_555 1_555
C9 C12 1_555 1_555
C10 C12 1_555 1_555
C11 C20 1_555 1_555
C13 C10 1_555 1_555
C14 C9 1_555 1_555
C15 C7 1_555 1_555
C16 C5 1_555 1_555
C17 C6 1_555 1_555
C18 C1 1_555 1_555
C19 C20 1_555 1_555
C20 C3 1_555 1_555
C21 C13 1_555 1_555
C22 C14 1_555 1_555
H1 O3 1_555 1_555
H2 C1 1_555 1_555
H3 C2 1_555 1_555
H4 C2 1_555 1_555
H5 C3 1_555 1_555
H6 C4 1_555 1_555
H7 C4 1_555 1_555
H8 C6 1_555 1_555
H9 C7 1_555 1_555
H10 C8 1_555 1_555
H11 C8 1_555 1_555
H12 C8 1_555 1_555
H13 C10 1_555 1_555
H14 C11 1_555 1_555
H15 C11 1_555 1_555
H16 C11 1_555 1_555
H17 C13 1_555 1_555
H18 C15 1_555 1_555
H19 C15 1_555 1_555
H20 C16 1_555 1_555
H21 C16 1_555 1_555
H22 C16 1_555 1_555
H23 C17 1_555 1_555
H24 C17 1_555 1_555
H25 C19 1_555 1_555
H26 C19 1_555 1_555
H27 C19 1_555 1_555
H28 C21 1_555 1_555
H29 C21 1_555 1_555
H30 C22 1_555 1_555
H31 C22 1_555 1_555
C3 C18 1_555 1_555
C6 C18 1_555 1_555
C13 C14 1_555 1_555
C17 C21 1_555 1_555

#END
