
#######################################################################
#
#                 Cambridge Crystallographic Data Centre
#                                CCDC 
#
#######################################################################
#
# If this CIF has been generated from an entry in the Cambridge 
# Structural Database, then it will include bibliographic, chemical, 
# crystal, experimental, refinement or atomic coordinate data resulting 
# from the CCDC's data processing and validation procedures.
#
#######################################################################

data_INAQET
_chemical_formula_moiety         'C35 H46 N2 O1'
_chemical_name_systematic        
2,6-bis(1-(2,6-Di-isopropylphenylimino)ethyl)-4-methylphenol
_symmetry_cell_setting           monoclinic
_symmetry_space_group_name_H-M   'P 21/c'
_symmetry_Int_Tables_number      14
_space_group_name_Hall           '-P 2ybc'
loop_
_symmetry_equiv_pos_site_id
_symmetry_equiv_pos_as_xyz
1 x,y,z
2 x,1/2-y,1/2+z
3 -x,-y,-z
4 -x,1/2+y,1/2-z
_cell_length_a                   12.1909(5)
_cell_length_b                   16.3324(6)
_cell_length_c                   15.9456(7)
_cell_angle_alpha                90
_cell_angle_beta                 96.990(2)
_cell_angle_gamma                90
_cell_volume                     3151.28
_exptl_crystal_colour            'pale yellow'
_exptl_crystal_description       block
_chemical_melting_point          '440-441 K'
_cell_formula_units_Z            4
loop_
_atom_site_label
_atom_site_type_symbol
_atom_site_fract_x
_atom_site_fract_y
_atom_site_fract_z
C1 C 0.91818(15) 0.24973(11) 0.21548(11)
C2 C 1.00908(16) 0.23654(11) 0.27624(12)
C3 C 1.05944(19) 0.30422(14) 0.31760(15)
H1 H 1.1208 0.2967 0.3576
C4 C 1.01978(19) 0.38217(13) 0.30017(16)
H2 H 1.0540 0.4269 0.3285
C5 C 0.92978(18) 0.39368(12) 0.24107(14)
H3 H 0.9040 0.4466 0.2297
C6 C 0.87581(16) 0.32846(11) 0.19754(12)
C7 C 1.05025(17) 0.15032(13) 0.29905(13)
H4 H 1.0337 0.1164 0.2484
C8 C 1.1744(2) 0.14598(16) 0.32520(17)
H5 H 1.2122 0.1723 0.2831
H6 H 1.1969 0.0897 0.3305
H7 H 1.1924 0.1732 0.3784
C9 C 0.9859(2) 0.11497(17) 0.36686(18)
H8 H 1.0047 0.1443 0.4188
H9 H 1.0044 0.0582 0.3753
H10 H 0.9081 0.1202 0.3492
C10 C 0.77541(17) 0.34484(12) 0.13410(14)
H11 H 0.7477 0.2919 0.1116
C11 C 0.8051(3) 0.39591(16) 0.06018(17)
H12 H 0.8332 0.4481 0.0805
H13 H 0.7403 0.4039 0.0203
H14 H 0.8604 0.3679 0.0331
C12 C 0.6832(2) 0.38559(17) 0.1757(2)
H15 H 0.6634 0.3513 0.2204
H16 H 0.6199 0.3934 0.1344
H17 H 0.7082 0.4377 0.1985
C13 C 0.87437(15) 0.15278(11) 0.10250(12)
C14 C 0.9473(2) 0.19293(14) 0.04596(15)
H18 H 0.9839 0.2389 0.0746
H19 H 0.9035 0.2113 -0.0046
H20 H 1.0015 0.1544 0.0316
C15 C 0.81318(14) 0.07803(10) 0.07248(11)
C16 C 0.74634(14) 0.03665(10) 0.12487(11)
C17 C 0.69143(15) -0.03583(10) 0.09663(11)
C18 C 0.70519(17) -0.06566(11) 0.01781(12)
H21 H 0.6705 -0.1145 0.0001
C19 C 0.76841(17) -0.02618(12) -0.03618(12)
C20 C 0.82211(17) 0.04493(11) -0.00735(12)
H22 H 0.8659 0.0718 -0.0425
C21 C 0.7785(2) -0.05975(15) -0.12315(14)
H23 H 0.7194 -0.0388 -0.1626
H24 H 0.7746 -0.1184 -0.1219
H25 H 0.8481 -0.0433 -0.1403
C22 C 0.62314(15) -0.07999(10) 0.15384(12)
C23 C 0.52414(19) -0.03636(13) 0.17875(18)
H26 H 0.4874 -0.0708 0.2154
H27 H 0.4743 -0.0237 0.1291
H28 H 0.5471 0.0134 0.2078
C24 C 0.59798(15) -0.19715(10) 0.23473(11)
C25 C 0.51993(18) -0.25655(12) 0.20539(13)
C26 C 0.4731(2) -0.30293(13) 0.26466(15)
H29 H 0.4196 -0.3417 0.2462
C27 C 0.5035(2) -0.29311(14) 0.34940(16)
H30 H 0.4708 -0.3247 0.3880
C28 C 0.5829(2) -0.23604(13) 0.37723(14)
H31 H 0.6041 -0.2302 0.4349
C29 C 0.63218(17) -0.18693(11) 0.32114(12)
C30 C 0.4858(2) -0.26931(16) 0.11155(16)
H32 H 0.5392 -0.2400 0.0813
C31 C 0.3735(4) -0.2338(2) 0.0834(2)
H33 H 0.3196 -0.2598 0.1136
H34 H 0.3548 -0.2429 0.0239
H35 H 0.3745 -0.1761 0.0947
C32 C 0.4899(3) -0.3589(2) 0.0870(2)
H36 H 0.5608 -0.3812 0.1080
H37 H 0.4785 -0.3637 0.0266
H38 H 0.4331 -0.3884 0.1109
C33 C 0.72093(19) -0.12570(14) 0.35291(14)
H39 H 0.7427 -0.0973 0.3034
C34 C 0.8219(2) -0.1664(2) 0.3965(2)
H40 H 0.8767 -0.1257 0.4142
H41 H 0.8508 -0.2039 0.3583
H42 H 0.8032 -0.1958 0.4449
C35 C 0.6801(3) -0.0620(2) 0.4094(3)
H43 H 0.6557 -0.0880 0.4578
H44 H 0.6197 -0.0326 0.3789
H45 H 0.7390 -0.0245 0.4275
N1 N 0.86213(13) 0.17944(9) 0.17679(10)
N2 N 0.65334(12) -0.15210(8) 0.17567(9)
O1 O 0.73475(12) 0.06290(8) 0.20322(8)
H46 H 0.7726 0.1040 0.2139
loop_
_geom_bond_atom_site_label_1
_geom_bond_atom_site_label_2
_geom_bond_site_symmetry_1
_geom_bond_site_symmetry_2
C1 C2 1_555 1_555
C2 C3 1_555 1_555
C3 H1 1_555 1_555
C4 C3 1_555 1_555
H2 C4 1_555 1_555
C5 C4 1_555 1_555
H3 C5 1_555 1_555
C6 C1 1_555 1_555
C7 C2 1_555 1_555
H4 C7 1_555 1_555
C8 C7 1_555 1_555
H5 C8 1_555 1_555
H6 C8 1_555 1_555
H7 C8 1_555 1_555
C9 C7 1_555 1_555
H8 C9 1_555 1_555
H9 C9 1_555 1_555
H10 C9 1_555 1_555
C10 C6 1_555 1_555
H11 C10 1_555 1_555
C11 C10 1_555 1_555
H12 C11 1_555 1_555
H13 C11 1_555 1_555
H14 C11 1_555 1_555
C12 C10 1_555 1_555
H15 C12 1_555 1_555
H16 C12 1_555 1_555
H17 C12 1_555 1_555
C13 C14 1_555 1_555
C14 H18 1_555 1_555
H19 C14 1_555 1_555
H20 C14 1_555 1_555
C15 C13 1_555 1_555
C16 C15 1_555 1_555
C17 C16 1_555 1_555
C18 C17 1_555 1_555
H21 C18 1_555 1_555
C19 C18 1_555 1_555
C20 C15 1_555 1_555
H22 C20 1_555 1_555
C21 C19 1_555 1_555
H23 C21 1_555 1_555
H24 C21 1_555 1_555
H25 C21 1_555 1_555
C22 C17 1_555 1_555
C23 C22 1_555 1_555
H26 C23 1_555 1_555
H27 C23 1_555 1_555
H28 C23 1_555 1_555
C24 C25 1_555 1_555
C25 C26 1_555 1_555
C26 H29 1_555 1_555
C27 C26 1_555 1_555
H30 C27 1_555 1_555
C28 C27 1_555 1_555
H31 C28 1_555 1_555
C29 C24 1_555 1_555
C30 C25 1_555 1_555
H32 C30 1_555 1_555
C31 C30 1_555 1_555
H33 C31 1_555 1_555
H34 C31 1_555 1_555
H35 C31 1_555 1_555
C32 C30 1_555 1_555
H36 C32 1_555 1_555
H37 C32 1_555 1_555
H38 C32 1_555 1_555
C33 C29 1_555 1_555
H39 C33 1_555 1_555
C34 C33 1_555 1_555
H40 C34 1_555 1_555
H41 C34 1_555 1_555
H42 C34 1_555 1_555
C35 C33 1_555 1_555
H43 C35 1_555 1_555
H44 C35 1_555 1_555
H45 C35 1_555 1_555
N1 C1 1_555 1_555
N2 C22 1_555 1_555
O1 C16 1_555 1_555
H46 O1 1_555 1_555
C5 C6 1_555 1_555
C13 N1 1_555 1_555
C19 C20 1_555 1_555
C24 N2 1_555 1_555
C28 C29 1_555 1_555

#END
