
#######################################################################
#
#                 Cambridge Crystallographic Data Centre
#                                CCDC 
#
#######################################################################
#
# If this CIF has been generated from an entry in the Cambridge 
# Structural Database, then it will include bibliographic, chemical, 
# crystal, experimental, refinement or atomic coordinate data resulting 
# from the CCDC's data processing and validation procedures.
#
#######################################################################

data_INAQOF
_chemical_compound_source        
'isolated from the aerial parts of Isodon serra'
_chemical_name_common            'serrin E'
_chemical_formula_moiety         'C22 H32 O6'
_chemical_name_systematic        
'1,7,11-trihydroxy-7,20-epoxykaur-16-en-15-yl acetate'
_symmetry_cell_setting           tetragonal
_symmetry_space_group_name_H-M   'P 43 21 2'
_symmetry_Int_Tables_number      96
_space_group_name_Hall           'P 4nw 2abw'
loop_
_symmetry_equiv_pos_site_id
_symmetry_equiv_pos_as_xyz
1 x,y,z
2 1/2-y,1/2+x,3/4+z
3 1/2+y,1/2-x,1/4+z
4 1/2+x,1/2-y,1/4-z
5 1/2-x,1/2+y,3/4-z
6 -x,-y,1/2+z
7 y,x,-z
8 -y,-x,1/2-z
_cell_length_a                   11.1115(2)
_cell_length_b                   11.1115(2)
_cell_length_c                   31.8353(5)
_cell_angle_alpha                90
_cell_angle_beta                 90
_cell_angle_gamma                90
_cell_volume                     3930.56
_exptl_crystal_colour            colorless
_exptl_crystal_description       block
_cell_formula_units_Z            8
loop_
_atom_site_label
_atom_site_type_symbol
_atom_site_fract_x
_atom_site_fract_y
_atom_site_fract_z
O1 O 0.25915(9) 0.76599(9) 0.46420(3)
O2 O 0.13206(9) 0.86360(9) 0.31850(3)
H1 H 0.1376 0.7893 0.3230
O3 O 0.33164(9) 1.12898(9) 0.40925(3)
O4 O 0.28894(9) 1.10839(9) 0.47814(3)
H2 H 0.3517 1.1221 0.4920
O5 O 0.33919(9) 0.94522(9) 0.29338(3)
H3 H 0.2655 0.9284 0.2930
O6 O 0.21111(10) 0.72152(10) 0.53121(3)
C1 C 0.65235(14) 0.81433(16) 0.42860(5)
H4 H 0.6113 0.7367 0.4315
H5 H 0.6490 0.8576 0.4554
H6 H 0.7366 0.8009 0.4208
C2 C 0.58999(13) 0.88922(14) 0.39444(4)
C3 C 0.45401(12) 0.89732(13) 0.40572(4)
H7 H 0.4290 0.8132 0.4127
C4 C 0.36305(12) 0.94130(12) 0.37120(4)
C5 C 0.23488(12) 0.90194(12) 0.38708(4)
H8 H 0.2381 0.8130 0.3918
C6 C 0.21010(12) 0.96206(12) 0.43126(4)
C7 C 0.17633(13) 0.86675(12) 0.46451(4)
H9 H 0.1777 0.9050 0.4929
C8 C 0.27290(13) 0.70508(13) 0.50072(4)
C9 C 0.37734(15) 0.62013(14) 0.49852(5)
H10 H 0.4509 0.6621 0.5071
H11 H 0.3865 0.5909 0.4697
H12 H 0.3630 0.5518 0.5173
C10 C 0.04779(13) 0.83400(14) 0.45351(4)
C11 C -0.00086(13) 0.93387(13) 0.42527(4)
H13 H -0.0837 0.9593 0.4338
C12 C 0.09119(13) 1.03450(13) 0.43186(4)
H14 H 0.0791 1.0758 0.4591
H15 H 0.0883 1.0944 0.4089
C13 C 0.12628(13) 0.92633(12) 0.35776(4)
H16 H 0.1264 1.0144 0.3512
C14 C 0.00461(13) 0.89740(13) 0.37852(4)
H17 H -0.0108 0.8099 0.3762
H18 H -0.0600 0.9399 0.3631
C15 C 0.43315(13) 0.97078(13) 0.44642(4)
H19 H 0.4288 0.9156 0.4708
H20 H 0.5013 1.0267 0.4509
C16 C 0.31756(13) 1.04118(13) 0.44296(4)
C17 C 0.36422(13) 1.07820(13) 0.36891(4)
H21 H 0.4455 1.1064 0.3608
H22 H 0.3065 1.1057 0.3472
C18 C 0.65664(14) 1.01041(15) 0.39111(5)
H23 H 0.7412 0.9959 0.3840
H24 H 0.6519 1.0528 0.4181
H25 H 0.6192 1.0597 0.3692
C19 C 0.60150(14) 0.82166(14) 0.35271(4)
H26 H 0.6873 0.8182 0.3444
H27 H 0.5725 0.7381 0.3564
C20 C 0.52968(13) 0.88238(14) 0.31822(4)
H28 H 0.5428 0.8390 0.2914
H29 H 0.5588 0.9659 0.3146
C21 C 0.39573(13) 0.88445(13) 0.32808(4)
H30 H 0.3665 0.7993 0.3282
C22 C -0.00946(14) 0.73565(15) 0.46537(5)
H31 H 0.0303 0.6777 0.4824
H32 H -0.0904 0.7228 0.4569
loop_
_geom_bond_atom_site_label_1
_geom_bond_atom_site_label_2
_geom_bond_site_symmetry_1
_geom_bond_site_symmetry_2
O1 C7 1_555 1_555
O2 H1 1_555 1_555
O3 C16 1_555 1_555
O4 H2 1_555 1_555
O5 H3 1_555 1_555
O6 C8 1_555 1_555
C1 H4 1_555 1_555
H5 C1 1_555 1_555
H6 C1 1_555 1_555
C2 C1 1_555 1_555
C3 C2 1_555 1_555
H7 C3 1_555 1_555
C4 C3 1_555 1_555
C5 C4 1_555 1_555
H8 C5 1_555 1_555
C6 C5 1_555 1_555
C7 C6 1_555 1_555
H9 C7 1_555 1_555
C8 O1 1_555 1_555
C9 C8 1_555 1_555
H10 C9 1_555 1_555
H11 C9 1_555 1_555
H12 C9 1_555 1_555
C10 C7 1_555 1_555
C11 C10 1_555 1_555
H13 C11 1_555 1_555
C12 C6 1_555 1_555
H14 C12 1_555 1_555
H15 C12 1_555 1_555
C13 O2 1_555 1_555
H16 C13 1_555 1_555
C14 C11 1_555 1_555
H17 C14 1_555 1_555
H18 C14 1_555 1_555
C15 C3 1_555 1_555
H19 C15 1_555 1_555
H20 C15 1_555 1_555
C16 O4 1_555 1_555
C17 O3 1_555 1_555
H21 C17 1_555 1_555
H22 C17 1_555 1_555
C18 C2 1_555 1_555
H23 C18 1_555 1_555
H24 C18 1_555 1_555
H25 C18 1_555 1_555
C19 C2 1_555 1_555
H26 C19 1_555 1_555
H27 C19 1_555 1_555
C20 C19 1_555 1_555
H28 C20 1_555 1_555
H29 C20 1_555 1_555
C21 O5 1_555 1_555
H30 C21 1_555 1_555
C22 C10 1_555 1_555
H31 C22 1_555 1_555
H32 C22 1_555 1_555
C4 C17 1_555 1_555
C4 C21 1_555 1_555
C5 C13 1_555 1_555
C6 C16 1_555 1_555
C11 C12 1_555 1_555
C13 C14 1_555 1_555
C15 C16 1_555 1_555
C20 C21 1_555 1_555

#END
