
#######################################################################
#
#                 Cambridge Crystallographic Data Centre
#                                CCDC 
#
#######################################################################
#
# If this CIF has been generated from an entry in the Cambridge 
# Structural Database, then it will include bibliographic, chemical, 
# crystal, experimental, refinement or atomic coordinate data resulting 
# from the CCDC's data processing and validation procedures.
#
#######################################################################

data_INAQAP
_chemical_formula_moiety         'C23 H29 N1 O2'
_chemical_name_systematic        
2-Acetyl-6-(1-(2,6-di-isopropylphenylimino)ethyl)-4-methylphenol
_symmetry_cell_setting           monoclinic
_symmetry_space_group_name_H-M   'P 21/c'
_symmetry_Int_Tables_number      14
_space_group_name_Hall           '-P 2ybc'
loop_
_symmetry_equiv_pos_site_id
_symmetry_equiv_pos_as_xyz
1 x,y,z
2 x,1/2-y,1/2+z
3 -x,-y,-z
4 -x,1/2+y,1/2-z
_cell_length_a                   13.5893(5)
_cell_length_b                   10.5781(4)
_cell_length_c                   15.6778(4)
_cell_angle_alpha                90.00
_cell_angle_beta                 113.1804(18)
_cell_angle_gamma                90.00
_cell_volume                     2071.73
_exptl_crystal_colour            yellow
_exptl_crystal_description       block
_chemical_melting_point          '459-460 K'
_cell_formula_units_Z            4
loop_
_atom_site_label
_atom_site_type_symbol
_atom_site_fract_x
_atom_site_fract_y
_atom_site_fract_z
O1 O 0.25519(10) 0.45596(14) 0.42027(8)
H1 H 0.2311 0.4277 0.3673
O2 O 0.43530(14) 0.58576(18) 0.68086(11)
N1 N 0.24161(11) 0.31792(15) 0.28592(9)
C1 C 0.35014(13) 0.40271(16) 0.46868(11)
C2 C 0.40901(14) 0.44050(18) 0.56110(11)
C3 C 0.50814(15) 0.3857(2) 0.60968(12)
H2 H 0.5473 0.4121 0.6702
C4 C 0.55135(14) 0.2940(2) 0.57230(13)
C5 C 0.49287(14) 0.25886(18) 0.48145(12)
H3 H 0.5213 0.1980 0.4548
C6 C 0.39307(13) 0.31051(17) 0.42776(11)
C7 C 0.37123(17) 0.53721(19) 0.61112(13)
C8 C 0.2550(2) 0.5690(3) 0.57932(17)
H4 H 0.2428 0.6126 0.6280
H5 H 0.2135 0.4925 0.5642
H6 H 0.2340 0.6221 0.5254
C9 C 0.65770(18) 0.2328(3) 0.62876(18)
H7 H 0.7114 0.2971 0.6534
H8 H 0.6774 0.1769 0.5899
H9 H 0.6518 0.1857 0.6789
C10 C 0.33458(14) 0.26948(17) 0.33097(12)
C11 C 0.38491(17) 0.1752(2) 0.28923(15)
H10 H 0.3365 0.1566 0.2268
H11 H 0.4004 0.0989 0.3254
H12 H 0.4501 0.2094 0.2887
C12 C 0.17630(14) 0.28340(19) 0.19239(12)
C13 C 0.09537(15) 0.1941(2) 0.17763(13)
C14 C 0.02982(19) 0.1653(3) 0.08626(16)
H13 H -0.0242 0.1057 0.0745
C15 C 0.0430(2) 0.2227(3) 0.01351(16)
H14 H -0.0014 0.2013 -0.0470
C16 C 0.1221(2) 0.3124(3) 0.02946(15)
H15 H 0.1297 0.3515 -0.0207
C17 C 0.19041(17) 0.3453(2) 0.11892(13)
C18 C 0.07920(17) 0.1301(3) 0.25784(15)
H16 H 0.1203 0.1793 0.3135
C19 C -0.0330(3) 0.1296(5) 0.2499(3)
H17 H -0.0763 0.0809 0.1967
H18 H -0.0593 0.2148 0.2431
H19 H -0.0361 0.0929 0.3048
C20 C 0.1242(5) 0.0026(5) 0.2739(4)
H20 H 0.1343 -0.0245 0.3352
H21 H 0.1919 0.0028 0.2680
H22 H 0.0761 -0.0543 0.2291
C21 C 0.2758(2) 0.4459(2) 0.13559(15)
H23 H 0.3239 0.4408 0.2013
C22 C 0.3430(3) 0.4264(3) 0.0808(3)
H24 H 0.3772 0.3452 0.0954
H25 H 0.3965 0.4914 0.0960
H26 H 0.2986 0.4301 0.0157
C23 C 0.2302(3) 0.5754(3) 0.1195(4)
H27 H 0.1807 0.5834 0.0561
H28 H 0.2869 0.6359 0.1322
H29 H 0.1936 0.5907 0.1599
loop_
_geom_bond_atom_site_label_1
_geom_bond_atom_site_label_2
_geom_bond_site_symmetry_1
_geom_bond_site_symmetry_2
O1 H1 1_555 1_555
O2 C7 1_555 1_555
N1 C10 1_555 1_555
C1 O1 1_555 1_555
C2 C1 1_555 1_555
C3 C2 1_555 1_555
H2 C3 1_555 1_555
C4 C3 1_555 1_555
C5 C4 1_555 1_555
H3 C5 1_555 1_555
C6 C1 1_555 1_555
C7 C2 1_555 1_555
C8 C7 1_555 1_555
H4 C8 1_555 1_555
H5 C8 1_555 1_555
H6 C8 1_555 1_555
C9 C4 1_555 1_555
H7 C9 1_555 1_555
H8 C9 1_555 1_555
H9 C9 1_555 1_555
C10 C6 1_555 1_555
C11 C10 1_555 1_555
H10 C11 1_555 1_555
H11 C11 1_555 1_555
H12 C11 1_555 1_555
C12 N1 1_555 1_555
C13 C12 1_555 1_555
C14 C13 1_555 1_555
H13 C14 1_555 1_555
C15 C14 1_555 1_555
H14 C15 1_555 1_555
C16 C15 1_555 1_555
H15 C16 1_555 1_555
C17 C12 1_555 1_555
C18 C13 1_555 1_555
H16 C18 1_555 1_555
C19 C18 1_555 1_555
H17 C19 1_555 1_555
H18 C19 1_555 1_555
H19 C19 1_555 1_555
C20 C18 1_555 1_555
H20 C20 1_555 1_555
H21 C20 1_555 1_555
H22 C20 1_555 1_555
C21 C17 1_555 1_555
H23 C21 1_555 1_555
C22 C21 1_555 1_555
H24 C22 1_555 1_555
H25 C22 1_555 1_555
H26 C22 1_555 1_555
C23 C21 1_555 1_555
H27 C23 1_555 1_555
H28 C23 1_555 1_555
H29 C23 1_555 1_555
C5 C6 1_555 1_555
C16 C17 1_555 1_555

#END
