
#######################################################################
#
#                 Cambridge Crystallographic Data Centre
#                                CCDC 
#
#######################################################################
#
# If this CIF has been generated from an entry in the Cambridge 
# Structural Database, then it will include bibliographic, chemical, 
# crystal, experimental, refinement or atomic coordinate data resulting 
# from the CCDC's data processing and validation procedures.
#
#######################################################################

data_INAQIX
_chemical_formula_moiety         'C19 H20 Br1 N1 O2'
_chemical_name_systematic        
2-Acetyl-6-(1-(4-bromophenylimino)ethyl)-4-methylphenol
_symmetry_cell_setting           triclinic
_symmetry_space_group_name_H-M   'P -1'
_symmetry_Int_Tables_number      2
_space_group_name_Hall           '-P 1'
loop_
_symmetry_equiv_pos_site_id
_symmetry_equiv_pos_as_xyz
1 x,y,z
2 -x,-y,-z
_cell_length_a                   7.5337(4)
_cell_length_b                   10.0457(5)
_cell_length_c                   12.6163(4)
_cell_angle_alpha                90.139(3)
_cell_angle_beta                 104.003(3)
_cell_angle_gamma                106.485(2)
_cell_volume                     885.764
_exptl_crystal_colour            yellow
_exptl_crystal_description       block
_chemical_melting_point          '455.5-456.5 K'
_cell_formula_units_Z            2
loop_
_atom_site_label
_atom_site_type_symbol
_atom_site_fract_x
_atom_site_fract_y
_atom_site_fract_z
Br1 Br 0.12899(8) 0.92767(5) 0.26062(3)
C1 C -0.2368(5) 0.6471(3) -0.4452(3)
C2 C -0.2920(5) 0.6094(4) -0.5585(3)
C3 C -0.3014(5) 0.4748(4) -0.5931(3)
H1 H -0.3387 0.4495 -0.6679
C4 C -0.2588(5) 0.3781(4) -0.5229(3)
C5 C -0.2010(5) 0.4182(4) -0.4120(3)
H2 H -0.1691 0.3546 -0.3631
C6 C -0.1889(5) 0.5499(3) -0.3709(3)
C7 C -0.3450(6) 0.7032(4) -0.6451(3)
C8 C -0.3333(8) 0.8495(5) -0.6195(4)
H3 H -0.3737 0.8908 -0.6862
H4 H -0.2037 0.9001 -0.5834
H5 H -0.4150 0.8526 -0.5724
C9 C -0.2730(7) 0.2327(4) -0.5645(4)
H6 H -0.3153 0.2235 -0.6430
H7 H -0.3629 0.1655 -0.5347
H8 H -0.1497 0.2173 -0.5420
C10 C -0.1283(5) 0.5864(3) -0.2515(3)
C11 C -0.0623(8) 0.4850(5) -0.1761(3)
H9 H -0.0281 0.5233 -0.1016
H10 H 0.0470 0.4678 -0.1932
H11 H -0.1635 0.3993 -0.1853
C12 C -0.0680(5) 0.7544(3) -0.1032(3)
C13 C -0.2006(6) 0.7271(3) -0.0401(3)
C14 C -0.1400(6) 0.7799(4) 0.0692(3)
H12 H -0.2253 0.7620 0.1134
C15 C 0.0457(6) 0.8580(4) 0.1110(3)
C16 C 0.1736(6) 0.8891(4) 0.0478(3)
H13 H 0.2983 0.9441 0.0780
C17 C 0.1178(6) 0.8386(4) -0.0615(3)
C18 C -0.4038(7) 0.6443(6) -0.0888(4)
H14 H -0.4745 0.6356 -0.0340
H15 H -0.4079 0.5534 -0.1150
H16 H -0.4594 0.6906 -0.1486
C19 C 0.2552(8) 0.8760(7) -0.1330(5)
H17 H 0.3762 0.9349 -0.0908
H18 H 0.2049 0.9243 -0.1931
H19 H 0.2723 0.7926 -0.1608
N1 N -0.1293(5) 0.7071(3) -0.2168(2)
O1 O -0.2295(4) 0.7744(3) -0.4090(2)
O2 O -0.4005(7) 0.6575(4) -0.7402(2)
H20 H -0.185(8) 0.780(6) -0.332(5)
loop_
_geom_bond_atom_site_label_1
_geom_bond_atom_site_label_2
_geom_bond_site_symmetry_1
_geom_bond_site_symmetry_2
Br1 C15 1_555 1_555
C1 C2 1_555 1_555
C2 C3 1_555 1_555
C3 H1 1_555 1_555
C4 C3 1_555 1_555
C5 C4 1_555 1_555
H2 C5 1_555 1_555
C6 C1 1_555 1_555
C7 C2 1_555 1_555
C8 C7 1_555 1_555
H3 C8 1_555 1_555
H4 C8 1_555 1_555
H5 C8 1_555 1_555
C9 C4 1_555 1_555
H6 C9 1_555 1_555
H7 C9 1_555 1_555
H8 C9 1_555 1_555
C10 C6 1_555 1_555
C11 C10 1_555 1_555
H9 C11 1_555 1_555
H10 C11 1_555 1_555
H11 C11 1_555 1_555
C12 C13 1_555 1_555
C13 C14 1_555 1_555
C14 H12 1_555 1_555
C15 C14 1_555 1_555
C16 C15 1_555 1_555
H13 C16 1_555 1_555
C17 C12 1_555 1_555
C18 C13 1_555 1_555
H14 C18 1_555 1_555
H15 C18 1_555 1_555
H16 C18 1_555 1_555
C19 C17 1_555 1_555
H17 C19 1_555 1_555
H18 C19 1_555 1_555
H19 C19 1_555 1_555
N1 C10 1_555 1_555
O1 C1 1_555 1_555
O2 C7 1_555 1_555
H20 O1 1_555 1_555
C5 C6 1_555 1_555
C12 N1 1_555 1_555
C16 C17 1_555 1_555

#END
