
#######################################################################
#
#                 Cambridge Crystallographic Data Centre
#                                CCDC 
#
#######################################################################
#
# If this CIF has been generated from an entry in the Cambridge 
# Structural Database, then it will include bibliographic, chemical, 
# crystal, experimental, refinement or atomic coordinate data resulting 
# from the CCDC's data processing and validation procedures.
#
#######################################################################

data_INAVIE
_chemical_formula_moiety         'C39 H26 N1 O7 P1'
_chemical_name_systematic        
"methyl 2-(4-nitrophenyl)-1',3',5-trioxo-4-(triphenylphosphoranylidene)-1',3'-dihydrospiro[cyclopent-2-ene-1,2'-indene]-3-carboxylate unknown solvate"
_symmetry_cell_setting           monoclinic
_symmetry_space_group_name_H-M   'P 21/c'
_symmetry_Int_Tables_number      14
_space_group_name_Hall           '-P 2ybc'
loop_
_symmetry_equiv_pos_site_id
_symmetry_equiv_pos_as_xyz
1 x,y,z
2 -x,1/2+y,1/2-z
3 -x,-y,-z
4 x,1/2-y,1/2+z
_cell_length_a                   11.7255(14)
_cell_length_b                   23.051(3)
_cell_length_c                   14.0291(16)
_cell_angle_alpha                90
_cell_angle_beta                 112.488(3)
_cell_angle_gamma                90
_cell_volume                     3503.51
_exptl_crystal_colour            red
_exptl_crystal_description       block
_cell_formula_units_Z            4
loop_
_atom_site_label
_atom_site_type_symbol
_atom_site_fract_x
_atom_site_fract_y
_atom_site_fract_z
C1 C 0.08470(18) 0.32097(8) 0.65663(15)
C2 C 0.1790(2) 0.27463(8) 0.67798(16)
C3 C 0.1906(3) 0.23234(10) 0.61215(19)
H1 H 0.1360 0.2303 0.5436
C4 C 0.2872(3) 0.19294(12) 0.6526(2)
H2 H 0.2966 0.1638 0.6103
C5 C 0.3693(3) 0.19603(12) 0.7540(2)
H3 H 0.4336 0.1694 0.7784
C6 C 0.3574(2) 0.23797(11) 0.8193(2)
H4 H 0.4122 0.2399 0.8877
C7 C 0.26120(19) 0.27716(8) 0.78014(16)
C8 C 0.22505(18) 0.32449(8) 0.83366(15)
C9 C 0.12661(18) 0.36066(8) 0.75174(14)
C10 C 0.03362(18) 0.38904(8) 0.78660(15)
C11 C -0.03627(18) 0.35661(9) 0.83560(16)
C12 C -0.0954(2) 0.30496(10) 0.7934(2)
H5 H -0.0920 0.2910 0.7323
C13 C -0.1596(2) 0.27408(10) 0.8419(2)
H6 H -0.1985 0.2394 0.8138
C14 C -0.1652(2) 0.29500(10) 0.93105(19)
C15 C -0.1085(2) 0.34563(11) 0.97543(18)
H7 H -0.1131 0.3591 1.0364
C16 C -0.0442(2) 0.37626(10) 0.92738(17)
H8 H -0.0053 0.4107 0.9566
C17 C 0.19715(18) 0.41341(8) 0.72721(15)
C18 C 0.13994(19) 0.46400(8) 0.74326(15)
C19 C 0.04535(18) 0.44751(8) 0.78197(15)
C20 C -0.01991(19) 0.49066(9) 0.82140(16)
C21 C -0.2087(3) 0.52314(17) 0.8215(3)
H9 H -0.1909 0.5143 0.8926
H10 H -0.2957 0.5191 0.7825
H11 H -0.1839 0.5623 0.8159
C22 C 0.25892(19) 0.54314(8) 0.64030(15)
C23 C 0.3779(2) 0.52203(11) 0.66660(19)
H12 H 0.4149 0.5007 0.7269
C24 C 0.4410(3) 0.53259(13) 0.6040(2)
H13 H 0.5211 0.5188 0.6220
C25 C 0.3847(3) 0.56404(14) 0.5133(2)
H14 H 0.4275 0.5712 0.4707
C26 C 0.2679(3) 0.58432(14) 0.4865(2)
H15 H 0.2308 0.6049 0.4253
C27 C 0.2037(2) 0.57456(10) 0.54994(18)
H16 H 0.1241 0.5890 0.5320
C28 C 0.04525(19) 0.57773(8) 0.68067(16)
C29 C -0.0561(2) 0.55509(11) 0.60114(18)
H17 H -0.0520 0.5180 0.5765
C30 C -0.1634(2) 0.58716(14) 0.5580(2)
H18 H -0.2315 0.5717 0.5050
C31 C -0.1683(3) 0.64181(15) 0.5940(2)
H19 H -0.2393 0.6640 0.5637
C32 C -0.0714(3) 0.66374(12) 0.6729(3)
H20 H -0.0779 0.7005 0.6978
C33 C 0.0381(2) 0.63298(10) 0.7182(2)
H21 H 0.1048 0.6488 0.7721
C34 C 0.29236(19) 0.56336(9) 0.84938(16)
C35 C 0.3559(2) 0.61444(11) 0.8509(2)
H22 H 0.3400 0.6354 0.7905
C36 C 0.4435(3) 0.63392(15) 0.9438(3)
H23 H 0.4866 0.6680 0.9452
C37 C 0.4670(3) 0.60366(18) 1.0330(2)
H24 H 0.5247 0.6174 1.0950
C38 C 0.4054(3) 0.55330(18) 1.0306(2)
H25 H 0.4225 0.5325 1.0913
C39 C 0.3180(2) 0.53259(12) 0.93980(18)
H26 H 0.2767 0.4981 0.9394
N1 N -0.2351(2) 0.26291(11) 0.9807(2)
O1 O -0.00722(15) 0.32659(8) 0.57982(12)
O2 O 0.26581(16) 0.33359(8) 0.92556(12)
O3 O -0.3109(3) 0.22792(13) 0.9283(2)
O4 O -0.2145(2) 0.27344(10) 1.0720(2)
O5 O 0.28451(15) 0.40561(7) 0.70044(14)
O6 O 0.03198(17) 0.52720(7) 0.88295(15)
O7 O -0.14194(15) 0.48372(8) 0.78178(14)
P1 P 0.18296(5) 0.53468(2) 0.72961(4)
loop_
_geom_bond_atom_site_label_1
_geom_bond_atom_site_label_2
_geom_bond_site_symmetry_1
_geom_bond_site_symmetry_2
C1 C2 1_555 1_555
C2 C3 1_555 1_555
C3 H1 1_555 1_555
C4 C3 1_555 1_555
H2 C4 1_555 1_555
C5 C4 1_555 1_555
H3 C5 1_555 1_555
C6 C5 1_555 1_555
H4 C6 1_555 1_555
C7 C2 1_555 1_555
C8 C7 1_555 1_555
C9 C1 1_555 1_555
C10 C9 1_555 1_555
C11 C10 1_555 1_555
C12 C11 1_555 1_555
H5 C12 1_555 1_555
C13 C12 1_555 1_555
H6 C13 1_555 1_555
C14 C13 1_555 1_555
C15 C14 1_555 1_555
H7 C15 1_555 1_555
C16 C11 1_555 1_555
H8 C16 1_555 1_555
C17 C9 1_555 1_555
C18 C17 1_555 1_555
C19 C10 1_555 1_555
C20 C19 1_555 1_555
C21 H9 1_555 1_555
H10 C21 1_555 1_555
H11 C21 1_555 1_555
C22 C23 1_555 1_555
C23 H12 1_555 1_555
C24 C23 1_555 1_555
H13 C24 1_555 1_555
C25 C24 1_555 1_555
H14 C25 1_555 1_555
C26 C25 1_555 1_555
H15 C26 1_555 1_555
C27 C22 1_555 1_555
H16 C27 1_555 1_555
C28 C29 1_555 1_555
C29 H17 1_555 1_555
C30 C29 1_555 1_555
H18 C30 1_555 1_555
C31 C30 1_555 1_555
H19 C31 1_555 1_555
C32 C31 1_555 1_555
H20 C32 1_555 1_555
C33 C28 1_555 1_555
H21 C33 1_555 1_555
C34 C35 1_555 1_555
C35 H22 1_555 1_555
C36 C35 1_555 1_555
H23 C36 1_555 1_555
C37 C36 1_555 1_555
H24 C37 1_555 1_555
C38 C37 1_555 1_555
H25 C38 1_555 1_555
C39 C34 1_555 1_555
H26 C39 1_555 1_555
N1 C14 1_555 1_555
O1 C1 1_555 1_555
O2 C8 1_555 1_555
O3 N1 1_555 1_555
O4 N1 1_555 1_555
O5 C17 1_555 1_555
O6 C20 1_555 1_555
O7 C20 1_555 1_555
P1 C18 1_555 1_555
C6 C7 1_555 1_555
C8 C9 1_555 1_555
C15 C16 1_555 1_555
C18 C19 1_555 1_555
C21 O7 1_555 1_555
C22 P1 1_555 1_555
C26 C27 1_555 1_555
C28 P1 1_555 1_555
C32 C33 1_555 1_555
C34 P1 1_555 1_555
C38 C39 1_555 1_555

#END
