
#######################################################################
#
#                 Cambridge Crystallographic Data Centre
#                                CCDC 
#
#######################################################################
#
# If this CIF has been generated from an entry in the Cambridge 
# Structural Database, then it will include bibliographic, chemical, 
# crystal, experimental, refinement or atomic coordinate data resulting 
# from the CCDC's data processing and validation procedures.
#
#######################################################################

data_INAZEE
_chemical_formula_moiety         'C36 H50 S4 Si2'
_chemical_name_systematic        
(thieno[2,3-f][1]benzothiene-4,8-diyldithiene-5,2-diyl)bis(tripropylsilane)
_symmetry_cell_setting           monoclinic
_symmetry_space_group_name_H-M   'C 2/c'
_symmetry_Int_Tables_number      15
_space_group_name_Hall           '-C 2yn'
loop_
_symmetry_equiv_pos_site_id
_symmetry_equiv_pos_as_xyz
1 x,y,z
2 -x,y,1/2-z
3 1/2+x,1/2+y,z
4 1/2-x,1/2+y,1/2-z
5 -x,-y,-z
6 x,-y,1/2+z
7 1/2-x,1/2-y,-z
8 1/2+x,1/2-y,1/2+z
_cell_length_a                   31.582(17)
_cell_length_b                   8.491(4)
_cell_length_c                   16.928(9)
_cell_angle_alpha                90
_cell_angle_beta                 118.635(6)
_cell_angle_gamma                90
_cell_volume                     3984.24
_exptl_crystal_colour            colorless
_exptl_crystal_description       plate
_cell_formula_units_Z            4
loop_
_atom_site_label
_atom_site_type_symbol
_atom_site_fract_x
_atom_site_fract_y
_atom_site_fract_z
S1 S 0.27058(7) 0.1560(2) -0.15554(11)
S2 S 0.34667(6) 0.6106(2) 0.12673(13)
Si1 Si 0.38760(8) 0.9386(3) 0.22184(18)
C1 C 0.3003(2) 0.3287(8) -0.1385(4)
H1 H 0.3134 0.3587 -0.1751
C2 C 0.30468(19) 0.4247(6) -0.0687(3)
H2 H 0.3211 0.5199 -0.0509
C3 C 0.27740(18) 0.3439(6) -0.0274(3)
C4 C 0.26921(17) 0.3998(6) 0.0427(3)
C5 C 0.24181(18) 0.3052(6) 0.0683(3)
C6 C 0.28740(19) 0.5535(6) 0.0867(3)
C7 C 0.2635(2) 0.6696(6) 0.1041(3)
H3 H 0.2309 0.6628 0.0878
C8 C 0.2919(2) 0.8002(7) 0.1488(3)
H4 H 0.2797 0.8875 0.1644
C9 C 0.3387(2) 0.7895(7) 0.1676(4)
C10 C 0.3650(4) 1.0884(11) 0.2760(7)
H5 H 0.3361 1.1361 0.2284
H6 H 0.3553 1.0312 0.3143
C11 C 0.3966(4) 1.2146(13) 0.3291(9)
H7 H 0.4047 1.2788 0.2909
H8 H 0.4263 1.1698 0.3760
C12 C 0.3744(5) 1.3172(15) 0.3716(10)
H9 H 0.3919 1.4146 0.3904
H10 H 0.3757 1.2643 0.4228
H11 H 0.3414 1.3383 0.3286
C13 C 0.3930(5) 1.0366(17) 0.1238(8)
H12 H 0.4021 0.9533 0.0958
H13 H 0.3605 1.0679 0.0802
C14 C 0.4223(8) 1.163(3) 0.1322(13)
H14 H 0.4528 1.1467 0.1862
H15 H 0.4077 1.2560 0.1427
C15 C 0.4332(7) 1.202(2) 0.0588(14)
H16 H 0.4045 1.1929 0.0017
H17 H 0.4575 1.1324 0.0603
H18 H 0.4447 1.3083 0.0675
C16 C 0.4477(4) 0.846(2) 0.2811(12)
H19 H 0.4527 0.7718 0.2426
H20 H 0.4732 0.9239 0.3031
C17 C 0.4453(7) 0.761(3) 0.3589(12)
H21 H 0.4194 0.6845 0.3352
H22 H 0.4389 0.8368 0.3947
C18 C 0.4937(9) 0.679(4) 0.4175(17)
H23 H 0.4972 0.5914 0.3849
H24 H 0.4945 0.6408 0.4717
H25 H 0.5196 0.7517 0.4325
S1F S 0.22942(7) 0.3440(2) 0.15554(11)
S2F S 0.15333(6) -0.1106(2) -0.12673(13)
Si1F Si 0.11240(8) -0.4386(3) -0.22184(18)
C1F C 0.1997(2) 0.1713(8) 0.1385(4)
H1F H 0.1866 0.1413 0.1751
C2F C 0.19532(19) 0.0753(6) 0.0687(3)
H2F H 0.1789 -0.0199 0.0509
C3F C 0.22260(18) 0.1561(6) 0.0274(3)
C4F C 0.23079(17) 0.1002(6) -0.0427(3)
C5F C 0.25819(18) 0.1948(6) -0.0683(3)
C6F C 0.21260(19) -0.0535(6) -0.0867(3)
C7F C 0.2365(2) -0.1696(6) -0.1041(3)
H3F H 0.2691 -0.1628 -0.0878
C8F C 0.2081(2) -0.3002(7) -0.1488(3)
H4F H 0.2203 -0.3875 -0.1644
C9F C 0.1613(2) -0.2895(7) -0.1676(4)
C10F C 0.1350(4) -0.5884(11) -0.2760(7)
H5F H 0.1639 -0.6361 -0.2284
H6F H 0.1447 -0.5312 -0.3143
C11F C 0.1034(4) -0.7146(13) -0.3291(9)
H7F H 0.0953 -0.7788 -0.2909
H8F H 0.0737 -0.6698 -0.3760
C12F C 0.1256(5) -0.8172(15) -0.3716(10)
H9F H 0.1081 -0.9146 -0.3904
H10F H 0.1243 -0.7643 -0.4228
H11F H 0.1586 -0.8383 -0.3286
C13F C 0.1070(5) -0.5366(17) -0.1238(8)
H12F H 0.0979 -0.4533 -0.0958
H13F H 0.1395 -0.5679 -0.0802
C14F C 0.0777(8) -0.663(3) -0.1322(13)
H14F H 0.0472 -0.6467 -0.1862
H15F H 0.0923 -0.7560 -0.1427
C15F C 0.0668(7) -0.702(2) -0.0588(14)
H16F H 0.0955 -0.6929 -0.0017
H17F H 0.0425 -0.6324 -0.0603
H18F H 0.0553 -0.8083 -0.0675
C16F C 0.0523(4) -0.346(2) -0.2811(12)
H19F H 0.0473 -0.2718 -0.2426
H20F H 0.0268 -0.4239 -0.3031
C17F C 0.0547(7) -0.261(3) -0.3589(12)
H21F H 0.0806 -0.1845 -0.3352
H22F H 0.0611 -0.3368 -0.3947
C18F C 0.0063(9) -0.179(4) -0.4175(17)
H23F H 0.0028 -0.0914 -0.3849
H24F H 0.0055 -0.1408 -0.4717
H25F H -0.0196 -0.2517 -0.4325
C19? C 0.4336(16) 0.989(9) 0.187(4)
H26? H 0.4558 1.0478 0.2398
H27? H 0.4486 0.8868 0.1947
C20? C 0.447(2) 1.060(11) 0.118(4)
H28? H 0.4705 0.9922 0.1127
H29? H 0.4618 1.1629 0.1383
C21? C 0.401(3) 1.073(11) 0.028(4)
H30? H 0.4044 1.0387 -0.0231
H31? H 0.3984 1.1854 0.0269
H32? H 0.3722 1.0270 0.0241
C22? C 0.4400(7) 0.845(3) 0.3223(11)
H33? H 0.4660 0.9209 0.3470
H34? H 0.4300 0.8269 0.3676
C23? C 0.4608(8) 0.690(2) 0.3097(15)
H35? H 0.4369 0.6082 0.2965
H36? H 0.4653 0.7008 0.2573
C24? C 0.5079(9) 0.635(4) 0.3876(19)
H37? H 0.5307 0.6145 0.3665
H38? H 0.5025 0.5398 0.4123
H39? H 0.5204 0.7147 0.4332
loop_
_geom_bond_atom_site_label_1
_geom_bond_atom_site_label_2
_geom_bond_site_symmetry_1
_geom_bond_site_symmetry_2
S1 C1 1_555 1_555
S2 C6 1_555 1_555
Si1 C9 1_555 1_555
C1 H1 1_555 1_555
C2 C1 1_555 1_555
H2 C2 1_555 1_555
C3 C2 1_555 1_555
C4 C3 1_555 1_555
C5 C4 1_555 1_555
C6 C4 1_555 1_555
C7 C6 1_555 1_555
H3 C7 1_555 1_555
C8 C7 1_555 1_555
H4 C8 1_555 1_555
C9 S2 1_555 1_555
C10 Si1 1_555 1_555
H5 C10 1_555 1_555
H6 C10 1_555 1_555
C11 C10 1_555 1_555
H7 C11 1_555 1_555
H8 C11 1_555 1_555
C12 C11 1_555 1_555
H9 C12 1_555 1_555
H10 C12 1_555 1_555
H11 C12 1_555 1_555
C13 Si1 1_555 1_555
H12 C13 1_555 1_555
H13 C13 1_555 1_555
C14 C13 1_555 1_555
H14 C14 1_555 1_555
H15 C14 1_555 1_555
C15 C14 1_555 1_555
H16 C15 1_555 1_555
H17 C15 1_555 1_555
H18 C15 1_555 1_555
C16 Si1 1_555 1_555
H19 C16 1_555 1_555
H20 C16 1_555 1_555
C17 C16 1_555 1_555
H21 C17 1_555 1_555
H22 C17 1_555 1_555
C18 C17 1_555 1_555
H23 C18 1_555 1_555
H24 C18 1_555 1_555
H25 C18 1_555 1_555
S1F C5 1_555 1_555
S2F C6F 1_555 1_555
Si1F C9F 1_555 1_555
C1F S1F 1_555 1_555
H1F C1F 1_555 1_555
C2F C1F 1_555 1_555
H2F C2F 1_555 1_555
C3F C5 1_555 1_555
C4F C3F 1_555 1_555
C5F S1 1_555 1_555
C6F C4F 1_555 1_555
C7F C6F 1_555 1_555
H3F C7F 1_555 1_555
C8F C7F 1_555 1_555
H4F C8F 1_555 1_555
C9F S2F 1_555 1_555
C10F Si1F 1_555 1_555
H5F C10F 1_555 1_555
H6F C10F 1_555 1_555
C11F C10F 1_555 1_555
H7F C11F 1_555 1_555
H8F C11F 1_555 1_555
C12F C11F 1_555 1_555
H9F C12F 1_555 1_555
H10F C12F 1_555 1_555
H11F C12F 1_555 1_555
C13F Si1F 1_555 1_555
H12F C13F 1_555 1_555
H13F C13F 1_555 1_555
C14F C13F 1_555 1_555
H14F C14F 1_555 1_555
H15F C14F 1_555 1_555
C15F C14F 1_555 1_555
H16F C15F 1_555 1_555
H17F C15F 1_555 1_555
H18F C15F 1_555 1_555
C16F Si1F 1_555 1_555
H19F C16F 1_555 1_555
H20F C16F 1_555 1_555
C17F C16F 1_555 1_555
H21F C17F 1_555 1_555
H22F C17F 1_555 1_555
C18F C17F 1_555 1_555
H23F C18F 1_555 1_555
H24F C18F 1_555 1_555
H25F C18F 1_555 1_555
C3 C5F 1_555 1_555
C8 C9 1_555 1_555
C2F C3F 1_555 1_555
C4F C5F 1_555 1_555
C8F C9F 1_555 1_555

#END
