
#######################################################################
#
#                 Cambridge Crystallographic Data Centre
#                                CCDC 
#
#######################################################################
#
# If this CIF has been generated from an entry in the Cambridge 
# Structural Database, then it will include bibliographic, chemical, 
# crystal, experimental, refinement or atomic coordinate data resulting 
# from the CCDC's data processing and validation procedures.
#
#######################################################################

data_INCNSL01
_chemical_compound_source        'Boswellia carterii'
_chemical_name_common            'Incensole oxide'
_chemical_formula_moiety         'C20 H34 O3'
_chemical_name_systematic        
1-isopropyl-5,9,13-trimethyl-4,16-dioxatricyclo[11.2.1.0^3,5^]hexadec-8-en-12-ol
_chemical_properties_biological  'antiulcerative colitis activity'
_symmetry_cell_setting           orthorhombic
_symmetry_space_group_name_H-M   'P 21 21 21'
_symmetry_Int_Tables_number      19
_space_group_name_Hall           'P 2ac 2ab'
loop_
_symmetry_equiv_pos_site_id
_symmetry_equiv_pos_as_xyz
1 x,y,z
2 1/2-x,-y,1/2+z
3 1/2+x,1/2-y,-z
4 -x,1/2+y,1/2-z
_cell_length_a                   6.38937(15)
_cell_length_b                   15.4886(4)
_cell_length_c                   18.7967(4)
_cell_angle_alpha                90
_cell_angle_beta                 90
_cell_angle_gamma                90
_cell_volume                     1860.17
_cell_formula_units_Z            4
loop_
_atom_site_label
_atom_site_type_symbol
_atom_site_fract_x
_atom_site_fract_y
_atom_site_fract_z
O1 O -0.60006(15) -0.09015(6) -0.21783(5)
O2 O -0.72817(18) 0.12415(7) -0.29180(6)
H1 H -0.8323 0.1371 -0.2687
O3 O -0.93721(16) -0.30476(6) -0.28528(5)
C1 C -0.9368(2) -0.16033(9) -0.22244(7)
H2 H -1.0385 -0.1922 -0.1946
H3 H -1.0041 -0.1083 -0.2398
C2 C -0.6294(2) 0.00280(9) -0.21458(8)
C3 C -0.8691(2) -0.21470(9) -0.28493(7)
H4 H -0.7247 -0.2052 -0.3007
C4 C -1.0123(2) -0.24590(9) -0.34022(7)
C5 C -0.4212(2) 0.04205(10) -0.19229(8)
H5 H -0.3116 0.0196 -0.2219
H6 H -0.3931 0.0276 -0.1435
H7 H -0.4276 0.1037 -0.1973
C6 C -0.8121(2) -0.03952(10) -0.43913(7)
C7 C -0.5416(2) 0.01109(9) -0.34757(8)
H8 H -0.4952 -0.0481 -0.3415
H9 H -0.4203 0.0483 -0.3425
C8 C -0.7511(2) -0.13512(9) -0.17445(7)
C9 C -0.6400(2) -0.21526(9) -0.14384(7)
H10 H -0.5982 -0.2514 -0.1842
C10 C -0.4415(3) -0.19292(10) -0.10261(8)
H11 H -0.4786 -0.1697 -0.0570
H12 H -0.3622 -0.1509 -0.1287
H13 H -0.3588 -0.2441 -0.0962
C11 C -0.7751(2) -0.12317(10) -0.44914(7)
H14 H -0.6361 -0.1402 -0.4448
C12 C -0.8041(2) 0.01770(9) -0.15927(8)
H15 H -0.7678 0.0645 -0.1273
H16 H -0.9356 0.0313 -0.1825
C13 C -0.6317(3) 0.02177(9) -0.42290(8)
H17 H -0.6801 0.0807 -0.4286
H18 H -0.5208 0.0121 -0.4573
C14 C -0.6985(2) 0.03282(9) -0.28944(7)
H19 H -0.8318 0.0048 -0.3010
C15 C -0.7861(3) -0.26939(10) -0.09726(9)
H20 H -0.9005 -0.2904 -0.1255
H21 H -0.8394 -0.2344 -0.0592
H22 H -0.7102 -0.3174 -0.0778
C16 C -0.8189(2) -0.06824(9) -0.11888(7)
H23 H -0.7260 -0.0687 -0.0781
H24 H -0.9609 -0.0790 -0.1029
C17 C -0.9289(3) -0.19404(10) -0.46656(7)
H25 H -0.8972 -0.2167 -0.5135
H26 H -1.0687 -0.1697 -0.4682
C18 C -0.9260(2) -0.26857(9) -0.41282(7)
H27 H -1.0067 -0.3162 -0.4321
H28 H -0.7828 -0.2883 -0.4072
C19 C -1.0269(3) 0.00052(10) -0.44192(9)
H29 H -1.1304 -0.0442 -0.4453
H30 H -1.0367 0.0376 -0.4827
H31 H -1.0503 0.0337 -0.3995
C20 C -1.2426(2) -0.22441(10) -0.33674(7)
H32 H -1.2816 -0.2135 -0.2883
H33 H -1.3225 -0.2721 -0.3548
H34 H -1.2700 -0.1740 -0.3650
loop_
_geom_bond_atom_site_label_1
_geom_bond_atom_site_label_2
_geom_bond_site_symmetry_1
_geom_bond_site_symmetry_2
O1 C2 1_555 1_555
O2 H1 1_555 1_555
O3 C3 1_555 1_555
C1 H2 1_555 1_555
H3 C1 1_555 1_555
C2 C5 1_555 1_555
C3 C1 1_555 1_555
H4 C3 1_555 1_555
C4 O3 1_555 1_555
C5 H5 1_555 1_555
H6 C5 1_555 1_555
H7 C5 1_555 1_555
C6 C11 1_555 1_555
C7 H8 1_555 1_555
H9 C7 1_555 1_555
C8 O1 1_555 1_555
C9 C8 1_555 1_555
H10 C9 1_555 1_555
C10 C9 1_555 1_555
H11 C10 1_555 1_555
H12 C10 1_555 1_555
H13 C10 1_555 1_555
C11 H14 1_555 1_555
C12 C2 1_555 1_555
H15 C12 1_555 1_555
H16 C12 1_555 1_555
C13 C6 1_555 1_555
H17 C13 1_555 1_555
H18 C13 1_555 1_555
C14 O2 1_555 1_555
H19 C14 1_555 1_555
C15 C9 1_555 1_555
H20 C15 1_555 1_555
H21 C15 1_555 1_555
H22 C15 1_555 1_555
C16 C8 1_555 1_555
H23 C16 1_555 1_555
H24 C16 1_555 1_555
C17 C11 1_555 1_555
H25 C17 1_555 1_555
H26 C17 1_555 1_555
C18 C4 1_555 1_555
H27 C18 1_555 1_555
H28 C18 1_555 1_555
C19 C6 1_555 1_555
H29 C19 1_555 1_555
H30 C19 1_555 1_555
H31 C19 1_555 1_555
C20 C4 1_555 1_555
H32 C20 1_555 1_555
H33 C20 1_555 1_555
H34 C20 1_555 1_555
C1 C8 1_555 1_555
C2 C14 1_555 1_555
C3 C4 1_555 1_555
C7 C13 1_555 1_555
C7 C14 1_555 1_555
C12 C16 1_555 1_555
C17 C18 1_555 1_555

#END
