
#######################################################################
#
#                 Cambridge Crystallographic Data Centre
#                                CCDC 
#
#######################################################################
#
# If this CIF has been generated from an entry in the Cambridge 
# Structural Database, then it will include bibliographic, chemical, 
# crystal, experimental, refinement or atomic coordinate data resulting 
# from the CCDC's data processing and validation procedures.
#
#######################################################################

data_INDRUB
_chemical_formula_moiety         'C16 H10 N2 O2'
_chemical_name_systematic        Indirubin
_symmetry_cell_setting           orthorhombic
_symmetry_space_group_name_H-M   'P 21 21 21'
_symmetry_Int_Tables_number      19
_space_group_name_Hall           'P 2ac 2ab'
loop_
_symmetry_equiv_pos_site_id
_symmetry_equiv_pos_as_xyz
1 x,y,z
2 1/2+x,1/2-y,-z
3 -x,1/2+y,1/2-z
4 1/2-x,-y,1/2+z
_cell_length_a                   4.740
_cell_length_b                   11.950
_cell_length_c                   20.700
_cell_angle_alpha                90
_cell_angle_beta                 90
_cell_angle_gamma                90
_cell_volume                     1172.51
_cell_formula_units_Z            4
loop_
_atom_site_label
_atom_site_type_symbol
_atom_site_fract_x
_atom_site_fract_y
_atom_site_fract_z
C1 C -0.46510 -0.03590 0.16990
C2 C -0.61310 -0.05000 0.11690
C3 C -0.83660 0.01930 0.08400
C4 C -0.95610 0.12450 0.09760
C5 C -1.16540 0.16320 0.05410
C6 C -1.24030 0.10020 -0.00080
C7 C -1.11980 -0.00520 -0.01390
C8 C -0.92200 -0.04100 0.02880
C9 C -0.44400 0.06250 0.21670
C10 C -0.22180 0.03220 0.26370
C11 C -0.11800 0.08900 0.31660
C12 C 0.09850 0.03570 0.35220
C13 C 0.19700 -0.07230 0.33590
C14 C 0.08420 -0.13150 0.28280
C15 C -0.13290 -0.07460 0.24730
C16 C -0.58300 -0.15070 0.07560
N1 N -0.26960 -0.11550 0.19200
N2 N -0.77300 -0.14230 0.02520
O1 O -0.57250 0.14980 0.21260
O2 O -0.42090 -0.23160 0.08580
loop_
_geom_bond_atom_site_label_1
_geom_bond_atom_site_label_2
_geom_bond_site_symmetry_1
_geom_bond_site_symmetry_2
C1 C2 1_555 1_555
C2 C3 1_555 1_555
C3 C4 1_555 1_555
C4 C5 1_555 1_555
C5 C6 1_555 1_555
C6 C7 1_555 1_555
C7 C8 1_555 1_555
C8 C3 1_555 1_555
C9 C1 1_555 1_555
C10 C9 1_555 1_555
C11 C10 1_555 1_555
C12 C11 1_555 1_555
C13 C12 1_555 1_555
C14 C13 1_555 1_555
C15 C10 1_555 1_555
C16 C2 1_555 1_555
N1 C1 1_555 1_555
N2 C8 1_555 1_555
O1 C9 1_555 1_555
O2 C16 1_555 1_555
C14 C15 1_555 1_555
C15 N1 1_555 1_555
C16 N2 1_555 1_555

#END
