
#######################################################################
#
#                 Cambridge Crystallographic Data Centre
#                                CCDC 
#
#######################################################################
#
# If this CIF has been generated from an entry in the Cambridge 
# Structural Database, then it will include bibliographic, chemical, 
# crystal, experimental, refinement or atomic coordinate data resulting 
# from the CCDC's data processing and validation procedures.
#
#######################################################################

data_INEFAI
_chemical_formula_moiety         'C20 H19 N1 O5'
_chemical_name_systematic        
'Ethyl 2-(acetylamino)-2-(9-hydroxy-10-oxo-9,10-dihydro-9-phenanthrenyl)acetate'
_symmetry_cell_setting           triclinic
_symmetry_space_group_name_H-M   'P -1'
_symmetry_Int_Tables_number      2
_space_group_name_Hall           '-P 1'
loop_
_symmetry_equiv_pos_site_id
_symmetry_equiv_pos_as_xyz
1 x,y,z
2 -x,-y,-z
_cell_length_a                   7.7205(5)
_cell_length_b                   8.8797(6)
_cell_length_c                   14.1801(10)
_cell_angle_alpha                82.7950(10)
_cell_angle_beta                 80.2410(10)
_cell_angle_gamma                64.4150(10)
_cell_volume                     862.625
_exptl_crystal_colour            'light yellow'
_exptl_crystal_description       block
_chemical_melting_point          162-164deg.C
_cell_formula_units_Z            2
_exptl_crystal_recrystallization_method dichloromethane/acetone
loop_
_atom_site_label
_atom_site_type_symbol
_atom_site_fract_x
_atom_site_fract_y
_atom_site_fract_z
O1 O 0.68509(19) 0.03669(17) 0.13722(9)
O2 O 0.6399(2) -0.10534(18) 0.31295(10)
O3 O 1.10098(19) -0.23422(17) 0.08638(9)
O4 O 1.05710(18) -0.27846(15) 0.24610(9)
O5 O 1.2970(2) 0.0683(2) 0.17956(10)
N1 N 1.0457(2) 0.09081(19) 0.11072(10)
H1 H 0.995(3) 0.117(2) 0.0649(15)
C1 C 0.6804(2) 0.2663(2) 0.21683(12)
C2 C 0.6261(3) 0.3703(2) 0.13518(13)
H2 H 0.6297 0.3247 0.0789
C3 C 0.5665(3) 0.5410(3) 0.13691(15)
H3 H 0.5285 0.6098 0.0822
C4 C 0.5635(3) 0.6091(3) 0.21974(17)
H4 H 0.5257 0.7236 0.2207
C5 C 0.6167(3) 0.5071(2) 0.30100(15)
H5 H 0.6137 0.5541 0.3566
C6 C 0.6751(2) 0.3343(2) 0.30192(12)
C7 C 0.7175(2) 0.2252(2) 0.39107(12)
C8 C 0.7401(3) 0.2795(3) 0.47484(14)
H6 H 0.7392 0.3848 0.4741
C9 C 0.7638(3) 0.1786(3) 0.55865(14)
H7 H 0.7804 0.2163 0.6133
C10 C 0.7633(3) 0.0233(3) 0.56239(14)
H8 H 0.7767 -0.0425 0.6195
C11 C 0.7427(3) -0.0338(3) 0.48122(13)
H9 H 0.7420 -0.1387 0.4833
C12 C 0.7228(2) 0.0656(2) 0.39500(12)
C13 C 0.6995(2) 0.0010(2) 0.30906(12)
C14 C 0.7539(2) 0.0774(2) 0.21178(11)
C15 C 0.9808(2) -0.0016(2) 0.18820(11)
C16 C 1.0538(2) -0.1834(2) 0.16553(12)
C17 C 1.0969(3) -0.4524(3) 0.23745(17)
H10 H 1.2166 -0.5063 0.1954
H11 H 0.9928 -0.4589 0.2108
C18 C 1.1133(5) -0.5366(4) 0.3353(2)
H12 H 1.1286 -0.6493 0.3328
H13 H 0.9982 -0.4767 0.3775
H14 H 1.2237 -0.5380 0.3587
C19 C 1.1999(3) 0.1214(2) 0.11252(12)
C20 C 1.2471(3) 0.2251(3) 0.02954(14)
H15 H 1.3672 0.2293 0.0350
H16 H 1.1456 0.3364 0.0296
H17 H 1.2587 0.1763 -0.0292
H18 H 1.034(2) -0.0015(19) 0.2411(12)
H19 H 0.574(4) 0.041(3) 0.1590(18)
loop_
_geom_bond_atom_site_label_1
_geom_bond_atom_site_label_2
_geom_bond_site_symmetry_1
_geom_bond_site_symmetry_2
O1 C14 1_555 1_555
O2 C13 1_555 1_555
O3 C16 1_555 1_555
O4 C16 1_555 1_555
O5 C19 1_555 1_555
N1 H1 1_555 1_555
C1 C2 1_555 1_555
C2 H2 1_555 1_555
C3 C2 1_555 1_555
H3 C3 1_555 1_555
C4 C3 1_555 1_555
H4 C4 1_555 1_555
C5 C4 1_555 1_555
H5 C5 1_555 1_555
C6 C1 1_555 1_555
C7 C6 1_555 1_555
C8 C7 1_555 1_555
H6 C8 1_555 1_555
C9 C8 1_555 1_555
H7 C9 1_555 1_555
C10 C9 1_555 1_555
H8 C10 1_555 1_555
C11 C10 1_555 1_555
H9 C11 1_555 1_555
C12 C7 1_555 1_555
C13 C12 1_555 1_555
C14 C1 1_555 1_555
C15 N1 1_555 1_555
C16 C15 1_555 1_555
C17 O4 1_555 1_555
H10 C17 1_555 1_555
H11 C17 1_555 1_555
C18 C17 1_555 1_555
H12 C18 1_555 1_555
H13 C18 1_555 1_555
H14 C18 1_555 1_555
C19 N1 1_555 1_555
C20 C19 1_555 1_555
H15 C20 1_555 1_555
H16 C20 1_555 1_555
H17 C20 1_555 1_555
H18 C15 1_555 1_555
H19 O1 1_555 1_555
C5 C6 1_555 1_555
C11 C12 1_555 1_555
C13 C14 1_555 1_555
C14 C15 1_555 1_555

#END
