
#######################################################################
#
#                 Cambridge Crystallographic Data Centre
#                                CCDC 
#
#######################################################################
#
# If this CIF has been generated from an entry in the Cambridge 
# Structural Database, then it will include bibliographic, chemical, 
# crystal, experimental, refinement or atomic coordinate data resulting 
# from the CCDC's data processing and validation procedures.
#
#######################################################################

data_INEHAK
_chemical_formula_moiety         'C18 H8 Cl4 O2'
_chemical_name_systematic        
4b,4c,9a,9c-Tetrachloro-4b,4c,9b,9c-tetrahydroindeno(1',2':3,4)cyclobuta(1,2-a)indene-5,10-dione
_symmetry_cell_setting           monoclinic
_symmetry_space_group_name_H-M   'C 2/c'
_symmetry_Int_Tables_number      15
_space_group_name_Hall           '-C 2yn'
loop_
_symmetry_equiv_pos_site_id
_symmetry_equiv_pos_as_xyz
1 x,y,z
2 1/2+x,1/2+y,z
3 x,-y,1/2+z
4 1/2+x,1/2-y,1/2+z
5 -x,-y,-z
6 1/2-x,1/2-y,-z
7 -x,y,1/2-z
8 1/2-x,1/2+y,1/2-z
_cell_length_a                   15.8948(10)
_cell_length_b                   8.7186(5)
_cell_length_c                   13.5633(9)
_cell_angle_alpha                90
_cell_angle_beta                 120.5630(10)
_cell_angle_gamma                90
_cell_volume                     1618.47
_exptl_crystal_colour            colorless
_exptl_crystal_description       block
_chemical_melting_point          '533-534 K'
_cell_formula_units_Z            4
_exptl_crystal_recrystallization_method 'petroleum ether'
loop_
_atom_site_label
_atom_site_type_symbol
_atom_site_fract_x
_atom_site_fract_y
_atom_site_fract_z
Cl1 Cl 0.40907(3) 0.56400(4) 0.04477(3)
Cl2 Cl 0.37269(3) 0.61081(5) 0.25740(3)
O1 O 0.33305(10) 0.27874(18) 0.30264(11)
C1 C 0.37101(10) 0.29964(19) 0.24605(13)
C2 C 0.37187(10) 0.19876(17) 0.15985(13)
C3 C 0.33201(13) 0.0518(2) 0.12840(17)
C4 C 0.33980(14) -0.0223(2) 0.0438(2)
C5 C 0.38544(14) 0.0469(2) -0.00877(19)
C6 C 0.42619(12) 0.1923(2) 0.02289(15)
C7 C 0.41892(10) 0.26789(16) 0.10835(12)
C8 C 0.45550(10) 0.42702(15) 0.15581(12)
C9 C 0.43113(10) 0.44237(16) 0.25358(12)
H1 H 0.3005(18) 0.005(3) 0.165(2)
H2 H 0.3119(18) -0.118(3) 0.021(2)
H3 H 0.3872(18) -0.010(3) -0.071(2)
H4 H 0.4565(14) 0.238(2) -0.0136(17)
C9F C 0.56887(10) 0.44237(16) 0.24642(12)
Cl2F Cl 0.62731(3) 0.61081(5) 0.24260(3)
C1F C 0.62899(10) 0.29964(19) 0.25395(13)
O1F O 0.66695(10) 0.27874(18) 0.19736(11)
C2F C 0.62813(10) 0.19876(17) 0.34015(13)
C3F C 0.66799(13) 0.0518(2) 0.37160(17)
C4F C 0.66020(14) -0.0223(2) 0.4562(2)
C5F C 0.61456(14) 0.0469(2) 0.50877(19)
C6F C 0.57381(12) 0.1923(2) 0.47711(15)
C7F C 0.58108(10) 0.26789(16) 0.39165(12)
C8F C 0.54450(10) 0.42702(15) 0.34419(12)
Cl1F Cl 0.59093(3) 0.56400(4) 0.45523(3)
H4F H 0.5435(14) 0.238(2) 0.5136(17)
H3F H 0.6128(18) -0.010(3) 0.571(2)
H2F H 0.6881(18) -0.118(3) 0.479(2)
H1F H 0.6995(18) 0.005(3) 0.335(2)
loop_
_geom_bond_atom_site_label_1
_geom_bond_atom_site_label_2
_geom_bond_site_symmetry_1
_geom_bond_site_symmetry_2
Cl1 C8 1_555 1_555
Cl2 C9 1_555 1_555
O1 C1 1_555 1_555
C1 C2 1_555 1_555
C2 C3 1_555 1_555
C3 C4 1_555 1_555
C4 C5 1_555 1_555
C5 C6 1_555 1_555
C6 C7 1_555 1_555
C7 C2 1_555 1_555
C8 C7 1_555 1_555
C9 C1 1_555 1_555
H1 C3 1_555 1_555
H2 C4 1_555 1_555
H3 C5 1_555 1_555
H4 C6 1_555 1_555
C9F C8 1_555 1_555
Cl2F C9F 1_555 1_555
C1F C9F 1_555 1_555
O1F C1F 1_555 1_555
C2F C1F 1_555 1_555
C3F C2F 1_555 1_555
C4F C3F 1_555 1_555
C5F C4F 1_555 1_555
C6F C5F 1_555 1_555
C7F C2F 1_555 1_555
C8F C9 1_555 1_555
Cl1F C8F 1_555 1_555
H4F C6F 1_555 1_555
H3F C5F 1_555 1_555
H2F C4F 1_555 1_555
H1F C3F 1_555 1_555
C8 C9 1_555 1_555
C9F C8F 1_555 1_555
C6F C7F 1_555 1_555
C7F C8F 1_555 1_555

#END
