
#######################################################################
#
#                 Cambridge Crystallographic Data Centre
#                                CCDC 
#
#######################################################################
#
# If this CIF has been generated from an entry in the Cambridge 
# Structural Database, then it will include bibliographic, chemical, 
# crystal, experimental, refinement or atomic coordinate data resulting 
# from the CCDC's data processing and validation procedures.
#
#######################################################################

data_INEJOC
_chemical_formula_moiety         'C40 H29 O6 P1'
_chemical_name_systematic        
"methyl 2-(4-methoxyphenyl)-1',3',5-trioxo-4-(triphenylphosphoranylidene)-1',3'-dihydrospiro[cyclopent-2-ene-1,2'-indene]-3-carboxylate"
_symmetry_cell_setting           orthorhombic
_symmetry_space_group_name_H-M   'P b c a'
_symmetry_Int_Tables_number      61
_space_group_name_Hall           '-P 2ac 2ab'
loop_
_symmetry_equiv_pos_site_id
_symmetry_equiv_pos_as_xyz
1 x,y,z
2 1/2-x,-y,1/2+z
3 -x,1/2+y,1/2-z
4 1/2+x,1/2-y,-z
5 -x,-y,-z
6 1/2+x,y,1/2-z
7 x,1/2-y,1/2+z
8 1/2-x,1/2+y,z
_cell_length_a                   16.2502(18)
_cell_length_b                   17.8085(19)
_cell_length_c                   22.260(3)
_cell_angle_alpha                90
_cell_angle_beta                 90
_cell_angle_gamma                90
_cell_volume                     6441.86
_exptl_crystal_colour            red
_exptl_crystal_description       block
_cell_formula_units_Z            8
loop_
_atom_site_label
_atom_site_type_symbol
_atom_site_fract_x
_atom_site_fract_y
_atom_site_fract_z
C1 C 0.62421(13) 0.14509(12) 0.32439(10)
C2 C 0.56412(14) 0.11651(13) 0.28016(10)
C3 C 0.56301(17) 0.04748(16) 0.25106(12)
H1 H 0.6040 0.0120 0.2578
C4 C 0.4994(2) 0.0335(2) 0.21209(13)
H2 H 0.4972 -0.0123 0.1920
C5 C 0.4395(2) 0.0854(2) 0.20232(13)
H3 H 0.3971 0.0738 0.1759
C6 C 0.43918(17) 0.1553(2) 0.23036(11)
H4 H 0.3982 0.1905 0.2229
C7 C 0.50360(14) 0.16975(14) 0.27020(9)
C8 C 0.51946(13) 0.23755(14) 0.30651(10)
C9 C 0.59129(11) 0.21992(11) 0.34852(9)
C10 C 0.65139(11) 0.28265(10) 0.35843(9)
C11 C 0.68841(12) 0.32460(11) 0.30847(9)
C12 C 0.69165(14) 0.40259(12) 0.30910(10)
H5 H 0.6690 0.4285 0.3414
C13 C 0.72766(16) 0.44230(13) 0.26310(10)
H6 H 0.7298 0.4944 0.2648
C14 C 0.76063(16) 0.40487(13) 0.21445(10)
C15 C 0.8215(3) 0.41631(18) 0.11695(13)
H7 H 0.8657 0.3820 0.1249
H8 H 0.8401 0.4547 0.0899
H9 H 0.7763 0.3896 0.0991
C16 C 0.75665(16) 0.32825(14) 0.21184(10)
H10 H 0.7779 0.3027 0.1789
C17 C 0.72071(14) 0.28911(12) 0.25873(10)
H11 H 0.7183 0.2370 0.2566
C18 C 0.55622(11) 0.20344(11) 0.41294(9)
C19 C 0.60106(11) 0.24852(10) 0.45307(9)
C20 C 0.65552(10) 0.29795(10) 0.41776(8)
C21 C 0.70188(11) 0.36304(11) 0.44173(9)
C22 C 0.82985(15) 0.42491(15) 0.44269(15)
H12 H 0.8160 0.4663 0.4170
H13 H 0.8872 0.4132 0.4383
H14 H 0.8188 0.4382 0.4837
C23 C 0.56738(11) 0.16234(11) 0.56559(9)
C24 C 0.57445(14) 0.09436(12) 0.53652(10)
H15 H 0.5840 0.0929 0.4953
C25 C 0.56730(15) 0.02808(13) 0.56875(12)
H16 H 0.5712 -0.0178 0.5489
C26 C 0.55465(14) 0.02962(14) 0.62915(12)
H17 H 0.5500 -0.0152 0.6504
C27 C 0.54872(17) 0.09670(14) 0.65883(11)
H18 H 0.5406 0.0975 0.7002
C28 C 0.55487(15) 0.16275(13) 0.62734(10)
H19 H 0.5506 0.2083 0.6476
C29 C 0.48691(11) 0.30600(11) 0.54373(9)
C30 C 0.41725(12) 0.27623(12) 0.56919(10)
H20 H 0.4171 0.2266 0.5822
C31 C 0.34684(13) 0.31984(14) 0.57559(11)
H21 H 0.2999 0.2993 0.5929
C32 C 0.34639(13) 0.39245(14) 0.55660(11)
H22 H 0.2994 0.4217 0.5614
C33 C 0.41471(15) 0.42219(15) 0.53059(13)
H23 H 0.4141 0.4717 0.5173
C34 C 0.48472(15) 0.37952(13) 0.52383(12)
H24 H 0.5310 0.4003 0.5057
C35 C 0.66433(11) 0.29415(10) 0.56809(8)
C36 C 0.65520(14) 0.34625(12) 0.61343(10)
H25 H 0.6030 0.3625 0.6246
C37 C 0.72388(17) 0.37413(14) 0.64211(12)
H26 H 0.7180 0.4090 0.6729
C38 C 0.80112(16) 0.35045(15) 0.62534(12)
H27 H 0.8472 0.3704 0.6443
C39 C 0.81072(13) 0.29812(15) 0.58132(11)
H28 H 0.8631 0.2819 0.5705
C40 C 0.74259(12) 0.26944(12) 0.55299(10)
H29 H 0.7490 0.2331 0.5234
O1 O 0.68711(10) 0.11486(9) 0.33890(9)
O2 O 0.48350(11) 0.29651(11) 0.30392(9)
O3 O 0.79529(13) 0.44973(10) 0.17150(8)
O4 O 0.50028(8) 0.15738(8) 0.42115(6)
O5 O 0.67205(9) 0.41347(8) 0.47022(7)
O6 O 0.78109(8) 0.36029(7) 0.42638(7)
P1 P 0.57894(3) 0.25221(3) 0.52936(2)
loop_
_geom_bond_atom_site_label_1
_geom_bond_atom_site_label_2
_geom_bond_site_symmetry_1
_geom_bond_site_symmetry_2
C1 C2 1_555 1_555
C2 C3 1_555 1_555
C3 H1 1_555 1_555
C4 C3 1_555 1_555
H2 C4 1_555 1_555
C5 C4 1_555 1_555
H3 C5 1_555 1_555
C6 C5 1_555 1_555
H4 C6 1_555 1_555
C7 C2 1_555 1_555
C8 C7 1_555 1_555
C9 C1 1_555 1_555
C10 C9 1_555 1_555
C11 C10 1_555 1_555
C12 C11 1_555 1_555
H5 C12 1_555 1_555
C13 C12 1_555 1_555
H6 C13 1_555 1_555
C14 C13 1_555 1_555
C15 H7 1_555 1_555
H8 C15 1_555 1_555
H9 C15 1_555 1_555
C16 C14 1_555 1_555
H10 C16 1_555 1_555
C17 C11 1_555 1_555
H11 C17 1_555 1_555
C18 C9 1_555 1_555
C19 C18 1_555 1_555
C20 C10 1_555 1_555
C21 C20 1_555 1_555
C22 H12 1_555 1_555
H13 C22 1_555 1_555
H14 C22 1_555 1_555
C23 C24 1_555 1_555
C24 H15 1_555 1_555
C25 C24 1_555 1_555
H16 C25 1_555 1_555
C26 C25 1_555 1_555
H17 C26 1_555 1_555
C27 C26 1_555 1_555
H18 C27 1_555 1_555
C28 C23 1_555 1_555
H19 C28 1_555 1_555
C29 C30 1_555 1_555
C30 H20 1_555 1_555
C31 C30 1_555 1_555
H21 C31 1_555 1_555
C32 C31 1_555 1_555
H22 C32 1_555 1_555
C33 C32 1_555 1_555
H23 C33 1_555 1_555
C34 C29 1_555 1_555
H24 C34 1_555 1_555
C35 C36 1_555 1_555
C36 H25 1_555 1_555
C37 C36 1_555 1_555
H26 C37 1_555 1_555
C38 C37 1_555 1_555
H27 C38 1_555 1_555
C39 C38 1_555 1_555
H28 C39 1_555 1_555
C40 C35 1_555 1_555
H29 C40 1_555 1_555
O1 C1 1_555 1_555
O2 C8 1_555 1_555
O3 C14 1_555 1_555
O4 C18 1_555 1_555
O5 C21 1_555 1_555
O6 C21 1_555 1_555
P1 C19 1_555 1_555
C6 C7 1_555 1_555
C8 C9 1_555 1_555
C15 O3 1_555 1_555
C16 C17 1_555 1_555
C19 C20 1_555 1_555
C22 O6 1_555 1_555
C23 P1 1_555 1_555
C27 C28 1_555 1_555
C29 P1 1_555 1_555
C33 C34 1_555 1_555
C35 P1 1_555 1_555
C39 C40 1_555 1_555

#END
