
#######################################################################
#
#                 Cambridge Crystallographic Data Centre
#                                CCDC 
#
#######################################################################
#
# If this CIF has been generated from an entry in the Cambridge 
# Structural Database, then it will include bibliographic, chemical, 
# crystal, experimental, refinement or atomic coordinate data resulting 
# from the CCDC's data processing and validation procedures.
#
#######################################################################

data_INEKAO
_chemical_formula_moiety         'C26 H28 N2 O4 P2'
_chemical_name_systematic        
2,3-bis(Phenyl(isopropoxy)phosphinyl)quinoxaline
_symmetry_cell_setting           monoclinic
_symmetry_space_group_name_H-M   'C 2/c'
_symmetry_Int_Tables_number      15
_space_group_name_Hall           '-C 2yn'
loop_
_symmetry_equiv_pos_site_id
_symmetry_equiv_pos_as_xyz
1 x,y,z
2 -x,y,1/2-z
3 1/2+x,1/2+y,z
4 1/2-x,1/2+y,1/2-z
5 -x,-y,-z
6 x,-y,1/2+z
7 1/2-x,1/2-y,-z
8 1/2+x,1/2-y,1/2+z
_cell_length_a                   11.2641(11)
_cell_length_b                   17.5179(16)
_cell_length_c                   13.2047(12)
_cell_angle_alpha                90
_cell_angle_beta                 101.5560(10)
_cell_angle_gamma                90
_cell_volume                     2552.78
_exptl_crystal_colour            colorless
_exptl_crystal_description       block
_cell_formula_units_Z            4
loop_
_atom_site_label
_atom_site_type_symbol
_atom_site_fract_x
_atom_site_fract_y
_atom_site_fract_z
P1 P 0.84147(4) 0.16328(2) 0.73536(3)
O1 O 0.70749(10) 0.19512(6) 0.70474(8)
O2 O 0.88084(11) 0.11239(6) 0.65986(9)
N1 N 0.87658(12) 0.31376(7) 0.75453(10)
C1 C 0.93780(16) 0.51766(10) 0.75241(14)
H2 H 0.8963 0.5648 0.7535
C2 C 0.87676(16) 0.45051(9) 0.75544(13)
H3 H 0.7933 0.4510 0.7590
C3 C 0.93799(14) 0.38062(9) 0.75334(11)
C4 C 0.93622(14) 0.24942(8) 0.75123(11)
C5 C 0.57246(19) 0.29220(12) 0.62390(16)
H4 H 0.6154 0.3298 0.6728
H5 H 0.5074 0.2689 0.6527
H6 H 0.5378 0.3175 0.5585
C6 C 0.65972(16) 0.23133(11) 0.60506(13)
H7 H 0.7277 0.2554 0.5781
C7 C 0.60041(19) 0.17046(12) 0.53013(14)
H8 H 0.6611 0.1325 0.5206
H9 H 0.5659 0.1941 0.4635
H10 H 0.5359 0.1455 0.5578
C8 C 0.83171(15) 0.12150(9) 0.85659(12)
C9 C 0.77138(16) 0.15802(9) 0.92556(13)
H11 H 0.7419 0.2085 0.9118
C10 C 0.75447(18) 0.12073(10) 1.01390(14)
H12 H 0.7147 0.1458 1.0615
C11 C 0.79604(17) 0.04621(10) 1.03273(14)
H13 H 0.7836 0.0203 1.0930
C12 C 0.85500(16) 0.00984(10) 0.96469(14)
H14 H 0.8823 -0.0412 0.9778
C13 C 0.87481(16) 0.04720(9) 0.87722(13)
H15 H 0.9175 0.0224 0.8314
P1A P 1.15853(4) 0.16328(2) 0.76464(3)
O1A O 1.29251(10) 0.19512(6) 0.79526(8)
O2A O 1.11916(11) 0.11239(6) 0.84014(9)
N1A N 1.12342(12) 0.31376(7) 0.74547(10)
C1A C 1.06220(16) 0.51766(10) 0.74759(14)
H2A H 1.1037 0.5648 0.7465
C2A C 1.12324(16) 0.45051(9) 0.74456(13)
H3A H 1.2067 0.4510 0.7410
C3A C 1.06201(14) 0.38062(9) 0.74666(11)
C4A C 1.06378(14) 0.24942(8) 0.74877(11)
C5A C 1.42754(19) 0.29220(12) 0.87610(16)
H4A H 1.3846 0.3298 0.8272
H5A H 1.4926 0.2689 0.8473
H6A H 1.4622 0.3175 0.9415
C6A C 1.34028(16) 0.23133(11) 0.89494(13)
H7A H 1.2723 0.2554 0.9219
C7A C 1.39959(19) 0.17046(12) 0.96987(14)
H8A H 1.3389 0.1325 0.9794
H9A H 1.4341 0.1941 1.0365
H10A H 1.4641 0.1455 0.9422
C8A C 1.16829(15) 0.12150(9) 0.64341(12)
C9A C 1.22862(16) 0.15802(9) 0.57444(13)
H11A H 1.2581 0.2085 0.5882
C10A C 1.24553(18) 0.12073(10) 0.48610(14)
H12A H 1.2853 0.1458 0.4385
C11A C 1.20396(17) 0.04621(10) 0.46727(14)
H13A H 1.2164 0.0203 0.4070
C12A C 1.14500(16) 0.00984(10) 0.53531(14)
H14A H 1.1177 -0.0412 0.5222
C13A C 1.12519(16) 0.04720(9) 0.62278(13)
H15A H 1.0825 0.0224 0.6686
H1? H 0.9520 0.0976 0.6832
loop_
_geom_bond_atom_site_label_1
_geom_bond_atom_site_label_2
_geom_bond_site_symmetry_1
_geom_bond_site_symmetry_2
P1 O1 1_555 1_555
O1 C6 1_555 1_555
O2 P1 1_555 1_555
N1 C3 1_555 1_555
C1 H2 1_555 1_555
C2 C1 1_555 1_555
H3 C2 1_555 1_555
C3 C2 1_555 1_555
C4 P1 1_555 1_555
C5 H4 1_555 1_555
H5 C5 1_555 1_555
H6 C5 1_555 1_555
C6 C5 1_555 1_555
H7 C6 1_555 1_555
C7 C6 1_555 1_555
H8 C7 1_555 1_555
H9 C7 1_555 1_555
H10 C7 1_555 1_555
C8 P1 1_555 1_555
C9 C8 1_555 1_555
H11 C9 1_555 1_555
C10 C9 1_555 1_555
H12 C10 1_555 1_555
C11 C10 1_555 1_555
H13 C11 1_555 1_555
C12 C11 1_555 1_555
H14 C12 1_555 1_555
C13 C8 1_555 1_555
H15 C13 1_555 1_555
P1A O1A 1_555 1_555
O1A C6A 1_555 1_555
O2A P1A 1_555 1_555
N1A C3A 1_555 1_555
C1A C1 1_555 1_555
H2A C1A 1_555 1_555
C2A C1A 1_555 1_555
H3A C2A 1_555 1_555
C3A C3 1_555 1_555
C4A C4 1_555 1_555
C5A H4A 1_555 1_555
H5A C5A 1_555 1_555
H6A C5A 1_555 1_555
C6A C5A 1_555 1_555
H7A C6A 1_555 1_555
C7A C6A 1_555 1_555
H8A C7A 1_555 1_555
H9A C7A 1_555 1_555
H10A C7A 1_555 1_555
C8A P1A 1_555 1_555
C9A C8A 1_555 1_555
H11A C9A 1_555 1_555
C10A C9A 1_555 1_555
H12A C10A 1_555 1_555
C11A C10A 1_555 1_555
H13A C11A 1_555 1_555
C12A C11A 1_555 1_555
H14A C12A 1_555 1_555
C13A C8A 1_555 1_555
H15A C13A 1_555 1_555
N1 C4 1_555 1_555
C12 C13 1_555 1_555
P1A C4A 1_555 1_555
N1A C4A 1_555 1_555
C2A C3A 1_555 1_555
C12A C13A 1_555 1_555

#END
