
#######################################################################
#
#                 Cambridge Crystallographic Data Centre
#                                CCDC 
#
#######################################################################
#
# If this CIF has been generated from an entry in the Cambridge 
# Structural Database, then it will include bibliographic, chemical, 
# crystal, experimental, refinement or atomic coordinate data resulting 
# from the CCDC's data processing and validation procedures.
#
#######################################################################

data_INELUK01
_chemical_name_common            perfluororubrene
_chemical_formula_moiety         'C42 F28'
_chemical_name_systematic        
5,6,11,12-tetrakis(perfluorophenyl)1,2,3,4,7,8,9,10-octafluorotetracene
_symmetry_cell_setting           triclinic
_symmetry_space_group_name_H-M   'P -1'
_symmetry_Int_Tables_number      2
_space_group_name_Hall           '-P 1'
loop_
_symmetry_equiv_pos_site_id
_symmetry_equiv_pos_as_xyz
1 x,y,z
2 -x,-y,-z
_cell_length_a                   12.5285(7)
_cell_length_b                   17.8163(9)
_cell_length_c                   24.7339(13)
_cell_angle_alpha                90.202(4)
_cell_angle_beta                 101.264(3)
_cell_angle_gamma                90.695(3)
_cell_volume                     5414.05
_exptl_crystal_colour            bronze
_exptl_crystal_description       Plate
_cell_formula_units_Z            6
_exptl_crystal_recrystallization_method 
'physical vapor transport with argon carrier gas'
loop_
_atom_site_label
_atom_site_type_symbol
_atom_site_fract_x
_atom_site_fract_y
_atom_site_fract_z
C1 C 0.3957(3) 0.5705(2) 0.06936(16)
F1 F 0.49785(19) 0.54972(14) 0.09006(11)
C2 C 0.3810(4) 0.6146(2) 0.02433(18)
F2 F 0.4649(2) 0.63558(17) 0.00159(13)
C3 C 0.2761(4) 0.6380(2) -0.00011(17)
F3 F 0.2636(2) 0.67669(16) -0.04707(11)
C4 C 0.1911(3) 0.6217(2) 0.02322(15)
F4 F 0.0934(2) 0.64593(13) -0.00282(9)
C5 C 0.1183(3) 0.57131(18) 0.10297(14)
C6 C 0.0659(3) 0.52655(19) 0.19083(14)
C7 C 0.0106(3) 0.4685(2) 0.27328(16)
F5 F -0.04737(19) 0.52854(13) 0.28255(10)
C8 C 0.0079(3) 0.4090(2) 0.30608(16)
F6 F -0.0504(2) 0.40845(15) 0.34557(11)
C9 C 0.0666(3) 0.3439(2) 0.29873(16)
F7 F 0.0556(2) 0.28397(14) 0.32954(11)
C10 C 0.1303(3) 0.3426(2) 0.26097(15)
F8 F 0.1820(2) 0.27806(13) 0.25547(10)
C11 C 0.2222(3) 0.41165(19) 0.19437(14)
C12 C 0.3177(3) 0.4948(2) 0.13694(14)
C13 C 0.3074(3) 0.54757(19) 0.09463(14)
C14 C 0.2016(3) 0.57956(19) 0.07342(14)
C15 C 0.2262(3) 0.47568(19) 0.16070(14)
C16 C 0.1342(3) 0.52503(19) 0.15085(14)
C17 C 0.1427(3) 0.40636(19) 0.22708(14)
C18 C 0.0724(3) 0.46958(19) 0.23004(14)
C19 C 0.0094(3) 0.60473(19) 0.08250(15)
C20 C -0.0801(3) 0.5598(2) 0.06276(16)
F9 F -0.06898(19) 0.48456(12) 0.06359(11)
C21 C -0.1817(3) 0.5880(2) 0.04223(19)
F10 F -0.2661(2) 0.54168(16) 0.02442(14)
C22 C -0.1964(3) 0.6647(2) 0.04070(18)
F11 F -0.2947(2) 0.69234(16) 0.02177(13)
C23 C -0.1090(3) 0.7114(2) 0.05961(17)
F12 F -0.1227(2) 0.78576(14) 0.05822(13)
C24 C -0.0086(3) 0.6819(2) 0.08004(16)
F13 F 0.07547(19) 0.72898(12) 0.09746(10)
C25 C -0.0002(3) 0.59495(19) 0.19480(14)
C26 C -0.1124(3) 0.5952(2) 0.18472(17)
F14 F -0.16797(18) 0.53145(13) 0.16912(12)
C27 C -0.1702(3) 0.6596(2) 0.19054(19)
F15 F -0.2790(2) 0.65794(16) 0.17967(14)
C28 C -0.1148(3) 0.7257(2) 0.20693(18)
F16 F -0.1694(2) 0.78824(15) 0.21215(13)
C29 C -0.0028(3) 0.7272(2) 0.21797(17)
F17 F 0.0502(2) 0.79086(13) 0.23463(12)
C30 C 0.0528(3) 0.6627(2) 0.21141(15)
F18 F 0.16146(17) 0.66534(13) 0.22302(10)
C31 C 0.2961(3) 0.3479(2) 0.18992(15)
C32 C 0.2848(3) 0.3082(2) 0.14031(16)
F19 F 0.21171(18) 0.32870(14) 0.09641(10)
C33 C 0.3518(4) 0.2482(2) 0.13415(19)
F20 F 0.3392(2) 0.21259(16) 0.08563(13)
C34 C 0.4307(4) 0.2272(3) 0.1777(2)
F21 F 0.4969(3) 0.17037(17) 0.17202(16)
C35 C 0.4442(4) 0.2652(3) 0.2269(2)
F22 F 0.5244(2) 0.2471(2) 0.26849(13)
C36 C 0.3759(3) 0.3238(3) 0.23296(17)
F23 F 0.3890(2) 0.35937(18) 0.28143(10)
C37 C 0.4262(3) 0.4650(2) 0.16308(15)
C38 C 0.4850(3) 0.4152(2) 0.13738(15)
F24 F 0.4426(2) 0.39111(15) 0.08664(10)
C39 C 0.5852(4) 0.3894(3) 0.16267(19)
F25 F 0.6381(2) 0.3396(2) 0.13766(13)
C40 C 0.6302(4) 0.4135(4) 0.2152(2)
F26 F 0.7269(3) 0.3888(3) 0.24055(16)
C41 C 0.5736(4) 0.4632(4) 0.2416(2)
F27 F 0.6147(3) 0.4845(4) 0.29341(16)
C42 C 0.4736(3) 0.4882(3) 0.21557(18)
F28 F 0.4222(2) 0.5367(2) 0.24249(12)
C43 C 0.5671(3) 0.9945(2) 0.93771(14)
F29 F 0.63480(16) 1.05356(13) 0.93872(9)
C44 C 0.5979(3) 0.9412(2) 0.97626(14)
F30 F 0.69240(17) 0.94639(14) 1.01255(9)
C45 C 0.5297(3) 0.8784(2) 0.97933(14)
F31 F 0.56362(19) 0.82610(14) 1.01752(9)
C46 C 0.4320(3) 0.8727(2) 0.94553(15)
F32 F 0.37089(18) 0.81212(13) 0.95165(10)
C47 C 0.2868(3) 0.92814(18) 0.87371(13)
C48 C 0.1446(3) 0.99481(18) 0.80546(13)
C49 C 0.0119(3) 1.04928(19) 0.72707(15)
F33 F -0.07398(16) 1.03614(13) 0.75056(10)
C50 C -0.0088(3) 1.0758(2) 0.67525(16)
F34 F -0.11095(19) 1.08595(15) 0.64834(11)
C51 C 0.0771(3) 1.0929(2) 0.64811(15)
F35 F 0.0528(2) 1.11574(16) 0.59583(10)
C52 C 0.1809(3) 1.0867(2) 0.67486(15)
F36 F 0.25871(19) 1.10535(15) 0.64717(9)
C53 C 0.3164(3) 1.06055(18) 0.76129(14)
C54 C 0.4398(3) 1.03662(19) 0.85256(14)
C55 C 0.4669(3) 0.98890(19) 0.89785(13)
C56 C 0.3925(3) 0.92842(19) 0.90488(14)
C57 C 0.3382(3) 1.02748(18) 0.81466(13)
C58 C 0.2549(3) 0.98277(18) 0.83159(13)
C59 C 0.2100(3) 1.06053(18) 0.73070(14)
C60 C 0.1211(3) 1.03448(18) 0.75596(14)
C61 C 0.2098(3) 0.86496(18) 0.87909(14)
C62 C 0.1550(3) 0.85844(19) 0.92254(14)
F37 F 0.17294(19) 0.91009(13) 0.96302(9)
C63 C 0.0823(3) 0.8006(2) 0.92534(16)
F38 F 0.0285(2) 0.79729(15) 0.96675(11)
C64 C 0.0654(3) 0.7462(2) 0.88455(18)
F39 F -0.0049(2) 0.68960(14) 0.88654(12)
C65 C 0.1208(3) 0.7498(2) 0.84230(16)
F40 F 0.1051(2) 0.69621(14) 0.80299(11)
C66 C 0.1916(3) 0.8090(2) 0.83941(14)
F41 F 0.24287(18) 0.81163(13) 0.79701(9)
C67 C 0.0542(3) 0.97257(19) 0.83358(14)
C68 C 0.0384(3) 1.0140(2) 0.87884(16)
F42 F 0.1062(2) 1.07009(13) 0.89774(11)
C69 C -0.0486(4) 0.9993(2) 0.90455(17)
F43 F -0.0626(3) 1.04106(18) 0.94738(12)
C70 C -0.1201(3) 0.9417(2) 0.88519(18)
F44 F -0.2037(2) 0.92613(18) 0.90985(13)
C71 C -0.1062(3) 0.8994(2) 0.84060(17)
F45 F -0.17484(19) 0.84233(15) 0.82277(12)
C72 C -0.0204(3) 0.9150(2) 0.81513(15)
F46 F -0.00869(16) 0.87434(12) 0.77129(9)
C73 C 0.4081(3) 1.08835(19) 0.73581(14)
C74 C 0.4242(3) 1.1638(2) 0.72555(15)
F47 F 0.35710(18) 1.21461(12) 0.73951(10)
C75 C 0.5090(3) 1.1886(2) 0.70151(16)
F48 F 0.5244(2) 1.26183(14) 0.69366(11)
C76 C 0.5782(3) 1.1373(2) 0.68601(16)
F49 F 0.6612(2) 1.16014(16) 0.66312(11)
C77 C 0.5637(3) 1.0618(2) 0.69451(17)
F50 F 0.6300(2) 1.01207(15) 0.67863(12)
C78 C 0.4794(3) 1.0383(2) 0.71948(15)
F51 F 0.46785(18) 0.96459(12) 0.72782(10)
C79 C 0.5099(3) 1.10353(19) 0.84711(14)
C80 C 0.4712(3) 1.1743(2) 0.85587(15)
F52 F 0.37225(16) 1.18173(12) 0.86716(9)
C81 C 0.5339(3) 1.2385(2) 0.85355(16)
F53 F 0.4942(2) 1.30588(13) 0.86186(12)
C82 C 0.6356(3) 1.2328(2) 0.84201(19)
F54 F 0.6949(2) 1.29481(16) 0.83928(13)
C83 C 0.6762(3) 1.1630(2) 0.83268(17)
F55 F 0.77566(19) 1.15775(16) 0.82114(13)
C84 C 0.6133(3) 1.1001(2) 0.83533(15)
F56 F 0.65468(17) 1.03282(13) 0.82664(10)
C85 C 0.8142(3) 0.8161(2) 0.58051(19)
F57 F 0.89530(19) 0.80719(15) 0.55327(13)
C86 C 0.8354(3) 0.8565(2) 0.6274(2)
F58 F 0.9350(2) 0.88644(15) 0.64621(14)
C87 C 0.7550(3) 0.8665(2) 0.65904(18)
F59 F 0.7815(2) 0.90082(16) 0.70774(11)
C88 C 0.6517(3) 0.8409(2) 0.63988(16)
F60 F 0.57989(19) 0.85089(14) 0.67183(10)
C89 C 0.5142(3) 0.79162(19) 0.56028(15)
C90 C 0.3879(3) 0.7575(2) 0.47170(14)
C91 C 0.2571(3) 0.7030(2) 0.39147(16)
F61 F 0.18436(18) 0.75777(14) 0.39185(10)
C92 C 0.2259(3) 0.6444(3) 0.35727(16)
F62 F 0.1258(2) 0.63981(19) 0.32670(11)
C93 C 0.2983(3) 0.5860(3) 0.35367(17)
F63 F 0.2635(2) 0.52784(19) 0.31980(12)
C94 C 0.4003(3) 0.5880(3) 0.38349(17)
F64 F 0.4645(2) 0.53065(16) 0.37691(11)
C95 C 0.5457(3) 0.6547(2) 0.45111(15)
C96 C 0.6860(3) 0.7322(4) 0.5156(3)
C97 C 0.7079(3) 0.7848(2) 0.55883(16)
C98 C 0.6213(3) 0.80530(19) 0.58668(16)
C99 C 0.5764(3) 0.7134(2) 0.49078(15)
C100 C 0.4915(3) 0.75523(19) 0.50754(14)
C101 C 0.4382(3) 0.6485(2) 0.42176(15)
C102 C 0.3608(3) 0.7059(2) 0.42822(14)
C103 C 0.4224(3) 0.8067(2) 0.58888(15)
C104 C 0.3913(3) 0.8785(2) 0.60053(18)
F65 F 0.4450(2) 0.93815(14) 0.58574(12)
C105 C 0.3073(4) 0.8911(3) 0.6274(2)
F66 F 0.2777(3) 0.9613(2) 0.63628(15)
C106 C 0.2521(4) 0.8316(4) 0.6443(2)
F67 F 0.1700(3) 0.8428(3) 0.67045(14)
C107 C 0.2812(4) 0.7594(3) 0.63437(19)
F68 F 0.2302(3) 0.7009(2) 0.65152(13)
C108 C 0.3656(3) 0.7478(2) 0.60659(16)
F69 F 0.3940(2) 0.67685(14) 0.59720(10)
C109 C 0.3164(3) 0.8225(2) 0.47706(15)
C110 C 0.3497(3) 0.8939(2) 0.46513(17)
F70 F 0.44443(18) 0.90384(13) 0.44871(11)
C111 C 0.2879(4) 0.9566(2) 0.4691(2)
F71 F 0.3228(3) 1.02444(15) 0.45723(14)
C112 C 0.1894(4) 0.9482(3) 0.4860(2)
F72 F 0.1295(3) 1.00867(18) 0.49019(15)
C113 C 0.1538(3) 0.8781(3) 0.49815(17)
F73 F 0.0598(2) 0.87013(18) 0.51504(12)
C114 C 0.2159(3) 0.8163(2) 0.49283(16)
F74 F 0.17903(18) 0.74866(14) 0.50455(10)
C115 C 0.6243(3) 0.5940(2) 0.44560(15)
C116 C 0.6774(4) 0.5887(3) 0.40109(17)
F75 F 0.6616(3) 0.6417(2) 0.36248(13)
C117 C 0.7459(3) 0.5302(3) 0.39564(18)
F76 F 0.7998(2) 0.5293(2) 0.35441(12)
C118 C 0.7580(3) 0.4733(2) 0.4335(2)
F77 F 0.8191(2) 0.41444(16) 0.42745(15)
C119 C 0.7081(4) 0.4773(2) 0.4779(2)
F78 F 0.7224(3) 0.42228(17) 0.51492(16)
C120 C 0.6429(3) 0.5376(2) 0.48353(16)
F79 F 0.5956(2) 0.54013(14) 0.52761(10)
C121 C 0.7831(4) 0.7002(3) 0.4979(2)
C122 C 0.8166(6) 0.7281(3) 0.4516(3)
F80 F 0.7630(4) 0.7845(3) 0.4236(2)
C123 C 0.9063(5) 0.6989(4) 0.4338(3)
F81 F 0.9357(4) 0.7248(3) 0.3887(2)
C124 C 0.9617(6) 0.6409(4) 0.4621(4)
F82 F 1.0444(3) 0.6098(3) 0.4445(3)
C125 C 0.9281(5) 0.6123(3) 0.5085(3)
F83 F 0.9781(4) 0.5530(2) 0.5350(2)
C126 C 0.8431(5) 0.6438(4) 0.5257(3)
F84 F 0.8124(4) 0.6156(2) 0.57082(17)
C127? C 0.6855(4) 0.7373(8) 0.5124(5)
C128? C 0.7677(7) 0.7116(6) 0.4805(5)
C129? C 0.7686(17) 0.7338(13) 0.4259(8)
F85? F 0.6879(12) 0.7771(7) 0.4013(5)
C130? C 0.8469(17) 0.7118(10) 0.3986(9)
F86? F 0.8465(14) 0.7373(8) 0.3470(6)
C131? C 0.9298(17) 0.6660(12) 0.4230(11)
F87? F 1.0040(12) 0.6433(8) 0.3944(8)
C132? C 0.9334(16) 0.6364(13) 0.4755(13)
F88? F 1.0076(10) 0.5914(9) 0.4979(8)
C133? C 0.8496(12) 0.6616(10) 0.5021(9)
F89? F 0.8523(12) 0.6337(9) 0.5515(6)
loop_
_geom_bond_atom_site_label_1
_geom_bond_atom_site_label_2
_geom_bond_site_symmetry_1
_geom_bond_site_symmetry_2
C1 F1 1_555 1_555
C2 C1 1_555 1_555
F2 C2 1_555 1_555
C3 C2 1_555 1_555
F3 C3 1_555 1_555
C4 C3 1_555 1_555
F4 C4 1_555 1_555
C5 C14 1_555 1_555
C6 C16 1_555 1_555
C7 F5 1_555 1_555
C8 C7 1_555 1_555
F6 C8 1_555 1_555
C9 C8 1_555 1_555
F7 C9 1_555 1_555
C10 C9 1_555 1_555
F8 C10 1_555 1_555
C11 C15 1_555 1_555
C12 C13 1_555 1_555
C13 C1 1_555 1_555
C14 C4 1_555 1_555
C15 C12 1_555 1_555
C16 C5 1_555 1_555
C17 C10 1_555 1_555
C18 C6 1_555 1_555
C19 C5 1_555 1_555
C20 C19 1_555 1_555
F9 C20 1_555 1_555
C21 C20 1_555 1_555
F10 C21 1_555 1_555
C22 C21 1_555 1_555
F11 C22 1_555 1_555
C23 C22 1_555 1_555
F12 C23 1_555 1_555
C24 C19 1_555 1_555
F13 C24 1_555 1_555
C25 C6 1_555 1_555
C26 C25 1_555 1_555
F14 C26 1_555 1_555
C27 C26 1_555 1_555
F15 C27 1_555 1_555
C28 C27 1_555 1_555
F16 C28 1_555 1_555
C29 C28 1_555 1_555
F17 C29 1_555 1_555
C30 C25 1_555 1_555
F18 C30 1_555 1_555
C31 C11 1_555 1_555
C32 C31 1_555 1_555
F19 C32 1_555 1_555
C33 C32 1_555 1_555
F20 C33 1_555 1_555
C34 C33 1_555 1_555
F21 C34 1_555 1_555
C35 C34 1_555 1_555
F22 C35 1_555 1_555
C36 C31 1_555 1_555
F23 C36 1_555 1_555
C37 C12 1_555 1_555
C38 C37 1_555 1_555
F24 C38 1_555 1_555
C39 C38 1_555 1_555
F25 C39 1_555 1_555
C40 C39 1_555 1_555
F26 C40 1_555 1_555
C41 C40 1_555 1_555
F27 C41 1_555 1_555
C42 C37 1_555 1_555
F28 C42 1_555 1_555
C43 F29 1_555 1_555
C44 C43 1_555 1_555
F30 C44 1_555 1_555
C45 C44 1_555 1_555
F31 C45 1_555 1_555
C46 C45 1_555 1_555
F32 C46 1_555 1_555
C47 C56 1_555 1_555
C48 C58 1_555 1_555
C49 F33 1_555 1_555
C50 C49 1_555 1_555
F34 C50 1_555 1_555
C51 C50 1_555 1_555
F35 C51 1_555 1_555
C52 C51 1_555 1_555
F36 C52 1_555 1_555
C53 C57 1_555 1_555
C54 C55 1_555 1_555
C55 C43 1_555 1_555
C56 C46 1_555 1_555
C57 C54 1_555 1_555
C58 C47 1_555 1_555
C59 C52 1_555 1_555
C60 C48 1_555 1_555
C61 C47 1_555 1_555
C62 C61 1_555 1_555
F37 C62 1_555 1_555
C63 C62 1_555 1_555
F38 C63 1_555 1_555
C64 C63 1_555 1_555
F39 C64 1_555 1_555
C65 C64 1_555 1_555
F40 C65 1_555 1_555
C66 C61 1_555 1_555
F41 C66 1_555 1_555
C67 C48 1_555 1_555
C68 C67 1_555 1_555
F42 C68 1_555 1_555
C69 C68 1_555 1_555
F43 C69 1_555 1_555
C70 C69 1_555 1_555
F44 C70 1_555 1_555
C71 C70 1_555 1_555
F45 C71 1_555 1_555
C72 C67 1_555 1_555
F46 C72 1_555 1_555
C73 C53 1_555 1_555
C74 C73 1_555 1_555
F47 C74 1_555 1_555
C75 C74 1_555 1_555
F48 C75 1_555 1_555
C76 C75 1_555 1_555
F49 C76 1_555 1_555
C77 C76 1_555 1_555
F50 C77 1_555 1_555
C78 C73 1_555 1_555
F51 C78 1_555 1_555
C79 C54 1_555 1_555
C80 C79 1_555 1_555
F52 C80 1_555 1_555
C81 C80 1_555 1_555
F53 C81 1_555 1_555
C82 C81 1_555 1_555
F54 C82 1_555 1_555
C83 C82 1_555 1_555
F55 C83 1_555 1_555
C84 C79 1_555 1_555
F56 C84 1_555 1_555
C85 F57 1_555 1_555
C86 C85 1_555 1_555
F58 C86 1_555 1_555
C87 C86 1_555 1_555
F59 C87 1_555 1_555
C88 C87 1_555 1_555
F60 C88 1_555 1_555
C89 C98 1_555 1_555
C90 C100 1_555 1_555
C91 F61 1_555 1_555
C92 C91 1_555 1_555
F62 C92 1_555 1_555
C93 C92 1_555 1_555
F63 C93 1_555 1_555
C94 C93 1_555 1_555
F64 C94 1_555 1_555
C95 C99 1_555 1_555
C96 C97 1_555 1_555
C97 C85 1_555 1_555
C98 C88 1_555 1_555
C99 C96 1_555 1_555
C100 C89 1_555 1_555
C101 C94 1_555 1_555
C102 C90 1_555 1_555
C103 C89 1_555 1_555
C104 C103 1_555 1_555
F65 C104 1_555 1_555
C105 C104 1_555 1_555
F66 C105 1_555 1_555
C106 C105 1_555 1_555
F67 C106 1_555 1_555
C107 C106 1_555 1_555
F68 C107 1_555 1_555
C108 C103 1_555 1_555
F69 C108 1_555 1_555
C109 C90 1_555 1_555
C110 C109 1_555 1_555
F70 C110 1_555 1_555
C111 C110 1_555 1_555
F71 C111 1_555 1_555
C112 C111 1_555 1_555
F72 C112 1_555 1_555
C113 C112 1_555 1_555
F73 C113 1_555 1_555
C114 C109 1_555 1_555
F74 C114 1_555 1_555
C115 C95 1_555 1_555
C116 C115 1_555 1_555
F75 C116 1_555 1_555
C117 C116 1_555 1_555
F76 C117 1_555 1_555
C118 C117 1_555 1_555
F77 C118 1_555 1_555
C119 C118 1_555 1_555
F78 C119 1_555 1_555
C120 C115 1_555 1_555
F79 C120 1_555 1_555
C121 C96 1_555 1_555
C122 C121 1_555 1_555
F80 C122 1_555 1_555
C123 C122 1_555 1_555
F81 C123 1_555 1_555
C124 C123 1_555 1_555
F82 C124 1_555 1_555
C125 C124 1_555 1_555
F83 C125 1_555 1_555
C126 C121 1_555 1_555
F84 C126 1_555 1_555
C7 C18 1_555 1_555
C11 C17 1_555 1_555
C13 C14 1_555 1_555
C15 C16 1_555 1_555
C17 C18 1_555 1_555
C23 C24 1_555 1_555
C29 C30 1_555 1_555
C35 C36 1_555 1_555
C41 C42 1_555 1_555
C49 C60 1_555 1_555
C53 C59 1_555 1_555
C55 C56 1_555 1_555
C57 C58 1_555 1_555
C59 C60 1_555 1_555
C65 C66 1_555 1_555
C71 C72 1_555 1_555
C77 C78 1_555 1_555
C83 C84 1_555 1_555
C91 C102 1_555 1_555
C95 C101 1_555 1_555
C97 C98 1_555 1_555
C99 C100 1_555 1_555
C101 C102 1_555 1_555
C107 C108 1_555 1_555
C113 C114 1_555 1_555
C119 C120 1_555 1_555
C125 C126 1_555 1_555

#END
