
#######################################################################
#
#                 Cambridge Crystallographic Data Centre
#                                CCDC 
#
#######################################################################
#
# If this CIF has been generated from an entry in the Cambridge 
# Structural Database, then it will include bibliographic, chemical, 
# crystal, experimental, refinement or atomic coordinate data resulting 
# from the CCDC's data processing and validation procedures.
#
#######################################################################

data_INELUK
_chemical_name_common            perfluororubrene
_chemical_formula_moiety         'C42 F28'
_chemical_name_systematic        
5,6,11,12-tetrakis(perfluorophenyl)1,2,3,4,7,8,9,10-octafluorotetracene
_symmetry_cell_setting           monoclinic
_symmetry_space_group_name_H-M   'P 21/n'
_symmetry_Int_Tables_number      14
_space_group_name_Hall           '-P 2yn'
loop_
_symmetry_equiv_pos_site_id
_symmetry_equiv_pos_as_xyz
1 x,y,z
2 1/2-x,1/2+y,1/2-z
3 -x,-y,-z
4 1/2+x,1/2-y,1/2+z
_cell_length_a                   16.6651(6)
_cell_length_b                   11.1489(5)
_cell_length_c                   19.1918(7)
_cell_angle_alpha                90
_cell_angle_beta                 90.213(3)
_cell_angle_gamma                90
_cell_volume                     3565.76
_exptl_crystal_colour            red
_exptl_crystal_description       Plate
_cell_formula_units_Z            4
_exptl_crystal_recrystallization_method Sublimation
loop_
_atom_site_label
_atom_site_type_symbol
_atom_site_fract_x
_atom_site_fract_y
_atom_site_fract_z
F1 F 0.76865(13) 0.12203(18) 0.44847(10)
F2 F 0.65586(15) -0.02215(19) 0.49957(11)
F3 F 0.53432(15) 0.0649(2) 0.57633(11)
F4 F 0.52666(13) 0.29733(19) 0.60913(10)
F5 F 0.80700(13) 0.8662(2) 0.63862(10)
F6 F 0.88659(14) 1.0247(2) 0.56163(11)
F7 F 0.90707(15) 0.99177(19) 0.42478(11)
F8 F 0.84974(16) 0.79751(19) 0.36094(10)
F9 F 0.63750(14) 0.39951(19) 0.71566(9)
F10 F 0.52532(16) 0.5024(2) 0.79891(10)
F11 F 0.42300(14) 0.6689(2) 0.74448(12)
F12 F 0.43132(13) 0.7305(2) 0.60879(12)
F13 F 0.54200(13) 0.6283(2) 0.52627(9)
F14 F 0.82284(15) 0.5276(2) 0.67692(12)
F15 F 0.80621(19) 0.5586(3) 0.81559(12)
F16 F 0.69464(18) 0.7147(3) 0.86452(10)
F17 F 0.60049(14) 0.8368(2) 0.77419(11)
F18 F 0.62431(12) 0.81819(18) 0.63555(10)
F19 F 0.94855(12) 0.5925(2) 0.37728(11)
F20 F 0.97073(15) 0.5441(2) 0.24031(12)
F21 F 0.84333(18) 0.5048(2) 0.15589(11)
F22 F 0.69340(15) 0.5084(2) 0.20865(10)
F23 F 0.67021(12) 0.5456(2) 0.34576(10)
F24 F 0.91802(14) 0.3948(2) 0.51273(12)
F25 F 1.04660(14) 0.3418(3) 0.43558(17)
F26 F 1.02756(16) 0.2592(2) 0.30290(17)
F27 F 0.87804(17) 0.2273(2) 0.24980(12)
F28 F 0.74810(13) 0.27587(19) 0.32875(9)
C1 C 0.7099(2) 0.1702(3) 0.48740(15)
C2 C 0.6542(2) 0.0958(3) 0.51282(17)
C3 C 0.5909(2) 0.1415(3) 0.55388(17)
C4 C 0.5888(2) 0.2595(3) 0.57012(16)
C5 C 0.65503(19) 0.4609(3) 0.57160(14)
C6 C 0.73805(19) 0.6511(3) 0.57658(14)
C7 C 0.8165(2) 0.8426(3) 0.57035(16)
C8 C 0.8575(2) 0.9239(3) 0.53283(18)
C9 C 0.8689(2) 0.9060(3) 0.46081(18)
C10 C 0.8406(2) 0.8061(3) 0.42982(17)
C11 C 0.7924(2) 0.5956(3) 0.44142(15)
C12 C 0.7602(2) 0.3788(3) 0.46694(15)
C13 C 0.7094(2) 0.2974(3) 0.50001(14)
C14 C 0.6491(2) 0.3426(3) 0.54774(15)
C15 C 0.75672(19) 0.5039(3) 0.48270(14)
C16 C 0.71520(19) 0.5398(3) 0.54508(14)
C17 C 0.8047(2) 0.7098(3) 0.46801(15)
C18 C 0.78531(19) 0.7337(3) 0.54081(15)
C19 C 0.5935(2) 0.5119(3) 0.61923(15)
C20 C 0.5867(2) 0.4803(3) 0.68892(16)
C21 C 0.5291(2) 0.5320(3) 0.73126(16)
C22 C 0.4772(2) 0.6154(4) 0.70353(19)
C23 C 0.4816(2) 0.6472(4) 0.63472(18)
C24 C 0.5389(2) 0.5949(3) 0.59344(16)
C25 C 0.7224(2) 0.6693(3) 0.65260(14)
C26 C 0.7683(2) 0.6049(3) 0.70020(17)
C27 C 0.7598(3) 0.6208(4) 0.77131(17)
C28 C 0.7042(3) 0.6998(4) 0.79542(16)
C29 C 0.6575(2) 0.7643(3) 0.75029(17)
C30 C 0.6678(2) 0.7509(3) 0.67914(15)
C31 C 0.8088(2) 0.5692(3) 0.36582(15)
C32 C 0.8849(2) 0.5692(3) 0.33674(17)
C33 C 0.8966(2) 0.5461(3) 0.26652(18)
C34 C 0.8324(3) 0.5260(3) 0.22418(16)
C35 C 0.7561(3) 0.5269(3) 0.25050(17)
C36 C 0.7453(2) 0.5475(3) 0.32121(16)
C37 C 0.8286(2) 0.3375(3) 0.42264(16)
C38 C 0.9063(2) 0.3515(4) 0.4486(2)
C39 C 0.9727(2) 0.3240(4) 0.4092(2)
C40 C 0.9633(3) 0.2814(4) 0.3427(2)
C41 C 0.8876(3) 0.2645(3) 0.3157(2)
C42 C 0.8217(2) 0.2916(3) 0.35563(17)
loop_
_geom_bond_atom_site_label_1
_geom_bond_atom_site_label_2
_geom_bond_site_symmetry_1
_geom_bond_site_symmetry_2
F1 C1 1_555 1_555
F2 C2 1_555 1_555
F3 C3 1_555 1_555
F4 C4 1_555 1_555
F5 C7 1_555 1_555
F6 C8 1_555 1_555
F7 C9 1_555 1_555
F8 C10 1_555 1_555
F9 C20 1_555 1_555
F10 C21 1_555 1_555
F11 C22 1_555 1_555
F12 C23 1_555 1_555
F13 C24 1_555 1_555
F14 C26 1_555 1_555
F15 C27 1_555 1_555
F16 C28 1_555 1_555
F17 C29 1_555 1_555
F18 C30 1_555 1_555
F19 C32 1_555 1_555
F20 C33 1_555 1_555
F21 C34 1_555 1_555
F22 C35 1_555 1_555
F23 C36 1_555 1_555
F24 C38 1_555 1_555
F25 C39 1_555 1_555
F26 C40 1_555 1_555
F27 C41 1_555 1_555
F28 C42 1_555 1_555
C1 C2 1_555 1_555
C2 C3 1_555 1_555
C3 C4 1_555 1_555
C4 C14 1_555 1_555
C5 C14 1_555 1_555
C6 C16 1_555 1_555
C7 C8 1_555 1_555
C8 C9 1_555 1_555
C9 C10 1_555 1_555
C10 C17 1_555 1_555
C11 C15 1_555 1_555
C12 C13 1_555 1_555
C13 C1 1_555 1_555
C14 C13 1_555 1_555
C15 C12 1_555 1_555
C16 C5 1_555 1_555
C17 C11 1_555 1_555
C18 C6 1_555 1_555
C19 C5 1_555 1_555
C20 C19 1_555 1_555
C21 C20 1_555 1_555
C22 C21 1_555 1_555
C23 C22 1_555 1_555
C24 C19 1_555 1_555
C25 C6 1_555 1_555
C26 C25 1_555 1_555
C27 C26 1_555 1_555
C28 C27 1_555 1_555
C29 C28 1_555 1_555
C30 C25 1_555 1_555
C31 C11 1_555 1_555
C32 C31 1_555 1_555
C33 C32 1_555 1_555
C34 C33 1_555 1_555
C35 C34 1_555 1_555
C36 C31 1_555 1_555
C37 C12 1_555 1_555
C38 C37 1_555 1_555
C39 C38 1_555 1_555
C40 C39 1_555 1_555
C41 C40 1_555 1_555
C42 C37 1_555 1_555
C7 C18 1_555 1_555
C15 C16 1_555 1_555
C17 C18 1_555 1_555
C23 C24 1_555 1_555
C29 C30 1_555 1_555
C35 C36 1_555 1_555
C41 C42 1_555 1_555

#END
