
#######################################################################
#
#                 Cambridge Crystallographic Data Centre
#                                CCDC 
#
#######################################################################
#
# If this CIF has been generated from an entry in the Cambridge 
# Structural Database, then it will include bibliographic, chemical, 
# crystal, experimental, refinement or atomic coordinate data resulting 
# from the CCDC's data processing and validation procedures.
#
#######################################################################

data_INETIG
_chemical_name_common            2-(1-[(3-methylphenyl)imino]ethyl)pyrrole
_chemical_formula_moiety         'C13 H14 N2'
_chemical_name_systematic        
N-(3-methylphenyl)-1-(1H-pyrrol-2-yl)ethanimine
_symmetry_cell_setting           monoclinic
_symmetry_space_group_name_H-M   'P 21/c'
_symmetry_Int_Tables_number      14
_space_group_name_Hall           '-P 2ybc'
loop_
_symmetry_equiv_pos_site_id
_symmetry_equiv_pos_as_xyz
1 x,y,z
2 -x,1/2+y,1/2-z
3 -x,-y,-z
4 x,1/2-y,1/2+z
_cell_length_a                   12.289(4)
_cell_length_b                   15.982(4)
_cell_length_c                   5.7623(16)
_cell_angle_alpha                90
_cell_angle_beta                 96.121(5)
_cell_angle_gamma                90
_cell_volume                     1125.28
_cell_formula_units_Z            4
loop_
_atom_site_label
_atom_site_type_symbol
_atom_site_fract_x
_atom_site_fract_y
_atom_site_fract_z
N1 N -0.13621(14) 0.58247(11) 0.8810(3)
H1 H -0.1000 0.5492 0.9780
N2 N 0.08768(14) 0.58396(11) 0.8267(3)
C1 C -0.17797(19) 0.67175(14) 0.5947(4)
H2 H -0.1734 0.7075 0.4688
C2 C -0.27209(19) 0.65443(14) 0.7011(4)
H3 H -0.3413 0.6768 0.6598
C3 C -0.24450(18) 0.59914(15) 0.8753(4)
H4 H -0.2918 0.5765 0.9741
C4 C -0.09310(17) 0.62673(13) 0.7085(4)
C5 C 0.02292(17) 0.62478(13) 0.6793(4)
C6 C 0.0568(2) 0.67397(16) 0.4777(4)
H5 H 0.1346 0.6694 0.4746
H6 H 0.0375 0.7317 0.4945
H7 H 0.0202 0.6524 0.3347
C7 C 0.20208(17) 0.58364(13) 0.8082(4)
C8 C 0.24725(18) 0.53945(15) 0.6369(4)
H8 H 0.2021 0.5117 0.5221
C9 C 0.35898(19) 0.53636(17) 0.6353(4)
H9 H 0.3890 0.5065 0.5192
C10 C 0.42678(19) 0.57713(15) 0.8042(4)
H10 H 0.5022 0.5741 0.8016
C11 C 0.38424(18) 0.62235(14) 0.9773(4)
C12 C 0.27150(18) 0.62416(13) 0.9783(4)
H11 H 0.2415 0.6533 1.0959
C13 C 0.4584(2) 0.66804(18) 1.1614(5)
H12 H 0.4149 0.6965 1.2657
H13 H 0.5017 0.7081 1.0877
H14 H 0.5057 0.6286 1.2478
loop_
_geom_bond_atom_site_label_1
_geom_bond_atom_site_label_2
_geom_bond_site_symmetry_1
_geom_bond_site_symmetry_2
N1 H1 1_555 1_555
N2 C5 1_555 1_555
C1 H2 1_555 1_555
C2 C1 1_555 1_555
H3 C2 1_555 1_555
C3 N1 1_555 1_555
H4 C3 1_555 1_555
C4 N1 1_555 1_555
C5 C4 1_555 1_555
C6 C5 1_555 1_555
H5 C6 1_555 1_555
H6 C6 1_555 1_555
H7 C6 1_555 1_555
C7 N2 1_555 1_555
C8 C7 1_555 1_555
H8 C8 1_555 1_555
C9 C8 1_555 1_555
H9 C9 1_555 1_555
C10 C9 1_555 1_555
H10 C10 1_555 1_555
C11 C10 1_555 1_555
C12 C7 1_555 1_555
H11 C12 1_555 1_555
C13 C11 1_555 1_555
H12 C13 1_555 1_555
H13 C13 1_555 1_555
H14 C13 1_555 1_555
C1 C4 1_555 1_555
C2 C3 1_555 1_555
C11 C12 1_555 1_555

#END
