
#######################################################################
#
#                 Cambridge Crystallographic Data Centre
#                                CCDC 
#
#######################################################################
#
# If this CIF has been generated from an entry in the Cambridge 
# Structural Database, then it will include bibliographic, chemical, 
# crystal, experimental, refinement or atomic coordinate data resulting 
# from the CCDC's data processing and validation procedures.
#
#######################################################################

data_INETUS
_chemical_name_common            2-(1-[(2,3-dimethylphenyl)imino]ethyl)pyrrole
_chemical_formula_moiety         'C14 H16 N2'
_chemical_name_systematic        
N-(2,3-dimethylphenyl)-1-(1H-pyrrol-2-yl)ethanimine
_symmetry_cell_setting           monoclinic
_symmetry_space_group_name_H-M   'P 21/c'
_symmetry_Int_Tables_number      14
_space_group_name_Hall           '-P 2ybc'
loop_
_symmetry_equiv_pos_site_id
_symmetry_equiv_pos_as_xyz
1 x,y,z
2 -x,1/2+y,1/2-z
3 -x,-y,-z
4 x,1/2-y,1/2+z
_cell_length_a                   11.090(3)
_cell_length_b                   10.676(3)
_cell_length_c                   10.204(3)
_cell_angle_alpha                90
_cell_angle_beta                 92.232(4)
_cell_angle_gamma                90
_cell_volume                     1207.2
_cell_formula_units_Z            4
loop_
_atom_site_label
_atom_site_type_symbol
_atom_site_fract_x
_atom_site_fract_y
_atom_site_fract_z
N1 N 0.31352(14) 0.94961(17) 0.03590(16)
H1 H 0.3717 0.9828 -0.0053
N2 N 0.53378(15) 0.92849(17) 0.17951(16)
C1 C 0.32436(18) 0.89608(19) 0.15727(19)
C2 C 0.21138(19) 0.8546(2) 0.1869(2)
H2 H 0.1911 0.8139 0.2635
C3 C 0.13234(19) 0.8843(2) 0.0816(2)
H3 H 0.0501 0.8672 0.0753
C4 C 0.19781(18) 0.9427(2) -0.0098(2)
H4 H 0.1681 0.9729 -0.0902
C5 C 0.43823(18) 0.88681(19) 0.23071(19)
C6 C 0.4361(2) 0.8277(3) 0.3638(2)
H5 H 0.4764 0.7481 0.3622
H6 H 0.3540 0.8158 0.3876
H7 H 0.4767 0.8813 0.4269
C7 C 0.64771(18) 0.9184(2) 0.25010(19)
C8 C 0.6883(2) 1.0190(2) 0.3255(2)
H8 H 0.6391 1.0883 0.3372
C9 C 0.8033(2) 1.0146(3) 0.3831(3)
H9 H 0.8317 1.0816 0.4338
C10 C 0.8752(2) 0.9126(3) 0.3661(2)
H10 H 0.9524 0.9113 0.4052
C11 C 0.83570(19) 0.8111(2) 0.2916(2)
C12 C 0.71941(18) 0.8140(2) 0.2317(2)
C13 C 0.6750(2) 0.7073(2) 0.1484(3)
H11 H 0.5890 0.7133 0.1352
H12 H 0.6952 0.6297 0.1913
H13 H 0.7123 0.7105 0.0651
C14 C 0.9159(2) 0.7000(3) 0.2750(3)
H14 H 0.9927 0.7152 0.3190
H15 H 0.9273 0.6861 0.1834
H16 H 0.8793 0.6273 0.3121
loop_
_geom_bond_atom_site_label_1
_geom_bond_atom_site_label_2
_geom_bond_site_symmetry_1
_geom_bond_site_symmetry_2
N1 H1 1_555 1_555
N2 C5 1_555 1_555
C1 N1 1_555 1_555
C2 C1 1_555 1_555
H2 C2 1_555 1_555
C3 C2 1_555 1_555
H3 C3 1_555 1_555
C4 N1 1_555 1_555
H4 C4 1_555 1_555
C5 C1 1_555 1_555
C6 C5 1_555 1_555
H5 C6 1_555 1_555
H6 C6 1_555 1_555
H7 C6 1_555 1_555
C7 N2 1_555 1_555
C8 C7 1_555 1_555
H8 C8 1_555 1_555
C9 C8 1_555 1_555
H9 C9 1_555 1_555
C10 C9 1_555 1_555
H10 C10 1_555 1_555
C11 C10 1_555 1_555
C12 C7 1_555 1_555
C13 C12 1_555 1_555
H11 C13 1_555 1_555
H12 C13 1_555 1_555
H13 C13 1_555 1_555
C14 C11 1_555 1_555
H14 C14 1_555 1_555
H15 C14 1_555 1_555
H16 C14 1_555 1_555
C3 C4 1_555 1_555
C11 C12 1_555 1_555

#END
