
#######################################################################
#
#                 Cambridge Crystallographic Data Centre
#                                CCDC 
#
#######################################################################
#
# If this CIF has been generated from an entry in the Cambridge 
# Structural Database, then it will include bibliographic, chemical, 
# crystal, experimental, refinement or atomic coordinate data resulting 
# from the CCDC's data processing and validation procedures.
#
#######################################################################

data_INEVOO
_chemical_name_common            2-(1-[(4-isopropylphenyl)imino]ethyl)pyrrole
_chemical_formula_moiety         'C15 H18 N2'
_chemical_name_systematic        
N-(4-isopropylphenyl)-1-(1H-pyrrol-2-yl)ethanimine
_symmetry_cell_setting           triclinic
_symmetry_space_group_name_H-M   'P -1'
_symmetry_Int_Tables_number      2
_space_group_name_Hall           '-P 1'
loop_
_symmetry_equiv_pos_site_id
_symmetry_equiv_pos_as_xyz
1 x,y,z
2 -x,-y,-z
_cell_length_a                   10.4052(19)
_cell_length_b                   11.151(2)
_cell_length_c                   13.617(3)
_cell_angle_alpha                103.492(3)
_cell_angle_beta                 104.382(3)
_cell_angle_gamma                106.484(3)
_cell_volume                     1386.83
_cell_formula_units_Z            4
loop_
_atom_site_label
_atom_site_type_symbol
_atom_site_fract_x
_atom_site_fract_y
_atom_site_fract_z
N1 N 1.0435(2) 0.9624(2) 1.28039(16)
N2 N 0.8475(2) 0.9020(2) 1.07764(16)
C1 C 1.1467(3) 0.9662(3) 1.3663(2)
H1 H 1.1883 1.0333 1.4323
C2 C 1.1789(3) 0.8556(3) 1.3395(2)
H2 H 1.2451 0.8334 1.3841
C3 C 1.0950(3) 0.7817(3) 1.2334(2)
H3 H 1.0958 0.7017 1.1943
C4 C 1.0103(3) 0.8483(2) 1.1965(2)
C5 C 0.9043(3) 0.8164(2) 1.09382(19)
C6 C 0.8642(3) 0.6827(3) 1.0131(2)
H4 H 0.7950 0.6177 1.0274
H5 H 0.9474 0.6599 1.0181
H6 H 0.8248 0.6850 0.9422
C7 C 0.7419(3) 0.8744(2) 0.9774(2)
C8 C 0.7768(3) 0.8797(3) 0.8868(2)
H7 H 0.8691 0.8903 0.8877
C9 C 0.6745(3) 0.8690(3) 0.7943(2)
H8 H 0.7004 0.8740 0.7344
C10 C 0.5363(3) 0.8512(3) 0.7882(2)
C11 C 0.5033(3) 0.8439(3) 0.8797(3)
H9 H 0.4103 0.8303 0.8782
C12 C 0.6034(3) 0.8562(3) 0.9727(2)
H10 H 0.5776 0.8523 1.0329
C13 C 0.4255(5) 0.8424(4) 0.6875(3)
H11 H 0.4911 0.8625 0.6478
C14 C 0.3430(7) 0.7219(6) 0.6185(4)
H12 H 0.2551 0.7088 0.5708
H13 H 0.3734 0.6511 0.6183
C15 C 0.3929(9) 0.9564(6) 0.6962(5)
H14 H 0.3071 0.9523 0.6515
H15 H 0.4570 1.0366 0.7468
N3 N -0.1399(2) 0.1908(2) 0.10365(15)
N4 N 0.0341(2) 0.2496(2) 0.31700(16)
C16 C -0.2176(3) 0.1962(3) 0.0104(2)
H16 H -0.2644 0.1257 -0.0534
C17 C -0.2162(3) 0.3217(3) 0.0251(2)
H17 H -0.2610 0.3522 -0.0265
C18 C -0.1358(3) 0.3952(3) 0.1310(2)
H18 H -0.1175 0.4844 0.1634
C19 C -0.0875(3) 0.3141(2) 0.18031(19)
C20 C 0.0028(3) 0.3433(2) 0.28815(19)
C21 C 0.0538(4) 0.4839(3) 0.3611(2)
H19 H 0.0915 0.4877 0.4341
H20 H -0.0243 0.5146 0.3531
H21 H 0.1269 0.5390 0.3426
C22 C 0.1300(3) 0.2805(2) 0.42204(19)
C23 C 0.0821(3) 0.2457(3) 0.5004(2)
H22 H -0.0152 0.2071 0.4867
C24 C 0.1777(4) 0.2677(4) 0.6000(2)
H23 H 0.1428 0.2439 0.6520
C25 C 0.3226(4) 0.3235(3) 0.6243(2)
C26 C 0.3692(3) 0.3589(3) 0.5441(2)
H24 H 0.4663 0.3986 0.5578
C27 C 0.2749(3) 0.3365(3) 0.4452(2)
H25 H 0.3095 0.3595 0.3928
C28 C 0.4252(5) 0.3458(5) 0.7334(3)
H26 H 0.3862 0.2667 0.7521
C29 C 0.4275(8) 0.4543(9) 0.8160(4)
H27 H 0.4561 0.5342 0.7985
H28 H 0.4938 0.4645 0.8833
H29 H 0.3341 0.4369 0.8214
C30 C 0.5690(7) 0.3539(10) 0.7360(4)
H30 H 0.5950 0.3975 0.6869
H31 H 0.5713 0.2663 0.7154
H32 H 0.6350 0.4032 0.8072
loop_
_geom_bond_atom_site_label_1
_geom_bond_atom_site_label_2
_geom_bond_site_symmetry_1
_geom_bond_site_symmetry_2
N1 C1 1_555 1_555
N2 C5 1_555 1_555
C1 H1 1_555 1_555
C2 C1 1_555 1_555
H2 C2 1_555 1_555
C3 C2 1_555 1_555
H3 C3 1_555 1_555
C4 N1 1_555 1_555
C5 C4 1_555 1_555
C6 C5 1_555 1_555
H4 C6 1_555 1_555
H5 C6 1_555 1_555
H6 C6 1_555 1_555
C7 N2 1_555 1_555
C8 C7 1_555 1_555
H7 C8 1_555 1_555
C9 C8 1_555 1_555
H8 C9 1_555 1_555
C10 C9 1_555 1_555
C11 C10 1_555 1_555
H9 C11 1_555 1_555
C12 C7 1_555 1_555
H10 C12 1_555 1_555
C13 C10 1_555 1_555
H11 C13 1_555 1_555
C14 C13 1_555 1_555
H12 C14 1_555 1_555
H13 C14 1_555 1_555
C15 C13 1_555 1_555
H14 C15 1_555 1_555
H15 C15 1_555 1_555
N3 C16 1_555 1_555
N4 C20 1_555 1_555
C16 H16 1_555 1_555
C17 C16 1_555 1_555
H17 C17 1_555 1_555
C18 C17 1_555 1_555
H18 C18 1_555 1_555
C19 N3 1_555 1_555
C20 C19 1_555 1_555
C21 C20 1_555 1_555
H19 C21 1_555 1_555
H20 C21 1_555 1_555
H21 C21 1_555 1_555
C22 N4 1_555 1_555
C23 C22 1_555 1_555
H22 C23 1_555 1_555
C24 C23 1_555 1_555
H23 C24 1_555 1_555
C25 C24 1_555 1_555
C26 C25 1_555 1_555
H24 C26 1_555 1_555
C27 C22 1_555 1_555
H25 C27 1_555 1_555
C28 C25 1_555 1_555
H26 C28 1_555 1_555
C29 C28 1_555 1_555
H27 C29 1_555 1_555
H28 C29 1_555 1_555
H29 C29 1_555 1_555
C30 C28 1_555 1_555
H30 C30 1_555 1_555
H31 C30 1_555 1_555
H32 C30 1_555 1_555
C3 C4 1_555 1_555
C11 C12 1_555 1_555
C18 C19 1_555 1_555
C26 C27 1_555 1_555

#END
