
#######################################################################
#
#                 Cambridge Crystallographic Data Centre
#                                CCDC 
#
#######################################################################
#
# If this CIF has been generated from an entry in the Cambridge 
# Structural Database, then it will include bibliographic, chemical, 
# crystal, experimental, refinement or atomic coordinate data resulting 
# from the CCDC's data processing and validation procedures.
#
#######################################################################

data_INEVAA
_chemical_name_common            2-(1-[(2-ethylphenyl)imino]ethyl)pyrrole
_chemical_formula_moiety         'C14 H16 N2'
_chemical_name_systematic        
N-(2-ethylphenyl)-1-(1H-pyrrol-2-yl)ethanimine
_symmetry_cell_setting           orthorhombic
_symmetry_space_group_name_H-M   'P b c a'
_symmetry_Int_Tables_number      61
_space_group_name_Hall           '-P 2ac 2ab'
loop_
_symmetry_equiv_pos_site_id
_symmetry_equiv_pos_as_xyz
1 x,y,z
2 1/2-x,-y,1/2+z
3 -x,1/2+y,1/2-z
4 1/2+x,1/2-y,-z
5 -x,-y,-z
6 1/2+x,y,1/2-z
7 x,1/2-y,1/2+z
8 1/2-x,1/2+y,z
_cell_length_a                   17.405(6)
_cell_length_b                   6.579(2)
_cell_length_c                   22.095(7)
_cell_angle_alpha                90
_cell_angle_beta                 90
_cell_angle_gamma                90
_cell_volume                     2530.04
_cell_formula_units_Z            8
loop_
_atom_site_label
_atom_site_type_symbol
_atom_site_fract_x
_atom_site_fract_y
_atom_site_fract_z
N1 N 0.57408(14) 0.2067(4) 0.53487(10)
N2 N 0.58249(14) -0.0030(4) 0.42584(10)
C1 C 0.6755(3) -0.0747(7) 0.69464(19)
H1 H 0.7090 0.0180 0.7153
H2 H 0.7031 -0.1968 0.6850
H3 H 0.6327 -0.1072 0.7202
C2 C 0.6466(2) 0.0233(6) 0.63671(16)
H4 H 0.6907 0.0550 0.6116
H5 H 0.6160 -0.0762 0.6151
C3 C 0.59922(16) 0.2142(5) 0.64350(13)
C4 C 0.58557(18) 0.3047(5) 0.69903(13)
H6 H 0.6066 0.2475 0.7338
C5 C 0.5415(2) 0.4776(6) 0.70389(14)
H7 H 0.5324 0.5344 0.7418
C6 C 0.5110(2) 0.5660(6) 0.65359(16)
H8 H 0.4812 0.6829 0.6569
C7 C 0.5247(2) 0.4803(5) 0.59766(14)
H9 H 0.5045 0.5410 0.5631
C8 C 0.56782(16) 0.3064(5) 0.59237(12)
C9 C 0.62465(16) 0.2623(5) 0.49715(13)
C10 C 0.63047(16) 0.1557(5) 0.43991(13)
C11 C 0.68049(18) 0.1811(6) 0.39171(15)
H10 H 0.7192 0.2780 0.3889
C12 C 0.66232(19) 0.0349(6) 0.34815(14)
H11 H 0.6866 0.0170 0.3111
C13 C 0.60282(19) -0.0761(6) 0.36978(13)
H12 H 0.5795 -0.1843 0.3499
C14 C 0.6805(2) 0.4335(6) 0.50751(17)
H13 H 0.6772 0.4779 0.5488
H14 H 0.6682 0.5446 0.4811
H15 H 0.7317 0.3872 0.4992
loop_
_geom_bond_atom_site_label_1
_geom_bond_atom_site_label_2
_geom_bond_site_symmetry_1
_geom_bond_site_symmetry_2
N1 C8 1_555 1_555
N2 C10 1_555 1_555
C1 H1 1_555 1_555
H2 C1 1_555 1_555
H3 C1 1_555 1_555
C2 C1 1_555 1_555
H4 C2 1_555 1_555
H5 C2 1_555 1_555
C3 C2 1_555 1_555
C4 C3 1_555 1_555
H6 C4 1_555 1_555
C5 C4 1_555 1_555
H7 C5 1_555 1_555
C6 C5 1_555 1_555
H8 C6 1_555 1_555
C7 C6 1_555 1_555
H9 C7 1_555 1_555
C8 C3 1_555 1_555
C9 N1 1_555 1_555
C10 C9 1_555 1_555
C11 C10 1_555 1_555
H10 C11 1_555 1_555
C12 C11 1_555 1_555
H11 C12 1_555 1_555
C13 N2 1_555 1_555
H12 C13 1_555 1_555
C14 C9 1_555 1_555
H13 C14 1_555 1_555
H14 C14 1_555 1_555
H15 C14 1_555 1_555
C7 C8 1_555 1_555
C12 C13 1_555 1_555

#END
