
#######################################################################
#
#                 Cambridge Crystallographic Data Centre
#                                CCDC 
#
#######################################################################
#
# If this CIF has been generated from an entry in the Cambridge 
# Structural Database, then it will include bibliographic, chemical, 
# crystal, experimental, refinement or atomic coordinate data resulting 
# from the CCDC's data processing and validation procedures.
#
#######################################################################

data_INEXIJ
_chemical_formula_moiety         'C10 H18 O4,C10 H14 N4'
_chemical_name_systematic        "N,N'-Butylenebis(imidazole) sebacic acid"
_symmetry_cell_setting           triclinic
_symmetry_space_group_name_H-M   'P -1'
_symmetry_Int_Tables_number      2
_space_group_name_Hall           '-P 1'
loop_
_symmetry_equiv_pos_site_id
_symmetry_equiv_pos_as_xyz
1 x,y,z
2 -x,-y,-z
_cell_length_a                   7.372(5)
_cell_length_b                   11.984(7)
_cell_length_c                   13.353(10)
_cell_angle_alpha                74.545(15)
_cell_angle_beta                 73.990(9)
_cell_angle_gamma                77.301(10)
_cell_volume                     1079.21
_cell_formula_units_Z            2
loop_
_atom_site_label
_atom_site_type_symbol
_atom_site_fract_x
_atom_site_fract_y
_atom_site_fract_z
N1 N 0.1854(4) 0.5708(2) 0.65417(19)
N2 N 0.3273(4) 0.6818(2) 0.7060(2)
C1 C 0.1672(5) 0.6697(3) 0.6872(2)
H3 H 0.0550 0.7234 0.6958
C2 C 0.4520(5) 0.5847(3) 0.6853(3)
H4 H 0.5775 0.5678 0.6927
C3 C 0.3685(5) 0.5160(3) 0.6525(3)
H5 H 0.4247 0.4453 0.6326
C4 C 0.0348(4) 0.5302(3) 0.6275(2)
H6 H -0.0833 0.5843 0.6417
H7 H 0.0146 0.4542 0.6736
C5 C 0.0800(4) 0.5202(3) 0.5129(2)
H8 H 0.1967 0.4650 0.4987
H9 H 0.1017 0.5959 0.4665
N1A N -0.1854(4) 0.4292(2) 0.34583(19)
N2A N -0.3273(4) 0.3182(2) 0.2940(2)
C1A C -0.1672(5) 0.3303(3) 0.3128(2)
H3A H -0.0550 0.2766 0.3042
C2A C -0.4520(5) 0.4153(3) 0.3147(3)
H4A H -0.5775 0.4322 0.3073
C3A C -0.3685(5) 0.4840(3) 0.3475(3)
H5A H -0.4247 0.5547 0.3674
C4A C -0.0348(4) 0.4698(3) 0.3725(2)
H6A H 0.0833 0.4157 0.3583
H7A H -0.0146 0.5458 0.3264
C5A C -0.0800(4) 0.4798(3) 0.4871(2)
H8A H -0.1967 0.5350 0.5013
H9A H -0.1017 0.4041 0.5335
N3 N 0.1792(4) 0.1572(2) 0.5878(2)
N4 N 0.3252(5) 0.1996(2) 0.6924(3)
C6 C 0.1692(6) 0.1714(3) 0.6845(3)
H10 H 0.0623 0.1622 0.7407
C7 C 0.4418(5) 0.2041(3) 0.5938(3)
H11 H 0.5647 0.2227 0.5735
C8 C 0.3532(6) 0.1777(3) 0.5294(3)
H12 H 0.4031 0.1744 0.4581
C9 C 0.0265(5) 0.1284(3) 0.5517(3)
H13 H -0.0016 0.1893 0.4911
H14 H -0.0884 0.1275 0.6087
C10 C 0.0792(5) 0.0126(3) 0.5205(3)
H15 H 0.1022 -0.0488 0.5817
H16 H 0.1964 0.0124 0.4651
N3A N -0.1792(4) -0.1572(2) 0.4122(2)
N4A N -0.3252(5) -0.1996(2) 0.3076(3)
C6A C -0.1692(6) -0.1714(3) 0.3155(3)
H10A H -0.0623 -0.1622 0.2593
C7A C -0.4418(5) -0.2041(3) 0.4062(3)
H11A H -0.5647 -0.2227 0.4265
C8A C -0.3532(6) -0.1777(3) 0.4706(3)
H12A H -0.4031 -0.1744 0.5419
C9A C -0.0265(5) -0.1284(3) 0.4483(3)
H13A H 0.0016 -0.1893 0.5089
H14A H 0.0884 -0.1275 0.3913
C10A C -0.0792(5) -0.0126(3) 0.4795(3)
H15A H -0.1022 0.0488 0.4183
H16A H -0.1964 -0.0124 0.5349
O1 O 0.4101(3) 0.84428(19) 0.77660(19)
H1 H 0.3947 0.7892 0.7559
O2 O 0.7136(3) 0.7716(2) 0.7281(2)
C11 C 0.5904(5) 0.8385(3) 0.7708(3)
C12 C 0.6274(4) 0.9262(3) 0.8212(3)
H17 H 0.5180 0.9401 0.8790
H18 H 0.6358 0.9995 0.7685
C13 C 0.8057(4) 0.8938(3) 0.8652(3)
H19 H 0.8035 0.8178 0.9142
H20 H 0.9173 0.8872 0.8068
C14 C 0.8227(4) 0.9828(3) 0.9228(3)
H21 H 0.8296 1.0577 0.8724
H22 H 0.7071 0.9921 0.9782
C15 C 0.9919(5) 0.9534(2) 0.9732(3)
H23 H 1.1078 0.9416 0.9185
H24 H 0.9829 0.8801 1.0258
O1A O 1.5899(3) 1.15572(19) 1.22340(19)
H1A H 1.6053 1.2108 1.2441
O2A O 1.2864(3) 1.2284(2) 1.2719(2)
C11A C 1.4096(5) 1.1615(3) 1.2292(3)
C12A C 1.3726(4) 1.0738(3) 1.1788(3)
H17A H 1.4820 1.0599 1.1210
H18A H 1.3642 1.0005 1.2315
C13A C 1.1943(4) 1.1062(3) 1.1348(3)
H19A H 1.1965 1.1822 1.0858
H20A H 1.0827 1.1128 1.1932
C14A C 1.1773(4) 1.0172(3) 1.0772(3)
H21A H 1.1704 0.9423 1.1276
H22A H 1.2929 1.0079 1.0218
C15A C 1.0081(5) 1.0466(2) 1.0268(3)
H23A H 0.8922 1.0584 1.0815
H24A H 1.0171 1.1199 0.9742
O3 O 0.4029(4) 0.2442(2) 0.85870(18)
H2 H 0.3866 0.2270 0.8067
O4 O 0.6817(3) 0.2818(2) 0.7487(2)
C16 C 0.5713(5) 0.2789(3) 0.8343(3)
C17 C 0.6077(5) 0.3118(3) 0.9274(3)
H25 H 0.6382 0.2408 0.9791
H26 H 0.4915 0.3565 0.9615
C18 C 0.7680(5) 0.3831(3) 0.8965(3)
H27 H 0.7321 0.4570 0.8495
H28 H 0.8809 0.3414 0.8566
C19 C 0.8188(5) 0.4086(3) 0.9899(3)
H29 H 0.8643 0.3352 1.0343
H30 H 0.7046 0.4458 1.0328
C20 C 0.9713(5) 0.4877(3) 0.9546(3)
H31 H 1.0838 0.4513 0.9099
H32 H 0.9240 0.5616 0.9115
O3A O 1.5971(4) 0.7558(2) 1.14130(18)
H2A H 1.6134 0.7730 1.1933
O4A O 1.3183(3) 0.7182(2) 1.2513(2)
C16A C 1.4287(5) 0.7211(3) 1.1657(3)
C17A C 1.3923(5) 0.6882(3) 1.0726(3)
H25A H 1.3618 0.7592 1.0209
H26A H 1.5085 0.6435 1.0385
C18A C 1.2320(5) 0.6169(3) 1.1035(3)
H27A H 1.2679 0.5430 1.1505
H28A H 1.1191 0.6586 1.1434
C19A C 1.1812(5) 0.5914(3) 1.0101(3)
H29A H 1.1357 0.6648 0.9657
H30A H 1.2954 0.5542 0.9672
C20A C 1.0287(5) 0.5123(3) 1.0454(3)
H31A H 0.9162 0.5487 1.0901
H32A H 1.0760 0.4384 1.0885
loop_
_geom_bond_atom_site_label_1
_geom_bond_atom_site_label_2
_geom_bond_site_symmetry_1
_geom_bond_site_symmetry_2
N1 C1 1_555 1_555
N2 C1 1_555 1_555
N3 C6 1_555 1_555
N4 C6 1_555 1_555
O1 H1 1_555 1_555
O2 C11 1_555 1_555
O3 H2 1_555 1_555
O4 C16 1_555 1_555
C1 H3 1_555 1_555
C2 N2 1_555 1_555
H4 C2 1_555 1_555
C3 N1 1_555 1_555
H5 C3 1_555 1_555
C4 N1 1_555 1_555
H6 C4 1_555 1_555
H7 C4 1_555 1_555
C5 C4 1_555 1_555
H8 C5 1_555 1_555
H9 C5 1_555 1_555
C6 H10 1_555 1_555
C7 N4 1_555 1_555
H11 C7 1_555 1_555
C8 N3 1_555 1_555
H12 C8 1_555 1_555
C9 N3 1_555 1_555
H13 C9 1_555 1_555
H14 C9 1_555 1_555
C10 C9 1_555 1_555
H15 C10 1_555 1_555
H16 C10 1_555 1_555
C11 O1 1_555 1_555
C12 C11 1_555 1_555
H17 C12 1_555 1_555
H18 C12 1_555 1_555
C13 C12 1_555 1_555
H19 C13 1_555 1_555
H20 C13 1_555 1_555
C14 C13 1_555 1_555
H21 C14 1_555 1_555
H22 C14 1_555 1_555
C15 C14 1_555 1_555
H23 C15 1_555 1_555
H24 C15 1_555 1_555
C16 O3 1_555 1_555
C17 C16 1_555 1_555
H25 C17 1_555 1_555
H26 C17 1_555 1_555
C18 C17 1_555 1_555
H27 C18 1_555 1_555
H28 C18 1_555 1_555
C19 C18 1_555 1_555
H29 C19 1_555 1_555
H30 C19 1_555 1_555
C20 C19 1_555 1_555
H31 C20 1_555 1_555
H32 C20 1_555 1_555
N1A C1A 1_555 1_555
N2A C1A 1_555 1_555
N3A C6A 1_555 1_555
N4A C6A 1_555 1_555
O1A H1A 1_555 1_555
O2A C11A 1_555 1_555
O3A H2A 1_555 1_555
O4A C16A 1_555 1_555
C1A H3A 1_555 1_555
C2A N2A 1_555 1_555
H4A C2A 1_555 1_555
C3A N1A 1_555 1_555
H5A C3A 1_555 1_555
C4A N1A 1_555 1_555
H6A C4A 1_555 1_555
H7A C4A 1_555 1_555
C5A C5 1_555 1_555
H8A C5A 1_555 1_555
H9A C5A 1_555 1_555
C6A H10A 1_555 1_555
C7A N4A 1_555 1_555
H11A C7A 1_555 1_555
C8A N3A 1_555 1_555
H12A C8A 1_555 1_555
C9A N3A 1_555 1_555
H13A C9A 1_555 1_555
H14A C9A 1_555 1_555
C10A C10 1_555 1_555
H15A C10A 1_555 1_555
H16A C10A 1_555 1_555
C11A O1A 1_555 1_555
C12A C11A 1_555 1_555
H17A C12A 1_555 1_555
H18A C12A 1_555 1_555
C13A C12A 1_555 1_555
H19A C13A 1_555 1_555
H20A C13A 1_555 1_555
C14A C13A 1_555 1_555
H21A C14A 1_555 1_555
H22A C14A 1_555 1_555
C15A C15 1_555 1_555
H23A C15A 1_555 1_555
H24A C15A 1_555 1_555
C16A O3A 1_555 1_555
C17A C16A 1_555 1_555
H25A C17A 1_555 1_555
H26A C17A 1_555 1_555
C18A C17A 1_555 1_555
H27A C18A 1_555 1_555
H28A C18A 1_555 1_555
C19A C18A 1_555 1_555
H29A C19A 1_555 1_555
H30A C19A 1_555 1_555
C20A C20 1_555 1_555
H31A C20A 1_555 1_555
H32A C20A 1_555 1_555
C2 C3 1_555 1_555
C7 C8 1_555 1_555
C2A C3A 1_555 1_555
C4A C5A 1_555 1_555
C7A C8A 1_555 1_555
C9A C10A 1_555 1_555
C14A C15A 1_555 1_555
C19A C20A 1_555 1_555

#END
