
#######################################################################
#
#                 Cambridge Crystallographic Data Centre
#                                CCDC 
#
#######################################################################
#
# If this CIF has been generated from an entry in the Cambridge 
# Structural Database, then it will include bibliographic, chemical, 
# crystal, experimental, refinement or atomic coordinate data resulting 
# from the CCDC's data processing and validation procedures.
#
#######################################################################

data_INIFUI
_chemical_formula_moiety         'C13 H14 N2'
_chemical_name_systematic        
N-(4-methylphenyl)-1-(1H-pyrrol-2-yl)ethanimine
_symmetry_cell_setting           monoclinic
_symmetry_space_group_name_H-M   'P 21/c'
_symmetry_Int_Tables_number      14
_space_group_name_Hall           '-P 2ybc'
loop_
_symmetry_equiv_pos_site_id
_symmetry_equiv_pos_as_xyz
1 x,y,z
2 -x,1/2+y,1/2-z
3 -x,-y,-z
4 x,1/2-y,1/2+z
_cell_length_a                   12.534(3)
_cell_length_b                   9.723(3)
_cell_length_c                   9.979(3)
_cell_angle_alpha                90
_cell_angle_beta                 107.061(4)
_cell_angle_gamma                90
_cell_volume                     1162.6
_cell_formula_units_Z            4
loop_
_atom_site_label
_atom_site_type_symbol
_atom_site_fract_x
_atom_site_fract_y
_atom_site_fract_z
N1 N 1.17837(10) 0.03686(14) 0.51817(13)
H1 H 1.1232 0.0018 0.5411
N2 N 0.97415(11) 0.08780(15) 0.31384(13)
C1 C 1.28535(14) 0.0363(2) 0.59977(19)
H2 H 1.3112 -0.0015 0.6891
C2 C 1.34908(16) 0.1006(2) 0.5289(2)
H3 H 1.4258 0.1149 0.5608
C3 C 1.27730(15) 0.1410(2) 0.3992(2)
H4 H 1.2979 0.1868 0.3288
C4 C 1.17041(13) 0.10104(16) 0.39405(17)
C5 C 1.06469(14) 0.12240(16) 0.28768(16)
C6 C 1.06804(16) 0.1874(2) 0.15201(18)
H5 H 1.0357 0.1257 0.0758
H6 H 1.1441 0.2061 0.1558
H7 H 1.0265 0.2718 0.1379
C7 C 0.87080(14) 0.10742(17) 0.20809(17)
C8 C 0.80852(16) 0.22590(19) 0.2066(2)
H8 H 0.8357 0.2944 0.2729
C9 C 0.70631(17) 0.2422(2) 0.1070(2)
H9 H 0.6659 0.3225 0.1067
C10 C 0.66247(16) 0.1418(3) 0.0075(2)
C11 C 0.72443(17) 0.0234(2) 0.0123(2)
H10 H 0.6965 -0.0463 -0.0523
C12 C 0.82744(16) 0.0064(2) 0.11154(19)
H11 H 0.8675 -0.0743 0.1126
C13 C 0.55110(18) 0.1602(4) -0.1022(3)
H12 H 0.4923 0.1531 -0.0589
H13 H 0.5418 0.0901 -0.1725
H14 H 0.5484 0.2490 -0.1450
loop_
_geom_bond_atom_site_label_1
_geom_bond_atom_site_label_2
_geom_bond_site_symmetry_1
_geom_bond_site_symmetry_2
N1 H1 1_555 1_555
N2 C5 1_555 1_555
C1 N1 1_555 1_555
H2 C1 1_555 1_555
C2 C1 1_555 1_555
H3 C2 1_555 1_555
C3 C2 1_555 1_555
H4 C3 1_555 1_555
C4 N1 1_555 1_555
C5 C4 1_555 1_555
C6 C5 1_555 1_555
H5 C6 1_555 1_555
H6 C6 1_555 1_555
H7 C6 1_555 1_555
C7 N2 1_555 1_555
C8 C7 1_555 1_555
H8 C8 1_555 1_555
C9 C8 1_555 1_555
H9 C9 1_555 1_555
C10 C9 1_555 1_555
C11 C10 1_555 1_555
H10 C11 1_555 1_555
C12 C7 1_555 1_555
H11 C12 1_555 1_555
C13 C10 1_555 1_555
H12 C13 1_555 1_555
H13 C13 1_555 1_555
H14 C13 1_555 1_555
C3 C4 1_555 1_555
C11 C12 1_555 1_555

#END
