
#######################################################################
#
#                 Cambridge Crystallographic Data Centre
#                                CCDC 
#
#######################################################################
#
# If this CIF has been generated from an entry in the Cambridge 
# Structural Database, then it will include bibliographic, chemical, 
# crystal, experimental, refinement or atomic coordinate data resulting 
# from the CCDC's data processing and validation procedures.
#
#######################################################################

data_INISOP
_chemical_name_common            
"5'-(t-butyl)-2',3',3',3',5',5',5',6'-octamethyldispiro[cyclohexane-1,2'-4,8,12,16-tetraaza-6(2,6)-pyridina-1,3,9,11(1,4),14(1,3)-pentabenzenacyclohexadecaphane-10',1''-cyclohexane]-5',7',13',15'-tetrathione methanol solvate monohydrate"
_chemical_formula_moiety         'C63 H71 N5 S4,3(C1 H4 O1),H2 O1'
_chemical_name_systematic        
"11'-t-butyl-5',17',23',35',38',40',43',45'-octamethyl-7',15',25',33',39'-pentaazadispiro[cyclohexane-1,2'-heptacyclo[32.2.2.2^3,6^.2^16,19^.2^21,24^.1^9,13^.1^27,31^]hexatetracontane-20',1''-cyclohexane]-1'(36'),3',5',9'(44'),10',12',16',18',21',23',27'(39'),28',30',34',37',40',42',45'-octadecaene-8',14',26',32'-tetrathione methanol solvate hydrate"
_symmetry_cell_setting           monoclinic
_symmetry_space_group_name_H-M   'P 21'
_symmetry_Int_Tables_number      4
_space_group_name_Hall           'P 2yb'
loop_
_symmetry_equiv_pos_site_id
_symmetry_equiv_pos_as_xyz
1 x,y,z
2 -x,1/2+y,-z
_cell_length_a                   10.9457(10)
_cell_length_b                   27.9604(19)
_cell_length_c                   12.6218(12)
_cell_angle_alpha                90
_cell_angle_beta                 110.472(3)
_cell_angle_gamma                90
_cell_volume                     3618.89
_exptl_crystal_colour            colorless
_exptl_crystal_description       blocks
_cell_formula_units_Z            2
loop_
_atom_site_label
_atom_site_type_symbol
_atom_site_fract_x
_atom_site_fract_y
_atom_site_fract_z
C1 C 0.6034(12) 0.2481(4) 0.6235(9)
S1 S 0.5667(3) 0.19202(12) 0.6321(4)
N1 N 0.5145(9) 0.2817(3) 0.5749(8)
H1 H 0.5410 0.3116 0.5823
C2 C 0.3812(10) 0.2731(3) 0.5125(11)
C3 C 0.3429(12) 0.2589(4) 0.4031(11)
C4 C 0.2121(11) 0.2530(4) 0.3414(10)
H2 H 0.1856 0.2438 0.2641
C5 C 0.1159(10) 0.2604(3) 0.3929(10)
C6 C 0.1599(10) 0.2725(3) 0.5047(9)
H3 H 0.0983 0.2763 0.5415
C7 C 0.2946(13) 0.2794(3) 0.5684(10)
C8 C -0.0330(11) 0.2549(4) 0.3221(10)
C9 C -0.1186(10) 0.2554(3) 0.3900(9)
H4 H -0.2100 0.2590 0.3382
H5 H -0.0969 0.2838 0.4400
C10 C -0.1093(12) 0.2104(4) 0.4636(10)
H6 H -0.0240 0.2104 0.5261
H7 H -0.1784 0.2119 0.4974
C11 C -0.1235(11) 0.1645(4) 0.3978(11)
H8 H -0.1030 0.1372 0.4512
H9 H -0.2153 0.1610 0.3467
C12 C -0.0366(12) 0.1626(3) 0.3295(11)
H10 H -0.0541 0.1328 0.2842
H11 H 0.0555 0.1618 0.3810
C13 C -0.0584(10) 0.2076(3) 0.2466(9)
H12 H 0.0028 0.2062 0.2046
H13 H -0.1486 0.2076 0.1913
C14 C -0.0618(9) 0.2992(3) 0.2421(9)
C15 C -0.0309(8) 0.3434(3) 0.2880(9)
H14 H 0.0105 0.3458 0.3677
C16 C -0.0563(9) 0.3858(3) 0.2249(9)
C17 C -0.1178(9) 0.3806(4) 0.1065(10)
C18 C -0.1539(9) 0.3359(4) 0.0581(9)
C19 C -0.1264(9) 0.2968(3) 0.1250(10)
H15 H -0.1520 0.2663 0.0911
N2 N -0.1355(8) 0.4239(3) 0.0364(7)
H16 H -0.0683 0.4324 0.0177
C20 C -0.2396(10) 0.4518(4) -0.0021(10)
S2 S -0.3820(3) 0.43806(11) 0.0074(3)
C21 C -0.2146(10) 0.4979(4) -0.0460(9)
C22 C -0.3103(10) 0.5214(4) -0.1344(9)
H17 H -0.3952 0.5079 -0.1644
C23 C -0.2849(10) 0.5641(4) -0.1798(9)
C24 C -0.1648(11) 0.5855(4) -0.1312(9)
H18 H -0.1471 0.6157 -0.1573
C25 C -0.0688(11) 0.5617(4) -0.0420(9)
C26 C -0.0975(11) 0.5203(4) -0.0014(9)
H19 H -0.0326 0.5061 0.0618
C27 C 0.0689(12) 0.5845(4) 0.0064(9)
S3 S 0.0906(3) 0.64298(11) 0.0145(3)
N3 N 0.1598(8) 0.5510(3) 0.0495(7)
H20 H 0.1348 0.5209 0.0409
C28 C 0.2976(12) 0.5608(4) 0.1100(10)
C29 C 0.3864(12) 0.5501(4) 0.0565(9)
C30 C 0.5185(13) 0.5556(4) 0.1142(10)
H21 H 0.5790 0.5505 0.0767
C31 C 0.5628(10) 0.5689(3) 0.2295(10)
C32 C 0.4757(12) 0.5776(3) 0.2778(9)
H22 H 0.5071 0.5872 0.3548
C33 C 0.3424(12) 0.5736(3) 0.2246(10)
C34 C 0.7090(10) 0.5690(3) 0.3022(9)
C35 C 0.7454(10) 0.6158(4) 0.3702(11)
H23 H 0.6885 0.6192 0.4159
H24 H 0.8363 0.6130 0.4235
C36 C 0.7350(14) 0.6590(4) 0.3045(14)
H25 H 0.7590 0.6869 0.3560
H26 H 0.6436 0.6632 0.2534
C37 C 0.8281(16) 0.6570(4) 0.2314(15)
H27 H 0.8127 0.6851 0.1807
H28 H 0.9207 0.6571 0.2817
C38 C 0.7969(13) 0.6114(5) 0.1625(12)
H29 H 0.7089 0.6147 0.1045
H30 H 0.8595 0.6082 0.1223
C39 C 0.8002(12) 0.5660(4) 0.2268(11)
H31 H 0.8910 0.5595 0.2765
H32 H 0.7708 0.5392 0.1728
C40 C 0.7375(8) 0.5232(3) 0.3756(9)
C41 C 0.6950(8) 0.4789(3) 0.3264(9)
H33 H 0.6508 0.4773 0.2469
C42 C 0.7145(9) 0.4375(4) 0.3885(9)
C43 C 0.7805(9) 0.4408(4) 0.5020(10)
C44 C 0.8260(10) 0.4834(4) 0.5607(10)
C45 C 0.7989(10) 0.5242(4) 0.4901(11)
H34 H 0.8253 0.5545 0.5249
N4 N 0.7958(8) 0.3966(3) 0.5678(7)
H35 H 0.7256 0.3856 0.5784
C46 C 0.9042(10) 0.3716(4) 0.6130(9)
S4 S 1.0510(3) 0.38694(11) 0.6111(3)
C47 C 0.8805(14) 0.3233(4) 0.6614(10)
C48 C 0.9887(11) 0.3019(5) 0.7413(9)
H36 H 1.0729 0.3161 0.7671
C49 C 0.9622(15) 0.2578(5) 0.7799(11)
H37 H 1.0318 0.2397 0.8305
C50 C 0.8378(14) 0.2400(4) 0.7464(10)
H38 H 0.8196 0.2106 0.7757
C51 C 0.7399(12) 0.2661(4) 0.6689(10)
N5 N 0.7605(9) 0.3087(3) 0.6283(8)
C52 C 0.4434(10) 0.2541(4) 0.3430(10)
H39 H 0.4984 0.2828 0.3576
H40 H 0.3976 0.2506 0.2615
H41 H 0.4981 0.2259 0.3720
C53 C 0.3355(10) 0.2945(4) 0.6898(9)
H42 H 0.3551 0.2661 0.7384
H43 H 0.2648 0.3126 0.7018
H44 H 0.4135 0.3147 0.7087
C54 C -0.0147(10) 0.4343(3) 0.2744(9)
H45 H 0.0183 0.4321 0.3571
H46 H -0.0894 0.4561 0.2497
H47 H 0.0543 0.4464 0.2488
C55 C -0.2259(11) 0.3328(4) -0.0720(9)
H48 H -0.2520 0.2996 -0.0933
H49 H -0.1676 0.3436 -0.1109
H50 H -0.3036 0.3532 -0.0938
C56 C -0.3906(12) 0.5901(4) -0.2754(11)
C57 C -0.3342(11) 0.6263(4) -0.3350(9)
H51 H -0.2724 0.6103 -0.3637
H52 H -0.4048 0.6405 -0.3983
H53 H -0.2890 0.6515 -0.2817
C58 C -0.4655(15) 0.5535(6) -0.3690(13)
H54 H -0.4039 0.5376 -0.3980
H55 H -0.5081 0.5297 -0.3369
H56 H -0.5315 0.5704 -0.4309
C59 C -0.4851(15) 0.6144(6) -0.2315(14)
H57 H -0.5214 0.5909 -0.1929
H58 H -0.4400 0.6395 -0.1780
H59 H -0.5558 0.6286 -0.2946
C60 C 0.3344(12) 0.5376(5) -0.0677(11)
H60 H 0.2954 0.5056 -0.0776
H61 H 0.4060 0.5380 -0.0974
H62 H 0.2682 0.5610 -0.1087
C61 C 0.2441(9) 0.5831(4) 0.2864(9)
H63 H 0.2908 0.5834 0.3683
H64 H 0.1781 0.5578 0.2674
H65 H 0.2015 0.6141 0.2625
C62 C 0.6659(9) 0.3906(3) 0.3250(9)
H66 H 0.6275 0.3970 0.2438
H67 H 0.6000 0.3763 0.3515
H68 H 0.7393 0.3684 0.3393
C63 C 0.8905(12) 0.4865(5) 0.6860(10)
H69 H 0.8777 0.5186 0.7116
H70 H 0.9840 0.4803 0.7065
H71 H 0.8522 0.4628 0.7222
O1 O 0.5351(6) 0.3851(3) 0.5724(7)
H72 H 0.4768 0.3999 0.5215
C64 C 0.5513(14) 0.4064(5) 0.6839(10)
H73 H 0.5933 0.3832 0.7438
H74 H 0.4656 0.4151 0.6865
H75 H 0.6057 0.4351 0.6952
O2 O 0.3352(10) 0.4372(4) 0.4442(10)
H76 H 0.2906 0.4525 0.4751
C65 C 0.3717(18) 0.4686(7) 0.3689(19)
H77 H 0.4370 0.4916 0.4136
H78 H 0.2945 0.4858 0.3203
H79 H 0.4083 0.4496 0.3219
O3 O 1.1865(11) 0.4814(5) 0.5579(11)
H80 H 1.1174 0.4661 0.5258
C66 C 1.1588(12) 0.5282(6) 0.5587(16)
H81 H 1.1189 0.5343 0.6158
H82 H 1.0980 0.5376 0.4841
H83 H 1.2393 0.5469 0.5767
O4 O 0.1342(7) 0.4452(3) 0.0324(6)
H84 H 0.1501 0.4349 -0.0247
H85 H 0.1878 0.4331 0.0924
loop_
_geom_bond_atom_site_label_1
_geom_bond_atom_site_label_2
_geom_bond_site_symmetry_1
_geom_bond_site_symmetry_2
C1 S1 1_555 1_555
N1 C1 1_555 1_555
H1 N1 1_555 1_555
C2 N1 1_555 1_555
C3 C2 1_555 1_555
C4 C3 1_555 1_555
H2 C4 1_555 1_555
C5 C4 1_555 1_555
C6 C5 1_555 1_555
H3 C6 1_555 1_555
C7 C2 1_555 1_555
C8 C5 1_555 1_555
C9 C8 1_555 1_555
H4 C9 1_555 1_555
H5 C9 1_555 1_555
C10 C9 1_555 1_555
H6 C10 1_555 1_555
H7 C10 1_555 1_555
C11 C10 1_555 1_555
H8 C11 1_555 1_555
H9 C11 1_555 1_555
C12 C11 1_555 1_555
H10 C12 1_555 1_555
H11 C12 1_555 1_555
C13 C8 1_555 1_555
H12 C13 1_555 1_555
H13 C13 1_555 1_555
C14 C8 1_555 1_555
C15 C14 1_555 1_555
H14 C15 1_555 1_555
C16 C15 1_555 1_555
C17 C16 1_555 1_555
C18 C17 1_555 1_555
C19 C14 1_555 1_555
H15 C19 1_555 1_555
N2 C17 1_555 1_555
H16 N2 1_555 1_555
C20 N2 1_555 1_555
S2 C20 1_555 1_555
C21 C20 1_555 1_555
C22 C21 1_555 1_555
H17 C22 1_555 1_555
C23 C22 1_555 1_555
C24 C23 1_555 1_555
H18 C24 1_555 1_555
C25 C24 1_555 1_555
C26 C21 1_555 1_555
H19 C26 1_555 1_555
C27 C25 1_555 1_555
S3 C27 1_555 1_555
N3 C27 1_555 1_555
H20 N3 1_555 1_555
C28 N3 1_555 1_555
C29 C28 1_555 1_555
C30 C29 1_555 1_555
H21 C30 1_555 1_555
C31 C30 1_555 1_555
C32 C31 1_555 1_555
H22 C32 1_555 1_555
C33 C28 1_555 1_555
C34 C31 1_555 1_555
C35 C34 1_555 1_555
H23 C35 1_555 1_555
H24 C35 1_555 1_555
C36 C35 1_555 1_555
H25 C36 1_555 1_555
H26 C36 1_555 1_555
C37 C36 1_555 1_555
H27 C37 1_555 1_555
H28 C37 1_555 1_555
C38 C37 1_555 1_555
H29 C38 1_555 1_555
H30 C38 1_555 1_555
C39 C34 1_555 1_555
H31 C39 1_555 1_555
H32 C39 1_555 1_555
C40 C34 1_555 1_555
C41 C40 1_555 1_555
H33 C41 1_555 1_555
C42 C41 1_555 1_555
C43 C42 1_555 1_555
C44 C43 1_555 1_555
C45 C40 1_555 1_555
H34 C45 1_555 1_555
N4 C43 1_555 1_555
H35 N4 1_555 1_555
C46 N4 1_555 1_555
S4 C46 1_555 1_555
C47 C46 1_555 1_555
C48 C47 1_555 1_555
H36 C48 1_555 1_555
C49 C48 1_555 1_555
H37 C49 1_555 1_555
C50 C49 1_555 1_555
H38 C50 1_555 1_555
C51 C1 1_555 1_555
N5 C47 1_555 1_555
C52 C3 1_555 1_555
H39 C52 1_555 1_555
H40 C52 1_555 1_555
H41 C52 1_555 1_555
C53 C7 1_555 1_555
H42 C53 1_555 1_555
H43 C53 1_555 1_555
H44 C53 1_555 1_555
C54 C16 1_555 1_555
H45 C54 1_555 1_555
H46 C54 1_555 1_555
H47 C54 1_555 1_555
C55 C18 1_555 1_555
H48 C55 1_555 1_555
H49 C55 1_555 1_555
H50 C55 1_555 1_555
C56 C23 1_555 1_555
C57 C56 1_555 1_555
H51 C57 1_555 1_555
H52 C57 1_555 1_555
H53 C57 1_555 1_555
C58 C56 1_555 1_555
H54 C58 1_555 1_555
H55 C58 1_555 1_555
H56 C58 1_555 1_555
C59 C56 1_555 1_555
H57 C59 1_555 1_555
H58 C59 1_555 1_555
H59 C59 1_555 1_555
C60 C29 1_555 1_555
H60 C60 1_555 1_555
H61 C60 1_555 1_555
H62 C60 1_555 1_555
C61 C33 1_555 1_555
H63 C61 1_555 1_555
H64 C61 1_555 1_555
H65 C61 1_555 1_555
C62 C42 1_555 1_555
H66 C62 1_555 1_555
H67 C62 1_555 1_555
H68 C62 1_555 1_555
C63 C44 1_555 1_555
H69 C63 1_555 1_555
H70 C63 1_555 1_555
H71 C63 1_555 1_555
O1 H72 1_555 1_555
C64 O1 1_555 1_555
H73 C64 1_555 1_555
H74 C64 1_555 1_555
H75 C64 1_555 1_555
O2 H76 1_555 1_555
C65 O2 1_555 1_555
H77 C65 1_555 1_555
H78 C65 1_555 1_555
H79 C65 1_555 1_555
O3 H80 1_555 1_555
C66 O3 1_555 1_555
H81 C66 1_555 1_555
H82 C66 1_555 1_555
H83 C66 1_555 1_555
O4 H84 1_555 1_555
H85 O4 1_555 1_555
C6 C7 1_555 1_555
C12 C13 1_555 1_555
C18 C19 1_555 1_555
C25 C26 1_555 1_555
C32 C33 1_555 1_555
C38 C39 1_555 1_555
C44 C45 1_555 1_555
C50 C51 1_555 1_555
C51 N5 1_555 1_555

#END
