
#######################################################################
#
#                 Cambridge Crystallographic Data Centre
#                                CCDC 
#
#######################################################################
#
# If this CIF has been generated from an entry in the Cambridge 
# Structural Database, then it will include bibliographic, chemical, 
# crystal, experimental, refinement or atomic coordinate data resulting 
# from the CCDC's data processing and validation procedures.
#
#######################################################################

data_INITEG
_chemical_name_common            
'octaethyl 13,23-dihydro-1H,9H-4,8:16,20-bis(azeno)benzo[1,2:4,5]-di[13]annulen-2,2,10,10,14,14,22,22(3H,11H,15H,21H)-octacarboxylate'
_chemical_formula_moiety         'C52 H64 N2 O16'
_chemical_name_systematic        
'octaethyl 29,30-diazapentacyclo[23.3.1.1^11,15^.0^5,21^.0^7,19^]triaconta-1(29),5(21),6,11(30),12,14,19,25,27-nonaene-3,3,9,9,17,17,23,23-octacarboxylate'
_symmetry_cell_setting           monoclinic
_symmetry_space_group_name_H-M   'P 21'
_symmetry_Int_Tables_number      4
_space_group_name_Hall           'P 2yb'
loop_
_symmetry_equiv_pos_site_id
_symmetry_equiv_pos_as_xyz
1 x,y,z
2 -x,1/2+y,-z
_cell_length_a                   9.5642(2)
_cell_length_b                   20.8964(3)
_cell_length_c                   12.6512(2)
_cell_angle_alpha                90
_cell_angle_beta                 99.092(1)
_cell_angle_gamma                90
_cell_volume                     2496.67
_exptl_crystal_colour            colorless
_exptl_crystal_description       blocks
_cell_formula_units_Z            2
loop_
_atom_site_label
_atom_site_type_symbol
_atom_site_fract_x
_atom_site_fract_y
_atom_site_fract_z
C1 C 0.2122(3) 0.58621(15) 0.2782(3)
H1 H 0.1557 0.5612 0.3229
H2 H 0.1731 0.5771 0.2025
C2 C 0.1876(3) 0.65883(15) 0.2991(2)
C3 C 0.2923(3) 0.70484(15) 0.2568(3)
H3 H 0.2652 0.7495 0.2702
H4 H 0.3885 0.6975 0.2970
C4 C 0.2961(3) 0.69653(15) 0.1390(3)
C5 C 0.2231(4) 0.73505(16) 0.0586(3)
H5 H 0.1683 0.7703 0.0761
C6 C 0.2318(4) 0.72102(16) -0.0476(3)
H6 H 0.1856 0.7474 -0.1036
C7 C 0.3086(3) 0.66804(16) -0.0707(3)
H7 H 0.3124 0.6565 -0.1428
C8 C 0.3793(3) 0.63232(15) 0.0128(2)
N1 N 0.3754(3) 0.64717(12) 0.1152(2)
C9 C 0.4671(3) 0.57417(16) -0.0021(2)
H8 H 0.5556 0.5757 0.0503
H9 H 0.4934 0.5754 -0.0747
C10 C 0.3899(3) 0.51039(15) 0.0119(2)
C11 C 0.3313(3) 0.50258(16) 0.1193(2)
H10 H 0.2415 0.5269 0.1123
H11 H 0.3068 0.4569 0.1257
C12 C 0.4199(3) 0.52220(14) 0.2242(2)
C13 C 0.5583(3) 0.50067(15) 0.2510(2)
H12 H 0.5958 0.4747 0.2005
C14 C 0.6456(3) 0.51459(14) 0.3469(2)
C15 C 0.8005(3) 0.49401(15) 0.3642(3)
H13 H 0.8428 0.5078 0.4371
H14 H 0.8481 0.5188 0.3134
C16 C 0.8408(3) 0.42222(15) 0.3527(2)
C17 C 0.7511(3) 0.37377(15) 0.4061(2)
H15 H 0.6526 0.3747 0.3677
H16 H 0.7888 0.3302 0.3983
C18 C 0.7497(3) 0.38668(15) 0.5233(2)
C19 C 0.8400(4) 0.35747(15) 0.6060(3)
H17 H 0.9065 0.3262 0.5914
C20 C 0.8310(4) 0.37492(16) 0.7101(3)
H18 H 0.8900 0.3550 0.7682
C21 C 0.7352(4) 0.42172(17) 0.7292(3)
H19 H 0.7290 0.4350 0.8001
C22 C 0.6489(3) 0.44864(16) 0.6425(2)
N2 N 0.6535(3) 0.43036(12) 0.5411(2)
C23 C 0.5509(3) 0.50397(16) 0.6515(2)
H20 H 0.5219 0.5036 0.7233
H21 H 0.4647 0.4993 0.5974
C24 C 0.6239(3) 0.56900(16) 0.6342(2)
C25 C 0.6795(3) 0.57417(16) 0.5259(2)
H22 H 0.7031 0.6197 0.5161
H23 H 0.7696 0.5501 0.5334
C26 C 0.5898(3) 0.55214(14) 0.4232(2)
C27 C 0.4497(3) 0.57356(15) 0.3964(2)
H24 H 0.4112 0.5983 0.4478
C28 C 0.3633(3) 0.56098(15) 0.2993(2)
C29 C 0.1906(3) 0.67203(16) 0.4192(3)
O1 O 0.2684(2) 0.70962(11) 0.47116(18)
O2 O 0.0935(2) 0.63668(11) 0.45704(18)
C30 C 0.0815(4) 0.64385(17) 0.5697(3)
H25 H 0.1772 0.6487 0.6120
H26 H 0.0383 0.6048 0.5948
C31 C -0.0072(4) 0.70095(19) 0.5880(3)
H27 H -0.0132 0.7044 0.6644
H28 H 0.0363 0.7398 0.5643
H29 H -0.1025 0.6959 0.5472
C32 C 0.0361(3) 0.67907(17) 0.2483(2)
O3 O 0.0035(3) 0.73525(12) 0.2305(2)
O4 O -0.0530(2) 0.63128(12) 0.22757(19)
C33 C -0.2018(4) 0.64818(19) 0.1955(3)
H30 H -0.2556 0.6092 0.1700
H31 H -0.2100 0.6787 0.1350
C34 C -0.2670(4) 0.6777(2) 0.2854(3)
H32 H -0.3665 0.6881 0.2595
H33 H -0.2613 0.6473 0.3449
H34 H -0.2156 0.7169 0.3099
C35 C 0.2623(3) 0.50379(15) -0.0786(2)
O5 O 0.1411(2) 0.49951(13) -0.06683(17)
O6 O 0.3069(2) 0.50314(12) -0.17351(16)
C36 C 0.2018(4) 0.48628(18) -0.2664(3)
H35 H 0.2262 0.5066 -0.3317
H36 H 0.1068 0.5015 -0.2560
C37 C 0.2015(5) 0.4145(2) -0.2777(3)
H37 H 0.1318 0.4019 -0.3395
H38 H 0.2958 0.4000 -0.2882
H39 H 0.1768 0.3949 -0.2127
C38 C 0.4894(3) 0.45555(16) -0.0069(2)
O7 O 0.6115(2) 0.46148(11) -0.01698(18)
O8 O 0.4209(2) 0.39981(10) -0.01254(18)
C39 C 0.4996(4) 0.34317(16) -0.0365(3)
H40 H 0.5727 0.3322 0.0253
H41 H 0.5469 0.3511 -0.0994
C40 C 0.3942(4) 0.28965(17) -0.0594(3)
H42 H 0.4431 0.2506 -0.0759
H43 H 0.3483 0.2823 0.0035
H44 H 0.3226 0.3012 -0.1206
C41 C 0.9956(3) 0.41610(15) 0.4064(2)
O9 O 1.0559(2) 0.45258(12) 0.47231(19)
O10 O 1.0560(2) 0.36276(10) 0.37485(18)
C42 C 1.2026(3) 0.35148(16) 0.4218(3)
H45 H 1.2275 0.3064 0.4093
H46 H 1.2137 0.3584 0.5001
C43 C 1.3024(4) 0.39523(19) 0.3750(3)
H47 H 1.3999 0.3863 0.4085
H48 H 1.2929 0.3880 0.2977
H49 H 1.2791 0.4399 0.3885
C44 C 0.8344(3) 0.40231(15) 0.2353(3)
O11 O 0.7604(2) 0.36011(12) 0.19188(18)
O12 O 0.9236(2) 0.43749(11) 0.18760(18)
C45 C 0.9376(4) 0.4198(2) 0.0782(3)
H50 H 0.9714 0.4573 0.0414
H51 H 0.8438 0.4074 0.0388
C46 C 1.0391(4) 0.36552(19) 0.0767(3)
H52 H 1.0466 0.3547 0.0024
H53 H 1.1325 0.3781 0.1146
H54 H 1.0050 0.3282 0.1120
C47 C 0.7529(3) 0.57509(15) 0.7226(2)
O13 O 0.8742(2) 0.57220(12) 0.70990(17)
O14 O 0.7129(2) 0.58129(12) 0.81895(16)
C48 C 0.8268(4) 0.5831(2) 0.9109(3)
H55 H 0.9023 0.5528 0.8990
H56 H 0.7894 0.5694 0.9759
C49 C 0.8874(5) 0.6484(2) 0.9274(3)
H57 H 0.9632 0.6483 0.9893
H58 H 0.9258 0.6617 0.8634
H59 H 0.8130 0.6784 0.9403
C50 C 0.5244(3) 0.62331(16) 0.6536(2)
O15 O 0.4107(2) 0.61653(11) 0.68277(18)
O16 O 0.5817(2) 0.68059(11) 0.63675(18)
C51 C 0.5044(4) 0.73735(17) 0.6619(3)
H60 H 0.4025 0.7271 0.6567
H61 H 0.5146 0.7717 0.6097
C52 C 0.5609(4) 0.76008(19) 0.7728(3)
H62 H 0.5085 0.7982 0.7891
H63 H 0.5497 0.7262 0.8244
H64 H 0.6615 0.7707 0.7775
loop_
_geom_bond_atom_site_label_1
_geom_bond_atom_site_label_2
_geom_bond_site_symmetry_1
_geom_bond_site_symmetry_2
C1 H1 1_555 1_555
H2 C1 1_555 1_555
C2 C1 1_555 1_555
C3 C2 1_555 1_555
H3 C3 1_555 1_555
H4 C3 1_555 1_555
C4 C3 1_555 1_555
C5 C4 1_555 1_555
H5 C5 1_555 1_555
C6 C5 1_555 1_555
H6 C6 1_555 1_555
C7 C6 1_555 1_555
H7 C7 1_555 1_555
C8 C7 1_555 1_555
N1 C4 1_555 1_555
C9 C8 1_555 1_555
H8 C9 1_555 1_555
H9 C9 1_555 1_555
C10 C9 1_555 1_555
C11 C10 1_555 1_555
H10 C11 1_555 1_555
H11 C11 1_555 1_555
C12 C11 1_555 1_555
C13 C12 1_555 1_555
H12 C13 1_555 1_555
C14 C13 1_555 1_555
C15 C14 1_555 1_555
H13 C15 1_555 1_555
H14 C15 1_555 1_555
C16 C15 1_555 1_555
C17 C16 1_555 1_555
H15 C17 1_555 1_555
H16 C17 1_555 1_555
C18 C17 1_555 1_555
C19 C18 1_555 1_555
H17 C19 1_555 1_555
C20 C19 1_555 1_555
H18 C20 1_555 1_555
C21 C20 1_555 1_555
H19 C21 1_555 1_555
C22 C21 1_555 1_555
N2 C18 1_555 1_555
C23 C22 1_555 1_555
H20 C23 1_555 1_555
H21 C23 1_555 1_555
C24 C23 1_555 1_555
C25 C24 1_555 1_555
H22 C25 1_555 1_555
H23 C25 1_555 1_555
C26 C14 1_555 1_555
C27 C26 1_555 1_555
H24 C27 1_555 1_555
C28 C1 1_555 1_555
C29 C2 1_555 1_555
O1 C29 1_555 1_555
O2 C29 1_555 1_555
C30 O2 1_555 1_555
H25 C30 1_555 1_555
H26 C30 1_555 1_555
C31 C30 1_555 1_555
H27 C31 1_555 1_555
H28 C31 1_555 1_555
H29 C31 1_555 1_555
C32 C2 1_555 1_555
O3 C32 1_555 1_555
O4 C32 1_555 1_555
C33 O4 1_555 1_555
H30 C33 1_555 1_555
H31 C33 1_555 1_555
C34 C33 1_555 1_555
H32 C34 1_555 1_555
H33 C34 1_555 1_555
H34 C34 1_555 1_555
C35 C10 1_555 1_555
O5 C35 1_555 1_555
O6 C35 1_555 1_555
C36 O6 1_555 1_555
H35 C36 1_555 1_555
H36 C36 1_555 1_555
C37 C36 1_555 1_555
H37 C37 1_555 1_555
H38 C37 1_555 1_555
H39 C37 1_555 1_555
C38 C10 1_555 1_555
O7 C38 1_555 1_555
O8 C38 1_555 1_555
C39 O8 1_555 1_555
H40 C39 1_555 1_555
H41 C39 1_555 1_555
C40 C39 1_555 1_555
H42 C40 1_555 1_555
H43 C40 1_555 1_555
H44 C40 1_555 1_555
C41 C16 1_555 1_555
O9 C41 1_555 1_555
O10 C41 1_555 1_555
C42 O10 1_555 1_555
H45 C42 1_555 1_555
H46 C42 1_555 1_555
C43 C42 1_555 1_555
H47 C43 1_555 1_555
H48 C43 1_555 1_555
H49 C43 1_555 1_555
C44 C16 1_555 1_555
O11 C44 1_555 1_555
O12 C44 1_555 1_555
C45 O12 1_555 1_555
H50 C45 1_555 1_555
H51 C45 1_555 1_555
C46 C45 1_555 1_555
H52 C46 1_555 1_555
H53 C46 1_555 1_555
H54 C46 1_555 1_555
C47 C24 1_555 1_555
O13 C47 1_555 1_555
O14 C47 1_555 1_555
C48 O14 1_555 1_555
H55 C48 1_555 1_555
H56 C48 1_555 1_555
C49 C48 1_555 1_555
H57 C49 1_555 1_555
H58 C49 1_555 1_555
H59 C49 1_555 1_555
C50 C24 1_555 1_555
O15 C50 1_555 1_555
O16 C50 1_555 1_555
C51 O16 1_555 1_555
H60 C51 1_555 1_555
H61 C51 1_555 1_555
C52 C51 1_555 1_555
H62 C52 1_555 1_555
H63 C52 1_555 1_555
H64 C52 1_555 1_555
C8 N1 1_555 1_555
C12 C28 1_555 1_555
C22 N2 1_555 1_555
C25 C26 1_555 1_555
C27 C28 1_555 1_555

#END
