
#######################################################################
#
#                 Cambridge Crystallographic Data Centre
#                                CCDC 
#
#######################################################################
#
# If this CIF has been generated from an entry in the Cambridge 
# Structural Database, then it will include bibliographic, chemical, 
# crystal, experimental, refinement or atomic coordinate data resulting 
# from the CCDC's data processing and validation procedures.
#
#######################################################################

data_INIZUB
_chemical_formula_moiety         'C13 H13 N1 S1'
_chemical_name_systematic        1-Phenyl-N-(2-thienylmethylene)ethanamine
_symmetry_cell_setting           monoclinic
_symmetry_space_group_name_H-M   'P 21'
_symmetry_Int_Tables_number      4
_space_group_name_Hall           'P 2yb'
loop_
_symmetry_equiv_pos_site_id
_symmetry_equiv_pos_as_xyz
1 x,y,z
2 -x,1/2+y,-z
_cell_length_a                   5.5337(11)
_cell_length_b                   7.5238(15)
_cell_length_c                   13.907(3)
_cell_angle_alpha                90
_cell_angle_beta                 94.51(3)
_cell_angle_gamma                90
_cell_volume                     577.217
_cell_formula_units_Z            2
loop_
_atom_site_label
_atom_site_type_symbol
_atom_site_fract_x
_atom_site_fract_y
_atom_site_fract_z
S1 S 0.56055(10) 0.57942(8) 0.00299(4)
N1 N 0.9287(3) 0.4827(2) 0.16630(13)
C1 C 0.4905(4) 0.5534(3) -0.11832(17)
H1 H 0.3525 0.6009 -0.1512
C2 C 0.6565(5) 0.4571(3) -0.16096(17)
H2 H 0.6452 0.4310 -0.2265
C3 C 0.8515(4) 0.3991(3) -0.09547(16)
H3 H 0.9819 0.3317 -0.1130
C4 C 0.8221(4) 0.4561(3) -0.00242(16)
C5 C 0.9811(4) 0.4273(3) 0.08451(17)
H4 H 1.1259 0.3662 0.0799
C6 C 1.0996(4) 0.4460(3) 0.24959(17)
H5 H 1.2606 0.4233 0.2274
C7 C 1.0127(5) 0.2805(3) 0.30068(17)
H6 H 0.8493 0.2984 0.3172
H7 H 1.1159 0.2595 0.3583
H8 H 1.0184 0.1797 0.2586
C8 C 1.1138(4) 0.6029(3) 0.31836(15)
C9 C 1.3154(4) 0.6228(3) 0.38325(16)
H9 H 1.4438 0.5433 0.3818
C10 C 1.3284(5) 0.7606(3) 0.45071(18)
H10 H 1.4649 0.7732 0.4936
C11 C 1.1380(5) 0.8779(3) 0.45343(18)
H11 H 1.1453 0.9694 0.4985
C12 C 0.9359(5) 0.8594(3) 0.38914(18)
H12 H 0.8079 0.9392 0.3906
C13 C 0.9239(4) 0.7218(3) 0.32227(16)
H13 H 0.7867 0.7094 0.2797
loop_
_geom_bond_atom_site_label_1
_geom_bond_atom_site_label_2
_geom_bond_site_symmetry_1
_geom_bond_site_symmetry_2
S1 C1 1_555 1_555
N1 C5 1_555 1_555
C1 H1 1_555 1_555
C2 C1 1_555 1_555
H2 C2 1_555 1_555
C3 C2 1_555 1_555
H3 C3 1_555 1_555
C4 S1 1_555 1_555
C5 C4 1_555 1_555
H4 C5 1_555 1_555
C6 N1 1_555 1_555
H5 C6 1_555 1_555
C7 C6 1_555 1_555
H6 C7 1_555 1_555
H7 C7 1_555 1_555
H8 C7 1_555 1_555
C8 C6 1_555 1_555
C9 C8 1_555 1_555
H9 C9 1_555 1_555
C10 C9 1_555 1_555
H10 C10 1_555 1_555
C11 C10 1_555 1_555
H11 C11 1_555 1_555
C12 C11 1_555 1_555
H12 C12 1_555 1_555
C13 C8 1_555 1_555
H13 C13 1_555 1_555
C3 C4 1_555 1_555
C12 C13 1_555 1_555

#END
