
#######################################################################
#
#                 Cambridge Crystallographic Data Centre
#                                CCDC 
#
#######################################################################
#
# If this CIF has been generated from an entry in the Cambridge 
# Structural Database, then it will include bibliographic, chemical, 
# crystal, experimental, refinement or atomic coordinate data resulting 
# from the CCDC's data processing and validation procedures.
#
#######################################################################

data_INOBIX
_chemical_formula_moiety         'C17 H13 Cl2 F4 N3 O4'
_chemical_name_systematic        
'6-Chloro-3-(4-chloro-1-methyl-5-(trifluoromethyl)-1H-pyrazol-3-yl)-2-(diacetylamino)-4-fluorophenyl acetate'
_symmetry_cell_setting           monoclinic
_symmetry_space_group_name_H-M   'P 21/n'
_symmetry_Int_Tables_number      14
_space_group_name_Hall           '-P 2yn'
loop_
_symmetry_equiv_pos_site_id
_symmetry_equiv_pos_as_xyz
1 x,y,z
2 1/2-x,1/2+y,1/2-z
3 -x,-y,-z
4 1/2+x,1/2-y,1/2+z
_cell_length_a                   10.210(5)
_cell_length_b                   9.442(5)
_cell_length_c                   21.312(10)
_cell_angle_alpha                90
_cell_angle_beta                 100.407(6)
_cell_angle_gamma                90
_cell_volume                     2020.74
_exptl_crystal_colour            colorless
_exptl_crystal_description       block
_cell_formula_units_Z            4
loop_
_atom_site_label
_atom_site_type_symbol
_atom_site_fract_x
_atom_site_fract_y
_atom_site_fract_z
Cl1 Cl 0.93094(7) 0.90702(8) 0.13284(3)
Cl2 Cl 1.04305(7) 0.49242(7) -0.12646(3)
N1 N 1.31569(19) 0.78307(19) -0.08820(8)
N2 N 1.3544(2) 0.7155(2) -0.13742(9)
N3 N 1.34685(17) 0.74219(18) 0.05172(8)
O1 O 1.21726(16) 0.85212(17) 0.14472(7)
O2 O 1.2304(2) 0.6240(2) 0.17309(9)
O3 O 1.37700(17) 0.97840(18) 0.05243(8)
O4 O 1.5050(2) 0.5699(2) 0.07283(10)
C1 C 1.2072(2) 0.7738(2) 0.03627(10)
C2 C 1.1430(2) 0.8207(2) 0.08452(10)
C3 C 1.0084(2) 0.8503(2) 0.07210(11)
C4 C 0.9367(2) 0.8358(2) 0.01106(11)
H1 H 0.8458 0.8549 0.0021
C5 C 1.0027(2) 0.7928(2) -0.03591(11)
C6 C 1.1376(2) 0.7618(2) -0.02635(10)
C7 C 1.2057(2) 0.7184(2) -0.07857(10)
C8 C 1.1739(2) 0.6071(2) -0.12225(10)
C9 C 1.2703(2) 0.6076(2) -0.15890(10)
C10 C 1.2862(4) 0.5133(4) -0.21292(14)
C11 C 1.3353(4) 0.7993(4) 0.24709(13)
H2 H 1.3614 0.7219 0.2758
H3 H 1.2818 0.8645 0.2661
H4 H 1.4132 0.8470 0.2386
C12 C 1.2565(3) 0.7441(4) 0.18609(12)
C13 C 1.5776(2) 0.8463(3) 0.07420(13)
H5 H 1.6192 0.9378 0.0771
H6 H 1.6069 0.7921 0.0412
H7 H 1.6015 0.7978 0.1142
C14 C 1.4301(2) 0.8636(3) 0.05879(10)
C15 C 1.2848(3) 0.4876(2) 0.04231(12)
H8 H 1.3260 0.3959 0.0480
H9 H 1.2395 0.4976 -0.0010
H10 H 1.2220 0.4971 0.0705
C16 C 1.3889(3) 0.5996(3) 0.05701(11)
C17 C 1.4752(3) 0.7629(3) -0.15860(12)
H11 H 1.5119 0.8425 -0.1334
H12 H 1.4543 0.7901 -0.2027
H13 H 1.5390 0.6872 -0.1537
F1 F 1.4116(3) 0.5012(3) -0.22196(12)
F2 F 1.2176(3) 0.5573(3) -0.26809(9)
F3 F 1.2455(3) 0.3832(2) -0.20491(9)
F4 F 0.93180(13) 0.78480(15) -0.09590(6)
F5? F 1.330(4) 0.590(4) -0.2498(18)
F6? F 1.159(4) 0.490(3) -0.2423(12)
F7? F 1.344(5) 0.414(3) -0.2004(13)
loop_
_geom_bond_atom_site_label_1
_geom_bond_atom_site_label_2
_geom_bond_site_symmetry_1
_geom_bond_site_symmetry_2
Cl1 C3 1_555 1_555
Cl2 C8 1_555 1_555
N1 N2 1_555 1_555
N2 C9 1_555 1_555
N3 C1 1_555 1_555
O1 C2 1_555 1_555
O2 C12 1_555 1_555
O3 C14 1_555 1_555
O4 C16 1_555 1_555
C1 C2 1_555 1_555
C2 C3 1_555 1_555
C3 C4 1_555 1_555
C4 H1 1_555 1_555
C5 C4 1_555 1_555
C6 C1 1_555 1_555
C7 N1 1_555 1_555
C8 C7 1_555 1_555
C9 C8 1_555 1_555
C10 C9 1_555 1_555
C11 H2 1_555 1_555
H3 C11 1_555 1_555
H4 C11 1_555 1_555
C12 O1 1_555 1_555
C13 H5 1_555 1_555
H6 C13 1_555 1_555
H7 C13 1_555 1_555
C14 N3 1_555 1_555
C15 H8 1_555 1_555
H9 C15 1_555 1_555
H10 C15 1_555 1_555
C16 N3 1_555 1_555
C17 N2 1_555 1_555
H11 C17 1_555 1_555
H12 C17 1_555 1_555
H13 C17 1_555 1_555
F1 C10 1_555 1_555
F2 C10 1_555 1_555
F3 C10 1_555 1_555
F4 C5 1_555 1_555
C5 C6 1_555 1_555
C6 C7 1_555 1_555
C11 C12 1_555 1_555
C13 C14 1_555 1_555
C15 C16 1_555 1_555

#END
