
#######################################################################
#
#                 Cambridge Crystallographic Data Centre
#                                CCDC 
#
#######################################################################
#
# If this CIF has been generated from an entry in the Cambridge 
# Structural Database, then it will include bibliographic, chemical, 
# crystal, experimental, refinement or atomic coordinate data resulting 
# from the CCDC's data processing and validation procedures.
#
#######################################################################

data_INOGIC
_chemical_formula_moiety         'C22 H26 N2 O2 S1'
_chemical_name_systematic        
N-(1,3-Benzothiazol-2-yl)-4-(n-octyloxy)benzamide
_symmetry_cell_setting           triclinic
_symmetry_space_group_name_H-M   'P -1'
_symmetry_Int_Tables_number      2
_space_group_name_Hall           '-P 1'
loop_
_symmetry_equiv_pos_site_id
_symmetry_equiv_pos_as_xyz
1 x,y,z
2 -x,-y,-z
_cell_length_a                   7.299(5)
_cell_length_b                   13.031(3)
_cell_length_c                   21.376(6)
_cell_angle_alpha                79.086(18)
_cell_angle_beta                 87.25(2)
_cell_angle_gamma                86.52(3)
_cell_volume                     1991.3
_exptl_crystal_colour            colorless
_exptl_crystal_description       block
_cell_formula_units_Z            4
loop_
_atom_site_label
_atom_site_type_symbol
_atom_site_fract_x
_atom_site_fract_y
_atom_site_fract_z
C1 C -0.0716(3) 0.15050(19) 0.34526(12)
C2 C -0.0578(3) 0.2551(2) 0.34866(13)
H1 H -0.0571 0.2771 0.3885
C3 C -0.0450(3) 0.3260(2) 0.29181(13)
H2 H -0.0359 0.3982 0.2927
C4 C -0.0453(3) 0.2940(2) 0.23335(13)
H3 H -0.0359 0.3444 0.1951
C5 C -0.0590(3) 0.1904(2) 0.23010(12)
H4 H -0.0595 0.1688 0.1901
C6 C -0.0723(3) 0.11777(19) 0.28695(12)
C7 C -0.1046(3) -0.03495(19) 0.35097(12)
C8 C -0.1402(3) -0.19611(19) 0.42869(12)
C9 C -0.1778(3) -0.30853(18) 0.43803(11)
C10 C -0.2091(3) -0.36149(19) 0.50030(12)
H5 H -0.2054 -0.3244 0.5344
C11 C -0.2453(3) -0.46599(19) 0.51381(12)
H6 H -0.2689 -0.5004 0.5565
C12 C -0.2468(3) -0.52059(19) 0.46345(12)
C13 C -0.2147(3) -0.46899(19) 0.40122(11)
H7 H -0.2168 -0.5064 0.3672
C14 C -0.1800(3) -0.36465(19) 0.38829(12)
H8 H -0.1574 -0.3304 0.3455
C15 C -0.3165(3) -0.68231(18) 0.53367(11)
H9 H -0.4265 -0.6511 0.5534
H10 H -0.2110 -0.6819 0.5610
C16 C -0.3490(3) -0.79240(18) 0.52658(11)
H11 H -0.2444 -0.8185 0.5017
H12 H -0.4610 -0.7914 0.5020
C17 C -0.3717(3) -0.86829(18) 0.58987(11)
H13 H -0.2602 -0.8696 0.6147
H14 H -0.4772 -0.8431 0.6148
C18 C -0.4028(3) -0.97840(18) 0.58063(11)
H15 H -0.3016 -1.0009 0.5529
H16 H -0.5186 -0.9772 0.5582
C19 C -0.4133(3) -1.05893(18) 0.64257(11)
H17 H -0.3029 -1.0560 0.6672
H18 H -0.5223 -1.0411 0.6686
C20 C -0.4257(3) -1.16959(18) 0.63023(11)
H19 H -0.3160 -1.1868 0.6044
H20 H -0.5348 -1.1714 0.6048
C21 C -0.4391(4) -1.25337(18) 0.69030(12)
H21 H -0.5544 -1.2403 0.7146
H22 H -0.3351 -1.2489 0.7176
C22 C -0.4359(4) -1.36353(19) 0.67470(13)
H23 H -0.5337 -1.3669 0.6454
H24 H -0.4553 -1.4147 0.7141
H25 H -0.3166 -1.3795 0.6546
N1 N -0.0896(3) 0.01068(15) 0.29137(9)
H26 H -0.163(3) -0.1718(16) 0.3268(10)
N2 N -0.1344(3) -0.14073(15) 0.36673(10)
O1 O -0.1156(2) -0.15223(13) 0.47331(8)
O2 O -0.2787(2) -0.62402(12) 0.47054(7)
S1 S -0.09053(9) 0.04356(5) 0.40816(3)
C23 C -0.5062(4) -0.2406(2) 0.17683(13)
C24 C -0.6641(4) -0.2855(2) 0.16291(15)
H27 H -0.6963 -0.2822 0.1200
C25 C -0.7723(4) -0.3347(2) 0.21268(16)
H28 H -0.8804 -0.3659 0.2041
C26 C -0.7253(4) -0.3393(2) 0.27551(15)
H29 H -0.8012 -0.3742 0.3093
C27 C -0.5712(4) -0.2943(2) 0.28937(14)
H30 H -0.5401 -0.2981 0.3324
C28 C -0.4604(4) -0.24297(19) 0.23963(12)
C29 C -0.2316(4) -0.15361(19) 0.19018(12)
C30 C 0.0133(4) -0.06607(19) 0.12551(12)
C31 C 0.1815(4) -0.00536(19) 0.12350(12)
C32 C 0.2510(4) 0.0374(2) 0.06316(12)
H31 H 0.1878 0.0289 0.0268
C33 C 0.4091(4) 0.0917(2) 0.05476(12)
H32 H 0.4545 0.1200 0.0131
C34 C 0.5013(4) 0.1049(2) 0.10759(12)
C35 C 0.4340(4) 0.0621(2) 0.16867(12)
H33 H 0.4973 0.0706 0.2050
C36 C 0.2759(4) 0.0075(2) 0.17635(12)
H34 H 0.2311 -0.0215 0.2180
C37 C 0.7252(4) 0.2056(2) 0.04163(12)
H35 H 0.6287 0.2556 0.0210
H36 H 0.7534 0.1520 0.0149
C38 C 0.8948(4) 0.2623(2) 0.04729(12)
H37 H 0.9941 0.2113 0.0647
H38 H 0.8690 0.3113 0.0772
C39 C 0.9574(4) 0.3231(2) -0.01749(12)
H39 H 0.9706 0.2748 -0.0482
H40 H 0.8611 0.3777 -0.0328
C40 C 1.1380(4) 0.3749(2) -0.01656(12)
H41 H 1.2352 0.3200 -0.0030
H42 H 1.1264 0.4208 0.0156
C41 C 1.1977(4) 0.4398(2) -0.08060(12)
H43 H 1.2032 0.3949 -0.1133
H44 H 1.1038 0.4972 -0.0931
C42 C 1.3825(4) 0.4864(2) -0.07989(13)
H45 H 1.3750 0.5331 -0.0483
H46 H 1.4748 0.4290 -0.0654
C43 C 1.4490(4) 0.5476(2) -0.14329(13)
H47 H 1.3582 0.6059 -0.1577
H48 H 1.4563 0.5013 -0.1752
C44 C 1.6349(4) 0.5917(3) -0.14058(15)
H49 H 1.6281 0.6388 -0.1097
H50 H 1.6707 0.6306 -0.1828
H51 H 1.7262 0.5343 -0.1275
N3 N -0.3008(3) -0.19224(16) 0.24651(10)
H52 H -0.060(3) -0.0655(18) 0.2178(11)
N4 N -0.0775(3) -0.09522(16) 0.18322(10)
O3 O -0.0410(3) -0.09044(15) 0.07752(8)
O4 O 0.6602(2) 0.15617(14) 0.10433(8)
S2 S -0.34440(11) -0.17583(6) 0.12427(3)
loop_
_geom_bond_atom_site_label_1
_geom_bond_atom_site_label_2
_geom_bond_site_symmetry_1
_geom_bond_site_symmetry_2
C1 C2 1_555 1_555
C2 H1 1_555 1_555
C3 C2 1_555 1_555
H2 C3 1_555 1_555
C4 C3 1_555 1_555
H3 C4 1_555 1_555
C5 C4 1_555 1_555
H4 C5 1_555 1_555
C6 C1 1_555 1_555
C7 N1 1_555 1_555
C8 C9 1_555 1_555
C9 C10 1_555 1_555
C10 H5 1_555 1_555
C11 C10 1_555 1_555
H6 C11 1_555 1_555
C12 C11 1_555 1_555
C13 C12 1_555 1_555
H7 C13 1_555 1_555
C14 C9 1_555 1_555
H8 C14 1_555 1_555
C15 H9 1_555 1_555
H10 C15 1_555 1_555
C16 C15 1_555 1_555
H11 C16 1_555 1_555
H12 C16 1_555 1_555
C17 C16 1_555 1_555
H13 C17 1_555 1_555
H14 C17 1_555 1_555
C18 C17 1_555 1_555
H15 C18 1_555 1_555
H16 C18 1_555 1_555
C19 C18 1_555 1_555
H17 C19 1_555 1_555
H18 C19 1_555 1_555
C20 C19 1_555 1_555
H19 C20 1_555 1_555
H20 C20 1_555 1_555
C21 C20 1_555 1_555
H21 C21 1_555 1_555
H22 C21 1_555 1_555
C22 C21 1_555 1_555
H23 C22 1_555 1_555
H24 C22 1_555 1_555
H25 C22 1_555 1_555
N1 C6 1_555 1_555
H26 N2 1_555 1_555
N2 C7 1_555 1_555
O1 C8 1_555 1_555
O2 C12 1_555 1_555
S1 C1 1_555 1_555
C23 C24 1_555 1_555
C24 H27 1_555 1_555
C25 C24 1_555 1_555
H28 C25 1_555 1_555
C26 C25 1_555 1_555
H29 C26 1_555 1_555
C27 C26 1_555 1_555
H30 C27 1_555 1_555
C28 C23 1_555 1_555
C29 N3 1_555 1_555
C30 C31 1_555 1_555
C31 C32 1_555 1_555
C32 H31 1_555 1_555
C33 C32 1_555 1_555
H32 C33 1_555 1_555
C34 C33 1_555 1_555
C35 C34 1_555 1_555
H33 C35 1_555 1_555
C36 C31 1_555 1_555
H34 C36 1_555 1_555
C37 H35 1_555 1_555
H36 C37 1_555 1_555
C38 C37 1_555 1_555
H37 C38 1_555 1_555
H38 C38 1_555 1_555
C39 C38 1_555 1_555
H39 C39 1_555 1_555
H40 C39 1_555 1_555
C40 C39 1_555 1_555
H41 C40 1_555 1_555
H42 C40 1_555 1_555
C41 C40 1_555 1_555
H43 C41 1_555 1_555
H44 C41 1_555 1_555
C42 C41 1_555 1_555
H45 C42 1_555 1_555
H46 C42 1_555 1_555
C43 C42 1_555 1_555
H47 C43 1_555 1_555
H48 C43 1_555 1_555
C44 C43 1_555 1_555
H49 C44 1_555 1_555
H50 C44 1_555 1_555
H51 C44 1_555 1_555
N3 C28 1_555 1_555
H52 N4 1_555 1_555
N4 C29 1_555 1_555
O3 C30 1_555 1_555
O4 C34 1_555 1_555
S2 C23 1_555 1_555
C5 C6 1_555 1_555
C7 S1 1_555 1_555
C8 N2 1_555 1_555
C13 C14 1_555 1_555
C15 O2 1_555 1_555
C27 C28 1_555 1_555
C29 S2 1_555 1_555
C30 N4 1_555 1_555
C35 C36 1_555 1_555
C37 O4 1_555 1_555

#END
