
#######################################################################
#
#                 Cambridge Crystallographic Data Centre
#                                CCDC 
#
#######################################################################
#
# If this CIF has been generated from an entry in the Cambridge 
# Structural Database, then it will include bibliographic, chemical, 
# crystal, experimental, refinement or atomic coordinate data resulting 
# from the CCDC's data processing and validation procedures.
#
#######################################################################

data_INOLAZ
_chemical_name_common            
'1$2!,1$5!,3$2!,3$5!,5$2!,5$5!,7$2!,7$5!,9$2!,9$5!-Deca-isobutoxy-1,3,5,7,9(1,4)-pentabenzenacyclodecaphane acetonitrile dichloromethane solvate'
_chemical_formula_moiety         'C75 H110 O10,C2 H3 N1,C1 H2 Cl2'
_chemical_name_systematic        
'4,9,14,19,24,26,28,30,32,34-Deca-isobutoxypillar[5]arene acetonitrile dichloromethane solvate'
_symmetry_cell_setting           orthorhombic
_symmetry_space_group_name_H-M   'F d d 2'
_symmetry_Int_Tables_number      43
_space_group_name_Hall           'F 2 -2d'
loop_
_symmetry_equiv_pos_site_id
_symmetry_equiv_pos_as_xyz
1 x,y,z
2 -x,-y,z
3 1/4-x,1/4+y,1/4+z
4 1/4+x,1/4-y,1/4+z
5 x,1/2+y,1/2+z
6 -x,1/2-y,1/2+z
7 1/4-x,3/4+y,3/4+z
8 1/4+x,3/4-y,3/4+z
9 1/2+x,y,1/2+z
10 1/2-x,-y,1/2+z
11 3/4-x,1/4+y,3/4+z
12 3/4+x,1/4-y,3/4+z
13 1/2+x,1/2+y,z
14 1/2-x,1/2-y,z
15 3/4-x,3/4+y,1/4+z
16 3/4+x,3/4-y,1/4+z
_cell_length_a                   55.9475(11)
_cell_length_b                   44.3294(18)
_cell_length_c                   12.4822(2)
_cell_angle_alpha                90
_cell_angle_beta                 90
_cell_angle_gamma                90
_cell_volume                     30957.3
_exptl_crystal_colour            colorless
_exptl_crystal_description       block
_chemical_melting_point          '139 deg.C'
_cell_formula_units_Z            16
_exptl_crystal_recrystallization_method acetonitrile/dichloromethane
loop_
_atom_site_label
_atom_site_type_symbol
_atom_site_fract_x
_atom_site_fract_y
_atom_site_fract_z
O1 O 0.00490(5) 0.18015(7) 0.0286(3)
O2 O -0.02525(6) 0.14993(8) 0.6360(3)
O3 O -0.01544(6) 0.24261(7) 0.4093(3)
O4 O 0.05549(7) 0.08104(8) 0.7179(3)
O5 O 0.07741(5) 0.23305(7) 0.2662(3)
O6 O 0.05974(5) 0.18821(8) 0.6239(3)
C1 C 0.00280(8) 0.22862(10) 0.4654(4)
C2 C -0.00042(8) 0.21231(10) 0.5593(4)
H1 H -0.0157 0.2106 0.5877
C3 C -0.00543(8) 0.13235(10) 0.6567(4)
O7 O 0.07958(7) 0.04929(10) 0.3500(3)
C4 C 0.02224(8) 0.19328(10) 0.0910(4)
C5 C -0.00526(9) 0.10149(11) 0.6387(4)
H2 H -0.0190 0.0920 0.6130
C6 C 0.06419(8) 0.19792(10) 0.1289(4)
H3 H 0.0799 0.1923 0.1150
O8 O 0.09123(6) 0.13444(8) 0.0851(3)
C7 C -0.01903(8) 0.19028(10) 0.0425(4)
H4 H -0.0193 0.2122 0.0435
H5 H -0.0251 0.1831 0.1108
C8 C 0.01477(9) 0.14663(11) 0.6960(4)
C9 C -0.03502(8) 0.17882(11) -0.0473(4)
H6 H -0.0299 0.1886 -0.1138
C10 C 0.03594(8) 0.22713(10) 0.2307(4)
C11 C 0.01847(8) 0.19845(9) 0.6121(3)
O9 O -0.01631(7) 0.04647(12) 0.4600(4)
C12 C 0.05981(8) 0.21906(10) 0.2077(4)
C13 C -0.05662(9) 0.25152(11) 0.3687(5)
H7 H -0.0534 0.2732 0.3669
C14 C 0.05105(9) 0.12970(11) 0.0349(4)
C15 C 0.03027(8) 0.24912(10) 0.3194(4)
H8 H 0.0162 0.2608 0.3004
H9 H 0.0435 0.2630 0.3284
C16 C 0.04487(8) 0.21911(10) 0.4766(4)
H10 H 0.0602 0.2214 0.4493
C17 C -0.03927(8) 0.23734(10) 0.4459(4)
H11 H -0.0414 0.2460 0.5166
H12 H -0.0422 0.2158 0.4506
C18 C 0.03527(9) 0.09875(11) 0.7006(4)
C19 C 0.10096(8) 0.22171(12) 0.2571(4)
H13 H 0.1066 0.2241 0.1840
H14 H 0.1011 0.2004 0.2743
O10 O 0.00798(8) 0.06702(11) 0.0717(4)
C20 C 0.04802(10) 0.04995(11) 0.4849(5)
H15 H 0.0592 0.0524 0.5392
C21 C 0.02580(8) 0.23250(9) 0.4239(4)
C22 C 0.07096(9) 0.11730(11) 0.0851(4)
C23 C 0.01543(9) 0.08430(11) 0.6587(4)
C24 C 0.02374(9) 0.04842(10) 0.5116(5)
C25 C 0.03467(8) 0.12955(11) 0.7187(4)
H16 H 0.0481 0.1390 0.7470
C26 C 0.04859(10) 0.07173(12) 0.1275(4)
C27 C 0.04580(8) 0.18475(10) 0.0694(4)
C28 C 0.05570(9) 0.04790(11) 0.3807(5)
C29 C 0.01787(8) 0.21417(10) 0.1703(4)
H17 H 0.0022 0.2198 0.1838
C30 C 0.05132(8) 0.16096(11) -0.0133(4)
H18 H 0.0669 0.1649 -0.0441
H19 H 0.0396 0.1620 -0.0705
C31 C 0.04151(8) 0.20244(10) 0.5688(4)
C32 C 0.01462(9) 0.18073(10) 0.7140(4)
H20 H -0.0006 0.1865 0.7452
H21 H 0.0271 0.1859 0.7648
C33 C 0.02887(9) 0.08421(12) 0.0760(4)
C34 C -0.06016(8) 0.18911(13) -0.0232(5)
H22 H -0.0705 0.1838 -0.0817
H23 H -0.0603 0.2106 -0.0136
H24 H -0.0657 0.1795 0.0411
C35 C 0.03029(9) 0.11248(12) 0.0299(4)
H25 H 0.0170 0.1202 -0.0053
C36 C 0.01457(9) 0.04329(11) 0.3253(5)
H26 H 0.0032 0.0410 0.2717
C37 C -0.06390(9) 0.15957(12) 0.5626(5)
H27 H -0.0562 0.1726 0.5094
C38 C 0.04725(11) 0.04156(12) 0.1819(5)
H28 H 0.0629 0.0321 0.1799
H29 H 0.0362 0.0287 0.1429
C39 C -0.04605(9) 0.13599(12) 0.5954(5)
H30 H -0.0530 0.1231 0.6499
H31 H -0.0420 0.1236 0.5341
C40 C 0.08650(11) 0.06182(17) 0.8305(6)
H32 H 0.0972 0.0682 0.8885
C41 C 0.08323(8) 0.18880(12) 0.5768(5)
H33 H 0.0899 0.2089 0.5817
H34 H 0.0823 0.1832 0.5017
C42 C 0.06942(9) 0.08862(12) 0.1314(4)
H35 H 0.0828 0.0807 0.1658
C43 C -0.08180(9) 0.24710(14) 0.4131(5)
H36 H -0.0933 0.2546 0.3624
H37 H -0.0834 0.2579 0.4794
H38 H -0.0846 0.2260 0.4254
C44 C 0.12112(10) 0.05798(15) 0.3868(5)
H39 H 0.1204 0.0710 0.3234
C45 C 0.11728(9) 0.23849(12) 0.3326(4)
H40 H 0.1111 0.2363 0.4057
C46 C 0.01583(10) 0.05132(11) 0.6267(5)
H41 H 0.0267 0.0403 0.6728
H42 H 0.0000 0.0427 0.6352
C47 C -0.05446(10) 0.23978(14) 0.2570(4)
H43 H -0.0389 0.2446 0.2292
H44 H -0.0665 0.2489 0.2128
H45 H -0.0565 0.2183 0.2572
C48 C 0.00734(10) 0.04585(12) 0.4301(5)
C49 C 0.03904(10) 0.04403(11) 0.2976(5)
C50 C -0.03402(11) 0.03680(15) 0.3921(7)
H46 H -0.0313 0.0296 0.3231
C51 C 0.09875(9) 0.16673(13) 0.6366(5)
H47 H 0.0908 0.1471 0.6348
C52 C 0.12991(11) 0.02812(17) 0.3535(7)
H48 H 0.1314 0.0153 0.4152
H49 H 0.1453 0.0303 0.3199
H50 H 0.1189 0.0193 0.3037
C53 C 0.11230(10) 0.12275(13) 0.1341(7)
H51 H 0.1186 0.1062 0.0918
H52 H 0.1086 0.1152 0.2052
C54 C 0.07114(11) 0.08973(16) 0.7978(7)
H53 H 0.0723 0.1090 0.8271
C55 C 0.13784(11) 0.07258(18) 0.4682(7)
H54 H 0.1320 0.0923 0.4864
H55 H 0.1535 0.0743 0.4379
H56 H 0.1385 0.0603 0.5315
C56 C 0.13080(9) 0.14787(14) 0.1418(6)
H57 H 0.1238 0.1646 0.1822
C57 C 0.09628(10) 0.05660(15) 0.4355(5)
H58 H 0.0957 0.0413 0.4909
H59 H 0.0922 0.0759 0.4673
C58 C -0.03325(9) 0.14507(12) -0.0638(5)
H60 H -0.0168 0.1396 -0.0748
H61 H -0.0425 0.1394 -0.1253
H62 H -0.0393 0.1349 -0.0016
C59 C 0.14204(10) 0.22499(16) 0.3279(6)
H63 H 0.1414 0.2042 0.3494
H64 H 0.1525 0.2359 0.3753
H65 H 0.1480 0.2263 0.2560
C60 C 0.11809(10) 0.27226(13) 0.3043(6)
H66 H 0.1248 0.2748 0.2340
H67 H 0.1278 0.2827 0.3556
H68 H 0.1022 0.2804 0.3056
C61 C -0.00395(13) 0.06567(19) -0.0269(6)
H69 H 0.0014 0.0767 -0.0854
C62 C -0.08507(12) 0.14415(18) 0.5080(7)
H70 H -0.0794 0.1317 0.4506
H71 H -0.0957 0.1592 0.4799
H72 H -0.0934 0.1319 0.5592
C63 C -0.07110(12) 0.17929(17) 0.6572(6)
H73 H -0.0798 0.1674 0.7083
H74 H -0.0810 0.1955 0.6324
H75 H -0.0570 0.1874 0.6904
C64 C 0.10219(13) 0.17519(19) 0.7517(6)
H76 H 0.1100 0.1944 0.7559
H77 H 0.1118 0.1602 0.7865
H78 H 0.0869 0.1764 0.7865
C65 C 0.12232(10) 0.16363(17) 0.5778(6)
H79 H 0.1195 0.1552 0.5081
H80 H 0.1328 0.1506 0.6176
H81 H 0.1296 0.1831 0.5705
C66 C 0.15241(16) 0.1371(2) 0.2004(9)
H82 H 0.1478 0.1299 0.2699
H83 H 0.1635 0.1535 0.2082
H84 H 0.1598 0.1211 0.1608
C67 C -0.02388(19) 0.0475(3) -0.0347(11)
C68 C 0.13768(17) 0.1594(3) 0.0307(9)
H85 H 0.1486 0.1454 -0.0021
H86 H 0.1452 0.1787 0.0371
H87 H 0.1236 0.1611 -0.0127
C69 C -0.03780(17) 0.0497(2) -0.1384(10)
H88 H -0.0350 0.0319 -0.1807
H89 H -0.0327 0.0671 -0.1776
H90 H -0.0546 0.0513 -0.1228
C70 C 0.1018(2) 0.0511(3) 0.7397(12)
H91 H 0.0920 0.0411 0.6874
H92 H 0.1136 0.0372 0.7664
H93 H 0.1097 0.0680 0.7072
C71 C -0.07757(17) 0.0296(2) 0.3632(10)
H94 H -0.0749 0.0398 0.2964
H95 H -0.0931 0.0348 0.3899
H96 H -0.0766 0.0082 0.3524
C72 C -0.0345(2) 0.0324(3) 0.0450(12)
H97 H -0.0225 0.0247 0.0930
H98 H -0.0435 0.0159 0.0161
H99 H -0.0449 0.0458 0.0833
C73 C 0.07258(17) 0.0374(2) 0.8697(10)
H100 H 0.0631 0.0292 0.8124
H101 H 0.0622 0.0444 0.9258
H102 H 0.0830 0.0220 0.8973
C74 C -0.05875(18) 0.0393(2) 0.4436(10)
C75 C -0.0598(2) 0.0328(3) 0.5612(13)
H103 H -0.0502 0.0154 0.5771
H104 H -0.0761 0.0288 0.5816
H105 H -0.0540 0.0499 0.6004
Cl1 Cl -0.01888(6) 0.15339(8) 0.3352(4)
Cl2 Cl -0.05146(8) 0.11272(11) 0.2272(5)
C76 C -0.0196(2) 0.1208(3) 0.2663(15)
H106 H -0.0134 0.1045 0.3103
H107 H -0.0097 0.1224 0.2027
C77 C 0.0413(2) 0.1343(3) 0.3692(16)
H108 H 0.0358 0.1351 0.2964
H109 H 0.0355 0.1517 0.4072
H110 H 0.0354 0.1164 0.4029
N1 N 0.0869(2) 0.1341(3) 0.3714(10)
C78 C 0.0663(3) 0.1341(3) 0.3708(10)
loop_
_geom_bond_atom_site_label_1
_geom_bond_atom_site_label_2
_geom_bond_site_symmetry_1
_geom_bond_site_symmetry_2
O1 C4 1_555 1_555
O2 C3 1_555 1_555
O3 C1 1_555 1_555
O4 C18 1_555 1_555
O5 C12 1_555 1_555
O6 C31 1_555 1_555
C1 C2 1_555 1_555
C2 H1 1_555 1_555
C3 C5 1_555 1_555
O7 C28 1_555 1_555
C4 C27 1_555 1_555
C5 H2 1_555 1_555
C6 H3 1_555 1_555
O8 C22 1_555 1_555
C7 O1 1_555 1_555
H4 C7 1_555 1_555
H5 C7 1_555 1_555
C8 C3 1_555 1_555
C9 C7 1_555 1_555
H6 C9 1_555 1_555
C10 C12 1_555 1_555
C11 C2 1_555 1_555
O9 C48 1_555 1_555
C12 C6 1_555 1_555
C13 H7 1_555 1_555
C14 C22 1_555 1_555
C15 C10 1_555 1_555
H8 C15 1_555 1_555
H9 C15 1_555 1_555
C16 H10 1_555 1_555
C17 O3 1_555 1_555
H11 C17 1_555 1_555
H12 C17 1_555 1_555
C18 C23 1_555 1_555
C19 O5 1_555 1_555
H13 C19 1_555 1_555
H14 C19 1_555 1_555
O10 C33 1_555 1_555
C20 H15 1_555 1_555
C21 C1 1_555 1_555
C22 C42 1_555 1_555
C23 C5 1_555 1_555
C24 C20 1_555 1_555
C25 C8 1_555 1_555
H16 C25 1_555 1_555
C26 C33 1_555 1_555
C27 C6 1_555 1_555
C28 C20 1_555 1_555
C29 C4 1_555 1_555
H17 C29 1_555 1_555
C30 C14 1_555 1_555
H18 C30 1_555 1_555
H19 C30 1_555 1_555
C31 C11 1_555 1_555
C32 C8 1_555 1_555
H20 C32 1_555 1_555
H21 C32 1_555 1_555
C33 C35 1_555 1_555
C34 C9 1_555 1_555
H22 C34 1_555 1_555
H23 C34 1_555 1_555
H24 C34 1_555 1_555
C35 C14 1_555 1_555
H25 C35 1_555 1_555
C36 H26 1_555 1_555
C37 H27 1_555 1_555
C38 C26 1_555 1_555
H28 C38 1_555 1_555
H29 C38 1_555 1_555
C39 O2 1_555 1_555
H30 C39 1_555 1_555
H31 C39 1_555 1_555
C40 H32 1_555 1_555
C41 O6 1_555 1_555
H33 C41 1_555 1_555
H34 C41 1_555 1_555
C42 C26 1_555 1_555
H35 C42 1_555 1_555
C43 C13 1_555 1_555
H36 C43 1_555 1_555
H37 C43 1_555 1_555
H38 C43 1_555 1_555
C44 H39 1_555 1_555
C45 C19 1_555 1_555
H40 C45 1_555 1_555
C46 C23 1_555 1_555
H41 C46 1_555 1_555
H42 C46 1_555 1_555
C47 C13 1_555 1_555
H43 C47 1_555 1_555
H44 C47 1_555 1_555
H45 C47 1_555 1_555
C48 C24 1_555 1_555
C49 C28 1_555 1_555
C50 O9 1_555 1_555
H46 C50 1_555 1_555
C51 C41 1_555 1_555
H47 C51 1_555 1_555
C52 C44 1_555 1_555
H48 C52 1_555 1_555
H49 C52 1_555 1_555
H50 C52 1_555 1_555
C53 O8 1_555 1_555
H51 C53 1_555 1_555
H52 C53 1_555 1_555
C54 O4 1_555 1_555
H53 C54 1_555 1_555
C55 C44 1_555 1_555
H54 C55 1_555 1_555
H55 C55 1_555 1_555
H56 C55 1_555 1_555
C56 C53 1_555 1_555
H57 C56 1_555 1_555
C57 O7 1_555 1_555
H58 C57 1_555 1_555
H59 C57 1_555 1_555
C58 C9 1_555 1_555
H60 C58 1_555 1_555
H61 C58 1_555 1_555
H62 C58 1_555 1_555
C59 C45 1_555 1_555
H63 C59 1_555 1_555
H64 C59 1_555 1_555
H65 C59 1_555 1_555
C60 C45 1_555 1_555
H66 C60 1_555 1_555
H67 C60 1_555 1_555
H68 C60 1_555 1_555
C61 O10 1_555 1_555
H69 C61 1_555 1_555
C62 C37 1_555 1_555
H70 C62 1_555 1_555
H71 C62 1_555 1_555
H72 C62 1_555 1_555
C63 C37 1_555 1_555
H73 C63 1_555 1_555
H74 C63 1_555 1_555
H75 C63 1_555 1_555
C64 C51 1_555 1_555
H76 C64 1_555 1_555
H77 C64 1_555 1_555
H78 C64 1_555 1_555
C65 C51 1_555 1_555
H79 C65 1_555 1_555
H80 C65 1_555 1_555
H81 C65 1_555 1_555
C66 C56 1_555 1_555
H82 C66 1_555 1_555
H83 C66 1_555 1_555
H84 C66 1_555 1_555
C67 C61 1_555 1_555
C68 C56 1_555 1_555
H85 C68 1_555 1_555
H86 C68 1_555 1_555
H87 C68 1_555 1_555
C69 C67 1_555 1_555
H88 C69 1_555 1_555
H89 C69 1_555 1_555
H90 C69 1_555 1_555
C70 C40 1_555 1_555
H91 C70 1_555 1_555
H92 C70 1_555 1_555
H93 C70 1_555 1_555
C71 H94 1_555 1_555
H95 C71 1_555 1_555
H96 C71 1_555 1_555
C72 C67 1_555 1_555
H97 C72 1_555 1_555
H98 C72 1_555 1_555
H99 C72 1_555 1_555
C73 C40 1_555 1_555
H100 C73 1_555 1_555
H101 C73 1_555 1_555
H102 C73 1_555 1_555
C74 C50 1_555 1_555
C75 C74 1_555 1_555
H103 C75 1_555 1_555
H104 C75 1_555 1_555
H105 C75 1_555 1_555
Cl1 C76 1_555 1_555
Cl2 C76 1_555 1_555
C76 H106 1_555 1_555
H107 C76 1_555 1_555
C77 H108 1_555 1_555
H109 C77 1_555 1_555
H110 C77 1_555 1_555
N1 C78 1_555 1_555
C78 C77 1_555 1_555
C10 C29 1_555 1_555
C11 C32 1_555 1_555
C13 C17 1_555 1_555
C15 C21 1_555 1_555
C16 C21 1_555 1_555
C16 C31 1_555 1_555
C18 C25 1_555 1_555
C24 C46 1_555 1_555
C27 C30 1_555 1_555
C36 C48 1_555 1_555
C36 C49 1_555 1_555
C37 C39 1_555 1_555
C38 C49 1_555 1_555
C40 C54 1_555 1_555
C44 C57 1_555 1_555
C71 C74 1_555 1_555

#END
