
#######################################################################
#
#                 Cambridge Crystallographic Data Centre
#                                CCDC 
#
#######################################################################
#
# If this CIF has been generated from an entry in the Cambridge 
# Structural Database, then it will include bibliographic, chemical, 
# crystal, experimental, refinement or atomic coordinate data resulting 
# from the CCDC's data processing and validation procedures.
#
#######################################################################

data_INOMEE
_chemical_name_common            
1,4-bis(2,2-bis(4-n-Hexyloxyphenyl)vinyl)benzene
_chemical_formula_moiety         'C58 H74 O4'
_chemical_name_systematic        
1,1',1'',1'''-(1,4-Phenylenediethene-2,1,1-triyl)tetrakis(4-(hexyloxy)benzene)
_symmetry_cell_setting           triclinic
_symmetry_space_group_name_H-M   'P -1'
_symmetry_Int_Tables_number      2
_space_group_name_Hall           '-P 1'
loop_
_symmetry_equiv_pos_site_id
_symmetry_equiv_pos_as_xyz
1 x,y,z
2 -x,-y,-z
_cell_length_a                   5.8496(3)
_cell_length_b                   14.2422(7)
_cell_length_c                   15.3416(8)
_cell_angle_alpha                92.896(3)
_cell_angle_beta                 98.283(3)
_cell_angle_gamma                98.842(3)
_cell_volume                     1246.31
_exptl_crystal_colour            green
_exptl_crystal_description       stick
_chemical_melting_point          '108-109 deg.C'
_cell_formula_units_Z            1
_exptl_crystal_recrystallization_method acetone/petroleum
loop_
_atom_site_label
_atom_site_type_symbol
_atom_site_fract_x
_atom_site_fract_y
_atom_site_fract_z
C1 C -1.2990(6) 0.7692(3) -0.2992(2)
H1 H -1.3449 0.8296 -0.2861
H2 H -1.4362 0.7222 -0.3174
H3 H -1.2059 0.7746 -0.3460
C2 C -1.1573(6) 0.7398(3) -0.2177(2)
H4 H -1.2524 0.7353 -0.1707
H5 H -1.1202 0.6770 -0.2305
C3 C -0.9358(6) 0.8065(2) -0.1860(2)
H6 H -0.9724 0.8699 -0.1760
H7 H -0.8377 0.8085 -0.2319
C4 C -0.7983(6) 0.7798(3) -0.1013(2)
H8 H -0.8975 0.7759 -0.0557
H9 H -0.7568 0.7173 -0.1117
C5 C -0.5787(5) 0.8498(2) -0.0689(2)
H10 H -0.4828 0.8560 -0.1155
H11 H -0.6207 0.9117 -0.0558
C6 C -0.4377(5) 0.8210(2) 0.0122(2)
H12 H -0.5265 0.8193 0.0610
H13 H -0.3991 0.7581 0.0010
C7 C -0.0733(5) 0.8788(2) 0.10643(19)
C8 C 0.1206(6) 0.9472(2) 0.1228(2)
H14 H 0.1421 0.9950 0.0842
C9 C 0.2844(5) 0.9458(2) 0.1960(2)
H15 H 0.4127 0.9945 0.2067
C10 C 0.2681(5) 0.87557(19) 0.25450(17)
C11 C 0.0755(5) 0.8069(2) 0.2338(2)
H16 H 0.0575 0.7568 0.2702
C12 C -0.0961(6) 0.8078(2) 0.1609(2)
H17 H -0.2257 0.7597 0.1499
C13 C 0.4427(4) 0.87711(19) 0.33572(17)
C14 C 0.3967(4) 0.79994(19) 0.39606(17)
C15 C 0.5304(5) 0.72736(19) 0.40263(18)
H18 H 0.6520 0.7279 0.3697
C16 C 0.4871(5) 0.6546(2) 0.45681(18)
H19 H 0.5800 0.6071 0.4603
C17 C 0.3072(5) 0.65185(19) 0.50587(17)
C18 C 0.1711(5) 0.7228(2) 0.50012(18)
H20 H 0.0493 0.7223 0.5330
C19 C 0.2180(5) 0.7945(2) 0.44485(19)
H21 H 0.1234 0.8414 0.4407
C20 C 0.1037(5) 0.5736(2) 0.6140(2)
H22 H -0.0505 0.5596 0.5786
H23 H 0.1173 0.6345 0.6473
C21 C 0.1381(6) 0.4963(2) 0.6760(2)
H24 H 0.1363 0.4371 0.6416
H25 H 0.0085 0.4871 0.7093
C22 C 0.3657(6) 0.5192(3) 0.7399(2)
H26 H 0.4939 0.5269 0.7058
H27 H 0.3685 0.5799 0.7719
C23 C 0.4101(8) 0.4481(3) 0.8054(3)
H28 H 0.4088 0.3869 0.7744
H29 H 0.2856 0.4409 0.8411
C24 C 0.6523(10) 0.4790(4) 0.8673(3)
H30 H 0.7732 0.4937 0.8306
H31 H 0.6460 0.5369 0.9023
C25 C 0.7135(11) 0.4133(5) 0.9220(5)
H32 H 0.6012 0.4016 0.9616
H33 H 0.8656 0.4361 0.9553
H34 H 0.7177 0.3552 0.8881
C26 C 0.6303(5) 0.9461(2) 0.35208(18)
H35 H 0.6468 0.9859 0.3064
C27 C 0.8144(4) 0.96998(18) 0.42920(17)
C28 C 1.0214(5) 1.02665(18) 0.41730(18)
H36 H 1.0378 1.0459 0.3612
C29 C 0.7968(4) 0.94455(19) 0.51448(18)
H37 H 0.6602 0.9075 0.5257
O1 O -0.2299(4) 0.88925(16) 0.03310(13)
O2 O 0.2805(3) 0.57711(13) 0.55848(12)
C1A C 3.2990(6) 1.2308(3) 1.2992(2)
H1A H 3.3449 1.1704 1.2861
H2A H 3.4362 1.2778 1.3174
H3A H 3.2059 1.2254 1.3460
C2A C 3.1573(6) 1.2602(3) 1.2177(2)
H4A H 3.2524 1.2647 1.1707
H5A H 3.1202 1.3230 1.2305
C3A C 2.9358(6) 1.1935(2) 1.1860(2)
H6A H 2.9724 1.1301 1.1760
H7A H 2.8377 1.1915 1.2319
C4A C 2.7983(6) 1.2202(3) 1.1013(2)
H8A H 2.8975 1.2241 1.0557
H9A H 2.7568 1.2827 1.1117
C5A C 2.5787(5) 1.1502(2) 1.0689(2)
H10A H 2.4828 1.1440 1.1155
H11A H 2.6207 1.0883 1.0558
C6A C 2.4377(5) 1.1790(2) 0.9878(2)
H12A H 2.5265 1.1807 0.9390
H13A H 2.3991 1.2419 0.9990
C7A C 2.0733(5) 1.1212(2) 0.89357(19)
C8A C 1.8794(6) 1.0528(2) 0.8772(2)
H14A H 1.8579 1.0050 0.9158
C9A C 1.7156(5) 1.0542(2) 0.8040(2)
H15A H 1.5873 1.0055 0.7933
C10A C 1.7319(5) 1.12443(19) 0.74550(17)
C11A C 1.9245(5) 1.1931(2) 0.7662(2)
H16A H 1.9425 1.2432 0.7298
C12A C 2.0961(6) 1.1922(2) 0.8391(2)
H17A H 2.2257 1.2403 0.8501
C13A C 1.5573(4) 1.12289(19) 0.66428(17)
C14A C 1.6033(4) 1.20006(19) 0.60394(17)
C15A C 1.4696(5) 1.27264(19) 0.59737(18)
H18A H 1.3480 1.2721 0.6303
C16A C 1.5129(5) 1.3454(2) 0.54319(18)
H19A H 1.4200 1.3929 0.5397
C17A C 1.6928(5) 1.34815(19) 0.49413(17)
C18A C 1.8289(5) 1.2772(2) 0.49988(18)
H20A H 1.9507 1.2777 0.4670
C19A C 1.7820(5) 1.2055(2) 0.55515(19)
H21A H 1.8766 1.1586 0.5593
C20A C 1.8963(5) 1.4264(2) 0.3860(2)
H22A H 2.0505 1.4404 0.4214
H23A H 1.8827 1.3655 0.3527
C21A C 1.8619(6) 1.5037(2) 0.3240(2)
H24A H 1.8637 1.5629 0.3584
H25A H 1.9915 1.5129 0.2907
C22A C 1.6343(6) 1.4808(3) 0.2601(2)
H26A H 1.5061 1.4731 0.2942
H27A H 1.6315 1.4201 0.2281
C23A C 1.5899(8) 1.5519(3) 0.1946(3)
H28A H 1.5912 1.6131 0.2256
H29A H 1.7144 1.5591 0.1589
C24A C 1.3477(10) 1.5210(4) 0.1327(3)
H30A H 1.2268 1.5063 0.1694
H31A H 1.3540 1.4631 0.0977
C25A C 1.2865(11) 1.5867(5) 0.0780(5)
H32A H 1.3988 1.5984 0.0384
H33A H 1.1344 1.5639 0.0447
H34A H 1.2823 1.6448 0.1119
C26A C 1.3697(5) 1.0539(2) 0.64792(18)
H35A H 1.3532 1.0141 0.6936
C27A C 1.1856(4) 1.03002(18) 0.57080(17)
C28A C 0.9786(5) 0.97335(18) 0.58270(18)
H36A H 0.9622 0.9541 0.6388
C29A C 1.2032(4) 1.05545(19) 0.48552(18)
H37A H 1.3398 1.0925 0.4743
O1A O 2.2299(4) 1.11075(16) 0.96690(13)
O2A O 1.7195(3) 1.42289(13) 0.44152(12)
loop_
_geom_bond_atom_site_label_1
_geom_bond_atom_site_label_2
_geom_bond_site_symmetry_1
_geom_bond_site_symmetry_2
C1 H1 1_555 1_555
H2 C1 1_555 1_555
H3 C1 1_555 1_555
C2 C1 1_555 1_555
H4 C2 1_555 1_555
H5 C2 1_555 1_555
C3 C2 1_555 1_555
H6 C3 1_555 1_555
H7 C3 1_555 1_555
C4 C3 1_555 1_555
H8 C4 1_555 1_555
H9 C4 1_555 1_555
C5 C4 1_555 1_555
H10 C5 1_555 1_555
H11 C5 1_555 1_555
C6 C5 1_555 1_555
H12 C6 1_555 1_555
H13 C6 1_555 1_555
C7 C8 1_555 1_555
C8 H14 1_555 1_555
C9 C8 1_555 1_555
H15 C9 1_555 1_555
C10 C9 1_555 1_555
C11 C10 1_555 1_555
H16 C11 1_555 1_555
C12 C7 1_555 1_555
H17 C12 1_555 1_555
C13 C10 1_555 1_555
C14 C13 1_555 1_555
C15 C14 1_555 1_555
H18 C15 1_555 1_555
C16 C15 1_555 1_555
H19 C16 1_555 1_555
C17 C16 1_555 1_555
C18 C17 1_555 1_555
H20 C18 1_555 1_555
C19 C14 1_555 1_555
H21 C19 1_555 1_555
C20 H22 1_555 1_555
H23 C20 1_555 1_555
C21 C20 1_555 1_555
H24 C21 1_555 1_555
H25 C21 1_555 1_555
C22 C21 1_555 1_555
H26 C22 1_555 1_555
H27 C22 1_555 1_555
C23 C22 1_555 1_555
H28 C23 1_555 1_555
H29 C23 1_555 1_555
C24 C23 1_555 1_555
H30 C24 1_555 1_555
H31 C24 1_555 1_555
C25 C24 1_555 1_555
H32 C25 1_555 1_555
H33 C25 1_555 1_555
H34 C25 1_555 1_555
C26 C13 1_555 1_555
H35 C26 1_555 1_555
C27 C26 1_555 1_555
C28 C27 1_555 1_555
H36 C28 1_555 1_555
C29 C27 1_555 1_555
H37 C29 1_555 1_555
O1 C6 1_555 1_555
O2 C17 1_555 1_555
C1A H1A 1_555 1_555
H2A C1A 1_555 1_555
H3A C1A 1_555 1_555
C2A C1A 1_555 1_555
H4A C2A 1_555 1_555
H5A C2A 1_555 1_555
C3A C2A 1_555 1_555
H6A C3A 1_555 1_555
H7A C3A 1_555 1_555
C4A C3A 1_555 1_555
H8A C4A 1_555 1_555
H9A C4A 1_555 1_555
C5A C4A 1_555 1_555
H10A C5A 1_555 1_555
H11A C5A 1_555 1_555
C6A C5A 1_555 1_555
H12A C6A 1_555 1_555
H13A C6A 1_555 1_555
C7A C8A 1_555 1_555
C8A H14A 1_555 1_555
C9A C8A 1_555 1_555
H15A C9A 1_555 1_555
C10A C9A 1_555 1_555
C11A C10A 1_555 1_555
H16A C11A 1_555 1_555
C12A C7A 1_555 1_555
H17A C12A 1_555 1_555
C13A C10A 1_555 1_555
C14A C13A 1_555 1_555
C15A C14A 1_555 1_555
H18A C15A 1_555 1_555
C16A C15A 1_555 1_555
H19A C16A 1_555 1_555
C17A C16A 1_555 1_555
C18A C17A 1_555 1_555
H20A C18A 1_555 1_555
C19A C14A 1_555 1_555
H21A C19A 1_555 1_555
C20A H22A 1_555 1_555
H23A C20A 1_555 1_555
C21A C20A 1_555 1_555
H24A C21A 1_555 1_555
H25A C21A 1_555 1_555
C22A C21A 1_555 1_555
H26A C22A 1_555 1_555
H27A C22A 1_555 1_555
C23A C22A 1_555 1_555
H28A C23A 1_555 1_555
H29A C23A 1_555 1_555
C24A C23A 1_555 1_555
H30A C24A 1_555 1_555
H31A C24A 1_555 1_555
C25A C24A 1_555 1_555
H32A C25A 1_555 1_555
H33A C25A 1_555 1_555
H34A C25A 1_555 1_555
C26A C13A 1_555 1_555
H35A C26A 1_555 1_555
C27A C26A 1_555 1_555
C28A C29 1_555 1_555
H36A C28A 1_555 1_555
C29A C28 1_555 1_555
H37A C29A 1_555 1_555
O1A C6A 1_555 1_555
O2A C17A 1_555 1_555
C7 O1 1_555 1_555
C11 C12 1_555 1_555
C18 C19 1_555 1_555
C20 O2 1_555 1_555
C7A O1A 1_555 1_555
C11A C12A 1_555 1_555
C18A C19A 1_555 1_555
C20A O2A 1_555 1_555
C27A C28A 1_555 1_555
C27A C29A 1_555 1_555

#END
