
#######################################################################
#
#                 Cambridge Crystallographic Data Centre
#                                CCDC 
#
#######################################################################
#
# If this CIF has been generated from an entry in the Cambridge 
# Structural Database, then it will include bibliographic, chemical, 
# crystal, experimental, refinement or atomic coordinate data resulting 
# from the CCDC's data processing and validation procedures.
#
#######################################################################

data_INOPEI
_chemical_formula_moiety         'C8 H1 F4 O4 1-,C5 H9 N2 1+'
_chemical_name_systematic        
'3,5-dimethyl-1H-pyrazol-2-ium 4-carboxy-2,3,5,6-tetrafluorobenzoate'
_symmetry_cell_setting           monoclinic
_symmetry_space_group_name_H-M   'P 21'
_symmetry_Int_Tables_number      4
_space_group_name_Hall           'P 2yb'
loop_
_symmetry_equiv_pos_site_id
_symmetry_equiv_pos_as_xyz
1 x,y,z
2 -x,1/2+y,-z
_cell_length_a                   9.5864(5)
_cell_length_b                   7.6977(5)
_cell_length_c                   9.6445(5)
_cell_angle_alpha                90
_cell_angle_beta                 105.101(5)
_cell_angle_gamma                90
_cell_volume                     687.122
_exptl_crystal_colour            colorless
_exptl_crystal_description       block
_cell_formula_units_Z            2
loop_
_atom_site_label
_atom_site_type_symbol
_atom_site_fract_x
_atom_site_fract_y
_atom_site_fract_z
F1 F -0.6926(2) -0.1075(3) -0.46511(18)
F2 F -0.23940(17) -0.3753(3) -0.28673(19)
F3 F -0.2996(2) -0.4262(3) -0.03643(19)
F4 F -0.75321(17) -0.1561(3) -0.21488(19)
O1 O -0.5164(2) -0.2869(4) -0.6325(2)
O2 O -0.3302(3) -0.1162(4) -0.5342(2)
O3 O -0.4589(2) -0.2544(5) 0.1326(2)
O4 O -0.6713(2) -0.3811(4) 0.0368(2)
C1 C -0.4323(3) -0.2098(5) -0.5285(3)
C2 C -0.6254(3) -0.2140(5) -0.2300(3)
C3 C -0.5942(3) -0.1875(5) -0.3598(3)
C4 C -0.4653(3) -0.2388(5) -0.3836(3)
C5 C -0.3979(3) -0.3431(5) -0.1402(3)
C6 C -0.5590(3) -0.3142(5) 0.0286(3)
C7 C -0.5279(3) -0.2906(5) -0.1161(3)
C8 C -0.3677(3) -0.3181(5) -0.2706(3)
H1 H -0.483(6) -0.265(11) 0.214(3)
C9 C -0.0276(3) -0.8568(5) -0.3728(3)
C10 C 0.0013(5) -0.6809(8) -0.0125(5)
H2 H -0.0713 -0.7165 0.0338
H3 H 0.0004 -0.5566 -0.0210
H4 H 0.0945 -0.7182 0.0437
C11 C 0.0019(5) -0.8969(7) -0.5131(4)
H5 H 0.0067 -0.7907 -0.5639
H6 H -0.0742 -0.9686 -0.5690
H7 H 0.0923 -0.9573 -0.4972
N1 N -0.1535(3) -0.8424(5) -0.2153(3)
C12 C 0.0526(3) -0.7698(6) -0.2543(4)
H8 H 0.1454 -0.7257 -0.2423
N2 N -0.1524(3) -0.9005(4) -0.3459(3)
C13 C -0.0289(3) -0.7599(5) -0.1573(3)
H9 H -0.232(4) -0.871(6) -0.174(4)
H10 H -0.221(4) -0.961(5) -0.406(4)
loop_
_geom_bond_atom_site_label_1
_geom_bond_atom_site_label_2
_geom_bond_site_symmetry_1
_geom_bond_site_symmetry_2
F1 C3 1_555 1_555
F2 C8 1_555 1_555
F3 C5 1_555 1_555
F4 C2 1_555 1_555
O1 C1 1_555 1_555
O2 C1 1_555 1_555
O3 C6 1_555 1_555
O4 C6 1_555 1_555
C1 C4 1_555 1_555
C2 C3 1_555 1_555
C3 C4 1_555 1_555
C4 C8 1_555 1_555
C5 C7 1_555 1_555
C6 C7 1_555 1_555
C7 C2 1_555 1_555
C8 C5 1_555 1_555
H1 O3 1_555 1_555
C9 C11 1_555 1_555
C10 H2 1_555 1_555
H3 C10 1_555 1_555
H4 C10 1_555 1_555
C11 H5 1_555 1_555
H6 C11 1_555 1_555
H7 C11 1_555 1_555
N1 N2 1_555 1_555
C12 C9 1_555 1_555
H8 C12 1_555 1_555
N2 C9 1_555 1_555
C13 C10 1_555 1_555
H9 N1 1_555 1_555
H10 N2 1_555 1_555
N1 C13 1_555 1_555
C12 C13 1_555 1_555

#END
