
#######################################################################
#
#                 Cambridge Crystallographic Data Centre
#                                CCDC 
#
#######################################################################
#
# If this CIF has been generated from an entry in the Cambridge 
# Structural Database, then it will include bibliographic, chemical, 
# crystal, experimental, refinement or atomic coordinate data resulting 
# from the CCDC's data processing and validation procedures.
#
#######################################################################

data_INOPOR01
_chemical_name_common            
33,34,35,36-Tetraisopropyl-10,15,26,31-tetraazanonacyclo[28.2.1.1$8,11!.1$14,17!.1$24,27!.0$2,7!.0$9,32!.0$16,25!.0$18,23!]hexatriaconta-1(32),2(7),3,5,8,11(36),12,14(35),16,18(23),19,21,24,27(34),28,30(33)-hexadecaene
_chemical_formula_moiety         'C44 H42 N4'
_chemical_name_systematic        2,7,12,17-Tetraisopropyldinaphthoporphycene
_symmetry_cell_setting           monoclinic
_symmetry_space_group_name_H-M   'P 21/n'
_symmetry_Int_Tables_number      14
_space_group_name_Hall           '-P 2yn'
loop_
_symmetry_equiv_pos_site_id
_symmetry_equiv_pos_as_xyz
1 x,y,z
2 1/2-x,1/2+y,1/2-z
3 -x,-y,-z
4 1/2+x,1/2-y,1/2+z
_cell_length_a                   15.429(2)
_cell_length_b                   6.4378(9)
_cell_length_c                   16.994(3)
_cell_angle_alpha                90
_cell_angle_beta                 105.454(14)
_cell_angle_gamma                90
_cell_volume                     1626.96
_exptl_crystal_colour            blue
_exptl_crystal_description       plate
_chemical_melting_point          'above 294 deg.C'
_cell_formula_units_Z            2
_exptl_crystal_recrystallization_method chloroform/hexane
loop_
_atom_site_label
_atom_site_type_symbol
_atom_site_fract_x
_atom_site_fract_y
_atom_site_fract_z
C1 C -0.08279(10) 0.2995(2) 0.13654(9)
C2 C -0.03823(10) 0.1248(2) 0.18667(9)
C3 C 0.02571(10) 0.0502(2) 0.14909(9)
C4 C 0.02181(9) 0.1856(2) 0.08219(9)
C5 C 0.08637(10) 0.1837(2) 0.03971(9)
C6 C 0.16182(9) 0.0479(2) 0.06058(9)
C7 C 0.22078(10) 0.1187(2) 0.01719(9)
C8 C 0.17442(10) 0.2905(2) -0.03382(9)
C9 C 0.19872(10) 0.4087(2) -0.09449(9)
H1 H 0.2528 0.3690 -0.1045
C10 C -0.15610(10) 0.4251(2) 0.14222(9)
H2 H -0.1801 0.3910 0.1853
C11 C 0.09140(10) -0.1213(2) 0.16181(9)
C12 C 0.08575(11) -0.2939(2) 0.21018(9)
H3 H 0.0408 -0.2980 0.2374
C13 C 0.14453(11) -0.4571(2) 0.21862(10)
H4 H 0.1401 -0.5679 0.2524
C14 C 0.21011(11) -0.4580(2) 0.17734(10)
H5 H 0.2502 -0.5685 0.1836
C15 C 0.21615(10) -0.2950(2) 0.12677(10)
H6 H 0.2591 -0.2995 0.0975
C16 C 0.15916(10) -0.1223(2) 0.11831(9)
C17 C -0.05118(12) 0.0614(3) 0.26812(10)
C18 C -0.02973(15) 0.2395(3) 0.32946(11)
H7 H 0.0301 0.2891 0.3340
H8 H -0.0338 0.1912 0.3818
H9 H -0.0719 0.3504 0.3112
C19 C -0.14180(13) -0.0348(3) 0.26485(12)
H10 H -0.1881 0.0678 0.2475
H11 H -0.1418 -0.0847 0.3181
H12 H -0.1529 -0.1484 0.2269
C20 C 0.31733(10) 0.0555(3) 0.02771(11)
C21 C 0.38139(11) 0.2400(3) 0.04991(11)
H13 H 0.3725 0.3315 0.0038
H14 H 0.4424 0.1910 0.0648
H15 H 0.3696 0.3137 0.0951
C22 C 0.33355(12) -0.0661(3) -0.04343(12)
H16 H 0.2955 -0.1865 -0.0533
H17 H 0.3953 -0.1088 -0.0307
H18 H 0.3201 0.0200 -0.0913
H19 H 0.0587(13) 0.493(3) -0.0389(11)
H20 H -0.0051(11) -0.043(2) 0.2914(10)
H21 H 0.3326(10) -0.037(2) 0.0764(10)
N1 N -0.04355(8) 0.32828(17) 0.07464(7)
N2 N 0.09408(8) 0.32304(18) -0.01682(7)
C1B C 0.08279(10) 0.7005(2) -0.13654(9)
C2B C 0.03823(10) 0.8752(2) -0.18667(9)
C3B C -0.02571(10) 0.9498(2) -0.14909(9)
C4B C -0.02181(9) 0.8144(2) -0.08219(9)
C5B C -0.08637(10) 0.8163(2) -0.03971(9)
C6B C -0.16182(9) 0.9521(2) -0.06058(9)
C7B C -0.22078(10) 0.8813(2) -0.01719(9)
C8B C -0.17442(10) 0.7095(2) 0.03382(9)
C9B C -0.19872(10) 0.5913(2) 0.09449(9)
H1B H -0.2528 0.6310 0.1045
C10B C 0.15610(10) 0.5749(2) -0.14222(9)
H2B H 0.1801 0.6090 -0.1853
C11B C -0.09140(10) 1.1213(2) -0.16181(9)
C12B C -0.08575(11) 1.2939(2) -0.21018(9)
H3B H -0.0408 1.2980 -0.2374
C13B C -0.14453(11) 1.4571(2) -0.21862(10)
H4B H -0.1401 1.5679 -0.2524
C14B C -0.21011(11) 1.4580(2) -0.17734(10)
H5B H -0.2502 1.5685 -0.1836
C15B C -0.21615(10) 1.2950(2) -0.12677(10)
H6B H -0.2591 1.2995 -0.0975
C16B C -0.15916(10) 1.1223(2) -0.11831(9)
C17B C 0.05118(12) 0.9386(3) -0.26812(10)
C18B C 0.02973(15) 0.7605(3) -0.32946(11)
H7B H -0.0301 0.7109 -0.3340
H8B H 0.0338 0.8088 -0.3818
H9B H 0.0719 0.6496 -0.3112
C19B C 0.14180(13) 1.0348(3) -0.26485(12)
H10B H 0.1881 0.9322 -0.2475
H11B H 0.1418 1.0847 -0.3181
H12B H 0.1529 1.1484 -0.2269
C20B C -0.31733(10) 0.9445(3) -0.02771(11)
C21B C -0.38139(11) 0.7600(3) -0.04991(11)
H13B H -0.3725 0.6685 -0.0038
H14B H -0.4424 0.8090 -0.0648
H15B H -0.3696 0.6863 -0.0951
C22B C -0.33355(12) 1.0661(3) 0.04343(12)
H16B H -0.2955 1.1865 0.0533
H17B H -0.3953 1.1088 0.0307
H18B H -0.3201 0.9800 0.0913
H19B H -0.0587(13) 0.507(3) 0.0389(11)
H20B H 0.0051(11) 1.043(2) -0.2914(10)
H21B H -0.3326(10) 1.037(2) -0.0764(10)
N1B N 0.04355(8) 0.67172(17) -0.07464(7)
N2B N -0.09408(8) 0.67696(18) 0.01682(7)
loop_
_geom_bond_atom_site_label_1
_geom_bond_atom_site_label_2
_geom_bond_site_symmetry_1
_geom_bond_site_symmetry_2
C1 C2 1_555 1_555
C2 C3 1_555 1_555
C3 C4 1_555 1_555
C4 C5 1_555 1_555
C5 C6 1_555 1_555
C6 C7 1_555 1_555
C7 C8 1_555 1_555
C8 C9 1_555 1_555
C9 H1 1_555 1_555
C10 C1 1_555 1_555
H2 C10 1_555 1_555
C11 C3 1_555 1_555
C12 C11 1_555 1_555
H3 C12 1_555 1_555
C13 C12 1_555 1_555
H4 C13 1_555 1_555
C14 C13 1_555 1_555
H5 C14 1_555 1_555
C15 C14 1_555 1_555
H6 C15 1_555 1_555
C16 C6 1_555 1_555
C17 C2 1_555 1_555
C18 C17 1_555 1_555
H7 C18 1_555 1_555
H8 C18 1_555 1_555
H9 C18 1_555 1_555
C19 C17 1_555 1_555
H10 C19 1_555 1_555
H11 C19 1_555 1_555
H12 C19 1_555 1_555
C20 C7 1_555 1_555
C21 C20 1_555 1_555
H13 C21 1_555 1_555
H14 C21 1_555 1_555
H15 C21 1_555 1_555
C22 C20 1_555 1_555
H16 C22 1_555 1_555
H17 C22 1_555 1_555
H18 C22 1_555 1_555
H19 N2 1_555 1_555
H20 C17 1_555 1_555
H21 C20 1_555 1_555
N1 C1 1_555 1_555
N2 C5 1_555 1_555
C1B C2B 1_555 1_555
C2B C3B 1_555 1_555
C3B C4B 1_555 1_555
C4B C5B 1_555 1_555
C5B C6B 1_555 1_555
C6B C7B 1_555 1_555
C7B C8B 1_555 1_555
C8B C9B 1_555 1_555
C9B C10 1_555 1_555
H1B C9B 1_555 1_555
C10B C9 1_555 1_555
H2B C10B 1_555 1_555
C11B C3B 1_555 1_555
C12B C11B 1_555 1_555
H3B C12B 1_555 1_555
C13B C12B 1_555 1_555
H4B C13B 1_555 1_555
C14B C13B 1_555 1_555
H5B C14B 1_555 1_555
C15B C14B 1_555 1_555
H6B C15B 1_555 1_555
C16B C6B 1_555 1_555
C17B C2B 1_555 1_555
C18B C17B 1_555 1_555
H7B C18B 1_555 1_555
H8B C18B 1_555 1_555
H9B C18B 1_555 1_555
C19B C17B 1_555 1_555
H10B C19B 1_555 1_555
H11B C19B 1_555 1_555
H12B C19B 1_555 1_555
C20B C7B 1_555 1_555
C21B C20B 1_555 1_555
H13B C21B 1_555 1_555
H14B C21B 1_555 1_555
H15B C21B 1_555 1_555
C22B C20B 1_555 1_555
H16B C22B 1_555 1_555
H17B C22B 1_555 1_555
H18B C22B 1_555 1_555
H19B N2B 1_555 1_555
H20B C17B 1_555 1_555
H21B C20B 1_555 1_555
N1B C1B 1_555 1_555
N2B C5B 1_555 1_555
C4 N1 1_555 1_555
C8 N2 1_555 1_555
C11 C16 1_555 1_555
C15 C16 1_555 1_555
C1B C10B 1_555 1_555
C4B N1B 1_555 1_555
C8B N2B 1_555 1_555
C11B C16B 1_555 1_555
C15B C16B 1_555 1_555

#END
