
#######################################################################
#
#                 Cambridge Crystallographic Data Centre
#                                CCDC 
#
#######################################################################
#
# If this CIF has been generated from an entry in the Cambridge 
# Structural Database, then it will include bibliographic, chemical, 
# crystal, experimental, refinement or atomic coordinate data resulting 
# from the CCDC's data processing and validation procedures.
#
#######################################################################

data_INOZES
_chemical_formula_moiety         'C18 H22 F1 N1 O4'
_chemical_name_systematic        
"ethyl 2'-ethyl-5-fluoro-5'-methyl-2-oxo-1,2,5',6'-tetrahydro-4'H-spiro[indole-3,3'-pyran]-4'-carboxylate"
_symmetry_cell_setting           orthorhombic
_symmetry_space_group_name_H-M   'P 21 21 21'
_symmetry_Int_Tables_number      19
_space_group_name_Hall           'P 2ac 2ab'
loop_
_symmetry_equiv_pos_site_id
_symmetry_equiv_pos_as_xyz
1 x,y,z
2 1/2-x,-y,1/2+z
3 -x,1/2+y,1/2-z
4 1/2+x,1/2-y,-z
_cell_length_a                   9.7821(3)
_cell_length_b                   11.5835(4)
_cell_length_c                   14.8591(5)
_cell_angle_alpha                90
_cell_angle_beta                 90
_cell_angle_gamma                90
_cell_volume                     1683.7
_cell_formula_units_Z            4
loop_
_atom_site_label
_atom_site_type_symbol
_atom_site_fract_x
_atom_site_fract_y
_atom_site_fract_z
O1 O 0.02090(12) 0.16186(8) 0.16045(7)
O2 O -0.00578(11) 0.28682(8) 0.34737(6)
C1 C 0.20493(13) 0.42800(11) 0.16535(8)
O3 O -0.17032(14) 0.36440(11) 0.05274(7)
O4 O -0.01451(12) 0.50324(10) 0.04503(7)
F1 F 0.41397(10) 0.68252(8) 0.15404(8)
C2 C -0.12761(15) 0.35272(14) 0.33886(9)
H1 H -0.1130 0.4301 0.3655
H2 H -0.2019 0.3144 0.3729
C3 C 0.09471(14) 0.24564(11) 0.15229(8)
N1 N 0.20097(13) 0.25475(11) 0.09378(8)
H3 H 0.2249 0.1998 0.0561
C4 C -0.05426(12) 0.42218(10) 0.18838(8)
H4 H -0.0457 0.5039 0.2094
C5 C 0.26824(14) 0.36130(12) 0.10005(9)
C6 C -0.08750(13) 0.42507(11) 0.08848(8)
C7 C -0.17067(14) 0.36603(11) 0.24153(9)
H5 H -0.1884 0.2876 0.2159
C8 C 0.08645(13) 0.36150(10) 0.20477(8)
C9 C 0.36363(14) 0.57521(13) 0.13595(11)
C10 C 0.10716(13) 0.34304(11) 0.30765(8)
H6 H 0.1169 0.4206 0.3365
C11 C 0.23348(17) 0.27273(14) 0.33034(10)
H7 H 0.2251 0.1954 0.3026
H8 H 0.3147 0.3109 0.3040
C12 C -0.30197(16) 0.43627(16) 0.23621(12)
H9 H -0.3739 0.3974 0.2706
H10 H -0.3304 0.4433 0.1732
H11 H -0.2861 0.5133 0.2614
C13 C 0.25152(14) 0.53770(11) 0.18450(9)
H12 H 0.2089 0.5849 0.2286
C14 C 0.37763(16) 0.40156(15) 0.05043(11)
H13 H 0.4186 0.3557 0.0048
C15 C 0.42533(15) 0.51155(15) 0.06982(12)
H14 H 0.5005 0.5426 0.0374
C16 C 0.2550(2) 0.25878(17) 0.43095(11)
H15 H 0.3379 0.2134 0.4418
H16 H 0.1761 0.2189 0.4572
H17 H 0.2648 0.3350 0.4588
C17 C -0.03360(19) 0.50999(18) -0.05217(11)
H18 H -0.0097 0.5885 -0.0733
H19 H -0.1309 0.4959 -0.0668
C18 C 0.0528(3) 0.4239(3) -0.09949(13)
H20 H 0.0386 0.4306 -0.1646
H21 H 0.0277 0.3461 -0.0797
H22 H 0.1492 0.4382 -0.0854
loop_
_geom_bond_atom_site_label_1
_geom_bond_atom_site_label_2
_geom_bond_site_symmetry_1
_geom_bond_site_symmetry_2
O1 C3 1_555 1_555
O2 C2 1_555 1_555
C1 C5 1_555 1_555
O3 C6 1_555 1_555
O4 C6 1_555 1_555
F1 C9 1_555 1_555
C2 H1 1_555 1_555
H2 C2 1_555 1_555
C3 N1 1_555 1_555
N1 H3 1_555 1_555
C4 H4 1_555 1_555
C5 N1 1_555 1_555
C6 C4 1_555 1_555
C7 C2 1_555 1_555
H5 C7 1_555 1_555
C8 C1 1_555 1_555
C9 C13 1_555 1_555
C10 O2 1_555 1_555
H6 C10 1_555 1_555
C11 C10 1_555 1_555
H7 C11 1_555 1_555
H8 C11 1_555 1_555
C12 C7 1_555 1_555
H9 C12 1_555 1_555
H10 C12 1_555 1_555
H11 C12 1_555 1_555
C13 C1 1_555 1_555
H12 C13 1_555 1_555
C14 C5 1_555 1_555
H13 C14 1_555 1_555
C15 C9 1_555 1_555
H14 C15 1_555 1_555
C16 C11 1_555 1_555
H15 C16 1_555 1_555
H16 C16 1_555 1_555
H17 C16 1_555 1_555
C17 O4 1_555 1_555
H18 C17 1_555 1_555
H19 C17 1_555 1_555
C18 C17 1_555 1_555
H20 C18 1_555 1_555
H21 C18 1_555 1_555
H22 C18 1_555 1_555
C3 C8 1_555 1_555
C4 C7 1_555 1_555
C4 C8 1_555 1_555
C8 C10 1_555 1_555
C14 C15 1_555 1_555

#END
