
#######################################################################
#
#                 Cambridge Crystallographic Data Centre
#                                CCDC 
#
#######################################################################
#
# If this CIF has been generated from an entry in the Cambridge 
# Structural Database, then it will include bibliographic, chemical, 
# crystal, experimental, refinement or atomic coordinate data resulting 
# from the CCDC's data processing and validation procedures.
#
#######################################################################

data_INUHEF
_chemical_formula_moiety         'C12 H15 N1 O3'
_chemical_name_systematic        
1-Methyl-3a,4,5,6,10,10a-hexahydro-2H-furo[3,2-c]pyrrolo[1,2-a]azepine-2,8(9H)-dione
_symmetry_cell_setting           monoclinic
_symmetry_space_group_name_H-M   'P 21/n'
_symmetry_Int_Tables_number      14
_space_group_name_Hall           '-P 2yn'
loop_
_symmetry_equiv_pos_site_id
_symmetry_equiv_pos_as_xyz
1 x,y,z
2 1/2-x,1/2+y,1/2-z
3 -x,-y,-z
4 1/2+x,1/2-y,1/2+z
_cell_length_a                   11.987(2)
_cell_length_b                   6.8344(14)
_cell_length_c                   14.401(3)
_cell_angle_alpha                90
_cell_angle_beta                 110.557(3)
_cell_angle_gamma                90
_cell_volume                     1104.66
_exptl_crystal_colour            colorless
_exptl_crystal_description       prismatic
_cell_formula_units_Z            4
loop_
_atom_site_label
_atom_site_type_symbol
_atom_site_fract_x
_atom_site_fract_y
_atom_site_fract_z
O1 O -0.17500(16) 0.4013(3) 0.32468(13)
O2 O 0.15557(14) 1.2493(2) 0.13938(12)
O3 O 0.06291(12) 1.16890(18) 0.24330(10)
N1 N -0.03737(12) 0.5777(2) 0.28546(10)
C1 C -0.13902(18) 0.4754(3) 0.26373(16)
C2 C -0.19733(19) 0.4656(3) 0.15348(16)
H1 H -0.2809 0.5004 0.1334
H2 H -0.1909 0.3350 0.1294
C3 C -0.13071(17) 0.6114(3) 0.11402(13)
H3 H -0.1729 0.7352 0.0991
H4 H -0.1201 0.5624 0.0545
C4 C -0.00930(15) 0.6350(2) 0.19902(12)
H5 H 0.0488 0.5437 0.1894
C5 C 0.03623(13) 0.8386(2) 0.20490(11)
C6 C 0.01765(16) 0.9914(2) 0.27260(12)
H6 H -0.0676 1.0056 0.2609
C7 C 0.08590(18) 0.9615(3) 0.38247(13)
H7 H 0.1691 0.9398 0.3917
H8 H 0.0813 1.0812 0.4171
C8 C 0.04311(16) 0.7933(3) 0.43019(12)
H9 H 0.0912 0.7891 0.5002
H10 H -0.0385 0.8187 0.4249
C9 C 0.04850(17) 0.5961(3) 0.38515(13)
H11 H 0.1280 0.5759 0.3837
H12 H 0.0336 0.4950 0.4266
C10 C 0.09357(14) 0.9170(3) 0.14968(12)
C11 C 0.11048(16) 1.1254(3) 0.17330(13)
C12 C 0.13502(19) 0.8234(3) 0.07426(15)
H13 H 0.2185 0.7947 0.1034
H14 H 0.1217 0.9109 0.0193
H15 H 0.0916 0.7043 0.0515
loop_
_geom_bond_atom_site_label_1
_geom_bond_atom_site_label_2
_geom_bond_site_symmetry_1
_geom_bond_site_symmetry_2
O1 C1 1_555 1_555
O2 C11 1_555 1_555
O3 C6 1_555 1_555
N1 C1 1_555 1_555
C1 C2 1_555 1_555
C2 H1 1_555 1_555
H2 C2 1_555 1_555
C3 C2 1_555 1_555
H3 C3 1_555 1_555
H4 C3 1_555 1_555
C4 N1 1_555 1_555
H5 C4 1_555 1_555
C5 C4 1_555 1_555
C6 C5 1_555 1_555
H6 C6 1_555 1_555
C7 C6 1_555 1_555
H7 C7 1_555 1_555
H8 C7 1_555 1_555
C8 C7 1_555 1_555
H9 C8 1_555 1_555
H10 C8 1_555 1_555
C9 N1 1_555 1_555
H11 C9 1_555 1_555
H12 C9 1_555 1_555
C10 C5 1_555 1_555
C11 O3 1_555 1_555
C12 C10 1_555 1_555
H13 C12 1_555 1_555
H14 C12 1_555 1_555
H15 C12 1_555 1_555
C3 C4 1_555 1_555
C8 C9 1_555 1_555
C10 C11 1_555 1_555

#END
