
#######################################################################
#
#                 Cambridge Crystallographic Data Centre
#                                CCDC 
#
#######################################################################
#
# If this CIF has been generated from an entry in the Cambridge 
# Structural Database, then it will include bibliographic, chemical, 
# crystal, experimental, refinement or atomic coordinate data resulting 
# from the CCDC's data processing and validation procedures.
#
#######################################################################

data_INUJIL
_chemical_formula_moiety         'C30 H30 N4 O5 S1'
_chemical_name_systematic        
6-Ethoxy-8-p-tosyl-2,9-diphenyl-5,7,8,9,10,10a-hexahydro-1H-pyrido[4,3-c][1,2,4]triazolo[1,2-a]pyridazine-1,3(2H)-dione
_symmetry_cell_setting           triclinic
_symmetry_space_group_name_H-M   'P -1'
_symmetry_Int_Tables_number      2
_space_group_name_Hall           '-P 1'
loop_
_symmetry_equiv_pos_site_id
_symmetry_equiv_pos_as_xyz
1 x,y,z
2 -x,-y,-z
_cell_length_a                   9.5001(11)
_cell_length_b                   10.6215(12)
_cell_length_c                   14.8273(17)
_cell_angle_alpha                71.573(2)
_cell_angle_beta                 73.096(1)
_cell_angle_gamma                82.867(1)
_cell_volume                     1357.25
_exptl_crystal_colour            colorless
_exptl_crystal_description       block
_cell_formula_units_Z            2
loop_
_atom_site_label
_atom_site_type_symbol
_atom_site_fract_x
_atom_site_fract_y
_atom_site_fract_z
S1 S 0.74363(3) 0.84653(2) 0.038688(17)
O1 O 0.87519(9) 0.89355(8) -0.03771(6)
O2 O 0.62507(9) 0.80423(8) 0.01443(6)
O3 O 0.71460(9) 1.04957(8) 0.43453(6)
O4 O 0.58441(10) 0.61057(8) 0.56896(6)
O5 O 0.33814(9) 0.75163(8) 0.27618(6)
N1 N 0.67717(9) 0.96847(8) 0.08598(6)
N2 N 0.56580(11) 0.77490(9) 0.42661(7)
N3 N 0.58450(10) 0.91383(9) 0.39473(6)
N4 N 0.66730(10) 0.82620(9) 0.52644(6)
C1 C 0.94165(12) 0.69484(11) 0.13402(8)
H1 H 1.0160 0.7454 0.0817
C2 C 0.97790(13) 0.59990(11) 0.21419(8)
H2 H 1.0780 0.5848 0.2156
C3 C 0.86939(14) 0.52681(11) 0.29236(9)
C4 C 0.72347(13) 0.54519(11) 0.28661(9)
H3 H 0.6492 0.4937 0.3384
C5 C 0.68556(12) 0.63740(10) 0.20655(8)
H4 H 0.5865 0.6480 0.2027
C6 C 0.79522(11) 0.71452(10) 0.13171(7)
C7 C 0.90723(17) 0.43035(14) 0.38198(10)
H5 H 1.0143 0.4241 0.3714
H6 H 0.8712 0.3427 0.3931
H7 H 0.8608 0.4615 0.4397
C8 C 0.77948(11) 1.03030(10) 0.11685(7)
H8 H 0.8818 1.0091 0.0809
C9 C 0.75693(11) 1.18120(10) 0.08504(7)
C10 C 0.68361(12) 1.24535(11) 0.01295(8)
H9 H 0.6418 1.1943 -0.0144
C11 C 0.67091(13) 1.38357(11) -0.01943(9)
H10 H 0.6186 1.4259 -0.0673
C12 C 0.73451(15) 1.45961(11) 0.01811(9)
H11 H 0.7264 1.5538 -0.0042
C13 C 0.81028(15) 1.39657(11) 0.08861(9)
H12 H 0.8556 1.4480 0.1137
C14 C 0.82008(12) 1.25876(11) 0.12255(8)
H13 H 0.8702 1.2168 0.1718
C15 C 0.76530(11) 0.96843(10) 0.22828(7)
H14 H 0.8001 0.8742 0.2413
H15 H 0.8282 1.0158 0.2488
C16 C 0.60500(11) 0.97711(10) 0.28870(7)
H16 H 0.5741 1.0730 0.2781
C17 C 0.50698(11) 0.91369(10) 0.25286(7)
C18 C 0.52092(11) 0.96942(10) 0.14390(7)
H17 H 0.4637 0.9159 0.1241
H18 H 0.4795 1.0616 0.1295
C19 C 0.42469(11) 0.81030(11) 0.31063(8)
C20 C 0.43098(12) 0.73810(11) 0.41421(8)
H19 H 0.3440 0.7634 0.4619
H20 H 0.4318 0.6410 0.4259
C21 C 0.60292(12) 0.72311(11) 0.51463(8)
C22 C 0.66204(12) 0.94372(11) 0.44966(7)
C23 C 0.72184(12) 0.81392(11) 0.60934(8)
C24 C 0.64224(13) 0.74414(11) 0.70353(8)
H21 H 0.5530 0.7042 0.7128
C25 C 0.69527(14) 0.73383(12) 0.78378(8)
H22 H 0.6411 0.6876 0.8484
C26 C 0.82671(15) 0.79054(13) 0.77032(9)
H23 H 0.8624 0.7828 0.8255
C27 C 0.90580(14) 0.85861(13) 0.67591(9)
H24 H 0.9961 0.8969 0.6666
C28 C 0.85347(13) 0.87109(12) 0.59483(8)
H25 H 0.9072 0.9182 0.5303
C29 C 0.20162(13) 0.82433(13) 0.26267(9)
H26 H 0.1718 0.8021 0.2110
H27 H 0.2174 0.9210 0.2405
C30 C 0.08156(14) 0.78962(16) 0.35756(10)
H28 H 0.0710 0.6932 0.3819
H29 H -0.0114 0.8332 0.3459
H30 H 0.1068 0.8199 0.4067
loop_
_geom_bond_atom_site_label_1
_geom_bond_atom_site_label_2
_geom_bond_site_symmetry_1
_geom_bond_site_symmetry_2
S1 O1 1_555 1_555
O2 S1 1_555 1_555
O3 C22 1_555 1_555
O4 C21 1_555 1_555
O5 C19 1_555 1_555
N1 S1 1_555 1_555
N2 N3 1_555 1_555
N3 C16 1_555 1_555
N4 C21 1_555 1_555
C1 H1 1_555 1_555
C2 C1 1_555 1_555
H2 C2 1_555 1_555
C3 C2 1_555 1_555
C4 C3 1_555 1_555
H3 C4 1_555 1_555
C5 C4 1_555 1_555
H4 C5 1_555 1_555
C6 S1 1_555 1_555
C7 C3 1_555 1_555
H5 C7 1_555 1_555
H6 C7 1_555 1_555
H7 C7 1_555 1_555
C8 N1 1_555 1_555
H8 C8 1_555 1_555
C9 C8 1_555 1_555
C10 C9 1_555 1_555
H9 C10 1_555 1_555
C11 C10 1_555 1_555
H10 C11 1_555 1_555
C12 C11 1_555 1_555
H11 C12 1_555 1_555
C13 C12 1_555 1_555
H12 C13 1_555 1_555
C14 C9 1_555 1_555
H13 C14 1_555 1_555
C15 C8 1_555 1_555
H14 C15 1_555 1_555
H15 C15 1_555 1_555
C16 C15 1_555 1_555
H16 C16 1_555 1_555
C17 C16 1_555 1_555
C18 N1 1_555 1_555
H17 C18 1_555 1_555
H18 C18 1_555 1_555
C19 C17 1_555 1_555
C20 N2 1_555 1_555
H19 C20 1_555 1_555
H20 C20 1_555 1_555
C21 N2 1_555 1_555
C22 N3 1_555 1_555
C23 N4 1_555 1_555
C24 C23 1_555 1_555
H21 C24 1_555 1_555
C25 C24 1_555 1_555
H22 C25 1_555 1_555
C26 C25 1_555 1_555
H23 C26 1_555 1_555
C27 C26 1_555 1_555
H24 C27 1_555 1_555
C28 C23 1_555 1_555
H25 C28 1_555 1_555
C29 O5 1_555 1_555
H26 C29 1_555 1_555
H27 C29 1_555 1_555
C30 C29 1_555 1_555
H28 C30 1_555 1_555
H29 C30 1_555 1_555
H30 C30 1_555 1_555
N4 C22 1_555 1_555
C1 C6 1_555 1_555
C5 C6 1_555 1_555
C13 C14 1_555 1_555
C17 C18 1_555 1_555
C19 C20 1_555 1_555
C27 C28 1_555 1_555

#END
