
#######################################################################
#
#                 Cambridge Crystallographic Data Centre
#                                CCDC 
#
#######################################################################
#
# If this CIF has been generated from an entry in the Cambridge 
# Structural Database, then it will include bibliographic, chemical, 
# crystal, experimental, refinement or atomic coordinate data resulting 
# from the CCDC's data processing and validation procedures.
#
#######################################################################

data_INUJEG
_chemical_formula_moiety         'C42 H50 N6 O4,4(C1 D1 Cl3)'
_chemical_name_systematic        
'3^5^,9^5^-Di-t-butyl-3^2^,9^2^-dioxo-6,12-dioxa-1,5,7,11(1,4)-tetrabenzena-3,9(1,3)-ditriazinacyclododecaphane deuterochloroform solvate'
_symmetry_cell_setting           triclinic
_symmetry_space_group_name_H-M   'P -1'
_symmetry_Int_Tables_number      2
_space_group_name_Hall           '-P 1'
loop_
_symmetry_equiv_pos_site_id
_symmetry_equiv_pos_as_xyz
1 x,y,z
2 -x,-y,-z
_cell_length_a                   10.0624(10)
_cell_length_b                   12.3645(13)
_cell_length_c                   12.4164(13)
_cell_angle_alpha                85.800(2)
_cell_angle_beta                 67.881(2)
_cell_angle_gamma                78.339(2)
_cell_volume                     1401.57
_exptl_crystal_colour            colorless
_exptl_crystal_description       block
_cell_formula_units_Z            1
loop_
_atom_site_label
_atom_site_type_symbol
_atom_site_fract_x
_atom_site_fract_y
_atom_site_fract_z
C1 C 0.3126(3) 0.2414(3) 0.6980(3)
C2 C 0.4330(3) 0.3985(3) 0.6071(2)
H1 H 0.5212 0.3689 0.5394
H2 H 0.3943 0.4743 0.5877
C3 C 0.5150(3) 0.2921(3) 0.7382(3)
H3 H 0.5344 0.2934 0.8105
H4 H 0.6069 0.2568 0.6769
C4 C 0.2391(3) 0.3524(3) 0.5504(3)
H5 H 0.1880 0.2906 0.5555
H6 H 0.3064 0.3576 0.4689
C5 C 0.1288(3) 0.4585(3) 0.5848(3)
C6 C 0.1487(4) 0.5547(3) 0.5223(3)
H7 H 0.2316 0.5541 0.4524
C7 C 0.0489(4) 0.6525(3) 0.5603(3)
H8 H 0.0639 0.7185 0.5170
C8 C -0.0708(4) 0.6533(3) 0.6601(3)
C9 C -0.0948(4) 0.5582(3) 0.7226(3)
H9 H -0.1796 0.5589 0.7910
C10 C 0.0059(4) 0.4613(3) 0.6849(3)
H10 H -0.0098 0.3956 0.7287
C11 C 0.2275(4) 0.2205(3) 1.1905(3)
C12 C 0.3740(4) 0.1758(3) 1.1406(3)
H11 H 0.4343 0.1666 1.1852
C13 C 0.4323(4) 0.1445(3) 1.0252(3)
H12 H 0.5333 0.1131 0.9910
C14 C 0.3477(4) 0.1576(2) 0.9589(3)
C15 C 0.2002(4) 0.2024(3) 1.0114(3)
H13 H 0.1397 0.2120 0.9670
C16 C 0.1402(4) 0.2329(3) 1.1265(3)
H14 H 0.0388 0.2625 1.1616
C17 C 0.4111(4) 0.1271(3) 0.8310(3)
H15 H 0.3564 0.0751 0.8168
H16 H 0.5142 0.0893 0.8097
C18 C 0.3832(4) 0.4867(3) 0.7977(3)
C19 C 0.3741(7) 0.5987(3) 0.7437(4)
H17 H 0.3350 0.6552 0.8048
H18 H 0.3094 0.6060 0.7001
H19 H 0.4717 0.6083 0.6909
C20 C 0.2291(5) 0.4711(4) 0.8633(4)
H20 H 0.2300 0.3981 0.8999
H21 H 0.1775 0.4767 0.8095
H22 H 0.1792 0.5283 0.9234
C21 C 0.4556(6) 0.4839(5) 0.8821(5)
H23 H 0.3927 0.5329 0.9477
H24 H 0.5490 0.5086 0.8441
H25 H 0.4730 0.4083 0.9105
N1 N 0.3232(3) 0.3300(2) 0.6261(2)
N2 N 0.4744(3) 0.4036(2) 0.7045(2)
N3 N 0.4038(3) 0.2247(2) 0.7576(2)
O1 O 0.2229(2) 0.18087(19) 0.71129(19)
O2 O -0.1707(3) 0.7523(2) 0.69257(19)
O2A O 0.1707(3) 0.2477(2) 1.30743(19)
C8A C 0.0708(4) 0.3467(3) 1.3399(3)
C7A C -0.0489(4) 0.3475(3) 1.4397(3)
C6A C -0.1487(4) 0.4453(3) 1.4777(3)
C5A C -0.1288(3) 0.5415(3) 1.4152(3)
C4A C -0.2391(3) 0.6476(3) 1.4496(3)
H5A H -0.1880 0.7094 1.4445
H6A H -0.3064 0.6424 1.5311
N1A N -0.3232(3) 0.6700(2) 1.3739(2)
C1A C -0.3126(3) 0.7586(3) 1.3020(3)
N3A N -0.4038(3) 0.7753(2) 1.2424(2)
C3A C -0.5150(3) 0.7079(3) 1.2618(3)
H3A H -0.5344 0.7066 1.1895
H4A H -0.6069 0.7432 1.3231
N2A N -0.4744(3) 0.5964(2) 1.2955(2)
C2A C -0.4330(3) 0.6015(3) 1.3929(2)
H1A H -0.5212 0.6311 1.4606
H2A H -0.3943 0.5257 1.4123
C18A C -0.3832(4) 0.5133(3) 1.2023(3)
C19A C -0.3741(7) 0.4013(3) 1.2563(4)
H17A H -0.3350 0.3448 1.1952
H18A H -0.3094 0.3940 1.2999
H19A H -0.4717 0.3917 1.3091
C20A C -0.2291(5) 0.5289(4) 1.1367(4)
H20A H -0.2300 0.6019 1.1001
H21A H -0.1775 0.5233 1.1905
H22A H -0.1792 0.4717 1.0766
C21A C -0.4556(6) 0.5161(5) 1.1179(5)
H23A H -0.3927 0.4671 1.0523
H24A H -0.5490 0.4914 1.1559
H25A H -0.4730 0.5917 1.0895
C17A C -0.4111(4) 0.8729(3) 1.1690(3)
C14A C -0.3477(4) 0.8424(2) 1.0411(3)
C13A C -0.4323(4) 0.8555(3) 0.9748(3)
C12A C -0.3740(4) 0.8242(3) 0.8594(3)
C11A C -0.2275(4) 0.7795(3) 0.8095(3)
C16A C -0.1402(4) 0.7671(3) 0.8735(3)
C15A C -0.2002(4) 0.7976(3) 0.9886(3)
H13A H -0.1397 0.7880 1.0330
H14A H -0.0388 0.7375 0.8384
H11A H -0.4343 0.8334 0.8148
H12A H -0.5333 0.8869 1.0090
H15A H -0.3564 0.9249 1.1832
H16A H -0.5142 0.9107 1.1903
O1A O -0.2229(2) 0.81913(19) 1.28871(19)
C10A C -0.0059(4) 0.5387(3) 1.3151(3)
C9A C 0.0948(4) 0.4418(3) 1.2774(3)
H9A H 0.1796 0.4411 1.2090
H10A H 0.0098 0.6044 1.2713
H7A H -0.2316 0.4459 1.5476
H8A H -0.0639 0.2815 1.4830
C22 C 0.0936(4) 0.8421(3) 0.1500(3)
D1 D -0.0148 0.8585 0.1724
Cl1 Cl 0.1245(3) 0.8211(3) 0.2776(3)
Cl2 Cl 0.1582(4) 0.7270(3) 0.0598(3)
Cl3 Cl 0.1564(3) 0.9592(2) 0.0789(3)
C24 C 0.7234(12) 0.0476(7) 0.4122(8)
D3 D 0.7257 -0.0241 0.3784
Cl7 Cl 0.7543(5) 0.0148(4) 0.5397(3)
Cl8 Cl 0.8582(3) 0.1051(2) 0.3102(4)
Cl9 Cl 0.54660(16) 0.12917(11) 0.43484(14)
C23? C 0.0936(4) 0.8421(3) 0.1500(3)
D2? D -0.0113 0.8350 0.1875
Cl4? Cl 0.1515(4) 0.8974(4) 0.2421(5)
Cl5? Cl 0.2105(4) 0.7122(3) 0.1028(4)
Cl6? Cl 0.1267(4) 0.9200(4) 0.0223(4)
C25? C 0.714(2) 0.0428(18) 0.3756(16)
D4? D 0.7089 -0.0374 0.3788
Cl10? Cl 0.54660(16) 0.12917(11) 0.43484(14)
Cl11? Cl 0.8043(12) 0.0779(10) 0.4545(10)
Cl12? Cl 0.7928(6) 0.0937(4) 0.2338(5)
loop_
_geom_bond_atom_site_label_1
_geom_bond_atom_site_label_2
_geom_bond_site_symmetry_1
_geom_bond_site_symmetry_2
C1 N1 1_555 1_555
C2 H1 1_555 1_555
H2 C2 1_555 1_555
C3 H3 1_555 1_555
H4 C3 1_555 1_555
C4 H5 1_555 1_555
H6 C4 1_555 1_555
C5 C4 1_555 1_555
C6 C5 1_555 1_555
H7 C6 1_555 1_555
C7 C6 1_555 1_555
H8 C7 1_555 1_555
C8 C7 1_555 1_555
C9 C8 1_555 1_555
H9 C9 1_555 1_555
C10 C5 1_555 1_555
H10 C10 1_555 1_555
C11 C12 1_555 1_555
C12 H11 1_555 1_555
C13 C12 1_555 1_555
H12 C13 1_555 1_555
C14 C13 1_555 1_555
C15 C14 1_555 1_555
H13 C15 1_555 1_555
C16 C11 1_555 1_555
H14 C16 1_555 1_555
C17 C14 1_555 1_555
H15 C17 1_555 1_555
H16 C17 1_555 1_555
C18 C19 1_555 1_555
C19 H17 1_555 1_555
H18 C19 1_555 1_555
H19 C19 1_555 1_555
C20 C18 1_555 1_555
H20 C20 1_555 1_555
H21 C20 1_555 1_555
H22 C20 1_555 1_555
C21 C18 1_555 1_555
H23 C21 1_555 1_555
H24 C21 1_555 1_555
H25 C21 1_555 1_555
C22 D1 1_555 1_555
Cl1 C22 1_555 1_555
Cl2 C22 1_555 1_555
Cl3 C22 1_555 1_555
C24 D3 1_555 1_555
Cl7 C24 1_555 1_555
Cl8 C24 1_555 1_555
Cl9 C24 1_555 1_555
N1 C2 1_555 1_555
N2 C2 1_555 1_555
N3 C1 1_555 1_555
O1 C1 1_555 1_555
O2 C8 1_555 1_555
O2A C11 1_555 1_555
C8A O2A 1_555 1_555
C7A C8A 1_555 1_555
C6A C7A 1_555 1_555
C5A C6A 1_555 1_555
C4A C5A 1_555 1_555
H5A C4A 1_555 1_555
H6A C4A 1_555 1_555
N1A C4A 1_555 1_555
C1A N1A 1_555 1_555
N3A C1A 1_555 1_555
C3A N3A 1_555 1_555
H3A C3A 1_555 1_555
H4A C3A 1_555 1_555
N2A C3A 1_555 1_555
C2A N1A 1_555 1_555
H1A C2A 1_555 1_555
H2A C2A 1_555 1_555
C18A N2A 1_555 1_555
C19A C18A 1_555 1_555
H17A C19A 1_555 1_555
H18A C19A 1_555 1_555
H19A C19A 1_555 1_555
C20A C18A 1_555 1_555
H20A C20A 1_555 1_555
H21A C20A 1_555 1_555
H22A C20A 1_555 1_555
C21A C18A 1_555 1_555
H23A C21A 1_555 1_555
H24A C21A 1_555 1_555
H25A C21A 1_555 1_555
C17A N3A 1_555 1_555
C14A C17A 1_555 1_555
C13A C14A 1_555 1_555
C12A C13A 1_555 1_555
C11A O2 1_555 1_555
C16A C11A 1_555 1_555
C15A C14A 1_555 1_555
H13A C15A 1_555 1_555
H14A C16A 1_555 1_555
H11A C12A 1_555 1_555
H12A C13A 1_555 1_555
H15A C17A 1_555 1_555
H16A C17A 1_555 1_555
O1A C1A 1_555 1_555
C10A C5A 1_555 1_555
C9A C8A 1_555 1_555
H9A C9A 1_555 1_555
H10A C10A 1_555 1_555
H7A C6A 1_555 1_555
H8A C7A 1_555 1_555
C3 N2 1_555 1_555
C3 N3 1_555 1_555
C4 N1 1_555 1_555
C9 C10 1_555 1_555
C15 C16 1_555 1_555
C17 N3 1_555 1_555
C18 N2 1_555 1_555
N2A C2A 1_555 1_555
C12A C11A 1_555 1_555
C16A C15A 1_555 1_555
C10A C9A 1_555 1_555

#END
