
#######################################################################
#
#                 Cambridge Crystallographic Data Centre
#                                CCDC 
#
#######################################################################
#
# If this CIF has been generated from an entry in the Cambridge 
# Structural Database, then it will include bibliographic, chemical, 
# crystal, experimental, refinement or atomic coordinate data resulting 
# from the CCDC's data processing and validation procedures.
#
#######################################################################

data_INUJEH
_chemical_formula_moiety         'C32 H32 N2 O5 S1,0.45(C1 H2 Cl2)'
_chemical_name_systematic        
'5-Ethoxy-7-(p-tosyl)-2,8-diphenyl-3a,4,6,7,8,9,9a,9b-octahydro-1H-pyrrolo[3,4-f]isoquinoline-1,3(2H)-dione dichloromethane solvate'
_symmetry_cell_setting           triclinic
_symmetry_space_group_name_H-M   'P -1'
_symmetry_Int_Tables_number      2
_space_group_name_Hall           '-P 1'
loop_
_symmetry_equiv_pos_site_id
_symmetry_equiv_pos_as_xyz
1 x,y,z
2 -x,-y,-z
_cell_length_a                   12.2338(14)
_cell_length_b                   16.5844(19)
_cell_length_c                   16.8081(19)
_cell_angle_alpha                105.4510(10)
_cell_angle_beta                 107.8450(11)
_cell_angle_gamma                98.4020(10)
_cell_volume                     3030.87
_exptl_crystal_colour            colorless
_exptl_crystal_description       platelet
_cell_formula_units_Z            4
loop_
_atom_site_label
_atom_site_type_symbol
_atom_site_fract_x
_atom_site_fract_y
_atom_site_fract_z
S1 S 0.88501(10) 0.15830(8) 0.21358(8)
O1 O 1.0051(2) 0.1874(2) 0.2736(2)
O2 O 0.8171(3) 0.07381(19) 0.1976(2)
O3 O 0.5269(2) 0.13073(17) 0.01976(19)
O4 O 0.7837(2) 0.2489(2) -0.14656(19)
O5 O 0.4286(2) 0.29889(19) -0.14642(18)
N1 N 0.8878(2) 0.16389(19) 0.1192(2)
N2 N 0.5939(3) 0.26265(19) -0.1687(2)
C1 C 0.8679(4) 0.3171(3) 0.3014(3)
H1 H 0.9495 0.3347 0.3167
C2 C 0.8062(5) 0.3754(3) 0.3282(3)
H2 H 0.8473 0.4321 0.3623
C3 C 0.6852(5) 0.3518(3) 0.3057(3)
C4 C 0.6272(4) 0.2673(3) 0.2569(3)
H3 H 0.5457 0.2497 0.2421
C5 C 0.6874(4) 0.2078(3) 0.2294(3)
H4 H 0.6464 0.1509 0.1957
C6 C 0.8083(3) 0.2328(3) 0.2520(3)
C7 C 0.6170(5) 0.4159(3) 0.3326(4)
H5 H 0.6692 0.4632 0.3839
H6 H 0.5539 0.3882 0.3464
H7 H 0.5844 0.4370 0.2849
C8 C 0.9752(3) 0.2368(2) 0.1199(3)
H8 H 0.9980 0.2833 0.1764
C9 C 1.0867(3) 0.2102(3) 0.1126(2)
C10 C 1.1880(3) 0.2741(3) 0.1373(3)
H9 H 1.1877 0.3316 0.1606
C11 C 1.2901(4) 0.2540(4) 0.1281(4)
H10 H 1.3581 0.2979 0.1462
C12 C 1.2921(5) 0.1719(5) 0.0933(3)
H11 H 1.3603 0.1586 0.0857
C13 C 1.1924(5) 0.1079(4) 0.0690(4)
H12 H 1.1935 0.0506 0.0460
C14 C 1.0900(4) 0.1273(3) 0.0782(3)
H13 H 1.0226 0.0830 0.0606
C15 C 0.9186(3) 0.2714(2) 0.0456(2)
H14 H 0.9085 0.2304 -0.0110
H15 H 0.9705 0.3253 0.0534
C16 C 0.7980(3) 0.2862(2) 0.0458(2)
H16 H 0.8109 0.3252 0.1048
C17 C 0.7162(3) 0.2020(2) 0.0319(2)
C18 C 0.7755(3) 0.1305(2) 0.0413(3)
H17 H 0.7233 0.0852 0.0484
H18 H 0.7920 0.1061 -0.0118
C19 C 0.6044(3) 0.2024(2) 0.0242(2)
C20 C 0.5661(3) 0.2851(2) 0.0308(3)
H19 H 0.5957 0.3213 0.0925
H20 H 0.4803 0.2722 0.0093
C21 C 0.6114(3) 0.3342(2) -0.0225(2)
H21 H 0.6127 0.3953 0.0010
C22 C 0.7347(3) 0.3268(2) -0.0222(2)
H22 H 0.7834 0.3848 -0.0081
C23 C 0.7133(3) 0.2754(2) -0.1170(3)
C24 C 0.5323(3) 0.2988(2) -0.1174(3)
C25 C 0.5424(4) 0.2191(3) -0.2629(3)
C26 C 0.6040(5) 0.2345(3) -0.3155(3)
H23 H 0.6783 0.2729 -0.2910
C27 C 0.5517(7) 0.1907(4) -0.4077(4)
H24 H 0.5922 0.2000 -0.4443
C28 C 0.4428(7) 0.1351(4) -0.4432(4)
H25 H 0.4095 0.1061 -0.5039
C29 C 0.3819(5) 0.1218(3) -0.3902(4)
H26 H 0.3067 0.0844 -0.4152
C30 C 0.4308(4) 0.1631(3) -0.3000(3)
H27 H 0.3891 0.1535 -0.2642
C31 C 0.4334(4) 0.0896(3) -0.0664(3)
H28 H 0.4001 0.1333 -0.0867
H29 H 0.3707 0.0506 -0.0611
C32 C 0.4773(5) 0.0402(3) -0.1334(4)
H30 H 0.5368 0.0790 -0.1408
H31 H 0.4125 0.0128 -0.1889
H32 H 0.5107 -0.0030 -0.1134
S2 S 0.87403(10) 0.54883(7) 0.21028(7)
O6 O 0.7694(3) 0.48998(16) 0.14306(18)
O7 O 0.9757(3) 0.51786(19) 0.24370(19)
O8 O 1.0833(3) 0.8045(2) 0.4172(2)
O9 O 1.0484(3) 0.89740(19) 0.1368(2)
O10 O 1.1142(3) 1.0536(2) 0.4205(2)
N3 N 0.9131(3) 0.62242(18) 0.16967(19)
N4 N 1.1041(3) 0.98604(19) 0.2795(2)
C33 C 0.9146(4) 0.6193(3) 0.3864(3)
H33 H 0.9886 0.6072 0.3967
C34 C 0.8834(4) 0.6580(3) 0.4572(3)
H34 H 0.9364 0.6706 0.5146
C35 C 0.7762(5) 0.6782(3) 0.4446(3)
C36 C 0.7001(4) 0.6583(3) 0.3585(4)
H35 H 0.6269 0.6716 0.3483
C37 C 0.7288(4) 0.6195(3) 0.2876(3)
H36 H 0.6757 0.6074 0.2303
C38 C 0.8367(3) 0.5985(2) 0.3011(2)
C39 C 0.7440(6) 0.7215(4) 0.5217(4)
H37 H 0.7471 0.7808 0.5263
H38 H 0.7989 0.7188 0.5752
H39 H 0.6652 0.6926 0.5131
C40 C 0.8172(3) 0.6420(2) 0.1034(2)
H40 H 0.7465 0.6353 0.1193
C41 C 0.7854(4) 0.5807(2) 0.0108(3)
C42 C 0.6674(4) 0.5534(3) -0.0462(3)
H41 H 0.6091 0.5702 -0.0256
C43 C 0.6356(6) 0.5010(3) -0.1340(4)
H42 H 0.5568 0.4831 -0.1723
C44 C 0.7228(9) 0.4768(4) -0.1624(4)
H43 H 0.7021 0.4415 -0.2206
C45 C 0.8394(7) 0.5024(3) -0.1083(4)
H44 H 0.8972 0.4852 -0.1293
C46 C 0.8696(4) 0.5546(2) -0.0214(3)
H45 H 0.9487 0.5725 0.0160
C47 C 0.8541(3) 0.7362(2) 0.1080(2)
H46 H 0.9250 0.7450 0.0937
H47 H 0.7914 0.7490 0.0652
C48 C 0.8778(3) 0.7958(2) 0.2005(2)
H48 H 0.8039 0.7842 0.2116
C49 C 0.9683(3) 0.7735(2) 0.2676(3)
C50 C 1.0140(3) 0.6975(2) 0.2330(3)
H49 H 1.0660 0.7131 0.2032
H50 H 1.0594 0.6813 0.2820
C51 C 0.9984(4) 0.8215(3) 0.3526(3)
C52 C 0.9337(4) 0.8902(3) 0.3719(3)
H51 H 0.9704 0.9260 0.4337
H52 H 0.8520 0.8636 0.3607
C53 C 0.9371(4) 0.9459(3) 0.3134(3)
H53 H 0.8802 0.9816 0.3159
C54 C 0.9122(4) 0.8937(2) 0.2168(3)
H54 H 0.8473 0.9095 0.1779
C55 C 1.0250(4) 0.9226(2) 0.2021(3)
C56 C 1.0597(4) 1.0030(3) 0.3462(3)
C57 C 1.2229(4) 1.0270(3) 0.2913(2)
C58 C 1.2507(4) 1.1121(3) 0.2977(3)
H55 H 1.1925 1.1428 0.2925
C59 C 1.3642(4) 1.1518(3) 0.3119(3)
H56 H 1.3829 1.2094 0.3154
C60 C 1.4496(4) 1.1079(4) 0.3207(3)
H57 H 1.5268 1.1356 0.3309
C61 C 1.4231(5) 1.0243(4) 0.3149(4)
H58 H 1.4823 0.9945 0.3212
C62 C 1.3086(5) 0.9825(3) 0.2996(3)
H59 H 1.2902 0.9246 0.2949
C63 C 1.1221(8) 0.8592(6) 0.5046(5)
H60 H 1.1429 0.9180 0.5049
H61 H 1.0558 0.8543 0.5246
C64 C 1.2103(7) 0.8474(7) 0.5616(5)
H62 H 1.2255 0.8870 0.6193
H63 H 1.2792 0.8572 0.5461
H64 H 1.1922 0.7893 0.5620
C65 C 0.2098(17) 0.5005(12) 0.372(2)
H65 H 0.1637 0.4696 0.3971
H66 H 0.1618 0.4899 0.3105
Cl1 Cl 0.2527(8) 0.6150(5) 0.4328(5)
Cl2 Cl 0.3417(8) 0.4644(5) 0.3783(5)
C66? C 0.2468(16) 0.539(2) 0.375(2)
H67? H 0.2294 0.5948 0.3794
H68? H 0.2120 0.5033 0.3133
Cl3? Cl 0.1790(7) 0.4920(6) 0.4345(6)
Cl4? Cl 0.4069(8) 0.5540(7) 0.4113(6)
C67? C 0.372(2) 0.5055(13) 0.417(4)
H69? H 0.4132 0.4988 0.4734
H70? H 0.4167 0.4913 0.3786
Cl5? Cl 0.2211(13) 0.4377(8) 0.3661(9)
Cl6? Cl 0.3534(14) 0.6148(8) 0.4324(9)
loop_
_geom_bond_atom_site_label_1
_geom_bond_atom_site_label_2
_geom_bond_site_symmetry_1
_geom_bond_site_symmetry_2
S1 O1 1_555 1_555
O2 S1 1_555 1_555
O3 C19 1_555 1_555
O4 C23 1_555 1_555
O5 C24 1_555 1_555
N1 S1 1_555 1_555
N2 C23 1_555 1_555
C1 H1 1_555 1_555
C2 C1 1_555 1_555
H2 C2 1_555 1_555
C3 C2 1_555 1_555
C4 C3 1_555 1_555
H3 C4 1_555 1_555
C5 C4 1_555 1_555
H4 C5 1_555 1_555
C6 S1 1_555 1_555
C7 C3 1_555 1_555
H5 C7 1_555 1_555
H6 C7 1_555 1_555
H7 C7 1_555 1_555
C8 N1 1_555 1_555
H8 C8 1_555 1_555
C9 C8 1_555 1_555
C10 C9 1_555 1_555
H9 C10 1_555 1_555
C11 C10 1_555 1_555
H10 C11 1_555 1_555
C12 C11 1_555 1_555
H11 C12 1_555 1_555
C13 C12 1_555 1_555
H12 C13 1_555 1_555
C14 C9 1_555 1_555
H13 C14 1_555 1_555
C15 C8 1_555 1_555
H14 C15 1_555 1_555
H15 C15 1_555 1_555
C16 C15 1_555 1_555
H16 C16 1_555 1_555
C17 C16 1_555 1_555
C18 N1 1_555 1_555
H17 C18 1_555 1_555
H18 C18 1_555 1_555
C19 C17 1_555 1_555
C20 C19 1_555 1_555
H19 C20 1_555 1_555
H20 C20 1_555 1_555
C21 C20 1_555 1_555
H21 C21 1_555 1_555
C22 C16 1_555 1_555
H22 C22 1_555 1_555
C23 C22 1_555 1_555
C24 N2 1_555 1_555
C25 N2 1_555 1_555
C26 C25 1_555 1_555
H23 C26 1_555 1_555
C27 C26 1_555 1_555
H24 C27 1_555 1_555
C28 C27 1_555 1_555
H25 C28 1_555 1_555
C29 C28 1_555 1_555
H26 C29 1_555 1_555
C30 C25 1_555 1_555
H27 C30 1_555 1_555
C31 O3 1_555 1_555
H28 C31 1_555 1_555
H29 C31 1_555 1_555
C32 C31 1_555 1_555
H30 C32 1_555 1_555
H31 C32 1_555 1_555
H32 C32 1_555 1_555
S2 O6 1_555 1_555
O7 S2 1_555 1_555
O8 C51 1_555 1_555
O9 C55 1_555 1_555
O10 C56 1_555 1_555
N3 S2 1_555 1_555
N4 C55 1_555 1_555
C33 H33 1_555 1_555
C34 C33 1_555 1_555
H34 C34 1_555 1_555
C35 C34 1_555 1_555
C36 C35 1_555 1_555
H35 C36 1_555 1_555
C37 C36 1_555 1_555
H36 C37 1_555 1_555
C38 S2 1_555 1_555
C39 C35 1_555 1_555
H37 C39 1_555 1_555
H38 C39 1_555 1_555
H39 C39 1_555 1_555
C40 N3 1_555 1_555
H40 C40 1_555 1_555
C41 C40 1_555 1_555
C42 C41 1_555 1_555
H41 C42 1_555 1_555
C43 C42 1_555 1_555
H42 C43 1_555 1_555
C44 C43 1_555 1_555
H43 C44 1_555 1_555
C45 C44 1_555 1_555
H44 C45 1_555 1_555
C46 C41 1_555 1_555
H45 C46 1_555 1_555
C47 C40 1_555 1_555
H46 C47 1_555 1_555
H47 C47 1_555 1_555
C48 C47 1_555 1_555
H48 C48 1_555 1_555
C49 C48 1_555 1_555
C50 N3 1_555 1_555
H49 C50 1_555 1_555
H50 C50 1_555 1_555
C51 C49 1_555 1_555
C52 C51 1_555 1_555
H51 C52 1_555 1_555
H52 C52 1_555 1_555
C53 C52 1_555 1_555
H53 C53 1_555 1_555
C54 C48 1_555 1_555
H54 C54 1_555 1_555
C55 C54 1_555 1_555
C56 N4 1_555 1_555
C57 N4 1_555 1_555
C58 C57 1_555 1_555
H55 C58 1_555 1_555
C59 C58 1_555 1_555
H56 C59 1_555 1_555
C60 C59 1_555 1_555
H57 C60 1_555 1_555
C61 C60 1_555 1_555
H58 C61 1_555 1_555
C62 C57 1_555 1_555
H59 C62 1_555 1_555
C63 O8 1_555 1_555
H60 C63 1_555 1_555
H61 C63 1_555 1_555
C64 C63 1_555 1_555
H62 C64 1_555 1_555
H63 C64 1_555 1_555
H64 C64 1_555 1_555
C65 H65 1_555 1_555
H66 C65 1_555 1_555
Cl1 C65 1_555 1_555
Cl2 C65 1_555 1_555
C1 C6 1_555 1_555
C5 C6 1_555 1_555
C13 C14 1_555 1_555
C17 C18 1_555 1_555
C21 C22 1_555 1_555
C21 C24 1_555 1_555
C29 C30 1_555 1_555
C33 C38 1_555 1_555
C37 C38 1_555 1_555
C45 C46 1_555 1_555
C49 C50 1_555 1_555
C53 C54 1_555 1_555
C53 C56 1_555 1_555
C61 C62 1_555 1_555

#END
