
#######################################################################
#
#                 Cambridge Crystallographic Data Centre
#                                CCDC 
#
#######################################################################
#
# If this CIF has been generated from an entry in the Cambridge 
# Structural Database, then it will include bibliographic, chemical, 
# crystal, experimental, refinement or atomic coordinate data resulting 
# from the CCDC's data processing and validation procedures.
#
#######################################################################

data_INUJOR
_chemical_formula_moiety         'C28 H25 N5 O3 S1,1.67(C1 H1 Cl3)'
_chemical_name_systematic        
'8-Ethoxy-2-(p-tosyl)-3-phenyl-1,2,3,4,4a,7-hexahydroisoquinoline-5,5,6,6-tetracarbonitrile chloroform solvate'
_symmetry_cell_setting           triclinic
_symmetry_space_group_name_H-M   'P -1'
_symmetry_Int_Tables_number      2
_space_group_name_Hall           '-P 1'
loop_
_symmetry_equiv_pos_site_id
_symmetry_equiv_pos_as_xyz
1 x,y,z
2 -x,-y,-z
_cell_length_a                   11.969(3)
_cell_length_b                   12.469(3)
_cell_length_c                   13.980(5)
_cell_angle_alpha                106.824(3)
_cell_angle_beta                 92.882(3)
_cell_angle_gamma                115.793(2)
_cell_volume                     1760.14
_exptl_crystal_colour            colorless
_exptl_crystal_description       platelet
_cell_formula_units_Z            2
loop_
_atom_site_label
_atom_site_type_symbol
_atom_site_fract_x
_atom_site_fract_y
_atom_site_fract_z
S1 S 0.31646(7) 0.24771(7) 0.01024(5)
O1 O 0.2831(2) 0.11991(19) 0.00207(16)
O2 O 0.3904(2) 0.3030(2) -0.05665(15)
O3 O 0.1287(2) 0.18519(19) 0.28167(18)
N1 N 0.3974(2) 0.3364(2) 0.12602(16)
N2 N 0.0954(3) 0.5273(3) 0.2158(3)
N3 N 0.4350(3) 0.8228(3) 0.4272(3)
N4 N 0.1205(3) 0.6503(3) 0.5283(3)
N5 N 0.4244(3) 0.5619(3) 0.5648(2)
C1 C 0.0724(3) 0.1809(3) 0.0304(2)
H1 H 0.0788 0.1252 0.0598
C2 C -0.0393(3) 0.1892(4) 0.0203(3)
H2 H -0.1077 0.1383 0.0430
C3 C -0.0514(3) 0.2716(3) -0.0228(3)
C4 C 0.0505(3) 0.3437(3) -0.0577(3)
H3 H 0.0432 0.3977 -0.0887
C5 C 0.1631(3) 0.3383(3) -0.0481(2)
H4 H 0.2310 0.3892 -0.0712
C6 C 0.1742(3) 0.2566(3) -0.0037(2)
C7 C -0.1725(4) 0.2807(5) -0.0314(4)
H5 H -0.1768 0.3299 0.0339
H6 H -0.2436 0.1970 -0.0536
H7 H -0.1746 0.3209 -0.0801
C8 C 0.4758(2) 0.4744(2) 0.1516(2)
H8 H 0.4876 0.4902 0.0872
C9 C 0.6081(3) 0.5186(3) 0.2130(2)
C10 C 0.6614(3) 0.4379(3) 0.1952(3)
H9 H 0.6152 0.3556 0.1487
C11 C 0.7825(3) 0.4784(4) 0.2457(3)
H10 H 0.8173 0.4232 0.2331
C12 C 0.8519(3) 0.5998(4) 0.3142(3)
H11 H 0.9331 0.6265 0.3484
C13 C 0.8012(3) 0.6810(4) 0.3321(3)
H12 H 0.8483 0.7634 0.3782
C14 C 0.6794(3) 0.6412(3) 0.2816(3)
H13 H 0.6456 0.6973 0.2939
C15 C 0.4041(3) 0.5434(3) 0.2038(2)
H14 H 0.3280 0.5186 0.1563
H15 H 0.4569 0.6343 0.2223
C16 C 0.3674(2) 0.5123(2) 0.30057(19)
H16 H 0.4456 0.5449 0.3501
C17 C 0.2941(2) 0.3696(2) 0.27512(19)
C18 C 0.3523(3) 0.2951(2) 0.21227(19)
H17 H 0.4232 0.3035 0.2562
H18 H 0.2900 0.2060 0.1856
C19 C 0.1915(2) 0.3145(2) 0.3115(2)
C20 C 0.1403(3) 0.3848(3) 0.3876(2)
H19 H 0.1209 0.3477 0.4407
H20 H 0.0623 0.3755 0.3537
C21 C 0.2353(3) 0.5261(3) 0.4362(2)
C22 C 0.2903(2) 0.5784(2) 0.3494(2)
C23 C 0.0090(4) 0.1197(4) 0.2993(4)
H21 H -0.0456 0.1501 0.2760
H22 H 0.0145 0.1385 0.3722
C24 C -0.0481(4) -0.0150(4) 0.2497(4)
H23 H -0.0458 -0.0343 0.1784
H24 H -0.1345 -0.0532 0.2575
H25 H -0.0022 -0.0479 0.2799
C25 C 0.1815(3) 0.5504(3) 0.2731(2)
C26 C 0.3716(3) 0.7167(3) 0.3918(2)
C27 C 0.1720(3) 0.5978(3) 0.4905(3)
C28 C 0.3419(3) 0.5465(3) 0.5100(2)
C29 C 0.5789(5) 0.0135(5) 0.1646(4)
H26 H 0.5981 -0.0342 0.1045
Cl1 Cl 0.5151(4) -0.0835(4) 0.2311(4)
Cl2 Cl 0.4718(2) 0.0585(2) 0.12010(19)
Cl3 Cl 0.7181(3) 0.1487(3) 0.2303(3)
C31 C 0.2803(4) -0.0033(4) 0.4239(3)
H28 H 0.3571 -0.0081 0.4442
Cl10 Cl 0.1875(2) -0.1343(2) 0.3166(2)
Cl11 Cl 0.1966(4) -0.0121(3) 0.5204(2)
Cl12 Cl 0.3250(2) 0.1430(2) 0.4137(3)
Cl4? Cl 0.5965(18) -0.0283(19) 0.2712(12)
Cl5? Cl 0.4609(14) 0.0556(18) 0.1768(15)
Cl6? Cl 0.7152(14) 0.1483(17) 0.1812(17)
C30? C 0.630(3) 0.019(3) 0.202(2)
H27? H 0.6998 0.0301 0.1661
Cl7? Cl 0.498(4) -0.123(3) 0.140(3)
Cl8? Cl 0.667(4) 0.014(3) 0.320(3)
Cl9? Cl 0.593(4) 0.141(3) 0.217(3)
Cl13? Cl 0.238(2) -0.0550(19) 0.2943(7)
Cl14? Cl 0.1752(16) -0.1024(17) 0.4746(15)
Cl15? Cl 0.290(2) 0.1433(12) 0.4756(16)
Cl16? Cl 0.335(2) 0.043(2) 0.3246(13)
Cl17? Cl 0.1509(16) -0.1489(13) 0.3755(19)
Cl18? Cl 0.237(2) 0.095(2) 0.5058(15)
loop_
_geom_bond_atom_site_label_1
_geom_bond_atom_site_label_2
_geom_bond_site_symmetry_1
_geom_bond_site_symmetry_2
S1 O1 1_555 1_555
O2 S1 1_555 1_555
O3 C19 1_555 1_555
N1 S1 1_555 1_555
N2 C25 1_555 1_555
N3 C26 1_555 1_555
N4 C27 1_555 1_555
N5 C28 1_555 1_555
C1 H1 1_555 1_555
C2 C1 1_555 1_555
H2 C2 1_555 1_555
C3 C2 1_555 1_555
C4 C3 1_555 1_555
H3 C4 1_555 1_555
C5 C4 1_555 1_555
H4 C5 1_555 1_555
C6 S1 1_555 1_555
C7 C3 1_555 1_555
H5 C7 1_555 1_555
H6 C7 1_555 1_555
H7 C7 1_555 1_555
C8 N1 1_555 1_555
H8 C8 1_555 1_555
C9 C8 1_555 1_555
C10 C9 1_555 1_555
H9 C10 1_555 1_555
C11 C10 1_555 1_555
H10 C11 1_555 1_555
C12 C11 1_555 1_555
H11 C12 1_555 1_555
C13 C12 1_555 1_555
H12 C13 1_555 1_555
C14 C9 1_555 1_555
H13 C14 1_555 1_555
C15 C8 1_555 1_555
H14 C15 1_555 1_555
H15 C15 1_555 1_555
C16 C15 1_555 1_555
H16 C16 1_555 1_555
C17 C16 1_555 1_555
C18 N1 1_555 1_555
H17 C18 1_555 1_555
H18 C18 1_555 1_555
C19 C17 1_555 1_555
C20 C19 1_555 1_555
H19 C20 1_555 1_555
H20 C20 1_555 1_555
C21 C20 1_555 1_555
C22 C16 1_555 1_555
C23 O3 1_555 1_555
H21 C23 1_555 1_555
H22 C23 1_555 1_555
C24 C23 1_555 1_555
H23 C24 1_555 1_555
H24 C24 1_555 1_555
H25 C24 1_555 1_555
C25 C22 1_555 1_555
C26 C22 1_555 1_555
C27 C21 1_555 1_555
C28 C21 1_555 1_555
C29 H26 1_555 1_555
Cl1 C29 1_555 1_555
Cl2 C29 1_555 1_555
Cl3 C29 1_555 1_555
C31 H28 1_555 1_555
Cl10 C31 1_555 1_555
Cl11 C31 1_555 1_555
Cl12 C31 1_555 1_555
C1 C6 1_555 1_555
C5 C6 1_555 1_555
C13 C14 1_555 1_555
C17 C18 1_555 1_555
C21 C22 1_555 1_555

#END
