
#######################################################################
#
#                 Cambridge Crystallographic Data Centre
#                                CCDC 
#
#######################################################################
#
# If this CIF has been generated from an entry in the Cambridge 
# Structural Database, then it will include bibliographic, chemical, 
# crystal, experimental, refinement or atomic coordinate data resulting 
# from the CCDC's data processing and validation procedures.
#
#######################################################################

data_INUKAE
_chemical_formula_moiety         'C36 H38 N2 O5 S2'
_chemical_name_systematic        
4-Ethoxy-1,6-bis(p-tosyl)-2,7-diphenyl-1,2,3,5,6,7,8,8a-octahydro-1,6-naphthyridine
_symmetry_cell_setting           monoclinic
_symmetry_space_group_name_H-M   'P 21/n'
_symmetry_Int_Tables_number      14
_space_group_name_Hall           '-P 2yn'
loop_
_symmetry_equiv_pos_site_id
_symmetry_equiv_pos_as_xyz
1 x,y,z
2 1/2-x,1/2+y,1/2-z
3 -x,-y,-z
4 1/2+x,1/2-y,1/2+z
_cell_length_a                   16.602(3)
_cell_length_b                   9.4679(16)
_cell_length_c                   20.711(4)
_cell_angle_alpha                90
_cell_angle_beta                 98.673(2)
_cell_angle_gamma                90
_cell_volume                     3218.25
_exptl_crystal_colour            colorless
_exptl_crystal_description       platelet
_cell_formula_units_Z            4
loop_
_atom_site_label
_atom_site_type_symbol
_atom_site_fract_x
_atom_site_fract_y
_atom_site_fract_z
S1 S 0.59762(3) 0.71399(4) 1.06545(2)
S2 S 0.71209(3) 0.41866(4) 0.824119(19)
O1 O 0.53442(8) 0.61379(14) 1.07193(7)
O2 O 0.62060(9) 0.81667(14) 1.11566(6)
O3 O 0.68810(8) 0.29929(12) 0.85927(6)
O4 O 0.76588(8) 0.39672(14) 0.77687(6)
O5 O 0.80966(9) 0.91885(14) 0.97410(6)
N1 N 0.67918(9) 0.62174(14) 1.05924(6)
N2 N 0.75747(8) 0.53234(14) 0.87726(6)
C1 C 0.60121(15) 0.9412(2) 0.98526(10)
H1 H 0.6315 0.9870 1.0219
C2 C 0.58629(14) 1.0098(2) 0.92570(11)
H2 H 0.6067 1.1027 0.9219
C3 C 0.54239(12) 0.9461(2) 0.87166(9)
C4 C 0.51259(13) 0.8110(2) 0.87896(10)
H3 H 0.4813 0.7662 0.8425
C5 C 0.52714(11) 0.73967(19) 0.93807(9)
H4 H 0.5067 0.6468 0.9419
C6 C 0.57179(10) 0.80575(17) 0.99129(8)
C7 C 0.67405(10) 0.47168(17) 1.04000(8)
H5 H 0.6161 0.4492 1.0222
C8 C 0.70093(11) 0.37659(18) 1.09856(8)
C9 C 0.73787(11) 0.42857(19) 1.15830(8)
H6 H 0.7437 0.5277 1.1645
C10 C 0.76659(12) 0.3373(2) 1.20923(9)
H7 H 0.7927 0.3741 1.2497
C11 C 0.75723(13) 0.1934(2) 1.20094(10)
H8 H 0.7770 0.1309 1.2356
C12 C 0.71917(17) 0.1408(2) 1.14242(11)
H9 H 0.7119 0.0418 1.1368
C13 C 0.69125(15) 0.2321(2) 1.09151(10)
H10 H 0.6651 0.1947 1.0512
C14 C 0.72706(11) 0.44345(17) 0.98591(8)
H11 H 0.7850 0.4351 1.0058
H12 H 0.7103 0.3533 0.9636
C15 C 0.71739(10) 0.56417(16) 0.93601(7)
H13 H 0.6580 0.5804 0.9212
C16 C 0.75308(10) 0.69484(17) 0.97115(7)
C17 C 0.75120(10) 0.69763(18) 1.04363(8)
H14 H 0.8012 0.6530 1.0669
H15 H 0.7498 0.7967 1.0586
C18 C 0.77975(10) 0.80263(17) 0.93926(8)
C19 C 0.77510(11) 0.79286(18) 0.86668(8)
H16 H 0.8101 0.8662 0.8511
H17 H 0.7183 0.8087 0.8454
C20 C 0.80381(10) 0.64571(17) 0.84893(8)
H18 H 0.7908 0.6368 0.8004
C21 C 0.89535(10) 0.62512(18) 0.86678(8)
C22 C 0.92942(11) 0.5160(2) 0.90629(9)
H19 H 0.8951 0.4534 0.9255
C23 C 1.01349(12) 0.4973(2) 0.91802(10)
H20 H 1.0363 0.4226 0.9455
C24 C 1.06390(12) 0.5866(2) 0.88998(9)
H21 H 1.1212 0.5729 0.8977
C25 C 1.03076(12) 0.6958(2) 0.85077(10)
H22 H 1.0653 0.7579 0.8316
C26 C 0.94705(11) 0.7153(2) 0.83925(9)
H23 H 0.9247 0.7911 0.8123
C27 C 0.85037(16) 1.0267(2) 0.94478(11)
H24 H 0.8115 1.0786 0.9123
H25 H 0.8934 0.9857 0.9222
C28 C 0.88700(18) 1.1239(2) 0.99758(13)
H26 H 0.8443 1.1597 1.0211
H27 H 0.9131 1.2032 0.9784
H28 H 0.9278 1.0728 1.0280
C29 C 0.62201(10) 0.49750(17) 0.78384(8)
C30 C 0.62631(11) 0.59627(19) 0.73428(8)
H29 H 0.6775 0.6234 0.7231
C31 C 0.55508(12) 0.6539(2) 0.70182(9)
H30 H 0.5578 0.7221 0.6686
C32 C 0.47932(12) 0.6138(2) 0.71688(9)
C33 C 0.47675(12) 0.5167(2) 0.76686(9)
H31 H 0.4255 0.4896 0.7780
C34 C 0.54732(11) 0.45871(19) 0.80069(8)
H32 H 0.5446 0.3932 0.8350
C35 C 0.52708(16) 1.0213(2) 0.80680(10)
H33 H 0.5642 1.1020 0.8075
H34 H 0.4706 1.0548 0.7987
H35 H 0.5365 0.9560 0.7720
C36 C 0.40205(13) 0.6747(3) 0.67926(12)
H36 H 0.3555 0.6471 0.7004
H37 H 0.3945 0.6386 0.6344
H38 H 0.4061 0.7779 0.6786
loop_
_geom_bond_atom_site_label_1
_geom_bond_atom_site_label_2
_geom_bond_site_symmetry_1
_geom_bond_site_symmetry_2
S1 O1 1_555 1_555
S2 O3 1_555 1_555
O2 S1 1_555 1_555
O4 S2 1_555 1_555
O5 C18 1_555 1_555
N1 S1 1_555 1_555
N2 S2 1_555 1_555
C1 H1 1_555 1_555
C2 C1 1_555 1_555
H2 C2 1_555 1_555
C3 C2 1_555 1_555
C4 C3 1_555 1_555
H3 C4 1_555 1_555
C5 C4 1_555 1_555
H4 C5 1_555 1_555
C6 S1 1_555 1_555
C7 N1 1_555 1_555
H5 C7 1_555 1_555
C8 C7 1_555 1_555
C9 C8 1_555 1_555
H6 C9 1_555 1_555
C10 C9 1_555 1_555
H7 C10 1_555 1_555
C11 C10 1_555 1_555
H8 C11 1_555 1_555
C12 C11 1_555 1_555
H9 C12 1_555 1_555
C13 C8 1_555 1_555
H10 C13 1_555 1_555
C14 C7 1_555 1_555
H11 C14 1_555 1_555
H12 C14 1_555 1_555
C15 N2 1_555 1_555
H13 C15 1_555 1_555
C16 C15 1_555 1_555
C17 N1 1_555 1_555
H14 C17 1_555 1_555
H15 C17 1_555 1_555
C18 C16 1_555 1_555
C19 C18 1_555 1_555
H16 C19 1_555 1_555
H17 C19 1_555 1_555
C20 N2 1_555 1_555
H18 C20 1_555 1_555
C21 C20 1_555 1_555
C22 C21 1_555 1_555
H19 C22 1_555 1_555
C23 C22 1_555 1_555
H20 C23 1_555 1_555
C24 C23 1_555 1_555
H21 C24 1_555 1_555
C25 C24 1_555 1_555
H22 C25 1_555 1_555
C26 C21 1_555 1_555
H23 C26 1_555 1_555
C27 O5 1_555 1_555
H24 C27 1_555 1_555
H25 C27 1_555 1_555
C28 C27 1_555 1_555
H26 C28 1_555 1_555
H27 C28 1_555 1_555
H28 C28 1_555 1_555
C29 S2 1_555 1_555
C30 C29 1_555 1_555
H29 C30 1_555 1_555
C31 C30 1_555 1_555
H30 C31 1_555 1_555
C32 C31 1_555 1_555
C33 C32 1_555 1_555
H31 C33 1_555 1_555
C34 C29 1_555 1_555
H32 C34 1_555 1_555
C35 C3 1_555 1_555
H33 C35 1_555 1_555
H34 C35 1_555 1_555
H35 C35 1_555 1_555
C36 C32 1_555 1_555
H36 C36 1_555 1_555
H37 C36 1_555 1_555
H38 C36 1_555 1_555
C1 C6 1_555 1_555
C5 C6 1_555 1_555
C12 C13 1_555 1_555
C14 C15 1_555 1_555
C16 C17 1_555 1_555
C19 C20 1_555 1_555
C25 C26 1_555 1_555
C33 C34 1_555 1_555

#END
