
#######################################################################
#
#                 Cambridge Crystallographic Data Centre
#                                CCDC 
#
#######################################################################
#
# If this CIF has been generated from an entry in the Cambridge 
# Structural Database, then it will include bibliographic, chemical, 
# crystal, experimental, refinement or atomic coordinate data resulting 
# from the CCDC's data processing and validation procedures.
#
#######################################################################

data_INUKIM
_chemical_formula_moiety         'C30 H27 Cl1 N2 O5 S1'
_chemical_name_systematic        
8-(3-Chlorophenyl)-7-p-tosyl-2-phenyloctahydro-1H-pyrrolo[3,4-f]isoquinoline-1,3,5(2H,4H)-trione
_symmetry_cell_setting           orthorhombic
_symmetry_space_group_name_H-M   'P b c a'
_symmetry_Int_Tables_number      61
_space_group_name_Hall           '-P 2ac 2ab'
loop_
_symmetry_equiv_pos_site_id
_symmetry_equiv_pos_as_xyz
1 x,y,z
2 1/2-x,-y,1/2+z
3 -x,1/2+y,1/2-z
4 1/2+x,1/2-y,-z
5 -x,-y,-z
6 1/2+x,y,1/2-z
7 x,1/2-y,1/2+z
8 1/2-x,1/2+y,z
_cell_length_a                   10.4022(5)
_cell_length_b                   15.8689(8)
_cell_length_c                   31.4885(17)
_cell_angle_alpha                90
_cell_angle_beta                 90
_cell_angle_gamma                90
_cell_volume                     5197.85
_exptl_crystal_colour            colorless
_exptl_crystal_description       block
_cell_formula_units_Z            8
loop_
_atom_site_label
_atom_site_type_symbol
_atom_site_fract_x
_atom_site_fract_y
_atom_site_fract_z
S1 S 0.85727(4) 0.11158(3) 0.460631(13)
O1 O 0.94089(11) 0.09451(8) 0.49589(4)
O2 O 0.79292(12) 0.19125(7) 0.45762(4)
O3 O 0.77791(13) -0.16514(8) 0.36293(4)
O4 O 0.64438(12) -0.05686(9) 0.23593(4)
O5 O 0.6889(3) 0.13906(17) 0.30967(6)
N1 N 0.94668(13) 0.10339(9) 0.41786(4)
N2 N 0.68532(13) -0.12166(9) 0.30005(4)
C1 C 0.61432(16) 0.05296(11) 0.44609(5)
H1 H 0.5942 0.1088 0.4374
C2 C 0.52124(16) -0.00958(12) 0.44520(5)
H2 H 0.4367 0.0040 0.4361
C3 C 0.54945(16) -0.09178(11) 0.45738(5)
C4 C 0.67417(16) -0.11043(11) 0.47116(5)
H3 H 0.6948 -0.1663 0.4796
C5 C 0.76768(16) -0.04865(11) 0.47268(5)
H4 H 0.8518 -0.0618 0.4824
C6 C 0.73763(15) 0.03282(10) 0.45988(5)
C7 C 0.44891(18) -0.16013(12) 0.45650(6)
H5 H 0.4721 -0.2023 0.4351
H6 H 0.3653 -0.1355 0.4493
H7 H 0.4439 -0.1870 0.4845
C8 C 1.04514(15) 0.03546(11) 0.41418(5)
H8 H 1.0610 0.0125 0.4433
Cl1 Cl 1.39563(5) 0.26393(3) 0.435317(17)
C9 C 1.1733(2) 0.07153(17) 0.39751(9)
C10 C 1.2465(2) 0.03751(16) 0.36473(7)
H9 H 1.2167 -0.0111 0.3502
C11 C 1.3634(2) 0.07415(15) 0.35304(7)
H10 H 1.4120 0.0503 0.3305
C12 C 1.4093(2) 0.14486(15) 0.37397(7)
H11 H 1.4881 0.1703 0.3657
C13 C 1.3378(2) 0.17773(13) 0.40727(7)
C14 C 1.2208(2) 0.14232(14) 0.41902(7)
H12 H 1.1728 0.1662 0.4417
C15 C 0.99547(15) -0.03709(11) 0.38643(5)
H13 H 1.0660 -0.0778 0.3815
H14 H 0.9256 -0.0668 0.4016
C16 C 0.94494(15) -0.00569(11) 0.34361(5)
H15 H 1.0180 0.0235 0.3291
C17 C 0.83964(16) 0.06072(11) 0.35085(5)
H16 H 0.7680 0.0338 0.3671
C18 C 0.89328(16) 0.13375(11) 0.37741(5)
H17 H 0.9614 0.1630 0.3611
H18 H 0.8238 0.1748 0.3832
C19 C 0.7859(2) 0.09360(13) 0.30920(6)
C20 C 0.84656(18) 0.05897(11) 0.26930(5)
H19 H 0.9350 0.0812 0.2664
H20 H 0.7965 0.0775 0.2443
C21 C 0.85049(16) -0.03819(11) 0.27075(5)
H21 H 0.9060 -0.0595 0.2472
C22 C 0.89818(15) -0.07511(11) 0.31343(5)
H22 H 0.9713 -0.1143 0.3076
C23 C 0.71583(16) -0.07171(12) 0.26523(5)
C24 C 0.78533(16) -0.12624(11) 0.33025(5)
C25 C 0.56366(16) -0.16308(11) 0.30453(5)
C26 C 0.52326(18) -0.21847(11) 0.27302(6)
H23 H 0.5773 -0.2303 0.2494
C27 C 0.40364(19) -0.25617(12) 0.27632(6)
H24 H 0.3746 -0.2935 0.2547
C28 C 0.32622(17) -0.23940(12) 0.31117(6)
H25 H 0.2442 -0.2654 0.3134
C29 C 0.36750(17) -0.18503(11) 0.34273(6)
H26 H 0.3141 -0.1742 0.3666
C30 C 0.48717(16) -0.14624(11) 0.33957(5)
H27 H 0.5160 -0.1088 0.3611
C31? C 1.2492(7) 0.0670(4) 0.3749(2)
C32? C 1.3625(6) 0.1111(5) 0.36753(19)
C33? C 1.3954(5) 0.1788(4) 0.3933(2)
C34? C 1.3151(6) 0.2025(4) 0.4265(2)
C35? C 1.2018(6) 0.1585(4) 0.43389(19)
C36? C 1.1688(5) 0.0907(4) 0.4081(2)
Cl2? Cl 1.4664(2) 0.08310(16) 0.32828(8)
H28? H 1.2267 0.0207 0.3573
H29? H 1.4729 0.2089 0.3883
H30? H 1.3375 0.2488 0.4441
H31? H 1.1468 0.1747 0.4566
O6? O 0.7482(10) 0.1672(5) 0.3029(3)
loop_
_geom_bond_atom_site_label_1
_geom_bond_atom_site_label_2
_geom_bond_site_symmetry_1
_geom_bond_site_symmetry_2
S1 O1 1_555 1_555
O2 S1 1_555 1_555
O3 C24 1_555 1_555
O4 C23 1_555 1_555
O5 C19 1_555 1_555
N1 S1 1_555 1_555
N2 C23 1_555 1_555
C1 H1 1_555 1_555
C2 C1 1_555 1_555
H2 C2 1_555 1_555
C3 C2 1_555 1_555
C4 C3 1_555 1_555
H3 C4 1_555 1_555
C5 C4 1_555 1_555
H4 C5 1_555 1_555
C6 S1 1_555 1_555
C7 C3 1_555 1_555
H5 C7 1_555 1_555
H6 C7 1_555 1_555
H7 C7 1_555 1_555
C8 N1 1_555 1_555
H8 C8 1_555 1_555
Cl1 C13 1_555 1_555
C9 C8 1_555 1_555
C10 C9 1_555 1_555
H9 C10 1_555 1_555
C11 C10 1_555 1_555
H10 C11 1_555 1_555
C12 C11 1_555 1_555
H11 C12 1_555 1_555
C13 C12 1_555 1_555
C14 C9 1_555 1_555
H12 C14 1_555 1_555
C15 C8 1_555 1_555
H13 C15 1_555 1_555
H14 C15 1_555 1_555
C16 C15 1_555 1_555
H15 C16 1_555 1_555
C17 C16 1_555 1_555
H16 C17 1_555 1_555
C18 N1 1_555 1_555
H17 C18 1_555 1_555
H18 C18 1_555 1_555
C19 C17 1_555 1_555
C20 C19 1_555 1_555
H19 C20 1_555 1_555
H20 C20 1_555 1_555
C21 C20 1_555 1_555
H21 C21 1_555 1_555
C22 C16 1_555 1_555
H22 C22 1_555 1_555
C23 C21 1_555 1_555
C24 N2 1_555 1_555
C25 N2 1_555 1_555
C26 C25 1_555 1_555
H23 C26 1_555 1_555
C27 C26 1_555 1_555
H24 C27 1_555 1_555
C28 C27 1_555 1_555
H25 C28 1_555 1_555
C29 C28 1_555 1_555
H26 C29 1_555 1_555
C30 C25 1_555 1_555
H27 C30 1_555 1_555
C1 C6 1_555 1_555
C5 C6 1_555 1_555
C13 C14 1_555 1_555
C17 C18 1_555 1_555
C21 C22 1_555 1_555
C22 C24 1_555 1_555
C29 C30 1_555 1_555

#END
