
#######################################################################
#
#                 Cambridge Crystallographic Data Centre
#                                CCDC 
#
#######################################################################
#
# If this CIF has been generated from an entry in the Cambridge 
# Structural Database, then it will include bibliographic, chemical, 
# crystal, experimental, refinement or atomic coordinate data resulting 
# from the CCDC's data processing and validation procedures.
#
#######################################################################

data_INULIN
_chemical_formula_moiety         'C27 H23 N5 O3 S1,0.4(C1 H1 Cl3)'
_chemical_name_systematic        
'7-Ethoxy-1-phenyl-2-p-tosyl-2,3,3a,6-tetrahydro-1H-isoindole-4,4,5,5-tetracarbonitrile chloroform solvate'
_symmetry_cell_setting           triclinic
_symmetry_space_group_name_H-M   'P -1'
_symmetry_Int_Tables_number      2
_space_group_name_Hall           '-P 1'
loop_
_symmetry_equiv_pos_site_id
_symmetry_equiv_pos_as_xyz
1 x,y,z
2 -x,-y,-z
_cell_length_a                   9.2118(9)
_cell_length_b                   11.7694(11)
_cell_length_c                   26.932(3)
_cell_angle_alpha                97.2710(10)
_cell_angle_beta                 96.8360(11)
_cell_angle_gamma                102.4640(10)
_cell_volume                     2795.69
_exptl_crystal_colour            colorless
_exptl_crystal_description       block
_cell_formula_units_Z            4
loop_
_atom_site_label
_atom_site_type_symbol
_atom_site_fract_x
_atom_site_fract_y
_atom_site_fract_z
C1 C 0.7098(12) 0.6897(7) 0.3091(3)
H1 H 0.8159 0.6888 0.3218
Cl1 Cl 0.6047(6) 0.6895(2) 0.36111(13)
Cl2 Cl 0.6316(5) 0.5659(2) 0.26541(12)
Cl3 Cl 0.7093(6) 0.8132(2) 0.28242(12)
S1 S 0.28905(4) 1.01758(3) 0.210742(14)
O1 O 0.43553(14) 1.00766(11) 0.23236(4)
O2 O 0.21445(16) 1.09566(11) 0.23779(5)
O3 O 0.60473(12) 1.07529(10) 0.04767(4)
N1 N 0.29691(16) 1.05960(12) 0.15543(5)
N2 N 0.09807(17) 1.08139(14) -0.04299(6)
N3 N 0.33016(18) 1.44175(14) -0.03015(6)
N4 N 0.03865(17) 1.35891(13) 0.05780(6)
N5 N 0.49803(17) 1.43506(13) 0.12161(6)
C2 C 0.17065(18) 0.87536(14) 0.19685(6)
C3 C 0.22518(19) 0.77702(15) 0.20502(7)
H2 H 0.3267 0.7856 0.2197
C4 C 0.1289(2) 0.66578(16) 0.19136(7)
H3 H 0.1651 0.5982 0.1972
C5 C -0.0200(2) 0.65198(17) 0.16923(8)
C6 C -0.0719(2) 0.75260(19) 0.16181(9)
H4 H -0.1736 0.7445 0.1474
C7 C 0.0224(2) 0.86383(17) 0.17509(8)
H5 H -0.0136 0.9316 0.1694
C8 C -0.1233(3) 0.5309(2) 0.15310(10)
H6 H -0.0632 0.4717 0.1506
H7 H -0.1829 0.5277 0.1201
H8 H -0.1908 0.5148 0.1782
C9 C 0.25001(18) 1.16692(14) 0.14432(6)
H9 H 0.3207 1.2391 0.1634
H10 H 0.1471 1.1661 0.1517
C10 C 0.25673(17) 1.15584(13) 0.08726(6)
H11 H 0.1636 1.0994 0.0684
C11 C 0.39055(16) 1.10264(12) 0.08217(6)
C12 C 0.41000(17) 1.02958(13) 0.12394(5)
H12 H 0.5131 1.0593 0.1438
C13 C 0.38145(16) 0.89765(13) 0.10688(5)
C14 C 0.24702(17) 0.83608(14) 0.07623(6)
H13 H 0.1747 0.8773 0.0648
C15 C 0.21908(19) 0.71434(14) 0.06247(6)
H14 H 0.1277 0.6726 0.0417
C16 C 0.3252(2) 0.65392(14) 0.07918(6)
H15 H 0.3058 0.5709 0.0698
C17 C 0.45903(19) 0.71435(14) 0.10943(6)
H16 H 0.5312 0.6729 0.1207
C18 C 0.48725(17) 0.83683(13) 0.12326(6)
H17 H 0.5789 0.8785 0.1439
C19 C 0.48628(16) 1.12837(13) 0.04956(6)
C20 C 0.47154(17) 1.21166(14) 0.01218(6)
H18 H 0.4805 1.1733 -0.0219
H19 H 0.5548 1.2830 0.0218
C21 C 0.31956(17) 1.24837(13) 0.00988(6)
C22 C 0.27903(16) 1.27297(13) 0.06542(6)
C23 C 0.75202(17) 1.15627(14) 0.05983(6)
H20 H 0.7511 1.2263 0.0431
H21 H 0.8282 1.1173 0.0469
C24 C 0.7934(3) 1.1940(3) 0.11584(8)
H22 H 0.7203 1.2356 0.1284
H23 H 0.8940 1.2467 0.1234
H24 H 0.7928 1.1246 0.1325
C25 C 0.19519(18) 1.15351(14) -0.02037(6)
C26 C 0.32670(18) 1.35641(14) -0.01378(6)
C27 C 0.14235(18) 1.32031(14) 0.06239(6)
C28 C 0.40402(18) 1.36402(13) 0.09676(6)
O4 O 0.39068(15) 0.17294(12) 0.45349(5)
O5 O 0.49155(14) 0.30174(12) 0.39260(5)
O6 O -0.22700(14) 0.06531(12) 0.40037(5)
N6 N 0.22557(15) 0.19735(12) 0.37842(5)
N7 N -0.0888(2) 0.45408(16) 0.35664(8)
N8 N 0.04685(19) 0.34461(15) 0.21463(6)
N9 N -0.4141(2) 0.30246(18) 0.23014(9)
N10 N -0.21626(18) 0.00851(16) 0.21221(6)
C29 C 0.3628(2) 0.48922(16) 0.43939(7)
H25 H 0.4143 0.4995 0.4112
C30 C 0.3178(2) 0.58299(17) 0.46485(7)
H26 H 0.3394 0.6576 0.4539
C31 C 0.2416(2) 0.56916(18) 0.50631(7)
C32 C 0.2150(2) 0.45997(18) 0.52289(7)
H27 H 0.1661 0.4503 0.5517
C33 C 0.2589(2) 0.36518(17) 0.49802(6)
H28 H 0.2399 0.2911 0.5096
C34 C 0.33133(18) 0.38012(15) 0.45572(6)
C35 C 0.1919(2) 0.6712(2) 0.53339(9)
H29 H 0.2319 0.7430 0.5198
H30 H 0.2298 0.6822 0.5697
H31 H 0.0818 0.6547 0.5283
C36 C 0.18503(19) 0.27071(15) 0.34080(6)
H32 H 0.2572 0.2797 0.3163
H33 H 0.1806 0.3497 0.3574
C37 C 0.02939(17) 0.19918(14) 0.31509(6)
H34 H 0.0417 0.1373 0.2879
C38 C -0.03630(18) 0.14024(14) 0.35641(6)
C39 C 0.09055(18) 0.12181(15) 0.39357(6)
H35 H 0.0792 0.1520 0.4290
C40 C 0.1018(2) -0.00578(16) 0.38934(7)
C41 C 0.1644(3) -0.05648(19) 0.35018(8)
H36 H 0.2047 -0.0101 0.3264
C42 C 0.1683(4) -0.1752(2) 0.34559(11)
H37 H 0.2113 -0.2093 0.3188
C43 C 0.1097(3) -0.2434(2) 0.38001(13)
H38 H 0.1112 -0.3245 0.3767
C44 C 0.0494(3) -0.1931(3) 0.41891(14)
H39 H 0.0099 -0.2396 0.4428
C45 C 0.0453(3) -0.0742(2) 0.42391(10)
H40 H 0.0036 -0.0404 0.4511
C46 C -0.18254(18) 0.11485(14) 0.36016(6)
C47 C -0.29986(18) 0.14764(15) 0.32398(6)
H41 H -0.3375 0.2116 0.3419
H42 H -0.3858 0.0786 0.3130
C48 C -0.23680(18) 0.18876(14) 0.27661(6)
C49 C -0.07345(18) 0.27220(14) 0.29195(6)
C50 C -0.3832(2) 0.00748(19) 0.39856(8)
H43 H -0.4174 -0.0538 0.3682
H44 H -0.4467 0.0653 0.3971
C51 C -0.3948(3) -0.0472(3) 0.44565(10)
H45 H -0.3387 -0.1091 0.4451
H46 H -0.5007 -0.0814 0.4472
H47 H -0.3526 0.0133 0.4754
C52 C -0.0825(2) 0.37500(16) 0.32850(7)
C53 C -0.01124(19) 0.31498(15) 0.24760(6)
C54 C -0.3387(2) 0.25180(17) 0.25045(7)
C55 C -0.22621(18) 0.08628(15) 0.24048(6)
S2 S 0.37427(4) 0.25809(4) 0.420841(15)
C56? C 0.5686(9) 0.6167(9) 0.2863(4)
H48? H 0.6147 0.5513 0.2736
Cl4? Cl 0.3784(6) 0.5579(6) 0.2825(3)
Cl5? Cl 0.6234(4) 0.7291(3) 0.25333(14)
Cl6? Cl 0.6391(6) 0.6593(6) 0.3548(3)
C57? C 0.5686(9) 0.6167(9) 0.2863(4)
H49? H 0.5721 0.5714 0.2526
Cl7? Cl 0.3823(13) 0.5871(11) 0.3003(5)
Cl8? Cl 0.6250(12) 0.8005(9) 0.2837(5)
Cl9? Cl 0.6862(11) 0.5869(9) 0.3294(4)
loop_
_geom_bond_atom_site_label_1
_geom_bond_atom_site_label_2
_geom_bond_site_symmetry_1
_geom_bond_site_symmetry_2
C1 H1 1_555 1_555
Cl1 C1 1_555 1_555
Cl2 C1 1_555 1_555
Cl3 C1 1_555 1_555
S1 O1 1_555 1_555
O2 S1 1_555 1_555
O3 C19 1_555 1_555
N1 S1 1_555 1_555
N2 C25 1_555 1_555
N3 C26 1_555 1_555
N4 C27 1_555 1_555
N5 C28 1_555 1_555
C2 S1 1_555 1_555
C3 C2 1_555 1_555
H2 C3 1_555 1_555
C4 C3 1_555 1_555
H3 C4 1_555 1_555
C5 C4 1_555 1_555
C6 C5 1_555 1_555
H4 C6 1_555 1_555
C7 C2 1_555 1_555
H5 C7 1_555 1_555
C8 C5 1_555 1_555
H6 C8 1_555 1_555
H7 C8 1_555 1_555
H8 C8 1_555 1_555
C9 N1 1_555 1_555
H9 C9 1_555 1_555
H10 C9 1_555 1_555
C10 C9 1_555 1_555
H11 C10 1_555 1_555
C11 C10 1_555 1_555
C12 N1 1_555 1_555
H12 C12 1_555 1_555
C13 C12 1_555 1_555
C14 C13 1_555 1_555
H13 C14 1_555 1_555
C15 C14 1_555 1_555
H14 C15 1_555 1_555
C16 C15 1_555 1_555
H15 C16 1_555 1_555
C17 C16 1_555 1_555
H16 C17 1_555 1_555
C18 C13 1_555 1_555
H17 C18 1_555 1_555
C19 C11 1_555 1_555
C20 C19 1_555 1_555
H18 C20 1_555 1_555
H19 C20 1_555 1_555
C21 C20 1_555 1_555
C22 C10 1_555 1_555
C23 O3 1_555 1_555
H20 C23 1_555 1_555
H21 C23 1_555 1_555
C24 C23 1_555 1_555
H22 C24 1_555 1_555
H23 C24 1_555 1_555
H24 C24 1_555 1_555
C25 C21 1_555 1_555
C26 C21 1_555 1_555
C27 C22 1_555 1_555
C28 C22 1_555 1_555
O4 S2 1_555 1_555
O5 S2 1_555 1_555
O6 C46 1_555 1_555
N6 C36 1_555 1_555
N7 C52 1_555 1_555
N8 C53 1_555 1_555
N9 C54 1_555 1_555
N10 C55 1_555 1_555
C29 H25 1_555 1_555
C30 C29 1_555 1_555
H26 C30 1_555 1_555
C31 C30 1_555 1_555
C32 C31 1_555 1_555
H27 C32 1_555 1_555
C33 C32 1_555 1_555
H28 C33 1_555 1_555
C34 C29 1_555 1_555
C35 C31 1_555 1_555
H29 C35 1_555 1_555
H30 C35 1_555 1_555
H31 C35 1_555 1_555
C36 H32 1_555 1_555
H33 C36 1_555 1_555
C37 C36 1_555 1_555
H34 C37 1_555 1_555
C38 C37 1_555 1_555
C39 N6 1_555 1_555
H35 C39 1_555 1_555
C40 C39 1_555 1_555
C41 C40 1_555 1_555
H36 C41 1_555 1_555
C42 C41 1_555 1_555
H37 C42 1_555 1_555
C43 C42 1_555 1_555
H38 C43 1_555 1_555
C44 C43 1_555 1_555
H39 C44 1_555 1_555
C45 C40 1_555 1_555
H40 C45 1_555 1_555
C46 C38 1_555 1_555
C47 C46 1_555 1_555
H41 C47 1_555 1_555
H42 C47 1_555 1_555
C48 C47 1_555 1_555
C49 C37 1_555 1_555
C50 O6 1_555 1_555
H43 C50 1_555 1_555
H44 C50 1_555 1_555
C51 C50 1_555 1_555
H45 C51 1_555 1_555
H46 C51 1_555 1_555
H47 C51 1_555 1_555
C52 C49 1_555 1_555
C53 C49 1_555 1_555
C54 C48 1_555 1_555
C55 C48 1_555 1_555
S2 N6 1_555 1_555
C6 C7 1_555 1_555
C11 C12 1_555 1_555
C17 C18 1_555 1_555
C21 C22 1_555 1_555
C33 C34 1_555 1_555
C34 S2 1_555 1_555
C38 C39 1_555 1_555
C44 C45 1_555 1_555
C48 C49 1_555 1_555

#END
