
#######################################################################
#
#                 Cambridge Crystallographic Data Centre
#                                CCDC 
#
#######################################################################
#
# If this CIF has been generated from an entry in the Cambridge 
# Structural Database, then it will include bibliographic, chemical, 
# crystal, experimental, refinement or atomic coordinate data resulting 
# from the CCDC's data processing and validation procedures.
#
#######################################################################

data_INUMEL
_chemical_name_common            'tabertinggine unknown solvate monohydrate'
_chemical_formula_moiety         'C19 H20 N2 O1,H2 O1'
_chemical_name_systematic        
'1-(3,13-diazapentacyclo[13.3.1.0^1,13^.0^2,10^.0^4,9^]nonadeca-2(10),4,6,8,17-pentaen-17-yl)ethanone unknown solvate monohydrate'
_symmetry_cell_setting           triclinic
_symmetry_space_group_name_H-M   'P -1'
_symmetry_Int_Tables_number      2
_space_group_name_Hall           '-P 1'
loop_
_symmetry_equiv_pos_site_id
_symmetry_equiv_pos_as_xyz
1 x,y,z
2 -x,-y,-z
_cell_length_a                   7.1942(16)
_cell_length_b                   10.7514(12)
_cell_length_c                   13.461(4)
_cell_angle_alpha                106.944(16)
_cell_angle_beta                 95.85(2)
_cell_angle_gamma                98.867(13)
_cell_volume                     972.127
_exptl_crystal_colour            colorless
_exptl_crystal_description       block
_cell_formula_units_Z            2
loop_
_atom_site_label
_atom_site_type_symbol
_atom_site_fract_x
_atom_site_fract_y
_atom_site_fract_z
N1 N 0.3669(4) 0.0056(3) 0.2223(3)
H1 H 0.2977 0.0585 0.2538
N2 N 0.8206(4) 0.1900(3) 0.1763(2)
C1 C 0.6692(5) 0.2612(3) 0.3288(3)
H2 H 0.6728 0.2150 0.3774
C2 C 0.5393(5) 0.0429(3) 0.1920(3)
C3 C 0.6126(5) -0.0651(3) 0.1458(3)
C4 C 0.6987(5) 0.3938(4) 0.3643(3)
C5 C 0.6300(5) 0.1832(3) 0.2124(3)
C6 C 0.3246(6) -0.1318(4) 0.1931(3)
C7 C 0.4773(6) -0.1786(3) 0.1454(3)
C8 C 0.7944(6) -0.0493(3) 0.1037(3)
H3 H 0.7882 -0.1215 0.0395
H4 H 0.8982 -0.0524 0.1544
C9 C 0.5229(6) 0.2636(3) 0.1551(3)
H5 H 0.4849 0.2171 0.0805
H6 H 0.4128 0.2878 0.1864
C10 C 0.4686(7) -0.3157(4) 0.1091(3)
H7 H 0.5673 -0.3493 0.0776
C11 C 0.8563(6) 0.3209(4) 0.1562(3)
H8 H 0.8763 0.3081 0.0840
H9 H 0.9692 0.3777 0.2023
C12 C 0.7388(6) 0.4668(4) 0.4783(4)
C13 C 0.6852(7) 0.3837(3) 0.1766(3)
H10 H 0.6617 0.4328 0.1271
O1 O 0.7642(6) 0.5888(3) 0.5038(3)
C14 C 0.1692(6) -0.2164(4) 0.2047(4)
H11 H 0.0695 -0.1842 0.2359
C15 C 0.6969(6) 0.4733(4) 0.2899(3)
H12 H 0.8118 0.5409 0.3086
H13 H 0.5885 0.5171 0.2952
C16 C 0.8303(6) 0.0794(4) 0.0817(3)
H14 H 0.9551 0.0932 0.0609
H15 H 0.7361 0.0775 0.0240
C17 C 0.3169(8) -0.3993(4) 0.1199(4)
H16 H 0.3115 -0.4902 0.0949
C18 C 0.7428(8) 0.3983(5) 0.5573(4)
H17 H 0.6225 0.3399 0.5478
H18 H 0.7660 0.4621 0.6263
H19 H 0.8423 0.3477 0.5499
C19 C 0.1676(8) -0.3510(4) 0.1680(4)
H20 H 0.0657 -0.4105 0.1756
O2 O 0.1456(5) 0.1912(4) 0.3087(3)
H21 H 0.0420 0.1599 0.3256
H22 H 0.2210 0.2396 0.3640
loop_
_geom_bond_atom_site_label_1
_geom_bond_atom_site_label_2
_geom_bond_site_symmetry_1
_geom_bond_site_symmetry_2
N1 H1 1_555 1_555
N2 C5 1_555 1_555
C1 H2 1_555 1_555
C2 N1 1_555 1_555
C3 C2 1_555 1_555
C4 C1 1_555 1_555
C5 C1 1_555 1_555
C6 N1 1_555 1_555
C7 C3 1_555 1_555
C8 C3 1_555 1_555
H3 C8 1_555 1_555
H4 C8 1_555 1_555
C9 C5 1_555 1_555
H5 C9 1_555 1_555
H6 C9 1_555 1_555
C10 C7 1_555 1_555
H7 C10 1_555 1_555
C11 N2 1_555 1_555
H8 C11 1_555 1_555
H9 C11 1_555 1_555
C12 C4 1_555 1_555
C13 C9 1_555 1_555
H10 C13 1_555 1_555
O1 C12 1_555 1_555
C14 C6 1_555 1_555
H11 C14 1_555 1_555
C15 C4 1_555 1_555
H12 C15 1_555 1_555
H13 C15 1_555 1_555
C16 N2 1_555 1_555
H14 C16 1_555 1_555
H15 C16 1_555 1_555
C17 C10 1_555 1_555
H16 C17 1_555 1_555
C18 C12 1_555 1_555
H17 C18 1_555 1_555
H18 C18 1_555 1_555
H19 C18 1_555 1_555
C19 C14 1_555 1_555
H20 C19 1_555 1_555
O2 H21 1_555 1_555
H22 O2 1_555 1_555
C2 C5 1_555 1_555
C6 C7 1_555 1_555
C8 C16 1_555 1_555
C11 C13 1_555 1_555
C13 C15 1_555 1_555
C17 C19 1_555 1_555

#END
