
#######################################################################
#
#                 Cambridge Crystallographic Data Centre
#                                CCDC 
#
#######################################################################
#
# If this CIF has been generated from an entry in the Cambridge 
# Structural Database, then it will include bibliographic, chemical, 
# crystal, experimental, refinement or atomic coordinate data resulting 
# from the CCDC's data processing and validation procedures.
#
#######################################################################

data_INUQUF
_chemical_name_common            
benzyl(2',4',6'-trimethoxy-5-(trifluoromethyl)biphenyl-2-yl)sulfane
_chemical_formula_moiety         'C23 H21 F3 O3 S1'
_chemical_name_systematic        
2'-(benzylsulfanyl)-2,4,6-trimethoxy-5'-(trifluoromethyl)biphenyl
_symmetry_cell_setting           triclinic
_symmetry_space_group_name_H-M   'P -1'
_symmetry_Int_Tables_number      2
_space_group_name_Hall           '-P 1'
loop_
_symmetry_equiv_pos_site_id
_symmetry_equiv_pos_as_xyz
1 x,y,z
2 -x,-y,-z
_cell_length_a                   7.5818(5)
_cell_length_b                   10.0893(7)
_cell_length_c                   13.6798(9)
_cell_angle_alpha                83.4260(10)
_cell_angle_beta                 83.2270(10)
_cell_angle_gamma                84.2990(10)
_cell_volume                     1028.39
_exptl_crystal_colour            colorless
_exptl_crystal_description       bulk
_cell_formula_units_Z            2
loop_
_atom_site_label
_atom_site_type_symbol
_atom_site_fract_x
_atom_site_fract_y
_atom_site_fract_z
C1 C -0.3919(4) 0.5610(3) 0.3099(2)
C2 C -0.2188(3) 0.4894(3) 0.27379(19)
C3 C -0.1051(4) 0.5495(3) 0.1975(2)
H1 H -0.1351 0.6363 0.1702
C4 C 0.0516(4) 0.4806(3) 0.1624(2)
H2 H 0.1275 0.5218 0.1122
C5 C 0.0972(3) 0.3493(3) 0.2017(2)
C6 C -0.0161(3) 0.2889(2) 0.28000(18)
C7 C -0.1716(3) 0.3603(3) 0.31437(19)
H3 H -0.2464 0.3208 0.3660
C8 C 0.3953(4) 0.3611(3) 0.0597(2)
H4 H 0.3149 0.3920 0.0101
H5 H 0.4300 0.4383 0.0865
C9 C 0.5576(4) 0.2817(3) 0.01445(19)
C10 C 0.5463(4) 0.2094(4) -0.0643(2)
H6 H 0.4378 0.2109 -0.0899
C11 C 0.6935(5) 0.1348(4) -0.1057(3)
H7 H 0.6835 0.0870 -0.1587
C12 C 0.8533(4) 0.1316(3) -0.0684(2)
H8 H 0.9524 0.0811 -0.0958
C13 C 0.8678(4) 0.2033(3) 0.0098(2)
H9 H 0.9768 0.2011 0.0350
C14 C 0.7215(4) 0.2781(3) 0.0508(2)
H10 H 0.7327 0.3266 0.1033
C15 C 0.0303(3) 0.1484(2) 0.32332(18)
C16 C 0.1684(3) 0.1181(3) 0.38340(19)
C17 C 0.2173(3) -0.0128(3) 0.41897(19)
H11 H 0.3114 -0.0318 0.4576
C18 C 0.1246(4) -0.1154(3) 0.39653(19)
C19 C -0.0172(3) -0.0891(3) 0.34005(19)
H12 H -0.0803 -0.1580 0.3262
C20 C -0.0630(3) 0.0438(3) 0.30436(18)
C21 C -0.3103(4) -0.0158(3) 0.2283(2)
H13 H -0.3995 0.0257 0.1876
H14 H -0.3671 -0.0550 0.2898
H15 H -0.2388 -0.0842 0.1947
C22 C 0.0979(4) -0.3512(3) 0.4146(3)
H16 H 0.1529 -0.4324 0.4458
H17 H 0.1081 -0.3552 0.3444
H18 H -0.0257 -0.3407 0.4398
C23 C 0.4043(4) 0.2006(3) 0.4521(2)
H19 H 0.4462 0.2840 0.4626
H20 H 0.4941 0.1518 0.4114
H21 H 0.3794 0.1487 0.5147
O1 O 0.2465(3) 0.22598(19) 0.40425(15)
O2 O -0.2006(3) 0.08181(19) 0.24729(16)
O3 O 0.1844(3) -0.24056(19) 0.43509(15)
F1 F -0.3905(3) 0.69249(18) 0.29621(18)
F2 F -0.5259(3) 0.5315(3) 0.2652(2)
F3 F -0.4395(3) 0.5293(2) 0.40508(16)
S1 S 0.28702(9) 0.25011(7) 0.15758(6)
loop_
_geom_bond_atom_site_label_1
_geom_bond_atom_site_label_2
_geom_bond_site_symmetry_1
_geom_bond_site_symmetry_2
C1 C2 1_555 1_555
C2 C3 1_555 1_555
C3 H1 1_555 1_555
C4 C3 1_555 1_555
H2 C4 1_555 1_555
C5 C4 1_555 1_555
C6 C5 1_555 1_555
C7 C2 1_555 1_555
H3 C7 1_555 1_555
C8 H4 1_555 1_555
H5 C8 1_555 1_555
C9 C8 1_555 1_555
C10 C9 1_555 1_555
H6 C10 1_555 1_555
C11 C10 1_555 1_555
H7 C11 1_555 1_555
C12 C11 1_555 1_555
H8 C12 1_555 1_555
C13 C12 1_555 1_555
H9 C13 1_555 1_555
C14 C9 1_555 1_555
H10 C14 1_555 1_555
C15 C6 1_555 1_555
C16 C15 1_555 1_555
C17 C16 1_555 1_555
H11 C17 1_555 1_555
C18 C17 1_555 1_555
C19 C18 1_555 1_555
H12 C19 1_555 1_555
C20 C15 1_555 1_555
C21 H13 1_555 1_555
H14 C21 1_555 1_555
H15 C21 1_555 1_555
C22 H16 1_555 1_555
H17 C22 1_555 1_555
H18 C22 1_555 1_555
C23 H19 1_555 1_555
H20 C23 1_555 1_555
H21 C23 1_555 1_555
O1 C16 1_555 1_555
O2 C20 1_555 1_555
O3 C18 1_555 1_555
F1 C1 1_555 1_555
F2 C1 1_555 1_555
F3 C1 1_555 1_555
S1 C5 1_555 1_555
C6 C7 1_555 1_555
C8 S1 1_555 1_555
C13 C14 1_555 1_555
C19 C20 1_555 1_555
C21 O2 1_555 1_555
C22 O3 1_555 1_555
C23 O1 1_555 1_555

#END
