
#######################################################################
#
#                 Cambridge Crystallographic Data Centre
#                                CCDC 
#
#######################################################################
#
# If this CIF has been generated from an entry in the Cambridge 
# Structural Database, then it will include bibliographic, chemical, 
# crystal, experimental, refinement or atomic coordinate data resulting 
# from the CCDC's data processing and validation procedures.
#
#######################################################################

data_INUQOZ
_chemical_formula_moiety         'C19 H20 F3 N1 O3 S1,C1 H1 Cl3'
_chemical_name_systematic        
'4-methyl-N-(3-(3-oxopentan-2-yl)-4-(trifluoromethyl)phenyl)benzenesulfonamide chloroform solvate'
_symmetry_cell_setting           triclinic
_symmetry_space_group_name_H-M   'P -1'
_symmetry_Int_Tables_number      2
_space_group_name_Hall           '-P 1'
loop_
_symmetry_equiv_pos_site_id
_symmetry_equiv_pos_as_xyz
1 x,y,z
2 -x,-y,-z
_cell_length_a                   10.2242(13)
_cell_length_b                   10.9396(14)
_cell_length_c                   11.8376(15)
_cell_angle_alpha                97.812(2)
_cell_angle_beta                 113.029(2)
_cell_angle_gamma                99.496(2)
_cell_volume                     1172.13
_exptl_crystal_colour            colorless
_exptl_crystal_description       bulk
_cell_formula_units_Z            2
loop_
_atom_site_label
_atom_site_type_symbol
_atom_site_fract_x
_atom_site_fract_y
_atom_site_fract_z
C1 C 1.0932(4) 0.0106(3) 0.3538(3)
C2 C 0.9882(3) 0.0945(2) 0.3157(3)
C3 C 1.0298(3) 0.2200(3) 0.3818(3)
H1 H 1.1231 0.2509 0.4467
C4 C 0.9355(3) 0.3002(2) 0.3533(3)
H2 H 0.9645 0.3834 0.3995
C5 C 0.7977(3) 0.2548(2) 0.2554(2)
C6 C 0.7567(3) 0.1293(2) 0.1861(3)
H3 H 0.6649 0.1000 0.1188
C7 C 0.8495(3) 0.0480(2) 0.2154(3)
C8 C 0.7949(4) -0.0857(3) 0.1306(3)
H4 H 0.8608 -0.1376 0.1721
C9 C 0.7992(6) -0.0823(4) 0.0021(4)
H5 H 0.8970 -0.0443 0.0150
H6 H 0.7339 -0.0332 -0.0411
H7 H 0.7693 -0.1674 -0.0476
C10 C 0.6440(4) -0.1443(3) 0.1175(4)
C11 C 0.6264(5) -0.1539(3) 0.2364(4)
H8 H 0.7058 -0.0924 0.3065
H9 H 0.6326 -0.2380 0.2521
C12 C 0.4795(8) -0.1297(8) 0.2285(9)
H10 H 0.4725 -0.1363 0.3061
H11 H 0.4006 -0.1916 0.1604
H12 H 0.4737 -0.0461 0.2142
C13 C 0.8097(3) 0.5436(2) 0.1737(3)
C14 C 0.9580(3) 0.6026(3) 0.2361(3)
H13 H 1.0086 0.6091 0.3221
C15 C 1.0290(4) 0.6517(3) 0.1676(3)
H14 H 1.1282 0.6913 0.2085
C16 C 0.9552(4) 0.6429(3) 0.0390(3)
C17 C 0.8061(4) 0.5827(3) -0.0212(3)
H15 H 0.7552 0.5760 -0.1072
C18 C 0.7331(3) 0.5327(3) 0.0455(3)
H16 H 0.6341 0.4925 0.0047
C19 C 1.0318(5) 0.6984(3) -0.0348(4)
H17 H 1.1329 0.7362 0.0203
H18 H 0.9861 0.7621 -0.0713
H19 H 1.0253 0.6324 -0.1004
N1 N 0.6897(3) 0.3256(2) 0.2217(2)
O1 O 0.5445(3) -0.1849(3) 0.0134(3)
O2 O 0.5691(2) 0.49953(18) 0.2031(2)
O3 O 0.8035(2) 0.52383(18) 0.38814(19)
F1 F 1.0394(2) -0.09043(18) 0.3894(2)
F2 F 1.2211(2) 0.07143(19) 0.4508(2)
F3 F 1.1260(2) -0.0369(2) 0.2603(2)
S1 S 0.71407(7) 0.47951(5) 0.25592(6)
H20 H 0.629(4) 0.300(3) 0.166(3)
C20 C 0.5589(5) 0.3215(4) 0.4627(4)
H21 H 0.6152 0.3951 0.4491
Cl1 Cl 0.39738(14) 0.25803(15) 0.32486(12)
Cl2 Cl 0.66498(16) 0.21063(14) 0.49537(12)
Cl3 Cl 0.51850(17) 0.37360(12) 0.58889(12)
loop_
_geom_bond_atom_site_label_1
_geom_bond_atom_site_label_2
_geom_bond_site_symmetry_1
_geom_bond_site_symmetry_2
C1 C2 1_555 1_555
C2 C3 1_555 1_555
C3 H1 1_555 1_555
C4 C3 1_555 1_555
H2 C4 1_555 1_555
C5 C4 1_555 1_555
C6 C5 1_555 1_555
H3 C6 1_555 1_555
C7 C2 1_555 1_555
C8 C7 1_555 1_555
H4 C8 1_555 1_555
C9 C8 1_555 1_555
H5 C9 1_555 1_555
H6 C9 1_555 1_555
H7 C9 1_555 1_555
C10 C8 1_555 1_555
C11 C10 1_555 1_555
H8 C11 1_555 1_555
H9 C11 1_555 1_555
C12 C11 1_555 1_555
H10 C12 1_555 1_555
H11 C12 1_555 1_555
H12 C12 1_555 1_555
C13 C14 1_555 1_555
C14 H13 1_555 1_555
C15 C14 1_555 1_555
H14 C15 1_555 1_555
C16 C15 1_555 1_555
C17 C16 1_555 1_555
H15 C17 1_555 1_555
C18 C13 1_555 1_555
H16 C18 1_555 1_555
C19 C16 1_555 1_555
H17 C19 1_555 1_555
H18 C19 1_555 1_555
H19 C19 1_555 1_555
N1 C5 1_555 1_555
O1 C10 1_555 1_555
O2 S1 1_555 1_555
O3 S1 1_555 1_555
F1 C1 1_555 1_555
F2 C1 1_555 1_555
F3 C1 1_555 1_555
S1 C13 1_555 1_555
H20 N1 1_555 1_555
C20 H21 1_555 1_555
Cl1 C20 1_555 1_555
Cl2 C20 1_555 1_555
Cl3 C20 1_555 1_555
C6 C7 1_555 1_555
C17 C18 1_555 1_555
N1 S1 1_555 1_555

#END
