
#######################################################################
#
#                 Cambridge Crystallographic Data Centre
#                                CCDC 
#
#######################################################################
#
# If this CIF has been generated from an entry in the Cambridge 
# Structural Database, then it will include bibliographic, chemical, 
# crystal, experimental, refinement or atomic coordinate data resulting 
# from the CCDC's data processing and validation procedures.
#
#######################################################################

data_INUSER
_chemical_formula_moiety         'C23 H34 O8,0.67(C1 H4 O1)'
_chemical_name_systematic        
'10-hydroxy-6,10-dimethyl-3-methylene-2,5-dioxododecahydrocyclodeca[b]furan-4,11-diyl bis(2-methylpropanoate) methanol solvate'
_symmetry_cell_setting           triclinic
_symmetry_space_group_name_H-M   'P 1'
_symmetry_Int_Tables_number      1
_space_group_name_Hall           'P 1'
loop_
_symmetry_equiv_pos_site_id
_symmetry_equiv_pos_as_xyz
1 x,y,z
_cell_length_a                   9.7574(3)
_cell_length_b                   10.9450(5)
_cell_length_c                   18.3652(8)
_cell_angle_alpha                102.359(4)
_cell_angle_beta                 99.183(3)
_cell_angle_gamma                101.095(3)
_cell_volume                     1838.34
_cell_formula_units_Z            3
loop_
_atom_site_label
_atom_site_type_symbol
_atom_site_fract_x
_atom_site_fract_y
_atom_site_fract_z
O1 O -0.95290(19) -0.60001(16) -0.43776(10)
O2 O -0.66731(16) -0.08111(14) -0.42558(9)
O3 O -0.58385(16) -0.29296(14) -0.45732(8)
O4 O -0.64196(17) -0.55393(14) -0.30868(9)
O5 O -0.93379(17) -0.19334(15) -0.49484(9)
H1 H -0.8963 -0.1256 -0.5057
O6 O -0.6932(2) -0.75345(15) -0.38473(10)
O7 O -0.47091(18) -0.03564(17) -0.33272(9)
O8 O -0.34943(18) -0.28023(18) -0.43220(10)
C1 C -0.7027(2) -0.3063(2) -0.41847(12)
H2 H -0.7883 -0.3679 -0.4541
C2 C -0.7394(2) -0.1737(2) -0.39098(12)
H3 H -0.7082 -0.1430 -0.3343
C3 C -0.8992(2) -0.1767(2) -0.41432(12)
C4 C -0.9977(2) -0.2932(2) -0.40025(13)
H4 H -1.0976 -0.2933 -0.4214
H5 H -0.9771 -0.3724 -0.4294
C5 C -0.9865(3) -0.3001(2) -0.31687(13)
H6 H -0.8852 -0.2688 -0.2899
H7 H -1.0411 -0.2421 -0.2920
C6 C -1.0429(3) -0.4364(2) -0.30878(14)
H8 H -1.1212 -0.4827 -0.3531
H9 H -1.0838 -0.4298 -0.2625
C7 C -0.9301(3) -0.5169(2) -0.30340(13)
H10 H -0.8477 -0.4670 -0.2610
C8 C -0.8747(2) -0.5476(2) -0.37657(12)
C9 C -0.7127(2) -0.5113(2) -0.37073(12)
H11 H -0.6889 -0.5529 -0.4196
C10 C -0.6533(2) -0.3642(2) -0.35142(12)
H12 H -0.6820 -0.3214 -0.3043
C11 C -0.4939(2) -0.3301(2) -0.34159(13)
C12 C -0.4608(2) -0.2986(2) -0.41263(13)
C13 C -0.9296(3) -0.0508(2) -0.37253(13)
H13 H -0.8645 0.0224 -0.3811
H14 H -0.9153 -0.0454 -0.3178
H15 H -1.0286 -0.0489 -0.3920
C14 C -0.9921(3) -0.6447(2) -0.28572(16)
H16 H -1.0745 -0.6937 -0.3262
H17 H -1.0222 -0.6272 -0.2369
H18 H -0.9190 -0.6946 -0.2828
C15 C -0.3932(3) -0.3203(2) -0.28214(14)
H19 H -0.2956 -0.2922 -0.2838
H20 H -0.4182 -0.3412 -0.2376
C16 C -0.5292(2) -0.0240(2) -0.39269(13)
C17 C -0.4610(3) 0.0566(2) -0.44115(13)
H21 H -0.5025 0.1339 -0.4374
C18 C -0.4946(4) -0.0152(3) -0.52369(16)
H22 H -0.4578 -0.0932 -0.5290
H23 H -0.4495 0.0397 -0.5532
H24 H -0.5982 -0.0389 -0.5428
C19 C -0.3036(4) 0.1033(6) -0.4096(2)
H25 H -0.2868 0.1496 -0.3559
H26 H -0.2617 0.1611 -0.4384
H27 H -0.2594 0.0296 -0.4139
C20 C -0.6364(3) -0.6792(2) -0.32404(14)
C21 C -0.5515(3) -0.7111(2) -0.25749(15)
H28 H -0.5518 -0.8045 -0.2730
C22 C -0.3978(4) -0.6358(5) -0.2397(3)
H29 H -0.3648 -0.6357 -0.2874
H30 H -0.3382 -0.6759 -0.2084
H31 H -0.3909 -0.5471 -0.2118
C23 C -0.6196(5) -0.6908(4) -0.18847(19)
H32 H -0.6187 -0.5995 -0.1710
H33 H -0.5656 -0.7178 -0.1475
H34 H -0.7184 -0.7419 -0.2023
O9 O -0.82486(18) -0.10896(14) -0.07931(9)
O10 O -0.78419(17) -0.57570(15) 0.03046(9)
O11 O -0.62533(19) -0.09327(17) 0.00654(10)
O12 O -1.10115(19) -0.22310(17) -0.14824(10)
H35 H -1.0726 -0.1536 -0.1596
O13 O -1.10888(19) -0.62175(16) -0.08991(10)
O14 O -0.76630(17) -0.32579(14) -0.13144(9)
O15 O -0.8320(2) -0.78209(16) -0.03489(10)
O16 O -0.5372(2) -0.32459(17) -0.12913(11)
C24 C -0.8685(2) -0.3390(2) -0.08218(12)
H36 H -0.9593 -0.4005 -0.1124
C25 C -0.9006(2) -0.2066(2) -0.04887(13)
H37 H -0.8676 -0.1827 0.0078
C26 C -1.0591(3) -0.2054(2) -0.06837(13)
C27 C -1.1552(2) -0.3190(2) -0.05013(13)
H38 H -1.1422 -0.3999 -0.0815
H39 H -1.2560 -0.3157 -0.0661
C28 C -1.1295(3) -0.3250(2) 0.03404(13)
H40 H -1.0261 -0.2935 0.0565
H41 H -1.1797 -0.2662 0.0622
C29 C -1.1800(3) -0.4596(2) 0.04509(14)
H42 H -1.2629 -0.5073 0.0035
H43 H -1.2130 -0.4513 0.0938
C30 C -1.0652(3) -0.5394(2) 0.04609(14)
H44 H -0.9785 -0.4884 0.0855
C31 C -1.0222(3) -0.5724(2) -0.03108(13)
C32 C -0.8640(3) -0.5429(2) -0.03251(12)
H45 H -0.8480 -0.5918 -0.0818
C33 C -0.8002(2) -0.3976(2) -0.01964(12)
H46 H -0.8093 -0.3499 0.0316
C34 C -0.6458(3) -0.3737(2) -0.02533(13)
C35 C -0.6366(3) -0.3391(2) -0.09900(14)
C36 C -1.0806(3) -0.0767(2) -0.02406(16)
H47 H -1.0206 -0.0056 -0.0374
H48 H -1.0536 -0.0686 0.0308
H49 H -1.1811 -0.0740 -0.0374
C37 C -1.1204(3) -0.6665(3) 0.06653(18)
H50 H -1.1507 -0.6481 0.1153
H51 H -1.0440 -0.7127 0.0707
H52 H -1.2017 -0.7197 0.0266
C38 C -0.5308(3) -0.3759(3) 0.02315(16)
H53 H -0.4391 -0.3550 0.0115
H54 H -0.5399 -0.3983 0.0696
C39 C -0.6810(3) -0.0666(2) -0.04859(14)
C40 C -0.6084(3) 0.0181(2) -0.09368(15)
H55 H -0.6340 0.1032 -0.0812
C41 C -0.4466(3) 0.0402(3) -0.06931(19)
H56 H -0.4185 0.0679 -0.0136
H57 H -0.3995 0.1069 -0.0912
H58 H -0.4179 -0.0400 -0.0876
C42 C -0.6563(3) -0.0390(3) -0.17876(15)
H59 H -0.6322 -0.1227 -0.1922
H60 H -0.6079 0.0189 -0.2056
H61 H -0.7599 -0.0502 -0.1937
C43 C -0.7743(3) -0.6990(2) 0.02217(13)
C44 C -0.6825(3) -0.7131(2) 0.09224(14)
H62 H -0.6850 -0.6412 0.1356
C45 C -0.5272(3) -0.6981(3) 0.08362(18)
H63 H -0.5193 -0.7723 0.0452
H64 H -0.4664 -0.6932 0.1326
H65 H -0.4965 -0.6191 0.0676
C46 C -0.7403(3) -0.8380(3) 0.11176(17)
H66 H -0.8352 -0.8386 0.1231
H67 H -0.6758 -0.8457 0.1564
H68 H -0.7474 -0.9106 0.0684
O17 O -0.42693(16) -0.26937(16) -0.79132(9)
O18 O -0.52163(17) -0.06109(15) -0.78117(9)
O19 O -0.78018(17) -0.18247(17) -0.85368(9)
H69 H -0.7154 -0.1350 -0.8670
O20 O -0.81246(18) -0.56459(17) -0.77309(10)
O21 O -0.33239(18) 0.00536(17) -0.68303(9)
O22 O -0.51322(18) -0.51180(16) -0.63673(9)
O23 O -0.1940(2) -0.2541(2) -0.75393(12)
O24 O -0.5017(3) -0.6979(2) -0.71505(13)
C47 C -0.5544(2) -0.2776(2) -0.75901(12)
H70 H -0.6355 -0.3429 -0.7959
C48 C -0.5954(2) -0.1455(2) -0.74174(12)
H71 H -0.5689 -0.1055 -0.6856
C49 C -0.7548(2) -0.1535(2) -0.77145(12)
C50 C -0.8567(2) -0.2660(2) -0.75582(13)
H72 H -0.8304 -0.3467 -0.7782
H73 H -0.9546 -0.2711 -0.7830
C51 C -0.8599(3) -0.2604(2) -0.67157(13)
H74 H -0.7621 -0.2227 -0.6405
H75 H -0.9212 -0.2024 -0.6544
C52 C -0.9153(2) -0.3915(2) -0.65700(13)
H76 H -0.9897 -0.4442 -0.7017
H77 H -0.9613 -0.3785 -0.6126
C53 C -0.8011(2) -0.4676(2) -0.64192(13)
H78 H -0.7225 -0.4124 -0.5990
C54 C -0.7382(2) -0.5068(2) -0.71163(13)
C55 C -0.5752(2) -0.4718(2) -0.70170(12)
H79 H -0.5473 -0.5168 -0.7485
C56 C -0.5167(2) -0.3257(2) -0.68601(12)
H80 H -0.5541 -0.2789 -0.6434
C57 C -0.3563(2) -0.2892(2) -0.66892(13)
C58 C -0.3104(3) -0.2683(2) -0.73948(14)
C59 C -0.7902(3) -0.0255(2) -0.73902(14)
H81 H -0.7234 0.0447 -0.7493
H82 H -0.7821 -0.0119 -0.6838
H83 H -0.8880 -0.0271 -0.7631
C60 C -0.8641(3) -0.5913(3) -0.61978(16)
H84 H -0.9057 -0.5692 -0.5749
H85 H -0.7883 -0.6356 -0.6079
H86 H -0.9384 -0.6480 -0.6624
C61 C -0.2649(3) -0.2725(2) -0.60402(14)
H87 H -0.1652 -0.2460 -0.6013
H88 H -0.2990 -0.2869 -0.5602
C62 C -0.3871(2) 0.0069(2) -0.74575(13)
C63 C -0.3191(3) 0.0786(2) -0.79779(14)
H89 H -0.3885 0.1237 -0.8203
C64 C -0.1847(3) 0.1787(3) -0.75264(17)
H90 H -0.2093 0.2397 -0.7123
H91 H -0.1422 0.2250 -0.7868
H92 H -0.1160 0.1358 -0.7298
C65 C -0.2857(3) -0.0167(3) -0.86234(16)
H93 H -0.2296 -0.0708 -0.8410
H94 H -0.2308 0.0305 -0.8921
H95 H -0.3751 -0.0710 -0.8954
C66 C -0.4770(3) -0.6286(3) -0.65184(16)
C67 C -0.4055(3) -0.6593(3) -0.58160(18)
H96 H -0.3969 -0.7505 -0.5966
C68 C -0.2575(4) -0.5763(4) -0.5540(2)
H97 H -0.2086 -0.5789 -0.5968
H98 H -0.2048 -0.6080 -0.5148
H99 H -0.2620 -0.4875 -0.5324
C69 C -0.4922(4) -0.6500(3) -0.51979(17)
H100 H -0.5129 -0.5646 -0.5083
H101 H -0.4376 -0.6633 -0.4737
H102 H -0.5820 -0.7160 -0.5375
O25 O -0.8542(2) 0.05164(18) -0.53244(11)
H103 H -0.8147 0.1025 -0.4898
C70 C -0.9871(4) 0.0796(3) -0.55936(19)
H104 H -1.0324 0.0211 -0.6094
H105 H -0.9704 0.1687 -0.5638
H106 H -1.0498 0.0683 -0.5234
O26 O -1.0045(3) 0.0243(2) -0.18150(13)
H107 H -0.9617 0.0718 -0.1384
C71 C -1.1322(4) 0.0610(3) -0.2051(2)
H108 H -1.2066 -0.0156 -0.2335
H109 H -1.1155 0.1198 -0.2380
H110 H -1.1630 0.1044 -0.1603
loop_
_geom_bond_atom_site_label_1
_geom_bond_atom_site_label_2
_geom_bond_site_symmetry_1
_geom_bond_site_symmetry_2
O1 C8 1_555 1_555
O2 C2 1_555 1_555
O3 C1 1_555 1_555
O4 C9 1_555 1_555
O5 H1 1_555 1_555
O6 C20 1_555 1_555
O7 C16 1_555 1_555
O8 C12 1_555 1_555
C1 H2 1_555 1_555
C2 C1 1_555 1_555
H3 C2 1_555 1_555
C3 O5 1_555 1_555
C4 C3 1_555 1_555
H4 C4 1_555 1_555
H5 C4 1_555 1_555
C5 C4 1_555 1_555
H6 C5 1_555 1_555
H7 C5 1_555 1_555
C6 C5 1_555 1_555
H8 C6 1_555 1_555
H9 C6 1_555 1_555
C7 C6 1_555 1_555
H10 C7 1_555 1_555
C8 C7 1_555 1_555
C9 C8 1_555 1_555
H11 C9 1_555 1_555
C10 C1 1_555 1_555
H12 C10 1_555 1_555
C11 C10 1_555 1_555
C12 O3 1_555 1_555
C13 C3 1_555 1_555
H13 C13 1_555 1_555
H14 C13 1_555 1_555
H15 C13 1_555 1_555
C14 C7 1_555 1_555
H16 C14 1_555 1_555
H17 C14 1_555 1_555
H18 C14 1_555 1_555
C15 C11 1_555 1_555
H19 C15 1_555 1_555
H20 C15 1_555 1_555
C16 O2 1_555 1_555
C17 C16 1_555 1_555
H21 C17 1_555 1_555
C18 C17 1_555 1_555
H22 C18 1_555 1_555
H23 C18 1_555 1_555
H24 C18 1_555 1_555
C19 C17 1_555 1_555
H25 C19 1_555 1_555
H26 C19 1_555 1_555
H27 C19 1_555 1_555
C20 O4 1_555 1_555
C21 C20 1_555 1_555
H28 C21 1_555 1_555
C22 C21 1_555 1_555
H29 C22 1_555 1_555
H30 C22 1_555 1_555
H31 C22 1_555 1_555
C23 C21 1_555 1_555
H32 C23 1_555 1_555
H33 C23 1_555 1_555
H34 C23 1_555 1_555
O9 C25 1_555 1_555
O10 C32 1_555 1_555
O11 C39 1_555 1_555
O12 H35 1_555 1_555
O13 C31 1_555 1_555
O14 C24 1_555 1_555
O15 C43 1_555 1_555
O16 C35 1_555 1_555
C24 H36 1_555 1_555
C25 C24 1_555 1_555
H37 C25 1_555 1_555
C26 O12 1_555 1_555
C27 C26 1_555 1_555
H38 C27 1_555 1_555
H39 C27 1_555 1_555
C28 C27 1_555 1_555
H40 C28 1_555 1_555
H41 C28 1_555 1_555
C29 C28 1_555 1_555
H42 C29 1_555 1_555
H43 C29 1_555 1_555
C30 C29 1_555 1_555
H44 C30 1_555 1_555
C31 C30 1_555 1_555
C32 C31 1_555 1_555
H45 C32 1_555 1_555
C33 C24 1_555 1_555
H46 C33 1_555 1_555
C34 C33 1_555 1_555
C35 O14 1_555 1_555
C36 C26 1_555 1_555
H47 C36 1_555 1_555
H48 C36 1_555 1_555
H49 C36 1_555 1_555
C37 C30 1_555 1_555
H50 C37 1_555 1_555
H51 C37 1_555 1_555
H52 C37 1_555 1_555
C38 C34 1_555 1_555
H53 C38 1_555 1_555
H54 C38 1_555 1_555
C39 O9 1_555 1_555
C40 C39 1_555 1_555
H55 C40 1_555 1_555
C41 C40 1_555 1_555
H56 C41 1_555 1_555
H57 C41 1_555 1_555
H58 C41 1_555 1_555
C42 C40 1_555 1_555
H59 C42 1_555 1_555
H60 C42 1_555 1_555
H61 C42 1_555 1_555
C43 O10 1_555 1_555
C44 C43 1_555 1_555
H62 C44 1_555 1_555
C45 C44 1_555 1_555
H63 C45 1_555 1_555
H64 C45 1_555 1_555
H65 C45 1_555 1_555
C46 C44 1_555 1_555
H66 C46 1_555 1_555
H67 C46 1_555 1_555
H68 C46 1_555 1_555
O17 C47 1_555 1_555
O18 C48 1_555 1_555
O19 H69 1_555 1_555
O20 C54 1_555 1_555
O21 C62 1_555 1_555
O22 C55 1_555 1_555
O23 C58 1_555 1_555
O24 C66 1_555 1_555
C47 H70 1_555 1_555
C48 C47 1_555 1_555
H71 C48 1_555 1_555
C49 O19 1_555 1_555
C50 C49 1_555 1_555
H72 C50 1_555 1_555
H73 C50 1_555 1_555
C51 C50 1_555 1_555
H74 C51 1_555 1_555
H75 C51 1_555 1_555
C52 C51 1_555 1_555
H76 C52 1_555 1_555
H77 C52 1_555 1_555
C53 C52 1_555 1_555
H78 C53 1_555 1_555
C54 C53 1_555 1_555
C55 C54 1_555 1_555
H79 C55 1_555 1_555
C56 C47 1_555 1_555
H80 C56 1_555 1_555
C57 C56 1_555 1_555
C58 O17 1_555 1_555
C59 C49 1_555 1_555
H81 C59 1_555 1_555
H82 C59 1_555 1_555
H83 C59 1_555 1_555
C60 C53 1_555 1_555
H84 C60 1_555 1_555
H85 C60 1_555 1_555
H86 C60 1_555 1_555
C61 C57 1_555 1_555
H87 C61 1_555 1_555
H88 C61 1_555 1_555
C62 O18 1_555 1_555
C63 C62 1_555 1_555
H89 C63 1_555 1_555
C64 C63 1_555 1_555
H90 C64 1_555 1_555
H91 C64 1_555 1_555
H92 C64 1_555 1_555
C65 C63 1_555 1_555
H93 C65 1_555 1_555
H94 C65 1_555 1_555
H95 C65 1_555 1_555
C66 O22 1_555 1_555
C67 C66 1_555 1_555
H96 C67 1_555 1_555
C68 C67 1_555 1_555
H97 C68 1_555 1_555
H98 C68 1_555 1_555
H99 C68 1_555 1_555
C69 C67 1_555 1_555
H100 C69 1_555 1_555
H101 C69 1_555 1_555
H102 C69 1_555 1_555
O25 H103 1_555 1_555
C70 O25 1_555 1_555
H104 C70 1_555 1_555
H105 C70 1_555 1_555
H106 C70 1_555 1_555
O26 H107 1_555 1_555
C71 O26 1_555 1_555
H108 C71 1_555 1_555
H109 C71 1_555 1_555
H110 C71 1_555 1_555
C2 C3 1_555 1_555
C9 C10 1_555 1_555
C11 C12 1_555 1_555
C25 C26 1_555 1_555
C32 C33 1_555 1_555
C34 C35 1_555 1_555
C48 C49 1_555 1_555
C55 C56 1_555 1_555
C57 C58 1_555 1_555

#END
