
#######################################################################
#
#                 Cambridge Crystallographic Data Centre
#                                CCDC 
#
#######################################################################
#
# If this CIF has been generated from an entry in the Cambridge 
# Structural Database, then it will include bibliographic, chemical, 
# crystal, experimental, refinement or atomic coordinate data resulting 
# from the CCDC's data processing and validation procedures.
#
#######################################################################

data_INUWIZ
_chemical_formula_moiety         'C20 H20 Cl1 N1 O3 S1'
_chemical_name_systematic        
(3S*,3aR*,4R*,6aR*)-4-chloro-1-((4-methylphenyl)sulfonyl)-3-phenylhexahydrocyclopenta[b]pyrrol-2(1H)-one
_symmetry_cell_setting           triclinic
_symmetry_space_group_name_H-M   'P -1'
_symmetry_Int_Tables_number      2
_space_group_name_Hall           '-P 1'
loop_
_symmetry_equiv_pos_site_id
_symmetry_equiv_pos_as_xyz
1 x,y,z
2 -x,-y,-z
_cell_length_a                   8.9843(14)
_cell_length_b                   9.0994(18)
_cell_length_c                   26.868(4)
_cell_angle_alpha                85.128(9)
_cell_angle_beta                 81.710(10)
_cell_angle_gamma                60.414(8)
_cell_volume                     1889.92
_exptl_crystal_colour            colorless
_exptl_crystal_description       prism
_cell_formula_units_Z            4
loop_
_atom_site_label
_atom_site_type_symbol
_atom_site_fract_x
_atom_site_fract_y
_atom_site_fract_z
C1 C 0.7475(11) 0.1951(11) 0.0579(3)
C2 C 0.6552(12) 0.2176(12) 0.0186(3)
H1 H 0.5783 0.3280 0.0073
C3 C 0.6761(13) 0.0778(12) -0.0039(3)
H2 H 0.6159 0.0931 -0.0319
C4 C 0.7822(12) -0.0848(12) 0.0128(3)
C5 C 0.8023(15) -0.2401(14) -0.0111(4)
H3 H 0.7304 -0.2050 -0.0386
H4 H 0.7661 -0.3038 0.0143
H5 H 0.9233 -0.3118 -0.0243
C6 C 0.8722(14) -0.1033(13) 0.0523(4)
H6 H 0.9477 -0.2138 0.0639
C7 C 0.8556(13) 0.0342(12) 0.0755(4)
H7 H 0.9174 0.0190 0.1031
C8 C 0.3879(11) 0.5390(11) 0.1375(3)
H8 H 0.3811 0.6484 0.1247
C9 C 0.2883(13) 0.4928(18) 0.1080(4)
H9 H 0.3672 0.3966 0.0857
H10 H 0.2143 0.5899 0.0871
C10 C 0.1786(14) 0.4441(15) 0.1474(5)
H11 H 0.0689 0.4707 0.1353
H12 H 0.2415 0.3222 0.1562
C11 C 0.1466(11) 0.5515(12) 0.1920(4)
H13 H 0.1165 0.5027 0.2241
C12 C 0.3127(10) 0.5540(9) 0.1924(3)
H14 H 0.2908 0.6617 0.2067
C13 C 0.4455(10) 0.3981(10) 0.2207(3)
H15 H 0.3987 0.3184 0.2291
C14 C 0.4797(10) 0.4412(10) 0.2680(3)
C15 C 0.3868(12) 0.4327(11) 0.3136(3)
H16 H 0.3072 0.3922 0.3141
C16 C 0.4091(13) 0.4823(12) 0.3578(4)
H17 H 0.3420 0.4787 0.3882
C17 C 0.5242(13) 0.5356(13) 0.3588(4)
H18 H 0.5427 0.5640 0.3898
C18 C 0.6128(15) 0.5482(14) 0.3153(5)
H19 H 0.6888 0.5925 0.3156
C19 C 0.5958(13) 0.4972(13) 0.2690(4)
H20 H 0.6639 0.5017 0.2390
C20 C 0.6044(11) 0.3139(10) 0.1827(3)
N1 N 0.5689(8) 0.4068(8) 0.1379(2)
O1 O 0.8743(8) 0.3344(9) 0.1071(3)
O2 O 0.6367(9) 0.5175(8) 0.0562(2)
O3 O 0.7371(8) 0.1888(8) 0.1897(2)
S1 S 0.7198(3) 0.3721(3) 0.08860(8)
Cl1 Cl -0.0233(3) 0.7638(4) 0.18049(10)
C21 C -0.0161(12) 0.3114(11) 0.4413(3)
C22 C -0.1203(13) 0.2910(12) 0.4813(3)
H21 H -0.0946 0.1807 0.4934
C23 C -0.2613(14) 0.4303(12) 0.5038(3)
H22 H -0.3299 0.4141 0.5317
C24 C -0.3057(13) 0.5936(12) 0.4867(3)
C25 C -0.4578(13) 0.7446(13) 0.5116(4)
H23 H -0.4677 0.8478 0.4943
H24 H -0.4424 0.7464 0.5469
H25 H -0.5628 0.7384 0.5100
C26 C -0.1976(15) 0.6110(12) 0.4465(4)
H26 H -0.2230 0.7216 0.4348
C27 C -0.0565(15) 0.4754(13) 0.4231(4)
H27 H 0.0126 0.4916 0.3953
C28 C 0.0650(12) -0.0493(10) 0.3623(3)
H28 H 0.1637 -0.1552 0.3740
C29 C -0.1028(14) -0.0193(15) 0.3918(4)
H29 H -0.1378 0.0628 0.4189
H30 H -0.0933 -0.1261 0.4070
C30 C -0.2302(14) 0.0505(13) 0.3537(5)
H31 H -0.2726 0.1729 0.3476
H32 H -0.3297 0.0320 0.3648
C31 C -0.1247(12) -0.0503(12) 0.3070(4)
H33 H -0.1792 0.0079 0.2760
C32 C 0.0479(11) -0.0618(9) 0.3060(3)
H34 H 0.1421 -0.1713 0.2914
C33 C 0.0586(11) 0.0905(9) 0.2783(3)
H35 H -0.0525 0.1655 0.2641
C34 C 0.2057(11) 0.0368(10) 0.2355(3)
C35 C 0.1712(14) 0.0489(11) 0.1870(3)
H36 H 0.0557 0.0957 0.1799
C36 C 0.304(2) -0.0068(15) 0.1485(4)
H37 H 0.2798 -0.0007 0.1149
C37 C 0.470(2) -0.0706(18) 0.1577(7)
H38 H 0.5606 -0.1091 0.1307
C38 C 0.5074(17) -0.079(2) 0.2061(9)
H39 H 0.6225 -0.1209 0.2129
C39 C 0.3726(12) -0.0257(14) 0.2448(5)
H40 H 0.3967 -0.0325 0.2785
C40 C 0.0789(11) 0.1859(10) 0.3168(3)
N2 N 0.0962(9) 0.0962(8) 0.3623(2)
O4 O 0.2964(8) 0.1759(9) 0.3946(3)
O5 O 0.1985(9) -0.0085(8) 0.4451(2)
O6 O 0.0807(9) 0.3188(7) 0.3109(2)
S2 S 0.1625(3) 0.1356(3) 0.41221(8)
Cl2 Cl -0.1036(5) -0.2585(4) 0.31444(10)
loop_
_geom_bond_atom_site_label_1
_geom_bond_atom_site_label_2
_geom_bond_site_symmetry_1
_geom_bond_site_symmetry_2
C1 C2 1_555 1_555
C2 H1 1_555 1_555
C3 C2 1_555 1_555
H2 C3 1_555 1_555
C4 C3 1_555 1_555
C5 C4 1_555 1_555
H3 C5 1_555 1_555
H4 C5 1_555 1_555
H5 C5 1_555 1_555
C6 C4 1_555 1_555
H6 C6 1_555 1_555
C7 C1 1_555 1_555
H7 C7 1_555 1_555
C8 H8 1_555 1_555
C9 C8 1_555 1_555
H9 C9 1_555 1_555
H10 C9 1_555 1_555
C10 C9 1_555 1_555
H11 C10 1_555 1_555
H12 C10 1_555 1_555
C11 C10 1_555 1_555
H13 C11 1_555 1_555
C12 C8 1_555 1_555
H14 C12 1_555 1_555
C13 C12 1_555 1_555
H15 C13 1_555 1_555
C14 C13 1_555 1_555
C15 C14 1_555 1_555
H16 C15 1_555 1_555
C16 C15 1_555 1_555
H17 C16 1_555 1_555
C17 C16 1_555 1_555
H18 C17 1_555 1_555
C18 C17 1_555 1_555
H19 C18 1_555 1_555
C19 C14 1_555 1_555
H20 C19 1_555 1_555
C20 C13 1_555 1_555
N1 C8 1_555 1_555
O1 S1 1_555 1_555
O2 S1 1_555 1_555
O3 C20 1_555 1_555
S1 C1 1_555 1_555
Cl1 C11 1_555 1_555
C21 C22 1_555 1_555
C22 H21 1_555 1_555
C23 C22 1_555 1_555
H22 C23 1_555 1_555
C24 C23 1_555 1_555
C25 C24 1_555 1_555
H23 C25 1_555 1_555
H24 C25 1_555 1_555
H25 C25 1_555 1_555
C26 C24 1_555 1_555
H26 C26 1_555 1_555
C27 C21 1_555 1_555
H27 C27 1_555 1_555
C28 H28 1_555 1_555
C29 C28 1_555 1_555
H29 C29 1_555 1_555
H30 C29 1_555 1_555
C30 C29 1_555 1_555
H31 C30 1_555 1_555
H32 C30 1_555 1_555
C31 C30 1_555 1_555
H33 C31 1_555 1_555
C32 C28 1_555 1_555
H34 C32 1_555 1_555
C33 C32 1_555 1_555
H35 C33 1_555 1_555
C34 C33 1_555 1_555
C35 C34 1_555 1_555
H36 C35 1_555 1_555
C36 C35 1_555 1_555
H37 C36 1_555 1_555
C37 C36 1_555 1_555
H38 C37 1_555 1_555
C38 C37 1_555 1_555
H39 C38 1_555 1_555
C39 C34 1_555 1_555
H40 C39 1_555 1_555
C40 C33 1_555 1_555
N2 C28 1_555 1_555
O4 S2 1_555 1_555
O5 S2 1_555 1_555
O6 C40 1_555 1_555
S2 C21 1_555 1_555
Cl2 C31 1_555 1_555
C6 C7 1_555 1_555
C11 C12 1_555 1_555
C18 C19 1_555 1_555
C20 N1 1_555 1_555
N1 S1 1_555 1_555
C26 C27 1_555 1_555
C31 C32 1_555 1_555
C38 C39 1_555 1_555
C40 N2 1_555 1_555
N2 S2 1_555 1_555

#END
