
#######################################################################
#
#                 Cambridge Crystallographic Data Centre
#                                CCDC 
#
#######################################################################
#
# If this CIF has been generated from an entry in the Cambridge 
# Structural Database, then it will include bibliographic, chemical, 
# crystal, experimental, refinement or atomic coordinate data resulting 
# from the CCDC's data processing and validation procedures.
#
#######################################################################

data_INUXUM
_chemical_formula_moiety         'C39 H26 N1 1+,C1 F3 O3 S1 1-'
_chemical_name_systematic        
'4,5,9,10-tetraphenylquinolizino[3,4,5,6-ija]quinolinium trifluoromethanesulfonate'
_symmetry_cell_setting           monoclinic
_symmetry_space_group_name_H-M   'C 2/c'
_symmetry_Int_Tables_number      15
_space_group_name_Hall           '-C 2yn'
loop_
_symmetry_equiv_pos_site_id
_symmetry_equiv_pos_as_xyz
1 x,y,z
2 -x,y,1/2-z
3 1/2+x,1/2+y,z
4 1/2-x,1/2+y,1/2-z
5 -x,-y,-z
6 x,-y,1/2+z
7 1/2-x,1/2-y,-z
8 1/2+x,1/2-y,1/2+z
_cell_length_a                   26.374(3)
_cell_length_b                   7.9979(9)
_cell_length_c                   15.0584(18)
_cell_angle_alpha                90
_cell_angle_beta                 99.855(2)
_cell_angle_gamma                90
_cell_volume                     3129.5
_exptl_crystal_colour            colorless
_exptl_crystal_description       Prism
_cell_formula_units_Z            4
_exptl_crystal_preparation       Fiber
loop_
_atom_site_label
_atom_site_type_symbol
_atom_site_fract_x
_atom_site_fract_y
_atom_site_fract_z
N1 N 0.49025(6) 0.79620(18) 0.20394(10)
C1 C 0.43660(6) 0.8027(2) 0.17382(12)
C2 C 0.41817(6) 0.8122(2) 0.08164(12)
H1 H 0.3821 0.8190 0.0610
C3 C 0.45097(7) 0.8118(2) 0.01962(12)
H2 H 0.4377 0.8201 -0.0430
C4 C 0.50340(7) 0.7992(2) 0.04928(12)
H3 H 0.5260 0.7961 0.0064
C5 C 0.52373(6) 0.7911(2) 0.14071(12)
C6 C 0.57839(7) 0.7810(2) 0.17201(12)
C7 C 0.61298(6) 0.7585(2) 0.10406(11)
C8 C 0.61182(7) 0.6101(2) 0.05563(13)
H4 H 0.5888 0.5234 0.0656
C9 C 0.64418(7) 0.5883(3) -0.00724(13)
H5 H 0.6432 0.4867 -0.0402
C10 C 0.67789(7) 0.7138(3) -0.02192(13)
H6 H 0.7001 0.6985 -0.0647
C11 C 0.67911(7) 0.8620(3) 0.02602(12)
H7 H 0.7021 0.9485 0.0159
C12 C 0.64682(6) 0.8846(2) 0.08872(12)
H8 H 0.6478 0.9866 0.1213
C13 C 0.59767(6) 0.7926(2) 0.26145(12)
C14 C 0.65435(7) 0.7856(2) 0.29507(11)
C15 C 0.68033(7) 0.6341(3) 0.29614(12)
H9 H 0.6620 0.5350 0.2760
C16 C 0.73316(8) 0.6279(3) 0.32671(14)
H10 H 0.7509 0.5244 0.3274
C17 C 0.75994(7) 0.7719(3) 0.35604(14)
H11 H 0.7960 0.7670 0.3770
C18 C 0.73437(7) 0.9227(3) 0.35487(13)
H12 H 0.7528 1.0215 0.3748
C19 C 0.68147(7) 0.9299(3) 0.32445(12)
H13 H 0.6639 1.0337 0.3238
N1A N 0.50975(6) 0.79620(18) 0.29606(10)
C1A C 0.56340(6) 0.8027(2) 0.32618(12)
C2A C 0.58183(6) 0.8122(2) 0.41836(12)
H1A H 0.6179 0.8190 0.4390
C3A C 0.54903(7) 0.8118(2) 0.48038(12)
H2A H 0.5623 0.8201 0.5430
C4A C 0.49660(7) 0.7992(2) 0.45072(12)
H3A H 0.4740 0.7961 0.4936
C5A C 0.47627(6) 0.7911(2) 0.35929(12)
C6A C 0.42161(7) 0.7810(2) 0.32799(12)
C7A C 0.38702(6) 0.7585(2) 0.39594(11)
C8A C 0.38818(7) 0.6101(2) 0.44437(13)
H4A H 0.4112 0.5234 0.4344
C9A C 0.35582(7) 0.5883(3) 0.50724(13)
H5A H 0.3568 0.4867 0.5402
C10A C 0.32211(7) 0.7138(3) 0.52192(13)
H6A H 0.2999 0.6985 0.5647
C11A C 0.32089(7) 0.8620(3) 0.47398(12)
H7A H 0.2979 0.9485 0.4841
C12A C 0.35318(6) 0.8846(2) 0.41128(12)
H8A H 0.3522 0.9866 0.3787
C13A C 0.40233(6) 0.7926(2) 0.23855(12)
C14A C 0.34565(7) 0.7856(2) 0.20493(11)
C15A C 0.31967(7) 0.6341(3) 0.20386(12)
H9A H 0.3380 0.5350 0.2240
C16A C 0.26684(8) 0.6279(3) 0.17329(14)
H10A H 0.2491 0.5244 0.1726
C17A C 0.24006(7) 0.7719(3) 0.14396(14)
H11A H 0.2040 0.7670 0.1230
C18A C 0.26563(7) 0.9227(3) 0.14513(13)
H12A H 0.2472 1.0215 0.1252
C19A C 0.31853(7) 0.9299(3) 0.17555(12)
H13A H 0.3361 1.0337 0.1762
S1 S 0.46647(6) 0.27656(15) 0.22551(8)
O1 O 0.43513(18) 0.1942(5) 0.2827(3)
O2 O 0.4807(2) 0.1675(6) 0.1606(3)
O3 O 0.4467(2) 0.4349(5) 0.1931(4)
F1 F 0.54874(17) 0.1833(5) 0.3369(3)
F2 F 0.51948(18) 0.4219(4) 0.3673(2)
F3 F 0.55846(18) 0.3997(6) 0.2547(3)
C20 C 0.5202(2) 0.3274(6) 0.3010(3)
S1A S 0.53353(6) 0.27656(15) 0.27449(8)
O1A O 0.56487(18) 0.1942(5) 0.2173(3)
O2A O 0.5193(2) 0.1675(6) 0.3394(3)
O3A O 0.5533(2) 0.4349(5) 0.3069(4)
F1A F 0.45126(17) 0.1833(5) 0.1631(3)
F2A F 0.48052(18) 0.4219(4) 0.1327(2)
F3A F 0.44154(18) 0.3997(6) 0.2453(3)
C20A C 0.4798(2) 0.3274(6) 0.1990(3)
C21? C 0.49025(6) 0.79620(18) 0.20394(10)
loop_
_geom_bond_atom_site_label_1
_geom_bond_atom_site_label_2
_geom_bond_site_symmetry_1
_geom_bond_site_symmetry_2
N1 C1 1_555 1_555
C1 C2 1_555 1_555
C2 H1 1_555 1_555
C3 C2 1_555 1_555
H2 C3 1_555 1_555
C4 C3 1_555 1_555
H3 C4 1_555 1_555
C5 N1 1_555 1_555
C6 C5 1_555 1_555
C7 C6 1_555 1_555
C8 C7 1_555 1_555
H4 C8 1_555 1_555
C9 C8 1_555 1_555
H5 C9 1_555 1_555
C10 C9 1_555 1_555
H6 C10 1_555 1_555
C11 C10 1_555 1_555
H7 C11 1_555 1_555
C12 C7 1_555 1_555
H8 C12 1_555 1_555
C13 C6 1_555 1_555
C14 C13 1_555 1_555
C15 C14 1_555 1_555
H9 C15 1_555 1_555
C16 C15 1_555 1_555
H10 C16 1_555 1_555
C17 C16 1_555 1_555
H11 C17 1_555 1_555
C18 C17 1_555 1_555
H12 C18 1_555 1_555
C19 C14 1_555 1_555
H13 C19 1_555 1_555
S1 O1 1_555 1_555
O1 F3A 1_555 1_555
O2 S1 1_555 1_555
O3 S1 1_555 1_555
F1 C20 1_555 1_555
F2 C20 1_555 1_555
F3 C20 1_555 1_555
C20 S1 1_555 1_555
N1A N1 1_555 1_555
C1A C13 1_555 1_555
C2A C1A 1_555 1_555
H1A C2A 1_555 1_555
C3A C2A 1_555 1_555
H2A C3A 1_555 1_555
C4A C3A 1_555 1_555
H3A C4A 1_555 1_555
C5A N1A 1_555 1_555
C6A C5A 1_555 1_555
C7A C6A 1_555 1_555
C8A C7A 1_555 1_555
H4A C8A 1_555 1_555
C9A C8A 1_555 1_555
H5A C9A 1_555 1_555
C10A C9A 1_555 1_555
H6A C10A 1_555 1_555
C11A C10A 1_555 1_555
H7A C11A 1_555 1_555
C12A C7A 1_555 1_555
H8A C12A 1_555 1_555
C13A C1 1_555 1_555
C14A C13A 1_555 1_555
C15A C14A 1_555 1_555
H9A C15A 1_555 1_555
C16A C15A 1_555 1_555
H10A C16A 1_555 1_555
C17A C16A 1_555 1_555
H11A C17A 1_555 1_555
C18A C17A 1_555 1_555
H12A C18A 1_555 1_555
C19A C14A 1_555 1_555
H13A C19A 1_555 1_555
S1A S1 1_555 1_555
O1A F3 1_555 1_555
O2A F1 1_555 1_555
O3A F2 1_555 1_555
F1A S1 1_555 1_555
F2A S1 1_555 1_555
F3A S1 1_555 1_555
C20A S1 1_555 1_555
C4 C5 1_555 1_555
C11 C12 1_555 1_555
C18 C19 1_555 1_555
O2 F1A 1_555 1_555
O2 C20A 1_555 1_555
O3 F2A 1_555 1_555
O3 F3A 1_555 1_555
O3 C20A 1_555 1_555
F1 S1A 1_555 1_555
F2 S1A 1_555 1_555
F3 S1A 1_555 1_555
F3 O3A 1_555 1_555
C20 S1A 1_555 1_555
C20 O2A 1_555 1_555
C20 O3A 1_555 1_555
C20 C20A 1_555 1_555
N1A C1A 1_555 1_555
C4A C5A 1_555 1_555
C6A C13A 1_555 1_555
C11A C12A 1_555 1_555
C18A C19A 1_555 1_555
S1A O1A 1_555 1_555
S1A O2A 1_555 1_555
S1A O3A 1_555 1_555
S1A C20A 1_555 1_555
F1A C20A 1_555 1_555
F2A C20A 1_555 1_555
F3A C20A 1_555 1_555

#END
