
#######################################################################
#
#                 Cambridge Crystallographic Data Centre
#                                CCDC 
#
#######################################################################
#
# If this CIF has been generated from an entry in the Cambridge 
# Structural Database, then it will include bibliographic, chemical, 
# crystal, experimental, refinement or atomic coordinate data resulting 
# from the CCDC's data processing and validation procedures.
#
#######################################################################

data_INUYUL
_chemical_formula_moiety         'C25 H29 N1 O1'
_chemical_name_systematic        
4-(4'-Cyanophenyl)-1-(4'-(octyloxy)phenyl)butadiene
_symmetry_cell_setting           monoclinic
_symmetry_space_group_name_H-M   'P 21/c'
_symmetry_Int_Tables_number      14
_space_group_name_Hall           '-P 2ybc'
loop_
_symmetry_equiv_pos_site_id
_symmetry_equiv_pos_as_xyz
1 x,y,z
2 x,1/2-y,1/2+z
3 -x,-y,-z
4 -x,1/2+y,1/2-z
_cell_length_a                   8.8931(8)
_cell_length_b                   6.1431(5)
_cell_length_c                   37.907(3)
_cell_angle_alpha                90
_cell_angle_beta                 91.066(6)
_cell_angle_gamma                90
_cell_volume                     2070.55
_exptl_crystal_colour            colorless
_exptl_crystal_description       plate
_cell_formula_units_Z            4
_exptl_crystal_preparation       fluorescent
loop_
_atom_site_label
_atom_site_type_symbol
_atom_site_fract_x
_atom_site_fract_y
_atom_site_fract_z
O1 O 0.31864(16) 0.6873(2) 1.00659(4)
N1 N -0.3597(2) -0.9079(3) 0.72280(5)
C1 C -0.2883(2) -0.7975(4) 0.74089(6)
C2 C -0.1998(2) -0.6610(4) 0.76415(5)
C3 C -0.0642(2) -0.7375(4) 0.77835(5)
H1 H -0.0275 -0.8745 0.7716
C4 C 0.0166(2) -0.6116(4) 0.80240(5)
H2 H 0.1085 -0.6639 0.8116
C5 C -0.0363(2) -0.4084(3) 0.81312(5)
C6 C -0.1714(2) -0.3321(4) 0.79800(5)
H3 H -0.2075 -0.1940 0.8044
C7 C -0.2526(2) -0.4559(4) 0.77387(5)
H4 H -0.3431 -0.4022 0.7641
C8 C 0.0489(2) -0.2861(4) 0.83998(5)
H5 H 0.1416 -0.3455 0.8474
C9 C 0.0083(2) -0.0985(4) 0.85496(5)
H6 H -0.0817 -0.0339 0.8468
C10 C 0.0908(2) 0.0131(3) 0.88259(5)
H7 H 0.1811 -0.0488 0.8911
C11 C 0.0446(2) 0.2013(4) 0.89674(5)
H8 H -0.0447 0.2601 0.8871
C12 C 0.1164(2) 0.3259(3) 0.92529(5)
C13 C 0.2485(2) 0.2621(4) 0.94287(5)
H9 H 0.2958 0.1320 0.9362
C14 C 0.3110(2) 0.3850(4) 0.96961(5)
H10 H 0.4005 0.3387 0.9808
C15 C 0.2431(2) 0.5775(4) 0.98028(5)
C16 C 0.1121(2) 0.6454(4) 0.96366(5)
H11 H 0.0649 0.7749 0.9706
C17 C 0.0506(2) 0.5197(4) 0.93644(6)
H12 H -0.0385 0.5672 0.9252
C18 C 0.2521(2) 0.8778(3) 1.02166(5)
H13 H 0.1632 0.8380 1.0351
H14 H 0.2212 0.9799 1.0030
C19 C 0.3694(2) 0.9809(3) 1.04560(5)
H15 H 0.4541 1.0292 1.0314
H16 H 0.4072 0.8714 1.0624
C20 C 0.3084(2) 1.1743(3) 1.06599(5)
H17 H 0.2261 1.1244 1.0808
H18 H 0.2670 1.2807 1.0492
C21 C 0.4264(2) 1.2862(4) 1.08931(5)
H19 H 0.4717 1.1784 1.1053
H20 H 0.5063 1.3432 1.0744
C22 C 0.3627(2) 1.4716(4) 1.11094(5)
H21 H 0.2845 1.4129 1.1262
H22 H 0.3144 1.5761 1.0948
C23 C 0.4773(2) 1.5927(4) 1.13390(5)
H23 H 0.5200 1.4916 1.1514
H24 H 0.5594 1.6431 1.1191
C24 C 0.4111(2) 1.7865(4) 1.15292(5)
H25 H 0.3291 1.7360 1.1678
H26 H 0.3682 1.8873 1.1354
C25 C 0.5257(3) 1.9087(4) 1.17593(6)
H27 H 0.5680 1.8105 1.1935
H28 H 0.4765 2.0291 1.1876
H29 H 0.6054 1.9641 1.1613
loop_
_geom_bond_atom_site_label_1
_geom_bond_atom_site_label_2
_geom_bond_site_symmetry_1
_geom_bond_site_symmetry_2
O1 C15 1_555 1_555
N1 C1 1_555 1_555
C1 C2 1_555 1_555
C2 C3 1_555 1_555
C3 H1 1_555 1_555
C4 C3 1_555 1_555
H2 C4 1_555 1_555
C5 C4 1_555 1_555
C6 C5 1_555 1_555
H3 C6 1_555 1_555
C7 C2 1_555 1_555
H4 C7 1_555 1_555
C8 C5 1_555 1_555
H5 C8 1_555 1_555
C9 C8 1_555 1_555
H6 C9 1_555 1_555
C10 C9 1_555 1_555
H7 C10 1_555 1_555
C11 C10 1_555 1_555
H8 C11 1_555 1_555
C12 C11 1_555 1_555
C13 C12 1_555 1_555
H9 C13 1_555 1_555
C14 C13 1_555 1_555
H10 C14 1_555 1_555
C15 C14 1_555 1_555
C16 C15 1_555 1_555
H11 C16 1_555 1_555
C17 C12 1_555 1_555
H12 C17 1_555 1_555
C18 O1 1_555 1_555
H13 C18 1_555 1_555
H14 C18 1_555 1_555
C19 C18 1_555 1_555
H15 C19 1_555 1_555
H16 C19 1_555 1_555
C20 C19 1_555 1_555
H17 C20 1_555 1_555
H18 C20 1_555 1_555
C21 C20 1_555 1_555
H19 C21 1_555 1_555
H20 C21 1_555 1_555
C22 C21 1_555 1_555
H21 C22 1_555 1_555
H22 C22 1_555 1_555
C23 C22 1_555 1_555
H23 C23 1_555 1_555
H24 C23 1_555 1_555
C24 C23 1_555 1_555
H25 C24 1_555 1_555
H26 C24 1_555 1_555
C25 C24 1_555 1_555
H27 C25 1_555 1_555
H28 C25 1_555 1_555
H29 C25 1_555 1_555
C6 C7 1_555 1_555
C16 C17 1_555 1_555

#END
