
#######################################################################
#
#                 Cambridge Crystallographic Data Centre
#                                CCDC 
#
#######################################################################
#
# If this CIF has been generated from an entry in the Cambridge 
# Structural Database, then it will include bibliographic, chemical, 
# crystal, experimental, refinement or atomic coordinate data resulting 
# from the CCDC's data processing and validation procedures.
#
#######################################################################

data_INUYAR
_chemical_formula_moiety         'C26 H30 N8 O6,0.38(C1 H2 Cl2),0.13(H2 O1)'
_chemical_name_systematic        
'4,6-bis(6-(t-Butoxycarbonylamino)-2-pyridylaminocarbonyl)pyrimidine dichloromethane solvate hydrate'
_symmetry_cell_setting           orthorhombic
_symmetry_space_group_name_H-M   'P 21 21 2'
_symmetry_Int_Tables_number      18
_space_group_name_Hall           'P 2 2ab'
loop_
_symmetry_equiv_pos_site_id
_symmetry_equiv_pos_as_xyz
1 x,y,z
2 -x,-y,z
3 1/2-x,1/2+y,-z
4 1/2+x,1/2-y,-z
_cell_length_a                   25.0498(1)
_cell_length_b                   20.9704(3)
_cell_length_c                   11.7186(3)
_cell_angle_alpha                90
_cell_angle_beta                 90
_cell_angle_gamma                90
_cell_volume                     6155.83
_exptl_crystal_colour            colorless
_exptl_crystal_description       prism
_cell_formula_units_Z            8
loop_
_atom_site_label
_atom_site_type_symbol
_atom_site_fract_x
_atom_site_fract_y
_atom_site_fract_z
C27 C 0.6096(3) -0.2741(3) -0.1469(7)
C28 C 0.6163(4) -0.2615(4) -0.2711(7)
C29 C 0.6403(4) -0.3326(4) -0.1108(8)
C30 C 0.5497(3) -0.2774(4) -0.1162(8)
O7 O 0.6331(2) -0.2165(2) -0.0935(4)
C31 C 0.6318(3) -0.2086(3) 0.0220(6)
O8 O 0.6178(3) -0.2472(2) 0.0904(4)
N9 N 0.6491(2) -0.1474(2) 0.0448(4)
C32 C 0.6516(3) -0.1188(3) 0.1509(6)
C33 C 0.6468(3) -0.1511(3) 0.2541(6)
C34 C 0.6516(4) -0.1154(4) 0.3520(6)
C35 C 0.6608(4) -0.0500(3) 0.3490(6)
C36 C 0.6640(3) -0.0232(3) 0.2426(6)
N10 N 0.6592(2) -0.0567(2) 0.1442(4)
N11 N 0.6739(2) 0.0420(2) 0.2236(4)
C37 C 0.6903(3) 0.0873(3) 0.2978(6)
O9 O 0.6969(2) 0.0803(2) 0.3988(4)
C38 C 0.6995(3) 0.1510(3) 0.2398(5)
N12 N 0.6921(2) 0.1536(2) 0.1277(4)
C39 C 0.7035(3) 0.2096(3) 0.0780(5)
N13 N 0.7238(2) 0.2605(2) 0.1291(4)
C40 C 0.7290(3) 0.2573(3) 0.2428(6)
C41 C 0.7162(3) 0.2033(3) 0.3041(5)
C42 C 0.7513(3) 0.3155(3) 0.3004(6)
O10 O 0.7531(2) 0.3202(2) 0.4043(4)
N14 N 0.7708(2) 0.3588(2) 0.2246(4)
C43 C 0.7952(3) 0.4173(3) 0.2460(6)
C44 C 0.7914(3) 0.4490(3) 0.3488(6)
C45 C 0.8150(3) 0.5094(3) 0.3540(6)
C46 C 0.8402(3) 0.5347(3) 0.2614(6)
C47 C 0.8425(3) 0.4977(3) 0.1621(5)
N15 N 0.8201(2) 0.4410(2) 0.1532(4)
N16 N 0.8686(2) 0.5173(2) 0.0613(4)
C48 C 0.9061(3) 0.5640(3) 0.0522(6)
O11 O 0.9232(2) 0.5959(3) 0.1310(5)
O12 O 0.9227(2) 0.5666(2) -0.0566(4)
C49 C 0.9655(3) 0.6118(3) -0.0904(7)
C50 C 1.0162(4) 0.5960(5) -0.030(1)
C51 C 0.9699(4) 0.5982(5) -0.2192(9)
C52 C 0.9481(4) 0.6802(4) -0.0668(9)
H31 H 0.6022 -0.2962 -0.3135
H32 H 0.5978 -0.2235 -0.2910
H33 H 0.6531 -0.2566 -0.2881
H34 H 0.6250 -0.3693 -0.1454
H35 H 0.6764 -0.3286 -0.1342
H36 H 0.6387 -0.3368 -0.0302
H37 H 0.5343 -0.3142 -0.1501
H38 H 0.5458 -0.2796 -0.0357
H39 H 0.5321 -0.2403 -0.1439
H40 H 0.6405 -0.1958 0.2568
H41 H 0.6485 -0.1360 0.4239
H42 H 0.6647 -0.0254 0.4166
H43 H 0.6604 -0.1226 -0.0186
H44 H 0.6682 0.0562 0.1476
H45 H 0.6962 0.2131 -0.0013
H46 H 0.7185 0.2018 0.3850
H47 H 0.7673 0.3476 0.1464
H48 H 0.7737 0.4309 0.4127
H49 H 0.8135 0.5331 0.4230
H50 H 0.8557 0.5761 0.2641
H51 H 0.8589 0.4959 -0.0071
H52 H 0.9966 0.6247 -0.2516
H53 H 0.9792 0.5547 -0.2306
H54 H 0.9365 0.6067 -0.2548
H55 H 1.0432 0.6252 -0.0528
H56 H 1.0109 0.5987 0.0497
H57 H 1.0269 0.5539 -0.0500
H58 H 0.9757 0.7086 -0.0887
H59 H 0.9167 0.6894 -0.1093
H60 H 0.9409 0.6851 0.0123
O13 O 0.4638(5) 0.4804(6) 0.913(1)
C1 C 0.4462(3) 0.3926(4) 0.3403(7)
C2 C 0.4199(4) 0.3274(4) 0.3512(8)
C3 C 0.4971(4) 0.3989(5) 0.402(1)
C4 C 0.4532(4) 0.4102(5) 0.2146(8)
O1 O 0.4097(2) 0.4437(2) 0.3794(4)
C5 C 0.3928(3) 0.4455(3) 0.4865(6)
O2 O 0.4012(3) 0.4066(2) 0.5594(5)
N1 N 0.3639(2) 0.5010(2) 0.5029(4)
C6 C 0.3391(3) 0.5223(3) 0.6033(5)
C7 C 0.3303(3) 0.4839(3) 0.6983(6)
C8 C 0.3073(3) 0.5107(3) 0.7901(6)
C9 C 0.2929(3) 0.5748(3) 0.7902(6)
C10 C 0.3006(3) 0.6080(3) 0.6890(5)
N2 N 0.3238(2) 0.5836(2) 0.5972(4)
N3 N 0.2832(2) 0.6721(2) 0.6751(4)
C11 C 0.2703(3) 0.7128(3) 0.7596(6)
O3 O 0.2742(3) 0.7029(2) 0.8618(4)
C12 C 0.2500(3) 0.7767(3) 0.7194(6)
N4 N 0.2466(3) 0.7870(3) 0.6066(5)
C13 C 0.2277(4) 0.8434(4) 0.5761(6)
N5 N 0.2134(2) 0.8903(3) 0.6448(5)
C14 C 0.2175(3) 0.8802(3) 0.7567(6)
C15 C 0.2350(3) 0.8214(3) 0.7993(5)
C16 C 0.2010(3) 0.9339(3) 0.8354(5)
O4 O 0.2027(3) 0.9302(2) 0.9372(4)
N6 N 0.1855(3) 0.9845(3) 0.7723(4)
C17 C 0.1614(3) 1.0428(3) 0.8004(6)
C18 C 0.1486(3) 1.0626(3) 0.9085(5)
C19 C 0.1238(3) 1.1211(3) 0.9187(6)
C20 C 0.1142(3) 1.1581(3) 0.8226(6)
C21 C 0.1299(3) 1.1354(3) 0.7194(5)
N7 N 0.1528(2) 1.0776(2) 0.7079(4)
N8 N 0.1262(2) 1.1657(2) 0.6128(5)
C22 C 0.0999(3) 1.2215(3) 0.5907(6)
O5 O 0.0778(2) 1.2548(2) 0.6594(5)
O6 O 0.1021(2) 1.2312(2) 0.4771(4)
C23 C 0.0735(3) 1.2847(3) 0.4224(7)
C24 C 0.0870(5) 1.2736(5) 0.2983(8)
C25 C 0.0976(4) 1.3464(4) 0.4629(8)
C26 C 0.0159(4) 1.2780(5) 0.445(1)
H1 H 0.4440 0.2954 0.3257
H2 H 0.4109 0.3198 0.4288
H3 H 0.3885 0.3263 0.3059
H4 H 0.5210 0.3664 0.3783
H5 H 0.5123 0.4395 0.3871
H6 H 0.4908 0.3948 0.4821
H7 H 0.4763 0.3803 0.1791
H8 H 0.4195 0.4096 0.1776
H9 H 0.4682 0.4517 0.2091
H10 H 0.3605 0.5281 0.4383
H11 H 0.3403 0.4402 0.6983
H12 H 0.3007 0.4855 0.8559
H13 H 0.2786 0.5948 0.8562
H14 H 0.2803 0.6876 0.5992
H15 H 0.2242 0.8509 0.4966
H16 H 0.2365 0.8128 0.8788
H17 H 0.1924 0.9796 0.6930
H18 H 0.1564 1.0372 0.9735
H19 H 0.1133 1.1361 0.9918
H20 H 0.0971 1.1983 0.8290
H21 H 0.1435 1.1456 0.5503
H22 H 0.0706 1.3056 0.2529
H23 H 0.1246 1.2754 0.2884
H24 H 0.0743 1.2329 0.2755
H25 H 0.0795 1.3812 0.4282
H26 H 0.0942 1.3493 0.5435
H27 H 0.1343 1.3477 0.4425
H28 H -0.0028 1.3122 0.4098
H29 H 0.0036 1.2387 0.4142
H30 H 0.0097 1.2787 0.5247
C53? C 0.4797(3) 0.0017(4) 0.6581(8)
Cl1? Cl 0.4663(3) 0.0157(4) 0.5245(8)
Cl2? Cl 0.4528(3) 0.0755(4) 0.7145(8)
C54? C 0.4902(4) 0.4744(4) 0.6983(7)
Cl3? Cl 0.5243(4) 0.4506(4) 0.7300(7)
Cl4? Cl 0.5448(4) 0.4207(4) 0.7522(7)
loop_
_geom_bond_atom_site_label_1
_geom_bond_atom_site_label_2
_geom_bond_site_symmetry_1
_geom_bond_site_symmetry_2
C1 C2 1_555 1_555
C2 H1 1_555 1_555
C3 C1 1_555 1_555
C4 C1 1_555 1_555
O1 C1 1_555 1_555
C5 O1 1_555 1_555
O2 C5 1_555 1_555
N1 C5 1_555 1_555
C6 N1 1_555 1_555
C7 C6 1_555 1_555
C8 C7 1_555 1_555
C9 C8 1_555 1_555
C10 C9 1_555 1_555
N2 C6 1_555 1_555
N3 C10 1_555 1_555
C11 N3 1_555 1_555
O3 C11 1_555 1_555
C12 C11 1_555 1_555
N4 C12 1_555 1_555
C13 N4 1_555 1_555
N5 C13 1_555 1_555
C14 N5 1_555 1_555
C15 C12 1_555 1_555
C16 C14 1_555 1_555
O4 C16 1_555 1_555
N6 C16 1_555 1_555
C17 N6 1_555 1_555
C18 C17 1_555 1_555
C19 C18 1_555 1_555
C20 C19 1_555 1_555
C21 C20 1_555 1_555
N7 C17 1_555 1_555
N8 C21 1_555 1_555
C22 N8 1_555 1_555
O5 C22 1_555 1_555
O6 C22 1_555 1_555
C23 O6 1_555 1_555
C24 C23 1_555 1_555
C25 C23 1_555 1_555
C26 C23 1_555 1_555
C27 C28 1_555 1_555
C28 H31 1_555 1_555
C29 C27 1_555 1_555
C30 C27 1_555 1_555
O7 C27 1_555 1_555
C31 O7 1_555 1_555
O8 C31 1_555 1_555
N9 C31 1_555 1_555
C32 N9 1_555 1_555
C33 C32 1_555 1_555
C34 C33 1_555 1_555
C35 C34 1_555 1_555
C36 C35 1_555 1_555
N10 C32 1_555 1_555
N11 C36 1_555 1_555
C37 N11 1_555 1_555
O9 C37 1_555 1_555
C38 C37 1_555 1_555
N12 C38 1_555 1_555
C39 N12 1_555 1_555
N13 C39 1_555 1_555
C40 N13 1_555 1_555
C41 C38 1_555 1_555
C42 C40 1_555 1_555
O10 C42 1_555 1_555
N14 C42 1_555 1_555
C43 N14 1_555 1_555
C44 C43 1_555 1_555
C45 C44 1_555 1_555
C46 C45 1_555 1_555
C47 C46 1_555 1_555
N15 C43 1_555 1_555
N16 C47 1_555 1_555
C48 N16 1_555 1_555
O11 C48 1_555 1_555
O12 C48 1_555 1_555
C49 O12 1_555 1_555
C50 C49 1_555 1_555
C51 C49 1_555 1_555
C52 C49 1_555 1_555
H2 C2 1_555 1_555
H3 C2 1_555 1_555
H4 C3 1_555 1_555
H5 C3 1_555 1_555
H6 C3 1_555 1_555
H7 C4 1_555 1_555
H8 C4 1_555 1_555
H9 C4 1_555 1_555
H10 N1 1_555 1_555
H11 C7 1_555 1_555
H12 C8 1_555 1_555
H13 C9 1_555 1_555
H14 N3 1_555 1_555
H15 C13 1_555 1_555
H16 C15 1_555 1_555
H17 N6 1_555 1_555
H18 C18 1_555 1_555
H19 C19 1_555 1_555
H20 C20 1_555 1_555
H21 N8 1_555 1_555
H22 C24 1_555 1_555
H23 C24 1_555 1_555
H24 C24 1_555 1_555
H25 C25 1_555 1_555
H26 C25 1_555 1_555
H27 C25 1_555 1_555
H28 C26 1_555 1_555
H29 C26 1_555 1_555
H30 C26 1_555 1_555
H32 C28 1_555 1_555
H33 C28 1_555 1_555
H34 C29 1_555 1_555
H35 C29 1_555 1_555
H36 C29 1_555 1_555
H37 C30 1_555 1_555
H38 C30 1_555 1_555
H39 C30 1_555 1_555
H40 C33 1_555 1_555
H41 C34 1_555 1_555
H42 C35 1_555 1_555
H43 N9 1_555 1_555
H44 N11 1_555 1_555
H45 C39 1_555 1_555
H46 C41 1_555 1_555
H47 N14 1_555 1_555
H48 C44 1_555 1_555
H49 C45 1_555 1_555
H50 C46 1_555 1_555
H51 N16 1_555 1_555
H52 C51 1_555 1_555
H53 C51 1_555 1_555
H54 C51 1_555 1_555
H55 C50 1_555 1_555
H56 C50 1_555 1_555
H57 C50 1_555 1_555
H58 C52 1_555 1_555
H59 C52 1_555 1_555
H60 C52 1_555 1_555
C10 N2 1_555 1_555
C14 C15 1_555 1_555
C21 N7 1_555 1_555
C36 N10 1_555 1_555
C40 C41 1_555 1_555
C47 N15 1_555 1_555

#END
