
#######################################################################
#
#                 Cambridge Crystallographic Data Centre
#                                CCDC 
#
#######################################################################
#
# If this CIF has been generated from an entry in the Cambridge 
# Structural Database, then it will include bibliographic, chemical, 
# crystal, experimental, refinement or atomic coordinate data resulting 
# from the CCDC's data processing and validation procedures.
#
#######################################################################

data_INUYEV
_chemical_formula_moiety         'C46 H64 N10 O6 S2,C1 H2 Cl2'
_chemical_name_systematic        
'4,6-bis(6-(t-Butoxycarbonylamino)-2-(n-octylthio)pyrimidin-4-ylaminocarbonyl)-2-phenylpyrimidine dichloromethane solvate'
_symmetry_cell_setting           orthorhombic
_symmetry_space_group_name_H-M   'P b c a'
_symmetry_Int_Tables_number      61
_space_group_name_Hall           '-P 2ac 2ab'
loop_
_symmetry_equiv_pos_site_id
_symmetry_equiv_pos_as_xyz
1 x,y,z
2 1/2+x,y,1/2-z
3 x,1/2-y,1/2+z
4 1/2-x,1/2+y,z
5 -x,-y,-z
6 1/2-x,-y,1/2+z
7 -x,1/2+y,1/2-z
8 1/2+x,1/2-y,-z
_cell_length_a                   13.5362(2)
_cell_length_b                   18.8739(2)
_cell_length_c                   41.3548(7)
_cell_angle_alpha                90
_cell_angle_beta                 90
_cell_angle_gamma                90
_cell_volume                     10565.4
_exptl_crystal_colour            colorless
_exptl_crystal_description       prism
_cell_formula_units_Z            8
loop_
_atom_site_label
_atom_site_type_symbol
_atom_site_fract_x
_atom_site_fract_y
_atom_site_fract_z
C1 C 0.3788(5) 0.3218(3) 0.1994(2)
C2 C 0.3813(5) 0.2562(3) 0.2151(2)
N1 N 0.3870(4) 0.2486(3) 0.2469(2)
C3 C 0.3911(5) 0.3075(3) 0.2646(2)
N2 N 0.3908(4) 0.3731(3) 0.2522(2)
C4 C 0.3850(5) 0.3797(4) 0.2202(2)
C5 C 0.3960(5) 0.2999(4) 0.3000(2)
C6 C 0.3897(6) 0.2331(4) 0.3146(2)
C7 C 0.3929(7) 0.2262(5) 0.3477(2)
C8 C 0.4012(7) 0.2854(5) 0.3672(2)
C9 C 0.4068(7) 0.3527(5) 0.3530(2)
C10 C 0.4045(6) 0.3599(4) 0.3197(2)
C11 C 0.3836(5) 0.4549(3) 0.2068(2)
O1 O 0.3812(4) 0.4668(2) 0.1782(1)
N3 N 0.3852(5) 0.5031(3) 0.2312(1)
C12 C 0.3797(5) 0.5765(3) 0.2291(2)
C13 C 0.3762(5) 0.6151(3) 0.2012(2)
C14 C 0.3684(5) 0.6887(3) 0.2049(2)
N4 N 0.3672(4) 0.7198(3) 0.2339(1)
C15 C 0.3726(5) 0.6772(3) 0.2596(2)
N5 N 0.3778(4) 0.6055(3) 0.2595(1)
S1 S 0.3716(2) 0.72128(9) 0.29669(5)
C16 C 0.3657(6) 0.6499(4) 0.3259(2)
C17 C 0.3721(7) 0.6807(4) 0.3596(2)
C18 C 0.3589(8) 0.6229(5) 0.3850(2)
C19 C 0.363(1) 0.6494(6) 0.4197(2)
C20 C 0.270(1) 0.6925(6) 0.4288(3)
C21 C 0.261(1) 0.7100(6) 0.4629(3)
C22 C 0.171(1) 0.7514(8) 0.4718(3)
C23 C 0.161(2) 0.772(1) 0.5055(6)
N6 N 0.3593(4) 0.7372(3) 0.1800(1)
C24 C 0.3485(6) 0.7295(4) 0.1472(2)
O2 O 0.3354(4) 0.7800(2) 0.1297(1)
O3 O 0.3547(4) 0.6625(2) 0.1381(1)
C25 C 0.3434(6) 0.6405(4) 0.1038(2)
C26 C 0.4275(8) 0.6705(5) 0.0842(2)
C27 C 0.2446(8) 0.6632(5) 0.0914(2)
C28 C 0.3504(8) 0.5606(4) 0.1064(2)
C29 C 0.3781(5) 0.1893(3) 0.1944(2)
O4 O 0.3740(4) 0.1904(2) 0.1653(1)
N7 N 0.3805(5) 0.1299(3) 0.2134(1)
C30 C 0.3755(5) 0.0589(3) 0.2047(2)
C31 C 0.3764(6) 0.0355(3) 0.1730(2)
C32 C 0.3698(5) -0.0383(3) 0.1694(2)
N8 N 0.3621(4) -0.0831(3) 0.1946(1)
C33 C 0.3635(5) -0.0528(3) 0.2240(2)
N9 N 0.3703(4) 0.0163(3) 0.2306(1)
S2 S 0.3563(1) -0.11131(9) 0.25685(5)
C34 C 0.3466(6) -0.0495(4) 0.2903(2)
C35 C 0.3542(6) -0.0873(4) 0.3220(2)
C36 C 0.3425(7) -0.0379(4) 0.3508(2)
C37 C 0.3491(8) -0.0735(6) 0.3832(2)
C38 C 0.3430(9) -0.0258(6) 0.4120(2)
C39 C 0.3518(9) -0.0642(7) 0.4442(3)
C40 C 0.354(1) -0.0179(9) 0.4730(3)
C41 C 0.369(1) -0.061(1) 0.5036(3)
C42 C 0.4021(6) -0.0400(4) 0.1112(2)
N10 N 0.3697(5) -0.0706(3) 0.1394(1)
O5 O 0.4310(5) 0.0194(3) 0.1079(1)
O6 O 0.3968(4) -0.0891(3) 0.0876(1)
C43 C 0.4368(7) -0.0721(5) 0.0551(2)
C44 C 0.5467(8) -0.0586(6) 0.0571(3)
C45 C 0.4164(9) -0.1412(6) 0.0364(2)
C46 C 0.3818(9) -0.0102(6) 0.0402(3)
H1 H 0.3733 0.3265 0.1766
H2 H 0.3832 0.1921 0.3015
H3 H 0.3894 0.1804 0.3572
H4 H 0.4031 0.2805 0.3901
H5 H 0.4123 0.3936 0.3663
H6 H 0.4087 0.4057 0.3102
H7 H 0.3789 0.5934 0.1805
H8 H 0.4192 0.6183 0.3225
H9 H 0.3050 0.6251 0.3235
H10 H 0.3217 0.7153 0.3622
H11 H 0.4348 0.7024 0.3624
H12 H 0.4098 0.5888 0.3821
H13 H 0.2965 0.6012 0.3817
H14 H 0.4199 0.6787 0.4222
H15 H 0.3685 0.6098 0.4338
H16 H 0.2141 0.6656 0.4227
H17 H 0.2718 0.7355 0.4170
H18 H 0.3173 0.7371 0.4690
H19 H 0.2602 0.6669 0.4748
H20 H 0.1146 0.7233 0.4665
H21 H 0.1701 0.7933 0.4591
H22 H 0.1017 0.7980 0.5084
H23 H 0.1604 0.7311 0.5187
H24 H 0.2159 0.8012 0.5113
H25 H 0.4206 0.6565 0.0623
H26 H 0.4267 0.7207 0.0856
H27 H 0.4884 0.6531 0.0925
H28 H 0.2377 0.6491 0.0695
H29 H 0.1941 0.6418 0.1040
H30 H 0.2391 0.7133 0.0929
H31 H 0.3441 0.5401 0.0856
H32 H 0.4126 0.5480 0.1154
H33 H 0.2990 0.5436 0.1200
H34 H 0.3812 0.0668 0.1551
H35 H 0.2847 -0.0260 0.2891
H36 H 0.3984 -0.0158 0.2887
H37 H 0.4171 -0.1095 0.3232
H38 H 0.3039 -0.1224 0.3230
H39 H 0.2798 -0.0156 0.3493
H40 H 0.3930 -0.0030 0.3497
H41 H 0.4105 -0.0978 0.3842
H42 H 0.2965 -0.1066 0.3847
H43 H 0.2812 -0.0020 0.4115
H44 H 0.3950 0.0080 0.4106
H45 H 0.4111 -0.0911 0.4439
H46 H 0.2968 -0.0952 0.4462
H47 H 0.2931 0.0068 0.4746
H48 H 0.4066 0.0151 0.4709
H49 H 0.3707 -0.0308 0.5218
H50 H 0.3170 -0.0945 0.5059
H51 H 0.4304 -0.0862 0.5022
H52 H 0.5715 -0.0478 0.0362
H53 H 0.5588 -0.0199 0.0712
H54 H 0.5789 -0.0997 0.0652
H55 H 0.4393 -0.1365 0.0148
H56 H 0.4498 -0.1793 0.0467
H57 H 0.3473 -0.1503 0.0363
H58 H 0.4085 -0.0002 0.0194
H59 H 0.3138 -0.0218 0.0381
H60 H 0.3887 0.0303 0.0536
H61 H 0.3907 0.4842 0.2524
H62 H 0.3863 0.1386 0.2360
H63 H 0.3608 0.7852 0.1870
H64 H 0.3453 -0.1177 0.1381
C47 C 0.353(1) 0.3681(7) 0.0970(4)
Cl1 Cl 0.3697(5) 0.3975(3) 0.0557(2)
Cl2 Cl 0.4376(5) 0.3027(3) 0.1039(2)
H65 H 0.2882 0.3503 0.0999
H66 H 0.3641 0.4064 0.1114
loop_
_geom_bond_atom_site_label_1
_geom_bond_atom_site_label_2
_geom_bond_site_symmetry_1
_geom_bond_site_symmetry_2
C1 C2 1_555 1_555
C2 N1 1_555 1_555
N1 C3 1_555 1_555
C3 N2 1_555 1_555
N2 C4 1_555 1_555
C4 C1 1_555 1_555
C5 C3 1_555 1_555
C6 C5 1_555 1_555
C7 C6 1_555 1_555
C8 C7 1_555 1_555
C9 C8 1_555 1_555
C10 C5 1_555 1_555
C11 C4 1_555 1_555
O1 C11 1_555 1_555
N3 C11 1_555 1_555
C12 N3 1_555 1_555
C13 C12 1_555 1_555
C14 C13 1_555 1_555
N4 C14 1_555 1_555
C15 N4 1_555 1_555
N5 C12 1_555 1_555
S1 C15 1_555 1_555
C16 S1 1_555 1_555
C17 C16 1_555 1_555
C18 C17 1_555 1_555
C19 C18 1_555 1_555
C20 C19 1_555 1_555
C21 C20 1_555 1_555
C22 C21 1_555 1_555
C23 C22 1_555 1_555
N6 C14 1_555 1_555
C24 N6 1_555 1_555
O2 C24 1_555 1_555
O3 C24 1_555 1_555
C25 O3 1_555 1_555
C26 C25 1_555 1_555
C27 C25 1_555 1_555
C28 C25 1_555 1_555
C29 C2 1_555 1_555
O4 C29 1_555 1_555
N7 C29 1_555 1_555
C30 N7 1_555 1_555
C31 C30 1_555 1_555
C32 C31 1_555 1_555
N8 C32 1_555 1_555
C33 N8 1_555 1_555
N9 C30 1_555 1_555
S2 C33 1_555 1_555
C34 S2 1_555 1_555
C35 C34 1_555 1_555
C36 C35 1_555 1_555
C37 C36 1_555 1_555
C38 C37 1_555 1_555
C39 C38 1_555 1_555
C40 C39 1_555 1_555
C41 C40 1_555 1_555
C42 N10 1_555 1_555
N10 C32 1_555 1_555
O5 C42 1_555 1_555
O6 C42 1_555 1_555
C43 O6 1_555 1_555
C44 C43 1_555 1_555
C45 C43 1_555 1_555
C46 C43 1_555 1_555
C47 Cl1 1_555 1_555
Cl2 C47 1_555 1_555
H1 C1 1_555 1_555
H2 C6 1_555 1_555
H3 C7 1_555 1_555
H4 C8 1_555 1_555
H5 C9 1_555 1_555
H6 C10 1_555 1_555
H7 C13 1_555 1_555
H8 C16 1_555 1_555
H9 C16 1_555 1_555
H10 C17 1_555 1_555
H11 C17 1_555 1_555
H12 C18 1_555 1_555
H13 C18 1_555 1_555
H14 C19 1_555 1_555
H15 C19 1_555 1_555
H16 C20 1_555 1_555
H17 C20 1_555 1_555
H18 C21 1_555 1_555
H19 C21 1_555 1_555
H20 C22 1_555 1_555
H21 C22 1_555 1_555
H22 C23 1_555 1_555
H23 C23 1_555 1_555
H24 C23 1_555 1_555
H25 C26 1_555 1_555
H26 C26 1_555 1_555
H27 C26 1_555 1_555
H28 C27 1_555 1_555
H29 C27 1_555 1_555
H30 C27 1_555 1_555
H31 C28 1_555 1_555
H32 C28 1_555 1_555
H33 C28 1_555 1_555
H34 C31 1_555 1_555
H35 C34 1_555 1_555
H36 C34 1_555 1_555
H37 C35 1_555 1_555
H38 C35 1_555 1_555
H39 C36 1_555 1_555
H40 C36 1_555 1_555
H41 C37 1_555 1_555
H42 C37 1_555 1_555
H43 C38 1_555 1_555
H44 C38 1_555 1_555
H45 C39 1_555 1_555
H46 C39 1_555 1_555
H47 C40 1_555 1_555
H48 C40 1_555 1_555
H49 C41 1_555 1_555
H50 C41 1_555 1_555
H51 C41 1_555 1_555
H52 C44 1_555 1_555
H53 C44 1_555 1_555
H54 C44 1_555 1_555
H55 C45 1_555 1_555
H56 C45 1_555 1_555
H57 C45 1_555 1_555
H58 C46 1_555 1_555
H59 C46 1_555 1_555
H60 C46 1_555 1_555
H61 N3 1_555 1_555
H62 N7 1_555 1_555
H63 N6 1_555 1_555
H64 N10 1_555 1_555
H65 C47 1_555 1_555
H66 C47 1_555 1_555
C9 C10 1_555 1_555
C15 N5 1_555 1_555
C33 N9 1_555 1_555

#END
