
#######################################################################
#
#                 Cambridge Crystallographic Data Centre
#                                CCDC 
#
#######################################################################
#
# If this CIF has been generated from an entry in the Cambridge 
# Structural Database, then it will include bibliographic, chemical, 
# crystal, experimental, refinement or atomic coordinate data resulting 
# from the CCDC's data processing and validation procedures.
#
#######################################################################

data_IPAGUC
_chemical_formula_moiety         'C24 H17 O2 P1'
_chemical_name_systematic        
'Dibenzo[b,d]furan-4-yl(diphenyl)phosphine oxide'
_symmetry_cell_setting           triclinic
_symmetry_space_group_name_H-M   'P -1'
_symmetry_Int_Tables_number      2
_space_group_name_Hall           '-P 1'
loop_
_symmetry_equiv_pos_site_id
_symmetry_equiv_pos_as_xyz
1 x,y,z
2 -x,-y,-z
_cell_length_a                   9.3048(19)
_cell_length_b                   10.094(2)
_cell_length_c                   10.375(2)
_cell_angle_alpha                83.55(3)
_cell_angle_beta                 87.55(3)
_cell_angle_gamma                69.29(3)
_cell_volume                     905.707
_exptl_crystal_colour            colorless
_exptl_crystal_description       prism
_cell_formula_units_Z            2
loop_
_atom_site_label
_atom_site_type_symbol
_atom_site_fract_x
_atom_site_fract_y
_atom_site_fract_z
P1 P 0.57182(4) 0.59509(4) 0.78438(4)
O1 O 0.59487(14) 0.64034(12) 0.91010(11)
O2 O 0.90598(12) 0.37383(11) 0.85400(11)
C1 C 0.65675(17) 0.66991(16) 0.64861(15)
C2 C 0.7384(2) 0.59155(19) 0.55072(18)
H1 H 0.7560 0.4945 0.5558
C3 C 0.7941(2) 0.6565(2) 0.44536(19)
H2 H 0.8497 0.6029 0.3807
C4 C 0.7667(2) 0.8007(2) 0.43671(19)
H3 H 0.8021 0.8448 0.3652
C5 C 0.6873(2) 0.87929(19) 0.53371(19)
H4 H 0.6702 0.9763 0.5281
C6 C 0.6327(2) 0.81498(18) 0.63959(18)
H5 H 0.5797 0.8688 0.7051
C7 C 0.37122(17) 0.64599(16) 0.74346(15)
C8 C 0.27453(19) 0.61013(18) 0.83660(17)
H6 H 0.3136 0.5644 0.9172
C9 C 0.1209(2) 0.64242(19) 0.80949(19)
H7 H 0.0572 0.6172 0.8713
C10 C 0.0619(2) 0.7124(2) 0.6901(2)
H8 H -0.0414 0.7340 0.6720
C11 C 0.1556(2) 0.7498(2) 0.59831(19)
H9 H 0.1151 0.7979 0.5188
C12 C 0.3105(2) 0.71590(18) 0.62419(17)
H10 H 0.3739 0.7401 0.5614
C13 C 0.64836(18) 0.40442(16) 0.77753(15)
C14 C 0.56043(19) 0.32890(17) 0.73845(17)
H11 H 0.4589 0.3786 0.7142
C15 C 0.6195(2) 0.18208(18) 0.73457(18)
H12 H 0.5565 0.1362 0.7085
C16 C 0.76981(19) 0.10319(17) 0.76875(17)
H13 H 0.8087 0.0051 0.7657
C17 C 0.86152(17) 0.17441(16) 0.80782(15)
C18 C 0.79941(17) 0.32166(16) 0.81225(15)
C19 C 1.03921(18) 0.25544(16) 0.87803(16)
C20 C 1.01870(18) 0.13142(16) 0.85118(15)
C21 C 1.14172(19) 0.00197(17) 0.86873(17)
H14 H 1.1310 -0.0825 0.8515
C22 C 1.2792(2) 0.00284(19) 0.91224(18)
H15 H 1.3626 -0.0820 0.9234
C23 C 1.2952(2) 0.1290(2) 0.93982(19)
H16 H 1.3890 0.1261 0.9699
C24 C 1.17518(19) 0.25828(19) 0.92360(18)
H17 H 1.1856 0.3424 0.9424
loop_
_geom_bond_atom_site_label_1
_geom_bond_atom_site_label_2
_geom_bond_site_symmetry_1
_geom_bond_site_symmetry_2
P1 O1 1_555 1_555
O2 C18 1_555 1_555
C1 P1 1_555 1_555
C2 C1 1_555 1_555
H1 C2 1_555 1_555
C3 C2 1_555 1_555
H2 C3 1_555 1_555
C4 C3 1_555 1_555
H3 C4 1_555 1_555
C5 C4 1_555 1_555
H4 C5 1_555 1_555
C6 C1 1_555 1_555
H5 C6 1_555 1_555
C7 P1 1_555 1_555
C8 C7 1_555 1_555
H6 C8 1_555 1_555
C9 C8 1_555 1_555
H7 C9 1_555 1_555
C10 C9 1_555 1_555
H8 C10 1_555 1_555
C11 C10 1_555 1_555
H9 C11 1_555 1_555
C12 C7 1_555 1_555
H10 C12 1_555 1_555
C13 P1 1_555 1_555
C14 C13 1_555 1_555
H11 C14 1_555 1_555
C15 C14 1_555 1_555
H12 C15 1_555 1_555
C16 C15 1_555 1_555
H13 C16 1_555 1_555
C17 C16 1_555 1_555
C18 C13 1_555 1_555
C19 O2 1_555 1_555
C20 C17 1_555 1_555
C21 C20 1_555 1_555
H14 C21 1_555 1_555
C22 C21 1_555 1_555
H15 C22 1_555 1_555
C23 C22 1_555 1_555
H16 C23 1_555 1_555
C24 C19 1_555 1_555
H17 C24 1_555 1_555
C5 C6 1_555 1_555
C11 C12 1_555 1_555
C17 C18 1_555 1_555
C19 C20 1_555 1_555
C23 C24 1_555 1_555

#END
