
#######################################################################
#
#                 Cambridge Crystallographic Data Centre
#                                CCDC 
#
#######################################################################
#
# If this CIF has been generated from an entry in the Cambridge 
# Structural Database, then it will include bibliographic, chemical, 
# crystal, experimental, refinement or atomic coordinate data resulting 
# from the CCDC's data processing and validation procedures.
#
#######################################################################

data_IPALAO
_chemical_formula_moiety         'C20 H20 N2 O3 Si1'
_chemical_name_systematic        
(E)-4-(4-nitrophenyl)-1-phenyl-2-((trimethylsilyl)methylene)-1,2-dihydro-3H-pyrrol-3-one
_symmetry_cell_setting           monoclinic
_symmetry_space_group_name_H-M   'P 21/n'
_symmetry_Int_Tables_number      14
_space_group_name_Hall           '-P 2yn'
loop_
_symmetry_equiv_pos_site_id
_symmetry_equiv_pos_as_xyz
1 x,y,z
2 1/2-x,1/2+y,1/2-z
3 -x,-y,-z
4 1/2+x,1/2-y,1/2+z
_cell_length_a                   12.68993(11)
_cell_length_b                   9.69273(8)
_cell_length_c                   15.41784(12)
_cell_angle_alpha                90
_cell_angle_beta                 100.5472(8)
_cell_angle_gamma                90
_cell_volume                     1864.35
_exptl_crystal_colour            red
_exptl_crystal_description       prism
_chemical_melting_point          '390-391 K'
_cell_formula_units_Z            4
loop_
_atom_site_label
_atom_site_type_symbol
_atom_site_fract_x
_atom_site_fract_y
_atom_site_fract_z
Si1 Si 0.38913(2) 0.43119(3) 0.773242(19)
O1 O 0.35993(6) 0.23443(9) 0.60894(5)
O2 O 0.19060(7) -0.20628(10) 0.24974(6)
O3 O 0.30692(8) -0.37081(10) 0.28093(6)
N1 N 0.53515(7) 0.03756(10) 0.76289(6)
N2 N 0.26655(8) -0.26163(11) 0.29884(6)
C1 C 0.47642(8) 0.16172(11) 0.74297(7)
C2 C 0.50968(8) -0.05047(11) 0.69318(7)
H1 H 0.5370 -0.1395 0.6931
C3 C 0.41618(8) 0.14406(11) 0.64978(7)
C4 C 0.31089(9) -0.19345(12) 0.38214(7)
C5 C 0.43996(8) 0.00478(11) 0.62319(7)
C6 C 0.58252(8) -0.00478(12) 0.85029(7)
C7 C 0.39654(8) -0.06344(11) 0.53986(7)
C8 C 0.43388(9) -0.19365(12) 0.51912(7)
H2 H 0.4881 -0.2365 0.5588
C9 C 0.31505(9) -0.00020(12) 0.47828(7)
H3 H 0.2896 0.0862 0.4907
C10 C 0.66471(9) 0.07236(12) 0.89957(8)
H4 H 0.6914 0.1498 0.8752
C11 C 0.39138(9) -0.25936(12) 0.44068(7)
H5 H 0.4162 -0.3457 0.4275
C12 C 0.47089(9) 0.26878(12) 0.79669(7)
H6 H 0.5127 0.2622 0.8527
C13 C 0.54379(9) -0.12227(12) 0.88558(7)
H7 H 0.4891 -0.1738 0.8522
C14 C 0.43835(9) 0.54079(13) 0.68962(8)
H8 H 0.5136 0.5579 0.7082
H9 H 0.4003 0.6269 0.6839
H10 H 0.4264 0.4940 0.6338
C15 C 0.27228(9) -0.06478(12) 0.39953(7)
H11 H 0.2186 -0.0225 0.3591
C16 C 0.58748(10) -0.16214(13) 0.97128(8)
H12 H 0.5625 -0.2412 0.9950
C17 C 0.66812(10) -0.08451(13) 1.02142(8)
H13 H 0.6964 -0.1108 1.0790
C18 C 0.41151(11) 0.52480(13) 0.88121(8)
H14 H 0.3875 0.4684 0.9250
H15 H 0.3720 0.6098 0.8748
H16 H 0.4865 0.5442 0.8992
C19 C 0.24315(9) 0.39186(13) 0.74226(8)
H17 H 0.2304 0.3384 0.6889
H18 H 0.2034 0.4765 0.7331
H19 H 0.2205 0.3404 0.7888
C20 C 0.70665(10) 0.03248(14) 0.98567(8)
H20 H 0.7607 0.0844 1.0194
loop_
_geom_bond_atom_site_label_1
_geom_bond_atom_site_label_2
_geom_bond_site_symmetry_1
_geom_bond_site_symmetry_2
Si1 C12 1_555 1_555
O1 C3 1_555 1_555
O2 N2 1_555 1_555
O3 N2 1_555 1_555
N1 C1 1_555 1_555
N2 C4 1_555 1_555
C1 C3 1_555 1_555
C2 N1 1_555 1_555
H1 C2 1_555 1_555
C3 C5 1_555 1_555
C4 C11 1_555 1_555
C5 C2 1_555 1_555
C6 N1 1_555 1_555
C7 C5 1_555 1_555
C8 C7 1_555 1_555
H2 C8 1_555 1_555
C9 C7 1_555 1_555
H3 C9 1_555 1_555
C10 C6 1_555 1_555
H4 C10 1_555 1_555
C11 C8 1_555 1_555
H5 C11 1_555 1_555
C12 C1 1_555 1_555
H6 C12 1_555 1_555
C13 C6 1_555 1_555
H7 C13 1_555 1_555
C14 Si1 1_555 1_555
H8 C14 1_555 1_555
H9 C14 1_555 1_555
H10 C14 1_555 1_555
C15 C4 1_555 1_555
H11 C15 1_555 1_555
C16 C13 1_555 1_555
H12 C16 1_555 1_555
C17 C16 1_555 1_555
H13 C17 1_555 1_555
C18 Si1 1_555 1_555
H14 C18 1_555 1_555
H15 C18 1_555 1_555
H16 C18 1_555 1_555
C19 Si1 1_555 1_555
H17 C19 1_555 1_555
H18 C19 1_555 1_555
H19 C19 1_555 1_555
C20 C10 1_555 1_555
H20 C20 1_555 1_555
C9 C15 1_555 1_555
C17 C20 1_555 1_555

#END
