
#######################################################################
#
#                 Cambridge Crystallographic Data Centre
#                                CCDC 
#
#######################################################################
#
# If this CIF has been generated from an entry in the Cambridge 
# Structural Database, then it will include bibliographic, chemical, 
# crystal, experimental, refinement or atomic coordinate data resulting 
# from the CCDC's data processing and validation procedures.
#
#######################################################################

data_IPAPEV
_chemical_formula_moiety         'C8 H4 Cl2 N2 O2'
_chemical_name_systematic        6,7-Dichloro-4-hydroxyphthalazin-1(2H)-one
_symmetry_cell_setting           monoclinic
_symmetry_space_group_name_H-M   'P 21/c'
_symmetry_Int_Tables_number      14
_space_group_name_Hall           '-P 2ybc'
loop_
_symmetry_equiv_pos_site_id
_symmetry_equiv_pos_as_xyz
1 x,y,z
2 -x,1/2+y,1/2-z
3 -x,-y,-z
4 x,1/2-y,1/2+z
_cell_length_a                   7.1815(14)
_cell_length_b                   9.0468(18)
_cell_length_c                   13.524(3)
_cell_angle_alpha                90
_cell_angle_beta                 99.67(3)
_cell_angle_gamma                90
_cell_volume                     866.165
_exptl_crystal_colour            yellow
_exptl_crystal_description       block
_cell_formula_units_Z            4
loop_
_atom_site_label
_atom_site_type_symbol
_atom_site_fract_x
_atom_site_fract_y
_atom_site_fract_z
C1 C 0.2154(5) 0.0891(3) 1.0231(3)
C2 C 0.2807(4) -0.0573(3) 1.0362(2)
C3 C 0.3028(4) -0.1417(3) 0.9531(2)
C4 C 0.2602(5) -0.0825(3) 0.8555(2)
C5 C 0.1969(5) 0.0620(4) 0.8446(2)
C6 C 0.1755(4) 0.1482(3) 0.9274(3)
C7 C 0.3277(4) -0.1244(3) 1.1339(2)
C8 C 0.3766(4) -0.2921(3) 0.9683(2)
N1 N 0.3905(4) -0.2569(3) 1.14918(17)
N2 N 0.4116(4) -0.3369(3) 1.06470(18)
H1 H 0.4519 -0.4261 1.0749
O1 O 0.2996(4) -0.0398(3) 1.21154(19)
O2 O 0.4102(4) -0.3760(2) 0.90077(16)
Cl1 Cl 0.14655(17) 0.13128(12) 0.72285(8)
Cl2 Cl 0.09739(15) 0.32818(11) 0.91494(10)
H2 H 0.196(6) 0.137(4) 1.068(3)
H3 H 0.285(6) -0.138(5) 0.799(3)
H4 H 0.332(6) -0.083(5) 1.257(4)
loop_
_geom_bond_atom_site_label_1
_geom_bond_atom_site_label_2
_geom_bond_site_symmetry_1
_geom_bond_site_symmetry_2
C1 C2 1_555 1_555
C2 C3 1_555 1_555
C3 C4 1_555 1_555
C4 C5 1_555 1_555
C5 C6 1_555 1_555
C6 C1 1_555 1_555
C7 C2 1_555 1_555
C8 C3 1_555 1_555
N1 C7 1_555 1_555
N2 C8 1_555 1_555
H1 N2 1_555 1_555
O1 C7 1_555 1_555
O2 C8 1_555 1_555
Cl1 C5 1_555 1_555
Cl2 C6 1_555 1_555
H2 C1 1_555 1_555
H3 C4 1_555 1_555
H4 O1 1_555 1_555
N1 N2 1_555 1_555

#END
