
#######################################################################
#
#                 Cambridge Crystallographic Data Centre
#                                CCDC 
#
#######################################################################
#
# If this CIF has been generated from an entry in the Cambridge 
# Structural Database, then it will include bibliographic, chemical, 
# crystal, experimental, refinement or atomic coordinate data resulting 
# from the CCDC's data processing and validation procedures.
#
#######################################################################

data_IPEHUH
_chemical_formula_moiety         'C34 H35 N5 O2,H2 O1'
_chemical_name_systematic        
"3',6'-bis(ethylamino)-2',7'-dimethyl-2-(2-((pyridin-2-ylmethylene)amino)ethyl)spiro[isoindole-1,9'-xanthen]-3(2H)-one monohydrate"
_symmetry_cell_setting           monoclinic
_symmetry_space_group_name_H-M   'P 21/c'
_symmetry_Int_Tables_number      14
_space_group_name_Hall           '-P 2ybc'
loop_
_symmetry_equiv_pos_site_id
_symmetry_equiv_pos_as_xyz
1 x,y,z
2 -x,1/2+y,1/2-z
3 -x,-y,-z
4 x,1/2-y,1/2+z
_cell_length_a                   14.0641(14)
_cell_length_b                   22.836(3)
_cell_length_c                   9.3881(13)
_cell_angle_alpha                90
_cell_angle_beta                 90.6530(17)
_cell_angle_gamma                90
_cell_volume                     3014.96
_cell_formula_units_Z            4
_exptl_crystal_recrystallization_method acetonitrile/water
loop_
_atom_site_label
_atom_site_type_symbol
_atom_site_fract_x
_atom_site_fract_y
_atom_site_fract_z
C1 C 0.24108(16) 0.30251(9) 1.2894(2)
H1 H 0.2897 0.2751 1.2996
C2 C 0.16944(15) 0.31007(10) 1.3940(3)
H2 H 0.1708 0.2871 1.4758
C3 C 0.09578(15) 0.35225(9) 1.3751(3)
H3 H 0.0496 0.3564 1.4444
C4 C 0.09216(16) 0.38796(9) 1.2513(2)
H4 H 0.0435 0.4149 1.2365
C5 C 0.16427(15) 0.38091(9) 1.1539(2)
C6 C 0.23337(14) 0.33850(9) 1.1722(2)
C7 C 0.29870(15) 0.34229(9) 1.0517(2)
C8 C 0.17979(14) 0.41525(9) 1.0147(2)
C9 C 0.20159(14) 0.48143(9) 1.0427(2)
C10 C 0.26939(16) 0.49885(10) 1.1436(3)
H5 H 0.2995 0.4705 1.1992
C11 C 0.29324(14) 0.55717(9) 1.1635(3)
C12 C 0.24214(14) 0.60084(9) 1.0844(2)
C13 C 0.17074(14) 0.58388(9) 0.9888(2)
H6 H 0.1369 0.6119 0.9373
C14 C 0.15048(16) 0.52467(9) 0.9709(3)
C15 C 0.05630(14) 0.45645(9) 0.8382(2)
C16 C -0.01201(15) 0.45030(9) 0.7326(2)
H7 H -0.0368 0.4833 0.6874
C17 C -0.04355(15) 0.39513(9) 0.6939(2)
C18 C -0.00129(15) 0.34537(9) 0.7601(3)
C19 C 0.06579(15) 0.35228(10) 0.8656(2)
H8 H 0.0888 0.3193 0.9127
C20 C 0.10127(15) 0.40798(9) 0.9054(2)
C21 C 0.32564(16) 0.40660(10) 0.8423(2)
H9 H 0.3930 0.4027 0.8632
H10 H 0.3120 0.4475 0.8231
C22 C 0.29771(15) 0.36844(9) 0.7113(2)
H11 H 0.3110 0.3274 0.7289
H12 H 0.2309 0.3729 0.6872
C23 C 0.41034(15) 0.35265(10) 0.5262(2)
H13 H 0.4101 0.3134 0.5522
C24 C 0.46742(15) 0.37452(10) 0.4052(2)
C25 C 0.47697(16) 0.43459(10) 0.3773(3)
H14 H 0.4505 0.4627 0.4365
C26 C 0.52861(15) 0.45031(10) 0.2553(2)
H15 H 0.5357 0.4897 0.2324
C27 C 0.56964(15) 0.40734(9) 0.1676(3)
H16 H 0.6051 0.4176 0.0883
C28 C 0.55487(16) 0.34802(10) 0.2046(3)
H17 H 0.5800 0.3191 0.1464
C29 C 0.37096(15) 0.57612(9) 1.2731(3)
H18 H 0.3418 0.5851 1.3625
H19 H 0.4033 0.6102 1.2384
H20 H 0.4158 0.5448 1.2862
C30 C 0.22480(16) 0.70271(9) 0.9970(3)
H21 H 0.1565 0.7049 1.0088
H22 H 0.2380 0.6904 0.9003
C31 C 0.27281(15) 0.76419(10) 1.0298(2)
H23 H 0.3227 0.7592 1.0994
H24 H 0.2259 0.7907 1.0661
H25 H 0.2989 0.7799 0.9439
C32 C -0.03839(15) 0.28297(9) 0.7161(3)
H26 H -0.0158 0.2734 0.6228
H27 H -0.1066 0.2829 0.7153
H28 H -0.0153 0.2545 0.7833
C33 C -0.14864(15) 0.44018(9) 0.5105(3)
H29 H -0.0976 0.4632 0.4704
H30 H -0.1817 0.4641 0.5794
C34 C -0.21850(16) 0.42040(10) 0.3909(2)
H31 H -0.1875 0.3926 0.3304
H32 H -0.2378 0.4538 0.3356
H33 H -0.2734 0.4026 0.4326
N1 N 0.26930(12) 0.38590(7) 0.96404(18)
N2 N 0.35988(13) 0.39236(8) 0.5947(2)
N3 N 0.50570(12) 0.33155(8) 0.3210(2)
N4 N 0.26880(12) 0.66026(7) 1.10386(19)
H34 H 0.3069 0.6714 1.1709
N5 N -0.10958(12) 0.38731(8) 0.5806(2)
H35 H -0.1264 0.3529 0.5533
O1 O 0.36878(10) 0.31044(6) 1.02811(16)
O2 O 0.08240(10) 0.51370(6) 0.86918(16)
O3 O 0.47802(10) 0.70425(6) 0.15731(16)
H36 H 0.5027 0.7239 0.2251
H37 H 0.5187 0.6984 0.0926
loop_
_geom_bond_atom_site_label_1
_geom_bond_atom_site_label_2
_geom_bond_site_symmetry_1
_geom_bond_site_symmetry_2
C1 H1 1_555 1_555
C2 C1 1_555 1_555
H2 C2 1_555 1_555
C3 C2 1_555 1_555
H3 C3 1_555 1_555
C4 C3 1_555 1_555
H4 C4 1_555 1_555
C5 C4 1_555 1_555
C6 C1 1_555 1_555
C7 C6 1_555 1_555
C8 C5 1_555 1_555
C9 C8 1_555 1_555
C10 C9 1_555 1_555
H5 C10 1_555 1_555
C11 C10 1_555 1_555
C12 C11 1_555 1_555
C13 C12 1_555 1_555
H6 C13 1_555 1_555
C14 C9 1_555 1_555
C15 C16 1_555 1_555
C16 H7 1_555 1_555
C17 C16 1_555 1_555
C18 C17 1_555 1_555
C19 C18 1_555 1_555
H8 C19 1_555 1_555
C20 C8 1_555 1_555
C21 H9 1_555 1_555
H10 C21 1_555 1_555
C22 C21 1_555 1_555
H11 C22 1_555 1_555
H12 C22 1_555 1_555
C23 H13 1_555 1_555
C24 C23 1_555 1_555
C25 C24 1_555 1_555
H14 C25 1_555 1_555
C26 C25 1_555 1_555
H15 C26 1_555 1_555
C27 C26 1_555 1_555
H16 C27 1_555 1_555
C28 C27 1_555 1_555
H17 C28 1_555 1_555
C29 C11 1_555 1_555
H18 C29 1_555 1_555
H19 C29 1_555 1_555
H20 C29 1_555 1_555
C30 H21 1_555 1_555
H22 C30 1_555 1_555
C31 C30 1_555 1_555
H23 C31 1_555 1_555
H24 C31 1_555 1_555
H25 C31 1_555 1_555
C32 C18 1_555 1_555
H26 C32 1_555 1_555
H27 C32 1_555 1_555
H28 C32 1_555 1_555
C33 H29 1_555 1_555
H30 C33 1_555 1_555
C34 C33 1_555 1_555
H31 C34 1_555 1_555
H32 C34 1_555 1_555
H33 C34 1_555 1_555
N1 C7 1_555 1_555
N2 C22 1_555 1_555
N3 C24 1_555 1_555
N4 C12 1_555 1_555
H34 N4 1_555 1_555
N5 C17 1_555 1_555
H35 N5 1_555 1_555
O1 C7 1_555 1_555
O2 C14 1_555 1_555
O3 H36 1_555 1_555
H37 O3 1_555 1_555
C5 C6 1_555 1_555
C8 N1 1_555 1_555
C13 C14 1_555 1_555
C15 C20 1_555 1_555
C15 O2 1_555 1_555
C19 C20 1_555 1_555
C21 N1 1_555 1_555
C23 N2 1_555 1_555
C28 N3 1_555 1_555
C30 N4 1_555 1_555
C33 N5 1_555 1_555

#END
