
#######################################################################
#
#                 Cambridge Crystallographic Data Centre
#                                CCDC 
#
#######################################################################
#
# If this CIF has been generated from an entry in the Cambridge 
# Structural Database, then it will include bibliographic, chemical, 
# crystal, experimental, refinement or atomic coordinate data resulting 
# from the CCDC's data processing and validation procedures.
#
#######################################################################

data_IPEJIW
_chemical_formula_moiety         'C37 H62 N6 O4 Sr1'
_chemical_name_systematic        
bis(2,2,6,6-Tetramethylheptane-3,5-dionato)-tris(3,5-dimethylpyrazole)-strontium
_symmetry_cell_setting           triclinic
_symmetry_space_group_name_H-M   'P -1'
_symmetry_Int_Tables_number      2
_space_group_name_Hall           '-P 1'
loop_
_symmetry_equiv_pos_site_id
_symmetry_equiv_pos_as_xyz
1 x,y,z
2 -x,-y,-z
_cell_length_a                   10.948(2)
_cell_length_b                   12.367(3)
_cell_length_c                   17.357(4)
_cell_angle_alpha                77.85(3)
_cell_angle_beta                 74.17(3)
_cell_angle_gamma                68.45(3)
_cell_volume                     2086.84
_exptl_crystal_colour            colorless
_exptl_crystal_description       block
_chemical_melting_point          69-71deg.C
_cell_formula_units_Z            2
_exptl_crystal_recrystallization_method toluene
loop_
_atom_site_label
_atom_site_type_symbol
_atom_site_fract_x
_atom_site_fract_y
_atom_site_fract_z
Sr1 Sr 0.27676(3) 0.47840(3) 0.75447(2)
O1 O 0.2626(2) 0.3005(2) 0.85861(15)
O2 O 0.1518(2) 0.3747(2) 0.71809(16)
O3 O 0.0887(2) 0.6512(2) 0.71616(16)
O4 O 0.3533(2) 0.6565(2) 0.68136(15)
N1 N 0.4785(3) 0.3873(3) 0.63638(18)
N2 N 0.5484(3) 0.4586(3) 0.59201(19)
H1 H 0.5191 0.5334 0.5915
N3 N 0.1927(3) 0.5604(2) 0.89708(18)
N4 N 0.1815(3) 0.4795(3) 0.96362(18)
H2 H 0.2060 0.4055 0.9616
N5 N 0.5065(3) 0.4553(3) 0.8014(2)
N6 N 0.4935(3) 0.5671(3) 0.8071(2)
H3 H 0.4586 0.6265 0.7747
C1 C 0.1715(4) 0.0351(4) 0.9569(3)
H4 H 0.1930 -0.0179 1.0041
H5 H 0.1842 -0.0087 0.9142
H6 H 0.0795 0.0850 0.9691
C2 C 0.2639(3) 0.1101(3) 0.9305(2)
C3 C 0.2237(3) 0.2136(3) 0.8632(2)
C4 C 0.1514(3) 0.2037(3) 0.8107(2)
H7 H 0.1252 0.1376 0.8209
C5 C 0.1155(3) 0.2858(3) 0.7440(2)
C6 C 0.0205(3) 0.2723(3) 0.6965(2)
C7 C 0.0864(4) 0.2788(4) 0.6072(3)
H8 H 0.1723 0.2182 0.5989
H9 H 0.0983 0.3538 0.5889
H10 H 0.0301 0.2685 0.5774
C8 C -0.0125(4) 0.1580(4) 0.7237(3)
H11 H -0.0662 0.1527 0.6901
H12 H -0.0615 0.1572 0.7788
H13 H 0.0694 0.0925 0.7194
C9 C -0.1112(4) 0.3775(4) 0.7109(3)
H14 H -0.0916 0.4492 0.6914
H15 H -0.1507 0.3755 0.7676
H16 H -0.1729 0.3730 0.6825
C10 C 0.2663(4) 0.1574(3) 1.0044(2)
H17 H 0.1777 0.2072 1.0260
H18 H 0.3272 0.2015 0.9890
H19 H 0.2957 0.0932 1.0445
C11 C 0.4069(4) 0.0301(4) 0.8955(3)
H20 H 0.4678 0.0742 0.8805
H21 H 0.4055 0.0010 0.8487
H22 H 0.4362 -0.0345 0.9354
C12 C -0.1567(4) 0.8733(5) 0.7481(3)
H23 H -0.1148 0.9261 0.7540
H24 H -0.1521 0.8128 0.7931
H25 H -0.2492 0.9156 0.7461
C13 C -0.0833(3) 0.8179(3) 0.6696(2)
C14 C 0.0647(3) 0.7508(3) 0.6777(2)
C15 C 0.1622(3) 0.8089(3) 0.6436(2)
H26 H 0.1334 0.8837 0.6162
C16 C 0.2977(3) 0.7617(3) 0.6483(2)
C17 C 0.3891(3) 0.8386(3) 0.6161(2)
C18 C 0.3325(4) 0.9462(3) 0.5566(3)
H27 H 0.2488 0.9967 0.5839
H28 H 0.3179 0.9205 0.5124
H29 H 0.3955 0.9881 0.5365
C19 C 0.5284(3) 0.7640(4) 0.5742(3)
H30 H 0.5849 0.8120 0.5531
H31 H 0.5198 0.7322 0.5308
H32 H 0.5678 0.7013 0.6124
C20 C 0.4019(4) 0.8828(4) 0.6889(3)
H33 H 0.4431 0.8172 0.7248
H34 H 0.3142 0.9261 0.7168
H35 H 0.4564 0.9326 0.6706
C21 C -0.0988(4) 0.9143(5) 0.5987(3)
H36 H -0.0457 0.8821 0.5497
H37 H -0.0688 0.9743 0.6064
H38 H -0.1916 0.9473 0.5951
C22 C -0.1457(4) 0.7291(5) 0.6625(4)
H39 H -0.2398 0.7676 0.6635
H40 H -0.1344 0.6678 0.7069
H41 H -0.1019 0.6962 0.6127
C23 C 0.5589(3) 0.2788(3) 0.6211(2)
C24 C 0.6799(3) 0.2834(4) 0.5659(3)
C25 C 0.6687(3) 0.3994(3) 0.5489(2)
C26 C 0.5135(4) 0.1755(4) 0.6606(3)
H42 H 0.4280 0.2017 0.6971
H43 H 0.5784 0.1208 0.6900
H44 H 0.5052 0.1381 0.6201
C27 C 0.7618(4) 0.4609(4) 0.4948(3)
H45 H 0.7100 0.5369 0.4732
H46 H 0.8165 0.4159 0.4514
H47 H 0.8183 0.4694 0.5252
C28 C 0.1462(3) 0.6636(3) 0.9262(2)
C29 C 0.1038(3) 0.6489(3) 1.0106(2)
C30 C 0.1273(3) 0.5296(3) 1.0330(2)
C31 C 0.1421(4) 0.7744(3) 0.8700(3)
H48 H 0.1825 0.7559 0.8158
H49 H 0.1909 0.8141 0.8854
H50 H 0.0504 0.8242 0.8728
C32 C 0.1034(4) 0.4600(4) 1.1134(2)
H51 H 0.0789 0.3954 1.1080
H52 H 0.0320 0.5089 1.1498
H53 H 0.1839 0.4308 1.1341
C33 C 0.5413(3) 0.5754(4) 0.8692(3)
C34 C 0.5910(3) 0.4605(4) 0.9051(3)
C35 C 0.5670(3) 0.3899(3) 0.8613(2)
C36 C 0.5345(4) 0.6897(4) 0.8879(3)
H54 H 0.5860 0.7256 0.8429
H55 H 0.5705 0.6773 0.9349
H56 H 0.4425 0.7402 0.8979
C37 C 0.6017(4) 0.2599(4) 0.8732(3)
H57 H 0.5492 0.2364 0.9236
H58 H 0.6955 0.2238 0.8737
H59 H 0.5826 0.2358 0.8299
loop_
_geom_bond_atom_site_label_1
_geom_bond_atom_site_label_2
_geom_bond_site_symmetry_1
_geom_bond_site_symmetry_2
Sr1 O1 1_555 1_555
O1 C3 1_555 1_555
O2 Sr1 1_555 1_555
O3 Sr1 1_555 1_555
O4 Sr1 1_555 1_555
N1 Sr1 1_555 1_555
N2 N1 1_555 1_555
H1 N2 1_555 1_555
N3 Sr1 1_555 1_555
N4 N3 1_555 1_555
H2 N4 1_555 1_555
N5 Sr1 1_555 1_555
N6 N5 1_555 1_555
H3 N6 1_555 1_555
C1 H4 1_555 1_555
H5 C1 1_555 1_555
H6 C1 1_555 1_555
C2 C1 1_555 1_555
C3 C2 1_555 1_555
C4 C3 1_555 1_555
H7 C4 1_555 1_555
C5 O2 1_555 1_555
C6 C5 1_555 1_555
C7 C6 1_555 1_555
H8 C7 1_555 1_555
H9 C7 1_555 1_555
H10 C7 1_555 1_555
C8 C6 1_555 1_555
H11 C8 1_555 1_555
H12 C8 1_555 1_555
H13 C8 1_555 1_555
C9 C6 1_555 1_555
H14 C9 1_555 1_555
H15 C9 1_555 1_555
H16 C9 1_555 1_555
C10 C2 1_555 1_555
H17 C10 1_555 1_555
H18 C10 1_555 1_555
H19 C10 1_555 1_555
C11 C2 1_555 1_555
H20 C11 1_555 1_555
H21 C11 1_555 1_555
H22 C11 1_555 1_555
C12 H23 1_555 1_555
H24 C12 1_555 1_555
H25 C12 1_555 1_555
C13 C12 1_555 1_555
C14 O3 1_555 1_555
C15 C14 1_555 1_555
H26 C15 1_555 1_555
C16 O4 1_555 1_555
C17 C16 1_555 1_555
C18 C17 1_555 1_555
H27 C18 1_555 1_555
H28 C18 1_555 1_555
H29 C18 1_555 1_555
C19 C17 1_555 1_555
H30 C19 1_555 1_555
H31 C19 1_555 1_555
H32 C19 1_555 1_555
C20 C17 1_555 1_555
H33 C20 1_555 1_555
H34 C20 1_555 1_555
H35 C20 1_555 1_555
C21 C13 1_555 1_555
H36 C21 1_555 1_555
H37 C21 1_555 1_555
H38 C21 1_555 1_555
C22 C13 1_555 1_555
H39 C22 1_555 1_555
H40 C22 1_555 1_555
H41 C22 1_555 1_555
C23 N1 1_555 1_555
C24 C23 1_555 1_555
C25 N2 1_555 1_555
C26 C23 1_555 1_555
H42 C26 1_555 1_555
H43 C26 1_555 1_555
H44 C26 1_555 1_555
C27 C25 1_555 1_555
H45 C27 1_555 1_555
H46 C27 1_555 1_555
H47 C27 1_555 1_555
C28 N3 1_555 1_555
C29 C28 1_555 1_555
C30 N4 1_555 1_555
C31 C28 1_555 1_555
H48 C31 1_555 1_555
H49 C31 1_555 1_555
H50 C31 1_555 1_555
C32 C30 1_555 1_555
H51 C32 1_555 1_555
H52 C32 1_555 1_555
H53 C32 1_555 1_555
C33 N6 1_555 1_555
C34 C33 1_555 1_555
C35 N5 1_555 1_555
C36 C33 1_555 1_555
H54 C36 1_555 1_555
H55 C36 1_555 1_555
H56 C36 1_555 1_555
C37 C35 1_555 1_555
H57 C37 1_555 1_555
H58 C37 1_555 1_555
H59 C37 1_555 1_555
C4 C5 1_555 1_555
C13 C14 1_555 1_555
C15 C16 1_555 1_555
C24 C25 1_555 1_555
C29 C30 1_555 1_555
C34 C35 1_555 1_555

#END
