
#######################################################################
#
#                 Cambridge Crystallographic Data Centre
#                                CCDC 
#
#######################################################################
#
# If this CIF has been generated from an entry in the Cambridge 
# Structural Database, then it will include bibliographic, chemical, 
# crystal, experimental, refinement or atomic coordinate data resulting 
# from the CCDC's data processing and validation procedures.
#
#######################################################################

data_IPESUT
_chemical_formula_moiety         'C22 H15 F1 O4'
_chemical_name_systematic        
6-(3-fluorophenyl)-7-(4-methoxyphenyl)furo[2,3-f][1,3]benzodioxole
_symmetry_cell_setting           triclinic
_symmetry_space_group_name_H-M   'P -1'
_symmetry_Int_Tables_number      2
_space_group_name_Hall           '-P 1'
loop_
_symmetry_equiv_pos_site_id
_symmetry_equiv_pos_as_xyz
1 x,y,z
2 -x,-y,-z
_cell_length_a                   6.2368(3)
_cell_length_b                   12.0269(5)
_cell_length_c                   12.3293(6)
_cell_angle_alpha                107.207(2)
_cell_angle_beta                 92.248(2)
_cell_angle_gamma                98.168(2)
_cell_volume                     871.224
_exptl_crystal_colour            colorless
_exptl_crystal_description       block
_chemical_melting_point          '147-148 deg.C'
_cell_formula_units_Z            2
_exptl_crystal_recrystallization_method chloroform
loop_
_atom_site_label
_atom_site_type_symbol
_atom_site_fract_x
_atom_site_fract_y
_atom_site_fract_z
O1 O 0.0399(3) 0.33008(13) 0.84234(16)
O2 O 0.0293(3) -0.35260(14) 0.60326(17)
O3 O -0.6184(4) 0.16791(17) 1.05609(19)
C1 C -0.3297(4) 0.1212(2) 0.9275(2)
H1 H -0.3547 0.0404 0.9165
C2 C 0.1146(4) 0.2273(2) 0.7833(2)
C3 C -0.1317(4) 0.29767(19) 0.8986(2)
C4 C -0.0063(4) 0.13112(18) 0.8010(2)
C5 C -0.1660(4) 0.17467(18) 0.8764(2)
C6 C -0.4494(5) 0.1959(2) 0.9945(2)
C7 C 0.3024(4) 0.2468(2) 0.7197(2)
O4 O -0.5603(4) 0.36866(16) 1.0832(2)
C8 C 0.0091(4) 0.00427(19) 0.7510(2)
C9 C -0.2521(5) 0.3738(2) 0.9665(2)
H2 H -0.2259 0.4550 0.9796
C10 C -0.4153(5) 0.3177(2) 1.0130(2)
C11 C 0.0298(4) -0.23571(18) 0.6570(2)
C12 C 0.3925(5) 0.1531(3) 0.6514(3)
H3 H 0.3326 0.0758 0.6447
C13 C -0.6995(5) 0.2738(2) 1.1058(3)
H4 H -0.7022 0.2881 1.1873
H5 H -0.8465 0.2680 1.0736
C14 C 0.3962(6) 0.3601(2) 0.7276(3)
H6 H 0.3387 0.4238 0.7726
C15 C 0.6674(5) 0.2868(3) 0.6030(3)
H7 H 0.7913 0.3010 0.5665
C16 C 0.5733(6) 0.1764(3) 0.5934(3)
H8 H 0.6301 0.1134 0.5467
C17 C 0.1563(6) -0.1697(2) 0.7519(3)
H9 H 0.2525 -0.2040 0.7863
C18 C 0.1438(6) -0.0514(2) 0.7984(3)
H10 H 0.2309 -0.0082 0.8645
C19 C -0.1174(7) -0.1838(3) 0.6114(3)
H11 H -0.2114 -0.2286 0.5484
F1 F 0.6621(7) 0.4870(2) 0.6780(3)
C20 C 0.1737(7) -0.4097(3) 0.6471(4)
H12 H 0.3191 -0.3826 0.6330
H13 H 0.1379 -0.4933 0.6109
H14 H 0.1637 -0.3928 0.7277
C21 C -0.1269(7) -0.0659(3) 0.6582(3)
H15 H -0.2283 -0.0325 0.6260
C22 C 0.5727(7) 0.3795(3) 0.6698(3)
loop_
_geom_bond_atom_site_label_1
_geom_bond_atom_site_label_2
_geom_bond_site_symmetry_1
_geom_bond_site_symmetry_2
O1 C2 1_555 1_555
O2 C11 1_555 1_555
O3 C6 1_555 1_555
C1 H1 1_555 1_555
C2 C4 1_555 1_555
C3 O1 1_555 1_555
C4 C5 1_555 1_555
C5 C1 1_555 1_555
C6 C1 1_555 1_555
C7 C2 1_555 1_555
O4 C10 1_555 1_555
C8 C4 1_555 1_555
C9 C3 1_555 1_555
H2 C9 1_555 1_555
C10 C6 1_555 1_555
C11 C17 1_555 1_555
C12 C7 1_555 1_555
H3 C12 1_555 1_555
C13 O3 1_555 1_555
H4 C13 1_555 1_555
H5 C13 1_555 1_555
C14 C7 1_555 1_555
H6 C14 1_555 1_555
C15 H7 1_555 1_555
C16 C12 1_555 1_555
H8 C16 1_555 1_555
C17 H9 1_555 1_555
C18 C8 1_555 1_555
H10 C18 1_555 1_555
C19 C11 1_555 1_555
H11 C19 1_555 1_555
F1 C22 1_555 1_555
C20 O2 1_555 1_555
H12 C20 1_555 1_555
H13 C20 1_555 1_555
H14 C20 1_555 1_555
C21 C8 1_555 1_555
H15 C21 1_555 1_555
C22 C14 1_555 1_555
C3 C5 1_555 1_555
O4 C13 1_555 1_555
C9 C10 1_555 1_555
C15 C16 1_555 1_555
C15 C22 1_555 1_555
C17 C18 1_555 1_555
C19 C21 1_555 1_555

#END
