
#######################################################################
#
#                 Cambridge Crystallographic Data Centre
#                                CCDC 
#
#######################################################################
#
# If this CIF has been generated from an entry in the Cambridge 
# Structural Database, then it will include bibliographic, chemical, 
# crystal, experimental, refinement or atomic coordinate data resulting 
# from the CCDC's data processing and validation procedures.
#
#######################################################################

data_IPEVAC
_chemical_formula_moiety         'C19 H21 N1 O4 S1,0.5(H2 O1)'
_chemical_name_systematic        
'1-((2S,3R,5S)-5-hydroxy-1-((4-methylphenyl)sulfonyl)-3-phenylpyrrolidin-2-yl)ethanone hemihydrate'
_symmetry_cell_setting           orthorhombic
_symmetry_space_group_name_H-M   'P 21 21 21'
_symmetry_Int_Tables_number      19
_space_group_name_Hall           'P 2ac 2ab'
loop_
_symmetry_equiv_pos_site_id
_symmetry_equiv_pos_as_xyz
1 x,y,z
2 1/2-x,-y,1/2+z
3 -x,1/2+y,1/2-z
4 1/2+x,1/2-y,-z
_cell_length_a                   10.156(3)
_cell_length_b                   17.874(5)
_cell_length_c                   20.771(6)
_cell_angle_alpha                90
_cell_angle_beta                 90
_cell_angle_gamma                90
_cell_volume                     3770.53
_exptl_crystal_colour            white
_exptl_crystal_description       block
_cell_formula_units_Z            8
loop_
_atom_site_label
_atom_site_type_symbol
_atom_site_fract_x
_atom_site_fract_y
_atom_site_fract_z
S1 S 0.09862(13) 0.72768(6) 0.76035(6)
O1 O 0.1479(3) 0.78910(18) 0.72368(16)
O2 O 0.1888(3) 0.68040(18) 0.79389(16)
O3 O -0.1293(4) 0.79062(18) 0.59090(16)
O4 O 0.1026(4) 0.55517(18) 0.68077(17)
H1 H 0.1670 0.5415 0.7015
N1 N 0.0188(2) 0.67361(10) 0.71198(10)
C1 C 0.0129(2) 0.59190(10) 0.72201(10)
H2 H 0.0297 0.5791 0.7671
C2 C -0.1276(5) 0.5737(2) 0.7033(3)
H3 H -0.1863 0.5800 0.7397
H4 H -0.1344 0.5226 0.6879
C3 C -0.1616(4) 0.6287(2) 0.6501(2)
H5 H -0.1185 0.6117 0.6106
C4 C -0.0916(4) 0.7020(2) 0.67237(19)
H6 H -0.1515 0.7317 0.6991
C5 C -0.0515(5) 0.7466(2) 0.6132(2)
C6 C 0.0774(5) 0.7315(3) 0.5817(2)
H7 H 0.0878 0.7640 0.5453
H8 H 0.0802 0.6803 0.5676
H9 H 0.1473 0.7403 0.6119
C7 C -0.3069(5) 0.6383(2) 0.6359(2)
C8 C -0.3956(6) 0.6547(2) 0.6839(3)
H10 H -0.3659 0.6619 0.7258
C9 C -0.5272(7) 0.6606(3) 0.6706(4)
H11 H -0.5859 0.6722 0.7034
C10 C -0.5723(7) 0.6499(4) 0.6107(6)
H12 H -0.6621 0.6534 0.6025
C11 C -0.4876(7) 0.6340(4) 0.5614(4)
H13 H -0.5195 0.6269 0.5199
C12 C -0.3533(6) 0.6283(3) 0.5738(3)
C13 C -0.0160(5) 0.7641(2) 0.8144(2)
C14 C -0.0256(6) 0.8402(3) 0.8238(3)
H14 H 0.0267 0.8729 0.8002
C15 C -0.1148(7) 0.8675(3) 0.8691(3)
H15 H -0.1196 0.9189 0.8759
C16 C -0.1952(6) 0.8217(4) 0.9037(3)
C17 C -0.1870(7) 0.7457(3) 0.8934(3)
H16 H -0.2417 0.7136 0.9163
C18 C -0.0985(7) 0.7165(3) 0.8495(3)
H17 H -0.0938 0.6651 0.8432
C19 C -0.2962(7) 0.8528(4) 0.9505(3)
H18 H -0.2913 0.9064 0.9507
H19 H -0.2784 0.8340 0.9929
H20 H -0.3828 0.8375 0.9374
S2 S 0.64643(11) 0.93225(6) 0.72807(5)
O5 O 0.6744(3) 1.00883(17) 0.74332(16)
O6 O 0.7511(3) 0.8801(2) 0.71984(17)
O7 O 0.4103(4) 1.11191(18) 0.66048(18)
O8 O 0.6323(4) 0.8661(2) 0.56776(15)
H21 H 0.7014 0.8440 0.5752
N2 N 0.5653(2) 0.93370(10) 0.66052(10)
C20 C 0.5514(5) 0.8638(2) 0.6229(2)
H22 H 0.5706 0.8198 0.6493
C21 C 0.4082(5) 0.8653(2) 0.6024(2)
H23 H 0.3526 0.8420 0.6347
H24 H 0.3962 0.8394 0.5618
C22 C 0.3759(4) 0.9490(2) 0.59555(19)
H25 H 0.4177 0.9674 0.5561
C23 C 0.4500(4) 0.9833(2) 0.6539(2)
H26 H 0.3950 0.9799 0.6926
C24 C 0.4838(5) 1.0644(2) 0.6405(2)
C25 C 0.6011(5) 1.0826(3) 0.6006(3)
H27 H 0.6090 1.1359 0.5965
H28 H 0.5913 1.0607 0.5587
H29 H 0.6787 1.0629 0.6208
C26 C 0.2329(4) 0.9706(2) 0.5936(2)
C27 C 0.1428(5) 0.9429(3) 0.6368(3)
H30 H 0.1699 0.9099 0.6688
C28 C 0.0123(6) 0.9640(4) 0.6331(4)
H31 H -0.0482 0.9440 0.6619
C29 C -0.0294(7) 1.0142(5) 0.5872(4)
H32 H -0.1175 1.0280 0.5844
C30 C 0.0622(7) 1.0434(5) 0.5457(4)
H33 H 0.0361 1.0781 0.5149
C31 C 0.1892(6) 1.0224(3) 0.5488(3)
H34 H 0.2493 1.0433 0.5202
C32 C 0.5381(5) 0.8981(2) 0.7869(2)
C33 C 0.5266(5) 0.8212(2) 0.7954(2)
H35 H 0.5788 0.7885 0.7718
C34 C 0.4382(6) 0.7947(3) 0.8387(2)
H36 H 0.4305 0.7433 0.8441
C35 C 0.3593(5) 0.8413(3) 0.8749(2)
C36 C 0.3720(5) 0.9180(3) 0.8660(2)
H37 H 0.3200 0.9506 0.8899
C37 C 0.4609(5) 0.9467(2) 0.8218(2)
H38 H 0.4684 0.9981 0.8158
C38 C 0.2647(7) 0.8105(4) 0.9245(3)
H39 H 0.2176 0.8510 0.9443
H40 H 0.3130 0.7836 0.9568
H41 H 0.2034 0.7773 0.9040
O9 O 0.5753(2) 0.96463(10) 0.46141(10)
H42 H 0.5762 0.9588 0.4208
H43 H 0.5948 0.9242 0.4807
H44? H -0.3089 0.6645 0.5466
H45? H -0.3252 0.5791 0.5597
loop_
_geom_bond_atom_site_label_1
_geom_bond_atom_site_label_2
_geom_bond_site_symmetry_1
_geom_bond_site_symmetry_2
S1 O1 1_555 1_555
O2 S1 1_555 1_555
O3 C5 1_555 1_555
O4 H1 1_555 1_555
N1 S1 1_555 1_555
C1 O4 1_555 1_555
H2 C1 1_555 1_555
C2 C1 1_555 1_555
H3 C2 1_555 1_555
H4 C2 1_555 1_555
C3 C2 1_555 1_555
H5 C3 1_555 1_555
C4 N1 1_555 1_555
H6 C4 1_555 1_555
C5 C4 1_555 1_555
C6 C5 1_555 1_555
H7 C6 1_555 1_555
H8 C6 1_555 1_555
H9 C6 1_555 1_555
C7 C3 1_555 1_555
C8 C7 1_555 1_555
H10 C8 1_555 1_555
C9 C8 1_555 1_555
H11 C9 1_555 1_555
C10 C9 1_555 1_555
H12 C10 1_555 1_555
C11 C10 1_555 1_555
H13 C11 1_555 1_555
C12 C7 1_555 1_555
C13 S1 1_555 1_555
C14 C13 1_555 1_555
H14 C14 1_555 1_555
C15 C14 1_555 1_555
H15 C15 1_555 1_555
C16 C15 1_555 1_555
C17 C16 1_555 1_555
H16 C17 1_555 1_555
C18 C13 1_555 1_555
H17 C18 1_555 1_555
C19 C16 1_555 1_555
H18 C19 1_555 1_555
H19 C19 1_555 1_555
H20 C19 1_555 1_555
S2 O5 1_555 1_555
O6 S2 1_555 1_555
O7 C24 1_555 1_555
O8 H21 1_555 1_555
N2 S2 1_555 1_555
C20 O8 1_555 1_555
H22 C20 1_555 1_555
C21 C20 1_555 1_555
H23 C21 1_555 1_555
H24 C21 1_555 1_555
C22 C21 1_555 1_555
H25 C22 1_555 1_555
C23 N2 1_555 1_555
H26 C23 1_555 1_555
C24 C23 1_555 1_555
C25 C24 1_555 1_555
H27 C25 1_555 1_555
H28 C25 1_555 1_555
H29 C25 1_555 1_555
C26 C22 1_555 1_555
C27 C26 1_555 1_555
H30 C27 1_555 1_555
C28 C27 1_555 1_555
H31 C28 1_555 1_555
C29 C28 1_555 1_555
H32 C29 1_555 1_555
C30 C29 1_555 1_555
H33 C30 1_555 1_555
C31 C26 1_555 1_555
H34 C31 1_555 1_555
C32 S2 1_555 1_555
C33 C32 1_555 1_555
H35 C33 1_555 1_555
C34 C33 1_555 1_555
H36 C34 1_555 1_555
C35 C34 1_555 1_555
C36 C35 1_555 1_555
H37 C36 1_555 1_555
C37 C32 1_555 1_555
H38 C37 1_555 1_555
C38 C35 1_555 1_555
H39 C38 1_555 1_555
H40 C38 1_555 1_555
H41 C38 1_555 1_555
O9 H42 1_555 1_555
H43 O9 1_555 1_555
N1 C1 1_555 1_555
C3 C4 1_555 1_555
C11 C12 1_555 1_555
C17 C18 1_555 1_555
N2 C20 1_555 1_555
C22 C23 1_555 1_555
C30 C31 1_555 1_555
C36 C37 1_555 1_555

#END
