
#######################################################################
#
#                 Cambridge Crystallographic Data Centre
#                                CCDC 
#
#######################################################################
#
# If this CIF has been generated from an entry in the Cambridge 
# Structural Database, then it will include bibliographic, chemical, 
# crystal, experimental, refinement or atomic coordinate data resulting 
# from the CCDC's data processing and validation procedures.
#
#######################################################################

data_IPEWIL
_chemical_formula_moiety         'C30 H27 N1 O3'
_chemical_name_systematic        
'methyl 4-oxo-4-((4-tritylphenyl)amino)butanoate'
_symmetry_cell_setting           orthorhombic
_symmetry_space_group_name_H-M   'P n a 21'
_symmetry_Int_Tables_number      33
_space_group_name_Hall           'P 2c -2n'
loop_
_symmetry_equiv_pos_site_id
_symmetry_equiv_pos_as_xyz
1 x,y,z
2 -x,-y,1/2+z
3 1/2+x,1/2-y,z
4 1/2-x,1/2+y,1/2+z
_cell_length_a                   9.3973(2)
_cell_length_b                   27.6535(5)
_cell_length_c                   9.2497(2)
_cell_angle_alpha                90
_cell_angle_beta                 90
_cell_angle_gamma                90
_cell_volume                     2403.7
_exptl_crystal_colour            colorless
_exptl_crystal_description       blocks
_cell_formula_units_Z            4
loop_
_atom_site_label
_atom_site_type_symbol
_atom_site_fract_x
_atom_site_fract_y
_atom_site_fract_z
C1 C 0.3783(3) 0.19441(8) 0.9687(3)
H1 H 0.4279 0.2222 0.9263
H2 H 0.4479 0.1725 1.0125
H3 H 0.3118 0.2057 1.0430
O1 O 0.30072(13) 0.16919(5) 0.85709(14)
C2 C 0.20066(19) 0.19510(6) 0.78876(19)
O2 O 0.17527(16) 0.23657(5) 0.81548(17)
C3 C 0.12640(18) 0.16496(6) 0.67702(18)
H4 H 0.0609 0.1422 0.7258
H5 H 0.1978 0.1457 0.6233
C4 C 0.04271(18) 0.19576(6) 0.57111(18)
H6 H -0.0110 0.1744 0.5047
H7 H -0.0268 0.2157 0.6250
C5 C 0.13881(17) 0.22833(6) 0.48416(17)
O3 O 0.26694(12) 0.22059(4) 0.47249(14)
N1 N 0.07014(14) 0.26557(5) 0.41945(14)
H8 H -0.0190(17) 0.2710(6) 0.4412(19)
C6 C 0.12984(15) 0.30210(5) 0.33141(16)
C7 C 0.05558(16) 0.34522(5) 0.31692(16)
H9 H -0.0332 0.3493 0.3646
C8 C 0.11068(16) 0.38259(5) 0.23273(16)
H10 H 0.0585 0.4119 0.2238
C9 C 0.24001(15) 0.37803(5) 0.16165(15)
C10 C 0.31170(17) 0.33400(5) 0.17600(16)
H11 H 0.4001 0.3298 0.1278
C11 C 0.25830(17) 0.29635(6) 0.25794(17)
H12 H 0.3089 0.2667 0.2642
C12 C 0.30916(16) 0.41861(5) 0.07125(15)
C13 C 0.22636(16) 0.46673(5) 0.09142(16)
C14 C 0.09802(17) 0.47335(5) 0.01702(16)
H13 H 0.0662 0.4489 -0.0474
C15 C 0.01649(18) 0.51452(6) 0.03487(17)
H14 H -0.0706 0.5178 -0.0163
C16 C 0.06135(18) 0.55106(6) 0.12723(18)
H15 H 0.0055 0.5794 0.1399
C17 C 0.18850(17) 0.54553(5) 0.20031(18)
H16 H 0.2204 0.5703 0.2637
C18 C 0.27047(16) 0.50396(5) 0.18201(16)
H17 H 0.3581 0.5010 0.2324
C19 C 0.30367(15) 0.40601(5) -0.09160(16)
C20 C 0.34561(16) 0.44105(5) -0.19224(16)
H18 H 0.3817 0.4711 -0.1586
C21 C 0.33566(17) 0.43293(6) -0.33948(17)
H19 H 0.3667 0.4570 -0.4055
C22 C 0.28066(17) 0.38985(6) -0.39076(16)
H20 H 0.2720 0.3844 -0.4918
C23 C 0.23817(16) 0.35451(6) -0.29295(17)
H21 H 0.2007 0.3247 -0.3273
C24 C 0.25029(16) 0.36257(6) -0.14525(17)
H22 H 0.2217 0.3380 -0.0796
C25 C 0.46418(16) 0.42307(5) 0.12765(16)
C26 C 0.48567(17) 0.42507(5) 0.27773(16)
H23 H 0.4054 0.4242 0.3401
C27 C 0.62007(18) 0.42825(5) 0.33732(17)
H24 H 0.6314 0.4298 0.4393
C28 C 0.73824(18) 0.42919(6) 0.2480(2)
H25 H 0.8310 0.4318 0.2880
C29 C 0.71980(18) 0.42626(7) 0.1004(2)
H26 H 0.8006 0.4263 0.0387
C30 C 0.58385(17) 0.42318(6) 0.04059(17)
H27 H 0.5733 0.4211 -0.0614
loop_
_geom_bond_atom_site_label_1
_geom_bond_atom_site_label_2
_geom_bond_site_symmetry_1
_geom_bond_site_symmetry_2
C1 H1 1_555 1_555
H2 C1 1_555 1_555
H3 C1 1_555 1_555
O1 C1 1_555 1_555
C2 O1 1_555 1_555
O2 C2 1_555 1_555
C3 C2 1_555 1_555
H4 C3 1_555 1_555
H5 C3 1_555 1_555
C4 C3 1_555 1_555
H6 C4 1_555 1_555
H7 C4 1_555 1_555
C5 C4 1_555 1_555
O3 C5 1_555 1_555
N1 C5 1_555 1_555
H8 N1 1_555 1_555
C6 N1 1_555 1_555
C7 C6 1_555 1_555
H9 C7 1_555 1_555
C8 C7 1_555 1_555
H10 C8 1_555 1_555
C9 C8 1_555 1_555
C10 C9 1_555 1_555
H11 C10 1_555 1_555
C11 C6 1_555 1_555
H12 C11 1_555 1_555
C12 C9 1_555 1_555
C13 C12 1_555 1_555
C14 C13 1_555 1_555
H13 C14 1_555 1_555
C15 C14 1_555 1_555
H14 C15 1_555 1_555
C16 C15 1_555 1_555
H15 C16 1_555 1_555
C17 C16 1_555 1_555
H16 C17 1_555 1_555
C18 C13 1_555 1_555
H17 C18 1_555 1_555
C19 C12 1_555 1_555
C20 C19 1_555 1_555
H18 C20 1_555 1_555
C21 C20 1_555 1_555
H19 C21 1_555 1_555
C22 C21 1_555 1_555
H20 C22 1_555 1_555
C23 C22 1_555 1_555
H21 C23 1_555 1_555
C24 C19 1_555 1_555
H22 C24 1_555 1_555
C25 C12 1_555 1_555
C26 C25 1_555 1_555
H23 C26 1_555 1_555
C27 C26 1_555 1_555
H24 C27 1_555 1_555
C28 C27 1_555 1_555
H25 C28 1_555 1_555
C29 C28 1_555 1_555
H26 C29 1_555 1_555
C30 C25 1_555 1_555
H27 C30 1_555 1_555
C10 C11 1_555 1_555
C17 C18 1_555 1_555
C23 C24 1_555 1_555
C29 C30 1_555 1_555

#END
