
#######################################################################
#
#                 Cambridge Crystallographic Data Centre
#                                CCDC 
#
#######################################################################
#
# If this CIF has been generated from an entry in the Cambridge 
# Structural Database, then it will include bibliographic, chemical, 
# crystal, experimental, refinement or atomic coordinate data resulting 
# from the CCDC's data processing and validation procedures.
#
#######################################################################

data_IPEYAF
_chemical_formula_moiety         'C21 H28 N2 O2 S1'
_chemical_name_systematic        
N,N-Di-isopropyl-N'-((4-methylphenyl)sulfonyl)-2-phenylethanimidamide
_symmetry_cell_setting           triclinic
_symmetry_space_group_name_H-M   'P -1'
_symmetry_Int_Tables_number      2
_space_group_name_Hall           '-P 1'
loop_
_symmetry_equiv_pos_site_id
_symmetry_equiv_pos_as_xyz
1 x,y,z
2 -x,-y,-z
_cell_length_a                   8.1892(4)
_cell_length_b                   11.2458(6)
_cell_length_c                   12.4482(6)
_cell_angle_alpha                114.674(5)
_cell_angle_beta                 100.562(4)
_cell_angle_gamma                97.597(4)
_cell_volume                     995.739
_exptl_crystal_colour            colorless
_exptl_crystal_description       block
_cell_formula_units_Z            2
loop_
_atom_site_label
_atom_site_type_symbol
_atom_site_fract_x
_atom_site_fract_y
_atom_site_fract_z
S1 S -0.36150(5) 0.61094(4) 0.81618(3)
O1 O -0.44839(15) 0.48112(12) 0.79851(11)
C1 C -0.2104(3) 0.69594(18) 0.67396(16)
H1 H -0.1845 0.7837 0.7405
O2 O -0.45988(15) 0.71218(12) 0.83844(11)
N1 N -0.00185(17) 0.75602(13) 1.10771(12)
N2 N -0.17817(17) 0.66831(14) 0.91551(12)
C2 C -0.1603(2) 0.70324(15) 1.03294(14)
C3 C 0.1435(3) 0.8724(2) 1.00311(19)
H2 H 0.1201 0.9563 1.0591
H3 H 0.0526 0.8294 0.9263
H4 H 0.2533 0.8923 0.9860
C4 C -0.3374(2) 0.45909(17) 0.58441(15)
H5 H -0.3975 0.3844 0.5898
C5 C 0.1887(2) 0.6447(2) 0.98199(17)
H6 H 0.1925 0.5886 1.0247
H7 H 0.2992 0.6622 0.9650
H8 H 0.0988 0.5978 0.9046
C6 C -0.2016(2) 0.54865(19) 0.46838(16)
C7 C 0.1507(2) 0.77760(17) 1.06227(15)
H9 H 0.2501 0.8238 1.1366
C8 C -0.3450(2) 0.81601(16) 1.17183(15)
C9 C -0.1501(2) 0.5272(2) 0.35293(17)
H10 H -0.0890 0.6134 0.3621
H11 H -0.2523 0.4902 0.2837
H12 H -0.0753 0.4641 0.3378
C10 C -0.2901(2) 0.44169(17) 0.47823(15)
H13 H -0.3192 0.3543 0.4108
C11 C -0.3106(2) 0.68565(16) 1.08642(15)
H14 H -0.4146 0.6334 1.0180
H15 H -0.2877 0.6324 1.1314
C12 C -0.2961(2) 0.58628(16) 0.68228(15)
C13 C 0.0352(2) 0.79969(17) 1.24186(14)
H16 H -0.0741 0.7710 1.2588
C14 C -0.3621(2) 0.91781(18) 1.13742(17)
H17 H -0.3504 0.9058 1.0592
C15 C -0.3626(2) 0.83619(18) 1.28712(16)
H18 H -0.3529 0.7674 1.3116
C16 C -0.3960(3) 1.03693(18) 1.21652(19)
H19 H -0.4079 1.1056 1.1922
C17 C -0.3940(2) 0.95495(19) 1.36601(18)
H20 H -0.4031 0.9681 1.4450
C18 C 0.1635(2) 0.73079(19) 1.28313(16)
H21 H 0.1222 0.6330 1.2350
H22 H 0.1769 0.7558 1.3702
H23 H 0.2739 0.7592 1.2707
C19 C -0.1630(3) 0.67600(19) 0.56744(18)
H24 H -0.1030 0.7507 0.5620
C20 C 0.0896(2) 0.95214(18) 1.31298(17)
H25 H 0.0025 0.9915 1.2837
H26 H 0.1987 0.9839 1.3007
H27 H 0.1027 0.9794 1.4004
C21 C -0.4122(2) 1.05492(19) 1.3308(2)
H28 H -0.4359 1.1359 1.3849
loop_
_geom_bond_atom_site_label_1
_geom_bond_atom_site_label_2
_geom_bond_site_symmetry_1
_geom_bond_site_symmetry_2
S1 O1 1_555 1_555
C1 H1 1_555 1_555
O2 S1 1_555 1_555
N1 C2 1_555 1_555
N2 S1 1_555 1_555
C2 N2 1_555 1_555
C3 H2 1_555 1_555
H3 C3 1_555 1_555
H4 C3 1_555 1_555
C4 H5 1_555 1_555
C5 H6 1_555 1_555
H7 C5 1_555 1_555
H8 C5 1_555 1_555
C6 C9 1_555 1_555
C7 N1 1_555 1_555
H9 C7 1_555 1_555
C8 C11 1_555 1_555
C9 H10 1_555 1_555
H11 C9 1_555 1_555
H12 C9 1_555 1_555
C10 C4 1_555 1_555
H13 C10 1_555 1_555
C11 C2 1_555 1_555
H14 C11 1_555 1_555
H15 C11 1_555 1_555
C12 S1 1_555 1_555
C13 N1 1_555 1_555
H16 C13 1_555 1_555
C14 C8 1_555 1_555
H17 C14 1_555 1_555
C15 C8 1_555 1_555
H18 C15 1_555 1_555
C16 C14 1_555 1_555
H19 C16 1_555 1_555
C17 C15 1_555 1_555
H20 C17 1_555 1_555
C18 C13 1_555 1_555
H21 C18 1_555 1_555
H22 C18 1_555 1_555
H23 C18 1_555 1_555
C19 C1 1_555 1_555
H24 C19 1_555 1_555
C20 C13 1_555 1_555
H25 C20 1_555 1_555
H26 C20 1_555 1_555
H27 C20 1_555 1_555
C21 C16 1_555 1_555
H28 C21 1_555 1_555
C1 C12 1_555 1_555
C3 C7 1_555 1_555
C4 C12 1_555 1_555
C5 C7 1_555 1_555
C6 C10 1_555 1_555
C6 C19 1_555 1_555
C17 C21 1_555 1_555

#END
