
#######################################################################
#
#                 Cambridge Crystallographic Data Centre
#                                CCDC 
#
#######################################################################
#
# If this CIF has been generated from an entry in the Cambridge 
# Structural Database, then it will include bibliographic, chemical, 
# crystal, experimental, refinement or atomic coordinate data resulting 
# from the CCDC's data processing and validation procedures.
#
#######################################################################

data_IPEZAG
_chemical_name_common            'AMG 579'
_chemical_formula_moiety         'C25 H23 N5 O3'
_chemical_name_systematic        
1-(4-(3-(4-(1H-Benzimidazol-2-ylcarbonyl)phenoxy)pyrazin-2-yl)piperidin-1-yl)ethanone
_chemical_properties_biological  
'selective phosphodiesterase 10 (PDE10A) inhibitor'
_symmetry_cell_setting           orthorhombic
_symmetry_space_group_name_H-M   'P n a 21'
_symmetry_Int_Tables_number      33
_space_group_name_Hall           'P 2c -2n'
loop_
_symmetry_equiv_pos_site_id
_symmetry_equiv_pos_as_xyz
1 x,y,z
2 -x,-y,1/2+z
3 1/2-x,1/2+y,1/2+z
4 1/2+x,1/2-y,z
_cell_length_a                   14.8632(5)
_cell_length_b                   7.9124(2)
_cell_length_c                   18.9392(4)
_cell_angle_alpha                90
_cell_angle_beta                 90
_cell_angle_gamma                90
_cell_volume                     2227.32
_exptl_crystal_colour            yellow
_exptl_crystal_description       block
_cell_formula_units_Z            4
loop_
_atom_site_label
_atom_site_type_symbol
_atom_site_fract_x
_atom_site_fract_y
_atom_site_fract_z
O1 O 0.45509(15) 0.6830(3) 0.56223(12)
O2 O 0.31390(18) 1.3565(3) 0.42542(14)
O3 O 0.28129(16) 0.1656(3) 0.80902(13)
N1 N 0.28932(18) 1.3539(3) 0.28274(15)
H1 H 0.2678 1.4465 0.3022
N2 N 0.35400(17) 1.0970(3) 0.27430(14)
N3 N 0.54122(19) 0.5547(3) 0.47526(16)
N4 N 0.58726(18) 0.3090(3) 0.57538(16)
N5 N 0.40552(19) 0.3210(3) 0.79120(15)
C1 C 0.4269(2) 0.8094(4) 0.51595(18)
C2 C 0.4429(2) 0.9728(4) 0.53800(18)
H2 H 0.4760 0.9942 0.5800
C3 C 0.4099(2) 1.1048(4) 0.49789(18)
H3 H 0.4183 1.2178 0.5135
C4 C 0.3645(2) 1.0742(4) 0.43505(18)
C5 C 0.3485(2) 0.9077(4) 0.41360(17)
H4 H 0.3172 0.8858 0.3708
C6 C 0.3788(2) 0.7737(4) 0.45530(17)
H5 H 0.3666 0.6601 0.4422
C7 C 0.3331(2) 1.2244(4) 0.39480(19)
C8 C 0.3262(2) 1.2191(4) 0.31714(18)
C9 C 0.2921(2) 1.3170(4) 0.21226(18)
C10 C 0.2637(2) 1.4062(4) 0.15292(19)
H6 H 0.2366 1.5146 0.1568
C11 C 0.2767(2) 1.3301(4) 0.08873(19)
H7 H 0.2593 1.3882 0.0470
C12 C 0.3149(2) 1.1687(5) 0.08295(19)
H8 H 0.3213 1.1194 0.0375
C13 C 0.3433(2) 1.0799(4) 0.14122(19)
H9 H 0.3691 0.9705 0.1368
C14 C 0.3327(2) 1.1565(4) 0.20714(18)
C15 C 0.5101(2) 0.5556(4) 0.53997(17)
C16 C 0.5320(2) 0.4342(4) 0.59215(17)
C17 C 0.5978(2) 0.4256(4) 0.45993(19)
H10 H 0.6226 0.4182 0.4138
C18 C 0.6201(2) 0.3055(4) 0.50892(19)
H11 H 0.6600 0.2171 0.4958
C19 C 0.4953(2) 0.4472(4) 0.66610(16)
H12 H 0.5068 0.5650 0.6829
C20 C 0.3928(2) 0.4180(4) 0.66866(18)
H13 H 0.3623 0.5010 0.6377
H14 H 0.3788 0.3033 0.6508
C21 C 0.3579(2) 0.4360(4) 0.7435(2)
H15 H 0.3663 0.5540 0.7597
H16 H 0.2927 0.4105 0.7445
C22 C 0.5413(2) 0.3270(4) 0.71807(18)
H17 H 0.5327 0.2090 0.7021
H18 H 0.6067 0.3505 0.7189
C23 C 0.5032(2) 0.3471(5) 0.79200(19)
H19 H 0.5316 0.2640 0.8241
H20 H 0.5168 0.4618 0.8099
C24 C 0.3626(2) 0.1855(4) 0.81807(18)
C25 C 0.4160(2) 0.0611(5) 0.8613(2)
H21 H 0.3759 -0.0276 0.8791
H22 H 0.4440 0.1199 0.9013
H23 H 0.4629 0.0102 0.8318
loop_
_geom_bond_atom_site_label_1
_geom_bond_atom_site_label_2
_geom_bond_site_symmetry_1
_geom_bond_site_symmetry_2
O1 C1 1_555 1_555
O2 C7 1_555 1_555
O3 C24 1_555 1_555
N1 H1 1_555 1_555
N2 C8 1_555 1_555
N3 C15 1_555 1_555
N4 C16 1_555 1_555
N5 C21 1_555 1_555
C1 C2 1_555 1_555
C2 H2 1_555 1_555
C3 C2 1_555 1_555
H3 C3 1_555 1_555
C4 C3 1_555 1_555
C5 C4 1_555 1_555
H4 C5 1_555 1_555
C6 C1 1_555 1_555
H5 C6 1_555 1_555
C7 C4 1_555 1_555
C8 N1 1_555 1_555
C9 N1 1_555 1_555
C10 C9 1_555 1_555
H6 C10 1_555 1_555
C11 C10 1_555 1_555
H7 C11 1_555 1_555
C12 C11 1_555 1_555
H8 C12 1_555 1_555
C13 C12 1_555 1_555
H9 C13 1_555 1_555
C14 N2 1_555 1_555
C15 O1 1_555 1_555
C16 C15 1_555 1_555
C17 N3 1_555 1_555
H10 C17 1_555 1_555
C18 N4 1_555 1_555
H11 C18 1_555 1_555
C19 C16 1_555 1_555
H12 C19 1_555 1_555
C20 C19 1_555 1_555
H13 C20 1_555 1_555
H14 C20 1_555 1_555
C21 C20 1_555 1_555
H15 C21 1_555 1_555
H16 C21 1_555 1_555
C22 C19 1_555 1_555
H17 C22 1_555 1_555
H18 C22 1_555 1_555
C23 N5 1_555 1_555
H19 C23 1_555 1_555
H20 C23 1_555 1_555
C24 N5 1_555 1_555
C25 C24 1_555 1_555
H21 C25 1_555 1_555
H22 C25 1_555 1_555
H23 C25 1_555 1_555
C5 C6 1_555 1_555
C7 C8 1_555 1_555
C9 C14 1_555 1_555
C13 C14 1_555 1_555
C17 C18 1_555 1_555
C22 C23 1_555 1_555

#END
