
#######################################################################
#
#                 Cambridge Crystallographic Data Centre
#                                CCDC 
#
#######################################################################
#
# If this CIF has been generated from an entry in the Cambridge 
# Structural Database, then it will include bibliographic, chemical, 
# crystal, experimental, refinement or atomic coordinate data resulting 
# from the CCDC's data processing and validation procedures.
#
#######################################################################

data_IPIBAL
_chemical_formula_moiety         'C2 H9 N5 2+,2(C3 N11 O2 1-),H2 O1'
_chemical_name_systematic        
'biguanidinium bis(4,6-diazido-N-nitro-1,3,5-triazin-2-amide) monohydrate'
_symmetry_cell_setting           monoclinic
_symmetry_space_group_name_H-M   'P 21'
_symmetry_Int_Tables_number      4
_space_group_name_Hall           'P 2yb'
loop_
_symmetry_equiv_pos_site_id
_symmetry_equiv_pos_as_xyz
1 x,y,z
2 -x,1/2+y,-z
_cell_length_a                   8.3079(14)
_cell_length_b                   26.089(4)
_cell_length_c                   10.9765(17)
_cell_angle_alpha                90
_cell_angle_beta                 109.780(3)
_cell_angle_gamma                90
_cell_volume                     2238.73
_exptl_crystal_colour            colorless
_exptl_crystal_description       prism
_cell_formula_units_Z            4
_exptl_crystal_recrystallization_method water
loop_
_atom_site_label
_atom_site_type_symbol
_atom_site_fract_x
_atom_site_fract_y
_atom_site_fract_z
N1 N 0.0602(4) 1.02879(12) 0.2807(3)
H1 H -0.0178 1.0273 0.2030
H2 H 0.0309 1.0238 0.3497
N2 N 0.2693(5) 1.04622(13) 0.1930(3)
H3 H 0.1941 1.0449 0.1142
H4 H 0.3774 1.0527 0.2046
C1 C 0.2200(5) 1.03851(14) 0.2936(4)
N3 N 0.3311(4) 1.04125(12) 0.4188(3)
H5 H 0.2856 1.0496 0.4778
N4 N 0.5786(4) 1.00529(13) 0.3952(3)
H6 H 0.6887 0.9986 0.4275
H7 H 0.5179 0.9939 0.3178
C2 C 0.5040(5) 1.03252(16) 0.4633(4)
N5 N 0.5903(4) 1.05006(12) 0.5788(3)
H8 H 0.7006 1.0439 0.6132
H9 H 0.5379 1.0680 0.6221
N6 N 1.2049(4) 0.95385(13) 0.9593(3)
H10 H 1.2828 0.9558 1.0369
H11 H 1.2341 0.9588 0.8902
C3 C 1.0455(5) 0.94367(14) 0.9465(4)
N7 N 0.9970(5) 0.93607(13) 1.0474(3)
H12 H 1.0724 0.9378 1.1261
H13 H 0.8892 0.9293 1.0362
N8 N 0.9341(4) 0.93966(12) 0.8219(3)
H14 H 0.9791 0.9303 0.7635
C4 C 0.7603(5) 0.94852(15) 0.7771(4)
N9 N 0.6872(5) 0.97567(12) 0.8431(3)
H15 H 0.5770 0.9824 0.8107
H16 H 0.7480 0.9873 0.9202
N10 N 0.6754(5) 0.92996(13) 0.6607(3)
H17 H 0.5650 0.9358 0.6250
H18 H 0.7294 0.9118 0.6190
C5 C 0.7441(5) 0.59715(16) 0.2789(4)
N11 N 0.5829(5) 0.60984(12) 0.2750(3)
C6 C 0.4988(6) 0.63934(15) 0.1760(4)
N12 N 0.5558(5) 0.65919(13) 0.0855(4)
C7 C 0.7146(5) 0.64338(15) 0.0999(4)
N13 N 0.8153(5) 0.61326(14) 0.1938(4)
N14 N 0.8240(5) 0.56777(13) 0.3864(3)
N15 N 0.9710(5) 0.54597(14) 0.3976(3)
O1 O 1.0478(4) 0.52495(14) 0.5040(3)
O2 O 1.0357(4) 0.54301(13) 0.3098(3)
N16 N 0.3296(5) 0.64983(14) 0.1678(4)
N17 N 0.2534(5) 0.67950(14) 0.0763(4)
N18 N 0.1675(6) 0.70495(18) -0.0008(4)
N19 N 0.7907(5) 0.65882(15) 0.0116(4)
N20 N 0.6917(5) 0.68412(14) -0.0816(4)
N21 N 0.6183(6) 0.70619(18) -0.1716(4)
C8 C 0.6990(6) 1.10842(16) 0.2410(4)
N22 N 0.8443(5) 1.12290(14) 0.2222(4)
C9 C 0.9514(6) 1.14765(17) 0.3226(5)
N23 N 0.9280(5) 1.16187(14) 0.4323(4)
C10 C 0.7717(6) 1.14722(17) 0.4334(4)
N24 N 0.6551(5) 1.12124(14) 0.3461(4)
N25 N 0.5673(5) 1.08278(13) 0.1520(3)
N26 N 0.5981(4) 1.05411(14) 0.0619(3)
O3 O 0.4713(4) 1.03837(12) -0.0266(3)
O4 O 0.7456(4) 1.04105(13) 0.0664(3)
N27 N 1.1076(5) 1.16015(16) 0.3059(4)
N28 N 1.2083(6) 1.18374(17) 0.4018(4)
N29 N 1.3113(7) 1.2052(2) 0.4781(5)
N30 N 0.7293(6) 1.15884(16) 0.5448(4)
N31 N 0.8434(6) 1.18397(14) 0.6291(4)
N32 N 0.9286(7) 1.20613(17) 0.7113(4)
C11 C 0.5656(5) 0.87232(16) 0.9972(4)
N33 N 0.4212(4) 0.85960(13) 1.0170(3)
C12 C 0.3127(6) 0.83459(15) 0.9176(4)
N34 N 0.3372(5) 0.81959(14) 0.8095(4)
C13 C 0.4902(6) 0.83271(15) 0.8056(4)
N35 N 0.6106(5) 0.85915(12) 0.8954(3)
N36 N 0.6978(4) 0.89844(12) 1.0870(3)
N37 N 0.6674(5) 0.92770(14) 1.1756(3)
O5 O 0.7951(4) 0.94402(13) 1.2656(3)
O6 O 0.5211(4) 0.94117(13) 1.1711(3)
N38 N 0.1541(6) 0.82453(15) 0.9318(4)
N39 N 0.0475(6) 0.80166(16) 0.8347(4)
N40 N -0.0565(6) 0.78164(19) 0.7583(5)
N41 N 0.5356(5) 0.81941(14) 0.6995(4)
N42 N 0.4231(5) 0.79442(14) 0.6154(4)
N43 N 0.3339(6) 0.77251(16) 0.5308(4)
C14 C 0.0080(6) 0.88361(16) 0.5180(4)
N44 N -0.1498(5) 0.87046(14) 0.5147(3)
C15 C -0.2334(6) 0.84000(16) 0.4174(4)
N45 N -0.1770(5) 0.82202(15) 0.3250(4)
C16 C -0.0230(6) 0.83872(16) 0.3374(4)
N46 N 0.0802(5) 0.86830(14) 0.4315(4)
N47 N 0.0892(5) 0.91397(14) 0.6262(3)
N48 N 0.2370(4) 0.93565(13) 0.6370(3)
O7 O 0.3132(4) 0.95765(13) 0.7437(3)
O8 O 0.3030(4) 0.93803(14) 0.5504(3)
N49 N -0.3993(5) 0.82797(16) 0.4129(4)
N50 N -0.4754(6) 0.79782(16) 0.3218(4)
N51 N -0.5575(6) 0.77105(18) 0.2482(4)
N52 N 0.0516(6) 0.82543(15) 0.2447(4)
N53 N -0.0504(5) 0.80145(14) 0.1487(4)
N54 N -0.1203(6) 0.78013(16) 0.0586(4)
O9 O 0.9925(4) 1.05605(11) -0.0478(3)
H19 H 0.925(5) 1.0783(11) -0.033(4)
H20 H 1.018(6) 1.0701(14) -0.110(3)
O10 O 0.2751(4) 0.92622(11) 0.2882(3)
H21 H 0.291(7) 0.8972(11) 0.257(5)
H22 H 0.377(3) 0.934(3) 0.337(7)
loop_
_geom_bond_atom_site_label_1
_geom_bond_atom_site_label_2
_geom_bond_site_symmetry_1
_geom_bond_site_symmetry_2
N1 H1 1_555 1_555
H2 N1 1_555 1_555
N2 H3 1_555 1_555
H4 N2 1_555 1_555
C1 N1 1_555 1_555
N3 C1 1_555 1_555
H5 N3 1_555 1_555
N4 H6 1_555 1_555
H7 N4 1_555 1_555
C2 N3 1_555 1_555
N5 C2 1_555 1_555
H8 N5 1_555 1_555
H9 N5 1_555 1_555
N6 H10 1_555 1_555
H11 N6 1_555 1_555
C3 N6 1_555 1_555
N7 C3 1_555 1_555
H12 N7 1_555 1_555
H13 N7 1_555 1_555
N8 C3 1_555 1_555
H14 N8 1_555 1_555
C4 N8 1_555 1_555
N9 C4 1_555 1_555
H15 N9 1_555 1_555
H16 N9 1_555 1_555
N10 C4 1_555 1_555
H17 N10 1_555 1_555
H18 N10 1_555 1_555
C5 N11 1_555 1_555
N11 C6 1_555 1_555
C6 N12 1_555 1_555
N12 C7 1_555 1_555
C7 N13 1_555 1_555
N13 C5 1_555 1_555
N14 C5 1_555 1_555
N15 N14 1_555 1_555
O1 N15 1_555 1_555
O2 N15 1_555 1_555
N16 C6 1_555 1_555
N17 N16 1_555 1_555
N18 N17 1_555 1_555
N19 C7 1_555 1_555
N20 N19 1_555 1_555
N21 N20 1_555 1_555
C8 N22 1_555 1_555
N22 C9 1_555 1_555
C9 N23 1_555 1_555
N23 C10 1_555 1_555
C10 N24 1_555 1_555
N24 C8 1_555 1_555
N25 C8 1_555 1_555
N26 N25 1_555 1_555
O3 N26 1_555 1_555
O4 N26 1_555 1_555
N27 C9 1_555 1_555
N28 N27 1_555 1_555
N29 N28 1_555 1_555
N30 C10 1_555 1_555
N31 N30 1_555 1_555
N32 N31 1_555 1_555
C11 N33 1_555 1_555
N33 C12 1_555 1_555
C12 N34 1_555 1_555
N34 C13 1_555 1_555
C13 N35 1_555 1_555
N35 C11 1_555 1_555
N36 C11 1_555 1_555
N37 N36 1_555 1_555
O5 N37 1_555 1_555
O6 N37 1_555 1_555
N38 C12 1_555 1_555
N39 N38 1_555 1_555
N40 N39 1_555 1_555
N41 C13 1_555 1_555
N42 N41 1_555 1_555
N43 N42 1_555 1_555
C14 N44 1_555 1_555
N44 C15 1_555 1_555
C15 N45 1_555 1_555
N45 C16 1_555 1_555
C16 N46 1_555 1_555
N46 C14 1_555 1_555
N47 C14 1_555 1_555
N48 N47 1_555 1_555
O7 N48 1_555 1_555
O8 N48 1_555 1_555
N49 C15 1_555 1_555
N50 N49 1_555 1_555
N51 N50 1_555 1_555
N52 C16 1_555 1_555
N53 N52 1_555 1_555
N54 N53 1_555 1_555
O9 H19 1_555 1_555
H20 O9 1_555 1_555
O10 H21 1_555 1_555
H22 O10 1_555 1_555
N2 C1 1_555 1_555
N4 C2 1_555 1_555

#END
