
#######################################################################
#
#                 Cambridge Crystallographic Data Centre
#                                CCDC 
#
#######################################################################
#
# If this CIF has been generated from an entry in the Cambridge 
# Structural Database, then it will include bibliographic, chemical, 
# crystal, experimental, refinement or atomic coordinate data resulting 
# from the CCDC's data processing and validation procedures.
#
#######################################################################

data_IPIHOG
_chemical_formula_moiety         'C21 H27 F1 N2 O2 S1'
_chemical_name_systematic        
2-(4-Fluorophenyl)-N,N-di-isopropyl-N'-((4-methylphenyl)sulfonyl)ethanimidamide
_symmetry_cell_setting           triclinic
_symmetry_space_group_name_H-M   'P -1'
_symmetry_Int_Tables_number      2
_space_group_name_Hall           '-P 1'
loop_
_symmetry_equiv_pos_site_id
_symmetry_equiv_pos_as_xyz
1 x,y,z
2 -x,-y,-z
_cell_length_a                   8.1839(5)
_cell_length_b                   11.2473(10)
_cell_length_c                   12.4963(10)
_cell_angle_alpha                113.369(8)
_cell_angle_beta                 100.239(6)
_cell_angle_gamma                98.051(6)
_cell_volume                     1010.45
_exptl_crystal_colour            colorless
_exptl_crystal_description       block
_cell_formula_units_Z            2
loop_
_atom_site_label
_atom_site_type_symbol
_atom_site_fract_x
_atom_site_fract_y
_atom_site_fract_z
S1 S 0.13898(6) 0.62301(5) 0.31909(4)
F1 F 0.0485(2) 1.14302(14) 0.91323(14)
O1 O 0.04719(19) 0.49609(15) 0.30483(14)
O2 O 0.0461(2) 0.72687(16) 0.34141(14)
N1 N 0.5000(2) 0.75358(16) 0.60263(15)
C1 C 0.3419(3) 0.70430(19) 0.53029(18)
N2 N 0.3227(2) 0.67578(18) 0.41539(16)
C2 C 0.1384(3) 0.8181(2) 0.7843(2)
H1 H 0.1492 0.7478 0.8043
C3 C 0.1633(3) 0.4694(2) 0.09216(19)
H2 H 0.1039 0.3979 0.1001
C4 C 0.1921(3) 0.6818(2) 0.58403(18)
H3 H 0.0900 0.6333 0.5185
H4 H 0.2153 0.6262 0.6249
C5 C 0.1021(3) 1.0275(2) 0.7240(2)
H5 H 0.0892 1.0979 0.7045
C6 C 0.1045(3) 0.9317(2) 0.8661(2)
H6 H 0.0943 0.9391 0.9413
C7 C 0.3005(3) 0.5554(2) -0.0273(2)
C8 C 0.2119(3) 0.4501(2) -0.01324(19)
H7 H 0.1847 0.3647 -0.0758
C9 C 0.2902(3) 0.7033(2) 0.1728(2)
H8 H 0.3156 0.7889 0.2349
C10 C 0.1379(3) 0.9134(2) 0.6430(2)
H9 H 0.1495 0.9076 0.5685
C11 C 0.2045(3) 0.5968(2) 0.18566(19)
C12 C 0.1565(2) 0.8080(2) 0.67216(18)
C13 C 0.6651(3) 0.7158(2) 0.7697(2)
H10 H 0.6237 0.6217 0.7207
H11 H 0.6780 0.7345 0.8530
H12 H 0.7735 0.7452 0.7579
C14 C 0.6516(3) 0.7779(2) 0.5569(2)
H13 H 0.7496 0.8188 0.6279
C15 C 0.0863(3) 1.0335(2) 0.8334(2)
C16 C 0.3525(3) 0.5308(3) -0.1429(2)
H14 H 0.3160 0.4376 -0.1966
H15 H 0.4745 0.5584 -0.1252
H16 H 0.3003 0.5807 -0.1803
C17 C 0.5376(3) 0.7892(2) 0.73357(18)
H17 H 0.4305 0.7600 0.7504
C18 C 0.3380(3) 0.6821(2) 0.0672(2)
H18 H 0.3965 0.7540 0.0592
C19 C 0.5955(3) 0.9403(2) 0.8079(2)
H19 H 0.5117 0.9820 0.7824
H20 H 0.7029 0.9722 0.7960
H21 H 0.6083 0.9617 0.8918
C20 C 0.6464(3) 0.8781(3) 0.5028(3)
H22 H 0.6247 0.9580 0.5591
H23 H 0.5571 0.8405 0.4294
H24 H 0.7540 0.8987 0.4860
C21 C 0.6876(3) 0.6479(3) 0.4740(2)
H25 H 0.6899 0.5893 0.5126
H26 H 0.7960 0.6662 0.4573
H27 H 0.5994 0.6065 0.3999
loop_
_geom_bond_atom_site_label_1
_geom_bond_atom_site_label_2
_geom_bond_site_symmetry_1
_geom_bond_site_symmetry_2
S1 O1 1_555 1_555
F1 C15 1_555 1_555
O2 S1 1_555 1_555
N1 C1 1_555 1_555
C1 N2 1_555 1_555
N2 S1 1_555 1_555
C2 H1 1_555 1_555
C3 H2 1_555 1_555
C4 C1 1_555 1_555
H3 C4 1_555 1_555
H4 C4 1_555 1_555
C5 H5 1_555 1_555
C6 C2 1_555 1_555
H6 C6 1_555 1_555
C7 C8 1_555 1_555
C8 C3 1_555 1_555
H7 C8 1_555 1_555
C9 H8 1_555 1_555
C10 C5 1_555 1_555
H9 C10 1_555 1_555
C11 S1 1_555 1_555
C12 C2 1_555 1_555
C13 H10 1_555 1_555
H11 C13 1_555 1_555
H12 C13 1_555 1_555
C14 N1 1_555 1_555
H13 C14 1_555 1_555
C15 C5 1_555 1_555
C16 C7 1_555 1_555
H14 C16 1_555 1_555
H15 C16 1_555 1_555
H16 C16 1_555 1_555
C17 N1 1_555 1_555
H17 C17 1_555 1_555
C18 C7 1_555 1_555
H18 C18 1_555 1_555
C19 C17 1_555 1_555
H19 C19 1_555 1_555
H20 C19 1_555 1_555
H21 C19 1_555 1_555
C20 C14 1_555 1_555
H22 C20 1_555 1_555
H23 C20 1_555 1_555
H24 C20 1_555 1_555
C21 C14 1_555 1_555
H25 C21 1_555 1_555
H26 C21 1_555 1_555
H27 C21 1_555 1_555
C3 C11 1_555 1_555
C4 C12 1_555 1_555
C6 C15 1_555 1_555
C9 C11 1_555 1_555
C9 C18 1_555 1_555
C10 C12 1_555 1_555
C13 C17 1_555 1_555

#END
