
#######################################################################
#
#                 Cambridge Crystallographic Data Centre
#                                CCDC 
#
#######################################################################
#
# If this CIF has been generated from an entry in the Cambridge 
# Structural Database, then it will include bibliographic, chemical, 
# crystal, experimental, refinement or atomic coordinate data resulting 
# from the CCDC's data processing and validation procedures.
#
#######################################################################

data_IPIXAG
_chemical_formula_moiety         'C15 H12 O6'
_chemical_name_systematic        
'6,7-(Methylenedioxy)naphthalene-2,3-dicarboxylic acid dimethyl ester'
_symmetry_cell_setting           orthorhombic
_symmetry_space_group_name_H-M   'P n a 21'
_symmetry_Int_Tables_number      33
_space_group_name_Hall           'P 2c -2n'
loop_
_symmetry_equiv_pos_site_id
_symmetry_equiv_pos_as_xyz
1 x,y,z
2 -x,-y,1/2+z
3 1/2+x,1/2-y,z
4 1/2-x,1/2+y,1/2+z
_cell_length_a                   16.4137(3)
_cell_length_b                   11.3520(2)
_cell_length_c                   6.78500(10)
_cell_angle_alpha                90
_cell_angle_beta                 90
_cell_angle_gamma                90
_cell_volume                     1264.24
_cell_formula_units_Z            4
loop_
_atom_site_label
_atom_site_type_symbol
_atom_site_fract_x
_atom_site_fract_y
_atom_site_fract_z
C1 C 0.22359(10) 0.49321(15) 1.3011(2)
C2 C 0.25118(8) 0.57465(12) 1.0073(2)
C3 C 0.32532(9) 0.54484(12) 1.0974(2)
C4 C 0.24704(9) 0.63488(13) 0.8347(2)
C5 C 0.32282(8) 0.66492(13) 0.7439(2)
C6 C 0.39828(8) 0.63226(12) 0.8338(2)
C7 C 0.39862(9) 0.57210(13) 1.0184(2)
C8 C 0.32553(9) 0.72761(12) 0.5629(2)
C9 C 0.47147(9) 0.65873(12) 0.7339(2)
C10 C 0.39739(8) 0.75274(13) 0.4689(2)
C11 C 0.47246(8) 0.71426(12) 0.5532(2)
C12 C 0.39370(8) 0.82610(12) 0.2862(2)
C13 C 0.47068(11) 0.94366(16) 0.0659(3)
C14 C 0.55316(9) 0.72325(12) 0.4528(2)
C15 C 0.63103(10) 0.66300(16) 0.1790(3)
O1 O 0.18765(6) 0.53262(9) 1.11902(17)
O2 O 0.31022(6) 0.48447(10) 1.26929(17)
O3 O 0.33277(7) 0.84379(10) 0.19091(15)
O4 O 0.46642(6) 0.87344(8) 0.24406(17)
O5 O 0.55432(6) 0.66174(8) 0.28449(14)
O6 O 0.61230(6) 0.77165(9) 0.52147(17)
H1 H 0.2135(10) 0.5493(16) 1.404(3)
H2 H 0.2024(9) 0.4151(17) 1.337(3)
H3 H 0.1930(9) 0.6564(13) 0.770(2)
H4 H 0.4521(10) 0.5527(15) 1.083(3)
H5 H 0.2766(10) 0.7538(15) 0.513(3)
H6 H 0.5228(10) 0.6333(14) 0.786(2)
H7 H 0.4354(12) 1.0111(19) 0.076(3)
H8 H 0.4550(10) 0.8954(16) -0.051(3)
H9 H 0.5314(12) 0.9627(17) 0.053(3)
H10 H 0.6206(11) 0.6099(18) 0.078(3)
H11 H 0.6458(13) 0.742(2) 0.153(4)
H12 H 0.6744(9) 0.6319(14) 0.270(3)
loop_
_geom_bond_atom_site_label_1
_geom_bond_atom_site_label_2
_geom_bond_site_symmetry_1
_geom_bond_site_symmetry_2
C1 O1 1_555 1_555
C2 C3 1_555 1_555
C3 C7 1_555 1_555
C4 C2 1_555 1_555
C5 C4 1_555 1_555
C6 C5 1_555 1_555
C7 C6 1_555 1_555
C8 C5 1_555 1_555
C9 C6 1_555 1_555
C10 C8 1_555 1_555
C11 C9 1_555 1_555
C12 C10 1_555 1_555
C13 O4 1_555 1_555
C14 C11 1_555 1_555
C15 O5 1_555 1_555
O1 C2 1_555 1_555
O2 C1 1_555 1_555
O3 C12 1_555 1_555
O4 C12 1_555 1_555
O5 C14 1_555 1_555
O6 C14 1_555 1_555
H1 C1 1_555 1_555
H2 C1 1_555 1_555
H3 C4 1_555 1_555
H4 C7 1_555 1_555
H5 C8 1_555 1_555
H6 C9 1_555 1_555
H7 C13 1_555 1_555
H8 C13 1_555 1_555
H9 C13 1_555 1_555
H10 C15 1_555 1_555
H11 C15 1_555 1_555
H12 C15 1_555 1_555
C3 O2 1_555 1_555
C10 C11 1_555 1_555

#END
