
#######################################################################
#
#                 Cambridge Crystallographic Data Centre
#                                CCDC 
#
#######################################################################
#
# If this CIF has been generated from an entry in the Cambridge 
# Structural Database, then it will include bibliographic, chemical, 
# crystal, experimental, refinement or atomic coordinate data resulting 
# from the CCDC's data processing and validation procedures.
#
#######################################################################

data_IPOJAZ
_chemical_formula_moiety         'C22 H16 N6 O6 S2,2(C3 H7 N1 O1)'
_chemical_name_systematic        
"N,N'-bis((4-nitrophenyl)carbamothioyl)isophthalamide N,N-dimethylformamide solvate"
_symmetry_cell_setting           monoclinic
_symmetry_space_group_name_H-M   'P 21/c'
_symmetry_Int_Tables_number      14
_space_group_name_Hall           '-P 2ybc'
loop_
_symmetry_equiv_pos_site_id
_symmetry_equiv_pos_as_xyz
1 x,y,z
2 -x,1/2+y,1/2-z
3 -x,-y,-z
4 x,1/2-y,1/2+z
_cell_length_a                   11.2093(12)
_cell_length_b                   22.081(2)
_cell_length_c                   13.9640(15)
_cell_angle_alpha                90
_cell_angle_beta                 112.128(2)
_cell_angle_gamma                90
_cell_volume                     3201.69
_exptl_crystal_colour            yellow
_exptl_crystal_description       block
_cell_formula_units_Z            4
loop_
_atom_site_label
_atom_site_type_symbol
_atom_site_fract_x
_atom_site_fract_y
_atom_site_fract_z
C1 C 1.1138(2) 0.33914(9) 0.20891(15)
C2 C 0.9828(2) 0.34616(10) 0.16131(17)
H1 H 0.9287 0.3128 0.1506
C3 C 0.9318(2) 0.40276(10) 0.12947(17)
H2 H 0.8431 0.4077 0.0971
C4 C 1.01254(19) 0.45232(8) 0.14565(14)
C5 C 1.14543(19) 0.44450(9) 0.19569(16)
H3 H 1.2000 0.4778 0.2080
C6 C 1.1958(2) 0.38780(10) 0.22675(17)
H4 H 1.2842 0.3824 0.2594
C7 C 0.85570(18) 0.53680(9) 0.06720(15)
C8 C 0.96369(17) 0.63696(9) 0.07902(14)
C9 C 0.93824(16) 0.70245(8) 0.05601(13)
C10 C 0.81893(16) 0.72879(8) 0.03604(14)
H5 H 0.7514 0.7053 0.0389
C11 C 0.79952(16) 0.78957(8) 0.01199(14)
C12 C 0.90180(19) 0.82506(9) 0.01161(17)
H6 H 0.8897 0.8661 -0.0038
C13 C 1.02110(19) 0.79919(10) 0.03415(19)
H7 H 1.0895 0.8231 0.0343
C14 C 1.04038(18) 0.73879(9) 0.05625(16)
H8 H 1.1215 0.7219 0.0714
C15 C 0.67284(17) 0.82000(8) -0.01087(15)
C16 C 0.44076(16) 0.79773(8) -0.05041(14)
C17 C 0.30140(16) 0.88865(8) -0.07289(14)
C18 C 0.18024(18) 0.86473(9) -0.12905(16)
H9 H 0.1721 0.8254 -0.1545
C19 C 0.07255(18) 0.89982(9) -0.14659(15)
H10 H -0.0090 0.8842 -0.1835
C20 C 0.08604(16) 0.95779(8) -0.10942(14)
C21 C 0.20519(18) 0.98260(9) -0.05501(16)
H11 H 0.2127 1.0223 -0.0312
C22 C 0.31241(18) 0.94756(8) -0.03665(16)
H12 H 0.3935 0.9635 0.0006
N1 N 1.1664(2) 0.27825(9) 0.23891(14)
N2 N 0.97339(16) 0.51207(8) 0.11557(13)
H27 H 1.030(2) 0.5367(11) 0.1241(18)
N3 N 0.85913(15) 0.59947(7) 0.05225(13)
H28 H 0.786(2) 0.6133(10) 0.0121(18)
N4 N 0.56757(14) 0.78269(7) -0.03620(13)
H29 H 0.582(2) 0.7471(11) -0.0387(18)
N5 N 0.41718(15) 0.85717(7) -0.05472(13)
H30 H 0.481(2) 0.8776(10) -0.0417(17)
N6 N -0.02972(16) 0.99409(8) -0.12886(13)
O1 O 1.0922(2) 0.23532(8) 0.21875(15)
O2 O 1.28257(19) 0.27337(8) 0.28600(17)
O3 O 1.07484(12) 0.61845(6) 0.12024(12)
O4 O 0.66488(13) 0.87513(6) -0.00652(14)
O5 O -0.13402(15) 0.97080(9) -0.17400(17)
O6 O -0.01786(15) 1.04607(7) -0.09851(15)
S1 S 0.71407(6) 0.50293(3) 0.02494(6)
S2 S 0.34007(5) 0.74166(2) -0.05647(6)
C23 C 0.6247(3) 0.12086(16) 0.3199(3)
H13 H 0.6813 0.0942 0.3027
H14 H 0.6538 0.1248 0.3936
H15 H 0.6246 0.1600 0.2897
C24 C 0.3999(4) 0.12744(19) 0.3060(4)
H16 H 0.3186 0.1075 0.2725
H17 H 0.3933 0.1687 0.2827
H18 H 0.4227 0.1267 0.3795
C25 C 0.4689(3) 0.04832(14) 0.2196(3)
H19 H 0.3838 0.0352 0.1955
N7 N 0.49762(18) 0.09664(9) 0.28058(16)
O7 O 0.5416(2) 0.01977(11) 0.1923(2)
C26 C 0.3059(2) 0.59658(13) 0.7324(2)
H20 H 0.3120 0.5620 0.7756
H21 H 0.2984 0.5833 0.6649
H22 H 0.2314 0.6200 0.7269
C27 C 0.4278(3) 0.68742(14) 0.7224(2)
H23 H 0.3642 0.7159 0.7246
H24 H 0.4121 0.6774 0.6518
H25 H 0.5120 0.7050 0.7540
C28 C 0.5094(2) 0.62085(9) 0.86758(17)
H26 H 0.4987 0.5856 0.8999
N8 N 0.42036(15) 0.63349(8) 0.77749(13)
O8 O 0.60578(14) 0.65129(7) 0.91329(13)
loop_
_geom_bond_atom_site_label_1
_geom_bond_atom_site_label_2
_geom_bond_site_symmetry_1
_geom_bond_site_symmetry_2
C1 C2 1_555 1_555
C2 H1 1_555 1_555
C3 C2 1_555 1_555
H2 C3 1_555 1_555
C4 C3 1_555 1_555
C5 C4 1_555 1_555
H3 C5 1_555 1_555
C6 C1 1_555 1_555
H4 C6 1_555 1_555
C7 N2 1_555 1_555
C8 C9 1_555 1_555
C9 C10 1_555 1_555
C10 H5 1_555 1_555
C11 C10 1_555 1_555
C12 C11 1_555 1_555
H6 C12 1_555 1_555
C13 C12 1_555 1_555
H7 C13 1_555 1_555
C14 C9 1_555 1_555
H8 C14 1_555 1_555
C15 C11 1_555 1_555
C16 N4 1_555 1_555
C17 C18 1_555 1_555
C18 H9 1_555 1_555
C19 C18 1_555 1_555
H10 C19 1_555 1_555
C20 C19 1_555 1_555
C21 C20 1_555 1_555
H11 C21 1_555 1_555
C22 C17 1_555 1_555
H12 C22 1_555 1_555
C23 H13 1_555 1_555
H14 C23 1_555 1_555
H15 C23 1_555 1_555
C24 H16 1_555 1_555
H17 C24 1_555 1_555
H18 C24 1_555 1_555
C25 H19 1_555 1_555
C26 H20 1_555 1_555
H21 C26 1_555 1_555
H22 C26 1_555 1_555
C27 H23 1_555 1_555
H24 C27 1_555 1_555
H25 C27 1_555 1_555
C28 H26 1_555 1_555
N1 C1 1_555 1_555
N2 C4 1_555 1_555
H27 N2 1_555 1_555
N3 C7 1_555 1_555
H28 N3 1_555 1_555
N4 C15 1_555 1_555
H29 N4 1_555 1_555
N5 C16 1_555 1_555
H30 N5 1_555 1_555
N6 C20 1_555 1_555
N7 C23 1_555 1_555
N8 C26 1_555 1_555
O1 N1 1_555 1_555
O2 N1 1_555 1_555
O3 C8 1_555 1_555
O4 C15 1_555 1_555
O5 N6 1_555 1_555
O6 N6 1_555 1_555
O7 C25 1_555 1_555
O8 C28 1_555 1_555
S1 C7 1_555 1_555
S2 C16 1_555 1_555
C5 C6 1_555 1_555
C8 N3 1_555 1_555
C13 C14 1_555 1_555
C17 N5 1_555 1_555
C21 C22 1_555 1_555
C24 N7 1_555 1_555
C25 N7 1_555 1_555
C27 N8 1_555 1_555
C28 N8 1_555 1_555

#END
