
#######################################################################
#
#                 Cambridge Crystallographic Data Centre
#                                CCDC 
#
#######################################################################
#
# If this CIF has been generated from an entry in the Cambridge 
# Structural Database, then it will include bibliographic, chemical, 
# crystal, experimental, refinement or atomic coordinate data resulting 
# from the CCDC's data processing and validation procedures.
#
#######################################################################

data_IPOLEF
_chemical_formula_moiety         '0.5(C2 H10 N2 2+),C7 H4 Cl2 N1 O4 S1 1-'
_chemical_name_systematic        
'hemikis(ethane-1,2-diammonium) 2,4-dichloro-5-sulfamoylbenzoate'
_symmetry_cell_setting           triclinic
_symmetry_space_group_name_H-M   'P -1'
_symmetry_Int_Tables_number      2
_space_group_name_Hall           '-P 1'
loop_
_symmetry_equiv_pos_site_id
_symmetry_equiv_pos_as_xyz
1 x,y,z
2 -x,-y,-z
_cell_length_a                   6.2835(5)
_cell_length_b                   7.5041(6)
_cell_length_c                   12.3710(9)
_cell_angle_alpha                83.1950(6)
_cell_angle_beta                 79.4210(6)
_cell_angle_gamma                88.4420(6)
_cell_volume                     569.354
_exptl_crystal_colour            colorless
_exptl_crystal_description       prism
_cell_formula_units_Z            2
loop_
_atom_site_label
_atom_site_type_symbol
_atom_site_fract_x
_atom_site_fract_y
_atom_site_fract_z
S1 S 0.34256(7) 0.58764(6) 0.33531(4)
Cl1 Cl -0.18520(13) -0.04517(8) 0.22898(6)
Cl2 Cl 0.32325(12) 0.19372(9) 0.47911(5)
N1 N 0.5894(3) 0.5245(3) 0.32833(18)
H1 H 0.634(5) 0.472(5) 0.264(3)
H2 H 0.608(5) 0.460(4) 0.387(3)
O1 O 0.2618(2) 0.6297(2) 0.44492(13)
O2 O 0.3365(3) 0.7245(2) 0.24415(13)
O3 O -0.3356(2) 0.3852(2) 0.11207(13)
O4 O -0.0447(2) 0.2875(2) 0.00226(12)
C1 C -0.0356(3) 0.1294(3) 0.25586(17)
C2 C 0.0746(4) 0.0980(3) 0.34353(17)
H3 H 0.0721 -0.0146 0.3842
C3 C 0.1881(3) 0.2369(3) 0.36938(16)
C4 C 0.1952(3) 0.4051(3) 0.30712(15)
C5 C 0.0885(3) 0.4311(3) 0.21754(16)
H4 H 0.0958 0.5421 0.1748
C6 C -0.0288(3) 0.2937(3) 0.19093(15)
C7 C -0.1449(3) 0.3244(3) 0.09280(16)
N2 N -0.4037(3) -0.2395(2) 0.01832(15)
H5 H -0.2831 -0.2930 -0.0122
H6 H -0.5179 -0.2908 0.0019
H7 H -0.4132 -0.2503 0.0915
C8 C -0.3985(3) -0.0463(3) -0.02544(17)
H8 H -0.384(4) -0.039(4) -0.103(2)
H9 H -0.263(5) 0.008(4) -0.010(2)
N2A N -0.5963(3) 0.2395(2) -0.01832(15)
H5A H -0.7169 0.2930 0.0122
H6A H -0.4821 0.2908 -0.0019
H7A H -0.5868 0.2503 -0.0915
C8A C -0.6015(3) 0.0463(3) 0.02544(17)
H8A H -0.616(4) 0.039(4) 0.103(2)
H9A H -0.737(5) -0.008(4) 0.010(2)
loop_
_geom_bond_atom_site_label_1
_geom_bond_atom_site_label_2
_geom_bond_site_symmetry_1
_geom_bond_site_symmetry_2
S1 N1 1_555 1_555
Cl1 C1 1_555 1_555
Cl2 C3 1_555 1_555
N1 H1 1_555 1_555
H2 N1 1_555 1_555
O1 S1 1_555 1_555
O2 S1 1_555 1_555
O3 C7 1_555 1_555
O4 C7 1_555 1_555
C1 C2 1_555 1_555
C2 H3 1_555 1_555
C3 C2 1_555 1_555
C4 S1 1_555 1_555
C5 C4 1_555 1_555
H4 C5 1_555 1_555
C6 C1 1_555 1_555
C7 C6 1_555 1_555
N2 H5 1_555 1_555
H6 N2 1_555 1_555
H7 N2 1_555 1_555
C8 N2 1_555 1_555
H8 C8 1_555 1_555
H9 C8 1_555 1_555
N2A H5A 1_555 1_555
H6A N2A 1_555 1_555
H7A N2A 1_555 1_555
C8A C8 1_555 1_555
H8A C8A 1_555 1_555
H9A C8A 1_555 1_555
C3 C4 1_555 1_555
C5 C6 1_555 1_555
N2A C8A 1_555 1_555

#END
