
#######################################################################
#
#                 Cambridge Crystallographic Data Centre
#                                CCDC 
#
#######################################################################
#
# If this CIF has been generated from an entry in the Cambridge 
# Structural Database, then it will include bibliographic, chemical, 
# crystal, experimental, refinement or atomic coordinate data resulting 
# from the CCDC's data processing and validation procedures.
#
#######################################################################

data_IPOLIJ
_chemical_formula_moiety         'C6 H9 N2 1+,C7 H4 Cl2 N1 O4 S1 1-'
_chemical_name_systematic        
'2-Amino-3-methylpyridinium 2,4-dichloro-5-sulfamoylbenzoate'
_symmetry_cell_setting           monoclinic
_symmetry_space_group_name_H-M   'P 21/c'
_symmetry_Int_Tables_number      14
_space_group_name_Hall           '-P 2ybc'
loop_
_symmetry_equiv_pos_site_id
_symmetry_equiv_pos_as_xyz
1 x,y,z
2 -x,1/2+y,1/2-z
3 -x,-y,-z
4 x,1/2-y,1/2+z
_cell_length_a                   8.4174(5)
_cell_length_b                   27.8110(16)
_cell_length_c                   7.2793(4)
_cell_angle_alpha                90
_cell_angle_beta                 113.104(4)
_cell_angle_gamma                90
_cell_volume                     1567.38
_exptl_crystal_colour            colorless
_exptl_crystal_description       prism
_cell_formula_units_Z            4
loop_
_atom_site_label
_atom_site_type_symbol
_atom_site_fract_x
_atom_site_fract_y
_atom_site_fract_z
S1 S 0.80599(11) 0.06569(3) 0.41323(13)
N1 N 0.9997(4) 0.06740(13) 0.5694(6)
H1 H 1.055(6) 0.0430(17) 0.613(7)
H2 H 1.058(5) 0.0923(15) 0.572(6)
Cl1 Cl 0.37611(12) 0.08684(4) 0.94650(15)
Cl2 Cl 0.81903(14) -0.01440(4) 0.74814(18)
O1 O 0.7729(4) 0.10897(9) 0.2987(4)
O2 O 0.7715(3) 0.02012(9) 0.3130(4)
O3 O 0.1960(4) 0.15139(10) 0.5859(6)
O4 O 0.3986(4) 0.19459(11) 0.5472(7)
C1 C 0.4821(4) 0.08071(13) 0.7857(5)
C2 C 0.5927(4) 0.04156(12) 0.8197(5)
H3 H 0.6030 0.0197 0.9204
C3 C 0.6873(4) 0.03520(13) 0.7035(6)
C4 C 0.6760(4) 0.06888(12) 0.5557(5)
C5 C 0.5636(4) 0.10720(12) 0.5248(6)
H4 H 0.5550 0.1295 0.4260
C6 C 0.4625(4) 0.11379(12) 0.6362(6)
C7 C 0.3439(5) 0.15705(13) 0.5878(6)
N2 N 0.0076(7) 0.36459(16) 0.5189(9)
H5 H -0.0584 0.3886 0.5142
H6 H 0.1105 0.3695 0.5253
N3 N -0.2158(5) 0.30244(15) 0.5065(6)
H7 H -0.2858 0.3255 0.5008
C8 C -0.0567(5) 0.31420(14) 0.5162(6)
C9 C 0.0557(5) 0.27481(14) 0.5216(6)
C10 C -0.0013(4) 0.23035(11) 0.5219(5)
H8 H 0.0730 0.2050 0.5290
C11 C -0.1620(6) 0.21968(15) 0.5124(7)
H9 H -0.1957 0.1878 0.5109
C12 C -0.2732(6) 0.25565(16) 0.5053(7)
H10 H -0.3834 0.2492 0.4998
C13 C 0.2128(5) 0.28094(14) 0.5245(7)
H11 H 0.2940 0.2846 0.6600
H12 H 0.2145 0.3092 0.4495
H13 H 0.2438 0.2534 0.4660
loop_
_geom_bond_atom_site_label_1
_geom_bond_atom_site_label_2
_geom_bond_site_symmetry_1
_geom_bond_site_symmetry_2
S1 N1 1_555 1_555
N1 H1 1_555 1_555
H2 N1 1_555 1_555
Cl1 C1 1_555 1_555
Cl2 C3 1_555 1_555
O1 S1 1_555 1_555
O2 S1 1_555 1_555
O3 C7 1_555 1_555
O4 C7 1_555 1_555
C1 C2 1_555 1_555
C2 H3 1_555 1_555
C3 C2 1_555 1_555
C4 S1 1_555 1_555
C5 C4 1_555 1_555
H4 C5 1_555 1_555
C6 C1 1_555 1_555
C7 C6 1_555 1_555
N2 H5 1_555 1_555
H6 N2 1_555 1_555
N3 H7 1_555 1_555
C8 N2 1_555 1_555
C9 C8 1_555 1_555
C10 C9 1_555 1_555
H8 C10 1_555 1_555
C11 C10 1_555 1_555
H9 C11 1_555 1_555
C12 N3 1_555 1_555
H10 C12 1_555 1_555
C13 C9 1_555 1_555
H11 C13 1_555 1_555
H12 C13 1_555 1_555
H13 C13 1_555 1_555
C3 C4 1_555 1_555
C5 C6 1_555 1_555
N3 C8 1_555 1_555
C11 C12 1_555 1_555

#END
