
#######################################################################
#
#                 Cambridge Crystallographic Data Centre
#                                CCDC 
#
#######################################################################
#
# If this CIF has been generated from an entry in the Cambridge 
# Structural Database, then it will include bibliographic, chemical, 
# crystal, experimental, refinement or atomic coordinate data resulting 
# from the CCDC's data processing and validation procedures.
#
#######################################################################

data_IPONUX
_chemical_formula_moiety         'C24 H24 B1 N1 O1 P1 1+,C1 F3 O3 S1 1-'
_chemical_name_systematic        
'(1-Ethyl-1,2-azaborinin-2(1H)-yl)(triphenyl)phosphonium trifluoromethanesulfonate'
_symmetry_cell_setting           orthorhombic
_symmetry_space_group_name_H-M   'P b c a'
_symmetry_Int_Tables_number      61
_space_group_name_Hall           '-P 2ac 2ab'
loop_
_symmetry_equiv_pos_site_id
_symmetry_equiv_pos_as_xyz
1 x,y,z
2 1/2-x,-y,1/2+z
3 -x,1/2+y,1/2-z
4 1/2+x,1/2-y,-z
5 -x,-y,-z
6 1/2+x,y,1/2-z
7 x,1/2-y,1/2+z
8 1/2-x,1/2+y,z
_cell_length_a                   9.1044(4)
_cell_length_b                   19.8146(8)
_cell_length_c                   28.1910(11)
_cell_angle_alpha                90
_cell_angle_beta                 90
_cell_angle_gamma                90
_cell_volume                     5085.66
_exptl_crystal_colour            colorless
_exptl_crystal_description       block
_cell_formula_units_Z            8
loop_
_atom_site_label
_atom_site_type_symbol
_atom_site_fract_x
_atom_site_fract_y
_atom_site_fract_z
P1 P 0.97677(5) 0.05948(2) 0.629009(16)
N1 N 0.72591(18) 0.21181(8) 0.59502(6)
O1 O 0.89666(15) 0.12851(6) 0.62406(4)
B1 B 0.8277(2) 0.15980(11) 0.58400(7)
C1 C 0.6478(2) 0.24210(10) 0.55947(8)
C2 C 0.6659(2) 0.22553(11) 0.51313(8)
C3 C 0.7686(3) 0.17625(12) 0.49989(7)
C4 C 0.8500(2) 0.14208(11) 0.53291(7)
C5 C 0.6995(3) 0.23479(11) 0.64452(8)
C6 C 0.5949(3) 0.18899(13) 0.67012(8)
C7 C 0.8706(2) -0.00771(9) 0.60448(6)
C8 C 0.7589(2) -0.03539(11) 0.63186(8)
C9 C 0.6699(2) -0.08566(11) 0.61355(8)
C10 C 0.6925(2) -0.10855(11) 0.56787(8)
C11 C 0.8036(3) -0.08174(12) 0.54053(8)
C12 C 0.8932(3) -0.03154(11) 0.55853(7)
C13 C 1.1516(2) 0.06480(10) 0.60089(6)
C14 C 1.2314(3) 0.00691(14) 0.59021(8)
C15 C 1.3704(3) 0.01405(18) 0.57005(9)
C16 C 1.4264(3) 0.07736(18) 0.56055(9)
C17 C 1.3464(3) 0.13407(16) 0.57086(9)
C18 C 1.2089(2) 0.12872(12) 0.59123(7)
C19 C 0.9865(2) 0.04404(9) 0.69130(6)
C20 C 1.0490(2) -0.01614(11) 0.70672(7)
C21 C 1.0369(3) -0.03434(11) 0.75400(8)
C22 C 0.9630(3) 0.00677(12) 0.78542(7)
C23 C 0.9043(3) 0.06723(12) 0.77043(7)
C24 C 0.9159(2) 0.08646(10) 0.72313(7)
H1 H 0.580(3) 0.2760(12) 0.5687(8)
H2 H 0.607(3) 0.2484(12) 0.4910(9)
H3 H 0.784(3) 0.1684(12) 0.4678(9)
H4 H 0.921(3) 0.1076(12) 0.5210(9)
H5 H 0.663(3) 0.2816(12) 0.6468(8)
H6 H 0.796(3) 0.2379(12) 0.6608(8)
H7 H 0.583(3) 0.2039(14) 0.7050(11)
H8 H 0.498(3) 0.1910(12) 0.6536(9)
H9 H 0.632(3) 0.1416(12) 0.6694(8)
H10 H 0.743(3) -0.0209(12) 0.6637(9)
H11 H 0.595(3) -0.1048(12) 0.6315(9)
H12 H 0.635(3) -0.1430(12) 0.5555(8)
H13 H 0.820(3) -0.0964(13) 0.5085(10)
H14 H 0.971(3) -0.0140(13) 0.5402(9)
H15 H 1.191(3) -0.0350(13) 0.5963(9)
H16 H 1.410(3) -0.0237(13) 0.5632(9)
H17 H 1.522(4) 0.0796(15) 0.5454(11)
H18 H 1.391(4) 0.1792(17) 0.5639(11)
H19 H 1.153(3) 0.1695(12) 0.5988(8)
H20 H 1.100(3) -0.0442(12) 0.6862(9)
H21 H 1.078(3) -0.0752(13) 0.7643(9)
H22 H 0.951(3) -0.0061(12) 0.8166(9)
H23 H 0.854(3) 0.0979(13) 0.7914(9)
H24 H 0.870(3) 0.1278(11) 0.7132(8)
S1 S 0.69648(6) 0.18698(3) 0.360206(18)
O2 O 0.6775(2) 0.11676(8) 0.34961(7)
O3 O 0.5761(2) 0.21657(8) 0.38564(6)
O4 O 0.8385(2) 0.20628(11) 0.37697(7)
C25 C 0.6839(3) 0.22587(12) 0.30226(8)
F1 F 0.7865(2) 0.20477(10) 0.27311(6)
F2 F 0.55486(19) 0.21328(9) 0.28223(6)
F3 F 0.6969(2) 0.29274(8) 0.30451(6)
loop_
_geom_bond_atom_site_label_1
_geom_bond_atom_site_label_2
_geom_bond_site_symmetry_1
_geom_bond_site_symmetry_2
P1 O1 1_555 1_555
S1 O2 1_555 1_555
N1 B1 1_555 1_555
O1 B1 1_555 1_555
O3 S1 1_555 1_555
O4 S1 1_555 1_555
B1 C4 1_555 1_555
C1 N1 1_555 1_555
C2 C1 1_555 1_555
C3 C2 1_555 1_555
C4 C3 1_555 1_555
C5 N1 1_555 1_555
C6 C5 1_555 1_555
C7 P1 1_555 1_555
C8 C7 1_555 1_555
C9 C8 1_555 1_555
C10 C9 1_555 1_555
C11 C10 1_555 1_555
C12 C7 1_555 1_555
C13 P1 1_555 1_555
C14 C13 1_555 1_555
C15 C14 1_555 1_555
C16 C15 1_555 1_555
C17 C16 1_555 1_555
C18 C13 1_555 1_555
C19 P1 1_555 1_555
C20 C19 1_555 1_555
C21 C20 1_555 1_555
C22 C21 1_555 1_555
C23 C22 1_555 1_555
C24 C19 1_555 1_555
C25 S1 1_555 1_555
F1 C25 1_555 1_555
F2 C25 1_555 1_555
F3 C25 1_555 1_555
H1 C1 1_555 1_555
H2 C2 1_555 1_555
H3 C3 1_555 1_555
H4 C4 1_555 1_555
H5 C5 1_555 1_555
H6 C5 1_555 1_555
H7 C6 1_555 1_555
H8 C6 1_555 1_555
H9 C6 1_555 1_555
H10 C8 1_555 1_555
H11 C9 1_555 1_555
H12 C10 1_555 1_555
H13 C11 1_555 1_555
H14 C12 1_555 1_555
H15 C14 1_555 1_555
H16 C15 1_555 1_555
H17 C16 1_555 1_555
H18 C17 1_555 1_555
H19 C18 1_555 1_555
H20 C20 1_555 1_555
H21 C21 1_555 1_555
H22 C22 1_555 1_555
H23 C23 1_555 1_555
H24 C24 1_555 1_555
C11 C12 1_555 1_555
C17 C18 1_555 1_555
C23 C24 1_555 1_555

#END
