
#######################################################################
#
#                 Cambridge Crystallographic Data Centre
#                                CCDC 
#
#######################################################################
#
# If this CIF has been generated from an entry in the Cambridge 
# Structural Database, then it will include bibliographic, chemical, 
# crystal, experimental, refinement or atomic coordinate data resulting 
# from the CCDC's data processing and validation procedures.
#
#######################################################################

data_IPONOR
_chemical_formula_moiety         'C9 H18 B1 N1 P1 1+,C1 F3 O3 S1 1-'
_chemical_name_systematic        
'(1-Ethyl-1,2-azaborinin-2(1H)-yl)(trimethyl)phosphonium trifluoromethanesulfonate'
_symmetry_cell_setting           triclinic
_symmetry_space_group_name_H-M   'P -1'
_symmetry_Int_Tables_number      2
_space_group_name_Hall           '-P 1'
loop_
_symmetry_equiv_pos_site_id
_symmetry_equiv_pos_as_xyz
1 x,y,z
2 -x,-y,-z
_cell_length_a                   8.3208(13)
_cell_length_b                   8.7590(13)
_cell_length_c                   11.6164(17)
_cell_angle_alpha                108.031(2)
_cell_angle_beta                 106.341(2)
_cell_angle_gamma                90.357(2)
_cell_volume                     768.476
_exptl_crystal_colour            colorless
_exptl_crystal_description       block
_cell_formula_units_Z            2
loop_
_atom_site_label
_atom_site_type_symbol
_atom_site_fract_x
_atom_site_fract_y
_atom_site_fract_z
P1 P 0.56064(7) 0.83610(7) 0.70547(5)
N1 N 0.7758(2) 0.8666(2) 0.96472(17)
B1 B 0.6856(3) 0.9477(3) 0.8821(2)
C1 C 0.8637(3) 0.9518(3) 1.0870(2)
C2 C 0.8690(3) 1.1150(3) 1.1334(2)
C3 C 0.7848(3) 1.2036(3) 1.0569(2)
C4 C 0.6926(3) 1.1270(3) 0.9335(2)
C5 C 0.7842(3) 0.6892(3) 0.9283(2)
C6 C 0.6634(4) 0.6071(4) 0.9718(3)
C7 C 0.4350(4) 0.9787(3) 0.6492(3)
C8 C 0.4207(3) 0.6639(3) 0.6787(3)
C9 C 0.6905(3) 0.7656(3) 0.6034(2)
H1 H 0.918(3) 0.887(3) 1.135(2)
H2 H 0.930(3) 1.165(3) 1.213(2)
H3 H 0.798(3) 1.323(3) 1.092(2)
H4 H 0.641(3) 1.194(3) 0.884(2)
H5 H 0.761(3) 0.650(3) 0.837(2)
H6 H 0.895(3) 0.670(3) 0.963(2)
H7 H 0.687(4) 0.644(3) 1.062(3)
H8 H 0.549(4) 0.627(3) 0.940(2)
H9 H 0.671(4) 0.494(4) 0.942(3)
H10 H 0.361(4) 1.015(3) 0.699(3)
H11 H 0.372(4) 0.932(4) 0.565(3)
H12 H 0.509(4) 1.074(4) 0.655(3)
H13 H 0.347(4) 0.692(3) 0.731(3)
H14 H 0.481(3) 0.582(3) 0.695(3)
H15 H 0.352(4) 0.632(3) 0.595(3)
H16 H 0.767(4) 0.847(4) 0.614(2)
H17 H 0.751(4) 0.689(4) 0.627(3)
H18 H 0.614(3) 0.725(3) 0.514(3)
S1 S 0.13389(7) 0.69785(7) 0.30559(5)
O1 O 0.1688(3) 0.8684(2) 0.33612(18)
O2 O 0.0430(2) 0.6148(2) 0.17589(16)
O3 O 0.2727(2) 0.6212(2) 0.36134(17)
F1 F -0.1564(2) 0.7452(3) 0.34681(19)
F2 F -0.0588(3) 0.5287(3) 0.3715(2)
F3 F 0.0446(2) 0.7573(2) 0.51300(15)
C10 C -0.0165(3) 0.6837(4) 0.3889(3)
loop_
_geom_bond_atom_site_label_1
_geom_bond_atom_site_label_2
_geom_bond_site_symmetry_1
_geom_bond_site_symmetry_2
P1 B1 1_555 1_555
S1 O1 1_555 1_555
O2 S1 1_555 1_555
O3 S1 1_555 1_555
N1 B1 1_555 1_555
B1 C4 1_555 1_555
F1 C10 1_555 1_555
F2 C10 1_555 1_555
F3 C10 1_555 1_555
C1 N1 1_555 1_555
C2 C1 1_555 1_555
C3 C2 1_555 1_555
C4 C3 1_555 1_555
C5 N1 1_555 1_555
C6 C5 1_555 1_555
C7 P1 1_555 1_555
C8 P1 1_555 1_555
C9 P1 1_555 1_555
C10 S1 1_555 1_555
H1 C1 1_555 1_555
H2 C2 1_555 1_555
H3 C3 1_555 1_555
H4 C4 1_555 1_555
H5 C5 1_555 1_555
H6 C5 1_555 1_555
H7 C6 1_555 1_555
H8 C6 1_555 1_555
H9 C6 1_555 1_555
H10 C7 1_555 1_555
H11 C7 1_555 1_555
H12 C7 1_555 1_555
H13 C8 1_555 1_555
H14 C8 1_555 1_555
H15 C8 1_555 1_555
H16 C9 1_555 1_555
H17 C9 1_555 1_555
H18 C9 1_555 1_555

#END
