
#######################################################################
#
#                 Cambridge Crystallographic Data Centre
#                                CCDC 
#
#######################################################################
#
# If this CIF has been generated from an entry in the Cambridge 
# Structural Database, then it will include bibliographic, chemical, 
# crystal, experimental, refinement or atomic coordinate data resulting 
# from the CCDC's data processing and validation procedures.
#
#######################################################################

data_IPOPAF
_chemical_formula_moiety         'C11 H14 B1 N2 O1 1+,C1 F3 O3 S1 1-'
_chemical_name_systematic        
'1-((1-Ethyl-1,2-azaborinin-2(1H)-yl)oxy)pyridinium trifluoromethanesulfonate'
_symmetry_cell_setting           monoclinic
_symmetry_space_group_name_H-M   'P 21/c'
_symmetry_Int_Tables_number      14
_space_group_name_Hall           '-P 2ybc'
loop_
_symmetry_equiv_pos_site_id
_symmetry_equiv_pos_as_xyz
1 x,y,z
2 -x,1/2+y,1/2-z
3 -x,-y,-z
4 x,1/2-y,1/2+z
_cell_length_a                   9.6415(13)
_cell_length_b                   9.9617(14)
_cell_length_c                   16.668(2)
_cell_angle_alpha                90
_cell_angle_beta                 96.612(2)
_cell_angle_gamma                90
_cell_volume                     1590.24
_exptl_crystal_colour            colorless
_exptl_crystal_description       block
_cell_formula_units_Z            4
loop_
_atom_site_label
_atom_site_type_symbol
_atom_site_fract_x
_atom_site_fract_y
_atom_site_fract_z
S1 S 0.68049(6) 0.19798(6) 0.11544(3)
O2 O 0.81717(16) 0.2574(2) 0.12324(12)
O3 O 0.6684(2) 0.06934(17) 0.07736(10)
O4 O 0.60931(16) 0.21071(17) 0.18594(9)
F1 F 0.58147(17) 0.43347(14) 0.07207(10)
F2 F 0.44895(14) 0.27217(16) 0.02937(10)
F3 F 0.63165(18) 0.31308(16) -0.02667(9)
C12 C 0.5807(2) 0.3084(2) 0.04388(15)
O1 O 0.99093(15) 1.00544(15) 0.22867(9)
N1 N 0.78452(17) 0.90454(17) 0.26487(10)
N2 N 1.10064(17) 0.99968(17) 0.18209(10)
B1 B 0.8915(2) 0.8994(2) 0.21354(15)
C1 C 0.6810(2) 0.8096(3) 0.25596(16)
C2 C 0.6779(2) 0.7119(3) 0.19976(16)
C3 C 0.7829(2) 0.7017(2) 0.14800(15)
C4 C 0.8913(2) 0.7903(2) 0.15227(14)
C5 C 0.7808(3) 1.0061(3) 0.32890(15)
C6 C 0.8656(3) 0.9661(3) 0.40668(17)
C7 C 1.0931(2) 1.0756(2) 0.11562(14)
C8 C 1.2044(2) 1.0742(2) 0.07170(15)
C9 C 1.3203(2) 0.9978(2) 0.09715(15)
C10 C 1.3221(2) 0.9215(2) 0.16575(14)
C11 C 1.2099(2) 0.9236(2) 0.20864(14)
H1 H 0.615(3) 0.818(2) 0.2899(17)
H2 H 0.606(3) 0.653(2) 0.1983(14)
H3 H 0.782(2) 0.630(2) 0.1111(14)
H4 H 0.958(2) 0.778(2) 0.1189(14)
H5 H 0.688(3) 1.026(2) 0.3348(13)
H6 H 0.814(2) 1.089(2) 0.3095(15)
H7 H 0.829(3) 0.882(3) 0.4268(17)
H8 H 0.958(3) 0.949(3) 0.3987(17)
H9 H 0.863(3) 1.040(3) 0.4456(16)
H10 H 1.012(2) 1.125(2) 0.1048(13)
H11 H 1.199(2) 1.126(2) 0.0250(15)
H12 H 1.393(2) 0.998(2) 0.0676(14)
H13 H 1.397(2) 0.864(2) 0.1847(14)
H14 H 1.200(2) 0.875(2) 0.2546(15)
loop_
_geom_bond_atom_site_label_1
_geom_bond_atom_site_label_2
_geom_bond_site_symmetry_1
_geom_bond_site_symmetry_2
S1 O2 1_555 1_555
O1 N2 1_555 1_555
O3 S1 1_555 1_555
O4 S1 1_555 1_555
N1 B1 1_555 1_555
N2 C7 1_555 1_555
F1 C12 1_555 1_555
F2 C12 1_555 1_555
F3 C12 1_555 1_555
B1 O1 1_555 1_555
C1 N1 1_555 1_555
C2 C1 1_555 1_555
C3 C2 1_555 1_555
C4 B1 1_555 1_555
C5 N1 1_555 1_555
C6 C5 1_555 1_555
C7 C8 1_555 1_555
C8 C9 1_555 1_555
C9 C10 1_555 1_555
C10 C11 1_555 1_555
C11 N2 1_555 1_555
C12 S1 1_555 1_555
H1 C1 1_555 1_555
H2 C2 1_555 1_555
H3 C3 1_555 1_555
H4 C4 1_555 1_555
H5 C5 1_555 1_555
H6 C5 1_555 1_555
H7 C6 1_555 1_555
H8 C6 1_555 1_555
H9 C6 1_555 1_555
H10 C7 1_555 1_555
H11 C8 1_555 1_555
H12 C9 1_555 1_555
H13 C10 1_555 1_555
H14 C11 1_555 1_555
C3 C4 1_555 1_555

#END
