
#######################################################################
#
#                 Cambridge Crystallographic Data Centre
#                                CCDC 
#
#######################################################################
#
# If this CIF has been generated from an entry in the Cambridge 
# Structural Database, then it will include bibliographic, chemical, 
# crystal, experimental, refinement or atomic coordinate data resulting 
# from the CCDC's data processing and validation procedures.
#
#######################################################################

data_IPOREK
_chemical_formula_moiety         'C28 H23 N1 O8'
_chemical_name_systematic        
'1-(3,4-Methylenedioxyphenyl)-4-hydroxy-6,7-dimethoxy-3-(benzyloxyiminomethyl)naphthalene-2-carboxylic acid'
_symmetry_cell_setting           triclinic
_symmetry_space_group_name_H-M   'P -1'
_symmetry_Int_Tables_number      2
_space_group_name_Hall           '-P 1'
loop_
_symmetry_equiv_pos_site_id
_symmetry_equiv_pos_as_xyz
1 x,y,z
2 -x,-y,-z
_cell_length_a                   9.0768(18)
_cell_length_b                   10.020(2)
_cell_length_c                   16.638(3)
_cell_angle_alpha                94.50(3)
_cell_angle_beta                 90.86(3)
_cell_angle_gamma                114.68(3)
_cell_volume                     1368.85
_exptl_crystal_colour            colorless
_exptl_crystal_description       plate
_cell_formula_units_Z            2
loop_
_atom_site_label
_atom_site_type_symbol
_atom_site_fract_x
_atom_site_fract_y
_atom_site_fract_z
O1 O 0.6625(3) 0.7232(3) 0.60533(15)
O2 O 0.7829(3) 0.6202(3) 0.49360(15)
O3 O 0.2491(3) 0.8610(3) 0.47240(15)
H1 H 0.1814 0.8897 0.4545
O4 O -0.0106(3) 0.9820(3) 0.32291(15)
O5 O 0.6873(4) 0.4347(4) 0.04317(18)
O6 O 0.4146(5) 0.3263(5) 0.0636(3)
O7 O 0.1617(4) 0.6664(3) 0.14796(19)
O8 O 0.3857(4) 0.8725(4) 0.15211(19)
H2 H 0.3530 0.8739 0.1048
N1 N 0.0834(4) 0.9217(3) 0.36168(19)
C1 C 0.2609(4) 0.8055(4) 0.3306(2)
C2 C 0.3324(4) 0.7493(4) 0.2685(2)
C3 C 0.4424(4) 0.6930(4) 0.2858(2)
C4 C 0.4933(4) 0.6969(4) 0.3678(2)
C5 C 0.4276(4) 0.7562(4) 0.4304(2)
C6 C 0.3099(4) 0.8086(4) 0.4101(2)
C7 C 0.4822(4) 0.7651(4) 0.5110(2)
H3 H 0.4375 0.8044 0.5528
C8 C 0.5984(4) 0.7183(4) 0.5303(2)
C9 C 0.6651(4) 0.6594(4) 0.4671(2)
C10 C 0.6111(4) 0.6464(4) 0.3895(2)
H4 H 0.6531 0.6023 0.3487
C11 C 0.5877(5) 0.7646(5) 0.6715(2)
H5 H 0.6435 0.7639 0.7222
H6 H 0.4734 0.6945 0.6711
H7 H 0.5947 0.8639 0.6665
C12 C 0.8565(5) 0.5628(5) 0.4330(2)
H8 H 0.9396 0.5391 0.4585
H9 H 0.9069 0.6367 0.3948
H10 H 0.7735 0.4732 0.4041
C13 C 0.5131(5) 0.6312(4) 0.2198(2)
C14 C 0.6745(6) 0.6981(5) 0.2036(3)
H11 H 0.7420 0.7887 0.2336
C15 C 0.7425(7) 0.6380(6) 0.1452(3)
H12 H 0.8546 0.6838 0.1348
C16 C 0.6391(7) 0.5095(6) 0.1037(3)
C17 C 0.4834(7) 0.4434(6) 0.1165(3)
C18 C 0.4116(6) 0.4998(5) 0.1751(3)
H13 H 0.2992 0.4514 0.1842
C19 C 0.5456(8) 0.3110(8) 0.0212(4)
H14 H 0.5566 0.2214 0.0354
H15 H 0.5225 0.3016 -0.0379
C20 C 0.2847(5) 0.7567(4) 0.1824(2)
C21 C -0.0770(5) 1.0544(4) 0.3811(2)
H16 H 0.0038 1.1101 0.4259
H17 H -0.1756 0.9818 0.4037
C22 C -0.1171(4) 1.1564(4) 0.3330(2)
C23 C -0.0054(5) 1.3002(4) 0.3298(2)
H18 H 0.0922 1.3385 0.3628
C24 C -0.0357(5) 1.3888(5) 0.2782(3)
H19 H 0.0415 1.4877 0.2754
C25 C -0.1782(6) 1.3332(5) 0.2309(3)
H20 H -0.1988 1.3942 0.1956
C26 C -0.2896(6) 1.1919(5) 0.2344(3)
H21 H -0.3871 1.1545 0.2013
C27 C -0.2614(5) 1.1025(5) 0.2859(3)
H22 H -0.3403 1.0045 0.2891
C28 C 0.1484(4) 0.8666(4) 0.3085(2)
H23 H 0.1219 0.8659 0.2530
loop_
_geom_bond_atom_site_label_1
_geom_bond_atom_site_label_2
_geom_bond_site_symmetry_1
_geom_bond_site_symmetry_2
O1 C8 1_555 1_555
O2 C9 1_555 1_555
O3 H1 1_555 1_555
O4 N1 1_555 1_555
O5 C16 1_555 1_555
O6 C17 1_555 1_555
O7 C20 1_555 1_555
O8 H2 1_555 1_555
N1 C28 1_555 1_555
C1 C2 1_555 1_555
C2 C3 1_555 1_555
C3 C4 1_555 1_555
C4 C5 1_555 1_555
C5 C6 1_555 1_555
C6 O3 1_555 1_555
C7 C5 1_555 1_555
H3 C7 1_555 1_555
C8 C7 1_555 1_555
C9 C8 1_555 1_555
C10 C4 1_555 1_555
H4 C10 1_555 1_555
C11 O1 1_555 1_555
H5 C11 1_555 1_555
H6 C11 1_555 1_555
H7 C11 1_555 1_555
C12 O2 1_555 1_555
H8 C12 1_555 1_555
H9 C12 1_555 1_555
H10 C12 1_555 1_555
C13 C3 1_555 1_555
C14 C13 1_555 1_555
H11 C14 1_555 1_555
C15 C14 1_555 1_555
H12 C15 1_555 1_555
C16 C15 1_555 1_555
C17 C16 1_555 1_555
C18 C13 1_555 1_555
H13 C18 1_555 1_555
C19 O5 1_555 1_555
H14 C19 1_555 1_555
H15 C19 1_555 1_555
C20 O8 1_555 1_555
C21 O4 1_555 1_555
H16 C21 1_555 1_555
H17 C21 1_555 1_555
C22 C21 1_555 1_555
C23 C22 1_555 1_555
H18 C23 1_555 1_555
C24 C23 1_555 1_555
H19 C24 1_555 1_555
C25 C24 1_555 1_555
H20 C25 1_555 1_555
C26 C25 1_555 1_555
H21 C26 1_555 1_555
C27 C22 1_555 1_555
H22 C27 1_555 1_555
C28 C1 1_555 1_555
H23 C28 1_555 1_555
O6 C19 1_555 1_555
C1 C6 1_555 1_555
C2 C20 1_555 1_555
C9 C10 1_555 1_555
C17 C18 1_555 1_555
C26 C27 1_555 1_555

#END
