
#######################################################################
#
#                 Cambridge Crystallographic Data Centre
#                                CCDC 
#
#######################################################################
#
# If this CIF has been generated from an entry in the Cambridge 
# Structural Database, then it will include bibliographic, chemical, 
# crystal, experimental, refinement or atomic coordinate data resulting 
# from the CCDC's data processing and validation procedures.
#
#######################################################################

data_IPOSAH01
_chemical_formula_moiety         'C22 H28 N2 O8'
_chemical_name_systematic        
'Trimethyl 1-benzyl-5-(2-methoxy-2-oxoethyl)hexahydro-1H-pyrrolo[1,2-a]imidazole-5,6,7-tricarboxylate'
_symmetry_cell_setting           triclinic
_symmetry_space_group_name_H-M   'P -1'
_symmetry_Int_Tables_number      2
_space_group_name_Hall           '-P 1'
loop_
_symmetry_equiv_pos_site_id
_symmetry_equiv_pos_as_xyz
1 x,y,z
2 -x,-y,-z
_cell_length_a                   7.4904(10)
_cell_length_b                   12.842(2)
_cell_length_c                   13.370(2)
_cell_angle_alpha                68.762(6)
_cell_angle_beta                 75.646(6)
_cell_angle_gamma                80.916(8)
_cell_volume                     1158.01
_exptl_crystal_colour            colorless
_exptl_crystal_description       block
_cell_formula_units_Z            2
loop_
_atom_site_label
_atom_site_type_symbol
_atom_site_fract_x
_atom_site_fract_y
_atom_site_fract_z
O1 O -0.2508(4) 0.9215(2) 0.35988(18)
O2 O -0.1452(4) 0.8335(3) 0.2390(2)
O3 O 0.3783(4) 0.7454(2) 0.18895(19)
O4 O 0.2644(4) 0.8927(3) 0.2408(2)
O5 O -0.1771(4) 0.5568(2) 0.38952(19)
O6 O -0.4352(5) 0.6577(3) 0.4370(2)
O7 O -0.4581(4) 0.6705(3) 0.7498(2)
O8 O -0.2259(6) 0.5445(3) 0.7204(2)
N1 N -0.0555(4) 0.7855(2) 0.6652(2)
N2 N 0.0116(4) 0.8218(2) 0.4756(2)
C1 C -0.1428(5) 0.8136(3) 0.5701(2)
H1 H -0.2171 0.8873 0.5593
C2 C -0.2661(5) 0.7211(3) 0.5754(2)
H2 H -0.3843 0.7582 0.5525
C3 C -0.1528(5) 0.6691(3) 0.4911(2)
H3 H -0.0718 0.6041 0.5282
C4 C -0.0281(5) 0.7642(3) 0.4078(2)
C5 C 0.1848(6) 0.7864(4) 0.5183(3)
H4 H 0.2905 0.8259 0.4648
H5 H 0.2146 0.7045 0.5376
C6 C 0.1341(6) 0.8212(4) 0.6195(3)
H6 H 0.2171 0.7818 0.6711
H7 H 0.1367 0.9031 0.5999
C7 C -0.1438(5) 0.8439(3) 0.3235(3)
C8 C -0.3753(6) 0.9947(4) 0.2914(3)
H8 H -0.4457 1.0481 0.3261
H9 H -0.4607 0.9497 0.2826
H10 H -0.3034 1.0356 0.2193
C9 C 0.1447(5) 0.7125(3) 0.3459(2)
H11 H 0.2212 0.6658 0.3992
H12 H 0.1038 0.6626 0.3157
C10 C 0.2626(5) 0.7959(4) 0.2543(3)
C11 C 0.5047(6) 0.8155(4) 0.0973(3)
H13 H 0.5814 0.7701 0.0551
H14 H 0.5840 0.8479 0.1250
H15 H 0.4341 0.8758 0.0501
C12 C -0.2741(7) 0.6285(3) 0.4380(3)
C13 C -0.2711(6) 0.5283(4) 0.3204(3)
H16 H -0.1904 0.4755 0.2884
H17 H -0.3006 0.5965 0.2616
H18 H -0.3855 0.4938 0.3649
C14 C -0.3092(7) 0.6337(5) 0.6884(3)
C15 C -0.5130(9) 0.5918(6) 0.8616(3)
H19 H -0.6226 0.6243 0.9008
H20 H -0.4116 0.5773 0.9004
H21 H -0.5413 0.5214 0.8583
C16 C -0.1563(6) 0.8408(4) 0.7446(3)
H22 H -0.2893 0.8283 0.7620
H23 H -0.1437 0.9225 0.7114
C17 C -0.0817(6) 0.7951(4) 0.8504(3)
C18 C -0.0592(7) 0.6825(4) 0.9058(3)
H24 H -0.0874 0.6309 0.8769
C19 C 0.0045(8) 0.6418(4) 1.0040(3)
H25 H 0.0192 0.5633 1.0410
C20 C 0.0456(7) 0.7149(5) 1.0467(3)
H26 H 0.0895 0.6877 1.1131
C21 C 0.0233(7) 0.8253(5) 0.9938(3)
H27 H 0.0516 0.8760 1.0236
C22 C -0.0411(6) 0.8678(4) 0.8951(3)
H28 H -0.0567 0.9465 0.8594
loop_
_geom_bond_atom_site_label_1
_geom_bond_atom_site_label_2
_geom_bond_site_symmetry_1
_geom_bond_site_symmetry_2
O1 C7 1_555 1_555
O2 C7 1_555 1_555
O3 C10 1_555 1_555
O4 C10 1_555 1_555
O5 C12 1_555 1_555
O6 C12 1_555 1_555
O7 C14 1_555 1_555
O8 C14 1_555 1_555
N1 C1 1_555 1_555
N2 C1 1_555 1_555
C1 H1 1_555 1_555
C2 C1 1_555 1_555
H2 C2 1_555 1_555
C3 C2 1_555 1_555
H3 C3 1_555 1_555
C4 N2 1_555 1_555
C5 N2 1_555 1_555
H4 C5 1_555 1_555
H5 C5 1_555 1_555
C6 N1 1_555 1_555
H6 C6 1_555 1_555
H7 C6 1_555 1_555
C7 C4 1_555 1_555
C8 O1 1_555 1_555
H8 C8 1_555 1_555
H9 C8 1_555 1_555
H10 C8 1_555 1_555
C9 C4 1_555 1_555
H11 C9 1_555 1_555
H12 C9 1_555 1_555
C10 C9 1_555 1_555
C11 O3 1_555 1_555
H13 C11 1_555 1_555
H14 C11 1_555 1_555
H15 C11 1_555 1_555
C12 C3 1_555 1_555
C13 O5 1_555 1_555
H16 C13 1_555 1_555
H17 C13 1_555 1_555
H18 C13 1_555 1_555
C14 C2 1_555 1_555
C15 O7 1_555 1_555
H19 C15 1_555 1_555
H20 C15 1_555 1_555
H21 C15 1_555 1_555
C16 N1 1_555 1_555
H22 C16 1_555 1_555
H23 C16 1_555 1_555
C17 C16 1_555 1_555
C18 C17 1_555 1_555
H24 C18 1_555 1_555
C19 C18 1_555 1_555
H25 C19 1_555 1_555
C20 C19 1_555 1_555
H26 C20 1_555 1_555
C21 C20 1_555 1_555
H27 C21 1_555 1_555
C22 C17 1_555 1_555
H28 C22 1_555 1_555
C3 C4 1_555 1_555
C5 C6 1_555 1_555
C21 C22 1_555 1_555

#END
