
#######################################################################
#
#                 Cambridge Crystallographic Data Centre
#                                CCDC 
#
#######################################################################
#
# If this CIF has been generated from an entry in the Cambridge 
# Structural Database, then it will include bibliographic, chemical, 
# crystal, experimental, refinement or atomic coordinate data resulting 
# from the CCDC's data processing and validation procedures.
#
#######################################################################

data_IPOYAO
_chemical_formula_moiety         'C28 H28 N2 O2,2(H2 O1)'
_chemical_name_systematic        
"4,4'-(2,2'-Dimethoxy-5,5',6,6'-tetramethylbiphenyl-3,3'-diyl)dipyridine dihydrate"
_symmetry_cell_setting           orthorhombic
_symmetry_space_group_name_H-M   'P 21 21 2'
_symmetry_Int_Tables_number      18
_space_group_name_Hall           'P 2 2ab'
loop_
_symmetry_equiv_pos_site_id
_symmetry_equiv_pos_as_xyz
1 x,y,z
2 -x,-y,z
3 1/2+x,1/2-y,-z
4 1/2-x,1/2+y,-z
_cell_length_a                   12.366(5)
_cell_length_b                   27.132(10)
_cell_length_c                   7.849(3)
_cell_angle_alpha                90
_cell_angle_beta                 90
_cell_angle_gamma                90
_cell_volume                     2633.45
_exptl_crystal_colour            colorless
_exptl_crystal_description       tubule
_cell_formula_units_Z            4
loop_
_atom_site_label
_atom_site_type_symbol
_atom_site_fract_x
_atom_site_fract_y
_atom_site_fract_z
N1 N 0.5761(5) 0.3991(2) 0.1131(6)
C1 C 0.6838(5) 0.3849(2) 0.1003(6)
H1 H 0.7183 0.3854 -0.0050
C2 C 0.7400(3) 0.3700(2) 0.2448(7)
H2 H 0.8120 0.3605 0.2363
C3 C 0.6884(4) 0.3694(2) 0.4022(6)
C4 C 0.5807(4) 0.3836(2) 0.4151(6)
H3 H 0.5462 0.3831 0.5203
C5 C 0.5246(3) 0.3985(2) 0.2705(8)
H4 H 0.4525 0.4080 0.2791
C6 C 0.6582(8) 0.2623(5) 0.9135(17)
H5 H 0.7004 0.2479 1.0033
H6 H 0.6279 0.2366 0.8442
H7 H 0.6009 0.2817 0.9620
C7 C 0.7434(3) 0.34913(18) 0.5635(6)
C8 C 0.8527(3) 0.35597(17) 0.5975(6)
C9 C 0.9004(3) 0.33227(18) 0.7353(7)
C10 C 0.8388(4) 0.30173(19) 0.8392(6)
C11 C 0.7295(3) 0.29489(19) 0.8052(7)
C12 C 0.6818(3) 0.31859(19) 0.6674(7)
H8 H 0.6087 0.3140 0.6446
C13 C 0.8907(8) 0.2735(4) 0.9803(16)
H9 H 0.8370 0.2541 1.0379
H10 H 0.9231 0.2961 1.0595
H11 H 0.9453 0.2522 0.9344
C14 C 0.8964(8) 0.4369(3) 0.5028(14)
H12 H 0.9445 0.4544 0.4285
H13 H 0.9069 0.4478 0.6179
H14 H 0.8230 0.4430 0.4692
C15 C 1.0176(2) 0.34101(16) 0.7719(6)
C16 C 1.0450(3) 0.37158(17) 0.9073(6)
C17 C 1.1530(3) 0.38149(16) 0.9421(5)
C18 C 1.2337(3) 0.36082(19) 0.8416(6)
H15 H 1.3060 0.3674 0.8649
C19 C 1.2063(3) 0.33024(18) 0.7062(6)
C20 C 1.0982(3) 0.32033(14) 0.6714(5)
C21 C 1.0667(5) 0.2850(2) 0.5324(7)
H16 H 1.1305 0.2736 0.4747
H17 H 1.0201 0.3013 0.4525
H18 H 1.0294 0.2573 0.5812
C22 C 1.2963(7) 0.3087(4) 0.6004(16)
H19 H 1.2662 0.2884 0.5122
H20 H 1.3426 0.2892 0.6716
H21 H 1.3375 0.3349 0.5498
C23 C 0.9390(8) 0.4403(3) 0.9903(16)
H22 H 0.8819 0.4498 1.0665
H23 H 0.9166 0.4459 0.8748
H24 H 1.0025 0.4594 1.0142
C24 C 1.1854(4) 0.41259(19) 1.0964(6)
C25 C 1.1477(4) 0.40121(19) 1.2585(8)
H25 H 1.0987 0.3756 1.2734
C26 C 1.1832(5) 0.4281(2) 1.3984(6)
H26 H 1.1580 0.4205 1.5068
N2 N 1.2565(5) 0.4665(2) 1.3761(7)
C27 C 1.2942(4) 0.47785(17) 1.2140(9)
H27 H 1.3432 0.5035 1.1991
C28 C 1.2587(4) 0.4509(2) 1.0741(6)
H28 H 1.2839 0.4585 0.9656
O1 O 0.9182(4) 0.3855(2) 0.4922(8)
O2 O 0.9623(4) 0.38972(19) 1.0132(7)
O3 O 0.5030(6) 0.4270(3) 0.7824(9)
H30 H 0.516(10) 0.429(4) 0.902(6)
H32 H 0.445(11) 0.450(5) 0.759(16)
O4 O 0.3438(7) 0.4987(4) 0.7003(10)
H29 H 0.311(8) 0.488(4) 0.596(9)
H31 H 0.389(11) 0.527(4) 0.678(15)
loop_
_geom_bond_atom_site_label_1
_geom_bond_atom_site_label_2
_geom_bond_site_symmetry_1
_geom_bond_site_symmetry_2
N1 C1 1_555 1_555
C1 H1 1_555 1_555
C2 C1 1_555 1_555
H2 C2 1_555 1_555
C3 C2 1_555 1_555
C4 C3 1_555 1_555
H3 C4 1_555 1_555
C5 N1 1_555 1_555
H4 C5 1_555 1_555
C6 H5 1_555 1_555
H6 C6 1_555 1_555
H7 C6 1_555 1_555
C7 C3 1_555 1_555
C8 C7 1_555 1_555
C9 C8 1_555 1_555
C10 C9 1_555 1_555
C11 C6 1_555 1_555
C12 C7 1_555 1_555
H8 C12 1_555 1_555
C13 C10 1_555 1_555
H9 C13 1_555 1_555
H10 C13 1_555 1_555
H11 C13 1_555 1_555
C14 H12 1_555 1_555
H13 C14 1_555 1_555
H14 C14 1_555 1_555
C15 C9 1_555 1_555
C16 C15 1_555 1_555
C17 C16 1_555 1_555
C18 C17 1_555 1_555
H15 C18 1_555 1_555
C19 C18 1_555 1_555
C20 C15 1_555 1_555
C21 C20 1_555 1_555
H16 C21 1_555 1_555
H17 C21 1_555 1_555
H18 C21 1_555 1_555
C22 C19 1_555 1_555
H19 C22 1_555 1_555
H20 C22 1_555 1_555
H21 C22 1_555 1_555
C23 H22 1_555 1_555
H23 C23 1_555 1_555
H24 C23 1_555 1_555
C24 C17 1_555 1_555
C25 C24 1_555 1_555
H25 C25 1_555 1_555
C26 C25 1_555 1_555
H26 C26 1_555 1_555
N2 C26 1_555 1_555
C27 N2 1_555 1_555
H27 C27 1_555 1_555
C28 C24 1_555 1_555
H28 C28 1_555 1_555
O1 C8 1_555 1_555
O2 C16 1_555 1_555
O3 H30 1_555 1_555
O4 H29 1_555 1_555
H31 O4 1_555 1_555
H32 O3 1_555 1_555
C4 C5 1_555 1_555
C10 C11 1_555 1_555
C11 C12 1_555 1_555
C14 O1 1_555 1_555
C19 C20 1_555 1_555
C23 O2 1_555 1_555
C27 C28 1_555 1_555

#END
