
#######################################################################
#
#                 Cambridge Crystallographic Data Centre
#                                CCDC 
#
#######################################################################
#
# If this CIF has been generated from an entry in the Cambridge 
# Structural Database, then it will include bibliographic, chemical, 
# crystal, experimental, refinement or atomic coordinate data resulting 
# from the CCDC's data processing and validation procedures.
#
#######################################################################

data_IPRINC
_chemical_name_common            Iprindole
_chemical_formula_moiety         'C19 H29 N2 1+,Cl1 1-,H2 O1'
_chemical_name_systematic        
'5-(3-(Dimethylamino)propyl)-6,7,8,9,10,11-hexahydro-5H-cyclo-oct(b)indole hydrochloride monohydrate'
_chemical_properties_biological  'antidepressant drug'
_symmetry_cell_setting           orthorhombic
_symmetry_space_group_name_H-M   'P b c a'
_symmetry_Int_Tables_number      61
_space_group_name_Hall           '-P 2ac 2ab'
loop_
_symmetry_equiv_pos_site_id
_symmetry_equiv_pos_as_xyz
1 x,y,z
2 1/2-x,-y,1/2+z
3 1/2+x,1/2-y,-z
4 -x,1/2+y,1/2-z
5 -x,-y,-z
6 1/2+x,y,1/2-z
7 1/2-x,1/2+y,z
8 x,1/2-y,1/2+z
_cell_length_a                   10.812(2)
_cell_length_b                   28.585(7)
_cell_length_c                   12.422(3)
_cell_angle_alpha                90
_cell_angle_beta                 90
_cell_angle_gamma                90
_cell_volume                     3839.16
_cell_formula_units_Z            8
loop_
_atom_site_label
_atom_site_type_symbol
_atom_site_fract_x
_atom_site_fract_y
_atom_site_fract_z
Cl1 Cl -0.00170 0.08600 0.48270
C1 C 0.15560 0.46500 -0.43580
C2 C 0.62620 0.36130 0.13540
C3 C 0.57270 0.34760 0.03610
C4 C 0.61320 0.31940 -0.05110
C5 C 0.72990 0.29150 -0.05900
C6 C 0.71770 0.24000 -0.02660
C7 C 0.65090 0.20910 -0.11180
C8 C 0.51240 0.21540 -0.11900
C9 C 0.46060 0.24270 -0.21130
C10 C 0.51430 0.29180 -0.22730
C11 C 0.51900 0.31930 -0.12590
C12 C 0.31700 0.49790 -0.31930
C13 C 0.23290 0.41850 -0.28450
C14 C 0.34180 0.40470 -0.21590
C15 C 0.31350 0.36060 -0.14970
C16 C 0.45350 0.36420 0.01210
C17 C 0.38600 0.39250 0.08080
C18 C 0.44120 0.40460 0.17700
C19 C 0.55910 0.38940 0.20290
H1 H 0.12700 0.43570 -0.47170
H2 H 0.08780 0.47770 -0.38940
H3 H 0.17790 0.48870 -0.49170
H4 H 0.33300 0.44050 -0.41120
H5 H 0.71070 0.35020 0.15580
H6 H 0.79140 0.30610 -0.00910
H7 H 0.76160 0.29320 -0.13450
H8 H 0.67000 0.23820 0.04210
H9 H 0.80270 0.22700 -0.01500
H10 H 0.66880 0.17570 -0.09420
H11 H 0.68640 0.21690 -0.18390
H12 H 0.47600 0.18330 -0.12240
H13 H 0.48450 0.23130 -0.05150
H14 H 0.47630 0.22430 -0.27830
H15 H 0.36940 0.24600 -0.20000
H16 H 0.60030 0.28890 -0.25630
H17 H 0.46150 0.30890 -0.28040
H18 H 0.25370 0.51250 -0.27130
H19 H 0.39330 0.49080 -0.27680
H20 H 0.33790 0.52000 -0.37900
H21 H 0.19950 0.39010 -0.32150
H22 H 0.16770 0.43210 -0.23680
H23 H 0.36310 0.43100 -0.16610
H24 H 0.41410 0.39790 -0.26370
H25 H 0.24420 0.36770 -0.09890
H26 H 0.28830 0.33460 -0.19890
H27 H 0.30220 0.40450 0.06080
H28 H 0.39300 0.42320 0.23060
H29 H 0.59760 0.40040 0.27160
N1 N 0.26520 0.45440 -0.36690
N2 N 0.42160 0.34610 -0.08790
H30 H 0.10240 0.02170 0.41200
O1 O 0.12770 -0.00350 0.38670
loop_
_geom_bond_atom_site_label_1
_geom_bond_atom_site_label_2
_geom_bond_site_symmetry_1
_geom_bond_site_symmetry_2
C1 H1 1_555 1_555
C2 C3 1_555 1_555
C3 C4 1_555 1_555
C4 C5 1_555 1_555
C5 C6 1_555 1_555
C6 C7 1_555 1_555
C7 C8 1_555 1_555
C8 C9 1_555 1_555
C9 C10 1_555 1_555
C10 C11 1_555 1_555
C11 C4 1_555 1_555
C12 H18 1_555 1_555
C13 C14 1_555 1_555
C14 C15 1_555 1_555
C15 H25 1_555 1_555
C16 C3 1_555 1_555
C17 C16 1_555 1_555
C18 C17 1_555 1_555
C19 C2 1_555 1_555
H2 C1 1_555 1_555
H3 C1 1_555 1_555
H4 N1 1_555 1_555
H5 C2 1_555 1_555
H6 C5 1_555 1_555
H7 C5 1_555 1_555
H8 C6 1_555 1_555
H9 C6 1_555 1_555
H10 C7 1_555 1_555
H11 C7 1_555 1_555
H12 C8 1_555 1_555
H13 C8 1_555 1_555
H14 C9 1_555 1_555
H15 C9 1_555 1_555
H16 C10 1_555 1_555
H17 C10 1_555 1_555
H19 C12 1_555 1_555
H20 C12 1_555 1_555
H21 C13 1_555 1_555
H22 C13 1_555 1_555
H23 C14 1_555 1_555
H24 C14 1_555 1_555
H26 C15 1_555 1_555
H27 C17 1_555 1_555
H28 C18 1_555 1_555
H29 C19 1_555 1_555
N1 C1 1_555 1_555
N2 C11 1_555 1_555
H30 O1 1_555 1_555
C12 N1 1_555 1_555
C13 N1 1_555 1_555
C15 N2 1_555 1_555
C16 N2 1_555 1_555
C18 C19 1_555 1_555

#END
