
#######################################################################
#
#                 Cambridge Crystallographic Data Centre
#                                CCDC 
#
#######################################################################
#
# If this CIF has been generated from an entry in the Cambridge 
# Structural Database, then it will include bibliographic, chemical, 
# crystal, experimental, refinement or atomic coordinate data resulting 
# from the CCDC's data processing and validation procedures.
#
#######################################################################

data_IPUCAZ
_chemical_formula_moiety         'C13 H17 N3 O1'
_chemical_name_systematic        
1,3,5-trimethyl-1,3,3a,4,5,9b-hexahydro-2H-imidazo[4,5-c]quinolin-2-one
_symmetry_cell_setting           orthorhombic
_symmetry_space_group_name_H-M   'P n 21 a'
_symmetry_Int_Tables_number      33
_space_group_name_Hall           'P -2ac -2n'
loop_
_symmetry_equiv_pos_site_id
_symmetry_equiv_pos_as_xyz
1 x,y,z
2 -x,1/2+y,-z
3 1/2+x,y,1/2-z
4 1/2-x,1/2+y,1/2+z
_cell_length_a                   20.1281(17)
_cell_length_b                   14.9938(16)
_cell_length_c                   8.0453(7)
_cell_angle_alpha                90
_cell_angle_beta                 90
_cell_angle_gamma                90
_cell_volume                     2428.05
_exptl_crystal_colour            yellow
_exptl_crystal_description       block
_cell_formula_units_Z            8
loop_
_atom_site_label
_atom_site_type_symbol
_atom_site_fract_x
_atom_site_fract_y
_atom_site_fract_z
O1 O 0.40895(17) 0.3514(3) 0.2681(4)
N1 N 0.5022(2) 0.2638(3) 0.7694(5)
N2 N 0.4661(2) 0.2364(3) 0.3958(5)
N3 N 0.5107(2) 0.3695(3) 0.3933(5)
C1 C 0.5656(3) 0.3772(4) 0.9267(7)
H1 H 0.5430 0.3640 1.0244
C2 C 0.6143(3) 0.4420(5) 0.9262(7)
H2 H 0.6230 0.4736 1.0233
C3 C 0.6506(3) 0.4611(5) 0.7840(9)
H3 H 0.6851 0.5023 0.7861
C4 C 0.6340(3) 0.4177(5) 0.6413(8)
H4 H 0.6571 0.4317 0.5447
C5 C 0.5843(2) 0.3533(4) 0.6322(6)
C6 C 0.5502(2) 0.3307(4) 0.7787(6)
C7 C 0.5186(3) 0.1917(4) 0.6584(6)
H5 H 0.4833 0.1477 0.6616
H6 H 0.5590 0.1632 0.6967
C8 C 0.5283(2) 0.2225(4) 0.4803(6)
H7 H 0.5548 0.1785 0.4195
C9 C 0.5623(2) 0.3146(4) 0.4699(6)
H8 H 0.6005 0.3108 0.3947
C10 C 0.4575(2) 0.3216(4) 0.3458(5)
C11 C 0.4727(3) 0.2327(5) 0.9256(7)
H9 H 0.4484 0.2806 0.9764
H10 H 0.5073 0.2133 0.9993
H11 H 0.4431 0.1839 0.9033
C12 C 0.5201(3) 0.4619(4) 0.3530(6)
H12 H 0.5207 0.4965 0.4535
H13 H 0.4843 0.4819 0.2834
H14 H 0.5615 0.4692 0.2954
C13 C 0.4232(3) 0.1630(4) 0.3472(7)
H15 H 0.4452 0.1272 0.2651
H16 H 0.3826 0.1862 0.3015
H17 H 0.4132 0.1270 0.4428
O2 O 0.33786(19) 0.0930(4) 0.7415(4)
N4 N 0.24209(19) 0.1870(3) 0.2510(4)
N5 N 0.2766(2) 0.2082(3) 0.6298(5)
N6 N 0.2353(2) 0.0724(3) 0.6156(5)
C14 C 0.1945(2) 0.1194(4) 0.2391(5)
C15 C 0.1797(2) 0.0758(4) 0.0872(6)
H18 H 0.2026 0.0914 -0.0089
C16 C 0.1315(3) 0.0101(4) 0.0808(7)
H19 H 0.1226 -0.0185 -0.0193
C17 C 0.0972(3) -0.0128(5) 0.2185(8)
H20 H 0.0644 -0.0564 0.2120
C18 C 0.1102(3) 0.0276(4) 0.3677(7)
H21 H 0.0857 0.0122 0.4615
C19 C 0.1605(2) 0.0921(4) 0.3789(6)
C20 C 0.1823(2) 0.1262(4) 0.5478(6)
H22 H 0.1444 0.1254 0.6241
C21 C 0.2130(2) 0.2209(3) 0.5446(6)
H23 H 0.1850 0.2618 0.6089
C22 C 0.2213(3) 0.2562(4) 0.3688(6)
H24 H 0.1795 0.2816 0.3318
H25 H 0.2542 0.3035 0.3694
C23 C 0.2882(3) 0.1218(4) 0.6699(5)
C24 C 0.2703(3) 0.2225(5) 0.0978(7)
H26 H 0.2351 0.2427 0.0265
H27 H 0.2951 0.1766 0.0424
H28 H 0.2991 0.2716 0.1235
C25 C 0.3195(3) 0.2811(5) 0.6719(7)
H29 H 0.3398 0.3039 0.5728
H30 H 0.3533 0.2607 0.7469
H31 H 0.2941 0.3274 0.7242
C26 C 0.2275(3) -0.0213(4) 0.6550(8)
H32 H 0.2600 -0.0382 0.7366
H33 H 0.2337 -0.0562 0.5562
H34 H 0.1838 -0.0315 0.6984
loop_
_geom_bond_atom_site_label_1
_geom_bond_atom_site_label_2
_geom_bond_site_symmetry_1
_geom_bond_site_symmetry_2
O1 C10 1_555 1_555
N1 C6 1_555 1_555
N2 C8 1_555 1_555
N3 C9 1_555 1_555
C1 H1 1_555 1_555
C2 C1 1_555 1_555
H2 C2 1_555 1_555
C3 C2 1_555 1_555
H3 C3 1_555 1_555
C4 C3 1_555 1_555
H4 C4 1_555 1_555
C5 C4 1_555 1_555
C6 C1 1_555 1_555
C7 N1 1_555 1_555
H5 C7 1_555 1_555
H6 C7 1_555 1_555
C8 C7 1_555 1_555
H7 C8 1_555 1_555
C9 C5 1_555 1_555
H8 C9 1_555 1_555
C10 N2 1_555 1_555
C11 N1 1_555 1_555
H9 C11 1_555 1_555
H10 C11 1_555 1_555
H11 C11 1_555 1_555
C12 N3 1_555 1_555
H12 C12 1_555 1_555
H13 C12 1_555 1_555
H14 C12 1_555 1_555
C13 N2 1_555 1_555
H15 C13 1_555 1_555
H16 C13 1_555 1_555
H17 C13 1_555 1_555
O2 C23 1_555 1_555
N4 C14 1_555 1_555
N5 C21 1_555 1_555
N6 C20 1_555 1_555
C14 C15 1_555 1_555
C15 H18 1_555 1_555
C16 C15 1_555 1_555
H19 C16 1_555 1_555
C17 C16 1_555 1_555
H20 C17 1_555 1_555
C18 C17 1_555 1_555
H21 C18 1_555 1_555
C19 C14 1_555 1_555
C20 C19 1_555 1_555
H22 C20 1_555 1_555
C21 C20 1_555 1_555
H23 C21 1_555 1_555
C22 N4 1_555 1_555
H24 C22 1_555 1_555
H25 C22 1_555 1_555
C23 N5 1_555 1_555
C24 N4 1_555 1_555
H26 C24 1_555 1_555
H27 C24 1_555 1_555
H28 C24 1_555 1_555
C25 N5 1_555 1_555
H29 C25 1_555 1_555
H30 C25 1_555 1_555
H31 C25 1_555 1_555
C26 N6 1_555 1_555
H32 C26 1_555 1_555
H33 C26 1_555 1_555
H34 C26 1_555 1_555
N3 C10 1_555 1_555
C5 C6 1_555 1_555
C8 C9 1_555 1_555
N6 C23 1_555 1_555
C18 C19 1_555 1_555
C21 C22 1_555 1_555

#END
