
#######################################################################
#
#                 Cambridge Crystallographic Data Centre
#                                CCDC 
#
#######################################################################
#
# If this CIF has been generated from an entry in the Cambridge 
# Structural Database, then it will include bibliographic, chemical, 
# crystal, experimental, refinement or atomic coordinate data resulting 
# from the CCDC's data processing and validation procedures.
#
#######################################################################

data_IPULUC01
_chemical_formula_moiety         'C24 H16 O4'
_chemical_name_systematic        
2-benzoyl-3-phenyl-2,3-dihydro-4H-furo[3,2-c]chromen-4-one
_symmetry_cell_setting           monoclinic
_symmetry_space_group_name_H-M   'P 21/c'
_symmetry_Int_Tables_number      14
_space_group_name_Hall           '-P 2ybc'
loop_
_symmetry_equiv_pos_site_id
_symmetry_equiv_pos_as_xyz
1 x,y,z
2 -x,1/2+y,1/2-z
3 -x,-y,-z
4 x,1/2-y,1/2+z
_cell_length_a                   16.641(6)
_cell_length_b                   19.366(7)
_cell_length_c                   18.764(7)
_cell_angle_alpha                90
_cell_angle_beta                 115.614(4)
_cell_angle_gamma                90
_cell_volume                     5452.8
_exptl_crystal_colour            colorless
_exptl_crystal_description       block
_cell_formula_units_Z            12
loop_
_atom_site_label
_atom_site_type_symbol
_atom_site_fract_x
_atom_site_fract_y
_atom_site_fract_z
C1 C 0.19161(19) 0.85626(15) 0.77478(18)
C2 C 0.24776(17) 0.79783(14) 0.78674(16)
C3 C 0.31761(17) 0.78597(14) 0.85639(16)
C4 C 0.40918(18) 0.81700(15) 0.99886(16)
H1 H 0.4470 0.7794 1.0073
C5 C 0.4226(2) 0.86197(17) 1.05958(17)
H2 H 0.4694 0.8550 1.1092
C6 C 0.3659(2) 0.91791(17) 1.04640(18)
H3 H 0.3757 0.9483 1.0877
C7 C 0.2955(2) 0.92979(15) 0.97408(18)
H4 H 0.2579 0.9675 0.9661
C8 C 0.28244(19) 0.88382(15) 0.91361(17)
C9 C 0.33906(17) 0.82770(14) 0.92476(16)
C10 C 0.24710(17) 0.74735(14) 0.72573(15)
H5 H 0.1883 0.7256 0.6995
C11 C 0.31632(17) 0.69412(14) 0.78228(15)
H6 H 0.3554 0.6773 0.7592
C12 C 0.26960(18) 0.63384(15) 0.80149(17)
C13 C 0.22439(17) 0.58153(14) 0.73971(16)
C14 C 0.1657(2) 0.53666(15) 0.74974(18)
H7 H 0.1565 0.5392 0.7952
C15 C 0.1206(2) 0.48816(16) 0.6928(2)
H8 H 0.0801 0.4589 0.6995
C16 C 0.1347(2) 0.48256(17) 0.6269(2)
H9 H 0.1044 0.4493 0.5889
C17 C 0.1940(2) 0.52604(16) 0.61638(18)
H10 H 0.2045 0.5219 0.5717
C18 C 0.23766(19) 0.57573(15) 0.67209(16)
H11 H 0.2766 0.6058 0.6642
C19 C 0.27269(18) 0.77864(15) 0.66456(16)
C20 C 0.3398(2) 0.82710(16) 0.68520(18)
H12 H 0.3695 0.8415 0.7375
C21 C 0.3633(2) 0.85447(18) 0.6286(2)
H13 H 0.4085 0.8872 0.6434
C22 C 0.3213(3) 0.83419(19) 0.5515(2)
H14 H 0.3383 0.8522 0.5141
C23 C 0.2536(3) 0.7868(2) 0.53004(19)
H15 H 0.2236 0.7731 0.4775
C24 C 0.2296(2) 0.75941(17) 0.58614(18)
H16 H 0.1836 0.7273 0.5707
O1 O 0.21144(13) 0.89706(9) 0.84168(12)
O2 O 0.12949(14) 0.87436(10) 0.71435(12)
O3 O 0.36760(11) 0.73086(9) 0.85602(10)
O4 O 0.26668(14) 0.63209(12) 0.86484(12)
C25 C 0.87088(19) 0.59963(15) 0.58386(18)
C26 C 0.91687(17) 0.66400(14) 0.60089(16)
C27 C 0.97478(17) 0.67979(14) 0.67521(16)
C28 C 1.05033(18) 0.65125(15) 0.82035(16)
H17 H 1.0811 0.6929 0.8331
C29 C 1.0611(2) 0.60454(18) 0.87891(18)
H18 H 1.0986 0.6145 0.9314
C30 C 1.0154(2) 0.54219(17) 0.85896(19)
H19 H 1.0233 0.5105 0.8987
C31 C 0.9590(2) 0.52623(15) 0.78229(19)
H20 H 0.9287 0.4843 0.7700
C32 C 0.94794(18) 0.57340(14) 0.72381(17)
C33 C 0.99316(17) 0.63630(14) 0.74161(16)
C34 C 0.91384(17) 0.72032(13) 0.54515(14)
H21 H 0.8521 0.7359 0.5158
C35 C 0.96788(17) 0.77683(14) 0.60722(14)
H22 H 1.0097 0.8003 0.5913
C36 C 0.90451(19) 0.82853(15) 0.61691(17)
C37 C 0.86321(18) 0.88302(14) 0.55546(16)
C38 C 0.8881(2) 0.89465(15) 0.49501(17)
H23 H 0.9317 0.8671 0.4908
C39 C 0.8486(2) 0.94709(17) 0.44065(18)
H24 H 0.8657 0.9546 0.4002
C40 C 0.7845(2) 0.98785(18) 0.4466(2)
H25 H 0.7585 1.0233 0.4104
C41 C 0.7584(2) 0.97664(18) 0.5056(2)
H26 H 0.7143 1.0041 0.5090
C42 C 0.7976(2) 0.92436(16) 0.56007(18)
H27 H 0.7798 0.9169 0.6001
C43 C 0.95112(18) 0.70079(14) 0.48727(15)
C44 C 0.9138(2) 0.72784(16) 0.41177(17)
H28 H 0.8659 0.7581 0.3971
C45 C 0.9464(3) 0.71079(19) 0.3577(2)
H29 H 0.9198 0.7291 0.3068
C46 C 1.0168(2) 0.6675(2) 0.3785(2)
H30 H 1.0392 0.6567 0.3422
C47 C 1.0554(2) 0.63940(19) 0.4533(2)
H31 H 1.1034 0.6093 0.4674
C48 C 1.02218(19) 0.65641(17) 0.50737(18)
H32 H 1.0483 0.6375 0.5579
O5 O 0.89034(12) 0.55556(9) 0.64718(11)
O6 O 0.81652(13) 0.57968(10) 0.51953(12)
O7 O 1.01544(12) 0.74169(9) 0.68251(10)
O8 O 0.88420(15) 0.82239(11) 0.67145(12)
C49 C 0.4561(2) 0.11370(16) 0.07353(18)
C50 C 0.41094(17) 0.17828(14) 0.06052(15)
C51 C 0.34878(17) 0.19608(14) -0.01139(16)
C52 C 0.26330(18) 0.17068(15) -0.15673(17)
H33 H 0.2313 0.2117 -0.1663
C53 C 0.2496(2) 0.12605(19) -0.21801(18)
H34 H 0.2087 0.1370 -0.2692
C54 C 0.2969(2) 0.06487(18) -0.20305(19)
H35 H 0.2868 0.0349 -0.2447
C55 C 0.3581(2) 0.04715(16) -0.12857(19)
H36 H 0.3898 0.0060 -0.1195
C56 C 0.37147(19) 0.09225(15) -0.06724(17)
C57 C 0.32528(17) 0.15421(15) -0.08017(16)
C58 C 0.41957(17) 0.23322(13) 0.12010(14)
H37 H 0.4817 0.2487 0.1462
C59 C 0.36152(17) 0.29112(14) 0.06206(14)
H38 H 0.3224 0.3130 0.0823
C60 C 0.42136(18) 0.34479(15) 0.04940(16)
C61 C 0.46224(18) 0.39991(14) 0.11006(16)
C62 C 0.44401(19) 0.40779(15) 0.17485(16)
H39 H 0.4054 0.3772 0.1827
C63 C 0.4829(2) 0.46093(17) 0.22820(18)
H40 H 0.4702 0.4662 0.2715
C64 C 0.5402(2) 0.50579(17) 0.2170(2)
H41 H 0.5661 0.5416 0.2527
C65 C 0.5592(2) 0.49818(18) 0.1540(2)
H42 H 0.5981 0.5288 0.1468
C66 C 0.5211(2) 0.44519(16) 0.10052(18)
H43 H 0.5352 0.4400 0.0579
C67 C 0.38940(17) 0.21233(13) 0.18220(15)
C68 C 0.43793(19) 0.23148(15) 0.25980(16)
H44 H 0.4893 0.2577 0.2735
C69 C 0.4121(2) 0.21271(17) 0.31753(18)
H45 H 0.4464 0.2257 0.3697
C70 C 0.3361(2) 0.17498(16) 0.29827(19)
H46 H 0.3177 0.1629 0.3369
C71 C 0.2880(2) 0.15545(17) 0.22216(19)
H47 H 0.2364 0.1295 0.2089
C72 C 0.31395(19) 0.17324(16) 0.16377(17)
H48 H 0.2804 0.1588 0.1120
O9 O 0.43310(13) 0.07233(9) 0.00717(12)
O10 O 0.51085(14) 0.09102(11) 0.13555(12)
O11 O 0.30925(11) 0.25792(9) -0.01388(10)
O12 O 0.43758(15) 0.34056(11) -0.00727(12)
loop_
_geom_bond_atom_site_label_1
_geom_bond_atom_site_label_2
_geom_bond_site_symmetry_1
_geom_bond_site_symmetry_2
C1 C2 1_555 1_555
C2 C3 1_555 1_555
C3 C9 1_555 1_555
C4 H1 1_555 1_555
C5 C4 1_555 1_555
H2 C5 1_555 1_555
C6 C5 1_555 1_555
H3 C6 1_555 1_555
C7 C6 1_555 1_555
H4 C7 1_555 1_555
C8 C7 1_555 1_555
C9 C4 1_555 1_555
C10 C2 1_555 1_555
H5 C10 1_555 1_555
C11 C10 1_555 1_555
H6 C11 1_555 1_555
C12 C11 1_555 1_555
C13 C12 1_555 1_555
C14 C13 1_555 1_555
H7 C14 1_555 1_555
C15 C14 1_555 1_555
H8 C15 1_555 1_555
C16 C15 1_555 1_555
H9 C16 1_555 1_555
C17 C16 1_555 1_555
H10 C17 1_555 1_555
C18 C13 1_555 1_555
H11 C18 1_555 1_555
C19 C10 1_555 1_555
C20 C19 1_555 1_555
H12 C20 1_555 1_555
C21 C20 1_555 1_555
H13 C21 1_555 1_555
C22 C21 1_555 1_555
H14 C22 1_555 1_555
C23 C22 1_555 1_555
H15 C23 1_555 1_555
C24 C19 1_555 1_555
H16 C24 1_555 1_555
O1 C1 1_555 1_555
O2 C1 1_555 1_555
O3 C3 1_555 1_555
O4 C12 1_555 1_555
C25 C26 1_555 1_555
C26 C27 1_555 1_555
C27 C33 1_555 1_555
C28 H17 1_555 1_555
C29 C28 1_555 1_555
H18 C29 1_555 1_555
C30 C29 1_555 1_555
H19 C30 1_555 1_555
C31 C30 1_555 1_555
H20 C31 1_555 1_555
C32 C31 1_555 1_555
C33 C28 1_555 1_555
C34 C26 1_555 1_555
H21 C34 1_555 1_555
C35 C34 1_555 1_555
H22 C35 1_555 1_555
C36 C35 1_555 1_555
C37 C36 1_555 1_555
C38 C37 1_555 1_555
H23 C38 1_555 1_555
C39 C38 1_555 1_555
H24 C39 1_555 1_555
C40 C39 1_555 1_555
H25 C40 1_555 1_555
C41 C40 1_555 1_555
H26 C41 1_555 1_555
C42 C37 1_555 1_555
H27 C42 1_555 1_555
C43 C34 1_555 1_555
C44 C43 1_555 1_555
H28 C44 1_555 1_555
C45 C44 1_555 1_555
H29 C45 1_555 1_555
C46 C45 1_555 1_555
H30 C46 1_555 1_555
C47 C46 1_555 1_555
H31 C47 1_555 1_555
C48 C43 1_555 1_555
H32 C48 1_555 1_555
O5 C25 1_555 1_555
O6 C25 1_555 1_555
O7 C27 1_555 1_555
O8 C36 1_555 1_555
C49 C50 1_555 1_555
C50 C51 1_555 1_555
C51 C57 1_555 1_555
C52 H33 1_555 1_555
C53 C52 1_555 1_555
H34 C53 1_555 1_555
C54 C53 1_555 1_555
H35 C54 1_555 1_555
C55 C54 1_555 1_555
H36 C55 1_555 1_555
C56 C55 1_555 1_555
C57 C52 1_555 1_555
C58 C50 1_555 1_555
H37 C58 1_555 1_555
C59 C58 1_555 1_555
H38 C59 1_555 1_555
C60 C59 1_555 1_555
C61 C60 1_555 1_555
C62 C61 1_555 1_555
H39 C62 1_555 1_555
C63 C62 1_555 1_555
H40 C63 1_555 1_555
C64 C63 1_555 1_555
H41 C64 1_555 1_555
C65 C64 1_555 1_555
H42 C65 1_555 1_555
C66 C61 1_555 1_555
H43 C66 1_555 1_555
C67 C58 1_555 1_555
C68 C67 1_555 1_555
H44 C68 1_555 1_555
C69 C68 1_555 1_555
H45 C69 1_555 1_555
C70 C69 1_555 1_555
H46 C70 1_555 1_555
C71 C70 1_555 1_555
H47 C71 1_555 1_555
C72 C67 1_555 1_555
H48 C72 1_555 1_555
O9 C49 1_555 1_555
O10 C49 1_555 1_555
O11 C51 1_555 1_555
O12 C60 1_555 1_555
C8 C9 1_555 1_555
C8 O1 1_555 1_555
C11 O3 1_555 1_555
C17 C18 1_555 1_555
C23 C24 1_555 1_555
C32 C33 1_555 1_555
C32 O5 1_555 1_555
C35 O7 1_555 1_555
C41 C42 1_555 1_555
C47 C48 1_555 1_555
C56 C57 1_555 1_555
C56 O9 1_555 1_555
C59 O11 1_555 1_555
C65 C66 1_555 1_555
C71 C72 1_555 1_555

#END
