
#######################################################################
#
#                 Cambridge Crystallographic Data Centre
#                                CCDC 
#
#######################################################################
#
# If this CIF has been generated from an entry in the Cambridge 
# Structural Database, then it will include bibliographic, chemical, 
# crystal, experimental, refinement or atomic coordinate data resulting 
# from the CCDC's data processing and validation procedures.
#
#######################################################################

data_IPULUC
_chemical_formula_moiety         'C24 H16 O4'
_chemical_name_systematic        
2-benzoyl-3-phenyl-2,3-dihydro-4H-furo[3,2-c]chromen-4-one
_symmetry_cell_setting           monoclinic
_symmetry_space_group_name_H-M   'P 21/c'
_symmetry_Int_Tables_number      14
_space_group_name_Hall           '-P 2ybc'
loop_
_symmetry_equiv_pos_site_id
_symmetry_equiv_pos_as_xyz
1 x,y,z
2 -x,1/2+y,1/2-z
3 -x,-y,-z
4 x,1/2-y,1/2+z
_cell_length_a                   16.693(2)
_cell_length_b                   19.397(3)
_cell_length_c                   18.801(2)
_cell_angle_alpha                90
_cell_angle_beta                 115.585(2)
_cell_angle_gamma                90
_cell_volume                     5490.73
_cell_formula_units_Z            12
loop_
_atom_site_label
_atom_site_type_symbol
_atom_site_fract_x
_atom_site_fract_y
_atom_site_fract_z
C1 C 0.94761(12) 0.57338(9) 0.22315(10)
C2 C 0.95908(14) 0.52594(10) 0.28215(12)
H1 H 0.9293 0.4839 0.2701
C3 C 1.01550(14) 0.54251(11) 0.35879(12)
H2 H 1.0233 0.5111 0.3987
C4 C 1.06104(14) 0.60445(11) 0.37832(12)
H3 H 1.0988 0.6143 0.4306
C5 C 1.05017(12) 0.65163(10) 0.31981(10)
H4 H 1.0805 0.6934 0.3325
C6 C 0.99322(11) 0.63619(9) 0.24135(10)
C7 C 0.97489(11) 0.68022(8) 0.17499(10)
C8 C 0.87025(12) 0.59958(9) 0.08325(10)
C9 C 0.91695(11) 0.66376(9) 0.10099(10)
C10 C 0.91382(11) 0.72026(9) 0.04495(9)
H5 H 0.8523 0.7359 0.0157
C11 C 0.95131(12) 0.70098(9) -0.01293(10)
C12 C 1.02223(13) 0.65637(12) 0.00728(12)
H6 H 1.0483 0.6373 0.0576
C13 C 1.05472(15) 0.63995(14) -0.04729(14)
H7 H 1.1027 0.6100 -0.0331
C14 C 1.01697(17) 0.66727(14) -0.12185(14)
H8 H 1.0393 0.6561 -0.1580
C15 C 0.94633(18) 0.71102(13) -0.14256(13)
H9 H 0.9202 0.7295 -0.1932
C16 C 0.91361(15) 0.72799(11) -0.08881(11)
H10 H 0.8656 0.7580 -0.1036
C17 C 0.96831(12) 0.77711(9) 0.10717(9)
H11 H 1.0100 0.8006 0.0913
C18 C 0.90413(13) 0.82850(9) 0.11652(10)
C19 C 0.86342(13) 0.88294(9) 0.05554(10)
C20 C 0.88837(14) 0.89457(10) -0.00506(11)
H12 H 0.9320 0.8673 -0.0092
C21 C 0.84832(16) 0.94674(12) -0.05948(12)
H13 H 0.8648 0.9539 -0.1003
C22 C 0.78451(17) 0.98786(13) -0.05339(14)
H14 H 0.7587 1.0233 -0.0894
C23 C 0.75883(16) 0.97653(12) 0.00601(15)
H15 H 0.7151 1.0040 0.0097
C24 C 0.79767(14) 0.92442(11) 0.06031(12)
H16 H 0.7798 0.9170 0.1002
O1 O 0.89004(8) 0.55559(6) 0.14690(7)
O2 O 0.81629(9) 0.57976(7) 0.01928(7)
O3 O 1.01556(8) 0.74167(6) 0.18227(7)
O4 O 0.88427(11) 0.82227(8) 0.17117(8)
C25 C 0.28223(12) 0.88398(9) 0.41346(11)
C26 C 0.29557(14) 0.92936(10) 0.47412(12)
H17 H 0.2579 0.9668 0.4662
C27 C 0.36566(15) 0.91822(11) 0.54657(12)
H18 H 0.3753 0.9487 0.5877
C28 C 0.42238(14) 0.86215(11) 0.55947(11)
H19 H 0.4691 0.8553 0.6090
C29 C 0.40936(12) 0.81671(10) 0.49886(10)
H20 H 0.4470 0.7791 0.5074
C30 C 0.33931(11) 0.82768(9) 0.42461(10)
C31 C 0.31754(11) 0.78566(9) 0.35627(10)
C32 C 0.24769(11) 0.79783(9) 0.28654(10)
C33 C 0.19142(12) 0.85623(10) 0.27512(11)
C34 C 0.34035(14) 0.82695(11) 0.18524(12)
H21 H 0.3703 0.8412 0.2374
C35 C 0.36325(17) 0.85399(13) 0.12830(14)
H22 H 0.4086 0.8865 0.1430
C36 C 0.32103(19) 0.83417(14) 0.05142(14)
H23 H 0.3377 0.8525 0.0141
C37 C 0.25364(19) 0.78690(15) 0.02980(13)
H24 H 0.2239 0.7733 -0.0226
C38 C 0.22962(15) 0.75935(12) 0.08581(11)
H25 H 0.1838 0.7273 0.0705
C39 C 0.27297(12) 0.77883(9) 0.16451(10)
C40 C 0.24720(11) 0.74703(9) 0.22567(10)
H26 H 0.1887 0.7252 0.1995
C41 C 0.31636(11) 0.69430(9) 0.28261(10)
H27 H 0.3553 0.6774 0.2596
C42 C 0.26969(12) 0.63403(10) 0.30167(10)
C43 C 0.22448(12) 0.58164(9) 0.23963(10)
C44 C 0.16583(14) 0.53636(10) 0.24994(12)
H28 H 0.1571 0.5388 0.2955
C45 C 0.12057(15) 0.48791(11) 0.19317(14)
H29 H 0.0800 0.4588 0.1998
C46 C 0.13506(15) 0.48243(11) 0.12708(14)
H30 H 0.1049 0.4493 0.0892
C47 C 0.19427(16) 0.52597(11) 0.11666(12)
H31 H 0.2047 0.5217 0.0721
C48 C 0.23822(13) 0.57601(10) 0.17215(11)
H32 H 0.2771 0.6060 0.1643
O5 O 0.21130(9) 0.89718(7) 0.34161(7)
O6 O 0.12965(10) 0.87431(7) 0.21468(9)
O7 O 0.36768(7) 0.73102(6) 0.35580(7)
O8 O 0.26649(11) 0.63224(9) 0.36467(8)
C49 C 0.37203(12) 0.09202(9) 0.43311(10)
C50 C 0.35826(14) 0.04706(11) 0.37139(12)
H33 H 0.3896 0.0058 0.3802
C51 C 0.29694(16) 0.06514(13) 0.29664(12)
H34 H 0.2874 0.0356 0.2548
C52 C 0.24919(15) 0.12618(12) 0.28217(12)
H35 H 0.2076 0.1368 0.2313
C53 C 0.26349(12) 0.17099(10) 0.34328(10)
H36 H 0.2322 0.2123 0.3337
C54 C 0.32532(11) 0.15422(9) 0.41986(10)
C55 C 0.34863(11) 0.19624(9) 0.48871(9)
C56 C 0.41092(11) 0.17844(9) 0.56047(10)
C57 C 0.45632(13) 0.11377(10) 0.57391(10)
C58 C 0.36148(11) 0.29111(9) 0.56183(9)
H37 H 0.3225 0.3129 0.5820
C59 C 0.41989(11) 0.23337(9) 0.62008(9)
H38 H 0.4818 0.2488 0.6459
C60 C 0.38965(11) 0.21238(9) 0.68224(9)
C61 C 0.31414(12) 0.17297(11) 0.66351(11)
H39 H 0.2810 0.1584 0.6118
C62 C 0.28786(15) 0.15512(12) 0.72172(13)
H40 H 0.2363 0.1294 0.7084
C63 C 0.33651(15) 0.17473(11) 0.79822(12)
H41 H 0.3184 0.1624 0.8368
C64 C 0.41210(16) 0.21269(12) 0.81757(11)
H42 H 0.4459 0.2259 0.8696
C65 C 0.43830(13) 0.23152(10) 0.75999(10)
H43 H 0.4896 0.2576 0.7738
C66 C 0.42149(12) 0.34495(9) 0.54953(10)
C67 C 0.46178(12) 0.39956(9) 0.61024(10)
C68 C 0.44342(14) 0.40791(10) 0.67479(11)
H44 H 0.4046 0.3777 0.6824
C69 C 0.48231(15) 0.46092(11) 0.72828(12)
H45 H 0.4698 0.4659 0.7716
C70 C 0.53947(15) 0.50604(12) 0.71709(14)
H46 H 0.5650 0.5419 0.7525
C71 C 0.55891(16) 0.49807(12) 0.65353(15)
H47 H 0.5981 0.5283 0.6465
C72 C 0.52055(14) 0.44551(11) 0.60030(13)
H48 H 0.5339 0.4406 0.5574
O9 O 0.43361(9) 0.07230(6) 0.50754(7)
O10 O 0.51150(10) 0.09113(7) 0.63599(8)
O11 O 0.30938(8) 0.25794(6) 0.48624(6)
O12 O 0.43712(11) 0.34043(8) 0.49249(8)
loop_
_geom_bond_atom_site_label_1
_geom_bond_atom_site_label_2
_geom_bond_site_symmetry_1
_geom_bond_site_symmetry_2
C1 C2 1_555 1_555
C2 H1 1_555 1_555
C3 C2 1_555 1_555
H2 C3 1_555 1_555
C4 C3 1_555 1_555
H3 C4 1_555 1_555
C5 C4 1_555 1_555
H4 C5 1_555 1_555
C6 C1 1_555 1_555
C7 C6 1_555 1_555
C8 C9 1_555 1_555
C9 C7 1_555 1_555
C10 C9 1_555 1_555
H5 C10 1_555 1_555
C11 C10 1_555 1_555
C12 C11 1_555 1_555
H6 C12 1_555 1_555
C13 C12 1_555 1_555
H7 C13 1_555 1_555
C14 C13 1_555 1_555
H8 C14 1_555 1_555
C15 C14 1_555 1_555
H9 C15 1_555 1_555
C16 C11 1_555 1_555
H10 C16 1_555 1_555
C17 C10 1_555 1_555
H11 C17 1_555 1_555
C18 C17 1_555 1_555
C19 C18 1_555 1_555
C20 C19 1_555 1_555
H12 C20 1_555 1_555
C21 C20 1_555 1_555
H13 C21 1_555 1_555
C22 C21 1_555 1_555
H14 C22 1_555 1_555
C23 C22 1_555 1_555
H15 C23 1_555 1_555
C24 C19 1_555 1_555
H16 C24 1_555 1_555
O1 C1 1_555 1_555
O2 C8 1_555 1_555
O3 C7 1_555 1_555
O4 C18 1_555 1_555
C25 C26 1_555 1_555
C26 H17 1_555 1_555
C27 C26 1_555 1_555
H18 C27 1_555 1_555
C28 C27 1_555 1_555
H19 C28 1_555 1_555
C29 C28 1_555 1_555
H20 C29 1_555 1_555
C30 C25 1_555 1_555
C31 C30 1_555 1_555
C32 C31 1_555 1_555
C33 C32 1_555 1_555
C34 H21 1_555 1_555
C35 C34 1_555 1_555
H22 C35 1_555 1_555
C36 C35 1_555 1_555
H23 C36 1_555 1_555
C37 C36 1_555 1_555
H24 C37 1_555 1_555
C38 C37 1_555 1_555
H25 C38 1_555 1_555
C39 C34 1_555 1_555
C40 C32 1_555 1_555
H26 C40 1_555 1_555
C41 C40 1_555 1_555
H27 C41 1_555 1_555
C42 C41 1_555 1_555
C43 C42 1_555 1_555
C44 C43 1_555 1_555
H28 C44 1_555 1_555
C45 C44 1_555 1_555
H29 C45 1_555 1_555
C46 C45 1_555 1_555
H30 C46 1_555 1_555
C47 C46 1_555 1_555
H31 C47 1_555 1_555
C48 C43 1_555 1_555
H32 C48 1_555 1_555
O5 C25 1_555 1_555
O6 C33 1_555 1_555
O7 C31 1_555 1_555
O8 C42 1_555 1_555
C49 C50 1_555 1_555
C50 H33 1_555 1_555
C51 C50 1_555 1_555
H34 C51 1_555 1_555
C52 C51 1_555 1_555
H35 C52 1_555 1_555
C53 C52 1_555 1_555
H36 C53 1_555 1_555
C54 C49 1_555 1_555
C55 C54 1_555 1_555
C56 C55 1_555 1_555
C57 C56 1_555 1_555
C58 H37 1_555 1_555
C59 C56 1_555 1_555
H38 C59 1_555 1_555
C60 C59 1_555 1_555
C61 C60 1_555 1_555
H39 C61 1_555 1_555
C62 C61 1_555 1_555
H40 C62 1_555 1_555
C63 C62 1_555 1_555
H41 C63 1_555 1_555
C64 C63 1_555 1_555
H42 C64 1_555 1_555
C65 C60 1_555 1_555
H43 C65 1_555 1_555
C66 C58 1_555 1_555
C67 C66 1_555 1_555
C68 C67 1_555 1_555
H44 C68 1_555 1_555
C69 C68 1_555 1_555
H45 C69 1_555 1_555
C70 C69 1_555 1_555
H46 C70 1_555 1_555
C71 C70 1_555 1_555
H47 C71 1_555 1_555
C72 C67 1_555 1_555
H48 C72 1_555 1_555
O9 C49 1_555 1_555
O10 C57 1_555 1_555
O11 C55 1_555 1_555
O12 C66 1_555 1_555
C5 C6 1_555 1_555
C8 O1 1_555 1_555
C15 C16 1_555 1_555
C17 O3 1_555 1_555
C23 C24 1_555 1_555
C29 C30 1_555 1_555
C33 O5 1_555 1_555
C38 C39 1_555 1_555
C39 C40 1_555 1_555
C41 O7 1_555 1_555
C47 C48 1_555 1_555
C53 C54 1_555 1_555
C57 O9 1_555 1_555
C58 C59 1_555 1_555
C58 O11 1_555 1_555
C64 C65 1_555 1_555
C71 C72 1_555 1_555

#END
