
#######################################################################
#
#                 Cambridge Crystallographic Data Centre
#                                CCDC 
#
#######################################################################
#
# If this CIF has been generated from an entry in the Cambridge 
# Structural Database, then it will include bibliographic, chemical, 
# crystal, experimental, refinement or atomic coordinate data resulting 
# from the CCDC's data processing and validation procedures.
#
#######################################################################

data_IPUMAJ
_chemical_formula_moiety         'C21 H18 O3'
_chemical_name_systematic        
2-benzoyl-3-phenyl-3,5,6,7-tetrahydro-1-benzofuran-4(2H)-one
_symmetry_cell_setting           orthorhombic
_symmetry_space_group_name_H-M   'P 21 21 21'
_symmetry_Int_Tables_number      19
_space_group_name_Hall           'P 2ac 2ab'
loop_
_symmetry_equiv_pos_site_id
_symmetry_equiv_pos_as_xyz
1 x,y,z
2 1/2-x,-y,1/2+z
3 -x,1/2+y,1/2-z
4 1/2+x,1/2-y,-z
_cell_length_a                   8.6980(11)
_cell_length_b                   9.5228(12)
_cell_length_c                   20.257(3)
_cell_angle_alpha                90
_cell_angle_beta                 90
_cell_angle_gamma                90
_cell_volume                     1677.87
_cell_formula_units_Z            4
loop_
_atom_site_label
_atom_site_type_symbol
_atom_site_fract_x
_atom_site_fract_y
_atom_site_fract_z
O1 O 1.0056(3) 0.82015(19) -0.03623(11)
C1 C 1.0356(3) 0.5992(2) 0.11983(11)
C2 C 0.9244(3) 0.6204(3) -0.09684(11)
O2 O 0.8666(2) 0.75692(18) 0.07727(9)
C3 C 0.9402(3) 0.7072(2) -0.03605(12)
C4 C 0.9047(3) 0.3892(2) 0.06734(11)
O3 O 1.2169(3) 0.4387(2) 0.16175(10)
C5 C 0.9846(3) 0.5291(2) 0.05640(10)
H1 H 1.0734 0.5160 0.0273
C6 C 0.9624(3) 0.7215(2) 0.12744(12)
C7 C 1.1465(3) 0.5486(3) 0.16766(12)
C8 C 0.8344(3) 0.4988(3) -0.09894(13)
H2 H 0.7808 0.4699 -0.0616
C9 C 0.8775(3) 0.6466(2) 0.02777(11)
H3 H 0.7750 0.6074 0.0197
C10 C 0.9721(4) 0.2652(3) 0.04721(14)
H4 H 1.0671 0.2673 0.0261
C11 C 1.0041(3) 0.6612(3) -0.15296(12)
H5 H 1.0643 0.7419 -0.1518
C12 C 0.9058(5) 0.4654(4) -0.21207(15)
H6 H 0.8993 0.4139 -0.2510
C13 C 0.9956(4) 0.5847(4) -0.21001(14)
H7 H 1.0501 0.6130 -0.2472
C14 C 1.1726(4) 0.6445(3) 0.22613(13)
H8 H 1.1959 0.5871 0.2644
H9 H 1.2621 0.7022 0.2172
C15 C 0.7630(3) 0.3833(3) 0.09912(13)
H10 H 0.7159 0.4659 0.1130
C16 C 0.7609(5) 0.1330(4) 0.08944(16)
H11 H 0.7128 0.0472 0.0968
C17 C 0.9722(4) 0.8173(3) 0.18527(13)
H12 H 0.8704 0.8506 0.1970
H13 H 1.0355 0.8979 0.1745
C18 C 1.0419(4) 0.7381(4) 0.24279(15)
H14 H 1.0766 0.8058 0.2753
H15 H 0.9619 0.6820 0.2632
C19 C 0.8253(4) 0.4214(3) -0.15692(15)
H16 H 0.7654 0.3406 -0.1587
C20 C 0.8999(5) 0.1375(3) 0.05811(17)
H17 H 0.9462 0.0546 0.0441
C21 C 0.6918(5) 0.2556(4) 0.11022(15)
H18 H 0.5973 0.2525 0.1317
loop_
_geom_bond_atom_site_label_1
_geom_bond_atom_site_label_2
_geom_bond_site_symmetry_1
_geom_bond_site_symmetry_2
O1 C3 1_555 1_555
C1 C5 1_555 1_555
C2 C3 1_555 1_555
O2 C6 1_555 1_555
C3 C9 1_555 1_555
C4 C5 1_555 1_555
O3 C7 1_555 1_555
C5 H1 1_555 1_555
C6 C1 1_555 1_555
C7 C1 1_555 1_555
C8 C2 1_555 1_555
H2 C8 1_555 1_555
C9 O2 1_555 1_555
H3 C9 1_555 1_555
C10 C4 1_555 1_555
H4 C10 1_555 1_555
C11 C2 1_555 1_555
H5 C11 1_555 1_555
C12 H6 1_555 1_555
C13 C11 1_555 1_555
H7 C13 1_555 1_555
C14 C7 1_555 1_555
H8 C14 1_555 1_555
H9 C14 1_555 1_555
C15 C4 1_555 1_555
H10 C15 1_555 1_555
C16 H11 1_555 1_555
C17 C6 1_555 1_555
H12 C17 1_555 1_555
H13 C17 1_555 1_555
C18 C14 1_555 1_555
H14 C18 1_555 1_555
H15 C18 1_555 1_555
C19 C8 1_555 1_555
H16 C19 1_555 1_555
C20 C10 1_555 1_555
H17 C20 1_555 1_555
C21 C15 1_555 1_555
H18 C21 1_555 1_555
C5 C9 1_555 1_555
C12 C13 1_555 1_555
C12 C19 1_555 1_555
C16 C20 1_555 1_555
C16 C21 1_555 1_555
C17 C18 1_555 1_555

#END
