
#######################################################################
#
#                 Cambridge Crystallographic Data Centre
#                                CCDC 
#
#######################################################################
#
# If this CIF has been generated from an entry in the Cambridge 
# Structural Database, then it will include bibliographic, chemical, 
# crystal, experimental, refinement or atomic coordinate data resulting 
# from the CCDC's data processing and validation procedures.
#
#######################################################################

data_IPURUI
_chemical_formula_moiety         'C19 H30 O5 Si1,C1 H2 Cl2'
_chemical_name_systematic        
"10a,10b-dihydroxy-3-(trimethylsilyl)-5,6,6a,7,9,10,10a,10b-octahydro-1H-spiro[benzo[e]azulene-8,2'-[1,3]dioxolan]-2(4H)-one dichloromethane solvate"
_symmetry_cell_setting           monoclinic
_symmetry_space_group_name_H-M   'P 21/c'
_symmetry_Int_Tables_number      14
_space_group_name_Hall           '-P 2ybc'
loop_
_symmetry_equiv_pos_site_id
_symmetry_equiv_pos_as_xyz
1 x,y,z
2 -x,1/2+y,1/2-z
3 -x,-y,-z
4 x,1/2-y,1/2+z
_cell_length_a                   14.1725(11)
_cell_length_b                   13.6320(11)
_cell_length_c                   12.9642(10)
_cell_angle_alpha                90
_cell_angle_beta                 114.160(2)
_cell_angle_gamma                90
_cell_volume                     2285.28
_exptl_crystal_colour            colorless
_exptl_crystal_description       prism
_cell_formula_units_Z            4
loop_
_atom_site_label
_atom_site_type_symbol
_atom_site_fract_x
_atom_site_fract_y
_atom_site_fract_z
Si1 Si 0.10248(6) 0.49421(6) 0.86052(8)
O1 O 0.29045(18) 0.11190(17) 0.8010(2)
C1 C 0.2904(3) 0.0178(3) 0.8425(4)
H1 H 0.2286 -0.0177 0.7945
H2 H 0.2935 0.0202 0.9186
O2 O 0.45080(18) 0.04729(17) 0.8446(2)
C2 C 0.3836(3) -0.0293(3) 0.8416(5)
H3 H 0.4154 -0.0716 0.9070
H4 H 0.3662 -0.0684 0.7738
O3 O 0.49473(15) 0.36026(16) 0.78914(17)
H5 H 0.5308 0.3829 0.8515
C3 C 0.3929(2) 0.1375(2) 0.8171(3)
O4 O 0.34977(16) 0.49379(16) 0.65020(17)
H6 H 0.4102 0.5064 0.6634
C4 C 0.4399(3) 0.2089(2) 0.9141(3)
H7 H 0.5130 0.2169 0.9318
H8 H 0.4335 0.1828 0.9806
C5 C 0.3860(2) 0.3088(2) 0.8841(2)
H9 H 0.3144 0.3014 0.8729
H10 H 0.4190 0.3537 0.9467
O5 O 0.34951(16) 0.56337(19) 1.00581(19)
C6 C 0.3900(2) 0.3522(2) 0.7776(2)
C7 C 0.3432(2) 0.4586(2) 0.7505(2)
C8 C 0.3974(2) 0.5269(2) 0.8517(2)
H11 H 0.4640 0.5004 0.9018
H12 H 0.4076 0.5915 0.8267
C9 C 0.3251(2) 0.5318(2) 0.9105(2)
C10 C 0.2222(2) 0.4960(2) 0.8310(2)
C11 C 0.2321(2) 0.4646(2) 0.7370(2)
C12 C 0.1442(2) 0.4409(3) 0.6262(3)
H13 H 0.1278 0.4996 0.5797
H14 H 0.0841 0.4252 0.6409
C13 C 0.1616(3) 0.3577(3) 0.5586(3)
H15 H 0.1995 0.3827 0.5165
H16 H 0.0950 0.3347 0.5043
C14 C 0.2208(3) 0.2711(2) 0.6301(3)
H17 H 0.2004 0.2120 0.5846
H18 H 0.2012 0.2633 0.6931
C15 C 0.3387(2) 0.2812(2) 0.6767(2)
H19 H 0.3545 0.3064 0.6147
C16 C 0.3928(3) 0.1798(2) 0.7098(3)
H20 H 0.3584 0.1340 0.6485
H21 H 0.4638 0.1864 0.7183
C17 C 0.1390(3) 0.5209(3) 1.0132(3)
H22 H 0.0781 0.5200 1.0284
H23 H 0.1708 0.5844 1.0313
H24 H 0.1867 0.4720 1.0585
C18 C 0.0467(3) 0.3682(3) 0.8312(4)
H25 H -0.0146 0.3658 0.8456
H26 H 0.0964 0.3221 0.8793
H27 H 0.0293 0.3518 0.7535
C19 C 0.0084(3) 0.5866(3) 0.7716(4)
H28 H -0.0523 0.5851 0.7872
H29 H -0.0104 0.5719 0.6933
H30 H 0.0391 0.6507 0.7884
Cl1 Cl 0.8250(3) 0.30633(18) 0.5470(2)
Cl2 Cl 0.7824(2) 0.26396(13) 0.3160(2)
C20 C 0.7350(4) 0.2810(4) 0.4185(4)
H31 H 0.6853 0.3343 0.3949
H32 H 0.6985 0.2221 0.4230
loop_
_geom_bond_atom_site_label_1
_geom_bond_atom_site_label_2
_geom_bond_site_symmetry_1
_geom_bond_site_symmetry_2
Si1 C10 1_555 1_555
O1 C1 1_555 1_555
C1 H1 1_555 1_555
H2 C1 1_555 1_555
O2 C2 1_555 1_555
C2 C1 1_555 1_555
H3 C2 1_555 1_555
H4 C2 1_555 1_555
O3 H5 1_555 1_555
C3 O1 1_555 1_555
O4 H6 1_555 1_555
C4 C3 1_555 1_555
H7 C4 1_555 1_555
H8 C4 1_555 1_555
C5 C4 1_555 1_555
H9 C5 1_555 1_555
H10 C5 1_555 1_555
O5 C9 1_555 1_555
C6 O3 1_555 1_555
C7 O4 1_555 1_555
C8 C7 1_555 1_555
H11 C8 1_555 1_555
H12 C8 1_555 1_555
C9 C8 1_555 1_555
C10 C9 1_555 1_555
C11 C7 1_555 1_555
C12 C11 1_555 1_555
H13 C12 1_555 1_555
H14 C12 1_555 1_555
C13 C12 1_555 1_555
H15 C13 1_555 1_555
H16 C13 1_555 1_555
C14 C13 1_555 1_555
H17 C14 1_555 1_555
H18 C14 1_555 1_555
C15 C6 1_555 1_555
H19 C15 1_555 1_555
C16 C3 1_555 1_555
H20 C16 1_555 1_555
H21 C16 1_555 1_555
C17 Si1 1_555 1_555
H22 C17 1_555 1_555
H23 C17 1_555 1_555
H24 C17 1_555 1_555
C18 Si1 1_555 1_555
H25 C18 1_555 1_555
H26 C18 1_555 1_555
H27 C18 1_555 1_555
C19 Si1 1_555 1_555
H28 C19 1_555 1_555
H29 C19 1_555 1_555
H30 C19 1_555 1_555
Cl1 C20 1_555 1_555
Cl2 C20 1_555 1_555
C20 H31 1_555 1_555
H32 C20 1_555 1_555
O2 C3 1_555 1_555
C5 C6 1_555 1_555
C6 C7 1_555 1_555
C10 C11 1_555 1_555
C14 C15 1_555 1_555
C15 C16 1_555 1_555

#END
