
#######################################################################
#
#                 Cambridge Crystallographic Data Centre
#                                CCDC 
#
#######################################################################
#
# If this CIF has been generated from an entry in the Cambridge 
# Structural Database, then it will include bibliographic, chemical, 
# crystal, experimental, refinement or atomic coordinate data resulting 
# from the CCDC's data processing and validation procedures.
#
#######################################################################

data_IPURAO
_chemical_compound_source        
'Schisandra grandiflora (Wall.) Hook. f. & Thoms.'
_chemical_name_common            'Schigrandilactone C'
_chemical_formula_moiety         'C29 H36 O11'
_chemical_name_systematic        
11-hydroxy-9-(hydroxymethyl)-9,18,23,25-tetramethyl-4,8,16,20,28-pentaoxaoctacyclo[13.12.1.1^15,22^.0^1,13^.0^3,7^.0^3,10^.0^17,21^.0^25,29^]nonacosane-5,14,19,24-tetrone
_chemical_properties_biological  'anti-HIV-1 inhibition'
_symmetry_cell_setting           orthorhombic
_symmetry_space_group_name_H-M   'P 21 21 21'
_symmetry_Int_Tables_number      19
_space_group_name_Hall           'P 2ac 2ab'
loop_
_symmetry_equiv_pos_site_id
_symmetry_equiv_pos_as_xyz
1 x,y,z
2 1/2-x,-y,1/2+z
3 1/2+x,1/2-y,-z
4 -x,1/2+y,1/2-z
_cell_length_a                   10.825(1)
_cell_length_b                   11.335(1)
_cell_length_c                   22.723(2)
_cell_angle_alpha                90
_cell_angle_beta                 90
_cell_angle_gamma                90
_cell_volume                     2788.14
_exptl_crystal_colour            colorless
_chemical_melting_point          '175-176 deg.C'
_cell_formula_units_Z            4
loop_
_atom_site_label
_atom_site_type_symbol
_atom_site_fract_x
_atom_site_fract_y
_atom_site_fract_z
O1 O 0.86949(14) 0.94309(15) 0.88434(7)
O2 O 0.98040(17) 1.11355(15) 0.86559(8)
O3 O 0.64566(16) 1.06467(16) 0.86633(7)
O4 O 0.37532(16) 0.96232(19) 0.82630(8)
O5 O 1.17622(19) 1.1923(2) 0.94088(10)
O6 O 0.61793(19) 0.9873(2) 0.67471(8)
H1 H 0.6638 0.9622 0.6489
O7 O 1.06502(19) 0.9922(3) 0.76416(9)
O8 O 0.3315(2) 1.1333(2) 0.74919(12)
H2 H 0.3098 1.1295 0.7837
O9 O 0.9823(2) 0.7059(2) 0.98997(10)
O10 O 1.1975(3) 1.3666(3) 0.89647(15)
O11 O 0.6025(3) 1.1919(3) 0.93697(14)
C1 C 0.4673(2) 0.9389(2) 0.86971(11)
H3 H 0.4598 0.8581 0.8846
C2 C 0.4633(3) 1.0265(3) 0.91935(13)
H4 H 0.4683 0.9867 0.9571
H5 H 0.3875 1.0722 0.9180
C3 C 0.5739(3) 1.1048(3) 0.91002(14)
C4 C 0.4268(2) 0.9415(2) 0.76838(11)
C5 C 0.5615(2) 0.9844(2) 0.77522(10)
H6 H 0.5590 1.0706 0.7717
C6 C 0.6569(2) 0.9420(3) 0.73085(10)
H7 H 0.6581 0.8556 0.7298
C7 C 0.7853(2) 0.9888(3) 0.74660(11)
H8 H 0.7762 1.0600 0.7698
H9 H 0.8284 1.0096 0.7106
C8 C 0.8645(2) 0.8996(2) 0.78135(10)
H10 H 0.8822 0.8308 0.7566
C9 C 0.8183(2) 0.8583(2) 0.84227(10)
C10 C 0.5946(2) 0.9580(2) 0.83980(10)
C11 C 0.8725(2) 0.7369(2) 0.85745(13)
H11 H 0.8435 0.6807 0.8284
H12 H 0.8395 0.7127 0.8952
C12 C 1.0141(2) 0.7289(2) 0.86035(13)
H13 H 1.0464 0.7517 0.8222
H14 H 1.0359 0.6468 0.8664
C13 C 1.0817(2) 0.8027(2) 0.90751(11)
C14 C 1.0934(2) 0.9372(2) 0.89603(10)
H15 H 1.1691 0.9530 0.8737
C15 C 0.9825(2) 0.9885(2) 0.86322(10)
C16 C 0.9836(2) 0.9614(3) 0.79686(11)
C17 C 1.0215(2) 0.7958(3) 0.96789(12)
C18 C 1.2125(3) 0.7487(3) 0.91515(15)
H16 H 1.2572 0.7924 0.9444
H17 H 1.2560 0.7523 0.8784
H18 H 1.2052 0.6679 0.9274
C19 C 0.6794(2) 0.8536(2) 0.85359(11)
H19 H 0.6686 0.8356 0.8950
H20 H 0.6477 0.7866 0.8318
C20 C 1.0204(3) 0.9152(2) 0.99744(11)
H21 H 0.9365 0.9470 0.9941
C21 C 1.0539(4) 0.9128(3) 1.06247(13)
H22 H 0.9963 0.8638 1.0833
H23 H 1.0508 0.9915 1.0781
H24 H 1.1358 0.8817 1.0671
C22 C 1.1047(2) 0.9909(2) 0.95844(11)
H25 H 1.1901 0.9806 0.9719
C23 C 1.0725(3) 1.1204(2) 0.96234(12)
H26 H 1.0550 1.1409 1.0034
C24 C 0.9662(3) 1.1600(2) 0.92398(11)
H27 H 0.8853 1.1424 0.9412
C25 C 0.9916(3) 1.2918(3) 0.91914(14)
H28 H 0.9675 1.3281 0.9566
C26 C 1.1302(3) 1.2919(3) 0.91641(15)
C27 C 0.9259(5) 1.3586(3) 0.87023(18)
H29 H 0.9489 1.4404 0.8718
H30 H 0.8382 1.3515 0.8752
H31 H 0.9493 1.3262 0.8328
C28 C 0.3505(3) 1.0189(3) 0.72721(13)
H32 H 0.3922 1.0242 0.6895
H33 H 0.2709 0.9817 0.7207
C29 C 0.4129(3) 0.8124(3) 0.75154(16)
H34 H 0.3268 0.7930 0.7486
H35 H 0.4508 0.7638 0.7811
H36 H 0.4524 0.7987 0.7143
loop_
_geom_bond_atom_site_label_1
_geom_bond_atom_site_label_2
_geom_bond_site_symmetry_1
_geom_bond_site_symmetry_2
O1 C9 1_555 1_555
O2 C15 1_555 1_555
O3 C3 1_555 1_555
O4 C1 1_555 1_555
O5 C23 1_555 1_555
O6 H1 1_555 1_555
O7 C16 1_555 1_555
O8 H2 1_555 1_555
O9 C17 1_555 1_555
O10 C26 1_555 1_555
O11 C3 1_555 1_555
C1 H3 1_555 1_555
C2 C1 1_555 1_555
H4 C2 1_555 1_555
H5 C2 1_555 1_555
C3 C2 1_555 1_555
C4 O4 1_555 1_555
C5 C4 1_555 1_555
H6 C5 1_555 1_555
C6 O6 1_555 1_555
H7 C6 1_555 1_555
C7 C6 1_555 1_555
H8 C7 1_555 1_555
H9 C7 1_555 1_555
C8 C7 1_555 1_555
H10 C8 1_555 1_555
C9 C8 1_555 1_555
C10 O3 1_555 1_555
C11 C9 1_555 1_555
H11 C11 1_555 1_555
H12 C11 1_555 1_555
C12 C11 1_555 1_555
H13 C12 1_555 1_555
H14 C12 1_555 1_555
C13 C12 1_555 1_555
C14 C13 1_555 1_555
H15 C14 1_555 1_555
C15 O1 1_555 1_555
C16 C8 1_555 1_555
C17 C13 1_555 1_555
C18 C13 1_555 1_555
H16 C18 1_555 1_555
H17 C18 1_555 1_555
H18 C18 1_555 1_555
C19 C9 1_555 1_555
H19 C19 1_555 1_555
H20 C19 1_555 1_555
C20 C17 1_555 1_555
H21 C20 1_555 1_555
C21 C20 1_555 1_555
H22 C21 1_555 1_555
H23 C21 1_555 1_555
H24 C21 1_555 1_555
C22 C14 1_555 1_555
H25 C22 1_555 1_555
C23 C22 1_555 1_555
H26 C23 1_555 1_555
C24 O2 1_555 1_555
H27 C24 1_555 1_555
C25 C24 1_555 1_555
H28 C25 1_555 1_555
C26 O5 1_555 1_555
C27 C25 1_555 1_555
H29 C27 1_555 1_555
H30 C27 1_555 1_555
H31 C27 1_555 1_555
C28 O8 1_555 1_555
H32 C28 1_555 1_555
H33 C28 1_555 1_555
C29 C4 1_555 1_555
H34 C29 1_555 1_555
H35 C29 1_555 1_555
H36 C29 1_555 1_555
C1 C10 1_555 1_555
C4 C28 1_555 1_555
C5 C6 1_555 1_555
C5 C10 1_555 1_555
C10 C19 1_555 1_555
C14 C15 1_555 1_555
C15 C16 1_555 1_555
C20 C22 1_555 1_555
C23 C24 1_555 1_555
C25 C26 1_555 1_555

#END
