
#######################################################################
#
#                 Cambridge Crystallographic Data Centre
#                                CCDC 
#
#######################################################################
#
# If this CIF has been generated from an entry in the Cambridge 
# Structural Database, then it will include bibliographic, chemical, 
# crystal, experimental, refinement or atomic coordinate data resulting 
# from the CCDC's data processing and validation procedures.
#
#######################################################################

data_IPUSIX
_chemical_formula_moiety         'C14 H14 I1 N1 O5'
_chemical_name_systematic        
3-(2,2-dimethyl-5-oxo-1,3-dioxan-4-yl)-3-hydroxy-7-iodo-1,3-dihydro-2H-indol-2-one
_symmetry_cell_setting           monoclinic
_symmetry_space_group_name_H-M   'P 21/c'
_symmetry_Int_Tables_number      14
_space_group_name_Hall           '-P 2ybc'
loop_
_symmetry_equiv_pos_site_id
_symmetry_equiv_pos_as_xyz
1 x,y,z
2 -x,1/2+y,1/2-z
3 -x,-y,-z
4 x,1/2-y,1/2+z
_cell_length_a                   14.026(3)
_cell_length_b                   13.368(3)
_cell_length_c                   8.2002(16)
_cell_angle_alpha                90
_cell_angle_beta                 103.569(3)
_cell_angle_gamma                90
_cell_volume                     1494.62
_exptl_crystal_colour            colorless
_exptl_crystal_description       irregular
_cell_formula_units_Z            4
loop_
_atom_site_label
_atom_site_type_symbol
_atom_site_fract_x
_atom_site_fract_y
_atom_site_fract_z
I1 I 0.07268(3) 0.25696(3) 0.56562(6)
N1 N 0.2827(4) 0.3656(4) 0.5110(6)
H1 H 0.2869 0.3122 0.5751
O1 O 0.4470(3) 0.3912(3) 0.5342(6)
O2 O 0.3551(4) 0.5945(3) 0.4583(7)
H2 H 0.4164 0.5993 0.4752
O3 O 0.3116(3) 0.5836(3) 0.1036(6)
O4 O 0.3615(5) 0.5018(5) -0.1165(8)
O5 O 0.3265(3) 0.3265(3) 0.1713(6)
C1 C 0.1001(5) 0.3810(5) 0.4293(7)
C2 C 0.0226(4) 0.4383(5) 0.3368(7)
H3 H -0.0432 0.4198 0.3342
C3 C 0.0408(5) 0.5209(5) 0.2498(9)
H4 H -0.0129 0.5589 0.1882
C4 C 0.1364(4) 0.5510(5) 0.2491(8)
H5 H 0.1482 0.6077 0.1870
C5 C 0.2129(5) 0.4946(4) 0.3425(7)
C6 C 0.1945(4) 0.4104(4) 0.4313(7)
C7 C 0.3236(5) 0.5062(5) 0.3676(8)
C8 C 0.3606(5) 0.4132(4) 0.4788(7)
C9 C 0.3576(4) 0.5032(4) 0.2026(8)
H6 H 0.4305 0.5112 0.2264
C10 C 0.3432(7) 0.5981(6) -0.0478(11)
C11 C 0.2989(8) 0.4244(7) -0.0794(10)
H7 H 0.3073 0.3623 -0.1403
H8 H 0.2293 0.4452 -0.1141
C12 C 0.3274(5) 0.4068(5) 0.1059(8)
C13 C 0.4367(6) 0.6518(7) -0.0222(13)
H9 H 0.4544 0.6602 -0.1302
H10 H 0.4880 0.6135 0.0542
H11 H 0.4303 0.7177 0.0265
C14 C 0.2597(7) 0.6547(8) -0.1630(10)
H12 H 0.1992 0.6154 -0.1791
H13 H 0.2756 0.6658 -0.2717
H14 H 0.2505 0.7193 -0.1123
loop_
_geom_bond_atom_site_label_1
_geom_bond_atom_site_label_2
_geom_bond_site_symmetry_1
_geom_bond_site_symmetry_2
I1 C1 1_555 1_555
N1 H1 1_555 1_555
O1 C8 1_555 1_555
O2 H2 1_555 1_555
O3 C9 1_555 1_555
O4 C10 1_555 1_555
O5 C12 1_555 1_555
C1 C2 1_555 1_555
C2 H3 1_555 1_555
C3 C2 1_555 1_555
H4 C3 1_555 1_555
C4 C3 1_555 1_555
H5 C4 1_555 1_555
C5 C4 1_555 1_555
C6 N1 1_555 1_555
C7 O2 1_555 1_555
C8 N1 1_555 1_555
C9 C7 1_555 1_555
H6 C9 1_555 1_555
C10 O3 1_555 1_555
C11 O4 1_555 1_555
H7 C11 1_555 1_555
H8 C11 1_555 1_555
C12 C9 1_555 1_555
C13 C10 1_555 1_555
H9 C13 1_555 1_555
H10 C13 1_555 1_555
H11 C13 1_555 1_555
C14 C10 1_555 1_555
H12 C14 1_555 1_555
H13 C14 1_555 1_555
H14 C14 1_555 1_555
C1 C6 1_555 1_555
C5 C6 1_555 1_555
C5 C7 1_555 1_555
C7 C8 1_555 1_555
C11 C12 1_555 1_555

#END
