
#######################################################################
#
#                 Cambridge Crystallographic Data Centre
#                                CCDC 
#
#######################################################################
#
# If this CIF has been generated from an entry in the Cambridge 
# Structural Database, then it will include bibliographic, chemical, 
# crystal, experimental, refinement or atomic coordinate data resulting 
# from the CCDC's data processing and validation procedures.
#
#######################################################################

data_IPUTIY
_chemical_formula_moiety         'C36 H26 N2'
_chemical_name_systematic        
7-(bis(4-methylphenyl)methylene)-3,9-dimethyl-7H-benzo[c]fluorene-5,6-dicarbonitrile
_symmetry_cell_setting           monoclinic
_symmetry_space_group_name_H-M   'P 21/c'
_symmetry_Int_Tables_number      14
_space_group_name_Hall           '-P 2ybc'
loop_
_symmetry_equiv_pos_site_id
_symmetry_equiv_pos_as_xyz
1 x,y,z
2 -x,1/2+y,1/2-z
3 -x,-y,-z
4 x,1/2-y,1/2+z
_cell_length_a                   9.6570(15)
_cell_length_b                   11.389(2)
_cell_length_c                   24.806(5)
_cell_angle_alpha                90
_cell_angle_beta                 109.635(8)
_cell_angle_gamma                90
_cell_volume                     2569.61
_exptl_crystal_colour            orange
_exptl_crystal_description       needle
_cell_formula_units_Z            4
_exptl_crystal_recrystallization_method dichloromethane/hexanes
loop_
_atom_site_label
_atom_site_type_symbol
_atom_site_fract_x
_atom_site_fract_y
_atom_site_fract_z
N1 N 0.97191(14) 0.08431(13) 0.56483(6)
N2 N 1.03022(14) 0.34962(13) 0.48038(6)
C1 C 0.43644(18) -0.00518(14) 0.60115(7)
H1 H 0.5038 -0.0686 0.6036
H2 H 0.3375 -0.0344 0.5873
H3 H 0.4559 0.0287 0.6384
C2 C 0.45551(16) 0.08674(13) 0.56075(7)
C3 C 0.58690(16) 0.10160(13) 0.55183(6)
H4 H 0.6647 0.0515 0.5699
C4 C 0.60719(15) 0.19099(13) 0.51592(6)
C5 C 0.74613(15) 0.20946(13) 0.50872(6)
C6 C 0.76446(15) 0.29528(13) 0.47211(6)
C7 C 0.64300(15) 0.36344(12) 0.43977(6)
C8 C 0.63475(15) 0.45605(12) 0.39772(6)
C9 C 0.71404(15) 0.46296(12) 0.36150(6)
C10 C 0.79981(15) 0.36436(12) 0.35015(6)
C11 C 0.93303(16) 0.38432(13) 0.34109(6)
H5 H 0.9659 0.4609 0.3406
C12 C 1.01664(16) 0.29245(14) 0.33280(7)
H6 H 1.1061 0.3081 0.3279
C13 C 0.96950(17) 0.17682(14) 0.33172(7)
C14 C 1.0605(2) 0.07684(15) 0.32172(9)
H7 H 1.0511 0.0742 0.2820
H8 H 1.0265 0.0042 0.3324
H9 H 1.1618 0.0886 0.3444
C15 C 0.33708(16) 0.16036(13) 0.53131(7)
H10 H 0.2462 0.1489 0.5358
C16 C 0.35283(16) 0.24810(13) 0.49636(7)
H11 H 0.2727 0.2956 0.4777
C17 C 0.48867(15) 0.26821(13) 0.48791(6)
C18 C 0.51228(15) 0.35833(13) 0.45209(6)
C19 C 0.42149(15) 0.45828(12) 0.42345(6)
C20 C 0.49809(15) 0.52127(12) 0.39302(6)
C21 C 0.43290(16) 0.61822(13) 0.36015(6)
H12 H 0.4827 0.6586 0.3397
C22 C 0.29346(16) 0.65501(13) 0.35774(7)
C23 C 0.22141(17) 0.75780(14) 0.32099(7)
H13 H 0.2796 0.8270 0.3343
H14 H 0.1250 0.7695 0.3232
H15 H 0.2136 0.7425 0.2820
C24 C 0.22211(15) 0.59480(13) 0.38967(7)
H16 H 0.1303 0.6209 0.3890
C25 C 0.28347(15) 0.49749(13) 0.42226(6)
H17 H 0.2335 0.4586 0.4431
C26 C 0.87106(16) 0.13963(13) 0.54033(7)
C27 C 0.91165(16) 0.32324(13) 0.47415(6)
C28 C 0.71339(15) 0.57182(13) 0.32885(6)
C29 C 0.66533(16) 0.57214(14) 0.26943(7)
H18 H 0.6368 0.5022 0.2494
C30 C 0.65970(17) 0.67606(14) 0.23989(7)
H19 H 0.6240 0.6753 0.2001
C31 C 0.70612(16) 0.78133(13) 0.26829(7)
C32 C 0.6983(2) 0.89365(15) 0.23573(8)
H20 H 0.6629 0.8775 0.1954
H21 H 0.7945 0.9281 0.2462
H22 H 0.6326 0.9472 0.2448
C33 C 0.76029(16) 0.77953(13) 0.32789(7)
H23 H 0.7953 0.8485 0.3479
C34 C 0.76279(16) 0.67664(13) 0.35779(7)
H24 H 0.7978 0.6775 0.3976
C35 C 0.75006(16) 0.24846(13) 0.34709(6)
H25 H 0.6594 0.2328 0.3510
C36 C 0.83396(17) 0.15707(14) 0.33834(7)
H26 H 0.7991 0.0806 0.3368
loop_
_geom_bond_atom_site_label_1
_geom_bond_atom_site_label_2
_geom_bond_site_symmetry_1
_geom_bond_site_symmetry_2
N1 C26 1_555 1_555
N2 C27 1_555 1_555
C1 H1 1_555 1_555
H2 C1 1_555 1_555
H3 C1 1_555 1_555
C2 C1 1_555 1_555
C3 C2 1_555 1_555
H4 C3 1_555 1_555
C4 C3 1_555 1_555
C5 C4 1_555 1_555
C6 C5 1_555 1_555
C7 C6 1_555 1_555
C8 C7 1_555 1_555
C9 C8 1_555 1_555
C10 C9 1_555 1_555
C11 C10 1_555 1_555
H5 C11 1_555 1_555
C12 C11 1_555 1_555
H6 C12 1_555 1_555
C13 C12 1_555 1_555
C14 C13 1_555 1_555
H7 C14 1_555 1_555
H8 C14 1_555 1_555
H9 C14 1_555 1_555
C15 C2 1_555 1_555
H10 C15 1_555 1_555
C16 C15 1_555 1_555
H11 C16 1_555 1_555
C17 C4 1_555 1_555
C18 C7 1_555 1_555
C19 C18 1_555 1_555
C20 C8 1_555 1_555
C21 C20 1_555 1_555
H12 C21 1_555 1_555
C22 C21 1_555 1_555
C23 C22 1_555 1_555
H13 C23 1_555 1_555
H14 C23 1_555 1_555
H15 C23 1_555 1_555
C24 C22 1_555 1_555
H16 C24 1_555 1_555
C25 C19 1_555 1_555
H17 C25 1_555 1_555
C26 C5 1_555 1_555
C27 C6 1_555 1_555
C28 C9 1_555 1_555
C29 C28 1_555 1_555
H18 C29 1_555 1_555
C30 C29 1_555 1_555
H19 C30 1_555 1_555
C31 C30 1_555 1_555
C32 C31 1_555 1_555
H20 C32 1_555 1_555
H21 C32 1_555 1_555
H22 C32 1_555 1_555
C33 C31 1_555 1_555
H23 C33 1_555 1_555
C34 C28 1_555 1_555
H24 C34 1_555 1_555
C35 C10 1_555 1_555
H25 C35 1_555 1_555
C36 C13 1_555 1_555
H26 C36 1_555 1_555
C16 C17 1_555 1_555
C17 C18 1_555 1_555
C19 C20 1_555 1_555
C24 C25 1_555 1_555
C33 C34 1_555 1_555
C35 C36 1_555 1_555

#END
