
#######################################################################
#
#                 Cambridge Crystallographic Data Centre
#                                CCDC 
#
#######################################################################
#
# If this CIF has been generated from an entry in the Cambridge 
# Structural Database, then it will include bibliographic, chemical, 
# crystal, experimental, refinement or atomic coordinate data resulting 
# from the CCDC's data processing and validation procedures.
#
#######################################################################

data_IPUTEU
_chemical_formula_moiety         'C40 H26 Cl2 N2 O2,C1 H2 Cl2'
_chemical_name_systematic        
'13-(bis(4-methylphenyl)methylene)-2,3-dichloro-6,11-dimethyl-1,4-dioxo-1H-indeno[1,2-l]phenanthrene-4a,13b(4H,13H)-dicarbonitrile dichloromethane solvate'
_symmetry_cell_setting           monoclinic
_symmetry_space_group_name_H-M   'P 21/c'
_symmetry_Int_Tables_number      14
_space_group_name_Hall           '-P 2ybc'
loop_
_symmetry_equiv_pos_site_id
_symmetry_equiv_pos_as_xyz
1 x,y,z
2 -x,1/2+y,1/2-z
3 -x,-y,-z
4 x,1/2-y,1/2+z
_cell_length_a                   10.5404(5)
_cell_length_b                   22.6486(10)
_cell_length_c                   15.7737(6)
_cell_angle_alpha                90
_cell_angle_beta                 115.008(3)
_cell_angle_gamma                90
_cell_volume                     3412.55
_exptl_crystal_colour            'dull black'
_exptl_crystal_description       block
_cell_formula_units_Z            4
_exptl_crystal_recrystallization_method dichloromethane/hexanes
loop_
_atom_site_label
_atom_site_type_symbol
_atom_site_fract_x
_atom_site_fract_y
_atom_site_fract_z
Cl1 Cl 0.60193(5) 0.46557(2) 0.64869(3)
Cl2 Cl 0.74430(5) 0.49676(2) 0.51218(3)
O1 O 0.50573(14) 0.57220(6) 0.70826(9)
O2 O 0.71132(14) 0.62701(6) 0.47203(9)
N1 N 0.72601(17) 0.76499(7) 0.56987(11)
N2 N 0.36225(18) 0.65772(7) 0.45543(12)
C1 C 0.56466(19) 0.64792(8) 0.62341(13)
C2 C 0.62332(19) 0.53652(8) 0.62017(12)
C3 C 0.68819(19) 0.54933(8) 0.56557(12)
C4 C 0.70824(18) 0.61209(8) 0.54410(12)
C5 C 0.72094(19) 0.71707(8) 0.59033(12)
C6 C 0.78736(19) 0.65759(8) 0.79214(12)
C7 C 0.88775(19) 0.62904(8) 0.87692(12)
C8 C 0.56141(19) 0.58326(8) 0.65760(12)
C9 C 0.2999(2) 0.80214(9) 0.71854(15)
H1 H 0.2608 0.8135 0.6539
H2 H 0.3269 0.8368 0.7571
H3 H 0.2314 0.7805 0.7311
C10 C 0.42626(19) 0.76386(8) 0.73975(13)
C11 C 0.4324(2) 0.72511(8) 0.67248(13)
H4 H 0.3566 0.7221 0.6143
C12 C 0.55044(19) 0.69126(8) 0.69212(13)
C13 C 0.71147(19) 0.65591(8) 0.61984(12)
C14 C 0.81942(19) 0.64292(7) 0.71952(12)
C15 C 0.94333(18) 0.60506(8) 0.75180(12)
C16 C 1.01792(19) 0.58606(8) 0.70317(13)
C17 C 1.10399(19) 0.53202(8) 0.73061(12)
C18 C 1.0510(2) 0.48003(8) 0.75115(13)
H5 H 0.9628 0.4800 0.7511
C19 C 1.1294(2) 0.42856(8) 0.77157(14)
H6 H 1.0928 0.3944 0.7853
C20 C 1.2613(2) 0.42700(8) 0.77196(14)
C21 C 1.3434(3) 0.37054(9) 0.78858(17)
H7 H 1.3175 0.3447 0.8269
H8 H 1.4416 0.3791 0.8197
H9 H 1.3234 0.3518 0.7297
C22 C 0.97986(19) 0.59528(8) 0.85252(12)
C23 C 1.3144(2) 0.47888(9) 0.75291(14)
H10 H 1.4036 0.4789 0.7545
C24 C 1.2368(2) 0.53061(8) 0.73149(13)
H11 H 1.2736 0.5646 0.7176
C25 C 1.01850(18) 0.61906(8) 0.62297(13)
C26 C 1.0288(2) 0.59002(8) 0.54741(13)
H12 H 1.0344 0.5490 0.5475
C27 C 1.0308(2) 0.62151(9) 0.47303(14)
H13 H 1.0358 0.6013 0.4232
C28 C 1.0253(2) 0.68320(9) 0.47123(14)
C29 C 1.01915(19) 0.71207(8) 0.54709(14)
H14 H 1.0166 0.7531 0.5476
C30 C 1.01675(19) 0.68080(8) 0.62216(13)
H15 H 1.0139 0.7012 0.6725
C31 C 1.0265(2) 0.71698(9) 0.38928(15)
H16 H 1.0975 0.7012 0.3728
H17 H 1.0458 0.7578 0.4059
H18 H 0.9368 0.7134 0.3369
C32 C 1.08957(19) 0.56490(8) 0.92168(13)
H19 H 1.1531 0.5441 0.9064
C33 C 1.1045(2) 0.56562(8) 1.01366(13)
C34 C 1.0090(2) 0.59721(8) 1.03541(13)
H20 H 1.0177 0.5967 1.0966
C35 C 0.9010(2) 0.62943(8) 0.96849(13)
H21 H 0.8390 0.6508 0.9845
C36 C 1.2223(2) 0.53193(9) 1.08830(14)
H22 H 1.2695 0.5085 1.0598
H23 H 1.1851 0.5067 1.1211
H24 H 1.2874 0.5592 1.1315
C37 C 0.66577(19) 0.69399(7) 0.77948(12)
C38 C 0.6596(2) 0.73265(8) 0.84626(13)
H25 H 0.7353 0.7357 0.9045
C39 C 0.5408(2) 0.76656(8) 0.82610(13)
H26 H 0.5378 0.7918 0.8717
C40 C 0.4501(2) 0.65410(8) 0.52917(13)
Cl3 Cl 0.5077(3) 0.43019(12) 0.02592(18)
Cl4 Cl 0.6851(4) 0.32672(17) 0.1036(3)
C41 C 0.5285(3) 0.36220(10) 0.08519(18)
H27 H 0.5259 0.3691 0.1451
H28 H 0.4507 0.3365 0.0490
H29? H 0.4449 0.3379 0.0588
H30? H 0.5476 0.3706 0.1498
Cl5? Cl 0.4997(9) 0.4272(3) 0.0240(5)
Cl6? Cl 0.6703(13) 0.3232(4) 0.0814(17)
loop_
_geom_bond_atom_site_label_1
_geom_bond_atom_site_label_2
_geom_bond_site_symmetry_1
_geom_bond_site_symmetry_2
Cl1 C2 1_555 1_555
Cl2 C3 1_555 1_555
O1 C8 1_555 1_555
O2 C4 1_555 1_555
N1 C5 1_555 1_555
N2 C40 1_555 1_555
C1 C8 1_555 1_555
C2 C3 1_555 1_555
C3 C4 1_555 1_555
C4 C13 1_555 1_555
C5 C13 1_555 1_555
C6 C7 1_555 1_555
C7 C22 1_555 1_555
C8 C2 1_555 1_555
C9 H1 1_555 1_555
H2 C9 1_555 1_555
H3 C9 1_555 1_555
C10 C9 1_555 1_555
C11 C10 1_555 1_555
H4 C11 1_555 1_555
C12 C1 1_555 1_555
C13 C1 1_555 1_555
C14 C6 1_555 1_555
C15 C14 1_555 1_555
C16 C15 1_555 1_555
C17 C16 1_555 1_555
C18 C17 1_555 1_555
H5 C18 1_555 1_555
C19 C18 1_555 1_555
H6 C19 1_555 1_555
C20 C19 1_555 1_555
C21 C20 1_555 1_555
H7 C21 1_555 1_555
H8 C21 1_555 1_555
H9 C21 1_555 1_555
C22 C15 1_555 1_555
C23 C20 1_555 1_555
H10 C23 1_555 1_555
C24 C17 1_555 1_555
H11 C24 1_555 1_555
C25 C16 1_555 1_555
C26 C25 1_555 1_555
H12 C26 1_555 1_555
C27 C26 1_555 1_555
H13 C27 1_555 1_555
C28 C27 1_555 1_555
C29 C28 1_555 1_555
H14 C29 1_555 1_555
C30 C25 1_555 1_555
H15 C30 1_555 1_555
C31 C28 1_555 1_555
H16 C31 1_555 1_555
H17 C31 1_555 1_555
H18 C31 1_555 1_555
C32 C22 1_555 1_555
H19 C32 1_555 1_555
C33 C32 1_555 1_555
C34 C33 1_555 1_555
H20 C34 1_555 1_555
C35 C7 1_555 1_555
H21 C35 1_555 1_555
C36 C33 1_555 1_555
H22 C36 1_555 1_555
H23 C36 1_555 1_555
H24 C36 1_555 1_555
C37 C6 1_555 1_555
C38 C37 1_555 1_555
H25 C38 1_555 1_555
C39 C10 1_555 1_555
H26 C39 1_555 1_555
C40 C1 1_555 1_555
Cl3 C41 1_555 1_555
Cl4 C41 1_555 1_555
C41 H27 1_555 1_555
H28 C41 1_555 1_555
C11 C12 1_555 1_555
C12 C37 1_555 1_555
C13 C14 1_555 1_555
C23 C24 1_555 1_555
C29 C30 1_555 1_555
C34 C35 1_555 1_555
C38 C39 1_555 1_555

#END
