
#######################################################################
#
#                 Cambridge Crystallographic Data Centre
#                                CCDC 
#
#######################################################################
#
# If this CIF has been generated from an entry in the Cambridge 
# Structural Database, then it will include bibliographic, chemical, 
# crystal, experimental, refinement or atomic coordinate data resulting 
# from the CCDC's data processing and validation procedures.
#
#######################################################################

data_IPUVOF
_chemical_formula_moiety         'C19 H16 Cl2 O1'
_chemical_name_systematic        
4-(4-Chlorobenzylidene)-1-(4-chlorophenyl)hex-1-en-3-one
_symmetry_cell_setting           orthorhombic
_symmetry_space_group_name_H-M   'P 21 21 21'
_symmetry_Int_Tables_number      19
_space_group_name_Hall           'P 2ac 2ab'
loop_
_symmetry_equiv_pos_site_id
_symmetry_equiv_pos_as_xyz
1 x,y,z
2 1/2-x,-y,1/2+z
3 1/2+x,1/2-y,-z
4 -x,1/2+y,1/2-z
_cell_length_a                   14.713(5)
_cell_length_b                   4.8870(18)
_cell_length_c                   23.207(9)
_cell_angle_alpha                90
_cell_angle_beta                 90
_cell_angle_gamma                90
_cell_volume                     1668.64
_cell_formula_units_Z            4
loop_
_atom_site_label
_atom_site_type_symbol
_atom_site_fract_x
_atom_site_fract_y
_atom_site_fract_z
C1 C 0.0789(3) -1.0936(8) -0.15377(17)
C2 C 0.1590(3) -0.9911(9) -0.17590(18)
H1 H 0.1804 -1.0499 -0.2115
C3 C 0.2068(3) -0.7993(10) -0.14425(16)
H2 H 0.2612 -0.7316 -0.1589
C4 C 0.1761(3) -0.7051(9) -0.09128(16)
C5 C 0.0939(3) -0.8090(11) -0.07190(17)
H3 H 0.0702 -0.7445 -0.0373
C6 C 0.0460(3) -1.0059(10) -0.10227(19)
H4 H -0.0079 -1.0769 -0.0876
C7 C 0.2245(3) -0.5092(9) -0.05488(16)
H5 H 0.1874 -0.4102 -0.0300
C8 C 0.3115(3) -0.4485(9) -0.0511(2)
C9 C 0.3863(4) -0.5913(13) -0.0867(2)
H6 H 0.4384 -0.6283 -0.0623
H7 H 0.3637 -0.7644 -0.1012
C10 C 0.4137(4) -0.4179(14) -0.1347(3)
H8 H 0.4608 -0.5075 -0.1562
H9 H 0.4360 -0.2467 -0.1202
H10 H 0.3624 -0.3854 -0.1593
C11 C 0.3489(4) -0.2520(9) -0.00770(19)
C12 C 0.2871(3) -0.0913(9) 0.02914(17)
H11 H 0.2253 -0.0900 0.0210
C13 C 0.3177(3) 0.0504(9) 0.07331(18)
H12 H 0.3794 0.0322 0.0810
C14 C 0.2678(3) 0.2314(9) 0.11158(17)
C15 C 0.1777(3) 0.2991(11) 0.1040(2)
H13 H 0.1455 0.2204 0.0737
C16 C 0.1343(3) 0.4791(11) 0.1398(2)
H14 H 0.0734 0.5216 0.1339
C17 C 0.1813(4) 0.5973(9) 0.18490(19)
C18 C 0.2711(4) 0.5285(11) 0.19453(19)
H15 H 0.3025 0.6031 0.2255
C19 C 0.3134(3) 0.3491(10) 0.15787(18)
H16 H 0.3740 0.3049 0.1641
O1 O 0.4308(2) -0.2276(8) -0.00257(13)
Cl1 Cl 0.01945(8) -1.3362(3) -0.19388(5)
Cl2 Cl 0.12609(9) 0.8268(3) 0.23028(5)
loop_
_geom_bond_atom_site_label_1
_geom_bond_atom_site_label_2
_geom_bond_site_symmetry_1
_geom_bond_site_symmetry_2
C1 C2 1_555 1_555
C2 H1 1_555 1_555
C3 C2 1_555 1_555
H2 C3 1_555 1_555
C4 C3 1_555 1_555
C5 C4 1_555 1_555
H3 C5 1_555 1_555
C6 C1 1_555 1_555
H4 C6 1_555 1_555
C7 C4 1_555 1_555
H5 C7 1_555 1_555
C8 C7 1_555 1_555
C9 C8 1_555 1_555
H6 C9 1_555 1_555
H7 C9 1_555 1_555
C10 C9 1_555 1_555
H8 C10 1_555 1_555
H9 C10 1_555 1_555
H10 C10 1_555 1_555
C11 C8 1_555 1_555
C12 C11 1_555 1_555
H11 C12 1_555 1_555
C13 C12 1_555 1_555
H12 C13 1_555 1_555
C14 C13 1_555 1_555
C15 C14 1_555 1_555
H13 C15 1_555 1_555
C16 C15 1_555 1_555
H14 C16 1_555 1_555
C17 C16 1_555 1_555
C18 C17 1_555 1_555
H15 C18 1_555 1_555
C19 C14 1_555 1_555
H16 C19 1_555 1_555
O1 C11 1_555 1_555
Cl1 C1 1_555 1_555
Cl2 C17 1_555 1_555
C5 C6 1_555 1_555
C18 C19 1_555 1_555

#END
