
#######################################################################
#
#                 Cambridge Crystallographic Data Centre
#                                CCDC 
#
#######################################################################
#
# If this CIF has been generated from an entry in the Cambridge 
# Structural Database, then it will include bibliographic, chemical, 
# crystal, experimental, refinement or atomic coordinate data resulting 
# from the CCDC's data processing and validation procedures.
#
#######################################################################

data_IPUVUL
_chemical_name_common            
't-Butyl (1-(2-benzylidenehydrazino)-3-hydroxy-1-oxopropan-2-yl)carbamate'
_chemical_formula_moiety         'C15 H21 N3 O4'
_chemical_name_systematic        
't-butyl (1S)-2-[(2E)-2-benzylidenehydrazino]-1-(hydroxymethyl)-2-oxoethylcarbamate'
_symmetry_cell_setting           triclinic
_symmetry_space_group_name_H-M   'P 1'
_symmetry_Int_Tables_number      1
_space_group_name_Hall           'P 1'
loop_
_symmetry_equiv_pos_site_id
_symmetry_equiv_pos_as_xyz
1 x,y,z
_cell_length_a                   5.2446(7)
_cell_length_b                   5.7758(9)
_cell_length_c                   13.307(2)
_cell_angle_alpha                80.243(7)
_cell_angle_beta                 84.091(10)
_cell_angle_gamma                78.327(10)
_cell_volume                     388.06
_exptl_crystal_colour            colorless
_exptl_crystal_description       plate
_cell_formula_units_Z            1
loop_
_atom_site_label
_atom_site_type_symbol
_atom_site_fract_x
_atom_site_fract_y
_atom_site_fract_z
O1 O 0.2753(4) 0.9168(4) 0.5315(2)
O2 O 0.7674(4) 1.0929(4) 0.5340(2)
H1 H 0.906(11) 1.037(9) 0.553(4)
O3 O 1.1390(4) 0.6039(4) 0.33389(18)
O4 O 0.8750(4) 0.4924(4) 0.23186(18)
N1 N 0.2049(5) 0.4830(5) 0.6337(2)
N2 N 0.4263(5) 0.5172(5) 0.5715(2)
H2 H 0.549(8) 0.401(7) 0.563(3)
N3 N 0.6978(5) 0.6634(5) 0.3649(2)
H3 H 0.546(9) 0.635(7) 0.341(3)
C1 C -0.0073(6) 0.2100(6) 0.7522(3)
C2 C -0.2196(6) 0.3855(6) 0.7775(3)
H4 H -0.2290 0.5468 0.7455
C3 C -0.4163(6) 0.3249(7) 0.8490(3)
H5 H -0.5596 0.4448 0.8659
C4 C -0.4044(7) 0.0898(7) 0.8961(3)
H6 H -0.5373 0.0493 0.9462
C5 C -0.1985(8) -0.0856(7) 0.8698(3)
H7 H -0.1928 -0.2474 0.9005
C6 C -0.0007(7) -0.0259(6) 0.7989(3)
H8 H 0.1411 -0.1472 0.7820
C7 C 0.2097(6) 0.2696(6) 0.6802(2)
H9 H 0.3558 0.1479 0.6680
C8 C 0.4444(6) 0.7381(6) 0.5245(2)
C9 C 0.7007(6) 0.7577(5) 0.4599(2)
H10 H 0.8484 0.6585 0.4989
C10 C 0.7366(6) 1.0163(6) 0.4406(3)
H11 H 0.8925 1.0319 0.3931
H12 H 0.5827 1.1193 0.4083
C11 C 0.9250(6) 0.5867(5) 0.3115(3)
C12 C 1.0876(6) 0.4118(5) 0.1565(3)
C13 C 1.2882(6) 0.2099(6) 0.2066(3)
H13 H 1.1990 0.0914 0.2500
H14 H 1.3924 0.2739 0.2485
H15 H 1.4029 0.1338 0.1538
C14 C 0.9409(6) 0.3217(6) 0.0827(3)
H16 H 0.7991 0.4496 0.0570
H17 H 0.8679 0.1842 0.1184
H18 H 1.0611 0.2733 0.0254
C15 C 1.2048(7) 0.6253(6) 0.1026(3)
H19 H 1.3021 0.6783 0.1507
H20 H 1.0645 0.7562 0.0781
H21 H 1.3230 0.5783 0.0445
loop_
_geom_bond_atom_site_label_1
_geom_bond_atom_site_label_2
_geom_bond_site_symmetry_1
_geom_bond_site_symmetry_2
O1 C8 1_555 1_555
O2 H1 1_555 1_555
O3 C11 1_555 1_555
O4 C11 1_555 1_555
N1 N2 1_555 1_555
N2 H2 1_555 1_555
N3 H3 1_555 1_555
C1 C2 1_555 1_555
C2 H4 1_555 1_555
C3 C2 1_555 1_555
H5 C3 1_555 1_555
C4 C3 1_555 1_555
H6 C4 1_555 1_555
C5 C4 1_555 1_555
H7 C5 1_555 1_555
C6 C1 1_555 1_555
H8 C6 1_555 1_555
C7 N1 1_555 1_555
H9 C7 1_555 1_555
C8 N2 1_555 1_555
C9 N3 1_555 1_555
H10 C9 1_555 1_555
C10 O2 1_555 1_555
H11 C10 1_555 1_555
H12 C10 1_555 1_555
C11 N3 1_555 1_555
C12 O4 1_555 1_555
C13 C12 1_555 1_555
H13 C13 1_555 1_555
H14 C13 1_555 1_555
H15 C13 1_555 1_555
C14 C12 1_555 1_555
H16 C14 1_555 1_555
H17 C14 1_555 1_555
H18 C14 1_555 1_555
C15 C12 1_555 1_555
H19 C15 1_555 1_555
H20 C15 1_555 1_555
H21 C15 1_555 1_555
C1 C7 1_555 1_555
C5 C6 1_555 1_555
C8 C9 1_555 1_555
C9 C10 1_555 1_555

#END
