
#######################################################################
#
#                 Cambridge Crystallographic Data Centre
#                                CCDC 
#
#######################################################################
#
# If this CIF has been generated from an entry in the Cambridge 
# Structural Database, then it will include bibliographic, chemical, 
# crystal, experimental, refinement or atomic coordinate data resulting 
# from the CCDC's data processing and validation procedures.
#
#######################################################################

data_IPUVEV
_chemical_formula_moiety         'C29 H25 Cl2 N1 O4'
_chemical_name_systematic        
'Ethyl 4,8-bis(4-chlorophenyl)-1-(4-methoxyphenyl)-2-oxo-6-azabicyclo[3.2.1]oct-6-ene-5-carboxylate'
_symmetry_cell_setting           triclinic
_symmetry_space_group_name_H-M   'P -1'
_symmetry_Int_Tables_number      2
_space_group_name_Hall           '-P 1'
loop_
_symmetry_equiv_pos_site_id
_symmetry_equiv_pos_as_xyz
1 x,y,z
2 -x,-y,-z
_cell_length_a                   9.293(5)
_cell_length_b                   10.007(5)
_cell_length_c                   15.502(5)
_cell_angle_alpha                84.100(5)
_cell_angle_beta                 73.014(5)
_cell_angle_gamma                65.705(5)
_cell_volume                     1256.37
_cell_formula_units_Z            2
loop_
_atom_site_label
_atom_site_type_symbol
_atom_site_fract_x
_atom_site_fract_y
_atom_site_fract_z
Cl1 Cl 1.2891(3) 0.5547(3) -0.00177(18)
Cl2 Cl 0.5651(4) -0.1962(3) 0.0912(2)
O1 O 1.0152(8) -0.0380(7) 0.3109(4)
O2 O 0.7968(8) 0.8095(8) 0.5792(4)
N1 N 0.7320(9) 0.1838(8) 0.3747(5)
C1 C 0.7373(10) 0.5312(11) 0.4221(6)
C2 C 0.8386(11) 0.2016(10) 0.2844(6)
C3 C 0.6936(11) 0.1417(10) 0.1857(7)
O3 O 1.0739(8) 0.0511(7) 0.1720(5)
C4 C 0.7255(10) 0.4257(10) 0.3666(6)
C5 C 0.7360(10) 0.2539(10) 0.2153(6)
H1 H 0.8031 0.2822 0.1613
O4 O 0.4883(8) 0.6191(8) 0.3285(4)
C6 C 0.9813(11) 0.3871(10) 0.2250(5)
C7 C 0.8908(10) 0.3203(9) 0.3033(5)
H2 H 0.9651 0.2748 0.3416
C8 C 0.5816(10) 0.3937(10) 0.2522(6)
H3 H 0.5500 0.4503 0.2011
H4 H 0.4933 0.3640 0.2844
C9 C 1.0024(12) 0.5524(11) 0.1029(6)
H5 H 0.9518 0.6295 0.0685
C10 C 0.6743(10) 0.3055(11) 0.4169(6)
H6 H 0.6047 0.3205 0.4753
C11 C 0.9105(11) 0.5004(10) 0.1737(6)
H7 H 0.7966 0.5441 0.1869
C12 C 0.5918(12) 0.0804(11) 0.2440(7)
H8 H 0.5496 0.1102 0.3043
C13 C 1.1686(13) 0.4880(11) 0.0849(6)
C14 C 0.9896(11) 0.0616(11) 0.2476(7)
C15 C 0.7227(11) 0.6691(11) 0.3934(6)
H9 H 0.6989 0.6990 0.3386
C16 C 1.1524(11) 0.3216(10) 0.2047(6)
H10 H 1.2029 0.2449 0.2394
C17 C 0.7715(10) 0.4939(11) 0.5051(6)
H11 H 0.7800 0.4020 0.5277
C18 C 1.2483(12) 0.3709(11) 0.1324(6)
H12 H 1.3623 0.3258 0.1170
C19 C 0.5927(12) 0.4951(12) 0.3145(6)
C20 C 0.7419(10) 0.7666(11) 0.4427(6)
H13 H 0.7339 0.8587 0.4206
C21 C 0.7594(11) 0.0885(11) 0.0962(7)
H14 H 0.8323 0.1224 0.0558
C22 C 0.7731(11) 0.7235(12) 0.5252(7)
C23 C 0.7933(11) 0.5857(11) 0.5551(6)
H15 H 0.8215 0.5545 0.6088
C24 C 0.5518(11) -0.0212(11) 0.2161(7)
H16 H 0.4833 -0.0599 0.2564
C25 C 0.6166(12) -0.0658(10) 0.1252(8)
C26 C 1.1606(13) -0.1744(11) 0.2802(7)
H17 H 1.2471 -0.1512 0.2381
H18 H 1.1998 -0.2218 0.3315
C27 C 0.7797(14) 0.9519(11) 0.5501(7)
H19 H 0.7989 1.0001 0.5934
H20 H 0.6706 1.0067 0.5443
H21 H 0.8580 0.9461 0.4927
C28 C 0.7181(12) -0.0131(11) 0.0670(7)
H22 H 0.7607 -0.0450 0.0071
C29 C 1.1266(14) -0.2719(13) 0.2378(9)
H23 H 1.2243 -0.3596 0.2190
H24 H 1.0903 -0.2262 0.1861
H25 H 1.0421 -0.2963 0.2794
loop_
_geom_bond_atom_site_label_1
_geom_bond_atom_site_label_2
_geom_bond_site_symmetry_1
_geom_bond_site_symmetry_2
Cl1 C13 1_555 1_555
Cl2 C25 1_555 1_555
O1 C14 1_555 1_555
O2 C22 1_555 1_555
N1 C2 1_555 1_555
C1 C4 1_555 1_555
C2 C5 1_555 1_555
C3 C5 1_555 1_555
O3 C14 1_555 1_555
C4 C7 1_555 1_555
C5 H1 1_555 1_555
O4 C19 1_555 1_555
C6 C7 1_555 1_555
C7 C2 1_555 1_555
H2 C7 1_555 1_555
C8 C5 1_555 1_555
H3 C8 1_555 1_555
H4 C8 1_555 1_555
C9 H5 1_555 1_555
C10 N1 1_555 1_555
H6 C10 1_555 1_555
C11 C6 1_555 1_555
H7 C11 1_555 1_555
C12 C3 1_555 1_555
H8 C12 1_555 1_555
C13 C9 1_555 1_555
C14 C2 1_555 1_555
C15 C1 1_555 1_555
H9 C15 1_555 1_555
C16 C6 1_555 1_555
H10 C16 1_555 1_555
C17 C1 1_555 1_555
H11 C17 1_555 1_555
C18 C13 1_555 1_555
H12 C18 1_555 1_555
C19 C4 1_555 1_555
C20 C15 1_555 1_555
H13 C20 1_555 1_555
C21 C3 1_555 1_555
H14 C21 1_555 1_555
C22 C20 1_555 1_555
C23 C17 1_555 1_555
H15 C23 1_555 1_555
C24 C12 1_555 1_555
H16 C24 1_555 1_555
C25 C24 1_555 1_555
C26 O1 1_555 1_555
H17 C26 1_555 1_555
H18 C26 1_555 1_555
C27 O2 1_555 1_555
H19 C27 1_555 1_555
H20 C27 1_555 1_555
H21 C27 1_555 1_555
C28 C21 1_555 1_555
H22 C28 1_555 1_555
C29 C26 1_555 1_555
H23 C29 1_555 1_555
H24 C29 1_555 1_555
H25 C29 1_555 1_555
C4 C10 1_555 1_555
C8 C19 1_555 1_555
C9 C11 1_555 1_555
C16 C18 1_555 1_555
C22 C23 1_555 1_555
C25 C28 1_555 1_555

#END
