
#######################################################################
#
#                 Cambridge Crystallographic Data Centre
#                                CCDC 
#
#######################################################################
#
# If this CIF has been generated from an entry in the Cambridge 
# Structural Database, then it will include bibliographic, chemical, 
# crystal, experimental, refinement or atomic coordinate data resulting 
# from the CCDC's data processing and validation procedures.
#
#######################################################################

data_IPUWUN
_chemical_formula_moiety         'C29 H24 Cl1 N3 O6,2(H2 O1)'
_chemical_name_systematic        
'methyl 1-benzoyl-5-(4-chlorophenyl)-4-(3-methyl-4-nitro-1,2-oxazol-5-yl)-3-phenylprolinate dihydrate'
_symmetry_cell_setting           triclinic
_symmetry_space_group_name_H-M   'P 1'
_symmetry_Int_Tables_number      1
_space_group_name_Hall           'P 1'
loop_
_symmetry_equiv_pos_site_id
_symmetry_equiv_pos_as_xyz
1 x,y,z
_cell_length_a                   5.8187(8)
_cell_length_b                   11.7632(17)
_cell_length_c                   11.9555(18)
_cell_angle_alpha                79.413(3)
_cell_angle_beta                 87.509(3)
_cell_angle_gamma                78.478(2)
_cell_volume                     788.153
_exptl_crystal_colour            colorless
_exptl_crystal_description       block
_cell_formula_units_Z            1
loop_
_atom_site_label
_atom_site_type_symbol
_atom_site_fract_x
_atom_site_fract_y
_atom_site_fract_z
C1 C 0.9619(9) 0.5796(5) 0.1270(4)
C2 C 0.7429(10) 0.6193(5) 0.0830(4)
H1 H 0.6989 0.5925 0.0202
C3 C 0.5843(9) 0.7015(5) 0.1340(4)
H2 H 0.4341 0.7298 0.1048
C4 C 0.6510(7) 0.7405(4) 0.2278(4)
C5 C 0.8761(8) 0.6965(4) 0.2715(4)
H3 H 0.9215 0.7224 0.3346
C6 C 1.0309(8) 0.6158(5) 0.2226(4)
H4 H 1.1799 0.5855 0.2528
C7 C 0.4870(7) 0.8374(4) 0.2749(4)
H5 H 0.3257 0.8380 0.2539
C8 C 0.4996(7) 0.9442(4) 0.4306(4)
H6 H 0.3792 0.9603 0.4886
C9 C 0.4362(7) 1.0336(4) 0.3172(4)
H7 H 0.2656 1.0486 0.3083
C10 C 0.5452(7) 0.9604(4) 0.2301(4)
H8 H 0.7157 0.9535 0.2316
C11 C 0.5081(8) 1.1508(4) 0.3115(4)
C12 C 0.7008(10) 1.1812(6) 0.2545(5)
H9 H 0.7939 1.1272 0.2155
C13 C 0.7637(13) 1.2882(6) 0.2521(6)
H10 H 0.8944 1.3059 0.2101
C14 C 0.6359(15) 1.3688(6) 0.3109(6)
H11 H 0.6792 1.4409 0.3104
C15 C 0.4394(16) 1.3406(6) 0.3716(7)
H12 H 0.3514 1.3940 0.4130
C16 C 0.3737(12) 1.2341(5) 0.3711(5)
H13 H 0.2394 1.2174 0.4104
C17 C 0.4627(8) 1.0086(4) 0.1104(4)
C18 C 0.5498(8) 1.0035(5) 0.0060(4)
C19 C 0.3681(10) 1.0655(5) -0.0715(4)
C20 C 0.3649(14) 1.0869(8) -0.1999(5)
H14 H 0.2177 1.1354 -0.2264
H15 H 0.3846 1.0128 -0.2256
H16 H 0.4904 1.1261 -0.2293
C21 C 0.4096(7) 0.7394(4) 0.4644(4)
C22 C 0.3800(8) 0.7361(4) 0.5904(4)
C23 C 0.5342(10) 0.7664(5) 0.6589(4)
H17 H 0.6668 0.7934 0.6275
C24 C 0.4899(13) 0.7564(6) 0.7750(5)
H18 H 0.5933 0.7778 0.8207
C25 C 0.3012(13) 0.7165(7) 0.8230(5)
H19 H 0.2733 0.7111 0.9008
C26 C 0.1537(12) 0.6844(8) 0.7568(5)
H20 H 0.0244 0.6554 0.7898
C27 C 0.1895(9) 0.6935(6) 0.6408(5)
H21 H 0.0848 0.6709 0.5966
C28 C 0.7380(7) 0.9548(4) 0.4717(3)
C29 C 0.9155(11) 1.0459(7) 0.5938(5)
H22 H 1.0313 0.9748 0.6119
H23 H 0.8778 1.0803 0.6608
H24 H 0.9762 1.1006 0.5360
Cl1 Cl 1.1623(3) 0.47769(15) 0.06444(14)
N1 N 0.4979(6) 0.8294(3) 0.3994(3)
N2 N 0.1848(9) 1.1047(5) -0.0169(4)
N3 N 0.7828(8) 0.9473(4) -0.0221(4)
O1 O 0.2447(6) 1.0700(4) 0.1007(3)
O2 O 0.8273(9) 0.9435(6) -0.1228(4)
O3 O 0.9231(7) 0.9056(4) 0.0543(3)
O4 O 0.3552(6) 0.6633(3) 0.4207(3)
O5 O 0.9233(5) 0.9168(3) 0.4319(3)
O6 O 0.7082(6) 1.0190(3) 0.5529(3)
O7 O 0.715(4) 0.364(3) 0.854(5)
O8 O 0.929(6) 0.421(2) 0.585(2)
loop_
_geom_bond_atom_site_label_1
_geom_bond_atom_site_label_2
_geom_bond_site_symmetry_1
_geom_bond_site_symmetry_2
C1 C2 1_555 1_555
C2 H1 1_555 1_555
C3 C2 1_555 1_555
H2 C3 1_555 1_555
C4 C3 1_555 1_555
C5 C4 1_555 1_555
H3 C5 1_555 1_555
C6 C1 1_555 1_555
H4 C6 1_555 1_555
C7 C4 1_555 1_555
H5 C7 1_555 1_555
C8 H6 1_555 1_555
C9 C8 1_555 1_555
H7 C9 1_555 1_555
C10 C7 1_555 1_555
H8 C10 1_555 1_555
C11 C9 1_555 1_555
C12 C11 1_555 1_555
H9 C12 1_555 1_555
C13 C12 1_555 1_555
H10 C13 1_555 1_555
C14 C13 1_555 1_555
H11 C14 1_555 1_555
C15 C14 1_555 1_555
H12 C15 1_555 1_555
C16 C11 1_555 1_555
H13 C16 1_555 1_555
C17 C10 1_555 1_555
C18 C17 1_555 1_555
C19 C18 1_555 1_555
C20 C19 1_555 1_555
H14 C20 1_555 1_555
H15 C20 1_555 1_555
H16 C20 1_555 1_555
C21 C22 1_555 1_555
C22 C23 1_555 1_555
C23 H17 1_555 1_555
C24 C23 1_555 1_555
H18 C24 1_555 1_555
C25 C24 1_555 1_555
H19 C25 1_555 1_555
C26 C25 1_555 1_555
H20 C26 1_555 1_555
C27 C22 1_555 1_555
H21 C27 1_555 1_555
C28 C8 1_555 1_555
C29 H22 1_555 1_555
H23 C29 1_555 1_555
H24 C29 1_555 1_555
Cl1 C1 1_555 1_555
N1 C7 1_555 1_555
N2 C19 1_555 1_555
N3 C18 1_555 1_555
O1 C17 1_555 1_555
O2 N3 1_555 1_555
O3 N3 1_555 1_555
O4 C21 1_555 1_555
O5 C28 1_555 1_555
O6 C28 1_555 1_555
C5 C6 1_555 1_555
C8 N1 1_555 1_555
C9 C10 1_555 1_555
C15 C16 1_555 1_555
C21 N1 1_555 1_555
C26 C27 1_555 1_555
C29 O6 1_555 1_555
N2 O1 1_555 1_555

#END
