
#######################################################################
#
#                 Cambridge Crystallographic Data Centre
#                                CCDC 
#
#######################################################################
#
# If this CIF has been generated from an entry in the Cambridge 
# Structural Database, then it will include bibliographic, chemical, 
# crystal, experimental, refinement or atomic coordinate data resulting 
# from the CCDC's data processing and validation procedures.
#
#######################################################################

data_IPUWAS
_chemical_name_common            
't-Butyl (3-hydroxy-1-(2-(2-hydroxybenzylidene)hydrazino)-1-oxopropan-2-yl)carbamate'
_chemical_formula_moiety         'C15 H21 N3 O5'
_chemical_name_systematic        
't-butyl (1S)-2-[(2E)-2-(2-hydroxybenzylidene)hydrazino]-1-(hydroxymethyl)-2-oxoethylcarbamate'
_symmetry_cell_setting           triclinic
_symmetry_space_group_name_H-M   'P 1'
_symmetry_Int_Tables_number      1
_space_group_name_Hall           'P 1'
loop_
_symmetry_equiv_pos_site_id
_symmetry_equiv_pos_as_xyz
1 x,y,z
_cell_length_a                   5.2538(3)
_cell_length_b                   5.7264(4)
_cell_length_c                   13.6910(10)
_cell_angle_alpha                81.078(4)
_cell_angle_beta                 82.350(5)
_cell_angle_gamma                76.869(5)
_cell_volume                     394.219
_exptl_crystal_colour            colorless
_exptl_crystal_description       plate
_cell_formula_units_Z            1
loop_
_atom_site_label
_atom_site_type_symbol
_atom_site_fract_x
_atom_site_fract_y
_atom_site_fract_z
O1 O 0.3006(4) 0.9252(4) 0.52086(18)
O2 O 0.7942(4) 1.0936(4) 0.51495(17)
H1 H 0.953(9) 1.038(7) 0.523(3)
O3 O 1.1721(4) 0.5885(4) 0.31979(16)
O4 O 0.9148(4) 0.4785(4) 0.22014(16)
O5 O -0.2425(4) 0.6087(4) 0.71672(18)
H2 H -0.093(9) 0.636(7) 0.674(3)
N1 N 0.2314(5) 0.4873(5) 0.61795(19)
N2 N 0.4473(5) 0.5195(5) 0.55074(19)
H3 H 0.570(7) 0.398(7) 0.542(3)
N3 N 0.7268(5) 0.6563(4) 0.35148(19)
H4 H 0.581(7) 0.639(7) 0.335(3)
C1 C 0.0469(6) 0.2152(6) 0.7426(2)
C2 C -0.1875(6) 0.3810(6) 0.7652(2)
C3 C -0.3747(7) 0.3107(7) 0.8392(2)
H5 H -0.5336 0.4224 0.8546
C4 C -0.3307(7) 0.0799(7) 0.8902(3)
H6 H -0.4590 0.0342 0.9408
C5 C -0.1007(8) -0.0858(7) 0.8681(3)
H7 H -0.0719 -0.2450 0.9029
C6 C 0.0859(7) -0.0175(6) 0.7953(2)
H8 H 0.2440 -0.1308 0.7806
C7 C 0.2539(6) 0.2746(6) 0.6678(2)
H9 H 0.4081 0.1549 0.6554
C8 C 0.4679(6) 0.7417(6) 0.5088(2)
C9 C 0.7259(6) 0.7542(5) 0.4431(2)
H10 H 0.8743 0.6533 0.4795
C10 C 0.7615(6) 1.0137(5) 0.4241(2)
H11 H 0.9177 1.0252 0.3759
H12 H 0.6060 1.1195 0.3950
C11 C 0.9590(5) 0.5742(5) 0.2982(2)
C12 C 1.1336(6) 0.3912(5) 0.1465(2)
C13 C 0.9933(6) 0.3059(6) 0.0726(2)
H13 H 0.9055 0.1776 0.1067
H14 H 1.1216 0.2434 0.0191
H15 H 0.8624 0.4419 0.0446
C14 C 1.2613(6) 0.5993(6) 0.0961(2)
H16 H 1.1249 0.7373 0.0734
H17 H 1.3828 0.5472 0.0390
H18 H 1.3580 0.6469 0.1436
C15 C 1.3289(6) 0.1806(6) 0.1948(2)
H19 H 1.4268 0.2404 0.2382
H20 H 1.4516 0.1029 0.1431
H21 H 1.2342 0.0629 0.2341
loop_
_geom_bond_atom_site_label_1
_geom_bond_atom_site_label_2
_geom_bond_site_symmetry_1
_geom_bond_site_symmetry_2
O1 C8 1_555 1_555
O2 H1 1_555 1_555
O3 C11 1_555 1_555
O4 C11 1_555 1_555
O5 H2 1_555 1_555
N1 N2 1_555 1_555
N2 H3 1_555 1_555
N3 H4 1_555 1_555
C1 C2 1_555 1_555
C2 O5 1_555 1_555
C3 C2 1_555 1_555
H5 C3 1_555 1_555
C4 C3 1_555 1_555
H6 C4 1_555 1_555
C5 C4 1_555 1_555
H7 C5 1_555 1_555
C6 C1 1_555 1_555
H8 C6 1_555 1_555
C7 N1 1_555 1_555
H9 C7 1_555 1_555
C8 N2 1_555 1_555
C9 N3 1_555 1_555
H10 C9 1_555 1_555
C10 O2 1_555 1_555
H11 C10 1_555 1_555
H12 C10 1_555 1_555
C11 N3 1_555 1_555
C12 O4 1_555 1_555
C13 C12 1_555 1_555
H13 C13 1_555 1_555
H14 C13 1_555 1_555
H15 C13 1_555 1_555
C14 C12 1_555 1_555
H16 C14 1_555 1_555
H17 C14 1_555 1_555
H18 C14 1_555 1_555
C15 C12 1_555 1_555
H19 C15 1_555 1_555
H20 C15 1_555 1_555
H21 C15 1_555 1_555
C1 C7 1_555 1_555
C5 C6 1_555 1_555
C8 C9 1_555 1_555
C9 C10 1_555 1_555

#END
