
#######################################################################
#
#                 Cambridge Crystallographic Data Centre
#                                CCDC 
#
#######################################################################
#
# If this CIF has been generated from an entry in the Cambridge 
# Structural Database, then it will include bibliographic, chemical, 
# crystal, experimental, refinement or atomic coordinate data resulting 
# from the CCDC's data processing and validation procedures.
#
#######################################################################

data_IPUWUL
_chemical_formula_moiety         'C30 H33 Br3 O6'
_chemical_name_systematic        
2,7,12-tris(2-Bromoethoxy)-3,8,13-trimethoxy-10,15-dihydro-5H-tribenzo(a,d,g)cyclononaene
_symmetry_cell_setting           monoclinic
_symmetry_space_group_name_H-M   'P 21/n'
_symmetry_Int_Tables_number      14
_space_group_name_Hall           '-P 2yn'
loop_
_symmetry_equiv_pos_site_id
_symmetry_equiv_pos_as_xyz
1 x,y,z
2 1/2+x,1/2-y,1/2+z
3 -x,-y,-z
4 1/2-x,1/2+y,1/2-z
_cell_length_a                   14.585(3)
_cell_length_b                   8.3893(19)
_cell_length_c                   24.881(6)
_cell_angle_alpha                90
_cell_angle_beta                 98.507(4)
_cell_angle_gamma                90
_cell_volume                     3010.89
_exptl_crystal_colour            colorless
_exptl_crystal_description       block
_chemical_melting_point          '420-422 K'
_cell_formula_units_Z            4
_exptl_crystal_recrystallization_method 'ethyl acetate'
loop_
_atom_site_label
_atom_site_type_symbol
_atom_site_fract_x
_atom_site_fract_y
_atom_site_fract_z
Br1 Br 0.65826(5) 0.90148(9) 0.48562(3)
Br2 Br 1.11988(4) 0.58579(9) 0.14199(3)
O1 O 0.4949(2) 0.7191(4) 0.35282(14)
O2 O 0.3535(2) 0.5614(4) 0.30468(14)
O3 O 0.3705(2) 0.1854(4) 0.07938(17)
O4 O 0.5328(2) 0.1778(4) 0.04922(14)
O5 O 0.9078(2) 0.6918(4) 0.15013(15)
O6 O 0.8912(2) 0.8507(5) 0.24369(16)
C1 C 0.5590(3) 0.9598(5) 0.1801(2)
H1 H 0.5730 1.0574 0.2006
H2 H 0.5237 0.9881 0.1452
C2 C 0.5005(3) 0.8531(5) 0.2104(2)
C3 C 0.5240(3) 0.8369(6) 0.2668(2)
H3 H 0.5742 0.8945 0.2843
C4 C 0.4765(3) 0.7404(5) 0.2973(2)
C5 C 0.3994(3) 0.6529(5) 0.2711(2)
C6 C 0.3760(3) 0.6673(5) 0.2160(2)
H4 H 0.3253 0.6104 0.1988
C7 C 0.4252(3) 0.7641(5) 0.18457(19)
C8 C 0.3962(3) 0.7602(6) 0.12277(19)
H5 H 0.3291 0.7586 0.1143
H6 H 0.4185 0.8553 0.1067
C9 C 0.4361(3) 0.6131(5) 0.09909(19)
C10 C 0.3849(3) 0.4732(6) 0.09778(19)
H7 H 0.3263 0.4765 0.1083
C11 C 0.4176(3) 0.3299(6) 0.0816(2)
C12 C 0.5057(3) 0.3247(5) 0.06471(18)
C13 C 0.5552(3) 0.4641(5) 0.06455(17)
H8 H 0.6129 0.4611 0.0528
C14 C 0.5225(3) 0.6113(5) 0.08135(17)
C15 C 0.5805(3) 0.7605(6) 0.07772(18)
H9 H 0.5394 0.8520 0.0750
H10 H 0.6073 0.7553 0.0443
C16 C 0.6588(3) 0.7896(5) 0.12461(18)
C17 C 0.7464(3) 0.7284(5) 0.11996(19)
H11 H 0.7536 0.6690 0.0893
C18 C 0.8226(3) 0.7524(5) 0.1590(2)
C19 C 0.8127(3) 0.8368(6) 0.2060(2)
C20 C 0.7271(3) 0.9028(6) 0.2107(2)
H12 H 0.7208 0.9632 0.2413
C21 C 0.6496(3) 0.8809(5) 0.17071(18)
C22 C 0.5720(3) 0.8034(6) 0.3820(2)
H13 H 0.5723 0.9136 0.3702
H14 H 0.6301 0.7539 0.3766
C23 C 0.5579(4) 0.7929(7) 0.4407(2)
H15 H 0.5562 0.6820 0.4515
H16 H 0.4992 0.8416 0.4453
C24 C 0.2809(4) 0.4632(8) 0.2787(3)
H17 H 0.2320 0.5289 0.2605
H18 H 0.2573 0.3984 0.3053
H19 H 0.3043 0.3959 0.2526
C25 C 0.2979(5) 0.1643(10) 0.1116(3)
H20 H 0.3101 0.2282 0.1444
H21 H 0.2941 0.0534 0.1220
C26 C 0.2076(5) 0.2162(9) 0.0777(3)
H22 H 0.2144 0.3231 0.0640
H23 H 0.1588 0.2182 0.1003
Br3 Br 0.1730(3) 0.0703(6) 0.0167(2)
C29 C 0.6227(4) 0.1648(6) 0.0339(3)
H28 H 0.6287 0.2403 0.0056
H29 H 0.6314 0.0589 0.0209
H30 H 0.6687 0.1864 0.0647
C30 C 0.9743(4) 0.8129(7) 0.1445(3)
H31 H 1.0078 0.8405 0.1799
H32 H 0.9431 0.9078 0.1288
C31 C 1.0409(4) 0.7539(8) 0.1085(3)
H33 H 1.0791 0.8420 0.0997
H34 H 1.0062 0.7147 0.0748
C32 C 0.8844(4) 0.9403(8) 0.2919(2)
H35 H 0.8647 1.0470 0.2822
H36 H 0.9439 0.9435 0.3143
H37 H 0.8402 0.8907 0.3116
C27? C 0.2781(8) 0.212(2) 0.0930(8)
H24? H 0.2537 0.3115 0.0767
H25? H 0.2818 0.2220 0.1321
C28? C 0.2124(11) 0.077(2) 0.0729(5)
H26? H 0.1591 0.0784 0.0921
H27? H 0.2438 -0.0248 0.0803
Br4? Br 0.1716(6) 0.0983(9) -0.0043(4)
loop_
_geom_bond_atom_site_label_1
_geom_bond_atom_site_label_2
_geom_bond_site_symmetry_1
_geom_bond_site_symmetry_2
Br1 C23 1_555 1_555
Br2 C31 1_555 1_555
O1 C4 1_555 1_555
O2 C5 1_555 1_555
O3 C11 1_555 1_555
O4 C12 1_555 1_555
O5 C18 1_555 1_555
O6 C19 1_555 1_555
C1 H1 1_555 1_555
H2 C1 1_555 1_555
C2 C1 1_555 1_555
C3 C2 1_555 1_555
H3 C3 1_555 1_555
C4 C3 1_555 1_555
C5 C4 1_555 1_555
C6 C5 1_555 1_555
H4 C6 1_555 1_555
C7 C2 1_555 1_555
C8 C7 1_555 1_555
H5 C8 1_555 1_555
H6 C8 1_555 1_555
C9 C8 1_555 1_555
C10 C9 1_555 1_555
H7 C10 1_555 1_555
C11 C10 1_555 1_555
C12 C11 1_555 1_555
C13 C12 1_555 1_555
H8 C13 1_555 1_555
C14 C9 1_555 1_555
C15 C14 1_555 1_555
H9 C15 1_555 1_555
H10 C15 1_555 1_555
C16 C15 1_555 1_555
C17 C16 1_555 1_555
H11 C17 1_555 1_555
C18 C17 1_555 1_555
C19 C18 1_555 1_555
C20 C19 1_555 1_555
H12 C20 1_555 1_555
C21 C1 1_555 1_555
C22 O1 1_555 1_555
H13 C22 1_555 1_555
H14 C22 1_555 1_555
C23 C22 1_555 1_555
H15 C23 1_555 1_555
H16 C23 1_555 1_555
C24 O2 1_555 1_555
H17 C24 1_555 1_555
H18 C24 1_555 1_555
H19 C24 1_555 1_555
C25 O3 1_555 1_555
H20 C25 1_555 1_555
H21 C25 1_555 1_555
C26 C25 1_555 1_555
H22 C26 1_555 1_555
H23 C26 1_555 1_555
Br3 C26 1_555 1_555
C29 O4 1_555 1_555
H28 C29 1_555 1_555
H29 C29 1_555 1_555
H30 C29 1_555 1_555
C30 O5 1_555 1_555
H31 C30 1_555 1_555
H32 C30 1_555 1_555
C31 C30 1_555 1_555
H33 C31 1_555 1_555
H34 C31 1_555 1_555
C32 O6 1_555 1_555
H35 C32 1_555 1_555
H36 C32 1_555 1_555
H37 C32 1_555 1_555
C6 C7 1_555 1_555
C13 C14 1_555 1_555
C16 C21 1_555 1_555
C20 C21 1_555 1_555

#END
