
#######################################################################
#
#                 Cambridge Crystallographic Data Centre
#                                CCDC 
#
#######################################################################
#
# If this CIF has been generated from an entry in the Cambridge 
# Structural Database, then it will include bibliographic, chemical, 
# crystal, experimental, refinement or atomic coordinate data resulting 
# from the CCDC's data processing and validation procedures.
#
#######################################################################

data_IPUWEW
_chemical_name_common            
't-Butyl (3-hydroxy-1-(2-(3-nitrobenzylidene)hydrazino)-1-oxopropan-2-yl)carbamate'
_chemical_formula_moiety         'C15 H20 N4 O6'
_chemical_name_systematic        
't-butyl (1S)-1-(hydroxymethyl)-2-[(2E)-2-(3-nitrobenzylidene)hydrazino]-2-oxoethylcarbamate'
_symmetry_cell_setting           triclinic
_symmetry_space_group_name_H-M   'P 1'
_symmetry_Int_Tables_number      1
_space_group_name_Hall           'P 1'
loop_
_symmetry_equiv_pos_site_id
_symmetry_equiv_pos_as_xyz
1 x,y,z
_cell_length_a                   5.1176(8)
_cell_length_b                   6.1315(9)
_cell_length_c                   13.670(2)
_cell_angle_alpha                80.794(9)
_cell_angle_beta                 89.478(7)
_cell_angle_gamma                83.857(10)
_cell_volume                     420.975
_exptl_crystal_colour            colorless
_exptl_crystal_description       plate
_cell_formula_units_Z            1
loop_
_atom_site_label
_atom_site_type_symbol
_atom_site_fract_x
_atom_site_fract_y
_atom_site_fract_z
O1 O 0.4082(7) 0.9077(6) 0.4861(3)
O2 O 0.9083(8) 1.1490(6) 0.4653(3)
H1 H 1.060(15) 1.072(12) 0.481(5)
O3 O 1.2330(7) 0.6731(7) 0.2887(3)
O4 O 0.9403(7) 0.5624(8) 0.1863(3)
O5 O -0.3751(8) 0.5418(7) 0.8083(3)
O6 O -0.4938(8) 0.2465(7) 0.8983(3)
N1 N 0.3827(8) 0.4811(8) 0.5759(3)
N2 N 0.5839(9) 0.5455(8) 0.5129(4)
H2 H 0.705(13) 0.443(11) 0.493(5)
N3 N 0.7923(8) 0.7108(8) 0.3155(4)
H3 H 0.645(14) 0.688(10) 0.294(5)
N4 N -0.3532(9) 0.3390(8) 0.8367(4)
C1 C 0.2184(10) 0.1781(9) 0.6825(4)
C2 C 0.0152(10) 0.3096(9) 0.7205(4)
H4 H -0.0142 0.4650 0.6977
C3 C -0.1416(10) 0.2063(9) 0.7924(4)
C4 C -0.1107(10) -0.0217(9) 0.8285(4)
H5 H -0.2248 -0.0870 0.8773
C5 C 0.0939(11) -0.1477(9) 0.7900(4)
H6 H 0.1239 -0.3028 0.8133
C6 C 0.2555(10) -0.0502(9) 0.7177(4)
H7 H 0.3935 -0.1397 0.6917
C7 C 0.4060(10) 0.2727(9) 0.6109(4)
H8 H 0.5476 0.1784 0.5899
C8 C 0.5815(9) 0.7607(9) 0.4718(4)
C9 C 0.8153(10) 0.8104(8) 0.4048(4)
H9 H 0.9792 0.7387 0.4410
C10 C 0.8356(10) 1.0581(8) 0.3804(4)
H10 H 0.9680 1.0858 0.3279
H11 H 0.6642 1.1346 0.3544
C11 C 1.0102(9) 0.6514(9) 0.2645(4)
C12 C 1.1411(10) 0.5037(10) 0.1131(4)
C13 C 1.3388(11) 0.3144(10) 0.1611(5)
H12 H 1.4560 0.3708 0.2052
H13 H 1.4425 0.2522 0.1096
H14 H 1.2451 0.1984 0.1995
C14 C 0.9743(12) 0.4190(13) 0.0376(5)
H15 H 0.8900 0.2909 0.0705
H16 H 1.0869 0.3744 -0.0157
H17 H 0.8391 0.5375 0.0097
C15 C 1.2653(12) 0.7072(11) 0.0648(5)
H18 H 1.1279 0.8309 0.0467
H19 H 1.3592 0.6744 0.0052
H20 H 1.3890 0.7478 0.1114
loop_
_geom_bond_atom_site_label_1
_geom_bond_atom_site_label_2
_geom_bond_site_symmetry_1
_geom_bond_site_symmetry_2
O1 C8 1_555 1_555
O2 H1 1_555 1_555
O3 C11 1_555 1_555
O4 C11 1_555 1_555
O5 N4 1_555 1_555
O6 N4 1_555 1_555
N1 N2 1_555 1_555
N2 H2 1_555 1_555
N3 H3 1_555 1_555
N4 C3 1_555 1_555
C1 C2 1_555 1_555
C2 H4 1_555 1_555
C3 C2 1_555 1_555
C4 C3 1_555 1_555
H5 C4 1_555 1_555
C5 C4 1_555 1_555
H6 C5 1_555 1_555
C6 C1 1_555 1_555
H7 C6 1_555 1_555
C7 N1 1_555 1_555
H8 C7 1_555 1_555
C8 N2 1_555 1_555
C9 N3 1_555 1_555
H9 C9 1_555 1_555
C10 O2 1_555 1_555
H10 C10 1_555 1_555
H11 C10 1_555 1_555
C11 N3 1_555 1_555
C12 O4 1_555 1_555
C13 C12 1_555 1_555
H12 C13 1_555 1_555
H13 C13 1_555 1_555
H14 C13 1_555 1_555
C14 C12 1_555 1_555
H15 C14 1_555 1_555
H16 C14 1_555 1_555
H17 C14 1_555 1_555
C15 C12 1_555 1_555
H18 C15 1_555 1_555
H19 C15 1_555 1_555
H20 C15 1_555 1_555
C1 C7 1_555 1_555
C5 C6 1_555 1_555
C8 C9 1_555 1_555
C9 C10 1_555 1_555

#END
