
#######################################################################
#
#                 Cambridge Crystallographic Data Centre
#                                CCDC 
#
#######################################################################
#
# If this CIF has been generated from an entry in the Cambridge 
# Structural Database, then it will include bibliographic, chemical, 
# crystal, experimental, refinement or atomic coordinate data resulting 
# from the CCDC's data processing and validation procedures.
#
#######################################################################

data_IQACIO
_chemical_formula_moiety         'C19 H21 N1 O6 S1'
_chemical_name_systematic        
'4-(4-methyl-5-oxohexan-3-yl)phenyl 2-nitrobenzenesulfonate'
_symmetry_cell_setting           monoclinic
_symmetry_space_group_name_H-M   'P 21/c'
_symmetry_Int_Tables_number      14
_space_group_name_Hall           '-P 2ybc'
loop_
_symmetry_equiv_pos_site_id
_symmetry_equiv_pos_as_xyz
1 x,y,z
2 -x,1/2+y,1/2-z
3 -x,-y,-z
4 x,1/2-y,1/2+z
_cell_length_a                   15.924(5)
_cell_length_b                   8.289(2)
_cell_length_c                   15.498(6)
_cell_angle_alpha                90
_cell_angle_beta                 99.130(6)
_cell_angle_gamma                90
_cell_volume                     2019.73
_cell_formula_units_Z            4
loop_
_atom_site_label
_atom_site_type_symbol
_atom_site_fract_x
_atom_site_fract_y
_atom_site_fract_z
S1 S 0.16134(5) 0.02640(9) 0.14060(6)
O1 O 0.22343(13) 0.1424(3) 0.20128(15)
C1 C 0.07046(17) 0.1443(3) 0.10350(19)
O2 O 0.13914(15) -0.0947(3) 0.19753(18)
C2 C 0.26186(17) 0.2724(4) 0.1598(2)
O3 O 0.19793(16) -0.0177(3) 0.06647(19)
C3 C 0.34091(19) 0.5269(4) 0.0909(2)
N1 N 0.01545(18) 0.1311(3) 0.24613(19)
C4 C 0.00700(17) 0.1783(4) 0.15288(17)
C5 C 0.2673(2) 0.5488(4) 0.1266(2)
H1 H 0.2443 0.6519 0.1271
O4 O -0.04175(19) 0.0550(4) 0.26806(19)
C6 C 0.0585(2) 0.2002(4) 0.0174(2)
H2 H 0.0994 0.1796 -0.0179
O5 O 0.07836(19) 0.1733(4) 0.29548(17)
C7 C 0.22710(17) 0.4227(4) 0.1614(2)
H3 H 0.1778 0.4396 0.1853
C8 C 0.33489(19) 0.2456(4) 0.1263(2)
H4 H 0.3584 0.1427 0.1275
C9 C 0.3731(2) 0.3718(4) 0.0911(3)
H5 H 0.4220 0.3530 0.0667
C10 C -0.0651(2) 0.2607(5) 0.1201(2)
H6 H -0.1072 0.2784 0.1543
C11 C -0.0746(2) 0.3174(5) 0.0354(2)
H7 H -0.1226 0.3772 0.0130
O6 O 0.4584(2) 0.8510(4) -0.0780(3)
C12 C 0.3843(3) 0.8613(6) -0.0707(3)
C13 C 0.3861(2) 0.6643(4) 0.0534(2)
H8 H 0.4371 0.6159 0.0365
C14 C -0.0142(2) 0.2862(5) -0.0158(2)
H9 H -0.0218 0.3229 -0.0732
C15 C 0.4183(3) 0.7867(5) 0.1211(3)
H10 H 0.4029 0.8947 0.1140
C16 C 0.3364(3) 0.7283(6) -0.0299(3)
H11 H 0.2849 0.7781 -0.0147
C17 C 0.3337(4) 1.0044(8) -0.1033(5)
H12 H 0.3692 1.0796 -0.1279
H13 H 0.3116 1.0548 -0.0558
H14 H 0.2874 0.9720 -0.1473
C18 C 0.3074(3) 0.6069(7) -0.1018(3)
H15 H 0.2765 0.5215 -0.0791
H16 H 0.3561 0.5629 -0.1229
H17 H 0.2712 0.6594 -0.1489
C19 C 0.4753(4) 0.7311(7) 0.1997(4)
H18 H 0.4906 0.8209 0.2381
H19 H 0.5256 0.6851 0.1830
H20 H 0.4467 0.6511 0.2292
loop_
_geom_bond_atom_site_label_1
_geom_bond_atom_site_label_2
_geom_bond_site_symmetry_1
_geom_bond_site_symmetry_2
S1 O1 1_555 1_555
O1 C2 1_555 1_555
C1 S1 1_555 1_555
O2 S1 1_555 1_555
C2 C7 1_555 1_555
O3 S1 1_555 1_555
C3 C5 1_555 1_555
N1 C4 1_555 1_555
C4 C1 1_555 1_555
C5 H1 1_555 1_555
O4 N1 1_555 1_555
C6 C1 1_555 1_555
H2 C6 1_555 1_555
O5 N1 1_555 1_555
C7 C5 1_555 1_555
H3 C7 1_555 1_555
C8 C2 1_555 1_555
H4 C8 1_555 1_555
C9 C3 1_555 1_555
H5 C9 1_555 1_555
C10 C4 1_555 1_555
H6 C10 1_555 1_555
C11 C10 1_555 1_555
H7 C11 1_555 1_555
O6 C12 1_555 1_555
C12 C16 1_555 1_555
C13 C3 1_555 1_555
H8 C13 1_555 1_555
C14 C6 1_555 1_555
H9 C14 1_555 1_555
C15 C13 1_555 1_555
H10 C15 1_555 1_555
C16 C13 1_555 1_555
H11 C16 1_555 1_555
C17 C12 1_555 1_555
H12 C17 1_555 1_555
H13 C17 1_555 1_555
H14 C17 1_555 1_555
C18 C16 1_555 1_555
H15 C18 1_555 1_555
H16 C18 1_555 1_555
H17 C18 1_555 1_555
C19 C15 1_555 1_555
H18 C19 1_555 1_555
H19 C19 1_555 1_555
H20 C19 1_555 1_555
C8 C9 1_555 1_555
C11 C14 1_555 1_555

#END
