
#######################################################################
#
#                 Cambridge Crystallographic Data Centre
#                                CCDC 
#
#######################################################################
#
# If this CIF has been generated from an entry in the Cambridge 
# Structural Database, then it will include bibliographic, chemical, 
# crystal, experimental, refinement or atomic coordinate data resulting 
# from the CCDC's data processing and validation procedures.
#
#######################################################################

data_IQAGAK
_chemical_compound_source        'stems and leaves of Physalis angulata L.'
_chemical_name_common            'Physangulatin A monohydrate'
_chemical_formula_moiety         'C28 H38 O7,H2 O1'
_chemical_name_systematic        
'5,6,14,15-tetrahydroxy-22,26-epoxyergosta-2,16,24-triene-1,26-dione monohydrate'
_symmetry_cell_setting           monoclinic
_symmetry_space_group_name_H-M   'P 21'
_symmetry_Int_Tables_number      4
_space_group_name_Hall           'P 2yb'
loop_
_symmetry_equiv_pos_site_id
_symmetry_equiv_pos_as_xyz
1 x,y,z
2 -x,1/2+y,-z
_cell_length_a                   10.3465(3)
_cell_length_b                   12.0928(4)
_cell_length_c                   11.1061(4)
_cell_angle_alpha                90
_cell_angle_beta                 112.619(4)
_cell_angle_gamma                90
_cell_volume                     1282.69
_cell_formula_units_Z            2
loop_
_atom_site_label
_atom_site_type_symbol
_atom_site_fract_x
_atom_site_fract_y
_atom_site_fract_z
O1 O 0.37738(19) 0.47111(16) 0.76628(17)
H1 H 0.4063 0.4048 0.7886
H2 H 0.4461 0.5098 0.7643
O2 O 0.6437(2) 0.00829(16) 1.00136(18)
H3 H 0.6467 0.0154 1.0758
O3 O 0.68210(19) 0.27635(15) 0.60256(17)
O4 O 0.35923(18) 0.05110(16) 1.20356(18)
H4 H 0.3250 0.0204 1.2501
O5 O 0.24432(19) 0.31814(16) 1.0557(2)
H5 H 0.2868 0.3749 1.0535
O6 O 0.54267(19) 0.28952(15) 0.86706(18)
H6 H 0.6258 0.3004 0.9111
O7 O 0.1772(2) -0.12473(16) 0.9596(2)
O8 O 0.7405(2) 0.45289(17) 0.62064(18)
C1 C 0.4578(3) 0.2191(2) 1.0761(2)
H7 H 0.5268 0.1678 1.1323
H8 H 0.5041 0.2892 1.0781
C2 C 0.3206(3) 0.0636(2) 0.9241(2)
H9 H 0.3875 0.0084 0.9777
C3 C 0.1395(3) 0.1460(2) 1.1654(3)
H10 H 0.1792 0.1582 1.2589
H11 H 0.0877 0.2119 1.1246
C4 C 0.5101(3) 0.1745(2) 0.8757(2)
C5 C 0.1444(3) -0.0369(2) 0.9955(2)
C6 C 0.2025(3) 0.0765(2) 0.9774(3)
C7 C 0.0426(3) -0.0340(2) 1.0592(3)
H12 H -0.0209 -0.0917 1.0455
C8 C 0.3840(3) 0.0136(2) 0.7320(3)
H13 H 0.3462 -0.0141 0.6432
H14 H 0.4519 -0.0397 0.7855
C9 C 0.2588(3) 0.1286(2) 1.1177(2)
C10 C 0.3417(3) 0.2351(2) 1.1270(2)
H15 H 0.3841 0.2577 1.2187
C11 C 0.8414(3) 0.2495(2) 0.4486(2)
C12 C 0.2653(3) 0.0244(2) 0.7815(3)
H16 H 0.2194 -0.0466 0.7745
H17 H 0.1964 0.0768 0.7273
C13 C 0.6526(2) 0.1148(2) 0.9489(2)
H18 H 0.7175 0.1628 1.0162
C14 C 0.0403(3) 0.0497(2) 1.1356(3)
H19 H -0.0263 0.0486 1.1728
C15 C 0.3993(3) 0.1740(2) 0.9357(2)
H20 H 0.3281 0.2275 0.8847
C16 C 0.7023(3) 0.0967(2) 0.8389(3)
H21 H 0.7949 0.0825 0.8513
C17 C 0.7210(3) 0.1644(2) 0.5797(2)
H22 H 0.8120 0.1465 0.6482
C18 C 0.6117(3) 0.0861(2) 0.5925(2)
H23 H 0.5212 0.1029 0.5227
C19 C 0.4587(3) 0.1251(2) 0.7353(2)
C20 C 0.3630(3) 0.2045(2) 0.6312(3)
H24 H 0.2893 0.2300 0.6566
H25 H 0.3231 0.1666 0.5491
H26 H 0.4167 0.2666 0.6226
C21 C 0.7605(3) 0.3605(2) 0.5882(2)
C22 C 0.8609(3) 0.3390(2) 0.5248(3)
C23 C 0.5983(3) 0.1034(2) 0.7228(3)
C24 C 0.9665(3) 0.4296(3) 0.5398(3)
H27 H 1.0218 0.4112 0.4902
H28 H 1.0265 0.4371 0.6302
H29 H 0.9184 0.4981 0.5086
C25 C 0.7363(3) 0.1631(2) 0.4496(3)
H30 H 0.7673 0.0906 0.4345
H31 H 0.6464 0.1781 0.3801
C26 C 0.0769(3) 0.1420(2) 0.8791(3)
H32 H 0.1112 0.2048 0.8474
H33 H 0.0173 0.1667 0.9220
H34 H 0.0247 0.0949 0.8073
C27 C 0.9158(3) 0.2279(3) 0.3578(3)
H35 H 0.9607 0.2945 0.3471
H36 H 0.8492 0.2042 0.2746
H37 H 0.9849 0.1712 0.3940
C28 C 0.6491(3) -0.0345(3) 0.5772(3)
H38 H 0.6523 -0.0445 0.4927
H39 H 0.5794 -0.0826 0.5861
H40 H 0.7389 -0.0517 0.6434
loop_
_geom_bond_atom_site_label_1
_geom_bond_atom_site_label_2
_geom_bond_site_symmetry_1
_geom_bond_site_symmetry_2
O1 H1 1_555 1_555
H2 O1 1_555 1_555
O2 H3 1_555 1_555
O3 C17 1_555 1_555
O4 H4 1_555 1_555
O5 H5 1_555 1_555
O6 H6 1_555 1_555
O7 C5 1_555 1_555
O8 C21 1_555 1_555
C1 H7 1_555 1_555
H8 C1 1_555 1_555
C2 H9 1_555 1_555
C3 H10 1_555 1_555
H11 C3 1_555 1_555
C4 O6 1_555 1_555
C5 C6 1_555 1_555
C6 C2 1_555 1_555
C7 C5 1_555 1_555
H12 C7 1_555 1_555
C8 H13 1_555 1_555
H14 C8 1_555 1_555
C9 O4 1_555 1_555
C10 O5 1_555 1_555
H15 C10 1_555 1_555
C11 C22 1_555 1_555
C12 C2 1_555 1_555
H16 C12 1_555 1_555
H17 C12 1_555 1_555
C13 O2 1_555 1_555
H18 C13 1_555 1_555
C14 C3 1_555 1_555
H19 C14 1_555 1_555
C15 C1 1_555 1_555
H20 C15 1_555 1_555
C16 C13 1_555 1_555
H21 C16 1_555 1_555
C17 H22 1_555 1_555
C18 C17 1_555 1_555
H23 C18 1_555 1_555
C19 C4 1_555 1_555
C20 C19 1_555 1_555
H24 C20 1_555 1_555
H25 C20 1_555 1_555
H26 C20 1_555 1_555
C21 O3 1_555 1_555
C22 C21 1_555 1_555
C23 C16 1_555 1_555
C24 C22 1_555 1_555
H27 C24 1_555 1_555
H28 C24 1_555 1_555
H29 C24 1_555 1_555
C25 C11 1_555 1_555
H30 C25 1_555 1_555
H31 C25 1_555 1_555
C26 C6 1_555 1_555
H32 C26 1_555 1_555
H33 C26 1_555 1_555
H34 C26 1_555 1_555
C27 C11 1_555 1_555
H35 C27 1_555 1_555
H36 C27 1_555 1_555
H37 C27 1_555 1_555
C28 C18 1_555 1_555
H38 C28 1_555 1_555
H39 C28 1_555 1_555
H40 C28 1_555 1_555
C1 C10 1_555 1_555
C2 C15 1_555 1_555
C3 C9 1_555 1_555
C4 C13 1_555 1_555
C4 C15 1_555 1_555
C6 C9 1_555 1_555
C7 C14 1_555 1_555
C8 C12 1_555 1_555
C8 C19 1_555 1_555
C9 C10 1_555 1_555
C17 C25 1_555 1_555
C18 C23 1_555 1_555
C19 C23 1_555 1_555

#END
