
#######################################################################
#
#                 Cambridge Crystallographic Data Centre
#                                CCDC 
#
#######################################################################
#
# If this CIF has been generated from an entry in the Cambridge 
# Structural Database, then it will include bibliographic, chemical, 
# crystal, experimental, refinement or atomic coordinate data resulting 
# from the CCDC's data processing and validation procedures.
#
#######################################################################

data_IQANOD
_chemical_formula_moiety         'C56 H104 O18 Sr2'
_chemical_name_systematic        
bis(\m~2~-1-(2-(Methoxy)ethoxy)-2,2,6,6-tetramethyl-heptane-3,5-dionato)-bis(1-(2-hydroxyethoxy)-2,2,6,6-tetramethyl-heptane-3,5-dionato)-bis(methanol)-di-strontium
_symmetry_cell_setting           monoclinic
_symmetry_space_group_name_H-M   'P 21/n'
_symmetry_Int_Tables_number      14
_space_group_name_Hall           '-P 2yn'
loop_
_symmetry_equiv_pos_site_id
_symmetry_equiv_pos_as_xyz
1 x,y,z
2 1/2-x,1/2+y,1/2-z
3 -x,-y,-z
4 1/2+x,1/2-y,1/2+z
_cell_length_a                   11.5388(12)
_cell_length_b                   14.1786(13)
_cell_length_c                   21.534(2)
_cell_angle_alpha                90
_cell_angle_beta                 95.176(2)
_cell_angle_gamma                90
_cell_volume                     3508.68
_exptl_crystal_colour            colorless
_cell_formula_units_Z            2
loop_
_atom_site_label
_atom_site_type_symbol
_atom_site_fract_x
_atom_site_fract_y
_atom_site_fract_z
Sr1 Sr 0.4612(1) 0.6369(1) 0.5266(1)
O1 O 0.6604(3) 0.6585(2) 0.4848(1)
O2 O 0.4983(2) 0.5314(2) 0.4316(1)
O3 O 0.5826(3) 0.6329(2) 0.6394(1)
O4 O 0.5562(3) 0.7998(2) 0.5736(2)
O5 O 0.3077(3) 0.7220(2) 0.5784(1)
O6 O 0.3520(3) 0.7403(2) 0.4528(1)
O7 O 0.3434(4) 0.9109(4) 0.3053(2)
O8 O 0.5481(11) 1.0183(10) 0.1989(6)
O9 O 0.2800(3) 0.5296(2) 0.5047(2)
C1 C 0.7373(8) 0.8420(5) 0.4566(4)
C2 C 0.8826(6) 0.7136(7) 0.4492(4)
C3 C 0.7796(6) 0.7798(5) 0.3526(3)
C4 C 0.7681(6) 0.7539(5) 0.4197(3)
C5 C 0.6737(4) 0.6793(3) 0.4284(2)
C6 C 0.6122(4) 0.6362(3) 0.3777(2)
C7 C 0.5302(4) 0.5642(3) 0.3812(2)
C8 C 0.4749(4) 0.5200(3) 0.3200(2)
C9 C 0.5691(5) 0.4658(4) 0.2875(2)
C10 C 0.4219(5) 0.5971(4) 0.2767(2)
C11 C 0.6240(4) 0.5460(4) 0.6671(2)
C12 C 0.6696(6) 0.7044(5) 0.6440(3)
C13 C 0.6129(7) 0.7972(5) 0.6332(3)
C14 C 0.5069(6) 0.8885(4) 0.5589(3)
C15 C 0.0630(12) 0.7518(10) 0.6181(6)
C16 C 0.2238(9) 0.8085(11) 0.6743(3)
C17 C 0.1061(14) 0.9046(8) 0.6076(5)
C18 C 0.1595(6) 0.8174(5) 0.6156(2)
C19 C 0.2325(5) 0.7829(3) 0.5634(2)
C20 C 0.2098(4) 0.8221(3) 0.5032(2)
C21 C 0.2708(4) 0.8000(3) 0.4523(2)
C22 C 0.2403(5) 0.8482(4) 0.3888(2)
C23 C 0.1675(5) 0.7790(5) 0.3485(3)
C24 C 0.1769(6) 0.9422(4) 0.3934(3)
C25 C 0.3583(5) 0.8666(4) 0.3628(2)
C26 C 0.4613(8) 0.9193(7) 0.2775(4)
C27 C 0.4513(9) 0.9923(10) 0.2298(6)
C28 C 0.1655(6) 0.5485(5) 0.4863(4)
H1 H 0.6125 0.9779 0.2120
H2 H 0.6656 0.8683 0.4383
H3 H 0.7983 0.8878 0.4556
H4 H 0.7288 0.8247 0.4991
H5 H 0.9440 0.7583 0.4450
H6 H 0.8997 0.6560 0.4285
H7 H 0.8762 0.7013 0.4926
H8 H 0.7076 0.8061 0.3346
H9 H 0.7978 0.7244 0.3298
H10 H 0.8407 0.8254 0.3507
H11 H 0.6273 0.6575 0.3369
H12 H 0.6317 0.5079 0.2803
H13 H 0.5356 0.4413 0.2484
H14 H 0.5984 0.4147 0.3136
H15 H 0.4816 0.6405 0.2672
H16 H 0.3632 0.6301 0.2969
H17 H 0.3876 0.5690 0.2388
H18 H 0.6732 0.5152 0.6397
H19 H 0.6699 0.5593 0.7055
H20 H 0.7113 0.7030 0.6846
H21 H 0.7240 0.6937 0.6135
H22 H 0.6702 0.8463 0.6377
H23 H 0.5579 0.8074 0.6634
H24 H 0.4704 0.8875 0.5171
H25 H 0.4498 0.9027 0.5873
H26 H 0.5667 0.9357 0.5624
H27 H 0.0927 0.6888 0.6239
H28 H 0.0137 0.7550 0.5797
H29 H 0.0189 0.7682 0.6522
H30 H 0.2588 0.7470 0.6777
H31 H 0.1728 0.8165 0.7067
H32 H 0.2836 0.8558 0.6784
H33 H 0.0629 0.9071 0.5674
H34 H 0.1641 0.9533 0.6105
H35 H 0.0541 0.9138 0.6395
H36 H 0.1478 0.8671 0.4969
H37 H 0.1472 0.8063 0.3083
H38 H 0.0979 0.7644 0.3679
H39 H 0.2112 0.7222 0.3439
H40 H 0.2246 0.9848 0.4192
H41 H 0.1047 0.9321 0.4114
H42 H 0.1614 0.9688 0.3525
H43 H 0.4055 0.9055 0.3915
H44 H 0.3981 0.8078 0.3587
H45 H 0.5212 0.9356 0.3096
H46 H 0.4814 0.8602 0.2595
H47 H 0.3916 0.9727 0.1985
H48 H 0.4234 1.0482 0.2487
H49 H 0.1226 0.4905 0.4825
H50 H 0.1600 0.5801 0.4467
H51 H 0.1339 0.5881 0.5167
O2B O 0.5017(2) 0.4686(2) 0.5684(1)
Sr1B Sr 0.5388(1) 0.3631(1) 0.4734(1)
O1B O 0.3396(3) 0.3415(2) 0.5152(1)
C5B C 0.3263(4) 0.3207(3) 0.5716(2)
C4B C 0.2319(6) 0.2461(5) 0.5803(3)
C1B C 0.2627(8) 0.1580(5) 0.5434(4)
H2B H 0.3344 0.1317 0.5617
H3B H 0.2017 0.1122 0.5444
H4B H 0.2712 0.1753 0.5009
C2B C 0.1174(6) 0.2864(7) 0.5508(4)
H5B H 0.0560 0.2417 0.5550
H6B H 0.1003 0.3440 0.5715
H7B H 0.1238 0.2987 0.5074
C3B C 0.2204(6) 0.2202(5) 0.6474(3)
H8B H 0.2924 0.1939 0.6654
H9B H 0.2022 0.2756 0.6702
H10B H 0.1593 0.1746 0.6493
C6B C 0.3878(4) 0.3638(3) 0.6223(2)
C7B C 0.4698(4) 0.4358(3) 0.6188(2)
C8B C 0.5251(4) 0.4800(3) 0.6800(2)
C9B C 0.4309(5) 0.5342(4) 0.7125(2)
H12B H 0.3683 0.4921 0.7197
H13B H 0.4644 0.5587 0.7516
H14B H 0.4016 0.5853 0.6864
C10B C 0.5781(5) 0.4029(4) 0.7233(2)
H15B H 0.5184 0.3595 0.7328
H16B H 0.6368 0.3699 0.7031
H17B H 0.6124 0.4310 0.7612
H11B H 0.3727 0.3425 0.6631
O3B O 0.4174(3) 0.3671(2) 0.3606(1)
C11B C 0.3760(4) 0.4540(4) 0.3329(2)
H18B H 0.3268 0.4848 0.3603
H19B H 0.3301 0.4407 0.2945
C12B C 0.3304(6) 0.2956(5) 0.3560(3)
C13B C 0.3871(7) 0.2028(5) 0.3668(3)
O4B O 0.4438(3) 0.2002(2) 0.4264(2)
O5B O 0.6923(3) 0.2780(2) 0.4216(1)
C19B C 0.7675(5) 0.2171(3) 0.4366(2)
C18B C 0.8405(6) 0.1826(5) 0.3844(2)
C15B C 0.9370(12) 0.2482(10) 0.3819(6)
H27B H 0.9073 0.3112 0.3761
H28B H 0.9863 0.2450 0.4203
H29B H 0.9811 0.2318 0.3478
C16B C 0.7762(9) 0.1915(11) 0.3257(3)
H30B H 0.7412 0.2530 0.3223
H31B H 0.8272 0.1835 0.2933
H32B H 0.7164 0.1442 0.3216
C17B C 0.8939(14) 0.0954(8) 0.3924(5)
H33B H 0.9371 0.0929 0.4326
H34B H 0.8359 0.0467 0.3895
H35B H 0.9459 0.0862 0.3605
C20B C 0.7902(4) 0.1779(3) 0.4968(2)
C21B C 0.7292(4) 0.2000(3) 0.5477(2)
O6B O 0.6480(3) 0.2597(2) 0.5472(1)
O9B O 0.7200(3) 0.4704(2) 0.4953(2)
C28B C 0.8345(6) 0.4515(5) 0.5137(4)
H49B H 0.8774 0.5095 0.5175
H50B H 0.8400 0.4199 0.5533
H51B H 0.8661 0.4119 0.4833
C22B C 0.7597(5) 0.1518(4) 0.6112(2)
C23B C 0.8325(5) 0.2210(5) 0.6515(3)
H37B H 0.8528 0.1937 0.6917
H38B H 0.9021 0.2356 0.6321
H39B H 0.7888 0.2778 0.6561
C24B C 0.8231(6) 0.0578(4) 0.6066(3)
H40B H 0.7754 0.0152 0.5808
H41B H 0.8953 0.0679 0.5886
H42B H 0.8386 0.0312 0.6475
C25B C 0.6417(5) 0.1334(4) 0.6372(2)
O7B O 0.6566(4) 0.0891(4) 0.6947(2)
C26B C 0.5387(8) 0.0807(7) 0.7225(4)
C27B C 0.5487(9) 0.0077(10) 0.7702(6)
O8B O 0.4519(11) -0.0183(10) 0.8011(6)
H1B H 0.3875 0.0221 0.7880
H47B H 0.6084 0.0273 0.8015
H48B H 0.5766 -0.0482 0.7513
H45B H 0.4788 0.0644 0.6904
H46B H 0.5186 0.1398 0.7405
H43B H 0.5945 0.0945 0.6085
H44B H 0.6019 0.1922 0.6413
H36B H 0.8522 0.1329 0.5031
C14B C 0.4931(6) 0.1115(4) 0.4411(3)
H24B H 0.5296 0.1125 0.4829
H25B H 0.5502 0.0973 0.4127
H26B H 0.4333 0.0643 0.4376
H22B H 0.3298 0.1537 0.3623
H23B H 0.4421 0.1926 0.3366
H20B H 0.2887 0.2970 0.3154
H21B H 0.2760 0.3063 0.3865
loop_
_geom_bond_atom_site_label_1
_geom_bond_atom_site_label_2
_geom_bond_site_symmetry_1
_geom_bond_site_symmetry_2
Sr1 O1 1_555 1_555
O1 C5 1_555 1_555
O2 Sr1 1_555 1_555
O3 Sr1 1_555 1_555
O4 Sr1 1_555 1_555
O5 Sr1 1_555 1_555
O6 Sr1 1_555 1_555
O7 C25 1_555 1_555
O8 C27 1_555 1_555
O9 Sr1 1_555 1_555
C1 C4 1_555 1_555
C2 C4 1_555 1_555
C3 C4 1_555 1_555
C4 C5 1_555 1_555
C5 C6 1_555 1_555
C6 C7 1_555 1_555
C7 O2 1_555 1_555
C8 C7 1_555 1_555
C9 C8 1_555 1_555
C10 C8 1_555 1_555
C11 O3 1_555 1_555
C12 O3 1_555 1_555
C13 O4 1_555 1_555
C14 O4 1_555 1_555
C15 C18 1_555 1_555
C16 C18 1_555 1_555
C17 C18 1_555 1_555
C18 C19 1_555 1_555
C19 O5 1_555 1_555
C20 C19 1_555 1_555
C21 O6 1_555 1_555
C22 C21 1_555 1_555
C23 C22 1_555 1_555
C24 C22 1_555 1_555
C25 C22 1_555 1_555
C26 O7 1_555 1_555
C27 C26 1_555 1_555
C28 O9 1_555 1_555
H1 O8 1_555 1_555
H2 C1 1_555 1_555
H3 C1 1_555 1_555
H4 C1 1_555 1_555
H5 C2 1_555 1_555
H6 C2 1_555 1_555
H7 C2 1_555 1_555
H8 C3 1_555 1_555
H9 C3 1_555 1_555
H10 C3 1_555 1_555
H11 C6 1_555 1_555
H12 C9 1_555 1_555
H13 C9 1_555 1_555
H14 C9 1_555 1_555
H15 C10 1_555 1_555
H16 C10 1_555 1_555
H17 C10 1_555 1_555
H18 C11 1_555 1_555
H19 C11 1_555 1_555
H20 C12 1_555 1_555
H21 C12 1_555 1_555
H22 C13 1_555 1_555
H23 C13 1_555 1_555
H24 C14 1_555 1_555
H25 C14 1_555 1_555
H26 C14 1_555 1_555
H27 C15 1_555 1_555
H28 C15 1_555 1_555
H29 C15 1_555 1_555
H30 C16 1_555 1_555
H31 C16 1_555 1_555
H32 C16 1_555 1_555
H33 C17 1_555 1_555
H34 C17 1_555 1_555
H35 C17 1_555 1_555
H36 C20 1_555 1_555
H37 C23 1_555 1_555
H38 C23 1_555 1_555
H39 C23 1_555 1_555
H40 C24 1_555 1_555
H41 C24 1_555 1_555
H42 C24 1_555 1_555
H43 C25 1_555 1_555
H44 C25 1_555 1_555
H45 C26 1_555 1_555
H46 C26 1_555 1_555
H47 C27 1_555 1_555
H48 C27 1_555 1_555
H49 C28 1_555 1_555
H50 C28 1_555 1_555
H51 C28 1_555 1_555
O2B Sr1 1_555 1_555
Sr1B O2 1_555 1_555
O1B Sr1B 1_555 1_555
C5B O1B 1_555 1_555
C4B C5B 1_555 1_555
C1B C4B 1_555 1_555
H2B C1B 1_555 1_555
H3B C1B 1_555 1_555
H4B C1B 1_555 1_555
C2B C4B 1_555 1_555
H5B C2B 1_555 1_555
H6B C2B 1_555 1_555
H7B C2B 1_555 1_555
C3B C4B 1_555 1_555
H8B C3B 1_555 1_555
H9B C3B 1_555 1_555
H10B C3B 1_555 1_555
C6B C5B 1_555 1_555
C7B O2B 1_555 1_555
C8B C11 1_555 1_555
C9B C8B 1_555 1_555
H12B C9B 1_555 1_555
H13B C9B 1_555 1_555
H14B C9B 1_555 1_555
C10B C8B 1_555 1_555
H15B C10B 1_555 1_555
H16B C10B 1_555 1_555
H17B C10B 1_555 1_555
H11B C6B 1_555 1_555
O3B Sr1B 1_555 1_555
C11B C8 1_555 1_555
H18B C11B 1_555 1_555
H19B C11B 1_555 1_555
C12B O3B 1_555 1_555
C13B C12B 1_555 1_555
O4B Sr1B 1_555 1_555
O5B Sr1B 1_555 1_555
C19B O5B 1_555 1_555
C18B C19B 1_555 1_555
C15B C18B 1_555 1_555
H27B C15B 1_555 1_555
H28B C15B 1_555 1_555
H29B C15B 1_555 1_555
C16B C18B 1_555 1_555
H30B C16B 1_555 1_555
H31B C16B 1_555 1_555
H32B C16B 1_555 1_555
C17B C18B 1_555 1_555
H33B C17B 1_555 1_555
H34B C17B 1_555 1_555
H35B C17B 1_555 1_555
C20B C19B 1_555 1_555
C21B C20B 1_555 1_555
O6B Sr1B 1_555 1_555
O9B Sr1B 1_555 1_555
C28B O9B 1_555 1_555
H49B C28B 1_555 1_555
H50B C28B 1_555 1_555
H51B C28B 1_555 1_555
C22B C21B 1_555 1_555
C23B C22B 1_555 1_555
H37B C23B 1_555 1_555
H38B C23B 1_555 1_555
H39B C23B 1_555 1_555
C24B C22B 1_555 1_555
H40B C24B 1_555 1_555
H41B C24B 1_555 1_555
H42B C24B 1_555 1_555
C25B C22B 1_555 1_555
O7B C25B 1_555 1_555
C26B O7B 1_555 1_555
C27B C26B 1_555 1_555
O8B C27B 1_555 1_555
H1B O8B 1_555 1_555
H47B C27B 1_555 1_555
H48B C27B 1_555 1_555
H45B C26B 1_555 1_555
H46B C26B 1_555 1_555
H43B C25B 1_555 1_555
H44B C25B 1_555 1_555
H36B C20B 1_555 1_555
C14B O4B 1_555 1_555
H24B C14B 1_555 1_555
H25B C14B 1_555 1_555
H26B C14B 1_555 1_555
H22B C13B 1_555 1_555
H23B C13B 1_555 1_555
H20B C12B 1_555 1_555
H21B C12B 1_555 1_555
C12 C13 1_555 1_555
C20 C21 1_555 1_555
O2B Sr1B 1_555 1_555
C6B C7B 1_555 1_555
C7B C8B 1_555 1_555
O3B C11B 1_555 1_555
C13B O4B 1_555 1_555
C21B O6B 1_555 1_555

#END
