
#######################################################################
#
#                 Cambridge Crystallographic Data Centre
#                                CCDC 
#
#######################################################################
#
# If this CIF has been generated from an entry in the Cambridge 
# Structural Database, then it will include bibliographic, chemical, 
# crystal, experimental, refinement or atomic coordinate data resulting 
# from the CCDC's data processing and validation procedures.
#
#######################################################################

data_IQAPUM
_chemical_name_common            
"N''-(2-Dimethylaminoethyl)-N,N,N',N'-tetramethylguanidinium hydrogen carbonate"
_chemical_formula_moiety         'C9 H23 N4 1+,C1 H1 O3 1-'
_chemical_name_systematic        
'N-(bis(dimethylamino)methylene)-2-(dimethylamino)ethylammonium hydrogen carbonate'
_symmetry_cell_setting           triclinic
_symmetry_space_group_name_H-M   'P -1'
_symmetry_Int_Tables_number      2
_space_group_name_Hall           '-P 1'
loop_
_symmetry_equiv_pos_site_id
_symmetry_equiv_pos_as_xyz
1 x,y,z
2 -x,-y,-z
_cell_length_a                   8.0530(2)
_cell_length_b                   8.2767(2)
_cell_length_c                   10.8514(4)
_cell_angle_alpha                72.760(2)
_cell_angle_beta                 83.186(3)
_cell_angle_gamma                76.951(2)
_cell_volume                     671.896
_exptl_crystal_colour            colorless
_exptl_crystal_description       block
_cell_formula_units_Z            2
loop_
_atom_site_label
_atom_site_type_symbol
_atom_site_fract_x
_atom_site_fract_y
_atom_site_fract_z
N1 N 0.57395(10) 0.75229(10) 0.66040(8)
N2 N 0.48070(10) 0.99462(10) 0.73660(8)
N3 N 0.29084(10) 0.89187(10) 0.64746(8)
H1 H 0.2824(18) 0.8425(19) 0.5882(14)
N4 N 0.25509(11) 0.69290(11) 0.92101(8)
C1 C 0.44773(11) 0.87850(11) 0.68298(8)
C2 C 0.75235(12) 0.76942(13) 0.63275(10)
H2 H 0.7624(17) 0.8880(18) 0.6180(13)
H3 H 0.8214(17) 0.6948(17) 0.7058(13)
H4 H 0.7949(16) 0.7290(16) 0.5565(13)
C3 C 0.53888(13) 0.58883(12) 0.65429(10)
H5 H 0.6254(17) 0.4950(18) 0.7028(13)
H6 H 0.4243(19) 0.5755(19) 0.6911(14)
H7 H 0.5479(17) 0.5838(18) 0.5658(14)
C4 C 0.38806(13) 1.17354(12) 0.70663(10)
H8 H 0.4702(18) 1.2488(18) 0.6775(13)
H9 H 0.3091(17) 1.1953(17) 0.6387(13)
H10 H 0.3201(18) 1.1981(18) 0.7851(14)
C5 C 0.61447(13) 0.95293(13) 0.82666(9)
H11 H 0.7067(17) 1.0149(17) 0.7883(13)
H12 H 0.6561(16) 0.8286(18) 0.8533(13)
H13 H 0.5643(17) 0.9920(18) 0.9038(14)
C6 C 0.13663(12) 0.92349(12) 0.72990(10)
H14 H 0.1407(16) 1.0176(17) 0.7670(12)
H15 H 0.0413(17) 0.9633(17) 0.6767(13)
C7 C 0.11420(12) 0.75838(13) 0.83415(10)
H16 H 0.1099(16) 0.6679(17) 0.7925(12)
H17 H 0.0017(17) 0.7815(17) 0.8840(13)
C8 C 0.26153(16) 0.51178(14) 0.99089(12)
H18 H 0.2711(19) 0.441(2) 0.9297(15)
H19 H 0.362(2) 0.468(2) 1.0463(15)
H20 H 0.156(2) 0.496(2) 1.0455(15)
C9 C 0.24201(17) 0.79260(16) 1.01320(11)
H21 H 0.2403(19) 0.917(2) 0.9674(14)
H22 H 0.139(2) 0.781(2) 1.0697(15)
H23 H 0.3437(19) 0.7478(19) 1.0695(14)
C10 C 0.14264(11) 0.67557(12) 0.46394(9)
O1 O 0.13685(9) 0.56358(9) 0.57471(7)
O2 O 0.22686(9) 0.79274(9) 0.43993(7)
O3 O 0.05652(9) 0.66710(9) 0.36967(7)
H24 H -0.005(3) 0.572(3) 0.399(2)
loop_
_geom_bond_atom_site_label_1
_geom_bond_atom_site_label_2
_geom_bond_site_symmetry_1
_geom_bond_site_symmetry_2
N1 C1 1_555 1_555
N2 C1 1_555 1_555
N3 H1 1_555 1_555
N4 C7 1_555 1_555
C1 N3 1_555 1_555
C2 N1 1_555 1_555
H2 C2 1_555 1_555
H3 C2 1_555 1_555
H4 C2 1_555 1_555
C3 N1 1_555 1_555
H5 C3 1_555 1_555
H6 C3 1_555 1_555
H7 C3 1_555 1_555
C4 N2 1_555 1_555
H8 C4 1_555 1_555
H9 C4 1_555 1_555
H10 C4 1_555 1_555
C5 N2 1_555 1_555
H11 C5 1_555 1_555
H12 C5 1_555 1_555
H13 C5 1_555 1_555
C6 N3 1_555 1_555
H14 C6 1_555 1_555
H15 C6 1_555 1_555
C7 C6 1_555 1_555
H16 C7 1_555 1_555
H17 C7 1_555 1_555
C8 N4 1_555 1_555
H18 C8 1_555 1_555
H19 C8 1_555 1_555
H20 C8 1_555 1_555
C9 N4 1_555 1_555
H21 C9 1_555 1_555
H22 C9 1_555 1_555
H23 C9 1_555 1_555
C10 O1 1_555 1_555
O2 C10 1_555 1_555
O3 C10 1_555 1_555
H24 O3 1_555 1_555

#END
