
#######################################################################
#
#                 Cambridge Crystallographic Data Centre
#                                CCDC 
#
#######################################################################
#
# If this CIF has been generated from an entry in the Cambridge 
# Structural Database, then it will include bibliographic, chemical, 
# crystal, experimental, refinement or atomic coordinate data resulting 
# from the CCDC's data processing and validation procedures.
#
#######################################################################

data_IQAPOG
_chemical_name_common            
"N''-(2-Dimethylaminoethyl)-N,N,N',N'-tetramethylguanidinium hydrogen carbonate acetonitrile solvate"
_chemical_formula_moiety         'C9 H23 N4 1+,C2 H3 N1,C1 H1 O3 1-'
_chemical_name_systematic        
'N-(bis(dimethylamino)methylene)-2-(dimethylamino)ethylammonium hydrogen carbonate acetonitrile solvate'
_symmetry_cell_setting           triclinic
_symmetry_space_group_name_H-M   'P -1'
_symmetry_Int_Tables_number      2
_space_group_name_Hall           '-P 1'
loop_
_symmetry_equiv_pos_site_id
_symmetry_equiv_pos_as_xyz
1 x,y,z
2 -x,-y,-z
_cell_length_a                   8.1265(4)
_cell_length_b                   8.2167(4)
_cell_length_c                   12.5887(7)
_cell_angle_alpha                90.351(2)
_cell_angle_beta                 89.863(2)
_cell_angle_gamma                102.654(3)
_cell_volume                     820.152
_exptl_crystal_colour            colorless
_exptl_crystal_description       plate
_cell_formula_units_Z            2
loop_
_atom_site_label
_atom_site_type_symbol
_atom_site_fract_x
_atom_site_fract_y
_atom_site_fract_z
C1 C 0.4600(2) 0.0524(2) 0.15191(15)
N1 N 0.58454(18) 0.18694(18) 0.13385(13)
N2 N 0.49280(19) -0.08263(19) 0.19901(13)
N3 N 0.30432(19) 0.05346(19) 0.11770(13)
H1 H 0.294(2) 0.130(3) 0.0685(18)
C2 C 0.7609(2) 0.1765(2) 0.11910(16)
H2 H 0.8251 0.2163 0.1835
H3 H 0.8090 0.2457 0.0588
H4 H 0.7665 0.0603 0.1052
C3 C 0.5528(2) 0.3543(2) 0.12748(16)
H5 H 0.5646 0.3923 0.0536
H6 H 0.6342 0.4305 0.1721
H7 H 0.4382 0.3529 0.1524
C4 C 0.4020(2) -0.2514(2) 0.17084(17)
H8 H 0.3259 -0.2463 0.1113
H9 H 0.3363 -0.3026 0.2321
H10 H 0.4830 -0.3185 0.1503
C5 C 0.6223(2) -0.0739(2) 0.28005(16)
H11 H 0.7204 -0.1078 0.2491
H12 H 0.5774 -0.1487 0.3386
H13 H 0.6561 0.0407 0.3070
C6 C 0.1548(2) -0.0056(2) 0.18451(17)
H14 H 0.1636 -0.1108 0.2197
H15 H 0.0525 -0.0287 0.1395
C7 C 0.1392(2) 0.1248(2) 0.26858(16)
H16 H 0.1274 0.2288 0.2331
H17 H 0.0363 0.0838 0.3114
N4 N 0.2857(2) 0.1606(2) 0.33848(14)
C8 C 0.3005(3) 0.3236(3) 0.3886(2)
H18 H 0.1969 0.3256 0.4281
H19 H 0.3178 0.4100 0.3338
H20 H 0.3966 0.3447 0.4374
C9 C 0.2795(3) 0.0329(3) 0.41729(19)
H21 H 0.1826 0.0301 0.4643
H22 H 0.3835 0.0573 0.4592
H23 H 0.2681 -0.0756 0.3820
C10 C 0.1364(2) 0.3364(2) -0.03471(14)
O1 O 0.15434(16) 0.40435(16) 0.06427(11)
H24 H 0.082(3) 0.466(3) 0.061(3)
O2 O 0.03637(17) 0.38401(17) -0.09790(11)
O3 O 0.22296(17) 0.23097(17) -0.05484(12)
N5 N 0.2287(4) -0.3228(3) 0.5739(2)
C11 C 0.1595(3) -0.4469(3) 0.60916(19)
C12 C 0.0690(4) -0.6049(4) 0.6524(2)
H25 H -0.0429 -0.6361 0.6196
H26 H 0.0567 -0.5939 0.7294
H27 H 0.1320 -0.6913 0.6373
loop_
_geom_bond_atom_site_label_1
_geom_bond_atom_site_label_2
_geom_bond_site_symmetry_1
_geom_bond_site_symmetry_2
C1 N1 1_555 1_555
N1 C2 1_555 1_555
N2 C1 1_555 1_555
N3 C1 1_555 1_555
H1 N3 1_555 1_555
C2 H2 1_555 1_555
H3 C2 1_555 1_555
H4 C2 1_555 1_555
C3 N1 1_555 1_555
H5 C3 1_555 1_555
H6 C3 1_555 1_555
H7 C3 1_555 1_555
C4 N2 1_555 1_555
H8 C4 1_555 1_555
H9 C4 1_555 1_555
H10 C4 1_555 1_555
C5 N2 1_555 1_555
H11 C5 1_555 1_555
H12 C5 1_555 1_555
H13 C5 1_555 1_555
C6 N3 1_555 1_555
H14 C6 1_555 1_555
H15 C6 1_555 1_555
C7 C6 1_555 1_555
H16 C7 1_555 1_555
H17 C7 1_555 1_555
N4 C7 1_555 1_555
C8 N4 1_555 1_555
H18 C8 1_555 1_555
H19 C8 1_555 1_555
H20 C8 1_555 1_555
C9 N4 1_555 1_555
H21 C9 1_555 1_555
H22 C9 1_555 1_555
H23 C9 1_555 1_555
C10 O1 1_555 1_555
O1 H24 1_555 1_555
O2 C10 1_555 1_555
O3 C10 1_555 1_555
N5 C11 1_555 1_555
C11 C12 1_555 1_555
C12 H25 1_555 1_555
H26 C12 1_555 1_555
H27 C12 1_555 1_555

#END
