
#######################################################################
#
#                 Cambridge Crystallographic Data Centre
#                                CCDC 
#
#######################################################################
#
# If this CIF has been generated from an entry in the Cambridge 
# Structural Database, then it will include bibliographic, chemical, 
# crystal, experimental, refinement or atomic coordinate data resulting 
# from the CCDC's data processing and validation procedures.
#
#######################################################################

data_IQAQIB
_chemical_name_common            
'2-Dimethylamino-1-methyl-1,4,5,6-tetrahydro-3H-pyrimidinium hydrogen carbonate'
_chemical_formula_moiety         'C7 H16 N3 1+,C1 H1 O3 1-'
_chemical_name_systematic        
'2-(Dimethylamino)-1-methyl-3,4,5,6-tetrahydropyrimidin-1-ium hydrogen carbonate'
_symmetry_cell_setting           monoclinic
_symmetry_space_group_name_H-M   'P 21/c'
_symmetry_Int_Tables_number      14
_space_group_name_Hall           '-P 2ybc'
loop_
_symmetry_equiv_pos_site_id
_symmetry_equiv_pos_as_xyz
1 x,y,z
2 -x,1/2+y,1/2-z
3 -x,-y,-z
4 x,1/2-y,1/2+z
_cell_length_a                   7.7668(6)
_cell_length_b                   7.7717(6)
_cell_length_c                   17.4637(9)
_cell_angle_alpha                90
_cell_angle_beta                 102.804(2)
_cell_angle_gamma                90
_cell_volume                     1027.92
_exptl_crystal_colour            colorless
_exptl_crystal_description       block
_cell_formula_units_Z            4
loop_
_atom_site_label
_atom_site_type_symbol
_atom_site_fract_x
_atom_site_fract_y
_atom_site_fract_z
N1 N 0.5128(2) 0.4368(2) 0.16682(12)
H1 H 0.425(6) 0.373(6) 0.156(2)
N2 N 0.3945(2) 0.6638(2) 0.08126(12)
N3 N 0.6722(2) 0.6819(2) 0.15763(12)
C1 C 0.5295(3) 0.5886(3) 0.13351(15)
C2 C 0.2221(3) 0.5893(3) 0.07100(15)
H2 H 0.2168 0.4833 0.0402
H3 H 0.1337 0.6709 0.0433
H4 H 0.1980 0.5628 0.1225
C3 C 0.4161(4) 0.7609(4) 0.01425(16)
H5 H 0.5422 0.7760 0.0161
H6 H 0.3603 0.8739 0.0147
H7 H 0.3605 0.6992 -0.0338
C4 C 0.6778(3) 0.8678(3) 0.15559(15)
H8 H 0.7237 0.9050 0.1103
H9 H 0.7550 0.9105 0.2040
H10 H 0.5585 0.9138 0.1510
C5 C 0.8439(4) 0.6096(4) 0.19510(15)
H11 H 0.8875 0.6635 0.2472
H12 H 0.9305 0.6328 0.1625
C6 C 0.8233(4) 0.4141(4) 0.20459(16)
H13 H 0.8280 0.3576 0.1543
H14 H 0.9252 0.3718 0.2448
C7 C 0.6545(3) 0.3591(3) 0.22802(14)
H15 H 0.6439 0.2322 0.2281
H16 H 0.6507 0.4035 0.2807
C8 C 0.1674(2) 0.1179(2) 0.08402(9)
O1 O 0.15204(11) 0.15907(11) 0.01311(7)
O2 O 0.06174(11) -0.00536(11) 0.10129(7)
H17 H -0.043(4) -0.049(4) 0.062(2)
O3 O 0.28450(11) 0.17730(11) 0.13968(7)
loop_
_geom_bond_atom_site_label_1
_geom_bond_atom_site_label_2
_geom_bond_site_symmetry_1
_geom_bond_site_symmetry_2
N1 H1 1_555 1_555
N2 C1 1_555 1_555
N3 C1 1_555 1_555
C1 N1 1_555 1_555
C2 N2 1_555 1_555
H2 C2 1_555 1_555
H3 C2 1_555 1_555
H4 C2 1_555 1_555
C3 N2 1_555 1_555
H5 C3 1_555 1_555
H6 C3 1_555 1_555
H7 C3 1_555 1_555
C4 N3 1_555 1_555
H8 C4 1_555 1_555
H9 C4 1_555 1_555
H10 C4 1_555 1_555
C5 N3 1_555 1_555
H11 C5 1_555 1_555
H12 C5 1_555 1_555
C6 C5 1_555 1_555
H13 C6 1_555 1_555
H14 C6 1_555 1_555
C7 N1 1_555 1_555
H15 C7 1_555 1_555
H16 C7 1_555 1_555
C8 O1 1_555 1_555
O2 C8 1_555 1_555
H17 O2 1_555 1_555
O3 C8 1_555 1_555
C6 C7 1_555 1_555

#END
