
#######################################################################
#
#                 Cambridge Crystallographic Data Centre
#                                CCDC 
#
#######################################################################
#
# If this CIF has been generated from an entry in the Cambridge 
# Structural Database, then it will include bibliographic, chemical, 
# crystal, experimental, refinement or atomic coordinate data resulting 
# from the CCDC's data processing and validation procedures.
#
#######################################################################

data_IQAQAT
_chemical_name_common            
"N,N,N',N'-tetramethyl-N'`-[2-(ureido)ethyl]guanidinium hydrogen carbonate"
_chemical_formula_moiety         'C11 H26 N5 O1 1+,C1 H1 O3 1-'
_chemical_name_systematic        
'N-(bis(dimethylamino)methylene)-2-((dimethylcarbamoyl)(methyl)amino)ethylammonium hydrogen carbonate'
_symmetry_cell_setting           triclinic
_symmetry_space_group_name_H-M   'P -1'
_symmetry_Int_Tables_number      2
_space_group_name_Hall           '-P 1'
loop_
_symmetry_equiv_pos_site_id
_symmetry_equiv_pos_as_xyz
1 x,y,z
2 -x,-y,-z
_cell_length_a                   8.2221(6)
_cell_length_b                   9.2143(7)
_cell_length_c                   10.9905(9)
_cell_angle_alpha                93.104(3)
_cell_angle_beta                 96.588(4)
_cell_angle_gamma                93.096(3)
_cell_volume                     824.415
_exptl_crystal_colour            colorless
_exptl_crystal_description       plate
_cell_formula_units_Z            2
loop_
_atom_site_label
_atom_site_type_symbol
_atom_site_fract_x
_atom_site_fract_y
_atom_site_fract_z
C1 C 0.4006(2) -0.12723(16) 0.61710(13)
N1 N 0.35449(17) -0.00389(14) 0.66883(11)
C2 C 0.4320(2) 0.05845(19) 0.78758(15)
H1 H 0.5056 -0.0087 0.8240
H2 H 0.3493 0.0771 0.8404
H3 H 0.4922 0.1480 0.7765
C3 C 0.2261(2) 0.08115(18) 0.60835(16)
H4 H 0.2038 0.0483 0.5234
H5 H 0.2625 0.1823 0.6148
H6 H 0.1281 0.0684 0.6473
N2 N 0.29441(18) -0.20965(14) 0.53674(12)
C4 C 0.3421(3) -0.2865(2) 0.42880(16)
H7 H 0.4569 -0.2658 0.4245
H8 H 0.2800 -0.2551 0.3566
H9 H 0.3209 -0.3893 0.4339
C5 C 0.1213(2) -0.2302(2) 0.5515(2)
H10 H 0.0996 -0.1766 0.6246
H11 H 0.0934 -0.3318 0.5577
H12 H 0.0566 -0.1958 0.4817
N3 N 0.55429(19) -0.16603(15) 0.64274(13)
H13 H 0.632(3) -0.094(2) 0.6757(17)
C6 C 0.5992(2) -0.31594(18) 0.65065(17)
H14 H 0.7018 -0.3270 0.6164
H15 H 0.5156 -0.3798 0.6022
C7 C 0.6180(2) -0.3606(2) 0.78195(18)
H16 H 0.6544 -0.4590 0.7834
H17 H 0.7021 -0.2968 0.8299
N4 N 0.4657(2) -0.35500(15) 0.83908(13)
C8 C 0.3412(3) -0.45593(18) 0.79390(16)
C9 C 0.4873(4) -0.3036(2) 0.96878(18)
H18 H 0.3995 -0.3449 1.0089
H19 H 0.4865 -0.1993 0.9752
H20 H 0.5901 -0.3329 1.0072
O1 O 0.36291(18) -0.55272(14) 0.71729(13)
N5 N 0.1941(2) -0.44446(17) 0.83862(17)
C10 C 0.1300(4) -0.3059(2) 0.8746(2)
H21 H 0.2088 -0.2278 0.8650
H22 H 0.1093 -0.3059 0.9588
H23 H 0.0296 -0.2928 0.8236
C11 C 0.0686(3) -0.5620(3) 0.8014(3)
H24 H 0.0230 -0.5521 0.7180
H25 H -0.0167 -0.5569 0.8539
H26 H 0.1171 -0.6542 0.8077
C12 C 0.1062(2) -0.00857(18) 0.16879(16)
O2 O 0.16900(16) -0.00816(15) 0.27755(11)
O3 O 0.18345(17) 0.04788(17) 0.08549(12)
O4 O -0.04000(18) -0.06554(18) 0.13599(13)
H27 H -0.083(4) -0.054(4) 0.0622(15)
loop_
_geom_bond_atom_site_label_1
_geom_bond_atom_site_label_2
_geom_bond_site_symmetry_1
_geom_bond_site_symmetry_2
C1 N1 1_555 1_555
N1 C2 1_555 1_555
C2 H1 1_555 1_555
H2 C2 1_555 1_555
H3 C2 1_555 1_555
C3 N1 1_555 1_555
H4 C3 1_555 1_555
H5 C3 1_555 1_555
H6 C3 1_555 1_555
N2 C1 1_555 1_555
C4 N2 1_555 1_555
H7 C4 1_555 1_555
H8 C4 1_555 1_555
H9 C4 1_555 1_555
C5 N2 1_555 1_555
H10 C5 1_555 1_555
H11 C5 1_555 1_555
H12 C5 1_555 1_555
N3 C1 1_555 1_555
H13 N3 1_555 1_555
C6 N3 1_555 1_555
H14 C6 1_555 1_555
H15 C6 1_555 1_555
C7 C6 1_555 1_555
H16 C7 1_555 1_555
H17 C7 1_555 1_555
N4 C7 1_555 1_555
C8 N4 1_555 1_555
C9 N4 1_555 1_555
H18 C9 1_555 1_555
H19 C9 1_555 1_555
H20 C9 1_555 1_555
O1 C8 1_555 1_555
N5 C8 1_555 1_555
C10 N5 1_555 1_555
H21 C10 1_555 1_555
H22 C10 1_555 1_555
H23 C10 1_555 1_555
C11 N5 1_555 1_555
H24 C11 1_555 1_555
H25 C11 1_555 1_555
H26 C11 1_555 1_555
C12 O2 1_555 1_555
O3 C12 1_555 1_555
O4 C12 1_555 1_555
H27 O4 1_555 1_555

#END
