
#######################################################################
#
#                 Cambridge Crystallographic Data Centre
#                                CCDC 
#
#######################################################################
#
# If this CIF has been generated from an entry in the Cambridge 
# Structural Database, then it will include bibliographic, chemical, 
# crystal, experimental, refinement or atomic coordinate data resulting 
# from the CCDC's data processing and validation procedures.
#
#######################################################################

data_IQAQOH
_chemical_name_common            
"N,N-Dimethyl-N',N'-dipropyl-N''-[3-(N-hydroxycarbonylmethylamino)propyl]guanidinium hydrogen carbonate"
_chemical_formula_moiety         'C14 H31 N4 O2 1+,C1 H1 O3 1-'
_chemical_name_systematic        
'3-(Carboxy(methyl)amino)-N-((dimethylamino)(dipropylamino)methylene)propylammonium hydrogen carbonate'
_symmetry_cell_setting           monoclinic
_symmetry_space_group_name_H-M   'P 21/c'
_symmetry_Int_Tables_number      14
_space_group_name_Hall           '-P 2ybc'
loop_
_symmetry_equiv_pos_site_id
_symmetry_equiv_pos_as_xyz
1 x,y,z
2 -x,1/2+y,1/2-z
3 -x,-y,-z
4 x,1/2-y,1/2+z
_cell_length_a                   8.2692(4)
_cell_length_b                   12.6687(5)
_cell_length_c                   17.7679(9)
_cell_angle_alpha                90
_cell_angle_beta                 103.510(3)
_cell_angle_gamma                90
_cell_volume                     1809.86
_exptl_crystal_colour            colorless
_exptl_crystal_description       plate
_cell_formula_units_Z            4
loop_
_atom_site_label
_atom_site_type_symbol
_atom_site_fract_x
_atom_site_fract_y
_atom_site_fract_z
C1 C -0.29934(19) 1.03857(11) 0.15400(8)
N1 N -0.29043(17) 0.94214(9) 0.12486(7)
N2 N -0.23316(16) 1.12234(9) 0.12462(7)
N3 N -0.37437(17) 1.05311(9) 0.21206(7)
H1 H -0.447(3) 1.0127(14) 0.2172(11)
C2 C -0.3086(2) 0.84620(11) 0.16769(10)
H2 H -0.2878 0.8624 0.2231
H3 H -0.2284 0.7932 0.1591
H4 H -0.4218 0.8186 0.1496
C3 C -0.2803(2) 0.92583(12) 0.04469(9)
H5 H -0.2968 0.9933 0.0170
H6 H -0.3666 0.8759 0.0196
H7 H -0.1705 0.8974 0.0437
C4 C -0.07184(19) 1.11706(11) 0.10323(9)
H8 H -0.0867 1.1374 0.0482
H9 H -0.0297 1.0437 0.1092
C5 C 0.0543(2) 1.19005(12) 0.15358(9)
H10 H 0.0760 1.1658 0.2080
H11 H 0.0074 1.2622 0.1512
C6 C 0.2178(2) 1.19330(12) 0.12801(10)
H12 H 0.2629 1.1217 0.1287
H13 H 0.2974 1.2382 0.1635
H14 H 0.1982 1.2221 0.0755
C7 C -0.31998(19) 1.22444(10) 0.11739(9)
H15 H -0.2579 1.2732 0.1574
H16 H -0.4319 1.2140 0.1273
C8 C -0.3382(2) 1.27497(11) 0.03826(9)
H17 H -0.3781 1.2220 -0.0028
H18 H -0.2291 1.3018 0.0327
C9 C -0.4621(2) 1.36555(12) 0.03012(10)
H19 H -0.5694 1.3386 0.0363
H20 H -0.4764 1.3977 -0.0212
H21 H -0.4204 1.4186 0.0700
C10 C -0.33210(19) 1.13896(11) 0.26828(8)
H22 H -0.4135 1.1969 0.2532
H23 H -0.2208 1.1668 0.2672
C11 C -0.3315(2) 1.10375(11) 0.35019(9)
H24 H -0.4420 1.0738 0.3503
H25 H -0.3154 1.1667 0.3842
C12 C -0.1989(2) 1.02233(12) 0.38476(9)
H26 H -0.2049 1.0078 0.4388
H27 H -0.2238 0.9557 0.3552
N4 N -0.02984(17) 1.05538(10) 0.38440(8)
C13 C 0.0389(2) 1.14387(12) 0.43404(10)
H28 H 0.1585 1.1493 0.4371
H29 H 0.0205 1.1326 0.4860
H30 H -0.0162 1.2093 0.4124
C14 C 0.0502(2) 1.01046(11) 0.33437(9)
O1 O -0.01441(15) 0.93797(8) 0.29034(7)
O2 O 0.19937(14) 1.04750(8) 0.33563(7)
H31 H 0.233(4) 1.0099(19) 0.2949(13)
C15 C 0.2548(2) 0.91087(11) 0.17501(10)
O3 O 0.32947(14) 0.95840(8) 0.23731(7)
O4 O 0.10185(15) 0.87117(9) 0.17336(7)
H32 H 0.078(3) 0.8906(16) 0.2180(14)
O5 O 0.30956(16) 0.89867(9) 0.11710(7)
loop_
_geom_bond_atom_site_label_1
_geom_bond_atom_site_label_2
_geom_bond_site_symmetry_1
_geom_bond_site_symmetry_2
C1 N1 1_555 1_555
N1 C2 1_555 1_555
N2 C1 1_555 1_555
N3 C1 1_555 1_555
H1 N3 1_555 1_555
C2 H2 1_555 1_555
H3 C2 1_555 1_555
H4 C2 1_555 1_555
C3 N1 1_555 1_555
H5 C3 1_555 1_555
H6 C3 1_555 1_555
H7 C3 1_555 1_555
C4 N2 1_555 1_555
H8 C4 1_555 1_555
H9 C4 1_555 1_555
C5 C4 1_555 1_555
H10 C5 1_555 1_555
H11 C5 1_555 1_555
C6 C5 1_555 1_555
H12 C6 1_555 1_555
H13 C6 1_555 1_555
H14 C6 1_555 1_555
C7 N2 1_555 1_555
H15 C7 1_555 1_555
H16 C7 1_555 1_555
C8 C7 1_555 1_555
H17 C8 1_555 1_555
H18 C8 1_555 1_555
C9 C8 1_555 1_555
H19 C9 1_555 1_555
H20 C9 1_555 1_555
H21 C9 1_555 1_555
C10 N3 1_555 1_555
H22 C10 1_555 1_555
H23 C10 1_555 1_555
C11 C10 1_555 1_555
H24 C11 1_555 1_555
H25 C11 1_555 1_555
C12 C11 1_555 1_555
H26 C12 1_555 1_555
H27 C12 1_555 1_555
N4 C12 1_555 1_555
C13 N4 1_555 1_555
H28 C13 1_555 1_555
H29 C13 1_555 1_555
H30 C13 1_555 1_555
C14 N4 1_555 1_555
O1 C14 1_555 1_555
O2 C14 1_555 1_555
H31 O2 1_555 1_555
C15 O3 1_555 1_555
O4 C15 1_555 1_555
H32 O4 1_555 1_555
O5 C15 1_555 1_555

#END
