
#######################################################################
#
#                 Cambridge Crystallographic Data Centre
#                                CCDC 
#
#######################################################################
#
# If this CIF has been generated from an entry in the Cambridge 
# Structural Database, then it will include bibliographic, chemical, 
# crystal, experimental, refinement or atomic coordinate data resulting 
# from the CCDC's data processing and validation procedures.
#
#######################################################################

data_IQAQUN
_chemical_name_common            
'2-(Dipropylamino)-3,4,5,6-tetrahydropyrimidin-1-ium hydrogen carbonate'
_chemical_formula_moiety         'C10 H22 N3 1+,C1 H1 O3 1-'
_chemical_name_systematic        
'2-Dipropylamino-1,4,5,6-tetrahydro-1H,3H-pyrimidinium hydrogen carbonate'
_symmetry_cell_setting           orthorhombic
_symmetry_space_group_name_H-M   'P b c a'
_symmetry_Int_Tables_number      61
_space_group_name_Hall           '-P 2ac 2ab'
loop_
_symmetry_equiv_pos_site_id
_symmetry_equiv_pos_as_xyz
1 x,y,z
2 1/2-x,-y,1/2+z
3 1/2+x,1/2-y,-z
4 -x,1/2+y,1/2-z
5 -x,-y,-z
6 1/2+x,y,1/2-z
7 1/2-x,1/2+y,z
8 x,1/2-y,1/2+z
_cell_length_a                   11.4286(2)
_cell_length_b                   23.2262(8)
_cell_length_c                   20.6202(6)
_cell_angle_alpha                90
_cell_angle_beta                 90
_cell_angle_gamma                90
_cell_volume                     5473.49
_exptl_crystal_colour            colorless
_exptl_crystal_description       polyhedral
_cell_formula_units_Z            16
loop_
_atom_site_label
_atom_site_type_symbol
_atom_site_fract_x
_atom_site_fract_y
_atom_site_fract_z
N1 N 0.2852(2) 0.38499(15) 0.17566(15)
N2 N 0.2107(2) 0.42977(14) 0.08413(15)
H1 H 0.1540 0.4436 0.1083
N3 N 0.3814(2) 0.37736(15) 0.07674(15)
H2 H 0.4304 0.3533 0.0954
C1 C 0.2921(3) 0.39750(16) 0.11141(17)
C2 C 0.1836(3) 0.40362(18) 0.21439(19)
H3 H 0.1734 0.3767 0.2512
H4 H 0.1125 0.4012 0.1871
C3 C 0.1941(3) 0.4646(2) 0.2409(2)
H5 H 0.2051 0.4917 0.2044
H6 H 0.2642 0.4670 0.2690
C4 C 0.0859(3) 0.4826(2) 0.2801(2)
H7 H 0.0154 0.4765 0.2539
H8 H 0.0921 0.5235 0.2916
H9 H 0.0810 0.4595 0.3197
C5 C 0.3789(3) 0.3543(2) 0.2095(2)
H10 H 0.3813 0.3673 0.2552
H11 H 0.4548 0.3644 0.1892
C6 C 0.3644(3) 0.2899(2) 0.2080(2)
H12 H 0.3707 0.2759 0.1629
H13 H 0.2861 0.2794 0.2248
C7 C 0.4579(3) 0.2624(2) 0.2493(2)
H14 H 0.5350 0.2762 0.2354
H15 H 0.4543 0.2205 0.2443
H16 H 0.4452 0.2726 0.2948
C8 C 0.2123(3) 0.4431(2) 0.01486(18)
H17 H 0.1702 0.4797 0.0068
H18 H 0.1723 0.4122 -0.0096
C9 C 0.3393(3) 0.4484(2) -0.0080(2)
H19 H 0.3418 0.4548 -0.0554
H20 H 0.3777 0.4814 0.0137
C10 C 0.4019(3) 0.3933(2) 0.0090(2)
H21 H 0.3740 0.3619 -0.0197
H22 H 0.4870 0.3982 0.0016
N4 N 0.4756(2) 0.15423(13) 0.06132(15)
N5 N 0.5713(2) 0.10091(13) 0.14072(16)
H23 H 0.5263 0.0715 0.1305
N6 N 0.6257(2) 0.19508(14) 0.12199(16)
H24 H 0.6121 0.2278 0.1019
C11 C 0.5583(3) 0.14997(16) 0.10811(17)
C12 C 0.3896(3) 0.10906(18) 0.0509(2)
H25 H 0.4260 0.0709 0.0580
H26 H 0.3606 0.1106 0.0057
C13 C 0.2884(3) 0.11720(18) 0.0976(2)
H27 H 0.2621 0.1576 0.0929
H28 H 0.3212 0.1136 0.1419
C14 C 0.1791(3) 0.08000(18) 0.0956(2)
H29 H 0.1431 0.0826 0.0526
H30 H 0.1235 0.0933 0.1285
H31 H 0.2003 0.0398 0.1045
C15 C 0.4694(3) 0.20591(17) 0.0194(2)
H32 H 0.4765 0.2407 0.0468
H33 H 0.3919 0.2071 -0.0020
C16 C 0.5645(3) 0.20730(19) -0.0324(2)
H34 H 0.6423 0.2076 -0.0113
H35 H 0.5590 0.1721 -0.0594
C17 C 0.5526(3) 0.25970(18) -0.0751(2)
H36 H 0.4731 0.2614 -0.0928
H37 H 0.6091 0.2573 -0.1107
H38 H 0.5678 0.2944 -0.0494
C18 C 0.6558(3) 0.09365(18) 0.1921(2)
H39 H 0.6814 0.0529 0.1933
H40 H 0.6183 0.1027 0.2341
C19 C 0.7625(3) 0.13230(18) 0.1830(2)
H41 H 0.8106 0.1323 0.2230
H42 H 0.8112 0.1179 0.1468
C20 C 0.7202(3) 0.19285(18) 0.1684(2)
H43 H 0.6938 0.2110 0.2093
H44 H 0.7866 0.2157 0.1515
C21 C 0.0749(3) 0.54604(15) -0.11617(17)
O1 O 0.1798(1) 0.52458(11) -0.10463(13)
H45 H 0.2289 0.5515 -0.1029
O2 O 0.0634(1) 0.60007(11) -0.12282(14)
O3 O -0.0085(1) 0.51113(11) -0.12014(13)
C22 C 0.6678(3) 0.34597(15) 0.10156(17)
O4 O 0.5821(1) 0.31170(11) 0.10083(14)
O5 O 0.7712(1) 0.32400(11) 0.11677(13)
H46 H 0.8220 0.3501 0.1160
O6 O 0.6589(2) 0.39827(12) 0.08867(17)
loop_
_geom_bond_atom_site_label_1
_geom_bond_atom_site_label_2
_geom_bond_site_symmetry_1
_geom_bond_site_symmetry_2
N1 C1 1_555 1_555
N2 H1 1_555 1_555
N3 H2 1_555 1_555
C1 N2 1_555 1_555
C2 N1 1_555 1_555
H3 C2 1_555 1_555
H4 C2 1_555 1_555
C3 C2 1_555 1_555
H5 C3 1_555 1_555
H6 C3 1_555 1_555
C4 C3 1_555 1_555
H7 C4 1_555 1_555
H8 C4 1_555 1_555
H9 C4 1_555 1_555
C5 N1 1_555 1_555
H10 C5 1_555 1_555
H11 C5 1_555 1_555
C6 C5 1_555 1_555
H12 C6 1_555 1_555
H13 C6 1_555 1_555
C7 C6 1_555 1_555
H14 C7 1_555 1_555
H15 C7 1_555 1_555
H16 C7 1_555 1_555
C8 N2 1_555 1_555
H17 C8 1_555 1_555
H18 C8 1_555 1_555
C9 C8 1_555 1_555
H19 C9 1_555 1_555
H20 C9 1_555 1_555
C10 N3 1_555 1_555
H21 C10 1_555 1_555
H22 C10 1_555 1_555
N4 C11 1_555 1_555
N5 H23 1_555 1_555
N6 H24 1_555 1_555
C11 N5 1_555 1_555
C12 N4 1_555 1_555
H25 C12 1_555 1_555
H26 C12 1_555 1_555
C13 C12 1_555 1_555
H27 C13 1_555 1_555
H28 C13 1_555 1_555
C14 C13 1_555 1_555
H29 C14 1_555 1_555
H30 C14 1_555 1_555
H31 C14 1_555 1_555
C15 N4 1_555 1_555
H32 C15 1_555 1_555
H33 C15 1_555 1_555
C16 C15 1_555 1_555
H34 C16 1_555 1_555
H35 C16 1_555 1_555
C17 C16 1_555 1_555
H36 C17 1_555 1_555
H37 C17 1_555 1_555
H38 C17 1_555 1_555
C18 N5 1_555 1_555
H39 C18 1_555 1_555
H40 C18 1_555 1_555
C19 C18 1_555 1_555
H41 C19 1_555 1_555
H42 C19 1_555 1_555
C20 N6 1_555 1_555
H43 C20 1_555 1_555
H44 C20 1_555 1_555
C21 O1 1_555 1_555
O1 H45 1_555 1_555
O2 C21 1_555 1_555
O3 C21 1_555 1_555
C22 O4 1_555 1_555
O5 C22 1_555 1_555
H46 O5 1_555 1_555
O6 C22 1_555 1_555
N3 C1 1_555 1_555
C9 C10 1_555 1_555
N6 C11 1_555 1_555
C19 C20 1_555 1_555

#END
