
#######################################################################
#
#                 Cambridge Crystallographic Data Centre
#                                CCDC 
#
#######################################################################
#
# If this CIF has been generated from an entry in the Cambridge 
# Structural Database, then it will include bibliographic, chemical, 
# crystal, experimental, refinement or atomic coordinate data resulting 
# from the CCDC's data processing and validation procedures.
#
#######################################################################

data_IQENOI
_chemical_formula_moiety         'C29 H27 N1 O3'
_chemical_name_systematic        
'Methyl 6-t-butyl-2-(1H-indol-3-yl)-4-phenyl-2H-chromene-2-carboxylate'
_symmetry_cell_setting           monoclinic
_symmetry_space_group_name_H-M   'P 21/c'
_symmetry_Int_Tables_number      14
_space_group_name_Hall           '-P 2ybc'
loop_
_symmetry_equiv_pos_site_id
_symmetry_equiv_pos_as_xyz
1 x,y,z
2 -x,1/2+y,1/2-z
3 -x,-y,-z
4 x,1/2-y,1/2+z
_cell_length_a                   22.025(4)
_cell_length_b                   8.1726(16)
_cell_length_c                   13.379(3)
_cell_angle_alpha                90
_cell_angle_beta                 94.97(3)
_cell_angle_gamma                90
_cell_volume                     2399.19
_exptl_crystal_colour            colorless
_exptl_crystal_description       platelet
_cell_formula_units_Z            4
loop_
_atom_site_label
_atom_site_type_symbol
_atom_site_fract_x
_atom_site_fract_y
_atom_site_fract_z
O1 O 0.31570(5) 0.25993(16) 0.47410(9)
O2 O 0.36843(7) 0.54262(19) 0.47270(11)
O3 O 0.33303(7) 0.59747(17) 0.31628(11)
N1 N 0.38194(7) 0.1036(2) 0.17446(12)
H1 H 0.3808 0.0607 0.1157
C1 C 0.31338(8) 0.3313(2) 0.37458(13)
C2 C 0.24893(8) 0.3447(2) 0.32987(13)
H2 H 0.2383 0.4283 0.2845
C3 C 0.20645(8) 0.2387(2) 0.35395(13)
C4 C 0.14253(8) 0.2561(2) 0.31038(15)
C5 C 0.12904(10) 0.2872(3) 0.20898(16)
H3 H 0.1604 0.2925 0.1668
C6 C 0.06974(11) 0.3102(4) 0.1701(2)
H4 H 0.0611 0.3291 0.1018
C7 C 0.02366(11) 0.3054(4) 0.2318(2)
H5 H -0.0163 0.3225 0.2056
C8 C 0.03603(10) 0.2756(4) 0.3320(2)
H6 H 0.0044 0.2712 0.3736
C9 C 0.09495(9) 0.2520(3) 0.37128(18)
H7 H 0.1030 0.2329 0.4397
C10 C 0.22360(8) 0.1095(2) 0.42830(13)
C11 C 0.18773(9) -0.0260(2) 0.44856(14)
H8 H 0.1509 -0.0407 0.4101
C12 C 0.20435(9) -0.1390(2) 0.52288(15)
C13 C 0.26036(9) -0.1168(3) 0.57648(15)
H9 H 0.2730 -0.1909 0.6268
C14 C 0.29781(9) 0.0123(2) 0.55718(14)
H10 H 0.3356 0.0232 0.5933
C15 C 0.27923(8) 0.1256(2) 0.48420(13)
C16 C 0.16426(10) -0.2832(3) 0.54972(17)
C17 C 0.14673(14) -0.2637(4) 0.6578(2)
H11 H 0.1830 -0.2571 0.7029
H12 H 0.1230 -0.3563 0.6752
H13 H 0.1232 -0.1656 0.6628
C18 C 0.19920(13) -0.4424(3) 0.5433(3)
H14 H 0.2105 -0.4569 0.4761
H15 H 0.1740 -0.5320 0.5605
H16 H 0.2352 -0.4389 0.5890
C19 C 0.10578(13) -0.2925(4) 0.4815(3)
H17 H 0.1154 -0.3054 0.4133
H18 H 0.0829 -0.1936 0.4875
H19 H 0.0821 -0.3842 0.5004
C20 C 0.35200(8) 0.2349(2) 0.30858(13)
C21 C 0.41451(8) 0.1880(2) 0.32980(14)
C22 C 0.45707(9) 0.2037(3) 0.41271(17)
H20 H 0.4474 0.2563 0.4709
C23 C 0.51428(10) 0.1380(4) 0.4049(2)
H21 H 0.5438 0.1471 0.4587
C24 C 0.52860(12) 0.0585(4) 0.3181(2)
H22 H 0.5676 0.0155 0.3159
C25 C 0.48846(10) 0.0412(3) 0.2371(2)
H23 H 0.4989 -0.0123 0.1797
C26 C 0.43108(9) 0.1064(3) 0.24318(15)
C27 C 0.33498(9) 0.1800(2) 0.21416(14)
H24 H 0.2963 0.1931 0.1813
C28 C 0.34142(8) 0.5018(2) 0.39580(14)
C29 C 0.35821(13) 0.7633(3) 0.3279(2)
H25 H 0.3497 0.8227 0.2664
H26 H 0.4015 0.7570 0.3439
H27 H 0.3399 0.8185 0.3810
loop_
_geom_bond_atom_site_label_1
_geom_bond_atom_site_label_2
_geom_bond_site_symmetry_1
_geom_bond_site_symmetry_2
O1 C1 1_555 1_555
O2 C28 1_555 1_555
O3 C28 1_555 1_555
N1 H1 1_555 1_555
C1 C2 1_555 1_555
C2 H2 1_555 1_555
C3 C2 1_555 1_555
C4 C3 1_555 1_555
C5 C4 1_555 1_555
H3 C5 1_555 1_555
C6 C5 1_555 1_555
H4 C6 1_555 1_555
C7 C6 1_555 1_555
H5 C7 1_555 1_555
C8 C7 1_555 1_555
H6 C8 1_555 1_555
C9 C4 1_555 1_555
H7 C9 1_555 1_555
C10 C3 1_555 1_555
C11 C10 1_555 1_555
H8 C11 1_555 1_555
C12 C11 1_555 1_555
C13 C12 1_555 1_555
H9 C13 1_555 1_555
C14 C13 1_555 1_555
H10 C14 1_555 1_555
C15 O1 1_555 1_555
C16 C12 1_555 1_555
C17 C16 1_555 1_555
H11 C17 1_555 1_555
H12 C17 1_555 1_555
H13 C17 1_555 1_555
C18 C16 1_555 1_555
H14 C18 1_555 1_555
H15 C18 1_555 1_555
H16 C18 1_555 1_555
C19 C16 1_555 1_555
H17 C19 1_555 1_555
H18 C19 1_555 1_555
H19 C19 1_555 1_555
C20 C1 1_555 1_555
C21 C20 1_555 1_555
C22 C21 1_555 1_555
H20 C22 1_555 1_555
C23 C22 1_555 1_555
H21 C23 1_555 1_555
C24 C23 1_555 1_555
H22 C24 1_555 1_555
C25 C24 1_555 1_555
H23 C25 1_555 1_555
C26 N1 1_555 1_555
C27 N1 1_555 1_555
H24 C27 1_555 1_555
C28 C1 1_555 1_555
C29 O3 1_555 1_555
H25 C29 1_555 1_555
H26 C29 1_555 1_555
H27 C29 1_555 1_555
C8 C9 1_555 1_555
C10 C15 1_555 1_555
C14 C15 1_555 1_555
C20 C27 1_555 1_555
C21 C26 1_555 1_555
C25 C26 1_555 1_555

#END
