
#######################################################################
#
#                 Cambridge Crystallographic Data Centre
#                                CCDC 
#
#######################################################################
#
# If this CIF has been generated from an entry in the Cambridge 
# Structural Database, then it will include bibliographic, chemical, 
# crystal, experimental, refinement or atomic coordinate data resulting 
# from the CCDC's data processing and validation procedures.
#
#######################################################################

data_IQENEY
_chemical_formula_moiety         'C10 H7 N1 O3'
_chemical_name_systematic        N-(2-Oxo-2H-chromen-3-yl)formamide
_symmetry_cell_setting           orthorhombic
_symmetry_space_group_name_H-M   'P b c a'
_symmetry_Int_Tables_number      61
_space_group_name_Hall           '-P 2ac 2ab'
loop_
_symmetry_equiv_pos_site_id
_symmetry_equiv_pos_as_xyz
1 x,y,z
2 1/2-x,-y,1/2+z
3 -x,1/2+y,1/2-z
4 1/2+x,1/2-y,-z
5 -x,-y,-z
6 1/2+x,y,1/2-z
7 x,1/2-y,1/2+z
8 1/2-x,1/2+y,z
_cell_length_a                   12.8548(16)
_cell_length_b                   7.1841(9)
_cell_length_c                   18.157(2)
_cell_angle_alpha                90
_cell_angle_beta                 90
_cell_angle_gamma                90
_cell_volume                     1676.8
_exptl_crystal_colour            colorless
_exptl_crystal_description       prismatic
_cell_formula_units_Z            8
loop_
_atom_site_label
_atom_site_type_symbol
_atom_site_fract_x
_atom_site_fract_y
_atom_site_fract_z
N1 N 0.15940(13) 0.01673(19) 0.53774(8)
O1 O 0.04009(9) 0.15516(19) 0.42949(7)
O2 O 0.17086(9) 0.22312(15) 0.35673(6)
O3 O 0.29791(11) -0.0504(2) 0.61033(7)
C1 C 0.13330(13) 0.1550(2) 0.42051(10)
C2 C 0.20756(13) 0.0874(2) 0.47493(9)
C3 C 0.31080(13) 0.0967(2) 0.46196(9)
H1 H 0.3577 0.0557 0.4974
C4 C 0.34751(14) 0.1691(2) 0.39406(9)
C5 C 0.27642(14) 0.2305(2) 0.34213(10)
C6 C 0.30566(16) 0.3006(2) 0.27475(11)
H2 H 0.2561 0.3416 0.2411
C7 C 0.41004(18) 0.3087(3) 0.25835(11)
H3 H 0.4313 0.3560 0.2131
C8 C 0.48367(17) 0.2472(2) 0.30823(12)
H4 H 0.5539 0.2523 0.2963
C9 C 0.45326(15) 0.1790(2) 0.37521(11)
H5 H 0.5032 0.1386 0.4086
C10 C 0.20568(15) -0.0468(3) 0.59854(10)
H6 H 0.1625 -0.0927 0.6354
H7 H 0.093(2) 0.010(3) 0.5357(12)
loop_
_geom_bond_atom_site_label_1
_geom_bond_atom_site_label_2
_geom_bond_site_symmetry_1
_geom_bond_site_symmetry_2
N1 C2 1_555 1_555
O1 C1 1_555 1_555
O2 C1 1_555 1_555
O3 C10 1_555 1_555
C1 C2 1_555 1_555
C2 C3 1_555 1_555
C3 H1 1_555 1_555
C4 C3 1_555 1_555
C5 O2 1_555 1_555
C6 C5 1_555 1_555
H2 C6 1_555 1_555
C7 C6 1_555 1_555
H3 C7 1_555 1_555
C8 C7 1_555 1_555
H4 C8 1_555 1_555
C9 C4 1_555 1_555
H5 C9 1_555 1_555
C10 N1 1_555 1_555
H6 C10 1_555 1_555
H7 N1 1_555 1_555
C4 C5 1_555 1_555
C8 C9 1_555 1_555

#END
