
#######################################################################
#
#                 Cambridge Crystallographic Data Centre
#                                CCDC 
#
#######################################################################
#
# If this CIF has been generated from an entry in the Cambridge 
# Structural Database, then it will include bibliographic, chemical, 
# crystal, experimental, refinement or atomic coordinate data resulting 
# from the CCDC's data processing and validation procedures.
#
#######################################################################

data_IQEQIG
_chemical_formula_moiety         'C16 H13 N3 O1'
_chemical_name_systematic        N-(3-phenylcinnolin-4-yl)acetamide
_symmetry_cell_setting           orthorhombic
_symmetry_space_group_name_H-M   'P c a 21'
_symmetry_Int_Tables_number      29
_space_group_name_Hall           'P 2c -2ac'
loop_
_symmetry_equiv_pos_site_id
_symmetry_equiv_pos_as_xyz
1 x,y,z
2 -x,-y,1/2+z
3 1/2+x,-y,z
4 1/2-x,y,1/2+z
_cell_length_a                   19.0121(8)
_cell_length_b                   4.9106(2)
_cell_length_c                   14.2880(6)
_cell_angle_alpha                90
_cell_angle_beta                 90
_cell_angle_gamma                90
_cell_volume                     1333.94
_exptl_crystal_colour            yellow
_exptl_crystal_description       parallelepiped
_cell_formula_units_Z            4
loop_
_atom_site_label
_atom_site_type_symbol
_atom_site_fract_x
_atom_site_fract_y
_atom_site_fract_z
O1 O 0.73032(9) 0.2955(3) 0.39323(17)
N1 N 0.96527(10) 0.6760(4) 0.38652(17)
N2 N 0.98177(10) 0.5173(5) 0.31687(17)
N3 N 0.77138(9) 0.7206(4) 0.36936(14)
H1 H 0.7626(13) 0.887(5) 0.3778(19)
C1 C 0.93028(13) 0.4128(5) 0.26171(18)
C2 C 0.95077(16) 0.2382(6) 0.1879(2)
H2 H 0.9977 0.1879 0.1817
C3 C 0.90326(16) 0.1450(7) 0.1269(2)
H3 H 0.9174 0.0306 0.0785
C4 C 0.83216(16) 0.2179(7) 0.1351(2)
H4 H 0.8000 0.1560 0.0909
C5 C 0.80964(14) 0.3785(6) 0.2069(2)
H5 H 0.7622 0.4229 0.2122
C6 C 0.85849(12) 0.4774(5) 0.27352(17)
C7 C 0.84195(11) 0.6411(4) 0.35131(17)
C8 C 0.89641(12) 0.7327(4) 0.40704(17)
C9 C 0.88795(13) 0.8922(5) 0.49463(18)
C10 C 0.83983(14) 0.8208(6) 0.56270(19)
H6 H 0.8084 0.6794 0.5516
C11 C 0.83796(18) 0.9583(6) 0.6476(2)
H7 H 0.8057 0.9074 0.6934
C12 C 0.8835(2) 1.1684(8) 0.6640(3)
H8 H 0.8824 1.2598 0.7210
C13 C 0.9306(2) 1.2441(6) 0.5965(3)
H9 H 0.9606 1.3901 0.6074
C14 C 0.93412(15) 1.1061(5) 0.5121(2)
H10 H 0.9672 1.1561 0.4674
C15 C 0.71982(11) 0.5405(4) 0.39146(18)
C16 C 0.64977(13) 0.6619(6) 0.4137(2)
H11 H 0.6524 0.8565 0.4084
H12 H 0.6153 0.5936 0.3707
H13 H 0.6366 0.6137 0.4764
loop_
_geom_bond_atom_site_label_1
_geom_bond_atom_site_label_2
_geom_bond_site_symmetry_1
_geom_bond_site_symmetry_2
O1 C15 1_555 1_555
N1 N2 1_555 1_555
N2 C1 1_555 1_555
N3 H1 1_555 1_555
C1 C2 1_555 1_555
C2 H2 1_555 1_555
C3 C2 1_555 1_555
H3 C3 1_555 1_555
C4 C3 1_555 1_555
H4 C4 1_555 1_555
C5 C4 1_555 1_555
H5 C5 1_555 1_555
C6 C1 1_555 1_555
C7 N3 1_555 1_555
C8 N1 1_555 1_555
C9 C8 1_555 1_555
C10 C9 1_555 1_555
H6 C10 1_555 1_555
C11 C10 1_555 1_555
H7 C11 1_555 1_555
C12 C11 1_555 1_555
H8 C12 1_555 1_555
C13 C12 1_555 1_555
H9 C13 1_555 1_555
C14 C9 1_555 1_555
H10 C14 1_555 1_555
C15 N3 1_555 1_555
C16 C15 1_555 1_555
H11 C16 1_555 1_555
H12 C16 1_555 1_555
H13 C16 1_555 1_555
C5 C6 1_555 1_555
C6 C7 1_555 1_555
C7 C8 1_555 1_555
C13 C14 1_555 1_555

#END
