
#######################################################################
#
#                 Cambridge Crystallographic Data Centre
#                                CCDC 
#
#######################################################################
#
# If this CIF has been generated from an entry in the Cambridge 
# Structural Database, then it will include bibliographic, chemical, 
# crystal, experimental, refinement or atomic coordinate data resulting 
# from the CCDC's data processing and validation procedures.
#
#######################################################################

data_IQEQEC
_chemical_compound_source        'isolated from Toona ciliate'
_chemical_name_common            'Ciliatonoid A'
_chemical_formula_moiety         'C26 H32 O5'
_chemical_name_systematic        
8-(3-furyl)-3,3,7a,10b,11b-pentamethyl-1,3a,4,6a,7,7a,8,9,10b,11a,11b,11c-dodecahydro-2H-[1]benzofuro[4,3,2-def]cyclopenta[h][1]benzoxepine-2,5(3H)-dione
_symmetry_cell_setting           triclinic
_symmetry_space_group_name_H-M   'P 1'
_symmetry_Int_Tables_number      1
_space_group_name_Hall           'P 1'
loop_
_symmetry_equiv_pos_site_id
_symmetry_equiv_pos_as_xyz
1 x,y,z
_cell_length_a                   7.2748(2)
_cell_length_b                   12.3230(3)
_cell_length_c                   13.1676(3)
_cell_angle_alpha                114.2120(10)
_cell_angle_beta                 90.2770(10)
_cell_angle_gamma                91.3950(10)
_cell_volume                     1076.14
_exptl_crystal_colour            colorless
_cell_formula_units_Z            2
loop_
_atom_site_label
_atom_site_type_symbol
_atom_site_fract_x
_atom_site_fract_y
_atom_site_fract_z
O1 O 1.0545(4) 1.2118(2) 0.5311(2)
O2 O 1.2643(5) 1.1365(3) 0.1638(3)
O3 O 0.3947(4) 0.8963(3) 0.2421(2)
O4 O 0.5674(4) 0.9254(2) 0.3874(2)
O5 O 0.5826(6) 0.8390(4) 0.8857(3)
C1 C 1.0128(6) 1.2032(3) 0.4203(3)
H1 H 0.9782 1.2839 0.4272
C2 C 1.1834(6) 1.1672(3) 0.3478(3)
H2 H 1.2680 1.2376 0.3702
H3 H 1.2468 1.1059 0.3641
C3 C 1.1505(6) 1.1193(3) 0.2228(3)
C4 C 0.9720(6) 1.0486(4) 0.1747(3)
C5 C 0.8793(6) 1.0120(3) 0.2635(3)
H4 H 0.9708 0.9628 0.2814
C6 C 0.7081(6) 0.9285(4) 0.2131(3)
H5 H 0.6558 0.9516 0.1555
H6 H 0.7549 0.8473 0.1734
C7 C 0.5481(6) 0.9176(3) 0.2817(3)
C8 C 0.9924(6) 1.1023(3) 0.5359(3)
C9 C 0.8139(6) 1.0736(3) 0.4678(3)
H7 H 0.7195 1.1255 0.5183
C10 C 0.8407(6) 1.1180(3) 0.3750(3)
C11 C 0.7492(5) 0.9473(3) 0.4399(3)
H8 H 0.8379 0.8909 0.3882
C12 C 0.7360(6) 0.9262(3) 0.5492(3)
H9 H 0.6108 0.8948 0.5528
H10 H 0.8236 0.8641 0.5445
C13 C 0.7763(6) 1.0380(3) 0.6593(3)
C14 C 0.9427(6) 1.1126(3) 0.6510(3)
C15 C 1.0377(7) 1.1609(4) 0.7460(3)
H11 H 1.1412 1.2137 0.7590
C16 C 0.9579(7) 1.1198(4) 0.8316(3)
H12 H 0.8768 1.1801 0.8840
H13 H 1.0559 1.1016 0.8741
C17 C 0.8477(6) 1.0063(4) 0.7558(3)
H14 H 0.9395 0.9426 0.7223
C18 C 0.6020(6) 1.1113(4) 0.6956(3)
H15 H 0.5067 1.0649 0.7139
H16 H 0.5577 1.1308 0.6349
H17 H 0.6303 1.1850 0.7614
C19 C 0.6733(6) 1.1895(4) 0.3712(3)
H18 H 0.6520 1.2511 0.4457
H19 H 0.5647 1.1361 0.3459
H20 H 0.6962 1.2270 0.3194
C20 C 0.7127(6) 0.9606(4) 0.8158(3)
C21 C 0.7141(7) 0.8509(4) 0.8147(4)
H21 H 0.7942 0.7899 0.7712
C22 C 0.5712(7) 1.0221(4) 0.8925(3)
H22 H 0.5353 1.1016 0.9118
C23 C 0.4998(8) 0.9456(5) 0.9313(4)
H23 H 0.4038 0.9635 0.9840
C24 C 1.0187(7) 0.9364(4) 0.0718(3)
H24 H 1.0870 0.9592 0.0192
H25 H 0.9048 0.8933 0.0360
H26 H 1.0941 0.8851 0.0945
C25 C 0.8592(7) 1.1314(4) 0.1386(3)
H27 H 0.8658 1.2124 0.1973
H28 H 0.7307 1.1028 0.1257
H29 H 0.9093 1.1318 0.0698
C26 C 1.1412(6) 1.0066(4) 0.4937(3)
H30 H 1.1480 0.9761 0.4124
H31 H 1.1090 0.9412 0.5149
H32 H 1.2607 1.0422 0.5270
O6 O 0.5076(4) 0.3644(3) -0.0552(2)
O7 O 0.7418(6) 0.4465(3) 0.3109(3)
O8 O -0.1120(5) 0.6872(3) 0.2344(2)
O9 O 0.0566(4) 0.6576(2) 0.0897(2)
O10 O 0.0886(6) 0.7464(3) -0.4099(3)
C27 C 0.4670(6) 0.3734(4) 0.0562(3)
H33 H 0.4216 0.2935 0.0496
C28 C 0.6440(7) 0.4062(4) 0.1271(3)
H34 H 0.7166 0.3334 0.1058
H35 H 0.7168 0.4634 0.1073
C29 C 0.6235(6) 0.4597(3) 0.2531(3)
C30 C 0.4529(6) 0.5322(4) 0.3017(3)
C31 C 0.3610(6) 0.5677(3) 0.2133(3)
H36 H 0.4568 0.6154 0.1940
C32 C 0.1995(6) 0.6534(3) 0.2634(3)
H37 H 0.1457 0.6318 0.3218
H38 H 0.2559 0.7341 0.3023
C33 C 0.0380(6) 0.6655(3) 0.1945(3)
C34 C 0.4580(6) 0.4750(4) -0.0597(3)
C35 C 0.2846(6) 0.5060(3) 0.0086(3)
H39 H 0.1834 0.4552 -0.0411
C36 C 0.3077(6) 0.4629(3) 0.1030(3)
C37 C 0.2351(6) 0.6338(3) 0.0364(3)
H40 H 0.3309 0.6891 0.0877
C38 C 0.2233(6) 0.6545(3) -0.0719(3)
H41 H 0.3170 0.7161 -0.0669
H42 H 0.1012 0.6868 -0.0753
C39 C 0.2509(6) 0.5438(3) -0.1825(3)
C40 C 0.4098(6) 0.4666(3) -0.1741(3)
C41 C 0.4975(7) 0.4173(4) -0.2695(3)
H43 H 0.5941 0.3629 -0.2828
C42 C 0.4240(7) 0.4590(4) -0.3540(3)
H44 H 0.3362 0.3998 -0.4067
H45 H 0.5245 0.4761 -0.3962
C43 C 0.3260(6) 0.5751(4) -0.2777(3)
H46 H 0.4254 0.6373 -0.2436
C44 C 0.0679(7) 0.4715(4) -0.2198(4)
H47 H 0.0872 0.3997 -0.2877
H48 H -0.0242 0.5201 -0.2346
H49 H 0.0245 0.4487 -0.1607
C45 C 0.1323(7) 0.3944(4) 0.1091(3)
H50 H 0.1535 0.3553 0.1594
H51 H 0.0997 0.3343 0.0346
H52 H 0.0317 0.4499 0.1371
C46 C 0.1995(7) 0.6225(4) -0.3388(3)
C47 C 0.2156(8) 0.7328(4) -0.3391(4)
H53 H 0.3034 0.7924 -0.2959
C48 C 0.0505(8) 0.5641(4) -0.4146(3)
H54 H 0.0026 0.4858 -0.4329
C49 C -0.0091(8) 0.6423(5) -0.4552(4)
H55 H -0.1063 0.6261 -0.5082
C50 C 0.5133(7) 0.6443(4) 0.4035(3)
H56 H 0.4049 0.6896 0.4385
H57 H 0.5959 0.6935 0.3801
H58 H 0.5778 0.6215 0.4570
C51 C 0.3338(8) 0.4509(4) 0.3402(4)
H59 H 0.2104 0.4831 0.3580
H60 H 0.3904 0.4476 0.4065
H61 H 0.3249 0.3706 0.2804
C52 C 0.6189(6) 0.5674(4) -0.0177(3)
H62 H 0.6356 0.5932 0.0629
H63 H 0.5914 0.6363 -0.0338
H64 H 0.7319 0.5314 -0.0554
loop_
_geom_bond_atom_site_label_1
_geom_bond_atom_site_label_2
_geom_bond_site_symmetry_1
_geom_bond_site_symmetry_2
O1 C1 1_555 1_555
O2 C3 1_555 1_555
O3 C7 1_555 1_555
O4 C7 1_555 1_555
O5 C21 1_555 1_555
C1 H1 1_555 1_555
C2 C1 1_555 1_555
H2 C2 1_555 1_555
H3 C2 1_555 1_555
C3 C2 1_555 1_555
C4 C3 1_555 1_555
C5 C4 1_555 1_555
H4 C5 1_555 1_555
C6 C5 1_555 1_555
H5 C6 1_555 1_555
H6 C6 1_555 1_555
C7 C6 1_555 1_555
C8 O1 1_555 1_555
C9 C8 1_555 1_555
H7 C9 1_555 1_555
C10 C1 1_555 1_555
C11 O4 1_555 1_555
H8 C11 1_555 1_555
C12 C11 1_555 1_555
H9 C12 1_555 1_555
H10 C12 1_555 1_555
C13 C12 1_555 1_555
C14 C8 1_555 1_555
C15 C14 1_555 1_555
H11 C15 1_555 1_555
C16 C15 1_555 1_555
H12 C16 1_555 1_555
H13 C16 1_555 1_555
C17 C13 1_555 1_555
H14 C17 1_555 1_555
C18 C13 1_555 1_555
H15 C18 1_555 1_555
H16 C18 1_555 1_555
H17 C18 1_555 1_555
C19 C10 1_555 1_555
H18 C19 1_555 1_555
H19 C19 1_555 1_555
H20 C19 1_555 1_555
C20 C17 1_555 1_555
C21 C20 1_555 1_555
H21 C21 1_555 1_555
C22 C20 1_555 1_555
H22 C22 1_555 1_555
C23 O5 1_555 1_555
H23 C23 1_555 1_555
C24 C4 1_555 1_555
H24 C24 1_555 1_555
H25 C24 1_555 1_555
H26 C24 1_555 1_555
C25 C4 1_555 1_555
H27 C25 1_555 1_555
H28 C25 1_555 1_555
H29 C25 1_555 1_555
C26 C8 1_555 1_555
H30 C26 1_555 1_555
H31 C26 1_555 1_555
H32 C26 1_555 1_555
O6 C27 1_555 1_555
O7 C29 1_555 1_555
O8 C33 1_555 1_555
O9 C33 1_555 1_555
O10 C47 1_555 1_555
C27 H33 1_555 1_555
C28 C27 1_555 1_555
H34 C28 1_555 1_555
H35 C28 1_555 1_555
C29 C28 1_555 1_555
C30 C29 1_555 1_555
C31 C30 1_555 1_555
H36 C31 1_555 1_555
C32 C31 1_555 1_555
H37 C32 1_555 1_555
H38 C32 1_555 1_555
C33 C32 1_555 1_555
C34 O6 1_555 1_555
C35 C34 1_555 1_555
H39 C35 1_555 1_555
C36 C27 1_555 1_555
C37 O9 1_555 1_555
H40 C37 1_555 1_555
C38 C37 1_555 1_555
H41 C38 1_555 1_555
H42 C38 1_555 1_555
C39 C38 1_555 1_555
C40 C34 1_555 1_555
C41 C40 1_555 1_555
H43 C41 1_555 1_555
C42 C41 1_555 1_555
H44 C42 1_555 1_555
H45 C42 1_555 1_555
C43 C39 1_555 1_555
H46 C43 1_555 1_555
C44 C39 1_555 1_555
H47 C44 1_555 1_555
H48 C44 1_555 1_555
H49 C44 1_555 1_555
C45 C36 1_555 1_555
H50 C45 1_555 1_555
H51 C45 1_555 1_555
H52 C45 1_555 1_555
C46 C43 1_555 1_555
C47 C46 1_555 1_555
H53 C47 1_555 1_555
C48 C46 1_555 1_555
H54 C48 1_555 1_555
C49 O10 1_555 1_555
H55 C49 1_555 1_555
C50 C30 1_555 1_555
H56 C50 1_555 1_555
H57 C50 1_555 1_555
H58 C50 1_555 1_555
C51 C30 1_555 1_555
H59 C51 1_555 1_555
H60 C51 1_555 1_555
H61 C51 1_555 1_555
C52 C34 1_555 1_555
H62 C52 1_555 1_555
H63 C52 1_555 1_555
H64 C52 1_555 1_555
C5 C10 1_555 1_555
C9 C10 1_555 1_555
C9 C11 1_555 1_555
C13 C14 1_555 1_555
C16 C17 1_555 1_555
C22 C23 1_555 1_555
C31 C36 1_555 1_555
C35 C36 1_555 1_555
C35 C37 1_555 1_555
C39 C40 1_555 1_555
C42 C43 1_555 1_555
C48 C49 1_555 1_555

#END
