
#######################################################################
#
#                 Cambridge Crystallographic Data Centre
#                                CCDC 
#
#######################################################################
#
# If this CIF has been generated from an entry in the Cambridge 
# Structural Database, then it will include bibliographic, chemical, 
# crystal, experimental, refinement or atomic coordinate data resulting 
# from the CCDC's data processing and validation procedures.
#
#######################################################################

data_IQERIH
_chemical_formula_moiety         'C35 H21 Cl2 N1,C1 H2 Cl2'
_chemical_name_systematic        
'3,4-bis(4-chlorophenyl)-1-(9-phenanthryl)isoquinoline dichloromethane unknown solvate'
_symmetry_cell_setting           triclinic
_symmetry_space_group_name_H-M   'P -1'
_symmetry_Int_Tables_number      2
_space_group_name_Hall           '-P 1'
loop_
_symmetry_equiv_pos_site_id
_symmetry_equiv_pos_as_xyz
1 x,y,z
2 -x,-y,-z
_cell_length_a                   9.2698(11)
_cell_length_b                   12.7098(14)
_cell_length_c                   14.3453(15)
_cell_angle_alpha                74.173(7)
_cell_angle_beta                 75.883(7)
_cell_angle_gamma                79.171(7)
_cell_volume                     1563.55
_exptl_crystal_colour            colorless
_exptl_crystal_description       block
_cell_formula_units_Z            2
loop_
_atom_site_label
_atom_site_type_symbol
_atom_site_fract_x
_atom_site_fract_y
_atom_site_fract_z
Cl1 Cl 0.3379(2) 1.31897(15) 0.56437(17)
Cl2 Cl 0.4989(5) 1.2043(2) -0.01389(17)
N1 N 0.1810(4) 0.8414(3) 0.5452(3)
C1 C 0.3088(7) 1.2049(5) 0.5309(5)
C2 C 0.1871(6) 1.1516(5) 0.5807(5)
H1 H 0.1191 1.1776 0.6314
C3 C 0.1653(6) 1.0601(4) 0.5559(4)
H2 H 0.0828 1.0241 0.5910
C4 C 0.2629(6) 1.0193(4) 0.4799(4)
C5 C 0.3846(6) 1.0752(4) 0.4297(4)
H3 H 0.4523 1.0498 0.3786
C6 C 0.4071(7) 1.1679(5) 0.4542(4)
H4 H 0.4884 1.2052 0.4189
C7 C 0.3207(7) 0.9746(5) 0.2740(4)
C8 C 0.2337(9) 1.0675(5) 0.2340(5)
H5 H 0.1363 1.0840 0.2678
C9 C 0.2864(13) 1.1372(7) 0.1452(6)
H6 H 0.2252 1.1994 0.1186
C10 C 0.4269(14) 1.1140(8) 0.0981(5)
C11 C 0.5206(11) 1.0226(8) 0.1328(6)
H7 H 0.6180 1.0075 0.0984
C12 C 0.4625(8) 0.9534(6) 0.2226(5)
H8 H 0.5231 0.8903 0.2483
C13 C 0.2367(5) 0.9164(4) 0.4593(4)
C14 C 0.2609(6) 0.8958(4) 0.3675(4)
C15 C 0.2206(6) 0.7948(4) 0.3602(4)
C16 C 0.2285(7) 0.7696(5) 0.2698(4)
H9 H 0.2643 0.8185 0.2109
C17 C 0.1847(8) 0.6751(6) 0.2669(5)
H10 H 0.1899 0.6604 0.2060
C18 C 0.1318(8) 0.5991(5) 0.3537(5)
H11 H 0.1030 0.5340 0.3508
C19 C 0.1229(7) 0.6210(5) 0.4417(5)
H12 H 0.0879 0.5703 0.4996
C20 C 0.1654(6) 0.7191(4) 0.4480(4)
C21 C 0.1488(5) 0.7479(4) 0.5393(4)
C22 C 0.0902(6) 0.6709(4) 0.6351(4)
C23 C -0.0601(7) 0.6811(5) 0.6748(4)
C24 C -0.1186(7) 0.6098(5) 0.7660(5)
C25 C -0.2734(8) 0.6156(6) 0.8049(6)
H13 H -0.3379 0.6662 0.7688
C26 C -0.3329(10) 0.5514(8) 0.8922(7)
H14 H -0.4359 0.5587 0.9167
C27 C -0.2361(11) 0.4740(8) 0.9446(6)
H15 H -0.2756 0.4287 1.0048
C28 C -0.0841(9) 0.4626(6) 0.9099(5)
H16 H -0.0220 0.4100 0.9465
C29 C -0.0210(8) 0.5305(5) 0.8183(4)
C30 C 0.1403(7) 0.5168(5) 0.7765(4)
C31 C 0.2431(9) 0.4392(6) 0.8219(5)
H17 H 0.2108 0.3932 0.8834
C32 C 0.3909(10) 0.4292(7) 0.7779(7)
H18 H 0.4579 0.3764 0.8102
C33 C 0.4441(8) 0.4952(6) 0.6865(6)
H19 H 0.5454 0.4865 0.6572
C34 C 0.3464(7) 0.5732(5) 0.6399(5)
H20 H 0.3820 0.6180 0.5784
C35 C 0.1929(7) 0.5876(5) 0.6825(4)
Cl3 Cl 0.0851(16) 0.824(3) 0.8657(13)
Cl4 Cl 0.3302(14) 0.7599(8) 0.8034(6)
C36 C 0.2046(19) 0.8514(13) 0.7546(10)
H21 H 0.1734 0.8323 0.7021
H22 H 0.2307 0.9259 0.7340
C37? C 0.8807(16) 0.8420(12) 0.1317(12)
C38? C 0.976(5) 0.933(4) 0.111(4)
C39? C 1.075(4) 0.939(3) 0.024(3)
C40? C 0.955(4) 0.879(3) 0.035(3)
loop_
_geom_bond_atom_site_label_1
_geom_bond_atom_site_label_2
_geom_bond_site_symmetry_1
_geom_bond_site_symmetry_2
Cl1 C1 1_555 1_555
Cl2 C10 1_555 1_555
N1 C13 1_555 1_555
C1 C2 1_555 1_555
C2 H1 1_555 1_555
C3 C2 1_555 1_555
H2 C3 1_555 1_555
C4 C3 1_555 1_555
C5 C4 1_555 1_555
H3 C5 1_555 1_555
C6 C1 1_555 1_555
H4 C6 1_555 1_555
C7 C8 1_555 1_555
C8 H5 1_555 1_555
C9 C8 1_555 1_555
H6 C9 1_555 1_555
C10 C9 1_555 1_555
C11 C10 1_555 1_555
H7 C11 1_555 1_555
C12 C7 1_555 1_555
H8 C12 1_555 1_555
C13 C4 1_555 1_555
C14 C7 1_555 1_555
C15 C14 1_555 1_555
C16 C15 1_555 1_555
H9 C16 1_555 1_555
C17 C16 1_555 1_555
H10 C17 1_555 1_555
C18 C17 1_555 1_555
H11 C18 1_555 1_555
C19 C18 1_555 1_555
H12 C19 1_555 1_555
C20 C15 1_555 1_555
C21 N1 1_555 1_555
C22 C21 1_555 1_555
C23 C22 1_555 1_555
C24 C23 1_555 1_555
C25 C24 1_555 1_555
H13 C25 1_555 1_555
C26 C25 1_555 1_555
H14 C26 1_555 1_555
C27 C26 1_555 1_555
H15 C27 1_555 1_555
C28 C27 1_555 1_555
H16 C28 1_555 1_555
C29 C24 1_555 1_555
C30 C29 1_555 1_555
C31 C30 1_555 1_555
H17 C31 1_555 1_555
C32 C31 1_555 1_555
H18 C32 1_555 1_555
C33 C32 1_555 1_555
H19 C33 1_555 1_555
C34 C33 1_555 1_555
H20 C34 1_555 1_555
C35 C22 1_555 1_555
Cl3 C36 1_555 1_555
Cl4 C36 1_555 1_555
C36 H21 1_555 1_555
H22 C36 1_555 1_555
C5 C6 1_555 1_555
C11 C12 1_555 1_555
C13 C14 1_555 1_555
C19 C20 1_555 1_555
C20 C21 1_555 1_555
C28 C29 1_555 1_555
C30 C35 1_555 1_555
C34 C35 1_555 1_555

#END
