
#######################################################################
#
#                 Cambridge Crystallographic Data Centre
#                                CCDC 
#
#######################################################################
#
# If this CIF has been generated from an entry in the Cambridge 
# Structural Database, then it will include bibliographic, chemical, 
# crystal, experimental, refinement or atomic coordinate data resulting 
# from the CCDC's data processing and validation procedures.
#
#######################################################################

data_IQESAZ
_chemical_formula_moiety         'C15 H22 O5'
_chemical_name_systematic        
'(4R,4aS,8aS)-Dimethyl 4-methyl-5-oxo-octahydronaphthalene-1,1(2H)-dicarboxylate'
_symmetry_cell_setting           monoclinic
_symmetry_space_group_name_H-M   'P 21/c'
_symmetry_Int_Tables_number      14
_space_group_name_Hall           '-P 2ybc'
loop_
_symmetry_equiv_pos_site_id
_symmetry_equiv_pos_as_xyz
1 x,y,z
2 -x,1/2+y,1/2-z
3 -x,-y,-z
4 x,1/2-y,1/2+z
_cell_length_a                   11.0821(8)
_cell_length_b                   11.2831(8)
_cell_length_c                   12.3850(8)
_cell_angle_alpha                90
_cell_angle_beta                 103.865(1)
_cell_angle_gamma                90
_cell_volume                     1503.5
_exptl_crystal_colour            colorless
_exptl_crystal_description       block
_cell_formula_units_Z            4
loop_
_atom_site_label
_atom_site_type_symbol
_atom_site_fract_x
_atom_site_fract_y
_atom_site_fract_z
O1 O 1.05662(13) 0.89520(17) 0.25300(14)
O2 O 0.44219(13) 0.75157(17) 0.23038(16)
O3 O 0.50835(11) 0.80480(14) 0.08018(12)
O4 O 0.74995(12) 0.63427(11) 0.08847(10)
O5 O 0.61711(11) 0.52828(11) 0.15734(10)
C1 C 0.96479(16) 0.90020(19) 0.28987(14)
C2 C 0.92505(18) 1.01185(19) 0.33743(17)
H1 H 0.9799 1.0763 0.3288
H2 H 0.9310 1.0012 0.4162
C3 C 0.79219(18) 1.04286(18) 0.27858(17)
H3 H 0.7884 1.0627 0.2016
H4 H 0.7655 1.1116 0.3137
C4 C 0.70512(15) 0.93932(16) 0.28301(15)
H5 H 0.6213 0.9605 0.2437
H6 H 0.7046 0.9231 0.3598
C5 C 0.74564(13) 0.82782(14) 0.23061(12)
H7 H 0.7434 0.8468 0.1529
C6 C 0.65741(14) 0.72132(14) 0.22962(12)
C7 C 0.67259(17) 0.67056(17) 0.34724(14)
H8 H 0.6460 0.7291 0.3940
H9 H 0.6201 0.6012 0.3439
C8 C 0.80682(19) 0.63657(17) 0.39805(14)
H10 H 0.8313 0.5743 0.3536
H11 H 0.8133 0.6053 0.4722
C9 C 0.89536(15) 0.74064(16) 0.40504(12)
H12 H 0.8714 0.8015 0.4523
C10 C 0.88142(13) 0.79353(15) 0.28749(12)
H13 H 0.9077 0.7328 0.2414
C11 C 0.52319(16) 0.76006(17) 0.18208(18)
C12 C 0.3863(2) 0.8509(2) 0.0287(3)
H14 H 0.3796 0.8631 -0.0493
H15 H 0.3741 0.9249 0.0628
H16 H 0.3241 0.7953 0.0382
C13 C 0.68230(14) 0.62529(15) 0.15005(12)
C14 C 0.6364(2) 0.42894(18) 0.09021(18)
H17 H 0.5773 0.3678 0.0939
H18 H 0.7191 0.3988 0.1175
H19 H 0.6257 0.4541 0.0144
C15 C 1.02925(18) 0.7047(2) 0.45676(16)
H20 H 1.0822 0.7729 0.4620
H21 H 1.0549 0.6457 0.4111
H22 H 1.0350 0.6730 0.5297
loop_
_geom_bond_atom_site_label_1
_geom_bond_atom_site_label_2
_geom_bond_site_symmetry_1
_geom_bond_site_symmetry_2
O1 C1 1_555 1_555
O2 C11 1_555 1_555
O3 C11 1_555 1_555
O4 C13 1_555 1_555
O5 C13 1_555 1_555
C1 C2 1_555 1_555
C2 H1 1_555 1_555
H2 C2 1_555 1_555
C3 C2 1_555 1_555
H3 C3 1_555 1_555
H4 C3 1_555 1_555
C4 C3 1_555 1_555
H5 C4 1_555 1_555
H6 C4 1_555 1_555
C5 C4 1_555 1_555
H7 C5 1_555 1_555
C6 C5 1_555 1_555
C7 C6 1_555 1_555
H8 C7 1_555 1_555
H9 C7 1_555 1_555
C8 C7 1_555 1_555
H10 C8 1_555 1_555
H11 C8 1_555 1_555
C9 C8 1_555 1_555
H12 C9 1_555 1_555
C10 C1 1_555 1_555
H13 C10 1_555 1_555
C11 C6 1_555 1_555
C12 O3 1_555 1_555
H14 C12 1_555 1_555
H15 C12 1_555 1_555
H16 C12 1_555 1_555
C13 C6 1_555 1_555
C14 O5 1_555 1_555
H17 C14 1_555 1_555
H18 C14 1_555 1_555
H19 C14 1_555 1_555
C15 C9 1_555 1_555
H20 C15 1_555 1_555
H21 C15 1_555 1_555
H22 C15 1_555 1_555
C5 C10 1_555 1_555
C9 C10 1_555 1_555

#END
