
#######################################################################
#
#                 Cambridge Crystallographic Data Centre
#                                CCDC 
#
#######################################################################
#
# If this CIF has been generated from an entry in the Cambridge 
# Structural Database, then it will include bibliographic, chemical, 
# crystal, experimental, refinement or atomic coordinate data resulting 
# from the CCDC's data processing and validation procedures.
#
#######################################################################

data_IQESUU
_chemical_formula_moiety         'C20 H12 F4 N2 O2'
_chemical_name_systematic        
2,2'-(1,2-phenylenebis(nitrilomethylylidene))bis(4,5-difluorophenol)
_symmetry_cell_setting           monoclinic
_symmetry_space_group_name_H-M   'P 21/c'
_symmetry_Int_Tables_number      14
_space_group_name_Hall           '-P 2ybc'
loop_
_symmetry_equiv_pos_site_id
_symmetry_equiv_pos_as_xyz
1 x,y,z
2 -x,1/2+y,1/2-z
3 -x,-y,-z
4 x,1/2-y,1/2+z
_cell_length_a                   12.2952(4)
_cell_length_b                   6.0925(2)
_cell_length_c                   22.2088(6)
_cell_angle_alpha                90
_cell_angle_beta                 96.339(3)
_cell_angle_gamma                90
_cell_volume                     1653.46
_exptl_crystal_colour            yellow
_exptl_crystal_description       needle
_cell_formula_units_Z            4
loop_
_atom_site_label
_atom_site_type_symbol
_atom_site_fract_x
_atom_site_fract_y
_atom_site_fract_z
F1 F 1.44531(8) 1.11296(17) 0.09984(5)
F2 F 0.81781(10) 1.83461(16) 0.28267(5)
F3 F 1.43751(8) 0.71506(18) 0.15184(5)
F4 F 0.60852(9) 1.70335(18) 0.26753(5)
O1 O 0.92813(9) 1.22769(19) 0.17475(5)
H1 H 0.9024 1.1246 0.1541
N1 N 0.95436(10) 0.7877(2) 0.08454(6)
O2 O 1.06273(9) 1.12984(18) 0.05777(5)
H2 H 1.0087 1.0527 0.0600
N2 N 0.78049(11) 0.9653(2) 0.12855(6)
C1 C 1.34698(13) 1.0164(3) 0.10167(7)
C2 C 1.25391(13) 1.1226(3) 0.07790(7)
H3 H 1.2579 1.2605 0.0604
C3 C 1.15278(13) 1.0206(3) 0.08038(7)
C4 C 1.14785(13) 0.8069(2) 0.10519(7)
C5 C 1.04414(13) 0.6903(3) 0.10334(7)
H4 H 1.0430 0.5447 0.1158
C6 C 0.85402(13) 0.6735(2) 0.07468(7)
C7 C 0.76059(13) 0.7726(2) 0.09378(7)
C8 C 0.70772(13) 1.0673(3) 0.15492(7)
H5 H 0.6363 1.0149 0.1520
C9 C 0.73739(13) 1.2648(3) 0.18931(7)
C10 C 0.84713(13) 1.3370(3) 0.19745(7)
C11 C 0.87486(15) 1.5287(3) 0.23018(7)
H6 H 0.9471 1.5760 0.2366
C12 C 0.79287(15) 1.6453(3) 0.25259(7)
C13 C 1.24507(13) 0.7057(3) 0.12907(7)
H7 H 1.2431 0.5662 0.1459
C14 C 1.34304(13) 0.8102(3) 0.12784(7)
C15 C 0.65648(14) 1.3884(3) 0.21342(7)
H8 H 0.5840 1.3420 0.2085
C16 C 0.68504(15) 1.5784(3) 0.24440(7)
C17 C 0.65846(13) 0.6760(3) 0.07868(7)
H9 H 0.5960 0.7429 0.0902
C18 C 0.64972(14) 0.4806(3) 0.04665(7)
H10 H 0.5814 0.4164 0.0368
C19 C 0.74250(14) 0.3802(3) 0.02917(7)
H11 H 0.7363 0.2473 0.0084
C20 C 0.84424(14) 0.4768(3) 0.04244(7)
H12 H 0.9060 0.4106 0.0298
loop_
_geom_bond_atom_site_label_1
_geom_bond_atom_site_label_2
_geom_bond_site_symmetry_1
_geom_bond_site_symmetry_2
F1 C1 1_555 1_555
F2 C12 1_555 1_555
F3 C14 1_555 1_555
F4 C16 1_555 1_555
O1 H1 1_555 1_555
N1 C5 1_555 1_555
O2 H2 1_555 1_555
N2 C7 1_555 1_555
C1 C2 1_555 1_555
C2 H3 1_555 1_555
C3 O2 1_555 1_555
C4 C3 1_555 1_555
C5 C4 1_555 1_555
H4 C5 1_555 1_555
C6 N1 1_555 1_555
C7 C6 1_555 1_555
C8 N2 1_555 1_555
H5 C8 1_555 1_555
C9 C8 1_555 1_555
C10 O1 1_555 1_555
C11 C10 1_555 1_555
H6 C11 1_555 1_555
C12 C11 1_555 1_555
C13 C4 1_555 1_555
H7 C13 1_555 1_555
C14 C1 1_555 1_555
C15 C9 1_555 1_555
H8 C15 1_555 1_555
C16 C12 1_555 1_555
C17 C7 1_555 1_555
H9 C17 1_555 1_555
C18 C17 1_555 1_555
H10 C18 1_555 1_555
C19 C18 1_555 1_555
H11 C19 1_555 1_555
C20 C6 1_555 1_555
H12 C20 1_555 1_555
C2 C3 1_555 1_555
C9 C10 1_555 1_555
C13 C14 1_555 1_555
C15 C16 1_555 1_555
C19 C20 1_555 1_555

#END
