
#######################################################################
#
#                 Cambridge Crystallographic Data Centre
#                                CCDC 
#
#######################################################################
#
# If this CIF has been generated from an entry in the Cambridge 
# Structural Database, then it will include bibliographic, chemical, 
# crystal, experimental, refinement or atomic coordinate data resulting 
# from the CCDC's data processing and validation procedures.
#
#######################################################################

data_IQEYOT
_chemical_name_common            
"bis(2,5,8,11,18,21,24,27-octaoxabicyclo[26.2.2]dotriaconta-1(30),28,31-triene-13,15-diyne) 1,1'-dimethyl-4,4'-bipyridinium clathrate bis(hexafluorophosphate) monohydrate"
_chemical_formula_moiety         '2(C24 H32 O8),C12 H14 N2 2+,2(F6 P1 1-),H2 O1'
_chemical_name_systematic        
"[3]-(1,1'-Dimethyl-4,4'-bipyridinium)-bis(2,5,8,11,18,21,24,27-octaoxabicyclo[26.2.2]dotriaconta-1(30),28,31-triene-13,15-diyne)-pseudorotaxane bis(hexafluorophosphate) monohydrate"
_symmetry_cell_setting           monoclinic
_symmetry_space_group_name_H-M   'P 21/c'
_symmetry_Int_Tables_number      14
_space_group_name_Hall           '-P 2ybc'
loop_
_symmetry_equiv_pos_site_id
_symmetry_equiv_pos_as_xyz
1 x,y,z
2 -x,1/2+y,1/2-z
3 -x,-y,-z
4 x,1/2-y,1/2+z
_cell_length_a                   19.342(4)
_cell_length_b                   11.630(3)
_cell_length_c                   32.037(5)
_cell_angle_alpha                90
_cell_angle_beta                 108.986(10)
_cell_angle_gamma                90
_cell_volume                     6814.59
_exptl_crystal_description       block
_cell_formula_units_Z            4
loop_
_atom_site_label
_atom_site_type_symbol
_atom_site_fract_x
_atom_site_fract_y
_atom_site_fract_z
O1 O 0.3803(4) 0.2579(7) -0.0769(2)
O2 O 0.3917(3) 0.4510(5) -0.0215(2)
O3 O 0.3928(4) 0.0205(7) -0.0729(2)
O4 O 0.3751(3) -0.1049(5) -0.0007(2)
O5 O 0.4162(3) 0.1311(5) 0.23132(18)
O6 O 0.4029(3) 0.3501(6) 0.27094(18)
O7 O 0.3419(4) 0.5350(6) 0.2144(2)
O8 O 0.3716(3) 0.5962(5) 0.1378(2)
C1 C 0.3143(5) 0.5146(8) 0.0207(3)
H1 H 0.2721 0.5067 -0.0036
C2 C 0.3084(5) 0.5506(8) 0.0606(4)
H2 H 0.2627 0.5669 0.0628
C3 C 0.3704(4) 0.5625(7) 0.0973(3)
C4 C 0.4379(4) 0.5391(7) 0.0920(3)
H3 H 0.4804 0.5481 0.1159
C5 C 0.4428(4) 0.5036(8) 0.0529(3)
H4 H 0.4887 0.4880 0.0508
C6 C 0.3819(4) 0.4898(7) 0.0160(3)
C7 C 0.3317(5) 0.4301(9) -0.0587(3)
H5 H 0.3080 0.5021 -0.0703
H6 H 0.2967 0.3822 -0.0509
C8 C 0.3555(5) 0.3727(10) -0.0917(3)
H7 H 0.3153 0.3688 -0.1193
H8 H 0.3950 0.4158 -0.0967
C9 C 0.4056(7) 0.1997(14) -0.1046(4)
H9 H 0.4401 0.2471 -0.1131
H10 H 0.3655 0.1811 -0.1311
C10 C 0.4425(6) 0.0909(12) -0.0834(4)
H11 H 0.4624 0.0510 -0.1035
H12 H 0.4825 0.1094 -0.0569
C11 C 0.4206(6) -0.0896(12) -0.0592(3)
H13 H 0.4683 -0.0826 -0.0368
H14 H 0.4268 -0.1308 -0.0841
C12 C 0.3722(5) -0.1551(8) -0.0413(3)
H15 H 0.3225 -0.1530 -0.0617
H16 H 0.3879 -0.2347 -0.0369
C13 C 0.3426(6) -0.1747(9) 0.0226(3)
H17 H 0.3642 -0.2509 0.0257
H18 H 0.2908 -0.1819 0.0065
C14 C 0.3526(4) -0.1263(8) 0.0667(4)
C15 C 0.3585(4) -0.0886(7) 0.1019(3)
C16 C 0.3646(4) -0.0474(7) 0.1428(3)
C17 C 0.3705(4) -0.0105(8) 0.1782(3)
C18 C 0.3785(5) 0.0256(9) 0.2233(3)
H19 H 0.3307 0.0345 0.2267
H20 H 0.4055 -0.0319 0.2442
C19 C 0.4423(6) 0.1581(9) 0.2788(3)
H21 H 0.4038 0.1435 0.2913
H22 H 0.4837 0.1096 0.2938
C20 C 0.4632(6) 0.2751(10) 0.2844(3)
H23 H 0.4901 0.2890 0.3153
H24 H 0.4955 0.2915 0.2676
C21 C 0.4224(6) 0.4651(11) 0.2804(3)
H25 H 0.4339 0.4768 0.3119
H26 H 0.4666 0.4800 0.2733
C22 C 0.3701(8) 0.5453(10) 0.2586(4)
H27 H 0.3302 0.5412 0.2706
H28 H 0.3917 0.6212 0.2653
C23 C 0.3177(5) 0.6379(8) 0.1919(4)
H29 H 0.3547 0.6971 0.2022
H30 H 0.2734 0.6637 0.1970
C24 C 0.3032(5) 0.6161(8) 0.1445(3)
H31 H 0.2717 0.5495 0.1351
H32 H 0.2789 0.6819 0.1273
O9 O 0.1020(3) -0.0647(6) 0.1107(2)
O10 O 0.1500(6) -0.0251(8) 0.0374(3)
O11 O 0.1228(5) 0.1740(9) -0.0121(3)
O12 O 0.1002(6) 0.3998(10) 0.0198(3)
O13 O 0.0948(6) 0.6372(8) 0.2526(3)
O14 O 0.1699(3) 0.4844(6) 0.3192(2)
O15 O 0.1640(4) 0.2459(6) 0.3366(2)
O16 O 0.0972(3) 0.0707(5) 0.2729(2)
C25 C 0.0442(4) 0.0128(8) 0.1579(3)
H33 H 0.0025 0.0209 0.1334
C26 C 0.0428(4) 0.0467(7) 0.1975(3)
H34 H 0.0008 0.0808 0.2000
C27 C 0.1029(4) 0.0316(7) 0.2346(3)
C28 C 0.1647(4) -0.0173(7) 0.2305(3)
H35 H 0.2056 -0.0275 0.2554
C29 C 0.1663(4) -0.0516(7) 0.1895(4)
H36 H 0.2081 -0.0866 0.1871
C30 C 0.1076(5) -0.0349(7) 0.1527(3)
C31 C 0.1637(5) -0.1137(8) 0.1030(4)
H37 H 0.1749 -0.1873 0.1179
H38 H 0.2057 -0.0637 0.1149
C32 C 0.1494(5) -0.1297(9) 0.0554(4)
H39 H 0.1868 -0.1782 0.0505
H40 H 0.1023 -0.1663 0.0421
C33 C 0.1245(13) -0.0230(14) -0.0059(6)
H41 H 0.1638 -0.0491 -0.0162
H42 H 0.0865 -0.0809 -0.0149
C34 C 0.0984(11) 0.0681(18) -0.0279(4)
H43 H 0.0460 0.0673 -0.0333
H44 H 0.1054 0.0608 -0.0564
C35 C 0.0739(9) 0.2606(18) -0.0355(5)
H45 H 0.0637 0.2504 -0.0670
H46 H 0.0281 0.2547 -0.0294
C36 C 0.1038(11) 0.3654(16) -0.0232(6)
H47 H 0.0783 0.4218 -0.0451
H48 H 0.1545 0.3641 -0.0221
C37 C 0.1024(6) 0.5145(15) 0.0240(4)
H49 H 0.0599 0.5482 0.0022
H50 H 0.1458 0.5442 0.0189
C38 C 0.1033(6) 0.5453(10) 0.0689(5)
C39 C 0.0982(6) 0.5760(10) 0.1031(5)
C40 C 0.0903(6) 0.6127(10) 0.1418(5)
C41 C 0.0828(7) 0.6458(11) 0.1747(5)
C42 C 0.0694(9) 0.6974(12) 0.2131(4)
H51 H 0.0916 0.7731 0.2178
H52 H 0.0171 0.7079 0.2060
C43 C 0.1636(5) 0.6395(11) 0.2663(5)
H53 H 0.1805 0.7170 0.2639
H54 H 0.1825 0.5890 0.2485
C44 C 0.1925(6) 0.5998(9) 0.3156(3)
H55 H 0.2454 0.6043 0.3266
H56 H 0.1735 0.6502 0.3334
C45 C 0.1937(6) 0.4370(10) 0.3603(4)
H57 H 0.1867 0.4927 0.3811
H58 H 0.2457 0.4226 0.3681
C46 C 0.1567(6) 0.3273(11) 0.3653(3)
H59 H 0.1778 0.2992 0.3953
H60 H 0.1051 0.3420 0.3600
C47 C 0.1448(5) 0.1327(9) 0.3464(3)
H61 H 0.0940 0.1300 0.3450
H62 H 0.1751 0.1095 0.3758
C48 C 0.1575(5) 0.0555(8) 0.3122(3)
H63 H 0.2028 0.0759 0.3072
H64 H 0.1606 -0.0240 0.3218
N1 N 0.1039(3) 0.3319(5) 0.2048(2)
N2 N 0.3580(4) 0.2297(6) 0.0967(3)
C49 C 0.0530(4) 0.3552(7) 0.2295(3)
H65 H 0.0037 0.3551 0.2094
H66 H 0.0638 0.4290 0.2435
H67 H 0.0582 0.2968 0.2514
C50 C 0.0822(4) 0.3168(8) 0.1618(3)
H68 H 0.0325 0.3208 0.1461
C51 C 0.1302(4) 0.2956(8) 0.1395(3)
H69 H 0.1128 0.2857 0.1090
C52 C 0.2030(4) 0.2887(6) 0.1614(2)
C53 C 0.2252(4) 0.3036(7) 0.2072(3)
H70 H 0.2745 0.2997 0.2237
C54 C 0.1736(5) 0.3243(7) 0.2282(3)
H71 H 0.1885 0.3327 0.2587
C55 C 0.4128(5) 0.2064(8) 0.0747(3)
H72 H 0.4576 0.2454 0.0902
H73 H 0.3948 0.2335 0.0448
H74 H 0.4217 0.1252 0.0748
C56 C 0.2887(5) 0.2013(8) 0.0771(3)
H75 H 0.2750 0.1687 0.0491
C57 C 0.2368(4) 0.2187(7) 0.0970(3)
H76 H 0.1888 0.1965 0.0825
C58 C 0.2547(4) 0.2691(6) 0.1384(2)
C59 C 0.3286(4) 0.3011(6) 0.1574(2)
H77 H 0.3436 0.3367 0.1849
C60 C 0.3789(4) 0.2813(7) 0.1364(3)
H78 H 0.4274 0.3033 0.1496
P1 P 0.62687(11) 0.34022(19) 0.16869(7)
F1 F 0.5572(3) 0.3534(8) 0.1813(2)
F2 F 0.6412(4) 0.4702(4) 0.17695(17)
F3 F 0.6992(4) 0.3349(7) 0.1563(2)
F4 F 0.6164(5) 0.2103(5) 0.16120(17)
F5 F 0.5827(3) 0.3614(5) 0.11838(15)
F6 F 0.6712(3) 0.3203(5) 0.21854(15)
P2 P 0.13059(11) 0.8084(2) 0.41332(7)
F7 F 0.1347(10) 0.6880(7) 0.4113(3)
F8 F 0.2008(4) 0.8218(11) 0.4054(3)
F9 F 0.1267(9) 0.9305(7) 0.4149(4)
F10 F 0.0600(3) 0.8009(13) 0.4219(2)
F11 F 0.1639(3) 0.8065(6) 0.46496(17)
F12 F 0.0965(3) 0.8086(8) 0.36283(18)
O17 O 0.3071(4) 0.3665(6) 0.4780(2)
H79 H 0.3431 0.3458 0.4689
H80 H 0.3270 0.3942 0.5044
loop_
_geom_bond_atom_site_label_1
_geom_bond_atom_site_label_2
_geom_bond_site_symmetry_1
_geom_bond_site_symmetry_2
O1 C8 1_555 1_555
O2 C6 1_555 1_555
O3 C10 1_555 1_555
O4 C12 1_555 1_555
O5 C18 1_555 1_555
O6 C20 1_555 1_555
O7 C22 1_555 1_555
O8 C3 1_555 1_555
C1 H1 1_555 1_555
C2 C1 1_555 1_555
H2 C2 1_555 1_555
C3 C2 1_555 1_555
C4 C3 1_555 1_555
H3 C4 1_555 1_555
C5 C4 1_555 1_555
H4 C5 1_555 1_555
C6 C1 1_555 1_555
C7 O2 1_555 1_555
H5 C7 1_555 1_555
H6 C7 1_555 1_555
C8 C7 1_555 1_555
H7 C8 1_555 1_555
H8 C8 1_555 1_555
C9 O1 1_555 1_555
H9 C9 1_555 1_555
H10 C9 1_555 1_555
C10 C9 1_555 1_555
H11 C10 1_555 1_555
H12 C10 1_555 1_555
C11 O3 1_555 1_555
H13 C11 1_555 1_555
H14 C11 1_555 1_555
C12 C11 1_555 1_555
H15 C12 1_555 1_555
H16 C12 1_555 1_555
C13 O4 1_555 1_555
H17 C13 1_555 1_555
H18 C13 1_555 1_555
C14 C13 1_555 1_555
C15 C14 1_555 1_555
C16 C15 1_555 1_555
C17 C16 1_555 1_555
C18 C17 1_555 1_555
H19 C18 1_555 1_555
H20 C18 1_555 1_555
C19 O5 1_555 1_555
H21 C19 1_555 1_555
H22 C19 1_555 1_555
C20 C19 1_555 1_555
H23 C20 1_555 1_555
H24 C20 1_555 1_555
C21 O6 1_555 1_555
H25 C21 1_555 1_555
H26 C21 1_555 1_555
C22 C21 1_555 1_555
H27 C22 1_555 1_555
H28 C22 1_555 1_555
C23 O7 1_555 1_555
H29 C23 1_555 1_555
H30 C23 1_555 1_555
C24 O8 1_555 1_555
H31 C24 1_555 1_555
H32 C24 1_555 1_555
O9 C30 1_555 1_555
O10 C32 1_555 1_555
O11 C34 1_555 1_555
O12 C36 1_555 1_555
O13 C42 1_555 1_555
O14 C44 1_555 1_555
O15 C46 1_555 1_555
O16 C27 1_555 1_555
C25 H33 1_555 1_555
C26 C25 1_555 1_555
H34 C26 1_555 1_555
C27 C26 1_555 1_555
C28 C27 1_555 1_555
H35 C28 1_555 1_555
C29 C28 1_555 1_555
H36 C29 1_555 1_555
C30 C25 1_555 1_555
C31 O9 1_555 1_555
H37 C31 1_555 1_555
H38 C31 1_555 1_555
C32 C31 1_555 1_555
H39 C32 1_555 1_555
H40 C32 1_555 1_555
C33 O10 1_555 1_555
H41 C33 1_555 1_555
H42 C33 1_555 1_555
C34 C33 1_555 1_555
H43 C34 1_555 1_555
H44 C34 1_555 1_555
C35 O11 1_555 1_555
H45 C35 1_555 1_555
H46 C35 1_555 1_555
C36 C35 1_555 1_555
H47 C36 1_555 1_555
H48 C36 1_555 1_555
C37 O12 1_555 1_555
H49 C37 1_555 1_555
H50 C37 1_555 1_555
C38 C37 1_555 1_555
C39 C38 1_555 1_555
C40 C39 1_555 1_555
C41 C40 1_555 1_555
C42 C41 1_555 1_555
H51 C42 1_555 1_555
H52 C42 1_555 1_555
C43 O13 1_555 1_555
H53 C43 1_555 1_555
H54 C43 1_555 1_555
C44 C43 1_555 1_555
H55 C44 1_555 1_555
H56 C44 1_555 1_555
C45 O14 1_555 1_555
H57 C45 1_555 1_555
H58 C45 1_555 1_555
C46 C45 1_555 1_555
H59 C46 1_555 1_555
H60 C46 1_555 1_555
C47 O15 1_555 1_555
H61 C47 1_555 1_555
H62 C47 1_555 1_555
C48 O16 1_555 1_555
H63 C48 1_555 1_555
H64 C48 1_555 1_555
N1 C49 1_555 1_555
N2 C55 1_555 1_555
C49 H65 1_555 1_555
H66 C49 1_555 1_555
H67 C49 1_555 1_555
C50 N1 1_555 1_555
H68 C50 1_555 1_555
C51 C50 1_555 1_555
H69 C51 1_555 1_555
C52 C51 1_555 1_555
C53 C52 1_555 1_555
H70 C53 1_555 1_555
C54 N1 1_555 1_555
H71 C54 1_555 1_555
C55 H72 1_555 1_555
H73 C55 1_555 1_555
H74 C55 1_555 1_555
C56 N2 1_555 1_555
H75 C56 1_555 1_555
C57 C56 1_555 1_555
H76 C57 1_555 1_555
C58 C52 1_555 1_555
C59 C58 1_555 1_555
H77 C59 1_555 1_555
C60 N2 1_555 1_555
H78 C60 1_555 1_555
P1 F1 1_555 1_555
F2 P1 1_555 1_555
F3 P1 1_555 1_555
F4 P1 1_555 1_555
F5 P1 1_555 1_555
F6 P1 1_555 1_555
P2 F7 1_555 1_555
F8 P2 1_555 1_555
F9 P2 1_555 1_555
F10 P2 1_555 1_555
F11 P2 1_555 1_555
F12 P2 1_555 1_555
O17 H79 1_555 1_555
H80 O17 1_555 1_555
C5 C6 1_555 1_555
C23 C24 1_555 1_555
C29 C30 1_555 1_555
C47 C48 1_555 1_555
C53 C54 1_555 1_555
C57 C58 1_555 1_555
C59 C60 1_555 1_555

#END
