
#######################################################################
#
#                 Cambridge Crystallographic Data Centre
#                                CCDC 
#
#######################################################################
#
# If this CIF has been generated from an entry in the Cambridge 
# Structural Database, then it will include bibliographic, chemical, 
# crystal, experimental, refinement or atomic coordinate data resulting 
# from the CCDC's data processing and validation procedures.
#
#######################################################################

data_IQEZEL
_chemical_formula_moiety         'C18 H15 Br1 N2 O1'
_chemical_name_systematic        
2-bromo-5-ethoxy-7-methyl-7H-indolo[2,3-c]isoquinoline
_symmetry_cell_setting           triclinic
_symmetry_space_group_name_H-M   'P -1'
_symmetry_Int_Tables_number      2
_space_group_name_Hall           '-P 1'
loop_
_symmetry_equiv_pos_site_id
_symmetry_equiv_pos_as_xyz
1 x,y,z
2 -x,-y,-z
_cell_length_a                   8.1840(15)
_cell_length_b                   9.7886(17)
_cell_length_c                   10.6117(19)
_cell_angle_alpha                107.346(4)
_cell_angle_beta                 97.071(4)
_cell_angle_gamma                111.202(4)
_cell_volume                     730.602
_exptl_crystal_colour            colorless
_exptl_crystal_description       prismatic
_cell_formula_units_Z            2
loop_
_atom_site_label
_atom_site_type_symbol
_atom_site_fract_x
_atom_site_fract_y
_atom_site_fract_z
Br1 Br 0.52201(4) 0.71773(4) 0.51939(3)
N1 N 1.1859(3) 0.7117(3) 1.0787(2)
N2 N 1.0016(3) 0.8438(3) 1.1565(2)
O1 O 0.8092(3) 0.9604(2) 1.20806(18)
C1 C 1.2030(4) 0.6284(3) 0.9556(3)
C2 C 1.3179(4) 0.5554(3) 0.9295(3)
H1 H 1.3989 0.5580 1.0008
C3 C 1.3098(4) 0.4790(3) 0.7966(3)
H2 H 1.3869 0.4298 0.7774
C4 C 1.1885(4) 0.4738(3) 0.6900(3)
H3 H 1.1851 0.4204 0.6003
C5 C 1.0730(4) 0.5461(3) 0.7140(3)
H4 H 0.9931 0.5424 0.6414
C6 C 1.0773(4) 0.6249(3) 0.8486(3)
C7 C 0.9814(3) 0.7107(3) 0.9147(3)
C8 C 1.0517(3) 0.7601(3) 1.0546(3)
C9 C 0.8731(4) 0.8807(3) 1.1157(3)
C10 C 0.7876(3) 0.8426(3) 0.9756(3)
C11 C 0.8418(3) 0.7537(3) 0.8719(3)
C12 C 0.7589(4) 0.7161(3) 0.7344(3)
H5 H 0.7918 0.6573 0.6641
C13 C 0.6298(4) 0.7673(3) 0.7060(3)
C14 C 0.5737(4) 0.8542(3) 0.8060(3)
H6 H 0.4843 0.8862 0.7823
C15 C 0.6525(4) 0.8914(3) 0.9395(3)
H7 H 0.6167 0.9499 1.0078
C16 C 1.2944(4) 0.7449(4) 1.2122(3)
H8 H 1.2596 0.6500 1.2314
H9 H 1.2749 0.8229 1.2806
H10 H 1.4205 0.7839 1.2130
C17 C 0.8885(4) 0.9981(4) 1.3499(3)
H11 H 1.0191 1.0568 1.3724
H12 H 0.8623 0.9023 1.3687
C18 C 0.8064(4) 1.0952(4) 1.4318(3)
H13 H 0.8286 1.1871 1.4092
H14 H 0.8599 1.1269 1.5274
H15 H 0.6780 1.0341 1.4116
loop_
_geom_bond_atom_site_label_1
_geom_bond_atom_site_label_2
_geom_bond_site_symmetry_1
_geom_bond_site_symmetry_2
Br1 C13 1_555 1_555
N1 C1 1_555 1_555
N2 C8 1_555 1_555
O1 C9 1_555 1_555
C1 C2 1_555 1_555
C2 H1 1_555 1_555
C3 C2 1_555 1_555
H2 C3 1_555 1_555
C4 C3 1_555 1_555
H3 C4 1_555 1_555
C5 C4 1_555 1_555
H4 C5 1_555 1_555
C6 C1 1_555 1_555
C7 C6 1_555 1_555
C8 N1 1_555 1_555
C9 N2 1_555 1_555
C10 C9 1_555 1_555
C11 C7 1_555 1_555
C12 C11 1_555 1_555
H5 C12 1_555 1_555
C13 C12 1_555 1_555
C14 C13 1_555 1_555
H6 C14 1_555 1_555
C15 C10 1_555 1_555
H7 C15 1_555 1_555
C16 N1 1_555 1_555
H8 C16 1_555 1_555
H9 C16 1_555 1_555
H10 C16 1_555 1_555
C17 O1 1_555 1_555
H11 C17 1_555 1_555
H12 C17 1_555 1_555
C18 C17 1_555 1_555
H13 C18 1_555 1_555
H14 C18 1_555 1_555
H15 C18 1_555 1_555
C5 C6 1_555 1_555
C7 C8 1_555 1_555
C10 C11 1_555 1_555
C14 C15 1_555 1_555

#END
