
#######################################################################
#
#                 Cambridge Crystallographic Data Centre
#                                CCDC 
#
#######################################################################
#
# If this CIF has been generated from an entry in the Cambridge 
# Structural Database, then it will include bibliographic, chemical, 
# crystal, experimental, refinement or atomic coordinate data resulting 
# from the CCDC's data processing and validation procedures.
#
#######################################################################

data_IQIBER
_chemical_formula_moiety         'C18 H21 N1 O8,0.5(C1 H2 Cl2)'
_chemical_name_systematic        
'ethyl 4-(4-acetoxy-3,5-dimethoxyphenyl)-5-(hydroxyimino)-2-methyl-4,5-dihydrofuran-3-carboxylate dichloromethane solvate'
_symmetry_cell_setting           orthorhombic
_symmetry_space_group_name_H-M   'P b c a'
_symmetry_Int_Tables_number      61
_space_group_name_Hall           '-P 2ac 2ab'
loop_
_symmetry_equiv_pos_site_id
_symmetry_equiv_pos_as_xyz
1 x,y,z
2 1/2-x,-y,1/2+z
3 -x,1/2+y,1/2-z
4 1/2+x,1/2-y,-z
5 -x,-y,-z
6 1/2+x,y,1/2-z
7 x,1/2-y,1/2+z
8 1/2-x,1/2+y,z
_cell_length_a                   7.58050(10)
_cell_length_b                   17.2484(2)
_cell_length_c                   32.2950(4)
_cell_angle_alpha                90
_cell_angle_beta                 90
_cell_angle_gamma                90
_cell_volume                     4222.62
_exptl_crystal_colour            colorless
_exptl_crystal_description       platelet
_cell_formula_units_Z            8
loop_
_atom_site_label
_atom_site_type_symbol
_atom_site_fract_x
_atom_site_fract_y
_atom_site_fract_z
C1 C 0.401(4) 0.2308(14) 0.7249(8)
H1 H 0.3367 0.1993 0.7042
H2 H 0.5000 0.2000 0.7363
Cl1 Cl 0.4682(11) 0.3098(5) 0.7055(2)
Cl2 Cl 0.2765(12) 0.2597(5) 0.7596(3)
O1 O 0.4332(2) 0.58430(11) 0.47631(6)
O2 O 0.4910(3) 0.75680(11) 0.58103(6)
O3 O 0.7481(3) 0.74886(13) 0.54574(7)
O4 O 0.1721(3) 0.50835(12) 0.69203(6)
O5 O 0.3566(4) 0.59551(16) 0.72026(8)
O6 O 0.4668(3) 0.47258(13) 0.65269(6)
O7 O -0.0634(3) 0.60494(15) 0.65980(7)
O8 O 0.1543(3) 0.50173(11) 0.46021(6)
H3 H 0.0701 0.4701 0.4610
N1 N 0.1457(3) 0.55121(13) 0.49513(7)
C2 C 0.2062(4) 0.54201(17) 0.65340(8)
C3 C 0.0843(4) 0.59279(18) 0.63641(9)
C4 C 0.1186(4) 0.62692(16) 0.59812(9)
H4 H 0.0363 0.6619 0.5861
C5 C 0.2742(4) 0.60913(15) 0.57778(8)
C6 C 0.3948(4) 0.55658(16) 0.59411(8)
H5 H 0.4990 0.5436 0.5793
C7 C 0.3599(4) 0.52331(16) 0.63252(8)
C8 C 0.3111(4) 0.64619(15) 0.53574(8)
H6 H 0.2323 0.6921 0.5318
C9 C 0.2844(4) 0.58988(15) 0.50057(8)
C10 C 0.5593(4) 0.63315(15) 0.49358(9)
C11 C 0.5006(4) 0.66947(15) 0.52744(8)
C12 C 0.7266(4) 0.63484(18) 0.47011(10)
H7 H 0.7084 0.6620 0.4438
H8 H 0.7656 0.5817 0.4646
H9 H 0.8167 0.6620 0.4863
C13 C 0.5970(4) 0.72812(16) 0.55141(9)
C14 C 0.5607(4) 0.82021(18) 0.60590(10)
H10 H 0.5677 0.8683 0.5892
H11 H 0.6804 0.8074 0.6161
C15 C 0.4366(6) 0.8310(3) 0.64155(13)
H12 H 0.3202 0.8460 0.6311
H13 H 0.4818 0.8717 0.6599
H14 H 0.4267 0.7823 0.6570
C16 C 0.2653(4) 0.5398(2) 0.72428(9)
C17 C 0.2370(5) 0.4937(2) 0.76275(10)
H15 H 0.3488 0.4887 0.7777
H16 H 0.1931 0.4420 0.7554
H17 H 0.1504 0.5200 0.7804
C18 C 0.6239(5) 0.4486(2) 0.63221(10)
H18 H 0.5934 0.4235 0.6059
H19 H 0.6880 0.4118 0.6498
H20 H 0.6984 0.4939 0.6268
C19 C -0.1917(5) 0.6564(3) 0.64364(14)
H21 H -0.1385 0.7076 0.6394
H22 H -0.2901 0.6608 0.6632
H23 H -0.2352 0.6365 0.6171
H24? H 0.1127 0.4784 0.7646
H25? H 0.2684 0.5252 0.7869
H26? H 0.3111 0.4472 0.7620
C20? C 0.327(3) 0.296(3) 0.7288(10)
H27? H 0.2806 0.2651 0.7055
H28? H 0.3316 0.3511 0.7203
Cl3? Cl 0.5174(16) 0.2672(7) 0.7407(4)
Cl4? Cl 0.2040(17) 0.2863(8) 0.7684(4)
loop_
_geom_bond_atom_site_label_1
_geom_bond_atom_site_label_2
_geom_bond_site_symmetry_1
_geom_bond_site_symmetry_2
C1 H1 1_555 1_555
H2 C1 1_555 1_555
Cl1 C1 1_555 1_555
Cl2 C1 1_555 1_555
O1 C9 1_555 1_555
O2 C13 1_555 1_555
O3 C13 1_555 1_555
O4 C2 1_555 1_555
O5 C16 1_555 1_555
O6 C7 1_555 1_555
O7 C3 1_555 1_555
O8 H3 1_555 1_555
N1 O8 1_555 1_555
C2 C3 1_555 1_555
C3 C4 1_555 1_555
C4 H4 1_555 1_555
C5 C4 1_555 1_555
C6 C5 1_555 1_555
H5 C6 1_555 1_555
C7 C2 1_555 1_555
C8 C5 1_555 1_555
H6 C8 1_555 1_555
C9 N1 1_555 1_555
C10 O1 1_555 1_555
C11 C8 1_555 1_555
C12 C10 1_555 1_555
H7 C12 1_555 1_555
H8 C12 1_555 1_555
H9 C12 1_555 1_555
C13 C11 1_555 1_555
C14 O2 1_555 1_555
H10 C14 1_555 1_555
H11 C14 1_555 1_555
C15 C14 1_555 1_555
H12 C15 1_555 1_555
H13 C15 1_555 1_555
H14 C15 1_555 1_555
C16 O4 1_555 1_555
C17 C16 1_555 1_555
H15 C17 1_555 1_555
H16 C17 1_555 1_555
H17 C17 1_555 1_555
C18 O6 1_555 1_555
H18 C18 1_555 1_555
H19 C18 1_555 1_555
H20 C18 1_555 1_555
C19 O7 1_555 1_555
H21 C19 1_555 1_555
H22 C19 1_555 1_555
H23 C19 1_555 1_555
C6 C7 1_555 1_555
C8 C9 1_555 1_555
C10 C11 1_555 1_555

#END
