
#######################################################################
#
#                 Cambridge Crystallographic Data Centre
#                                CCDC 
#
#######################################################################
#
# If this CIF has been generated from an entry in the Cambridge 
# Structural Database, then it will include bibliographic, chemical, 
# crystal, experimental, refinement or atomic coordinate data resulting 
# from the CCDC's data processing and validation procedures.
#
#######################################################################

data_IQIBAM
_chemical_formula_moiety         'C14 H22 O4'
_chemical_name_systematic        
2-Hydroxy-9,9-dimethoxy-3-methyltricyclo[5.2.2.0^1,5^]undecan-8-one
_symmetry_cell_setting           orthorhombic
_symmetry_space_group_name_H-M   'P 21 21 21'
_symmetry_Int_Tables_number      19
_space_group_name_Hall           'P 2ac 2ab'
loop_
_symmetry_equiv_pos_site_id
_symmetry_equiv_pos_as_xyz
1 x,y,z
2 1/2-x,-y,1/2+z
3 -x,1/2+y,1/2-z
4 1/2+x,1/2-y,-z
_cell_length_a                   8.5235(17)
_cell_length_b                   8.8902(18)
_cell_length_c                   17.483(4)
_cell_angle_alpha                90
_cell_angle_beta                 90
_cell_angle_gamma                90
_cell_volume                     1324.79
_exptl_crystal_colour            colorless
_exptl_crystal_description       block
_cell_formula_units_Z            4
loop_
_atom_site_label
_atom_site_type_symbol
_atom_site_fract_x
_atom_site_fract_y
_atom_site_fract_z
O1 O 0.20102(16) -0.19783(15) 0.17079(8)
O2 O -0.08926(17) -0.05959(19) 0.12272(10)
O3 O 0.59110(16) 0.00289(18) 0.17386(8)
H1 H 0.6812 -0.0068 0.1550
O4 O 0.21585(18) -0.09178(16) 0.04815(8)
C1 C 0.4833(2) 0.0478(2) 0.11505(11)
H2 H 0.4835 -0.0294 0.0735
C2 C 0.3149(2) 0.0746(2) 0.23739(11)
H3 H 0.3738 0.1660 0.2523
H4 H 0.3681 -0.0135 0.2603
C3 C 0.3920(2) 0.3100(2) 0.10960(13)
H5 H 0.4198 0.3513 0.1604
H6 H 0.3732 0.3943 0.0737
C4 C 0.3149(2) 0.0594(2) 0.14951(11)
C5 C 0.2494(2) 0.2077(2) 0.11470(12)
H7 H 0.2133 0.1856 0.0614
C6 C 0.0295(2) -0.0025(2) 0.14772(12)
C7 C 0.3430(2) -0.2823(2) 0.16421(14)
H8 H 0.3528 -0.3215 0.1120
H9 H 0.3410 -0.3663 0.2005
H10 H 0.4327 -0.2171 0.1756
C8 C 0.5207(2) 0.2053(2) 0.07979(12)
H11 H 0.5078 0.1971 0.0231
C9 C 0.1959(2) -0.0645(2) 0.12704(11)
C10 C 0.6861(2) 0.2642(2) 0.09536(13)
H12 H 0.6973 0.3650 0.0733
H13 H 0.7631 0.1964 0.0721
H14 H 0.7038 0.2690 0.1507
C11 C 0.1072(2) 0.2642(2) 0.16069(13)
H15 H 0.0292 0.3104 0.1259
H16 H 0.1409 0.3410 0.1982
C12 C 0.1451(2) 0.0849(3) 0.26808(12)
H17 H 0.1132 -0.0133 0.2898
H18 H 0.1394 0.1613 0.3092
C13 C 0.0338(2) 0.1284(2) 0.20245(12)
H19 H -0.0734 0.1528 0.2220
C14 C 0.1198(3) -0.2052(3) 0.01346(14)
H20 H 0.1093 -0.2906 0.0485
H21 H 0.1686 -0.2389 -0.0343
H22 H 0.0158 -0.1634 0.0025
loop_
_geom_bond_atom_site_label_1
_geom_bond_atom_site_label_2
_geom_bond_site_symmetry_1
_geom_bond_site_symmetry_2
O1 C7 1_555 1_555
O2 C6 1_555 1_555
O3 H1 1_555 1_555
O4 C9 1_555 1_555
C1 O3 1_555 1_555
H2 C1 1_555 1_555
C2 H3 1_555 1_555
H4 C2 1_555 1_555
C3 H5 1_555 1_555
H6 C3 1_555 1_555
C4 C1 1_555 1_555
C5 C3 1_555 1_555
H7 C5 1_555 1_555
C6 C9 1_555 1_555
C7 H8 1_555 1_555
H9 C7 1_555 1_555
H10 C7 1_555 1_555
C8 C1 1_555 1_555
H11 C8 1_555 1_555
C9 O1 1_555 1_555
C10 C8 1_555 1_555
H12 C10 1_555 1_555
H13 C10 1_555 1_555
H14 C10 1_555 1_555
C11 C5 1_555 1_555
H15 C11 1_555 1_555
H16 C11 1_555 1_555
C12 C2 1_555 1_555
H17 C12 1_555 1_555
H18 C12 1_555 1_555
C13 C6 1_555 1_555
H19 C13 1_555 1_555
C14 O4 1_555 1_555
H20 C14 1_555 1_555
H21 C14 1_555 1_555
H22 C14 1_555 1_555
C2 C4 1_555 1_555
C3 C8 1_555 1_555
C4 C5 1_555 1_555
C4 C9 1_555 1_555
C11 C13 1_555 1_555
C12 C13 1_555 1_555

#END
