
#######################################################################
#
#                 Cambridge Crystallographic Data Centre
#                                CCDC 
#
#######################################################################
#
# If this CIF has been generated from an entry in the Cambridge 
# Structural Database, then it will include bibliographic, chemical, 
# crystal, experimental, refinement or atomic coordinate data resulting 
# from the CCDC's data processing and validation procedures.
#
#######################################################################

data_IQIBIU
_chemical_formula_moiety         'C20 H34 O4 Si1'
_chemical_name_systematic        
9-((t-butyl(dimethyl)silyl)oxy)-10,10-dimethoxytricyclo[6.2.2.0^1,6^]dodec-2-en-4-one
_symmetry_cell_setting           orthorhombic
_symmetry_space_group_name_H-M   'P 21 21 21'
_symmetry_Int_Tables_number      19
_space_group_name_Hall           'P 2ac 2ab'
loop_
_symmetry_equiv_pos_site_id
_symmetry_equiv_pos_as_xyz
1 x,y,z
2 1/2-x,-y,1/2+z
3 -x,1/2+y,1/2-z
4 1/2+x,1/2-y,-z
_cell_length_a                   6.7648(14)
_cell_length_b                   15.026(3)
_cell_length_c                   20.682(4)
_cell_angle_alpha                90
_cell_angle_beta                 90
_cell_angle_gamma                90
_cell_volume                     2102.28
_exptl_crystal_colour            colorless
_exptl_crystal_description       block
_cell_formula_units_Z            4
loop_
_atom_site_label
_atom_site_type_symbol
_atom_site_fract_x
_atom_site_fract_y
_atom_site_fract_z
Si1 Si 0.12783(12) 0.72129(5) 0.17138(3)
O1 O 0.1221(3) 0.75463(13) 0.33057(9)
O2 O 0.2136(3) 0.66120(12) 0.23192(8)
O3 O 0.4495(3) 0.78400(13) 0.36086(9)
C1 C 0.3740(4) 0.67489(16) 0.27470(11)
H1 H 0.4714 0.7144 0.2534
C2 C 0.3117(4) 0.71811(17) 0.34106(11)
C3 C 0.1975(4) 0.56518(17) 0.36735(12)
H2 H 0.0767 0.5904 0.3475
C4 C 0.1314(5) 0.4999(2) 0.42050(14)
H3 H 0.0398 0.4564 0.4018
H4 H 0.2471 0.4673 0.4364
C5 C 0.3207(4) 0.64417(17) 0.39448(12)
C6 C 0.0248(6) 0.6373(2) 0.11310(14)
C7 C 0.4715(4) 0.5843(2) 0.28695(14)
H5 H 0.5283 0.5608 0.2463
C8 C 0.5379(5) 0.6152(2) 0.40376(14)
H6 H 0.6115 0.6626 0.4257
H7 H 0.5431 0.5618 0.4310
C9 C 0.2442(5) 0.6758(2) 0.45894(13)
H8 H 0.2896 0.7311 0.4742
C10 C 0.1169(6) 0.6311(2) 0.49592(14)
H9 H 0.0801 0.6554 0.5360
C11 C 0.3154(5) 0.51960(18) 0.31335(13)
H10 H 0.2260 0.5015 0.2785
H11 H 0.3803 0.4662 0.3303
C12 C 0.4633(6) 0.8623(2) 0.32063(17)
H12 H 0.5564 0.8515 0.2858
H13 H 0.5085 0.9122 0.3464
H14 H 0.3344 0.8758 0.3026
C13 C 0.6340(5) 0.5954(2) 0.33765(16)
H15 H 0.7219 0.6444 0.3254
H16 H 0.7129 0.5408 0.3404
O4 O -0.1098(5) 0.5125(2) 0.50468(14)
C14 C 0.0378(6) 0.8125(3) 0.37878(17)
H17 H -0.0508 0.7786 0.4062
H18 H -0.0353 0.8598 0.3577
H19 H 0.1426 0.8379 0.4049
C15 C 0.3313(6) 0.7894(3) 0.13440(19)
H20 H 0.3747 0.8341 0.1651
H21 H 0.2828 0.8183 0.0956
H22 H 0.4414 0.7509 0.1234
C16 C -0.0766(7) 0.7961(3) 0.19914(19)
H23 H -0.1577 0.7650 0.2305
H24 H -0.1573 0.8131 0.1624
H25 H -0.0208 0.8490 0.2189
C17 C 0.0323(6) 0.5454(3) 0.47628(16)
C18 C -0.0529(8) 0.6827(3) 0.05158(18)
H26 H 0.0552 0.7126 0.0297
H27 H -0.1535 0.7259 0.0631
H28 H -0.1095 0.6382 0.0231
C19 C -0.1479(7) 0.5868(3) 0.1456(2)
H29 H -0.2028 0.5442 0.1153
H30 H -0.2495 0.6288 0.1583
H31 H -0.0996 0.5557 0.1835
C20 C 0.1833(9) 0.5688(3) 0.0946(2)
H32 H 0.2258 0.5371 0.1330
H33 H 0.2954 0.5992 0.0754
H34 H 0.1287 0.5270 0.0637
loop_
_geom_bond_atom_site_label_1
_geom_bond_atom_site_label_2
_geom_bond_site_symmetry_1
_geom_bond_site_symmetry_2
Si1 O2 1_555 1_555
O1 C2 1_555 1_555
O2 C1 1_555 1_555
O3 C2 1_555 1_555
C1 H1 1_555 1_555
C2 C1 1_555 1_555
C3 H2 1_555 1_555
C4 C3 1_555 1_555
H3 C4 1_555 1_555
H4 C4 1_555 1_555
C5 C2 1_555 1_555
C6 Si1 1_555 1_555
C7 C1 1_555 1_555
H5 C7 1_555 1_555
C8 C5 1_555 1_555
H6 C8 1_555 1_555
H7 C8 1_555 1_555
C9 C5 1_555 1_555
H8 C9 1_555 1_555
C10 C9 1_555 1_555
H9 C10 1_555 1_555
C11 C3 1_555 1_555
H10 C11 1_555 1_555
H11 C11 1_555 1_555
C12 O3 1_555 1_555
H12 C12 1_555 1_555
H13 C12 1_555 1_555
H14 C12 1_555 1_555
C13 C7 1_555 1_555
H15 C13 1_555 1_555
H16 C13 1_555 1_555
O4 C17 1_555 1_555
C14 O1 1_555 1_555
H17 C14 1_555 1_555
H18 C14 1_555 1_555
H19 C14 1_555 1_555
C15 Si1 1_555 1_555
H20 C15 1_555 1_555
H21 C15 1_555 1_555
H22 C15 1_555 1_555
C16 Si1 1_555 1_555
H23 C16 1_555 1_555
H24 C16 1_555 1_555
H25 C16 1_555 1_555
C17 C4 1_555 1_555
C18 C6 1_555 1_555
H26 C18 1_555 1_555
H27 C18 1_555 1_555
H28 C18 1_555 1_555
C19 C6 1_555 1_555
H29 C19 1_555 1_555
H30 C19 1_555 1_555
H31 C19 1_555 1_555
C20 C6 1_555 1_555
H32 C20 1_555 1_555
H33 C20 1_555 1_555
H34 C20 1_555 1_555
C3 C5 1_555 1_555
C7 C11 1_555 1_555
C8 C13 1_555 1_555
C10 C17 1_555 1_555

#END
