
#######################################################################
#
#                 Cambridge Crystallographic Data Centre
#                                CCDC 
#
#######################################################################
#
# If this CIF has been generated from an entry in the Cambridge 
# Structural Database, then it will include bibliographic, chemical, 
# crystal, experimental, refinement or atomic coordinate data resulting 
# from the CCDC's data processing and validation procedures.
#
#######################################################################

data_IQICAN
_chemical_formula_moiety         'C23 H26 Cl1 N1 O5'
_chemical_name_systematic        
'syn-1-t-butyl 4-methyl 3-(2-(4-chlorophenyl)vinyl)-3-hydroxy-N-phenylaspartate'
_symmetry_cell_setting           monoclinic
_symmetry_space_group_name_H-M   'P 21/c'
_symmetry_Int_Tables_number      14
_space_group_name_Hall           '-P 2ybc'
loop_
_symmetry_equiv_pos_site_id
_symmetry_equiv_pos_as_xyz
1 x,y,z
2 -x,1/2+y,1/2-z
3 -x,-y,-z
4 x,1/2-y,1/2+z
_cell_length_a                   8.8857(2)
_cell_length_b                   21.0174(6)
_cell_length_c                   11.9497(3)
_cell_angle_alpha                90
_cell_angle_beta                 100.9680(10)
_cell_angle_gamma                90
_cell_volume                     2190.89
_exptl_crystal_colour            colorless
_exptl_crystal_description       block
_cell_formula_units_Z            4
loop_
_atom_site_label
_atom_site_type_symbol
_atom_site_fract_x
_atom_site_fract_y
_atom_site_fract_z
N1 N 0.54673(15) 0.02228(7) 0.68431(12)
H1 H 0.5703 0.0159 0.6187
Cl1 Cl 0.29186(6) 0.41275(2) 0.55168(5)
O1 O 0.52057(15) -0.10453(6) 0.63910(13)
O2 O 0.30193(13) -0.11039(5) 0.70839(10)
O3 O 0.14229(14) -0.00157(6) 0.79687(10)
O4 O 0.01178(13) -0.02976(6) 0.62532(11)
O5 O 0.25567(12) -0.00206(5) 0.52730(9)
H2 H 0.1741 0.0092 0.4879
C1 C 0.2111(2) 0.23575(8) 0.64430(15)
H3 H 0.1717 0.2163 0.7024
C2 C 0.2185(2) 0.30143(8) 0.64056(16)
H4 H 0.1847 0.3259 0.6957
C3 C 0.27624(19) 0.33003(8) 0.55444(15)
C4 C 0.3245(2) 0.29462(9) 0.47167(16)
H5 H 0.3628 0.3144 0.4133
C5 C 0.3155(2) 0.22931(8) 0.47611(16)
H6 H 0.3465 0.2053 0.4192
C6 C 0.26136(18) 0.19815(8) 0.56312(14)
C7 C 0.26254(19) 0.12829(8) 0.56407(15)
H7 H 0.2675 0.1087 0.4951
C8 C 0.25751(18) 0.09000(7) 0.65025(14)
H8 H 0.2509 0.1077 0.7204
C9 C 0.26210(17) 0.01828(7) 0.64011(13)
C10 C 0.41520(17) -0.00994(7) 0.70848(13)
H9 H 0.4147 -0.0057 0.7901
C11 C 0.63873(17) 0.06278(7) 0.75816(14)
C12 C 0.6134(2) 0.07816(8) 0.86606(15)
H10 H 0.5267 0.0628 0.8900
C13 C 0.7159(2) 0.11614(9) 0.93819(17)
H11 H 0.6974 0.1257 1.0104
C14 C 0.8444(2) 0.14005(9) 0.90526(19)
H12 H 0.9143 0.1646 0.9550
C15 C 0.8674(2) 0.12696(8) 0.7976(2)
H13 H 0.9529 0.1436 0.7736
C16 C 0.76620(19) 0.08960(8) 0.72391(17)
H14 H 0.7831 0.0822 0.6506
C17 C 0.12400(18) -0.00813(7) 0.68506(14)
C18 C 0.0213(2) -0.02652(10) 0.85000(17)
H15 H 0.0462 -0.0191 0.9307
H16 H 0.0108 -0.0714 0.8358
H17 H -0.0734 -0.0056 0.8188
C19 C 0.42210(18) -0.08066(8) 0.68009(14)
C20 C 0.26278(19) -0.17729(8) 0.67427(15)
C21 C 0.1130(2) -0.18687(9) 0.7152(2)
H18 H 0.0370 -0.1583 0.6751
H19 H 0.1281 -0.1783 0.7955
H20 H 0.0791 -0.2300 0.7009
C22 C 0.2387(3) -0.18283(10) 0.54651(18)
H21 H 0.1603 -0.1536 0.5124
H22 H 0.2078 -0.2254 0.5241
H23 H 0.3325 -0.1730 0.5216
C23 C 0.3847(2) -0.22139(9) 0.73667(19)
H24 H 0.3940 -0.2155 0.8174
H25 H 0.4810 -0.2120 0.7151
H26 H 0.3567 -0.2647 0.7172
loop_
_geom_bond_atom_site_label_1
_geom_bond_atom_site_label_2
_geom_bond_site_symmetry_1
_geom_bond_site_symmetry_2
N1 H1 1_555 1_555
Cl1 C3 1_555 1_555
O1 C19 1_555 1_555
O2 C19 1_555 1_555
O3 C17 1_555 1_555
O4 C17 1_555 1_555
O5 H2 1_555 1_555
C1 H3 1_555 1_555
C2 C1 1_555 1_555
H4 C2 1_555 1_555
C3 C2 1_555 1_555
C4 C3 1_555 1_555
H5 C4 1_555 1_555
C5 C4 1_555 1_555
H6 C5 1_555 1_555
C6 C1 1_555 1_555
C7 C6 1_555 1_555
H7 C7 1_555 1_555
C8 C7 1_555 1_555
H8 C8 1_555 1_555
C9 O5 1_555 1_555
C10 N1 1_555 1_555
H9 C10 1_555 1_555
C11 N1 1_555 1_555
C12 C11 1_555 1_555
H10 C12 1_555 1_555
C13 C12 1_555 1_555
H11 C13 1_555 1_555
C14 C13 1_555 1_555
H12 C14 1_555 1_555
C15 C14 1_555 1_555
H13 C15 1_555 1_555
C16 C11 1_555 1_555
H14 C16 1_555 1_555
C17 C9 1_555 1_555
C18 O3 1_555 1_555
H15 C18 1_555 1_555
H16 C18 1_555 1_555
H17 C18 1_555 1_555
C19 C10 1_555 1_555
C20 O2 1_555 1_555
C21 C20 1_555 1_555
H18 C21 1_555 1_555
H19 C21 1_555 1_555
H20 C21 1_555 1_555
C22 C20 1_555 1_555
H21 C22 1_555 1_555
H22 C22 1_555 1_555
H23 C22 1_555 1_555
C23 C20 1_555 1_555
H24 C23 1_555 1_555
H25 C23 1_555 1_555
H26 C23 1_555 1_555
C5 C6 1_555 1_555
C8 C9 1_555 1_555
C9 C10 1_555 1_555
C15 C16 1_555 1_555

#END
