
#######################################################################
#
#                 Cambridge Crystallographic Data Centre
#                                CCDC 
#
#######################################################################
#
# If this CIF has been generated from an entry in the Cambridge 
# Structural Database, then it will include bibliographic, chemical, 
# crystal, experimental, refinement or atomic coordinate data resulting 
# from the CCDC's data processing and validation procedures.
#
#######################################################################

data_IQIDIX
_chemical_formula_moiety         'C26 H22 N2 O2'
_chemical_name_systematic        
N-methyl-1-(1-methyl-1H-indol-3-yl)-3-oxo-N-phenylindane-2-carboxamide
_symmetry_cell_setting           orthorhombic
_symmetry_space_group_name_H-M   'P c a 21'
_symmetry_Int_Tables_number      29
_space_group_name_Hall           'P 2c -2ac'
loop_
_symmetry_equiv_pos_site_id
_symmetry_equiv_pos_as_xyz
1 x,y,z
2 -x,-y,1/2+z
3 1/2-x,y,1/2+z
4 1/2+x,-y,z
_cell_length_a                   19.3078(13)
_cell_length_b                   10.3786(7)
_cell_length_c                   20.7335(14)
_cell_angle_alpha                90
_cell_angle_beta                 90
_cell_angle_gamma                90
_cell_volume                     4154.74
_exptl_crystal_colour            pink
_exptl_crystal_description       block
_cell_formula_units_Z            8
loop_
_atom_site_label
_atom_site_type_symbol
_atom_site_fract_x
_atom_site_fract_y
_atom_site_fract_z
O1 O -0.45371(13) 0.4444(2) -0.27337(15)
O2 O -0.48587(15) 0.4005(3) -0.10381(15)
N1 N -0.39961(14) -0.1608(3) -0.19508(14)
N2 N -0.58140(13) 0.3422(3) -0.15748(14)
C1 C -0.45884(16) -0.1591(3) -0.15837(16)
C2 C -0.50187(18) -0.2608(4) -0.13923(17)
H1 H -0.4922 -0.3457 -0.1504
C3 C -0.55883(19) -0.2292(4) -0.10335(18)
H2 H -0.5887 -0.2945 -0.0904
C4 C -0.57365(19) -0.1031(4) -0.08558(18)
H3 H -0.6132 -0.0856 -0.0615
C5 C -0.53042(16) -0.0040(4) -0.10322(18)
H4 H -0.5398 0.0799 -0.0901
C6 C -0.47226(15) -0.0305(3) -0.14107(15)
C7 C -0.41812(16) 0.0458(3) -0.16796(15)
C8 C -0.37599(17) -0.0369(3) -0.19994(17)
H5 H -0.3363 -0.0126 -0.2222
C9 C -0.3653(2) -0.2733(4) -0.2204(2)
H6 H -0.3225 -0.2483 -0.2402
H7 H -0.3946 -0.3139 -0.2518
H8 H -0.3561 -0.3326 -0.1859
C10 C -0.41086(16) 0.1892(3) -0.16063(17)
H9 H -0.4134 0.2097 -0.1145
C11 C -0.34329(16) 0.2420(3) -0.18628(16)
C12 C -0.27640(17) 0.2061(4) -0.17004(18)
H10 H -0.2684 0.1431 -0.1390
C13 C -0.22239(18) 0.2652(4) -0.2007(2)
H11 H -0.1773 0.2420 -0.1901
C14 C -0.23334(19) 0.3587(4) -0.2470(2)
H12 H -0.1956 0.3960 -0.2677
C15 C -0.29832(19) 0.3968(3) -0.26243(19)
H13 H -0.3057 0.4610 -0.2929
C16 C -0.35364(16) 0.3378(3) -0.23179(16)
C17 C -0.42750(17) 0.3625(3) -0.23912(18)
C18 C -0.46771(15) 0.2689(3) -0.19596(16)
H14 H -0.4965 0.2120 -0.2224
C19 C -0.51244(18) 0.3433(3) -0.14909(18)
C20 C -0.6253(2) 0.4086(5) -0.1109(2)
H15 H -0.6427 0.4867 -0.1297
H16 H -0.5986 0.4290 -0.0731
H17 H -0.6633 0.3540 -0.0991
C21 C -0.61677(15) 0.2892(3) -0.21243(18)
C22 C -0.64991(18) 0.1717(4) -0.2076(2)
H18 H -0.6468 0.1239 -0.1697
C23 C -0.6875(2) 0.1256(4) -0.2591(2)
H19 H -0.7090 0.0457 -0.2561
C24 C -0.69361(19) 0.1956(4) -0.3141(2)
H20 H -0.7196 0.1639 -0.3484
C25 C -0.6615(2) 0.3124(5) -0.3191(2)
H21 H -0.6659 0.3606 -0.3567
C26 C -0.62243(18) 0.3591(4) -0.2680(2)
H22 H -0.6000 0.4381 -0.2717
O3 O -0.28553(13) -0.9341(2) -0.34302(13)
O4 O -0.25820(13) -0.9086(2) -0.51010(12)
N3 N -0.33030(14) -0.3276(3) -0.43909(15)
N4 N -0.15964(12) -0.8571(2) -0.45859(12)
C27 C -0.27227(16) -0.3392(3) -0.47687(16)
C28 C -0.2293(2) -0.2455(4) -0.50306(19)
H23 H -0.2373 -0.1583 -0.4960
C29 C -0.1745(2) -0.2871(4) -0.5398(2)
H24 H -0.1447 -0.2263 -0.5575
C30 C -0.1621(2) -0.4165(4) -0.5513(2)
H25 H -0.1240 -0.4408 -0.5758
C31 C -0.20540(17) -0.5092(4) -0.52675(19)
H26 H -0.1978 -0.5959 -0.5356
C32 C -0.26106(16) -0.4710(3) -0.48833(15)
C33 C -0.31524(15) -0.5398(3) -0.45626(15)
C34 C -0.35537(17) -0.4490(3) -0.42739(17)
H27 H -0.3946 -0.4668 -0.4029
C35 C -0.3646(2) -0.2082(4) -0.4220(2)
H28 H -0.3331 -0.1545 -0.3982
H29 H -0.4044 -0.2266 -0.3958
H30 H -0.3789 -0.1643 -0.4605
C36 C -0.32589(15) -0.6829(3) -0.45857(15)
H31 H -0.3248 -0.7088 -0.5040
C37 C -0.39387(15) -0.7290(3) -0.43077(15)
C38 C -0.46039(16) -0.6893(3) -0.44695(17)
H32 H -0.4675 -0.6244 -0.4771
C39 C -0.51533(17) -0.7484(4) -0.4172(2)
H33 H -0.5600 -0.7230 -0.4280
C40 C -0.50660(19) -0.8440(4) -0.3719(2)
H34 H -0.5450 -0.8811 -0.3522
C41 C -0.44091(18) -0.8847(4) -0.35594(18)
H35 H -0.4343 -0.9505 -0.3261
C42 C -0.38489(16) -0.8252(3) -0.38539(15)
C43 C -0.31101(16) -0.8527(3) -0.37765(16)
C44 C -0.27040(15) -0.7637(3) -0.42259(15)
H36 H -0.2398 -0.7073 -0.3976
C45 C -0.22841(15) -0.8482(3) -0.46739(15)
C46 C -0.11983(18) -0.9466(4) -0.49831(19)
H37 H -0.0772 -0.9066 -0.5113
H38 H -0.1462 -0.9692 -0.5359
H39 H -0.1098 -1.0230 -0.4739
C47 C -0.12156(14) -0.7965(3) -0.40731(17)
C48 C -0.11437(18) -0.8586(4) -0.34952(17)
H40 H -0.1370 -0.9366 -0.3428
C49 C -0.0741(2) -0.8074(4) -0.3011(2)
H41 H -0.0690 -0.8509 -0.2622
C50 C -0.04175(19) -0.6924(4) -0.3108(2)
H42 H -0.0146 -0.6572 -0.2782
C51 C -0.04884(19) -0.6291(4) -0.3672(2)
H43 H -0.0272 -0.5498 -0.3729
C52 C -0.08818(18) -0.6814(4) -0.4169(2)
H44 H -0.0918 -0.6388 -0.4562
loop_
_geom_bond_atom_site_label_1
_geom_bond_atom_site_label_2
_geom_bond_site_symmetry_1
_geom_bond_site_symmetry_2
O1 C17 1_555 1_555
O2 C19 1_555 1_555
N1 C1 1_555 1_555
N2 C19 1_555 1_555
C1 C2 1_555 1_555
C2 H1 1_555 1_555
C3 C2 1_555 1_555
H2 C3 1_555 1_555
C4 C3 1_555 1_555
H3 C4 1_555 1_555
C5 C4 1_555 1_555
H4 C5 1_555 1_555
C6 C1 1_555 1_555
C7 C6 1_555 1_555
C8 N1 1_555 1_555
H5 C8 1_555 1_555
C9 N1 1_555 1_555
H6 C9 1_555 1_555
H7 C9 1_555 1_555
H8 C9 1_555 1_555
C10 C7 1_555 1_555
H9 C10 1_555 1_555
C11 C10 1_555 1_555
C12 C11 1_555 1_555
H10 C12 1_555 1_555
C13 C12 1_555 1_555
H11 C13 1_555 1_555
C14 C13 1_555 1_555
H12 C14 1_555 1_555
C15 C14 1_555 1_555
H13 C15 1_555 1_555
C16 C11 1_555 1_555
C17 C16 1_555 1_555
C18 C10 1_555 1_555
H14 C18 1_555 1_555
C19 C18 1_555 1_555
C20 N2 1_555 1_555
H15 C20 1_555 1_555
H16 C20 1_555 1_555
H17 C20 1_555 1_555
C21 N2 1_555 1_555
C22 C21 1_555 1_555
H18 C22 1_555 1_555
C23 C22 1_555 1_555
H19 C23 1_555 1_555
C24 C23 1_555 1_555
H20 C24 1_555 1_555
C25 C24 1_555 1_555
H21 C25 1_555 1_555
C26 C21 1_555 1_555
H22 C26 1_555 1_555
O3 C43 1_555 1_555
O4 C45 1_555 1_555
N3 C27 1_555 1_555
N4 C45 1_555 1_555
C27 C28 1_555 1_555
C28 H23 1_555 1_555
C29 C28 1_555 1_555
H24 C29 1_555 1_555
C30 C29 1_555 1_555
H25 C30 1_555 1_555
C31 C30 1_555 1_555
H26 C31 1_555 1_555
C32 C27 1_555 1_555
C33 C32 1_555 1_555
C34 N3 1_555 1_555
H27 C34 1_555 1_555
C35 N3 1_555 1_555
H28 C35 1_555 1_555
H29 C35 1_555 1_555
H30 C35 1_555 1_555
C36 C33 1_555 1_555
H31 C36 1_555 1_555
C37 C36 1_555 1_555
C38 C37 1_555 1_555
H32 C38 1_555 1_555
C39 C38 1_555 1_555
H33 C39 1_555 1_555
C40 C39 1_555 1_555
H34 C40 1_555 1_555
C41 C40 1_555 1_555
H35 C41 1_555 1_555
C42 C37 1_555 1_555
C43 C42 1_555 1_555
C44 C36 1_555 1_555
H36 C44 1_555 1_555
C45 C44 1_555 1_555
C46 N4 1_555 1_555
H37 C46 1_555 1_555
H38 C46 1_555 1_555
H39 C46 1_555 1_555
C47 N4 1_555 1_555
C48 C47 1_555 1_555
H40 C48 1_555 1_555
C49 C48 1_555 1_555
H41 C49 1_555 1_555
C50 C49 1_555 1_555
H42 C50 1_555 1_555
C51 C50 1_555 1_555
H43 C51 1_555 1_555
C52 C47 1_555 1_555
H44 C52 1_555 1_555
C5 C6 1_555 1_555
C7 C8 1_555 1_555
C15 C16 1_555 1_555
C17 C18 1_555 1_555
C25 C26 1_555 1_555
C31 C32 1_555 1_555
C33 C34 1_555 1_555
C41 C42 1_555 1_555
C43 C44 1_555 1_555
C51 C52 1_555 1_555

#END
