
#######################################################################
#
#                 Cambridge Crystallographic Data Centre
#                                CCDC 
#
#######################################################################
#
# If this CIF has been generated from an entry in the Cambridge 
# Structural Database, then it will include bibliographic, chemical, 
# crystal, experimental, refinement or atomic coordinate data resulting 
# from the CCDC's data processing and validation procedures.
#
#######################################################################

data_IQIGIA
_chemical_formula_moiety         'C26 H26 N4 O4 S1'
_chemical_name_systematic        
'ethyl ((Z)-2-(1-methyl-2-((Z)-((4-methylphenyl)sulfonyl)imino)-1,2-dihydro-3H-indol-3-ylidene)hydrazino)(phenyl)acetate'
_symmetry_cell_setting           monoclinic
_symmetry_space_group_name_H-M   'C 2/c'
_symmetry_Int_Tables_number      15
_space_group_name_Hall           '-C 2yn'
loop_
_symmetry_equiv_pos_site_id
_symmetry_equiv_pos_as_xyz
1 x,y,z
2 -x,y,1/2-z
3 1/2+x,1/2+y,z
4 1/2-x,1/2+y,1/2-z
5 -x,-y,-z
6 x,-y,1/2+z
7 1/2-x,1/2-y,-z
8 1/2+x,1/2-y,1/2+z
_cell_length_a                   33.094(3)
_cell_length_b                   9.7382(7)
_cell_length_c                   15.8855(11)
_cell_angle_alpha                90
_cell_angle_beta                 96.540(7)
_cell_angle_gamma                90
_cell_volume                     5086.2
_exptl_crystal_colour            yellow
_exptl_crystal_description       block
_chemical_melting_point          '129.7-130.8 deg.C'
_cell_formula_units_Z            8
loop_
_atom_site_label
_atom_site_type_symbol
_atom_site_fract_x
_atom_site_fract_y
_atom_site_fract_z
S1 S 0.15411(3) 0.36351(7) 0.39927(5)
O1 O 0.13331(10) 0.2703(2) 0.44848(15)
O2 O 0.19332(8) 0.3217(3) 0.37664(15)
O3 O 0.04607(7) 0.7457(3) 0.39358(18)
O4 O 0.03792(7) 0.9703(2) 0.37362(15)
N1 N 0.21232(7) 0.5119(2) 0.55172(13)
N2 N 0.15535(7) 0.5155(2) 0.43989(14)
N3 N 0.15973(6) 0.8136(2) 0.47655(12)
N4 N 0.12927(7) 0.7799(2) 0.42072(13)
H1 H 0.1241 0.6950 0.4090
C1 C 0.21732(8) 0.7432(3) 0.57637(16)
C2 C 0.23402(8) 0.8608(4) 0.61456(18)
H2 H 0.2235 0.9470 0.5995
C3 C 0.26722(10) 0.8460(5) 0.6766(2)
H3 H 0.2791 0.9235 0.7030
C4 C 0.28250(10) 0.7178(6) 0.6990(2)
H4 H 0.3044 0.7108 0.7411
C5 C 0.26646(10) 0.6004(5) 0.6612(2)
H5 H 0.2771 0.5144 0.6763
C6 C 0.23366(8) 0.6152(3) 0.59931(16)
C7 C 0.18259(8) 0.5691(3) 0.49651(15)
C8 C 0.18378(7) 0.7173(3) 0.51161(15)
C9 C 0.22026(13) 0.3658(4) 0.5683(2)
H6 H 0.1977 0.3126 0.5428
H7 H 0.2238 0.3500 0.6283
H8 H 0.2445 0.3391 0.5446
C10 C 0.12228(10) 0.3967(2) 0.30537(17)
C11 C 0.08158(12) 0.4178(4) 0.3057(2)
H9 H 0.0701 0.4143 0.3564
C12 C 0.05755(11) 0.4443(5) 0.2317(3)
H10 H 0.0299 0.4588 0.2336
C13 C 0.07215(11) 0.4501(3) 0.1561(2)
C14 C 0.11264(11) 0.4287(3) 0.15619(19)
H11 H 0.1237 0.4316 0.1050
C15 C 0.13783(10) 0.4029(3) 0.2293(2)
H12 H 0.1655 0.3896 0.2271
C16 C 0.04475(13) 0.4820(5) 0.0758(2)
H13 H 0.0605 0.5227 0.0352
H14 H 0.0239 0.5448 0.0883
H15 H 0.0325 0.3987 0.0530
C17 C 0.10446(8) 0.8877(3) 0.37884(16)
H16 H 0.1114 0.9743 0.4085
C18 C 0.11260(7) 0.9039(2) 0.28740(16)
C19 C 0.12953(9) 1.0224(3) 0.2597(2)
H17 H 0.1353 1.0950 0.2971
C20 C 0.13797(10) 1.0346(3) 0.1777(2)
H18 H 0.1492 1.1158 0.1600
C21 C 0.13018(11) 0.9299(3) 0.1219(2)
H19 H 0.1365 0.9384 0.0666
C22 C 0.11304(10) 0.8121(3) 0.14766(19)
H20 H 0.1071 0.7407 0.1094
C23 C 0.10440(9) 0.7982(3) 0.23025(17)
H21 H 0.0930 0.7171 0.2474
C24 C 0.05985(9) 0.8578(3) 0.38413(18)
C25 C -0.00613(10) 0.9579(5) 0.3717(3)
H22 H -0.0130 0.9106 0.4219
H23 H -0.0173 0.9063 0.3222
C26 C -0.02277(14) 1.0990(6) 0.3685(4)
H24 H -0.0202 1.1387 0.3141
H25 H -0.0080 1.1537 0.4119
H26 H -0.0510 1.0963 0.3776
loop_
_geom_bond_atom_site_label_1
_geom_bond_atom_site_label_2
_geom_bond_site_symmetry_1
_geom_bond_site_symmetry_2
S1 O1 1_555 1_555
O2 S1 1_555 1_555
O3 C24 1_555 1_555
O4 C24 1_555 1_555
N1 C6 1_555 1_555
N2 S1 1_555 1_555
N3 N4 1_555 1_555
N4 H1 1_555 1_555
C1 C2 1_555 1_555
C2 H2 1_555 1_555
C3 C2 1_555 1_555
H3 C3 1_555 1_555
C4 C3 1_555 1_555
H4 C4 1_555 1_555
C5 C4 1_555 1_555
H5 C5 1_555 1_555
C6 C1 1_555 1_555
C7 N1 1_555 1_555
C8 N3 1_555 1_555
C9 N1 1_555 1_555
H6 C9 1_555 1_555
H7 C9 1_555 1_555
H8 C9 1_555 1_555
C10 S1 1_555 1_555
C11 C10 1_555 1_555
H9 C11 1_555 1_555
C12 C11 1_555 1_555
H10 C12 1_555 1_555
C13 C12 1_555 1_555
C14 C13 1_555 1_555
H11 C14 1_555 1_555
C15 C10 1_555 1_555
H12 C15 1_555 1_555
C16 C13 1_555 1_555
H13 C16 1_555 1_555
H14 C16 1_555 1_555
H15 C16 1_555 1_555
C17 N4 1_555 1_555
H16 C17 1_555 1_555
C18 C17 1_555 1_555
C19 C18 1_555 1_555
H17 C19 1_555 1_555
C20 C19 1_555 1_555
H18 C20 1_555 1_555
C21 C20 1_555 1_555
H19 C21 1_555 1_555
C22 C21 1_555 1_555
H20 C22 1_555 1_555
C23 C18 1_555 1_555
H21 C23 1_555 1_555
C24 C17 1_555 1_555
C25 O4 1_555 1_555
H22 C25 1_555 1_555
H23 C25 1_555 1_555
C26 C25 1_555 1_555
H24 C26 1_555 1_555
H25 C26 1_555 1_555
H26 C26 1_555 1_555
N2 C7 1_555 1_555
C1 C8 1_555 1_555
C5 C6 1_555 1_555
C7 C8 1_555 1_555
C14 C15 1_555 1_555
C22 C23 1_555 1_555

#END
