
#######################################################################
#
#                 Cambridge Crystallographic Data Centre
#                                CCDC 
#
#######################################################################
#
# If this CIF has been generated from an entry in the Cambridge 
# Structural Database, then it will include bibliographic, chemical, 
# crystal, experimental, refinement or atomic coordinate data resulting 
# from the CCDC's data processing and validation procedures.
#
#######################################################################

data_IQIHEX
_chemical_compound_source        'isolated from the bark of Gnetum gnemonoides'
_chemical_name_common            'Noidesol A methanol solvate'
_chemical_formula_moiety         'C22 H24 O12,C1 H4 O1'
_chemical_name_systematic        
'2-(3,4-dihydroxyphenyl)-3,5-dihydroxy-7-methoxy-8-(3,4,5-trihydroxy-6-(hydroxymethyl)tetrahydro-2H-pyran-2-yl)-2,3-dihydro-4H-chromen-4-one methanol solvate'
_symmetry_cell_setting           orthorhombic
_symmetry_space_group_name_H-M   'P 21 21 21'
_symmetry_Int_Tables_number      19
_space_group_name_Hall           'P 2ac 2ab'
loop_
_symmetry_equiv_pos_site_id
_symmetry_equiv_pos_as_xyz
1 x,y,z
2 1/2+x,1/2-y,-z
3 -x,1/2+y,1/2-z
4 1/2-x,-y,1/2+z
_cell_length_a                   9.31894(17)
_cell_length_b                   11.1351(2)
_cell_length_c                   22.5910(7)
_cell_angle_alpha                90
_cell_angle_beta                 90
_cell_angle_gamma                90
_cell_volume                     2344.21
_exptl_crystal_colour            colorless
_exptl_crystal_description       platelet
_cell_formula_units_Z            4
loop_
_atom_site_label
_atom_site_type_symbol
_atom_site_fract_x
_atom_site_fract_y
_atom_site_fract_z
O1 O 0.7310(2) 0.5055(2) 0.28220(9)
O2 O 0.7937(2) 0.7432(2) 0.17328(9)
O3 O 0.7064(2) 0.5528(2) 0.10327(10)
O4 O 0.7007(2) 0.3195(2) 0.09072(9)
O5 O 0.6589(2) 0.0913(2) 0.26869(9)
O6 O 0.9750(2) 0.9824(2) 0.34371(12)
O7 O 0.7598(2) 0.9862(2) 0.42520(10)
O8 O 0.5751(2) 0.37121(18) 0.36211(9)
O9 O 0.9223(2) 0.21977(18) 0.35519(10)
O10 O 0.9213(2) 0.3310(2) 0.47310(9)
O11 O 0.6308(2) 0.3340(2) 0.52028(9)
O12 O 0.2954(2) 0.4133(2) 0.40776(10)
C1 C 0.7966(3) 0.6119(3) 0.25630(14)
C2 C 0.7209(3) 0.6442(3) 0.19931(14)
C3 C 0.7146(3) 0.5350(3) 0.15794(16)
C4 C 0.7006(3) 0.3129(3) 0.15057(15)
C5 C 0.6899(3) 0.2017(3) 0.17693(14)
C6 C 0.6803(3) 0.1957(3) 0.23841(14)
C7 C 0.6919(3) 0.2992(3) 0.27487(13)
C8 C 0.7120(3) 0.4071(3) 0.24641(15)
C9 C 0.7101(3) 0.4196(3) 0.18452(14)
C10 C 0.7907(3) 0.7055(3) 0.30370(14)
C11 C 0.8910(3) 0.7990(3) 0.30506(14)
C12 C 0.8773(3) 0.8918(3) 0.34591(15)
C13 C 0.7660(3) 0.8917(3) 0.38640(15)
C14 C 0.6675(3) 0.7982(3) 0.38687(15)
C15 C 0.6805(3) 0.7054(3) 0.34466(14)
C16 C 0.6814(3) 0.2870(3) 0.34141(13)
C17 C 0.8222(3) 0.3097(3) 0.37393(13)
C18 C 0.7962(3) 0.2962(3) 0.44016(13)
C19 C 0.6721(3) 0.3707(3) 0.46164(13)
C20 C 0.5395(3) 0.3515(3) 0.42278(13)
C21 C 0.4242(3) 0.4424(3) 0.43896(14)
C22 C 0.6510(3) -0.0182(3) 0.23446(15)
H1 H 0.8994 0.5939 0.2473
H2 H 0.7391 0.7775 0.1490
H3 H 0.6206 0.6694 0.2089
H4 H 0.7150 0.3909 0.0802
H5 H 0.6891 0.1306 0.1537
H6 H 0.9374 1.0459 0.3564
H7 H 0.6971 0.9725 0.4510
H8 H 1.0044 0.2502 0.3524
H9 H 0.9891 0.2839 0.4653
H10 H 0.6838 0.3680 0.5453
H11 H 0.9688 0.7992 0.2779
H12 H 0.2261 0.4506 0.4228
H13 H 0.5923 0.7966 0.4153
H14 H 0.6124 0.6418 0.3444
H15 H 0.6480 0.2039 0.3510
H16 H 0.8596 0.3918 0.3647
H17 H 0.7752 0.2099 0.4488
H18 H 0.6992 0.4576 0.4617
H19 H 0.5020 0.2681 0.4282
H20 H 0.4065 0.4404 0.4822
H21 H 0.4562 0.5243 0.4281
H22 H 0.6279 -0.0856 0.2607
H23 H 0.7437 -0.0330 0.2153
H24 H 0.5762 -0.0104 0.2042
O13 O 1.0814(2) 0.5295(2) 0.47670(12)
C23 C 1.0114(4) 0.6365(3) 0.45220(17)
H25 H 1.0216 0.4733 0.4790
H26 H 1.0827 0.7003 0.4469
H27 H 0.9365 0.6640 0.4795
H28 H 0.9682 0.6167 0.4139
loop_
_geom_bond_atom_site_label_1
_geom_bond_atom_site_label_2
_geom_bond_site_symmetry_1
_geom_bond_site_symmetry_2
O1 C1 1_555 1_555
O2 C2 1_555 1_555
O3 C3 1_555 1_555
O4 C4 1_555 1_555
O5 C6 1_555 1_555
O6 C12 1_555 1_555
O7 C13 1_555 1_555
O8 C16 1_555 1_555
O9 C17 1_555 1_555
O10 C18 1_555 1_555
O11 C19 1_555 1_555
O12 C21 1_555 1_555
C1 C2 1_555 1_555
C2 C3 1_555 1_555
C3 C9 1_555 1_555
C4 C5 1_555 1_555
C5 C6 1_555 1_555
C6 C7 1_555 1_555
C7 C8 1_555 1_555
C8 O1 1_555 1_555
C9 C4 1_555 1_555
C10 C1 1_555 1_555
C11 C10 1_555 1_555
C12 C11 1_555 1_555
C13 C12 1_555 1_555
C14 C13 1_555 1_555
C15 C10 1_555 1_555
C16 C7 1_555 1_555
C17 C16 1_555 1_555
C18 C17 1_555 1_555
C19 C18 1_555 1_555
C20 O8 1_555 1_555
C21 C20 1_555 1_555
C22 O5 1_555 1_555
H1 C1 1_555 1_555
H2 O2 1_555 1_555
H3 C2 1_555 1_555
H4 O4 1_555 1_555
H5 C5 1_555 1_555
H6 O6 1_555 1_555
H7 O7 1_555 1_555
H8 O9 1_555 1_555
H9 O10 1_555 1_555
H10 O11 1_555 1_555
H11 C11 1_555 1_555
H12 O12 1_555 1_555
H13 C14 1_555 1_555
H14 C15 1_555 1_555
H15 C16 1_555 1_555
H16 C17 1_555 1_555
H17 C18 1_555 1_555
H18 C19 1_555 1_555
H19 C20 1_555 1_555
H20 C21 1_555 1_555
H21 C21 1_555 1_555
H22 C22 1_555 1_555
H23 C22 1_555 1_555
H24 C22 1_555 1_555
O13 C23 1_555 1_555
C23 H26 1_555 1_555
H25 O13 1_555 1_555
H27 C23 1_555 1_555
H28 C23 1_555 1_555
C8 C9 1_555 1_555
C14 C15 1_555 1_555
C19 C20 1_555 1_555

#END
