
#######################################################################
#
#                 Cambridge Crystallographic Data Centre
#                                CCDC 
#
#######################################################################
#
# If this CIF has been generated from an entry in the Cambridge 
# Structural Database, then it will include bibliographic, chemical, 
# crystal, experimental, refinement or atomic coordinate data resulting 
# from the CCDC's data processing and validation procedures.
#
#######################################################################

data_IQINUT
_chemical_formula_moiety         'C53 H35 N3'
_chemical_name_systematic        
N,N-diphenyl-10-(4-(1-phenyl-1H-phenanthro[9,10-d]imidazol-2-yl)phenyl)anthracen-9-amine
_symmetry_cell_setting           monoclinic
_symmetry_space_group_name_H-M   'P 21/c'
_symmetry_Int_Tables_number      14
_space_group_name_Hall           '-P 2ybc'
loop_
_symmetry_equiv_pos_site_id
_symmetry_equiv_pos_as_xyz
1 x,y,z
2 -x,1/2+y,1/2-z
3 -x,-y,-z
4 x,1/2-y,1/2+z
_cell_length_a                   18.1453(19)
_cell_length_b                   11.7409(12)
_cell_length_c                   18.0797(19)
_cell_angle_alpha                90
_cell_angle_beta                 106.363(2)
_cell_angle_gamma                90
_cell_volume                     3695.73
_exptl_crystal_colour            yellow
_exptl_crystal_description       block
_cell_formula_units_Z            4
loop_
_atom_site_label
_atom_site_type_symbol
_atom_site_fract_x
_atom_site_fract_y
_atom_site_fract_z
N1 N 0.35899(8) 0.08418(13) 0.06997(9)
N2 N 0.01732(8) -0.43739(13) 0.32832(9)
C1 C 0.10300(10) -0.27404(16) 0.33625(10)
C2 C 0.23913(10) -0.19227(15) 0.21644(11)
N3 N 0.46909(8) 0.00635(13) 0.14106(9)
C3 C 0.18321(10) -0.25674(15) 0.24720(11)
C4 C 0.10015(10) -0.42507(15) 0.24244(11)
C5 C 0.07458(10) -0.37804(16) 0.30227(11)
C6 C 0.15536(10) -0.21000(15) 0.30597(10)
C7 C 0.17744(10) -0.09968(16) 0.33807(11)
H1 H 0.2081 -0.0539 0.3169
C8 C 0.21864(10) -0.15451(15) 0.14018(11)
H2 H 0.1703 -0.1721 0.1079
C9 C 0.42030(10) 0.13472(16) 0.05216(11)
C10 C 0.03976(10) -0.53400(16) 0.37600(10)
C11 C 0.18785(11) -0.41996(16) 0.16086(11)
H3 H 0.2270 -0.3849 0.1453
C12 C -0.05926(10) -0.39504(15) 0.30396(11)
C13 C 0.52177(10) -0.05324(16) 0.20385(11)
C14 C 0.15787(10) -0.36499(15) 0.21667(10)
C15 C 0.48847(10) 0.08825(16) 0.09413(11)
C16 C 0.26877(10) -0.09162(15) 0.11179(11)
H4 H 0.2532 -0.0661 0.0611
C17 C 0.34220(10) -0.06575(15) 0.15777(11)
C18 C 0.08181(10) -0.23021(17) 0.40093(11)
H5 H 0.0497 -0.2728 0.4222
C19 C -0.10928(10) -0.40586(16) 0.34952(11)
H6 H -0.0932 -0.4428 0.3968
C20 C 0.13851(12) -0.63839(18) 0.46828(11)
H7 H 0.1889 -0.6432 0.4994
C21 C 0.56174(11) 0.11947(17) 0.08379(11)
C22 C -0.01023(11) -0.62527(16) 0.37388(11)
H8 H -0.0602 -0.6222 0.3416
C23 C 0.07121(11) -0.52976(16) 0.20592(11)
H9 H 0.0317 -0.5667 0.2196
C24 C 0.48897(11) 0.27340(17) -0.00397(11)
C25 C -0.08402(10) -0.33674(16) 0.23437(11)
H10 H -0.0511 -0.3283 0.2036
C26 C 0.16044(11) -0.52230(17) 0.13006(12)
H11 H 0.1816 -0.5569 0.0945
C27 C 0.01412(12) -0.71991(17) 0.41946(12)
H12 H -0.0200 -0.7794 0.4184
C28 C 0.31285(10) -0.16723(16) 0.26208(11)
H13 H 0.3282 -0.1922 0.3129
C29 C 0.41775(11) 0.23029(17) 0.00170(11)
C30 C 0.56079(11) 0.21401(17) 0.03413(11)
C31 C 0.38958(10) 0.00795(16) 0.12346(11)
C32 C 0.10768(11) -0.12750(17) 0.43193(12)
H14 H 0.0945 -0.1013 0.4751
C33 C 0.11457(11) -0.54198(17) 0.42406(11)
H15 H 0.1487 -0.4820 0.4264
C34 C 0.10017(11) -0.57671(17) 0.15151(12)
H16 H 0.0803 -0.6450 0.1282
C35 C 0.36379(11) -0.10581(16) 0.23324(11)
H17 H 0.4130 -0.0912 0.2647
C36 C -0.18302(11) -0.36151(17) 0.32433(12)
H18 H -0.2166 -0.3707 0.3544
C37 C 0.63114(11) 0.06180(18) 0.11635(12)
H19 H 0.6317 -0.0005 0.1482
C38 C 0.48629(13) 0.37308(18) -0.04805(12)
H20 H 0.5320 0.4043 -0.0523
C39 C 0.69801(12) 0.18875(19) 0.05439(12)
H21 H 0.7435 0.2122 0.0449
C40 C 0.69821(11) 0.09577(19) 0.10199(12)
H22 H 0.7436 0.0566 0.1241
C41 C -0.20721(11) -0.30387(17) 0.25508(12)
H23 H -0.2566 -0.2739 0.2386
C42 C 0.56048(11) 0.00667(18) 0.26867(12)
H24 H 0.5526 0.0846 0.2719
C43 C 0.15461(11) -0.06020(18) 0.39875(12)
H25 H 0.1700 0.0118 0.4186
C44 C 0.41870(14) 0.4251(2) -0.08466(13)
H26 H 0.4190 0.4911 -0.1130
C45 C -0.15690(11) -0.29140(17) 0.21063(12)
H27 H -0.1725 -0.2520 0.1642
C46 C 0.34863(12) 0.28354(18) -0.03736(12)
H28 H 0.3022 0.2533 -0.0343
C47 C 0.63126(12) 0.24582(19) 0.02146(12)
H29 H 0.6323 0.3077 -0.0104
C48 C 0.61134(12) -0.0501(2) 0.32913(13)
H30 H 0.6377 -0.0102 0.3731
C49 C 0.08852(12) -0.72747(18) 0.46666(12)
H31 H 0.1047 -0.7918 0.4969
C50 C 0.34912(13) 0.37994(19) -0.07997(13)
H32 H 0.3031 0.4151 -0.1057
C51 C 0.58414(13) -0.2247(2) 0.25911(14)
H33 H 0.5922 -0.3025 0.2558
C52 C 0.53313(12) -0.16864(17) 0.19839(12)
H34 H 0.5068 -0.2085 0.1544
C53 C 0.62298(12) -0.1656(2) 0.32426(14)
H35 H 0.6570 -0.2035 0.3649
loop_
_geom_bond_atom_site_label_1
_geom_bond_atom_site_label_2
_geom_bond_site_symmetry_1
_geom_bond_site_symmetry_2
N1 C9 1_555 1_555
N2 C5 1_555 1_555
C1 C5 1_555 1_555
C2 C3 1_555 1_555
N3 C13 1_555 1_555
C3 C6 1_555 1_555
C4 C5 1_555 1_555
C6 C1 1_555 1_555
C7 C6 1_555 1_555
H1 C7 1_555 1_555
C8 C2 1_555 1_555
H2 C8 1_555 1_555
C9 C15 1_555 1_555
C10 N2 1_555 1_555
C11 H3 1_555 1_555
C12 N2 1_555 1_555
C13 C42 1_555 1_555
C14 C3 1_555 1_555
C15 N3 1_555 1_555
C16 C8 1_555 1_555
H4 C16 1_555 1_555
C17 C16 1_555 1_555
C18 C1 1_555 1_555
H5 C18 1_555 1_555
C19 C12 1_555 1_555
H6 C19 1_555 1_555
C20 H7 1_555 1_555
C21 C15 1_555 1_555
C22 C10 1_555 1_555
H8 C22 1_555 1_555
C23 C4 1_555 1_555
H9 C23 1_555 1_555
C24 C29 1_555 1_555
C25 C12 1_555 1_555
H10 C25 1_555 1_555
C26 C11 1_555 1_555
H11 C26 1_555 1_555
C27 C22 1_555 1_555
H12 C27 1_555 1_555
C28 C2 1_555 1_555
H13 C28 1_555 1_555
C29 C9 1_555 1_555
C30 C21 1_555 1_555
C31 N1 1_555 1_555
C32 C18 1_555 1_555
H14 C32 1_555 1_555
C33 C10 1_555 1_555
H15 C33 1_555 1_555
C34 C23 1_555 1_555
H16 C34 1_555 1_555
C35 C17 1_555 1_555
H17 C35 1_555 1_555
C36 C19 1_555 1_555
H18 C36 1_555 1_555
C37 C21 1_555 1_555
H19 C37 1_555 1_555
C38 C24 1_555 1_555
H20 C38 1_555 1_555
C39 H21 1_555 1_555
C40 C37 1_555 1_555
H22 C40 1_555 1_555
C41 C36 1_555 1_555
H23 C41 1_555 1_555
C42 H24 1_555 1_555
C43 C7 1_555 1_555
H25 C43 1_555 1_555
C44 C38 1_555 1_555
H26 C44 1_555 1_555
C45 C25 1_555 1_555
H27 C45 1_555 1_555
C46 C29 1_555 1_555
H28 C46 1_555 1_555
C47 C30 1_555 1_555
H29 C47 1_555 1_555
C48 C42 1_555 1_555
H30 C48 1_555 1_555
C49 C20 1_555 1_555
H31 C49 1_555 1_555
C50 C44 1_555 1_555
H32 C50 1_555 1_555
C51 H33 1_555 1_555
C52 C13 1_555 1_555
H34 C52 1_555 1_555
C53 C48 1_555 1_555
H35 C53 1_555 1_555
N3 C31 1_555 1_555
C4 C14 1_555 1_555
C11 C14 1_555 1_555
C17 C31 1_555 1_555
C20 C33 1_555 1_555
C24 C30 1_555 1_555
C26 C34 1_555 1_555
C27 C49 1_555 1_555
C28 C35 1_555 1_555
C32 C43 1_555 1_555
C39 C40 1_555 1_555
C39 C47 1_555 1_555
C41 C45 1_555 1_555
C46 C50 1_555 1_555
C51 C52 1_555 1_555
C51 C53 1_555 1_555

#END
