
#######################################################################
#
#                 Cambridge Crystallographic Data Centre
#                                CCDC 
#
#######################################################################
#
# If this CIF has been generated from an entry in the Cambridge 
# Structural Database, then it will include bibliographic, chemical, 
# crystal, experimental, refinement or atomic coordinate data resulting 
# from the CCDC's data processing and validation procedures.
#
#######################################################################

data_IQIPAB
_chemical_formula_moiety         'C57 H43 N3'
_chemical_name_systematic        
10-(4-(1-(4-t-butylphenyl)-1H-phenanthro[9,10-d]imidazol-2-yl)phenyl)-N,N-diphenylanthracen-9-amine
_symmetry_cell_setting           monoclinic
_symmetry_space_group_name_H-M   'P 21/c'
_symmetry_Int_Tables_number      14
_space_group_name_Hall           '-P 2ybc'
loop_
_symmetry_equiv_pos_site_id
_symmetry_equiv_pos_as_xyz
1 x,y,z
2 -x,1/2+y,1/2-z
3 -x,-y,-z
4 x,1/2-y,1/2+z
_cell_length_a                   18.418(2)
_cell_length_b                   13.6974(15)
_cell_length_c                   17.2557(19)
_cell_angle_alpha                90
_cell_angle_beta                 106.726(2)
_cell_angle_gamma                90
_cell_volume                     4169.07
_exptl_crystal_colour            yellow
_exptl_crystal_description       block
_cell_formula_units_Z            4
loop_
_atom_site_label
_atom_site_type_symbol
_atom_site_fract_x
_atom_site_fract_y
_atom_site_fract_z
N1 N 0.07902(9) 0.33655(12) 0.49010(10)
N2 N 0.46079(10) 0.24761(13) 1.09266(11)
C1 C 0.27566(12) 0.30857(15) 0.93927(13)
N3 N 0.03318(10) 0.19278(12) 0.51738(11)
C2 C -0.08829(12) 0.20647(16) 0.30242(14)
C3 C 0.33607(12) 0.30651(15) 1.01347(13)
C4 C 0.34188(12) 0.18633(15) 0.88213(13)
C5 C 0.39899(12) 0.24600(15) 1.01991(13)
C6 C -0.00593(11) 0.35559(15) 0.34292(13)
C7 C 0.40254(12) 0.18566(15) 0.95570(13)
C8 C 0.02475(11) 0.30734(15) 0.41940(13)
C9 C -0.06371(12) 0.30379(15) 0.28475(13)
C10 C -0.08000(12) 0.06990(16) 0.39630(14)
H1 H -0.0594 0.0426 0.4473
C11 C -0.00122(11) 0.21883(15) 0.43818(13)
C12 C 0.27986(12) 0.25040(15) 0.87320(13)
C13 C 0.01466(12) 0.44966(15) 0.32377(14)
H2 H 0.0520 0.4839 0.3619
C14 C 0.52789(12) 0.29765(16) 1.09200(13)
C15 C -0.05716(11) 0.16354(15) 0.37958(13)
C16 C 0.08077(12) 0.26427(15) 0.54707(13)
C17 C 0.22908(12) 0.51734(15) 0.48885(13)
H3 H 0.2699 0.5230 0.4675
C18 C 0.40990(13) 0.11029(16) 1.14988(15)
H4 H 0.3843 0.0897 1.0978
C19 C 0.45323(12) 0.19495(16) 1.16079(13)
C20 C 0.33224(13) 0.37024(16) 1.07795(14)
H5 H 0.3719 0.3711 1.1257
C21 C 0.27158(13) 0.42940(17) 1.07040(15)
H6 H 0.2699 0.4703 1.1129
C22 C 0.12389(11) 0.42472(15) 0.50400(13)
C23 C 0.22433(12) 0.25984(15) 0.79117(13)
C24 C 0.13022(12) 0.26787(15) 0.63068(13)
C25 C -0.01898(13) 0.49158(17) 0.25042(14)
H7 H -0.0048 0.5538 0.2390
C26 C 0.10251(12) 0.23538(16) 0.69325(14)
H8 H 0.0521 0.2160 0.6819
C27 C -0.14239(13) 0.15096(17) 0.24471(15)
H9 H -0.1640 0.1770 0.1935
C28 C 0.20564(12) 0.29736(17) 0.64993(14)
H10 H 0.2253 0.3201 0.6093
C29 C 0.21368(12) 0.59313(15) 0.53570(13)
C30 C 0.40671(15) 0.06049(17) 0.82784(16)
H11 H 0.4080 0.0176 0.7865
C31 C 0.21310(13) 0.37213(16) 0.93511(14)
H12 H 0.1729 0.3743 0.8879
C32 C 0.18484(12) 0.43361(15) 0.47338(13)
H13 H 0.1963 0.3836 0.4424
C33 C 0.48692(13) 0.22705(18) 1.23980(14)
H14 H 0.5134 0.2858 1.2486
C34 C 0.52534(13) 0.36887(15) 1.03368(15)
H15 H 0.4795 0.3830 0.9955
C35 C 0.46583(13) 0.12305(16) 0.96103(15)
H16 H 0.5065 0.1233 1.0078
C36 C 0.40456(14) 0.05621(18) 1.21591(16)
H17 H 0.3758 -0.0007 1.2076
C37 C 0.25129(13) 0.29312(17) 0.72830(14)
H18 H 0.3016 0.3130 0.7397
C38 C 0.10719(12) 0.49846(16) 0.55017(14)
H19 H 0.0661 0.4925 0.5711
C39 C 0.46756(15) 0.06342(17) 0.89908(16)
H20 H 0.5096 0.0238 0.9037
C40 C 0.15161(12) 0.58119(16) 0.56533(15)
H21 H 0.1397 0.6307 0.5964
C41 C -0.16383(14) 0.05979(18) 0.26224(16)
H22 H -0.1998 0.0251 0.2230
C42 C 0.26055(12) 0.68722(16) 0.55308(14)
C43 C 0.59007(15) 0.41901(17) 1.03169(17)
H23 H 0.5872 0.4655 0.9917
C44 C 0.14884(12) 0.23155(16) 0.77199(14)
H24 H 0.1291 0.2097 0.8128
C45 C -0.13239(13) 0.01855(17) 0.33804(15)
H25 H -0.1468 -0.0437 0.3492
C46 C 0.34619(14) 0.12003(16) 0.81937(15)
H26 H 0.3065 0.1178 0.7717
C47 C 0.21115(13) 0.42920(18) 0.99853(15)
H27 H 0.1693 0.4689 0.9946
C48 C -0.09657(14) 0.35000(18) 0.21024(15)
H28 H -0.1346 0.3178 0.1713
C49 C 0.48125(14) 0.1722(2) 1.30486(15)
H29 H 0.5047 0.1939 1.3571
C50 C -0.07448(14) 0.44084(18) 0.19308(15)
H30 H -0.0968 0.4688 0.1427
C51 C 0.44135(14) 0.0856(2) 1.29362(16)
H31 H 0.4393 0.0478 1.3377
C52 C 0.59835(13) 0.2769(2) 1.14652(15)
H32 H 0.6025 0.2275 1.1845
C53 C 0.65817(15) 0.4010(2) 1.08789(18)
H33 H 0.7011 0.4367 1.0878
C54 C 0.66198(14) 0.3291(2) 1.14451(16)
H34 H 0.7082 0.3154 1.1822
C55 C 0.33434(14) 0.67801(19) 0.53044(19)
H35 H 0.3232 0.6621 0.4741
H36 H 0.3649 0.6274 0.5622
H37 H 0.3613 0.7388 0.5408
C56 C 0.27996(16) 0.7132(2) 0.64308(16)
H38 H 0.3103 0.6622 0.6746
H39 H 0.2340 0.7203 0.6583
H40 H 0.3077 0.7735 0.6528
C57 C 0.21290(14) 0.77010(17) 0.50476(17)
H41 H 0.1998 0.7551 0.4481
H42 H 0.2415 0.8297 0.5150
H43 H 0.1675 0.7776 0.5209
loop_
_geom_bond_atom_site_label_1
_geom_bond_atom_site_label_2
_geom_bond_site_symmetry_1
_geom_bond_site_symmetry_2
N1 C8 1_555 1_555
N2 C5 1_555 1_555
C1 C3 1_555 1_555
N3 C11 1_555 1_555
C2 C9 1_555 1_555
C3 C5 1_555 1_555
C4 C7 1_555 1_555
C5 C7 1_555 1_555
C6 C8 1_555 1_555
C7 C35 1_555 1_555
C8 C11 1_555 1_555
C9 C6 1_555 1_555
C10 H1 1_555 1_555
C11 C15 1_555 1_555
C12 C1 1_555 1_555
C13 C6 1_555 1_555
H2 C13 1_555 1_555
C14 N2 1_555 1_555
C15 C2 1_555 1_555
C16 N1 1_555 1_555
C17 H3 1_555 1_555
C18 H4 1_555 1_555
C19 N2 1_555 1_555
C20 C3 1_555 1_555
H5 C20 1_555 1_555
C21 C20 1_555 1_555
H6 C21 1_555 1_555
C22 N1 1_555 1_555
C23 C12 1_555 1_555
C24 C16 1_555 1_555
C25 C13 1_555 1_555
H7 C25 1_555 1_555
C26 C24 1_555 1_555
H8 C26 1_555 1_555
C27 C2 1_555 1_555
H9 C27 1_555 1_555
C28 C24 1_555 1_555
H10 C28 1_555 1_555
C29 C17 1_555 1_555
C30 H11 1_555 1_555
C31 C1 1_555 1_555
H12 C31 1_555 1_555
C32 C17 1_555 1_555
H13 C32 1_555 1_555
C33 C19 1_555 1_555
H14 C33 1_555 1_555
C34 C14 1_555 1_555
H15 C34 1_555 1_555
C35 H16 1_555 1_555
C36 C18 1_555 1_555
H17 C36 1_555 1_555
C37 C23 1_555 1_555
H18 C37 1_555 1_555
C38 C22 1_555 1_555
H19 C38 1_555 1_555
C39 C30 1_555 1_555
H20 C39 1_555 1_555
C40 C29 1_555 1_555
H21 C40 1_555 1_555
C41 C27 1_555 1_555
H22 C41 1_555 1_555
C42 C29 1_555 1_555
C43 C34 1_555 1_555
H23 C43 1_555 1_555
C44 C23 1_555 1_555
H24 C44 1_555 1_555
C45 C10 1_555 1_555
H25 C45 1_555 1_555
C46 C4 1_555 1_555
H26 C46 1_555 1_555
C47 C21 1_555 1_555
H27 C47 1_555 1_555
C48 C9 1_555 1_555
H28 C48 1_555 1_555
C49 C33 1_555 1_555
H29 C49 1_555 1_555
C50 C25 1_555 1_555
H30 C50 1_555 1_555
C51 C36 1_555 1_555
H31 C51 1_555 1_555
C52 C14 1_555 1_555
H32 C52 1_555 1_555
C53 C43 1_555 1_555
H33 C53 1_555 1_555
C54 C52 1_555 1_555
H34 C54 1_555 1_555
C55 C42 1_555 1_555
H35 C55 1_555 1_555
H36 C55 1_555 1_555
H37 C55 1_555 1_555
C56 C42 1_555 1_555
H38 C56 1_555 1_555
H39 C56 1_555 1_555
H40 C56 1_555 1_555
C57 C42 1_555 1_555
H41 C57 1_555 1_555
H42 C57 1_555 1_555
H43 C57 1_555 1_555
N3 C16 1_555 1_555
C4 C12 1_555 1_555
C10 C15 1_555 1_555
C18 C19 1_555 1_555
C22 C32 1_555 1_555
C26 C44 1_555 1_555
C28 C37 1_555 1_555
C30 C46 1_555 1_555
C31 C47 1_555 1_555
C35 C39 1_555 1_555
C38 C40 1_555 1_555
C41 C45 1_555 1_555
C48 C50 1_555 1_555
C49 C51 1_555 1_555
C53 C54 1_555 1_555

#END
