
#######################################################################
#
#                 Cambridge Crystallographic Data Centre
#                                CCDC 
#
#######################################################################
#
# If this CIF has been generated from an entry in the Cambridge 
# Structural Database, then it will include bibliographic, chemical, 
# crystal, experimental, refinement or atomic coordinate data resulting 
# from the CCDC's data processing and validation procedures.
#
#######################################################################

data_IQITIN
_chemical_formula_moiety         'C22 H14 N2 O2 S1'
_chemical_name_systematic        
1-(2-furyl)-2-(3-phenylimidazo[1,5-c][1,3]benzothiazin-5-ylidene)ethanone
_symmetry_cell_setting           orthorhombic
_symmetry_space_group_name_H-M   'P n a 21'
_symmetry_Int_Tables_number      33
_space_group_name_Hall           'P 2c -2n'
loop_
_symmetry_equiv_pos_site_id
_symmetry_equiv_pos_as_xyz
1 x,y,z
2 -x,-y,1/2+z
3 1/2+x,1/2-y,z
4 1/2-x,1/2+y,1/2+z
_cell_length_a                   9.8243(3)
_cell_length_b                   9.8376(4)
_cell_length_c                   17.5582(6)
_cell_angle_alpha                90
_cell_angle_beta                 90
_cell_angle_gamma                90
_cell_volume                     1696.96
_exptl_crystal_colour            yellow
_exptl_crystal_description       Needle
_cell_formula_units_Z            4
loop_
_atom_site_label
_atom_site_type_symbol
_atom_site_fract_x
_atom_site_fract_y
_atom_site_fract_z
C1 C -0.0269(3) 0.5351(2) 0.35802(13)
N1 N -0.0960(2) 0.5859(2) 0.30091(12)
C2 C -0.1457(2) 0.4776(3) 0.26047(14)
H1 H -0.1995 0.4853 0.2164
C3 C -0.1075(2) 0.3580(3) 0.29211(14)
C4 C -0.1476(2) 0.2201(3) 0.27424(13)
C5 C -0.2454(3) 0.1931(3) 0.21795(15)
H2 H -0.2832 0.2654 0.1901
C6 C -0.2866(3) 0.0619(3) 0.20310(15)
H3 H -0.3511 0.0454 0.1646
C7 C -0.2342(2) -0.0454(3) 0.24414(16)
H4 H -0.2628 -0.1346 0.2337
C8 C -0.1397(2) -0.0215(3) 0.30046(15)
H5 H -0.1051 -0.0944 0.3292
C9 C -0.0951(2) 0.1110(3) 0.31510(13)
S1 S 0.03068(7) 0.12621(6) 0.38490(4)
C10 C 0.0548(2) 0.3012(2) 0.39691(14)
N2 N -0.0271(2) 0.39230(19) 0.35499(10)
C11 C 0.0294(2) 0.6225(2) 0.41799(13)
C12 C -0.0044(3) 0.6069(3) 0.49458(15)
H6 H -0.0597 0.5340 0.5101
C13 C 0.0436(3) 0.6988(3) 0.54760(16)
H7 H 0.0207 0.6882 0.5992
C14 C 0.1248(3) 0.8062(3) 0.52541(16)
H8 H 0.1574 0.8682 0.5618
C15 C 0.1580(3) 0.8223(3) 0.44948(16)
H9 H 0.2134 0.8953 0.4342
C16 C 0.1100(2) 0.7317(2) 0.39643(16)
H10 H 0.1321 0.7438 0.3448
C17 C 0.1526(2) 0.3435(2) 0.44524(14)
H11 H 0.1709 0.4372 0.4479
C18 C 0.2316(2) 0.2530(3) 0.49344(14)
O1 O 0.2275(2) 0.12841(18) 0.48890(12)
C19 C 0.3189(2) 0.3178(3) 0.55070(15)
C20 C 0.3461(3) 0.4468(3) 0.57114(15)
H12 H 0.3092 0.5256 0.5490
C21 C 0.4404(3) 0.4425(3) 0.63208(15)
H13 H 0.4789 0.5170 0.6578
C22 C 0.4635(3) 0.3101(3) 0.64548(16)
H14 H 0.5219 0.2767 0.6835
O2 O 0.39111(18) 0.23107(18) 0.59668(11)
loop_
_geom_bond_atom_site_label_1
_geom_bond_atom_site_label_2
_geom_bond_site_symmetry_1
_geom_bond_site_symmetry_2
C1 N1 1_555 1_555
N1 C2 1_555 1_555
C2 H1 1_555 1_555
C3 C2 1_555 1_555
C4 C3 1_555 1_555
C5 C4 1_555 1_555
H2 C5 1_555 1_555
C6 C5 1_555 1_555
H3 C6 1_555 1_555
C7 C6 1_555 1_555
H4 C7 1_555 1_555
C8 C7 1_555 1_555
H5 C8 1_555 1_555
C9 C4 1_555 1_555
S1 C9 1_555 1_555
C10 S1 1_555 1_555
N2 C1 1_555 1_555
C11 C1 1_555 1_555
C12 C11 1_555 1_555
H6 C12 1_555 1_555
C13 C12 1_555 1_555
H7 C13 1_555 1_555
C14 C13 1_555 1_555
H8 C14 1_555 1_555
C15 C14 1_555 1_555
H9 C15 1_555 1_555
C16 C11 1_555 1_555
H10 C16 1_555 1_555
C17 C10 1_555 1_555
H11 C17 1_555 1_555
C18 C17 1_555 1_555
O1 C18 1_555 1_555
C19 C18 1_555 1_555
C20 C19 1_555 1_555
H12 C20 1_555 1_555
C21 C20 1_555 1_555
H13 C21 1_555 1_555
C22 C21 1_555 1_555
H14 C22 1_555 1_555
O2 C19 1_555 1_555
C3 N2 1_555 1_555
C8 C9 1_555 1_555
C10 N2 1_555 1_555
C15 C16 1_555 1_555
C22 O2 1_555 1_555

#END
