
#######################################################################
#
#                 Cambridge Crystallographic Data Centre
#                                CCDC 
#
#######################################################################
#
# If this CIF has been generated from an entry in the Cambridge 
# Structural Database, then it will include bibliographic, chemical, 
# crystal, experimental, refinement or atomic coordinate data resulting 
# from the CCDC's data processing and validation procedures.
#
#######################################################################

data_IQITEJ
_chemical_formula_moiety         'C24 H16 N2 O1 S1'
_chemical_name_systematic        
1-phenyl-2-(3-phenylimidazo[1,5-c][1,3]benzothiazin-5-ylidene)ethanone
_symmetry_cell_setting           monoclinic
_symmetry_space_group_name_H-M   'P 21/c'
_symmetry_Int_Tables_number      14
_space_group_name_Hall           '-P 2ybc'
loop_
_symmetry_equiv_pos_site_id
_symmetry_equiv_pos_as_xyz
1 x,y,z
2 -x,1/2+y,1/2-z
3 -x,-y,-z
4 x,1/2-y,1/2+z
_cell_length_a                   12.1349(8)
_cell_length_b                   15.9572(10)
_cell_length_c                   9.4771(6)
_cell_angle_alpha                90
_cell_angle_beta                 100.034(3)
_cell_angle_gamma                90
_cell_volume                     1807.07
_exptl_crystal_colour            yellow
_exptl_crystal_description       Block
_cell_formula_units_Z            4
loop_
_atom_site_label
_atom_site_type_symbol
_atom_site_fract_x
_atom_site_fract_y
_atom_site_fract_z
C1 C 0.85334(14) -0.12872(9) 0.64041(17)
N1 N 0.89235(12) -0.19463(8) 0.71429(16)
C2 C 0.98378(14) -0.16877(10) 0.81026(19)
H1 H 1.0278 -0.2040 0.8769
C3 C 1.00241(13) -0.08538(9) 0.79644(16)
C4 C 1.08397(13) -0.03081(9) 0.87788(16)
C5 C 1.16294(14) -0.06227(11) 0.99167(17)
H2 H 1.1624 -0.1195 1.0149
C6 C 1.24096(15) -0.01012(11) 1.06926(18)
H3 H 1.2939 -0.0320 1.1445
C7 C 1.24212(15) 0.07489(11) 1.03711(18)
H4 H 1.2960 0.1102 1.0902
C8 C 1.16440(14) 0.10733(10) 0.92767(18)
H5 H 1.1645 0.1649 0.9065
C9 C 1.08532(13) 0.05449(10) 0.84812(16)
S1 S 0.99222(4) 0.10377(2) 0.71080(4)
C10 C 0.91044(13) 0.02315(9) 0.62307(16)
N2 N 0.91879(11) -0.05796(8) 0.68384(13)
C11 C 0.74873(14) -0.13376(9) 0.53368(17)
C12 C 0.64899(15) -0.09956(11) 0.56065(19)
H6 H 0.6483 -0.0689 0.6452
C13 C 0.55104(16) -0.11040(12) 0.4638(2)
H7 H 0.4839 -0.0873 0.4829
C14 C 0.55108(17) -0.15492(13) 0.3388(2)
H8 H 0.4845 -0.1614 0.2724
C15 C 0.64935(17) -0.18991(12) 0.3120(2)
H9 H 0.6495 -0.2205 0.2273
C16 C 0.74802(16) -0.18008(11) 0.40967(19)
H10 H 0.8145 -0.2049 0.3917
C17 C 0.84029(14) 0.03917(10) 0.49881(17)
H11 H 0.8024 -0.0064 0.4495
C18 C 0.81967(14) 0.12184(10) 0.43663(17)
O1 O 0.87053(11) 0.18424(7) 0.48875(13)
C19 C 0.73069(14) 0.13026(10) 0.30642(17)
C20 C 0.72992(15) 0.20227(11) 0.22273(19)
H12 H 0.7851 0.2436 0.2477
C21 C 0.64800(17) 0.21282(13) 0.1033(2)
H13 H 0.6489 0.2606 0.0454
C22 C 0.56474(17) 0.15361(15) 0.0684(2)
H14 H 0.5078 0.1620 -0.0113
C23 C 0.56493(16) 0.08248(14) 0.1501(2)
H15 H 0.5084 0.0421 0.1260
C24 C 0.64849(15) 0.07022(12) 0.26790(19)
H16 H 0.6494 0.0208 0.3221
loop_
_geom_bond_atom_site_label_1
_geom_bond_atom_site_label_2
_geom_bond_site_symmetry_1
_geom_bond_site_symmetry_2
C1 N1 1_555 1_555
N1 C2 1_555 1_555
C2 H1 1_555 1_555
C3 C2 1_555 1_555
C4 C3 1_555 1_555
C5 C4 1_555 1_555
H2 C5 1_555 1_555
C6 C5 1_555 1_555
H3 C6 1_555 1_555
C7 C6 1_555 1_555
H4 C7 1_555 1_555
C8 C7 1_555 1_555
H5 C8 1_555 1_555
C9 C4 1_555 1_555
S1 C9 1_555 1_555
C10 S1 1_555 1_555
N2 C1 1_555 1_555
C11 C1 1_555 1_555
C12 C11 1_555 1_555
H6 C12 1_555 1_555
C13 C12 1_555 1_555
H7 C13 1_555 1_555
C14 C13 1_555 1_555
H8 C14 1_555 1_555
C15 C14 1_555 1_555
H9 C15 1_555 1_555
C16 C11 1_555 1_555
H10 C16 1_555 1_555
C17 C10 1_555 1_555
H11 C17 1_555 1_555
C18 C17 1_555 1_555
O1 C18 1_555 1_555
C19 C18 1_555 1_555
C20 C19 1_555 1_555
H12 C20 1_555 1_555
C21 C20 1_555 1_555
H13 C21 1_555 1_555
C22 C21 1_555 1_555
H14 C22 1_555 1_555
C23 C22 1_555 1_555
H15 C23 1_555 1_555
C24 C19 1_555 1_555
H16 C24 1_555 1_555
C3 N2 1_555 1_555
C8 C9 1_555 1_555
C10 N2 1_555 1_555
C15 C16 1_555 1_555
C23 C24 1_555 1_555

#END
