
#######################################################################
#
#                 Cambridge Crystallographic Data Centre
#                                CCDC 
#
#######################################################################
#
# If this CIF has been generated from an entry in the Cambridge 
# Structural Database, then it will include bibliographic, chemical, 
# crystal, experimental, refinement or atomic coordinate data resulting 
# from the CCDC's data processing and validation procedures.
#
#######################################################################

data_IQIXIP
_chemical_formula_moiety         'C6 H14 O2 S2'
_chemical_name_systematic        meso-1,2-bis(ethylsulfinyl)ethane
_symmetry_cell_setting           triclinic
_symmetry_space_group_name_H-M   'P -1'
_symmetry_Int_Tables_number      2
_space_group_name_Hall           '-P 1'
loop_
_symmetry_equiv_pos_site_id
_symmetry_equiv_pos_as_xyz
1 x,y,z
2 -x,-y,-z
_cell_length_a                   5.363(3)
_cell_length_b                   5.616(3)
_cell_length_c                   8.773(6)
_cell_angle_alpha                89.078(10)
_cell_angle_beta                 84.380(10)
_cell_angle_gamma                64.981(9)
_cell_volume                     238.192
_chemical_melting_point          141-143deg.C
_cell_formula_units_Z            1
_exptl_crystal_recrystallization_method ether/chloroform
loop_
_atom_site_label
_atom_site_type_symbol
_atom_site_fract_x
_atom_site_fract_y
_atom_site_fract_z
S1 S 0.47214(14) 0.72540(13) 0.20922(8)
C1 C 0.3846(5) 0.6296(5) 0.0314(3)
H1 H 0.2128 0.6106 0.0503
H2 H 0.3588 0.7652 -0.0433
O1 O 0.7221(4) 0.7804(4) 0.1675(2)
C2 C 0.1737(6) 1.0411(6) 0.2347(4)
H3 H 0.1651 1.1422 0.1431
H4 H 0.0063 1.0135 0.2496
C3 C 0.1892(8) 1.1951(7) 0.3723(4)
H5 H 0.1932 1.0971 0.4634
H6 H 0.0302 1.3614 0.3828
H7 H 0.3540 1.2238 0.3573
C1A C 0.6154(5) 0.3704(5) -0.0314(3)
S1A S 0.52786(14) 0.27460(13) -0.20922(8)
O1A O 0.2779(4) 0.2196(4) -0.1675(2)
C2A C 0.8263(6) -0.0411(6) -0.2347(4)
H3A H 0.8349 -0.1422 -0.1431
H4A H 0.9937 -0.0135 -0.2496
C3A C 0.8108(8) -0.1951(7) -0.3723(4)
H5A H 0.8068 -0.0971 -0.4634
H6A H 0.9698 -0.3614 -0.3828
H7A H 0.6460 -0.2238 -0.3573
H1A H 0.7872 0.3894 -0.0503
H2A H 0.6412 0.2348 0.0433
loop_
_geom_bond_atom_site_label_1
_geom_bond_atom_site_label_2
_geom_bond_site_symmetry_1
_geom_bond_site_symmetry_2
S1 C1 1_555 1_555
C1 H1 1_555 1_555
H2 C1 1_555 1_555
O1 S1 1_555 1_555
C2 S1 1_555 1_555
H3 C2 1_555 1_555
H4 C2 1_555 1_555
C3 C2 1_555 1_555
H5 C3 1_555 1_555
H6 C3 1_555 1_555
H7 C3 1_555 1_555
C1A C1 1_555 1_555
S1A C1A 1_555 1_555
O1A S1A 1_555 1_555
C2A S1A 1_555 1_555
H3A C2A 1_555 1_555
H4A C2A 1_555 1_555
C3A C2A 1_555 1_555
H5A C3A 1_555 1_555
H6A C3A 1_555 1_555
H7A C3A 1_555 1_555
H1A C1A 1_555 1_555
H2A C1A 1_555 1_555

#END
