
#######################################################################
#
#                 Cambridge Crystallographic Data Centre
#                                CCDC 
#
#######################################################################
#
# If this CIF has been generated from an entry in the Cambridge 
# Structural Database, then it will include bibliographic, chemical, 
# crystal, experimental, refinement or atomic coordinate data resulting 
# from the CCDC's data processing and validation procedures.
#
#######################################################################

data_IQOYUK
_chemical_formula_moiety         'C38 H42 O9'
_chemical_name_systematic        
(2S,3R,4R)-4-(benzyloxymethyl)-2-((2S,3R,4S,5R)-2,3,5-tris(benzyloxy)tetrahydro-2H-pyran-4-yloxy)tetrahydrofuran-3,4-diol
_symmetry_cell_setting           monoclinic
_symmetry_space_group_name_H-M   'P 21'
_symmetry_Int_Tables_number      4
_space_group_name_Hall           'P 2yb'
loop_
_symmetry_equiv_pos_site_id
_symmetry_equiv_pos_as_xyz
1 x,y,z
2 -x,1/2+y,-z
_cell_length_a                   10.4562(12)
_cell_length_b                   18.3598(19)
_cell_length_c                   17.047(2)
_cell_angle_alpha                90
_cell_angle_beta                 92.827(6)
_cell_angle_gamma                90
_cell_volume                     3268.59
_exptl_crystal_colour            colorless
_exptl_crystal_description       plate
_cell_formula_units_Z            4
loop_
_atom_site_label
_atom_site_type_symbol
_atom_site_fract_x
_atom_site_fract_y
_atom_site_fract_z
O1 O 1.1716(4) 0.6186(2) 0.5287(2)
O2 O 1.2080(4) 0.51270(19) 0.6030(2)
O3 O 1.0630(4) 0.5931(2) 0.7747(2)
O4 O 0.9161(4) 0.58697(19) 0.5068(2)
O5 O 0.8506(4) 0.5776(2) 0.6673(2)
O6 O 0.8014(4) 0.6971(2) 0.7014(2)
O7 O 0.5431(4) 0.6113(2) 0.6084(2)
H1 H 0.5137 0.6534 0.6003
O8 O 0.5282(4) 0.7256(2) 0.7066(3)
H2 H 0.5731 0.7481 0.6750
O9 O 0.5777(4) 0.5701(2) 0.8305(2)
C1 C 1.2836(5) 0.6227(3) 0.4822(3)
H3 H 1.3467 0.5859 0.5016
H4 H 1.3233 0.6714 0.4893
C2 C 1.2529(6) 0.6100(3) 0.3957(3)
C3 C 1.3522(6) 0.5986(3) 0.3468(4)
H5 H 1.4380 0.5990 0.3679
C4 C 1.3280(6) 0.5868(3) 0.2671(4)
H6 H 1.3970 0.5796 0.2337
C5 C 1.2026(7) 0.5855(3) 0.2364(4)
H7 H 1.1857 0.5762 0.1820
C6 C 1.1027(6) 0.5977(3) 0.2842(4)
H8 H 1.0171 0.5977 0.2629
C7 C 1.1278(6) 0.6102(3) 0.3644(3)
H9 H 1.0589 0.6188 0.3975
C8 C 1.1310(5) 0.5470(3) 0.5420(4)
H10 H 1.1365 0.5183 0.4925
C9 C 0.9924(5) 0.5492(3) 0.5651(3)
H11 H 0.9601 0.4981 0.5691
C10 C 0.9792(5) 0.5870(3) 0.6434(3)
H12 H 0.9992 0.6400 0.6385
C11 C 1.0692(6) 0.5520(3) 0.7045(3)
H13 H 1.0402 0.5010 0.7143
C12 C 1.2043(5) 0.5504(3) 0.6763(3)
H14 H 1.2356 0.6009 0.6699
H15 H 1.2616 0.5258 0.7159
C13 C 1.0874(6) 0.5520(4) 0.8442(4)
H16 H 1.1807 0.5445 0.8529
H17 H 1.0462 0.5036 0.8384
C14 C 1.0361(6) 0.5909(3) 0.9140(3)
C15 C 1.0037(6) 0.6632(3) 0.9137(4)
H18 H 1.0109 0.6912 0.8673
C16 C 0.9611(7) 0.6954(4) 0.9801(4)
H19 H 0.9395 0.7457 0.9791
C17 C 0.9492(6) 0.6562(4) 1.0479(4)
H20 H 0.9200 0.6790 1.0938
C18 C 0.9801(6) 0.5836(4) 1.0484(4)
H21 H 0.9719 0.5557 1.0948
C19 C 1.0225(6) 0.5513(4) 0.9824(4)
H22 H 1.0430 0.5009 0.9833
C20 C 0.8397(6) 0.5405(3) 0.4568(3)
H23 H 0.7734 0.5163 0.4871
H24 H 0.8937 0.5026 0.4338
C21 C 0.7776(6) 0.5873(3) 0.3926(4)
C22 C 0.7596(6) 0.5594(3) 0.3179(4)
H25 H 0.7850 0.5109 0.3071
C23 C 0.7042(7) 0.6023(4) 0.2583(4)
H26 H 0.6916 0.5829 0.2069
C24 C 0.6675(6) 0.6727(3) 0.2731(4)
H27 H 0.6305 0.7019 0.2319
C25 C 0.6848(6) 0.7006(3) 0.3483(4)
H28 H 0.6600 0.7493 0.3589
C26 C 0.7381(6) 0.6577(3) 0.4079(4)
H29 H 0.7478 0.6766 0.4597
C27 C 0.7670(5) 0.6377(3) 0.6510(4)
H30 H 0.7672 0.6523 0.5945
C28 C 0.6337(5) 0.6128(3) 0.6734(3)
H31 H 0.6410 0.5626 0.6959
C29 C 0.5987(5) 0.6649(3) 0.7383(4)
C30 C 0.7308(6) 0.6872(3) 0.7707(4)
H32 H 0.7269 0.7330 0.8012
H33 H 0.7697 0.6486 0.8047
C31 C 0.5152(6) 0.6332(3) 0.7986(4)
H34 H 0.5020 0.6691 0.8407
H35 H 0.4306 0.6199 0.7741
C32 C 0.5066(6) 0.5352(3) 0.8891(4)
H36 H 0.5505 0.4893 0.9047
H37 H 0.4209 0.5223 0.8659
C33 C 0.4901(6) 0.5806(3) 0.9613(3)
C34 C 0.3703(6) 0.5929(4) 0.9889(4)
H38 H 0.2974 0.5708 0.9634
C35 C 0.3550(7) 0.6374(4) 1.0537(4)
H39 H 0.2723 0.6459 1.0724
C36 C 0.4610(7) 0.6688(4) 1.0905(4)
H40 H 0.4517 0.6992 1.1350
C37 C 0.5805(7) 0.6566(4) 1.0629(4)
H41 H 0.6531 0.6789 1.0885
C38 C 0.5969(6) 0.6125(4) 0.9990(4)
H42 H 0.6800 0.6039 0.9808
O10 O 1.0381(3) 0.39108(19) 0.3801(2)
O11 O 1.1020(3) 0.2901(2) 0.4562(2)
O12 O 0.8945(4) 0.3423(2) 0.6138(2)
O13 O 0.8100(3) 0.32495(19) 0.3337(2)
O14 O 0.7109(3) 0.30764(19) 0.4914(2)
O15 O 0.6222(4) 0.4073(2) 0.4246(2)
O16 O 0.3887(3) 0.2939(2) 0.4295(2)
H43 H 0.3169 0.2959 0.4494
O17 O 0.3172(3) 0.4108(2) 0.5072(3)
H44 H 0.2952 0.4267 0.5507
O18 O 0.4451(4) 0.3794(2) 0.6453(2)
C39 C 1.1505(5) 0.4109(3) 0.3393(3)
H45 H 1.2238 0.3812 0.3596
H46 H 1.1711 0.4627 0.3501
C40 C 1.1332(6) 0.4001(3) 0.2516(4)
C41 C 1.2414(6) 0.3905(3) 0.2081(4)
H47 H 1.3237 0.3880 0.2342
C42 C 1.2297(8) 0.3848(4) 0.1281(4)
H48 H 1.3041 0.3792 0.0989
C43 C 1.1106(8) 0.3869(4) 0.0893(4)
H49 H 1.1030 0.3827 0.0338
C44 C 1.0016(7) 0.3952(4) 0.1324(4)
H50 H 0.9192 0.3956 0.1063
C45 C 1.0140(6) 0.4029(3) 0.2140(3)
H51 H 0.9402 0.4100 0.2434
C46 C 1.0267(5) 0.3148(3) 0.3892(3)
H52 H 1.0563 0.2900 0.3412
C47 C 0.8856(5) 0.2967(3) 0.3989(3)
H53 H 0.8749 0.2426 0.4010
C48 C 0.8381(5) 0.3302(3) 0.4744(3)
H54 H 0.8411 0.3845 0.4706
C49 C 0.9245(5) 0.3054(3) 0.5422(3)
H55 H 0.9146 0.2516 0.5494
C50 C 1.0624(5) 0.3226(3) 0.5285(3)
H56 H 1.0737 0.3761 0.5260
H57 H 1.1173 0.3040 0.5731
C51 C 0.8253(6) 0.2993(3) 0.6661(3)
H58 H 0.8680 0.2515 0.6735
H59 H 0.7377 0.2907 0.6433
C52 C 0.8181(5) 0.3368(3) 0.7439(3)
C53 C 0.8122(5) 0.4124(3) 0.7502(4)
H60 H 0.8139 0.4417 0.7044
C54 C 0.8039(6) 0.4448(3) 0.8228(4)
H61 H 0.7993 0.4963 0.8267
C55 C 0.8021(6) 0.4030(4) 0.8894(4)
H62 H 0.7967 0.4257 0.9392
C56 C 0.8081(6) 0.3276(4) 0.8843(4)
H63 H 0.8065 0.2985 0.9303
C57 C 0.8163(6) 0.2955(4) 0.8113(4)
H64 H 0.8207 0.2439 0.8076
C58 C 0.7891(6) 0.2750(3) 0.2706(3)
H65 H 0.7409 0.2321 0.2884
H66 H 0.8721 0.2580 0.2519
C59 C 0.7137(5) 0.3133(3) 0.2049(4)
C60 C 0.6996(6) 0.2798(3) 0.1323(4)
H67 H 0.7365 0.2331 0.1249
C61 C 0.6325(6) 0.3134(4) 0.0703(4)
H68 H 0.6233 0.2898 0.0207
C62 C 0.5789(6) 0.3814(4) 0.0805(4)
H69 H 0.5343 0.4051 0.0379
C63 C 0.5907(6) 0.4146(4) 0.1536(4)
H70 H 0.5532 0.4611 0.1612
C64 C 0.6568(6) 0.3806(3) 0.2154(4)
H71 H 0.6633 0.4035 0.2654
C65 C 0.6075(5) 0.3319(3) 0.4400(3)
H72 H 0.6033 0.3032 0.3901
C66 C 0.4853(5) 0.3223(3) 0.4844(3)
H73 H 0.4994 0.2895 0.5308
C67 C 0.4522(5) 0.4008(3) 0.5096(4)
C68 C 0.5114(6) 0.4469(3) 0.4459(4)
H74 H 0.4504 0.4528 0.4000
H75 H 0.5355 0.4957 0.4664
C69 C 0.5128(6) 0.4202(3) 0.5887(3)
H76 H 0.6047 0.4070 0.5915
H77 H 0.5050 0.4731 0.5986
C70 C 0.4803(6) 0.3975(4) 0.7243(4)
H78 H 0.4924 0.4508 0.7293
H79 H 0.5621 0.3733 0.7404
C71 C 0.3769(6) 0.3729(3) 0.7763(4)
C72 C 0.2491(5) 0.3716(3) 0.7497(4)
H80 H 0.2262 0.3848 0.6970
C73 C 0.1561(6) 0.3515(3) 0.7990(4)
H81 H 0.0694 0.3493 0.7796
C74 C 0.1859(7) 0.3343(4) 0.8757(4)
H82 H 0.1200 0.3215 0.9095
C75 C 0.3120(7) 0.3357(4) 0.9040(4)
H83 H 0.3330 0.3242 0.9575
C76 C 0.4076(7) 0.3539(3) 0.8541(4)
H84 H 0.4946 0.3535 0.8730
loop_
_geom_bond_atom_site_label_1
_geom_bond_atom_site_label_2
_geom_bond_site_symmetry_1
_geom_bond_site_symmetry_2
O1 C1 1_555 1_555
O2 C8 1_555 1_555
O3 C11 1_555 1_555
O4 C9 1_555 1_555
O5 C10 1_555 1_555
O6 C27 1_555 1_555
O7 H1 1_555 1_555
O8 H2 1_555 1_555
O9 C31 1_555 1_555
C1 H3 1_555 1_555
H4 C1 1_555 1_555
C2 C1 1_555 1_555
C3 C2 1_555 1_555
H5 C3 1_555 1_555
C4 C3 1_555 1_555
H6 C4 1_555 1_555
C5 C4 1_555 1_555
H7 C5 1_555 1_555
C6 C5 1_555 1_555
H8 C6 1_555 1_555
C7 C2 1_555 1_555
H9 C7 1_555 1_555
C8 O1 1_555 1_555
H10 C8 1_555 1_555
C9 C8 1_555 1_555
H11 C9 1_555 1_555
C10 C9 1_555 1_555
H12 C10 1_555 1_555
C11 C10 1_555 1_555
H13 C11 1_555 1_555
C12 O2 1_555 1_555
H14 C12 1_555 1_555
H15 C12 1_555 1_555
C13 O3 1_555 1_555
H16 C13 1_555 1_555
H17 C13 1_555 1_555
C14 C13 1_555 1_555
C15 C14 1_555 1_555
H18 C15 1_555 1_555
C16 C15 1_555 1_555
H19 C16 1_555 1_555
C17 C16 1_555 1_555
H20 C17 1_555 1_555
C18 C17 1_555 1_555
H21 C18 1_555 1_555
C19 C14 1_555 1_555
H22 C19 1_555 1_555
C20 O4 1_555 1_555
H23 C20 1_555 1_555
H24 C20 1_555 1_555
C21 C20 1_555 1_555
C22 C21 1_555 1_555
H25 C22 1_555 1_555
C23 C22 1_555 1_555
H26 C23 1_555 1_555
C24 C23 1_555 1_555
H27 C24 1_555 1_555
C25 C24 1_555 1_555
H28 C25 1_555 1_555
C26 C21 1_555 1_555
H29 C26 1_555 1_555
C27 O5 1_555 1_555
H30 C27 1_555 1_555
C28 O7 1_555 1_555
H31 C28 1_555 1_555
C29 O8 1_555 1_555
C30 O6 1_555 1_555
H32 C30 1_555 1_555
H33 C30 1_555 1_555
C31 C29 1_555 1_555
H34 C31 1_555 1_555
H35 C31 1_555 1_555
C32 O9 1_555 1_555
H36 C32 1_555 1_555
H37 C32 1_555 1_555
C33 C32 1_555 1_555
C34 C33 1_555 1_555
H38 C34 1_555 1_555
C35 C34 1_555 1_555
H39 C35 1_555 1_555
C36 C35 1_555 1_555
H40 C36 1_555 1_555
C37 C36 1_555 1_555
H41 C37 1_555 1_555
C38 C33 1_555 1_555
H42 C38 1_555 1_555
O10 C39 1_555 1_555
O11 C46 1_555 1_555
O12 C49 1_555 1_555
O13 C47 1_555 1_555
O14 C48 1_555 1_555
O15 C65 1_555 1_555
O16 H43 1_555 1_555
O17 H44 1_555 1_555
O18 C69 1_555 1_555
C39 H45 1_555 1_555
H46 C39 1_555 1_555
C40 C39 1_555 1_555
C41 C40 1_555 1_555
H47 C41 1_555 1_555
C42 C41 1_555 1_555
H48 C42 1_555 1_555
C43 C42 1_555 1_555
H49 C43 1_555 1_555
C44 C43 1_555 1_555
H50 C44 1_555 1_555
C45 C40 1_555 1_555
H51 C45 1_555 1_555
C46 O10 1_555 1_555
H52 C46 1_555 1_555
C47 C46 1_555 1_555
H53 C47 1_555 1_555
C48 C47 1_555 1_555
H54 C48 1_555 1_555
C49 C48 1_555 1_555
H55 C49 1_555 1_555
C50 O11 1_555 1_555
H56 C50 1_555 1_555
H57 C50 1_555 1_555
C51 O12 1_555 1_555
H58 C51 1_555 1_555
H59 C51 1_555 1_555
C52 C51 1_555 1_555
C53 C52 1_555 1_555
H60 C53 1_555 1_555
C54 C53 1_555 1_555
H61 C54 1_555 1_555
C55 C54 1_555 1_555
H62 C55 1_555 1_555
C56 C55 1_555 1_555
H63 C56 1_555 1_555
C57 C52 1_555 1_555
H64 C57 1_555 1_555
C58 O13 1_555 1_555
H65 C58 1_555 1_555
H66 C58 1_555 1_555
C59 C58 1_555 1_555
C60 C59 1_555 1_555
H67 C60 1_555 1_555
C61 C60 1_555 1_555
H68 C61 1_555 1_555
C62 C61 1_555 1_555
H69 C62 1_555 1_555
C63 C62 1_555 1_555
H70 C63 1_555 1_555
C64 C59 1_555 1_555
H71 C64 1_555 1_555
C65 O14 1_555 1_555
H72 C65 1_555 1_555
C66 O16 1_555 1_555
H73 C66 1_555 1_555
C67 O17 1_555 1_555
C68 O15 1_555 1_555
H74 C68 1_555 1_555
H75 C68 1_555 1_555
C69 C67 1_555 1_555
H76 C69 1_555 1_555
H77 C69 1_555 1_555
C70 O18 1_555 1_555
H78 C70 1_555 1_555
H79 C70 1_555 1_555
C71 C70 1_555 1_555
C72 C71 1_555 1_555
H80 C72 1_555 1_555
C73 C72 1_555 1_555
H81 C73 1_555 1_555
C74 C73 1_555 1_555
H82 C74 1_555 1_555
C75 C74 1_555 1_555
H83 C75 1_555 1_555
C76 C71 1_555 1_555
H84 C76 1_555 1_555
C6 C7 1_555 1_555
C11 C12 1_555 1_555
C18 C19 1_555 1_555
C25 C26 1_555 1_555
C27 C28 1_555 1_555
C28 C29 1_555 1_555
C29 C30 1_555 1_555
C37 C38 1_555 1_555
C44 C45 1_555 1_555
C49 C50 1_555 1_555
C56 C57 1_555 1_555
C63 C64 1_555 1_555
C65 C66 1_555 1_555
C66 C67 1_555 1_555
C67 C68 1_555 1_555
C75 C76 1_555 1_555

#END
