
#######################################################################
#
#                 Cambridge Crystallographic Data Centre
#                                CCDC 
#
#######################################################################
#
# If this CIF has been generated from an entry in the Cambridge 
# Structural Database, then it will include bibliographic, chemical, 
# crystal, experimental, refinement or atomic coordinate data resulting 
# from the CCDC's data processing and validation procedures.
#
#######################################################################

data_IQUFUX01
_chemical_formula_moiety         'C28 H22 O4'
_chemical_name_systematic        
2-(methoxymethoxy)-6-(4-(6-(methoxymethoxy)-2-naphthyl)buta-1,3-diyn-1-yl)naphthalene
_symmetry_cell_setting           monoclinic
_symmetry_space_group_name_H-M   'P 21/c'
_symmetry_Int_Tables_number      14
_space_group_name_Hall           '-P 2ybc'
loop_
_symmetry_equiv_pos_site_id
_symmetry_equiv_pos_as_xyz
1 x,y,z
2 -x,1/2+y,1/2-z
3 -x,-y,-z
4 x,1/2-y,1/2+z
_cell_length_a                   23.5045(8)
_cell_length_b                   7.5538(4)
_cell_length_c                   11.9195(5)
_cell_angle_alpha                90
_cell_angle_beta                 95.974(2)
_cell_angle_gamma                90
_cell_volume                     2104.79
_exptl_crystal_colour            colorless
_exptl_crystal_description       platelet
_cell_formula_units_Z            4
loop_
_atom_site_label
_atom_site_type_symbol
_atom_site_fract_x
_atom_site_fract_y
_atom_site_fract_z
O1 O 0.32338(4) 0.82700(15) 0.38487(9)
O2 O 0.31146(4) 0.57299(15) 0.49450(8)
O3 O 1.15049(4) 0.87071(15) 0.40527(8)
O4 O 1.16399(4) 0.95067(15) 0.21944(8)
C1 C 0.70676(6) 0.8448(2) 0.37070(12)
C2 C 0.65576(6) 0.8459(2) 0.37686(12)
C3 C 0.59657(6) 0.8351(2) 0.39394(12)
C4 C 0.58163(6) 0.7436(2) 0.49103(12)
H1 H 0.6109 0.6963 0.5436
C5 C 0.52585(6) 0.7235(2) 0.50922(12)
H2 H 0.5166 0.6632 0.5749
C6 C 0.48107(6) 0.7913(2) 0.43138(11)
C7 C 0.49583(6) 0.8851(2) 0.33535(12)
C8 C 0.55404(6) 0.9073(2) 0.31870(12)
H3 H 0.5641 0.9723 0.2554
C9 C 0.42303(6) 0.7660(2) 0.44900(12)
H4 H 0.4133 0.7011 0.5125
C10 C 0.38097(6) 0.8360(2) 0.37365(12)
C11 C 0.39469(6) 0.9284(2) 0.27659(12)
H5 H 0.3650 0.9737 0.2243
C12 C 0.45056(6) 0.9526(2) 0.25813(12)
H6 H 0.4594 1.0151 0.1930
C13 C 0.30646(6) 0.7564(2) 0.48718(13)
H7 H 0.3303 0.8104 0.5516
H8 H 0.2662 0.7898 0.4935
C14 C 0.27185(6) 0.4829(2) 0.41514(13)
H9 H 0.2328 0.5192 0.4261
H10 H 0.2758 0.3548 0.4265
H11 H 0.2798 0.5129 0.3383
C15 C 0.76484(6) 0.8456(2) 0.36581(12)
C16 C 0.81580(6) 0.8489(2) 0.36222(12)
C17 C 0.87593(6) 0.8622(2) 0.35337(12)
C18 C 0.91569(6) 0.7850(2) 0.43194(12)
H12 H 0.9031 0.7176 0.4920
C19 C 0.97502(6) 0.8056(2) 0.42382(11)
C20 C 0.99360(6) 0.9050(2) 0.33337(12)
C21 C 0.95187(6) 0.9803(2) 0.25244(11)
H13 H 0.9638 1.0448 0.1906
C22 C 0.89499(6) 0.9609(2) 0.26248(12)
H14 H 0.8677 1.0138 0.2083
C23 C 1.01714(6) 0.7316(2) 0.50477(11)
H15 H 1.0055 0.6654 0.5662
C24 C 1.07395(6) 0.7546(2) 0.49534(12)
H16 H 1.1016 0.7034 0.5496
C25 C 1.09191(6) 0.8547(2) 0.40457(12)
C26 C 1.05290(6) 0.9282(2) 0.32458(11)
H17 H 1.0654 0.9941 0.2638
C27 C 1.17030(6) 1.0014(2) 0.33223(12)
H18 H 1.1489 1.1127 0.3404
H19 H 1.2112 1.0256 0.3556
C28 C 1.20944(6) 0.8418(2) 0.18877(13)
H20 H 1.2450 0.9106 0.1940
H21 H 1.2003 0.7997 0.1112
H22 H 1.2143 0.7401 0.2400
loop_
_geom_bond_atom_site_label_1
_geom_bond_atom_site_label_2
_geom_bond_site_symmetry_1
_geom_bond_site_symmetry_2
O1 C10 1_555 1_555
O2 C13 1_555 1_555
O3 C25 1_555 1_555
O4 C27 1_555 1_555
C1 C2 1_555 1_555
C2 C3 1_555 1_555
C3 C4 1_555 1_555
C4 H1 1_555 1_555
C5 C4 1_555 1_555
H2 C5 1_555 1_555
C6 C5 1_555 1_555
C7 C6 1_555 1_555
C8 C3 1_555 1_555
H3 C8 1_555 1_555
C9 C6 1_555 1_555
H4 C9 1_555 1_555
C10 C9 1_555 1_555
C11 C10 1_555 1_555
H5 C11 1_555 1_555
C12 C7 1_555 1_555
H6 C12 1_555 1_555
C13 O1 1_555 1_555
H7 C13 1_555 1_555
H8 C13 1_555 1_555
C14 O2 1_555 1_555
H9 C14 1_555 1_555
H10 C14 1_555 1_555
H11 C14 1_555 1_555
C15 C1 1_555 1_555
C16 C15 1_555 1_555
C17 C16 1_555 1_555
C18 C17 1_555 1_555
H12 C18 1_555 1_555
C19 C18 1_555 1_555
C20 C19 1_555 1_555
C21 C20 1_555 1_555
H13 C21 1_555 1_555
C22 C17 1_555 1_555
H14 C22 1_555 1_555
C23 C19 1_555 1_555
H15 C23 1_555 1_555
C24 C23 1_555 1_555
H16 C24 1_555 1_555
C25 C24 1_555 1_555
C26 C20 1_555 1_555
H17 C26 1_555 1_555
C27 O3 1_555 1_555
H18 C27 1_555 1_555
H19 C27 1_555 1_555
C28 O4 1_555 1_555
H20 C28 1_555 1_555
H21 C28 1_555 1_555
H22 C28 1_555 1_555
C7 C8 1_555 1_555
C11 C12 1_555 1_555
C21 C22 1_555 1_555
C25 C26 1_555 1_555

#END
