
#######################################################################
#
#                 Cambridge Crystallographic Data Centre
#                                CCDC 
#
#######################################################################
#
# If this CIF has been generated from an entry in the Cambridge 
# Structural Database, then it will include bibliographic, chemical, 
# crystal, experimental, refinement or atomic coordinate data resulting 
# from the CCDC's data processing and validation procedures.
#
#######################################################################

data_IQUGEI
_chemical_formula_moiety         'C24 H14 O2,2(C2 H3 N1)'
_chemical_name_systematic        
'6-(4-(6-hydroxy-2-naphthyl)buta-1,3-diyn-1-yl)-2-naphthol acetonitrile solvate'
_symmetry_cell_setting           monoclinic
_symmetry_space_group_name_H-M   'P 21/c'
_symmetry_Int_Tables_number      14
_space_group_name_Hall           '-P 2ybc'
loop_
_symmetry_equiv_pos_site_id
_symmetry_equiv_pos_as_xyz
1 x,y,z
2 -x,1/2+y,1/2-z
3 -x,-y,-z
4 x,1/2-y,1/2+z
_cell_length_a                   8.4221(7)
_cell_length_b                   5.8083(4)
_cell_length_c                   22.2617(19)
_cell_angle_alpha                90
_cell_angle_beta                 94.622(7)
_cell_angle_gamma                90
_cell_volume                     1085.46
_exptl_crystal_colour            colorless
_exptl_crystal_description       platelet
_cell_formula_units_Z            2
loop_
_atom_site_label
_atom_site_type_symbol
_atom_site_fract_x
_atom_site_fract_y
_atom_site_fract_z
O1 O 0.0348(2) 0.7723(3) 0.59291(7)
H1 H 0.066(3) 0.627(5) 0.5804(12)
C1 C 0.2248(3) 0.9566(3) 0.76417(9)
C2 C 0.2729(2) 0.7442(3) 0.73930(9)
C3 C 0.2818(3) 1.0152(3) 0.82374(10)
H2 H 0.2500 1.1567 0.8405
C4 C 0.3828(3) 0.8703(3) 0.85803(10)
C5 C 0.2114(3) 0.6824(3) 0.68063(10)
H3 H 0.2435 0.5421 0.6634
C6 C 0.1195(3) 1.1009(3) 0.72883(10)
H4 H 0.0897 1.2454 0.7445
C7 C 0.3782(3) 0.6002(3) 0.77498(10)
H5 H 0.4115 0.4584 0.7588
C8 C 0.1052(3) 0.8243(3) 0.64838(10)
C9 C 0.4325(3) 0.6609(3) 0.83187(10)
H6 H 0.5047 0.5624 0.8546
C10 C 0.0604(3) 1.0366(3) 0.67302(10)
H7 H -0.0118 1.1348 0.6502
C11 C 0.4768(3) 0.9753(3) 0.97027(11)
C12 C 0.4357(3) 0.9298(3) 0.91853(11)
O1B O 0.9652(2) 1.2277(3) 1.40709(7)
H1B H 0.934(3) 1.373(5) 1.4196(12)
C1B C 0.7752(3) 1.0434(3) 1.23583(9)
C2B C 0.7271(2) 1.2558(3) 1.26070(9)
C3B C 0.7182(3) 0.9848(3) 1.17626(10)
H2B H 0.7500 0.8433 1.1595
C4B C 0.6172(3) 1.1297(3) 1.14197(10)
C5B C 0.7886(3) 1.3176(3) 1.31937(10)
H3B H 0.7565 1.4579 1.3366
C6B C 0.8805(3) 0.8991(3) 1.27117(10)
H4B H 0.9103 0.7546 1.2555
C7B C 0.6218(3) 1.3998(3) 1.22502(10)
H5B H 0.5885 1.5416 1.2412
C8B C 0.8948(3) 1.1757(3) 1.35162(10)
C9B C 0.5675(3) 1.3391(3) 1.16813(10)
H6B H 0.4953 1.4376 1.1454
C10B C 0.9396(3) 0.9634(3) 1.32698(10)
H7B H 1.0118 0.8652 1.3498
C11B C 0.5232(3) 1.0247(3) 1.02973(11)
C12B C 0.5643(3) 1.0702(3) 1.08147(11)
N1 N 0.1245(3) 0.3455(3) 0.54775(9)
C13 C 0.1798(3) 0.1949(4) 0.52400(11)
C14 C 0.2512(3) 0.0036(4) 0.49391(12)
H8 H 0.3104 0.0622 0.4610
H9 H 0.1672 -0.1012 0.4776
H10 H 0.3240 -0.0794 0.5229
loop_
_geom_bond_atom_site_label_1
_geom_bond_atom_site_label_2
_geom_bond_site_symmetry_1
_geom_bond_site_symmetry_2
O1 H1 1_555 1_555
C1 C2 1_555 1_555
C2 C5 1_555 1_555
C3 C1 1_555 1_555
H2 C3 1_555 1_555
C4 C3 1_555 1_555
C5 H3 1_555 1_555
C6 C1 1_555 1_555
H4 C6 1_555 1_555
C7 C2 1_555 1_555
H5 C7 1_555 1_555
C8 O1 1_555 1_555
C9 C4 1_555 1_555
H6 C9 1_555 1_555
C10 C6 1_555 1_555
H7 C10 1_555 1_555
C11 C12 1_555 1_555
C12 C4 1_555 1_555
N1 C13 1_555 1_555
C13 C14 1_555 1_555
C14 H8 1_555 1_555
H9 C14 1_555 1_555
H10 C14 1_555 1_555
O1B H1B 1_555 1_555
C1B C2B 1_555 1_555
C2B C5B 1_555 1_555
C3B C1B 1_555 1_555
H2B C3B 1_555 1_555
C4B C3B 1_555 1_555
C5B H3B 1_555 1_555
C6B C1B 1_555 1_555
H4B C6B 1_555 1_555
C7B C2B 1_555 1_555
H5B C7B 1_555 1_555
C8B O1B 1_555 1_555
C9B C4B 1_555 1_555
H6B C9B 1_555 1_555
C10B C6B 1_555 1_555
H7B C10B 1_555 1_555
C11B C11 1_555 1_555
C12B C4B 1_555 1_555
C5 C8 1_555 1_555
C7 C9 1_555 1_555
C8 C10 1_555 1_555
C5B C8B 1_555 1_555
C7B C9B 1_555 1_555
C8B C10B 1_555 1_555
C11B C12B 1_555 1_555

#END
