
#######################################################################
#
#                 Cambridge Crystallographic Data Centre
#                                CCDC 
#
#######################################################################
#
# If this CIF has been generated from an entry in the Cambridge 
# Structural Database, then it will include bibliographic, chemical, 
# crystal, experimental, refinement or atomic coordinate data resulting 
# from the CCDC's data processing and validation procedures.
#
#######################################################################

data_IQUGAE
_chemical_formula_moiety         'C30 H26 O2'
_chemical_name_systematic        
2-propoxy-6-(4-(6-propoxy-2-naphthyl)buta-1,3-diyn-1-yl)naphthalene
_symmetry_cell_setting           triclinic
_symmetry_space_group_name_H-M   'P -1'
_symmetry_Int_Tables_number      2
_space_group_name_Hall           '-P 1'
loop_
_symmetry_equiv_pos_site_id
_symmetry_equiv_pos_as_xyz
1 x,y,z
2 -x,-y,-z
_cell_length_a                   9.0451(4)
_cell_length_b                   11.4053(5)
_cell_length_c                   11.4820(5)
_cell_angle_alpha                72.975(3)
_cell_angle_beta                 77.123(4)
_cell_angle_gamma                77.328(3)
_cell_volume                     1088.92
_exptl_crystal_colour            colorless
_exptl_crystal_description       platelet
_cell_formula_units_Z            2
loop_
_atom_site_label
_atom_site_type_symbol
_atom_site_fract_x
_atom_site_fract_y
_atom_site_fract_z
O1 O -0.48637(13) 0.80420(11) 1.03604(11)
O2 O 1.62549(13) 0.19484(11) 0.41481(11)
C1 C -0.7190(2) 0.97731(17) 1.26545(17)
H1 H -0.6845 0.9214 1.3406
H2 H -0.8301 1.0057 1.2829
H3 H -0.6655 1.0492 1.2378
C2 C -0.6832(2) 0.90830(16) 1.16438(17)
H4 H -0.7370 0.8355 1.1924
H5 H -0.7212 0.9639 1.0893
C3 C -0.5126(2) 0.86537(17) 1.13375(16)
H6 H -0.4576 0.9374 1.1069
H7 H -0.4741 0.8072 1.2075
C4 C -0.33790(19) 0.75467(15) 0.99648(16)
C5 C -0.3224(2) 0.69347(15) 0.90188(16)
H8 H -0.4112 0.6879 0.8738
C6 C -0.18083(19) 0.64295(15) 0.85144(15)
H9 H -0.1718 0.6027 0.7879
C7 C -0.04589(19) 0.64921(15) 0.89205(15)
C8 C -0.06254(19) 0.70917(15) 0.98816(15)
C9 C -0.2107(2) 0.76145(15) 1.03947(15)
H10 H -0.2223 0.8013 1.1037
C10 C 0.0727(2) 0.71387(16) 1.02908(15)
H11 H 0.0640 0.7544 1.0923
C11 C 0.2149(2) 0.66160(16) 0.97977(15)
H12 H 0.3030 0.6650 1.0100
C12 C 0.23206(19) 0.60195(15) 0.88322(15)
C13 C 0.10174(19) 0.59755(15) 0.84148(15)
H13 H 0.1123 0.5585 0.7768
C14 C 0.3792(2) 0.54739(16) 0.82988(15)
C15 C 0.50210(19) 0.50078(15) 0.78128(15)
C16 C 0.64025(19) 0.44925(15) 0.72418(15)
C17 C 0.7615(2) 0.40516(15) 0.67142(15)
C18 C 0.90829(19) 0.35658(15) 0.61134(15)
C19 C 0.9219(2) 0.28322(16) 0.52668(16)
H14 H 0.8320 0.2661 0.5094
C20 C 1.0631(2) 0.23760(16) 0.47050(16)
H15 H 1.0698 0.1885 0.4149
C21 C 1.20031(19) 0.26143(15) 0.49278(15)
C22 C 1.18711(19) 0.33691(16) 0.57500(15)
C23 C 1.04093(19) 0.38203(15) 0.63347(15)
H16 H 1.0328 0.4311 0.6894
C24 C 1.3240(2) 0.36436(16) 0.59535(16)
H17 H 1.3170 0.4159 0.6487
C25 C 1.4652(2) 0.31768(16) 0.53935(16)
H18 H 1.5554 0.3378 0.5530
C26 C 1.47719(19) 0.23912(16) 0.46078(15)
C27 C 1.3480(2) 0.21259(15) 0.43682(15)
H19 H 1.3575 0.1614 0.3826
C28 C 1.64802(19) 0.11466(16) 0.33432(16)
H20 H 1.6053 0.1602 0.2582
H21 H 1.5949 0.0424 0.3760
C29 C 1.8183(2) 0.07149(17) 0.30249(17)
H22 H 1.8600 0.0260 0.3791
H23 H 1.8706 0.1445 0.2625
C30 C 1.8504(2) -0.01338(18) 0.21545(18)
H24 H 1.8002 -0.0864 0.2558
H25 H 1.9615 -0.0401 0.1955
H26 H 1.8099 0.0320 0.1393
loop_
_geom_bond_atom_site_label_1
_geom_bond_atom_site_label_2
_geom_bond_site_symmetry_1
_geom_bond_site_symmetry_2
O1 C3 1_555 1_555
O2 C26 1_555 1_555
C1 H1 1_555 1_555
H2 C1 1_555 1_555
H3 C1 1_555 1_555
C2 C1 1_555 1_555
H4 C2 1_555 1_555
H5 C2 1_555 1_555
C3 C2 1_555 1_555
H6 C3 1_555 1_555
H7 C3 1_555 1_555
C4 O1 1_555 1_555
C5 C4 1_555 1_555
H8 C5 1_555 1_555
C6 C5 1_555 1_555
H9 C6 1_555 1_555
C7 C6 1_555 1_555
C8 C7 1_555 1_555
C9 C4 1_555 1_555
H10 C9 1_555 1_555
C10 C8 1_555 1_555
H11 C10 1_555 1_555
C11 C10 1_555 1_555
H12 C11 1_555 1_555
C12 C11 1_555 1_555
C13 C7 1_555 1_555
H13 C13 1_555 1_555
C14 C12 1_555 1_555
C15 C14 1_555 1_555
C16 C15 1_555 1_555
C17 C16 1_555 1_555
C18 C17 1_555 1_555
C19 C18 1_555 1_555
H14 C19 1_555 1_555
C20 C19 1_555 1_555
H15 C20 1_555 1_555
C21 C20 1_555 1_555
C22 C21 1_555 1_555
C23 C18 1_555 1_555
H16 C23 1_555 1_555
C24 C22 1_555 1_555
H17 C24 1_555 1_555
C25 C24 1_555 1_555
H18 C25 1_555 1_555
C26 C25 1_555 1_555
C27 C21 1_555 1_555
H19 C27 1_555 1_555
C28 O2 1_555 1_555
H20 C28 1_555 1_555
H21 C28 1_555 1_555
C29 C28 1_555 1_555
H22 C29 1_555 1_555
H23 C29 1_555 1_555
C30 C29 1_555 1_555
H24 C30 1_555 1_555
H25 C30 1_555 1_555
H26 C30 1_555 1_555
C8 C9 1_555 1_555
C12 C13 1_555 1_555
C22 C23 1_555 1_555
C26 C27 1_555 1_555

#END
