
#######################################################################
#
#                 Cambridge Crystallographic Data Centre
#                                CCDC 
#
#######################################################################
#
# If this CIF has been generated from an entry in the Cambridge 
# Structural Database, then it will include bibliographic, chemical, 
# crystal, experimental, refinement or atomic coordinate data resulting 
# from the CCDC's data processing and validation procedures.
#
#######################################################################

data_IQUHEH
_chemical_formula_moiety         'C20 H22 N6 O2'
_chemical_name_systematic        
N,N'-Di-m-tolyl-3,6-dimethyl-1,4-dihydro-s-tetrazine-1,4-dicarboxamide
_symmetry_cell_setting           orthorhombic
_symmetry_space_group_name_H-M   'P 21 21 21'
_symmetry_Int_Tables_number      19
_space_group_name_Hall           'P 2ac 2ab'
loop_
_symmetry_equiv_pos_site_id
_symmetry_equiv_pos_as_xyz
1 x,y,z
2 1/2-x,-y,1/2+z
3 1/2+x,1/2-y,-z
4 -x,1/2+y,1/2-z
_cell_length_a                   6.91
_cell_length_b                   9.50
_cell_length_c                   30.28
_cell_angle_alpha                90
_cell_angle_beta                 90
_cell_angle_gamma                90
_cell_volume                     1987.73
_chemical_melting_point          '137-138 deg.C'
_cell_formula_units_Z            4
loop_
_atom_site_label
_atom_site_type_symbol
_atom_site_fract_x
_atom_site_fract_y
_atom_site_fract_z
N1 N 0.4374(8) 0.4186(4) 1.0123(2)
N2 N 0.5286(8) 0.5496(4) 1.0013(2)
N3 N 0.2865(8) 0.5472(5) 0.9493(2)
N4 N 0.3075(7) 0.3979(5) 0.9428(2)
N5 N 0.0219(7) 0.5338(5) 0.9022(2)
N6 N 0.5439(8) 0.4612(4) 1.0826(1)
O1 O 0.1500(7) 0.7457(4) 0.9226(1)
O2 O 0.3954(7) 0.2541(4) 1.0653(1)
C1 C 0.4436(10) 0.6113(6) 0.9699(2)
C2 C 0.3837(9) 0.3374(5) 0.9758(2)
C3 C 0.5237(11) 0.7515(6) 0.9552(2)
C4 C 0.4233(10) 0.1830(6) 0.9729(2)
C5 C 0.1510(10) 0.6150(6) 0.9235(2)
C6 C -0.1298(9) 0.5782(6) 0.8756(2)
C7 C -0.2851(11) 0.4910(7) 0.8680(2)
C8 C -0.4394(10) 0.5281(7) 0.8415(2)
C9 C -0.4385(12) 0.6614(8) 0.8229(2)
C10 C -0.2855(12) 0.7493(7) 0.8294(2)
C11 C -0.1306(11) 0.7116(6) 0.8551(2)
C12 C -0.5945(12) 0.4260(8) 0.8305(3)
C13 C 0.4584(9) 0.3705(5) 1.0548(2)
C14 C 0.5837(10) 0.4374(5) 1.1280(2)
C15 C 0.4579(12) 0.3685(7) 1.1549(2)
C16 C 0.4935(15) 0.3493(8) 1.1998(2)
C17 C 0.6638(16) 0.4057(8) 1.2162(2)
C18 C 0.7884(12) 0.4743(8) 1.1898(2)
C19 C 0.7518(11) 0.4919(6) 1.1451(2)
C20 C 0.3511(19) 0.2736(12) 1.2280(3)
loop_
_geom_bond_atom_site_label_1
_geom_bond_atom_site_label_2
_geom_bond_site_symmetry_1
_geom_bond_site_symmetry_2
N1 N2 1_555 1_555
N2 C1 1_555 1_555
N3 N4 1_555 1_555
N4 C2 1_555 1_555
N5 C5 1_555 1_555
N6 C13 1_555 1_555
O1 C5 1_555 1_555
O2 C13 1_555 1_555
C1 N3 1_555 1_555
C2 N1 1_555 1_555
C3 C1 1_555 1_555
C4 C2 1_555 1_555
C5 N3 1_555 1_555
C6 N5 1_555 1_555
C7 C6 1_555 1_555
C8 C7 1_555 1_555
C9 C8 1_555 1_555
C10 C9 1_555 1_555
C11 C6 1_555 1_555
C12 C8 1_555 1_555
C13 N1 1_555 1_555
C14 N6 1_555 1_555
C15 C14 1_555 1_555
C16 C15 1_555 1_555
C17 C16 1_555 1_555
C18 C17 1_555 1_555
C19 C14 1_555 1_555
C20 C16 1_555 1_555
C10 C11 1_555 1_555
C18 C19 1_555 1_555

#END
