
#######################################################################
#
#                 Cambridge Crystallographic Data Centre
#                                CCDC 
#
#######################################################################
#
# If this CIF has been generated from an entry in the Cambridge 
# Structural Database, then it will include bibliographic, chemical, 
# crystal, experimental, refinement or atomic coordinate data resulting 
# from the CCDC's data processing and validation procedures.
#
#######################################################################

data_IQULIQ
_chemical_formula_moiety         'C12 H16 Cl3 N1 O1 S1'
_chemical_name_systematic        
2-Methyl-N-(2,2,2-trichloro-1-phenylethyl)propane-2-sulfinamide
_symmetry_cell_setting           orthorhombic
_symmetry_space_group_name_H-M   'P 21 21 2'
_symmetry_Int_Tables_number      18
_space_group_name_Hall           'P 2 2ab'
loop_
_symmetry_equiv_pos_site_id
_symmetry_equiv_pos_as_xyz
1 x,y,z
2 -x,-y,z
3 1/2-x,1/2+y,-z
4 1/2+x,1/2-y,-z
_cell_length_a                   15.2886(12)
_cell_length_b                   9.4504(8)
_cell_length_c                   10.8606(9)
_cell_angle_alpha                90
_cell_angle_beta                 90
_cell_angle_gamma                90
_cell_volume                     1569.18
_exptl_crystal_colour            colorless
_exptl_crystal_description       prismatic
_cell_formula_units_Z            4
loop_
_atom_site_label
_atom_site_type_symbol
_atom_site_fract_x
_atom_site_fract_y
_atom_site_fract_z
S1 S 0.87417(5) 0.06477(7) 1.03638(6)
Cl1 Cl 0.88894(4) 0.41470(6) 0.75956(8)
Cl2 Cl 1.02644(4) 0.23454(8) 0.84705(8)
Cl3 Cl 0.96540(6) 0.20595(10) 0.59954(7)
N1 N 0.83849(14) 0.1657(2) 0.92245(19)
O1 O 0.81559(19) -0.0557(2) 1.0577(2)
C1 C 0.86444(15) 0.1313(2) 0.7972(2)
H1 H 0.8944 0.0397 0.8000
C2 C 0.93212(15) 0.2423(3) 0.7525(3)
C3 C 0.78747(16) 0.1156(2) 0.7103(2)
C4 C 0.78922(19) 0.0104(3) 0.6204(2)
H2 H 0.8377 -0.0486 0.6142
C5 C 0.7200(2) -0.0073(4) 0.5409(3)
H3 H 0.7224 -0.0775 0.4810
C6 C 0.6478(2) 0.0777(4) 0.5493(3)
H4 H 0.6007 0.0643 0.4963
C7 C 0.64515(19) 0.1828(4) 0.6364(3)
H5 H 0.5966 0.2418 0.6411
C8 C 0.71446(17) 0.2018(3) 0.7177(3)
H6 H 0.7117 0.2725 0.7772
C9 C 0.85230(19) 0.1895(3) 1.1630(2)
C10 C 0.7549(2) 0.2191(4) 1.1694(3)
H7 H 0.7412 0.2625 1.2470
H8 H 0.7232 0.1318 1.1618
H9 H 0.7386 0.2816 1.1036
C11 C 0.8817(3) 0.1114(5) 1.2782(3)
H10 H 0.9442 0.1014 1.2772
H11 H 0.8551 0.0194 1.2802
H12 H 0.8644 0.1639 1.3497
C12 C 0.9037(3) 0.3234(4) 1.1435(4)
H13 H 0.8946 0.3859 1.2120
H14 H 0.8844 0.3687 1.0692
H15 H 0.9647 0.3011 1.1368
H16 H 0.7948(14) 0.210(3) 0.936(3)
loop_
_geom_bond_atom_site_label_1
_geom_bond_atom_site_label_2
_geom_bond_site_symmetry_1
_geom_bond_site_symmetry_2
S1 N1 1_555 1_555
Cl1 C2 1_555 1_555
Cl2 C2 1_555 1_555
Cl3 C2 1_555 1_555
N1 C1 1_555 1_555
O1 S1 1_555 1_555
C1 H1 1_555 1_555
C2 C1 1_555 1_555
C3 C1 1_555 1_555
C4 C3 1_555 1_555
H2 C4 1_555 1_555
C5 C4 1_555 1_555
H3 C5 1_555 1_555
C6 C5 1_555 1_555
H4 C6 1_555 1_555
C7 C6 1_555 1_555
H5 C7 1_555 1_555
C8 C3 1_555 1_555
H6 C8 1_555 1_555
C9 S1 1_555 1_555
C10 C9 1_555 1_555
H7 C10 1_555 1_555
H8 C10 1_555 1_555
H9 C10 1_555 1_555
C11 C9 1_555 1_555
H10 C11 1_555 1_555
H11 C11 1_555 1_555
H12 C11 1_555 1_555
C12 C9 1_555 1_555
H13 C12 1_555 1_555
H14 C12 1_555 1_555
H15 C12 1_555 1_555
H16 N1 1_555 1_555
C7 C8 1_555 1_555

#END
