
#######################################################################
#
#                 Cambridge Crystallographic Data Centre
#                                CCDC 
#
#######################################################################
#
# If this CIF has been generated from an entry in the Cambridge 
# Structural Database, then it will include bibliographic, chemical, 
# crystal, experimental, refinement or atomic coordinate data resulting 
# from the CCDC's data processing and validation procedures.
#
#######################################################################

data_IQUMAJ
_chemical_compound_source        'Aspergillus puniceus F02Z-1744'
_chemical_name_common            'Oxepinamide E chloroform solvate'
_chemical_formula_moiety         'C22 H23 N3 O4,C1 H1 Cl3'
_chemical_name_systematic        
"(8S,5R,1'R)-8-benzyl-11-(1'-methylpropyl)-5a-hydroxy-5a,8,9,10-tetrahydro-6H-oxepine[2',3':2,3]pyrazino[1,2-a]pyrimidine-6,9-dione chloroform solvate"
_chemical_properties_biological  'LXR agonist'
_symmetry_cell_setting           orthorhombic
_symmetry_space_group_name_H-M   'P 21 21 21'
_symmetry_Int_Tables_number      19
_space_group_name_Hall           'P 2ac 2ab'
loop_
_symmetry_equiv_pos_site_id
_symmetry_equiv_pos_as_xyz
1 x,y,z
2 1/2-x,-y,1/2+z
3 -x,1/2+y,1/2-z
4 1/2+x,1/2-y,-z
_cell_length_a                   9.1594(6)
_cell_length_b                   14.9849(9)
_cell_length_c                   18.1521(10)
_cell_angle_alpha                90
_cell_angle_beta                 90
_cell_angle_gamma                90
_cell_volume                     2491.42
_exptl_crystal_colour            colorless
_exptl_crystal_description       block
_chemical_melting_point          '163-164 deg.C'
_cell_formula_units_Z            4
_exptl_crystal_recrystallization_method chloroform
loop_
_atom_site_label
_atom_site_type_symbol
_atom_site_fract_x
_atom_site_fract_y
_atom_site_fract_z
O1 O -0.8217(3) 0.08351(16) -0.69435(14)
O2 O -1.2981(4) -0.14384(18) -0.97211(15)
O3 O -1.1457(3) -0.26389(15) -0.88838(12)
H1 H -1.1576 -0.3074 -0.8617
O4 O -1.0176(3) -0.20700(16) -0.75789(14)
N1 N -0.9808(3) 0.10979(17) -0.78669(14)
H2 H -0.9759 0.1661 -0.7780
N2 N -1.1851(3) -0.03667(19) -0.90977(15)
N3 N -1.0297(3) -0.06887(17) -0.80600(13)
C1 C -0.9050(4) -0.0426(2) -0.75913(17)
H3 H -0.9195 -0.0718 -0.7114
C2 C -0.9002(4) 0.0559(2) -0.74440(17)
C3 C -1.0726(4) 0.0819(2) -0.84401(16)
C4 C -1.0965(4) -0.0062(2) -0.85393(16)
C5 C -1.2267(4) -0.1178(2) -0.90995(18)
C6 C -1.4133(5) -0.2022(3) -0.9720(3)
H4 H -1.4464 -0.2189 -1.0184
C7 C -1.4847(5) -0.2385(3) -0.9163(3)
H5 H -1.5626 -0.2753 -0.9288
C8 C -1.4574(5) -0.2284(3) -0.8395(3)
H6 H -1.5351 -0.2407 -0.8082
C9 C -1.3330(4) -0.2032(2) -0.8073(2)
H7 H -1.3303 -0.1959 -0.7565
C10 C -1.1968(4) -0.1863(2) -0.85203(18)
C11 C -1.0738(4) -0.1542(2) -0.80109(17)
C12 C -0.7584(4) -0.0774(2) -0.7898(2)
H8 H -0.6818 -0.0623 -0.7550
H9 H -0.7632 -0.1420 -0.7926
C13 C -0.7155(4) -0.0417(3) -0.8651(2)
C14 C -0.6191(5) 0.0267(4) -0.8716(3)
H10 H -0.5829 0.0547 -0.8297
C15 C -0.5739(7) 0.0550(5) -0.9421(4)
H11 H -0.5065 0.1010 -0.9469
C16 C -0.6290(7) 0.0148(5) -1.0028(3)
H12 H -0.5996 0.0339 -1.0492
C17 C -0.7268(7) -0.0529(4) -0.9969(3)
H13 H -0.7649 -0.0796 -1.0390
C18 C -0.7691(5) -0.0819(3) -0.9282(2)
H14 H -0.8345 -0.1291 -0.9241
C19 C -1.1471(4) 0.1531(2) -0.88801(19)
H15 H -1.1956 0.1240 -0.9297
C20 C -1.0414(5) 0.2224(3) -0.9195(2)
H16 H -1.0965 0.2663 -0.9473
H17 H -0.9939 0.2532 -0.8790
C21 C -0.9270(8) 0.1825(4) -0.9685(3)
H18 H -0.8717 0.2294 -0.9913
H19 H -0.9731 0.1470 -1.0058
H20 H -0.8631 0.1457 -0.9397
C22 C -1.2648(5) 0.1976(3) -0.8415(2)
H21 H -1.3344 0.1536 -0.8258
H22 H -1.3135 0.2424 -0.8702
H23 H -1.2208 0.2248 -0.7991
C23 C -0.6915(6) -0.4956(4) -0.8977(3)
H24 H -0.6891 -0.4810 -0.9503
Cl1 Cl -0.7709(3) -0.59980(16) -0.88864(11)
Cl2 Cl -0.5131(2) -0.49077(19) -0.86476(16)
Cl3 Cl -0.7971(3) -0.41288(19) -0.85282(11)
loop_
_geom_bond_atom_site_label_1
_geom_bond_atom_site_label_2
_geom_bond_site_symmetry_1
_geom_bond_site_symmetry_2
O1 C2 1_555 1_555
O2 C5 1_555 1_555
O3 H1 1_555 1_555
O4 C11 1_555 1_555
N1 H2 1_555 1_555
N2 C4 1_555 1_555
N3 C1 1_555 1_555
C1 H3 1_555 1_555
C2 N1 1_555 1_555
C3 N1 1_555 1_555
C4 N3 1_555 1_555
C5 N2 1_555 1_555
C6 O2 1_555 1_555
H4 C6 1_555 1_555
C7 C6 1_555 1_555
H5 C7 1_555 1_555
C8 C7 1_555 1_555
H6 C8 1_555 1_555
C9 C8 1_555 1_555
H7 C9 1_555 1_555
C10 O3 1_555 1_555
C11 N3 1_555 1_555
C12 C1 1_555 1_555
H8 C12 1_555 1_555
H9 C12 1_555 1_555
C13 C12 1_555 1_555
C14 C13 1_555 1_555
H10 C14 1_555 1_555
C15 C14 1_555 1_555
H11 C15 1_555 1_555
C16 C15 1_555 1_555
H12 C16 1_555 1_555
C17 C16 1_555 1_555
H13 C17 1_555 1_555
C18 C13 1_555 1_555
H14 C18 1_555 1_555
C19 C3 1_555 1_555
H15 C19 1_555 1_555
C20 C19 1_555 1_555
H16 C20 1_555 1_555
H17 C20 1_555 1_555
C21 C20 1_555 1_555
H18 C21 1_555 1_555
H19 C21 1_555 1_555
H20 C21 1_555 1_555
C22 C19 1_555 1_555
H21 C22 1_555 1_555
H22 C22 1_555 1_555
H23 C22 1_555 1_555
C23 H24 1_555 1_555
Cl1 C23 1_555 1_555
Cl2 C23 1_555 1_555
Cl3 C23 1_555 1_555
C1 C2 1_555 1_555
C3 C4 1_555 1_555
C5 C10 1_555 1_555
C9 C10 1_555 1_555
C10 C11 1_555 1_555
C17 C18 1_555 1_555

#END
