
#######################################################################
#
#                 Cambridge Crystallographic Data Centre
#                                CCDC 
#
#######################################################################
#
# If this CIF has been generated from an entry in the Cambridge 
# Structural Database, then it will include bibliographic, chemical, 
# crystal, experimental, refinement or atomic coordinate data resulting 
# from the CCDC's data processing and validation procedures.
#
#######################################################################

data_IQUNOX01
_chemical_compound_source        'roots and rhizomes of Sinodielsia yunnanensis'
_chemical_formula_moiety         'C15 H18 O2'
_chemical_name_systematic        5\a,6\b-H-1(10),3,7(11)-Guaiatrien-12,6-olide
_symmetry_cell_setting           monoclinic
_symmetry_space_group_name_H-M   'P 21'
_symmetry_Int_Tables_number      4
_space_group_name_Hall           'P 2yb'
loop_
_symmetry_equiv_pos_site_id
_symmetry_equiv_pos_as_xyz
1 x,y,z
2 -x,1/2+y,-z
_cell_length_a                   6.5638(7)
_cell_length_b                   18.5331(19)
_cell_length_c                   10.4407(11)
_cell_angle_alpha                90
_cell_angle_beta                 96.309(2)
_cell_angle_gamma                90
_cell_volume                     1262.39
_exptl_crystal_colour            colorless
_exptl_crystal_description       needles
_chemical_melting_point          '91-92 deg.C'
_cell_formula_units_Z            4
_exptl_crystal_recrystallization_method 'ethyl acetate'
loop_
_atom_site_label
_atom_site_type_symbol
_atom_site_fract_x
_atom_site_fract_y
_atom_site_fract_z
O1 O -0.4373(4) 0.56840(12) 0.2285(2)
O2 O -0.1411(3) 0.51733(11) 0.18725(19)
C1 C -0.2797(6) 0.57201(18) 0.1798(3)
C2 C -0.2016(5) 0.63048(16) 0.1036(3)
C3 C -0.0256(5) 0.61046(17) 0.0641(3)
C4 C 0.0299(5) 0.53688(16) 0.1169(3)
C5 C 0.0556(6) 0.47901(15) 0.0128(3)
C6 C 0.2444(5) 0.49384(17) -0.0564(3)
C7 C 0.2718(5) 0.55007(18) -0.1311(3)
C8 C 0.1208(7) 0.6108(2) -0.1477(4)
C9 C 0.1012(8) 0.6515(2) -0.0207(5)
C10 C 0.3970(6) 0.4338(2) -0.0260(4)
C11 C 0.2826(6) 0.3822(2) 0.0473(4)
C12 C 0.0981(6) 0.40453(17) 0.0701(3)
C13 C -0.3217(5) 0.69929(16) 0.0791(3)
H1 H -0.4027 0.6964 -0.0031
H2 H -0.2289 0.7393 0.0792
H3 H -0.4102 0.7060 0.1455
C14 C 0.4595(5) 0.5585(2) -0.1999(3)
H4 H 0.5475 0.5174 -0.1822
H5 H 0.5313 0.6015 -0.1706
H6 H 0.4199 0.5618 -0.2910
C15 C -0.0562(6) 0.36320(18) 0.1360(4)
H7 H -0.0056 0.3154 0.1553
H8 H -0.1826 0.3604 0.0804
H9 H -0.0794 0.3873 0.2145
H19 H 0.174(4) 0.5428(14) 0.177(2)
H20 H -0.075(5) 0.4784(14) -0.054(3)
H21 H -0.022(3) 0.5967(15) -0.180(3)
H22 H 0.165(6) 0.646(2) -0.212(4)
H23 H 0.025(5) 0.696(2) -0.031(3)
H24 H 0.254(6) 0.6555(19) 0.030(3)
H25 H 0.440(4) 0.4089(16) -0.108(3)
H26 H 0.533(6) 0.4517(15) 0.030(3)
H27 H 0.339(5) 0.3397(18) 0.085(3)
O3 O 0.4429(4) 0.75089(14) 0.7303(2)
O4 O 0.7336(4) 0.72111(11) 0.6485(2)
C16 C 0.5777(6) 0.76772(19) 0.6675(3)
C17 C 0.6125(5) 0.83505(17) 0.6006(3)
C18 C 0.7814(5) 0.82868(15) 0.5426(3)
C19 C 0.8734(5) 0.75515(16) 0.5680(3)
C20 C 0.8928(5) 0.70939(16) 0.4474(3)
C21 C 1.0659(5) 0.73865(18) 0.3774(3)
C22 C 1.0725(5) 0.80273(19) 0.3217(3)
C23 C 0.8974(7) 0.8557(2) 0.3244(4)
C24 C 0.8705(7) 0.88377(19) 0.4602(4)
C25 C 1.2352(6) 0.6824(2) 0.3829(4)
C26 C 1.1393(6) 0.6185(2) 0.4405(3)
C27 C 0.9578(6) 0.63175(17) 0.4754(3)
C28 C 0.4672(5) 0.89767(19) 0.6062(4)
H10 H 0.4626 0.9250 0.5278
H11 H 0.5139 0.9281 0.6780
H12 H 0.3327 0.8798 0.6165
C29 C 1.2490(6) 0.8284(2) 0.2546(4)
H13 H 1.2129 0.8263 0.1631
H14 H 1.3659 0.7982 0.2781
H15 H 1.2816 0.8773 0.2797
C30 C 0.8154(6) 0.57813(18) 0.5286(3)
H16 H 0.8792 0.5315 0.5346
H17 H 0.6898 0.5755 0.4723
H18 H 0.7868 0.5934 0.6126
H28 H 1.012(3) 0.7604(13) 0.617(2)
H29 H 0.767(4) 0.7142(13) 0.395(2)
H30 H 0.764(4) 0.8331(14) 0.290(3)
H31 H 0.929(5) 0.8941(17) 0.264(3)
H32 H 0.760(5) 0.9254(18) 0.459(3)
H33 H 1.010(4) 0.898(2) 0.502(3)
H34 H 1.369(4) 0.6996(15) 0.427(3)
H35 H 1.289(4) 0.6665(16) 0.301(2)
H36 H 1.226(5) 0.5720(18) 0.455(3)
loop_
_geom_bond_atom_site_label_1
_geom_bond_atom_site_label_2
_geom_bond_site_symmetry_1
_geom_bond_site_symmetry_2
O1 C1 1_555 1_555
O2 C1 1_555 1_555
O3 C16 1_555 1_555
O4 C16 1_555 1_555
C1 C2 1_555 1_555
C2 C3 1_555 1_555
C3 C4 1_555 1_555
C4 O2 1_555 1_555
C5 C4 1_555 1_555
C6 C5 1_555 1_555
C7 C6 1_555 1_555
C8 C7 1_555 1_555
C9 C3 1_555 1_555
C10 C6 1_555 1_555
C11 C10 1_555 1_555
C12 C5 1_555 1_555
C13 C2 1_555 1_555
H1 C13 1_555 1_555
H2 C13 1_555 1_555
H3 C13 1_555 1_555
C14 C7 1_555 1_555
H4 C14 1_555 1_555
H5 C14 1_555 1_555
H6 C14 1_555 1_555
C15 C12 1_555 1_555
H7 C15 1_555 1_555
H8 C15 1_555 1_555
H9 C15 1_555 1_555
C16 C17 1_555 1_555
C17 C18 1_555 1_555
C18 C19 1_555 1_555
C19 O4 1_555 1_555
C20 C19 1_555 1_555
C21 C20 1_555 1_555
C22 C21 1_555 1_555
C23 C22 1_555 1_555
C24 C18 1_555 1_555
C25 C21 1_555 1_555
C26 C25 1_555 1_555
C27 C20 1_555 1_555
C28 C17 1_555 1_555
H10 C28 1_555 1_555
H11 C28 1_555 1_555
H12 C28 1_555 1_555
C29 C22 1_555 1_555
H13 C29 1_555 1_555
H14 C29 1_555 1_555
H15 C29 1_555 1_555
C30 C27 1_555 1_555
H16 C30 1_555 1_555
H17 C30 1_555 1_555
H18 C30 1_555 1_555
H19 C4 1_555 1_555
H20 C5 1_555 1_555
H21 C8 1_555 1_555
H22 C8 1_555 1_555
H23 C9 1_555 1_555
H24 C9 1_555 1_555
H25 C10 1_555 1_555
H26 C10 1_555 1_555
H27 C11 1_555 1_555
H28 C19 1_555 1_555
H29 C20 1_555 1_555
H30 C23 1_555 1_555
H31 C23 1_555 1_555
H32 C24 1_555 1_555
H33 C24 1_555 1_555
H34 C25 1_555 1_555
H35 C25 1_555 1_555
H36 C26 1_555 1_555
C8 C9 1_555 1_555
C11 C12 1_555 1_555
C23 C24 1_555 1_555
C26 C27 1_555 1_555

#END
