
#######################################################################
#
#                 Cambridge Crystallographic Data Centre
#                                CCDC 
#
#######################################################################
#
# If this CIF has been generated from an entry in the Cambridge 
# Structural Database, then it will include bibliographic, chemical, 
# crystal, experimental, refinement or atomic coordinate data resulting 
# from the CCDC's data processing and validation procedures.
#
#######################################################################

data_IQUPUG01
_chemical_formula_moiety         'C13 H10 O1 S1'
_chemical_name_systematic        3-methoxydibenzo[b,d]thiophene
_symmetry_cell_setting           monoclinic
_symmetry_space_group_name_H-M   'P 21/c'
_symmetry_Int_Tables_number      14
_space_group_name_Hall           '-P 2ybc'
loop_
_symmetry_equiv_pos_site_id
_symmetry_equiv_pos_as_xyz
1 x,y,z
2 -x,1/2+y,1/2-z
3 -x,-y,-z
4 x,1/2-y,1/2+z
_cell_length_a                   13.6637(7)
_cell_length_b                   5.6795(3)
_cell_length_c                   13.4061(7)
_cell_angle_alpha                90
_cell_angle_beta                 96.068(2)
_cell_angle_gamma                90
_cell_volume                     1034.52
_exptl_crystal_colour            colorless
_exptl_crystal_description       block
_cell_formula_units_Z            4
loop_
_atom_site_label
_atom_site_type_symbol
_atom_site_fract_x
_atom_site_fract_y
_atom_site_fract_z
S1 S 0.84778(4) 0.17806(9) 0.89134(4)
O1 O 0.57247(9) 0.4511(2) 0.61570(9)
C1 C 0.65945(14) 0.7031(3) 0.85553(14)
H1 H 0.6446 0.8331 0.8933
C2 C 0.60774(13) 0.6633(3) 0.76393(13)
H2 H 0.5578 0.7664 0.7401
C3 C 0.62915(12) 0.4694(3) 0.70585(12)
C4 C 0.70224(12) 0.3130(3) 0.73955(13)
H3 H 0.7166 0.1835 0.7012
C5 C 0.75405(12) 0.3555(3) 0.83330(12)
C6 C 0.73451(12) 0.5491(3) 0.89248(12)
C7 C 0.79711(12) 0.5536(3) 0.98679(12)
C8 C 0.86213(13) 0.3628(3) 0.99622(13)
C9 C 0.92850(15) 0.3327(4) 1.08108(14)
H4 H 0.9719 0.2061 1.0861
C10 C 0.92858(15) 0.4940(4) 1.15748(14)
H5 H 0.9730 0.4769 1.2146
C11 C 0.86363(15) 0.6814(4) 1.15074(14)
H6 H 0.8639 0.7870 1.2038
C12 C 0.79859(15) 0.7131(3) 1.06629(14)
H7 H 0.7556 0.8406 1.0621
C13 C 0.58814(16) 0.2548(4) 0.55390(15)
H8 H 0.5440 0.2634 0.4934
H9 H 0.5762 0.1121 0.5890
H10 H 0.6549 0.2561 0.5375
loop_
_geom_bond_atom_site_label_1
_geom_bond_atom_site_label_2
_geom_bond_site_symmetry_1
_geom_bond_site_symmetry_2
S1 C5 1_555 1_555
O1 C3 1_555 1_555
C1 H1 1_555 1_555
C2 C1 1_555 1_555
H2 C2 1_555 1_555
C3 C2 1_555 1_555
C4 C3 1_555 1_555
H3 C4 1_555 1_555
C5 C4 1_555 1_555
C6 C1 1_555 1_555
C7 C6 1_555 1_555
C8 S1 1_555 1_555
C9 C8 1_555 1_555
H4 C9 1_555 1_555
C10 C9 1_555 1_555
H5 C10 1_555 1_555
C11 C10 1_555 1_555
H6 C11 1_555 1_555
C12 C7 1_555 1_555
H7 C12 1_555 1_555
C13 O1 1_555 1_555
H8 C13 1_555 1_555
H9 C13 1_555 1_555
H10 C13 1_555 1_555
C5 C6 1_555 1_555
C7 C8 1_555 1_555
C11 C12 1_555 1_555

#END
