
#######################################################################
#
#                 Cambridge Crystallographic Data Centre
#                                CCDC 
#
#######################################################################
#
# If this CIF has been generated from an entry in the Cambridge 
# Structural Database, then it will include bibliographic, chemical, 
# crystal, experimental, refinement or atomic coordinate data resulting 
# from the CCDC's data processing and validation procedures.
#
#######################################################################

data_IQUPAN
_chemical_formula_moiety         'C20 H24 N2 O4 S1'
_chemical_name_systematic        
2-methyl-N-((4-methylphenyl)sulfonyl)-2-(2-phenylethyl)-1,3-oxazolidine-3-carboxamide
_symmetry_cell_setting           monoclinic
_symmetry_space_group_name_H-M   'P 21/c'
_symmetry_Int_Tables_number      14
_space_group_name_Hall           '-P 2ybc'
loop_
_symmetry_equiv_pos_site_id
_symmetry_equiv_pos_as_xyz
1 x,y,z
2 -x,1/2+y,1/2-z
3 -x,-y,-z
4 x,1/2-y,1/2+z
_cell_length_a                   9.3912(19)
_cell_length_b                   19.483(4)
_cell_length_c                   10.837(2)
_cell_angle_alpha                90
_cell_angle_beta                 102.78(3)
_cell_angle_gamma                90
_cell_volume                     1933.71
_exptl_crystal_colour            colorless
_exptl_crystal_description       block
_cell_formula_units_Z            4
loop_
_atom_site_label
_atom_site_type_symbol
_atom_site_fract_x
_atom_site_fract_y
_atom_site_fract_z
C1 C 0.29707(16) 0.70599(8) 0.55799(14)
C2 C 0.37518(18) 0.72775(8) 0.47039(15)
H1 H 0.4104 0.6961 0.4201
C3 C 0.39986(18) 0.79739(8) 0.45910(15)
H2 H 0.4525 0.8122 0.4008
C4 C 0.34777(17) 0.84547(8) 0.53293(14)
C5 C 0.27007(19) 0.82228(8) 0.62049(15)
H3 H 0.2348 0.8539 0.6707
C6 C 0.24450(18) 0.75310(8) 0.63397(15)
H4 H 0.1929 0.7382 0.6930
C7 C 0.3743(2) 0.92106(8) 0.51908(16)
H5 H 0.4475 0.9366 0.5900
H6 H 0.2853 0.9459 0.5160
H7 H 0.4071 0.9289 0.4424
C8 C 0.01261(16) 0.62898(7) 0.39697(14)
C9 C -0.21757(17) 0.58835(8) 0.45396(15)
H8 H -0.2245 0.6187 0.5233
H9 H -0.1768 0.5447 0.4875
C10 C -0.36363(17) 0.57934(8) 0.36305(16)
H10 H -0.3676 0.5362 0.3178
H11 H -0.4428 0.5807 0.4073
C11 C -0.23051(16) 0.64461(8) 0.25133(14)
C12 C -0.21459(19) 0.60099(8) 0.13856(15)
H12 H -0.2406 0.5544 0.1519
H13 H -0.1152 0.6027 0.1295
H14 H -0.2779 0.6184 0.0632
C13 C -0.21096(18) 0.72068(8) 0.22692(14)
H15 H -0.2908 0.7357 0.1594
H16 H -0.1211 0.7268 0.1981
C14 C -0.2060(2) 0.76647(8) 0.34284(16)
H17 H -0.2950 0.7602 0.3729
H18 H -0.1245 0.7527 0.4100
C15 C -0.18982(18) 0.84113(8) 0.31283(14)
C16 C -0.05219(19) 0.87074(9) 0.32949(17)
H19 H 0.0305 0.8441 0.3591
C17 C -0.0367(2) 0.93957(10) 0.30251(18)
H20 H 0.0560 0.9588 0.3143
C18 C -0.1581(2) 0.97954(9) 0.25831(17)
H21 H -0.1477 1.0259 0.2419
C19 C -0.2952(2) 0.95056(9) 0.23852(16)
H22 H -0.3773 0.9772 0.2067
C20 C -0.31115(18) 0.88195(9) 0.26580(15)
H23 H -0.4041 0.8629 0.2525
N1 N 0.08372(14) 0.60809(7) 0.51996(12)
H24 H 0.0335(19) 0.6016(10) 0.5794(14)
N2 N -0.13266(13) 0.61923(6) 0.37029(11)
O1 O 0.28369(13) 0.60055(6) 0.70398(11)
O2 O 0.33671(12) 0.58001(6) 0.49388(11)
O3 O 0.08192(12) 0.65287(6) 0.32435(10)
O4 O -0.37152(11) 0.63643(6) 0.27852(11)
S1 S 0.26230(4) 0.618306(19) 0.57274(4)
loop_
_geom_bond_atom_site_label_1
_geom_bond_atom_site_label_2
_geom_bond_site_symmetry_1
_geom_bond_site_symmetry_2
C1 C2 1_555 1_555
C2 H1 1_555 1_555
C3 C2 1_555 1_555
H2 C3 1_555 1_555
C4 C3 1_555 1_555
C5 C4 1_555 1_555
H3 C5 1_555 1_555
C6 C1 1_555 1_555
H4 C6 1_555 1_555
C7 C4 1_555 1_555
H5 C7 1_555 1_555
H6 C7 1_555 1_555
H7 C7 1_555 1_555
C8 N1 1_555 1_555
C9 H8 1_555 1_555
H9 C9 1_555 1_555
C10 C9 1_555 1_555
H10 C10 1_555 1_555
H11 C10 1_555 1_555
C11 C12 1_555 1_555
C12 H12 1_555 1_555
H13 C12 1_555 1_555
H14 C12 1_555 1_555
C13 C11 1_555 1_555
H15 C13 1_555 1_555
H16 C13 1_555 1_555
C14 C13 1_555 1_555
H17 C14 1_555 1_555
H18 C14 1_555 1_555
C15 C14 1_555 1_555
C16 C15 1_555 1_555
H19 C16 1_555 1_555
C17 C16 1_555 1_555
H20 C17 1_555 1_555
C18 C17 1_555 1_555
H21 C18 1_555 1_555
C19 C18 1_555 1_555
H22 C19 1_555 1_555
C20 C15 1_555 1_555
H23 C20 1_555 1_555
N1 H24 1_555 1_555
N2 C8 1_555 1_555
O1 S1 1_555 1_555
O2 S1 1_555 1_555
O3 C8 1_555 1_555
O4 C10 1_555 1_555
S1 C1 1_555 1_555
C5 C6 1_555 1_555
C9 N2 1_555 1_555
C11 N2 1_555 1_555
C11 O4 1_555 1_555
C19 C20 1_555 1_555
N1 S1 1_555 1_555

#END
