
#######################################################################
#
#                 Cambridge Crystallographic Data Centre
#                                CCDC 
#
#######################################################################
#
# If this CIF has been generated from an entry in the Cambridge 
# Structural Database, then it will include bibliographic, chemical, 
# crystal, experimental, refinement or atomic coordinate data resulting 
# from the CCDC's data processing and validation procedures.
#
#######################################################################

data_IQUTIZ
_chemical_name_common            '( )-kravanhin C'
_chemical_formula_moiety         'C20 H26 O4'
_chemical_name_systematic        
(3aS,3bS,5aR,9aS,9bR)-3b,6,6,9a-tetramethyl-5a,6,8,9,9a,9b,10,11-octahydrophenanthro[1,2-b]furan-2,4,7(3aH,3bH,5H)-trione
_symmetry_cell_setting           monoclinic
_symmetry_space_group_name_H-M   'P 21'
_symmetry_Int_Tables_number      4
_space_group_name_Hall           'P 2yb'
loop_
_symmetry_equiv_pos_site_id
_symmetry_equiv_pos_as_xyz
1 x,y,z
2 -x,1/2+y,-z
_cell_length_a                   6.8954(7)
_cell_length_b                   8.3092(7)
_cell_length_c                   14.9569(13)
_cell_angle_alpha                90
_cell_angle_beta                 90.349(9)
_cell_angle_gamma                90
_cell_volume                     856.944
_exptl_crystal_colour            colorless
_exptl_crystal_description       block
_chemical_melting_point          '457-459 K'
_cell_formula_units_Z            2
loop_
_atom_site_label
_atom_site_type_symbol
_atom_site_fract_x
_atom_site_fract_y
_atom_site_fract_z
O1 O 0.6905(5) 0.8550(4) 0.9979(2)
O2 O 0.7907(4) 0.1892(4) 0.7017(2)
O3 O 0.4092(4) 0.0914(3) 0.61805(19)
O4 O 0.1639(5) -0.0698(4) 0.5754(2)
C1 C 0.6438(6) 0.6174(5) 0.7548(3)
C2 C 0.5699(7) 0.7902(5) 0.7749(3)
H1 H 0.5594 0.8496 0.7193
H2 H 0.4415 0.7838 0.8008
C3 C 0.7055(7) 0.8821(5) 0.8397(3)
H3 H 0.8311 0.8964 0.8120
H4 H 0.6518 0.9878 0.8515
C4 C 0.7300(6) 0.7924(5) 0.9264(3)
C5 C 0.8009(6) 0.6181(5) 0.9196(3)
C6 C 0.6773(6) 0.5297(5) 0.8456(3)
H5 H 0.5479 0.5177 0.8715
C7 C 0.7502(6) 0.3557(5) 0.8306(3)
H6 H 0.8907 0.3551 0.8342
H7 H 0.7020 0.2880 0.8784
C8 C 0.6885(6) 0.2844(5) 0.7420(3)
C9 C 0.4896(5) 0.3352(5) 0.7077(3)
C10 C 0.4762(6) 0.5257(5) 0.7035(3)
H8 H 0.3563 0.5542 0.7345
C11 C 0.4506(6) 0.5888(5) 0.6064(3)
H9 H 0.4362 0.7049 0.6077
H10 H 0.5660 0.5637 0.5724
C12 C 0.2736(6) 0.5143(5) 0.5600(3)
H11 H 0.1560 0.5588 0.5852
H12 H 0.2757 0.5403 0.4968
C13 C 0.2745(6) 0.3365(5) 0.5717(3)
C14 C 0.4521(6) 0.2632(5) 0.6141(3)
H13 H 0.5650 0.2816 0.5760
C15 C 0.1463(6) 0.2225(6) 0.5549(3)
H14 H 0.0242 0.2389 0.5298
C16 C 0.2254(7) 0.0666(6) 0.5817(3)
C17 C 1.0234(6) 0.6284(6) 0.9022(3)
H15 H 1.0480 0.7082 0.8572
H16 H 1.0697 0.5258 0.8820
H17 H 1.0893 0.6576 0.9565
C18 C 0.7715(8) 0.5333(5) 1.0090(3)
H18 H 0.8283 0.4279 1.0066
H19 H 0.6352 0.5240 1.0207
H20 H 0.8324 0.5945 1.0557
C19 C 0.8287(6) 0.6238(5) 0.6971(3)
H21 H 0.8046 0.6884 0.6450
H22 H 0.8636 0.5168 0.6792
H23 H 0.9329 0.6702 0.7313
C20 C 0.3361(6) 0.2681(5) 0.7733(3)
H24 H 0.2086 0.2864 0.7493
H25 H 0.3486 0.3217 0.8299
H26 H 0.3562 0.1547 0.7813
loop_
_geom_bond_atom_site_label_1
_geom_bond_atom_site_label_2
_geom_bond_site_symmetry_1
_geom_bond_site_symmetry_2
O1 C4 1_555 1_555
O2 C8 1_555 1_555
O3 C14 1_555 1_555
O4 C16 1_555 1_555
C1 C2 1_555 1_555
C2 H1 1_555 1_555
H2 C2 1_555 1_555
C3 C2 1_555 1_555
H3 C3 1_555 1_555
H4 C3 1_555 1_555
C4 C3 1_555 1_555
C5 C4 1_555 1_555
C6 C1 1_555 1_555
H5 C6 1_555 1_555
C7 C6 1_555 1_555
H6 C7 1_555 1_555
H7 C7 1_555 1_555
C8 C7 1_555 1_555
C9 C8 1_555 1_555
C10 C1 1_555 1_555
H8 C10 1_555 1_555
C11 C10 1_555 1_555
H9 C11 1_555 1_555
H10 C11 1_555 1_555
C12 C11 1_555 1_555
H11 C12 1_555 1_555
H12 C12 1_555 1_555
C13 C12 1_555 1_555
C14 C9 1_555 1_555
H13 C14 1_555 1_555
C15 C13 1_555 1_555
H14 C15 1_555 1_555
C16 O3 1_555 1_555
C17 C5 1_555 1_555
H15 C17 1_555 1_555
H16 C17 1_555 1_555
H17 C17 1_555 1_555
C18 C5 1_555 1_555
H18 C18 1_555 1_555
H19 C18 1_555 1_555
H20 C18 1_555 1_555
C19 C1 1_555 1_555
H21 C19 1_555 1_555
H22 C19 1_555 1_555
H23 C19 1_555 1_555
C20 C9 1_555 1_555
H24 C20 1_555 1_555
H25 C20 1_555 1_555
H26 C20 1_555 1_555
C5 C6 1_555 1_555
C9 C10 1_555 1_555
C13 C14 1_555 1_555
C15 C16 1_555 1_555

#END
