
#######################################################################
#
#                 Cambridge Crystallographic Data Centre
#                                CCDC 
#
#######################################################################
#
# If this CIF has been generated from an entry in the Cambridge 
# Structural Database, then it will include bibliographic, chemical, 
# crystal, experimental, refinement or atomic coordinate data resulting 
# from the CCDC's data processing and validation procedures.
#
#######################################################################

data_IQUWEX
_chemical_formula_moiety         'C36 H28 Cl2 N6 O4,2(C1 H1 Cl3)'
_chemical_name_systematic        
'10,26-Dichloro-2,2,18,18-tetramethyl-7,13,23,29-tetraoxa-9,11,25,27,35,40-hexaazaheptacyclo[28.2.2.2^3,6^.2^14,17^.2^19,22^.1^8,12^.1^24,28^]dotetraconta-1(32),3,5,8(40),9,11,14,16,19,21,24(35),25,27,30,33,36,38,41-octadecaene chloroform solvate'
_symmetry_cell_setting           monoclinic
_symmetry_space_group_name_H-M   'P 21/n'
_symmetry_Int_Tables_number      14
_space_group_name_Hall           '-P 2yn'
loop_
_symmetry_equiv_pos_site_id
_symmetry_equiv_pos_as_xyz
1 x,y,z
2 1/2-x,1/2+y,1/2-z
3 -x,-y,-z
4 1/2+x,1/2-y,1/2+z
_cell_length_a                   20.306(3)
_cell_length_b                   10.1760(13)
_cell_length_c                   20.828(3)
_cell_angle_alpha                90
_cell_angle_beta                 104.112(2)
_cell_angle_gamma                90
_cell_volume                     4173.89
_exptl_crystal_colour            colorless
_exptl_crystal_description       block
_cell_formula_units_Z            4
loop_
_atom_site_label
_atom_site_type_symbol
_atom_site_fract_x
_atom_site_fract_y
_atom_site_fract_z
C1 C 0.6242(2) 0.2743(4) 0.9567(2)
C2 C 0.6803(2) 0.3509(5) 0.9637(2)
H1 H 0.7169 0.3419 1.0018
C3 C 0.6842(2) 0.4418(5) 0.9154(2)
H2 H 0.7237 0.4947 0.9208
C4 C 0.6318(2) 0.4571(4) 0.8596(2)
C5 C 0.5755(2) 0.3773(5) 0.8542(2)
H3 H 0.5388 0.3857 0.8162
C6 C 0.5706(2) 0.2858(5) 0.9019(2)
H4 H 0.5314 0.2323 0.8969
C7 C 0.6328(2) 0.5590(4) 0.8053(2)
C8 C 0.7048(3) 0.6158(6) 0.8118(3)
H5 H 0.7365 0.5439 0.8100
H6 H 0.7196 0.6621 0.8541
H7 H 0.7040 0.6771 0.7753
C9 C 0.5857(3) 0.6733(5) 0.8137(3)
H8 H 0.5877 0.7423 0.7814
H9 H 0.6006 0.7091 0.8586
H10 H 0.5390 0.6410 0.8064
C10 C 0.6098(2) 0.4933(4) 0.7371(2)
C11 C 0.6383(2) 0.3739(5) 0.7257(2)
H11 H 0.6716 0.3337 0.7601
C12 C 0.6186(2) 0.3134(5) 0.6646(2)
H12 H 0.6379 0.2314 0.6573
C13 C 0.5711(2) 0.3718(5) 0.6148(2)
C14 C 0.5439(2) 0.4915(5) 0.6232(2)
H13 H 0.5126 0.5332 0.5878
C15 C 0.5634(2) 0.5506(4) 0.6850(2)
H14 H 0.5441 0.6330 0.6917
C16 C 0.4920(2) 0.2576(4) 0.5323(2)
C17 C 0.4220(3) 0.1400(5) 0.4570(2)
C18 C 0.3875(2) 0.2207(4) 0.5408(2)
C19 C 0.33793(19) 0.3110(4) 0.6256(2)
C20 C 0.3902(2) 0.3088(4) 0.6822(2)
H15 H 0.4306 0.2608 0.6835
C21 C 0.38213(19) 0.3784(4) 0.7370(2)
H16 H 0.4183 0.3787 0.7758
C22 C 0.32332(19) 0.4476(4) 0.73753(19)
C23 C 0.2717(2) 0.4459(4) 0.6795(2)
H17 H 0.2307 0.4920 0.6781
C24 C 0.2790(2) 0.3788(4) 0.6242(2)
H18 H 0.2433 0.3793 0.5851
C25 C 0.3178(2) 0.5253(4) 0.7988(2)
C26 C 0.3575(2) 0.6547(4) 0.7993(2)
H19 H 0.3516 0.7101 0.8360
H20 H 0.3402 0.7012 0.7574
H21 H 0.4058 0.6352 0.8048
C27 C 0.2442(2) 0.5599(4) 0.7984(2)
H22 H 0.2167 0.4796 0.7926
H23 H 0.2259 0.6207 0.7619
H24 H 0.2429 0.6016 0.8405
C28 C 0.34580(18) 0.4427(4) 0.86129(19)
C29 C 0.3930(2) 0.4880(4) 0.9167(2)
H25 H 0.4110 0.5740 0.9162
C30 C 0.4145(2) 0.4117(4) 0.9724(2)
H26 H 0.4462 0.4452 1.0102
C31 C 0.3894(2) 0.2864(4) 0.97261(19)
C32 C 0.3416(2) 0.2379(4) 0.9198(2)
H27 H 0.3237 0.1520 0.9211
C33 C 0.3200(2) 0.3165(4) 0.8646(2)
H28 H 0.2867 0.2837 0.8279
C34 C 0.4733(2) 0.1613(4) 1.0464(2)
C35 C 0.5786(2) 0.1475(4) 1.0345(2)
C36 C 0.5490(2) 0.0418(4) 1.1153(2)
Cl1 Cl 0.57087(6) -0.05730(12) 1.18475(6)
Cl2 Cl 0.40583(8) 0.05030(18) 0.38412(8)
N1 N 0.4831(2) 0.1899(4) 0.47563(19)
N2 N 0.37164(19) 0.1485(4) 0.48563(19)
N3 N 0.44625(17) 0.2767(3) 0.56689(17)
N4 N 0.51708(16) 0.1973(3) 1.01193(16)
N5 N 0.59839(17) 0.0671(3) 1.08643(17)
N6 N 0.48546(18) 0.0827(3) 1.09945(17)
O1 O 0.62855(14) 0.1769(3) 1.00607(15)
O2 O 0.55375(15) 0.3080(3) 0.55248(15)
O3 O 0.33596(14) 0.2341(3) 0.56907(15)
O4 O 0.40956(14) 0.2041(3) 1.02892(14)
C37 C 0.3837(3) 0.8158(5) 0.5849(3)
H29 H 0.4157 0.8176 0.5552
Cl3 Cl 0.37643(12) 0.65510(18) 0.61034(12)
Cl4 Cl 0.41536(12) 0.9177(3) 0.65265(13)
Cl5 Cl 0.30447(11) 0.8714(2) 0.54060(12)
C38 C 0.2621(7) 0.9745(13) 0.1294(6)
H30 H 0.2282 1.0281 0.1458
Cl6 Cl 0.3289(3) 0.9963(7) 0.2006(3)
Cl7 Cl 0.2662(5) 1.0732(7) 0.0689(3)
Cl8 Cl 0.2207(3) 0.8413(5) 0.1235(4)
Cl9? Cl 0.3398(4) 0.9852(10) 0.1519(14)
Cl10? Cl 0.2199(11) 1.0275(13) 0.0469(6)
Cl11? Cl 0.2191(5) 0.8406(10) 0.1439(5)
loop_
_geom_bond_atom_site_label_1
_geom_bond_atom_site_label_2
_geom_bond_site_symmetry_1
_geom_bond_site_symmetry_2
C1 C2 1_555 1_555
C2 H1 1_555 1_555
C3 C2 1_555 1_555
H2 C3 1_555 1_555
C4 C3 1_555 1_555
C5 C4 1_555 1_555
H3 C5 1_555 1_555
C6 C1 1_555 1_555
H4 C6 1_555 1_555
C7 C4 1_555 1_555
C8 C7 1_555 1_555
H5 C8 1_555 1_555
H6 C8 1_555 1_555
H7 C8 1_555 1_555
C9 C7 1_555 1_555
H8 C9 1_555 1_555
H9 C9 1_555 1_555
H10 C9 1_555 1_555
C10 C7 1_555 1_555
C11 C10 1_555 1_555
H11 C11 1_555 1_555
C12 C11 1_555 1_555
H12 C12 1_555 1_555
C13 C12 1_555 1_555
C14 C13 1_555 1_555
H13 C14 1_555 1_555
C15 C10 1_555 1_555
H14 C15 1_555 1_555
C16 N1 1_555 1_555
C17 Cl2 1_555 1_555
C18 N2 1_555 1_555
C19 C20 1_555 1_555
C20 H15 1_555 1_555
C21 C20 1_555 1_555
H16 C21 1_555 1_555
C22 C21 1_555 1_555
C23 C22 1_555 1_555
H17 C23 1_555 1_555
C24 C19 1_555 1_555
H18 C24 1_555 1_555
C25 C22 1_555 1_555
C26 C25 1_555 1_555
H19 C26 1_555 1_555
H20 C26 1_555 1_555
H21 C26 1_555 1_555
C27 C25 1_555 1_555
H22 C27 1_555 1_555
H23 C27 1_555 1_555
H24 C27 1_555 1_555
C28 C25 1_555 1_555
C29 C28 1_555 1_555
H25 C29 1_555 1_555
C30 C29 1_555 1_555
H26 C30 1_555 1_555
C31 C30 1_555 1_555
C32 C31 1_555 1_555
H27 C32 1_555 1_555
C33 C28 1_555 1_555
H28 C33 1_555 1_555
C34 N4 1_555 1_555
C35 N4 1_555 1_555
C36 Cl1 1_555 1_555
N1 C17 1_555 1_555
N2 C17 1_555 1_555
N3 C16 1_555 1_555
N5 C35 1_555 1_555
N6 C34 1_555 1_555
O1 C1 1_555 1_555
O2 C13 1_555 1_555
O3 C18 1_555 1_555
O4 C31 1_555 1_555
C37 H29 1_555 1_555
Cl3 C37 1_555 1_555
Cl4 C37 1_555 1_555
Cl5 C37 1_555 1_555
C38 H30 1_555 1_555
Cl6 C38 1_555 1_555
Cl7 C38 1_555 1_555
Cl8 C38 1_555 1_555
C5 C6 1_555 1_555
C14 C15 1_555 1_555
C16 O2 1_555 1_555
C18 N3 1_555 1_555
C19 O3 1_555 1_555
C23 C24 1_555 1_555
C32 C33 1_555 1_555
C34 O4 1_555 1_555
C35 O1 1_555 1_555
C36 N5 1_555 1_555
C36 N6 1_555 1_555

#END
