
#######################################################################
#
#                 Cambridge Crystallographic Data Centre
#                                CCDC 
#
#######################################################################
#
# If this CIF has been generated from an entry in the Cambridge 
# Structural Database, then it will include bibliographic, chemical, 
# crystal, experimental, refinement or atomic coordinate data resulting 
# from the CCDC's data processing and validation procedures.
#
#######################################################################

data_IQUYOJ
_chemical_formula_moiety         'C26 H29 B1'
_chemical_name_systematic        Dimesityl(4-vinylphenyl)borane
_symmetry_cell_setting           monoclinic
_symmetry_space_group_name_H-M   'P 21/c'
_symmetry_Int_Tables_number      14
_space_group_name_Hall           '-P 2ybc'
loop_
_symmetry_equiv_pos_site_id
_symmetry_equiv_pos_as_xyz
1 x,y,z
2 -x,1/2+y,1/2-z
3 -x,-y,-z
4 x,1/2-y,1/2+z
_cell_length_a                   11.5315(4)
_cell_length_b                   8.2693(3)
_cell_length_c                   22.9998(7)
_cell_angle_alpha                90
_cell_angle_beta                 98.143(2)
_cell_angle_gamma                90
_cell_volume                     2171.09
_exptl_crystal_colour            colorless
_exptl_crystal_description       plank
_cell_formula_units_Z            4
loop_
_atom_site_label
_atom_site_type_symbol
_atom_site_fract_x
_atom_site_fract_y
_atom_site_fract_z
B1 B 0.70706(16) 0.2131(2) 0.62399(9)
C1 C 0.74899(14) 0.32693(19) 0.67695(7)
C2 C 0.68806(18) 0.3425(2) 0.72484(8)
H1 H 0.6173(17) 0.276(2) 0.7233(7)
C3 C 0.7290(2) 0.4390(2) 0.77262(9)
H2 H 0.6766(18) 0.454(2) 0.8005(10)
C4 C 0.83484(18) 0.5212(2) 0.77517(8)
C5 C 0.89534(19) 0.5082(2) 0.72787(10)
H3 H 0.9733(19) 0.567(2) 0.7290(9)
C6 C 0.85380(17) 0.4157(2) 0.67999(9)
H4 H 0.8998(15) 0.403(2) 0.6478(8)
C7 C 0.8838(3) 0.6216(3) 0.82620(11)
H5 H 0.959(3) 0.684(4) 0.8254(13)
C8 C 0.8391(4) 0.6522(4) 0.87219(15)
H6 H 0.889(2) 0.720(3) 0.9034(12)
H7 H 0.764(3) 0.595(4) 0.8733(14)
C9 C 0.62799(14) 0.06161(19) 0.63353(7)
C10 C 0.51987(15) 0.0343(2) 0.59825(7)
C11 C 0.45621(17) -0.1050(2) 0.60483(9)
H8 H 0.3851(16) -0.121(2) 0.5803(8)
C12 C 0.49495(16) -0.2223(2) 0.64635(8)
C13 C 0.59915(17) -0.1934(2) 0.68193(9)
H9 H 0.6289(16) -0.267(2) 0.7092(8)
C14 C 0.66619(15) -0.05590(19) 0.67672(8)
C15 C 0.4695(2) 0.1589(3) 0.55347(11)
H10 H 0.397(2) 0.119(3) 0.5282(11)
H11 H 0.444(3) 0.244(4) 0.5717(14)
H12 H 0.524(2) 0.206(3) 0.5326(10)
C16 C 0.42633(18) -0.3750(2) 0.65194(10)
H13 H 0.4646 -0.4382 0.6841
H14 H 0.4220 -0.4362 0.6162
H15 H 0.3486 -0.3478 0.6591
C17 C 0.78265(18) -0.0436(2) 0.71641(10)
H16 H 0.7693 -0.0402 0.7567
H17 H 0.8224 0.0531 0.7073
H18 H 0.8300 -0.1361 0.7104
C18 C 0.75239(14) 0.2489(2) 0.56345(7)
C19 C 0.81469(14) 0.1315(2) 0.53591(8)
C20 C 0.86560(16) 0.1725(3) 0.48657(9)
H19 H 0.9080(18) 0.088(2) 0.4677(9)
C21 C 0.85643(16) 0.3244(3) 0.46229(8)
C22 C 0.79230(18) 0.4380(3) 0.48829(9)
H20 H 0.7796(16) 0.550(2) 0.4701(8)
C23 C 0.74038(16) 0.4040(2) 0.53762(8)
C24 C 0.8304(2) -0.0406(3) 0.55882(13)
H21 H 0.8700(18) -0.106(3) 0.5310(9)
H22 H 0.884(2) -0.047(3) 0.5960(12)
H23 H 0.7595(19) -0.096(2) 0.5690(9)
C25 C 0.9151(2) 0.3662(3) 0.40927(10)
H24 H 0.9950 0.3969 0.4220
H25 H 0.8742 0.4545 0.3884
H26 H 0.9132 0.2738 0.3839
C26 C 0.6675(2) 0.5348(2) 0.56057(9)
H27 H 0.7153 0.5957 0.5904
H28 H 0.6037 0.4863 0.5770
H29 H 0.6370 0.6054 0.5289
loop_
_geom_bond_atom_site_label_1
_geom_bond_atom_site_label_2
_geom_bond_site_symmetry_1
_geom_bond_site_symmetry_2
B1 C1 1_555 1_555
C1 C2 1_555 1_555
C2 H1 1_555 1_555
C3 C2 1_555 1_555
H2 C3 1_555 1_555
C4 C3 1_555 1_555
C5 C4 1_555 1_555
H3 C5 1_555 1_555
C6 C1 1_555 1_555
H4 C6 1_555 1_555
C7 C4 1_555 1_555
H5 C7 1_555 1_555
C8 C7 1_555 1_555
H6 C8 1_555 1_555
H7 C8 1_555 1_555
C9 B1 1_555 1_555
C10 C9 1_555 1_555
C11 C10 1_555 1_555
H8 C11 1_555 1_555
C12 C11 1_555 1_555
C13 C12 1_555 1_555
H9 C13 1_555 1_555
C14 C9 1_555 1_555
C15 C10 1_555 1_555
H10 C15 1_555 1_555
H11 C15 1_555 1_555
H12 C15 1_555 1_555
C16 C12 1_555 1_555
H13 C16 1_555 1_555
H14 C16 1_555 1_555
H15 C16 1_555 1_555
C17 C14 1_555 1_555
H16 C17 1_555 1_555
H17 C17 1_555 1_555
H18 C17 1_555 1_555
C18 B1 1_555 1_555
C19 C18 1_555 1_555
C20 C19 1_555 1_555
H19 C20 1_555 1_555
C21 C20 1_555 1_555
C22 C21 1_555 1_555
H20 C22 1_555 1_555
C23 C18 1_555 1_555
C24 C19 1_555 1_555
H21 C24 1_555 1_555
H22 C24 1_555 1_555
H23 C24 1_555 1_555
C25 C21 1_555 1_555
H24 C25 1_555 1_555
H25 C25 1_555 1_555
H26 C25 1_555 1_555
C26 C23 1_555 1_555
H27 C26 1_555 1_555
H28 C26 1_555 1_555
H29 C26 1_555 1_555
C5 C6 1_555 1_555
C13 C14 1_555 1_555
C22 C23 1_555 1_555

#END
