
#######################################################################
#
#                 Cambridge Crystallographic Data Centre
#                                CCDC 
#
#######################################################################
#
# If this CIF has been generated from an entry in the Cambridge 
# Structural Database, then it will include bibliographic, chemical, 
# crystal, experimental, refinement or atomic coordinate data resulting 
# from the CCDC's data processing and validation procedures.
#
#######################################################################

data_IQUYAV
_chemical_formula_moiety         'C45 H51 N3 Si3'
_chemical_name_systematic        
5,10,15-Triethyl-2,7,12-tris((trimethylsilyl)ethynyl)-10,15-dihydro-5H-diindolo[3,2-a:3',2'-c]carbazole
_symmetry_cell_setting           monoclinic
_symmetry_space_group_name_H-M   'P 21/n'
_symmetry_Int_Tables_number      14
_space_group_name_Hall           '-P 2yn'
loop_
_symmetry_equiv_pos_site_id
_symmetry_equiv_pos_as_xyz
1 x,y,z
2 1/2-x,1/2+y,1/2-z
3 -x,-y,-z
4 1/2+x,1/2-y,1/2+z
_cell_length_a                   18.3907(4)
_cell_length_b                   7.8435(2)
_cell_length_c                   30.5956(7)
_cell_angle_alpha                90
_cell_angle_beta                 92.8504(15)
_cell_angle_gamma                90
_cell_volume                     4407.88
_exptl_crystal_colour            colorless
_exptl_crystal_description       plank
_cell_formula_units_Z            4
loop_
_atom_site_label
_atom_site_type_symbol
_atom_site_fract_x
_atom_site_fract_y
_atom_site_fract_z
Si1 Si 0.61455(4) -0.15874(13) 0.97950(2)
Si2 Si -0.29427(4) -0.06793(12) 0.80133(3)
C1 C 0.30413(11) -0.0003(2) 0.75974(7)
Si3 Si 0.38976(8) 0.2461(3) 0.43873(4)
C2 C 0.3530(6) 0.1766(11) 0.4902(4)
C3 C 0.3539(9) 0.1053(19) 0.3936(5)
H1 H 0.3690 -0.0125 0.3996
H2 H 0.3732 0.1428 0.3659
H3 H 0.3006 0.1116 0.3915
C4 C 0.3607(5) 0.4694(10) 0.4294(2)
H4 H 0.3842 0.5149 0.4038
H5 H 0.3749 0.5380 0.4552
H6 H 0.3077 0.4735 0.4243
N1 N 0.09082(9) -0.0347(2) 0.70554(6)
N2 N 0.26363(9) 0.0030(2) 0.82889(6)
N3 N 0.34696(9) 0.0264(2) 0.68265(6)
C5 C 0.16367(11) -0.0101(2) 0.71866(7)
C6 C 0.45566(12) -0.0824(3) 0.86545(7)
C7 C 0.36557(11) -0.0283(3) 0.78992(7)
C8 C 0.23536(11) 0.0179(3) 0.64573(7)
C9 C 0.22020(13) -0.0364(3) 0.86594(8)
C10 C 0.06406(12) -0.1344(3) 0.66728(7)
C11 C 0.17020(11) 0.0154(3) 0.76446(7)
C12 C 0.05012(11) -0.0162(2) 0.74209(7)
C13 C 0.24197(11) 0.0117(3) 0.78484(6)
C14 C 0.22469(11) -0.0024(2) 0.69173(7)
C15 C 0.29439(11) 0.0062(2) 0.71345(7)
C16 C 0.09672(11) 0.0234(3) 0.77882(7)
C17 C 0.38222(12) -0.0459(3) 0.86994(7)
C18 C 0.31165(12) 0.0360(3) 0.64186(7)
C19 C 0.43878(12) -0.0744(3) 0.78628(7)
C20 C 0.19094(13) 0.0366(3) 0.60782(7)
C21 C 0.33820(11) -0.0222(3) 0.83220(7)
C22 C 0.48286(12) -0.0992(3) 0.82348(8)
C23 C -0.05550(12) -0.0095(3) 0.78482(8)
C24 C 0.41907(12) 0.1093(3) 0.69090(8)
C25 C 0.29630(14) 0.0847(3) 0.56483(8)
C26 C 0.48220(14) 0.0042(4) 0.67681(10)
C27 C 0.50406(13) -0.1077(3) 0.90334(8)
C28 C -0.01021(13) 0.0431(3) 0.82074(8)
C29 C 0.34245(13) 0.0706(3) 0.60230(7)
C30 C -0.13224(13) -0.0302(4) 0.78929(8)
C31 C 0.00911(14) -0.0411(4) 0.63719(9)
C32 C -0.19648(14) -0.0440(4) 0.79324(9)
C33 C 0.21095(16) 0.1122(4) 0.89645(10)
C34 C -0.02457(12) -0.0383(3) 0.74488(8)
C35 C 0.54698(13) -0.1303(4) 0.93407(8)
C36 C 0.06348(12) 0.0615(3) 0.81818(8)
C37 C 0.22105(14) 0.0679(3) 0.56804(8)
C38 C 0.32700(15) 0.1217(5) 0.52360(9)
C39 C 0.56989(17) -0.2603(4) 1.02565(10)
H7 H 0.5275 -0.1925 1.0331
H8 H 0.6044 -0.2667 1.0511
H9 H 0.5541 -0.3755 1.0172
C40 C 0.6892(2) -0.2940(7) 0.96054(12)
H10 H 0.6700 -0.4068 0.9525
H11 H 0.7269 -0.3058 0.9841
H12 H 0.7101 -0.2409 0.9350
C41 C -0.34268(17) -0.0555(5) 0.74749(12)
H13 H -0.3361 0.0582 0.7350
H14 H -0.3947 -0.0766 0.7507
H15 H -0.3231 -0.1415 0.7280
C42 C -0.30918(16) -0.2786(5) 0.82651(12)
H16 H -0.3006 -0.3686 0.8051
H17 H -0.3594 -0.2860 0.8356
H18 H -0.2755 -0.2929 0.8521
C43 C 0.6493(2) 0.0525(6) 0.99615(12)
H19 H 0.6723 0.1064 0.9715
H20 H 0.6852 0.0399 1.0207
H21 H 0.6089 0.1237 1.0051
C44 C 0.48980(19) 0.2251(7) 0.44408(12)
H22 H 0.5091 0.3006 0.4674
H23 H 0.5107 0.2566 0.4164
H24 H 0.5027 0.1068 0.4513
C45 C -0.32229(19) 0.1090(6) 0.83674(16)
H25 H -0.2946 0.1034 0.8649
H26 H -0.3744 0.0993 0.8416
H27 H -0.3127 0.2181 0.8225
H28 H 0.3926(15) 0.086(3) 0.5997(9)
H29 H 0.1888(17) 0.079(4) 0.5427(10)
H30 H 0.1414(14) 0.039(3) 0.6094(8)
H31 H -0.0556(12) -0.077(3) 0.7209(8)
H32 H -0.0346(14) 0.070(3) 0.8496(9)
H33 H 0.0919(13) 0.099(3) 0.8453(8)
H34 H 0.3617(13) -0.038(3) 0.8986(8)
H35 H 0.5348(13) -0.134(3) 0.8202(7)
H36 H 0.4553(15) -0.098(3) 0.7571(10)
H37 H 0.0420(12) -0.233(3) 0.6782(7)
H38 H 0.1080(12) -0.170(3) 0.6514(7)
H39 H 0.2440(13) -0.132(3) 0.8846(8)
H40 H 0.1715(14) -0.090(3) 0.8560(8)
H41 H 0.4134(13) 0.220(3) 0.6735(8)
H42 H 0.4231(11) 0.136(3) 0.7212(8)
H43 H 0.0327(15) 0.071(4) 0.6273(9)
H44 H -0.0361(16) -0.007(3) 0.6506(9)
H45 H 0.0006(17) -0.107(4) 0.6146(11)
H46 H 0.1802(17) 0.067(4) 0.9216(11)
H47 H 0.1834(15) 0.204(4) 0.8797(10)
H48 H 0.2588(19) 0.162(4) 0.9092(11)
H49 H 0.4851(13) -0.100(3) 0.6934(8)
H50 H 0.4772(16) -0.018(4) 0.6447(11)
H51 H 0.5315(18) 0.064(4) 0.6862(10)
C46? C 0.3556(14) 0.095(2) 0.4891(7)
C47? C 0.3417(19) 0.182(4) 0.3958(11)
C48? C 0.4278(9) -0.138(2) 0.4246(5)
H52? H 0.5160 0.1950 0.4709
H53? H 0.4760 0.3430 0.4450
H54? H 0.5203 0.2066 0.4199
H55? H 0.3320 0.3011 0.4036
H56? H 0.2960 0.1177 0.3949
H57? H 0.3628 0.1780 0.3671
H58? H 0.4685 -0.1760 0.4440
H59? H 0.4414 -0.1469 0.3941
H60? H 0.3851 -0.2095 0.4290
Si4? Si 0.40577(19) 0.0882(6) 0.43710(9)
loop_
_geom_bond_atom_site_label_1
_geom_bond_atom_site_label_2
_geom_bond_site_symmetry_1
_geom_bond_site_symmetry_2
Si1 C35 1_555 1_555
Si2 C32 1_555 1_555
C1 C7 1_555 1_555
Si3 C2 1_555 1_555
C2 C38 1_555 1_555
C3 Si3 1_555 1_555
H1 C3 1_555 1_555
H2 C3 1_555 1_555
H3 C3 1_555 1_555
C4 Si3 1_555 1_555
H4 C4 1_555 1_555
H5 C4 1_555 1_555
H6 C4 1_555 1_555
N1 C5 1_555 1_555
N2 C9 1_555 1_555
N3 C15 1_555 1_555
C5 C11 1_555 1_555
C6 C17 1_555 1_555
C7 C19 1_555 1_555
C8 C14 1_555 1_555
C9 C33 1_555 1_555
C10 N1 1_555 1_555
C11 C13 1_555 1_555
C12 N1 1_555 1_555
C13 C1 1_555 1_555
C14 C5 1_555 1_555
C15 C1 1_555 1_555
C16 C11 1_555 1_555
C17 C21 1_555 1_555
C18 N3 1_555 1_555
C19 C22 1_555 1_555
C20 C8 1_555 1_555
C21 N2 1_555 1_555
C22 C6 1_555 1_555
C23 C28 1_555 1_555
C24 N3 1_555 1_555
C25 C29 1_555 1_555
C26 C24 1_555 1_555
C27 C6 1_555 1_555
C28 C36 1_555 1_555
C29 C18 1_555 1_555
C30 C23 1_555 1_555
C31 C10 1_555 1_555
C32 C30 1_555 1_555
C33 H46 1_555 1_555
C34 C12 1_555 1_555
C35 C27 1_555 1_555
C36 C16 1_555 1_555
C37 C20 1_555 1_555
C38 C25 1_555 1_555
C39 Si1 1_555 1_555
H7 C39 1_555 1_555
H8 C39 1_555 1_555
H9 C39 1_555 1_555
C40 Si1 1_555 1_555
H10 C40 1_555 1_555
H11 C40 1_555 1_555
H12 C40 1_555 1_555
C41 Si2 1_555 1_555
H13 C41 1_555 1_555
H14 C41 1_555 1_555
H15 C41 1_555 1_555
C42 Si2 1_555 1_555
H16 C42 1_555 1_555
H17 C42 1_555 1_555
H18 C42 1_555 1_555
C43 Si1 1_555 1_555
H19 C43 1_555 1_555
H20 C43 1_555 1_555
H21 C43 1_555 1_555
C44 Si3 1_555 1_555
H22 C44 1_555 1_555
H23 C44 1_555 1_555
H24 C44 1_555 1_555
C45 Si2 1_555 1_555
H25 C45 1_555 1_555
H26 C45 1_555 1_555
H27 C45 1_555 1_555
H28 C29 1_555 1_555
H29 C37 1_555 1_555
H30 C20 1_555 1_555
H31 C34 1_555 1_555
H32 C28 1_555 1_555
H33 C36 1_555 1_555
H34 C17 1_555 1_555
H35 C22 1_555 1_555
H36 C19 1_555 1_555
H37 C10 1_555 1_555
H38 C10 1_555 1_555
H39 C9 1_555 1_555
H40 C9 1_555 1_555
H41 C24 1_555 1_555
H42 C24 1_555 1_555
H43 C31 1_555 1_555
H44 C31 1_555 1_555
H45 C31 1_555 1_555
H47 C33 1_555 1_555
H48 C33 1_555 1_555
H49 C26 1_555 1_555
H50 C26 1_555 1_555
H51 C26 1_555 1_555
N2 C13 1_555 1_555
C7 C21 1_555 1_555
C8 C18 1_555 1_555
C12 C16 1_555 1_555
C14 C15 1_555 1_555
C23 C34 1_555 1_555
C25 C37 1_555 1_555

#END
