
#######################################################################
#
#                 Cambridge Crystallographic Data Centre
#                                CCDC 
#
#######################################################################
#
# If this CIF has been generated from an entry in the Cambridge 
# Structural Database, then it will include bibliographic, chemical, 
# crystal, experimental, refinement or atomic coordinate data resulting 
# from the CCDC's data processing and validation procedures.
#
#######################################################################

data_IRAGEP
_chemical_name_common            
1alpha,15beta-dihydroxy-19-nor-4-androstene-3,17-dione
_chemical_formula_moiety         'C18 H24 O4'
_chemical_name_systematic        1,15-dihydroxyestr-4-ene-3,17-dione
_symmetry_cell_setting           monoclinic
_symmetry_space_group_name_H-M   'P 21'
_symmetry_Int_Tables_number      4
_space_group_name_Hall           'P 2yb'
loop_
_symmetry_equiv_pos_site_id
_symmetry_equiv_pos_as_xyz
1 x,y,z
2 -x,1/2+y,-z
_cell_length_a                   7.5782(6)
_cell_length_b                   11.0860(9)
_cell_length_c                   9.2538(7)
_cell_angle_alpha                90
_cell_angle_beta                 92.2150(10)
_cell_angle_gamma                90
_cell_volume                     776.849
_exptl_crystal_colour            colorless
_exptl_crystal_description       block
_cell_formula_units_Z            2
loop_
_atom_site_label
_atom_site_type_symbol
_atom_site_fract_x
_atom_site_fract_y
_atom_site_fract_z
O1 O 0.1523(2) 0.4039(2) 0.7323(2)
O2 O 0.0705(2) 0.42639(17) 0.32732(19)
H1 H -0.0226 0.3854 0.3182
O3 O 0.6321(2) 0.89391(19) 0.01928(19)
H2 H 0.6897 0.8908 0.0986
O4 O 0.2653(2) 0.81573(19) -0.31726(19)
C1 C 0.1644(3) 0.4719(3) 0.6287(3)
C2 C 0.0016(3) 0.5224(3) 0.5526(3)
H3 H -0.0287 0.6008 0.5965
H4 H -0.0987 0.4666 0.5647
C3 C 0.0318(3) 0.5399(3) 0.3918(3)
H5 H -0.0768 0.5749 0.3434
C4 C 0.1892(3) 0.6242(2) 0.3695(3)
H6 H 0.1524 0.7068 0.3999
C5 C 0.3476(3) 0.5891(2) 0.4659(3)
C6 C 0.3339(3) 0.5150(2) 0.5796(3)
H7 H 0.4388 0.4896 0.6302
C7 C 0.5219(3) 0.6474(3) 0.4342(3)
H8 H 0.6181 0.6023 0.4853
H9 H 0.5229 0.7308 0.4727
C8 C 0.5580(3) 0.6515(3) 0.2729(3)
H10 H 0.6668 0.6985 0.2578
H11 H 0.5767 0.5685 0.2368
C9 C 0.4027(3) 0.7094(2) 0.1886(3)
H12 H 0.3826 0.7923 0.2271
C10 C 0.2352(3) 0.6324(2) 0.2077(3)
H13 H 0.2624 0.5488 0.1747
C11 C 0.0742(3) 0.6776(2) 0.1149(3)
H14 H -0.0229 0.6183 0.1213
H15 H 0.0328 0.7548 0.1555
C12 C 0.1140(3) 0.6968(3) -0.0455(3)
H16 H 0.1368 0.6181 -0.0918
H17 H 0.0109 0.7345 -0.0967
C13 C 0.2756(3) 0.7783(2) -0.0563(3)
C14 C 0.4317(3) 0.7169(2) 0.0268(3)
H18 H 0.4321 0.6316 -0.0081
C15 C 0.5986(3) 0.7748(3) -0.0319(3)
H19 H 0.7039 0.7219 -0.0131
C16 C 0.5500(3) 0.7811(3) -0.1945(3)
H20 H 0.6076 0.8513 -0.2391
H21 H 0.5879 0.7068 -0.2438
C17 C 0.3500(3) 0.7940(2) -0.2060(3)
C18 C 0.2307(3) 0.9076(3) -0.0057(3)
H22 H 0.1943 0.9051 0.0947
H23 H 0.1342 0.9403 -0.0676
H24 H 0.3351 0.9591 -0.0124
loop_
_geom_bond_atom_site_label_1
_geom_bond_atom_site_label_2
_geom_bond_site_symmetry_1
_geom_bond_site_symmetry_2
O1 C1 1_555 1_555
O2 H1 1_555 1_555
O3 H2 1_555 1_555
O4 C17 1_555 1_555
C1 C2 1_555 1_555
C2 H3 1_555 1_555
H4 C2 1_555 1_555
C3 O2 1_555 1_555
H5 C3 1_555 1_555
C4 C3 1_555 1_555
H6 C4 1_555 1_555
C5 C4 1_555 1_555
C6 C1 1_555 1_555
H7 C6 1_555 1_555
C7 C5 1_555 1_555
H8 C7 1_555 1_555
H9 C7 1_555 1_555
C8 C7 1_555 1_555
H10 C8 1_555 1_555
H11 C8 1_555 1_555
C9 C8 1_555 1_555
H12 C9 1_555 1_555
C10 C4 1_555 1_555
H13 C10 1_555 1_555
C11 C10 1_555 1_555
H14 C11 1_555 1_555
H15 C11 1_555 1_555
C12 C11 1_555 1_555
H16 C12 1_555 1_555
H17 C12 1_555 1_555
C13 C12 1_555 1_555
C14 C9 1_555 1_555
H18 C14 1_555 1_555
C15 O3 1_555 1_555
H19 C15 1_555 1_555
C16 C15 1_555 1_555
H20 C16 1_555 1_555
H21 C16 1_555 1_555
C17 C13 1_555 1_555
C18 C13 1_555 1_555
H22 C18 1_555 1_555
H23 C18 1_555 1_555
H24 C18 1_555 1_555
C2 C3 1_555 1_555
C5 C6 1_555 1_555
C9 C10 1_555 1_555
C13 C14 1_555 1_555
C14 C15 1_555 1_555
C16 C17 1_555 1_555

#END
