
#######################################################################
#
#                 Cambridge Crystallographic Data Centre
#                                CCDC 
#
#######################################################################
#
# If this CIF has been generated from an entry in the Cambridge 
# Structural Database, then it will include bibliographic, chemical, 
# crystal, experimental, refinement or atomic coordinate data resulting 
# from the CCDC's data processing and validation procedures.
#
#######################################################################

data_IRAKUI
_chemical_formula_moiety         'C17 H20 N2 O2 P1 S1 1+,C2 F3 O2 1-'
_chemical_name_systematic        
'2-(((6-Sulfidodibenzo[d,f][1,3,2]dioxaphosphepin-6-yl)amino)methyl)pyrrolidinium trifluoroacetate'
_symmetry_cell_setting           monoclinic
_symmetry_space_group_name_H-M   'P 21'
_symmetry_Int_Tables_number      4
_space_group_name_Hall           'P 2yb'
loop_
_symmetry_equiv_pos_site_id
_symmetry_equiv_pos_as_xyz
1 x,y,z
2 -x,1/2+y,-z
_cell_length_a                   9.797(4)
_cell_length_b                   7.683(3)
_cell_length_c                   14.146(6)
_cell_angle_alpha                90
_cell_angle_beta                 109.523(7)
_cell_angle_gamma                90
_cell_volume                     1003.56
_exptl_crystal_colour            colorless
_exptl_crystal_description       prism
_cell_formula_units_Z            2
loop_
_atom_site_label
_atom_site_type_symbol
_atom_site_fract_x
_atom_site_fract_y
_atom_site_fract_z
P1 P 0.56663(7) 0.08546(10) 0.26699(5)
S1 S 0.42726(8) -0.07179(11) 0.28696(5)
O1 O 0.5101(2) 0.2420(3) 0.18862(14)
O2 O 0.6715(2) -0.0180(3) 0.22095(14)
N1 N 0.6497(3) 0.5159(3) 0.47288(18)
H1 H 0.551(4) 0.509(5) 0.457(3)
H2 H 0.697(4) 0.418(6) 0.517(3)
N2 N 0.6596(3) 0.1905(3) 0.36688(18)
C1 C 0.6971(3) 0.6870(5) 0.5245(2)
H3 H 0.7087 0.6799 0.5966
H4 H 0.6274 0.7807 0.4930
C2 C 0.8417(3) 0.7160(5) 0.5091(2)
H5 H 0.9189 0.6445 0.5561
H6 H 0.8705 0.8401 0.5181
C3 C 0.8117(3) 0.6582(4) 0.4008(2)
H7 H 0.9015 0.6149 0.3914
H8 H 0.7737 0.7564 0.3541
C4 C 0.6985(3) 0.5117(4) 0.3814(2)
H9 H 0.6147 0.5381 0.3196
C5 C 0.7600(3) 0.3339(4) 0.3719(2)
H10 H 0.7876 0.3321 0.3107
H11 H 0.8491 0.3153 0.4302
C6 C 0.4433(3) 0.1970(4) 0.0870(2)
C7 C 0.2941(3) 0.2097(4) 0.0472(2)
H12 H 0.2388 0.2430 0.0881
C8 C 0.2270(3) 0.1728(5) -0.0536(2)
H13 H 0.1246 0.1806 -0.0825
C9 C 0.3089(3) 0.1247(4) -0.1124(2)
H14 H 0.2626 0.0984 -0.1814
C10 C 0.4588(3) 0.1147(4) -0.0708(2)
H15 H 0.5142 0.0838 -0.1120
C11 C 0.5291(3) 0.1493(4) 0.0303(2)
C12 C 0.6883(3) 0.1365(4) 0.0756(2)
C13 C 0.7774(3) 0.1961(5) 0.0236(2)
H16 H 0.7355 0.2517 -0.0394
C14 C 0.9276(3) 0.1752(5) 0.0631(3)
H17 H 0.9871 0.2179 0.0272
C15 C 0.9899(3) 0.0922(5) 0.1544(2)
H18 H 1.0918 0.0759 0.1804
C16 C 0.9033(3) 0.0331(4) 0.2078(2)
H19 H 0.9453 -0.0233 0.2706
C17 C 0.7553(3) 0.0573(4) 0.1685(2)
H20 H 0.651(4) 0.154(5) 0.415(3)
F1 F 0.0650(3) 0.4626(4) 0.27670(16)
F2 F 0.1379(2) 0.6624(3) 0.19920(13)
F3 F 0.2733(3) 0.4431(4) 0.25936(16)
O3 O 0.35727(19) 0.5861(3) 0.43913(13)
O4 O 0.1755(2) 0.7782(3) 0.38920(15)
C18 C 0.2454(3) 0.6504(4) 0.3782(2)
C19 C 0.1812(3) 0.5539(5) 0.2770(2)
loop_
_geom_bond_atom_site_label_1
_geom_bond_atom_site_label_2
_geom_bond_site_symmetry_1
_geom_bond_site_symmetry_2
P1 S1 1_555 1_555
O1 P1 1_555 1_555
O2 P1 1_555 1_555
N1 H1 1_555 1_555
H2 N1 1_555 1_555
N2 P1 1_555 1_555
C1 N1 1_555 1_555
H3 C1 1_555 1_555
H4 C1 1_555 1_555
C2 C1 1_555 1_555
H5 C2 1_555 1_555
H6 C2 1_555 1_555
C3 C2 1_555 1_555
H7 C3 1_555 1_555
H8 C3 1_555 1_555
C4 N1 1_555 1_555
H9 C4 1_555 1_555
C5 N2 1_555 1_555
H10 C5 1_555 1_555
H11 C5 1_555 1_555
C6 O1 1_555 1_555
C7 C6 1_555 1_555
H12 C7 1_555 1_555
C8 C7 1_555 1_555
H13 C8 1_555 1_555
C9 C8 1_555 1_555
H14 C9 1_555 1_555
C10 C9 1_555 1_555
H15 C10 1_555 1_555
C11 C6 1_555 1_555
C12 C11 1_555 1_555
C13 C12 1_555 1_555
H16 C13 1_555 1_555
C14 C13 1_555 1_555
H17 C14 1_555 1_555
C15 C14 1_555 1_555
H18 C15 1_555 1_555
C16 C15 1_555 1_555
H19 C16 1_555 1_555
C17 O2 1_555 1_555
H20 N2 1_555 1_555
F1 C19 1_555 1_555
F2 C19 1_555 1_555
F3 C19 1_555 1_555
O3 C18 1_555 1_555
O4 C18 1_555 1_555
C18 C19 1_555 1_555
C3 C4 1_555 1_555
C4 C5 1_555 1_555
C10 C11 1_555 1_555
C12 C17 1_555 1_555
C16 C17 1_555 1_555

#END
