
#######################################################################
#
#                 Cambridge Crystallographic Data Centre
#                                CCDC 
#
#######################################################################
#
# If this CIF has been generated from an entry in the Cambridge 
# Structural Database, then it will include bibliographic, chemical, 
# crystal, experimental, refinement or atomic coordinate data resulting 
# from the CCDC's data processing and validation procedures.
#
#######################################################################

data_IRALOE
_chemical_formula_moiety         'C21 H35 N5 2+,2(N1 O3 1-)'
_chemical_name_systematic        
'3-(((2-((2-((3-azaniumylbenzyl)(methyl)amino)ethyl)(methyl)amino)ethyl)(methyl)amino)methyl)anilinium dinitrate'
_symmetry_cell_setting           orthorhombic
_symmetry_space_group_name_H-M   'P n a 21'
_symmetry_Int_Tables_number      33
_space_group_name_Hall           'P 2c -2n'
loop_
_symmetry_equiv_pos_site_id
_symmetry_equiv_pos_as_xyz
1 x,y,z
2 -x,-y,1/2+z
3 1/2+x,1/2-y,z
4 1/2-x,1/2+y,1/2+z
_cell_length_a                   14.3139(5)
_cell_length_b                   16.8590(5)
_cell_length_c                   10.2559(4)
_cell_angle_alpha                90
_cell_angle_beta                 90
_cell_angle_gamma                90
_cell_volume                     2474.93
_exptl_crystal_colour            colorless
_exptl_crystal_description       block
_cell_formula_units_Z            4
_exptl_crystal_recrystallization_method 'Vapour Deposition'
loop_
_atom_site_label
_atom_site_type_symbol
_atom_site_fract_x
_atom_site_fract_y
_atom_site_fract_z
N1 N 0.83875(9) 0.23493(8) 0.49166(13)
N2 N 0.91776(10) 0.37145(8) 0.35179(14)
N3 N 0.95969(9) 0.19560(8) 0.71175(13)
N4 N 0.57841(12) 0.52228(9) 0.47921(16)
H1 H 0.5424 0.5135 0.5485
H2 H 0.5640 0.4878 0.4167
H3 H 0.5691 0.5714 0.4503
N5 N 0.65164(12) 0.21999(10) 1.05481(18)
H4 H 0.6466 0.1729 1.0161
H5 H 0.5989 0.2471 1.0439
H6 H 0.6622 0.2131 1.1396
C1 C 0.85463(12) 0.15223(9) 0.53046(16)
H7 H 0.9059 0.1306 0.4799
H8 H 0.7992 0.1213 0.5111
C2 C 0.83547(12) 0.24021(9) 0.34937(16)
H9 H 0.7798 0.2135 0.3180
H10 H 0.8893 0.2132 0.3131
C3 C 0.90078(13) 0.46036(9) 0.34848(18)
H11 H 0.9594 0.4879 0.3629
H12 H 0.8777 0.4753 0.2630
C4 C 0.83471(12) 0.32576(10) 0.30202(16)
H13 H 0.8350 0.3264 0.2075
H14 H 0.7778 0.3514 0.3313
C5 C 0.87719(12) 0.14490(10) 0.67473(17)
H15 H 0.8232 0.1609 0.7255
H16 H 0.8907 0.0899 0.6952
C6 C 0.75336(12) 0.26665(11) 0.55043(19)
H17 H 0.7488 0.3223 0.5321
H18 H 0.7552 0.2587 0.6431
H19 H 0.7001 0.2397 0.5147
C7 C 0.83105(12) 0.48565(9) 0.45085(17)
C8 C 1.00377(14) 0.35125(11) 0.2766(2)
H20 H 1.0131 0.2949 0.2780
H21 H 1.0567 0.3771 0.3154
H22 H 0.9969 0.3688 0.1881
C9 C 0.73712(12) 0.49275(9) 0.41866(17)
H23 H 0.7181 0.4838 0.3332
C10 C 1.04981(12) 0.15665(11) 0.67382(19)
H24 H 1.0559 0.1071 0.7192
H25 H 1.1011 0.1907 0.6964
H26 H 1.0502 0.1472 0.5815
C11 C 0.67050(13) 0.51320(9) 0.51339(18)
C12 C 0.70151(13) 0.52855(10) 0.64089(18)
H27 H 0.6588 0.5427 0.7051
C13 C 0.86113(13) 0.50080(10) 0.57769(19)
H28 H 0.9240 0.4964 0.5995
C14 C 0.79562(15) 0.52264(10) 0.67110(18)
H29 H 0.8154 0.5335 0.7556
C15 C 0.87956(12) 0.26140(10) 0.90253(16)
C16 C 0.80432(12) 0.22139(9) 0.95671(16)
H30 H 0.8068 0.1665 0.9642
C17 C 0.72495(12) 0.26152(10) 1.00024(16)
C18 C 0.87780(15) 0.34409(11) 0.8938(2)
H31 H 0.9282 0.3716 0.8588
C19 C 0.96309(12) 0.21528(11) 0.85646(16)
H32 H 0.9672 0.1663 0.9057
H33 H 1.0191 0.2458 0.8741
C20 C 0.79932(16) 0.38454(11) 0.93847(19)
H34 H 0.7980 0.4396 0.9339
C21 C 0.72303(14) 0.34459(10) 0.98964(18)
H35 H 0.6707 0.3727 1.0169
N6 N 0.95680(9) 0.87688(8) 0.73325(14)
O1 O 0.99252(9) 0.83462(8) 0.64672(13)
O2 O 0.92243(12) 0.84686(8) 0.83227(14)
O3 O 0.95648(12) 0.95085(8) 0.71810(17)
N7 N 0.57585(10) 0.12088(9) 0.62216(15)
O4 O 0.50572(9) 0.16264(8) 0.58724(14)
O5 O 0.61621(11) 0.13702(9) 0.72474(15)
O6 O 0.60099(11) 0.06504(8) 0.55152(16)
loop_
_geom_bond_atom_site_label_1
_geom_bond_atom_site_label_2
_geom_bond_site_symmetry_1
_geom_bond_site_symmetry_2
N1 C1 1_555 1_555
N2 C3 1_555 1_555
N3 C5 1_555 1_555
N4 H1 1_555 1_555
H2 N4 1_555 1_555
H3 N4 1_555 1_555
N5 H4 1_555 1_555
H5 N5 1_555 1_555
H6 N5 1_555 1_555
C1 H7 1_555 1_555
H8 C1 1_555 1_555
C2 N1 1_555 1_555
H9 C2 1_555 1_555
H10 C2 1_555 1_555
C3 H11 1_555 1_555
H12 C3 1_555 1_555
C4 N2 1_555 1_555
H13 C4 1_555 1_555
H14 C4 1_555 1_555
C5 C1 1_555 1_555
H15 C5 1_555 1_555
H16 C5 1_555 1_555
C6 N1 1_555 1_555
H17 C6 1_555 1_555
H18 C6 1_555 1_555
H19 C6 1_555 1_555
C7 C3 1_555 1_555
C8 N2 1_555 1_555
H20 C8 1_555 1_555
H21 C8 1_555 1_555
H22 C8 1_555 1_555
C9 C7 1_555 1_555
H23 C9 1_555 1_555
C10 N3 1_555 1_555
H24 C10 1_555 1_555
H25 C10 1_555 1_555
H26 C10 1_555 1_555
C11 N4 1_555 1_555
C12 C11 1_555 1_555
H27 C12 1_555 1_555
C13 C7 1_555 1_555
H28 C13 1_555 1_555
C14 C12 1_555 1_555
H29 C14 1_555 1_555
C15 C16 1_555 1_555
C16 H30 1_555 1_555
C17 N5 1_555 1_555
C18 C15 1_555 1_555
H31 C18 1_555 1_555
C19 N3 1_555 1_555
H32 C19 1_555 1_555
H33 C19 1_555 1_555
C20 C18 1_555 1_555
H34 C20 1_555 1_555
C21 C17 1_555 1_555
H35 C21 1_555 1_555
N6 O1 1_555 1_555
O2 N6 1_555 1_555
O3 N6 1_555 1_555
N7 O4 1_555 1_555
O5 N7 1_555 1_555
O6 N7 1_555 1_555
C2 C4 1_555 1_555
C9 C11 1_555 1_555
C13 C14 1_555 1_555
C15 C19 1_555 1_555
C16 C17 1_555 1_555
C20 C21 1_555 1_555

#END
