
#######################################################################
#
#                 Cambridge Crystallographic Data Centre
#                                CCDC 
#
#######################################################################
#
# If this CIF has been generated from an entry in the Cambridge 
# Structural Database, then it will include bibliographic, chemical, 
# crystal, experimental, refinement or atomic coordinate data resulting 
# from the CCDC's data processing and validation procedures.
#
#######################################################################

data_IRAPEX
_chemical_formula_moiety         'C22 H16 N2 O2'
_chemical_name_systematic        'Methyl 4-(3-phenylquinoxalin-2-yl)benzoate'
_symmetry_cell_setting           monoclinic
_symmetry_space_group_name_H-M   'P 21/c'
_symmetry_Int_Tables_number      14
_space_group_name_Hall           '-P 2ybc'
loop_
_symmetry_equiv_pos_site_id
_symmetry_equiv_pos_as_xyz
1 x,y,z
2 -x,1/2+y,1/2-z
3 -x,-y,-z
4 x,1/2-y,1/2+z
_cell_length_a                   20.086(9)
_cell_length_b                   5.752(4)
_cell_length_c                   15.034(5)
_cell_angle_alpha                90
_cell_angle_beta                 99.59(5)
_cell_angle_gamma                90
_cell_volume                     1712.67
_exptl_crystal_colour            colorless
_exptl_crystal_description       plate
_cell_formula_units_Z            4
loop_
_atom_site_label
_atom_site_type_symbol
_atom_site_fract_x
_atom_site_fract_y
_atom_site_fract_z
C1 C 0.3112(3) -0.0117(11) 0.4493(4)
C2 C 0.3902(3) 0.2101(12) 0.5443(5)
C3 C 0.4567(4) 0.2567(14) 0.5807(5)
H1 H 0.4913 0.1648 0.5659
C4 C 0.4708(4) 0.4410(16) 0.6390(6)
H2 H 0.5154 0.4741 0.6638
C5 C 0.4183(4) 0.5799(14) 0.6616(5)
H3 H 0.4284 0.7064 0.7000
C6 C 0.3538(4) 0.5298(12) 0.6277(5)
H4 H 0.3194 0.6198 0.6441
C7 C 0.3376(3) 0.3433(12) 0.5677(4)
C8 C 0.2587(3) 0.1209(11) 0.4806(4)
C9 C 0.1849(3) 0.0641(11) 0.4526(4)
C10 C 0.1598(3) -0.1455(11) 0.4749(5)
H5 H 0.1885 -0.2536 0.5075
C11 C 0.0911(3) -0.1988(11) 0.4491(4)
H6 H 0.0743 -0.3412 0.4646
C12 C 0.0484(3) -0.0370(11) 0.4004(4)
C13 C 0.0742(3) 0.1772(12) 0.3824(5)
H7 H 0.0454 0.2894 0.3527
C14 C 0.1418(3) 0.2286(11) 0.4073(5)
H8 H 0.1584 0.3732 0.3938
C15 C -0.0242(3) -0.0896(13) 0.3677(5)
C16 C -0.1093(3) -0.3730(14) 0.3552(5)
H9 H -0.1371 -0.3258 0.3981
H10 H -0.1113 -0.5390 0.3485
H11 H -0.1253 -0.3010 0.2980
C17 C 0.2986(3) -0.1958(10) 0.3786(4)
C18 C 0.3455(3) -0.3728(12) 0.3800(5)
H12 H 0.3844 -0.3720 0.4232
C19 C 0.3346(4) -0.5506(11) 0.3175(5)
H13 H 0.3656 -0.6714 0.3199
C20 C 0.2777(4) -0.5500(13) 0.2512(5)
H14 H 0.2700 -0.6711 0.2098
C21 C 0.2329(4) -0.3693(13) 0.2474(5)
H15 H 0.1952 -0.3661 0.2022
C22 C 0.2434(3) -0.1907(13) 0.3104(5)
H16 H 0.2131 -0.0674 0.3066
N1 N 0.3757(3) 0.0340(10) 0.4827(4)
N2 N 0.2717(3) 0.2968(9) 0.5371(4)
O1 O -0.0402(2) -0.3027(8) 0.3868(3)
O2 O -0.0629(2) 0.0465(9) 0.3271(4)
loop_
_geom_bond_atom_site_label_1
_geom_bond_atom_site_label_2
_geom_bond_site_symmetry_1
_geom_bond_site_symmetry_2
C1 C8 1_555 1_555
C2 C3 1_555 1_555
C3 H1 1_555 1_555
C4 C3 1_555 1_555
H2 C4 1_555 1_555
C5 C4 1_555 1_555
H3 C5 1_555 1_555
C6 C5 1_555 1_555
H4 C6 1_555 1_555
C7 C2 1_555 1_555
C8 C9 1_555 1_555
C9 C10 1_555 1_555
C10 H5 1_555 1_555
C11 C10 1_555 1_555
H6 C11 1_555 1_555
C12 C11 1_555 1_555
C13 C12 1_555 1_555
H7 C13 1_555 1_555
C14 C9 1_555 1_555
H8 C14 1_555 1_555
C15 C12 1_555 1_555
C16 H9 1_555 1_555
H10 C16 1_555 1_555
H11 C16 1_555 1_555
C17 C1 1_555 1_555
C18 C17 1_555 1_555
H12 C18 1_555 1_555
C19 C18 1_555 1_555
H13 C19 1_555 1_555
C20 C19 1_555 1_555
H14 C20 1_555 1_555
C21 C20 1_555 1_555
H15 C21 1_555 1_555
C22 C17 1_555 1_555
H16 C22 1_555 1_555
N1 C1 1_555 1_555
N2 C7 1_555 1_555
O1 C15 1_555 1_555
O2 C15 1_555 1_555
C2 N1 1_555 1_555
C6 C7 1_555 1_555
C8 N2 1_555 1_555
C13 C14 1_555 1_555
C16 O1 1_555 1_555
C21 C22 1_555 1_555

#END
