
#######################################################################
#
#                 Cambridge Crystallographic Data Centre
#                                CCDC 
#
#######################################################################
#
# If this CIF has been generated from an entry in the Cambridge 
# Structural Database, then it will include bibliographic, chemical, 
# crystal, experimental, refinement or atomic coordinate data resulting 
# from the CCDC's data processing and validation procedures.
#
#######################################################################

data_IRARAW
_chemical_formula_moiety         'C21 H15 F2 N1 O2'
_chemical_name_systematic        
'ethyl 5-(4-fluorophenyl)-3-((4-fluorophenyl)ethynyl)-1H-pyrrole-2-carboxylate'
_symmetry_cell_setting           monoclinic
_symmetry_space_group_name_H-M   'P 21/c'
_symmetry_Int_Tables_number      14
_space_group_name_Hall           '-P 2ybc'
loop_
_symmetry_equiv_pos_site_id
_symmetry_equiv_pos_as_xyz
1 x,y,z
2 -x,1/2+y,1/2-z
3 -x,-y,-z
4 x,1/2-y,1/2+z
_cell_length_a                   8.269(7)
_cell_length_b                   19.428(16)
_cell_length_c                   12.752(8)
_cell_angle_alpha                90
_cell_angle_beta                 121.23(4)
_cell_angle_gamma                90
_cell_volume                     1751.75
_exptl_crystal_colour            colorless
_exptl_crystal_description       block
_cell_formula_units_Z            4
loop_
_atom_site_label
_atom_site_type_symbol
_atom_site_fract_x
_atom_site_fract_y
_atom_site_fract_z
F1 F 1.0426(2) -0.39339(9) 0.75480(15)
O1 O -0.2029(2) -0.49185(9) 0.36698(15)
O2 O -0.3603(2) -0.44100(8) 0.18197(16)
F2 F -0.7063(3) -0.23523(9) -0.47070(15)
C1 C 0.8542(4) -0.39515(14) 0.6675(3)
C2 C 0.7920(4) -0.36254(16) 0.5583(3)
C3 C 0.6020(4) -0.36412(14) 0.4716(3)
C4 C 0.4744(3) -0.39809(10) 0.4930(2)
C5 C 0.5453(4) -0.43014(11) 0.6057(2)
C6 C 0.7355(4) -0.42885(12) 0.6934(3)
C7 C 0.2744(3) -0.39853(11) 0.3974(2)
N1 N 0.1353(3) -0.43111(8) 0.40669(18)
C8 C -0.0366(3) -0.42363(11) 0.3010(2)
C9 C -0.0083(3) -0.38440(10) 0.2198(2)
C10 C 0.1875(3) -0.36977(11) 0.2824(2)
C11 C -0.1414(4) -0.36189(11) 0.0983(3)
C12 C -0.2389(4) -0.33884(11) -0.0027(2)
C13 C -0.3601(3) -0.31126(10) -0.1235(2)
C14 C -0.2851(4) -0.27332(11) -0.1814(2)
C15 C -0.4023(5) -0.24698(12) -0.2977(3)
C16 C -0.5914(5) -0.25971(13) -0.3547(3)
C17 C -0.6699(4) -0.29580(14) -0.3013(3)
C18 C -0.5533(4) -0.32167(12) -0.1850(3)
C19 C -0.2039(3) -0.45571(11) 0.2892(2)
C20 C -0.5359(3) -0.47121(13) 0.1604(2)
C21 C -0.6926(4) -0.44822(15) 0.0381(3)
H1 H 0.7813(4) -0.45062(12) 0.7685(3)
H2 H 0.4625(4) -0.45306(11) 0.6226(2)
H3 H 0.5581(4) -0.34191(14) 0.3970(3)
H4 H 0.8764(4) -0.33974(16) 0.5428(3)
H5 H -0.6055(4) -0.34650(12) -0.1472(3)
H6 H -0.7999(4) -0.30297(14) -0.3423(3)
H7 H -0.3533(5) -0.22115(12) -0.3363(3)
H8 H -0.1554(4) -0.26572(11) -0.1415(2)
H9 H 0.1536(3) -0.45326(8) 0.47035(18)
H10 H 0.2481(3) -0.34458(11) 0.2506(2)
H11 H -0.5267(3) -0.52103(13) 0.1624(2)
H12 H -0.5600(3) -0.45667(13) 0.2238(2)
H13 H -0.6664(13) -0.4620(9) -0.0239(3)
H14 H -0.8090(6) -0.4688(8) 0.0217(8)
H15 H -0.7035(18) -0.39901(17) 0.0377(6)
loop_
_geom_bond_atom_site_label_1
_geom_bond_atom_site_label_2
_geom_bond_site_symmetry_1
_geom_bond_site_symmetry_2
F1 C1 1_555 1_555
O1 C19 1_555 1_555
O2 C19 1_555 1_555
F2 C16 1_555 1_555
C1 C2 1_555 1_555
C2 C3 1_555 1_555
C3 C4 1_555 1_555
C4 C5 1_555 1_555
C5 C6 1_555 1_555
C6 C1 1_555 1_555
C7 C4 1_555 1_555
N1 C7 1_555 1_555
C8 N1 1_555 1_555
C9 C8 1_555 1_555
C10 C7 1_555 1_555
C11 C9 1_555 1_555
C12 C11 1_555 1_555
C13 C12 1_555 1_555
C14 C13 1_555 1_555
C15 C14 1_555 1_555
C16 C15 1_555 1_555
C17 C16 1_555 1_555
C18 C13 1_555 1_555
C19 C8 1_555 1_555
C20 O2 1_555 1_555
C21 C20 1_555 1_555
H1 C6 1_555 1_555
H2 C5 1_555 1_555
H3 C3 1_555 1_555
H4 C2 1_555 1_555
H5 C18 1_555 1_555
H6 C17 1_555 1_555
H7 C15 1_555 1_555
H8 C14 1_555 1_555
H9 N1 1_555 1_555
H10 C10 1_555 1_555
H11 C20 1_555 1_555
H12 C20 1_555 1_555
H13 C21 1_555 1_555
H14 C21 1_555 1_555
H15 C21 1_555 1_555
C9 C10 1_555 1_555
C17 C18 1_555 1_555

#END
