
#######################################################################
#
#                 Cambridge Crystallographic Data Centre
#                                CCDC 
#
#######################################################################
#
# If this CIF has been generated from an entry in the Cambridge 
# Structural Database, then it will include bibliographic, chemical, 
# crystal, experimental, refinement or atomic coordinate data resulting 
# from the CCDC's data processing and validation procedures.
#
#######################################################################

data_IRARUQ
_chemical_formula_moiety         'C24 H23 N3 O2'
_chemical_name_systematic        
1-(2-benzyl-3,6-diphenyl-2,3-dihydro-1,2,4,5-oxatriazepin-4(7H)-yl)ethanone
_symmetry_cell_setting           triclinic
_symmetry_space_group_name_H-M   'P -1'
_symmetry_Int_Tables_number      2
_space_group_name_Hall           '-P 1'
loop_
_symmetry_equiv_pos_site_id
_symmetry_equiv_pos_as_xyz
1 x,y,z
2 -x,-y,-z
_cell_length_a                   9.7093(12)
_cell_length_b                   10.1931(18)
_cell_length_c                   11.0444(18)
_cell_angle_alpha                107.992(4)
_cell_angle_beta                 100.241(5)
_cell_angle_gamma                98.555(6)
_cell_volume                     998.512
_exptl_crystal_colour            colorless
_exptl_crystal_description       Prism
_cell_formula_units_Z            2
loop_
_atom_site_label
_atom_site_type_symbol
_atom_site_fract_x
_atom_site_fract_y
_atom_site_fract_z
O1 O 0.08904(8) 0.89547(8) 0.45834(7)
O2 O 0.29358(9) 0.73080(9) 0.08744(8)
N1 N 0.34044(10) 1.00648(10) 0.37737(9)
N2 N 0.28075(10) 0.87504(10) 0.28480(9)
N3 N 0.15437(10) 0.77616(10) 0.41444(9)
C1 C 0.19758(12) 1.00793(12) 0.54853(11)
H1 H 0.2449 0.9758 0.6179
H2 H 0.1532 1.0860 0.5906
C2 C 0.30972(11) 1.06353(12) 0.48779(11)
C3 C 0.39644(11) 1.20921(12) 0.56573(11)
C4 C 0.37346(14) 1.28536(14) 0.68657(12)
H3 H 0.3049 1.2421 0.7220
C5 C 0.44905(15) 1.42313(15) 0.75570(13)
H4 H 0.4316 1.4734 0.8376
C6 C 0.54935(14) 1.48732(14) 0.70594(13)
H5 H 0.6001 1.5822 0.7524
C7 C 0.57531(13) 1.41236(14) 0.58788(13)
H6 H 0.6453 1.4557 0.5538
C8 C 0.50083(13) 1.27507(13) 0.51866(13)
H7 H 0.5209 1.2248 0.4380
C9 C 0.33678(12) 0.84563(13) 0.17468(11)
C10 C 0.44820(14) 0.95989(15) 0.16596(13)
H8 H 0.4802 0.9242 0.0850
H9 H 0.5302 0.9880 0.2415
H10 H 0.4067 1.0418 0.1657
C11 C 0.16205(12) 0.76178(12) 0.28049(11)
H11 H 0.1890 0.6695 0.2419
C12 C 0.02335(12) 0.76020(12) 0.19003(10)
C13 C -0.01490(12) 0.88485(12) 0.18357(11)
H12 H 0.0483 0.9733 0.2337
C14 C -0.14475(13) 0.88027(13) 0.10422(11)
H13 H -0.1703 0.9656 0.1003
C15 C -0.23725(13) 0.75174(14) 0.03065(11)
H14 H -0.3269 0.7491 -0.0223
C16 C -0.19935(13) 0.62676(13) 0.03417(11)
H15 H -0.2618 0.5384 -0.0178
C17 C -0.06947(13) 0.63158(12) 0.11414(11)
H16 H -0.0438 0.5460 0.1170
C18 C 0.05543(13) 0.65598(12) 0.42217(11)
H17 H 0.0878 0.5675 0.3855
H18 H -0.0420 0.6463 0.3699
C19 C 0.05157(13) 0.68007(11) 0.56355(11)
C20 C 0.17032(13) 0.67805(13) 0.65387(12)
H19 H 0.2553 0.6610 0.6264
C21 C 0.16615(14) 0.70061(13) 0.78354(12)
H20 H 0.2479 0.6984 0.8441
C22 C 0.04278(14) 0.72632(13) 0.82502(12)
H21 H 0.0398 0.7420 0.9138
C23 C -0.07589(14) 0.72890(13) 0.73609(13)
H22 H -0.1605 0.7466 0.7639
C24 C -0.07149(13) 0.70558(12) 0.60601(12)
H23 H -0.1536 0.7071 0.5455
loop_
_geom_bond_atom_site_label_1
_geom_bond_atom_site_label_2
_geom_bond_site_symmetry_1
_geom_bond_site_symmetry_2
O1 N3 1_555 1_555
O2 C9 1_555 1_555
N1 N2 1_555 1_555
N2 C9 1_555 1_555
N3 C11 1_555 1_555
C1 O1 1_555 1_555
H1 C1 1_555 1_555
H2 C1 1_555 1_555
C2 N1 1_555 1_555
C3 C2 1_555 1_555
C4 C3 1_555 1_555
H3 C4 1_555 1_555
C5 C4 1_555 1_555
H4 C5 1_555 1_555
C6 C5 1_555 1_555
H5 C6 1_555 1_555
C7 C6 1_555 1_555
H6 C7 1_555 1_555
C8 C3 1_555 1_555
H7 C8 1_555 1_555
C9 C10 1_555 1_555
C10 H8 1_555 1_555
H9 C10 1_555 1_555
H10 C10 1_555 1_555
C11 N2 1_555 1_555
H11 C11 1_555 1_555
C12 C11 1_555 1_555
C13 C12 1_555 1_555
H12 C13 1_555 1_555
C14 C13 1_555 1_555
H13 C14 1_555 1_555
C15 C14 1_555 1_555
H14 C15 1_555 1_555
C16 C15 1_555 1_555
H15 C16 1_555 1_555
C17 C12 1_555 1_555
H16 C17 1_555 1_555
C18 N3 1_555 1_555
H17 C18 1_555 1_555
H18 C18 1_555 1_555
C19 C18 1_555 1_555
C20 C19 1_555 1_555
H19 C20 1_555 1_555
C21 C20 1_555 1_555
H20 C21 1_555 1_555
C22 C21 1_555 1_555
H21 C22 1_555 1_555
C23 C22 1_555 1_555
H22 C23 1_555 1_555
C24 C19 1_555 1_555
H23 C24 1_555 1_555
C1 C2 1_555 1_555
C7 C8 1_555 1_555
C16 C17 1_555 1_555
C23 C24 1_555 1_555

#END
