
#######################################################################
#
#                 Cambridge Crystallographic Data Centre
#                                CCDC 
#
#######################################################################
#
# If this CIF has been generated from an entry in the Cambridge 
# Structural Database, then it will include bibliographic, chemical, 
# crystal, experimental, refinement or atomic coordinate data resulting 
# from the CCDC's data processing and validation procedures.
#
#######################################################################

data_IRASAX
_chemical_formula_moiety         'C10 H9 F1 N2 O4'
_chemical_name_systematic        
'(3-(4-fluorophenyl)-4,5-dihydro-1,2-oxazol-5-yl)methyl nitrate'
_symmetry_cell_setting           orthorhombic
_symmetry_space_group_name_H-M   'F d d 2'
_symmetry_Int_Tables_number      43
_space_group_name_Hall           'F 2 -2d'
loop_
_symmetry_equiv_pos_site_id
_symmetry_equiv_pos_as_xyz
1 x,y,z
2 -x,-y,z
3 1/4-x,1/4+y,1/4+z
4 1/4+x,1/4-y,1/4+z
5 x,1/2+y,1/2+z
6 -x,1/2-y,1/2+z
7 1/4-x,3/4+y,3/4+z
8 1/4+x,3/4-y,3/4+z
9 1/2+x,y,1/2+z
10 1/2-x,-y,1/2+z
11 3/4-x,1/4+y,3/4+z
12 3/4+x,1/4-y,3/4+z
13 1/2+x,1/2+y,z
14 1/2-x,1/2-y,z
15 3/4-x,3/4+y,1/4+z
16 3/4+x,3/4-y,1/4+z
_cell_length_a                   39.5098(15)
_cell_length_b                   11.2536(3)
_cell_length_c                   9.5836(3)
_cell_angle_alpha                90
_cell_angle_beta                 90
_cell_angle_gamma                90
_cell_volume                     4261.13
_exptl_crystal_description       block
_cell_formula_units_Z            16
loop_
_atom_site_label
_atom_site_type_symbol
_atom_site_fract_x
_atom_site_fract_y
_atom_site_fract_z
O1 O 0.60018(5) -0.15740(14) 0.5813(2)
O2 O 0.55575(5) -0.16538(17) 0.8144(2)
F1 F 0.71299(5) 0.34705(18) 0.3127(3)
N1 N 0.62889(6) -0.08937(17) 0.5439(2)
O3 O 0.50294(5) -0.1541(2) 0.7352(4)
N2 N 0.52249(6) -0.2066(2) 0.8070(3)
C1 C 0.63341(7) 0.2078(2) 0.3971(3)
H1 H 0.6103 0.2227 0.3888
C2 C 0.67902(6) 0.0813(2) 0.4697(3)
H2 H 0.6867 0.0115 0.5110
C3 C 0.64429(6) 0.10196(18) 0.4582(2)
C4 C 0.61956(6) 0.01463(19) 0.5064(2)
C5 C 0.58187(6) 0.0328(2) 0.5126(3)
H3 H 0.5721 0.0385 0.4200
H4 H 0.5760 0.1031 0.5659
C6 C 0.56231(7) -0.0571(2) 0.7378(3)
H5 H 0.5810 -0.0151 0.7815
H6 H 0.5425 -0.0064 0.7425
O4 O 0.51803(7) -0.2945(2) 0.8746(3)
C7 C 0.70207(7) 0.1630(3) 0.4205(3)
H7 H 0.7252 0.1489 0.4277
C8 C 0.57088(7) -0.0804(2) 0.5867(3)
H8 H 0.5517 -0.1169 0.5384
C9 C 0.65643(7) 0.2910(2) 0.3486(3)
H9 H 0.6492 0.3620 0.3090
C10 C 0.69019(7) 0.2655(3) 0.3607(3)
loop_
_geom_bond_atom_site_label_1
_geom_bond_atom_site_label_2
_geom_bond_site_symmetry_1
_geom_bond_site_symmetry_2
O1 N1 1_555 1_555
O2 N2 1_555 1_555
F1 C10 1_555 1_555
N1 C4 1_555 1_555
O3 N2 1_555 1_555
N2 O4 1_555 1_555
C1 H1 1_555 1_555
C2 H2 1_555 1_555
C3 C1 1_555 1_555
C4 C3 1_555 1_555
C5 C4 1_555 1_555
H3 C5 1_555 1_555
H4 C5 1_555 1_555
C6 O2 1_555 1_555
H5 C6 1_555 1_555
H6 C6 1_555 1_555
C7 C2 1_555 1_555
H7 C7 1_555 1_555
C8 O1 1_555 1_555
H8 C8 1_555 1_555
C9 C1 1_555 1_555
H9 C9 1_555 1_555
C10 C7 1_555 1_555
C2 C3 1_555 1_555
C5 C8 1_555 1_555
C6 C8 1_555 1_555
C9 C10 1_555 1_555

#END
