
#######################################################################
#
#                 Cambridge Crystallographic Data Centre
#                                CCDC 
#
#######################################################################
#
# If this CIF has been generated from an entry in the Cambridge 
# Structural Database, then it will include bibliographic, chemical, 
# crystal, experimental, refinement or atomic coordinate data resulting 
# from the CCDC's data processing and validation procedures.
#
#######################################################################

data_IRATAY
_chemical_formula_moiety         'C41 H30 Cl1 N3 O2'
_chemical_name_systematic        
4-(4-chlorobenzoyl)-1'-methyl-3-(1-methyl-1H-indol-3-yl)-2-phenyl-3,4-dihydro-2H-spiro[cyclopenta[b]indole-1,3'-indol]-2'(1'H)-one
_symmetry_cell_setting           triclinic
_symmetry_space_group_name_H-M   'P 1'
_symmetry_Int_Tables_number      1
_space_group_name_Hall           'P 1'
loop_
_symmetry_equiv_pos_site_id
_symmetry_equiv_pos_as_xyz
1 x,y,z
_cell_length_a                   8.7190(19)
_cell_length_b                   8.8776(19)
_cell_length_c                   22.310(5)
_cell_angle_alpha                79.563(4)
_cell_angle_beta                 85.457(4)
_cell_angle_gamma                67.868(4)
_cell_volume                     1573.06
_exptl_crystal_colour            colorless
_exptl_crystal_description       block
_cell_formula_units_Z            2
loop_
_atom_site_label
_atom_site_type_symbol
_atom_site_fract_x
_atom_site_fract_y
_atom_site_fract_z
Cl1 Cl 0.53648(18) 0.94518(18) 0.09652(6)
O1 O 0.3108(3) 0.6436(3) 0.41845(13)
O2 O -0.1054(5) 0.7124(4) 0.18530(15)
N1 N -0.0345(5) 0.7483(4) 0.27588(16)
N2 N 0.1628(4) 0.7216(4) 0.50420(16)
N3 N 0.0664(6) 1.2776(5) 0.16978(17)
C1 C 0.1155(6) 0.9438(5) 0.30134(18)
H1 H 0.2366 0.8791 0.2974
C2 C 0.0795(5) 1.0099(5) 0.36268(17)
H2 H -0.0287 1.1050 0.3566
C3 C 0.0414(5) 0.8780(5) 0.41125(18)
C4 C -0.0289(5) 0.8032(5) 0.36978(19)
C5 C 0.0223(5) 0.8287(5) 0.3126(2)
C6 C -0.1287(5) 0.7038(5) 0.3745(2)
C7 C -0.2141(5) 0.6410(5) 0.4211(2)
H3 H -0.2104 0.6575 0.4617
C8 C -0.3049(6) 0.5536(5) 0.4069(2)
H4 H -0.3658 0.5118 0.4382
C9 C -0.3083(6) 0.5263(6) 0.3481(3)
H5 H -0.3717 0.4659 0.3398
C10 C -0.2226(6) 0.5839(5) 0.3013(2)
H6 H -0.2243 0.5626 0.2612
C11 C -0.1330(6) 0.6747(5) 0.3143(2)
C12 C -0.0126(6) 0.7459(5) 0.2136(2)
C13 C 0.1290(6) 0.7871(5) 0.1835(2)
C14 C 0.2857(6) 0.7164(6) 0.2085(2)
H7 H 0.3057 0.6376 0.2449
C15 C 0.4132(6) 0.7611(6) 0.1804(2)
H8 H 0.5214 0.7124 0.1969
C16 C 0.3807(6) 0.8766(6) 0.1284(2)
C17 C 0.2270(7) 0.9437(6) 0.1019(2)
H9 H 0.2079 1.0215 0.0653
C18 C 0.1014(7) 0.8962(6) 0.1293(2)
H10 H -0.0042 0.9385 0.1108
C19 C 0.1915(5) 0.7352(5) 0.4429(2)
C20 C 0.2655(6) 0.5905(5) 0.5489(2)
H11 H 0.2997 0.6379 0.5794
H12 H 0.3638 0.5210 0.5286
H13 H 0.2027 0.5238 0.5689
C21 C 0.0168(5) 0.8481(5) 0.51844(18)
C22 C -0.0461(6) 0.8820(6) 0.5749(2)
H14 H 0.0057 0.8129 0.6111
C23 C -0.1890(6) 1.0217(6) 0.5771(2)
H15 H -0.2361 1.0480 0.6155
C24 C -0.2633(6) 1.1223(6) 0.5246(2)
H16 H -0.3596 1.2181 0.5270
C25 C -0.1977(5) 1.0843(5) 0.4678(2)
H17 H -0.2488 1.1540 0.4316
C26 C -0.0595(5) 0.9462(5) 0.46447(19)
C27 C 0.2007(5) 1.0842(5) 0.37493(17)
C28 C 0.3683(5) 0.9938(5) 0.38176(19)
H18 H 0.4094 0.8783 0.3818
C29 C 0.4772(6) 1.0701(5) 0.3885(2)
H19 H 0.5919 1.0067 0.3941
C30 C 0.4179(6) 1.2389(5) 0.3871(2)
H20 H 0.4923 1.2917 0.3912
C31 C 0.2516(6) 1.3302(5) 0.3797(2)
H21 H 0.2110 1.4461 0.3786
C32 C 0.1437(5) 1.2532(5) 0.37379(18)
H22 H 0.0288 1.3168 0.3689
C33 C 0.0603(6) 1.0805(5) 0.2482(2)
C34 C 0.1586(6) 1.1517(5) 0.2136(2)
H23 H 0.2743 1.1193 0.2190
C35 C 0.1321(8) 1.3724(7) 0.1227(2)
H24 H 0.1043 1.3601 0.0826
H25 H 0.2527 1.3325 0.1263
H26 H 0.0839 1.4889 0.1272
C36 C -0.0929(7) 1.2868(5) 0.1756(2)
C37 C -0.2312(8) 1.3906(7) 0.1411(3)
H27 H -0.2237 1.4708 0.1077
C38 C -0.3784(9) 1.3715(7) 0.1578(3)
H28 H -0.4742 1.4387 0.1346
C39 C -0.3927(8) 1.2579(7) 0.2071(3)
H29 H -0.4979 1.2509 0.2174
C40 C -0.2569(7) 1.1545(6) 0.2418(2)
H30 H -0.2674 1.0767 0.2756
C41 C -0.1034(6) 1.1676(5) 0.2256(2)
Cl2 Cl 0.4536(2) 0.32582(18) 1.00532(7)
O3 O 0.5939(5) 1.0202(5) 0.91553(16)
O4 O 0.5215(4) 0.7285(3) 0.68361(13)
N4 N 0.3955(4) 0.9144(4) 0.60020(16)
N5 N 0.4970(4) 1.0029(4) 0.82681(16)
N6 N 0.0257(5) 0.8311(5) 0.94200(17)
C42 C 0.2874(5) 0.8607(5) 0.80575(18)
H31 H 0.3564 0.7410 0.8074
C43 C 0.1829(5) 0.9263(5) 0.74628(17)
H32 H 0.0895 1.0283 0.7547
C44 C 0.2896(5) 0.9879(5) 0.69584(18)
C45 C 0.3859(5) 1.0409(5) 0.73496(18)
C46 C 0.3966(5) 0.9608(5) 0.79176(19)
C47 C 0.4814(5) 1.1448(5) 0.7294(2)
C48 C 0.5136(5) 1.2561(5) 0.6826(2)
H33 H 0.4732 1.2712 0.6428
C49 C 0.6048(6) 1.3442(5) 0.6947(3)
H34 H 0.6258 1.4219 0.6632
C50 C 0.6662(6) 1.3197(6) 0.7527(3)
H35 H 0.7290 1.3819 0.7599
C51 C 0.6399(6) 1.2092(6) 0.8001(3)
H36 H 0.6839 1.1927 0.8394
C52 C 0.5449(5) 1.1222(5) 0.7877(2)
C53 C 0.5427(6) 0.9451(6) 0.8873(2)
C54 C 0.5261(6) 0.7867(6) 0.9154(2)
C55 C 0.5847(6) 0.6489(6) 0.8871(2)
H37 H 0.6392 0.6520 0.8486
C56 C 0.5628(7) 0.5062(6) 0.9158(2)
H38 H 0.6019 0.4105 0.8970
C57 C 0.4842(6) 0.5039(6) 0.9717(2)
C58 C 0.4279(7) 0.6394(6) 1.0005(2)
H39 H 0.3738 0.6354 1.0391
C59 C 0.4509(6) 0.7799(6) 0.9729(2)
H40 H 0.4155 0.8733 0.9929
C60 C 0.4174(5) 0.8566(5) 0.66137(19)
C61 C 0.5046(6) 0.8344(5) 0.5537(2)
H41 H 0.4399 0.8130 0.5245
H42 H 0.5871 0.7298 0.5726
H43 H 0.5608 0.9060 0.5323
C62 C 0.2607(5) 1.0645(5) 0.5891(2)
C63 C 0.1985(6) 1.1550(5) 0.5334(2)
H44 H 0.2493 1.1223 0.4962
C64 C 0.0571(6) 1.2971(6) 0.5346(2)
H45 H 0.0094 1.3620 0.4972
C65 C -0.0148(6) 1.3455(5) 0.5883(2)
H46 H -0.1112 1.4428 0.5876
C66 C 0.0526(5) 1.2530(5) 0.6440(2)
H47 H 0.0033 1.2868 0.6813
C67 C 0.1911(5) 1.1125(5) 0.64410(19)
C68 C 0.1017(5) 0.8136(5) 0.73427(18)
C69 C 0.1908(5) 0.6495(5) 0.72738(19)
H48 H 0.3084 0.6069 0.7278
C70 C 0.1070(6) 0.5496(5) 0.7199(2)
H49 H 0.1680 0.4389 0.7145
C71 C -0.0628(6) 0.6076(6) 0.7202(2)
H50 H -0.1184 0.5368 0.7154
C72 C -0.1523(5) 0.7678(5) 0.7273(2)
H51 H -0.2699 0.8082 0.7277
C73 C -0.0701(5) 0.8705(5) 0.73410(18)
H52 H -0.1324 0.9816 0.7387
C74 C 0.1801(5) 0.8844(5) 0.86120(19)
C75 C 0.1274(6) 0.7692(6) 0.8953(2)
H53 H 0.1574 0.6599 0.8876
C76 C -0.0517(7) 0.7439(7) 0.9879(2)
H54 H -0.0185 0.7468 1.0285
H55 H -0.0166 0.6291 0.9817
H56 H -0.1724 0.7967 0.9845
C77 C 0.0105(6) 0.9913(6) 0.9384(2)
C78 C -0.0776(6) 1.1054(7) 0.9766(2)
H57 H -0.1418 1.0780 1.0102
C79 C -0.0673(7) 1.2579(7) 0.9635(3)
H58 H -0.1236 1.3371 0.9891
C80 C 0.0236(7) 1.3003(7) 0.9134(3)
H59 H 0.0259 1.4082 0.9052
C81 C 0.1115(6) 1.1869(6) 0.8750(2)
H60 H 0.1730 1.2163 0.8409
C82 C 0.1059(6) 1.0298(5) 0.8883(2)
loop_
_geom_bond_atom_site_label_1
_geom_bond_atom_site_label_2
_geom_bond_site_symmetry_1
_geom_bond_site_symmetry_2
Cl1 C16 1_555 1_555
O1 C19 1_555 1_555
O2 C12 1_555 1_555
N1 C5 1_555 1_555
N2 C19 1_555 1_555
N3 C34 1_555 1_555
C1 H1 1_555 1_555
C2 C1 1_555 1_555
H2 C2 1_555 1_555
C3 C2 1_555 1_555
C4 C3 1_555 1_555
C5 C1 1_555 1_555
C6 C4 1_555 1_555
C7 C6 1_555 1_555
H3 C7 1_555 1_555
C8 C7 1_555 1_555
H4 C8 1_555 1_555
C9 C8 1_555 1_555
H5 C9 1_555 1_555
C10 C9 1_555 1_555
H6 C10 1_555 1_555
C11 N1 1_555 1_555
C12 N1 1_555 1_555
C13 C12 1_555 1_555
C14 C13 1_555 1_555
H7 C14 1_555 1_555
C15 C14 1_555 1_555
H8 C15 1_555 1_555
C16 C15 1_555 1_555
C17 C16 1_555 1_555
H9 C17 1_555 1_555
C18 C13 1_555 1_555
H10 C18 1_555 1_555
C19 C3 1_555 1_555
C20 N2 1_555 1_555
H11 C20 1_555 1_555
H12 C20 1_555 1_555
H13 C20 1_555 1_555
C21 N2 1_555 1_555
C22 C21 1_555 1_555
H14 C22 1_555 1_555
C23 C22 1_555 1_555
H15 C23 1_555 1_555
C24 C23 1_555 1_555
H16 C24 1_555 1_555
C25 C24 1_555 1_555
H17 C25 1_555 1_555
C26 C3 1_555 1_555
C27 C2 1_555 1_555
C28 C27 1_555 1_555
H18 C28 1_555 1_555
C29 C28 1_555 1_555
H19 C29 1_555 1_555
C30 C29 1_555 1_555
H20 C30 1_555 1_555
C31 C30 1_555 1_555
H21 C31 1_555 1_555
C32 C27 1_555 1_555
H22 C32 1_555 1_555
C33 C1 1_555 1_555
C34 C33 1_555 1_555
H23 C34 1_555 1_555
C35 N3 1_555 1_555
H24 C35 1_555 1_555
H25 C35 1_555 1_555
H26 C35 1_555 1_555
C36 N3 1_555 1_555
C37 C36 1_555 1_555
H27 C37 1_555 1_555
C38 C37 1_555 1_555
H28 C38 1_555 1_555
C39 C38 1_555 1_555
H29 C39 1_555 1_555
C40 C39 1_555 1_555
H30 C40 1_555 1_555
C41 C33 1_555 1_555
Cl2 C57 1_555 1_555
O3 C53 1_555 1_555
O4 C60 1_555 1_555
N4 C60 1_555 1_555
N5 C46 1_555 1_555
N6 C75 1_555 1_555
C42 H31 1_555 1_555
C43 C42 1_555 1_555
H32 C43 1_555 1_555
C44 C43 1_555 1_555
C45 C44 1_555 1_555
C46 C42 1_555 1_555
C47 C45 1_555 1_555
C48 C47 1_555 1_555
H33 C48 1_555 1_555
C49 C48 1_555 1_555
H34 C49 1_555 1_555
C50 C49 1_555 1_555
H35 C50 1_555 1_555
C51 C50 1_555 1_555
H36 C51 1_555 1_555
C52 N5 1_555 1_555
C53 N5 1_555 1_555
C54 C53 1_555 1_555
C55 C54 1_555 1_555
H37 C55 1_555 1_555
C56 C55 1_555 1_555
H38 C56 1_555 1_555
C57 C56 1_555 1_555
C58 C57 1_555 1_555
H39 C58 1_555 1_555
C59 C54 1_555 1_555
H40 C59 1_555 1_555
C60 C44 1_555 1_555
C61 N4 1_555 1_555
H41 C61 1_555 1_555
H42 C61 1_555 1_555
H43 C61 1_555 1_555
C62 N4 1_555 1_555
C63 C62 1_555 1_555
H44 C63 1_555 1_555
C64 C63 1_555 1_555
H45 C64 1_555 1_555
C65 C64 1_555 1_555
H46 C65 1_555 1_555
C66 C65 1_555 1_555
H47 C66 1_555 1_555
C67 C44 1_555 1_555
C68 C43 1_555 1_555
C69 C68 1_555 1_555
H48 C69 1_555 1_555
C70 C69 1_555 1_555
H49 C70 1_555 1_555
C71 C70 1_555 1_555
H50 C71 1_555 1_555
C72 C71 1_555 1_555
H51 C72 1_555 1_555
C73 C68 1_555 1_555
H52 C73 1_555 1_555
C74 C42 1_555 1_555
C75 C74 1_555 1_555
H53 C75 1_555 1_555
C76 N6 1_555 1_555
H54 C76 1_555 1_555
H55 C76 1_555 1_555
H56 C76 1_555 1_555
C77 N6 1_555 1_555
C78 C77 1_555 1_555
H57 C78 1_555 1_555
C79 C78 1_555 1_555
H58 C79 1_555 1_555
C80 C79 1_555 1_555
H59 C80 1_555 1_555
C81 C80 1_555 1_555
H60 C81 1_555 1_555
C82 C74 1_555 1_555
C4 C5 1_555 1_555
C6 C11 1_555 1_555
C10 C11 1_555 1_555
C17 C18 1_555 1_555
C21 C26 1_555 1_555
C25 C26 1_555 1_555
C31 C32 1_555 1_555
C36 C41 1_555 1_555
C40 C41 1_555 1_555
C45 C46 1_555 1_555
C47 C52 1_555 1_555
C51 C52 1_555 1_555
C58 C59 1_555 1_555
C62 C67 1_555 1_555
C66 C67 1_555 1_555
C72 C73 1_555 1_555
C77 C82 1_555 1_555
C81 C82 1_555 1_555

#END
