
#######################################################################
#
#                 Cambridge Crystallographic Data Centre
#                                CCDC 
#
#######################################################################
#
# If this CIF has been generated from an entry in the Cambridge 
# Structural Database, then it will include bibliographic, chemical, 
# crystal, experimental, refinement or atomic coordinate data resulting 
# from the CCDC's data processing and validation procedures.
#
#######################################################################

data_IRATIG
_chemical_formula_moiety         'C18 H18 N2 O4 S1'
_chemical_name_systematic        
N-((4'-cyano-5-methylbiphenyl-2-yl)sulfonyl)-2-methylalanine
_symmetry_cell_setting           monoclinic
_symmetry_space_group_name_H-M   'P 21/c'
_symmetry_Int_Tables_number      14
_space_group_name_Hall           '-P 2ybc'
loop_
_symmetry_equiv_pos_site_id
_symmetry_equiv_pos_as_xyz
1 x,y,z
2 -x,1/2+y,1/2-z
3 -x,-y,-z
4 x,1/2-y,1/2+z
_cell_length_a                   11.493(3)
_cell_length_b                   15.667(4)
_cell_length_c                   10.659(2)
_cell_angle_alpha                90
_cell_angle_beta                 111.784(3)
_cell_angle_gamma                90
_cell_volume                     1782.21
_exptl_crystal_colour            colorless
_exptl_crystal_description       block
_cell_formula_units_Z            4
loop_
_atom_site_label
_atom_site_type_symbol
_atom_site_fract_x
_atom_site_fract_y
_atom_site_fract_z
S1 S 0.20625(4) 0.05351(2) 0.56055(3)
O1 O 0.10604(12) 0.05890(8) 0.61090(11)
O2 O 0.15141(12) 0.01252(10) 0.09300(12)
O3 O 0.31813(12) 0.00901(8) 0.64049(12)
O4 O 0.00506(12) -0.03846(11) 0.16205(12)
H1 H -0.0396 -0.0305 0.0827
N1 N 0.14385(12) 0.01214(8) 0.41207(12)
H2 H 0.0633 0.0108 0.3774
C1 C -0.16047(15) 0.15078(11) 0.23742(17)
H3 H -0.2311 0.1341 0.2540
C2 C 0.25067(14) 0.15941(10) 0.53810(15)
C3 C 0.05936(14) 0.19035(10) 0.32044(15)
C4 C -0.16667(15) 0.16183(10) 0.10527(17)
C5 C -0.04778(15) 0.16494(10) 0.34380(16)
H4 H -0.0432 0.1575 0.4321
C6 C 0.22744(16) 0.29493(11) 0.42638(18)
H5 H 0.1823 0.3310 0.3558
C7 C 0.11876(15) -0.01422(10) 0.18242(15)
C8 C 0.21083(15) -0.02392(10) 0.32895(16)
C9 C 0.17992(14) 0.21340(10) 0.43158(15)
C10 C 0.05137(16) 0.19900(11) 0.18653(16)
H6 H 0.1220 0.2149 0.1694
C11 C -0.05970(16) 0.18421(11) 0.08019(16)
H7 H -0.0635 0.1891 -0.0082
C12 C 0.33204(16) 0.02394(14) 0.34734(19)
H8 H 0.3136 0.0832 0.3260
H9 H 0.3694 0.0001 0.2882
H10 H 0.3892 0.0186 0.4393
C13 C 0.40536(17) 0.27028(13) 0.6268(2)
H11 H 0.4796 0.2891 0.6930
C14 C 0.36283(16) 0.18817(12) 0.63478(17)
H12 H 0.4094 0.1523 0.7049
C15 C 0.33947(17) 0.32450(11) 0.52240(19)
C16 C -0.28415(18) 0.15273(13) -0.00751(19)
N2 N -0.37579(17) 0.14855(17) -0.0987(2)
C17 C 0.3864(2) 0.41321(13) 0.5105(2)
H13 H 0.4614 0.4245 0.5873
H14 H 0.3234 0.4544 0.5073
H15 H 0.4040 0.4170 0.4294
C18 C 0.2346(2) -0.11970(13) 0.3590(2)
H16 H 0.1568 -0.1477 0.3465
H17 H 0.2916 -0.1272 0.4506
H18 H 0.2702 -0.1439 0.2986
loop_
_geom_bond_atom_site_label_1
_geom_bond_atom_site_label_2
_geom_bond_site_symmetry_1
_geom_bond_site_symmetry_2
S1 O1 1_555 1_555
O2 C7 1_555 1_555
O3 S1 1_555 1_555
O4 H1 1_555 1_555
N1 S1 1_555 1_555
H2 N1 1_555 1_555
C1 H3 1_555 1_555
C2 S1 1_555 1_555
C3 C5 1_555 1_555
C4 C1 1_555 1_555
C5 C1 1_555 1_555
H4 C5 1_555 1_555
C6 H5 1_555 1_555
C7 O4 1_555 1_555
C8 N1 1_555 1_555
C9 C2 1_555 1_555
C10 C3 1_555 1_555
H6 C10 1_555 1_555
C11 C4 1_555 1_555
H7 C11 1_555 1_555
C12 C8 1_555 1_555
H8 C12 1_555 1_555
H9 C12 1_555 1_555
H10 C12 1_555 1_555
C13 H11 1_555 1_555
C14 C2 1_555 1_555
H12 C14 1_555 1_555
C15 C6 1_555 1_555
C16 C4 1_555 1_555
N2 C16 1_555 1_555
C17 C15 1_555 1_555
H13 C17 1_555 1_555
H14 C17 1_555 1_555
H15 C17 1_555 1_555
C18 C8 1_555 1_555
H16 C18 1_555 1_555
H17 C18 1_555 1_555
H18 C18 1_555 1_555
C3 C9 1_555 1_555
C6 C9 1_555 1_555
C7 C8 1_555 1_555
C10 C11 1_555 1_555
C13 C14 1_555 1_555
C13 C15 1_555 1_555

#END
