
#######################################################################
#
#                 Cambridge Crystallographic Data Centre
#                                CCDC 
#
#######################################################################
#
# If this CIF has been generated from an entry in the Cambridge 
# Structural Database, then it will include bibliographic, chemical, 
# crystal, experimental, refinement or atomic coordinate data resulting 
# from the CCDC's data processing and validation procedures.
#
#######################################################################

data_IREMUP
_chemical_formula_moiety         'C19 H12 Cl1 N3'
_chemical_name_systematic        6-chloro-4-phenyl-2-(pyridin-2-yl)quinazoline
_symmetry_cell_setting           triclinic
_symmetry_space_group_name_H-M   'P -1'
_symmetry_Int_Tables_number      2
_space_group_name_Hall           '-P 1'
loop_
_symmetry_equiv_pos_site_id
_symmetry_equiv_pos_as_xyz
1 x,y,z
2 -x,-y,-z
_cell_length_a                   7.5774(10)
_cell_length_b                   9.8402(14)
_cell_length_c                   11.5850(16)
_cell_angle_alpha                96.481(12)
_cell_angle_beta                 103.287(12)
_cell_angle_gamma                112.462(13)
_cell_volume                     757.323
_exptl_crystal_colour            yellow
_exptl_crystal_description       block
_chemical_melting_point          '487.1 K'
_cell_formula_units_Z            2
loop_
_atom_site_label
_atom_site_type_symbol
_atom_site_fract_x
_atom_site_fract_y
_atom_site_fract_z
Cl1 Cl 0.25481(8) 0.26391(6) 0.39012(6)
N1 N 0.34847(19) 0.61687(15) 0.01450(14)
N2 N 0.69553(19) 0.76104(15) 0.12104(13)
N3 N 0.3751(2) 0.80905(18) -0.13998(14)
C1 C 0.5228(2) 0.72936(18) 0.03177(16)
C2 C 0.6870(2) 0.67504(18) 0.20058(16)
C3 C 0.4771(2) 0.47132(18) 0.28797(17)
H1 H 0.5852 0.4887 0.3543
C4 C 0.2921(3) 0.36289(19) 0.27591(18)
C5 C 0.1271(3) 0.33153(19) 0.1761(2)
H2 H 0.0035 0.2548 0.1691
C6 C 0.1481(2) 0.41338(19) 0.08943(19)
H3 H 0.0385 0.3923 0.0229
C7 C 0.5017(2) 0.55674(17) 0.19823(16)
C8 C 0.3352(2) 0.53039(18) 0.09945(17)
C9 C 0.8775(2) 0.70685(18) 0.29322(15)
C10 C 0.9976(2) 0.85274(19) 0.36049(17)
H4 H 0.9577 0.9296 0.3478
C11 C 1.1760(3) 0.8844(2) 0.44614(18)
H5 H 1.2550 0.9822 0.4918
C12 C 1.2375(3) 0.7722(2) 0.46427(18)
H6 H 1.3581 0.7941 0.5221
C13 C 1.1213(3) 0.6276(2) 0.3972(2)
H7 H 1.1638 0.5519 0.4090
C14 C 0.9403(3) 0.5941(2) 0.31175(19)
H8 H 0.8612 0.4958 0.2669
C15 C 0.5422(2) 0.83111(18) -0.05506(16)
C16 C 0.3923(3) 0.9023(3) -0.21564(19)
H9 H 0.2766 0.8890 -0.2742
C17 C 0.5683(3) 1.0165(2) -0.21338(19)
H10 H 0.5716 1.0779 -0.2690
C18 C 0.7390(3) 1.0377(2) -0.12726(19)
H11 H 0.8616 1.1132 -0.1235
C19 C 0.7256(3) 0.9447(2) -0.04603(18)
H12 H 0.8393 0.9584 0.0145
loop_
_geom_bond_atom_site_label_1
_geom_bond_atom_site_label_2
_geom_bond_site_symmetry_1
_geom_bond_site_symmetry_2
Cl1 C4 1_555 1_555
N1 C1 1_555 1_555
N2 C1 1_555 1_555
N3 C15 1_555 1_555
C1 C15 1_555 1_555
C2 N2 1_555 1_555
C3 H1 1_555 1_555
C4 C3 1_555 1_555
C5 C4 1_555 1_555
H2 C5 1_555 1_555
C6 C5 1_555 1_555
H3 C6 1_555 1_555
C7 C2 1_555 1_555
C8 N1 1_555 1_555
C9 C2 1_555 1_555
C10 C9 1_555 1_555
H4 C10 1_555 1_555
C11 C10 1_555 1_555
H5 C11 1_555 1_555
C12 C11 1_555 1_555
H6 C12 1_555 1_555
C13 C12 1_555 1_555
H7 C13 1_555 1_555
C14 C9 1_555 1_555
H8 C14 1_555 1_555
C15 C19 1_555 1_555
C16 N3 1_555 1_555
H9 C16 1_555 1_555
C17 C16 1_555 1_555
H10 C17 1_555 1_555
C18 C17 1_555 1_555
H11 C18 1_555 1_555
C19 C18 1_555 1_555
H12 C19 1_555 1_555
C3 C7 1_555 1_555
C6 C8 1_555 1_555
C7 C8 1_555 1_555
C13 C14 1_555 1_555

#END
