
#######################################################################
#
#                 Cambridge Crystallographic Data Centre
#                                CCDC 
#
#######################################################################
#
# If this CIF has been generated from an entry in the Cambridge 
# Structural Database, then it will include bibliographic, chemical, 
# crystal, experimental, refinement or atomic coordinate data resulting 
# from the CCDC's data processing and validation procedures.
#
#######################################################################

data_IREQUT
_chemical_formula_moiety         'C4 H4 Br1 O4 1-,C3 H5 N2 1+'
_chemical_name_systematic        
'1H-imidazol-3-ium (-)-2-bromo-3-carboxypropanoate'
_symmetry_cell_setting           monoclinic
_symmetry_space_group_name_H-M   'P 21'
_symmetry_Int_Tables_number      4
_space_group_name_Hall           'P 2yb'
loop_
_symmetry_equiv_pos_site_id
_symmetry_equiv_pos_as_xyz
1 x,y,z
2 -x,1/2+y,-z
_cell_length_a                   7.2825(2)
_cell_length_b                   8.8079(3)
_cell_length_c                   8.0544(2)
_cell_angle_alpha                90
_cell_angle_beta                 108.936(2)
_cell_angle_gamma                90
_cell_volume                     488.678
_exptl_crystal_colour            colorless
_exptl_crystal_description       plate
_chemical_melting_point          '394-396 K'
_cell_formula_units_Z            2
loop_
_atom_site_label
_atom_site_type_symbol
_atom_site_fract_x
_atom_site_fract_y
_atom_site_fract_z
Br1 Br 0.89121(5) 0.80146(3) 0.48256(4)
O1 O 0.7834(4) 1.1415(3) 0.2235(3)
O2 O 0.6760(4) 0.9259(3) 0.0799(3)
O3 O 0.7263(5) 1.0687(3) 0.8168(3)
O4 O 0.5281(5) 0.8916(3) 0.6573(4)
H1 H 0.705(7) 1.020(5) 0.896(5)
C1 C 0.7172(5) 1.0116(4) 0.2139(4)
C2 C 0.6787(5) 0.9470(4) 0.3763(4)
H2 H 0.5517 0.8920 0.3393
C3 C 0.6793(5) 1.0650(4) 0.5127(4)
H3 H 0.5814 1.1438 0.4581
H4 H 0.8081 1.1147 0.5540
C4 C 0.6353(5) 0.9977(4) 0.6683(5)
H5 H 0.716(8) 1.715(4) 0.047(7)
N1 N 0.7984(5) 1.3873(4) 0.0344(4)
H6 H 0.803(6) 1.298(3) 0.069(5)
N2 N 0.7491(5) 1.6284(4) 0.0224(4)
C5 C 0.7520(5) 1.5043(5) 0.1159(5)
H7 H 0.7251 1.5000 0.2236
C6 C 0.8288(6) 1.4374(4) -0.1156(5)
H8 H 0.8654 1.3774 -0.1978
C7 C 0.7963(6) 1.5895(5) -0.1241(5)
H9 H 0.8047 1.6562 -0.2140
loop_
_geom_bond_atom_site_label_1
_geom_bond_atom_site_label_2
_geom_bond_site_symmetry_1
_geom_bond_site_symmetry_2
Br1 C2 1_555 1_555
O1 C1 1_555 1_555
O2 C1 1_555 1_555
O3 H1 1_555 1_555
O4 C4 1_555 1_555
C1 C2 1_555 1_555
C2 H2 1_555 1_555
C3 C2 1_555 1_555
H3 C3 1_555 1_555
H4 C3 1_555 1_555
C4 O3 1_555 1_555
H5 N2 1_555 1_555
N1 H6 1_555 1_555
N2 C5 1_555 1_555
C5 N1 1_555 1_555
H7 C5 1_555 1_555
C6 N1 1_555 1_555
H8 C6 1_555 1_555
C7 N2 1_555 1_555
H9 C7 1_555 1_555
C3 C4 1_555 1_555
C6 C7 1_555 1_555

#END
