
#######################################################################
#
#                 Cambridge Crystallographic Data Centre
#                                CCDC 
#
#######################################################################
#
# If this CIF has been generated from an entry in the Cambridge 
# Structural Database, then it will include bibliographic, chemical, 
# crystal, experimental, refinement or atomic coordinate data resulting 
# from the CCDC's data processing and validation procedures.
#
#######################################################################

data_IREQAZ
_chemical_formula_moiety         'C18 H12 Cl1 F1 O3'
_chemical_name_systematic        
(S)-3-((R)-6-chloro-2-fluoro-1-oxo-1,2,3,4-tetrahydronaphthalen-2-yl)-2-benzofuran-1(3H)-one
_symmetry_cell_setting           orthorhombic
_symmetry_space_group_name_H-M   'P 21 21 21'
_symmetry_Int_Tables_number      19
_space_group_name_Hall           'P 2ac 2ab'
loop_
_symmetry_equiv_pos_site_id
_symmetry_equiv_pos_as_xyz
1 x,y,z
2 1/2-x,-y,1/2+z
3 -x,1/2+y,1/2-z
4 1/2+x,1/2-y,-z
_cell_length_a                   7.958(3)
_cell_length_b                   9.449(3)
_cell_length_c                   19.866(6)
_cell_angle_alpha                90
_cell_angle_beta                 90
_cell_angle_gamma                90
_cell_volume                     1493.83
_exptl_crystal_colour            colorless
_exptl_crystal_description       block
_chemical_melting_point          '129-130 deg.C'
_cell_formula_units_Z            4
loop_
_atom_site_label
_atom_site_type_symbol
_atom_site_fract_x
_atom_site_fract_y
_atom_site_fract_z
C1 C 0.0453(3) 0.2010(3) 0.87780(14)
C2 C -0.0563(4) 0.1265(3) 0.92310(15)
H1 H -0.0112 0.0519 0.9477
C3 C -0.2225(4) 0.1630(3) 0.93148(15)
C4 C -0.2946(4) 0.2725(4) 0.89539(16)
H2 H -0.4070 0.2960 0.9015
C5 C -0.1969(4) 0.3459(3) 0.85033(15)
H3 H -0.2440 0.4193 0.8254
C6 C -0.0273(3) 0.3116(3) 0.84146(13)
C7 C 0.0732(3) 0.3949(3) 0.79356(14)
C8 C 0.2604(3) 0.3569(3) 0.78464(14)
C9 C 0.2953(3) 0.2040(3) 0.80106(13)
H4 H 0.4156 0.1877 0.7997
H5 H 0.2436 0.1444 0.7672
C10 C 0.2284(3) 0.1626(3) 0.87041(14)
H6 H 0.2420 0.0615 0.8768
H7 H 0.2931 0.2106 0.9049
C11 C 0.3218(3) 0.4040(3) 0.71596(13)
H8 H 0.2887 0.5026 0.7082
C12 C 0.2629(3) 0.3140(3) 0.65806(13)
C13 C 0.1031(3) 0.2824(3) 0.63555(14)
H9 H 0.0083 0.3181 0.6570
C14 C 0.0897(4) 0.1955(4) 0.57966(16)
H10 H -0.0164 0.1731 0.5632
C15 C 0.2295(5) 0.1411(4) 0.54779(16)
H11 H 0.2160 0.0835 0.5102
C16 C 0.3887(5) 0.1709(3) 0.57091(16)
H12 H 0.4836 0.1341 0.5499
C17 C 0.4017(3) 0.2574(3) 0.62624(15)
C18 C 0.5533(4) 0.3083(3) 0.66027(18)
Cl1 Cl -0.34442(13) 0.06678(10) 0.98743(5)
F1 F 0.3435(2) 0.44174(17) 0.83305(8)
O1 O 0.0157(3) 0.4934(2) 0.76142(11)
O2 O 0.5047(2) 0.3925(2) 0.71363(11)
O3 O 0.7001(3) 0.2912(3) 0.64777(14)
loop_
_geom_bond_atom_site_label_1
_geom_bond_atom_site_label_2
_geom_bond_site_symmetry_1
_geom_bond_site_symmetry_2
C1 C2 1_555 1_555
C2 H1 1_555 1_555
C3 C2 1_555 1_555
C4 C3 1_555 1_555
H2 C4 1_555 1_555
C5 C4 1_555 1_555
H3 C5 1_555 1_555
C6 C1 1_555 1_555
C7 C6 1_555 1_555
C8 C7 1_555 1_555
C9 C8 1_555 1_555
H4 C9 1_555 1_555
H5 C9 1_555 1_555
C10 C1 1_555 1_555
H6 C10 1_555 1_555
H7 C10 1_555 1_555
C11 C8 1_555 1_555
H8 C11 1_555 1_555
C12 C11 1_555 1_555
C13 C12 1_555 1_555
H9 C13 1_555 1_555
C14 C13 1_555 1_555
H10 C14 1_555 1_555
C15 C14 1_555 1_555
H11 C15 1_555 1_555
C16 C15 1_555 1_555
H12 C16 1_555 1_555
C17 C12 1_555 1_555
C18 C17 1_555 1_555
Cl1 C3 1_555 1_555
F1 C8 1_555 1_555
O1 C7 1_555 1_555
O2 C11 1_555 1_555
O3 C18 1_555 1_555
C5 C6 1_555 1_555
C9 C10 1_555 1_555
C16 C17 1_555 1_555
C18 O2 1_555 1_555

#END
