
#######################################################################
#
#                 Cambridge Crystallographic Data Centre
#                                CCDC 
#
#######################################################################
#
# If this CIF has been generated from an entry in the Cambridge 
# Structural Database, then it will include bibliographic, chemical, 
# crystal, experimental, refinement or atomic coordinate data resulting 
# from the CCDC's data processing and validation procedures.
#
#######################################################################

data_IRERAA
_chemical_formula_moiety         'C4 H4 Cl1 O4 1-,C3 H5 N2 1+'
_chemical_name_systematic        
'1H-imidazol-3-ium (+)-3-carboxy-2-chloropropanoate'
_symmetry_cell_setting           triclinic
_symmetry_space_group_name_H-M   'P 1'
_symmetry_Int_Tables_number      1
_space_group_name_Hall           'P 1'
loop_
_symmetry_equiv_pos_site_id
_symmetry_equiv_pos_as_xyz
1 x,y,z
_cell_length_a                   5.0265(3)
_cell_length_b                   6.1840(3)
_cell_length_c                   8.1859(4)
_cell_angle_alpha                93.095(3)
_cell_angle_beta                 102.264(3)
_cell_angle_gamma                106.883(3)
_cell_volume                     236.098
_exptl_crystal_colour            colorless
_exptl_crystal_description       plate
_chemical_melting_point          '398-401 K'
_cell_formula_units_Z            1
loop_
_atom_site_label
_atom_site_type_symbol
_atom_site_fract_x
_atom_site_fract_y
_atom_site_fract_z
Cl1 Cl 0.25252(11) 0.66227(8) 0.03813(8)
O1 O 0.3477(4) 0.1656(3) -0.1559(2)
O2 O 0.0858(4) 0.3580(3) -0.3008(2)
O3 O 0.2414(4) 0.2433(3) 0.4333(2)
H1 H 0.185(7) 0.282(6) 0.515(4)
O4 O -0.0952(4) 0.3775(4) 0.2911(2)
C1 C 0.1878(5) 0.2853(4) -0.1683(3)
C2 C 0.1007(5) 0.3541(4) -0.0081(3)
H2 H -0.1127 0.3125 -0.0325
C3 C 0.2041(6) 0.2442(4) 0.1426(3)
H3 H 0.4161 0.2960 0.1726
H4 H 0.1392 0.0771 0.1115
C4 C 0.0991(5) 0.2978(4) 0.2953(3)
N1 N 0.5542(5) -0.0986(4) -0.3428(3)
H5 H 0.471(7) -0.020(6) -0.301(4)
N2 N 0.7885(5) -0.3341(4) -0.3674(3)
H6 H 0.8816 -0.4332 -0.3429
C5 C 0.6783(6) -0.2373(5) -0.2628(3)
H7 H 0.6866 -0.2629 -0.1487
C6 C 0.7344(6) -0.2554(5) -0.5212(4)
H8 H 0.7896 -0.2971 -0.6193
C7 C 0.5872(6) -0.1068(5) -0.5052(4)
H9 H 0.5195 -0.0238 -0.5902
loop_
_geom_bond_atom_site_label_1
_geom_bond_atom_site_label_2
_geom_bond_site_symmetry_1
_geom_bond_site_symmetry_2
Cl1 C2 1_555 1_555
O1 C1 1_555 1_555
O2 C1 1_555 1_555
O3 H1 1_555 1_555
O4 C4 1_555 1_555
C1 C2 1_555 1_555
C2 H2 1_555 1_555
C3 C2 1_555 1_555
H3 C3 1_555 1_555
H4 C3 1_555 1_555
C4 O3 1_555 1_555
N1 H5 1_555 1_555
N2 H6 1_555 1_555
C5 N1 1_555 1_555
H7 C5 1_555 1_555
C6 N2 1_555 1_555
H8 C6 1_555 1_555
C7 N1 1_555 1_555
H9 C7 1_555 1_555
C3 C4 1_555 1_555
N2 C5 1_555 1_555
C6 C7 1_555 1_555

#END
