
#######################################################################
#
#                 Cambridge Crystallographic Data Centre
#                                CCDC 
#
#######################################################################
#
# If this CIF has been generated from an entry in the Cambridge 
# Structural Database, then it will include bibliographic, chemical, 
# crystal, experimental, refinement or atomic coordinate data resulting 
# from the CCDC's data processing and validation procedures.
#
#######################################################################

data_IRERII
_chemical_formula_moiety         '2(C10 H8 N2 O2),C4 H5 Br1 O4,C4 H5 Cl1 O4'
_chemical_name_systematic        
"bis(4,4'-bipyridine 1,1'-dioxide) 2-bromosuccinic acid 2-chlorosuccinic acid"
_symmetry_cell_setting           triclinic
_symmetry_space_group_name_H-M   'P 1'
_symmetry_Int_Tables_number      1
_space_group_name_Hall           'P 1'
loop_
_symmetry_equiv_pos_site_id
_symmetry_equiv_pos_as_xyz
1 x,y,z
_cell_length_a                   7.7692(3)
_cell_length_b                   9.6937(5)
_cell_length_c                   10.7311(4)
_cell_angle_alpha                102.275(3)
_cell_angle_beta                 93.038(2)
_cell_angle_gamma                107.620(3)
_cell_volume                     746.659
_exptl_crystal_colour            colorless
_exptl_crystal_description       plate
_chemical_melting_point          '456-458 K'
_cell_formula_units_Z            1
loop_
_atom_site_label
_atom_site_type_symbol
_atom_site_fract_x
_atom_site_fract_y
_atom_site_fract_z
Br1 Br 0.18827(12) 0.32989(10) 0.45237(8)
O1 O 0.4777(6) 0.5245(4) 0.7106(4)
H1 H 0.497(8) 0.578(6) 0.788(3)
C1 C 0.3737(7) 0.3860(6) 0.7019(5)
O2 O 0.2903(5) 0.3408(4) 0.7840(3)
C2 C 0.3601(8) 0.2848(7) 0.5685(5)
H2 H 0.4826 0.3098 0.5378
O3 O 0.1962(5) -0.1093(5) 0.4120(4)
H3 H 0.229(9) -0.172(6) 0.357(5)
C3 C 0.2941(8) 0.1212(7) 0.5670(6)
H4 H 0.1636 0.0911 0.5790
H5 H 0.3625 0.1037 0.6393
O4 O 0.4445(5) 0.0636(4) 0.3784(3)
C4 C 0.3192(7) 0.0249(6) 0.4394(5)
Cl1 Cl 0.8117(2) 0.66996(19) 0.54753(14)
O5 O 0.5361(6) 0.4733(5) 0.2971(4)
H9 H 0.553(9) 0.415(6) 0.230(4)
C7 C 0.6342(9) 0.6132(8) 0.3061(6)
O6 O 0.7150(5) 0.6579(4) 0.2218(4)
C8 C 0.6513(9) 0.7104(7) 0.4409(6)
H10 H 0.5295 0.6851 0.4725
O7 O 0.8108(7) 1.1029(6) 0.5974(5)
H11 H 0.785(10) 1.154(7) 0.664(4)
C9 C 0.7153(9) 0.8728(7) 0.4427(7)
H12 H 0.6476 0.8893 0.3695
H13 H 0.8460 0.9036 0.4315
O8 O 0.5626(5) 0.9310(4) 0.6293(3)
C10 C 0.6886(7) 0.9705(6) 0.5685(5)
N1 N 0.4040(5) 0.1683(4) 0.0344(4)
N2 N -0.1766(6) -0.5776(5) -0.1892(4)
O9 O 0.5189(5) 0.3058(4) 0.0743(3)
C13 C 0.3977(6) 0.0934(6) -0.0895(4)
H17 H 0.4720 0.1416 -0.1453
O10 O -0.2894(5) -0.7163(4) -0.2324(4)
C14 C 0.2840(6) -0.0525(5) -0.1349(4)
H18 H 0.2801 -0.1030 -0.2217
C15 C 0.1737(6) -0.1264(5) -0.0528(4)
C16 C 0.1829(7) -0.0435(6) 0.0736(5)
H19 H 0.1092 -0.0883 0.1313
C17 C 0.2975(8) 0.1023(6) 0.1151(5)
H20 H 0.3015 0.1563 0.2007
C18 C -0.0385(7) -0.5219(6) -0.2547(5)
H21 H -0.0207 -0.5833 -0.3314
C19 C 0.0781(7) -0.3761(6) -0.2114(5)
H22 H 0.1750 -0.3391 -0.2583
C20 C 0.0535(6) -0.2834(5) -0.0993(4)
C21 C -0.0906(6) -0.3462(6) -0.0331(5)
H23 H -0.1104 -0.2876 0.0444
C22 C -0.2038(7) -0.4915(6) -0.0789(5)
H24 H -0.3009 -0.5316 -0.0333
N3 N 1.1803(6) 1.5747(5) 1.1943(4)
N4 N 0.6016(5) 0.8283(5) 0.9723(4)
O11 O 0.4863(5) 0.6910(4) 0.9325(3)
O12 O 1.2925(5) 1.7133(4) 1.2380(4)
C23 C 1.2094(7) 1.4881(6) 1.0849(5)
H25 H 1.3067 1.5280 1.0393
C24 C 1.0968(7) 1.3414(6) 1.0399(5)
H26 H 1.1185 1.2813 0.9641
C25 C 0.9513(7) 1.2810(5) 1.1052(4)
C26 C 0.9246(6) 1.3762(6) 1.2164(5)
H27 H 0.8259 1.3401 1.2622
C27 C 1.0382(6) 1.5191(6) 1.2588(5)
H28 H 1.0184 1.5810 1.3344
C28 C 0.7096(7) 0.8947(6) 0.8920(5)
H29 H 0.7064 0.8406 0.8065
C29 C 0.8239(6) 1.0401(6) 0.9336(4)
H30 H 0.8988 1.0846 0.8762
C30 C 0.8314(6) 1.1232(6) 1.0588(4)
C31 C 0.7202(7) 1.0493(6) 1.1391(4)
H31 H 0.7234 1.1007 1.2255
C32 C 0.6062(6) 0.9038(6) 1.0961(5)
H32 H 0.5315 0.8566 1.1523
Br2? Br 0.1166(7) 0.2359(8) 0.4205(4)
C5? C 0.268(4) 0.155(3) 0.520(2)
H6? H 0.1983 0.1177 0.5886
C6? C 0.424(4) 0.291(3) 0.584(3)
H7? H 0.4626 0.3527 0.5209
H8? H 0.5285 0.2614 0.6108
Cl2? Cl 0.8796(11) 0.7601(12) 0.5849(7)
C11? C 0.743(3) 0.840(3) 0.496(2)
H14? H 0.8186 0.8789 0.4308
C12? C 0.580(4) 0.718(3) 0.421(3)
H15? H 0.4939 0.7616 0.3860
H16? H 0.5172 0.6573 0.4787
loop_
_geom_bond_atom_site_label_1
_geom_bond_atom_site_label_2
_geom_bond_site_symmetry_1
_geom_bond_site_symmetry_2
Br1 C2 1_555 1_555
O1 H1 1_555 1_555
C1 O1 1_555 1_555
O2 C1 1_555 1_555
C2 C1 1_555 1_555
H2 C2 1_555 1_555
O3 H3 1_555 1_555
C3 C2 1_555 1_555
H4 C3 1_555 1_555
H5 C3 1_555 1_555
O4 C4 1_555 1_555
C4 O3 1_555 1_555
Cl1 C8 1_555 1_555
O5 H9 1_555 1_555
C7 O5 1_555 1_555
O6 C7 1_555 1_555
C8 C7 1_555 1_555
H10 C8 1_555 1_555
O7 H11 1_555 1_555
C9 C8 1_555 1_555
H12 C9 1_555 1_555
H13 C9 1_555 1_555
O8 C10 1_555 1_555
C10 O7 1_555 1_555
N1 O9 1_555 1_555
N2 O10 1_555 1_555
C13 N1 1_555 1_555
H17 C13 1_555 1_555
C14 C13 1_555 1_555
H18 C14 1_555 1_555
C15 C14 1_555 1_555
C16 C15 1_555 1_555
H19 C16 1_555 1_555
C17 N1 1_555 1_555
H20 C17 1_555 1_555
C18 N2 1_555 1_555
H21 C18 1_555 1_555
C19 C18 1_555 1_555
H22 C19 1_555 1_555
C20 C15 1_555 1_555
C21 C20 1_555 1_555
H23 C21 1_555 1_555
C22 N2 1_555 1_555
H24 C22 1_555 1_555
N3 O12 1_555 1_555
N4 O11 1_555 1_555
C23 N3 1_555 1_555
H25 C23 1_555 1_555
C24 C23 1_555 1_555
H26 C24 1_555 1_555
C25 C24 1_555 1_555
C26 C25 1_555 1_555
H27 C26 1_555 1_555
C27 N3 1_555 1_555
H28 C27 1_555 1_555
C28 N4 1_555 1_555
H29 C28 1_555 1_555
C29 C28 1_555 1_555
H30 C29 1_555 1_555
C30 C25 1_555 1_555
C31 C30 1_555 1_555
H31 C31 1_555 1_555
C32 N4 1_555 1_555
H32 C32 1_555 1_555
C3 C4 1_555 1_555
C9 C10 1_555 1_555
C16 C17 1_555 1_555
C19 C20 1_555 1_555
C21 C22 1_555 1_555
C26 C27 1_555 1_555
C29 C30 1_555 1_555
C31 C32 1_555 1_555

#END
