
#######################################################################
#
#                 Cambridge Crystallographic Data Centre
#                                CCDC 
#
#######################################################################
#
# If this CIF has been generated from an entry in the Cambridge 
# Structural Database, then it will include bibliographic, chemical, 
# crystal, experimental, refinement or atomic coordinate data resulting 
# from the CCDC's data processing and validation procedures.
#
#######################################################################

data_IRETEE
_chemical_formula_moiety         'C9 H8 N4 S2'
_chemical_name_systematic        bis(Pyrimidin-2-ylthio)methane
_symmetry_cell_setting           monoclinic
_symmetry_space_group_name_H-M   'P 2/c'
_symmetry_Int_Tables_number      13
_space_group_name_Hall           '-P 2yc'
loop_
_symmetry_equiv_pos_site_id
_symmetry_equiv_pos_as_xyz
1 x,y,z
2 -x,y,1/2-z
3 -x,-y,-z
4 x,-y,1/2+z
_cell_length_a                   18.757(4)
_cell_length_b                   3.9876(8)
_cell_length_c                   14.668(3)
_cell_angle_alpha                90
_cell_angle_beta                 112.15(3)
_cell_angle_gamma                90
_cell_volume                     1016.13
_exptl_crystal_colour            colorless
_exptl_crystal_description       block
_cell_formula_units_Z            4
loop_
_atom_site_label
_atom_site_type_symbol
_atom_site_fract_x
_atom_site_fract_y
_atom_site_fract_z
S1 S 0.087114(19) 0.18343(8) 0.27315(2)
N1 N 0.06589(7) 0.1984(3) 0.44353(9)
N2 N 0.17893(7) 0.4565(3) 0.43636(9)
C1 C 0.11238(7) 0.2880(3) 0.39815(10)
C2 C 0.09003(8) 0.2831(4) 0.53926(11)
H1 H 0.0589 0.2246 0.5751
C3 C 0.15795(8) 0.4511(4) 0.58710(11)
H2 H 0.1747 0.5070 0.6549
C4 C 0.20061(8) 0.5345(4) 0.53139(11)
H3 H 0.2475 0.6529 0.5623
C5 C 0.0000 -0.0512(5) 0.2500
H4 H 0.0080 -0.1940 0.3057
S1A S -0.087114(19) 0.18343(8) 0.22685(2)
C1A C -0.11238(7) 0.2880(3) 0.10185(10)
N1A N -0.06589(7) 0.1984(3) 0.05647(9)
C2A C -0.09003(8) 0.2831(4) -0.03926(11)
H1A H -0.0589 0.2246 -0.0751
C3A C -0.15795(8) 0.4511(4) -0.08710(11)
H2A H -0.1747 0.5070 -0.1549
C4A C -0.20061(8) 0.5345(4) -0.03139(11)
N2A N -0.17893(7) 0.4565(3) 0.06364(9)
H3A H -0.2475 0.6529 -0.0623
H4A H -0.0080 -0.1940 0.1943
S2 S 0.412847(18) 0.64950(8) 0.68788(2)
N3 N 0.31843(7) 0.9138(3) 0.76007(9)
N4 N 0.43476(7) 0.6850(3) 0.87861(9)
C6 C 0.38687(8) 0.7582(3) 0.78758(10)
C7 C 0.29717(8) 1.0039(4) 0.83371(12)
H5 H 0.2495 1.1169 0.8185
C8 C 0.34179(9) 0.9393(4) 0.93134(11)
H6 H 0.3256 1.0036 0.9828
C9 C 0.41066(9) 0.7779(4) 0.95046(11)
H7 H 0.4424 0.7301 1.0169
C10 C 0.5000 0.4175(5) 0.7500
H8 H 0.5085 0.2746 0.7024
S2A S 0.587153(18) 0.64950(8) 0.81212(2)
C6A C 0.61313(8) 0.7582(3) 0.71242(10)
N3A N 0.68157(7) 0.9138(3) 0.73993(9)
C7A C 0.70283(8) 1.0039(4) 0.66629(12)
H5A H 0.7505 1.1169 0.6815
C8A C 0.65821(9) 0.9393(4) 0.56866(11)
H6A H 0.6744 1.0036 0.5172
C9A C 0.58934(9) 0.7779(4) 0.54954(11)
N4A N 0.56524(7) 0.6850(3) 0.62139(9)
H7A H 0.5576 0.7301 0.4831
H8A H 0.4915 0.2746 0.7976
loop_
_geom_bond_atom_site_label_1
_geom_bond_atom_site_label_2
_geom_bond_site_symmetry_1
_geom_bond_site_symmetry_2
S1 C1 1_555 1_555
N1 C1 1_555 1_555
N2 C1 1_555 1_555
C2 N1 1_555 1_555
H1 C2 1_555 1_555
C3 C2 1_555 1_555
H2 C3 1_555 1_555
C4 N2 1_555 1_555
H3 C4 1_555 1_555
C5 S1 1_555 1_555
H4 C5 1_555 1_555
S2 C6 1_555 1_555
N3 C6 1_555 1_555
N4 C6 1_555 1_555
C7 N3 1_555 1_555
H5 C7 1_555 1_555
C8 C7 1_555 1_555
H6 C8 1_555 1_555
C9 N4 1_555 1_555
H7 C9 1_555 1_555
C10 S2 1_555 1_555
H8 C10 1_555 1_555
S1A C5 1_555 1_555
C1A S1A 1_555 1_555
N1A C1A 1_555 1_555
C2A N1A 1_555 1_555
H1A C2A 1_555 1_555
C3A C2A 1_555 1_555
H2A C3A 1_555 1_555
C4A C3A 1_555 1_555
N2A C1A 1_555 1_555
H3A C4A 1_555 1_555
H4A C5 1_555 1_555
S2A C10 1_555 1_555
C6A S2A 1_555 1_555
N3A C6A 1_555 1_555
C7A N3A 1_555 1_555
H5A C7A 1_555 1_555
C8A C7A 1_555 1_555
H6A C8A 1_555 1_555
C9A C8A 1_555 1_555
N4A C6A 1_555 1_555
H7A C9A 1_555 1_555
H8A C10 1_555 1_555
C3 C4 1_555 1_555
C8 C9 1_555 1_555
C4A N2A 1_555 1_555
C9A N4A 1_555 1_555

#END
