
#######################################################################
#
#                 Cambridge Crystallographic Data Centre
#                                CCDC 
#
#######################################################################
#
# If this CIF has been generated from an entry in the Cambridge 
# Structural Database, then it will include bibliographic, chemical, 
# crystal, experimental, refinement or atomic coordinate data resulting 
# from the CCDC's data processing and validation procedures.
#
#######################################################################

data_IREYOU
_chemical_name_common            
(1,1',1''-(nitrilo)tris(2-methylpropan-2-olato)-N,O,O',O'')-boron
_chemical_formula_moiety         'C12 H24 B1 N1 O3'
_chemical_name_systematic        
3,3,7,7,10,10-Hexamethyl-2,8,9-trioxa-5-azonia-1-boratricyclo[3.3.3.0^1,5^]undecan-1-ide
_symmetry_cell_setting           monoclinic
_symmetry_space_group_name_H-M   'P 21/n'
_symmetry_Int_Tables_number      14
_space_group_name_Hall           '-P 2yn'
loop_
_symmetry_equiv_pos_site_id
_symmetry_equiv_pos_as_xyz
1 x,y,z
2 1/2-x,1/2+y,1/2-z
3 -x,-y,-z
4 1/2+x,1/2-y,1/2+z
_cell_length_a                   9.0150(18)
_cell_length_b                   16.032(3)
_cell_length_c                   10.349(2)
_cell_angle_alpha                90
_cell_angle_beta                 111.14(3)
_cell_angle_gamma                90
_cell_volume                     1395.07
_exptl_crystal_colour            colorless
_cell_formula_units_Z            4
_exptl_crystal_recrystallization_method hexane
loop_
_atom_site_label
_atom_site_type_symbol
_atom_site_fract_x
_atom_site_fract_y
_atom_site_fract_z
B1 B 0.37786(12) 0.26551(6) 0.75439(10)
N1 N 0.48474(9) 0.26203(4) 0.92311(8)
O1 O 0.44680(8) 0.20048(4) 0.69708(6)
C1 C 0.52042(11) 0.13876(5) 0.80050(10)
C2 C 0.59286(11) 0.18900(5) 0.93644(9)
H1 H 0.5983 0.1550 1.0155
H2 H 0.6993 0.2077 0.9483
C3 C 0.39854(12) 0.07362(5) 0.80595(11)
H3 H 0.3145 0.1007 0.8264
H4 H 0.4496 0.0334 0.8769
H5 H 0.3551 0.0459 0.7180
C4 C 0.65161(13) 0.09598(6) 0.76502(12)
H6 H 0.6054 0.0645 0.6811
H7 H 0.7098 0.0591 0.8391
H8 H 0.7224 0.1373 0.7526
O2 O 0.40327(8) 0.34924(4) 0.71552(7)
C5 C 0.54903(11) 0.38263(5) 0.80966(10)
C6 C 0.56751(11) 0.34478(5) 0.95255(9)
H9 H 0.6790 0.3377 1.0088
H10 H 0.5192 0.3809 1.0015
C7 C 0.68869(12) 0.36025(6) 0.76555(11)
H11 H 0.6941 0.3008 0.7573
H12 H 0.7859 0.3801 0.8338
H13 H 0.6739 0.3858 0.6779
C8 C 0.53275(12) 0.47717(6) 0.81244(11)
H14 H 0.5185 0.4995 0.7227
H15 H 0.6271 0.5004 0.8800
H16 H 0.4424 0.4911 0.8364
O3 O 0.21795(8) 0.24823(4) 0.74876(6)
C9 C 0.20067(11) 0.27137(5) 0.87598(9)
C10 C 0.36329(11) 0.25029(5) 0.98855(9)
H17 H 0.3848 0.2871 1.0676
H18 H 0.3643 0.1931 1.0197
C11 C 0.15739(12) 0.36387(6) 0.87407(10)
H19 H 0.2402 0.3971 0.8623
H20 H 0.1457 0.3783 0.9599
H21 H 0.0591 0.3742 0.7987
C12 C 0.06894(12) 0.21870(6) 0.89493(11)
H22 H -0.0302 0.2307 0.8216
H23 H 0.0603 0.2317 0.9825
H24 H 0.0938 0.1606 0.8926
loop_
_geom_bond_atom_site_label_1
_geom_bond_atom_site_label_2
_geom_bond_site_symmetry_1
_geom_bond_site_symmetry_2
B1 N1 1_555 1_555
N1 C2 1_555 1_555
O1 B1 1_555 1_555
C1 O1 1_555 1_555
C2 C1 1_555 1_555
H1 C2 1_555 1_555
H2 C2 1_555 1_555
C3 C1 1_555 1_555
H3 C3 1_555 1_555
H4 C3 1_555 1_555
H5 C3 1_555 1_555
C4 C1 1_555 1_555
H6 C4 1_555 1_555
H7 C4 1_555 1_555
H8 C4 1_555 1_555
O2 B1 1_555 1_555
C5 O2 1_555 1_555
C6 N1 1_555 1_555
H9 C6 1_555 1_555
H10 C6 1_555 1_555
C7 C5 1_555 1_555
H11 C7 1_555 1_555
H12 C7 1_555 1_555
H13 C7 1_555 1_555
C8 C5 1_555 1_555
H14 C8 1_555 1_555
H15 C8 1_555 1_555
H16 C8 1_555 1_555
O3 B1 1_555 1_555
C9 O3 1_555 1_555
C10 N1 1_555 1_555
H17 C10 1_555 1_555
H18 C10 1_555 1_555
C11 C9 1_555 1_555
H19 C11 1_555 1_555
H20 C11 1_555 1_555
H21 C11 1_555 1_555
C12 C9 1_555 1_555
H22 C12 1_555 1_555
H23 C12 1_555 1_555
H24 C12 1_555 1_555
C5 C6 1_555 1_555
C9 C10 1_555 1_555

#END
