
#######################################################################
#
#                 Cambridge Crystallographic Data Centre
#                                CCDC 
#
#######################################################################
#
# If this CIF has been generated from an entry in the Cambridge 
# Structural Database, then it will include bibliographic, chemical, 
# crystal, experimental, refinement or atomic coordinate data resulting 
# from the CCDC's data processing and validation procedures.
#
#######################################################################

data_IREYUA
_chemical_name_common            
(1,1'-((2-Oxidoethyl)imino)bis(2-methylpropan-2-olato)-N,O,O',O'')-boron
_chemical_formula_moiety         'C10 H20 B1 N1 O3'
_chemical_name_systematic        
3,3,7,7-Tetramethyl-2,8,9-trioxa-5-azonia-1-boratricyclo[3.3.3.0^1,5^]undecan-1-ide
_symmetry_cell_setting           monoclinic
_symmetry_space_group_name_H-M   'C 2/c'
_symmetry_Int_Tables_number      15
_space_group_name_Hall           '-C 2yn'
loop_
_symmetry_equiv_pos_site_id
_symmetry_equiv_pos_as_xyz
1 x,y,z
2 -x,y,1/2-z
3 1/2+x,1/2+y,z
4 1/2-x,1/2+y,1/2-z
5 -x,-y,-z
6 x,-y,1/2+z
7 1/2-x,1/2-y,-z
8 1/2+x,1/2-y,1/2+z
_cell_length_a                   34.255(4)
_cell_length_b                   6.6592(7)
_cell_length_c                   11.9618(14)
_cell_angle_alpha                90
_cell_angle_beta                 95.062(8)
_cell_angle_gamma                90
_cell_volume                     2717.97
_exptl_crystal_colour            colorless
_cell_formula_units_Z            8
_exptl_crystal_recrystallization_method hexane
loop_
_atom_site_label
_atom_site_type_symbol
_atom_site_fract_x
_atom_site_fract_y
_atom_site_fract_z
B1 B 0.1244(3) 0.0406(12) 0.3172(6)
N1 N 0.12972(15) 0.1913(8) 0.4306(4)
O1 O 0.16357(13) 0.0140(6) 0.2882(4)
C1 C 0.1909(2) 0.0426(11) 0.3825(7)
C2 C 0.1726(2) 0.2075(12) 0.4521(6)
H1 H 0.1804 0.1886 0.5314
H2 H 0.1814 0.3391 0.4301
C3 C 0.1975(3) -0.1518(12) 0.4490(7)
H3 H 0.1731 -0.1952 0.4751
H4 H 0.2163 -0.1290 0.5121
H5 H 0.2071 -0.2536 0.4017
C4 C 0.2296(2) 0.1130(15) 0.3411(8)
H6 H 0.2389 0.0138 0.2916
H7 H 0.2487 0.1314 0.4041
H8 H 0.2256 0.2378 0.3017
O2 O 0.09816(13) 0.1531(6) 0.2399(4)
C5 C 0.1016(2) 0.3679(10) 0.2624(5)
C6 C 0.1075(2) 0.3780(10) 0.3917(6)
H9 H 0.1223 0.4971 0.4154
H10 H 0.0824 0.3828 0.4233
C7 C 0.1355(2) 0.4546(12) 0.2035(6)
H11 H 0.1595 0.3924 0.2327
H12 H 0.1370 0.5968 0.2164
H13 H 0.1312 0.4292 0.1244
C8 C 0.0631(2) 0.4681(11) 0.2216(6)
H14 H 0.0588 0.4549 0.1416
H15 H 0.0642 0.6078 0.2414
H16 H 0.0420 0.4049 0.2561
O3 O 0.10604(13) -0.1346(6) 0.3610(4)
C9 C 0.0836(2) -0.0710(10) 0.4490(6)
H17 H 0.0768 -0.1844 0.4944
H18 H 0.0596 -0.0058 0.4187
C10 C 0.1098(2) 0.0761(10) 0.5183(6)
H19 H 0.0944 0.1649 0.5615
H20 H 0.1287 0.0058 0.5691
loop_
_geom_bond_atom_site_label_1
_geom_bond_atom_site_label_2
_geom_bond_site_symmetry_1
_geom_bond_site_symmetry_2
B1 N1 1_555 1_555
N1 C2 1_555 1_555
O1 B1 1_555 1_555
C1 O1 1_555 1_555
C2 C1 1_555 1_555
H1 C2 1_555 1_555
H2 C2 1_555 1_555
C3 C1 1_555 1_555
H3 C3 1_555 1_555
H4 C3 1_555 1_555
H5 C3 1_555 1_555
C4 C1 1_555 1_555
H6 C4 1_555 1_555
H7 C4 1_555 1_555
H8 C4 1_555 1_555
O2 B1 1_555 1_555
C5 O2 1_555 1_555
C6 N1 1_555 1_555
H9 C6 1_555 1_555
H10 C6 1_555 1_555
C7 C5 1_555 1_555
H11 C7 1_555 1_555
H12 C7 1_555 1_555
H13 C7 1_555 1_555
C8 C5 1_555 1_555
H14 C8 1_555 1_555
H15 C8 1_555 1_555
H16 C8 1_555 1_555
O3 B1 1_555 1_555
C9 O3 1_555 1_555
H17 C9 1_555 1_555
H18 C9 1_555 1_555
C10 N1 1_555 1_555
H19 C10 1_555 1_555
H20 C10 1_555 1_555
C5 C6 1_555 1_555
C9 C10 1_555 1_555

#END
