
#######################################################################
#
#                 Cambridge Crystallographic Data Centre
#                                CCDC 
#
#######################################################################
#
# If this CIF has been generated from an entry in the Cambridge 
# Structural Database, then it will include bibliographic, chemical, 
# crystal, experimental, refinement or atomic coordinate data resulting 
# from the CCDC's data processing and validation procedures.
#
#######################################################################

data_IRICOD
_chemical_compound_source        'Dioscorea collettii. HK. f'
_chemical_name_common            'Diocollettines A'
_chemical_formula_moiety         'C22 H24 O4'
_chemical_name_systematic        
'(2aS,4aS,6S,7aS,7bR)-6-phenethyl-7a-phenyltetrahydro- 2H,6H-1,4,7-trioxacyclopenta[cd]inden-2a(3H)-ol'
_chemical_properties_biological  
'moderate cytotoxic activity with IC50 = 20.15  M against human lung cancer NCL-H460 cell lines'
_symmetry_cell_setting           triclinic
_symmetry_space_group_name_H-M   'P 1'
_symmetry_Int_Tables_number      1
_space_group_name_Hall           'P 1'
loop_
_symmetry_equiv_pos_site_id
_symmetry_equiv_pos_as_xyz
1 x,y,z
_cell_length_a                   5.65102(15)
_cell_length_b                   7.3176(2)
_cell_length_c                   10.9437(3)
_cell_angle_alpha                84.486(3)
_cell_angle_beta                 84.613(2)
_cell_angle_gamma                80.474(3)
_cell_volume                     442.834
_exptl_crystal_colour            colorless
_exptl_crystal_description       plate
_cell_formula_units_Z            1
loop_
_atom_site_label
_atom_site_type_symbol
_atom_site_fract_x
_atom_site_fract_y
_atom_site_fract_z
O1 O 0.5972(2) 0.46231(18) 0.52531(11)
O2 O 0.4125(2) 0.22871(19) 0.62699(12)
O3 O 0.7899(3) -0.0270(2) 0.45489(12)
O4 O 0.8603(3) -0.0818(2) 0.77649(13)
C1 C 0.8354(3) 0.1668(3) 0.60893(16)
H1 H 0.9739 0.1923 0.6516
C2 C 0.6179(3) 0.3228(3) 0.62317(16)
C3 C 0.4719(3) 0.0553(3) 0.6973(2)
H2 H 0.3772 -0.0368 0.6744
H3 H 0.4364 0.0710 0.7864
C4 C 0.7428(3) -0.0105(3) 0.66815(16)
C5 C 0.7988(4) -0.1436(3) 0.56642(19)
H4 H 0.9604 -0.2190 0.5725
H5 H 0.6778 -0.2282 0.5716
C6 C 0.9143(3) 0.1219(3) 0.47517(17)
H6 H 1.0914 0.0760 0.4682
C7 C 0.8586(4) 0.2818(3) 0.37869(18)
H7 H 0.8671 0.2322 0.2971
H8 H 0.9822 0.3639 0.3756
C8 C 0.6120(3) 0.3952(3) 0.40423(17)
H9 H 0.4843 0.3168 0.4002
C9 C 0.5698(4) 0.5680(3) 0.31451(17)
H10 H 0.6996 0.6422 0.3194
H11 H 0.5831 0.5281 0.2299
C10 C 0.3282(4) 0.6930(3) 0.3360(2)
H12 H 0.1972 0.6182 0.3365
H13 H 0.3187 0.7423 0.4177
C11 C 0.2910(3) 0.8541(3) 0.23828(16)
C12 C 0.4416(4) 0.9874(3) 0.2254(2)
H14 H 0.5625 0.9804 0.2812
C13 C 0.4188(4) 1.1311(3) 0.1324(2)
H15 H 0.5250 1.2203 0.1245
C14 C 0.2417(4) 1.1446(4) 0.0514(2)
H16 H 0.2268 1.2420 -0.0128
C15 C 0.0871(4) 1.0154(4) 0.06448(19)
H17 H -0.0367 1.0251 0.0101
C16 C 0.1117(4) 0.8710(3) 0.15705(19)
H18 H 0.0045 0.7825 0.1650
C17 C 0.6025(3) 0.4257(3) 0.73930(16)
C18 C 0.7800(4) 0.4011(3) 0.82144(19)
H19 H 0.9237 0.3158 0.8065
C19 C 0.7490(4) 0.5007(4) 0.92578(19)
H20 H 0.8711 0.4815 0.9818
C20 C 0.5442(4) 0.6260(3) 0.94835(18)
H21 H 0.5255 0.6947 1.0189
C21 C 0.3639(4) 0.6516(3) 0.86714(19)
H22 H 0.2209 0.7376 0.8823
C22 C 0.3937(3) 0.5516(3) 0.76438(18)
H23 H 0.2694 0.5690 0.7097
H24 H 0.783(7) -0.180(5) 0.816(3)
loop_
_geom_bond_atom_site_label_1
_geom_bond_atom_site_label_2
_geom_bond_site_symmetry_1
_geom_bond_site_symmetry_2
O1 C2 1_555 1_555
O2 C2 1_555 1_555
O3 C5 1_555 1_555
O4 C4 1_555 1_555
C1 H1 1_555 1_555
C2 C1 1_555 1_555
C3 O2 1_555 1_555
H2 C3 1_555 1_555
H3 C3 1_555 1_555
C4 C1 1_555 1_555
C5 C4 1_555 1_555
H4 C5 1_555 1_555
H5 C5 1_555 1_555
C6 O3 1_555 1_555
H6 C6 1_555 1_555
C7 C6 1_555 1_555
H7 C7 1_555 1_555
H8 C7 1_555 1_555
C8 O1 1_555 1_555
H9 C8 1_555 1_555
C9 C8 1_555 1_555
H10 C9 1_555 1_555
H11 C9 1_555 1_555
C10 C9 1_555 1_555
H12 C10 1_555 1_555
H13 C10 1_555 1_555
C11 C10 1_555 1_555
C12 C11 1_555 1_555
H14 C12 1_555 1_555
C13 C12 1_555 1_555
H15 C13 1_555 1_555
C14 C13 1_555 1_555
H16 C14 1_555 1_555
C15 C14 1_555 1_555
H17 C15 1_555 1_555
C16 C11 1_555 1_555
H18 C16 1_555 1_555
C17 C2 1_555 1_555
C18 C17 1_555 1_555
H19 C18 1_555 1_555
C19 C18 1_555 1_555
H20 C19 1_555 1_555
C20 C19 1_555 1_555
H21 C20 1_555 1_555
C21 C20 1_555 1_555
H22 C21 1_555 1_555
C22 C17 1_555 1_555
H23 C22 1_555 1_555
H24 O4 1_555 1_555
C1 C6 1_555 1_555
C3 C4 1_555 1_555
C7 C8 1_555 1_555
C15 C16 1_555 1_555
C21 C22 1_555 1_555

#END
