
#######################################################################
#
#                 Cambridge Crystallographic Data Centre
#                                CCDC 
#
#######################################################################
#
# If this CIF has been generated from an entry in the Cambridge 
# Structural Database, then it will include bibliographic, chemical, 
# crystal, experimental, refinement or atomic coordinate data resulting 
# from the CCDC's data processing and validation procedures.
#
#######################################################################

data_IRIJAV
_chemical_name_common            
(5S,5aR,9aS,11aR)-Octahydro-5-hydroxy-9a-methyl-9,10-dioxa-3a-azacyclopenta[a]benzo[e]pentalene-4-one
_chemical_formula_moiety         'C13 H19 N1 O4'
_chemical_name_systematic        
(1R,4S,9R,10S)-10-Hydroxy-4-methyl-3,5-dioxa-12-azatetracyclo[7,6,0.0^1,12^.0^4,9^]pentadecan-11-one
_symmetry_cell_setting           trigonal
_symmetry_space_group_name_H-M   'P 32 2 1'
_symmetry_Int_Tables_number      154
_space_group_name_Hall           'P 32 2"'
loop_
_symmetry_equiv_pos_site_id
_symmetry_equiv_pos_as_xyz
1 x,y,z
2 -y,x-y,2/3+z
3 -x+y,-x,1/3+z
4 y,x,-z
5 x-y,-y,1/3-z
6 -x,-x+y,2/3-z
_cell_length_a                   7.5560(2)
_cell_length_b                   7.5560(2)
_cell_length_c                   38.6321(11)
_cell_angle_alpha                90
_cell_angle_beta                 90
_cell_angle_gamma                120
_cell_volume                     1910.13
_exptl_crystal_colour            colorless
_chemical_melting_point          '185-187 deg.C (dec.)'
_cell_formula_units_Z            6
loop_
_atom_site_label
_atom_site_type_symbol
_atom_site_fract_x
_atom_site_fract_y
_atom_site_fract_z
O1 O 0.8802(3) 0.6023(3) -0.00834(3)
O2 O 1.1109(2) 0.7147(2) 0.11040(4)
O3 O 0.8805(2) 0.4551(2) 0.14351(3)
O4 O 0.6175(2) 0.5926(3) 0.04738(4)
H1 H 0.6276 0.6866 0.0353
N1 N 1.0121(3) 0.4908(3) 0.03360(4)
C1 C 1.0911(4) 0.3820(4) 0.01343(5)
H2 H 1.2252 0.4755 0.0040
H3 H 0.9995 0.3059 -0.0054
C2 C 1.1023(4) 0.2392(4) 0.03994(6)
H4 H 1.2409 0.2941 0.0484
H5 H 1.0571 0.1056 0.0299
C3 C 0.9604(3) 0.2248(3) 0.06912(5)
H6 H 0.8199 0.1231 0.0640
H7 H 1.0000 0.1902 0.0908
C4 C 0.9868(3) 0.4378(3) 0.07056(4)
C5 C 1.1710(3) 0.5886(4) 0.09247(5)
H8 H 1.2082 0.5151 0.1088
H9 H 1.2877 0.6710 0.0777
C6 C 0.8992(3) 0.5941(3) 0.11685(5)
C7 C 0.6746(3) 0.2969(3) 0.15009(5)
H10 H 0.5916 0.3577 0.1558
H11 H 0.6723 0.2157 0.1697
C8 C 0.5870(4) 0.1617(3) 0.11885(5)
H12 H 0.4452 0.0607 0.1231
H13 H 0.6615 0.0901 0.1145
C9 C 0.6016(3) 0.2891(3) 0.08725(5)
H14 H 0.5684 0.2044 0.0667
H15 H 0.5011 0.3326 0.0894
C10 C 0.8122(3) 0.4769(3) 0.08267(5)
C11 C 0.8127(3) 0.6198(3) 0.05356(5)
H16 H 0.9049 0.7622 0.0603
C12 C 0.9009(3) 0.5701(3) 0.02223(5)
C13 C 0.8215(5) 0.7341(4) 0.12912(7)
H17 H 0.8883 0.7988 0.1504
H18 H 0.6766 0.6555 0.1328
H19 H 0.8505 0.8366 0.1119
loop_
_geom_bond_atom_site_label_1
_geom_bond_atom_site_label_2
_geom_bond_site_symmetry_1
_geom_bond_site_symmetry_2
O1 C12 1_555 1_555
O2 C5 1_555 1_555
O3 C6 1_555 1_555
O4 H1 1_555 1_555
N1 C1 1_555 1_555
C1 H2 1_555 1_555
H3 C1 1_555 1_555
C2 C1 1_555 1_555
H4 C2 1_555 1_555
H5 C2 1_555 1_555
C3 C2 1_555 1_555
H6 C3 1_555 1_555
H7 C3 1_555 1_555
C4 N1 1_555 1_555
C5 C4 1_555 1_555
H8 C5 1_555 1_555
H9 C5 1_555 1_555
C6 O2 1_555 1_555
C7 O3 1_555 1_555
H10 C7 1_555 1_555
H11 C7 1_555 1_555
C8 C7 1_555 1_555
H12 C8 1_555 1_555
H13 C8 1_555 1_555
C9 C8 1_555 1_555
H14 C9 1_555 1_555
H15 C9 1_555 1_555
C10 C4 1_555 1_555
C11 O4 1_555 1_555
H16 C11 1_555 1_555
C12 N1 1_555 1_555
C13 C6 1_555 1_555
H17 C13 1_555 1_555
H18 C13 1_555 1_555
H19 C13 1_555 1_555
C3 C4 1_555 1_555
C6 C10 1_555 1_555
C9 C10 1_555 1_555
C10 C11 1_555 1_555
C11 C12 1_555 1_555

#END
