
#######################################################################
#
#                 Cambridge Crystallographic Data Centre
#                                CCDC 
#
#######################################################################
#
# If this CIF has been generated from an entry in the Cambridge 
# Structural Database, then it will include bibliographic, chemical, 
# crystal, experimental, refinement or atomic coordinate data resulting 
# from the CCDC's data processing and validation procedures.
#
#######################################################################

data_IRINEC
_chemical_formula_moiety         'C18 H23 N1'
_chemical_name_systematic        
exo,exo-6-(4-Cyanophenyl)-3-n-pentylbicyclo(3.1.0)hexane
_symmetry_cell_setting           triclinic
_symmetry_space_group_name_H-M   'P -1'
_symmetry_Int_Tables_number      2
_space_group_name_Hall           '-P 1'
loop_
_symmetry_equiv_pos_site_id
_symmetry_equiv_pos_as_xyz
1 x,y,z
2 -x,-y,-z
_cell_length_a                   9.7909(4)
_cell_length_b                   11.8250(5)
_cell_length_c                   14.2577(6)
_cell_angle_alpha                104.734(1)
_cell_angle_beta                 103.126(1)
_cell_angle_gamma                97.423(1)
_cell_volume                     1523.79
_exptl_crystal_colour            colorless
_exptl_crystal_description       plate
_chemical_melting_point          34-35deg.C
_cell_formula_units_Z            4
_exptl_crystal_recrystallization_method 'diethyl ether/hexane'
_exptl_crystal_preparation       'liquid crystal properties'
loop_
_atom_site_label
_atom_site_type_symbol
_atom_site_fract_x
_atom_site_fract_y
_atom_site_fract_z
N1 N 0.76559(14) -0.36524(12) 0.34087(11)
C1 C 0.45465(13) 0.11620(11) 0.11588(9)
C2 C 0.41138(13) 0.23566(11) 0.12223(10)
C3 C 0.25380(12) 0.21617(11) 0.12469(9)
C4 C 0.19382(13) 0.08467(11) 0.06275(9)
C5 C 0.31938(13) 0.02254(11) 0.07877(9)
C6 C 0.41127(12) 0.04957(11) 0.18635(9)
C7 C 0.49264(12) -0.03864(10) 0.21705(9)
C8 C 0.52357(12) -0.03879(11) 0.31762(9)
C9 C 0.59488(12) -0.12195(11) 0.34962(10)
C10 C 0.63665(13) -0.20720(11) 0.28063(10)
C11 C 0.61035(15) -0.20671(13) 0.18050(10)
C12 C 0.53945(15) -0.12273(12) 0.14983(10)
C13 C 0.17074(13) 0.30539(11) 0.08981(9)
C14 C 0.01666(14) 0.28778(12) 0.09638(10)
C15 C -0.06139(14) 0.38492(12) 0.07339(10)
C16 C -0.21381(18) 0.36909(16) 0.08183(16)
C17 C -0.2912(2) 0.46518(18) 0.05768(18)
C18 C 0.70835(14) -0.29571(13) 0.31371(11)
H1 H 0.5411(15) 0.0995(11) 0.0954(10)
H2 H 0.4196(14) 0.2589(11) 0.0592(10)
H3 H 0.4720(14) 0.3016(12) 0.1804(10)
H4 H 0.2510(13) 0.2255(11) 0.1966(10)
H5 H 0.1589(14) 0.0782(12) -0.0110(10)
H6 H 0.1103(15) 0.0480(12) 0.0818(10)
H7 H 0.3140(14) -0.0570(12) 0.0336(10)
H8 H 0.3761(13) 0.0943(11) 0.2381(10)
H9 H 0.4937(13) 0.0201(11) 0.3654(10)
H10 H 0.6135(15) -0.1226(12) 0.4198(11)
H11 H 0.6401(16) -0.2675(14) 0.1299(12)
H12 H 0.5241(15) -0.1245(13) 0.0782(12)
H13 H 0.1732(14) 0.2988(12) 0.0167(11)
H14 H 0.2210(15) 0.3879(13) 0.1312(11)
H15 H -0.0366(15) 0.2071(13) 0.0494(11)
H16 H 0.0195(15) 0.2878(13) 0.1683(12)
H17 H -0.0074(15) 0.4649(13) 0.1206(11)
H18 H -0.0600(14) 0.3902(12) 0.0064(11)
H19 H -0.265(2) 0.2903(17) 0.0357(14)
H20 H -0.210(2) 0.3701(18) 0.1537(16)
H21 H -0.387(2) 0.4589(15) 0.0684(13)
H22 H -0.299(2) 0.4642(17) -0.0119(15)
H23 H -0.236(2) 0.5468(18) 0.1040(14)
N2 N 0.40486(13) 0.21538(10) 0.44415(8)
C19 C 0.23486(12) 0.80744(10) 0.36119(9)
C20 C 0.16280(13) 0.91343(11) 0.37877(9)
C21 C 0.04076(13) 0.88924(11) 0.28243(9)
C22 C 0.09566(15) 0.81411(12) 0.19856(9)
C23 C 0.19461(13) 0.74599(11) 0.24977(9)
C24 C 0.13905(12) 0.68349(10) 0.31874(9)
C25 C 0.19868(12) 0.58252(10) 0.34308(8)
C26 C 0.33878(13) 0.56907(11) 0.34276(9)
C27 C 0.39393(13) 0.47630(11) 0.36934(9)
C28 C 0.30857(13) 0.39435(10) 0.39793(8)
C29 C 0.16929(13) 0.40638(11) 0.39933(9)
C30 C 0.11495(13) 0.49886(11) 0.37132(9)
C31 C -0.00813(14) 0.99984(12) 0.26229(9)
C32 C -0.06102(13) 1.07269(11) 0.34641(9)
C33 C -0.14446(13) 1.16410(11) 0.31661(9)
C34 C -0.19187(13) 1.23881(11) 0.40287(9)
C35 C -0.28141(14) 1.32571(13) 0.37241(11)
C36 C 0.36333(13) 0.29581(11) 0.42460(9)
H24 H 0.3307(13) 0.8113(11) 0.4042(9)
H25 H 0.2330(15) 0.9890(12) 0.3870(10)
H26 H 0.1304(15) 0.9280(12) 0.4381(11)
H27 H -0.0437(15) 0.8381(12) 0.2902(10)
H28 H 0.0164(16) 0.7624(13) 0.1437(11)
H29 H 0.1532(15) 0.8655(12) 0.1693(11)
H30 H 0.2652(14) 0.7112(11) 0.2181(10)
H31 H 0.0379(14) 0.6816(11) 0.3180(9)
H32 H 0.3988(13) 0.6253(11) 0.3246(9)
H33 H 0.4911(14) 0.4686(11) 0.3682(9)
H34 H 0.1144(15) 0.3507(13) 0.4217(10)
H35 H 0.0172(15) 0.5098(12) 0.3729(10)
H36 H 0.0759(15) 1.0492(12) 0.2513(10)
H37 H -0.0858(15) 0.9750(12) 0.1983(10)
H38 H 0.0230(14) 1.1129(11) 0.4065(10)
H39 H -0.1232(15) 1.0154(12) 0.3696(10)
H40 H -0.0829(15) 1.2157(12) 0.2903(10)
H41 H -0.2297(14) 1.1220(12) 0.2589(10)
H42 H -0.1020(14) 1.2854(11) 0.4598(10)
H43 H -0.2468(15) 1.1831(12) 0.4307(10)
H44 H -0.3115(16) 1.3750(13) 0.4303(12)
H45 H -0.3715(16) 1.2814(13) 0.3186(12)
H46 H -0.2292(18) 1.3840(15) 0.3456(13)
loop_
_geom_bond_atom_site_label_1
_geom_bond_atom_site_label_2
_geom_bond_site_symmetry_1
_geom_bond_site_symmetry_2
N1 C18 1_555 1_555
C1 C2 1_555 1_555
C2 C3 1_555 1_555
C3 C4 1_555 1_555
C4 C5 1_555 1_555
C5 C1 1_555 1_555
C6 C1 1_555 1_555
C7 C6 1_555 1_555
C8 C7 1_555 1_555
C9 C8 1_555 1_555
C10 C9 1_555 1_555
C11 C10 1_555 1_555
C12 C7 1_555 1_555
C13 C3 1_555 1_555
C14 C13 1_555 1_555
C15 C14 1_555 1_555
C16 C15 1_555 1_555
C17 C16 1_555 1_555
C18 C10 1_555 1_555
H1 C1 1_555 1_555
H2 C2 1_555 1_555
H3 C2 1_555 1_555
H4 C3 1_555 1_555
H5 C4 1_555 1_555
H6 C4 1_555 1_555
H7 C5 1_555 1_555
H8 C6 1_555 1_555
H9 C8 1_555 1_555
H10 C9 1_555 1_555
H11 C11 1_555 1_555
H12 C12 1_555 1_555
H13 C13 1_555 1_555
H14 C13 1_555 1_555
H15 C14 1_555 1_555
H16 C14 1_555 1_555
H17 C15 1_555 1_555
H18 C15 1_555 1_555
H19 C16 1_555 1_555
H20 C16 1_555 1_555
H21 C17 1_555 1_555
H22 C17 1_555 1_555
H23 C17 1_555 1_555
N2 C36 1_555 1_555
C19 C20 1_555 1_555
C20 C21 1_555 1_555
C21 C22 1_555 1_555
C22 C23 1_555 1_555
C23 C19 1_555 1_555
C24 C19 1_555 1_555
C25 C24 1_555 1_555
C26 C25 1_555 1_555
C27 C26 1_555 1_555
C28 C27 1_555 1_555
C29 C28 1_555 1_555
C30 C25 1_555 1_555
C31 C21 1_555 1_555
C32 C31 1_555 1_555
C33 C32 1_555 1_555
C34 C33 1_555 1_555
C35 C34 1_555 1_555
C36 C28 1_555 1_555
H24 C19 1_555 1_555
H25 C20 1_555 1_555
H26 C20 1_555 1_555
H27 C21 1_555 1_555
H28 C22 1_555 1_555
H29 C22 1_555 1_555
H30 C23 1_555 1_555
H31 C24 1_555 1_555
H32 C26 1_555 1_555
H33 C27 1_555 1_555
H34 C29 1_555 1_555
H35 C30 1_555 1_555
H36 C31 1_555 1_555
H37 C31 1_555 1_555
H38 C32 1_555 1_555
H39 C32 1_555 1_555
H40 C33 1_555 1_555
H41 C33 1_555 1_555
H42 C34 1_555 1_555
H43 C34 1_555 1_555
H44 C35 1_555 1_555
H45 C35 1_555 1_555
H46 C35 1_555 1_555
C5 C6 1_555 1_555
C11 C12 1_555 1_555
C23 C24 1_555 1_555
C29 C30 1_555 1_555

#END
