
#######################################################################
#
#                 Cambridge Crystallographic Data Centre
#                                CCDC 
#
#######################################################################
#
# If this CIF has been generated from an entry in the Cambridge 
# Structural Database, then it will include bibliographic, chemical, 
# crystal, experimental, refinement or atomic coordinate data resulting 
# from the CCDC's data processing and validation procedures.
#
#######################################################################

data_IRISOT
_chemical_formula_moiety         'C23 H27 N2 O2 P1'
_chemical_name_systematic        
'P-t-butyl-N-((3-methoxyphenyl)(pyridin-2-yl)methyl)-N-phenylphosphinic amide'
_symmetry_cell_setting           monoclinic
_symmetry_space_group_name_H-M   'P 21/c'
_symmetry_Int_Tables_number      14
_space_group_name_Hall           '-P 2ybc'
loop_
_symmetry_equiv_pos_site_id
_symmetry_equiv_pos_as_xyz
1 x,y,z
2 -x,1/2+y,1/2-z
3 -x,-y,-z
4 x,1/2-y,1/2+z
_cell_length_a                   6.2319(4)
_cell_length_b                   17.1970(9)
_cell_length_c                   19.3512(15)
_cell_angle_alpha                90
_cell_angle_beta                 92.189(5)
_cell_angle_gamma                90
_cell_volume                     2072.35
_exptl_crystal_colour            yellow
_exptl_crystal_description       cylinder
_cell_formula_units_Z            4
loop_
_atom_site_label
_atom_site_type_symbol
_atom_site_fract_x
_atom_site_fract_y
_atom_site_fract_z
P1 P 0.28864(7) 0.81901(3) 0.25058(2)
H1 H 0.2577 0.8470 0.2072
O1 O 0.51811(19) 0.83493(8) 0.26846(7)
O2 O -0.2870(2) 0.95845(10) 0.06280(7)
C1 C 0.1050(3) 0.98180(10) 0.35985(9)
C2 C 0.2326(3) 0.71694(11) 0.23092(10)
N1 N -0.0364(2) 1.02495(9) 0.39383(8)
C3 C 0.0848(3) 0.80948(10) 0.36918(9)
C4 C -0.1156(3) 0.77973(11) 0.38482(10)
H2 H -0.2341 0.7889 0.3553
N2 N 0.1080(2) 0.85086(8) 0.30510(8)
C5 C -0.1399(3) 0.97521(12) 0.11552(10)
C6 C 0.0399(3) 0.72253(12) 0.48897(10)
H3 H 0.0254 0.6927 0.5286
C7 C -0.1455(3) 0.94507(11) 0.18226(9)
H4 H -0.2544 0.9111 0.1940
C8 C 0.0140(3) 0.96636(10) 0.23154(9)
C9 C 0.2619(3) 0.79708(11) 0.41448(9)
H5 H 0.3951 0.8180 0.4049
C10 C 0.1743(3) 1.01756(11) 0.21369(10)
H6 H 0.2793 1.0324 0.2465
C11 C 0.3258(3) 0.98545(11) 0.37410(9)
H7 H 0.4192 0.9539 0.3503
C12 C 0.4042(3) 1.03662(11) 0.42416(10)
H8 H 0.5511 1.0410 0.4337
C13 C 0.3063(3) 0.66166(12) 0.28956(11)
H9 H 0.2730 0.6090 0.2765
H10 H 0.2335 0.6746 0.3308
H11 H 0.4585 0.6668 0.2979
C14 C 0.0067(3) 0.92981(10) 0.30329(9)
H12 H -0.1450 0.9228 0.3133
C15 C -0.0069(3) 0.70704(12) 0.21179(11)
H13 H -0.0365 0.6534 0.2017
H14 H -0.0438 0.7381 0.1719
H15 H -0.0904 0.7234 0.2498
C16 C 0.2601(3) 1.08104(12) 0.45970(10)
H16 H 0.3080 1.1155 0.4940
C17 C 0.1787(3) 1.04682(12) 0.14698(10)
H17 H 0.2878 1.0807 0.1354
C18 C 0.2369(3) 0.75318(13) 0.47387(10)
H18 H 0.3546 0.7444 0.5038
C19 C -0.1380(3) 0.73638(12) 0.44459(10)
H19 H -0.2716 0.7165 0.4551
C20 C 0.0447(3) 1.07335(12) 0.44337(10)
H20 H -0.0510 1.1032 0.4678
C21 C 0.3650(3) 0.69926(13) 0.16701(11)
H21 H 0.3439 0.6460 0.1536
H22 H 0.5145 0.7081 0.1781
H23 H 0.3191 0.7327 0.1296
C22 C 0.0231(3) 1.02625(12) 0.09755(10)
H24 H 0.0269 1.0461 0.0529
C23 C -0.4514(3) 0.90511(15) 0.07663(11)
H25 H -0.5419 0.8982 0.0358
H26 H -0.5354 0.9247 0.1134
H27 H -0.3891 0.8561 0.0901
loop_
_geom_bond_atom_site_label_1
_geom_bond_atom_site_label_2
_geom_bond_site_symmetry_1
_geom_bond_site_symmetry_2
P1 H1 1_555 1_555
O1 P1 1_555 1_555
O2 C5 1_555 1_555
C1 N1 1_555 1_555
C2 P1 1_555 1_555
N1 C20 1_555 1_555
C3 C4 1_555 1_555
C4 H2 1_555 1_555
N2 P1 1_555 1_555
C5 C7 1_555 1_555
C6 H3 1_555 1_555
C7 H4 1_555 1_555
C8 C7 1_555 1_555
C9 C3 1_555 1_555
H5 C9 1_555 1_555
C10 C8 1_555 1_555
H6 C10 1_555 1_555
C11 C1 1_555 1_555
H7 C11 1_555 1_555
C12 C11 1_555 1_555
H8 C12 1_555 1_555
C13 C2 1_555 1_555
H9 C13 1_555 1_555
H10 C13 1_555 1_555
H11 C13 1_555 1_555
C14 C1 1_555 1_555
H12 C14 1_555 1_555
C15 C2 1_555 1_555
H13 C15 1_555 1_555
H14 C15 1_555 1_555
H15 C15 1_555 1_555
C16 C12 1_555 1_555
H16 C16 1_555 1_555
C17 C10 1_555 1_555
H17 C17 1_555 1_555
C18 C6 1_555 1_555
H18 C18 1_555 1_555
C19 C4 1_555 1_555
H19 C19 1_555 1_555
C20 C16 1_555 1_555
H20 C20 1_555 1_555
C21 C2 1_555 1_555
H21 C21 1_555 1_555
H22 C21 1_555 1_555
H23 C21 1_555 1_555
C22 C5 1_555 1_555
H24 C22 1_555 1_555
C23 O2 1_555 1_555
H25 C23 1_555 1_555
H26 C23 1_555 1_555
H27 C23 1_555 1_555
C3 N2 1_555 1_555
N2 C14 1_555 1_555
C6 C19 1_555 1_555
C8 C14 1_555 1_555
C9 C18 1_555 1_555
C17 C22 1_555 1_555

#END
