
#######################################################################
#
#                 Cambridge Crystallographic Data Centre
#                                CCDC 
#
#######################################################################
#
# If this CIF has been generated from an entry in the Cambridge 
# Structural Database, then it will include bibliographic, chemical, 
# crystal, experimental, refinement or atomic coordinate data resulting 
# from the CCDC's data processing and validation procedures.
#
#######################################################################

data_IRODID
_chemical_formula_moiety         'C23 H27 N1 O6'
_chemical_name_systematic        
2,2'-(4-nitrophenylmethylene)bis(3-hydroxy-5,5-dimethyl-2-cyclohexen-1-one)
_symmetry_cell_setting           orthorhombic
_symmetry_space_group_name_H-M   'P c a 21'
_symmetry_Int_Tables_number      29
_space_group_name_Hall           'P 2c -2ac'
loop_
_symmetry_equiv_pos_site_id
_symmetry_equiv_pos_as_xyz
1 x,y,z
2 -x,-y,1/2+z
3 1/2-x,y,1/2+z
4 1/2+x,-y,z
_cell_length_a                   12.965(3)
_cell_length_b                   23.525(4)
_cell_length_c                   28.078
_cell_angle_alpha                90
_cell_angle_beta                 90
_cell_angle_gamma                90
_cell_volume                     8563.84
_cell_formula_units_Z            16
loop_
_atom_site_label
_atom_site_type_symbol
_atom_site_fract_x
_atom_site_fract_y
_atom_site_fract_z
O1 O 1.0797(3) 0.1781(2) 0.4950(1)
O2 O 0.7454(4) 0.1955(2) 0.4340(2)
O3 O 0.7061(3) 0.0893(2) 0.4549(2)
O4 O 1.0327(4) 0.0781(2) 0.5263(2)
O5 O 1.3516(4) 0.0630(3) 0.3442(2)
O6 O 1.2944(4) -0.0225(3) 0.3543(2)
N1 N 1.2842(5) 0.0291(3) 0.3562(2)
C1 C 1.0047(5) 0.2068(3) 0.4794(2)
C2 C 1.0086(5) 0.2695(2) 0.4878(2)
C3 C 0.9383(5) 0.3053(3) 0.4558(2)
C4 C 0.9805(5) 0.3079(3) 0.4050(2)
C5 C 0.9313(6) 0.3663(3) 0.4754(3)
C6 C 0.8321(5) 0.2778(2) 0.4566(3)
C7 C 0.8339(5) 0.2154(3) 0.4485(2)
C8 C 0.9192(5) 0.1812(3) 0.4558(2)
C9 C 0.9162(5) 0.1197(2) 0.4424(2)
C10 C 0.7714(5) 0.0648(3) 0.4820(2)
C11 C 0.7339(5) 0.0175(3) 0.5134(2)
C12 C 0.7840(6) 0.0193(3) 0.5626(2)
C13 C 0.7508(7) -0.0332(3) 0.5915(3)
C14 C 0.7487(6) 0.0728(3) 0.5887(3)
C15 C 0.9003(5) 0.0209(3) 0.5563(2)
C16 C 0.9372(5) 0.0625(2) 0.5197(2)
C17 C 0.8771(4) 0.0805(2) 0.4825(2)
C18 C 1.0140(5) 0.0960(3) 0.4184(2)
C19 C 1.0818(5) 0.1313(3) 0.3942(2)
C20 C 1.1698(5) 0.1092(3) 0.3727(2)
C21 C 1.1872(5) 0.0523(3) 0.3750(2)
C22 C 1.1175(5) 0.0157(3) 0.3950(2)
C23 C 1.0314(5) 0.0380(3) 0.4170(2)
loop_
_geom_bond_atom_site_label_1
_geom_bond_atom_site_label_2
_geom_bond_site_symmetry_1
_geom_bond_site_symmetry_2
O1 C1 1_555 1_555
O2 C7 1_555 1_555
O3 C10 1_555 1_555
O4 C16 1_555 1_555
O5 N1 1_555 1_555
O6 N1 1_555 1_555
N1 C21 1_555 1_555
C1 C2 1_555 1_555
C2 C3 1_555 1_555
C3 C4 1_555 1_555
C5 C3 1_555 1_555
C6 C3 1_555 1_555
C7 C6 1_555 1_555
C8 C1 1_555 1_555
C9 C8 1_555 1_555
C10 C11 1_555 1_555
C11 C12 1_555 1_555
C12 C13 1_555 1_555
C14 C12 1_555 1_555
C15 C12 1_555 1_555
C16 C15 1_555 1_555
C17 C9 1_555 1_555
C18 C9 1_555 1_555
C19 C18 1_555 1_555
C20 C19 1_555 1_555
C21 C20 1_555 1_555
C22 C21 1_555 1_555
C23 C18 1_555 1_555
C7 C8 1_555 1_555
C10 C17 1_555 1_555
C16 C17 1_555 1_555
C22 C23 1_555 1_555

#END
