
#######################################################################
#
#                 Cambridge Crystallographic Data Centre
#                                CCDC 
#
#######################################################################
#
# If this CIF has been generated from an entry in the Cambridge 
# Structural Database, then it will include bibliographic, chemical, 
# crystal, experimental, refinement or atomic coordinate data resulting 
# from the CCDC's data processing and validation procedures.
#
#######################################################################

data_IRODUQ
_chemical_formula_moiety         'C27 H18 N2'
_chemical_name_systematic        
2-phenyl-3-(9-phenyl-9H-carbazol-3-yl)acrylonitrile
_symmetry_cell_setting           monoclinic
_symmetry_space_group_name_H-M   'P 21/c'
_symmetry_Int_Tables_number      14
_space_group_name_Hall           '-P 2ybc'
loop_
_symmetry_equiv_pos_site_id
_symmetry_equiv_pos_as_xyz
1 x,y,z
2 -x,1/2+y,1/2-z
3 -x,-y,-z
4 x,1/2-y,1/2+z
_cell_length_a                   18.495(4)
_cell_length_b                   13.396(3)
_cell_length_c                   7.8586(17)
_cell_angle_alpha                90
_cell_angle_beta                 96.436(4)
_cell_angle_gamma                90
_cell_volume                     1934.77
_exptl_crystal_colour            colorless
_exptl_crystal_description       block
_cell_formula_units_Z            4
loop_
_atom_site_label
_atom_site_type_symbol
_atom_site_fract_x
_atom_site_fract_y
_atom_site_fract_z
C1 C 0.32918(11) 0.57809(14) 0.0849(3)
C2 C 0.38737(11) 0.53545(16) 0.0154(3)
H1 H 0.4276 0.5734 -0.0054
C3 C 0.38385(12) 0.43564(18) -0.0217(3)
H2 H 0.4222 0.4056 -0.0694
C4 C 0.32437(12) 0.37831(17) 0.0102(4)
H3 H 0.3242 0.3102 -0.0127
C5 C 0.26582(12) 0.42103(15) 0.0752(3)
H4 H 0.2256 0.3826 0.0939
C6 C 0.26752(10) 0.52224(14) 0.1126(3)
C7 C 0.21587(10) 0.59059(14) 0.1743(3)
C8 C 0.14692(10) 0.57822(14) 0.2217(3)
H5 H 0.1249 0.5157 0.2144
C9 C 0.11026(10) 0.66006(14) 0.2808(3)
C10 C 0.14645(10) 0.75242(15) 0.2952(3)
H6 H 0.1228 0.8065 0.3383
C11 C 0.21479(11) 0.76648(15) 0.2487(3)
H7 H 0.2372 0.8287 0.2591
C12 C 0.24962(10) 0.68500(14) 0.1855(3)
C13 C -0.00622(11) 0.49578(16) 0.2314(3)
C14 C -0.01591(10) 0.58892(14) 0.3156(3)
C15 C -0.08817(10) 0.60296(14) 0.3768(3)
C16 C -0.14670(11) 0.54413(16) 0.3137(4)
H8 H -0.1404 0.4952 0.2327
C17 C -0.21427(12) 0.55720(17) 0.3694(4)
H9 H -0.2531 0.5175 0.3248
C18 C -0.22453(13) 0.62829(17) 0.4898(4)
H10 H -0.2699 0.6361 0.5283
C19 C -0.16741(13) 0.68778(17) 0.5533(4)
H11 H -0.1743 0.7366 0.6341
C20 C -0.09997(12) 0.67552(16) 0.4978(3)
H12 H -0.0617 0.7163 0.5417
C21 C 0.03704(11) 0.65862(15) 0.3323(3)
H13 H 0.0244 0.7166 0.3868
C22 C 0.37103(11) 0.75467(16) 0.1350(3)
C23 C 0.44188(11) 0.73659(18) 0.2063(3)
H14 H 0.4547 0.6744 0.2529
C24 C 0.49311(12) 0.8112(2) 0.2077(3)
H15 H 0.5409 0.7988 0.2528
C25 C 0.47400(14) 0.9035(2) 0.1431(4)
H16 H 0.5088 0.9538 0.1458
C26 C 0.40350(14) 0.92241(18) 0.0741(3)
H17 H 0.3907 0.9856 0.0318
C27 C 0.35186(12) 0.84754(16) 0.0676(3)
H18 H 0.3046 0.8595 0.0184
N1 N 0.31826(9) 0.67764(12) 0.1314(2)
N2 N -0.00171(10) 0.42019(15) 0.1649(3)
loop_
_geom_bond_atom_site_label_1
_geom_bond_atom_site_label_2
_geom_bond_site_symmetry_1
_geom_bond_site_symmetry_2
C1 C2 1_555 1_555
C2 H1 1_555 1_555
C3 C2 1_555 1_555
H2 C3 1_555 1_555
C4 C3 1_555 1_555
H3 C4 1_555 1_555
C5 C4 1_555 1_555
H4 C5 1_555 1_555
C6 C1 1_555 1_555
C7 C6 1_555 1_555
C8 C7 1_555 1_555
H5 C8 1_555 1_555
C9 C8 1_555 1_555
C10 C9 1_555 1_555
H6 C10 1_555 1_555
C11 C10 1_555 1_555
H7 C11 1_555 1_555
C12 C7 1_555 1_555
C13 C14 1_555 1_555
C14 C15 1_555 1_555
C15 C16 1_555 1_555
C16 H8 1_555 1_555
C17 C16 1_555 1_555
H9 C17 1_555 1_555
C18 C17 1_555 1_555
H10 C18 1_555 1_555
C19 C18 1_555 1_555
H11 C19 1_555 1_555
C20 C15 1_555 1_555
H12 C20 1_555 1_555
C21 C9 1_555 1_555
H13 C21 1_555 1_555
C22 C23 1_555 1_555
C23 H14 1_555 1_555
C24 C23 1_555 1_555
H15 C24 1_555 1_555
C25 C24 1_555 1_555
H16 C25 1_555 1_555
C26 C25 1_555 1_555
H17 C26 1_555 1_555
C27 C22 1_555 1_555
H18 C27 1_555 1_555
N1 C1 1_555 1_555
N2 C13 1_555 1_555
C5 C6 1_555 1_555
C11 C12 1_555 1_555
C12 N1 1_555 1_555
C14 C21 1_555 1_555
C19 C20 1_555 1_555
C22 N1 1_555 1_555
C26 C27 1_555 1_555

#END
