
#######################################################################
#
#                 Cambridge Crystallographic Data Centre
#                                CCDC 
#
#######################################################################
#
# If this CIF has been generated from an entry in the Cambridge 
# Structural Database, then it will include bibliographic, chemical, 
# crystal, experimental, refinement or atomic coordinate data resulting 
# from the CCDC's data processing and validation procedures.
#
#######################################################################

data_IROFEC
_chemical_formula_moiety         'C28 H20 N2 O1'
_chemical_name_systematic        
2-(4-methoxyphenyl)-3-(9-phenyl-9H-carbazol-3-yl)acrylonitrile
_symmetry_cell_setting           monoclinic
_symmetry_space_group_name_H-M   'P 21/n'
_symmetry_Int_Tables_number      14
_space_group_name_Hall           '-P 2yn'
loop_
_symmetry_equiv_pos_site_id
_symmetry_equiv_pos_as_xyz
1 x,y,z
2 1/2-x,1/2+y,1/2-z
3 -x,-y,-z
4 1/2+x,1/2-y,1/2+z
_cell_length_a                   16.599(4)
_cell_length_b                   7.731(2)
_cell_length_c                   17.121(4)
_cell_angle_alpha                90
_cell_angle_beta                 111.991(4)
_cell_angle_gamma                90
_cell_volume                     2037.23
_exptl_crystal_colour            yellow
_exptl_crystal_description       block
_cell_formula_units_Z            4
loop_
_atom_site_label
_atom_site_type_symbol
_atom_site_fract_x
_atom_site_fract_y
_atom_site_fract_z
O1 O 1.47346(8) -0.04336(19) 0.58760(8)
N1 N 1.05196(11) 0.2724(3) 0.34623(10)
N2 N 0.75148(9) 0.3879(2) 0.53139(8)
C1 C 1.52089(13) -0.1143(3) 0.66882(13)
H1 H 1.5786 -0.1435 0.6729
H2 H 1.5240 -0.0307 0.7113
H3 H 1.4920 -0.2165 0.6769
C2 C 1.38924(11) 0.0055(2) 0.57124(11)
C3 C 1.34604(12) -0.0187(3) 0.62428(12)
H4 H 1.3740 -0.0715 0.6763
C4 C 1.26110(12) 0.0351(3) 0.60086(12)
H5 H 1.2328 0.0178 0.6379
C5 C 1.21647(11) 0.1137(2) 0.52429(10)
C6 C 1.26121(12) 0.1334(3) 0.47085(11)
H6 H 1.2331 0.1835 0.4182
C7 C 1.34618(12) 0.0808(3) 0.49355(11)
H7 H 1.3747 0.0960 0.4565
C8 C 1.12580(11) 0.1760(2) 0.50092(10)
C9 C 1.08438(11) 0.1850(2) 0.55502(11)
H8 H 1.1184 0.1494 0.6093
C10 C 1.08368(11) 0.2301(3) 0.41505(12)
C11 C 0.99742(11) 0.2388(2) 0.54619(10)
C12 C 0.97539(11) 0.2160(3) 0.61737(11)
H9 H 1.0168 0.1688 0.6657
C13 C 0.89611(11) 0.2599(3) 0.61889(11)
H10 H 0.8833 0.2417 0.6667
C14 C 0.83549(11) 0.3324(2) 0.54651(10)
C15 C 0.85426(10) 0.3546(2) 0.47363(10)
C16 C 0.93470(11) 0.3087(2) 0.47344(10)
H11 H 0.9470 0.3242 0.4252
C17 C 0.77682(11) 0.4275(2) 0.41059(10)
C18 C 0.71527(11) 0.4454(2) 0.44791(10)
C19 C 0.63369(11) 0.5154(3) 0.40445(11)
H12 H 0.5932 0.5270 0.4297
C20 C 0.61506(12) 0.5670(3) 0.32280(11)
H13 H 0.5608 0.6140 0.2922
C21 C 0.67514(13) 0.5507(3) 0.28501(11)
H14 H 0.6606 0.5874 0.2297
C22 C 0.75635(12) 0.4807(3) 0.32792(11)
H15 H 0.7964 0.4696 0.3021
C23 C 0.71343(11) 0.4033(2) 0.59317(10)
C24 C 0.75786(11) 0.4904(2) 0.66771(11)
H16 H 0.8117 0.5399 0.6769
C25 C 0.72190(13) 0.5031(3) 0.72819(12)
H17 H 0.7518 0.5610 0.7784
C26 C 0.64210(13) 0.4308(3) 0.71477(13)
H18 H 0.6181 0.4396 0.7557
C27 C 0.59810(12) 0.3456(3) 0.64059(13)
H19 H 0.5441 0.2970 0.6315
C28 C 0.63317(11) 0.3314(2) 0.57955(12)
H20 H 0.6029 0.2737 0.5294
loop_
_geom_bond_atom_site_label_1
_geom_bond_atom_site_label_2
_geom_bond_site_symmetry_1
_geom_bond_site_symmetry_2
O1 C1 1_555 1_555
N1 C10 1_555 1_555
N2 C14 1_555 1_555
C1 H1 1_555 1_555
H2 C1 1_555 1_555
H3 C1 1_555 1_555
C2 O1 1_555 1_555
C3 C2 1_555 1_555
H4 C3 1_555 1_555
C4 C3 1_555 1_555
H5 C4 1_555 1_555
C5 C4 1_555 1_555
C6 C5 1_555 1_555
H6 C6 1_555 1_555
C7 C2 1_555 1_555
H7 C7 1_555 1_555
C8 C5 1_555 1_555
C9 C8 1_555 1_555
H8 C9 1_555 1_555
C10 C8 1_555 1_555
C11 C9 1_555 1_555
C12 C11 1_555 1_555
H9 C12 1_555 1_555
C13 C12 1_555 1_555
H10 C13 1_555 1_555
C14 C13 1_555 1_555
C15 C14 1_555 1_555
C16 C11 1_555 1_555
H11 C16 1_555 1_555
C17 C15 1_555 1_555
C18 N2 1_555 1_555
C19 C18 1_555 1_555
H12 C19 1_555 1_555
C20 C19 1_555 1_555
H13 C20 1_555 1_555
C21 C20 1_555 1_555
H14 C21 1_555 1_555
C22 C17 1_555 1_555
H15 C22 1_555 1_555
C23 N2 1_555 1_555
C24 C23 1_555 1_555
H16 C24 1_555 1_555
C25 C24 1_555 1_555
H17 C25 1_555 1_555
C26 C25 1_555 1_555
H18 C26 1_555 1_555
C27 C26 1_555 1_555
H19 C27 1_555 1_555
C28 C23 1_555 1_555
H20 C28 1_555 1_555
C6 C7 1_555 1_555
C15 C16 1_555 1_555
C17 C18 1_555 1_555
C21 C22 1_555 1_555
C27 C28 1_555 1_555

#END
