
#######################################################################
#
#                 Cambridge Crystallographic Data Centre
#                                CCDC 
#
#######################################################################
#
# If this CIF has been generated from an entry in the Cambridge 
# Structural Database, then it will include bibliographic, chemical, 
# crystal, experimental, refinement or atomic coordinate data resulting 
# from the CCDC's data processing and validation procedures.
#
#######################################################################

data_IROFIG
_chemical_formula_moiety         'C27 H17 Cl1 N2'
_chemical_name_systematic        
2-(4-chlorophenyl)-3-(9-phenyl-9H-carbazol-3-yl)acrylonitrile
_symmetry_cell_setting           monoclinic
_symmetry_space_group_name_H-M   'P 21/c'
_symmetry_Int_Tables_number      14
_space_group_name_Hall           '-P 2ybc'
loop_
_symmetry_equiv_pos_site_id
_symmetry_equiv_pos_as_xyz
1 x,y,z
2 -x,1/2+y,1/2-z
3 -x,-y,-z
4 x,1/2-y,1/2+z
_cell_length_a                   16.672(12)
_cell_length_b                   13.929(10)
_cell_length_c                   8.865(6)
_cell_angle_alpha                90
_cell_angle_beta                 102.965(8)
_cell_angle_gamma                90
_cell_volume                     2006.19
_exptl_crystal_colour            yellow
_exptl_crystal_description       block
_cell_formula_units_Z            4
loop_
_atom_site_label
_atom_site_type_symbol
_atom_site_fract_x
_atom_site_fract_y
_atom_site_fract_z
Cl1 Cl 0.78141(4) 0.12247(4) 1.36597(7)
N1 N 0.16590(8) 0.18722(9) 0.27036(15)
N2 N 0.49471(10) -0.07546(11) 0.67345(19)
C1 C 0.16379(10) 0.09547(11) 0.20547(18)
C2 C 0.10868(11) 0.05716(13) 0.07760(19)
H1 H 0.0635 0.0921 0.0250
C3 C 0.12391(12) -0.03432(13) 0.0325(2)
H2 H 0.0883 -0.0613 -0.0529
C4 C 0.19109(12) -0.08768(13) 0.1110(2)
H3 H 0.1989 -0.1498 0.0788
C5 C 0.24596(11) -0.04905(12) 0.2359(2)
H4 H 0.2911 -0.0845 0.2875
C6 C 0.23296(10) 0.04373(11) 0.28404(18)
C7 C 0.27919(9) 0.10677(11) 0.40196(18)
C8 C 0.35132(10) 0.09512(11) 0.51393(18)
H5 H 0.3793 0.0369 0.5228
C9 C 0.38202(10) 0.17103(11) 0.61361(18)
C10 C 0.33774(10) 0.25853(11) 0.59513(19)
H6 H 0.3580 0.3094 0.6606
C11 C 0.26599(10) 0.27191(11) 0.48458(18)
H7 H 0.2384 0.3304 0.4747
C12 C 0.23639(9) 0.19496(11) 0.38832(18)
C13 C 0.10140(10) 0.25661(12) 0.23231(18)
C14 C 0.11723(11) 0.34721(12) 0.18291(19)
H8 H 0.1697 0.3632 0.1714
C15 C 0.05400(13) 0.41417(14) 0.1506(2)
H9 H 0.0645 0.4759 0.1199
C16 C -0.02446(13) 0.38967(16) 0.1637(2)
H10 H -0.0668 0.4345 0.1407
C17 C -0.03983(12) 0.29908(17) 0.2107(3)
H11 H -0.0928 0.2824 0.2183
C18 C 0.02284(11) 0.23246(14) 0.2468(2)
H12 H 0.0124 0.1715 0.2808
C19 C 0.45509(10) 0.16670(12) 0.74012(19)
H13 H 0.4677 0.2243 0.7931
C20 C 0.50780(10) 0.09443(11) 0.79460(18)
C21 C 0.49890(10) 0.00054(12) 0.72402(19)
C22 C 0.57628(10) 0.10268(11) 0.93435(19)
C23 C 0.61592(10) 0.02126(12) 1.0052(2)
H14 H 0.5999 -0.0387 0.9628
C24 C 0.67841(11) 0.02678(13) 1.1369(2)
H15 H 0.7040 -0.0288 1.1821
C25 C 0.70224(11) 0.11420(13) 1.2000(2)
C26 C 0.66477(14) 0.19628(14) 1.1332(3)
H16 H 0.6812 0.2558 1.1771
C27 C 0.60271(13) 0.19073(13) 1.0010(2)
H17 H 0.5782 0.2468 0.9557
loop_
_geom_bond_atom_site_label_1
_geom_bond_atom_site_label_2
_geom_bond_site_symmetry_1
_geom_bond_site_symmetry_2
Cl1 C25 1_555 1_555
N1 C1 1_555 1_555
N2 C21 1_555 1_555
C1 C2 1_555 1_555
C2 H1 1_555 1_555
C3 C2 1_555 1_555
H2 C3 1_555 1_555
C4 C3 1_555 1_555
H3 C4 1_555 1_555
C5 C4 1_555 1_555
H4 C5 1_555 1_555
C6 C1 1_555 1_555
C7 C6 1_555 1_555
C8 C7 1_555 1_555
H5 C8 1_555 1_555
C9 C8 1_555 1_555
C10 C9 1_555 1_555
H6 C10 1_555 1_555
C11 C10 1_555 1_555
H7 C11 1_555 1_555
C12 N1 1_555 1_555
C13 N1 1_555 1_555
C14 C13 1_555 1_555
H8 C14 1_555 1_555
C15 C14 1_555 1_555
H9 C15 1_555 1_555
C16 C15 1_555 1_555
H10 C16 1_555 1_555
C17 C16 1_555 1_555
H11 C17 1_555 1_555
C18 C13 1_555 1_555
H12 C18 1_555 1_555
C19 C9 1_555 1_555
H13 C19 1_555 1_555
C20 C19 1_555 1_555
C21 C20 1_555 1_555
C22 C20 1_555 1_555
C23 C22 1_555 1_555
H14 C23 1_555 1_555
C24 C23 1_555 1_555
H15 C24 1_555 1_555
C25 C24 1_555 1_555
C26 C25 1_555 1_555
H16 C26 1_555 1_555
C27 C22 1_555 1_555
H17 C27 1_555 1_555
C5 C6 1_555 1_555
C7 C12 1_555 1_555
C11 C12 1_555 1_555
C17 C18 1_555 1_555
C26 C27 1_555 1_555

#END
