
#######################################################################
#
#                 Cambridge Crystallographic Data Centre
#                                CCDC 
#
#######################################################################
#
# If this CIF has been generated from an entry in the Cambridge 
# Structural Database, then it will include bibliographic, chemical, 
# crystal, experimental, refinement or atomic coordinate data resulting 
# from the CCDC's data processing and validation procedures.
#
#######################################################################

data_IROGIH
_chemical_name_common            
'1,3-dimethylimidazolium hydrotris(pyrazolyl)borate'
_chemical_formula_moiety         'C9 H10 B1 N6 1-,C5 H9 N2 1+'
_chemical_name_systematic        
'1,3-dimethyl-1H-imidazol-3-ium hydrido(tri-1H-pyrazol-1-yl)borate'
_symmetry_cell_setting           triclinic
_symmetry_space_group_name_H-M   'P -1'
_symmetry_Int_Tables_number      2
_space_group_name_Hall           '-P 1'
loop_
_symmetry_equiv_pos_site_id
_symmetry_equiv_pos_as_xyz
1 x,y,z
2 -x,-y,-z
_cell_length_a                   8.7240(14)
_cell_length_b                   8.8303(15)
_cell_length_c                   12.503(2)
_cell_angle_alpha                78.447(2)
_cell_angle_beta                 74.927(2)
_cell_angle_gamma                60.694(2)
_cell_volume                     807.957
_exptl_crystal_colour            colorless
_chemical_melting_point          '383.9 K'
_cell_formula_units_Z            2
loop_
_atom_site_label
_atom_site_type_symbol
_atom_site_fract_x
_atom_site_fract_y
_atom_site_fract_z
N1 N 0.39266(19) 0.19510(18) 0.28130(12)
N2 N 0.71929(19) 0.05440(19) 0.28742(13)
N3 N 0.5774(2) -0.13098(19) 0.28216(13)
N4 N 0.3488(2) 0.3633(2) 0.23891(15)
N5 N 0.4764(3) -0.1794(2) 0.24305(16)
N6 N 0.6939(3) 0.1392(3) 0.37462(16)
C1 C 0.8976(2) -0.0388(2) 0.24655(17)
H1 H 0.9499 -0.1075 0.1869
B1 B 0.5790(3) 0.0452(3) 0.23874(16)
C2 C 0.2598(2) 0.1883(3) 0.36277(16)
H2 H 0.2600 0.0879 0.4036
C3 C 0.6575(3) -0.2500(3) 0.36169(17)
H3 H 0.7326 -0.2449 0.4002
C4 C 0.4970(3) -0.3299(3) 0.3012(2)
H4 H 0.4425 -0.3933 0.2924
C5 C 0.1855(3) 0.4588(3) 0.2969(2)
H5 H 0.1215 0.5795 0.2860
C6 C 0.8602(3) 0.0993(3) 0.39166(18)
H6 H 0.8858 0.1376 0.4457
C7 C 0.9811(3) -0.0109(3) 0.3099(2)
H7 H 1.1048 -0.0592 0.3007
C8 C 0.1236(3) 0.3557(3) 0.3751(2)
H8 H 0.0147 0.3916 0.4247
C9 C 0.6094(3) -0.3810(3) 0.3763(2)
H9 H 0.6443 -0.4809 0.4254
H10 H 0.613(3) 0.052(3) 0.1475(17)
N7 N 0.8249(2) 0.2847(2) 0.00769(14)
N8 N 1.0619(3) 0.2628(2) 0.04766(15)
C10 C 0.9999(3) 0.2294(3) -0.02619(17)
H11 H 1.0680 0.1759 -0.0912
C11 C 0.7723(3) 0.3563(3) 0.10725(19)
H12 H 0.6570 0.4048 0.1493
C12 C 0.7074(3) 0.2755(4) -0.0528(2)
H13 H 0.6156 0.2549 -0.0007
H14 H 0.7761 0.1820 -0.1003
H15 H 0.6533 0.3835 -0.0969
C13 C 0.9200(4) 0.3426(3) 0.13206(19)
H16 H 0.9255 0.3802 0.1947
C14 C 1.2495(4) 0.2131(4) 0.0441(2)
H17 H 1.3025 0.1035 0.0872
H18 H 1.2563 0.3008 0.0744
H19 H 1.3129 0.2022 -0.0315
loop_
_geom_bond_atom_site_label_1
_geom_bond_atom_site_label_2
_geom_bond_site_symmetry_1
_geom_bond_site_symmetry_2
N1 N4 1_555 1_555
N2 N6 1_555 1_555
N3 N5 1_555 1_555
N4 C5 1_555 1_555
N5 C4 1_555 1_555
N6 C6 1_555 1_555
C1 N2 1_555 1_555
H1 C1 1_555 1_555
B1 N1 1_555 1_555
C2 N1 1_555 1_555
H2 C2 1_555 1_555
C3 N3 1_555 1_555
H3 C3 1_555 1_555
C4 H4 1_555 1_555
C5 H5 1_555 1_555
C6 H6 1_555 1_555
C7 C1 1_555 1_555
H7 C7 1_555 1_555
C8 C2 1_555 1_555
H8 C8 1_555 1_555
C9 C3 1_555 1_555
H9 C9 1_555 1_555
H10 B1 1_555 1_555
N7 C10 1_555 1_555
N8 C10 1_555 1_555
C10 H11 1_555 1_555
C11 N7 1_555 1_555
H12 C11 1_555 1_555
C12 N7 1_555 1_555
H13 C12 1_555 1_555
H14 C12 1_555 1_555
H15 C12 1_555 1_555
C13 N8 1_555 1_555
H16 C13 1_555 1_555
C14 N8 1_555 1_555
H17 C14 1_555 1_555
H18 C14 1_555 1_555
H19 C14 1_555 1_555
N2 B1 1_555 1_555
N3 B1 1_555 1_555
C4 C9 1_555 1_555
C5 C8 1_555 1_555
C6 C7 1_555 1_555
C11 C13 1_555 1_555

#END
