
#######################################################################
#
#                 Cambridge Crystallographic Data Centre
#                                CCDC 
#
#######################################################################
#
# If this CIF has been generated from an entry in the Cambridge 
# Structural Database, then it will include bibliographic, chemical, 
# crystal, experimental, refinement or atomic coordinate data resulting 
# from the CCDC's data processing and validation procedures.
#
#######################################################################

data_IRONAG
_chemical_formula_moiety         'C22 H19 Cl2 N1 O3'
_chemical_name_systematic        
'ethyl 2,6-bis(3-chlorophenyl)-1-cyano-4-oxocyclohexanecarboxylate'
_symmetry_cell_setting           triclinic
_symmetry_space_group_name_H-M   'P -1'
_symmetry_Int_Tables_number      2
_space_group_name_Hall           '-P 1'
loop_
_symmetry_equiv_pos_site_id
_symmetry_equiv_pos_as_xyz
1 x,y,z
2 -x,-y,-z
_cell_length_a                   12.256(6)
_cell_length_b                   13.247(7)
_cell_length_c                   13.396(6)
_cell_angle_alpha                68.333(9)
_cell_angle_beta                 83.482(9)
_cell_angle_gamma                87.869(10)
_cell_volume                     2008.15
_exptl_crystal_colour            colorless
_exptl_crystal_description       block
_cell_formula_units_Z            4
loop_
_atom_site_label
_atom_site_type_symbol
_atom_site_fract_x
_atom_site_fract_y
_atom_site_fract_z
Cl1 Cl 1.03452(9) 1.16134(11) 0.48098(10)
Cl2 Cl 0.68259(12) 0.62211(14) 0.21216(14)
C1 C 0.9298(4) 1.2075(4) 0.3972(3)
C2 C 0.9262(4) 1.3172(4) 0.3403(3)
H1 H 0.9784 1.3639 0.3452
C3 C 0.8423(4) 1.3557(4) 0.2756(4)
H2 H 0.8396 1.4293 0.2334
C4 C 0.7631(4) 1.2872(4) 0.2728(3)
H3 H 0.7056 1.3151 0.2309
C5 C 0.7672(3) 1.1762(4) 0.3316(3)
C6 C 0.8524(3) 1.1377(4) 0.3951(3)
H4 H 0.8566 1.0640 0.4364
C7 C 0.6810(3) 1.0992(4) 0.3310(3)
H5 H 0.6840 1.0359 0.3981
C8 C 0.5640(3) 1.1412(4) 0.3351(3)
H6 H 0.5521 1.1731 0.3901
H7 H 0.5524 1.1972 0.2661
C9 C 0.4848(4) 1.0508(4) 0.3603(4)
C10 C 0.5205(4) 0.9650(4) 0.3160(4)
H8 H 0.4564 0.9341 0.3015
H9 H 0.5570 0.9074 0.3696
C11 C 0.5978(3) 1.0098(4) 0.2131(3)
H10 H 0.5610 1.0733 0.1653
C12 C 0.7061(3) 1.0548(3) 0.2374(3)
C13 C 0.7498(3) 1.1410(4) 0.1361(4)
C14 C 0.7890(3) 0.9622(4) 0.2694(4)
C15 C 0.9395(4) 0.8759(5) 0.2074(4)
H11 H 1.0040 0.8880 0.2373
H12 H 0.9021 0.8116 0.2597
C16 C 0.9718(6) 0.8581(6) 0.1135(6)
H13 H 1.0197 0.7964 0.1286
H14 H 1.0099 0.9210 0.0619
H15 H 0.9083 0.8443 0.0844
C17 C 0.6213(3) 0.9357(5) 0.1514(4)
C18 C 0.6353(3) 0.8254(5) 0.2026(4)
H16 H 0.6263 0.7948 0.2777
C19 C 0.6626(4) 0.7601(5) 0.1444(5)
C20 C 0.6765(4) 0.8022(7) 0.0341(6)
H17 H 0.6953 0.7574 -0.0047
C21 C 0.6625(5) 0.9119(7) -0.0189(5)
H18 H 0.6714 0.9416 -0.0940
C22 C 0.6351(4) 0.9778(5) 0.0394(4)
H19 H 0.6257 1.0519 0.0029
N1 N 0.7801(3) 1.2075(3) 0.0576(3)
O1 O 0.3982(3) 1.0439(3) 0.4155(3)
O2 O 0.7795(3) 0.8911(3) 0.3563(3)
O3 O 0.8665(2) 0.9690(2) 0.1904(2)
Cl3 Cl 0.84112(13) 0.95693(11) 0.70786(11)
Cl4 Cl 0.51430(10) 0.35292(12) 0.50413(10)
C23 C 0.8597(4) 0.8241(4) 0.7924(3)
C24 C 0.9437(4) 0.8022(4) 0.8581(4)
H20 H 0.9913 0.8567 0.8549
C25 C 0.9542(4) 0.6973(5) 0.9282(4)
H21 H 1.0103 0.6801 0.9728
C26 C 0.8837(3) 0.6179(4) 0.9335(3)
H22 H 0.8916 0.5477 0.9828
C27 C 0.8004(3) 0.6397(3) 0.8666(3)
C28 C 0.7898(4) 0.7458(4) 0.7954(3)
H23 H 0.7346 0.7632 0.7496
C29 C 0.7199(3) 0.5532(3) 0.8730(3)
H24 H 0.6525 0.5914 0.8477
C30 C 0.6876(3) 0.4727(4) 0.9873(3)
H25 H 0.7501 0.4271 1.0130
H26 H 0.6681 0.5123 1.0349
C31 C 0.5937(4) 0.4030(4) 0.9919(4)
C32 C 0.5809(3) 0.3872(4) 0.8874(3)
H27 H 0.5409 0.3204 0.9028
H28 H 0.5395 0.4470 0.8418
C33 C 0.6934(3) 0.3823(4) 0.8296(3)
H29 H 0.7343 0.3287 0.8839
C34 C 0.7580(3) 0.4916(3) 0.7960(3)
C35 C 0.8753(4) 0.4629(4) 0.8015(3)
C36 C 0.7369(4) 0.5630(4) 0.6807(3)
C37 C 0.7972(4) 0.6136(4) 0.4942(3)
H30 H 0.7268 0.5906 0.4831
H31 H 0.7962 0.6918 0.4742
C38 C 0.8847(5) 0.5827(6) 0.4296(4)
H32 H 0.8735 0.6160 0.3547
H33 H 0.8849 0.5051 0.4504
H34 H 0.9538 0.6063 0.4409
C39 C 0.6931(3) 0.3397(3) 0.7395(3)
C40 C 0.6120(3) 0.3644(4) 0.6704(3)
H35 H 0.5535 0.4081 0.6793
C41 C 0.6175(3) 0.3250(4) 0.5892(3)
C42 C 0.7037(4) 0.2641(4) 0.5697(4)
H36 H 0.7077 0.2404 0.5121
C43 C 0.7841(4) 0.2392(4) 0.6382(4)
H37 H 0.8428 0.1961 0.6284
C44 C 0.7794(4) 0.2768(4) 0.7204(4)
H38 H 0.8358 0.2598 0.7648
N2 N 0.9635(3) 0.4354(3) 0.8113(3)
O4 O 0.5314(2) 0.3624(3) 1.0723(2)
O5 O 0.6534(2) 0.6122(3) 0.6609(2)
O6 O 0.8182(2) 0.5594(2) 0.6087(2)
loop_
_geom_bond_atom_site_label_1
_geom_bond_atom_site_label_2
_geom_bond_site_symmetry_1
_geom_bond_site_symmetry_2
Cl1 C1 1_555 1_555
Cl2 C19 1_555 1_555
C1 C2 1_555 1_555
C2 H1 1_555 1_555
C3 C2 1_555 1_555
H2 C3 1_555 1_555
C4 C3 1_555 1_555
H3 C4 1_555 1_555
C5 C4 1_555 1_555
C6 C1 1_555 1_555
H4 C6 1_555 1_555
C7 C5 1_555 1_555
H5 C7 1_555 1_555
C8 C7 1_555 1_555
H6 C8 1_555 1_555
H7 C8 1_555 1_555
C9 C8 1_555 1_555
C10 C9 1_555 1_555
H8 C10 1_555 1_555
H9 C10 1_555 1_555
C11 C10 1_555 1_555
H10 C11 1_555 1_555
C12 C7 1_555 1_555
C13 C12 1_555 1_555
C14 C12 1_555 1_555
C15 H11 1_555 1_555
H12 C15 1_555 1_555
C16 C15 1_555 1_555
H13 C16 1_555 1_555
H14 C16 1_555 1_555
H15 C16 1_555 1_555
C17 C11 1_555 1_555
C18 C17 1_555 1_555
H16 C18 1_555 1_555
C19 C18 1_555 1_555
C20 C19 1_555 1_555
H17 C20 1_555 1_555
C21 C20 1_555 1_555
H18 C21 1_555 1_555
C22 C17 1_555 1_555
H19 C22 1_555 1_555
N1 C13 1_555 1_555
O1 C9 1_555 1_555
O2 C14 1_555 1_555
O3 C14 1_555 1_555
Cl3 C23 1_555 1_555
Cl4 C41 1_555 1_555
C23 C24 1_555 1_555
C24 H20 1_555 1_555
C25 C24 1_555 1_555
H21 C25 1_555 1_555
C26 C25 1_555 1_555
H22 C26 1_555 1_555
C27 C26 1_555 1_555
C28 C23 1_555 1_555
H23 C28 1_555 1_555
C29 C27 1_555 1_555
H24 C29 1_555 1_555
C30 C29 1_555 1_555
H25 C30 1_555 1_555
H26 C30 1_555 1_555
C31 C30 1_555 1_555
C32 C31 1_555 1_555
H27 C32 1_555 1_555
H28 C32 1_555 1_555
C33 C32 1_555 1_555
H29 C33 1_555 1_555
C34 C29 1_555 1_555
C35 C34 1_555 1_555
C36 C34 1_555 1_555
C37 H30 1_555 1_555
H31 C37 1_555 1_555
C38 C37 1_555 1_555
H32 C38 1_555 1_555
H33 C38 1_555 1_555
H34 C38 1_555 1_555
C39 C33 1_555 1_555
C40 C39 1_555 1_555
H35 C40 1_555 1_555
C41 C40 1_555 1_555
C42 C41 1_555 1_555
H36 C42 1_555 1_555
C43 C42 1_555 1_555
H37 C43 1_555 1_555
C44 C39 1_555 1_555
H38 C44 1_555 1_555
N2 C35 1_555 1_555
O4 C31 1_555 1_555
O5 C36 1_555 1_555
O6 C36 1_555 1_555
C5 C6 1_555 1_555
C11 C12 1_555 1_555
C15 O3 1_555 1_555
C21 C22 1_555 1_555
C27 C28 1_555 1_555
C33 C34 1_555 1_555
C37 O6 1_555 1_555
C43 C44 1_555 1_555

#END
