
#######################################################################
#
#                 Cambridge Crystallographic Data Centre
#                                CCDC 
#
#######################################################################
#
# If this CIF has been generated from an entry in the Cambridge 
# Structural Database, then it will include bibliographic, chemical, 
# crystal, experimental, refinement or atomic coordinate data resulting 
# from the CCDC's data processing and validation procedures.
#
#######################################################################

data_IROQEN
_chemical_formula_moiety         'C21 H23 Cl1 N2 O5'
_chemical_name_systematic        
'ethyl 5-chloro-6-hydroxy-5-methyl-3-nitro-1,4-diphenylpiperidine-2-carboxylate'
_symmetry_cell_setting           orthorhombic
_symmetry_space_group_name_H-M   'P 21 21 21'
_symmetry_Int_Tables_number      19
_space_group_name_Hall           'P 2ac 2ab'
loop_
_symmetry_equiv_pos_site_id
_symmetry_equiv_pos_as_xyz
1 x,y,z
2 1/2-x,-y,1/2+z
3 -x,1/2+y,1/2-z
4 1/2+x,1/2-y,-z
_cell_length_a                   6.1294(4)
_cell_length_b                   16.4104(12)
_cell_length_c                   20.0839(15)
_cell_angle_alpha                90
_cell_angle_beta                 90
_cell_angle_gamma                90
_cell_volume                     2020.16
_exptl_crystal_colour            colorless
_exptl_crystal_description       prism
_cell_formula_units_Z            4
loop_
_atom_site_label
_atom_site_type_symbol
_atom_site_fract_x
_atom_site_fract_y
_atom_site_fract_z
C1 C 0.1233(4) 0.15771(12) 0.21495(10)
C2 C 0.3188(4) 0.19011(17) 0.25230(11)
H1 H 0.2837 0.1942 0.2998
H2 H 0.3571 0.2441 0.2351
H3 H 0.4424 0.1530 0.2463
C3 C 0.1730(4) 0.15069(14) 0.13993(10)
H4 H 0.2000 0.2071 0.1231
C4 C -0.0057(4) 0.13098(12) 0.03209(10)
C5 C 0.1698(4) 0.16843(14) 0.00101(11)
H5 H 0.2921 0.1856 0.0264
C6 C 0.1662(5) 0.18085(14) -0.06738(12)
H6 H 0.2850 0.2081 -0.0880
C7 C -0.0042(5) 0.15477(14) -0.10576(12)
H7 H -0.0016 0.1617 -0.1527
C8 C -0.1792(5) 0.11838(14) -0.07520(11)
H8 H -0.3000 0.1009 -0.1012
C9 C -0.1816(4) 0.10684(14) -0.00650(11)
H9 H -0.3046 0.0822 0.0141
C10 C -0.1189(4) 0.04561(12) 0.12626(9)
H10 H -0.2661 0.0450 0.1048
C11 C -0.0048(5) -0.03363(14) 0.10639(10)
C12 C -0.0732(6) -0.17479(14) 0.08801(13)
H11 H -0.0004 -0.1934 0.1293
H12 H 0.0331 -0.1779 0.0510
C13 C -0.2657(6) -0.22670(15) 0.07348(14)
H13 H -0.2184 -0.2833 0.0674
H14 H -0.3370 -0.2074 0.0328
H15 H -0.3687 -0.2237 0.1107
C14 C -0.1570(4) 0.05083(12) 0.20263(9)
H16 H -0.2706 0.0933 0.2110
C15 C 0.0453(4) 0.07410(13) 0.24153(10)
H17 H 0.1608 0.0336 0.2297
C16 C 0.0188(4) 0.07078(12) 0.31689(10)
C17 C 0.1848(4) 0.03563(13) 0.35470(11)
H18 H 0.3079 0.0127 0.3329
C18 C 0.1727(4) 0.03374(13) 0.42343(11)
H19 H 0.2880 0.0103 0.4486
C19 C -0.0065(4) 0.06579(14) 0.45546(11)
H20 H -0.0141 0.0652 0.5027
C20 C -0.1738(4) 0.09860(14) 0.41897(11)
H21 H -0.2987 0.1196 0.4411
C21 C -0.1625(4) 0.10154(13) 0.34961(11)
H22 H -0.2791 0.1246 0.3248
N1 N -0.0083(3) 0.11842(10) 0.10294(8)
N2 N -0.2457(4) -0.03019(11) 0.22688(9)
O1 O 0.3714(3) 0.10622(10) 0.13184(7)
H23 H 0.3452 0.0579 0.1288
O2 O 0.1897(3) -0.04299(10) 0.10152(9)
O3 O -0.1516(3) -0.09153(9) 0.09588(8)
O4 O -0.1147(3) -0.08369(10) 0.24014(8)
O5 O -0.4422(3) -0.03732(11) 0.23159(10)
Cl1 Cl -0.09082(10) 0.23352(3) 0.22345(3)
loop_
_geom_bond_atom_site_label_1
_geom_bond_atom_site_label_2
_geom_bond_site_symmetry_1
_geom_bond_site_symmetry_2
C1 C2 1_555 1_555
C2 H1 1_555 1_555
H2 C2 1_555 1_555
H3 C2 1_555 1_555
C3 C1 1_555 1_555
H4 C3 1_555 1_555
C4 C5 1_555 1_555
C5 H5 1_555 1_555
C6 C5 1_555 1_555
H6 C6 1_555 1_555
C7 C6 1_555 1_555
H7 C7 1_555 1_555
C8 C7 1_555 1_555
H8 C8 1_555 1_555
C9 C4 1_555 1_555
H9 C9 1_555 1_555
C10 H10 1_555 1_555
C11 C10 1_555 1_555
C12 H11 1_555 1_555
H12 C12 1_555 1_555
C13 C12 1_555 1_555
H13 C13 1_555 1_555
H14 C13 1_555 1_555
H15 C13 1_555 1_555
C14 C10 1_555 1_555
H16 C14 1_555 1_555
C15 C1 1_555 1_555
H17 C15 1_555 1_555
C16 C15 1_555 1_555
C17 C16 1_555 1_555
H18 C17 1_555 1_555
C18 C17 1_555 1_555
H19 C18 1_555 1_555
C19 C18 1_555 1_555
H20 C19 1_555 1_555
C20 C19 1_555 1_555
H21 C20 1_555 1_555
C21 C16 1_555 1_555
H22 C21 1_555 1_555
N1 C3 1_555 1_555
N2 C14 1_555 1_555
O1 C3 1_555 1_555
H23 O1 1_555 1_555
O2 C11 1_555 1_555
O3 C11 1_555 1_555
O4 N2 1_555 1_555
O5 N2 1_555 1_555
Cl1 C1 1_555 1_555
C4 N1 1_555 1_555
C8 C9 1_555 1_555
C10 N1 1_555 1_555
C12 O3 1_555 1_555
C14 C15 1_555 1_555
C20 C21 1_555 1_555

#END
