
#######################################################################
#
#                 Cambridge Crystallographic Data Centre
#                                CCDC 
#
#######################################################################
#
# If this CIF has been generated from an entry in the Cambridge 
# Structural Database, then it will include bibliographic, chemical, 
# crystal, experimental, refinement or atomic coordinate data resulting 
# from the CCDC's data processing and validation procedures.
#
#######################################################################

data_IROREM
_chemical_formula_moiety         'C8 H3 Cl1 O3'
_chemical_name_systematic        5-Chloro-2-benzofuran-1,3-dione
_symmetry_cell_setting           triclinic
_symmetry_space_group_name_H-M   'P -1'
_symmetry_Int_Tables_number      2
_space_group_name_Hall           '-P 1'
loop_
_symmetry_equiv_pos_site_id
_symmetry_equiv_pos_as_xyz
1 x,y,z
2 -x,-y,-z
_cell_length_a                   6.929(2)
_cell_length_b                   7.8540(10)
_cell_length_c                   14.262(2)
_cell_angle_alpha                77.690(10)
_cell_angle_beta                 88.090(10)
_cell_angle_gamma                85.48(2)
_cell_volume                     755.831
_exptl_crystal_colour            colorless
_exptl_crystal_description       prism
_cell_formula_units_Z            4
_exptl_crystal_recrystallization_method 'carbon tetrachloride'
loop_
_atom_site_label
_atom_site_type_symbol
_atom_site_fract_x
_atom_site_fract_y
_atom_site_fract_z
C1 C 0.3212(3) 0.2193(3) 0.85605(15)
C2 C 0.4936(3) 0.1266(3) 0.84215(14)
C3 C 0.6503(3) 0.1204(3) 0.89992(16)
H1 H 0.7670 0.0591 0.8902
C4 C 0.6240(3) 0.2103(3) 0.97325(16)
C5 C 0.4491(3) 0.2986(3) 0.98969(16)
H2 H 0.4357 0.3535 1.0415
C6 C 0.2959(3) 0.3059(3) 0.93035(16)
H3 H 0.1791 0.3671 0.9399
C7 C 0.1873(4) 0.2005(3) 0.78186(16)
C8 C 0.4676(4) 0.0412(3) 0.76166(16)
O1 O 0.0252(3) 0.2577(3) 0.76504(14)
O2 O 0.2818(3) 0.0922(2) 0.72697(11)
O3 O 0.5714(3) -0.0572(3) 0.72757(14)
Cl2 Cl 0.81385(10) 0.21374(10) 1.04831(5)
C9 C 0.2340(3) 0.3788(2) 0.38328(14)
C10 C 0.1032(3) 0.3352(3) 0.32357(14)
C11 C -0.0642(3) 0.2581(3) 0.35791(16)
H4 H -0.1524 0.2286 0.3174
C12 C -0.0931(3) 0.2275(3) 0.45612(17)
C13 C 0.0390(3) 0.2679(3) 0.51685(16)
H5 H 0.0152 0.2427 0.5827
C14 C 0.2058(3) 0.3453(3) 0.48115(15)
H6 H 0.2953 0.3736 0.5215
C15 C 0.3910(3) 0.4619(3) 0.32289(16)
C16 C 0.1766(3) 0.3868(3) 0.22439(16)
O4 O 0.5314(2) 0.5253(2) 0.34222(13)
O5 O 0.3512(2) 0.4620(2) 0.22825(10)
O6 O 0.1155(3) 0.3741(3) 0.15003(12)
Cl1 Cl -0.30224(10) 0.13513(10) 0.50506(6)
loop_
_geom_bond_atom_site_label_1
_geom_bond_atom_site_label_2
_geom_bond_site_symmetry_1
_geom_bond_site_symmetry_2
C1 C2 1_555 1_555
C2 C3 1_555 1_555
C3 H1 1_555 1_555
C4 C3 1_555 1_555
C5 C4 1_555 1_555
H2 C5 1_555 1_555
C6 C1 1_555 1_555
H3 C6 1_555 1_555
C7 C1 1_555 1_555
C8 C2 1_555 1_555
C9 C10 1_555 1_555
C10 C11 1_555 1_555
C11 H4 1_555 1_555
C12 C11 1_555 1_555
C13 C12 1_555 1_555
H5 C13 1_555 1_555
C14 C9 1_555 1_555
H6 C14 1_555 1_555
C15 C9 1_555 1_555
C16 C10 1_555 1_555
O1 C7 1_555 1_555
O2 C7 1_555 1_555
O3 C8 1_555 1_555
O4 C15 1_555 1_555
O5 C15 1_555 1_555
O6 C16 1_555 1_555
Cl1 C12 1_555 1_555
Cl2 C4 1_555 1_555
C5 C6 1_555 1_555
C8 O2 1_555 1_555
C13 C14 1_555 1_555
C16 O5 1_555 1_555

#END
