
#######################################################################
#
#                 Cambridge Crystallographic Data Centre
#                                CCDC 
#
#######################################################################
#
# If this CIF has been generated from an entry in the Cambridge 
# Structural Database, then it will include bibliographic, chemical, 
# crystal, experimental, refinement or atomic coordinate data resulting 
# from the CCDC's data processing and validation procedures.
#
#######################################################################

data_IROSUF
_chemical_formula_moiety         'C52 H46 B1 F2 N3 O8,0.5(C1 H2 Cl2)'
_chemical_name_systematic        
"2,8-bis(3,5-dimethoxyphenyl)-5,5-difluoro-1,3,7,9-tetrakis(4-methoxyphenyl)-5H-dipyrrolo[1,2-c:2',1'-f][1,3,5,2]triazaborinin-4-ium-5-ide dichloromethane solvate"
_symmetry_cell_setting           monoclinic
_symmetry_space_group_name_H-M   'P 2/c'
_symmetry_Int_Tables_number      13
_space_group_name_Hall           '-P 2yc'
loop_
_symmetry_equiv_pos_site_id
_symmetry_equiv_pos_as_xyz
1 x,y,z
2 -x,y,1/2-z
3 -x,-y,-z
4 x,-y,1/2+z
_cell_length_a                   12.926(8)
_cell_length_b                   11.204(7)
_cell_length_c                   19.694(9)
_cell_angle_alpha                90
_cell_angle_beta                 123.00(3)
_cell_angle_gamma                90
_cell_volume                     2392.01
_exptl_crystal_colour            colorless
_exptl_crystal_description       block
_cell_formula_units_Z            2
loop_
_atom_site_label
_atom_site_type_symbol
_atom_site_fract_x
_atom_site_fract_y
_atom_site_fract_z
Cl1 Cl -0.0290(5) 0.2732(6) 0.1715(3)
C28 C 0.0000 0.191(2) 0.2500
H24 H -0.0704 0.1396 0.2339
Cl1A Cl 0.0290(5) 0.2732(6) 0.3285(3)
H24A H 0.0704 0.1396 0.2661
O1 O 0.1796(7) 0.9436(5) 0.3402(4)
O2 O 0.6121(5) 0.5788(5) 0.4193(3)
O3 O 0.4428(8) 0.2156(7) 0.4397(4)
O4 O 0.3446(7) -0.0904(5) 0.1063(4)
C1 C 0.1604(5) 0.5476(5) 0.1605(3)
C2 C 0.2314(5) 0.4430(4) 0.1890(3)
C3 C 0.1838(5) 0.3658(5) 0.1230(3)
C4 C 0.1700(6) 0.6511(5) 0.2097(3)
C5 C 0.1833(11) 0.7670(6) 0.1921(6)
H1 H 0.1887 0.7810 0.1476
C6 C 0.1889(12) 0.8608(7) 0.2368(6)
H2 H 0.2011 0.9374 0.2242
C7 C 0.1767(8) 0.8429(6) 0.2996(4)
C8 C 0.1664(7) 0.7302(6) 0.3212(4)
H3 H 0.1609 0.7175 0.3658
C9 C 0.1643(5) 0.6361(5) 0.2763(3)
H4 H 0.1589 0.5591 0.2917
C10 C 0.1637(12) 0.9326(9) 0.4023(7)
H5 H 0.1678 1.0100 0.4246
H6 H 0.2274 0.8826 0.4434
H7 H 0.0846 0.8975 0.3830
C11 C 0.3359(5) 0.4236(5) 0.2731(3)
C12 C 0.3394(5) 0.3257(5) 0.3153(3)
H8 H 0.2781 0.2679 0.2907
C13 C 0.4363(7) 0.3133(7) 0.3961(4)
C14 C 0.5270(6) 0.3953(8) 0.4319(4)
H9 H 0.5921 0.3856 0.4854
C15 C 0.5224(6) 0.4914(7) 0.3892(5)
C16 C 0.4287(6) 0.5063(5) 0.3095(4)
H10 H 0.4284 0.5720 0.2805
C17 C 0.7152(7) 0.5678(9) 0.5015(5)
H11 H 0.7705 0.6337 0.5145
H12 H 0.7578 0.4944 0.5077
H13 H 0.6863 0.5679 0.5372
C18 C 0.3655(17) 0.1352(17) 0.4111(10)
H14 H 0.3876 0.0751 0.4515
H15 H 0.3626 0.1005 0.3655
H16 H 0.2860 0.1673 0.3939
C19 C 0.2270(5) 0.2457(5) 0.1214(3)
C20 C 0.1482(6) 0.1481(6) 0.0866(4)
H17 H 0.0642 0.1577 0.0646
C21 C 0.1929(9) 0.0383(7) 0.0844(5)
H18 H 0.1392 -0.0262 0.0617
C22 C 0.3133(9) 0.0230(6) 0.1146(4)
C23 C 0.3924(6) 0.1138(6) 0.1497(4)
H19 H 0.4762 0.1026 0.1718
C24 C 0.3480(6) 0.2247(5) 0.1528(3)
H20 H 0.4036 0.2874 0.1775
C25 C 0.4629(14) -0.1182(11) 0.1404(8)
H21 H 0.4698 -0.2004 0.1296
H22 H 0.5062 -0.1061 0.1979
H23 H 0.4982 -0.0684 0.1185
B1 B -0.0029(12) 0.3633(9) -0.0230(8)
F1 F 0.0654(6) 0.3083(6) -0.0538(3)
F2 F -0.0712(6) 0.2579(5) -0.0260(4)
N1 N -0.0288(12) 0.5911(10) 0.0233(8)
C26 C -0.1019(17) 0.5574(15) -0.0569(11)
N2 N -0.0843(13) 0.4458(9) -0.0797(9)
N3 N 0.0770(14) 0.4059(11) 0.0549(9)
C27 C 0.0607(15) 0.5107(12) 0.0768(11)
O1B O -0.1796(7) 0.0564(5) -0.3402(4)
O2B O -0.6121(5) 0.4212(5) -0.4193(3)
O3B O -0.4428(8) 0.7844(7) -0.4397(4)
O4B O -0.3446(7) 1.0904(5) -0.1063(4)
C1B C -0.1604(5) 0.4524(5) -0.1605(3)
C2B C -0.2314(5) 0.5570(4) -0.1890(3)
C3B C -0.1838(5) 0.6342(5) -0.1230(3)
C4B C -0.1700(6) 0.3489(5) -0.2097(3)
C5B C -0.1833(11) 0.2330(6) -0.1921(6)
H1B H -0.1887 0.2190 -0.1476
C6B C -0.1889(12) 0.1392(7) -0.2368(6)
H2B H -0.2011 0.0626 -0.2242
C7B C -0.1767(8) 0.1571(6) -0.2996(4)
C8B C -0.1664(7) 0.2698(6) -0.3212(4)
H3B H -0.1609 0.2825 -0.3658
C9B C -0.1643(5) 0.3639(5) -0.2763(3)
H4B H -0.1589 0.4409 -0.2917
C10B C -0.1637(12) 0.0674(9) -0.4023(7)
H5B H -0.1678 -0.0100 -0.4246
H6B H -0.2274 0.1174 -0.4434
H7B H -0.0846 0.1025 -0.3830
C11B C -0.3359(5) 0.5764(5) -0.2731(3)
C12B C -0.3394(5) 0.6743(5) -0.3153(3)
H8B H -0.2781 0.7321 -0.2907
C13B C -0.4363(7) 0.6867(7) -0.3961(4)
C14B C -0.5270(6) 0.6047(8) -0.4319(4)
H9B H -0.5921 0.6144 -0.4854
C15B C -0.5224(6) 0.5086(7) -0.3892(5)
C16B C -0.4287(6) 0.4937(5) -0.3095(4)
H10B H -0.4284 0.4280 -0.2805
C17B C -0.7152(7) 0.4322(9) -0.5015(5)
H11B H -0.7705 0.3663 -0.5145
H12B H -0.7578 0.5056 -0.5077
H13B H -0.6863 0.4321 -0.5372
C18B C -0.3655(17) 0.8648(17) -0.4111(10)
H14B H -0.3876 0.9249 -0.4515
H15B H -0.3626 0.8995 -0.3655
H16B H -0.2860 0.8327 -0.3939
C19B C -0.2270(5) 0.7543(5) -0.1214(3)
C20B C -0.1482(6) 0.8519(6) -0.0866(4)
H17B H -0.0642 0.8423 -0.0646
C21B C -0.1929(9) 0.9617(7) -0.0844(5)
H18B H -0.1392 1.0262 -0.0617
C22B C -0.3133(9) 0.9770(6) -0.1146(4)
C23B C -0.3924(6) 0.8862(6) -0.1497(4)
H19B H -0.4762 0.8974 -0.1718
C24B C -0.3480(6) 0.7753(5) -0.1528(3)
H20B H -0.4036 0.7126 -0.1775
C25B C -0.4629(14) 1.1182(11) -0.1404(8)
H21B H -0.4698 1.2004 -0.1296
H22B H -0.5062 1.1061 -0.1979
H23B H -0.4982 1.0684 -0.1185
B1B B 0.0029(12) 0.6367(9) 0.0230(8)
F1B F -0.0654(6) 0.6917(6) 0.0538(3)
F2B F 0.0712(6) 0.7421(5) 0.0260(4)
N1B N 0.0288(12) 0.4089(10) -0.0233(8)
C26B C 0.1019(17) 0.4426(15) 0.0569(11)
N2B N 0.0843(13) 0.5542(9) 0.0797(9)
N3B N -0.0770(14) 0.5941(11) -0.0549(9)
C27B C -0.0607(15) 0.4893(12) -0.0768(11)
C29? C 0.514(2) 0.1860(19) 0.5109(9)
H25? H 0.4888 0.1107 0.5203
H26? H 0.5135 0.2454 0.5457
H27? H 0.5962 0.1789 0.5220
H28? H -0.0704 0.1396 0.2339
loop_
_geom_bond_atom_site_label_1
_geom_bond_atom_site_label_2
_geom_bond_site_symmetry_1
_geom_bond_site_symmetry_2
O1 C7 1_555 1_555
O2 C15 1_555 1_555
O3 C13 1_555 1_555
O4 C22 1_555 1_555
C1 C2 1_555 1_555
C2 C3 1_555 1_555
C3 C19 1_555 1_555
C4 C1 1_555 1_555
C5 C4 1_555 1_555
H1 C5 1_555 1_555
C6 C5 1_555 1_555
H2 C6 1_555 1_555
C7 C6 1_555 1_555
C8 C7 1_555 1_555
H3 C8 1_555 1_555
C9 C4 1_555 1_555
H4 C9 1_555 1_555
C10 O1 1_555 1_555
H5 C10 1_555 1_555
H6 C10 1_555 1_555
H7 C10 1_555 1_555
C11 C2 1_555 1_555
C12 C11 1_555 1_555
H8 C12 1_555 1_555
C13 C12 1_555 1_555
C14 C13 1_555 1_555
H9 C14 1_555 1_555
C15 C14 1_555 1_555
C16 C11 1_555 1_555
H10 C16 1_555 1_555
C17 O2 1_555 1_555
H11 C17 1_555 1_555
H12 C17 1_555 1_555
H13 C17 1_555 1_555
C18 O3 1_555 1_555
H14 C18 1_555 1_555
H15 C18 1_555 1_555
H16 C18 1_555 1_555
C19 C20 1_555 1_555
C20 H17 1_555 1_555
C21 C20 1_555 1_555
H18 C21 1_555 1_555
C22 C21 1_555 1_555
C23 C22 1_555 1_555
H19 C23 1_555 1_555
C24 C19 1_555 1_555
H20 C24 1_555 1_555
C25 O4 1_555 1_555
H21 C25 1_555 1_555
H22 C25 1_555 1_555
H23 C25 1_555 1_555
B1 F1 1_555 1_555
F1 N1B 1_555 1_555
F2 B1 1_555 1_555
N1 C26 1_555 1_555
C26 N2 1_555 1_555
N2 B1 1_555 1_555
N3 C3 1_555 1_555
C27 C1 1_555 1_555
Cl1 C28 1_555 1_555
C28 H24 1_555 1_555
O1B C7B 1_555 1_555
O2B C15B 1_555 1_555
O3B C13B 1_555 1_555
O4B C22B 1_555 1_555
C1B N2 1_555 1_555
C2B C1B 1_555 1_555
C3B C26 1_555 1_555
C4B C1B 1_555 1_555
C5B C4B 1_555 1_555
H1B C5B 1_555 1_555
C6B C5B 1_555 1_555
H2B C6B 1_555 1_555
C7B C6B 1_555 1_555
C8B C7B 1_555 1_555
H3B C8B 1_555 1_555
C9B C4B 1_555 1_555
H4B C9B 1_555 1_555
C10B O1B 1_555 1_555
H5B C10B 1_555 1_555
H6B C10B 1_555 1_555
H7B C10B 1_555 1_555
C11B C2B 1_555 1_555
C12B C11B 1_555 1_555
H8B C12B 1_555 1_555
C13B C12B 1_555 1_555
C14B C13B 1_555 1_555
H9B C14B 1_555 1_555
C15B C14B 1_555 1_555
C16B C11B 1_555 1_555
H10B C16B 1_555 1_555
C17B O2B 1_555 1_555
H11B C17B 1_555 1_555
H12B C17B 1_555 1_555
H13B C17B 1_555 1_555
C18B O3B 1_555 1_555
H14B C18B 1_555 1_555
H15B C18B 1_555 1_555
H16B C18B 1_555 1_555
C19B C3B 1_555 1_555
C20B C19B 1_555 1_555
H17B C20B 1_555 1_555
C21B C20B 1_555 1_555
H18B C21B 1_555 1_555
C22B C21B 1_555 1_555
C23B C22B 1_555 1_555
H19B C23B 1_555 1_555
C24B C19B 1_555 1_555
H20B C24B 1_555 1_555
C25B O4B 1_555 1_555
H21B C25B 1_555 1_555
H22B C25B 1_555 1_555
H23B C25B 1_555 1_555
B1B N1 1_555 1_555
F1B N1 1_555 1_555
F2B B1B 1_555 1_555
N1B B1 1_555 1_555
C26B C3 1_555 1_555
N2B C1 1_555 1_555
N3B N1 1_555 1_555
C27B C26 1_555 1_555
Cl1A C28 1_555 1_555
H24A C28 1_555 1_555
C8 C9 1_555 1_555
C15 C16 1_555 1_555
C23 C24 1_555 1_555
B1 N3 1_555 1_555
B1 C26B 1_555 1_555
N1 C27 1_555 1_555
N1 N2B 1_555 1_555
C26 B1B 1_555 1_555
N2 N1B 1_555 1_555
N2 N3B 1_555 1_555
N2 C27B 1_555 1_555
N3 C27 1_555 1_555
N3 N1B 1_555 1_555
N3 N2B 1_555 1_555
C27 C26B 1_555 1_555
C27 N2B 1_555 1_555
C1B C27B 1_555 1_555
C2B C3B 1_555 1_555
C3B N3B 1_555 1_555
C8B C9B 1_555 1_555
C15B C16B 1_555 1_555
C23B C24B 1_555 1_555
B1B F1B 1_555 1_555
B1B N2B 1_555 1_555
B1B N3B 1_555 1_555
N1B C26B 1_555 1_555
N1B C27B 1_555 1_555
C26B N2B 1_555 1_555
N3B C27B 1_555 1_555

#END
