
#######################################################################
#
#                 Cambridge Crystallographic Data Centre
#                                CCDC 
#
#######################################################################
#
# If this CIF has been generated from an entry in the Cambridge 
# Structural Database, then it will include bibliographic, chemical, 
# crystal, experimental, refinement or atomic coordinate data resulting 
# from the CCDC's data processing and validation procedures.
#
#######################################################################

data_IROSOZ
_chemical_formula_moiety         'C52 H42 B1 F2 N3 O8,C1 H1 Cl3'
_chemical_name_systematic        
"21,21-difluoro-3,5,7,13,15,17-hexamethoxy-9,11-bis(4-methoxyphenyl)-21H-dibenzo[e,g]dibenzo[4',5':6',7']indolo[1',2':3,4][1,3,5,2]triazaborinino[1,6-a]indole chloroform solvate"
_symmetry_cell_setting           triclinic
_symmetry_space_group_name_H-M   'P -1'
_symmetry_Int_Tables_number      2
_space_group_name_Hall           '-P 1'
loop_
_symmetry_equiv_pos_site_id
_symmetry_equiv_pos_as_xyz
1 x,y,z
2 -x,-y,-z
_cell_length_a                   8.332(2)
_cell_length_b                   16.762(4)
_cell_length_c                   18.465(5)
_cell_angle_alpha                114.140(3)
_cell_angle_beta                 92.762(3)
_cell_angle_gamma                92.985(3)
_cell_volume                     2343.28
_exptl_crystal_colour            colorless
_exptl_crystal_description       block
_cell_formula_units_Z            2
loop_
_atom_site_label
_atom_site_type_symbol
_atom_site_fract_x
_atom_site_fract_y
_atom_site_fract_z
B1 B 0.9306(4) 0.6947(2) 0.27956(18)
C1 C 0.9980(3) 0.78467(17) 0.43745(16)
C2 C 0.9711(3) 0.76780(17) 0.50559(15)
C3 C 0.8957(3) 0.68291(17) 0.47930(15)
C4 C 0.8694(3) 0.65210(17) 0.39503(15)
C5 C 0.7868(3) 0.55048(17) 0.26923(15)
C6 C 0.7134(3) 0.46841(17) 0.21236(16)
C7 C 0.7162(3) 0.47298(17) 0.13846(15)
C8 C 0.8002(3) 0.55492(17) 0.15101(15)
C9 C 1.4216(5) 1.1531(2) 0.5417(2)
H1 H 1.3392 1.1748 0.5780
H2 H 1.4776 1.2011 0.5355
H3 H 1.4963 1.1245 0.5625
C10 C 1.2660(4) 1.01793(19) 0.46333(19)
C11 C 1.2437(4) 0.99974(19) 0.52811(18)
H4 H 1.2893 1.0391 0.5777
C12 C 1.1995(4) 0.9605(2) 0.38778(19)
H5 H 1.2141 0.9730 0.3438
C13 C 1.1126(4) 0.88560(19) 0.37956(18)
H6 H 1.0682 0.8475 0.3292
C14 C 1.1537(3) 0.92327(17) 0.52213(16)
C15 C 1.0876(3) 0.86369(17) 0.44464(16)
C16 C 1.3496(8) 1.0899(3) 0.7609(2)
H7 H 1.2611 1.1142 0.7920
H8 H 1.4184 1.1363 0.7584
H9 H 1.4099 1.0587 0.7851
C17 C 0.8746(5) 0.8036(3) 0.7895(2)
H10 H 0.7692 0.8044 0.7664
H11 H 0.8659 0.8041 0.8413
H12 H 0.9228 0.7516 0.7561
C18 C 1.1236(4) 0.9537(2) 0.73788(18)
H13 H 1.1602 0.9932 0.7891
C19 C 1.0158(4) 0.8834(2) 0.72717(17)
C20 C 1.1771(4) 0.96576(19) 0.67340(18)
C21 C 0.9641(4) 0.82345(19) 0.65195(16)
H14 H 0.8924 0.7760 0.6450
C22 C 1.1211(3) 0.90787(17) 0.59336(16)
C23 C 1.0198(3) 0.83384(17) 0.58527(16)
C24 C 0.7025(4) 0.3757(2) 0.5951(2)
H15 H 0.5964 0.3955 0.6051
H16 H 0.7222 0.3364 0.6199
H17 H 0.7103 0.3457 0.5387
C25 C 0.8273(4) 0.50505(19) 0.58991(16)
C26 C 0.7100(3) 0.5070(2) 0.53498(17)
H18 H 0.6182 0.4683 0.5206
C27 C 0.9646(4) 0.56242(19) 0.60999(16)
H19 H 1.0438 0.5612 0.6467
C28 C 0.7304(3) 0.56721(19) 0.50139(17)
H20 H 0.6507 0.5684 0.4649
C29 C 0.9841(3) 0.62103(18) 0.57586(15)
H21 H 1.0774 0.6586 0.5895
C30 C 0.8666(3) 0.62555(17) 0.52089(15)
C31 C 0.5084(6) 0.1901(4) 0.3619(3)
H22 H 0.5872 0.2220 0.4054
H23 H 0.4830 0.1328 0.3602
H24 H 0.4126 0.2211 0.3693
C32 C 0.5966(5) 0.2561(2) 0.2769(2)
C33 C 0.5282(5) 0.3341(3) 0.3150(2)
H25 H 0.4589 0.3405 0.3547
C34 C 0.6967(4) 0.2461(2) 0.2179(2)
H26 H 0.7410 0.1929 0.1916
C35 C 0.7317(4) 0.31450(19) 0.19731(19)
H27 H 0.8017 0.3071 0.1577
C36 C 0.5638(4) 0.4042(2) 0.29339(19)
H28 H 0.5184 0.4572 0.3193
C37 C 0.6656(3) 0.39495(18) 0.23400(15)
C38 C 0.3442(6) 0.1884(3) 0.0282(2)
H29 H 0.4416 0.1842 0.0559
H30 H 0.2794 0.1337 0.0092
H31 H 0.2852 0.2343 0.0637
C39 C 0.5518(4) 0.3304(2) -0.22144(18)
H32 H 0.6048 0.2777 -0.2320
H33 H 0.5762 0.3522 -0.2606
H34 H 0.4375 0.3180 -0.2237
C40 C 0.4998(4) 0.30162(19) -0.08715(17)
H35 H 0.4520 0.2636 -0.1368
C41 C 0.4774(4) 0.28318(18) -0.02131(17)
C42 C 0.5914(4) 0.37525(19) -0.07969(16)
C43 C 0.5474(4) 0.33868(18) 0.05179(17)
H36 H 0.5309 0.3269 0.0960
C44 C 0.6689(3) 0.43537(17) -0.00501(15)
C45 C 0.6443(3) 0.41368(17) 0.06018(15)
C46 C 0.8631(5) 0.5793(2) -0.18466(19)
H37 H 0.9013 0.5221 -0.1991
H38 H 0.8960 0.6024 -0.2218
H39 H 0.7476 0.5751 -0.1856
C47 C 0.8957(4) 0.61245(19) -0.04567(17)
C48 C 0.8042(4) 0.53714(19) -0.05641(17)
H40 H 0.7648 0.4990 -0.1076
C49 C 0.9608(4) 0.6698(2) 0.02970(18)
H41 H 1.0249 0.7198 0.0366
C50 C 0.9293(4) 0.6514(2) 0.09315(17)
H42 H 0.9725 0.6900 0.1435
C51 C 0.7686(3) 0.51608(17) 0.00744(16)
C52 C 0.8332(3) 0.57574(18) 0.08520(16)
F1 F 1.08844(19) 0.69544(11) 0.25911(9)
F2 F 0.8483(2) 0.75723(10) 0.26463(9)
N1 N 0.9314(3) 0.71426(14) 0.36985(12)
N2 N 0.8013(3) 0.57330(14) 0.34681(12)
N3 N 0.8416(3) 0.60226(14) 0.23152(12)
O1 O 1.3499(3) 1.09216(15) 0.46672(14)
O2 O 1.2900(4) 1.03162(17) 0.68317(14)
O3 O 0.9724(3) 0.87894(15) 0.79630(12)
O4 O 0.8181(3) 0.44859(15) 0.62677(13)
O5 O 0.5690(4) 0.18234(19) 0.2922(2)
O6 O 0.3828(3) 0.20756(15) -0.03695(13)
O7 O 0.6068(3) 0.39456(15) -0.14440(12)
O8 O 0.9293(3) 0.63612(15) -0.10650(12)
C53 C 0.7587(15) 0.0659(9) 0.9200(6)
H43 H 0.8358 0.0212 0.8992
Cl1 Cl 0.8038(4) 0.10726(18) 0.85559(19)
Cl2 Cl 0.8403(5) 0.0980(3) 1.00753(18)
Cl3 Cl 0.6002(3) -0.01276(15) 0.89052(18)
loop_
_geom_bond_atom_site_label_1
_geom_bond_atom_site_label_2
_geom_bond_site_symmetry_1
_geom_bond_site_symmetry_2
B1 F1 1_555 1_555
C1 C2 1_555 1_555
C2 C3 1_555 1_555
C3 C4 1_555 1_555
C4 N1 1_555 1_555
C5 C6 1_555 1_555
C6 C7 1_555 1_555
C7 C8 1_555 1_555
C8 C52 1_555 1_555
C9 H1 1_555 1_555
H2 C9 1_555 1_555
H3 C9 1_555 1_555
C10 C11 1_555 1_555
C11 H4 1_555 1_555
C12 C10 1_555 1_555
H5 C12 1_555 1_555
C13 C12 1_555 1_555
H6 C13 1_555 1_555
C14 C11 1_555 1_555
C15 C1 1_555 1_555
C16 H7 1_555 1_555
H8 C16 1_555 1_555
H9 C16 1_555 1_555
C17 H10 1_555 1_555
H11 C17 1_555 1_555
H12 C17 1_555 1_555
C18 H13 1_555 1_555
C19 C18 1_555 1_555
C20 C18 1_555 1_555
C21 C19 1_555 1_555
H14 C21 1_555 1_555
C22 C14 1_555 1_555
C23 C2 1_555 1_555
C24 H15 1_555 1_555
H16 C24 1_555 1_555
H17 C24 1_555 1_555
C25 C26 1_555 1_555
C26 H18 1_555 1_555
C27 C25 1_555 1_555
H19 C27 1_555 1_555
C28 C26 1_555 1_555
H20 C28 1_555 1_555
C29 C27 1_555 1_555
H21 C29 1_555 1_555
C30 C3 1_555 1_555
C31 H22 1_555 1_555
H23 C31 1_555 1_555
H24 C31 1_555 1_555
C32 C33 1_555 1_555
C33 H25 1_555 1_555
C34 C32 1_555 1_555
H26 C34 1_555 1_555
C35 C34 1_555 1_555
H27 C35 1_555 1_555
C36 C33 1_555 1_555
H28 C36 1_555 1_555
C37 C6 1_555 1_555
C38 H29 1_555 1_555
H30 C38 1_555 1_555
H31 C38 1_555 1_555
C39 H32 1_555 1_555
H33 C39 1_555 1_555
H34 C39 1_555 1_555
C40 H35 1_555 1_555
C41 C40 1_555 1_555
C42 C40 1_555 1_555
C43 C41 1_555 1_555
H36 C43 1_555 1_555
C44 C42 1_555 1_555
C45 C7 1_555 1_555
C46 H37 1_555 1_555
H38 C46 1_555 1_555
H39 C46 1_555 1_555
C47 C48 1_555 1_555
C48 H40 1_555 1_555
C49 C47 1_555 1_555
H41 C49 1_555 1_555
C50 C49 1_555 1_555
H42 C50 1_555 1_555
C51 C44 1_555 1_555
C52 C50 1_555 1_555
F2 B1 1_555 1_555
N1 B1 1_555 1_555
N2 C4 1_555 1_555
N3 B1 1_555 1_555
O1 C9 1_555 1_555
O2 C16 1_555 1_555
O3 C17 1_555 1_555
O4 C24 1_555 1_555
O5 C31 1_555 1_555
O6 C38 1_555 1_555
O7 C39 1_555 1_555
O8 C46 1_555 1_555
C53 H43 1_555 1_555
Cl1 C53 1_555 1_555
Cl2 C53 1_555 1_555
Cl3 C53 1_555 1_555
C1 N1 1_555 1_555
C5 N2 1_555 1_555
C5 N3 1_555 1_555
C8 N3 1_555 1_555
C10 O1 1_555 1_555
C13 C15 1_555 1_555
C14 C15 1_555 1_555
C19 O3 1_555 1_555
C20 C22 1_555 1_555
C20 O2 1_555 1_555
C21 C23 1_555 1_555
C22 C23 1_555 1_555
C25 O4 1_555 1_555
C28 C30 1_555 1_555
C29 C30 1_555 1_555
C32 O5 1_555 1_555
C35 C37 1_555 1_555
C36 C37 1_555 1_555
C41 O6 1_555 1_555
C42 O7 1_555 1_555
C43 C45 1_555 1_555
C44 C45 1_555 1_555
C47 O8 1_555 1_555
C48 C51 1_555 1_555
C51 C52 1_555 1_555

#END
