
#######################################################################
#
#                 Cambridge Crystallographic Data Centre
#                                CCDC 
#
#######################################################################
#
# If this CIF has been generated from an entry in the Cambridge 
# Structural Database, then it will include bibliographic, chemical, 
# crystal, experimental, refinement or atomic coordinate data resulting 
# from the CCDC's data processing and validation procedures.
#
#######################################################################

data_IROVUI
_chemical_formula_moiety         'C18 H23 N2 1+,C2 F3 O2 1-'
_chemical_name_systematic        
'4-benzyl-2-methyl-6-phenylpiperazin-1-ium trifluoroacetate'
_symmetry_cell_setting           orthorhombic
_symmetry_space_group_name_H-M   'P 21 21 21'
_symmetry_Int_Tables_number      19
_space_group_name_Hall           'P 2ac 2ab'
loop_
_symmetry_equiv_pos_site_id
_symmetry_equiv_pos_as_xyz
1 x,y,z
2 1/2+x,1/2-y,-z
3 -x,1/2+y,1/2-z
4 1/2-x,-y,1/2+z
_cell_length_a                   6.18420(10)
_cell_length_b                   14.4404(2)
_cell_length_c                   21.7762(3)
_cell_angle_alpha                90
_cell_angle_beta                 90
_cell_angle_gamma                90
_cell_volume                     1944.67
_exptl_crystal_colour            colorless
_exptl_crystal_description       block
_cell_formula_units_Z            4
loop_
_atom_site_label
_atom_site_type_symbol
_atom_site_fract_x
_atom_site_fract_y
_atom_site_fract_z
N1 N -0.4984(5) -0.6410(2) -0.18892(14)
H1 H -0.3634 -0.6601 -0.1952
H2 H -0.5873 -0.6814 -0.2066
N2 N -0.4377(6) -0.4756(2) -0.11952(15)
C1 C -0.4726(10) -0.5546(4) -0.2858(2)
H3 H -0.3281 -0.5779 -0.2904
H4 H -0.4823 -0.4943 -0.3042
H5 H -0.5723 -0.5958 -0.3057
C2 C -0.5282(7) -0.5479(3) -0.21779(18)
H6 H -0.6797 -0.5290 -0.2135
C3 C -0.3859(7) -0.4788(3) -0.18481(18)
H7 H -0.2354 -0.4960 -0.1901
H8 H -0.4062 -0.4178 -0.2026
C4 C -0.3934(7) -0.5662(3) -0.09250(18)
H9 H -0.4162 -0.5638 -0.0485
H10 H -0.2440 -0.5833 -0.1000
C5 C -0.5431(6) -0.6380(3) -0.12090(16)
H11 H -0.6920 -0.6163 -0.1153
C6 C -0.5280(7) -0.7351(3) -0.09395(18)
C7 C -0.7058(8) -0.7922(3) -0.0977(2)
H12 H -0.8323 -0.7708 -0.1159
C8 C -0.6971(10) -0.8821(3) -0.0744(2)
H13 H -0.8172 -0.9206 -0.0774
C9 C -0.5132(11) -0.9135(3) -0.0474(3)
H14 H -0.5073 -0.9736 -0.0322
C10 C -0.3387(10) -0.8575(4) -0.0426(3)
H15 H -0.2142 -0.8793 -0.0235
C11 C -0.3427(8) -0.7681(3) -0.0656(3)
H16 H -0.2215 -0.7303 -0.0620
C12 C -0.3129(9) -0.4024(3) -0.0895(2)
H17 H -0.3286 -0.3458 -0.1131
H18 H -0.1612 -0.4194 -0.0902
C13 C -0.3793(8) -0.3833(3) -0.0234(2)
C14 C -0.2322(8) -0.3406(3) 0.0151(2)
H19 H -0.0951 -0.3258 0.0006
C15 C -0.2876(11) -0.3199(4) 0.0747(3)
H20 H -0.1881 -0.2906 0.1002
C16 C -0.4889(12) -0.3423(4) 0.0971(3)
H21 H -0.5253 -0.3293 0.1376
C17 C -0.6351(10) -0.3840(4) 0.0587(2)
H22 H -0.7724 -0.3986 0.0733
C18 C -0.5807(8) -0.4045(3) -0.0013(2)
H23 H -0.6814 -0.4329 -0.0268
F1 F -0.0634(13) -0.9022(4) -0.2186(3)
F2 F -0.0926(8) -0.8592(3) -0.3060(2)
F3 F -0.3168(7) -0.8152(4) -0.2400(4)
O1 O -0.0568(5) -0.6822(2) -0.20524(16)
O2 O 0.2162(5) -0.7553(3) -0.25133(17)
C19 C 0.0264(7) -0.7456(3) -0.23441(18)
C20 C -0.1223(8) -0.8262(4) -0.2517(3)
loop_
_geom_bond_atom_site_label_1
_geom_bond_atom_site_label_2
_geom_bond_site_symmetry_1
_geom_bond_site_symmetry_2
N1 H1 1_555 1_555
H2 N1 1_555 1_555
N2 C3 1_555 1_555
C1 H3 1_555 1_555
H4 C1 1_555 1_555
H5 C1 1_555 1_555
C2 N1 1_555 1_555
H6 C2 1_555 1_555
C3 C2 1_555 1_555
H7 C3 1_555 1_555
H8 C3 1_555 1_555
C4 N2 1_555 1_555
H9 C4 1_555 1_555
H10 C4 1_555 1_555
C5 N1 1_555 1_555
H11 C5 1_555 1_555
C6 C5 1_555 1_555
C7 C6 1_555 1_555
H12 C7 1_555 1_555
C8 C7 1_555 1_555
H13 C8 1_555 1_555
C9 C8 1_555 1_555
H14 C9 1_555 1_555
C10 C9 1_555 1_555
H15 C10 1_555 1_555
C11 C6 1_555 1_555
H16 C11 1_555 1_555
C12 N2 1_555 1_555
H17 C12 1_555 1_555
H18 C12 1_555 1_555
C13 C12 1_555 1_555
C14 C13 1_555 1_555
H19 C14 1_555 1_555
C15 C14 1_555 1_555
H20 C15 1_555 1_555
C16 C15 1_555 1_555
H21 C16 1_555 1_555
C17 C16 1_555 1_555
H22 C17 1_555 1_555
C18 C13 1_555 1_555
H23 C18 1_555 1_555
F1 C20 1_555 1_555
F2 C20 1_555 1_555
F3 C20 1_555 1_555
O1 C19 1_555 1_555
O2 C19 1_555 1_555
C19 C20 1_555 1_555
C1 C2 1_555 1_555
C4 C5 1_555 1_555
C10 C11 1_555 1_555
C17 C18 1_555 1_555

#END
