
#######################################################################
#
#                 Cambridge Crystallographic Data Centre
#                                CCDC 
#
#######################################################################
#
# If this CIF has been generated from an entry in the Cambridge 
# Structural Database, then it will include bibliographic, chemical, 
# crystal, experimental, refinement or atomic coordinate data resulting 
# from the CCDC's data processing and validation procedures.
#
#######################################################################

data_IROWAP
_chemical_formula_moiety         'C24 H23 Br1 N2 O1'
_chemical_name_systematic        
(4-bromophenyl)(4-methyl-2,3-diphenylpiperazin-1-yl)methanone
_symmetry_cell_setting           orthorhombic
_symmetry_space_group_name_H-M   'P 21 21 21'
_symmetry_Int_Tables_number      19
_space_group_name_Hall           'P 2ac 2ab'
loop_
_symmetry_equiv_pos_site_id
_symmetry_equiv_pos_as_xyz
1 x,y,z
2 1/2+x,1/2-y,-z
3 -x,1/2+y,1/2-z
4 1/2-x,-y,1/2+z
_cell_length_a                   9.418(4)
_cell_length_b                   11.118(5)
_cell_length_c                   19.524(9)
_cell_angle_alpha                90
_cell_angle_beta                 90
_cell_angle_gamma                90
_cell_volume                     2044.34
_exptl_crystal_colour            colorless
_exptl_crystal_description       block
_cell_formula_units_Z            4
_exptl_crystal_recrystallization_method 'dichloromethane / hexane'
loop_
_atom_site_label
_atom_site_type_symbol
_atom_site_fract_x
_atom_site_fract_y
_atom_site_fract_z
Br1 Br 0.26051(6) 0.25646(6) 0.03584(4)
O1 O 0.6952(4) 0.6524(4) 0.1929(2)
N1 N 1.1130(5) 0.6040(5) 0.0507(2)
N2 N 0.8686(5) 0.5647(4) 0.1325(2)
C1 C 0.9971(6) 0.5255(7) 0.0278(3)
H1 H 1.0353 0.4625 -0.0012
H2 H 0.9303 0.5720 0.0008
C2 C 0.9214(7) 0.4701(6) 0.0871(3)
H3 H 0.8427 0.4217 0.0708
H4 H 0.9858 0.4180 0.1121
C3 C 1.0572(6) 0.7011(5) 0.0928(3)
H5 H 0.9904 0.7467 0.0644
C4 C 0.9741(5) 0.6539(5) 0.1546(3)
H6 H 0.9194 0.7226 0.1718
C5 C 1.1855(8) 0.6499(7) -0.0102(3)
H7 H 1.1185 0.6911 -0.0388
H8 H 1.2265 0.5840 -0.0351
H9 H 1.2591 0.7046 0.0034
C6 C 1.1691(6) 0.7874(5) 0.1165(3)
C7 C 1.3070(6) 0.7519(7) 0.1311(3)
H10 H 1.3338 0.6723 0.1246
C8 C 1.4043(7) 0.8338(7) 0.1552(3)
H11 H 1.4969 0.8094 0.1642
C9 C 1.3659(8) 0.9504(7) 0.1662(3)
H12 H 1.4326 1.0055 0.1820
C10 C 1.2304(8) 0.9862(6) 0.1539(3)
H13 H 1.2034 1.0652 0.1625
C11 C 1.1339(7) 0.9054(6) 0.1287(3)
H14 H 1.0418 0.9311 0.1197
C12 C 1.0639(6) 0.6124(5) 0.2142(3)
C13 C 1.1548(7) 0.5168(6) 0.2126(4)
H15 H 1.1615 0.4705 0.1730
C14 C 1.2371(8) 0.4876(7) 0.2689(4)
H16 H 1.2976 0.4216 0.2673
C15 C 1.2292(9) 0.5554(8) 0.3263(4)
H17 H 1.2857 0.5370 0.3639
C16 C 1.1391(10) 0.6499(8) 0.3289(4)
H18 H 1.1336 0.6960 0.3686
C17 C 1.0555(7) 0.6785(6) 0.2736(3)
H19 H 0.9929 0.7429 0.2763
C18 C 0.7336(7) 0.5757(5) 0.1520(3)
C19 C 0.6265(6) 0.4922(6) 0.1213(3)
C20 C 0.5726(8) 0.3992(7) 0.1588(3)
H20 H 0.6091 0.3835 0.2022
C21 C 0.4645(8) 0.3280(7) 0.1333(4)
H21 H 0.4281 0.2651 0.1594
C22 C 0.4127(6) 0.3504(6) 0.0706(3)
C23 C 0.4675(8) 0.4389(7) 0.0318(4)
H22 H 0.4334 0.4524 -0.0123
C24 C 0.5738(8) 0.5086(7) 0.0577(3)
H23 H 0.6113 0.5697 0.0307
loop_
_geom_bond_atom_site_label_1
_geom_bond_atom_site_label_2
_geom_bond_site_symmetry_1
_geom_bond_site_symmetry_2
Br1 C22 1_555 1_555
O1 C18 1_555 1_555
N1 C1 1_555 1_555
N2 C2 1_555 1_555
C1 H1 1_555 1_555
H2 C1 1_555 1_555
C2 C1 1_555 1_555
H3 C2 1_555 1_555
H4 C2 1_555 1_555
C3 N1 1_555 1_555
H5 C3 1_555 1_555
C4 N2 1_555 1_555
H6 C4 1_555 1_555
C5 N1 1_555 1_555
H7 C5 1_555 1_555
H8 C5 1_555 1_555
H9 C5 1_555 1_555
C6 C3 1_555 1_555
C7 C6 1_555 1_555
H10 C7 1_555 1_555
C8 C7 1_555 1_555
H11 C8 1_555 1_555
C9 C8 1_555 1_555
H12 C9 1_555 1_555
C10 C9 1_555 1_555
H13 C10 1_555 1_555
C11 C6 1_555 1_555
H14 C11 1_555 1_555
C12 C4 1_555 1_555
C13 C12 1_555 1_555
H15 C13 1_555 1_555
C14 C13 1_555 1_555
H16 C14 1_555 1_555
C15 C14 1_555 1_555
H17 C15 1_555 1_555
C16 C15 1_555 1_555
H18 C16 1_555 1_555
C17 C12 1_555 1_555
H19 C17 1_555 1_555
C18 N2 1_555 1_555
C19 C18 1_555 1_555
C20 C19 1_555 1_555
H20 C20 1_555 1_555
C21 C20 1_555 1_555
H21 C21 1_555 1_555
C22 C21 1_555 1_555
C23 C22 1_555 1_555
H22 C23 1_555 1_555
C24 C19 1_555 1_555
H23 C24 1_555 1_555
C3 C4 1_555 1_555
C10 C11 1_555 1_555
C16 C17 1_555 1_555
C23 C24 1_555 1_555

#END
