
#######################################################################
#
#                 Cambridge Crystallographic Data Centre
#                                CCDC 
#
#######################################################################
#
# If this CIF has been generated from an entry in the Cambridge 
# Structural Database, then it will include bibliographic, chemical, 
# crystal, experimental, refinement or atomic coordinate data resulting 
# from the CCDC's data processing and validation procedures.
#
#######################################################################

data_IROYUL
_chemical_formula_moiety         'C19 H12 O2 S1'
_chemical_name_systematic        2-(5-acetyl-2-thienyl)-9H-fluoren-9-one
_symmetry_cell_setting           triclinic
_symmetry_space_group_name_H-M   'P -1'
_symmetry_Int_Tables_number      2
_space_group_name_Hall           '-P 1'
loop_
_symmetry_equiv_pos_site_id
_symmetry_equiv_pos_as_xyz
1 x,y,z
2 -x,-y,-z
_cell_length_a                   6.1090(6)
_cell_length_b                   7.6441(7)
_cell_length_c                   15.5179(14)
_cell_angle_alpha                98.759(2)
_cell_angle_beta                 99.355(2)
_cell_angle_gamma                96.6270(10)
_cell_volume                     699.339
_exptl_crystal_colour            yellow
_cell_formula_units_Z            2
loop_
_atom_site_label
_atom_site_type_symbol
_atom_site_fract_x
_atom_site_fract_y
_atom_site_fract_z
O1 O 1.0486(7) 1.6728(7) 0.8972(3)
O2 O 0.0099(6) 0.9587(6) 0.3635(2)
S1 S 0.8296(2) 1.49629(19) 0.71612(8)
C1 C 0.7395(10) 1.6510(9) 0.9711(4)
H1 H 0.7245 1.5419 0.9945
H2 H 0.5940 1.6847 0.9545
H3 H 0.8302 1.7439 1.0155
C2 C 0.8475(9) 1.6242(8) 0.8921(4)
C3 C 0.7104(9) 1.5305(7) 0.8084(3)
C4 C 0.4906(8) 1.4537(8) 0.7905(3)
H4 H 0.3975 1.4575 0.8324
C5 C 0.4218(8) 1.3691(7) 0.7022(3)
H5 H 0.2772 1.3103 0.6796
C6 C 0.5835(8) 1.3803(7) 0.6526(3)
C7 C 0.5713(8) 1.3088(6) 0.5589(3)
C8 C 0.3746(8) 1.2048(7) 0.5075(3)
H6 H 0.2491 1.1791 0.5326
C9 C 0.3724(8) 1.1424(7) 0.4196(3)
C10 C 0.1924(8) 1.0266(7) 0.3520(3)
C11 C 0.2804(8) 1.0056(7) 0.2684(3)
C12 C 0.1818(9) 0.9163(8) 0.1845(4)
H7 H 0.0360 0.8563 0.1737
C13 C 0.3026(10) 0.9175(8) 0.1174(4)
H8 H 0.2388 0.8572 0.0606
C14 C 0.5225(10) 1.0094(8) 0.1340(4)
H9 H 0.6034 1.0088 0.0881
C15 C 0.6183(9) 1.0997(7) 0.2171(3)
H10 H 0.7626 1.1623 0.2275
C16 C 0.5002(8) 1.0972(7) 0.2846(3)
C17 C 0.5569(8) 1.1812(6) 0.3792(3)
C18 C 0.7501(8) 1.2806(7) 0.4286(3)
H11 H 0.8750 1.3054 0.4030
C19 C 0.7551(8) 1.3435(7) 0.5179(3)
H12 H 0.8858 1.4111 0.5516
loop_
_geom_bond_atom_site_label_1
_geom_bond_atom_site_label_2
_geom_bond_site_symmetry_1
_geom_bond_site_symmetry_2
O1 C2 1_555 1_555
O2 C10 1_555 1_555
S1 C3 1_555 1_555
C1 H1 1_555 1_555
H2 C1 1_555 1_555
H3 C1 1_555 1_555
C2 C1 1_555 1_555
C3 C2 1_555 1_555
C4 C3 1_555 1_555
H4 C4 1_555 1_555
C5 C4 1_555 1_555
H5 C5 1_555 1_555
C6 S1 1_555 1_555
C7 C6 1_555 1_555
C8 C7 1_555 1_555
H6 C8 1_555 1_555
C9 C8 1_555 1_555
C10 C9 1_555 1_555
C11 C10 1_555 1_555
C12 C11 1_555 1_555
H7 C12 1_555 1_555
C13 C12 1_555 1_555
H8 C13 1_555 1_555
C14 C13 1_555 1_555
H9 C14 1_555 1_555
C15 C14 1_555 1_555
H10 C15 1_555 1_555
C16 C11 1_555 1_555
C17 C9 1_555 1_555
C18 C17 1_555 1_555
H11 C18 1_555 1_555
C19 C7 1_555 1_555
H12 C19 1_555 1_555
C5 C6 1_555 1_555
C15 C16 1_555 1_555
C16 C17 1_555 1_555
C18 C19 1_555 1_555

#END
