
#######################################################################
#
#                 Cambridge Crystallographic Data Centre
#                                CCDC 
#
#######################################################################
#
# If this CIF has been generated from an entry in the Cambridge 
# Structural Database, then it will include bibliographic, chemical, 
# crystal, experimental, refinement or atomic coordinate data resulting 
# from the CCDC's data processing and validation procedures.
#
#######################################################################

data_IRUCAA
_chemical_name_common            
'4,5,10,11-tetrakis(4-pyridyl)-[5]ladderane 3,5-dinitrobenzoic acid nitromethane solvate'
_chemical_formula_moiety         'C32 H28 N4,4(C7 H4 N2 O6),5(C1 H3 N1 O2)'
_chemical_name_systematic        
"4,4',4'',4'''-pentacyclo[6.4.0.0^2,7^.0^3,6^.0^9,12^]dodecane-4,5,10,11-tetrayltetrapyridine 3,5-dinitrobenzoic acid nitromethane solvate"
_symmetry_cell_setting           trigonal
_symmetry_space_group_name_H-M   'P 32 2 1'
_symmetry_Int_Tables_number      154
_space_group_name_Hall           'P 32 2"'
loop_
_symmetry_equiv_pos_site_id
_symmetry_equiv_pos_as_xyz
1 x,y,z
2 -y,x-y,2/3+z
3 -x+y,-x,1/3+z
4 y,x,-z
5 x-y,-y,1/3-z
6 -x,-x+y,2/3-z
_cell_length_a                   29.740(3)
_cell_length_b                   29.740(3)
_cell_length_c                   7.0681(8)
_cell_angle_alpha                90
_cell_angle_beta                 90
_cell_angle_gamma                120
_cell_volume                     5413.96
_exptl_crystal_colour            colorless
_exptl_crystal_description       rod
_cell_formula_units_Z            3
loop_
_atom_site_label
_atom_site_type_symbol
_atom_site_fract_x
_atom_site_fract_y
_atom_site_fract_z
C17 C 0.3601(3) 0.8072(2) 0.3898(7)
C18 C 0.37788(15) 0.79064(14) 0.5629(3)
C19 C 0.34145(12) 0.76456(14) 0.7042(4)
C20 C 0.35609(13) 0.75005(13) 0.8697(4)
C21 C 0.40716(14) 0.76162(15) 0.8940(4)
C22 C 0.44359(11) 0.78770(16) 0.7527(5)
C23 C 0.42895(13) 0.80221(15) 0.5872(4)
H16 H 0.3065 0.7566 0.6876
H17 H 0.3877 0.8422 0.1767
H18 H 0.4172 0.7517 1.0071
H19 H 0.4539 0.82 0.4906
N3 N 0.3192(2) 0.72237(17) 1.0184(6)
N4 N 0.4951(2) 0.7985(3) 0.7753(9)
O1 O 0.39890(19) 0.83472(18) 0.2736(5)
O2 O 0.31640(18) 0.79631(17) 0.3653(5)
O3 O 0.27523(19) 0.71542(19) 0.9954(5)
O4 O 0.33222(17) 0.70745(16) 1.1550(5)
O5 O 0.50888(19) 0.7849(2) 0.9172(7)
O6 O 0.5263(3) 0.8235(4) 0.6516(12)
C24 C -0.0201(8) 0.6937(10) 0.540(3)
C25 C 0.0379(5) 0.7185(6) 0.639(3)
C26 C 0.0589(5) 0.6865(5) 0.667(4)
C27 C 0.1075(6) 0.7063(6) 0.751(4)
C28 C 0.1350(6) 0.7581(6) 0.806(4)
C29 C 0.1140(8) 0.7901(5) 0.777(5)
C30 C 0.0654(7) 0.7703(6) 0.694(4)
H7 H -0.0591 0.7186 0.4709
H20 H 0.0401 0.6512 0.6295
H21 H 0.1682 0.7716 0.8628
H22 H 0.051 0.7922 0.674
N5 N 0.1284(7) 0.6690(7) 0.791(3)
N6 N 0.1403(8) 0.8413(9) 0.837(3)
O7 O -0.0298(5) 0.7301(7) 0.5211(18)
O8 O -0.0419(5) 0.6491(6) 0.5067(17)
O9 O 0.1033(16) 0.6243(11) 0.711(4)
O10 O 0.1535(9) 0.6778(12) 0.908(3)
O11 O 0.1880(6) 0.8634(6) 0.889(2)
O12 O 0.1223(9) 0.8691(10) 0.824(4)
C1 C 0.3209(3) 0.8464(2) 0.9528(8)
C2 C 0.3034(3) 0.8606(2) 0.7902(8)
C3 C 0.3376(3) 0.8944(2) 0.6589(7)
C4 C 0.3896(3) 0.9135(2) 0.6935(8)
C5 C 0.4031(3) 0.8972(2) 0.8577(8)
C6 C 0.3192(2) 0.9105(2) 0.4854(7)
C7 C 0.3525(2) 0.9677(2) 0.4192(7)
C8 C 0.3533(2) 0.9718(2) 0.2032(7)
C9 C 0.3009(2) 0.9724(2) 0.2024(7)
C10 C 0.3000(2) 0.9714(2) 0.4228(7)
C11 C 0.2709(2) 0.9167(2) 0.5144(7)
C12 C 0.2194(2) 0.8777(2) 0.4321(7)
C13 C 0.1832(3) 0.8927(3) 0.3946(10)
C14 C 0.1353(3) 0.8586(3) 0.3231(10)
C15 C 0.1561(3) 0.7940(3) 0.3129(8)
C16 C 0.2061(3) 0.8283(2) 0.3888(8)
H1 H 0.2965 0.8233 1.0426
H2 H 0.2672 0.8464 0.771
H3 H 0.4154 0.937 0.6084
H4 H 0.439 0.9107 0.8818
H5 H 0.3133 0.8863 0.3781
H6 H 0.3834 0.9928 0.4946
H8 H 0.3557 0.9447 0.1272
H9 H 0.2705 0.9451 0.1305
H10 H 0.3005 1.0011 0.4915
H11 H 0.2665 0.9205 0.6526
H12 H 0.1918 0.9275 0.419
H13 H 0.1109 0.8698 0.3016
H14 H 0.1468 0.7593 0.2833
H15 H 0.2301 0.8165 0.4089
N1 N 0.3706(3) 0.86508(19) 0.9803(6)
N2 N 0.1225(2) 0.8098(3) 0.2833(8)
C1D C 0.4745(4) 1.1536(2) -0.6195(8)
C2D C 0.4428(4) 1.1394(2) -0.4569(8)
C3D C 0.4432(4) 1.1056(2) -0.3256(7)
C4D C 0.4761(4) 1.0865(2) -0.3602(8)
C5D C 0.5059(4) 1.1028(2) -0.5244(8)
C6D C 0.4087(3) 1.0895(2) -0.1521(7)
C7D C 0.3848(3) 1.0323(2) -0.0859(7)
C8D C 0.3815(3) 1.0282(2) 0.1301(7)
C9D C 0.3285(3) 1.0276(2) 0.1309(7)
C10D C 0.3286(3) 1.0286(2) -0.0895(7)
C11D C 0.3542(3) 1.0833(2) -0.1811(7)
C12D C 0.3417(3) 1.1223(2) -0.0988(7)
C13D C 0.2905(4) 1.1073(3) -0.0613(10)
C14D C 0.2767(4) 1.1414(3) 0.0102(10)
C15D C 0.3621(4) 1.2060(3) 0.0204(8)
C16D C 0.3778(4) 1.1717(2) -0.0555(8)
H1D H 0.4732 1.1767 -0.7093
H2D H 0.4208 1.1536 -0.437667
H3D H 0.4784 1.063 -0.2751
H4D H 0.5283 1.0893 -0.5485
H5D H 0.4270 1.1137 -0.0448
H6D H 0.3906 1.0072 -0.1613
H8D H 0.4110 1.0553 0.2061
H9D H 0.3254 1.0549 0.2028
H10D H 0.2994 0.9989 -0.1582
H11D H 0.3460 1.0795 -0.3193
H12D H 0.2643 1.0725 -0.085667
H13D H 0.2411 1.1302 0.0317
H14D H 0.3875 1.2407 0.0500
H15D H 0.4136 1.1835 -0.0756
N1D N 0.50552(36) 1.13492(19) -0.6470(6)
N2D N 0.3127(4) 1.1902(3) 0.0500(8)
C31? C -0.0079(6) 0.7360(7) 0.564(3)
C32? C 0.0417(7) 0.7405(6) 0.639(5)
C33? C 0.0782(10) 0.7879(6) 0.716(7)
C34? C 0.1221(11) 0.7929(7) 0.805(8)
C35? C 0.1295(10) 0.7504(7) 0.818(7)
C36? C 0.0930(10) 0.7029(7) 0.741(7)
C37? C 0.0491(9) 0.6979(7) 0.652(6)
H23? H 0.0732 0.817 0.7071
H24? H 0.1595 0.7538 0.879
H25? H 0.0241 0.6655 0.5998
H26? H -0.0685 0.6867 0.4725
N7? N 0.1623(7) 0.8423(6) 0.877(4)
N8? N 0.1007(8) 0.6600(6) 0.753(4)
O13? O 0.2028(5) 0.8468(6) 0.931(3)
O14? O 0.1235(16) 0.6542(12) 0.887(5)
O15? O 0.089(2) 0.6314(16) 0.615(5)
O16? O -0.0414(6) 0.6881(7) 0.514(4)
O17? O -0.0164(6) 0.7709(8) 0.568(3)
O18? O 0.1545(9) 0.8789(6) 0.860(5)
loop_
_geom_bond_atom_site_label_1
_geom_bond_atom_site_label_2
_geom_bond_site_symmetry_1
_geom_bond_site_symmetry_2
C1 C2 1_555 1_555
C2 C3 1_555 1_555
C3 C4 1_555 1_555
C4 C5 1_555 1_555
C5 H4 1_555 1_555
C6 C3 1_555 1_555
C7 C6 1_555 1_555
C8 C7 1_555 1_555
C9 C8 1_555 1_555
C10 C7 1_555 1_555
C11 C6 1_555 1_555
C12 C11 1_555 1_555
C13 C12 1_555 1_555
C14 C13 1_555 1_555
C15 C16 1_555 1_555
C16 C12 1_555 1_555
C17 C18 1_555 1_555
C18 C19 1_555 1_555
C19 C20 1_555 1_555
C20 C21 1_555 1_555
C21 C22 1_555 1_555
C22 C23 1_555 1_555
C23 C18 1_555 1_555
C24 C25 1_555 1_555
C25 C26 1_555 1_555
C26 C27 1_555 1_555
C27 C28 1_555 1_555
C28 C29 1_555 1_555
C29 C30 1_555 1_555
C30 C25 1_555 1_555
H1 C1 1_555 1_555
H2 C2 1_555 1_555
H3 C4 1_555 1_555
H5 C6 1_555 1_555
H6 C7 1_555 1_555
H7 O7 1_555 1_555
H8 C8 1_555 1_555
H9 C9 1_555 1_555
H10 C10 1_555 1_555
H11 C11 1_555 1_555
H12 C13 1_555 1_555
H13 C14 1_555 1_555
H14 C15 1_555 1_555
H15 C16 1_555 1_555
H16 C19 1_555 1_555
H17 O1 1_555 1_555
H18 C21 1_555 1_555
H19 C23 1_555 1_555
H20 C26 1_555 1_555
H21 C28 1_555 1_555
H22 C30 1_555 1_555
N1 C1 1_555 1_555
N2 C14 1_555 1_555
N3 C20 1_555 1_555
N4 C22 1_555 1_555
N5 C27 1_555 1_555
N6 C29 1_555 1_555
O1 C17 1_555 1_555
O2 C17 1_555 1_555
O3 N3 1_555 1_555
O4 N3 1_555 1_555
O5 N4 1_555 1_555
O6 N4 1_555 1_555
O7 C24 1_555 1_555
O8 C24 1_555 1_555
O9 N5 1_555 1_555
O10 N5 1_555 1_555
O11 N6 1_555 1_555
O12 N6 1_555 1_555
C1D C2D 1_555 1_555
C2D C3D 1_555 1_555
C3D C4D 1_555 1_555
C4D C5D 1_555 1_555
C5D H4D 1_555 1_555
C6D C3D 1_555 1_555
C7D C6D 1_555 1_555
C8D C8 1_555 1_555
C9D C9 1_555 1_555
C10D C7D 1_555 1_555
C11D C6D 1_555 1_555
C12D C11D 1_555 1_555
C13D C12D 1_555 1_555
C14D C13D 1_555 1_555
C15D C16D 1_555 1_555
C16D C12D 1_555 1_555
H1D C1D 1_555 1_555
H2D C2D 1_555 1_555
H3D C4D 1_555 1_555
H5D C6D 1_555 1_555
H6D C7D 1_555 1_555
H8D C8D 1_555 1_555
H9D C9D 1_555 1_555
H10D C10D 1_555 1_555
H11D C11D 1_555 1_555
H12D C13D 1_555 1_555
H13D C14D 1_555 1_555
H14D C15D 1_555 1_555
H15D C16D 1_555 1_555
N1D C1D 1_555 1_555
N2D C14D 1_555 1_555
C5 N1 1_555 1_555
C9 C10 1_555 1_555
C10 C11 1_555 1_555
C15 N2 1_555 1_555
C5D N1D 1_555 1_555
C7D C8D 1_555 1_555
C8D C9D 1_555 1_555
C9D C10D 1_555 1_555
C10D C11D 1_555 1_555
C15D N2D 1_555 1_555

#END
