
#######################################################################
#
#                 Cambridge Crystallographic Data Centre
#                                CCDC 
#
#######################################################################
#
# If this CIF has been generated from an entry in the Cambridge 
# Structural Database, then it will include bibliographic, chemical, 
# crystal, experimental, refinement or atomic coordinate data resulting 
# from the CCDC's data processing and validation procedures.
#
#######################################################################

data_IRUCAB
_chemical_formula_moiety         'C23 H19 Cl2 N1 O3'
_chemical_name_systematic        
'1-(4-chlorophenyl)-3-(methyl(phenyl)amino)-1-oxopropan-2-yl 4-chlorobenzoate'
_symmetry_cell_setting           monoclinic
_symmetry_space_group_name_H-M   'C 2/c'
_symmetry_Int_Tables_number      15
_space_group_name_Hall           '-C 2yn'
loop_
_symmetry_equiv_pos_site_id
_symmetry_equiv_pos_as_xyz
1 x,y,z
2 -x,y,1/2-z
3 1/2+x,1/2+y,z
4 1/2-x,1/2+y,1/2-z
5 -x,-y,-z
6 x,-y,1/2+z
7 1/2-x,1/2-y,-z
8 1/2+x,1/2-y,1/2+z
_cell_length_a                   32.758(3)
_cell_length_b                   9.5956(8)
_cell_length_c                   14.9338(11)
_cell_angle_alpha                90
_cell_angle_beta                 116.530(2)
_cell_angle_gamma                90
_cell_volume                     4199.89
_exptl_crystal_colour            yellow
_exptl_crystal_description       block
_cell_formula_units_Z            8
loop_
_atom_site_label
_atom_site_type_symbol
_atom_site_fract_x
_atom_site_fract_y
_atom_site_fract_z
Cl1 Cl 0.04622(2) 0.93763(13) 0.45678(7)
Cl2 Cl 0.45657(3) 0.65332(13) 1.29929(6)
N1 N 0.32658(8) 0.9410(3) 0.67451(17)
O1 O 0.24652(6) 1.1153(2) 0.82918(14)
O2 O 0.31367(5) 0.9234(2) 0.86154(12)
O3 O 0.26365(6) 0.7974(2) 0.89152(13)
C1 C 0.29823(9) 1.0253(3) 0.7036(2)
H1 H 0.2736 1.0643 0.6440
H2 H 0.3162 1.1023 0.7443
C2 C 0.27773(8) 0.9446(3) 0.76260(18)
H3 H 0.2665 0.8541 0.7306
C3 C 0.23852(9) 1.0262(3) 0.7655(2)
C4 C 0.19121(9) 0.9998(3) 0.68754(19)
C5 C 0.15740(9) 1.0932(3) 0.6780(2)
H4 H 0.1650 1.1702 0.7202
C6 C 0.11277(10) 1.0753(4) 0.6077(2)
H5 H 0.0904 1.1390 0.6022
C7 C 0.10219(9) 0.9616(4) 0.5462(2)
C8 C 0.13452(10) 0.8653(4) 0.5546(2)
H6 H 0.1265 0.7870 0.5136
C9 C 0.17919(9) 0.8857(4) 0.6246(2)
H7 H 0.2014 0.8218 0.6295
C10 C 0.30225(9) 0.8391(3) 0.9190(2)
C11 C 0.34124(8) 0.8017(3) 1.01452(19)
C12 C 0.33347(9) 0.7106(4) 1.0762(2)
H8 H 0.3040 0.6795 1.0589
C13 C 0.36913(10) 0.6650(4) 1.1638(2)
H9 H 0.3638 0.6023 1.2050
C14 C 0.41227(10) 0.7124(4) 1.1898(2)
C15 C 0.42076(9) 0.8045(4) 1.1303(2)
H10 H 0.4502 0.8365 1.1488
C16 C 0.38496(9) 0.8495(3) 1.0425(2)
H11 H 0.3904 0.9127 1.0018
C17 C 0.37279(9) 0.9237(4) 0.7328(2)
C18 C 0.39759(10) 1.0051(4) 0.8166(2)
H12 H 0.3826 1.0722 0.8359
C19 C 0.44398(12) 0.9884(5) 0.8716(3)
H13 H 0.4599 1.0444 0.9273
C20 C 0.46681(14) 0.8909(6) 0.8454(4)
H14 H 0.4982 0.8815 0.8822
C21 C 0.44360(13) 0.8080(5) 0.7658(4)
H15 H 0.4591 0.7399 0.7487
C22 C 0.39731(11) 0.8231(4) 0.7099(2)
H16 H 0.3820 0.7648 0.6553
C23 C 0.30350(10) 0.8641(4) 0.5817(2)
H17 H 0.3193 0.8776 0.5415
H18 H 0.2727 0.8972 0.5460
H19 H 0.3032 0.7668 0.5962
loop_
_geom_bond_atom_site_label_1
_geom_bond_atom_site_label_2
_geom_bond_site_symmetry_1
_geom_bond_site_symmetry_2
Cl1 C7 1_555 1_555
Cl2 C14 1_555 1_555
N1 C1 1_555 1_555
O1 C3 1_555 1_555
O2 C2 1_555 1_555
O3 C10 1_555 1_555
C1 H1 1_555 1_555
H2 C1 1_555 1_555
C2 C1 1_555 1_555
H3 C2 1_555 1_555
C3 C2 1_555 1_555
C4 C3 1_555 1_555
C5 C4 1_555 1_555
H4 C5 1_555 1_555
C6 C5 1_555 1_555
H5 C6 1_555 1_555
C7 C6 1_555 1_555
C8 C7 1_555 1_555
H6 C8 1_555 1_555
C9 C4 1_555 1_555
H7 C9 1_555 1_555
C10 O2 1_555 1_555
C11 C10 1_555 1_555
C12 C11 1_555 1_555
H8 C12 1_555 1_555
C13 C12 1_555 1_555
H9 C13 1_555 1_555
C14 C13 1_555 1_555
C15 C14 1_555 1_555
H10 C15 1_555 1_555
C16 C11 1_555 1_555
H11 C16 1_555 1_555
C17 N1 1_555 1_555
C18 C17 1_555 1_555
H12 C18 1_555 1_555
C19 C18 1_555 1_555
H13 C19 1_555 1_555
C20 C19 1_555 1_555
H14 C20 1_555 1_555
C21 C20 1_555 1_555
H15 C21 1_555 1_555
C22 C17 1_555 1_555
H16 C22 1_555 1_555
C23 N1 1_555 1_555
H17 C23 1_555 1_555
H18 C23 1_555 1_555
H19 C23 1_555 1_555
C8 C9 1_555 1_555
C15 C16 1_555 1_555
C21 C22 1_555 1_555

#END
