
#######################################################################
#
#                 Cambridge Crystallographic Data Centre
#                                CCDC 
#
#######################################################################
#
# If this CIF has been generated from an entry in the Cambridge 
# Structural Database, then it will include bibliographic, chemical, 
# crystal, experimental, refinement or atomic coordinate data resulting 
# from the CCDC's data processing and validation procedures.
#
#######################################################################

data_IRUKIR
_chemical_formula_moiety         'C21 H22 F4 N2 O2 S1'
_chemical_name_systematic        
N-(1-(1-benzyl-3-fluoro-2-oxo-2,3-dihydro-1H-indol-3-yl)-2,2,2-trifluoroethyl)-2-methylpropane-2-sulfinamide
_symmetry_cell_setting           monoclinic
_symmetry_space_group_name_H-M   'P 21'
_symmetry_Int_Tables_number      4
_space_group_name_Hall           'P 2yb'
loop_
_symmetry_equiv_pos_site_id
_symmetry_equiv_pos_as_xyz
1 x,y,z
2 -x,1/2+y,-z
_cell_length_a                   14.501(2)
_cell_length_b                   8.8433(14)
_cell_length_c                   17.883(3)
_cell_angle_alpha                90
_cell_angle_beta                 107.206(3)
_cell_angle_gamma                90
_cell_volume                     2190.63
_exptl_crystal_colour            colorless
_exptl_crystal_description       block
_cell_formula_units_Z            4
loop_
_atom_site_label
_atom_site_type_symbol
_atom_site_fract_x
_atom_site_fract_y
_atom_site_fract_z
C1 C 0.1214(4) 0.1750(9) 0.3513(3)
H1 H 0.0665 0.1089 0.3388
H2 H 0.1790 0.1173 0.3740
H3 H 0.1258 0.2236 0.3045
C2 C 0.0174(6) 0.3777(9) 0.3764(4)
H4 H 0.0183 0.4290 0.3294
H5 H 0.0097 0.4504 0.4140
H6 H -0.0355 0.3075 0.3648
C3 C 0.1986(7) 0.3943(11) 0.4320(4)
H7 H 0.2088 0.4368 0.3857
H8 H 0.2540 0.3355 0.4594
H9 H 0.1891 0.4742 0.4653
C4 C 0.1103(4) 0.2940(7) 0.4094(3)
C5 C 0.1662(3) 0.2863(5) 0.6410(2)
H10 H 0.1802 0.1777 0.6432
C6 C 0.1064(4) 0.3144(7) 0.6958(3)
C7 C 0.2646(3) 0.3683(5) 0.6664(2)
C8 C 0.2709(3) 0.5346(6) 0.6809(3)
C9 C 0.2270(4) 0.6546(7) 0.6362(3)
H11 H 0.1813 0.6404 0.5878
C10 C 0.2534(6) 0.7986(8) 0.6660(5)
H12 H 0.2253 0.8824 0.6366
C11 C 0.3194(6) 0.8198(9) 0.7370(4)
H13 H 0.3344 0.9177 0.7555
C12 C 0.3647(4) 0.6999(8) 0.7824(3)
H14 H 0.4107 0.7148 0.8307
C13 C 0.3392(3) 0.5586(6) 0.7535(3)
C14 C 0.3348(3) 0.3044(6) 0.7420(3)
C15 C 0.4574(3) 0.4065(8) 0.8580(3)
H15 H 0.5046 0.4833 0.8567
H16 H 0.4875 0.3087 0.8572
C16 C 0.4332(4) 0.4212(7) 0.9338(3)
C17 C 0.3504(5) 0.3613(11) 0.9435(4)
H17 H 0.3059 0.3153 0.9012
C18 C 0.3319(6) 0.3675(14) 1.0137(5)
H18 H 0.2751 0.3271 1.0194
C19 C 0.3987(8) 0.4347(14) 1.0765(4)
H19 H 0.3870 0.4392 1.1249
C20 C 0.4807(7) 0.4939(11) 1.0681(4)
H20 H 0.5249 0.5401 1.1105
C21 C 0.4995(5) 0.4865(9) 0.9970(4)
H21 H 0.5568 0.5256 0.9918
F1 F 0.0758(3) 0.4546(5) 0.69507(19)
F2 F 0.0286(3) 0.2296(6) 0.6787(2)
F3 F 0.1552(3) 0.2884(6) 0.76939(17)
F4 F 0.30710(19) 0.3302(4) 0.60786(15)
N1 N 0.1114(2) 0.3198(5) 0.56069(19)
H22 H 0.1378 0.4006 0.5455
N2 N 0.3763(3) 0.4204(5) 0.7879(2)
O1 O 0.0087(3) 0.1128(5) 0.47270(18)
O2 O 0.3526(3) 0.1703(5) 0.7549(2)
S1 S 0.10581(8) 0.18284(15) 0.49568(6)
C22 C 0.7684(5) 0.3602(11) 1.0688(3)
H23 H 0.7241 0.2852 1.0401
H24 H 0.7632 0.4498 1.0376
H25 H 0.7532 0.3841 1.1162
C23 C 0.8834(5) 0.1749(10) 1.1486(3)
H26 H 0.9485 0.1380 1.1620
H27 H 0.8394 0.0938 1.1273
H28 H 0.8706 0.2136 1.1947
C24 C 0.9453(5) 0.4210(10) 1.1162(4)
H29 H 0.9375 0.4684 1.1622
H30 H 0.9378 0.4953 1.0757
H31 H 1.0085 0.3770 1.1282
C25 C 0.8703(3) 0.2993(7) 1.0888(3)
C26 C 0.8095(3) 0.3254(6) 0.8590(2)
H32 H 0.7826 0.2237 0.8584
C27 C 0.8692(3) 0.3211(6) 0.8025(3)
C28 C 0.7228(3) 0.4325(6) 0.8334(2)
C29 C 0.7326(3) 0.5947(6) 0.8121(2)
C30 C 0.7930(3) 0.7083(7) 0.8493(3)
H33 H 0.8422 0.6890 0.8952
C31 C 0.7798(4) 0.8523(7) 0.8177(4)
H34 H 0.8206 0.9304 0.8419
C32 C 0.7058(4) 0.8799(7) 0.7500(4)
H35 H 0.6969 0.9777 0.7300
C33 C 0.6451(4) 0.7679(6) 0.7113(3)
H36 H 0.5961 0.7875 0.6653
C34 C 0.6594(3) 0.6250(6) 0.7433(3)
C35 C 0.6422(3) 0.3725(6) 0.7622(2)
C36 C 0.5212(3) 0.4858(7) 0.6477(2)
H37 H 0.4776 0.5659 0.6524
H38 H 0.4887 0.3903 0.6486
C37 C 0.5404(4) 0.5012(7) 0.5697(3)
C38 C 0.6247(4) 0.4496(9) 0.5579(3)
H39 H 0.6729 0.4081 0.5993
C39 C 0.6372(6) 0.4596(12) 0.4846(4)
H40 H 0.6939 0.4237 0.4768
C40 C 0.5684(8) 0.5208(11) 0.4238(4)
H41 H 0.5784 0.5283 0.3749
C41 C 0.4856(8) 0.5706(10) 0.4343(4)
H42 H 0.4382 0.6118 0.3923
C42 C 0.4698(5) 0.5615(8) 0.5071(3)
H43 H 0.4120 0.5957 0.5136
F5 F 0.8141(2) 0.3159(5) 0.72807(15)
F6 F 0.9248(2) 0.4414(4) 0.80758(19)
F7 F 0.9258(3) 0.2018(4) 0.81365(19)
F8 F 0.68142(17) 0.4277(4) 0.89506(13)
N3 N 0.8701(2) 0.3504(5) 0.93862(18)
H44 H 0.8448 0.4266 0.9584
N4 N 0.6066(3) 0.4922(5) 0.7149(2)
O3 O 0.9858(3) 0.1531(5) 1.02277(19)
O4 O 0.6132(3) 0.2432(5) 0.7543(2)
S2 S 0.88445(8) 0.20482(15) 1.00070(6)
loop_
_geom_bond_atom_site_label_1
_geom_bond_atom_site_label_2
_geom_bond_site_symmetry_1
_geom_bond_site_symmetry_2
C1 H1 1_555 1_555
H2 C1 1_555 1_555
H3 C1 1_555 1_555
C2 H4 1_555 1_555
H5 C2 1_555 1_555
H6 C2 1_555 1_555
C3 H7 1_555 1_555
H8 C3 1_555 1_555
H9 C3 1_555 1_555
C4 C1 1_555 1_555
C5 H10 1_555 1_555
C6 C5 1_555 1_555
C7 C5 1_555 1_555
C8 C7 1_555 1_555
C9 C8 1_555 1_555
H11 C9 1_555 1_555
C10 C9 1_555 1_555
H12 C10 1_555 1_555
C11 C10 1_555 1_555
H13 C11 1_555 1_555
C12 C11 1_555 1_555
H14 C12 1_555 1_555
C13 C8 1_555 1_555
C14 C7 1_555 1_555
C15 H15 1_555 1_555
H16 C15 1_555 1_555
C16 C15 1_555 1_555
C17 C16 1_555 1_555
H17 C17 1_555 1_555
C18 C17 1_555 1_555
H18 C18 1_555 1_555
C19 C18 1_555 1_555
H19 C19 1_555 1_555
C20 C19 1_555 1_555
H20 C20 1_555 1_555
C21 C16 1_555 1_555
H21 C21 1_555 1_555
F1 C6 1_555 1_555
F2 C6 1_555 1_555
F3 C6 1_555 1_555
F4 C7 1_555 1_555
N1 C5 1_555 1_555
H22 N1 1_555 1_555
N2 C13 1_555 1_555
O1 S1 1_555 1_555
O2 C14 1_555 1_555
S1 C4 1_555 1_555
C22 H23 1_555 1_555
H24 C22 1_555 1_555
H25 C22 1_555 1_555
C23 H26 1_555 1_555
H27 C23 1_555 1_555
H28 C23 1_555 1_555
C24 H29 1_555 1_555
H30 C24 1_555 1_555
H31 C24 1_555 1_555
C25 C22 1_555 1_555
C26 H32 1_555 1_555
C27 C26 1_555 1_555
C28 C26 1_555 1_555
C29 C28 1_555 1_555
C30 C29 1_555 1_555
H33 C30 1_555 1_555
C31 C30 1_555 1_555
H34 C31 1_555 1_555
C32 C31 1_555 1_555
H35 C32 1_555 1_555
C33 C32 1_555 1_555
H36 C33 1_555 1_555
C34 C29 1_555 1_555
C35 C28 1_555 1_555
C36 H37 1_555 1_555
H38 C36 1_555 1_555
C37 C36 1_555 1_555
C38 C37 1_555 1_555
H39 C38 1_555 1_555
C39 C38 1_555 1_555
H40 C39 1_555 1_555
C40 C39 1_555 1_555
H41 C40 1_555 1_555
C41 C40 1_555 1_555
H42 C41 1_555 1_555
C42 C37 1_555 1_555
H43 C42 1_555 1_555
F5 C27 1_555 1_555
F6 C27 1_555 1_555
F7 C27 1_555 1_555
F8 C28 1_555 1_555
N3 C26 1_555 1_555
H44 N3 1_555 1_555
N4 C34 1_555 1_555
O3 S2 1_555 1_555
O4 C35 1_555 1_555
S2 C25 1_555 1_555
C2 C4 1_555 1_555
C3 C4 1_555 1_555
C12 C13 1_555 1_555
C14 N2 1_555 1_555
C15 N2 1_555 1_555
C20 C21 1_555 1_555
N1 S1 1_555 1_555
C23 C25 1_555 1_555
C24 C25 1_555 1_555
C33 C34 1_555 1_555
C35 N4 1_555 1_555
C36 N4 1_555 1_555
C41 C42 1_555 1_555
N3 S2 1_555 1_555

#END
