
#######################################################################
#
#                 Cambridge Crystallographic Data Centre
#                                CCDC 
#
#######################################################################
#
# If this CIF has been generated from an entry in the Cambridge 
# Structural Database, then it will include bibliographic, chemical, 
# crystal, experimental, refinement or atomic coordinate data resulting 
# from the CCDC's data processing and validation procedures.
#
#######################################################################

data_IRULAK
_chemical_formula_moiety         'C16 H22 F1 N1 O2'
_chemical_name_systematic        
't-butyl 2-(4-fluorophenyl)-2-methylpyrrolidine-1-carboxylate'
_symmetry_cell_setting           orthorhombic
_symmetry_space_group_name_H-M   'P 21 21 21'
_symmetry_Int_Tables_number      19
_space_group_name_Hall           'P 2ac 2ab'
loop_
_symmetry_equiv_pos_site_id
_symmetry_equiv_pos_as_xyz
1 x,y,z
2 1/2-x,-y,1/2+z
3 -x,1/2+y,1/2-z
4 1/2+x,1/2-y,-z
_cell_length_a                   6.3738(4)
_cell_length_b                   10.3067(7)
_cell_length_c                   22.7482(15)
_cell_angle_alpha                90
_cell_angle_beta                 90
_cell_angle_gamma                90
_cell_volume                     1494.39
_exptl_crystal_colour            colorless
_exptl_crystal_description       Plate
_cell_formula_units_Z            4
loop_
_atom_site_label
_atom_site_type_symbol
_atom_site_fract_x
_atom_site_fract_y
_atom_site_fract_z
C1 C 0.1973(2) 0.51300(14) 0.21030(6)
H1 H 0.2081 0.6042 0.1969
H2 H 0.0513 0.4827 0.2047
C2 C 0.3507(2) 0.42698(14) 0.17719(6)
H3 H 0.4746 0.4770 0.1639
H4 H 0.2830 0.3861 0.1427
C3 C 0.4120(2) 0.32558(14) 0.22288(6)
H5 H 0.5475 0.2844 0.2126
H6 H 0.3032 0.2574 0.2260
C4 C 0.4301(2) 0.40251(13) 0.28080(6)
C5 C 0.3859(2) 0.31627(13) 0.33402(6)
C6 C 0.1907(2) 0.25668(14) 0.33988(6)
H7 H 0.0875 0.2693 0.3103
C7 C 0.1439(3) 0.17930(15) 0.38807(7)
H8 H 0.0099 0.1398 0.3918
C8 C 0.2952(3) 0.16104(14) 0.43014(7)
C9 C 0.4903(3) 0.21555(15) 0.42607(7)
H9 H 0.5931 0.2005 0.4555
C10 C 0.5346(3) 0.29372(14) 0.37757(7)
H10 H 0.6694 0.3324 0.3742
C11 C 0.6433(2) 0.47019(14) 0.28404(7)
H11 H 0.7548 0.4049 0.2857
H12 H 0.6490 0.5246 0.3193
H13 H 0.6626 0.5245 0.2491
C12 C 0.1881(2) 0.58823(12) 0.31091(6)
C13 C 0.1854(2) 0.63728(13) 0.41609(6)
C14 C 0.3064(3) 0.57501(18) 0.46617(7)
H14 H 0.4568 0.5909 0.4608
H15 H 0.2800 0.4814 0.4664
H16 H 0.2606 0.6126 0.5036
C15 C 0.2295(3) 0.78178(15) 0.41264(7)
H17 H 0.1767 0.8244 0.4482
H18 H 0.1592 0.8183 0.3781
H19 H 0.3811 0.7960 0.4094
C16 C -0.0473(3) 0.60863(18) 0.42160(7)
H20 H -0.0706 0.5149 0.4183
H21 H -0.1236 0.6535 0.3902
H22 H -0.0980 0.6390 0.4599
N1 N 0.26105(18) 0.50064(10) 0.27185(5)
O1 O 0.27388(16) 0.57100(9) 0.36458(4)
O2 O 0.06099(16) 0.67212(10) 0.29820(4)
F1 F 0.24872(18) 0.08574(9) 0.47770(4)
loop_
_geom_bond_atom_site_label_1
_geom_bond_atom_site_label_2
_geom_bond_site_symmetry_1
_geom_bond_site_symmetry_2
C1 H1 1_555 1_555
H2 C1 1_555 1_555
C2 C1 1_555 1_555
H3 C2 1_555 1_555
H4 C2 1_555 1_555
C3 C2 1_555 1_555
H5 C3 1_555 1_555
H6 C3 1_555 1_555
C4 C3 1_555 1_555
C5 C4 1_555 1_555
C6 C5 1_555 1_555
H7 C6 1_555 1_555
C7 C6 1_555 1_555
H8 C7 1_555 1_555
C8 C7 1_555 1_555
C9 C8 1_555 1_555
H9 C9 1_555 1_555
C10 C5 1_555 1_555
H10 C10 1_555 1_555
C11 C4 1_555 1_555
H11 C11 1_555 1_555
H12 C11 1_555 1_555
H13 C11 1_555 1_555
C12 N1 1_555 1_555
C13 C14 1_555 1_555
C14 H14 1_555 1_555
H15 C14 1_555 1_555
H16 C14 1_555 1_555
C15 C13 1_555 1_555
H17 C15 1_555 1_555
H18 C15 1_555 1_555
H19 C15 1_555 1_555
C16 C13 1_555 1_555
H20 C16 1_555 1_555
H21 C16 1_555 1_555
H22 C16 1_555 1_555
N1 C1 1_555 1_555
O1 C12 1_555 1_555
O2 C12 1_555 1_555
F1 C8 1_555 1_555
C4 N1 1_555 1_555
C9 C10 1_555 1_555
C13 O1 1_555 1_555

#END
