
#######################################################################
#
#                 Cambridge Crystallographic Data Centre
#                                CCDC 
#
#######################################################################
#
# If this CIF has been generated from an entry in the Cambridge 
# Structural Database, then it will include bibliographic, chemical, 
# crystal, experimental, refinement or atomic coordinate data resulting 
# from the CCDC's data processing and validation procedures.
#
#######################################################################

data_IRUNUG
_chemical_formula_moiety         'C30 H38 O5'
_chemical_name_systematic        
'dimethyl 7,9-di-t-butyl-8-oxo-1-phenyl-4-vinylspiro[4.5]deca-6,9-diene-2,2-dicarboxylate'
_symmetry_cell_setting           monoclinic
_symmetry_space_group_name_H-M   'P 21/n'
_symmetry_Int_Tables_number      14
_space_group_name_Hall           '-P 2yn'
loop_
_symmetry_equiv_pos_site_id
_symmetry_equiv_pos_as_xyz
1 x,y,z
2 1/2-x,1/2+y,1/2-z
3 -x,-y,-z
4 1/2+x,1/2-y,1/2+z
_cell_length_a                   23.324(8)
_cell_length_b                   9.264(3)
_cell_length_c                   26.981(9)
_cell_angle_alpha                90
_cell_angle_beta                 105.014(5)
_cell_angle_gamma                90
_cell_volume                     5630.86
_exptl_crystal_colour            colorless
_exptl_crystal_description       block
_cell_formula_units_Z            8
loop_
_atom_site_label
_atom_site_type_symbol
_atom_site_fract_x
_atom_site_fract_y
_atom_site_fract_z
O1 O 0.03478(10) 0.3454(2) 0.15099(9)
O2 O -0.02692(9) 0.3617(2) 0.07363(8)
O3 O -0.05295(8) 0.6405(3) 0.11103(8)
C1 C 0.14077(11) 0.6570(3) 0.12340(10)
C2 C 0.18220(12) 0.8919(3) 0.10282(10)
C3 C 0.03731(11) 0.5574(3) 0.09855(9)
C4 C 0.01560(12) 0.4111(3) 0.11244(11)
C5 C 0.13705(12) 0.8013(3) 0.09835(10)
H1 H 0.1002 0.8302 0.0780
C6 C 0.08694(11) 0.6187(3) 0.14509(9)
H2 H 0.1002 0.5350 0.1674
C7 C 0.24552(11) 0.7174(3) 0.16769(10)
C8 C 0.06793(11) 0.7292(3) 0.17951(9)
C9 C -0.01486(12) 0.6592(4) 0.08263(11)
C10 C 0.19782(11) 0.6358(3) 0.16261(10)
H3 H 0.2002 0.5593 0.1854
O4 O -0.01996(11) 0.7490(3) 0.05009(8)
C11 C 0.17676(14) 1.0375(3) 0.07597(13)
C12 C 0.24123(13) 0.8448(3) 0.13395(13)
C13 C 0.06871(12) 0.5354(3) 0.05533(10)
H4 H 0.0569 0.4445 0.0378
H5 H 0.0590 0.6132 0.0305
O5 O 0.28570(11) 0.9085(3) 0.13055(14)
C14 C 0.06685(14) 0.6899(3) 0.22814(11)
H6 H 0.0800 0.5983 0.2400
C15 C 0.30583(12) 0.6790(3) 0.20440(12)
C16 C 0.02942(14) 0.9604(4) 0.19645(13)
H7 H 0.0170 1.0529 0.1852
C17 C 0.04976(14) 0.8677(3) 0.16463(12)
H8 H 0.0512 0.8996 0.1323
C18 C 0.02753(15) 0.9170(4) 0.24388(13)
H9 H 0.0133 0.9786 0.2652
C19 C 0.30070(14) 0.5471(4) 0.23693(14)
H10 H 0.2711 0.5647 0.2552
H11 H 0.3383 0.5292 0.2610
H12 H 0.2895 0.4646 0.2151
C20 C 0.04678(17) 0.7823(4) 0.26001(12)
H13 H 0.0464 0.7523 0.2928
C21 C 0.11269(17) 1.0783(4) 0.05311(17)
H14 H 0.0946 1.0097 0.0271
H15 H 0.1108 1.1729 0.0382
H16 H 0.0919 1.0783 0.0795
C22 C 0.34947(15) 0.6404(5) 0.17272(16)
H17 H 0.3353 0.5571 0.1521
H18 H 0.3877 0.6199 0.1953
H19 H 0.3528 0.7202 0.1509
C23 C -0.04938(18) 0.2186(4) 0.07905(15)
H20 H -0.0169 0.1519 0.0882
H21 H -0.0759 0.1894 0.0471
H22 H -0.0703 0.2195 0.1054
C24 C -0.10165(16) 0.7416(5) 0.10383(17)
H23 H -0.0867 0.8383 0.1045
H24 H -0.1211 0.7296 0.1308
H25 H -0.1295 0.7239 0.0713
C25 C 0.20754(19) 1.0321(4) 0.03247(16)
H26 H 0.2494 1.0190 0.0465
H27 H 0.2005 1.1208 0.0135
H28 H 0.1920 0.9529 0.0100
C26 C 0.2056(2) 1.1560(4) 0.11442(18)
H29 H 0.1847 1.1640 0.1406
H30 H 0.2039 1.2465 0.0968
H31 H 0.2463 1.1314 0.1299
C27 C 0.33005(18) 0.8044(5) 0.23941(17)
H32 H 0.3317 0.8887 0.2192
H33 H 0.3692 0.7814 0.2598
H34 H 0.3046 0.8227 0.2615
C28 C 0.13469(12) 0.5351(3) 0.08191(11)
H35 H 0.1435 0.4433 0.1003
C29 C 0.17586(15) 0.5476(4) 0.04841(14)
H36 H 0.2145 0.5741 0.0650
C30 C 0.1665(2) 0.5282(6) 0.0024(2)
H37 H 0.1288 0.5014 -0.0168
H38 H 0.1970 0.5401 -0.0137
O6 O 0.44394(8) 0.1416(3) 0.11820(8)
O7 O 0.53332(10) 0.4280(2) 0.14736(9)
C31 C 0.58314(11) 0.1542(3) 0.14009(10)
H39 H 0.5982 0.2397 0.1608
O8 O 0.46647(10) 0.4104(2) 0.07250(8)
O9 O 0.46506(11) 0.0224(3) 0.05370(9)
C32 C 0.51113(12) 0.3614(3) 0.10965(11)
C33 C 0.62973(12) -0.0368(3) 0.09402(10)
H40 H 0.5927 -0.0693 0.0754
C34 C 0.67524(12) -0.1272(3) 0.10037(11)
C35 C 0.47670(12) 0.1132(3) 0.08566(11)
C36 C 0.62214(12) 0.2232(3) 0.06864(11)
H41 H 0.6343 0.3194 0.0826
C37 C 0.63385(11) 0.1127(3) 0.11464(11)
C38 C 0.53016(11) 0.2124(3) 0.09595(10)
C39 C 0.55507(12) 0.2222(3) 0.04831(10)
H42 H 0.5423 0.1399 0.0259
H43 H 0.5415 0.3098 0.0292
C40 C 0.56893(11) 0.0479(3) 0.17800(10)
C41 C 0.74012(12) 0.0598(3) 0.15775(12)
C42 C 0.54733(15) -0.0896(4) 0.16508(13)
H44 H 0.5434 -0.1225 0.1318
C43 C 0.69274(12) 0.1425(3) 0.15058(12)
H45 H 0.6964 0.2272 0.1697
C44 C 0.73484(13) -0.0756(3) 0.12824(14)
O10 O 0.77878(11) -0.1438(3) 0.12613(15)
C45 C 0.66902(14) -0.2806(3) 0.07804(12)
C46 C 0.80075(13) 0.1024(4) 0.19303(14)
C47 C 0.57601(15) 0.0886(4) 0.22794(12)
H46 H 0.5916 0.1791 0.2387
C48 C 0.65346(15) 0.1910(3) 0.02793(15)
H47 H 0.6382 0.1150 0.0060
C49 C 0.79620(16) 0.2380(4) 0.22349(16)
H48 H 0.7850 0.3180 0.2004
H49 H 0.8339 0.2574 0.2471
H50 H 0.7668 0.2241 0.2422
C50 C 0.53697(18) -0.1363(5) 0.24815(16)
H51 H 0.5251 -0.1964 0.2713
C51 C 0.60453(17) -0.3225(4) 0.05704(15)
H52 H 0.5848 -0.3200 0.0842
H53 H 0.6022 -0.4183 0.0430
H54 H 0.5856 -0.2559 0.0306
C52 C 0.44243(18) 0.5489(4) 0.08101(16)
H55 H 0.4337 0.5491 0.1139
H56 H 0.4067 0.5667 0.0546
H57 H 0.4709 0.6231 0.0802
C53 C 0.56000(19) -0.0046(6) 0.26313(14)
H58 H 0.5653 0.0245 0.2970
C54 C 0.53149(17) -0.1795(4) 0.19998(15)
H59 H 0.5168 -0.2712 0.1899
C55 C 0.6976(2) -0.2922(4) 0.03357(19)
H60 H 0.6817 -0.2189 0.0087
H61 H 0.6895 -0.3856 0.0179
H62 H 0.7398 -0.2794 0.0460
C56 C 0.84457(15) 0.1314(5) 0.16089(18)
H63 H 0.8506 0.0444 0.1436
H64 H 0.8817 0.1631 0.1828
H65 H 0.8289 0.2050 0.1360
C57 C 0.6970(2) -0.3881(4) 0.12075(16)
H66 H 0.7381 -0.3647 0.1346
H67 H 0.6936 -0.4842 0.1069
H68 H 0.6766 -0.3828 0.1474
C58 C 0.6966(2) 0.2524(5) 0.0201(2)
H69 H 0.7139 0.3293 0.0408
H70 H 0.7122 0.2223 -0.0066
C59 C 0.82540(19) -0.0188(5) 0.2308(2)
H71 H 0.7988 -0.0366 0.2519
H72 H 0.8635 0.0089 0.2521
H73 H 0.8294 -0.1049 0.2122
C60 C 0.39358(15) 0.0482(5) 0.11551(16)
H74 H 0.3652 0.0604 0.0829
H75 H 0.3754 0.0726 0.1425
H76 H 0.4066 -0.0504 0.1193
loop_
_geom_bond_atom_site_label_1
_geom_bond_atom_site_label_2
_geom_bond_site_symmetry_1
_geom_bond_site_symmetry_2
O1 C4 1_555 1_555
O2 C4 1_555 1_555
O3 C9 1_555 1_555
C1 C5 1_555 1_555
C2 C5 1_555 1_555
C3 C4 1_555 1_555
C5 H1 1_555 1_555
C6 C1 1_555 1_555
H2 C6 1_555 1_555
C7 C10 1_555 1_555
C8 C6 1_555 1_555
C9 C3 1_555 1_555
C10 C1 1_555 1_555
H3 C10 1_555 1_555
O4 C9 1_555 1_555
C11 C2 1_555 1_555
C12 C2 1_555 1_555
C13 C3 1_555 1_555
H4 C13 1_555 1_555
H5 C13 1_555 1_555
O5 C12 1_555 1_555
C14 C8 1_555 1_555
H6 C14 1_555 1_555
C15 C7 1_555 1_555
C16 H7 1_555 1_555
C17 C8 1_555 1_555
H8 C17 1_555 1_555
C18 C16 1_555 1_555
H9 C18 1_555 1_555
C19 C15 1_555 1_555
H10 C19 1_555 1_555
H11 C19 1_555 1_555
H12 C19 1_555 1_555
C20 C14 1_555 1_555
H13 C20 1_555 1_555
C21 C11 1_555 1_555
H14 C21 1_555 1_555
H15 C21 1_555 1_555
H16 C21 1_555 1_555
C22 C15 1_555 1_555
H17 C22 1_555 1_555
H18 C22 1_555 1_555
H19 C22 1_555 1_555
C23 O2 1_555 1_555
H20 C23 1_555 1_555
H21 C23 1_555 1_555
H22 C23 1_555 1_555
C24 O3 1_555 1_555
H23 C24 1_555 1_555
H24 C24 1_555 1_555
H25 C24 1_555 1_555
C25 C11 1_555 1_555
H26 C25 1_555 1_555
H27 C25 1_555 1_555
H28 C25 1_555 1_555
C26 C11 1_555 1_555
H29 C26 1_555 1_555
H30 C26 1_555 1_555
H31 C26 1_555 1_555
C27 C15 1_555 1_555
H32 C27 1_555 1_555
H33 C27 1_555 1_555
H34 C27 1_555 1_555
C28 C1 1_555 1_555
H35 C28 1_555 1_555
C29 C28 1_555 1_555
H36 C29 1_555 1_555
C30 C29 1_555 1_555
H37 C30 1_555 1_555
H38 C30 1_555 1_555
O6 C35 1_555 1_555
O7 C32 1_555 1_555
C31 H39 1_555 1_555
O8 C32 1_555 1_555
O9 C35 1_555 1_555
C32 C38 1_555 1_555
C33 H40 1_555 1_555
C34 C33 1_555 1_555
C35 C38 1_555 1_555
C36 H41 1_555 1_555
C37 C31 1_555 1_555
C38 C31 1_555 1_555
C39 C36 1_555 1_555
H42 C39 1_555 1_555
H43 C39 1_555 1_555
C40 C31 1_555 1_555
C41 C43 1_555 1_555
C42 C40 1_555 1_555
H44 C42 1_555 1_555
C43 C37 1_555 1_555
H45 C43 1_555 1_555
C44 C34 1_555 1_555
O10 C44 1_555 1_555
C45 C34 1_555 1_555
C46 C41 1_555 1_555
C47 C40 1_555 1_555
H46 C47 1_555 1_555
C48 C36 1_555 1_555
H47 C48 1_555 1_555
C49 C46 1_555 1_555
H48 C49 1_555 1_555
H49 C49 1_555 1_555
H50 C49 1_555 1_555
C50 H51 1_555 1_555
C51 C45 1_555 1_555
H52 C51 1_555 1_555
H53 C51 1_555 1_555
H54 C51 1_555 1_555
C52 O8 1_555 1_555
H55 C52 1_555 1_555
H56 C52 1_555 1_555
H57 C52 1_555 1_555
C53 C47 1_555 1_555
H58 C53 1_555 1_555
C54 C42 1_555 1_555
H59 C54 1_555 1_555
C55 C45 1_555 1_555
H60 C55 1_555 1_555
H61 C55 1_555 1_555
H62 C55 1_555 1_555
C56 C46 1_555 1_555
H63 C56 1_555 1_555
H64 C56 1_555 1_555
H65 C56 1_555 1_555
C57 C45 1_555 1_555
H66 C57 1_555 1_555
H67 C57 1_555 1_555
H68 C57 1_555 1_555
C58 C48 1_555 1_555
H69 C58 1_555 1_555
H70 C58 1_555 1_555
C59 C46 1_555 1_555
H71 C59 1_555 1_555
H72 C59 1_555 1_555
H73 C59 1_555 1_555
C60 O6 1_555 1_555
H74 C60 1_555 1_555
H75 C60 1_555 1_555
H76 C60 1_555 1_555
C3 C6 1_555 1_555
C7 C12 1_555 1_555
C13 C28 1_555 1_555
C16 C17 1_555 1_555
C18 C20 1_555 1_555
C33 C37 1_555 1_555
C36 C37 1_555 1_555
C38 C39 1_555 1_555
C41 C44 1_555 1_555
C50 C53 1_555 1_555
C50 C54 1_555 1_555

#END
