
#######################################################################
#
#                 Cambridge Crystallographic Data Centre
#                                CCDC 
#
#######################################################################
#
# If this CIF has been generated from an entry in the Cambridge 
# Structural Database, then it will include bibliographic, chemical, 
# crystal, experimental, refinement or atomic coordinate data resulting 
# from the CCDC's data processing and validation procedures.
#
#######################################################################

data_IRUVOI
_chemical_formula_moiety         'C48 H30 N4 O8,C26 H32 O12,7(C2 H6 O1 S1)'
_chemical_name_systematic        
'[2]-(4-(2-(4-(4,7-bis(4-carboxyphenyl)-1H-benzimidazol-2-yl)phenyl)-4-(4-carboxyphenyl)-1H-benzimidazol-7-yl)benzoic acid)-(2,5,8,11,17,20,23,26-octaoxatricyclo[25.3.1.1^12,16^]dotriaconta-1(31),12(32),13,15,27,29-hexaene-14,29-dicarboxylic acid)-rotaxane dimethyl sulfoxide solvate'
_symmetry_cell_setting           monoclinic
_symmetry_space_group_name_H-M   'P 21/c'
_symmetry_Int_Tables_number      14
_space_group_name_Hall           '-P 2ybc'
loop_
_symmetry_equiv_pos_site_id
_symmetry_equiv_pos_as_xyz
1 x,y,z
2 -x,1/2+y,1/2-z
3 -x,-y,-z
4 x,1/2-y,1/2+z
_cell_length_a                   15.1666(9)
_cell_length_b                   17.9508(11)
_cell_length_c                   33.565(2)
_cell_angle_alpha                90
_cell_angle_beta                 91.437(2)
_cell_angle_gamma                90
_cell_volume                     9135.28
_exptl_crystal_colour            colorless
_exptl_crystal_description       block
_chemical_melting_point          '250 deg.C'
_cell_formula_units_Z            4
loop_
_atom_site_label
_atom_site_type_symbol
_atom_site_fract_x
_atom_site_fract_y
_atom_site_fract_z
C1 C 0.3084(2) -0.24043(19) 0.26832(9)
C2 C 0.35749(19) -0.22533(16) 0.30641(8)
C3 C 0.35090(19) -0.27694(16) 0.33681(8)
H1 H 0.3163 -0.3205 0.3327
C4 C 0.39417(18) -0.26565(15) 0.37307(8)
H2 H 0.3893 -0.3019 0.3935
C5 C 0.44496(16) -0.20178(14) 0.38015(7)
C6 C 0.4525(2) -0.15082(16) 0.34884(8)
H3 H 0.4882 -0.1077 0.3525
C7 C 0.4089(2) -0.16225(17) 0.31253(8)
H4 H 0.4143 -0.1267 0.2918
C8 C 0.48825(16) -0.18686(14) 0.41935(7)
C9 C 0.50783(15) -0.24261(13) 0.44813(7)
C10 C 0.55325(16) -0.22554(13) 0.48425(7)
C11 C 0.57750(16) -0.15288(14) 0.49498(7)
C12 C 0.55406(19) -0.09870(14) 0.46707(8)
H5 H 0.5671 -0.0481 0.4731
C13 C 0.51239(18) -0.11514(14) 0.43075(8)
H6 H 0.4998 -0.0753 0.4128
C14 C 0.62630(17) -0.12889(13) 0.53173(7)
C15 C 0.71187(18) -0.15201(14) 0.54020(8)
H7 H 0.7367 -0.1907 0.5248
C16 C 0.76211(17) -0.11983(14) 0.57076(8)
H8 H 0.8212 -0.1355 0.5756
C17 C 0.72563(18) -0.06464(14) 0.59422(8)
C18 C 0.6384(2) -0.04421(18) 0.58740(9)
H9 H 0.6120 -0.0085 0.6043
C19 C 0.58937(19) -0.07533(17) 0.55630(9)
H10 H 0.5300 -0.0600 0.5517
C20 C 0.78231(19) -0.02618(15) 0.62479(8)
C21 C 0.52130(16) -0.34600(13) 0.48033(7)
C22 C 0.51199(16) -0.42447(13) 0.49093(7)
C23 C 0.47779(17) -0.47369(13) 0.46222(7)
H11 H 0.4625 -0.4557 0.4363
C24 C 0.53406(17) -0.45159(13) 0.52891(7)
H12 H 0.5572 -0.4187 0.5487
N1 N 0.48876(14) -0.31777(11) 0.44657(6)
N2 N 0.56090(14) -0.29320(11) 0.50396(6)
H13 H 0.5866 -0.3007 0.5274
O1 O 0.33068(17) -0.19663(14) 0.23876(6)
H14 H 0.2994 -0.2066 0.2180
O2 O 0.25599(19) -0.29062(18) 0.26466(7)
O3 O 0.73959(16) 0.02082(15) 0.64693(7)
H15 H 0.7750 0.0384 0.6645
O4 O 0.86105(15) -0.03708(13) 0.62787(7)
C1B C 0.6916(2) -0.75957(19) 0.73168(9)
C2B C 0.64251(19) -0.77467(16) 0.69359(8)
C3B C 0.64910(19) -0.72306(16) 0.66319(8)
H1B H 0.6837 -0.6795 0.6673
C4B C 0.60583(18) -0.73435(15) 0.62693(8)
H2B H 0.6107 -0.6981 0.6065
C5B C 0.55504(16) -0.79822(14) 0.61985(7)
C6B C 0.5475(2) -0.84918(16) 0.65116(8)
H3B H 0.5118 -0.8923 0.6475
C7B C 0.5911(2) -0.83775(17) 0.68747(8)
H4B H 0.5857 -0.8733 0.7082
C8B C 0.51175(16) -0.81314(14) 0.58065(7)
C9B C 0.49217(15) -0.75739(13) 0.55187(7)
C10B C 0.44675(16) -0.77446(13) 0.51575(7)
C11B C 0.42250(16) -0.84712(14) 0.50502(7)
C12B C 0.44594(19) -0.90130(14) 0.53293(8)
H5B H 0.4329 -0.9519 0.5269
C13B C 0.48761(18) -0.88486(14) 0.56925(8)
H6B H 0.5002 -0.9247 0.5872
C14B C 0.37370(17) -0.87111(13) 0.46827(7)
C15B C 0.28813(18) -0.84799(14) 0.45980(8)
H7B H 0.2633 -0.8093 0.4752
C16B C 0.23789(17) -0.88017(14) 0.42924(8)
H8B H 0.1788 -0.8645 0.4244
C17B C 0.27437(18) -0.93536(14) 0.40578(8)
C18B C 0.3616(2) -0.95579(18) 0.41260(9)
H9B H 0.3880 -0.9915 0.3957
C19B C 0.41063(19) -0.92467(17) 0.44370(9)
H10B H 0.4700 -0.9400 0.4483
C20B C 0.21769(19) -0.97382(15) 0.37521(8)
C21B C 0.47870(16) -0.65400(13) 0.51967(7)
C22B C 0.48801(16) -0.57553(13) 0.50907(7)
C23B C 0.52221(17) -0.52631(13) 0.53778(7)
H11B H 0.5375 -0.5443 0.5637
C24B C 0.46594(17) -0.54841(13) 0.47109(7)
H12B H 0.4428 -0.5813 0.4513
N1B N 0.51124(14) -0.68223(11) 0.55343(6)
N2B N 0.43910(14) -0.70680(11) 0.49604(6)
H13B H 0.4134 -0.6993 0.4726
O1B O 0.66932(17) -0.80337(14) 0.76124(6)
H14B H 0.7006 -0.7934 0.7820
O2B O 0.74401(19) -0.70938(18) 0.73534(7)
O3B O 0.26041(16) -1.02082(15) 0.35307(7)
H15B H 0.2250 -1.0384 0.3355
O4B O 0.13895(15) -0.96292(13) 0.37213(7)
C25 C 1.25441(19) -0.46575(14) 0.38946(8)
C26 C 1.21083(18) -0.43018(14) 0.42424(8)
C27 C 1.25430(18) -0.37766(14) 0.44819(8)
H16 H 1.3126 -0.3626 0.4424
C28 C 1.21132(18) -0.34750(14) 0.48071(8)
H17 H 1.2407 -0.3112 0.4968
C29 C 1.12687(17) -0.36926(13) 0.49004(8)
C30 C 1.08411(19) -0.42236(15) 0.46575(9)
H18 H 1.0262 -0.4382 0.4718
C31 C 1.12566(19) -0.45184(15) 0.43299(9)
H19 H 1.0957 -0.4871 0.4164
C32 C 1.08229(16) -0.34237(14) 0.52632(8)
C33 C 1.05671(16) -0.26831(13) 0.53288(7)
C34 C 1.00917(15) -0.24615(13) 0.56679(7)
C35 C 0.98963(16) -0.29790(14) 0.59724(7)
C36 C 1.01947(18) -0.37012(14) 0.59085(8)
H20 H 1.0099 -0.4065 0.6108
C37 C 1.06280(19) -0.39153(14) 0.55652(8)
H21 H 1.0797 -0.4422 0.5538
C38 C 0.93895(16) -0.27927(14) 0.63329(7)
C39 C 0.92554(18) -0.20592(15) 0.64554(8)
H22 H 0.9501 -0.1662 0.6308
C40 C 0.87670(19) -0.19014(16) 0.67912(8)
H23 H 0.8684 -0.1399 0.6870
C41 C 0.84005(18) -0.24741(17) 0.70116(8)
C42 C 0.85283(19) -0.32059(16) 0.68907(8)
H24 H 0.8281 -0.3602 0.7039
C43 C 0.90097(19) -0.33619(16) 0.65581(8)
H25 H 0.9086 -0.3866 0.6480
C44 C 0.7872(2) -0.23178(19) 0.73704(9)
C45 C 1.02326(15) -0.14875(13) 0.53012(7)
C46 C 1.01360(16) -0.07236(13) 0.51452(7)
C47 C 1.04311(16) -0.05219(13) 0.47694(7)
H26 H 1.0728 -0.0877 0.4611
C48 C 0.97068(16) -0.01953(13) 0.53749(7)
H27 H 0.9507 -0.0326 0.5632
N3 N 1.06487(13) -0.20486(11) 0.51045(6)
H28 H 1.0919 -0.2010 0.4876
N4 N 0.98881(13) -0.17114(11) 0.56386(6)
O5 O 1.21866(14) -0.51341(12) 0.36923(6)
O6 O 1.33422(14) -0.44081(12) 0.38300(6)
H29 H 1.3563 -0.4608 0.3626
O7 O 0.79422(17) -0.16330(14) 0.75004(7)
H30 H 0.7641 -0.1576 0.7708
O8 O 0.7409(2) -0.27798(15) 0.75275(8)
C25B C 0.74559(19) 0.46575(14) 0.61054(8)
C26B C 0.78917(18) 0.43018(14) 0.57576(8)
C27B C 0.74570(18) 0.37766(14) 0.55181(8)
H16B H 0.6874 0.3626 0.5576
C28B C 0.78868(18) 0.34750(14) 0.51929(8)
H17B H 0.7593 0.3112 0.5032
C29B C 0.87313(17) 0.36926(13) 0.50996(8)
C30B C 0.91589(19) 0.42236(15) 0.53425(9)
H18B H 0.9738 0.4382 0.5282
C31B C 0.87434(19) 0.45184(15) 0.56701(9)
H19B H 0.9043 0.4871 0.5836
C32B C 0.91771(16) 0.34237(14) 0.47368(8)
C33B C 0.94329(16) 0.26831(13) 0.46712(7)
C34B C 0.99083(15) 0.24615(13) 0.43321(7)
C35B C 1.01037(16) 0.29790(14) 0.40276(7)
C36B C 0.98053(18) 0.37012(14) 0.40915(8)
H20B H 0.9901 0.4065 0.3892
C37B C 0.93720(19) 0.39153(14) 0.44348(8)
H21B H 0.9203 0.4422 0.4462
C38B C 1.06105(16) 0.27927(14) 0.36671(7)
C39B C 1.07446(18) 0.20592(15) 0.35446(8)
H22B H 1.0499 0.1662 0.3692
C40B C 1.12330(19) 0.19014(16) 0.32088(8)
H23B H 1.1316 0.1399 0.3130
C41B C 1.15995(18) 0.24741(17) 0.29884(8)
C42B C 1.14717(19) 0.32059(16) 0.31093(8)
H24B H 1.1719 0.3602 0.2961
C43B C 1.09903(19) 0.33619(16) 0.34419(8)
H25B H 1.0914 0.3866 0.3520
C44B C 1.2128(2) 0.23178(19) 0.26296(9)
C45B C 0.97674(15) 0.14875(13) 0.46988(7)
C46B C 0.98640(16) 0.07236(13) 0.48548(7)
C47B C 0.95689(16) 0.05219(13) 0.52306(7)
H26B H 0.9272 0.0877 0.5389
C48B C 1.02932(16) 0.01953(13) 0.46251(7)
H27B H 1.0493 0.0326 0.4368
N3B N 0.93513(13) 0.20486(11) 0.48955(6)
H28B H 0.9081 0.2010 0.5124
N4B N 1.01119(13) 0.17114(11) 0.43614(6)
O5B O 0.78134(14) 0.51341(12) 0.63077(6)
O6B O 0.66578(14) 0.44081(12) 0.61700(6)
H29B H 0.6437 0.4608 0.6374
O7B O 1.20578(17) 0.16330(14) 0.24996(7)
H30B H 1.2359 0.1576 0.2292
O8B O 1.2591(2) 0.27798(15) 0.24725(8)
C49 C 0.1312(2) -0.55706(16) 0.62766(9)
C50 C 0.19370(18) -0.53310(15) 0.59652(8)
C51 C 0.24607(18) -0.47140(16) 0.60407(9)
H31 H 0.2436 -0.4461 0.6289
C52 C 0.30264(18) -0.44696(15) 0.57456(9)
C53 C 0.30426(18) -0.48269(15) 0.53785(8)
H32 H 0.3418 -0.4651 0.5177
C54 C 0.25064(18) -0.54412(15) 0.53094(8)
C55 C 0.19637(18) -0.57113(15) 0.56023(8)
H33 H 0.1617 -0.6146 0.5558
C56 C 0.5951(2) -0.27467(16) 0.61494(9)
H34 H 0.5932 -0.2556 0.6426
H35 H 0.5834 -0.2326 0.5965
C57 C 0.68410(19) -0.30651(16) 0.60749(8)
H36 H 0.7302 -0.2708 0.6165
H37 H 0.6921 -0.3531 0.6229
C58 C 0.78182(18) -0.34134(16) 0.55803(8)
H38 H 0.7995 -0.3847 0.5746
H39 H 0.8213 -0.2993 0.5652
C59 C 0.79166(19) -0.36013(16) 0.51497(8)
H40 H 0.7696 -0.3185 0.4981
H41 H 0.8546 -0.3683 0.5092
C60 C 0.3786(2) -0.3642(2) 0.61778(11)
H42 H 0.4031 -0.4063 0.6336
H43 H 0.3242 -0.3468 0.6306
C61 C 0.4451(2) -0.3016(2) 0.61649(12)
H44 H 0.4278 -0.2659 0.5952
H45 H 0.4463 -0.2746 0.6422
O9 O 0.10459(19) -0.62584(14) 0.62363(7)
H46 H 0.0692 -0.6342 0.6424
O10 O 0.10889(16) -0.51626(12) 0.65413(7)
O11 O 0.35884(15) -0.38781(12) 0.57862(7)
O12 O 0.69306(12) -0.32161(10) 0.56612(5)
O13 O 0.74272(13) -0.42553(11) 0.50638(6)
O14 O 0.5297(2) -0.33030(16) 0.60912(8)
C49B C 0.8688(2) -0.44294(16) 0.37234(9)
C50B C 0.80630(18) -0.46690(15) 0.40348(8)
C51B C 0.75393(18) -0.52860(16) 0.39593(9)
H31B H 0.7564 -0.5539 0.3711
C52B C 0.69736(18) -0.55304(15) 0.42544(9)
C53B C 0.69574(18) -0.51731(15) 0.46215(8)
H32B H 0.6582 -0.5349 0.4823
C54B C 0.74936(18) -0.45588(15) 0.46906(8)
C55B C 0.80363(18) -0.42887(15) 0.43977(8)
H33B H 0.8383 -0.3854 0.4442
C56B C 0.4049(2) -0.72533(16) 0.38506(9)
H34B H 0.4068 -0.7444 0.3574
H35B H 0.4166 -0.7674 0.4035
C57B C 0.31590(19) -0.69349(16) 0.39251(8)
H36B H 0.2698 -0.7292 0.3835
H37B H 0.3079 -0.6469 0.3771
C58B C 0.21818(18) -0.65866(16) 0.44197(8)
H38B H 0.2005 -0.6153 0.4254
H39B H 0.1787 -0.7007 0.4348
C59B C 0.20834(19) -0.63987(16) 0.48503(8)
H40B H 0.2304 -0.6815 0.5019
H41B H 0.1454 -0.6317 0.4908
C60B C 0.6214(2) -0.6358(2) 0.38222(11)
H42B H 0.5969 -0.5937 0.3664
H43B H 0.6758 -0.6532 0.3694
C61B C 0.5549(2) -0.6984(2) 0.38351(12)
H44B H 0.5722 -0.7341 0.4048
H45B H 0.5537 -0.7254 0.3578
O9B O 0.89541(19) -0.37416(14) 0.37637(7)
H46B H 0.9308 -0.3658 0.3576
O10B O 0.89111(16) -0.48374(12) 0.34587(7)
O11B O 0.64116(15) -0.61219(12) 0.42138(7)
O12B O 0.30694(12) -0.67839(10) 0.43388(5)
O13B O 0.25728(13) -0.57447(11) 0.49362(6)
O14B O 0.4703(2) -0.66970(16) 0.39088(8)
C64 C 0.60545(18) 0.05139(15) 0.37261(8)
C65 C 0.66871(17) 0.02419(15) 0.40408(8)
C66 C 0.71563(18) -0.04092(15) 0.39782(8)
H53 H 0.7079 -0.0678 0.3736
C67 C 0.77417(18) -0.06639(15) 0.42743(8)
C68 C 0.78425(18) -0.02837(15) 0.46288(8)
H54 H 0.8236 -0.0464 0.4831
C69 C 0.73620(17) 0.03695(15) 0.46885(8)
C70 C 0.67854(17) 0.06426(15) 0.43960(8)
H55 H 0.6466 0.1090 0.4436
C71 C 0.85943(19) -0.17253(16) 0.44866(9)
H56 H 0.8134 -0.1989 0.4636
H57 H 0.8923 -0.1396 0.4674
C72 C 0.92123(18) -0.22799(15) 0.43073(9)
H58 H 0.9360 -0.2675 0.4504
H59 H 0.8927 -0.2516 0.4071
C73 C 1.06306(19) -0.23896(16) 0.40308(8)
H60 H 1.0444 -0.2538 0.3757
H61 H 1.0691 -0.2846 0.4195
C74 C 1.14955(19) -0.19866(17) 0.40222(8)
H62 H 1.1939 -0.2298 0.3889
H63 H 1.1427 -0.1516 0.3870
C75 C 1.26810(18) -0.16044(16) 0.44463(8)
H64 H 1.2774 -0.1183 0.4262
H65 H 1.3062 -0.2022 0.4364
C76 C 1.29308(18) -0.13736(15) 0.48625(8)
H66 H 1.2756 -0.1764 0.5053
H67 H 1.3577 -0.1303 0.4888
O16 O 0.59082(16) 0.00272(12) 0.34427(6)
H68 H 0.5577 0.0206 0.3258
O17 O 0.57197(16) 0.11295(12) 0.37344(7)
O18 O 0.81979(14) -0.12949(11) 0.41744(6)
O19 O 0.99882(12) -0.19053(10) 0.41958(5)
O20 O 1.17834(12) -0.18290(10) 0.44232(5)
O21 O 1.24885(13) -0.06932(11) 0.49471(6)
C64B C 1.39455(18) -0.05139(15) 0.62739(8)
C65B C 1.33129(17) -0.02419(15) 0.59592(8)
C66B C 1.28437(18) 0.04092(15) 0.60218(8)
H53B H 1.2921 0.0678 0.6264
C67B C 1.22583(18) 0.06639(15) 0.57257(8)
C68B C 1.21575(18) 0.02837(15) 0.53712(8)
H54B H 1.1764 0.0464 0.5169
C69B C 1.26380(17) -0.03695(15) 0.53115(8)
C70B C 1.32146(17) -0.06426(15) 0.56040(8)
H55B H 1.3534 -0.1090 0.5564
C71B C 1.14057(19) 0.17253(16) 0.55134(9)
H56B H 1.1866 0.1989 0.5364
H57B H 1.1077 0.1396 0.5326
C72B C 1.07877(18) 0.22799(15) 0.56927(9)
H58B H 1.0640 0.2675 0.5496
H59B H 1.1073 0.2516 0.5929
C73B C 0.93694(19) 0.23896(16) 0.59692(8)
H60B H 0.9556 0.2538 0.6243
H61B H 0.9309 0.2846 0.5805
C74B C 0.85045(19) 0.19866(17) 0.59778(8)
H62B H 0.8061 0.2298 0.6111
H63B H 0.8573 0.1516 0.6130
C75B C 0.73190(18) 0.16044(16) 0.55537(8)
H64B H 0.7226 0.1183 0.5738
H65B H 0.6938 0.2022 0.5636
C76B C 0.70692(18) 0.13736(15) 0.51375(8)
H66B H 0.7244 0.1764 0.4947
H67B H 0.6423 0.1303 0.5112
O16B O 1.40918(16) -0.00272(12) 0.65573(6)
H68B H 1.4423 -0.0206 0.6742
O17B O 1.42803(16) -0.11295(12) 0.62656(7)
O18B O 1.18021(14) 0.12949(11) 0.58256(6)
O19B O 1.00118(12) 0.19053(10) 0.58042(5)
O20B O 0.82166(12) 0.18290(10) 0.55768(5)
O21B O 0.75115(13) 0.06932(11) 0.50529(6)
C77 C 0.2282(3) -0.1384(3) 0.67795(16)
H70 H 0.1945 -0.0948 0.6686
H71 H 0.2293 -0.1396 0.7071
H72 H 0.2886 -0.1352 0.6685
C78 C 0.2077(3) -0.2112(3) 0.60869(13)
H73 H 0.1739 -0.1705 0.5962
H74 H 0.2709 -0.2003 0.6073
H75 H 0.1946 -0.2578 0.5946
O22 O 0.2331(2) -0.28278(18) 0.67483(8)
S1 S 0.17798(7) -0.21989(7) 0.65928(3)
C79 C 0.2303(3) -0.0234(2) 0.23699(14)
H76 H 0.2157 0.0077 0.2137
H77 H 0.2741 0.0022 0.2540
H78 H 0.2544 -0.0710 0.2281
C80 C 0.0811(3) -0.1024(2) 0.23059(10)
H79 H 0.0605 -0.0752 0.2068
H80 H 0.1232 -0.1409 0.2229
H81 H 0.0308 -0.1258 0.2434
O23 O 0.1623(2) -0.08785(15) 0.29954(7)
S2 S 0.13356(6) -0.03970(5) 0.26440(3)
C81 C 0.5466(3) -0.1145(2) 0.21905(14)
H82 H 0.5687 -0.1608 0.2312
H83 H 0.5197 -0.0836 0.2395
H84 H 0.5024 -0.1263 0.1982
C82 C 0.6897(3) -0.0368(3) 0.24238(15)
H85 H 0.7177 -0.0799 0.2554
H86 H 0.7348 0.0002 0.2361
H87 H 0.6470 -0.0146 0.2603
O24 O 0.59410(19) 0.00397(16) 0.18024(8)
S3 S 0.63479(6) -0.06563(5) 0.19792(3)
C83 C 0.5837(2) -0.3906(2) 0.36201(11)
H88 H 0.5332 -0.3665 0.3743
H89 H 0.5630 -0.4333 0.3461
H90 H 0.6253 -0.4078 0.3828
C84 C 0.6862(3) -0.2688(3) 0.36793(17)
H91 H 0.6406 -0.2389 0.3805
H92 H 0.7159 -0.3001 0.3881
H93 H 0.7295 -0.2357 0.3558
O25 O 0.7124(2) -0.36895(16) 0.31363(8)
S4 S 0.63706(6) -0.32605(5) 0.33069(2)
C85 C 0.0880(3) -0.4393(2) 0.30180(12)
H94 H 0.0996 -0.4776 0.2818
H95 H 0.1397 -0.4069 0.3050
H96 H 0.0756 -0.4631 0.3273
C86 C 0.0471(3) -0.3371(3) 0.24787(12)
H97 H 0.0564 -0.3703 0.2252
H98 H 0.0077 -0.2964 0.2396
H99 H 0.1038 -0.3166 0.2572
O26 O -0.0118(2) -0.33109(15) 0.31948(9)
S5 S -0.00074(6) -0.38743(5) 0.28663(3)
C87 C 0.9229(4) -0.1564(3) 0.31881(14)
H100 H 0.9100 -0.1817 0.3439
H101 H 0.8967 -0.1844 0.2964
H102 H 0.9869 -0.1534 0.3158
C88 C 0.9532(3) -0.0299(3) 0.35601(15)
H103 H 0.9405 -0.0517 0.3820
H104 H 1.0137 -0.0423 0.3489
H105 H 0.9466 0.0243 0.3574
O27 O 0.9005(2) -0.0314(2) 0.28070(10)
S6 S 0.87845(6) -0.06621(6) 0.31939(3)
C89 C 0.5277(5) 0.1491(4) 0.2566(2)
H106 H 0.5645 0.1554 0.2808
H107 H 0.5027 0.1973 0.2486
H108 H 0.5639 0.1297 0.2351
C90 C 0.3914(4) 0.1314(4) 0.30603(18)
H109 H 0.3479 0.0985 0.3181
H110 H 0.3620 0.1767 0.2962
H111 H 0.4368 0.1448 0.3261
O28 O 0.48706(19) 0.01963(14) 0.28436(7)
S7 S 0.44075(6) 0.08517(5) 0.26609(3)
C62? C 0.377(2) -0.3243(13) 0.5595(11)
H47? H 0.3225 -0.2961 0.5535
H48? H 0.4066 -0.3353 0.5341
C63? C 0.441(2) -0.2777(18) 0.5878(14)
H49? H 0.4495 -0.2275 0.5764
H50? H 0.4135 -0.2718 0.6142
H51? H 0.5836 -0.2774 0.6438
H52? H 0.5945 -0.2215 0.6071
O15? O 0.524(2) -0.3146(17) 0.5925(11)
H69? H 0.5428 0.1202 0.3522
C91? C 0.3601 0.1035 0.2945
H112? H 0.3106 0.1108 0.2756
H113? H 0.3428 0.1197 0.3211
H114? H 0.3760 0.0506 0.2954
C92? C 0.4986 0.1229 0.2424
H115? H 0.5406 0.1585 0.2314
H116? H 0.5300 0.0775 0.2506
H117? H 0.4535 0.1106 0.2220
O29? O 0.5065 0.1812 0.3132
S8? S 0.4542 0.1579 0.2788
loop_
_geom_bond_atom_site_label_1
_geom_bond_atom_site_label_2
_geom_bond_site_symmetry_1
_geom_bond_site_symmetry_2
C1 C2 1_555 1_555
C2 C3 1_555 1_555
C3 H1 1_555 1_555
C4 C3 1_555 1_555
H2 C4 1_555 1_555
C5 C4 1_555 1_555
C6 C5 1_555 1_555
H3 C6 1_555 1_555
C7 C2 1_555 1_555
H4 C7 1_555 1_555
C8 C5 1_555 1_555
C9 C8 1_555 1_555
C10 C9 1_555 1_555
C11 C10 1_555 1_555
C12 C11 1_555 1_555
H5 C12 1_555 1_555
C13 C8 1_555 1_555
H6 C13 1_555 1_555
C14 C11 1_555 1_555
C15 C14 1_555 1_555
H7 C15 1_555 1_555
C16 C15 1_555 1_555
H8 C16 1_555 1_555
C17 C16 1_555 1_555
C18 C17 1_555 1_555
H9 C18 1_555 1_555
C19 C14 1_555 1_555
H10 C19 1_555 1_555
C20 C17 1_555 1_555
C21 C22 1_555 1_555
C22 C23 1_555 1_555
C23 H11 1_555 1_555
C24 C22 1_555 1_555
H12 C24 1_555 1_555
N1 C9 1_555 1_555
N2 C10 1_555 1_555
H13 N2 1_555 1_555
O1 C1 1_555 1_555
H14 O1 1_555 1_555
O2 C1 1_555 1_555
O3 C20 1_555 1_555
H15 O3 1_555 1_555
O4 C20 1_555 1_555
C25 C26 1_555 1_555
C26 C27 1_555 1_555
C27 H16 1_555 1_555
C28 C27 1_555 1_555
H17 C28 1_555 1_555
C29 C28 1_555 1_555
C30 C29 1_555 1_555
H18 C30 1_555 1_555
C31 C26 1_555 1_555
H19 C31 1_555 1_555
C32 C29 1_555 1_555
C33 C32 1_555 1_555
C34 C33 1_555 1_555
C35 C34 1_555 1_555
C36 C35 1_555 1_555
H20 C36 1_555 1_555
C37 C32 1_555 1_555
H21 C37 1_555 1_555
C38 C35 1_555 1_555
C39 C38 1_555 1_555
H22 C39 1_555 1_555
C40 C39 1_555 1_555
H23 C40 1_555 1_555
C41 C40 1_555 1_555
C42 C41 1_555 1_555
H24 C42 1_555 1_555
C43 C38 1_555 1_555
H25 C43 1_555 1_555
C44 C41 1_555 1_555
C45 C46 1_555 1_555
C46 C47 1_555 1_555
C47 H26 1_555 1_555
C48 C46 1_555 1_555
H27 C48 1_555 1_555
N3 C33 1_555 1_555
H28 N3 1_555 1_555
N4 C34 1_555 1_555
O5 C25 1_555 1_555
O6 C25 1_555 1_555
H29 O6 1_555 1_555
O7 C44 1_555 1_555
H30 O7 1_555 1_555
O8 C44 1_555 1_555
C49 C50 1_555 1_555
C50 C51 1_555 1_555
C51 H31 1_555 1_555
C52 C51 1_555 1_555
C53 C52 1_555 1_555
H32 C53 1_555 1_555
C54 C53 1_555 1_555
C55 C50 1_555 1_555
H33 C55 1_555 1_555
C56 H34 1_555 1_555
H35 C56 1_555 1_555
C57 C56 1_555 1_555
H36 C57 1_555 1_555
H37 C57 1_555 1_555
C58 H38 1_555 1_555
H39 C58 1_555 1_555
C59 C58 1_555 1_555
H40 C59 1_555 1_555
H41 C59 1_555 1_555
C60 H42 1_555 1_555
H43 C60 1_555 1_555
C61 C60 1_555 1_555
H44 C61 1_555 1_555
H45 C61 1_555 1_555
O9 C49 1_555 1_555
H46 O9 1_555 1_555
O10 C49 1_555 1_555
O11 C52 1_555 1_555
O12 C57 1_555 1_555
O13 C59 1_555 1_555
O14 C56 1_555 1_555
C64 C65 1_555 1_555
C65 C66 1_555 1_555
C66 H53 1_555 1_555
C67 C66 1_555 1_555
C68 C67 1_555 1_555
H54 C68 1_555 1_555
C69 C68 1_555 1_555
C70 C65 1_555 1_555
H55 C70 1_555 1_555
C71 H56 1_555 1_555
H57 C71 1_555 1_555
C72 C71 1_555 1_555
H58 C72 1_555 1_555
H59 C72 1_555 1_555
C73 H60 1_555 1_555
H61 C73 1_555 1_555
C74 C73 1_555 1_555
H62 C74 1_555 1_555
H63 C74 1_555 1_555
C75 H64 1_555 1_555
H65 C75 1_555 1_555
C76 C75 1_555 1_555
H66 C76 1_555 1_555
H67 C76 1_555 1_555
O16 C64 1_555 1_555
H68 O16 1_555 1_555
O17 C64 1_555 1_555
O18 C67 1_555 1_555
O19 C72 1_555 1_555
O20 C74 1_555 1_555
O21 C76 1_555 1_555
C77 H70 1_555 1_555
H71 C77 1_555 1_555
H72 C77 1_555 1_555
C78 H73 1_555 1_555
H74 C78 1_555 1_555
H75 C78 1_555 1_555
O22 S1 1_555 1_555
S1 C77 1_555 1_555
C79 H76 1_555 1_555
H77 C79 1_555 1_555
H78 C79 1_555 1_555
C80 H79 1_555 1_555
H80 C80 1_555 1_555
H81 C80 1_555 1_555
O23 S2 1_555 1_555
S2 C79 1_555 1_555
C81 H82 1_555 1_555
H83 C81 1_555 1_555
H84 C81 1_555 1_555
C82 H85 1_555 1_555
H86 C82 1_555 1_555
H87 C82 1_555 1_555
O24 S3 1_555 1_555
S3 C81 1_555 1_555
C83 H88 1_555 1_555
H89 C83 1_555 1_555
H90 C83 1_555 1_555
C84 H91 1_555 1_555
H92 C84 1_555 1_555
H93 C84 1_555 1_555
O25 S4 1_555 1_555
S4 C83 1_555 1_555
C85 H94 1_555 1_555
H95 C85 1_555 1_555
H96 C85 1_555 1_555
C86 H97 1_555 1_555
H98 C86 1_555 1_555
H99 C86 1_555 1_555
O26 S5 1_555 1_555
S5 C85 1_555 1_555
C87 H100 1_555 1_555
H101 C87 1_555 1_555
H102 C87 1_555 1_555
C88 H103 1_555 1_555
H104 C88 1_555 1_555
H105 C88 1_555 1_555
O27 S6 1_555 1_555
S6 C87 1_555 1_555
C89 H106 1_555 1_555
H107 C89 1_555 1_555
H108 C89 1_555 1_555
C90 H109 1_555 1_555
H110 C90 1_555 1_555
H111 C90 1_555 1_555
O28 S7 1_555 1_555
S7 C89 1_555 1_555
C1B C2B 1_555 1_555
C2B C3B 1_555 1_555
C3B H1B 1_555 1_555
C4B C3B 1_555 1_555
H2B C4B 1_555 1_555
C5B C4B 1_555 1_555
C6B C5B 1_555 1_555
H3B C6B 1_555 1_555
C7B C2B 1_555 1_555
H4B C7B 1_555 1_555
C8B C5B 1_555 1_555
C9B C8B 1_555 1_555
C10B C9B 1_555 1_555
C11B C10B 1_555 1_555
C12B C11B 1_555 1_555
H5B C12B 1_555 1_555
C13B C8B 1_555 1_555
H6B C13B 1_555 1_555
C14B C11B 1_555 1_555
C15B C14B 1_555 1_555
H7B C15B 1_555 1_555
C16B C15B 1_555 1_555
H8B C16B 1_555 1_555
C17B C16B 1_555 1_555
C18B C17B 1_555 1_555
H9B C18B 1_555 1_555
C19B C14B 1_555 1_555
H10B C19B 1_555 1_555
C20B C17B 1_555 1_555
C21B C22B 1_555 1_555
C22B C23B 1_555 1_555
C23B C24 1_555 1_555
H11B C23B 1_555 1_555
C24B C23 1_555 1_555
H12B C24B 1_555 1_555
N1B C9B 1_555 1_555
N2B C10B 1_555 1_555
H13B N2B 1_555 1_555
O1B C1B 1_555 1_555
H14B O1B 1_555 1_555
O2B C1B 1_555 1_555
O3B C20B 1_555 1_555
H15B O3B 1_555 1_555
O4B C20B 1_555 1_555
C25B C26B 1_555 1_555
C26B C27B 1_555 1_555
C27B H16B 1_555 1_555
C28B C27B 1_555 1_555
H17B C28B 1_555 1_555
C29B C28B 1_555 1_555
C30B C29B 1_555 1_555
H18B C30B 1_555 1_555
C31B C26B 1_555 1_555
H19B C31B 1_555 1_555
C32B C29B 1_555 1_555
C33B C32B 1_555 1_555
C34B C33B 1_555 1_555
C35B C34B 1_555 1_555
C36B C35B 1_555 1_555
H20B C36B 1_555 1_555
C37B C32B 1_555 1_555
H21B C37B 1_555 1_555
C38B C35B 1_555 1_555
C39B C38B 1_555 1_555
H22B C39B 1_555 1_555
C40B C39B 1_555 1_555
H23B C40B 1_555 1_555
C41B C40B 1_555 1_555
C42B C41B 1_555 1_555
H24B C42B 1_555 1_555
C43B C38B 1_555 1_555
H25B C43B 1_555 1_555
C44B C41B 1_555 1_555
C45B C46B 1_555 1_555
C46B C47B 1_555 1_555
C47B C48 1_555 1_555
H26B C47B 1_555 1_555
C48B C47 1_555 1_555
H27B C48B 1_555 1_555
N3B C33B 1_555 1_555
H28B N3B 1_555 1_555
N4B C34B 1_555 1_555
O5B C25B 1_555 1_555
O6B C25B 1_555 1_555
H29B O6B 1_555 1_555
O7B C44B 1_555 1_555
H30B O7B 1_555 1_555
O8B C44B 1_555 1_555
C49B C50B 1_555 1_555
C50B C51B 1_555 1_555
C51B H31B 1_555 1_555
C52B C51B 1_555 1_555
C53B C52B 1_555 1_555
H32B C53B 1_555 1_555
C54B O13 1_555 1_555
C55B C50B 1_555 1_555
H33B C55B 1_555 1_555
C56B H34B 1_555 1_555
H35B C56B 1_555 1_555
C57B C56B 1_555 1_555
H36B C57B 1_555 1_555
H37B C57B 1_555 1_555
C58B H38B 1_555 1_555
H39B C58B 1_555 1_555
C59B C58B 1_555 1_555
H40B C59B 1_555 1_555
H41B C59B 1_555 1_555
C60B H42B 1_555 1_555
H43B C60B 1_555 1_555
C61B C60B 1_555 1_555
H44B C61B 1_555 1_555
H45B C61B 1_555 1_555
O9B C49B 1_555 1_555
H46B O9B 1_555 1_555
O10B C49B 1_555 1_555
O11B C52B 1_555 1_555
O12B C57B 1_555 1_555
O13B C54 1_555 1_555
O14B C56B 1_555 1_555
C64B C65B 1_555 1_555
C65B C66B 1_555 1_555
C66B H53B 1_555 1_555
C67B C66B 1_555 1_555
C68B C67B 1_555 1_555
H54B C68B 1_555 1_555
C69B O21 1_555 1_555
C70B C65B 1_555 1_555
H55B C70B 1_555 1_555
C71B H56B 1_555 1_555
H57B C71B 1_555 1_555
C72B C71B 1_555 1_555
H58B C72B 1_555 1_555
H59B C72B 1_555 1_555
C73B H60B 1_555 1_555
H61B C73B 1_555 1_555
C74B C73B 1_555 1_555
H62B C74B 1_555 1_555
H63B C74B 1_555 1_555
C75B H64B 1_555 1_555
H65B C75B 1_555 1_555
C76B C75B 1_555 1_555
H66B C76B 1_555 1_555
H67B C76B 1_555 1_555
O16B C64B 1_555 1_555
H68B O16B 1_555 1_555
O17B C64B 1_555 1_555
O18B C67B 1_555 1_555
O19B C72B 1_555 1_555
O20B C74B 1_555 1_555
O21B C69 1_555 1_555
C6 C7 1_555 1_555
C12 C13 1_555 1_555
C18 C19 1_555 1_555
C21 N1 1_555 1_555
C21 N2 1_555 1_555
C30 C31 1_555 1_555
C36 C37 1_555 1_555
C42 C43 1_555 1_555
C45 N3 1_555 1_555
C45 N4 1_555 1_555
C54 C55 1_555 1_555
C58 O12 1_555 1_555
C60 O11 1_555 1_555
C61 O14 1_555 1_555
C69 C70 1_555 1_555
C71 O18 1_555 1_555
C73 O19 1_555 1_555
C75 O20 1_555 1_555
C78 S1 1_555 1_555
C80 S2 1_555 1_555
C82 S3 1_555 1_555
C84 S4 1_555 1_555
C86 S5 1_555 1_555
C88 S6 1_555 1_555
C90 S7 1_555 1_555
C6B C7B 1_555 1_555
C12B C13B 1_555 1_555
C18B C19B 1_555 1_555
C21B N1B 1_555 1_555
C21B N2B 1_555 1_555
C22B C24B 1_555 1_555
C30B C31B 1_555 1_555
C36B C37B 1_555 1_555
C42B C43B 1_555 1_555
C45B N3B 1_555 1_555
C45B N4B 1_555 1_555
C46B C48B 1_555 1_555
C53B C54B 1_555 1_555
C54B C55B 1_555 1_555
C58B O12B 1_555 1_555
C59B O13B 1_555 1_555
C60B O11B 1_555 1_555
C61B O14B 1_555 1_555
C68B C69B 1_555 1_555
C69B C70B 1_555 1_555
C71B O18B 1_555 1_555
C73B O19B 1_555 1_555
C75B O20B 1_555 1_555
C76B O21B 1_555 1_555

#END
