
#######################################################################
#
#                 Cambridge Crystallographic Data Centre
#                                CCDC 
#
#######################################################################
#
# If this CIF has been generated from an entry in the Cambridge 
# Structural Database, then it will include bibliographic, chemical, 
# crystal, experimental, refinement or atomic coordinate data resulting 
# from the CCDC's data processing and validation procedures.
#
#######################################################################

data_IRUVIC
_chemical_formula_moiety         'C29 H24 Br1 N1 O3 S1'
_chemical_name_systematic        
'ethyl 3-(3-bromophenyl)-2-(2,7-diphenyl-6,7-dihydro-5H-pyrano[2,3-d][1,3]thiazol-5-ylidene)propanoate'
_symmetry_cell_setting           orthorhombic
_symmetry_space_group_name_H-M   'P 21 21 21'
_symmetry_Int_Tables_number      19
_space_group_name_Hall           'P 2ac 2ab'
loop_
_symmetry_equiv_pos_site_id
_symmetry_equiv_pos_as_xyz
1 x,y,z
2 1/2-x,-y,1/2+z
3 -x,1/2+y,1/2-z
4 1/2+x,1/2-y,-z
_cell_length_a                   5.689(3)
_cell_length_b                   20.594(10)
_cell_length_c                   21.431(11)
_cell_angle_alpha                90
_cell_angle_beta                 90
_cell_angle_gamma                90
_cell_volume                     2510.84
_exptl_crystal_colour            yellow
_exptl_crystal_description       rod
_cell_formula_units_Z            4
loop_
_atom_site_label
_atom_site_type_symbol
_atom_site_fract_x
_atom_site_fract_y
_atom_site_fract_z
Br1 Br 0.08178(12) 0.72772(3) 0.18940(3)
S1 S 0.87833(19) 0.43865(5) 0.56747(5)
O1 O 0.4902(5) 0.51920(14) 0.44333(13)
O2 O -0.0024(6) 0.66136(16) 0.51095(15)
O3 O -0.1289(6) 0.65965(15) 0.41286(14)
N1 N 0.8075(6) 0.44833(16) 0.44929(16)
C1 C 0.4874(7) 0.5291(2) 0.57923(19)
H1 H 0.3452 0.5033 0.5862
C2 C 0.6553(7) 0.4888(2) 0.54288(19)
C3 C 0.9425(7) 0.41967(18) 0.49034(19)
C4 C 0.6487(7) 0.4865(2) 0.47989(19)
C5 C 0.3476(7) 0.5651(2) 0.47270(19)
C6 C 0.4215(8) 0.5864(2) 0.53642(19)
H2 H 0.2943 0.6108 0.5555
H3 H 0.5557 0.6153 0.5327
C7 C 0.5761(8) 0.55174(19) 0.64223(18)
C8 C 0.4467(8) 0.5386(2) 0.6954(2)
H4 H 0.3073 0.5152 0.6922
C9 C 0.5229(10) 0.5598(2) 0.7533(2)
H5 H 0.4336 0.5509 0.7886
C10 C 0.7290(10) 0.5940(2) 0.7590(2)
H6 H 0.7794 0.6080 0.7980
C11 C 0.8614(9) 0.6073(2) 0.7064(2)
H7 H 1.0008 0.6306 0.7098
C12 C 0.7854(8) 0.5859(2) 0.6487(2)
H8 H 0.8760 0.5944 0.6135
C13 C 1.1371(7) 0.37619(19) 0.4732(2)
C14 C 1.2953(7) 0.3526(2) 0.5176(2)
H9 H 1.2768 0.3640 0.5593
C15 C 1.4795(8) 0.3123(2) 0.5004(2)
H10 H 1.5820 0.2961 0.5305
C16 C 1.5094(8) 0.2964(2) 0.4383(2)
H11 H 1.6339 0.2699 0.4265
C17 C 1.3567(8) 0.3195(2) 0.3939(2)
H12 H 1.3786 0.3088 0.3521
C18 C 1.1692(8) 0.3590(2) 0.4114(2)
H13 H 1.0647 0.3740 0.3813
C19 C 0.1640(7) 0.5854(2) 0.43751(19)
C20 C 0.0081(7) 0.6383(2) 0.45909(19)
C21 C -0.2789(9) 0.7151(2) 0.4264(2)
H14 H -0.1889 0.7485 0.4476
H15 H -0.4069 0.7019 0.4535
C22 C -0.3724(14) 0.7405(3) 0.3681(3)
H16 H -0.4379 0.7056 0.3441
H17 H -0.2482 0.7608 0.3449
H18 H -0.4926 0.7719 0.3770
C23 C 0.1155(8) 0.55422(19) 0.37454(17)
H19 H 0.1611 0.5089 0.3768
H20 H -0.0526 0.5555 0.3671
C24 C 0.2381(7) 0.5845(2) 0.3191(2)
C25 C 0.4541(7) 0.5611(2) 0.2976(2)
H21 H 0.5285 0.5276 0.3189
C26 C 0.5586(8) 0.5872(2) 0.2450(2)
H22 H 0.7011 0.5706 0.2309
C27 C 0.4532(9) 0.6379(2) 0.2129(2)
H23 H 0.5246 0.6560 0.1780
C28 C 0.2402(9) 0.6607(2) 0.2341(2)
C29 C 0.1305(8) 0.6348(2) 0.2864(2)
H24 H -0.0138 0.6510 0.2996
loop_
_geom_bond_atom_site_label_1
_geom_bond_atom_site_label_2
_geom_bond_site_symmetry_1
_geom_bond_site_symmetry_2
Br1 C28 1_555 1_555
S1 C2 1_555 1_555
O1 C4 1_555 1_555
O2 C20 1_555 1_555
O3 C20 1_555 1_555
N1 C3 1_555 1_555
C1 H1 1_555 1_555
C2 C1 1_555 1_555
C3 S1 1_555 1_555
C4 N1 1_555 1_555
C5 O1 1_555 1_555
C6 C1 1_555 1_555
H2 C6 1_555 1_555
H3 C6 1_555 1_555
C7 C1 1_555 1_555
C8 C7 1_555 1_555
H4 C8 1_555 1_555
C9 C8 1_555 1_555
H5 C9 1_555 1_555
C10 C9 1_555 1_555
H6 C10 1_555 1_555
C11 C10 1_555 1_555
H7 C11 1_555 1_555
C12 C7 1_555 1_555
H8 C12 1_555 1_555
C13 C3 1_555 1_555
C14 C13 1_555 1_555
H9 C14 1_555 1_555
C15 C14 1_555 1_555
H10 C15 1_555 1_555
C16 C15 1_555 1_555
H11 C16 1_555 1_555
C17 C16 1_555 1_555
H12 C17 1_555 1_555
C18 C13 1_555 1_555
H13 C18 1_555 1_555
C19 C5 1_555 1_555
C20 C19 1_555 1_555
C21 O3 1_555 1_555
H14 C21 1_555 1_555
H15 C21 1_555 1_555
C22 C21 1_555 1_555
H16 C22 1_555 1_555
H17 C22 1_555 1_555
H18 C22 1_555 1_555
C23 C19 1_555 1_555
H19 C23 1_555 1_555
H20 C23 1_555 1_555
C24 C23 1_555 1_555
C25 C24 1_555 1_555
H21 C25 1_555 1_555
C26 C25 1_555 1_555
H22 C26 1_555 1_555
C27 C26 1_555 1_555
H23 C27 1_555 1_555
C28 C27 1_555 1_555
C29 C24 1_555 1_555
H24 C29 1_555 1_555
C2 C4 1_555 1_555
C5 C6 1_555 1_555
C11 C12 1_555 1_555
C17 C18 1_555 1_555
C28 C29 1_555 1_555

#END
