
#######################################################################
#
#                 Cambridge Crystallographic Data Centre
#                                CCDC 
#
#######################################################################
#
# If this CIF has been generated from an entry in the Cambridge 
# Structural Database, then it will include bibliographic, chemical, 
# crystal, experimental, refinement or atomic coordinate data resulting 
# from the CCDC's data processing and validation procedures.
#
#######################################################################

data_IRUWEY
_chemical_formula_moiety         'C14 H10 Cl1 N1 O2'
_chemical_name_systematic        
4'-Chloro-1'-methyl-4H-spiro[cyclohexa-2,5-diene-1,3'-indole]-2',4(1'H)-dione
_symmetry_cell_setting           monoclinic
_symmetry_space_group_name_H-M   'P 21/c'
_symmetry_Int_Tables_number      14
_space_group_name_Hall           '-P 2ybc'
loop_
_symmetry_equiv_pos_site_id
_symmetry_equiv_pos_as_xyz
1 x,y,z
2 -x,1/2+y,1/2-z
3 -x,-y,-z
4 x,1/2-y,1/2+z
_cell_length_a                   8.8708(13)
_cell_length_b                   16.811(3)
_cell_length_c                   8.3490(13)
_cell_angle_alpha                90
_cell_angle_beta                 100.067(3)
_cell_angle_gamma                90
_cell_volume                     1225.89
_exptl_crystal_colour            colorless
_exptl_crystal_description       block
_chemical_melting_point          '178-180 deg.C'
_cell_formula_units_Z            4
loop_
_atom_site_label
_atom_site_type_symbol
_atom_site_fract_x
_atom_site_fract_y
_atom_site_fract_z
Cl1 Cl 0.35479(9) 0.07055(6) -0.17446(12)
C1 C -0.0592(3) 0.13804(14) -0.1043(3)
N1 N -0.1023(2) 0.16250(12) 0.0399(3)
C2 C 0.0969(3) 0.12176(14) -0.0777(3)
C3 C 0.1623(3) 0.09471(17) -0.2048(3)
C4 C -0.1489(3) 0.13088(16) -0.2559(3)
H1 H -0.2530 0.1425 -0.2726
C5 C -0.0797(4) 0.10607(19) -0.3808(4)
H2 H -0.1382 0.1019 -0.4843
C6 C 0.0723(4) 0.08716(19) -0.3594(4)
H3 H 0.1155 0.0694 -0.4467
C7 C 0.0179(3) 0.16648(15) 0.1646(3)
C8 C 0.2744(3) 0.20728(15) 0.1187(3)
H4 H 0.2532 0.2516 0.0519
C9 C 0.1645(3) 0.13925(13) 0.0979(3)
C10 C 0.4456(3) 0.13800(19) 0.3331(4)
C11 C 0.4008(3) 0.20647(17) 0.2290(3)
H5 H 0.4634 0.2512 0.2405
C12 C 0.3506(3) 0.06743(17) 0.3026(3)
H6 H 0.3799 0.0214 0.3615
C13 C 0.2234(3) 0.06713(15) 0.1930(3)
H7 H 0.1682 0.0200 0.1745
O1 O 0.5581(3) 0.13944(17) 0.4407(3)
C14 C -0.2596(3) 0.1784(2) 0.0603(5)
H8 H -0.2629 0.1857 0.1737
H9 H -0.3235 0.1343 0.0192
H10 H -0.2958 0.2258 0.0015
O2 O 0.0139(2) 0.18588(12) 0.3026(2)
loop_
_geom_bond_atom_site_label_1
_geom_bond_atom_site_label_2
_geom_bond_site_symmetry_1
_geom_bond_site_symmetry_2
Cl1 C3 1_555 1_555
C1 N1 1_555 1_555
N1 C7 1_555 1_555
C2 C1 1_555 1_555
C3 C2 1_555 1_555
C4 C1 1_555 1_555
H1 C4 1_555 1_555
C5 C4 1_555 1_555
H2 C5 1_555 1_555
C6 C3 1_555 1_555
H3 C6 1_555 1_555
C7 C9 1_555 1_555
C8 H4 1_555 1_555
C9 C2 1_555 1_555
C10 C11 1_555 1_555
C11 C8 1_555 1_555
H5 C11 1_555 1_555
C12 C10 1_555 1_555
H6 C12 1_555 1_555
C13 C9 1_555 1_555
H7 C13 1_555 1_555
O1 C10 1_555 1_555
C14 N1 1_555 1_555
H8 C14 1_555 1_555
H9 C14 1_555 1_555
H10 C14 1_555 1_555
O2 C7 1_555 1_555
C5 C6 1_555 1_555
C8 C9 1_555 1_555
C12 C13 1_555 1_555

#END
