
#######################################################################
#
#                 Cambridge Crystallographic Data Centre
#                                CCDC 
#
#######################################################################
#
# If this CIF has been generated from an entry in the Cambridge 
# Structural Database, then it will include bibliographic, chemical, 
# crystal, experimental, refinement or atomic coordinate data resulting 
# from the CCDC's data processing and validation procedures.
#
#######################################################################

data_IRUWAU
_chemical_formula_moiety         'C14 H10 Cl1 N1 O2'
_chemical_name_systematic        
6'-Chloro-1'-methyl-4H-spiro[cyclohexa-2,5-diene-1,3'-indole]-2',4(1'H)-dione
_symmetry_cell_setting           monoclinic
_symmetry_space_group_name_H-M   'P 21/c'
_symmetry_Int_Tables_number      14
_space_group_name_Hall           '-P 2ybc'
loop_
_symmetry_equiv_pos_site_id
_symmetry_equiv_pos_as_xyz
1 x,y,z
2 -x,1/2+y,1/2-z
3 -x,-y,-z
4 x,1/2-y,1/2+z
_cell_length_a                   10.536(2)
_cell_length_b                   8.8489(17)
_cell_length_c                   12.961(3)
_cell_angle_alpha                90
_cell_angle_beta                 90.674(12)
_cell_angle_gamma                90
_cell_volume                     1208.3
_exptl_crystal_colour            colorless
_exptl_crystal_description       block
_chemical_melting_point          '205-207 deg.C'
_cell_formula_units_Z            4
loop_
_atom_site_label
_atom_site_type_symbol
_atom_site_fract_x
_atom_site_fract_y
_atom_site_fract_z
C1 C 0.66107(18) 0.9713(2) 1.11816(16)
H1 H 0.6039 0.9460 1.1695
C2 C 0.7524(2) 1.0818(2) 1.13303(16)
C3 C 0.8379(2) 1.1219(3) 1.05781(18)
H2 H 0.8969 1.1981 1.0702
C4 C 0.83476(19) 1.0470(3) 0.96321(17)
H3 H 0.8926 1.0712 0.9122
C5 C 0.74510(18) 0.9371(2) 0.94648(15)
C6 C 0.65927(17) 0.9009(2) 1.02343(16)
C7 C 0.6035(2) 0.7458(3) 0.88926(17)
C8 C 0.72229(19) 0.8352(2) 0.85366(16)
C9 C 0.6947(2) 0.9237(3) 0.75773(17)
H4 H 0.6249 0.9880 0.7569
C10 C 0.7648(2) 0.9151(3) 0.67407(18)
H5 H 0.7448 0.9766 0.6180
C11 C 0.8729(2) 0.8120(3) 0.66681(18)
C12 C 0.8986(2) 0.7178(3) 0.75679(18)
H6 H 0.9650 0.6487 0.7544
C13 C 0.83112(19) 0.7271(3) 0.84157(17)
H7 H 0.8518 0.6638 0.8965
C14 C 0.4724(2) 0.7231(3) 1.04641(18)
H8 H 0.4238 0.6565 1.0029
H9 H 0.4192 0.8038 1.0699
H10 H 0.5049 0.6677 1.1047
Cl1 Cl 0.76080(6) 1.17088(8) 1.25255(5)
N1 N 0.57800(15) 0.7855(2) 0.98821(13)
O1 O 0.54313(15) 0.65480(19) 0.83812(13)
O2 O 0.93633(17) 0.8042(2) 0.58834(13)
loop_
_geom_bond_atom_site_label_1
_geom_bond_atom_site_label_2
_geom_bond_site_symmetry_1
_geom_bond_site_symmetry_2
C1 H1 1_555 1_555
C2 C1 1_555 1_555
C3 C2 1_555 1_555
H2 C3 1_555 1_555
C4 C3 1_555 1_555
H3 C4 1_555 1_555
C5 C4 1_555 1_555
C6 C1 1_555 1_555
C7 C8 1_555 1_555
C8 C5 1_555 1_555
C9 C8 1_555 1_555
H4 C9 1_555 1_555
C10 C9 1_555 1_555
H5 C10 1_555 1_555
C11 C10 1_555 1_555
C12 C11 1_555 1_555
H6 C12 1_555 1_555
C13 C8 1_555 1_555
H7 C13 1_555 1_555
C14 H8 1_555 1_555
H9 C14 1_555 1_555
H10 C14 1_555 1_555
Cl1 C2 1_555 1_555
N1 C6 1_555 1_555
O1 C7 1_555 1_555
O2 C11 1_555 1_555
C5 C6 1_555 1_555
C7 N1 1_555 1_555
C12 C13 1_555 1_555
C14 N1 1_555 1_555

#END
