
#######################################################################
#
#                 Cambridge Crystallographic Data Centre
#                                CCDC 
#
#######################################################################
#
# If this CIF has been generated from an entry in the Cambridge 
# Structural Database, then it will include bibliographic, chemical, 
# crystal, experimental, refinement or atomic coordinate data resulting 
# from the CCDC's data processing and validation procedures.
#
#######################################################################

data_ISABUA
_chemical_name_common            
2,4-Dibromobenzene[1',6':6,7]-1-oxa-4-aza-cycloheptane[4,5-a]-benzimidazole
_chemical_formula_moiety         'C15 H10 Br2 N2 O1'
_chemical_name_systematic        
2,4-Dibromo-6,7-dihydrobenzimidazo[1,2-d][1,4]benzoxazepine
_symmetry_cell_setting           triclinic
_symmetry_space_group_name_H-M   'P -1'
_symmetry_Int_Tables_number      2
_space_group_name_Hall           '-P 1'
loop_
_symmetry_equiv_pos_site_id
_symmetry_equiv_pos_as_xyz
1 x,y,z
2 -x,-y,-z
_cell_length_a                   7.2800(12)
_cell_length_b                   8.1390(14)
_cell_length_c                   12.548(12)
_cell_angle_alpha                107.180(9)
_cell_angle_beta                 98.067(11)
_cell_angle_gamma                101.94(14)
_cell_volume                     678.621
_exptl_crystal_colour            colorless
_exptl_crystal_description       prism
_cell_formula_units_Z            2
loop_
_atom_site_label
_atom_site_type_symbol
_atom_site_fract_x
_atom_site_fract_y
_atom_site_fract_z
C1 C 0.7007(5) 0.2105(5) 0.6521(3)
H1 H 0.6901 0.1485 0.5753
C2 C 0.6533(5) 0.1239(4) 0.7273(4)
C3 C 0.6686(4) 0.2118(5) 0.8431(3)
C4 C 0.7346(4) 0.3989(4) 0.8872(3)
C5 C 0.7807(4) 0.4865(4) 0.8094(3)
H2 H 0.8230 0.6102 0.8353
C6 C 0.7650(5) 0.3944(5) 0.6963(3)
C7 C 0.7556(4) 0.5143(5) 1.0048(3)
C8 C 0.7249(5) 0.1515(4) 1.0177(3)
H3 H 0.8594 0.1986 1.0193
H4 H 0.7132 0.0441 1.0379
C9 C 0.6614(5) 0.2853(5) 1.1043(3)
H5 H 0.5226 0.2489 1.0930
H6 H 0.7163 0.2885 1.1801
C10 C 0.7584(4) 0.6179(5) 1.1905(3)
C11 C 0.8203(5) 0.7556(5) 1.1498(3)
C12 C 0.8775(5) 0.9339(5) 1.2294(4)
H7 H 0.9219 1.0286 1.2045
C13 C 0.8677(5) 0.9660(5) 1.3395(4)
H8 H 0.9060 1.0820 1.3909
C14 C 0.7980(5) 0.8207(6) 1.3762(4)
H9 H 0.7884 0.8436 1.4521
C15 C 0.7436(5) 0.6457(5) 1.3032(4)
H10 H 0.6992 0.5513 1.3285
N1 N 0.8179(3) 0.6913(4) 1.0352(3)
N2 N 0.7190(4) 0.4638(4) 1.0969(3)
O1 O 0.6158(3) 0.1075(3) 0.9056(2)
Br1 Br 0.56896(6) -0.12868(5) 0.66912(4)
Br2 Br 0.83474(6) 0.51746(5) 0.59530(4)
loop_
_geom_bond_atom_site_label_1
_geom_bond_atom_site_label_2
_geom_bond_site_symmetry_1
_geom_bond_site_symmetry_2
C1 H1 1_555 1_555
C2 C1 1_555 1_555
C3 C2 1_555 1_555
C4 C3 1_555 1_555
C5 C4 1_555 1_555
H2 C5 1_555 1_555
C6 C1 1_555 1_555
C7 C4 1_555 1_555
C8 H3 1_555 1_555
H4 C8 1_555 1_555
C9 C8 1_555 1_555
H5 C9 1_555 1_555
H6 C9 1_555 1_555
C10 C11 1_555 1_555
C11 C12 1_555 1_555
C12 H7 1_555 1_555
C13 C12 1_555 1_555
H8 C13 1_555 1_555
C14 C13 1_555 1_555
H9 C14 1_555 1_555
C15 C10 1_555 1_555
H10 C15 1_555 1_555
N1 C7 1_555 1_555
N2 C7 1_555 1_555
O1 C3 1_555 1_555
Br1 C2 1_555 1_555
Br2 C6 1_555 1_555
C5 C6 1_555 1_555
C8 O1 1_555 1_555
C9 N2 1_555 1_555
C10 N2 1_555 1_555
C11 N1 1_555 1_555
C14 C15 1_555 1_555

#END
