
#######################################################################
#
#                 Cambridge Crystallographic Data Centre
#                                CCDC 
#
#######################################################################
#
# If this CIF has been generated from an entry in the Cambridge 
# Structural Database, then it will include bibliographic, chemical, 
# crystal, experimental, refinement or atomic coordinate data resulting 
# from the CCDC's data processing and validation procedures.
#
#######################################################################

data_ISACOV
_chemical_formula_moiety         'C15 H16 N2 O1,C9 H11 N1 O1'
_chemical_name_systematic        
'(E)-2-(4-(Dimethylamino)benzylideneamino)phenol 4-(dimethylamino)benzaldehyde'
_symmetry_cell_setting           monoclinic
_symmetry_space_group_name_H-M   'P 21/n'
_symmetry_Int_Tables_number      14
_space_group_name_Hall           '-P 2yn'
loop_
_symmetry_equiv_pos_site_id
_symmetry_equiv_pos_as_xyz
1 x,y,z
2 1/2-x,1/2+y,1/2-z
3 -x,-y,-z
4 1/2+x,1/2-y,1/2+z
_cell_length_a                   16.7931(17)
_cell_length_b                   8.0962(8)
_cell_length_c                   17.6761(18)
_cell_angle_alpha                90
_cell_angle_beta                 117.596(1)
_cell_angle_gamma                90
_cell_volume                     2129.84
_exptl_crystal_colour            orange-yellow
_exptl_crystal_description       block
_chemical_melting_point          '386-388 K'
_cell_formula_units_Z            4
loop_
_atom_site_label
_atom_site_type_symbol
_atom_site_fract_x
_atom_site_fract_y
_atom_site_fract_z
O1 O 0.00586(7) 0.90413(15) 0.81274(8)
H1 H 0.0605 0.8910 0.8358
N1 N 0.11190(7) 0.70027(14) 0.78185(7)
N2 N 0.54502(8) 0.68172(18) 0.95202(8)
C1 C -0.03407(10) 0.79000(18) 0.74979(9)
C2 C -0.12664(11) 0.7869(2) 0.70356(12)
H2 H -0.1611 0.8611 0.7161
C3 C -0.16764(11) 0.6738(2) 0.63882(12)
H3 H -0.2299 0.6732 0.6069
C4 C -0.11739(11) 0.5620(2) 0.62111(11)
H4 H -0.1457 0.4845 0.5780
C5 C -0.02513(10) 0.5641(2) 0.66692(10)
H5 H 0.0085 0.4869 0.6549
C6 C 0.01837(9) 0.68050(17) 0.73102(9)
C7 C 0.16776(9) 0.63677(18) 0.76031(9)
H6 H 0.1453 0.5773 0.7096
C8 C 0.26413(9) 0.65178(17) 0.81020(8)
C9 C 0.32054(9) 0.58839(18) 0.77942(9)
H7 H 0.2951 0.5368 0.7264
C10 C 0.41244(10) 0.59940(19) 0.82463(9)
H8 H 0.4478 0.5568 0.8015
C11 C 0.45359(9) 0.67423(17) 0.90543(9)
C12 C 0.39636(10) 0.74071(19) 0.93601(9)
H9 H 0.4213 0.7934 0.9888
C13 C 0.30488(10) 0.72933(18) 0.88970(9)
H10 H 0.2690 0.7744 0.9118
C14 C 0.60205(11) 0.6009(3) 0.92222(12)
H11 H 0.5862 0.4862 0.9120
H12 H 0.6637 0.6109 0.9647
H13 H 0.5942 0.6520 0.8702
C15 C 0.58765(11) 0.7518(2) 1.03709(10)
H14 H 0.5735 0.8673 1.0341
H15 H 0.6516 0.7382 1.0615
H16 H 0.5662 0.6963 1.0721
O2 O 0.82092(9) 0.96886(19) 1.05102(9)
N3 N 0.88950(10) 0.31084(17) 0.88429(10)
C16 C 0.89054(11) 0.4132(2) 1.01241(10)
H17 H 0.9096 0.3110 1.0387
C17 C 0.87751(11) 0.5399(2) 1.05619(10)
H18 H 0.8881 0.5215 1.1120
C18 C 0.84922(9) 0.69492(19) 1.02102(9)
C19 C 0.83221(10) 0.71675(19) 0.93700(10)
H19 H 0.8118 0.8188 0.9110
C20 C 0.84468(11) 0.5925(2) 0.89169(9)
H20 H 0.8326 0.6116 0.8355
C21 C 0.87555(10) 0.43530(19) 0.92817(10)
C22 C 0.87943(16) 0.3367(3) 0.79936(13)
H21 H 0.8187 0.3686 0.7617
H22 H 0.8933 0.2363 0.7791
H23 H 0.9196 0.4224 0.8009
C23 C 0.92533(13) 0.1536(2) 0.92498(15)
H24 H 0.9840 0.1699 0.9721
H25 H 0.9294 0.0798 0.8844
H26 H 0.8863 0.1070 0.9454
C24 C 0.84118(11) 0.8268(3) 1.07225(12)
H27 H 0.8529 0.7993 1.1275
loop_
_geom_bond_atom_site_label_1
_geom_bond_atom_site_label_2
_geom_bond_site_symmetry_1
_geom_bond_site_symmetry_2
O1 H1 1_555 1_555
N1 C6 1_555 1_555
N2 C11 1_555 1_555
C1 O1 1_555 1_555
C2 C1 1_555 1_555
H2 C2 1_555 1_555
C3 C2 1_555 1_555
H3 C3 1_555 1_555
C4 C3 1_555 1_555
H4 C4 1_555 1_555
C5 C4 1_555 1_555
H5 C5 1_555 1_555
C6 C1 1_555 1_555
C7 N1 1_555 1_555
H6 C7 1_555 1_555
C8 C7 1_555 1_555
C9 C8 1_555 1_555
H7 C9 1_555 1_555
C10 C9 1_555 1_555
H8 C10 1_555 1_555
C11 C10 1_555 1_555
C12 C11 1_555 1_555
H9 C12 1_555 1_555
C13 C8 1_555 1_555
H10 C13 1_555 1_555
C14 N2 1_555 1_555
H11 C14 1_555 1_555
H12 C14 1_555 1_555
H13 C14 1_555 1_555
C15 N2 1_555 1_555
H14 C15 1_555 1_555
H15 C15 1_555 1_555
H16 C15 1_555 1_555
O2 C24 1_555 1_555
N3 C21 1_555 1_555
C16 H17 1_555 1_555
C17 C16 1_555 1_555
H18 C17 1_555 1_555
C18 C17 1_555 1_555
C19 C18 1_555 1_555
H19 C19 1_555 1_555
C20 C19 1_555 1_555
H20 C20 1_555 1_555
C21 C16 1_555 1_555
C22 N3 1_555 1_555
H21 C22 1_555 1_555
H22 C22 1_555 1_555
H23 C22 1_555 1_555
C23 N3 1_555 1_555
H24 C23 1_555 1_555
H25 C23 1_555 1_555
H26 C23 1_555 1_555
C24 C18 1_555 1_555
H27 C24 1_555 1_555
C5 C6 1_555 1_555
C12 C13 1_555 1_555
C20 C21 1_555 1_555

#END
