
#######################################################################
#
#                 Cambridge Crystallographic Data Centre
#                                CCDC 
#
#######################################################################
#
# If this CIF has been generated from an entry in the Cambridge 
# Structural Database, then it will include bibliographic, chemical, 
# crystal, experimental, refinement or atomic coordinate data resulting 
# from the CCDC's data processing and validation procedures.
#
#######################################################################

data_ISACIO
_chemical_formula_moiety         'C15 H14 N2 O3'
_chemical_name_systematic        (S)-N-(4-Nitrobenzoyl)-\a-methylbenzylamine
_symmetry_cell_setting           orthorhombic
_symmetry_space_group_name_H-M   'P 21 21 21'
_symmetry_Int_Tables_number      19
_space_group_name_Hall           'P 2ac 2ab'
loop_
_symmetry_equiv_pos_site_id
_symmetry_equiv_pos_as_xyz
1 x,y,z
2 1/2-x,-y,1/2+z
3 1/2+x,1/2-y,-z
4 -x,1/2+y,1/2-z
_cell_length_a                   8.5535(10)
_cell_length_b                   9.8900(7)
_cell_length_c                   33.038(3)
_cell_angle_alpha                90
_cell_angle_beta                 90
_cell_angle_gamma                90
_cell_volume                     2794.82
_exptl_crystal_colour            colorless
_exptl_crystal_description       block
_chemical_melting_point          120-121deg.C
_cell_formula_units_Z            8
loop_
_atom_site_label
_atom_site_type_symbol
_atom_site_fract_x
_atom_site_fract_y
_atom_site_fract_z
O1 O 0.7586(4) 0.6191(2) 0.87513(8)
O2 O 0.1344(5) 0.3406(5) 0.99175(15)
O3 O 0.0374(5) 0.4983(6) 0.95793(14)
N1 N 0.8085(5) 0.3990(3) 0.87591(11)
N2 N 0.1438(5) 0.4265(5) 0.96640(12)
C1 C 0.2931(5) 0.4447(4) 0.94614(11)
C2 C 0.4058(6) 0.3481(4) 0.94961(13)
H1 H 0.3887 0.2717 0.9654
C3 C 0.5446(5) 0.3647(4) 0.92948(11)
H2 H 0.6213 0.2983 0.9311
C4 C 0.5707(5) 0.4794(3) 0.90687(9)
C5 C 0.4560(5) 0.5765(4) 0.90479(11)
H3 H 0.4738 0.6547 0.8899
C6 C 0.3164(5) 0.5601(4) 0.92424(12)
H4 H 0.2390 0.6259 0.9226
C7 C 0.7196(5) 0.5043(3) 0.88488(10)
C8 C 0.9546(5) 0.4146(4) 0.85384(13)
H5 H 1.0126 0.4897 0.8660
C9 C 1.0505(6) 0.2873(5) 0.85908(14)
H6 H 0.9948 0.2119 0.8479
H7 H 1.0689 0.2718 0.8874
H8 H 1.1487 0.2975 0.8453
C10 C 0.9244(5) 0.4490(4) 0.80991(13)
C11 C 0.8215(6) 0.3755(5) 0.78768(14)
H9 H 0.7659 0.3061 0.8001
C12 C 0.7972(7) 0.4017(6) 0.74664(16)
H10 H 0.7266 0.3496 0.7320
C13 C 0.8754(7) 0.5016(7) 0.72846(18)
H11 H 0.8610 0.5197 0.7011
C14 C 0.9776(8) 0.5770(6) 0.7512(2)
H12 H 1.0310 0.6481 0.7391
C15 C 1.0027(6) 0.5504(5) 0.79107(16)
H13 H 1.0743 0.6021 0.8055
H27 H 0.779(5) 0.328(4) 0.8796(12)
O4 O 0.2608(4) 0.6154(2) 0.60831(8)
O5 O 0.4036(5) 0.3695(4) 0.80703(10)
O6 O 0.4669(7) 0.5778(4) 0.80361(11)
N3 N 0.2303(4) 0.3932(3) 0.60066(9)
N4 N 0.4232(5) 0.4719(5) 0.78853(12)
C16 C 0.3928(5) 0.4722(4) 0.74478(12)
C17 C 0.3069(5) 0.3693(4) 0.72899(12)
H14 H 0.2726 0.2983 0.7451
C18 C 0.2722(5) 0.3738(3) 0.68792(11)
H15 H 0.2148 0.3042 0.6762
C19 C 0.3216(4) 0.4794(3) 0.66461(11)
C20 C 0.4131(5) 0.5791(4) 0.68133(13)
H16 H 0.4511 0.6485 0.6651
C21 C 0.4487(5) 0.5767(4) 0.72173(13)
H17 H 0.5095 0.6444 0.7333
C22 C 0.2695(4) 0.5005(3) 0.62188(11)
C23 C 0.1510(4) 0.4060(4) 0.56184(10)
H18 H 0.1919 0.4868 0.5483
C24 C 0.1923(6) 0.2837(4) 0.53573(12)
H19 H 0.1523 0.2031 0.5482
H20 H 0.3039 0.2770 0.5333
H21 H 0.1468 0.2942 0.5094
C25 C -0.0224(5) 0.4238(4) 0.56681(12)
C26 C -0.0997(6) 0.4008(5) 0.60217(14)
H22 H -0.0436 0.3722 0.6247
C27 C -0.2577(7) 0.4187(7) 0.6054(2)
H23 H -0.3085 0.4011 0.6297
C28 C -0.3405(7) 0.4629(6) 0.5722(2)
H24 H -0.4478 0.4766 0.5741
C29 C -0.2657(7) 0.4862(7) 0.5370(2)
H25 H -0.3215 0.5151 0.5144
C30 C -0.1083(6) 0.4675(5) 0.53455(16)
H26 H -0.0578 0.4850 0.5102
H28 H 0.247(4) 0.316(3) 0.6120(9)
loop_
_geom_bond_atom_site_label_1
_geom_bond_atom_site_label_2
_geom_bond_site_symmetry_1
_geom_bond_site_symmetry_2
O1 C7 1_555 1_555
O2 N2 1_555 1_555
O3 N2 1_555 1_555
N1 C7 1_555 1_555
N2 C1 1_555 1_555
C1 C2 1_555 1_555
C2 H1 1_555 1_555
C3 C2 1_555 1_555
H2 C3 1_555 1_555
C4 C3 1_555 1_555
C5 C4 1_555 1_555
H3 C5 1_555 1_555
C6 C1 1_555 1_555
H4 C6 1_555 1_555
C7 C4 1_555 1_555
C8 N1 1_555 1_555
H5 C8 1_555 1_555
C9 C8 1_555 1_555
H6 C9 1_555 1_555
H7 C9 1_555 1_555
H8 C9 1_555 1_555
C10 C8 1_555 1_555
C11 C10 1_555 1_555
H9 C11 1_555 1_555
C12 C11 1_555 1_555
H10 C12 1_555 1_555
C13 C12 1_555 1_555
H11 C13 1_555 1_555
C14 C13 1_555 1_555
H12 C14 1_555 1_555
C15 C10 1_555 1_555
H13 C15 1_555 1_555
O4 C22 1_555 1_555
O5 N4 1_555 1_555
O6 N4 1_555 1_555
N3 C22 1_555 1_555
N4 C16 1_555 1_555
C16 C17 1_555 1_555
C17 H14 1_555 1_555
C18 C17 1_555 1_555
H15 C18 1_555 1_555
C19 C18 1_555 1_555
C20 C19 1_555 1_555
H16 C20 1_555 1_555
C21 C16 1_555 1_555
H17 C21 1_555 1_555
C22 C19 1_555 1_555
C23 N3 1_555 1_555
H18 C23 1_555 1_555
C24 C23 1_555 1_555
H19 C24 1_555 1_555
H20 C24 1_555 1_555
H21 C24 1_555 1_555
C25 C23 1_555 1_555
C26 C25 1_555 1_555
H22 C26 1_555 1_555
C27 C26 1_555 1_555
H23 C27 1_555 1_555
C28 C27 1_555 1_555
H24 C28 1_555 1_555
C29 C28 1_555 1_555
H25 C29 1_555 1_555
C30 C25 1_555 1_555
H26 C30 1_555 1_555
H27 N1 1_555 1_555
H28 N3 1_555 1_555
C5 C6 1_555 1_555
C14 C15 1_555 1_555
C20 C21 1_555 1_555
C29 C30 1_555 1_555

#END
