
#######################################################################
#
#                 Cambridge Crystallographic Data Centre
#                                CCDC 
#
#######################################################################
#
# If this CIF has been generated from an entry in the Cambridge 
# Structural Database, then it will include bibliographic, chemical, 
# crystal, experimental, refinement or atomic coordinate data resulting 
# from the CCDC's data processing and validation procedures.
#
#######################################################################

data_ISADAI
_chemical_formula_moiety         'C16 H15 Br1 N2 O2'
_chemical_name_systematic        
N'-(5-Bromo-2-methoxybenzylidene)-3-methylbenzohydrazide
_symmetry_cell_setting           monoclinic
_symmetry_space_group_name_H-M   'P 21/c'
_symmetry_Int_Tables_number      14
_space_group_name_Hall           '-P 2ybc'
loop_
_symmetry_equiv_pos_site_id
_symmetry_equiv_pos_as_xyz
1 x,y,z
2 -x,1/2+y,1/2-z
3 -x,-y,-z
4 x,1/2-y,1/2+z
_cell_length_a                   13.839(3)
_cell_length_b                   11.322(2)
_cell_length_c                   9.7756(19)
_cell_angle_alpha                90
_cell_angle_beta                 94.347(3)
_cell_angle_gamma                90
_cell_volume                     1527.29
_exptl_crystal_colour            colorless
_exptl_crystal_description       block
_cell_formula_units_Z            4
loop_
_atom_site_label
_atom_site_type_symbol
_atom_site_fract_x
_atom_site_fract_y
_atom_site_fract_z
Br1 Br -0.13718(3) 0.44432(4) 0.10172(4)
N1 N 0.21709(16) 0.6209(2) 0.2958(2)
N2 N 0.29494(16) 0.6937(2) 0.3327(2)
O1 O 0.17109(16) 0.3675(2) 0.5601(2)
O2 O 0.30066(15) 0.7605(2) 0.1162(2)
C1 C 0.1077(2) 0.4758(3) 0.3705(3)
C2 C 0.0968(2) 0.3823(3) 0.4626(3)
C3 C 0.0149(2) 0.3117(3) 0.4483(3)
H1 H 0.0071 0.2506 0.5101
C4 C -0.0549(2) 0.3315(3) 0.3432(3)
H2 H -0.1101 0.2844 0.3344
C5 C -0.0428(2) 0.4212(3) 0.2509(3)
C6 C 0.0375(2) 0.4935(3) 0.2644(3)
H3 H 0.0445 0.5544 0.2019
C7 C 0.1913(2) 0.5549(3) 0.3914(3)
H4 H 0.2262 0.5568 0.4765
C8 C 0.3335(2) 0.7598(3) 0.2365(3)
C9 C 0.4215(2) 0.8292(3) 0.2823(3)
C10 C 0.4802(2) 0.8018(3) 0.3993(3)
H5 H 0.4619 0.7409 0.4557
C11 C 0.5654(2) 0.8625(3) 0.4349(4)
C12 C 0.5911(3) 0.9525(4) 0.3499(5)
H6 H 0.6483 0.9941 0.3711
C13 C 0.5337(3) 0.9815(4) 0.2348(5)
H7 H 0.5520 1.0429 0.1791
C14 C 0.4488(3) 0.9207(3) 0.2002(4)
H8 H 0.4102 0.9413 0.1218
C15 C 0.6285(3) 0.8279(4) 0.5614(4)
H9 H 0.6728 0.7671 0.5382
H10 H 0.5885 0.7990 0.6301
H11 H 0.6643 0.8955 0.5961
C16 C 0.1641(3) 0.2735(4) 0.6563(4)
H12 H 0.1087 0.2859 0.7078
H13 H 0.2217 0.2717 0.7177
H14 H 0.1574 0.1998 0.6080
H15 H 0.311(2) 0.707(3) 0.4213(13)
loop_
_geom_bond_atom_site_label_1
_geom_bond_atom_site_label_2
_geom_bond_site_symmetry_1
_geom_bond_site_symmetry_2
Br1 C5 1_555 1_555
N1 N2 1_555 1_555
N2 C8 1_555 1_555
O1 C2 1_555 1_555
O2 C8 1_555 1_555
C1 C2 1_555 1_555
C2 C3 1_555 1_555
C3 H1 1_555 1_555
C4 C3 1_555 1_555
H2 C4 1_555 1_555
C5 C4 1_555 1_555
C6 C1 1_555 1_555
H3 C6 1_555 1_555
C7 N1 1_555 1_555
H4 C7 1_555 1_555
C8 C9 1_555 1_555
C9 C10 1_555 1_555
C10 H5 1_555 1_555
C11 C10 1_555 1_555
C12 C11 1_555 1_555
H6 C12 1_555 1_555
C13 C12 1_555 1_555
H7 C13 1_555 1_555
C14 C9 1_555 1_555
H8 C14 1_555 1_555
C15 C11 1_555 1_555
H9 C15 1_555 1_555
H10 C15 1_555 1_555
H11 C15 1_555 1_555
C16 O1 1_555 1_555
H12 C16 1_555 1_555
H13 C16 1_555 1_555
H14 C16 1_555 1_555
H15 N2 1_555 1_555
C1 C7 1_555 1_555
C5 C6 1_555 1_555
C13 C14 1_555 1_555

#END
