
#######################################################################
#
#                 Cambridge Crystallographic Data Centre
#                                CCDC 
#
#######################################################################
#
# If this CIF has been generated from an entry in the Cambridge 
# Structural Database, then it will include bibliographic, chemical, 
# crystal, experimental, refinement or atomic coordinate data resulting 
# from the CCDC's data processing and validation procedures.
#
#######################################################################

data_ISAPOJ
_chemical_formula_moiety         'C22 H26 N2 Si2'
_chemical_name_systematic        
1-phenyl-N-(1,1,3,3-tetramethyl-1H-naphtho[1,8-cd][1,2,6]azadisilin-2(3H)-yl)ethanimine
_symmetry_cell_setting           orthorhombic
_symmetry_space_group_name_H-M   'P n m a'
_symmetry_Int_Tables_number      62
_space_group_name_Hall           '-P 2ac 2n'
loop_
_symmetry_equiv_pos_site_id
_symmetry_equiv_pos_as_xyz
1 x,y,z
2 1/2-x,-y,1/2+z
3 1/2+x,1/2-y,1/2-z
4 -x,1/2+y,-z
5 -x,-y,-z
6 1/2+x,y,1/2-z
7 1/2-x,1/2+y,1/2+z
8 x,1/2-y,z
_cell_length_a                   16.3924(14)
_cell_length_b                   12.7169(10)
_cell_length_c                   9.8472(8)
_cell_angle_alpha                90
_cell_angle_beta                 90
_cell_angle_gamma                90
_cell_volume                     2052.75
_cell_formula_units_Z            4
loop_
_atom_site_label
_atom_site_type_symbol
_atom_site_fract_x
_atom_site_fract_y
_atom_site_fract_z
C1 C 0.47402(18) 0.7500 0.0880(3)
C2 C 0.38315(17) 0.7500 0.0730(3)
C3 C 0.34737(17) 0.7500 -0.0551(3)
H1 H 0.3809 0.7500 -0.1338
C4 C 0.26357(19) 0.7500 -0.0688(3)
H2 H 0.2398 0.7500 -0.1568
C5 C 0.21405(18) 0.7500 0.0446(3)
H3 H 0.1564 0.7500 0.0349
C6 C 0.24850(19) 0.7500 0.1711(3)
H4 H 0.2146 0.7500 0.2494
C7 C 0.33232(19) 0.7500 0.1856(3)
H5 H 0.3555 0.7500 0.2740
C8 C 0.75976(13) 0.65066(15) -0.04898(18)
C9 C 0.80571(15) 0.56015(19) -0.0516(2)
H6 H 0.7784 0.4943 -0.0483
C10 C 0.89116(16) 0.5609(2) -0.0588(2)
H7 H 0.9207 0.4967 -0.0604
C11 C 0.93104(15) 0.6534(2) -0.0634(2)
H8 H 0.9889 0.6536 -0.0688
C12 C 0.88882(18) 0.7500 -0.0603(3)
C13 C 0.80171(17) 0.7500 -0.0530(2)
C14 C 0.61200(14) 0.57583(19) -0.2116(2)
H9 H 0.5528 0.5651 -0.2092
H10 H 0.6392 0.5085 -0.2289
H11 H 0.6257 0.6256 -0.2842
C15 C 0.62007(16) 0.53363(19) 0.0891(3)
H12 H 0.6439 0.5563 0.1755
H13 H 0.6415 0.4642 0.0649
H14 H 0.5606 0.5297 0.0981
C16 C 0.5089(2) 0.7500 0.2287(3)
N1 N 0.51477(14) 0.7500 -0.0230(2)
N2 N 0.60309(13) 0.7500 -0.0094(2)
Si1 Si 0.64682(3) 0.62952(4) -0.04561(5)
C8G C 0.75976(13) 0.84934(15) -0.04898(18)
C9G C 0.80571(15) 0.93985(19) -0.0516(2)
H6G H 0.7784 1.0057 -0.0483
C10G C 0.89116(16) 0.9391(2) -0.0588(2)
H7G H 0.9207 1.0033 -0.0604
C11G C 0.93104(15) 0.8466(2) -0.0634(2)
H8G H 0.9889 0.8464 -0.0688
C14G C 0.61200(14) 0.92417(19) -0.2116(2)
H9G H 0.5528 0.9349 -0.2092
H10G H 0.6392 0.9915 -0.2289
H11G H 0.6257 0.8744 -0.2842
C15G C 0.62007(16) 0.96637(19) 0.0891(3)
H12G H 0.6439 0.9437 0.1755
H13G H 0.6415 1.0358 0.0649
H14G H 0.5606 0.9703 0.0981
Si1G Si 0.64682(3) 0.87048(4) -0.04561(5)
H15? H 0.4824 0.6951 0.2828
H16? H 0.4995 0.8187 0.2710
H17? H 0.5677 0.7362 0.2242
loop_
_geom_bond_atom_site_label_1
_geom_bond_atom_site_label_2
_geom_bond_site_symmetry_1
_geom_bond_site_symmetry_2
C1 C2 1_555 1_555
C2 C3 1_555 1_555
C3 H1 1_555 1_555
C4 C3 1_555 1_555
H2 C4 1_555 1_555
C5 C4 1_555 1_555
H3 C5 1_555 1_555
C6 C5 1_555 1_555
H4 C6 1_555 1_555
C7 C2 1_555 1_555
H5 C7 1_555 1_555
C8 C9 1_555 1_555
C9 H6 1_555 1_555
C10 C9 1_555 1_555
H7 C10 1_555 1_555
C11 C10 1_555 1_555
H8 C11 1_555 1_555
C12 C11 1_555 1_555
C13 C8 1_555 1_555
C14 H9 1_555 1_555
H10 C14 1_555 1_555
H11 C14 1_555 1_555
C15 H12 1_555 1_555
H13 C15 1_555 1_555
H14 C15 1_555 1_555
C16 C1 1_555 1_555
N1 C1 1_555 1_555
N2 N1 1_555 1_555
Si1 C8 1_555 1_555
C8G C13 1_555 1_555
C9G C8G 1_555 1_555
H6G C9G 1_555 1_555
C10G C9G 1_555 1_555
H7G C10G 1_555 1_555
C11G C12 1_555 1_555
H8G C11G 1_555 1_555
C14G H9G 1_555 1_555
H10G C14G 1_555 1_555
H11G C14G 1_555 1_555
C15G H12G 1_555 1_555
H13G C15G 1_555 1_555
H14G C15G 1_555 1_555
Si1G N2 1_555 1_555
C6 C7 1_555 1_555
C12 C13 1_555 1_555
C14 Si1 1_555 1_555
C15 Si1 1_555 1_555
N2 Si1 1_555 1_555
C8G Si1G 1_555 1_555
C10G C11G 1_555 1_555
C14G Si1G 1_555 1_555
C15G Si1G 1_555 1_555

#END
