
#######################################################################
#
#                 Cambridge Crystallographic Data Centre
#                                CCDC 
#
#######################################################################
#
# If this CIF has been generated from an entry in the Cambridge 
# Structural Database, then it will include bibliographic, chemical, 
# crystal, experimental, refinement or atomic coordinate data resulting 
# from the CCDC's data processing and validation procedures.
#
#######################################################################

data_ISAYEH
_chemical_formula_moiety         'C9 H11 O4 P1'
_chemical_name_systematic        '3-(Hydroxy(phenyl)phosphoryl)propanoic acid'
_symmetry_cell_setting           orthorhombic
_symmetry_space_group_name_H-M   'P 21 21 21'
_symmetry_Int_Tables_number      19
_space_group_name_Hall           'P 2ac 2ab'
loop_
_symmetry_equiv_pos_site_id
_symmetry_equiv_pos_as_xyz
1 x,y,z
2 1/2-x,-y,1/2+z
3 -x,1/2+y,1/2-z
4 1/2+x,1/2-y,-z
_cell_length_a                   5.49480(10)
_cell_length_b                   8.68300(10)
_cell_length_c                   21.3724(4)
_cell_angle_alpha                90
_cell_angle_beta                 90
_cell_angle_gamma                90
_cell_volume                     1019.71
_exptl_crystal_colour            colorless
_exptl_crystal_description       block
_cell_formula_units_Z            4
loop_
_atom_site_label
_atom_site_type_symbol
_atom_site_fract_x
_atom_site_fract_y
_atom_site_fract_z
P1 P 0.32891(10) 0.68214(5) 0.41950(2)
C1 C 0.2968(4) 0.6999(2) 0.33649(9)
C2 C 0.4618(5) 0.6304(3) 0.29583(9)
H1 H 0.5972 0.5793 0.3117
C3 C 0.4240(6) 0.6374(3) 0.23175(11)
H2 H 0.5309 0.5884 0.2045
C4 C 0.2270(6) 0.7173(4) 0.20876(12)
H3 H 0.2027 0.7227 0.1657
C5 C 0.0661(6) 0.7893(4) 0.24807(12)
H4 H -0.0642 0.8447 0.2318
C6 C 0.0988(5) 0.7790(3) 0.31248(11)
H5 H -0.0123 0.8252 0.3394
C7 C 0.2012(4) 0.5020(2) 0.44335(10)
H6 H 0.2125 0.4936 0.4885
H7 H 0.0301 0.5002 0.4322
C8 C 0.3268(5) 0.3637(2) 0.41376(10)
H8 H 0.3263 0.3759 0.3686
H9 H 0.4951 0.3611 0.4274
C9 C 0.2073(5) 0.2134(2) 0.43020(9)
O1 O 0.6099(3) 0.67442(18) 0.42966(6)
H10 H 0.644(5) 0.679(3) 0.4666(5)
O2 O 0.2054(3) 0.81281(14) 0.45275(6)
O3 O 0.0050(3) 0.20158(19) 0.45074(8)
O4 O 0.3510(4) 0.09573(15) 0.41730(8)
H11 H 0.285(5) 0.020(2) 0.4328(12)
loop_
_geom_bond_atom_site_label_1
_geom_bond_atom_site_label_2
_geom_bond_site_symmetry_1
_geom_bond_site_symmetry_2
P1 C1 1_555 1_555
C1 C2 1_555 1_555
C2 H1 1_555 1_555
C3 C2 1_555 1_555
H2 C3 1_555 1_555
C4 C3 1_555 1_555
H3 C4 1_555 1_555
C5 C4 1_555 1_555
H4 C5 1_555 1_555
C6 C1 1_555 1_555
H5 C6 1_555 1_555
C7 P1 1_555 1_555
H6 C7 1_555 1_555
H7 C7 1_555 1_555
C8 C7 1_555 1_555
H8 C8 1_555 1_555
H9 C8 1_555 1_555
C9 C8 1_555 1_555
O1 P1 1_555 1_555
H10 O1 1_555 1_555
O2 P1 1_555 1_555
O3 C9 1_555 1_555
O4 C9 1_555 1_555
H11 O4 1_555 1_555
C5 C6 1_555 1_555

#END
