
#######################################################################
#
#                 Cambridge Crystallographic Data Centre
#                                CCDC 
#
#######################################################################
#
# If this CIF has been generated from an entry in the Cambridge 
# Structural Database, then it will include bibliographic, chemical, 
# crystal, experimental, refinement or atomic coordinate data resulting 
# from the CCDC's data processing and validation procedures.
#
#######################################################################

data_ISAZAF
_chemical_formula_moiety         'C82 H72 N4,C4 H8 O1'
_chemical_name_systematic        
'23,24,28,29-tetraphenyl-5,15-bis(3,5-di-t-butylphenyl)-di-peri-dinaphthoporphyrin tetrahydrofuran solvate'
_symmetry_cell_setting           monoclinic
_symmetry_space_group_name_H-M   'C 2/c'
_symmetry_Int_Tables_number      15
_space_group_name_Hall           '-C 2yn'
loop_
_symmetry_equiv_pos_site_id
_symmetry_equiv_pos_as_xyz
1 x,y,z
2 -x,y,1/2-z
3 1/2+x,1/2+y,z
4 1/2-x,1/2+y,1/2-z
5 -x,-y,-z
6 x,-y,1/2+z
7 1/2-x,1/2-y,-z
8 1/2+x,1/2-y,1/2+z
_cell_length_a                   25.625(7)
_cell_length_b                   18.524(5)
_cell_length_c                   14.530(4)
_cell_angle_alpha                90
_cell_angle_beta                 111.845(7)
_cell_angle_gamma                90
_cell_volume                     6401.81
_exptl_crystal_colour            purple
_exptl_crystal_description       Prism
_cell_formula_units_Z            4
_exptl_crystal_recrystallization_method tetrahydrofuran/methanol
loop_
_atom_site_label
_atom_site_type_symbol
_atom_site_fract_x
_atom_site_fract_y
_atom_site_fract_z
C1 C -0.02145(8) 0.13881(11) 0.08403(15)
C2 C -0.01602(9) 0.21692(12) 0.08535(15)
C3 C 0.01805(9) 0.23132(12) 0.03342(16)
H1 H 0.0303 0.2776 0.0216
C4 C 0.03152(9) 0.16335(11) 0.00044(15)
C5 C 0.06364(9) 0.15481(11) -0.05800(15)
C6 C 0.06961(9) 0.08846(11) -0.10245(15)
C7 C 0.10078(9) 0.07483(12) -0.16209(15)
H2 H 0.1216 0.1093 -0.1829
C8 C 0.09567(9) 0.00087(12) -0.18548(15)
C9 C 0.06219(8) -0.02937(12) -0.13608(15)
C10 C 0.05320(8) -0.10460(12) -0.13389(15)
C11 C -0.04649(9) 0.26119(12) 0.13008(16)
C12 C 0.11847(9) -0.04432(13) -0.24094(15)
C13 C 0.11036(9) -0.11790(13) -0.23658(16)
H3 H 0.1260 -0.1490 -0.2716
C14 C 0.07998(9) -0.14930(12) -0.18256(16)
C15 C 0.07615(9) -0.22643(13) -0.17755(17)
H4 H 0.0954 -0.2549 -0.2092
C16 C -0.04717(11) 0.34175(13) 0.12192(16)
C17 C -0.09635(11) 0.37923(14) 0.10664(19)
H5 H -0.1293 0.3535 0.1017
C18 C -0.09826(14) 0.45403(16) 0.0984(2)
H6 H -0.1322 0.4789 0.0892
C19 C -0.05157(14) 0.49191(15) 0.1034(2)
H7 H -0.0531 0.5429 0.0960
C20 C -0.00176(13) 0.45502(13) 0.11935(19)
H8 H 0.0311 0.4810 0.1240
C21 C 0.00029(11) 0.38055(13) 0.12855(17)
H9 H 0.0346 0.3559 0.1395
C22 C 0.14847(9) -0.01404(14) -0.30154(16)
C23 C 0.13087(9) 0.05020(15) -0.35426(16)
H10 H 0.0994 0.0751 -0.3501
C24 C 0.15824(11) 0.07853(17) -0.41259(18)
H11 H 0.1460 0.1227 -0.4471
C25 C 0.20319(12) 0.0421(2) -0.4199(2)
H12 H 0.2218 0.0606 -0.4606
C26 C 0.22129(13) -0.0212(2) -0.3684(2)
H13 H 0.2526 -0.0460 -0.3733
C27 C 0.19441(11) -0.04925(17) -0.3094(2)
H14 H 0.2075 -0.0929 -0.2740
C28 C 0.09439(9) 0.21903(12) -0.07331(15)
C29 C 0.13208(9) 0.25462(12) 0.00913(16)
H15 H 0.1377 0.2370 0.0735
C30 C 0.16184(9) 0.31548(12) -0.00039(16)
C31 C 0.15300(9) 0.33955(13) -0.09579(16)
H16 H 0.1730 0.3809 -0.1035
C32 C 0.11593(9) 0.30537(12) -0.18060(16)
C33 C 0.08671(9) 0.24505(12) -0.16778(16)
H17 H 0.0611 0.2212 -0.2244
C34 C 0.20169(10) 0.35366(14) 0.09395(17)
C35 C 0.23246(13) 0.41777(16) 0.0713(2)
H18 H 0.2576 0.4394 0.1335
H19 H 0.2050 0.4538 0.0329
H20 H 0.2545 0.4012 0.0328
C36 C 0.24648(13) 0.30111(17) 0.1552(2)
H21 H 0.2286 0.2603 0.1749
H22 H 0.2721 0.3256 0.2146
H23 H 0.2676 0.2835 0.1158
C37 C 0.16766(12) 0.38135(17) 0.1536(2)
H24 H 0.1493 0.3406 0.1724
H25 H 0.1390 0.4154 0.1131
H26 H 0.1928 0.4058 0.2135
C38 C 0.10547(10) 0.33183(13) -0.28637(17)
C39 C 0.14405(13) 0.39446(18) -0.2880(2)
H27 H 0.1360 0.4090 -0.3567
H28 H 0.1834 0.3791 -0.2573
H29 H 0.1374 0.4354 -0.2509
C40 C 0.04464(10) 0.35742(13) -0.33331(17)
H30 H 0.0382 0.3966 -0.2934
H31 H 0.0193 0.3172 -0.3361
H32 H 0.0373 0.3750 -0.4006
C41 C 0.11592(11) 0.26954(16) -0.34694(18)
H33 H 0.0903 0.2296 -0.3497
H34 H 0.1549 0.2529 -0.3155
H35 H 0.1093 0.2863 -0.4144
N1 N 0.00601(7) 0.10688(9) 0.03200(12)
N2 N 0.04571(7) 0.02412(9) -0.08913(12)
H36 H 0.0235 0.0188 -0.0557
C1D C 0.02145(8) -0.13881(11) -0.08403(15)
C2D C 0.01602(9) -0.21692(12) -0.08535(15)
C3D C -0.01805(9) -0.23132(12) -0.03342(16)
H1D H -0.0303 -0.2776 -0.0216
C4D C -0.03152(9) -0.16335(11) -0.00044(15)
C5D C -0.06364(9) -0.15481(11) 0.05800(15)
C6D C -0.06961(9) -0.08846(11) 0.10245(15)
C7D C -0.10078(9) -0.07483(12) 0.16209(15)
H2D H -0.1216 -0.1093 0.1829
C8D C -0.09567(9) -0.00087(12) 0.18548(15)
C9D C -0.06219(8) 0.02937(12) 0.13608(15)
C10D C -0.05320(8) 0.10460(12) 0.13389(15)
C11D C 0.04649(9) -0.26119(12) -0.13008(16)
C12D C -0.11847(9) 0.04432(13) 0.24094(15)
C13D C -0.11036(9) 0.11790(13) 0.23658(16)
H3D H -0.1260 0.1490 0.2716
C14D C -0.07998(9) 0.14930(12) 0.18256(16)
C15D C -0.07615(9) 0.22643(13) 0.17755(17)
H4D H -0.0954 0.2549 0.2092
C16D C 0.04717(11) -0.34175(13) -0.12192(16)
C17D C 0.09635(11) -0.37923(14) -0.10664(19)
H5D H 0.1293 -0.3535 -0.1017
C18D C 0.09826(14) -0.45403(16) -0.0984(2)
H6D H 0.1322 -0.4789 -0.0892
C19D C 0.05157(14) -0.49191(15) -0.1034(2)
H7D H 0.0531 -0.5429 -0.0960
C20D C 0.00176(13) -0.45502(13) -0.11935(19)
H8D H -0.0311 -0.4810 -0.1240
C21D C -0.00029(11) -0.38055(13) -0.12855(17)
H9D H -0.0346 -0.3559 -0.1395
C22D C -0.14847(9) 0.01404(14) 0.30154(16)
C23D C -0.13087(9) -0.05020(15) 0.35426(16)
H10D H -0.0994 -0.0751 0.3501
C24D C -0.15824(11) -0.07853(17) 0.41259(18)
H11D H -0.1460 -0.1227 0.4471
C25D C -0.20319(12) -0.0421(2) 0.4199(2)
H12D H -0.2218 -0.0606 0.4606
C26D C -0.22129(13) 0.0212(2) 0.3684(2)
H13D H -0.2526 0.0460 0.3733
C27D C -0.19441(11) 0.04925(17) 0.3094(2)
H14D H -0.2075 0.0929 0.2740
C28D C -0.09439(9) -0.21903(12) 0.07331(15)
C29D C -0.13208(9) -0.25462(12) -0.00913(16)
H15D H -0.1377 -0.2370 -0.0735
C30D C -0.16184(9) -0.31548(12) 0.00039(16)
C31D C -0.15300(9) -0.33955(13) 0.09579(16)
H16D H -0.1730 -0.3809 0.1035
C32D C -0.11593(9) -0.30537(12) 0.18060(16)
C33D C -0.08671(9) -0.24505(12) 0.16778(16)
H17D H -0.0611 -0.2212 0.2244
C34D C -0.20169(10) -0.35366(14) -0.09395(17)
C35D C -0.23246(13) -0.41777(16) -0.0713(2)
H18D H -0.2576 -0.4394 -0.1335
H19D H -0.2050 -0.4538 -0.0329
H20D H -0.2545 -0.4012 -0.0328
C36D C -0.24648(13) -0.30111(17) -0.1552(2)
H21D H -0.2286 -0.2603 -0.1749
H22D H -0.2721 -0.3256 -0.2146
H23D H -0.2676 -0.2835 -0.1158
C37D C -0.16766(12) -0.38135(17) -0.1536(2)
H24D H -0.1493 -0.3406 -0.1724
H25D H -0.1390 -0.4154 -0.1131
H26D H -0.1928 -0.4058 -0.2135
C38D C -0.10547(10) -0.33183(13) 0.28637(17)
C39D C -0.14405(13) -0.39446(18) 0.2880(2)
H27D H -0.1360 -0.4090 0.3567
H28D H -0.1834 -0.3791 0.2573
H29D H -0.1374 -0.4354 0.2509
C40D C -0.04464(10) -0.35742(13) 0.33331(17)
H30D H -0.0382 -0.3966 0.2934
H31D H -0.0193 -0.3172 0.3361
H32D H -0.0373 -0.3750 0.4006
C41D C -0.11592(11) -0.26954(16) 0.34694(18)
H33D H -0.0903 -0.2296 0.3497
H34D H -0.1549 -0.2529 0.3155
H35D H -0.1093 -0.2863 0.4144
N1D N -0.00601(7) -0.10688(9) -0.03200(12)
N2D N -0.04571(7) -0.02412(9) 0.08913(12)
H36D H -0.0235 -0.0188 0.0557
O1? O 0.2654(4) 0.2342(5) 0.5951(6)
C42? C 0.2484(5) 0.3127(6) 0.5628(7)
C43? C 0.2506(8) 0.1910(9) 0.4922(13)
C44? C 0.2636(7) 0.2607(9) 0.4504(14)
C45? C 0.2192(4) 0.3176(7) 0.4495(7)
loop_
_geom_bond_atom_site_label_1
_geom_bond_atom_site_label_2
_geom_bond_site_symmetry_1
_geom_bond_site_symmetry_2
C1 C2 1_555 1_555
C2 C3 1_555 1_555
C3 H1 1_555 1_555
C4 C3 1_555 1_555
C5 C4 1_555 1_555
C6 C5 1_555 1_555
C7 C6 1_555 1_555
H2 C7 1_555 1_555
C8 C7 1_555 1_555
C9 C8 1_555 1_555
C10 C9 1_555 1_555
C11 C2 1_555 1_555
C12 C8 1_555 1_555
C13 C12 1_555 1_555
H3 C13 1_555 1_555
C14 C10 1_555 1_555
C15 C14 1_555 1_555
H4 C15 1_555 1_555
C16 C11 1_555 1_555
C17 C16 1_555 1_555
H5 C17 1_555 1_555
C18 C17 1_555 1_555
H6 C18 1_555 1_555
C19 C18 1_555 1_555
H7 C19 1_555 1_555
C20 C19 1_555 1_555
H8 C20 1_555 1_555
C21 C16 1_555 1_555
H9 C21 1_555 1_555
C22 C12 1_555 1_555
C23 C22 1_555 1_555
H10 C23 1_555 1_555
C24 C23 1_555 1_555
H11 C24 1_555 1_555
C25 C24 1_555 1_555
H12 C25 1_555 1_555
C26 C25 1_555 1_555
H13 C26 1_555 1_555
C27 C22 1_555 1_555
H14 C27 1_555 1_555
C28 C5 1_555 1_555
C29 C28 1_555 1_555
H15 C29 1_555 1_555
C30 C29 1_555 1_555
C31 C30 1_555 1_555
H16 C31 1_555 1_555
C32 C31 1_555 1_555
C33 C28 1_555 1_555
H17 C33 1_555 1_555
C34 C30 1_555 1_555
C35 C34 1_555 1_555
H18 C35 1_555 1_555
H19 C35 1_555 1_555
H20 C35 1_555 1_555
C36 C34 1_555 1_555
H21 C36 1_555 1_555
H22 C36 1_555 1_555
H23 C36 1_555 1_555
C37 C34 1_555 1_555
H24 C37 1_555 1_555
H25 C37 1_555 1_555
H26 C37 1_555 1_555
C38 C32 1_555 1_555
C39 C38 1_555 1_555
H27 C39 1_555 1_555
H28 C39 1_555 1_555
H29 C39 1_555 1_555
C40 C38 1_555 1_555
H30 C40 1_555 1_555
H31 C40 1_555 1_555
H32 C40 1_555 1_555
C41 C38 1_555 1_555
H33 C41 1_555 1_555
H34 C41 1_555 1_555
H35 C41 1_555 1_555
N1 C1 1_555 1_555
N2 C6 1_555 1_555
H36 N2 1_555 1_555
C1D C10 1_555 1_555
C2D C1D 1_555 1_555
C3D C2D 1_555 1_555
H1D C3D 1_555 1_555
C4D C3D 1_555 1_555
C5D C4D 1_555 1_555
C6D C5D 1_555 1_555
C7D C6D 1_555 1_555
H2D C7D 1_555 1_555
C8D C7D 1_555 1_555
C9D C8D 1_555 1_555
C10D C1 1_555 1_555
C11D C15 1_555 1_555
C12D C8D 1_555 1_555
C13D C12D 1_555 1_555
H3D C13D 1_555 1_555
C14D C10D 1_555 1_555
C15D C11 1_555 1_555
H4D C15D 1_555 1_555
C16D C11D 1_555 1_555
C17D C16D 1_555 1_555
H5D C17D 1_555 1_555
C18D C17D 1_555 1_555
H6D C18D 1_555 1_555
C19D C18D 1_555 1_555
H7D C19D 1_555 1_555
C20D C19D 1_555 1_555
H8D C20D 1_555 1_555
C21D C16D 1_555 1_555
H9D C21D 1_555 1_555
C22D C12D 1_555 1_555
C23D C22D 1_555 1_555
H10D C23D 1_555 1_555
C24D C23D 1_555 1_555
H11D C24D 1_555 1_555
C25D C24D 1_555 1_555
H12D C25D 1_555 1_555
C26D C25D 1_555 1_555
H13D C26D 1_555 1_555
C27D C22D 1_555 1_555
H14D C27D 1_555 1_555
C28D C5D 1_555 1_555
C29D C28D 1_555 1_555
H15D C29D 1_555 1_555
C30D C29D 1_555 1_555
C31D C30D 1_555 1_555
H16D C31D 1_555 1_555
C32D C31D 1_555 1_555
C33D C28D 1_555 1_555
H17D C33D 1_555 1_555
C34D C30D 1_555 1_555
C35D C34D 1_555 1_555
H18D C35D 1_555 1_555
H19D C35D 1_555 1_555
H20D C35D 1_555 1_555
C36D C34D 1_555 1_555
H21D C36D 1_555 1_555
H22D C36D 1_555 1_555
H23D C36D 1_555 1_555
C37D C34D 1_555 1_555
H24D C37D 1_555 1_555
H25D C37D 1_555 1_555
H26D C37D 1_555 1_555
C38D C32D 1_555 1_555
C39D C38D 1_555 1_555
H27D C39D 1_555 1_555
H28D C39D 1_555 1_555
H29D C39D 1_555 1_555
C40D C38D 1_555 1_555
H30D C40D 1_555 1_555
H31D C40D 1_555 1_555
H32D C40D 1_555 1_555
C41D C38D 1_555 1_555
H33D C41D 1_555 1_555
H34D C41D 1_555 1_555
H35D C41D 1_555 1_555
N1D C1D 1_555 1_555
N2D C6D 1_555 1_555
H36D N2D 1_555 1_555
C4 N1 1_555 1_555
C9 N2 1_555 1_555
C13 C14 1_555 1_555
C20 C21 1_555 1_555
C26 C27 1_555 1_555
C32 C33 1_555 1_555
C2D C11D 1_555 1_555
C4D N1D 1_555 1_555
C9D C10D 1_555 1_555
C9D N2D 1_555 1_555
C13D C14D 1_555 1_555
C14D C15D 1_555 1_555
C20D C21D 1_555 1_555
C26D C27D 1_555 1_555
C32D C33D 1_555 1_555

#END
