
#######################################################################
#
#                 Cambridge Crystallographic Data Centre
#                                CCDC 
#
#######################################################################
#
# If this CIF has been generated from an entry in the Cambridge 
# Structural Database, then it will include bibliographic, chemical, 
# crystal, experimental, refinement or atomic coordinate data resulting 
# from the CCDC's data processing and validation procedures.
#
#######################################################################

data_ISECEQ
_chemical_name_common            
21,21,22,22-tetrabromo-10,20-dimesityl-5,15-porphodimethene
_chemical_formula_moiety         'C40 H32 Br4 N4,1.5(C1 H1 Cl3)'
_chemical_name_systematic        
'5,15-bis(dibromomethylene)-10,20-dimesityl-5,15-dihydroporphyrin chloroform solvate'
_symmetry_cell_setting           triclinic
_symmetry_space_group_name_H-M   'P -1'
_symmetry_Int_Tables_number      2
_space_group_name_Hall           '-P 1'
loop_
_symmetry_equiv_pos_site_id
_symmetry_equiv_pos_as_xyz
1 x,y,z
2 -x,-y,-z
_cell_length_a                   15.2434(10)
_cell_length_b                   16.2125(2)
_cell_length_c                   19.7020(17)
_cell_angle_alpha                70.105(10)
_cell_angle_beta                 88.279(15)
_cell_angle_gamma                68.160(9)
_cell_volume                     4223.73
_exptl_crystal_colour            brown
_exptl_crystal_description       Prism
_cell_formula_units_Z            4
loop_
_atom_site_label
_atom_site_type_symbol
_atom_site_fract_x
_atom_site_fract_y
_atom_site_fract_z
C1 C 0.0749(3) 0.1066(2) 0.66713(19)
C2 C 0.0245(3) 0.0770(3) 0.6264(2)
H1 H -0.0251 0.1176 0.5880
C3 C 0.0601(3) -0.0192(3) 0.6521(2)
H2 H 0.0400 -0.0592 0.6362
C4 C 0.1354(3) -0.0486(2) 0.70919(19)
C5 C 0.2018(3) -0.1479(2) 0.74880(19)
C6 C 0.3039(3) -0.1686(2) 0.74963(19)
C7 C 0.3784(3) -0.2420(3) 0.7364(2)
H3 H 0.3734 -0.2928 0.7254
C8 C 0.4604(3) -0.2266(3) 0.7425(2)
H4 H 0.5221 -0.2651 0.7359
Br1 Br 0.03747(3) -0.18852(3) 0.78966(2)
Br2 Br 0.24393(3) -0.34371(3) 0.83163(2)
Br3 Br 0.37677(3) 0.09412(3) 0.99621(2)
Br4 Br 0.17197(2) 0.25221(2) 0.93339(2)
N1 N 0.1445(2) 0.02515(19) 0.71826(15)
N2 N 0.3413(2) -0.11116(19) 0.76320(15)
H5 H 0.3086 -0.0595 0.7727
N3 N 0.3796(2) 0.01479(18) 0.81420(15)
N4 N 0.1827(2) 0.15713(18) 0.75909(14)
H6 H 0.2025 0.0951 0.7717
C9 C 0.4379(3) -0.1454(2) 0.76000(19)
C10 C 0.4995(3) -0.1040(2) 0.77481(18)
C11 C 0.4730(2) -0.0303(2) 0.80101(18)
C12 C 0.5322(3) 0.0125(2) 0.81929(18)
H7 H 0.5984 -0.0043 0.8152
C13 C 0.4754(2) 0.0811(2) 0.84346(19)
H8 H 0.4938 0.1215 0.8601
C14 C 0.3816(2) 0.0807(2) 0.83883(17)
C15 C 0.2930(2) 0.1496(2) 0.85219(17)
C16 C 0.2160(2) 0.2026(2) 0.79196(17)
C17 C 0.1676(3) 0.3002(2) 0.75647(18)
H9 H 0.1766 0.3491 0.7678
C18 C 0.1038(3) 0.3126(2) 0.70145(19)
H10 H 0.0612 0.3718 0.6685
C19 C 0.1135(2) 0.2225(2) 0.70315(17)
C20 C 0.0626(3) 0.1983(2) 0.65854(18)
C21 C 0.1676(3) -0.2148(2) 0.7819(2)
C22 C 0.2832(2) 0.1642(2) 0.91547(18)
C23 C 0.5992(3) -0.1450(2) 0.7575(2)
C24 C 0.6701(3) -0.2209(2) 0.8101(2)
C25 C 0.7606(3) -0.2588(2) 0.7894(2)
H11 H 0.8088 -0.3112 0.8243
C26 C 0.7820(3) -0.2219(3) 0.7193(2)
C27 C 0.7101(3) -0.1472(3) 0.6685(2)
H12 H 0.7240 -0.1223 0.6202
C28 C 0.6188(3) -0.1074(3) 0.6857(2)
C29 C 0.6497(3) -0.2627(3) 0.8864(2)
H13 H 0.7056 -0.3188 0.9136
H14 H 0.5955 -0.2811 0.8855
H15 H 0.6346 -0.2154 0.9099
C30 C 0.8796(3) -0.2623(3) 0.6968(3)
H16 H 0.8797 -0.3036 0.6704
H17 H 0.9261 -0.2991 0.7401
H18 H 0.8967 -0.2102 0.6654
C31 C 0.5428(3) -0.0271(3) 0.6273(2)
H19 H 0.5684 -0.0165 0.5803
H20 H 0.5232 0.0310 0.6388
H21 H 0.4879 -0.0440 0.6250
C32 C -0.0076(3) 0.2813(2) 0.59919(19)
C33 C -0.1042(3) 0.3180(3) 0.60721(19)
C34 C -0.1640(3) 0.4043(3) 0.55442(19)
H22 H -0.2294 0.4304 0.5607
C35 C -0.1310(3) 0.4519(3) 0.4944(2)
C36 C -0.0364(3) 0.4123(3) 0.4850(2)
H23 H -0.0130 0.4436 0.4429
C37 C 0.0258(3) 0.3274(3) 0.53574(19)
C38 C -0.1458(3) 0.2694(3) 0.6707(2)
H24 H -0.1013 0.2428 0.7147
H25 H -0.1574 0.2180 0.6620
H26 H -0.2060 0.3154 0.6770
C39 C -0.1975(3) 0.5446(3) 0.4392(2)
H27 H -0.2593 0.5654 0.4576
H28 H -0.2056 0.5355 0.3935
H29 H -0.1705 0.5931 0.4307
C40 C 0.1260(3) 0.2847(3) 0.5197(2)
H30 H 0.1322 0.2336 0.5018
H31 H 0.1695 0.2588 0.5642
H32 H 0.1419 0.3337 0.4827
C41 C 0.5041(3) -0.3313(2) 0.30131(19)
C42 C 0.4580(3) -0.2696(2) 0.33642(18)
C43 C 0.1357(2) 0.0349(2) 0.12271(18)
C44 C 0.5858(3) -0.4210(2) 0.1054(2)
C45 C 0.1156(2) -0.3964(2) 0.13635(19)
C46 C 0.0835(2) -0.3895(2) 0.06794(18)
C47 C 0.0222(2) -0.4347(2) 0.0643(2)
H33 H -0.0007 -0.4297 0.0182
C48 C -0.0059(2) -0.4868(2) 0.1266(2)
C49 C 0.0261(3) -0.4909(2) 0.1934(2)
H34 H 0.0052 -0.5240 0.2361
C50 C 0.0877(2) -0.4482(2) 0.19970(19)
C51 C 0.1158(3) -0.3380(3) -0.0007(2)
H35 H 0.1245 -0.2833 0.0043
H36 H 0.0678 -0.3159 -0.0417
H37 H 0.1763 -0.3812 -0.0094
C52 C -0.0681(3) -0.5382(3) 0.1219(2)
H38 H -0.1108 -0.5031 0.0766
H39 H -0.1057 -0.5431 0.1633
H40 H -0.0283 -0.6021 0.1229
C53 C 0.1244(3) -0.4576(3) 0.2732(2)
H41 H 0.1937 -0.4773 0.2764
H42 H 0.1078 -0.5053 0.3111
H43 H 0.0956 -0.3962 0.2798
C54 C 0.5007(3) -0.2871(3) 0.41040(19)
C55 C 0.5711(3) -0.2524(3) 0.4166(2)
C56 C 0.6090(3) -0.2693(3) 0.4861(2)
H44 H 0.6549 -0.2443 0.4907
C57 C 0.5817(3) -0.3210(3) 0.5480(2)
C58 C 0.5136(3) -0.3570(3) 0.5408(2)
H45 H 0.4953 -0.3939 0.5831
C59 C 0.4715(3) -0.3396(3) 0.4718(2)
C60 C 0.6095(3) -0.2025(3) 0.3510(2)
H46 H 0.6458 -0.1710 0.3650
H47 H 0.5566 -0.1551 0.3143
H48 H 0.6511 -0.2490 0.3309
C61 C 0.6261(4) -0.3397(4) 0.6227(2)
H49 H 0.6955 -0.3670 0.6247
H50 H 0.6051 -0.3844 0.6599
H51 H 0.6062 -0.2798 0.6317
C62 C 0.3965(4) -0.3776(4) 0.4657(3)
H52 H 0.3353 -0.3244 0.4459
H53 H 0.3908 -0.4186 0.5139
H54 H 0.4146 -0.4143 0.4334
Br5 Br 0.17479(3) 0.12599(2) 0.13731(2)
Br6 Br 0.04949(3) 0.08319(2) 0.03899(2)
Br7 Br 0.58140(3) -0.45705(3) 0.02468(2)
Br8 Br 0.68726(3) -0.38294(3) 0.10999(2)
N5 N 0.3200(2) -0.17049(18) 0.24314(15)
H55 H 0.3379 -0.2035 0.2142
N6 N 0.1994(2) -0.20986(18) 0.15311(14)
N7 N 0.3496(2) -0.37092(19) 0.14874(15)
H56 H 0.3400 -0.3161 0.1532
N8 N 0.4705(2) -0.3233(2) 0.23270(15)
C63 C 0.3701(2) -0.1911(2) 0.30814(18)
C64 C 0.3166(3) -0.1219(3) 0.33674(19)
H57 H 0.3327 -0.1181 0.3815
C65 C 0.2366(3) -0.0605(2) 0.28883(19)
H58 H 0.1882 -0.0064 0.2943
C66 C 0.2393(2) -0.0920(2) 0.23056(18)
C67 C 0.1700(2) -0.0567(2) 0.16632(17)
C68 C 0.1382(2) -0.1271(2) 0.15353(17)
C69 C 0.0410(2) -0.1188(2) 0.14610(18)
H59 H -0.0147 -0.0659 0.1449
C70 C 0.0450(2) -0.2013(2) 0.14123(18)
H60 H -0.0076 -0.2176 0.1361
C71 C 0.1437(2) -0.2596(2) 0.14519(17)
C72 C 0.1818(2) -0.3501(2) 0.14214(17)
C73 C 0.2800(2) -0.4034(2) 0.14394(18)
C74 C 0.3252(3) -0.4936(2) 0.13815(19)
H61 H 0.2950 -0.5339 0.1345
C75 C 0.4220(3) -0.5128(2) 0.13883(19)
H62 H 0.4702 -0.5684 0.1353
C76 C 0.4352(2) -0.4354(2) 0.14562(18)
C77 C 0.5217(2) -0.4169(2) 0.15267(18)
C78 C 0.5344(2) -0.3952(2) 0.2183(2)
C79 C 0.6109(3) -0.4531(3) 0.2759(2)
H63 H 0.6643 -0.5081 0.2773
C80 C 0.5913(3) -0.4134(3) 0.3277(2)
H64 H 0.6282 -0.4356 0.3730
Cl1 Cl 0.59304(12) 0.17344(10) -0.03169(10)
Cl2 Cl 0.77860(10) 0.06351(12) 0.04508(10)
Cl3 Cl 0.67177(12) 0.24996(10) 0.05089(7)
C81 C 0.6683(4) 0.1462(4) 0.0434(3)
H65 H 0.6401 0.1169 0.0870
Cl4 Cl 0.72327(11) -0.03716(9) 0.43804(8)
Cl5 Cl 0.82287(9) 0.01647(9) 0.52838(7)
Cl6 Cl 0.62818(8) 0.13689(8) 0.46508(6)
C82 C 0.7383(4) 0.0577(3) 0.4528(3)
H66 H 0.7619 0.0926 0.4088
Cl7 Cl 0.75603(10) 0.28342(10) 0.40163(9)
Cl8 Cl 0.95984(9) 0.19200(8) 0.43323(6)
Cl9 Cl 0.87410(8) 0.38148(8) 0.32557(6)
C83 C 0.8617(3) 0.3006(3) 0.4080(2)
H67 H 0.8589 0.3283 0.4467
loop_
_geom_bond_atom_site_label_1
_geom_bond_atom_site_label_2
_geom_bond_site_symmetry_1
_geom_bond_site_symmetry_2
C1 C2 1_555 1_555
C2 H1 1_555 1_555
C3 C2 1_555 1_555
H2 C3 1_555 1_555
C4 C3 1_555 1_555
C5 C4 1_555 1_555
C6 C5 1_555 1_555
C7 C6 1_555 1_555
H3 C7 1_555 1_555
C8 C7 1_555 1_555
H4 C8 1_555 1_555
Br1 C21 1_555 1_555
Br2 C21 1_555 1_555
Br3 C22 1_555 1_555
Br4 C22 1_555 1_555
N1 C1 1_555 1_555
N2 C6 1_555 1_555
H5 N2 1_555 1_555
N3 C11 1_555 1_555
N4 H6 1_555 1_555
C9 C8 1_555 1_555
C10 C9 1_555 1_555
C11 C10 1_555 1_555
C12 C11 1_555 1_555
H7 C12 1_555 1_555
C13 C12 1_555 1_555
H8 C13 1_555 1_555
C14 N3 1_555 1_555
C15 C14 1_555 1_555
C16 N4 1_555 1_555
C17 C16 1_555 1_555
H9 C17 1_555 1_555
C18 C17 1_555 1_555
H10 C18 1_555 1_555
C19 N4 1_555 1_555
C20 C1 1_555 1_555
C21 C5 1_555 1_555
C22 C15 1_555 1_555
C23 C10 1_555 1_555
C24 C23 1_555 1_555
C25 C24 1_555 1_555
H11 C25 1_555 1_555
C26 C25 1_555 1_555
C27 C26 1_555 1_555
H12 C27 1_555 1_555
C28 C23 1_555 1_555
C29 C24 1_555 1_555
H13 C29 1_555 1_555
H14 C29 1_555 1_555
H15 C29 1_555 1_555
C30 C26 1_555 1_555
H16 C30 1_555 1_555
H17 C30 1_555 1_555
H18 C30 1_555 1_555
C31 C28 1_555 1_555
H19 C31 1_555 1_555
H20 C31 1_555 1_555
H21 C31 1_555 1_555
C32 C20 1_555 1_555
C33 C32 1_555 1_555
C34 C33 1_555 1_555
H22 C34 1_555 1_555
C35 C34 1_555 1_555
C36 C35 1_555 1_555
H23 C36 1_555 1_555
C37 C32 1_555 1_555
C38 C33 1_555 1_555
H24 C38 1_555 1_555
H25 C38 1_555 1_555
H26 C38 1_555 1_555
C39 C35 1_555 1_555
H27 C39 1_555 1_555
H28 C39 1_555 1_555
H29 C39 1_555 1_555
C40 C37 1_555 1_555
H30 C40 1_555 1_555
H31 C40 1_555 1_555
H32 C40 1_555 1_555
C41 C42 1_555 1_555
C42 C54 1_555 1_555
C43 Br5 1_555 1_555
C44 Br7 1_555 1_555
C45 C46 1_555 1_555
C46 C47 1_555 1_555
C47 H33 1_555 1_555
C48 C47 1_555 1_555
C49 C48 1_555 1_555
H34 C49 1_555 1_555
C50 C45 1_555 1_555
C51 C46 1_555 1_555
H35 C51 1_555 1_555
H36 C51 1_555 1_555
H37 C51 1_555 1_555
C52 C48 1_555 1_555
H38 C52 1_555 1_555
H39 C52 1_555 1_555
H40 C52 1_555 1_555
C53 C50 1_555 1_555
H41 C53 1_555 1_555
H42 C53 1_555 1_555
H43 C53 1_555 1_555
C54 C55 1_555 1_555
C55 C56 1_555 1_555
C56 H44 1_555 1_555
C57 C56 1_555 1_555
C58 C57 1_555 1_555
H45 C58 1_555 1_555
C59 C54 1_555 1_555
C60 C55 1_555 1_555
H46 C60 1_555 1_555
H47 C60 1_555 1_555
H48 C60 1_555 1_555
C61 C57 1_555 1_555
H49 C61 1_555 1_555
H50 C61 1_555 1_555
H51 C61 1_555 1_555
C62 C59 1_555 1_555
H52 C62 1_555 1_555
H53 C62 1_555 1_555
H54 C62 1_555 1_555
Br6 C43 1_555 1_555
Br8 C44 1_555 1_555
N5 H55 1_555 1_555
N6 C68 1_555 1_555
N7 H56 1_555 1_555
N8 C41 1_555 1_555
C63 C42 1_555 1_555
C64 C63 1_555 1_555
H57 C64 1_555 1_555
C65 C64 1_555 1_555
H58 C65 1_555 1_555
C66 N5 1_555 1_555
C67 C43 1_555 1_555
C68 C67 1_555 1_555
C69 C68 1_555 1_555
H59 C69 1_555 1_555
C70 C69 1_555 1_555
H60 C70 1_555 1_555
C71 N6 1_555 1_555
C72 C45 1_555 1_555
C73 N7 1_555 1_555
C74 C73 1_555 1_555
H61 C74 1_555 1_555
C75 C74 1_555 1_555
H62 C75 1_555 1_555
C76 N7 1_555 1_555
C77 C44 1_555 1_555
C78 N8 1_555 1_555
C79 C78 1_555 1_555
H63 C79 1_555 1_555
C80 C41 1_555 1_555
H64 C80 1_555 1_555
Cl1 C81 1_555 1_555
Cl2 C81 1_555 1_555
Cl3 C81 1_555 1_555
C81 H65 1_555 1_555
Cl4 C82 1_555 1_555
Cl5 C82 1_555 1_555
Cl6 C82 1_555 1_555
C82 H66 1_555 1_555
Cl7 C83 1_555 1_555
Cl8 C83 1_555 1_555
Cl9 C83 1_555 1_555
C83 H67 1_555 1_555
C4 N1 1_555 1_555
N2 C9 1_555 1_555
C13 C14 1_555 1_555
C15 C16 1_555 1_555
C18 C19 1_555 1_555
C19 C20 1_555 1_555
C27 C28 1_555 1_555
C36 C37 1_555 1_555
C49 C50 1_555 1_555
C58 C59 1_555 1_555
N5 C63 1_555 1_555
C65 C66 1_555 1_555
C66 C67 1_555 1_555
C70 C71 1_555 1_555
C71 C72 1_555 1_555
C72 C73 1_555 1_555
C75 C76 1_555 1_555
C76 C77 1_555 1_555
C77 C78 1_555 1_555
C79 C80 1_555 1_555

#END
