
#######################################################################
#
#                 Cambridge Crystallographic Data Centre
#                                CCDC 
#
#######################################################################
#
# If this CIF has been generated from an entry in the Cambridge 
# Structural Database, then it will include bibliographic, chemical, 
# crystal, experimental, refinement or atomic coordinate data resulting 
# from the CCDC's data processing and validation procedures.
#
#######################################################################

data_ISECAM
_chemical_formula_moiety         'C38 H34 N4'
_chemical_name_systematic        5,15-dimesitylporphyrin
_symmetry_cell_setting           monoclinic
_symmetry_space_group_name_H-M   'P 21/a'
_symmetry_Int_Tables_number      14
_space_group_name_Hall           '-P 2yab'
loop_
_symmetry_equiv_pos_site_id
_symmetry_equiv_pos_as_xyz
1 x,y,z
2 1/2-x,1/2+y,-z
3 -x,-y,-z
4 1/2+x,1/2-y,z
_cell_length_a                   8.116(2)
_cell_length_b                   13.524(3)
_cell_length_c                   13.521(3)
_cell_angle_alpha                90
_cell_angle_beta                 101.090(4)
_cell_angle_gamma                90
_cell_volume                     1456.36
_exptl_crystal_colour            red
_exptl_crystal_description       Prism
_cell_formula_units_Z            2
loop_
_atom_site_label
_atom_site_type_symbol
_atom_site_fract_x
_atom_site_fract_y
_atom_site_fract_z
N1 N 0.14182(14) 0.38632(8) 0.45270(7)
H1 H 0.0874 0.4373 0.4710
N2 N 0.02466(14) 0.57135(8) 0.37215(7)
C1 C 0.08898(18) 0.62108(10) 0.21967(9)
H2 H 0.1353 0.6204 0.1603
C2 C 0.29287(17) 0.43825(10) 0.21148(9)
C3 C 0.20531(16) 0.38141(10) 0.36573(9)
C4 C 0.30486(19) 0.38077(10) 0.04461(10)
H3 H 0.2490 0.3587 -0.0199
C5 C 0.19699(16) 0.45664(10) 0.29419(9)
C6 C 0.10795(16) 0.54524(10) 0.29701(9)
C7 C 0.17528(17) 0.30062(10) 0.50687(9)
C8 C 0.20997(18) 0.40361(10) 0.11712(10)
C9 C 0.47824(19) 0.38923(10) 0.06369(10)
C10 C 0.28069(17) 0.28608(10) 0.36466(10)
H4 H 0.3348 0.2611 0.3135
C11 C 0.13481(17) 0.27991(10) 0.59960(9)
H5 H 0.1728 0.2181 0.6287
C12 C -0.04518(17) 0.66146(10) 0.34438(9)
C13 C 0.26160(17) 0.23734(10) 0.44943(10)
H6 H 0.2993 0.1721 0.4675
C14 C 0.55799(18) 0.42511(10) 0.15747(10)
H7 H 0.6767 0.4321 0.1712
C15 C 0.46780(18) 0.45092(10) 0.23127(10)
C16 C -0.00700(18) 0.69254(11) 0.24848(10)
H8 H -0.0428 0.7518 0.2130
C17 C 0.02239(19) 0.38861(12) 0.09475(11)
H9 H -0.0119 0.3610 0.0269
H10 H -0.0338 0.4522 0.0986
H11 H -0.0090 0.3429 0.1442
C18 C 0.55972(19) 0.49217(12) 0.33068(11)
H12 H 0.6793 0.4989 0.3289
H13 H 0.5460 0.4472 0.3854
H14 H 0.5134 0.5571 0.3422
C19 C 0.5780(2) 0.36012(12) -0.01475(12)
H15 H 0.5018 0.3356 -0.0749
H16 H 0.6581 0.3080 0.0123
H17 H 0.6392 0.4178 -0.0327
N1B N -0.14182(14) 0.61368(8) 0.54730(7)
H1B H -0.0874 0.5627 0.5290
N2B N -0.02466(14) 0.42865(8) 0.62785(7)
C1B C -0.08898(18) 0.37892(10) 0.78033(9)
H2B H -0.1353 0.3796 0.8397
C2B C -0.29287(17) 0.56175(10) 0.78852(9)
C3B C -0.20531(16) 0.61859(10) 0.63427(9)
C4B C -0.30486(19) 0.61923(10) 0.95539(10)
H3B H -0.2490 0.6413 1.0199
C5B C -0.19699(16) 0.54336(10) 0.70581(9)
C6B C -0.10795(16) 0.45476(10) 0.70299(9)
C7B C -0.17528(17) 0.69938(10) 0.49313(9)
C8B C -0.20997(18) 0.59639(10) 0.88288(10)
C9B C -0.47824(19) 0.61077(10) 0.93631(10)
C10B C -0.28069(17) 0.71392(10) 0.63534(10)
H4B H -0.3348 0.7389 0.6865
C11B C -0.13481(17) 0.72009(10) 0.40040(9)
H5B H -0.1728 0.7819 0.3713
C12B C 0.04518(17) 0.33854(10) 0.65562(9)
C13B C -0.26160(17) 0.76266(10) 0.55057(10)
H6B H -0.2993 0.8279 0.5325
C14B C -0.55799(18) 0.57489(10) 0.84253(10)
H7B H -0.6767 0.5679 0.8288
C15B C -0.46780(18) 0.54908(10) 0.76873(10)
C16B C 0.00700(18) 0.30746(11) 0.75152(10)
H8B H 0.0428 0.2482 0.7870
C17B C -0.02239(19) 0.61139(12) 0.90525(11)
H9B H 0.0119 0.6390 0.9731
H10B H 0.0338 0.5478 0.9014
H11B H 0.0090 0.6571 0.8558
C18B C -0.55972(19) 0.50783(12) 0.66932(11)
H12B H -0.6793 0.5011 0.6711
H13B H -0.5460 0.5528 0.6146
H14B H -0.5134 0.4429 0.6578
C19B C -0.5780(2) 0.63988(12) 1.01475(12)
H15B H -0.5018 0.6644 1.0749
H16B H -0.6581 0.6920 0.9877
H17B H -0.6392 0.5822 1.0327
loop_
_geom_bond_atom_site_label_1
_geom_bond_atom_site_label_2
_geom_bond_site_symmetry_1
_geom_bond_site_symmetry_2
N1 H1 1_555 1_555
N2 C6 1_555 1_555
C1 H2 1_555 1_555
C2 C5 1_555 1_555
C3 N1 1_555 1_555
C4 H3 1_555 1_555
C5 C3 1_555 1_555
C6 C1 1_555 1_555
C7 N1 1_555 1_555
C8 C2 1_555 1_555
C9 C4 1_555 1_555
C10 C3 1_555 1_555
H4 C10 1_555 1_555
C11 C7 1_555 1_555
H5 C11 1_555 1_555
C12 N2 1_555 1_555
C13 C7 1_555 1_555
H6 C13 1_555 1_555
C14 C9 1_555 1_555
H7 C14 1_555 1_555
C15 C2 1_555 1_555
C16 C1 1_555 1_555
H8 C16 1_555 1_555
C17 C8 1_555 1_555
H9 C17 1_555 1_555
H10 C17 1_555 1_555
H11 C17 1_555 1_555
C18 C15 1_555 1_555
H12 C18 1_555 1_555
H13 C18 1_555 1_555
H14 C18 1_555 1_555
C19 C9 1_555 1_555
H15 C19 1_555 1_555
H16 C19 1_555 1_555
H17 C19 1_555 1_555
N1B H1B 1_555 1_555
N2B C6B 1_555 1_555
C1B H2B 1_555 1_555
C2B C5B 1_555 1_555
C3B N1B 1_555 1_555
C4B H3B 1_555 1_555
C5B C3B 1_555 1_555
C6B C1B 1_555 1_555
C7B N1B 1_555 1_555
C8B C2B 1_555 1_555
C9B C4B 1_555 1_555
C10B C3B 1_555 1_555
H4B C10B 1_555 1_555
C11B C12 1_555 1_555
H5B C11B 1_555 1_555
C12B C11 1_555 1_555
C13B C7B 1_555 1_555
H6B C13B 1_555 1_555
C14B C9B 1_555 1_555
H7B C14B 1_555 1_555
C15B C2B 1_555 1_555
C16B C1B 1_555 1_555
H8B C16B 1_555 1_555
C17B C8B 1_555 1_555
H9B C17B 1_555 1_555
H10B C17B 1_555 1_555
H11B C17B 1_555 1_555
C18B C15B 1_555 1_555
H12B C18B 1_555 1_555
H13B C18B 1_555 1_555
H14B C18B 1_555 1_555
C19B C9B 1_555 1_555
H15B C19B 1_555 1_555
H16B C19B 1_555 1_555
H17B C19B 1_555 1_555
C4 C8 1_555 1_555
C5 C6 1_555 1_555
C10 C13 1_555 1_555
C12 C16 1_555 1_555
C14 C15 1_555 1_555
N2B C12B 1_555 1_555
C4B C8B 1_555 1_555
C5B C6B 1_555 1_555
C7B C11B 1_555 1_555
C10B C13B 1_555 1_555
C12B C16B 1_555 1_555
C14B C15B 1_555 1_555

#END
