
#######################################################################
#
#                 Cambridge Crystallographic Data Centre
#                                CCDC 
#
#######################################################################
#
# If this CIF has been generated from an entry in the Cambridge 
# Structural Database, then it will include bibliographic, chemical, 
# crystal, experimental, refinement or atomic coordinate data resulting 
# from the CCDC's data processing and validation procedures.
#
#######################################################################

data_ISEGUK
_chemical_formula_moiety         'C23 H16 N4 S2'
_chemical_name_systematic        
N,N-diphenyl-4,6-bis(2-thienyl)-1,3,5-triazin-2-amine
_symmetry_cell_setting           monoclinic
_symmetry_space_group_name_H-M   'P 21/n'
_symmetry_Int_Tables_number      14
_space_group_name_Hall           '-P 2yn'
loop_
_symmetry_equiv_pos_site_id
_symmetry_equiv_pos_as_xyz
1 x,y,z
2 1/2-x,1/2+y,1/2-z
3 -x,-y,-z
4 1/2+x,1/2-y,1/2+z
_cell_length_a                   11.0590(6)
_cell_length_b                   9.0657(5)
_cell_length_c                   20.5704(11)
_cell_angle_alpha                90
_cell_angle_beta                 103.800(2)
_cell_angle_gamma                90
_cell_volume                     2002.81
_exptl_crystal_colour            colorless
_exptl_crystal_description       block
_cell_formula_units_Z            4
loop_
_atom_site_label
_atom_site_type_symbol
_atom_site_fract_x
_atom_site_fract_y
_atom_site_fract_z
S2 S 0.52281(7) 0.39616(8) 0.43289(3)
S3 S 0.57647(18) 0.4218(2) 0.06915(8)
N1 N 0.53217(9) 0.55260(10) 0.19033(5)
N2 N 0.50371(8) 0.53616(10) 0.30172(5)
N3 N 0.62621(9) 0.35540(11) 0.26165(5)
N4 N 0.43228(9) 0.73778(10) 0.23376(5)
C1 C 0.49028(10) 0.60463(12) 0.24220(5)
C2 C 0.59857(10) 0.42875(12) 0.20327(6)
C3 C 0.37565(10) 0.80163(12) 0.28349(5)
C4 C 0.43020(10) 0.82742(12) 0.17568(5)
C5 C 0.27074(11) 0.73832(13) 0.29757(6)
H1 H 0.2400 0.6467 0.2780
C6 C 0.59264(10) 0.33578(12) 0.37182(5)
C7 C 0.64400(10) 0.36797(12) 0.14770(6)
C8 C 0.31630(11) 0.87923(13) 0.13884(6)
H2 H 0.2414 0.8508 0.1503
C9 C 0.21091(11) 0.81051(14) 0.34073(6)
H3 H 0.1388 0.7681 0.3506
C10 C 0.42294(11) 0.93380(13) 0.31311(6)
H4 H 0.4958 0.9755 0.3038
C11 C 0.25602(12) 0.94410(14) 0.36944(6)
H5 H 0.2136 0.9941 0.3980
C12 C 0.54001(11) 0.86812(14) 0.15906(6)
H6 H 0.6178 0.8331 0.1847
C13 C 0.31285(12) 0.97303(13) 0.08497(6)
H7 H 0.2352 1.0093 0.0597
C14 C 0.53502(12) 0.96040(14) 0.10471(6)
H8 H 0.6098 0.9872 0.0926
C15 C 0.42202(13) 1.01391(13) 0.06787(6)
H9 H 0.4194 1.0783 0.0311
C16 C 0.36269(12) 1.00463(14) 0.35646(6)
H10 H 0.3948 1.0947 0.3772
C17 C 0.66872(13) 0.31235(14) 0.03813(6)
H11 H 0.6599 0.3044 -0.0088
C18 C 0.58644(12) 0.25812(14) 0.48480(6)
H12 H 0.5724 0.2457 0.5283
C19 C 0.65961(13) 0.16642(14) 0.45863(7)
H13 H 0.7026 0.0833 0.4811
C20 C 0.75671(13) 0.23474(14) 0.08136(7)
H14 H 0.8178 0.1717 0.0706
C21 C 0.6631(5) 0.2123(5) 0.3924(3)
H15 H 0.7093 0.1625 0.3656
C22 C 0.7391(7) 0.2674(10) 0.1481(4)
H16 H 0.7878 0.2241 0.1878
C23 C 0.57265(10) 0.41372(12) 0.30791(5)
S1? S 0.76390(18) 0.2477(2) 0.16139(9)
S4? S 0.6804(5) 0.1870(5) 0.3866(3)
C24? C 0.6015(7) 0.3939(9) 0.0789(4)
H17? H 0.5348 0.4590 0.0606
H18? H 0.6539 0.3133 -0.0093
H19? H 0.5670 0.2560 0.5273
H20? H 0.6998 0.0866 0.4851
H21? H 0.8134 0.1737 0.0656
C25? C 0.5413(18) 0.3728(19) 0.4227(8)
H22? H 0.4868 0.4539 0.4225
loop_
_geom_bond_atom_site_label_1
_geom_bond_atom_site_label_2
_geom_bond_site_symmetry_1
_geom_bond_site_symmetry_2
S2 C6 1_555 1_555
S3 C7 1_555 1_555
N1 C1 1_555 1_555
N2 C1 1_555 1_555
N3 C2 1_555 1_555
N4 C1 1_555 1_555
C2 N1 1_555 1_555
C3 N4 1_555 1_555
C4 N4 1_555 1_555
C5 C3 1_555 1_555
H1 C5 1_555 1_555
C6 C21 1_555 1_555
C7 C2 1_555 1_555
C8 C4 1_555 1_555
H2 C8 1_555 1_555
C9 C5 1_555 1_555
H3 C9 1_555 1_555
C10 C3 1_555 1_555
H4 C10 1_555 1_555
C11 C9 1_555 1_555
H5 C11 1_555 1_555
C12 C4 1_555 1_555
H6 C12 1_555 1_555
C13 C8 1_555 1_555
H7 C13 1_555 1_555
C14 C12 1_555 1_555
H8 C14 1_555 1_555
C15 C13 1_555 1_555
H9 C15 1_555 1_555
C16 C10 1_555 1_555
H10 C16 1_555 1_555
C17 S3 1_555 1_555
H11 C17 1_555 1_555
C18 S2 1_555 1_555
H12 C18 1_555 1_555
C19 C18 1_555 1_555
H13 C19 1_555 1_555
C20 C17 1_555 1_555
H14 C20 1_555 1_555
C21 C19 1_555 1_555
H15 C21 1_555 1_555
C22 C7 1_555 1_555
H16 C22 1_555 1_555
C23 N2 1_555 1_555
N3 C23 1_555 1_555
C6 C23 1_555 1_555
C11 C16 1_555 1_555
C14 C15 1_555 1_555
C20 C22 1_555 1_555

#END
