
#######################################################################
#
#                 Cambridge Crystallographic Data Centre
#                                CCDC 
#
#######################################################################
#
# If this CIF has been generated from an entry in the Cambridge 
# Structural Database, then it will include bibliographic, chemical, 
# crystal, experimental, refinement or atomic coordinate data resulting 
# from the CCDC's data processing and validation procedures.
#
#######################################################################

data_ISELIC
_chemical_name_common            
17-(3-methyl-2-butenoyl)-ent-kaurane-7a,16b-diol
_chemical_formula_moiety         'C25 H40 O4'
_chemical_name_systematic        
'7,16-Dihydroxykauran-17-yl 3-methylbut-2-enoate'
_chemical_properties_biological  
'biological activity in treating dysentery and beriber'
_symmetry_cell_setting           monoclinic
_symmetry_space_group_name_H-M   'P 21'
_symmetry_Int_Tables_number      4
_space_group_name_Hall           'P 2yb'
loop_
_symmetry_equiv_pos_site_id
_symmetry_equiv_pos_as_xyz
1 x,y,z
2 -x,1/2+y,-z
_cell_length_a                   6.6906(9)
_cell_length_b                   14.0457(19)
_cell_length_c                   11.9676(17)
_cell_angle_alpha                90
_cell_angle_beta                 101.271(5)
_cell_angle_gamma                90
_cell_volume                     1102.95
_cell_formula_units_Z            2
loop_
_atom_site_label
_atom_site_type_symbol
_atom_site_fract_x
_atom_site_fract_y
_atom_site_fract_z
C1 C 0.8153(4) 0.1626(2) 0.5017(2)
H1 H 0.9516 0.1891 0.5119
H2 H 0.8153 0.1026 0.4616
C2 C 1.4343(4) -0.27385(17) 0.8976(2)
C3 C 0.6667(5) 0.2305(2) 0.4290(2)
H3 H 0.7093 0.2416 0.3571
H4 H 0.5319 0.2022 0.4127
C4 C 1.3848(4) -0.37451(18) 0.8739(2)
H5 H 1.4943 -0.4158 0.8949
C5 C 1.2106(4) -0.41689(19) 0.8277(2)
C6 C 0.6589(5) 0.32377(19) 0.4901(2)
H6 H 0.5616 0.3651 0.4424
H7 H 0.7916 0.3539 0.4993
C7 C 0.6005(4) 0.31642(17) 0.6071(2)
C8 C 1.0070(4) -0.3711(2) 0.7920(3)
H8 H 0.9077 -0.4187 0.7623
H9 H 1.0134 -0.3245 0.7342
H10 H 0.9687 -0.3407 0.8566
C9 C 0.7417(3) 0.24085(16) 0.67759(18)
H11 H 0.8782 0.2690 0.6890
C10 C 1.2098(5) -0.5224(2) 0.8088(3)
H12 H 1.0741 -0.5429 0.7758
H13 H 1.2547 -0.5542 0.8803
H14 H 1.2999 -0.5378 0.7581
C11 C 0.7029(4) 0.22530(17) 0.7985(2)
H15 H 0.6728 0.2858 0.8305
H16 H 0.5859 0.1839 0.7955
C12 C 0.8881(4) 0.18086(16) 0.8736(2)
H17 H 0.8559 0.1686 0.9488
C13 C 0.9484(3) 0.08601(16) 0.82501(18)
C14 C 0.9507(3) 0.09301(16) 0.69622(18)
H18 H 1.0667 0.1345 0.6921
C15 C 0.7632(4) 0.14383(16) 0.61948(19)
C16 C 1.0104(4) -0.00453(18) 0.6524(2)
H19 H 0.9615 -0.0067 0.5706
H20 H 1.1580 -0.0080 0.6658
C17 C 0.9316(4) -0.09358(17) 0.7047(2)
H21 H 0.7938 -0.1068 0.6647
H22 H 1.0159 -0.1475 0.6934
C18 C 0.9316(4) -0.08361(16) 0.8325(2)
H23 H 0.8745 -0.1406 0.8617
C19 C 0.8087(4) 0.00466(16) 0.85022(19)
H24 H 0.7860 0.0082 0.9277
H25 H 0.6784 0.0058 0.7977
C20 C 1.1585(4) 0.04976(16) 0.8902(2)
H26 H 1.2638 0.0641 0.8474
H27 H 1.1936 0.0804 0.9640
C21 C 1.1402(4) -0.05937(17) 0.9048(2)
C22 C 1.3222(4) -0.11285(17) 0.8784(2)
H28 H 1.3494 -0.0927 0.8053
H29 H 1.4421 -0.0997 0.9364
C23 C 0.3730(4) 0.2963(2) 0.5953(3)
H30 H 0.3400 0.2914 0.6696
H31 H 0.3399 0.2376 0.5549
H32 H 0.2962 0.3473 0.5540
C24 C 0.6450(5) 0.4137(2) 0.6648(3)
H33 H 0.7875 0.4279 0.6733
H34 H 0.6085 0.4123 0.7385
H35 H 0.5667 0.4619 0.6189
C25 C 0.5688(4) 0.08197(19) 0.6015(2)
H36 H 0.5320 0.0697 0.6738
H37 H 0.5940 0.0228 0.5667
H38 H 0.4595 0.1150 0.5530
O1 O 1.0453(3) 0.25173(12) 0.88594(15)
H39 H 1.1493 0.2309 0.9263
O2 O 1.1357(3) -0.07372(13) 1.02299(14)
H40 H 1.1248 -0.1307 1.0353
O3 O 1.6058(3) -0.24678(15) 0.9325(2)
O4 O 1.2764(2) -0.21395(11) 0.87584(16)
loop_
_geom_bond_atom_site_label_1
_geom_bond_atom_site_label_2
_geom_bond_site_symmetry_1
_geom_bond_site_symmetry_2
C1 H1 1_555 1_555
H2 C1 1_555 1_555
C2 C4 1_555 1_555
C3 C1 1_555 1_555
H3 C3 1_555 1_555
H4 C3 1_555 1_555
C4 H5 1_555 1_555
C5 C4 1_555 1_555
C6 C3 1_555 1_555
H6 C6 1_555 1_555
H7 C6 1_555 1_555
C7 C6 1_555 1_555
C8 C5 1_555 1_555
H8 C8 1_555 1_555
H9 C8 1_555 1_555
H10 C8 1_555 1_555
C9 C7 1_555 1_555
H11 C9 1_555 1_555
C10 C5 1_555 1_555
H12 C10 1_555 1_555
H13 C10 1_555 1_555
H14 C10 1_555 1_555
C11 C9 1_555 1_555
H15 C11 1_555 1_555
H16 C11 1_555 1_555
C12 C11 1_555 1_555
H17 C12 1_555 1_555
C13 C12 1_555 1_555
C14 C13 1_555 1_555
H18 C14 1_555 1_555
C15 C1 1_555 1_555
C16 C14 1_555 1_555
H19 C16 1_555 1_555
H20 C16 1_555 1_555
C17 C16 1_555 1_555
H21 C17 1_555 1_555
H22 C17 1_555 1_555
C18 C17 1_555 1_555
H23 C18 1_555 1_555
C19 C13 1_555 1_555
H24 C19 1_555 1_555
H25 C19 1_555 1_555
C20 C13 1_555 1_555
H26 C20 1_555 1_555
H27 C20 1_555 1_555
C21 C18 1_555 1_555
C22 C21 1_555 1_555
H28 C22 1_555 1_555
H29 C22 1_555 1_555
C23 C7 1_555 1_555
H30 C23 1_555 1_555
H31 C23 1_555 1_555
H32 C23 1_555 1_555
C24 C7 1_555 1_555
H33 C24 1_555 1_555
H34 C24 1_555 1_555
H35 C24 1_555 1_555
C25 C15 1_555 1_555
H36 C25 1_555 1_555
H37 C25 1_555 1_555
H38 C25 1_555 1_555
O1 C12 1_555 1_555
H39 O1 1_555 1_555
O2 C21 1_555 1_555
H40 O2 1_555 1_555
O3 C2 1_555 1_555
O4 C2 1_555 1_555
C9 C15 1_555 1_555
C14 C15 1_555 1_555
C18 C19 1_555 1_555
C20 C21 1_555 1_555
C22 O4 1_555 1_555

#END
