
#######################################################################
#
#                 Cambridge Crystallographic Data Centre
#                                CCDC 
#
#######################################################################
#
# If this CIF has been generated from an entry in the Cambridge 
# Structural Database, then it will include bibliographic, chemical, 
# crystal, experimental, refinement or atomic coordinate data resulting 
# from the CCDC's data processing and validation procedures.
#
#######################################################################

data_ISEMID
_chemical_formula_moiety         'C30 H46 O6,C1 H1 Cl3,H2 O1'
_chemical_name_systematic        
'3,7,15-Trihydroxy-11-oxoolean-12-en-29-oic acid chloroform solvate monohydrate'
_symmetry_cell_setting           orthorhombic
_symmetry_space_group_name_H-M   'P 21 21 21'
_symmetry_Int_Tables_number      19
_space_group_name_Hall           'P 2ac 2ab'
loop_
_symmetry_equiv_pos_site_id
_symmetry_equiv_pos_as_xyz
1 x,y,z
2 1/2-x,-y,1/2+z
3 -x,1/2+y,1/2-z
4 1/2+x,1/2-y,-z
_cell_length_a                   11.8280(14)
_cell_length_b                   13.2127(16)
_cell_length_c                   19.606(2)
_cell_angle_alpha                90
_cell_angle_beta                 90
_cell_angle_gamma                90
_cell_volume                     3064.02
_exptl_crystal_colour            colorless
_exptl_crystal_description       prism
_cell_formula_units_Z            4
loop_
_atom_site_label
_atom_site_type_symbol
_atom_site_fract_x
_atom_site_fract_y
_atom_site_fract_z
O1 O 0.64512(18) 0.55316(17) 0.66069(10)
H1 H 0.5747 0.5449 0.6613
O2 O 0.92694(17) 0.73079(16) 0.97619(10)
H2 H 0.9026 0.6748 0.9903
O3 O 1.07336(15) 0.87700(14) 0.96218(10)
H3 H 1.0505 0.8173 0.9672
O4 O 0.56892(17) 0.97939(17) 0.83952(12)
O5 O 0.94515(18) 1.45418(16) 0.97516(12)
H4 H 0.8933 1.4936 0.9874
O6 O 0.80265(17) 1.37502(16) 0.92322(12)
C1 C 0.6200(2) 0.8051(2) 0.75210(13)
H5 H 0.5561 0.8532 0.7560
H6 H 0.6811 0.8390 0.7262
C2 C 0.5808(2) 0.7112(2) 0.71259(13)
H7 H 0.5164 0.6796 0.7368
H8 H 0.5545 0.7318 0.6667
C3 C 0.6751(2) 0.6350(2) 0.70543(14)
H9 H 0.7397 0.6713 0.6834
C4 C 0.7179(2) 0.5971(2) 0.77495(14)
C5 C 0.7508(2) 0.6921(2) 0.81725(13)
H10 H 0.8147 0.7230 0.7912
C6 C 0.8024(2) 0.6676(2) 0.88791(14)
H11 H 0.7411 0.6538 0.9210
H12 H 0.8503 0.6063 0.8846
C7 C 0.8725(2) 0.7558(2) 0.91223(13)
H13 H 0.9343 0.7651 0.8780
C8 C 0.8094(2) 0.85851(19) 0.91699(13)
C9 C 0.7324(2) 0.87181(19) 0.85202(13)
H14 H 0.7872 0.8871 0.8146
C10 C 0.6638(2) 0.7791(2) 0.82439(13)
C11 C 0.6664(2) 0.9701(2) 0.86065(15)
C12 C 0.7243(2) 1.0544(2) 0.89321(14)
H15 H 0.6854 1.1172 0.8958
C13 C 0.8274(2) 1.0500(2) 0.91957(13)
C14 C 0.8962(2) 0.9517(2) 0.91684(13)
C15 C 0.9830(2) 0.9462(2) 0.97757(14)
H16 H 0.9428 0.9223 1.0194
C16 C 1.0403(2) 1.0470(2) 0.99297(14)
H17 H 1.0867 1.0672 0.9532
H18 H 1.0918 1.0382 1.0323
C17 C 0.9563(2) 1.1319(2) 1.00908(13)
C18 C 0.8787(2) 1.1481(2) 0.94686(13)
H19 H 0.8140 1.1906 0.9630
C19 C 0.9365(2) 1.2081(2) 0.88799(14)
H20 H 0.9945 1.1645 0.8666
H21 H 0.8790 1.2239 0.8528
C20 C 0.9918(2) 1.3060(2) 0.91085(14)
C21 C 1.0777(2) 1.2822(2) 0.96727(14)
H22 H 1.1378 1.2379 0.9488
H23 H 1.1133 1.3458 0.9830
C22 C 1.0204(2) 1.2298(2) 1.02733(14)
H24 H 0.9665 1.2778 1.0485
H25 H 1.0786 1.2134 1.0619
C23 C 0.8250(3) 0.5344(2) 0.76172(19)
H26 H 0.8468 0.4990 0.8036
H27 H 0.8865 0.5794 0.7475
H28 H 0.8100 0.4849 0.7256
C24 C 0.6309(2) 0.5282(2) 0.80960(16)
H29 H 0.6160 0.4694 0.7805
H30 H 0.5605 0.5658 0.8168
H31 H 0.6605 0.5053 0.8537
C25 C 0.5617(2) 0.7528(2) 0.87028(14)
H32 H 0.5041 0.7178 0.8432
H33 H 0.5297 0.8152 0.8892
H34 H 0.5866 0.7088 0.9076
C26 C 0.7362(2) 0.8568(2) 0.98224(13)
H35 H 0.6938 0.7932 0.9843
H36 H 0.6832 0.9138 0.9814
H37 H 0.7851 0.8625 1.0224
C27 C 0.9659(2) 0.9572(2) 0.85010(14)
H38 H 0.9207 0.9898 0.8144
H39 H 0.9864 0.8886 0.8356
H40 H 1.0348 0.9967 0.8581
C28 C 0.8830(3) 1.1030(2) 1.07075(14)
H41 H 0.8364 1.0441 1.0593
H42 H 0.8340 1.1601 1.0828
H43 H 0.9319 1.0865 1.1095
C29 C 1.0512(3) 1.3570(2) 0.84979(15)
H44 H 1.1124 1.3133 0.8334
H45 H 1.0825 1.4223 0.8642
H46 H 0.9964 1.3679 0.8130
C30 C 0.9017(2) 1.3804(2) 0.93659(14)
Cl1 Cl 0.31012(10) 0.57280(9) 0.80231(8)
Cl2 Cl 0.27534(13) 0.77712(9) 0.75990(9)
Cl3 Cl 0.09453(12) 0.66235(15) 0.81466(14)
C31 C 0.2373(5) 0.6852(4) 0.8180(3)
H47 H 0.2570 0.7094 0.8649
O7 O 0.30383(16) 0.92286(16) 0.94942(11)
H48 H 0.3102(12) 0.9613(10) 0.9149(6)
H49 H 0.2378(7) 0.9112(17) 0.9640(9)
loop_
_geom_bond_atom_site_label_1
_geom_bond_atom_site_label_2
_geom_bond_site_symmetry_1
_geom_bond_site_symmetry_2
O1 H1 1_555 1_555
O2 H2 1_555 1_555
O3 H3 1_555 1_555
O4 C11 1_555 1_555
O5 H4 1_555 1_555
O6 C30 1_555 1_555
C1 H5 1_555 1_555
H6 C1 1_555 1_555
C2 C1 1_555 1_555
H7 C2 1_555 1_555
H8 C2 1_555 1_555
C3 O1 1_555 1_555
H9 C3 1_555 1_555
C4 C3 1_555 1_555
C5 C4 1_555 1_555
H10 C5 1_555 1_555
C6 C5 1_555 1_555
H11 C6 1_555 1_555
H12 C6 1_555 1_555
C7 O2 1_555 1_555
H13 C7 1_555 1_555
C8 C7 1_555 1_555
C9 C8 1_555 1_555
H14 C9 1_555 1_555
C10 C1 1_555 1_555
C11 C9 1_555 1_555
C12 C11 1_555 1_555
H15 C12 1_555 1_555
C13 C12 1_555 1_555
C14 C8 1_555 1_555
C15 O3 1_555 1_555
H16 C15 1_555 1_555
C16 C15 1_555 1_555
H17 C16 1_555 1_555
H18 C16 1_555 1_555
C17 C16 1_555 1_555
C18 C13 1_555 1_555
H19 C18 1_555 1_555
C19 C18 1_555 1_555
H20 C19 1_555 1_555
H21 C19 1_555 1_555
C20 C19 1_555 1_555
C21 C20 1_555 1_555
H22 C21 1_555 1_555
H23 C21 1_555 1_555
C22 C17 1_555 1_555
H24 C22 1_555 1_555
H25 C22 1_555 1_555
C23 C4 1_555 1_555
H26 C23 1_555 1_555
H27 C23 1_555 1_555
H28 C23 1_555 1_555
C24 C4 1_555 1_555
H29 C24 1_555 1_555
H30 C24 1_555 1_555
H31 C24 1_555 1_555
C25 C10 1_555 1_555
H32 C25 1_555 1_555
H33 C25 1_555 1_555
H34 C25 1_555 1_555
C26 C8 1_555 1_555
H35 C26 1_555 1_555
H36 C26 1_555 1_555
H37 C26 1_555 1_555
C27 C14 1_555 1_555
H38 C27 1_555 1_555
H39 C27 1_555 1_555
H40 C27 1_555 1_555
C28 C17 1_555 1_555
H41 C28 1_555 1_555
H42 C28 1_555 1_555
H43 C28 1_555 1_555
C29 C20 1_555 1_555
H44 C29 1_555 1_555
H45 C29 1_555 1_555
H46 C29 1_555 1_555
C30 O5 1_555 1_555
Cl1 C31 1_555 1_555
Cl2 C31 1_555 1_555
Cl3 C31 1_555 1_555
C31 H47 1_555 1_555
O7 H48 1_555 1_555
H49 O7 1_555 1_555
C2 C3 1_555 1_555
C5 C10 1_555 1_555
C6 C7 1_555 1_555
C9 C10 1_555 1_555
C13 C14 1_555 1_555
C14 C15 1_555 1_555
C17 C18 1_555 1_555
C20 C30 1_555 1_555
C21 C22 1_555 1_555

#END
