
#######################################################################
#
#                 Cambridge Crystallographic Data Centre
#                                CCDC 
#
#######################################################################
#
# If this CIF has been generated from an entry in the Cambridge 
# Structural Database, then it will include bibliographic, chemical, 
# crystal, experimental, refinement or atomic coordinate data resulting 
# from the CCDC's data processing and validation procedures.
#
#######################################################################

data_ISEPAY
_chemical_formula_moiety         'C16 H23 N1 O2'
_chemical_name_systematic        
1-(Anilinomethyl)-4-(prop-1-en-2-yl)cyclohexane-1,2-diol
_symmetry_cell_setting           orthorhombic
_symmetry_space_group_name_H-M   'P 21 21 21'
_symmetry_Int_Tables_number      19
_space_group_name_Hall           'P 2ac 2ab'
loop_
_symmetry_equiv_pos_site_id
_symmetry_equiv_pos_as_xyz
1 x,y,z
2 1/2-x,-y,1/2+z
3 -x,1/2+y,1/2-z
4 1/2+x,1/2-y,-z
_cell_length_a                   5.9637(3)
_cell_length_b                   8.8317(5)
_cell_length_c                   27.8089(13)
_cell_angle_alpha                90
_cell_angle_beta                 90
_cell_angle_gamma                90
_cell_volume                     1464.68
_exptl_crystal_colour            colorless
_exptl_crystal_description       needle
_cell_formula_units_Z            4
loop_
_atom_site_label
_atom_site_type_symbol
_atom_site_fract_x
_atom_site_fract_y
_atom_site_fract_z
C1 C 0.3223(2) 0.41465(15) 0.77270(4)
H1 H 0.2794 0.5111 0.7883
H2 H 0.2056 0.3386 0.7803
C2 C 0.3326(2) 0.43771(14) 0.71836(5)
C3 C 0.1144(2) 0.50923(15) 0.70053(4)
H3 H 0.1020 0.6135 0.7143
C4 C 0.1032(2) 0.52013(14) 0.64617(4)
H4 H 0.2151 0.5950 0.6350
H5 H -0.0472 0.5571 0.6367
C5 C 0.1479(3) 0.36809(14) 0.62143(5)
H6 H 0.0329 0.2945 0.6332
C6 C 0.3775(3) 0.31036(15) 0.63731(4)
H7 H 0.4090 0.2120 0.6216
H8 H 0.4948 0.3831 0.6273
C7 C 0.3834(3) 0.29100(14) 0.69181(4)
H9 H 0.2723 0.2133 0.7013
H10 H 0.5337 0.2543 0.7015
C8 C 0.1223(3) 0.38038(15) 0.56749(5)
C9 C -0.0467(3) 0.31501(18) 0.54505(6)
H11 H -0.0613 0.3247 0.5112
H12 H -0.1539 0.2582 0.5628
C10 C 0.2957(3) 0.47136(18) 0.54075(6)
H13 H 0.2597 0.4718 0.5064
H14 H 0.4439 0.4259 0.5456
H15 H 0.2964 0.5755 0.5529
C11 C 0.5742(3) 0.38026(14) 0.84209(5)
C12 C 0.4084(3) 0.34427(15) 0.87508(5)
H16 H 0.2648 0.3128 0.8642
C13 C 0.4516(3) 0.35415(17) 0.92388(5)
H17 H 0.3373 0.3287 0.9463
C14 C 0.6578(3) 0.40029(17) 0.94035(5)
H18 H 0.6854 0.4077 0.9739
C15 C 0.8246(3) 0.43579(15) 0.90779(5)
H19 H 0.9675 0.4677 0.9189
C16 C 0.7836(3) 0.42502(15) 0.85906(5)
H20 H 0.8995 0.4484 0.8368
O1 O 0.51393(15) 0.53990(10) 0.70720(3)
O2 O -0.06527(18) 0.41928(12) 0.71907(4)
N1 N 0.5391(2) 0.36338(12) 0.79207(4)
H21 H 0.653(2) 0.4078(15) 0.7756(5)
H22 H 0.480(3) 0.6418(18) 0.7119(6)
H23 H -0.187(3) 0.457(2) 0.7094(6)
loop_
_geom_bond_atom_site_label_1
_geom_bond_atom_site_label_2
_geom_bond_site_symmetry_1
_geom_bond_site_symmetry_2
C1 H1 1_555 1_555
H2 C1 1_555 1_555
C2 C1 1_555 1_555
C3 C2 1_555 1_555
H3 C3 1_555 1_555
C4 C3 1_555 1_555
H4 C4 1_555 1_555
H5 C4 1_555 1_555
C5 C4 1_555 1_555
H6 C5 1_555 1_555
C6 C5 1_555 1_555
H7 C6 1_555 1_555
H8 C6 1_555 1_555
C7 C2 1_555 1_555
H9 C7 1_555 1_555
H10 C7 1_555 1_555
C8 C5 1_555 1_555
C9 C8 1_555 1_555
H11 C9 1_555 1_555
H12 C9 1_555 1_555
C10 C8 1_555 1_555
H13 C10 1_555 1_555
H14 C10 1_555 1_555
H15 C10 1_555 1_555
C11 C12 1_555 1_555
C12 H16 1_555 1_555
C13 C12 1_555 1_555
H17 C13 1_555 1_555
C14 C13 1_555 1_555
H18 C14 1_555 1_555
C15 C14 1_555 1_555
H19 C15 1_555 1_555
C16 C11 1_555 1_555
H20 C16 1_555 1_555
O1 C2 1_555 1_555
O2 C3 1_555 1_555
N1 C1 1_555 1_555
H21 N1 1_555 1_555
H22 O1 1_555 1_555
H23 O2 1_555 1_555
C6 C7 1_555 1_555
C11 N1 1_555 1_555
C15 C16 1_555 1_555

#END
