
#######################################################################
#
#                 Cambridge Crystallographic Data Centre
#                                CCDC 
#
#######################################################################
#
# If this CIF has been generated from an entry in the Cambridge 
# Structural Database, then it will include bibliographic, chemical, 
# crystal, experimental, refinement or atomic coordinate data resulting 
# from the CCDC's data processing and validation procedures.
#
#######################################################################

data_ISESEG
_chemical_formula_moiety         'C6 H7 N1 O3 S1,H2 O1'
_chemical_name_systematic        '4-aminobenzenesulfonic acid monohydrate'
_symmetry_cell_setting           monoclinic
_symmetry_space_group_name_H-M   'P 21/c'
_symmetry_Int_Tables_number      14
_space_group_name_Hall           '-P 2ybc'
loop_
_symmetry_equiv_pos_site_id
_symmetry_equiv_pos_as_xyz
1 x,y,z
2 -x,1/2+y,1/2-z
3 -x,-y,-z
4 x,1/2-y,1/2+z
_cell_length_a                   6.4774(14)
_cell_length_b                   18.319(4)
_cell_length_c                   6.7976(14)
_cell_angle_alpha                90
_cell_angle_beta                 93.013(4)
_cell_angle_gamma                90
_cell_volume                     805.485
_cell_formula_units_Z            4
loop_
_atom_site_label
_atom_site_type_symbol
_atom_site_fract_x
_atom_site_fract_y
_atom_site_fract_z
S1 S 0.23666(19) 0.63985(6) 0.26379(16)
C1 C 0.3143(7) 0.5465(2) 0.2530(6)
C2 C 0.5774(7) 0.4550(2) 0.2461(6)
H1 H 0.7160 0.4416 0.2495
C3 C 0.5209(7) 0.5285(2) 0.2571(6)
H2 H 0.6214 0.5648 0.2670
C4 C 0.4256(7) 0.4032(2) 0.2305(6)
C5 C 0.1629(8) 0.4935(3) 0.2384(8)
H3 H 0.0240 0.5065 0.2374
C6 C 0.2192(8) 0.4206(3) 0.2252(8)
H4 H 0.1191 0.3842 0.2130
O1 O 0.2050(7) 0.6633(2) 0.0619(5)
O2 O 0.0459(12) 0.63994(18) 0.3604(13)
H5 H 0.0149 0.5979 0.3883
O3 O 0.4050(9) 0.67820(18) 0.3623(7)
N1 N 0.4839(7) 0.3259(2) 0.2194(6)
H6 H 0.6122 0.3138 0.2228
H7 H 0.3897 0.2929 0.2095
O4 O 0.1865(6) 0.25194(17) -0.0160(5)
loop_
_geom_bond_atom_site_label_1
_geom_bond_atom_site_label_2
_geom_bond_site_symmetry_1
_geom_bond_site_symmetry_2
S1 C1 1_555 1_555
C1 C3 1_555 1_555
C2 H1 1_555 1_555
C3 C2 1_555 1_555
H2 C3 1_555 1_555
C4 C2 1_555 1_555
C5 C1 1_555 1_555
H3 C5 1_555 1_555
C6 C4 1_555 1_555
H4 C6 1_555 1_555
O1 S1 1_555 1_555
O2 S1 1_555 1_555
H5 O2 1_555 1_555
O3 S1 1_555 1_555
N1 C4 1_555 1_555
H6 N1 1_555 1_555
H7 N1 1_555 1_555
C5 C6 1_555 1_555

#END
