
#######################################################################
#
#                 Cambridge Crystallographic Data Centre
#                                CCDC 
#
#######################################################################
#
# If this CIF has been generated from an entry in the Cambridge 
# Structural Database, then it will include bibliographic, chemical, 
# crystal, experimental, refinement or atomic coordinate data resulting 
# from the CCDC's data processing and validation procedures.
#
#######################################################################

data_ISEVOT
_chemical_formula_moiety         'C35 H41 Cl1 N2 O7,1.25(C2 H6 O1)'
_chemical_name_systematic        
"3'-benzyl 1,1'-di-t-butyl (3R,5'R)-6-chloro-5'-cyclohexyl-2-oxospiro[indoline-3,2'-pyrrole]-1,1',3'(5'H)-tricarboxylate ethanol solvate"
_symmetry_cell_setting           monoclinic
_symmetry_space_group_name_H-M   'P 21'
_symmetry_Int_Tables_number      4
_space_group_name_Hall           'P 2yb'
loop_
_symmetry_equiv_pos_site_id
_symmetry_equiv_pos_as_xyz
1 x,y,z
2 -x,1/2+y,-z
_cell_length_a                   11.1073(4)
_cell_length_b                   21.8972(8)
_cell_length_c                   15.4157(5)
_cell_angle_alpha                90
_cell_angle_beta                 103.807(2)
_cell_angle_gamma                90
_cell_volume                     3641.05
_exptl_crystal_colour            colorless
_exptl_crystal_description       Rod
_cell_formula_units_Z            4
_exptl_crystal_recrystallization_method ethanol
loop_
_atom_site_label
_atom_site_type_symbol
_atom_site_fract_x
_atom_site_fract_y
_atom_site_fract_z
Cl1 Cl 0.67971(8) 0.42007(4) 0.39763(6)
N1 N 0.9251(3) 0.46115(13) 0.72522(19)
N2 N 0.6844(3) 0.47943(13) 0.83519(19)
O1 O 0.9611(3) 0.46951(14) 0.88108(17)
O2 O 1.1159(2) 0.49809(13) 0.78276(17)
O3 O 1.0487(3) 0.48992(15) 0.63279(18)
O4 O 0.7634(2) 0.27294(11) 0.85791(17)
O5 O 0.8811(2) 0.32260(12) 0.77855(17)
O6 O 0.7396(2) 0.55751(11) 0.76156(17)
O7 O 0.5832(2) 0.57005(12) 0.83332(17)
C1 C 0.8948(3) 0.45806(16) 0.8100(2)
C2 C 0.7568(3) 0.43796(16) 0.7936(2)
C3 C 0.7185(3) 0.43331(15) 0.6925(2)
C4 C 0.6044(3) 0.41846(16) 0.6386(2)
H1 H 0.5359 0.4102 0.6637
C5 C 0.5912(3) 0.41572(17) 0.5458(2)
H2 H 0.5133 0.4062 0.5071
C6 C 0.6937(3) 0.42715(16) 0.5117(2)
C7 C 0.8103(3) 0.44245(16) 0.5651(2)
H3 H 0.8794 0.4501 0.5402
C8 C 0.8194(3) 0.44587(15) 0.6565(2)
C9 C 1.0357(3) 0.48409(17) 0.7085(2)
C10 C 1.2372(3) 0.52656(19) 0.7817(3)
C11 C 1.2151(5) 0.5884(2) 0.7388(5)
H4 H 1.1798 0.5837 0.6746
H5 H 1.2938 0.6106 0.7485
H6 H 1.1572 0.6114 0.7654
C12 C 1.3110(4) 0.4845(2) 0.7355(3)
H7 H 1.3230 0.4451 0.7663
H8 H 1.3919 0.5030 0.7371
H9 H 1.2658 0.4785 0.6733
C13 C 1.2975(4) 0.5306(3) 0.8806(3)
H10 H 1.2518 0.5599 0.9088
H11 H 1.3835 0.5444 0.8889
H12 H 1.2962 0.4904 0.9081
C14 C 0.7418(3) 0.37898(16) 0.8410(2)
C15 C 0.6684(3) 0.38566(16) 0.8967(2)
H13 H 0.6453 0.3531 0.9302
C16 C 0.6260(3) 0.45009(16) 0.9011(2)
H14 H 0.5339 0.4518 0.8786
C17 C 0.8036(3) 0.32238(17) 0.8220(2)
C18 C 0.8043(4) 0.21354(17) 0.8323(3)
H15 H 0.8306 0.2179 0.7756
H16 H 0.7338 0.1846 0.8219
C19 C 0.9094(4) 0.18790(17) 0.9020(3)
C20 C 1.0296(4) 0.2089(2) 0.9112(3)
H17 H 1.0450 0.2413 0.8743
C21 C 1.1278(5) 0.1831(2) 0.9736(3)
H18 H 1.2096 0.1982 0.9801
C22 C 1.1053(5) 0.1355(2) 1.0261(3)
H19 H 1.1726 0.1171 1.0677
C23 C 0.9867(5) 0.1141(2) 1.0191(3)
H20 H 0.9718 0.0815 1.0559
C24 C 0.8887(4) 0.14094(19) 0.9571(3)
H21 H 0.8065 0.1269 0.9526
C25 C 0.6621(3) 0.47844(17) 0.9950(2)
H22 H 0.6349 0.5221 0.9894
C26 C 0.8022(4) 0.4777(2) 1.0357(3)
H23 H 0.8324 0.4351 1.0409
H24 H 0.8452 0.5000 0.9960
C27 C 0.8324(4) 0.5076(2) 1.1281(3)
H25 H 0.9229 0.5055 1.1541
H26 H 0.8082 0.5512 1.1222
C28 C 0.7647(5) 0.4761(2) 1.1900(3)
H27 H 0.7952 0.4337 1.2008
H28 H 0.7822 0.4977 1.2481
C29 C 0.6262(5) 0.4755(2) 1.1502(3)
H29 H 0.5943 0.5178 1.1464
H30 H 0.5850 0.4521 1.1899
C30 C 0.5939(4) 0.4470(2) 1.0575(3)
H31 H 0.5034 0.4501 1.0322
H32 H 0.6161 0.4031 1.0622
C31 C 0.6616(3) 0.53927(16) 0.8106(2)
C32 C 0.7120(4) 0.61022(16) 0.6987(2)
C33 C 0.8313(4) 0.61713(18) 0.6694(3)
H33 H 0.8998 0.6238 0.7218
H34 H 0.8248 0.6521 0.6289
H35 H 0.8469 0.5800 0.6384
C34 C 0.6059(4) 0.59127(19) 0.6213(3)
H36 H 0.6281 0.5535 0.5947
H37 H 0.5900 0.6237 0.5762
H38 H 0.5312 0.5844 0.6433
C35 C 0.6829(4) 0.66837(17) 0.7433(3)
H39 H 0.6024 0.6642 0.7584
H40 H 0.6800 0.7029 0.7024
H41 H 0.7475 0.6756 0.7979
Cl2 Cl 0.35012(9) 0.32687(5) 0.91409(6)
N3 N 0.3763(3) 0.28281(14) 0.5870(2)
N4 N 0.0623(3) 0.26231(13) 0.4764(2)
O8 O 0.3065(2) 0.26793(14) 0.43252(18)
O9 O 0.5340(2) 0.25590(12) 0.52786(17)
O10 O 0.5644(2) 0.25775(14) 0.67803(18)
O11 O 0.1311(2) 0.46815(11) 0.45644(18)
O12 O 0.3031(2) 0.41669(12) 0.52656(18)
O13 O 0.1609(2) 0.18657(11) 0.55844(17)
O14 O -0.0414(2) 0.17340(11) 0.48335(18)
C36 C 0.2892(3) 0.28243(16) 0.5037(2)
C37 C 0.1626(3) 0.30370(16) 0.5193(2)
C38 C 0.1911(3) 0.30958(15) 0.6200(2)
C39 C 0.1140(3) 0.32556(17) 0.6738(2)
H42 H 0.0285 0.3330 0.6488
C40 C 0.1628(4) 0.33068(18) 0.7659(2)
H43 H 0.1111 0.3412 0.8045
C41 C 0.2888(4) 0.32001(19) 0.7997(2)
C42 C 0.3684(4) 0.30390(18) 0.7467(3)
H44 H 0.4541 0.2968 0.7716
C43 C 0.3173(3) 0.29863(16) 0.6558(2)
C44 C 0.5012(3) 0.26382(17) 0.6040(2)
C45 C 0.6560(3) 0.22918(16) 0.5269(2)
C46 C 0.6671(4) 0.16607(18) 0.5689(3)
H45 H 0.6744 0.1699 0.6333
H46 H 0.7408 0.1456 0.5586
H47 H 0.5932 0.1421 0.5420
C47 C 0.7590(3) 0.27100(17) 0.5723(3)
H48 H 0.7497 0.3105 0.5417
H49 H 0.8390 0.2529 0.5702
H50 H 0.7556 0.2768 0.6347
C48 C 0.6474(4) 0.22468(19) 0.4269(3)
H51 H 0.5798 0.1969 0.3995
H52 H 0.7258 0.2090 0.4172
H53 H 0.6311 0.2652 0.3998
C49 C 0.1165(3) 0.36314(16) 0.4729(2)
C50 C 0.0054(3) 0.35680(16) 0.4180(2)
H54 H -0.0404 0.3897 0.3860
C51 C -0.0400(3) 0.29260(16) 0.4119(2)
H55 H -0.1170 0.2904 0.4346
C52 C 0.1946(3) 0.41787(17) 0.4893(2)
C53 C 0.2058(4) 0.52276(17) 0.4564(3)
H56 H 0.2766 0.5227 0.5094
H57 H 0.1551 0.5596 0.4593
C54 C 0.2527(4) 0.52422(17) 0.3725(3)
C55 C 0.3781(4) 0.52081(18) 0.3757(3)
H58 H 0.4363 0.5167 0.4315
C56 C 0.4191(4) 0.5234(2) 0.2977(3)
H59 H 0.5053 0.5222 0.3003
C57 C 0.3349(5) 0.5277(2) 0.2165(4)
H60 H 0.3630 0.5287 0.1629
C58 C 0.2091(5) 0.5304(3) 0.2128(3)
H61 H 0.1505 0.5335 0.1569
C59 C 0.1695(4) 0.5287(2) 0.2917(3)
H62 H 0.0834 0.5307 0.2894
C60 C -0.0675(3) 0.26685(17) 0.3159(2)
H63 H -0.0775 0.2216 0.3197
C61 C 0.0359(4) 0.27872(19) 0.2683(3)
H64 H 0.1133 0.2593 0.3024
H65 H 0.0506 0.3232 0.2664
C62 C 0.0032(5) 0.2535(2) 0.1733(3)
H66 H -0.0044 0.2085 0.1752
H67 H 0.0705 0.2634 0.1435
C63 C -0.1186(5) 0.2808(2) 0.1198(3)
H68 H -0.1083 0.3253 0.1130
H69 H -0.1402 0.2624 0.0594
C64 C -0.2233(4) 0.2694(2) 0.1659(3)
H70 H -0.2405 0.2250 0.1661
H71 H -0.2994 0.2900 0.1322
C65 C -0.1904(4) 0.29300(19) 0.2619(3)
H72 H -0.2573 0.2819 0.2913
H73 H -0.1847 0.3381 0.2612
C66 C 0.0516(3) 0.20381(16) 0.5051(2)
C67 C 0.1668(4) 0.13317(16) 0.6193(3)
C68 C 0.3000(4) 0.1352(2) 0.6731(3)
H74 H 0.3558 0.1333 0.6326
H75 H 0.3160 0.1003 0.7141
H76 H 0.3144 0.1733 0.7075
C69 C 0.0784(4) 0.1434(2) 0.6786(3)
H77 H 0.0938 0.1836 0.7070
H78 H 0.0910 0.1116 0.7247
H79 H -0.0071 0.1415 0.6425
C70 C 0.1418(4) 0.07478(17) 0.5641(3)
H80 H 0.0579 0.0763 0.5253
H81 H 0.1490 0.0395 0.6042
H82 H 0.2023 0.0710 0.5274
O15 O 0.5845(8) 0.8099(2) 0.8770(3)
C71 C 0.6286(6) 0.8462(3) 0.7420(5)
H83 H 0.6566 0.8852 0.7711
H84 H 0.5872 0.8535 0.6793
H85 H 0.7001 0.8194 0.7455
C72 C 0.5405(7) 0.8170(3) 0.7878(5)
H86 H 0.4641 0.8419 0.7771
H87 H 0.5177 0.7764 0.7607
C73 C 0.4675(6) 0.6828(3) -0.0154(4)
H88 H 0.3902 0.6605 -0.0428
H89 H 0.4446 0.7248 -0.0018
C74 C 0.5288(8) 0.6529(4) 0.0660(6)
H90 H 0.5470 0.6105 0.0533
H91 H 0.4749 0.6536 0.1079
H92 H 0.6064 0.6743 0.0925
O16 O 0.5431(4) 0.68530(18) -0.0765(2)
O17 O 0.7131(7) 0.9241(3) 0.9384(5)
C75 C 0.8499(10) 0.9151(5) 0.9417(7)
H93 H 0.8587 0.9107 0.8796
H94 H 0.8944 0.9528 0.9662
C76 C 0.9080(10) 0.8671(5) 0.9897(7)
H95 H 0.8952 0.8688 1.0504
H96 H 0.9969 0.8690 0.9924
H97 H 0.8737 0.8289 0.9611
loop_
_geom_bond_atom_site_label_1
_geom_bond_atom_site_label_2
_geom_bond_site_symmetry_1
_geom_bond_site_symmetry_2
Cl1 C6 1_555 1_555
N1 C1 1_555 1_555
N2 C2 1_555 1_555
O1 C1 1_555 1_555
O2 C9 1_555 1_555
O3 C9 1_555 1_555
O4 C17 1_555 1_555
O5 C17 1_555 1_555
O6 C31 1_555 1_555
O7 C31 1_555 1_555
C1 C2 1_555 1_555
C2 C3 1_555 1_555
C3 C4 1_555 1_555
C4 H1 1_555 1_555
C5 C4 1_555 1_555
H2 C5 1_555 1_555
C6 C5 1_555 1_555
C7 C6 1_555 1_555
H3 C7 1_555 1_555
C8 N1 1_555 1_555
C9 N1 1_555 1_555
C10 O2 1_555 1_555
C11 C10 1_555 1_555
H4 C11 1_555 1_555
H5 C11 1_555 1_555
H6 C11 1_555 1_555
C12 C10 1_555 1_555
H7 C12 1_555 1_555
H8 C12 1_555 1_555
H9 C12 1_555 1_555
C13 C10 1_555 1_555
H10 C13 1_555 1_555
H11 C13 1_555 1_555
H12 C13 1_555 1_555
C14 C2 1_555 1_555
C15 C14 1_555 1_555
H13 C15 1_555 1_555
C16 N2 1_555 1_555
H14 C16 1_555 1_555
C17 C14 1_555 1_555
C18 O4 1_555 1_555
H15 C18 1_555 1_555
H16 C18 1_555 1_555
C19 C18 1_555 1_555
C20 C19 1_555 1_555
H17 C20 1_555 1_555
C21 C20 1_555 1_555
H18 C21 1_555 1_555
C22 C21 1_555 1_555
H19 C22 1_555 1_555
C23 C22 1_555 1_555
H20 C23 1_555 1_555
C24 C19 1_555 1_555
H21 C24 1_555 1_555
C25 C16 1_555 1_555
H22 C25 1_555 1_555
C26 C25 1_555 1_555
H23 C26 1_555 1_555
H24 C26 1_555 1_555
C27 C26 1_555 1_555
H25 C27 1_555 1_555
H26 C27 1_555 1_555
C28 C27 1_555 1_555
H27 C28 1_555 1_555
H28 C28 1_555 1_555
C29 C28 1_555 1_555
H29 C29 1_555 1_555
H30 C29 1_555 1_555
C30 C25 1_555 1_555
H31 C30 1_555 1_555
H32 C30 1_555 1_555
C31 N2 1_555 1_555
C32 O6 1_555 1_555
C33 C32 1_555 1_555
H33 C33 1_555 1_555
H34 C33 1_555 1_555
H35 C33 1_555 1_555
C34 C32 1_555 1_555
H36 C34 1_555 1_555
H37 C34 1_555 1_555
H38 C34 1_555 1_555
C35 C32 1_555 1_555
H39 C35 1_555 1_555
H40 C35 1_555 1_555
H41 C35 1_555 1_555
Cl2 C41 1_555 1_555
N3 C36 1_555 1_555
N4 C37 1_555 1_555
O8 C36 1_555 1_555
O9 C44 1_555 1_555
O10 C44 1_555 1_555
O11 C52 1_555 1_555
O12 C52 1_555 1_555
O13 C66 1_555 1_555
O14 C66 1_555 1_555
C36 C37 1_555 1_555
C37 C38 1_555 1_555
C38 C39 1_555 1_555
C39 H42 1_555 1_555
C40 C39 1_555 1_555
H43 C40 1_555 1_555
C41 C40 1_555 1_555
C42 C41 1_555 1_555
H44 C42 1_555 1_555
C43 N3 1_555 1_555
C44 N3 1_555 1_555
C45 O9 1_555 1_555
C46 C45 1_555 1_555
H45 C46 1_555 1_555
H46 C46 1_555 1_555
H47 C46 1_555 1_555
C47 C45 1_555 1_555
H48 C47 1_555 1_555
H49 C47 1_555 1_555
H50 C47 1_555 1_555
C48 C45 1_555 1_555
H51 C48 1_555 1_555
H52 C48 1_555 1_555
H53 C48 1_555 1_555
C49 C37 1_555 1_555
C50 C49 1_555 1_555
H54 C50 1_555 1_555
C51 N4 1_555 1_555
H55 C51 1_555 1_555
C52 C49 1_555 1_555
C53 O11 1_555 1_555
H56 C53 1_555 1_555
H57 C53 1_555 1_555
C54 C53 1_555 1_555
C55 C54 1_555 1_555
H58 C55 1_555 1_555
C56 C55 1_555 1_555
H59 C56 1_555 1_555
C57 C56 1_555 1_555
H60 C57 1_555 1_555
C58 C57 1_555 1_555
H61 C58 1_555 1_555
C59 C54 1_555 1_555
H62 C59 1_555 1_555
C60 C51 1_555 1_555
H63 C60 1_555 1_555
C61 C60 1_555 1_555
H64 C61 1_555 1_555
H65 C61 1_555 1_555
C62 C61 1_555 1_555
H66 C62 1_555 1_555
H67 C62 1_555 1_555
C63 C62 1_555 1_555
H68 C63 1_555 1_555
H69 C63 1_555 1_555
C64 C63 1_555 1_555
H70 C64 1_555 1_555
H71 C64 1_555 1_555
C65 C60 1_555 1_555
H72 C65 1_555 1_555
H73 C65 1_555 1_555
C66 N4 1_555 1_555
C67 O13 1_555 1_555
C68 C67 1_555 1_555
H74 C68 1_555 1_555
H75 C68 1_555 1_555
H76 C68 1_555 1_555
C69 C67 1_555 1_555
H77 C69 1_555 1_555
H78 C69 1_555 1_555
H79 C69 1_555 1_555
C70 C67 1_555 1_555
H80 C70 1_555 1_555
H81 C70 1_555 1_555
H82 C70 1_555 1_555
O15 C72 1_555 1_555
C71 H83 1_555 1_555
H84 C71 1_555 1_555
H85 C71 1_555 1_555
C72 C71 1_555 1_555
H86 C72 1_555 1_555
H87 C72 1_555 1_555
C73 H88 1_555 1_555
H89 C73 1_555 1_555
C74 C73 1_555 1_555
H90 C74 1_555 1_555
H91 C74 1_555 1_555
H92 C74 1_555 1_555
O16 C73 1_555 1_555
O17 C75 1_555 1_555
C75 H93 1_555 1_555
H94 C75 1_555 1_555
C76 C75 1_555 1_555
H95 C76 1_555 1_555
H96 C76 1_555 1_555
H97 C76 1_555 1_555
C3 C8 1_555 1_555
C7 C8 1_555 1_555
C15 C16 1_555 1_555
C23 C24 1_555 1_555
C29 C30 1_555 1_555
C38 C43 1_555 1_555
C42 C43 1_555 1_555
C50 C51 1_555 1_555
C58 C59 1_555 1_555
C64 C65 1_555 1_555

#END
