
#######################################################################
#
#                 Cambridge Crystallographic Data Centre
#                                CCDC 
#
#######################################################################
#
# If this CIF has been generated from an entry in the Cambridge 
# Structural Database, then it will include bibliographic, chemical, 
# crystal, experimental, refinement or atomic coordinate data resulting 
# from the CCDC's data processing and validation procedures.
#
#######################################################################

data_ISIBET
_chemical_formula_moiety         'C27 H20 Br1 N1 O6'
_chemical_name_systematic        
'methyl 3-(3-(2-bromobenzyl)-2-oxo-2,3-dihydro-1-benzofuran-3-yl)-2-(1,3-dioxo-1,3-dihydro-2H-isoindol-2-yl)propanoate'
_symmetry_cell_setting           orthorhombic
_symmetry_space_group_name_H-M   'P 21 21 21'
_symmetry_Int_Tables_number      19
_space_group_name_Hall           'P 2ac 2ab'
loop_
_symmetry_equiv_pos_site_id
_symmetry_equiv_pos_as_xyz
1 x,y,z
2 1/2-x,-y,1/2+z
3 -x,1/2+y,1/2-z
4 1/2+x,1/2-y,-z
_cell_length_a                   7.889(2)
_cell_length_b                   13.052(3)
_cell_length_c                   23.300(6)
_cell_angle_alpha                90
_cell_angle_beta                 90
_cell_angle_gamma                90
_cell_volume                     2399.14
_exptl_crystal_colour            colorless
_exptl_crystal_description       block
_cell_formula_units_Z            4
loop_
_atom_site_label
_atom_site_type_symbol
_atom_site_fract_x
_atom_site_fract_y
_atom_site_fract_z
Br1 Br 0.69605(6) 0.65989(4) 0.15266(2)
O1 O 0.7804(4) 0.37414(19) 0.36123(10)
O2 O 0.9933(3) 0.37587(18) 0.29808(11)
O3 O 1.0505(4) 0.7076(2) 0.47732(11)
O4 O 0.9092(4) 0.79394(19) 0.40915(11)
O5 O 0.8705(3) 0.4928(2) 0.47666(10)
O6 O 1.3402(3) 0.56257(19) 0.36874(10)
N1 N 1.0777(4) 0.5379(2) 0.41076(11)
C1 C 0.8360(4) 0.5316(2) 0.30648(12)
C2 C 0.8266(4) 0.6065(2) 0.35697(13)
H1 H 0.7796 0.6708 0.3434
H2 H 0.7494 0.5790 0.3855
C3 C 0.9971(4) 0.6278(2) 0.38562(14)
H3 H 1.0732 0.6523 0.3554
C4 C 0.9879(5) 0.7130(3) 0.43065(15)
C5 C 0.8976(7) 0.8817(3) 0.4474(2)
H4 H 0.8569 0.9400 0.4264
H5 H 1.0077 0.8967 0.4628
H6 H 0.8207 0.8665 0.4781
C6 C 1.0147(4) 0.4861(3) 0.45941(13)
C7 C 1.1590(4) 0.4268(2) 0.48256(13)
C8 C 1.1698(5) 0.3651(2) 0.53103(14)
H7 H 1.0749 0.3509 0.5533
C9 C 1.3272(6) 0.3257(3) 0.54490(15)
H8 H 1.3382 0.2839 0.5770
C10 C 1.4684(5) 0.3471(3) 0.51201(15)
H9 H 1.5727 0.3201 0.5229
C11 C 1.4591(5) 0.4079(3) 0.46298(16)
H10 H 1.5539 0.4215 0.4405
C12 C 1.3014(5) 0.4468(2) 0.44961(13)
C13 C 1.2524(4) 0.5209(3) 0.40433(14)
C14 C 0.8609(4) 0.4208(3) 0.32685(14)
C15 C 1.0651(5) 0.4499(3) 0.26179(15)
C16 C 1.1973(6) 0.4309(4) 0.22527(17)
H11 H 1.2466 0.3665 0.2220
C17 C 1.2533(5) 0.5149(4) 0.19312(17)
H12 H 1.3399 0.5057 0.1665
C18 C 1.1834(6) 0.6110(4) 0.19993(15)
H13 H 1.2279 0.6660 0.1795
C19 C 1.0477(5) 0.6267(3) 0.23672(15)
H14 H 0.9994 0.6913 0.2408
C20 C 0.9863(4) 0.5438(3) 0.26712(14)
C21 C 0.6653(4) 0.5360(3) 0.27302(13)
H15 H 0.5753 0.5123 0.2981
H16 H 0.6414 0.6068 0.2633
C22 C 0.6621(4) 0.4730(3) 0.21860(14)
C23 C 0.6792(5) 0.5155(3) 0.16382(14)
C24 C 0.6731(5) 0.4559(4) 0.11456(16)
H17 H 0.6859 0.4859 0.0786
C25 C 0.6477(5) 0.3514(5) 0.11944(19)
H18 H 0.6419 0.3110 0.0866
C26 C 0.6309(5) 0.3069(4) 0.1729(2)
H19 H 0.6155 0.2365 0.1761
C27 C 0.6371(5) 0.3674(3) 0.22166(16)
H20 H 0.6241 0.3368 0.2574
loop_
_geom_bond_atom_site_label_1
_geom_bond_atom_site_label_2
_geom_bond_site_symmetry_1
_geom_bond_site_symmetry_2
Br1 C23 1_555 1_555
O1 C14 1_555 1_555
O2 C14 1_555 1_555
O3 C4 1_555 1_555
O4 C4 1_555 1_555
O5 C6 1_555 1_555
O6 C13 1_555 1_555
N1 C3 1_555 1_555
C1 C2 1_555 1_555
C2 H1 1_555 1_555
H2 C2 1_555 1_555
C3 C2 1_555 1_555
H3 C3 1_555 1_555
C4 C3 1_555 1_555
C5 O4 1_555 1_555
H4 C5 1_555 1_555
H5 C5 1_555 1_555
H6 C5 1_555 1_555
C6 N1 1_555 1_555
C7 C6 1_555 1_555
C8 C7 1_555 1_555
H7 C8 1_555 1_555
C9 C8 1_555 1_555
H8 C9 1_555 1_555
C10 C9 1_555 1_555
H9 C10 1_555 1_555
C11 C10 1_555 1_555
H10 C11 1_555 1_555
C12 C7 1_555 1_555
C13 N1 1_555 1_555
C14 C1 1_555 1_555
C15 O2 1_555 1_555
C16 C15 1_555 1_555
H11 C16 1_555 1_555
C17 C16 1_555 1_555
H12 C17 1_555 1_555
C18 C17 1_555 1_555
H13 C18 1_555 1_555
C19 C18 1_555 1_555
H14 C19 1_555 1_555
C20 C1 1_555 1_555
C21 C1 1_555 1_555
H15 C21 1_555 1_555
H16 C21 1_555 1_555
C22 C21 1_555 1_555
C23 C22 1_555 1_555
C24 C23 1_555 1_555
H17 C24 1_555 1_555
C25 C24 1_555 1_555
H18 C25 1_555 1_555
C26 C25 1_555 1_555
H19 C26 1_555 1_555
C27 C22 1_555 1_555
H20 C27 1_555 1_555
C11 C12 1_555 1_555
C12 C13 1_555 1_555
C15 C20 1_555 1_555
C19 C20 1_555 1_555
C26 C27 1_555 1_555

#END
