
#######################################################################
#
#                 Cambridge Crystallographic Data Centre
#                                CCDC 
#
#######################################################################
#
# If this CIF has been generated from an entry in the Cambridge 
# Structural Database, then it will include bibliographic, chemical, 
# crystal, experimental, refinement or atomic coordinate data resulting 
# from the CCDC's data processing and validation procedures.
#
#######################################################################

data_ISIBUI
_chemical_formula_moiety         'C9 H9 N2 S1 1+,0.5(C8 H4 O4 2-)'
_chemical_name_systematic        '2-Amino-4-phenylthiazolium hemikis(phthalate)'
_symmetry_cell_setting           tetragonal
_symmetry_space_group_name_H-M   'P 43 21 2'
_symmetry_Int_Tables_number      96
_space_group_name_Hall           'P 4nw 2abw'
loop_
_symmetry_equiv_pos_site_id
_symmetry_equiv_pos_as_xyz
1 x,y,z
2 -x,-y,1/2+z
3 1/2-y,1/2+x,3/4+z
4 1/2+y,1/2-x,1/4+z
5 1/2-x,1/2+y,3/4-z
6 1/2+x,1/2-y,1/4-z
7 y,x,-z
8 -y,-x,1/2-z
_cell_length_a                   9.3377(11)
_cell_length_b                   9.3377(11)
_cell_length_c                   27.079(2)
_cell_angle_alpha                90
_cell_angle_beta                 90
_cell_angle_gamma                90
_cell_volume                     2361.09
_exptl_crystal_colour            colorless
_exptl_crystal_description       block
_cell_formula_units_Z            8
loop_
_atom_site_label
_atom_site_type_symbol
_atom_site_fract_x
_atom_site_fract_y
_atom_site_fract_z
N1 N 0.2065(2) 0.5674(2) 1.02886(7)
H1 H 0.2855 0.5965 1.0160
S1 S -0.00773(7) 0.54437(8) 1.08562(3)
N2 N 0.2144(2) 0.7248(2) 1.09600(8)
H2 H 0.2956 0.7591 1.0868
H3 H 0.1738 0.7567 1.1223
C1 C 0.1525(3) 0.6237(3) 1.06993(8)
C2 C 0.1247(2) 0.4575(3) 1.00838(9)
C3 C 0.0063(3) 0.4332(3) 1.03502(9)
H4 H -0.0612 0.3637 1.0271
C4 C 0.1692(3) 0.3869(3) 0.96227(8)
C5 C 0.0804(3) 0.2840(3) 0.94069(11)
H5 H -0.0056 0.2599 0.9559
C6 C 0.1184(3) 0.2177(3) 0.89710(12)
H6 H 0.0582 0.1495 0.8831
C7 C 0.2460(4) 0.2528(3) 0.87420(11)
H7 H 0.2713 0.2087 0.8447
C8 C 0.3346(3) 0.3518(3) 0.89493(10)
H8 H 0.4208 0.3746 0.8796
C9 C 0.2972(3) 0.4190(3) 0.93881(9)
H9 H 0.3587 0.4864 0.9526
O1 O 0.68080(18) 0.45406(18) 0.99927(6)
O2 O 0.7251(2) 0.5132(2) 0.92121(6)
C10 C 0.7183(3) 0.5410(3) 0.96652(9)
C11 C 0.7671(3) 0.6870(3) 0.98305(8)
C12 C 0.8965(3) 0.7406(3) 0.96648(10)
H10 H 0.9494 0.6883 0.9437
C13 C 0.9486(3) 0.8698(3) 0.98306(10)
H11 H 1.0361 0.9040 0.9716
O1F O 0.45406(18) 0.68080(18) 1.00073(6)
O2F O 0.5132(2) 0.7251(2) 1.07879(6)
C10F C 0.5410(3) 0.7183(3) 1.03348(9)
C11F C 0.6870(3) 0.7671(3) 1.01695(8)
C12F C 0.7406(3) 0.8965(3) 1.03352(10)
H10F H 0.6883 0.9494 1.0563
C13F C 0.8698(3) 0.9486(3) 1.01694(10)
H11F H 0.9040 1.0361 1.0284
loop_
_geom_bond_atom_site_label_1
_geom_bond_atom_site_label_2
_geom_bond_site_symmetry_1
_geom_bond_site_symmetry_2
N1 H1 1_555 1_555
O1 C10 1_555 1_555
O2 C10 1_555 1_555
S1 C1 1_555 1_555
N2 H2 1_555 1_555
H3 N2 1_555 1_555
C1 N1 1_555 1_555
C2 N1 1_555 1_555
C3 S1 1_555 1_555
H4 C3 1_555 1_555
C4 C2 1_555 1_555
C5 C4 1_555 1_555
H5 C5 1_555 1_555
C6 C5 1_555 1_555
H6 C6 1_555 1_555
C7 C6 1_555 1_555
H7 C7 1_555 1_555
C8 C7 1_555 1_555
H8 C8 1_555 1_555
C9 C4 1_555 1_555
H9 C9 1_555 1_555
C10 C11 1_555 1_555
C11 C12 1_555 1_555
C12 H10 1_555 1_555
C13 C12 1_555 1_555
H11 C13 1_555 1_555
O1F C10F 1_555 1_555
O2F C10F 1_555 1_555
C10F C11F 1_555 1_555
C11F C11 1_555 1_555
C12F C11F 1_555 1_555
H10F C12F 1_555 1_555
C13F C13 1_555 1_555
H11F C13F 1_555 1_555
N2 C1 1_555 1_555
C2 C3 1_555 1_555
C8 C9 1_555 1_555
C12F C13F 1_555 1_555

#END
