
#######################################################################
#
#                 Cambridge Crystallographic Data Centre
#                                CCDC 
#
#######################################################################
#
# If this CIF has been generated from an entry in the Cambridge 
# Structural Database, then it will include bibliographic, chemical, 
# crystal, experimental, refinement or atomic coordinate data resulting 
# from the CCDC's data processing and validation procedures.
#
#######################################################################

data_ISICET
_chemical_formula_moiety         'C10 H12 N3 1+,C10 H11 N3,C6 H3 Cl1 N1 O2 1-'
_chemical_name_systematic        
'2-Amino-5,7-dimethyl-1,8-naphthyridinium 2-amino-5,7-dimethyl-1,8-naphthyridine 2-chloronicotinate'
_symmetry_cell_setting           monoclinic
_symmetry_space_group_name_H-M   'P 21'
_symmetry_Int_Tables_number      4
_space_group_name_Hall           'P 2yb'
loop_
_symmetry_equiv_pos_site_id
_symmetry_equiv_pos_as_xyz
1 x,y,z
2 -x,1/2+y,-z
_cell_length_a                   7.4939(8)
_cell_length_b                   22.9214(19)
_cell_length_c                   7.7690(9)
_cell_angle_alpha                90
_cell_angle_beta                 114.214(2)
_cell_angle_gamma                90
_cell_volume                     1217.08
_exptl_crystal_colour            colorless
_exptl_crystal_description       block
_cell_formula_units_Z            2
loop_
_atom_site_label
_atom_site_type_symbol
_atom_site_fract_x
_atom_site_fract_y
_atom_site_fract_z
Cl1 Cl 0.7856(2) 0.0273(2) -0.16998(16)
N1 N 0.8682(5) 0.0282(6) 0.1862(5)
O1 O 0.2862(15) -0.0198(4) -0.2721(15)
O2 O 0.269(2) 0.0756(5) -0.2648(16)
C1 C 0.3551(7) 0.0258(7) -0.2109(6)
C2 C 0.7187(6) 0.0264(6) 0.0177(5)
C3 C 0.5239(7) 0.0266(5) -0.0146(5)
C4 C 0.4830(8) 0.0278(8) 0.1424(6)
H6 H 0.3540 0.0285 0.1293
C5 C 0.6343(11) 0.0278(10) 0.3190(6)
H7 H 0.6086 0.0282 0.4264
C6 C 0.8218(10) 0.0271(8) 0.3347(6)
H8 H 0.9227 0.0258 0.4548
N2 N 0.3716(12) 0.2340(4) 0.3542(15)
H1 H 0.4475 0.2592 0.4317
N3 N 0.3383(13) 0.2996(4) 0.1227(15)
N4 N 0.4082(17) 0.1740(5) 0.5957(17)
H2 H 0.4867 0.1987 0.6735
H3 H 0.3812 0.1419 0.6369
C7 C 0.3322(16) 0.1851(5) 0.4199(16)
C8 C 0.2173(18) 0.1386(4) 0.2956(19)
H9 H 0.1950 0.1032 0.3420
C9 C 0.1464(16) 0.1501(4) 0.1113(17)
H10 H 0.0740 0.1214 0.0267
C10 C 0.1766(15) 0.2034(5) 0.0398(17)
C11 C 0.2932(15) 0.2455(5) 0.1622(16)
C12 C 0.2699(16) 0.3118(5) -0.0594(19)
C13 C 0.1458(16) 0.2738(6) -0.1992(18)
H11 H 0.0924 0.2859 -0.3244
C14 C 0.1010(19) 0.2186(5) -0.1546(19)
C15 C 0.317(2) 0.3717(6) -0.1076(19)
H12 H 0.2103 0.3976 -0.1245
H13 H 0.3364 0.3699 -0.2221
H14 H 0.4338 0.3857 -0.0069
C16 C -0.027(2) 0.1776(7) -0.3044(19)
H15 H -0.1570 0.1785 -0.3092
H16 H 0.0244 0.1387 -0.2756
H17 H -0.0305 0.1893 -0.4244
N5 N 0.6269(13) 0.3197(4) 0.6338(14)
N6 N 0.6599(13) 0.2562(4) 0.8768(15)
N7 N 0.5846(14) 0.3824(5) 0.3839(15)
H4 H 0.5194 0.3553 0.3072
H5 H 0.6023 0.4154 0.3407
C17 C 0.6593(18) 0.3730(5) 0.572(2)
C18 C 0.7772(16) 0.4124(5) 0.7043(17)
H18 H 0.8017 0.4481 0.6617
C19 C 0.8581(13) 0.4020(5) 0.8899(17)
H19 H 0.9362 0.4302 0.9723
C20 C 0.8254(16) 0.3480(4) 0.9617(18)
C21 C 0.7038(13) 0.3074(5) 0.8211(18)
C22 C 0.7372(16) 0.2417(5) 1.0611(17)
C23 C 0.8515(18) 0.2805(5) 1.1971(18)
H20 H 0.8938 0.2704 1.3236
C24 C 0.9032(13) 0.3320(5) 1.1526(17)
C25 C 0.6819(18) 0.1840(5) 1.1095(18)
H21 H 0.5466 0.1845 1.0891
H22 H 0.7614 0.1754 1.2396
H23 H 0.7020 0.1546 1.0312
C26 C 1.0397(18) 0.3739(5) 1.3034(16)
H24 H 1.1422 0.3866 1.2682
H25 H 1.0958 0.3542 1.4228
H26 H 0.9664 0.4071 1.3134
O3? O 0.361(2) 0.0590(7) -0.3277(19)
loop_
_geom_bond_atom_site_label_1
_geom_bond_atom_site_label_2
_geom_bond_site_symmetry_1
_geom_bond_site_symmetry_2
Cl1 C2 1_555 1_555
N1 C2 1_555 1_555
N2 H1 1_555 1_555
N3 C11 1_555 1_555
N4 H2 1_555 1_555
H3 N4 1_555 1_555
N5 C17 1_555 1_555
N6 C21 1_555 1_555
N7 H4 1_555 1_555
H5 N7 1_555 1_555
O1 C1 1_555 1_555
O2 C1 1_555 1_555
C1 C3 1_555 1_555
C2 C3 1_555 1_555
C3 C4 1_555 1_555
C4 H6 1_555 1_555
C5 C4 1_555 1_555
H7 C5 1_555 1_555
C6 N1 1_555 1_555
H8 C6 1_555 1_555
C7 N2 1_555 1_555
C8 C7 1_555 1_555
H9 C8 1_555 1_555
C9 C8 1_555 1_555
H10 C9 1_555 1_555
C10 C9 1_555 1_555
C11 N2 1_555 1_555
C12 N3 1_555 1_555
C13 C12 1_555 1_555
H11 C13 1_555 1_555
C14 C10 1_555 1_555
C15 C12 1_555 1_555
H12 C15 1_555 1_555
H13 C15 1_555 1_555
H14 C15 1_555 1_555
C16 C14 1_555 1_555
H15 C16 1_555 1_555
H16 C16 1_555 1_555
H17 C16 1_555 1_555
C17 N7 1_555 1_555
C18 C17 1_555 1_555
H18 C18 1_555 1_555
C19 C18 1_555 1_555
H19 C19 1_555 1_555
C20 C19 1_555 1_555
C21 N5 1_555 1_555
C22 N6 1_555 1_555
C23 C22 1_555 1_555
H20 C23 1_555 1_555
C24 C20 1_555 1_555
C25 C22 1_555 1_555
H21 C25 1_555 1_555
H22 C25 1_555 1_555
H23 C25 1_555 1_555
C26 C24 1_555 1_555
H24 C26 1_555 1_555
H25 C26 1_555 1_555
H26 C26 1_555 1_555
N4 C7 1_555 1_555
C5 C6 1_555 1_555
C10 C11 1_555 1_555
C13 C14 1_555 1_555
C20 C21 1_555 1_555
C23 C24 1_555 1_555

#END
