
#######################################################################
#
#                 Cambridge Crystallographic Data Centre
#                                CCDC 
#
#######################################################################
#
# If this CIF has been generated from an entry in the Cambridge 
# Structural Database, then it will include bibliographic, chemical, 
# crystal, experimental, refinement or atomic coordinate data resulting 
# from the CCDC's data processing and validation procedures.
#
#######################################################################

data_ISIFIB
_chemical_formula_moiety         'C19 H22 F1 N1 O1 S1'
_chemical_name_systematic        
(R~S~)-N-((S,Z)-2-fluoro-1,3-diphenylallyl)-2-methylpropane-2-sulfinamide
_symmetry_cell_setting           orthorhombic
_symmetry_space_group_name_H-M   'P 21 21 21'
_symmetry_Int_Tables_number      19
_space_group_name_Hall           'P 2ac 2ab'
loop_
_symmetry_equiv_pos_site_id
_symmetry_equiv_pos_as_xyz
1 x,y,z
2 1/2-x,-y,1/2+z
3 -x,1/2+y,1/2-z
4 1/2+x,1/2-y,-z
_cell_length_a                   5.88100(10)
_cell_length_b                   10.2690(2)
_cell_length_c                   28.3798(6)
_cell_angle_alpha                90
_cell_angle_beta                 90
_cell_angle_gamma                90
_cell_volume                     1713.91
_exptl_crystal_colour            colorless
_exptl_crystal_description       polyhedron
_cell_formula_units_Z            4
loop_
_atom_site_label
_atom_site_type_symbol
_atom_site_fract_x
_atom_site_fract_y
_atom_site_fract_z
S1 S 0.09228(6) 0.38771(3) 0.98265(2)
C1 C -0.0919(3) 0.53284(13) 0.98328(6)
C2 C 0.1002(3) 0.12364(15) 0.88326(5)
C3 C 0.1418(3) 0.26038(15) 0.90227(5)
H1 H 0.2974 0.2608 0.9165
C4 C -0.0367(3) 0.60824(18) 0.93847(6)
H2 H -0.1160 0.6921 0.9390
H3 H -0.0862 0.5579 0.9110
H4 H 0.1277 0.6231 0.9367
C5 C 0.3182(3) 0.42581(15) 0.84690(6)
H5 H 0.4570 0.4117 0.8632
C6 C -0.0194(3) 0.60825(17) 1.02703(6)
H6 H -0.0590 0.5582 1.0553
H7 H -0.0980 0.6924 1.0278
H8 H 0.1452 0.6226 1.0262
C7 C 0.5243(3) 0.59900(18) 0.80545(7)
H9 H 0.6432 0.5881 0.8278
C8 C 0.1436(3) 0.35652(15) 0.86244(5)
C9 C -0.3411(3) 0.49605(16) 0.98574(7)
H10 H -0.4335 0.5751 0.9883
H11 H -0.3673 0.4407 1.0133
H12 H -0.3837 0.4485 0.9571
C10 C 0.3305(3) 0.52095(16) 0.80841(6)
C11 C 0.1600(3) 0.53709(17) 0.77450(6)
H13 H 0.0281 0.4837 0.7754
C12 C -0.0973(4) 0.05343(16) 0.88997(6)
H14 H -0.2179 0.0892 0.9081
C13 C 0.0530(4) -0.12293(18) 0.84352(7)
H15 H 0.0368 -0.2072 0.8301
C14 C 0.5455(3) 0.69242(18) 0.77031(7)
H16 H 0.6785 0.7447 0.7687
C15 C 0.2747(3) 0.06997(18) 0.85627(7)
H17 H 0.4111 0.1177 0.8514
C16 C 0.1834(4) 0.63103(19) 0.73959(6)
H18 H 0.0669 0.6414 0.7167
C17 C 0.3733(4) 0.70930(17) 0.73774(6)
H19 H 0.3859 0.7746 0.7142
C18 C 0.2502(4) -0.0527(2) 0.83645(7)
H20 H 0.3694 -0.0885 0.8179
C19 C -0.1198(4) -0.07044(17) 0.87007(6)
H21 H -0.2555 -0.1187 0.8749
F1 F -0.06625(18) 0.36819(10) 0.84247(3)
N1 N -0.0166(3) 0.30283(14) 0.93898(5)
O1 O 0.0457(2) 0.31953(11) 1.02831(4)
H22 H -0.141(5) 0.266(2) 0.9439(8)
loop_
_geom_bond_atom_site_label_1
_geom_bond_atom_site_label_2
_geom_bond_site_symmetry_1
_geom_bond_site_symmetry_2
S1 C1 1_555 1_555
C1 C4 1_555 1_555
C2 C3 1_555 1_555
C3 H1 1_555 1_555
C4 H2 1_555 1_555
H3 C4 1_555 1_555
H4 C4 1_555 1_555
C5 H5 1_555 1_555
C6 C1 1_555 1_555
H6 C6 1_555 1_555
H7 C6 1_555 1_555
H8 C6 1_555 1_555
C7 H9 1_555 1_555
C8 C3 1_555 1_555
C9 C1 1_555 1_555
H10 C9 1_555 1_555
H11 C9 1_555 1_555
H12 C9 1_555 1_555
C10 C5 1_555 1_555
C11 C10 1_555 1_555
H13 C11 1_555 1_555
C12 C2 1_555 1_555
H14 C12 1_555 1_555
C13 H15 1_555 1_555
C14 C7 1_555 1_555
H16 C14 1_555 1_555
C15 C2 1_555 1_555
H17 C15 1_555 1_555
C16 C11 1_555 1_555
H18 C16 1_555 1_555
C17 C14 1_555 1_555
H19 C17 1_555 1_555
C18 C13 1_555 1_555
H20 C18 1_555 1_555
C19 C12 1_555 1_555
H21 C19 1_555 1_555
F1 C8 1_555 1_555
N1 S1 1_555 1_555
O1 S1 1_555 1_555
H22 N1 1_555 1_555
C3 N1 1_555 1_555
C5 C8 1_555 1_555
C7 C10 1_555 1_555
C13 C19 1_555 1_555
C15 C18 1_555 1_555
C16 C17 1_555 1_555

#END
