
#######################################################################
#
#                 Cambridge Crystallographic Data Centre
#                                CCDC 
#
#######################################################################
#
# If this CIF has been generated from an entry in the Cambridge 
# Structural Database, then it will include bibliographic, chemical, 
# crystal, experimental, refinement or atomic coordinate data resulting 
# from the CCDC's data processing and validation procedures.
#
#######################################################################

data_ISIFOH
_chemical_formula_moiety         'C16 H24 F1 N1 O1 S1'
_chemical_name_systematic        
(S,Rs)-N-((Z)-2-fluoro-4-methyl-1-phenylpent-1-en-3-yl)-2-methylpropane-2-sulfinamide
_symmetry_cell_setting           monoclinic
_symmetry_space_group_name_H-M   'P 21'
_symmetry_Int_Tables_number      4
_space_group_name_Hall           'P 2yb'
loop_
_symmetry_equiv_pos_site_id
_symmetry_equiv_pos_as_xyz
1 x,y,z
2 -x,1/2+y,-z
_cell_length_a                   9.2022(3)
_cell_length_b                   9.5172(3)
_cell_length_c                   9.6357(3)
_cell_angle_alpha                90
_cell_angle_beta                 104.3447(13)
_cell_angle_gamma                90
_cell_volume                     817.577
_exptl_crystal_colour            colorless
_exptl_crystal_description       block
_cell_formula_units_Z            2
loop_
_atom_site_label
_atom_site_type_symbol
_atom_site_fract_x
_atom_site_fract_y
_atom_site_fract_z
S1 S 0.12634(3) 0.23727(3) 0.06146(3)
F1 F 0.15813(10) -0.05062(9) 0.37164(10)
O1 O 0.02841(13) 0.32739(12) -0.05122(12)
N1 N 0.02140(12) 0.12409(11) 0.12162(11)
C1 C 0.22649(12) 0.12215(13) -0.03696(13)
C2 C 0.00931(12) 0.14447(13) 0.26979(12)
H1 H 0.0010 0.2477 0.2859
C3 C 0.14667(13) 0.09168(13) 0.37607(13)
C4 C 0.63822(15) 0.18095(15) 0.71237(15)
H2 H 0.7142 0.2492 0.7455
C5 C 0.50374(14) 0.21938(15) 0.61723(13)
H3 H 0.4881 0.3145 0.5874
C6 C 0.41570(14) -0.01881(14) 0.61265(13)
H4 H 0.3406 -0.0878 0.5793
C7 C 0.39115(13) 0.11976(13) 0.56479(12)
C8 C -0.13544(14) 0.07432(14) 0.28852(14)
H5 H -0.1322 -0.0274 0.2636
C9 C 0.34108(15) 0.21913(17) -0.07928(15)
H6 H 0.4077 0.2589 0.0072
H7 H 0.2885 0.2953 -0.1398
H8 H 0.4004 0.1653 -0.1323
C10 C 0.25226(13) 0.16732(13) 0.46358(13)
H9 H 0.2359 0.2659 0.4604
C11 C 0.54975(15) -0.05664(15) 0.70902(15)
H10 H 0.5651 -0.1512 0.7410
C12 C 0.66091(14) 0.04290(16) 0.75864(15)
H11 H 0.7521 0.0165 0.8240
C13 C 0.30489(15) 0.00681(16) 0.06334(17)
H12 H 0.3798 -0.0390 0.0220
H13 H 0.2308 -0.0627 0.0764
H14 H 0.3545 0.0478 0.1563
C14 C -0.14688(18) 0.0850(2) 0.44338(16)
H15 H -0.1400 0.1838 0.4729
H16 H -0.0648 0.0318 0.5055
H17 H -0.2432 0.0462 0.4512
C15 C -0.27290(15) 0.1403(2) 0.18715(17)
H18 H -0.3638 0.0933 0.1989
H19 H -0.2654 0.1296 0.0880
H20 H -0.2776 0.2404 0.2095
C16 C 0.11646(16) 0.06378(17) -0.17000(15)
H21 H 0.1723 0.0172 -0.2314
H22 H 0.0569 0.1409 -0.2229
H23 H 0.0496 -0.0042 -0.1410
H24 H 0.003(2) 0.042(3) 0.090(2)
loop_
_geom_bond_atom_site_label_1
_geom_bond_atom_site_label_2
_geom_bond_site_symmetry_1
_geom_bond_site_symmetry_2
S1 O1 1_555 1_555
F1 C3 1_555 1_555
N1 S1 1_555 1_555
C1 S1 1_555 1_555
C2 N1 1_555 1_555
H1 C2 1_555 1_555
C3 C2 1_555 1_555
C4 H2 1_555 1_555
C5 C4 1_555 1_555
H3 C5 1_555 1_555
C6 H4 1_555 1_555
C7 C5 1_555 1_555
C8 C2 1_555 1_555
H5 C8 1_555 1_555
C9 C1 1_555 1_555
H6 C9 1_555 1_555
H7 C9 1_555 1_555
H8 C9 1_555 1_555
C10 C3 1_555 1_555
H9 C10 1_555 1_555
C11 C6 1_555 1_555
H10 C11 1_555 1_555
C12 C4 1_555 1_555
H11 C12 1_555 1_555
C13 C1 1_555 1_555
H12 C13 1_555 1_555
H13 C13 1_555 1_555
H14 C13 1_555 1_555
C14 C8 1_555 1_555
H15 C14 1_555 1_555
H16 C14 1_555 1_555
H17 C14 1_555 1_555
C15 C8 1_555 1_555
H18 C15 1_555 1_555
H19 C15 1_555 1_555
H20 C15 1_555 1_555
C16 C1 1_555 1_555
H21 C16 1_555 1_555
H22 C16 1_555 1_555
H23 C16 1_555 1_555
H24 N1 1_555 1_555
C6 C7 1_555 1_555
C7 C10 1_555 1_555
C11 C12 1_555 1_555

#END
