
#######################################################################
#
#                 Cambridge Crystallographic Data Centre
#                                CCDC 
#
#######################################################################
#
# If this CIF has been generated from an entry in the Cambridge 
# Structural Database, then it will include bibliographic, chemical, 
# crystal, experimental, refinement or atomic coordinate data resulting 
# from the CCDC's data processing and validation procedures.
#
#######################################################################

data_ISIHOJ
_chemical_formula_moiety         'C16 H11 N1 O2'
_chemical_name_systematic        phenyl(4-phenyl-1,3-oxazol-2-yl)methanone
_symmetry_cell_setting           monoclinic
_symmetry_space_group_name_H-M   'P 21/c'
_symmetry_Int_Tables_number      14
_space_group_name_Hall           '-P 2ybc'
loop_
_symmetry_equiv_pos_site_id
_symmetry_equiv_pos_as_xyz
1 x,y,z
2 -x,1/2+y,1/2-z
3 -x,-y,-z
4 x,1/2-y,1/2+z
_cell_length_a                   4.7512(4)
_cell_length_b                   18.8488(17)
_cell_length_c                   13.9902(12)
_cell_angle_alpha                90
_cell_angle_beta                 93.714(3)
_cell_angle_gamma                90
_cell_volume                     1250.25
_exptl_crystal_colour            colorless
_exptl_crystal_description       block
_cell_formula_units_Z            4
loop_
_atom_site_label
_atom_site_type_symbol
_atom_site_fract_x
_atom_site_fract_y
_atom_site_fract_z
C1 C -0.2504(6) 0.73010(16) 0.0549(2)
C2 C -0.2631(8) 0.7060(2) -0.0395(2)
H1 H -0.1456 0.6694 -0.0570
C3 C -0.4503(9) 0.7365(2) -0.1067(2)
H2 H -0.4568 0.7204 -0.1696
C4 C -0.6280(8) 0.7904(2) -0.0826(3)
H3 H -0.7540 0.8105 -0.1286
C5 C -0.6163(8) 0.8141(2) 0.0105(3)
H4 H -0.7359 0.8503 0.0277
C6 C -0.4291(7) 0.78469(18) 0.0782(2)
H5 H -0.4222 0.8017 0.1408
C7 C -0.0487(7) 0.70346(16) 0.1312(2)
C8 C 0.1085(6) 0.63653(16) 0.1199(2)
O1 O 0.0657(6) 0.58645(16) 0.0564(2)
C9 C 0.4055(6) 0.55411(16) 0.1652(2)
C10 C 0.6230(6) 0.52086(16) 0.2275(2)
C11 C 0.7036(8) 0.45145(19) 0.2092(3)
H6 H 0.6202 0.4272 0.1568
C12 C 0.9066(9) 0.4185(2) 0.2685(3)
H7 H 0.9573 0.3719 0.2563
C13 C 1.0351(9) 0.4540(2) 0.3454(3)
H8 H 1.1734 0.4317 0.3848
C14 C 0.9575(9) 0.5225(2) 0.3635(3)
H9 H 1.0427 0.5465 0.4158
C15 C 0.7545(7) 0.55630(18) 0.3051(3)
H10 H 0.7055 0.6030 0.3177
C16 C 0.2548(8) 0.5342(2) 0.0853(3)
H11 H 0.2752 0.4911 0.0539
N1 N 0.3131(4) 0.62041(11) 0.18824(14)
O2 O -0.0048(6) 0.73563(13) 0.20689(16)
loop_
_geom_bond_atom_site_label_1
_geom_bond_atom_site_label_2
_geom_bond_site_symmetry_1
_geom_bond_site_symmetry_2
C1 C2 1_555 1_555
C2 H1 1_555 1_555
C3 C2 1_555 1_555
H2 C3 1_555 1_555
C4 C3 1_555 1_555
H3 C4 1_555 1_555
C5 C4 1_555 1_555
H4 C5 1_555 1_555
C6 C1 1_555 1_555
H5 C6 1_555 1_555
C7 C1 1_555 1_555
C8 C7 1_555 1_555
O1 C8 1_555 1_555
C9 C10 1_555 1_555
C10 C11 1_555 1_555
C11 H6 1_555 1_555
C12 C11 1_555 1_555
H7 C12 1_555 1_555
C13 C12 1_555 1_555
H8 C13 1_555 1_555
C14 C13 1_555 1_555
H9 C14 1_555 1_555
C15 C10 1_555 1_555
H10 C15 1_555 1_555
C16 O1 1_555 1_555
H11 C16 1_555 1_555
N1 C8 1_555 1_555
O2 C7 1_555 1_555
C5 C6 1_555 1_555
C9 C16 1_555 1_555
C9 N1 1_555 1_555
C14 C15 1_555 1_555

#END
