
#######################################################################
#
#                 Cambridge Crystallographic Data Centre
#                                CCDC 
#
#######################################################################
#
# If this CIF has been generated from an entry in the Cambridge 
# Structural Database, then it will include bibliographic, chemical, 
# crystal, experimental, refinement or atomic coordinate data resulting 
# from the CCDC's data processing and validation procedures.
#
#######################################################################

data_ISIKIG
_chemical_formula_moiety         'C17 H15 F1 N2 O3 S1'
_chemical_name_systematic        
(E)-N-((2-fluorophenyl)(1-methyl-3-oxoindolin-2-ylidene)methyl)methanesulfonamide
_symmetry_cell_setting           monoclinic
_symmetry_space_group_name_H-M   'P 21/c'
_symmetry_Int_Tables_number      14
_space_group_name_Hall           '-P 2ybc'
loop_
_symmetry_equiv_pos_site_id
_symmetry_equiv_pos_as_xyz
1 x,y,z
2 -x,1/2+y,1/2-z
3 -x,-y,-z
4 x,1/2-y,1/2+z
_cell_length_a                   11.9912(7)
_cell_length_b                   15.1463(7)
_cell_length_c                   9.4590(6)
_cell_angle_alpha                90
_cell_angle_beta                 111.614(7)
_cell_angle_gamma                90
_cell_volume                     1597.17
_exptl_crystal_colour            red
_exptl_crystal_description       block
_chemical_melting_point          '177-178 deg.C'
_cell_formula_units_Z            4
loop_
_atom_site_label
_atom_site_type_symbol
_atom_site_fract_x
_atom_site_fract_y
_atom_site_fract_z
S1 S 0.32447(6) 0.14423(5) 0.27153(8)
F1 F 0.09449(14) -0.06745(12) 0.03138(18)
O1 O 0.06470(17) 0.16401(12) 0.3824(2)
O2 O 0.35483(18) 0.22744(13) 0.3472(2)
O3 O 0.41481(19) 0.09268(15) 0.2494(3)
N1 N 0.00337(18) -0.06080(14) 0.2911(2)
N2 N 0.26584(19) 0.08761(15) 0.3762(2)
H1 H 0.226(2) 0.1259(16) 0.407(3)
C1 C -0.1058(2) -0.02902(19) 0.2874(3)
C2 C -0.2129(3) -0.0751(2) 0.2572(3)
H2 H -0.2178 -0.1371 0.2403
C3 C -0.3116(3) -0.0261(3) 0.2531(3)
H3 H -0.3859 -0.0557 0.2315
C4 C -0.3071(3) 0.0645(3) 0.2790(4)
H4 H -0.3775 0.0956 0.2734
C5 C -0.2014(3) 0.1084(2) 0.3123(3)
H5 H -0.1966 0.1700 0.3325
C6 C -0.1003(2) 0.06154(18) 0.3165(3)
C7 C 0.0212(2) 0.08932(17) 0.3466(3)
C8 C 0.0841(2) 0.00976(16) 0.3224(3)
C9 C 0.1963(2) 0.01069(16) 0.3195(2)
C10 C 0.2547(2) -0.06084(17) 0.2663(3)
C11 C 0.2028(2) -0.09696(18) 0.1230(3)
C12 C 0.3687(2) -0.09238(18) 0.3579(3)
H6 H 0.4084 -0.0686 0.4567
C13 C 0.2569(3) -0.16096(19) 0.0675(3)
H7 H 0.2185 -0.1839 -0.0323
C14 C 0.3687(3) -0.1911(2) 0.1606(4)
H8 H 0.4079 -0.2353 0.1247
C15 C 0.4233(3) -0.15782(19) 0.3047(4)
H9 H 0.4993 -0.1800 0.3684
C16 C 0.0334(3) -0.15399(17) 0.3022(3)
H10 H 0.0131 -0.1786 0.2000
H11 H -0.0121 -0.1850 0.3544
H12 H 0.1195 -0.1613 0.3599
C17 C 0.2085(3) 0.1604(2) 0.0947(3)
H13 H 0.1834 0.1033 0.0444
H14 H 0.2371 0.1983 0.0311
H15 H 0.1402 0.1887 0.1098
loop_
_geom_bond_atom_site_label_1
_geom_bond_atom_site_label_2
_geom_bond_site_symmetry_1
_geom_bond_site_symmetry_2
S1 O2 1_555 1_555
F1 C11 1_555 1_555
O1 C7 1_555 1_555
O3 S1 1_555 1_555
N1 C1 1_555 1_555
N2 S1 1_555 1_555
H1 N2 1_555 1_555
C1 C2 1_555 1_555
C2 H2 1_555 1_555
C3 C2 1_555 1_555
H3 C3 1_555 1_555
C4 C3 1_555 1_555
H4 C4 1_555 1_555
C5 C4 1_555 1_555
H5 C5 1_555 1_555
C6 C1 1_555 1_555
C7 C6 1_555 1_555
C8 N1 1_555 1_555
C9 N2 1_555 1_555
C10 C9 1_555 1_555
C11 C10 1_555 1_555
C12 C10 1_555 1_555
H6 C12 1_555 1_555
C13 C11 1_555 1_555
H7 C13 1_555 1_555
C14 C13 1_555 1_555
H8 C14 1_555 1_555
C15 C12 1_555 1_555
H9 C15 1_555 1_555
C16 N1 1_555 1_555
H10 C16 1_555 1_555
H11 C16 1_555 1_555
H12 C16 1_555 1_555
C17 S1 1_555 1_555
H13 C17 1_555 1_555
H14 C17 1_555 1_555
H15 C17 1_555 1_555
C5 C6 1_555 1_555
C7 C8 1_555 1_555
C8 C9 1_555 1_555
C14 C15 1_555 1_555

#END
