
#######################################################################
#
#                 Cambridge Crystallographic Data Centre
#                                CCDC 
#
#######################################################################
#
# If this CIF has been generated from an entry in the Cambridge 
# Structural Database, then it will include bibliographic, chemical, 
# crystal, experimental, refinement or atomic coordinate data resulting 
# from the CCDC's data processing and validation procedures.
#
#######################################################################

data_ISIMII
_chemical_formula_moiety         'C22 H28 N2 O4 S1,0.5(H2 O1)'
_chemical_name_systematic        
'ethyl 3-(benzyloxy)-5-((t-butylsulfinyl)amino)-6,7-dihydro-5H-cyclopenta[b]pyridine-4-carboxylate hemihydrate'
_symmetry_cell_setting           monoclinic
_symmetry_space_group_name_H-M   'P 21'
_symmetry_Int_Tables_number      4
_space_group_name_Hall           'P 2yb'
loop_
_symmetry_equiv_pos_site_id
_symmetry_equiv_pos_as_xyz
1 x,y,z
2 -x,1/2+y,-z
_cell_length_a                   8.0776(15)
_cell_length_b                   24.432(5)
_cell_length_c                   11.904(2)
_cell_angle_alpha                90
_cell_angle_beta                 108.916(4)
_cell_angle_gamma                90
_cell_volume                     2222.4
_exptl_crystal_colour            colorless
_exptl_crystal_description       prismatic
_cell_formula_units_Z            4
loop_
_atom_site_label
_atom_site_type_symbol
_atom_site_fract_x
_atom_site_fract_y
_atom_site_fract_z
S1 S 1.1692(2) 0.51398(7) 1.06447(14)
N1 N 0.5690(7) 0.4143(2) 0.6813(5)
N2 N 1.0196(7) 0.4978(2) 0.9370(5)
O1 O 0.5186(6) 0.5473(2) 0.5323(4)
O2 O 0.6779(9) 0.6054(2) 0.8373(5)
O3 O 0.8075(7) 0.60488(19) 0.6980(4)
O4 O 1.2630(7) 0.4638(2) 1.1249(4)
C1 C 0.7222(9) 0.4836(3) 0.8147(6)
C2 C 0.8431(9) 0.4886(3) 0.9412(6)
H1 H 0.8063 0.5200 0.9814
C3 C 0.8128(10) 0.4332(3) 0.9981(6)
H2 H 0.9250 0.4187 1.0519
H3 H 0.7317 0.4385 1.0441
C4 C 0.7324(10) 0.3930(3) 0.8927(6)
H4 H 0.8221 0.3676 0.8829
H5 H 0.6355 0.3716 0.9046
C5 C 0.6672(9) 0.4304(3) 0.7882(6)
C6 C 0.5207(9) 0.4526(3) 0.5955(6)
H6 H 0.4509 0.4418 0.5179
C7 C 0.5687(8) 0.5072(3) 0.6157(6)
C8 C 0.6725(8) 0.5235(3) 0.7291(5)
C9 C 0.7179(9) 0.5821(3) 0.7607(6)
C10 C 0.8526(11) 0.6625(3) 0.7244(7)
H7 H 0.9103 0.6675 0.8109
H8 H 0.7456 0.6853 0.6992
C11 C 0.9740(12) 0.6791(3) 0.6585(7)
H9 H 1.0839 0.6587 0.6894
H10 H 0.9979 0.7184 0.6691
H11 H 0.9196 0.6710 0.5738
C12 C 0.3931(9) 0.5337(3) 0.4198(6)
H12 H 0.4333 0.5006 0.3884
H13 H 0.3876 0.5640 0.3634
C13 C 0.2124(9) 0.5235(3) 0.4253(6)
C14 C 0.1485(11) 0.5509(3) 0.5047(7)
H14 H 0.2224 0.5755 0.5605
C15 C -0.0207(11) 0.5428(3) 0.5039(8)
H15 H -0.0638 0.5621 0.5579
C16 C -0.1285(10) 0.5058(3) 0.4229(7)
H16 H -0.2451 0.4997 0.4220
C17 C -0.0648(10) 0.4785(3) 0.3446(7)
H17 H -0.1389 0.4539 0.2889
C18 C 0.1028(10) 0.4861(3) 0.3455(6)
H18 H 0.1456 0.4661 0.2922
C19 C 1.3251(10) 0.5503(3) 1.0072(7)
C20 C 1.3751(11) 0.5156(4) 0.9182(8)
H19 H 1.2750 0.5127 0.8450
H20 H 1.4089 0.4790 0.9512
H21 H 1.4737 0.5326 0.9005
C21 C 1.2374(13) 0.6019(4) 0.9502(10)
H22 H 1.3196 0.6238 0.9237
H23 H 1.2001 0.6230 1.0078
H24 H 1.1350 0.5928 0.8818
C22 C 1.4813(13) 0.5623(4) 1.1156(8)
H25 H 1.5345 0.5277 1.1516
H26 H 1.4432 0.5831 1.1732
H27 H 1.5673 0.5837 1.0922
H28 H 1.054(10) 0.475(4) 0.897(7)
S2 S 0.5975(2) 0.78525(8) 0.52007(15)
N3 N 0.8495(8) 0.8969(2) 0.1508(5)
N4 N 0.6247(8) 0.8071(2) 0.3958(5)
O5 O 0.7128(7) 0.7716(2) -0.0211(4)
O6 O 0.5901(7) 0.7054(2) 0.1463(5)
O7 O 0.8656(7) 0.7065(2) 0.2723(5)
O8 O 0.5674(8) 0.8324(3) 0.5904(5)
C23 C 0.8045(8) 0.8250(3) 0.2731(6)
C24 C 0.8051(9) 0.8162(3) 0.3997(5)
H29 H 0.8781 0.7835 0.4347
C25 C 0.8959(10) 0.8689(3) 0.4628(6)
H30 H 0.8328 0.8834 0.5152
H31 H 1.0179 0.8607 0.5121
C26 C 0.8943(10) 0.9115(3) 0.3668(6)
H32 H 0.8060 0.9403 0.3612
H33 H 1.0107 0.9287 0.3831
C27 C 0.8473(9) 0.8777(3) 0.2561(6)
C28 C 0.8033(10) 0.8619(3) 0.0598(6)
H34 H 0.8018 0.8748 -0.0157
C29 C 0.7572(9) 0.8076(3) 0.0687(6)
C30 C 0.7589(8) 0.7883(3) 0.1799(5)
C31 C 0.7226(9) 0.7297(3) 0.1936(6)
C32 C 0.8621(12) 0.6471(3) 0.2868(8)
H35 H 0.7414 0.6349 0.2771
H36 H 0.9384 0.6366 0.3673
C33 C 0.9267(12) 0.6203(3) 0.1932(8)
H37 H 0.8428 0.6272 0.1141
H38 H 0.9381 0.5807 0.2074
H39 H 1.0409 0.6356 0.1978
C34 C 0.7341(9) 0.7873(3) -0.1323(5)
H40 H 0.6780 0.8233 -0.1565
H41 H 0.6729 0.7603 -0.1939
C35 C 0.9218(9) 0.7907(3) -0.1267(6)
C36 C 0.9703(10) 0.8250(3) -0.2054(6)
H42 H 0.8847 0.8476 -0.2588
C37 C 1.1375(11) 0.8262(3) -0.2063(6)
H43 H 1.1670 0.8489 -0.2618
C38 C 1.2657(11) 0.7950(3) -0.1274(8)
H44 H 1.3832 0.7967 -0.1273
C39 C 1.2207(11) 0.7608(4) -0.0478(7)
H45 H 1.3073 0.7385 0.0057
C40 C 1.0508(10) 0.7594(3) -0.0471(7)
H46 H 1.0214 0.7367 0.0084
C41 C 0.3818(10) 0.7511(4) 0.4550(7)
C42 C 0.3241(12) 0.7376(5) 0.5631(8)
H47 H 0.3124 0.7716 0.6036
H48 H 0.4120 0.7141 0.6180
H49 H 0.2113 0.7186 0.5365
C43 C 0.4154(12) 0.6999(4) 0.3945(9)
H50 H 0.3089 0.6776 0.3690
H51 H 0.5102 0.6789 0.4502
H52 H 0.4489 0.7100 0.3252
C44 C 0.2545(10) 0.7898(4) 0.3714(8)
H53 H 0.2870 0.7946 0.2995
H54 H 0.2579 0.8253 0.4105
H55 H 0.1361 0.7746 0.3500
H56 H 0.564(8) 0.837(3) 0.370(5)
O9 O 0.4437(9) 0.9125(3) 0.7121(7)
H57 H 0.503(17) 0.891(5) 0.688(13)
H58 H 0.527(9) 0.926(4) 0.764(6)
loop_
_geom_bond_atom_site_label_1
_geom_bond_atom_site_label_2
_geom_bond_site_symmetry_1
_geom_bond_site_symmetry_2
S1 N2 1_555 1_555
N1 C5 1_555 1_555
N2 C2 1_555 1_555
O1 C7 1_555 1_555
O2 C9 1_555 1_555
O3 C9 1_555 1_555
O4 S1 1_555 1_555
C1 C2 1_555 1_555
C2 H1 1_555 1_555
C3 C2 1_555 1_555
H2 C3 1_555 1_555
H3 C3 1_555 1_555
C4 C3 1_555 1_555
H4 C4 1_555 1_555
H5 C4 1_555 1_555
C5 C1 1_555 1_555
C6 N1 1_555 1_555
H6 C6 1_555 1_555
C7 C6 1_555 1_555
C8 C1 1_555 1_555
C9 C8 1_555 1_555
C10 O3 1_555 1_555
H7 C10 1_555 1_555
H8 C10 1_555 1_555
C11 C10 1_555 1_555
H9 C11 1_555 1_555
H10 C11 1_555 1_555
H11 C11 1_555 1_555
C12 O1 1_555 1_555
H12 C12 1_555 1_555
H13 C12 1_555 1_555
C13 C12 1_555 1_555
C14 C13 1_555 1_555
H14 C14 1_555 1_555
C15 C14 1_555 1_555
H15 C15 1_555 1_555
C16 C15 1_555 1_555
H16 C16 1_555 1_555
C17 C16 1_555 1_555
H17 C17 1_555 1_555
C18 C13 1_555 1_555
H18 C18 1_555 1_555
C19 S1 1_555 1_555
C20 C19 1_555 1_555
H19 C20 1_555 1_555
H20 C20 1_555 1_555
H21 C20 1_555 1_555
C21 C19 1_555 1_555
H22 C21 1_555 1_555
H23 C21 1_555 1_555
H24 C21 1_555 1_555
C22 C19 1_555 1_555
H25 C22 1_555 1_555
H26 C22 1_555 1_555
H27 C22 1_555 1_555
H28 N2 1_555 1_555
S2 N4 1_555 1_555
N3 C27 1_555 1_555
N4 C24 1_555 1_555
O5 C29 1_555 1_555
O6 C31 1_555 1_555
O7 C31 1_555 1_555
O8 S2 1_555 1_555
C23 C24 1_555 1_555
C24 H29 1_555 1_555
C25 C24 1_555 1_555
H30 C25 1_555 1_555
H31 C25 1_555 1_555
C26 C25 1_555 1_555
H32 C26 1_555 1_555
H33 C26 1_555 1_555
C27 C23 1_555 1_555
C28 N3 1_555 1_555
H34 C28 1_555 1_555
C29 C28 1_555 1_555
C30 C23 1_555 1_555
C31 C30 1_555 1_555
C32 O7 1_555 1_555
H35 C32 1_555 1_555
H36 C32 1_555 1_555
C33 C32 1_555 1_555
H37 C33 1_555 1_555
H38 C33 1_555 1_555
H39 C33 1_555 1_555
C34 O5 1_555 1_555
H40 C34 1_555 1_555
H41 C34 1_555 1_555
C35 C34 1_555 1_555
C36 C35 1_555 1_555
H42 C36 1_555 1_555
C37 C36 1_555 1_555
H43 C37 1_555 1_555
C38 C37 1_555 1_555
H44 C38 1_555 1_555
C39 C38 1_555 1_555
H45 C39 1_555 1_555
C40 C35 1_555 1_555
H46 C40 1_555 1_555
C41 S2 1_555 1_555
C42 C41 1_555 1_555
H47 C42 1_555 1_555
H48 C42 1_555 1_555
H49 C42 1_555 1_555
C43 C41 1_555 1_555
H50 C43 1_555 1_555
H51 C43 1_555 1_555
H52 C43 1_555 1_555
C44 C41 1_555 1_555
H53 C44 1_555 1_555
H54 C44 1_555 1_555
H55 C44 1_555 1_555
H56 N4 1_555 1_555
O9 H57 1_555 1_555
H58 O9 1_555 1_555
C4 C5 1_555 1_555
C7 C8 1_555 1_555
C17 C18 1_555 1_555
C26 C27 1_555 1_555
C29 C30 1_555 1_555
C39 C40 1_555 1_555

#END
