
#######################################################################
#
#                 Cambridge Crystallographic Data Centre
#                                CCDC 
#
#######################################################################
#
# If this CIF has been generated from an entry in the Cambridge 
# Structural Database, then it will include bibliographic, chemical, 
# crystal, experimental, refinement or atomic coordinate data resulting 
# from the CCDC's data processing and validation procedures.
#
#######################################################################

data_ISISUA
_chemical_formula_moiety         'C34 H40 F3 N2 1+,H1 F2 1-'
_chemical_name_systematic        
'1,3-bis(2,6-di-isopropylphenyl)-2-(4-(trifluoromethyl)phenyl)-1H-imidazol-3-ium hydrogen difluoride'
_symmetry_cell_setting           monoclinic
_symmetry_space_group_name_H-M   'C 2/c'
_symmetry_Int_Tables_number      15
_space_group_name_Hall           '-C 2yn'
loop_
_symmetry_equiv_pos_site_id
_symmetry_equiv_pos_as_xyz
1 x,y,z
2 -x,y,1/2-z
3 1/2+x,1/2+y,z
4 1/2-x,1/2+y,1/2-z
5 -x,-y,-z
6 x,-y,1/2+z
7 1/2-x,1/2-y,-z
8 1/2+x,1/2-y,1/2+z
_cell_length_a                   18.227(7)
_cell_length_b                   17.040(6)
_cell_length_c                   20.143(8)
_cell_angle_alpha                90
_cell_angle_beta                 101.779(13)
_cell_angle_gamma                90
_cell_volume                     6124.43
_exptl_crystal_colour            colorless
_exptl_crystal_description       block
_cell_formula_units_Z            8
loop_
_atom_site_label
_atom_site_type_symbol
_atom_site_fract_x
_atom_site_fract_y
_atom_site_fract_z
F1 F 0.4348(2) 0.3920(2) 0.67614(18)
F2 F 0.37121(19) 0.4849(2) 0.71048(14)
F3 F 0.4741(2) 0.5095(2) 0.6772(2)
N1 N 0.24695(12) 0.43452(12) 0.34266(10)
N2 N 0.22825(12) 0.55908(12) 0.35135(10)
C1 C 0.25500(14) 0.49489(15) 0.38660(12)
C2 C 0.21457(14) 0.46167(16) 0.27865(13)
H1 H 0.2025 0.4311 0.2385
C3 C 0.20343(14) 0.53882(16) 0.28365(13)
H2 H 0.1825 0.5733 0.2477
C4 C 0.29303(14) 0.49100(14) 0.45883(13)
C5 C 0.25702(16) 0.50727(15) 0.51155(13)
H3 H 0.2058 0.5226 0.5022
C6 C 0.29613(16) 0.50107(15) 0.57815(13)
H4 H 0.2717 0.5126 0.6144
C7 C 0.37024(16) 0.47819(15) 0.59179(13)
C8 C 0.41266(18) 0.46761(17) 0.66390(15)
C9 C 0.36844(16) 0.46855(19) 0.47292(14)
H5 H 0.3933 0.4578 0.4368
C10 C 0.40681(17) 0.4621(2) 0.53928(15)
H6 H 0.4580 0.4467 0.5490
C11 C 0.25405(16) 0.35213(15) 0.36189(13)
C12 C 0.31775(17) 0.31064(16) 0.35437(15)
C13 C 0.38212(16) 0.34642(17) 0.32672(16)
H7 H 0.3756 0.4047 0.3255
C14 C 0.19265(18) 0.31916(18) 0.38522(14)
C15 C 0.12116(18) 0.3640(2) 0.38753(17)
H8 H 0.1323 0.4208 0.3816
C16 C 0.3198(2) 0.23139(18) 0.37149(18)
H9 H 0.3617 0.2002 0.3669
C17 C 0.45915(18) 0.3276(2) 0.3723(2)
H10 H 0.4674 0.2708 0.3732
H11 H 0.4601 0.3464 0.4185
H12 H 0.4988 0.3538 0.3542
C18 C 0.1988(2) 0.2406(2) 0.40229(18)
H13 H 0.1597 0.2158 0.4192
C19 C 0.3798(2) 0.3182(2) 0.2540(2)
H14 H 0.3853 0.2610 0.2538
H15 H 0.4209 0.3425 0.2367
H16 H 0.3319 0.3331 0.2251
C20 C 0.0591(2) 0.3420(3) 0.3290(2)
H17 H 0.0747 0.3532 0.2862
H18 H 0.0141 0.3724 0.3313
H19 H 0.0481 0.2859 0.3314
C21 C 0.2604(2) 0.1977(2) 0.3953(2)
H20 H 0.2627 0.1436 0.4070
C22 C 0.0933(3) 0.3575(3) 0.4536(2)
H21 H 0.0869 0.3021 0.4640
H22 H 0.0452 0.3848 0.4490
H23 H 0.1300 0.3815 0.4904
C23 C 0.22091(15) 0.63686(15) 0.37919(12)
C24 C 0.27797(15) 0.69137(15) 0.37832(13)
C25 C 0.15489(15) 0.65324(16) 0.40265(13)
C26 C 0.35008(16) 0.67246(16) 0.35396(14)
H24 H 0.3479 0.6163 0.3392
C27 C 0.26702(17) 0.76691(16) 0.40163(14)
H25 H 0.3040 0.8062 0.4015
C28 C 0.09233(16) 0.59367(18) 0.40072(14)
H26 H 0.1155 0.5403 0.4040
C29 C 0.14746(17) 0.72930(17) 0.42576(14)
H27 H 0.1040 0.7432 0.4423
C30 C 0.20241(18) 0.78481(17) 0.42495(14)
H28 H 0.1959 0.8364 0.4407
C31 C 0.03609(17) 0.5981(2) 0.33269(15)
H29 H 0.0153 0.6512 0.3263
H30 H -0.0045 0.5604 0.3327
H31 H 0.0617 0.5855 0.2957
C32 C 0.3578(2) 0.72359(19) 0.29317(16)
H32 H 0.3142 0.7155 0.2563
H33 H 0.4035 0.7091 0.2777
H34 H 0.3605 0.7789 0.3067
C33 C 0.05029(18) 0.6018(2) 0.45943(16)
H35 H 0.0864 0.6009 0.5028
H36 H 0.0150 0.5581 0.4579
H37 H 0.0227 0.6515 0.4550
C34 C 0.41896(18) 0.6829(2) 0.41141(17)
H38 H 0.4223 0.7377 0.4265
H39 H 0.4643 0.6688 0.3950
H40 H 0.4143 0.6487 0.4495
F7 F 0.13828(12) 0.54967(12) 0.13299(10)
H41 H 0.132(2) 0.4823(7) 0.125(2)
F8 F 0.14898(16) 0.42048(13) 0.13267(10)
F4? F 0.4058(6) 0.4003(7) 0.6861(6)
F5? F 0.3967(5) 0.5226(5) 0.7026(4)
F6? F 0.4920(6) 0.4797(5) 0.6666(5)
loop_
_geom_bond_atom_site_label_1
_geom_bond_atom_site_label_2
_geom_bond_site_symmetry_1
_geom_bond_site_symmetry_2
F1 C8 1_555 1_555
F2 C8 1_555 1_555
F3 C8 1_555 1_555
N1 C1 1_555 1_555
N2 C1 1_555 1_555
C1 C4 1_555 1_555
C2 N1 1_555 1_555
H1 C2 1_555 1_555
C3 N2 1_555 1_555
H2 C3 1_555 1_555
C4 C5 1_555 1_555
C5 H3 1_555 1_555
C6 C5 1_555 1_555
H4 C6 1_555 1_555
C7 C6 1_555 1_555
C8 C7 1_555 1_555
C9 C4 1_555 1_555
H5 C9 1_555 1_555
C10 C7 1_555 1_555
H6 C10 1_555 1_555
C11 N1 1_555 1_555
C12 C11 1_555 1_555
C13 C12 1_555 1_555
H7 C13 1_555 1_555
C14 C11 1_555 1_555
C15 C14 1_555 1_555
H8 C15 1_555 1_555
C16 C12 1_555 1_555
H9 C16 1_555 1_555
C17 C13 1_555 1_555
H10 C17 1_555 1_555
H11 C17 1_555 1_555
H12 C17 1_555 1_555
C18 C14 1_555 1_555
H13 C18 1_555 1_555
C19 C13 1_555 1_555
H14 C19 1_555 1_555
H15 C19 1_555 1_555
H16 C19 1_555 1_555
C20 C15 1_555 1_555
H17 C20 1_555 1_555
H18 C20 1_555 1_555
H19 C20 1_555 1_555
C21 C16 1_555 1_555
H20 C21 1_555 1_555
C22 C15 1_555 1_555
H21 C22 1_555 1_555
H22 C22 1_555 1_555
H23 C22 1_555 1_555
C23 N2 1_555 1_555
C24 C23 1_555 1_555
C25 C23 1_555 1_555
C26 C24 1_555 1_555
H24 C26 1_555 1_555
C27 C24 1_555 1_555
H25 C27 1_555 1_555
C28 C25 1_555 1_555
H26 C28 1_555 1_555
C29 C25 1_555 1_555
H27 C29 1_555 1_555
C30 C27 1_555 1_555
H28 C30 1_555 1_555
C31 C28 1_555 1_555
H29 C31 1_555 1_555
H30 C31 1_555 1_555
H31 C31 1_555 1_555
C32 C26 1_555 1_555
H32 C32 1_555 1_555
H33 C32 1_555 1_555
H34 C32 1_555 1_555
C33 C28 1_555 1_555
H35 C33 1_555 1_555
H36 C33 1_555 1_555
H37 C33 1_555 1_555
C34 C26 1_555 1_555
H38 C34 1_555 1_555
H39 C34 1_555 1_555
H40 C34 1_555 1_555
F7 H41 1_555 1_555
H41 F8 1_555 1_555
C2 C3 1_555 1_555
C9 C10 1_555 1_555
C18 C21 1_555 1_555
C29 C30 1_555 1_555

#END
