
#######################################################################
#
#                 Cambridge Crystallographic Data Centre
#                                CCDC 
#
#######################################################################
#
# If this CIF has been generated from an entry in the Cambridge 
# Structural Database, then it will include bibliographic, chemical, 
# crystal, experimental, refinement or atomic coordinate data resulting 
# from the CCDC's data processing and validation procedures.
#
#######################################################################

data_ISIVIR
_chemical_formula_moiety         'C6 H6 O2,0.28(C1 O2)'
_chemical_name_systematic        'hydroquinone carbon dioxide'
_symmetry_cell_setting           rhombohedral
_symmetry_space_group_name_H-M   'R -3'
_symmetry_Int_Tables_number      148
_space_group_name_Hall           '-R 3'
loop_
_symmetry_equiv_pos_site_id
_symmetry_equiv_pos_as_xyz
1 x,y,z
2 -y,x-y,z
3 -x+y,-x,z
4 2/3+x,1/3+y,1/3+z
5 2/3-y,1/3+x-y,1/3+z
6 2/3-x+y,1/3-x,1/3+z
7 1/3+x,2/3+y,2/3+z
8 1/3-y,2/3+x-y,2/3+z
9 1/3-x+y,2/3-x,2/3+z
10 -x,-y,-z
11 y,-x+y,-z
12 x-y,x,-z
13 1/3-x,2/3-y,2/3-z
14 1/3+y,2/3-x+y,2/3-z
15 1/3+x-y,2/3+x,2/3-z
16 2/3-x,1/3-y,1/3-z
17 2/3+y,1/3-x+y,1/3-z
18 2/3+x-y,1/3+x,1/3-z
_cell_length_a                   16.207(6)
_cell_length_b                   16.207(6)
_cell_length_c                   5.780(2)
_cell_angle_alpha                90
_cell_angle_beta                 90
_cell_angle_gamma                120
_cell_volume                     1314.81
_exptl_crystal_colour            colorless
_exptl_crystal_description       block
_cell_formula_units_Z            9
loop_
_atom_site_label
_atom_site_type_symbol
_atom_site_fract_x
_atom_site_fract_y
_atom_site_fract_z
O1 O 0.43601(7) 0.57764(7) 0.16800(18)
H1 H 0.4610(16) 0.6396(17) 0.185(4)
C1 C 0.46956(8) 0.54124(8) 0.3357(2)
C2 C 0.52224(9) 0.59421(8) 0.5254(2)
H2 H 0.5363(12) 0.6587(13) 0.543(3)
C3 C 0.55234(9) 0.55262(9) 0.6894(2)
H3 H 0.5893(13) 0.5882(13) 0.825(3)
O1I O 0.56399(7) 0.42236(7) 0.83200(18)
H1I H 0.5390(16) 0.3604(17) 0.815(4)
C1I C 0.53044(8) 0.45876(8) 0.6643(2)
C2I C 0.47776(9) 0.40579(8) 0.4746(2)
H2I H 0.4637(12) 0.3413(13) 0.457(3)
C3I C 0.44766(9) 0.44738(9) 0.3106(2)
H3I H 0.4107(13) 0.4118(13) 0.175(3)
C4 C 0.3333 0.6667 0.6667
O2 O 0.3333 0.6667 0.4688(7)
O2O O 0.3334 0.6666 0.8645(7)
loop_
_geom_bond_atom_site_label_1
_geom_bond_atom_site_label_2
_geom_bond_site_symmetry_1
_geom_bond_site_symmetry_2
O1 H1 1_555 1_555
C1 O1 1_555 1_555
C2 C1 1_555 1_555
H2 C2 1_555 1_555
C3 C2 1_555 1_555
H3 C3 1_555 1_555
C4 O2 1_555 1_555
O1I H1I 1_555 1_555
C1I C3 1_555 1_555
C2I C1I 1_555 1_555
H2I C2I 1_555 1_555
C3I C1 1_555 1_555
H3I C3I 1_555 1_555
O2O C4 1_555 1_555
O1I C1I 1_555 1_555
C2I C3I 1_555 1_555

#END
