
#######################################################################
#
#                 Cambridge Crystallographic Data Centre
#                                CCDC 
#
#######################################################################
#
# If this CIF has been generated from an entry in the Cambridge 
# Structural Database, then it will include bibliographic, chemical, 
# crystal, experimental, refinement or atomic coordinate data resulting 
# from the CCDC's data processing and validation procedures.
#
#######################################################################

data_ISODAV
_chemical_formula_moiety         
'2(C12 H28 N1 1+),C5 O5 2-,3(C1 H4 N2 O1),8(H2 O1)'
_chemical_name_systematic        
'bis(Tetra-n-propylammonium) croconate tris(urea) octahydrate clathrate'
_symmetry_cell_setting           monoclinic
_symmetry_space_group_name_H-M   'C 2/c'
_symmetry_Int_Tables_number      15
_space_group_name_Hall           '-C 2yn'
loop_
_symmetry_equiv_pos_site_id
_symmetry_equiv_pos_as_xyz
1 x,y,z
2 1/2+x,1/2+y,z
3 x,-y,1/2+z
4 1/2+x,1/2-y,1/2+z
5 -x,-y,-z
6 1/2-x,1/2-y,-z
7 -x,y,1/2-z
8 1/2-x,1/2+y,1/2-z
_cell_length_a                   33.3992(17)
_cell_length_b                   16.2615(8)
_cell_length_c                   17.7104(9)
_cell_angle_alpha                90
_cell_angle_beta                 104.2100(10)
_cell_angle_gamma                90
_cell_volume                     9324.58
_exptl_crystal_colour            yellow
_exptl_crystal_description       block
_chemical_melting_point          88-91deg.C(dec.)
_cell_formula_units_Z            8
loop_
_atom_site_label
_atom_site_type_symbol
_atom_site_fract_x
_atom_site_fract_y
_atom_site_fract_z
O1 O 0.38389(2) 0.35628(5) 0.06015(5)
C1 C 0.41471(3) 0.32936(6) 0.04063(6)
O2 O 0.39487(2) 0.35513(5) -0.09698(5)
C2 C 0.42015(3) 0.32731(7) -0.03920(6)
O3 O 0.47476(3) 0.27264(5) -0.09444(5)
C3 C 0.45994(3) 0.28723(6) -0.03783(6)
O4 O 0.51343(3) 0.23293(6) 0.06848(5)
C4 C 0.47938(3) 0.26743(7) 0.04362(6)
O5 O 0.45989(3) 0.28854(5) 0.16425(5)
C5 C 0.45210(3) 0.29453(6) 0.09245(6)
O6 O 0.25664(2) 0.49856(5) -0.10684(5)
C6 C 0.28968(3) 0.46021(6) -0.08092(6)
N1 N 0.30136(3) 0.43579(7) -0.00654(6)
H1 H 0.2860 0.4464 0.0248
H2 H 0.3242 0.4095 0.0099
N2 N 0.31465(3) 0.43980(6) -0.12714(6)
H3 H 0.3080 0.4531 -0.1756
H4 H 0.3372 0.4135 -0.1082
O7 O 0.62235(2) 0.13651(5) -0.05580(5)
C7 C 0.58845(3) 0.16038(7) -0.04589(7)
N3 N 0.55840(3) 0.19058(6) -0.10493(6)
H5 H 0.5623 0.1938 -0.1511
H6 H 0.5354 0.2066 -0.0964
N4 N 0.57915(3) 0.15482(7) 0.02319(6)
H7 H 0.5967 0.1343 0.0625
H8 H 0.5556 0.1717 0.0283
O8 O 0.24723(2) 0.48432(5) 0.09521(5)
C8 C 0.21594(3) 0.52749(7) 0.06903(7)
N5 N 0.20389(3) 0.54826(7) -0.00608(6)
H9 H 0.2178 0.5319 -0.0381
H10 H 0.1822 0.5780 -0.0224
N6 N 0.19301(3) 0.55674(6) 0.11631(6)
H11 H 0.1999 0.5457 0.1653
H12 H 0.1716 0.5864 0.0974
O9 O 0.31857(3) 0.49530(6) -0.28606(5)
H13 H 0.2973(6) 0.4995(10) -0.3227(11)
H14 H 0.3335(6) 0.5369(12) -0.2895(11)
O10 O 0.18430(3) 0.47891(6) -0.22379(5)
H15 H 0.2052(6) 0.4811(10) -0.1909(11)
H16 H 0.1699(5) 0.5170(11) -0.2159(10)
O11 O 0.42359(3) 0.23079(6) -0.24033(6)
H17 H 0.4398(6) 0.2418(11) -0.1945(11)
H18 H 0.4096(5) 0.2685(10) -0.2431(9)
O12 O 0.42868(3) 0.25238(6) 0.28898(6)
H19 H 0.4384(5) 0.2636(10) 0.2522(11)
H20 H 0.4482(6) 0.2516(10) 0.3298(11)
O13 O 0.37404(3) 0.36548(7) -0.25320(6)
H21 H 0.3816(6) 0.3669(12) -0.1912(12)
H22 H 0.3516(7) 0.4127(15) -0.2714(14)
O14 O 0.37198(3) 0.37571(6) 0.20918(6)
H23 H 0.3771(5) 0.3650(9) 0.1658(10)
H24 H 0.3866(6) 0.3453(11) 0.2403(11)
O15 O 0.63252(3) 0.10403(6) -0.20236(6)
H25 H 0.6182(5) 0.1369(11) -0.2305(10)
H26 H 0.6301(5) 0.1147(11) -0.1564(11)
O16 O 0.62503(3) 0.12652(6) 0.18687(5)
H27 H 0.6124(5) 0.1607(11) 0.2056(10)
H28 H 0.6412(6) 0.1019(11) 0.2257(11)
N7 N 0.25211(2) 0.77275(5) 0.24832(5)
C9 C 0.28542(3) 0.82946(6) 0.29412(6)
H29 H 0.2959 0.8624 0.2576
H30 H 0.2729 0.8667 0.3245
C10 C 0.32152(3) 0.78668(7) 0.34868(7)
H31 H 0.3369 0.7552 0.3187
H32 H 0.3114 0.7490 0.3823
C11 C 0.34954(4) 0.85046(8) 0.39771(8)
H33 H 0.3723 0.8234 0.4324
H34 H 0.3342 0.8813 0.4274
H35 H 0.3598 0.8871 0.3643
C12 C 0.23483(3) 0.71833(6) 0.30271(6)
H36 H 0.2119 0.6869 0.2717
H37 H 0.2561 0.6795 0.3275
C13 C 0.21993(4) 0.76327(8) 0.36579(7)
H38 H 0.1981 0.8013 0.3421
H39 H 0.2425 0.7947 0.3978
C14 C 0.20388(4) 0.70215(9) 0.41623(8)
H40 H 0.1946 0.7312 0.4560
H41 H 0.2256 0.6649 0.4401
H42 H 0.1813 0.6717 0.3845
C15 C 0.21853(3) 0.82773(7) 0.20040(6)
H43 H 0.2064 0.8591 0.2357
H44 H 0.2312 0.8665 0.1717
C16 C 0.18430(4) 0.78320(8) 0.14329(8)
H45 H 0.1705 0.7456 0.1711
H46 H 0.1958 0.7514 0.1074
C17 C 0.15340(4) 0.84502(8) 0.09835(8)
H47 H 0.1318 0.8165 0.0621
H48 H 0.1671 0.8818 0.0705
H49 H 0.1418 0.8759 0.1340
C18 C 0.26939(3) 0.71566(6) 0.19596(6)
H50 H 0.2915 0.6833 0.2283
H51 H 0.2478 0.6779 0.1707
C19 C 0.28596(4) 0.75833(8) 0.13371(7)
H52 H 0.3102 0.7902 0.1581
H53 H 0.2652 0.7958 0.1045
C20 C 0.29710(4) 0.69568(9) 0.07869(7)
H54 H 0.3074 0.7236 0.0396
H55 H 0.2730 0.6646 0.0542
H56 H 0.3179 0.6592 0.1075
N8 N 0.5000 0.52032(7) 0.2500
C21 C 0.47971(3) 0.46432(7) 0.29854(6)
H57 H 0.4587 0.4319 0.2635
H58 H 0.5004 0.4266 0.3273
C22 C 0.46000(5) 0.50786(9) 0.35553(9)
H59 H 0.4791 0.5484 0.3842
H60 H 0.4355 0.5366 0.3271
C23 C 0.44847(5) 0.44901(9) 0.41170(9)
H61 H 0.4363 0.4787 0.4472
H62 H 0.4727 0.4209 0.4403
H63 H 0.4290 0.4097 0.3836
C24 C 0.46807(3) 0.57586(7) 0.19840(6)
H64 H 0.4547 0.6080 0.2313
H65 H 0.4823 0.6139 0.1717
C25 C 0.43516(4) 0.53147(8) 0.13815(8)
H66 H 0.4188 0.4974 0.1641
H67 H 0.4481 0.4960 0.1071
C26 C 0.40735(4) 0.59286(9) 0.08559(8)
H68 H 0.3867 0.5639 0.0476
H69 H 0.4236 0.6262 0.0596
H70 H 0.3941 0.6273 0.1163
C21F C 0.52029(3) 0.46432(7) 0.20146(6)
H57F H 0.5413 0.4319 0.2365
H58F H 0.4996 0.4266 0.1727
C22F C 0.54000(5) 0.50786(9) 0.14447(9)
H59F H 0.5209 0.5484 0.1158
H60F H 0.5645 0.5366 0.1729
C23F C 0.55153(5) 0.44901(9) 0.08830(9)
H61F H 0.5637 0.4787 0.0528
H62F H 0.5273 0.4209 0.0597
H63F H 0.5710 0.4097 0.1164
C24F C 0.53193(3) 0.57586(7) 0.30160(6)
H64F H 0.5453 0.6080 0.2687
H65F H 0.5177 0.6139 0.3283
C25F C 0.56484(4) 0.53147(8) 0.36185(8)
H66F H 0.5812 0.4974 0.3359
H67F H 0.5519 0.4960 0.3929
C26F C 0.59265(4) 0.59286(9) 0.41441(8)
H68F H 0.6133 0.5639 0.4524
H69F H 0.5764 0.6262 0.4404
H70F H 0.6059 0.6273 0.3837
N9 N 0.0000 0.52347(7) 0.2500
C27 C 0.01698(3) 0.46730(6) 0.19670(6)
H71 H 0.0389 0.4343 0.2286
H72 H -0.0048 0.4300 0.1711
C28 C 0.03373(4) 0.50987(8) 0.13456(7)
H73 H 0.0585 0.5406 0.1588
H74 H 0.0134 0.5482 0.1057
C29 C 0.04374(4) 0.44572(9) 0.07956(8)
H75 H 0.0545 0.4724 0.0404
H76 H 0.0191 0.4161 0.0552
H77 H 0.0640 0.4081 0.1084
C30 C 0.03341(3) 0.57969(7) 0.29649(6)
H78 H 0.0447 0.6116 0.2603
H79 H 0.0208 0.6180 0.3257
C31 C 0.06859(4) 0.53645(8) 0.35267(8)
H80 H 0.0578 0.5040 0.3892
H81 H 0.0823 0.4995 0.3241
C32 C 0.09927(4) 0.59854(9) 0.39667(8)
H82 H 0.1214 0.5703 0.4321
H83 H 0.0857 0.6346 0.4254
H84 H 0.1102 0.6301 0.3605
C27F C -0.01698(3) 0.46730(6) 0.30330(6)
H71F H -0.0389 0.4343 0.2714
H72F H 0.0048 0.4300 0.3289
C28F C -0.03373(4) 0.50987(8) 0.36544(7)
H73F H -0.0585 0.5406 0.3412
H74F H -0.0134 0.5482 0.3943
C29F C -0.04374(4) 0.44572(9) 0.42044(8)
H75F H -0.0545 0.4724 0.4596
H76F H -0.0191 0.4161 0.4448
H77F H -0.0640 0.4081 0.3916
C30F C -0.03341(3) 0.57969(7) 0.20351(6)
H78F H -0.0447 0.6116 0.2397
H79F H -0.0208 0.6180 0.1743
C31F C -0.06859(4) 0.53645(8) 0.14733(8)
H80F H -0.0578 0.5040 0.1108
H81F H -0.0823 0.4995 0.1759
C32F C -0.09927(4) 0.59854(9) 0.10333(8)
H82F H -0.1214 0.5703 0.0679
H83F H -0.0857 0.6346 0.0746
H84F H -0.1102 0.6301 0.1395
loop_
_geom_bond_atom_site_label_1
_geom_bond_atom_site_label_2
_geom_bond_site_symmetry_1
_geom_bond_site_symmetry_2
O1 C1 1_555 1_555
C1 C2 1_555 1_555
O2 C2 1_555 1_555
C2 C3 1_555 1_555
O3 C3 1_555 1_555
C3 C4 1_555 1_555
O4 C4 1_555 1_555
C4 C5 1_555 1_555
O5 C5 1_555 1_555
C5 C1 1_555 1_555
O6 C6 1_555 1_555
C6 N1 1_555 1_555
N1 H1 1_555 1_555
H2 N1 1_555 1_555
N2 C6 1_555 1_555
H3 N2 1_555 1_555
H4 N2 1_555 1_555
O7 C7 1_555 1_555
C7 N3 1_555 1_555
N3 H5 1_555 1_555
H6 N3 1_555 1_555
N4 C7 1_555 1_555
H7 N4 1_555 1_555
H8 N4 1_555 1_555
O8 C8 1_555 1_555
C8 N5 1_555 1_555
N5 H9 1_555 1_555
H10 N5 1_555 1_555
N6 C8 1_555 1_555
H11 N6 1_555 1_555
H12 N6 1_555 1_555
O9 H13 1_555 1_555
H14 O9 1_555 1_555
O10 H15 1_555 1_555
H16 O10 1_555 1_555
O11 H17 1_555 1_555
H18 O11 1_555 1_555
O12 H19 1_555 1_555
H20 O12 1_555 1_555
O13 H21 1_555 1_555
H22 O13 1_555 1_555
O14 H23 1_555 1_555
H24 O14 1_555 1_555
O15 H25 1_555 1_555
H26 O15 1_555 1_555
O16 H27 1_555 1_555
H28 O16 1_555 1_555
N7 C9 1_555 1_555
C9 H29 1_555 1_555
H30 C9 1_555 1_555
C10 C9 1_555 1_555
H31 C10 1_555 1_555
H32 C10 1_555 1_555
C11 C10 1_555 1_555
H33 C11 1_555 1_555
H34 C11 1_555 1_555
H35 C11 1_555 1_555
C12 N7 1_555 1_555
H36 C12 1_555 1_555
H37 C12 1_555 1_555
C13 C12 1_555 1_555
H38 C13 1_555 1_555
H39 C13 1_555 1_555
C14 C13 1_555 1_555
H40 C14 1_555 1_555
H41 C14 1_555 1_555
H42 C14 1_555 1_555
C15 N7 1_555 1_555
H43 C15 1_555 1_555
H44 C15 1_555 1_555
C16 C15 1_555 1_555
H45 C16 1_555 1_555
H46 C16 1_555 1_555
C17 C16 1_555 1_555
H47 C17 1_555 1_555
H48 C17 1_555 1_555
H49 C17 1_555 1_555
C18 N7 1_555 1_555
H50 C18 1_555 1_555
H51 C18 1_555 1_555
C19 C18 1_555 1_555
H52 C19 1_555 1_555
H53 C19 1_555 1_555
C20 C19 1_555 1_555
H54 C20 1_555 1_555
H55 C20 1_555 1_555
H56 C20 1_555 1_555
N8 C21 1_555 1_555
C21 H57 1_555 1_555
H58 C21 1_555 1_555
C22 C21 1_555 1_555
H59 C22 1_555 1_555
H60 C22 1_555 1_555
C23 C22 1_555 1_555
H61 C23 1_555 1_555
H62 C23 1_555 1_555
H63 C23 1_555 1_555
C24 N8 1_555 1_555
H64 C24 1_555 1_555
H65 C24 1_555 1_555
C25 C24 1_555 1_555
H66 C25 1_555 1_555
H67 C25 1_555 1_555
C26 C25 1_555 1_555
H68 C26 1_555 1_555
H69 C26 1_555 1_555
H70 C26 1_555 1_555
N9 C27 1_555 1_555
C27 H71 1_555 1_555
H72 C27 1_555 1_555
C28 C27 1_555 1_555
H73 C28 1_555 1_555
H74 C28 1_555 1_555
C29 C28 1_555 1_555
H75 C29 1_555 1_555
H76 C29 1_555 1_555
H77 C29 1_555 1_555
C30 N9 1_555 1_555
H78 C30 1_555 1_555
H79 C30 1_555 1_555
C31 C30 1_555 1_555
H80 C31 1_555 1_555
H81 C31 1_555 1_555
C32 C31 1_555 1_555
H82 C32 1_555 1_555
H83 C32 1_555 1_555
H84 C32 1_555 1_555
C21F N8 1_555 1_555
H57F C21F 1_555 1_555
H58F C21F 1_555 1_555
C22F C21F 1_555 1_555
H59F C22F 1_555 1_555
H60F C22F 1_555 1_555
C23F C22F 1_555 1_555
H61F C23F 1_555 1_555
H62F C23F 1_555 1_555
H63F C23F 1_555 1_555
C24F N8 1_555 1_555
H64F C24F 1_555 1_555
H65F C24F 1_555 1_555
C25F C24F 1_555 1_555
H66F C25F 1_555 1_555
H67F C25F 1_555 1_555
C26F C25F 1_555 1_555
H68F C26F 1_555 1_555
H69F C26F 1_555 1_555
H70F C26F 1_555 1_555
C27F N9 1_555 1_555
H71F C27F 1_555 1_555
H72F C27F 1_555 1_555
C28F C27F 1_555 1_555
H73F C28F 1_555 1_555
H74F C28F 1_555 1_555
C29F C28F 1_555 1_555
H75F C29F 1_555 1_555
H76F C29F 1_555 1_555
H77F C29F 1_555 1_555
C30F N9 1_555 1_555
H78F C30F 1_555 1_555
H79F C30F 1_555 1_555
C31F C30F 1_555 1_555
H80F C31F 1_555 1_555
H81F C31F 1_555 1_555
C32F C31F 1_555 1_555
H82F C32F 1_555 1_555
H83F C32F 1_555 1_555
H84F C32F 1_555 1_555

#END
