
#######################################################################
#
#                 Cambridge Crystallographic Data Centre
#                                CCDC 
#
#######################################################################
#
# If this CIF has been generated from an entry in the Cambridge 
# Structural Database, then it will include bibliographic, chemical, 
# crystal, experimental, refinement or atomic coordinate data resulting 
# from the CCDC's data processing and validation procedures.
#
#######################################################################

data_ISOHAB
_chemical_formula_moiety         'C20 H23 Br1 F1 N1 O6'
_chemical_name_systematic        
'1-(5-bromopyridin-2-yl)-3-ethoxy-2-fluoro-3-oxopropyl 4,7,7-trimethyl-3-oxo-2-oxabicyclo[2.2.1]heptane-1-carboxylate'
_symmetry_cell_setting           orthorhombic
_symmetry_space_group_name_H-M   'P 21 21 21'
_symmetry_Int_Tables_number      19
_space_group_name_Hall           'P 2ac 2ab'
loop_
_symmetry_equiv_pos_site_id
_symmetry_equiv_pos_as_xyz
1 x,y,z
2 1/2-x,-y,1/2+z
3 1/2+x,1/2-y,-z
4 -x,1/2+y,1/2-z
_cell_length_a                   7.75381(7)
_cell_length_b                   13.37013(12)
_cell_length_c                   19.3857(2)
_cell_angle_alpha                90
_cell_angle_beta                 90
_cell_angle_gamma                90
_cell_volume                     2009.7
_exptl_crystal_colour            colorless
_exptl_crystal_description       plate
_cell_formula_units_Z            4
_exptl_crystal_recrystallization_method 'Vapour deposition'
loop_
_atom_site_label
_atom_site_type_symbol
_atom_site_fract_x
_atom_site_fract_y
_atom_site_fract_z
Br1 Br 0.63813(5) 0.22414(3) 0.10705(2)
F1 F 1.3802(3) 0.46042(16) 0.23254(11)
O1 O 1.3223(4) 0.7175(2) 0.20219(19)
N1 N 0.9456(4) 0.4562(3) 0.17077(17)
C1 C 0.8188(5) 0.3900(3) 0.1642(2)
H1 H 0.7197 0.3973 0.1907
O2 O 1.5558(3) 0.62664(19) 0.23091(14)
C2 C 0.8308(5) 0.3102(3) 0.11880(18)
O3 O 1.3651(3) 0.51445(18) 0.09656(12)
C3 C 0.9777(5) 0.2961(3) 0.08021(19)
H2 H 0.9866 0.2428 0.0496
O4 O 1.2511(4) 0.6139(2) 0.01397(15)
C4 C 1.1124(5) 0.3635(3) 0.08824(18)
H3 H 1.2158 0.3549 0.0646
O5 O 1.5962(3) 0.44930(17) 0.00384(13)
C5 C 1.0891(5) 0.4438(3) 0.13230(17)
O6 O 1.7951(4) 0.3634(2) -0.05630(15)
C6 C 1.2163(5) 0.5288(3) 0.13994(17)
H4 H 1.1590 0.5908 0.1258
C7 C 1.2851(5) 0.5431(3) 0.21249(18)
H5 H 1.1871 0.5504 0.2440
C8 C 1.3913(5) 0.6391(3) 0.21475(18)
C9 C 1.6566(5) 0.7197(3) 0.2323(2)
H6 H 1.6020 0.7684 0.2623
H7 H 1.6646 0.7480 0.1863
C10 C 1.8332(6) 0.6939(3) 0.2589(2)
H8 H 1.8846 0.6443 0.2296
H9 H 1.8239 0.6680 0.3050
H10 H 1.9039 0.7528 0.2592
C11 C 1.3672(5) 0.5641(2) 0.03615(17)
C12 C 1.5408(4) 0.5536(3) 0.00132(18)
C13 C 1.6840(5) 0.6145(3) 0.03717(19)
H11 H 1.7172 0.5848 0.0808
H12 H 1.6495 0.6834 0.0446
C14 C 1.8303(5) 0.6063(3) -0.0171(2)
H13 H 1.8650 0.6720 -0.0332
H14 H 1.9301 0.5724 0.0020
C15 C 1.7498(5) 0.5444(3) -0.07662(19)
C16 C 1.7247(5) 0.4412(3) -0.04528(18)
C17 C 1.5582(5) 0.5800(3) -0.07580(17)
C18 C 1.4406(5) 0.5183(3) -0.12288(19)
H15 H 1.4560 0.4484 -0.1131
H16 H 1.4697 0.5311 -0.1702
H17 H 1.3226 0.5365 -0.1148
C19 C 1.5333(5) 0.6907(3) -0.09319(18)
H18 H 1.4138 0.7080 -0.0884
H19 H 1.5696 0.7028 -0.1398
H20 H 1.6010 0.7308 -0.0623
C20 C 1.8510(6) 0.5441(3) -0.1431(2)
H21 H 1.8703 0.6117 -0.1578
H22 H 1.7873 0.5088 -0.1779
H23 H 1.9599 0.5116 -0.1358
loop_
_geom_bond_atom_site_label_1
_geom_bond_atom_site_label_2
_geom_bond_site_symmetry_1
_geom_bond_site_symmetry_2
Br1 C2 1_555 1_555
F1 C7 1_555 1_555
O1 C8 1_555 1_555
N1 C1 1_555 1_555
C1 H1 1_555 1_555
O2 C8 1_555 1_555
C2 C1 1_555 1_555
O3 C6 1_555 1_555
C3 C2 1_555 1_555
H2 C3 1_555 1_555
O4 C11 1_555 1_555
C4 C3 1_555 1_555
H3 C4 1_555 1_555
O5 C12 1_555 1_555
C5 N1 1_555 1_555
O6 C16 1_555 1_555
C6 C5 1_555 1_555
H4 C6 1_555 1_555
C7 C6 1_555 1_555
H5 C7 1_555 1_555
C8 C7 1_555 1_555
C9 O2 1_555 1_555
H6 C9 1_555 1_555
H7 C9 1_555 1_555
C10 C9 1_555 1_555
H8 C10 1_555 1_555
H9 C10 1_555 1_555
H10 C10 1_555 1_555
C11 O3 1_555 1_555
C12 C11 1_555 1_555
C13 C12 1_555 1_555
H11 C13 1_555 1_555
H12 C13 1_555 1_555
C14 C13 1_555 1_555
H13 C14 1_555 1_555
H14 C14 1_555 1_555
C15 C14 1_555 1_555
C16 O5 1_555 1_555
C17 C12 1_555 1_555
C18 C17 1_555 1_555
H15 C18 1_555 1_555
H16 C18 1_555 1_555
H17 C18 1_555 1_555
C19 C17 1_555 1_555
H18 C19 1_555 1_555
H19 C19 1_555 1_555
H20 C19 1_555 1_555
C20 C15 1_555 1_555
H21 C20 1_555 1_555
H22 C20 1_555 1_555
H23 C20 1_555 1_555
C4 C5 1_555 1_555
C15 C16 1_555 1_555
C15 C17 1_555 1_555

#END
