
#######################################################################
#
#                 Cambridge Crystallographic Data Centre
#                                CCDC 
#
#######################################################################
#
# If this CIF has been generated from an entry in the Cambridge 
# Structural Database, then it will include bibliographic, chemical, 
# crystal, experimental, refinement or atomic coordinate data resulting 
# from the CCDC's data processing and validation procedures.
#
#######################################################################

data_ISONOU
_chemical_formula_moiety         'C61 H99 N5 O8,0.5(C7 H16)'
_chemical_name_systematic        
'Benzyl 2-(2-((2-(2-((2-(2-((2-(2-(((1-(((t-butoxycarbonyl)amino)methyl)-cyclohexyl)acetyl)amino)cyclohexyl)butanoyl)amino)cyclohexyl)butanoyl)amino)-cyclohexyl)butanoyl)amino)cyclohexyl)butanoate heptane solvate'
_symmetry_cell_setting           orthorhombic
_symmetry_space_group_name_H-M   'P 21 21 2'
_symmetry_Int_Tables_number      18
_space_group_name_Hall           'P 2 2ab'
loop_
_symmetry_equiv_pos_site_id
_symmetry_equiv_pos_as_xyz
1 x,y,z
2 -x,-y,z
3 1/2-x,1/2+y,-z
4 1/2+x,1/2-y,-z
_cell_length_a                   20.8324(5)
_cell_length_b                   26.0681(6)
_cell_length_c                   11.8022(3)
_cell_angle_alpha                90
_cell_angle_beta                 90
_cell_angle_gamma                90
_cell_volume                     6409.32
_exptl_crystal_colour            colorless
_exptl_crystal_description       needle
_cell_formula_units_Z            4
loop_
_atom_site_label
_atom_site_type_symbol
_atom_site_fract_x
_atom_site_fract_y
_atom_site_fract_z
O1 O 0.15048(9) 0.65270(5) 0.78626(13)
O2 O 0.14353(7) 0.56833(5) 0.83475(13)
O3 O 0.23913(8) 0.46776(6) 1.12656(14)
O4 O 0.26434(7) 0.37730(5) 0.75961(13)
O5 O 0.35762(8) 0.23921(5) 0.99511(14)
O6 O 0.50450(9) 0.20424(6) 0.92687(16)
N1 N 0.13681(8) 0.63310(6) 0.96514(14)
H1 H 0.1382 0.6666 0.9734
N2 N 0.17569(7) 0.48362(6) 0.97522(15)
H2 H 0.1586 0.5069 0.9304
N3 N 0.35570(8) 0.29291(6) 0.84529(14)
H3 H 0.3440 0.3232 0.8196
C1 C 0.1823(2) 0.69681(10) 0.6247(2)
H4 H 0.1424 0.7163 0.6332
H5 H 0.1940 0.6951 0.5443
H6 H 0.2167 0.7138 0.6671
C2 C 0.12171(15) 0.61433(12) 0.6042(2)
H7 H 0.1186 0.5790 0.6321
H8 H 0.1331 0.6140 0.5236
H9 H 0.0803 0.6316 0.6140
C3 C 0.23625(13) 0.61418(10) 0.6729(2)
H10 H 0.2647 0.6300 0.7291
H11 H 0.2564 0.6158 0.5980
H12 H 0.2286 0.5783 0.6934
C4 C 0.17282(13) 0.64280(8) 0.67022(19)
C5 C 0.14363(10) 0.61390(7) 0.86104(17)
C6 C 0.12725(9) 0.60183(7) 1.06560(17)
H13 H 0.1071 0.5690 1.0428
H14 H 0.0970 0.6197 1.1168
C7 C 0.18942(9) 0.59004(7) 1.13155(16)
C8 C 0.22533(9) 0.64070(7) 1.15482(16)
H15 H 0.2416 0.6545 1.0822
H16 H 0.1947 0.6660 1.1863
C9 C 0.28161(11) 0.63475(8) 1.23713(18)
H17 H 0.3153 0.6134 1.2015
H18 H 0.3003 0.6689 1.2531
C10 C 0.26063(14) 0.61007(10) 1.3475(2)
H19 H 0.2314 0.6336 1.3882
H20 H 0.2987 0.6042 1.3960
C11 C 0.22645(13) 0.55900(9) 1.3269(2)
H21 H 0.2105 0.5453 1.3999
H22 H 0.2573 0.5339 1.2952
C12 C 0.17021(11) 0.56560(8) 1.24520(19)
H23 H 0.1371 0.5873 1.2817
H24 H 0.1508 0.5316 1.2304
C13 C 0.23396(9) 0.55484(7) 1.06097(16)
H25 H 0.2349 0.5679 0.9822
H26 H 0.2780 0.5577 1.0917
C14 C 0.21572(9) 0.49832(7) 1.05782(17)
C15 C 0.15985(8) 0.42922(6) 0.95823(16)
H27 H 0.2003 0.4089 0.9671
C16 C 0.11190(9) 0.41048(7) 1.04780(19)
H28 H 0.1071 0.3728 1.0416
H29 H 0.1288 0.4183 1.1243
C17 C 0.04636(10) 0.43591(8) 1.0331(2)
H30 H 0.0161 0.4221 1.0902
H31 H 0.0504 0.4733 1.0455
C18 C 0.02018(9) 0.42601(8) 0.9151(2)
H32 H -0.0210 0.4444 0.9060
H33 H 0.0117 0.3889 0.9061
C19 C 0.06691(9) 0.44355(7) 0.82319(19)
H34 H 0.0702 0.4814 0.8251
H35 H 0.0497 0.4336 0.7481
C20 C 0.13442(8) 0.42035(6) 0.83756(17)
H36 H 0.1303 0.3824 0.8267
C21 C 0.18018(9) 0.44035(7) 0.74526(17)
H37 H 0.1795 0.4787 0.7476
C22 C 0.16035(11) 0.42328(10) 0.62568(19)
H38 H 0.1650 0.3856 0.6195
H39 H 0.1146 0.4318 0.6134
C23 C 0.20073(19) 0.44892(12) 0.5338(2)
H40 H 0.2004 0.4862 0.5451
H41 H 0.1827 0.4408 0.4592
H42 H 0.2449 0.4362 0.5380
C24 C 0.24925(8) 0.42272(7) 0.76400(17)
O7 O 0.44981(11) 0.40868(9) 1.0051(3)
N4 N 0.29310(13) 0.45925(16) 0.7864(3)
H43 H 0.2793 0.4900 0.8048
N5 N 0.35086(6) 0.40257(5) 1.08103(14)
H44 H 0.3126 0.4168 1.0831
C25 C 0.36382(6) 0.45045(5) 0.78171(14)
H45 H 0.3734 0.4150 0.8094
C26 C 0.38729(6) 0.45570(5) 0.65998(14)
H46 H 0.3630 0.4318 0.6109
H47 H 0.4333 0.4462 0.6561
C27 C 0.37872(6) 0.51029(5) 0.61640(14)
H48 H 0.3972 0.5130 0.5394
H49 H 0.3324 0.5183 0.6113
C28 C 0.41129(6) 0.54908(5) 0.69404(14)
H50 H 0.4583 0.5438 0.6917
H51 H 0.4022 0.5842 0.6665
C29 C 0.38781(6) 0.54383(5) 0.81577(14)
H52 H 0.3419 0.5533 0.8196
H53 H 0.4121 0.5678 0.8649
C30 C 0.39638(6) 0.48923(5) 0.85935(14)
H54 H 0.4434 0.4820 0.8534
C31 C 0.37950(14) 0.48165(9) 0.9842(3)
H55 H 0.3320 0.4859 0.9919
C32 C 0.41185(17) 0.52178(11) 1.0631(4)
H56 H 0.4580 0.5237 1.0438
H57 H 0.3928 0.5558 1.0474
C33 C 0.40565(19) 0.51083(13) 1.1886(4)
H58 H 0.3605 0.5045 1.2072
H59 H 0.4213 0.5404 1.2318
H60 H 0.4312 0.4805 1.2079
C34 C 0.39663(6) 0.42682(4) 1.02576(10)
C35 C 0.35975(6) 0.35283(4) 1.13995(10)
H61 H 0.3957 0.3344 1.1014
C36 C 0.37914(6) 0.36065(4) 1.26325(10)
H62 H 0.3929 0.3275 1.2959
H63 H 0.4160 0.3846 1.2669
C37 C 0.32378(6) 0.38215(4) 1.33300(10)
H64 H 0.3369 0.3844 1.4135
H65 H 0.3135 0.4172 1.3064
C38 C 0.26419(6) 0.34854(4) 1.32331(10)
H66 H 0.2283 0.3648 1.3650
H67 H 0.2728 0.3148 1.3586
C39 C 0.24480(6) 0.34072(4) 1.20001(10)
H68 H 0.2080 0.3168 1.1964
H69 H 0.2310 0.3739 1.1674
C40 C 0.30016(6) 0.31922(4) 1.13026(10)
H70 H 0.3114 0.2851 1.1638
C41 C 0.28400(10) 0.30983(7) 1.00492(18)
H71 H 0.2800 0.3435 0.9649
C42 C 0.21982(12) 0.27964(9) 0.9942(3)
H72 H 0.2241 0.2467 1.0353
H73 H 0.1854 0.2996 1.0315
C43 C 0.19996(11) 0.26855(9) 0.8736(3)
H74 H 0.1940 0.3009 0.8328
H75 H 0.1596 0.2492 0.8736
H76 H 0.2334 0.2483 0.8361
C44 C 0.33587(9) 0.27773(7) 0.94791(17)
C45 C 0.39658(9) 0.25994(7) 0.77490(17)
H77 H 0.4007 0.2262 0.8147
C46 C 0.36427(11) 0.24977(7) 0.66064(18)
H78 H 0.3876 0.2220 0.6209
H79 H 0.3197 0.2379 0.6738
C47 C 0.36294(11) 0.29733(8) 0.58545(18)
H80 H 0.3431 0.2888 0.5116
H81 H 0.3367 0.3244 0.6219
C48 C 0.43089(12) 0.31703(9) 0.5666(2)
H82 H 0.4294 0.3488 0.5206
H83 H 0.4559 0.2911 0.5242
C49 C 0.46404(10) 0.32819(8) 0.6793(2)
H84 H 0.4414 0.3567 0.7178
H85 H 0.5087 0.3394 0.6645
C50 C 0.46508(9) 0.28138(7) 0.75784(19)
H86 H 0.4911 0.2541 0.7197
C51 C 0.49824(10) 0.29423(8) 0.8707(2)
H87 H 0.4741 0.3229 0.9075
C52 C 0.56915(13) 0.31143(10) 0.8548(2)
H88 H 0.5694 0.3457 0.8185
H89 H 0.5891 0.3152 0.9306
C53 C 0.6095(2) 0.27610(19) 0.7859(5)
H90 H 0.6082 0.2416 0.8190
H91 H 0.6539 0.2885 0.7852
H92 H 0.5931 0.2749 0.7082
C54 C 0.49889(10) 0.24886(8) 0.9519(2)
O8 O 0.4981(3) 0.26721(18) 1.0615(3)
C55 C 0.5081(3) 0.22558(15) 1.1455(3)
H93 H 0.5384 0.1997 1.1155
H94 H 0.4669 0.2084 1.1631
C56 C 0.5351(2) 0.25051(10) 1.24992(18)
C57 C 0.5410(4) 0.30340(11) 1.2609(4)
H95 H 0.5252 0.3253 1.2029
C58 C 0.5699(5) 0.32418(18) 1.3566(6)
H96 H 0.5739 0.3603 1.3641
C59 C 0.5929(3) 0.2921(3) 1.4414(4)
H97 H 0.6127 0.3063 1.5068
C60 C 0.5871(3) 0.2392(2) 1.4304(4)
H98 H 0.6028 0.2172 1.4884
C61 C 0.5582(3) 0.21841(15) 1.3347(4)
H99 H 0.5542 0.1823 1.3272
C62? C 0.3594(2) 0.45425(19) 0.7486(4)
C63? C 0.3772(2) 0.45507(19) 0.6234(4)
C64? C 0.3714(2) 0.50890(19) 0.5740(4)
C65? C 0.4111(2) 0.54739(19) 0.6413(4)
C66? C 0.3934(2) 0.54657(19) 0.7666(4)
C67? C 0.3991(2) 0.49275(19) 0.8159(4)
C68? C 0.3832(5) 0.4876(3) 0.9441(7)
C69? C 0.4153(7) 0.5294(3) 1.0150(10)
C70? C 0.4144(7) 0.5221(5) 1.1420(11)
C71? C 0.4011(2) 0.43218(15) 0.9848(2)
C72? C 0.3737(2) 0.35875(15) 1.1110(2)
C73? C 0.4012(2) 0.37052(15) 1.2278(2)
C74? C 0.3512(2) 0.39537(15) 1.3043(2)
C75? C 0.2908(2) 0.36258(15) 1.3127(2)
C76? C 0.2633(2) 0.35080(15) 1.1959(2)
C77? C 0.3134(2) 0.32595(15) 1.1194(2)
C78? C 0.6060(3) 0.3288(2) 0.9560(5)
C79? C 0.4800(3) 0.23178(14) 1.1474(3)
C80? C 0.5228(4) 0.2479(2) 1.2437(4)
C81? C 0.5367(8) 0.2991(2) 1.2657(10)
C82? C 0.5741(10) 0.3122(4) 1.3588(12)
C83? C 0.5977(6) 0.2740(5) 1.4299(9)
C84? C 0.5838(7) 0.2228(4) 1.4079(8)
C85? C 0.5464(7) 0.2098(3) 1.3148(8)
H100? H 0.3691 0.4192 0.7786
H101? H 0.4218 0.4427 0.6141
H102? H 0.3485 0.4315 0.5813
H103? H 0.3258 0.5196 0.5747
H104? H 0.3863 0.5086 0.4943
H105? H 0.4573 0.5392 0.6328
H106? H 0.4039 0.5823 0.6106
H107? H 0.4220 0.5701 0.8087
H108? H 0.3487 0.5589 0.7759
H109? H 0.4450 0.4823 0.8069
H110? H 0.3357 0.4917 0.9528
H111? H 0.4606 0.5322 0.9904
H112? H 0.3942 0.5625 0.9974
H113? H 0.3705 0.5150 1.1669
H114? H 0.4300 0.5534 1.1789
H115? H 0.4423 0.4933 1.1625
H116? H 0.4067 0.3396 1.0663
H117? H 0.4165 0.3383 1.2632
H118? H 0.4384 0.3939 1.2198
H119? H 0.3398 0.4296 1.2739
H120? H 0.3695 0.4002 1.3810
H121? H 0.3011 0.3300 1.3518
H122? H 0.2582 0.3809 1.3583
H123? H 0.2480 0.3830 1.1606
H124? H 0.2261 0.3275 1.2039
H125? H 0.2762 0.4951 0.7737
H126? H 0.3265 0.2935 1.1580
H127? H 0.2791 0.3418 0.9589
H128? H 0.3251 0.4249 1.0697
H129? H 0.5931 0.2822 0.8221
H130? H 0.5698 0.3394 0.7981
H131? H 0.6130 0.2997 1.0070
H132? H 0.5816 0.3555 0.9958
H133? H 0.6475 0.3428 0.9318
H134? H 0.4881 0.1954 1.1285
H135? H 0.4345 0.2352 1.1703
H136? H 0.5205 0.3251 1.2172
H137? H 0.5836 0.3471 1.3739
H138? H 0.6233 0.2830 1.4935
H139? H 0.6000 0.1968 1.4564
H140? H 0.5369 0.1748 1.2997
N6? N 0.2907(4) 0.4637(6) 0.7643(11)
N7? N 0.3616(2) 0.40933(19) 1.0547(4)
O9? O 0.4575(4) 0.4177(4) 0.9644(11)
O10? O 0.4921(5) 0.2628(2) 1.0514(3)
loop_
_geom_bond_atom_site_label_1
_geom_bond_atom_site_label_2
_geom_bond_site_symmetry_1
_geom_bond_site_symmetry_2
O1 C4 1_555 1_555
O2 C5 1_555 1_555
O3 C14 1_555 1_555
O4 C24 1_555 1_555
O5 C44 1_555 1_555
O6 C54 1_555 1_555
N1 H1 1_555 1_555
N2 H2 1_555 1_555
N3 H3 1_555 1_555
C1 H4 1_555 1_555
H5 C1 1_555 1_555
H6 C1 1_555 1_555
C2 H7 1_555 1_555
H8 C2 1_555 1_555
H9 C2 1_555 1_555
C3 H10 1_555 1_555
H11 C3 1_555 1_555
H12 C3 1_555 1_555
C4 C1 1_555 1_555
C5 O1 1_555 1_555
C6 N1 1_555 1_555
H13 C6 1_555 1_555
H14 C6 1_555 1_555
C7 C6 1_555 1_555
C8 C7 1_555 1_555
H15 C8 1_555 1_555
H16 C8 1_555 1_555
C9 C8 1_555 1_555
H17 C9 1_555 1_555
H18 C9 1_555 1_555
C10 C9 1_555 1_555
H19 C10 1_555 1_555
H20 C10 1_555 1_555
C11 C10 1_555 1_555
H21 C11 1_555 1_555
H22 C11 1_555 1_555
C12 C7 1_555 1_555
H23 C12 1_555 1_555
H24 C12 1_555 1_555
C13 C7 1_555 1_555
H25 C13 1_555 1_555
H26 C13 1_555 1_555
C14 N2 1_555 1_555
C15 N2 1_555 1_555
H27 C15 1_555 1_555
C16 C15 1_555 1_555
H28 C16 1_555 1_555
H29 C16 1_555 1_555
C17 C16 1_555 1_555
H30 C17 1_555 1_555
H31 C17 1_555 1_555
C18 C17 1_555 1_555
H32 C18 1_555 1_555
H33 C18 1_555 1_555
C19 C18 1_555 1_555
H34 C19 1_555 1_555
H35 C19 1_555 1_555
C20 C15 1_555 1_555
H36 C20 1_555 1_555
C21 C20 1_555 1_555
H37 C21 1_555 1_555
C22 C21 1_555 1_555
H38 C22 1_555 1_555
H39 C22 1_555 1_555
C23 C22 1_555 1_555
H40 C23 1_555 1_555
H41 C23 1_555 1_555
H42 C23 1_555 1_555
C24 C21 1_555 1_555
O7 C34 1_555 1_555
N4 C24 1_555 1_555
H43 N4 1_555 1_555
N5 H44 1_555 1_555
C25 N4 1_555 1_555
H45 C25 1_555 1_555
C26 C25 1_555 1_555
H46 C26 1_555 1_555
H47 C26 1_555 1_555
C27 C26 1_555 1_555
H48 C27 1_555 1_555
H49 C27 1_555 1_555
C28 C27 1_555 1_555
H50 C28 1_555 1_555
H51 C28 1_555 1_555
C29 C28 1_555 1_555
H52 C29 1_555 1_555
H53 C29 1_555 1_555
C30 C25 1_555 1_555
H54 C30 1_555 1_555
C31 C30 1_555 1_555
H55 C31 1_555 1_555
C32 C31 1_555 1_555
H56 C32 1_555 1_555
H57 C32 1_555 1_555
C33 C32 1_555 1_555
H58 C33 1_555 1_555
H59 C33 1_555 1_555
H60 C33 1_555 1_555
C34 N5 1_555 1_555
C35 N5 1_555 1_555
H61 C35 1_555 1_555
C36 C35 1_555 1_555
H62 C36 1_555 1_555
H63 C36 1_555 1_555
C37 C36 1_555 1_555
H64 C37 1_555 1_555
H65 C37 1_555 1_555
C38 C37 1_555 1_555
H66 C38 1_555 1_555
H67 C38 1_555 1_555
C39 C38 1_555 1_555
H68 C39 1_555 1_555
H69 C39 1_555 1_555
C40 C35 1_555 1_555
H70 C40 1_555 1_555
C41 C40 1_555 1_555
H71 C41 1_555 1_555
C42 C41 1_555 1_555
H72 C42 1_555 1_555
H73 C42 1_555 1_555
C43 C42 1_555 1_555
H74 C43 1_555 1_555
H75 C43 1_555 1_555
H76 C43 1_555 1_555
C44 N3 1_555 1_555
C45 N3 1_555 1_555
H77 C45 1_555 1_555
C46 C45 1_555 1_555
H78 C46 1_555 1_555
H79 C46 1_555 1_555
C47 C46 1_555 1_555
H80 C47 1_555 1_555
H81 C47 1_555 1_555
C48 C47 1_555 1_555
H82 C48 1_555 1_555
H83 C48 1_555 1_555
C49 C48 1_555 1_555
H84 C49 1_555 1_555
H85 C49 1_555 1_555
C50 C45 1_555 1_555
H86 C50 1_555 1_555
C51 C50 1_555 1_555
H87 C51 1_555 1_555
C52 C51 1_555 1_555
H88 C52 1_555 1_555
H89 C52 1_555 1_555
C53 C52 1_555 1_555
H90 C53 1_555 1_555
H91 C53 1_555 1_555
H92 C53 1_555 1_555
C54 C51 1_555 1_555
O8 C54 1_555 1_555
C55 O8 1_555 1_555
H93 C55 1_555 1_555
H94 C55 1_555 1_555
C56 C55 1_555 1_555
C57 C56 1_555 1_555
H95 C57 1_555 1_555
C58 C57 1_555 1_555
H96 C58 1_555 1_555
C59 C58 1_555 1_555
H97 C59 1_555 1_555
C60 C59 1_555 1_555
H98 C60 1_555 1_555
C61 C56 1_555 1_555
H99 C61 1_555 1_555
N1 C5 1_555 1_555
C2 C4 1_555 1_555
C3 C4 1_555 1_555
C11 C12 1_555 1_555
C13 C14 1_555 1_555
C19 C20 1_555 1_555
C29 C30 1_555 1_555
C31 C34 1_555 1_555
C39 C40 1_555 1_555
C41 C44 1_555 1_555
C49 C50 1_555 1_555
C60 C61 1_555 1_555

#END
