
#######################################################################
#
#                 Cambridge Crystallographic Data Centre
#                                CCDC 
#
#######################################################################
#
# If this CIF has been generated from an entry in the Cambridge 
# Structural Database, then it will include bibliographic, chemical, 
# crystal, experimental, refinement or atomic coordinate data resulting 
# from the CCDC's data processing and validation procedures.
#
#######################################################################

data_ISOPOX
_chemical_formula_moiety         'C10 H9 N3 O1'
_chemical_name_systematic        2,3-dihydroimidazo[2,1-b]quinazolin-5(1H)-one
_symmetry_cell_setting           monoclinic
_symmetry_space_group_name_H-M   'P 21/c'
_symmetry_Int_Tables_number      14
_space_group_name_Hall           '-P 2ybc'
loop_
_symmetry_equiv_pos_site_id
_symmetry_equiv_pos_as_xyz
1 x,y,z
2 -x,1/2+y,1/2-z
3 -x,-y,-z
4 x,1/2-y,1/2+z
_cell_length_a                   8.6101(14)
_cell_length_b                   17.285(3)
_cell_length_c                   11.868(2)
_cell_angle_alpha                90
_cell_angle_beta                 93.126(3)
_cell_angle_gamma                90
_cell_volume                     1763.63
_exptl_crystal_colour            colorless
_exptl_crystal_description       block
_cell_formula_units_Z            8
loop_
_atom_site_label
_atom_site_type_symbol
_atom_site_fract_x
_atom_site_fract_y
_atom_site_fract_z
C1 C 0.0031(2) 0.64356(12) 0.11636(16)
C2 C 0.0641(2) 0.65064(12) 0.00931(16)
C3 C 0.0191(3) 0.71506(13) -0.05644(18)
H1 H 0.0593 0.7217 -0.1270
C4 C -0.0832(3) 0.76845(13) -0.0181(2)
H2 H -0.1110 0.8109 -0.0629
C5 C -0.1461(3) 0.76004(14) 0.0866(2)
H3 H -0.2169 0.7960 0.1114
C6 C -0.1024(3) 0.69820(13) 0.15261(19)
H4 H -0.1438 0.6924 0.2229
C7 C 0.0503(2) 0.57810(12) 0.18892(16)
C8 C 0.2021(2) 0.53899(12) 0.03281(16)
C9 C 0.2133(3) 0.45717(14) 0.19031(19)
H5 H 0.1311 0.4211 0.2062
H6 H 0.2743 0.4681 0.2596
C10 C 0.3150(3) 0.42551(13) 0.10047(19)
H7 H 0.4226 0.4217 0.1287
H8 H 0.2795 0.3748 0.0754
N1 N 0.1498(2) 0.52832(10) 0.13910(13)
N2 N 0.1654(2) 0.59681(10) -0.03366(13)
N3 N 0.2981(3) 0.48122(12) 0.01010(16)
H9 H 0.333(3) 0.4730(15) -0.058(2)
O1 O 0.0081(2) 0.56636(10) 0.28395(12)
C11 C 0.4458(2) 0.37463(11) 0.62464(17)
C12 C 0.4530(2) 0.39344(12) 0.73971(17)
C13 C 0.5277(3) 0.34169(14) 0.8157(2)
H10 H 0.5357 0.3533 0.8924
C14 C 0.5892(3) 0.27406(16) 0.7774(3)
H11 H 0.6380 0.2401 0.8288
C15 C 0.5803(3) 0.25529(14) 0.6643(3)
H12 H 0.6222 0.2090 0.6398
C16 C 0.5098(3) 0.30493(13) 0.5888(2)
H13 H 0.5039 0.2925 0.5125
C17 C 0.3707(2) 0.42753(11) 0.54326(17)
C18 C 0.3159(2) 0.50430(11) 0.70622(16)
C19 C 0.2170(3) 0.55175(13) 0.53259(18)
H14 H 0.1350 0.5312 0.4818
H15 H 0.2859 0.5836 0.4901
C20 C 0.1507(3) 0.59685(12) 0.62842(18)
H16 H 0.1603 0.6521 0.6166
H17 H 0.0421 0.5842 0.6363
N4 N 0.30227(19) 0.48972(9) 0.59274(13)
N5 N 0.3887(2) 0.46072(10) 0.78097(13)
N6 N 0.2459(2) 0.57192(10) 0.72680(16)
H18 H 0.224(3) 0.5829(14) 0.795(2)
O2 O 0.3651(2) 0.42001(9) 0.44117(12)
loop_
_geom_bond_atom_site_label_1
_geom_bond_atom_site_label_2
_geom_bond_site_symmetry_1
_geom_bond_site_symmetry_2
C1 C2 1_555 1_555
C2 C3 1_555 1_555
C3 H1 1_555 1_555
C4 C3 1_555 1_555
H2 C4 1_555 1_555
C5 C4 1_555 1_555
H3 C5 1_555 1_555
C6 C1 1_555 1_555
H4 C6 1_555 1_555
C7 C1 1_555 1_555
C8 N1 1_555 1_555
C9 H5 1_555 1_555
H6 C9 1_555 1_555
C10 C9 1_555 1_555
H7 C10 1_555 1_555
H8 C10 1_555 1_555
N1 C7 1_555 1_555
N2 C2 1_555 1_555
N3 C8 1_555 1_555
H9 N3 1_555 1_555
O1 C7 1_555 1_555
C11 C12 1_555 1_555
C12 C13 1_555 1_555
C13 H10 1_555 1_555
C14 C13 1_555 1_555
H11 C14 1_555 1_555
C15 C14 1_555 1_555
H12 C15 1_555 1_555
C16 C11 1_555 1_555
H13 C16 1_555 1_555
C17 C11 1_555 1_555
C18 N4 1_555 1_555
C19 H14 1_555 1_555
H15 C19 1_555 1_555
C20 C19 1_555 1_555
H16 C20 1_555 1_555
H17 C20 1_555 1_555
N4 C17 1_555 1_555
N5 C12 1_555 1_555
N6 C18 1_555 1_555
H18 N6 1_555 1_555
O2 C17 1_555 1_555
C5 C6 1_555 1_555
C8 N2 1_555 1_555
C9 N1 1_555 1_555
C10 N3 1_555 1_555
C15 C16 1_555 1_555
C18 N5 1_555 1_555
C19 N4 1_555 1_555
C20 N6 1_555 1_555

#END
