
#######################################################################
#
#                 Cambridge Crystallographic Data Centre
#                                CCDC 
#
#######################################################################
#
# If this CIF has been generated from an entry in the Cambridge 
# Structural Database, then it will include bibliographic, chemical, 
# crystal, experimental, refinement or atomic coordinate data resulting 
# from the CCDC's data processing and validation procedures.
#
#######################################################################

data_ISOQAK
_chemical_formula_moiety         'C20 H21 F1 N2 O1'
_chemical_name_systematic        
2-(4-(4-fluorophenyl)piperazin-1-yl)-1,2-dihydronaphthalen-1-ol
_symmetry_cell_setting           orthorhombic
_symmetry_space_group_name_H-M   'P 21 21 21'
_symmetry_Int_Tables_number      19
_space_group_name_Hall           'P 2ac 2ab'
loop_
_symmetry_equiv_pos_site_id
_symmetry_equiv_pos_as_xyz
1 x,y,z
2 1/2-x,-y,1/2+z
3 -x,1/2+y,1/2-z
4 1/2+x,1/2-y,-z
_cell_length_a                   9.572(3)
_cell_length_b                   10.034(3)
_cell_length_c                   17.732(5)
_cell_angle_alpha                90
_cell_angle_beta                 90
_cell_angle_gamma                90
_cell_volume                     1703.08
_exptl_crystal_colour            white
_exptl_crystal_description       block
_cell_formula_units_Z            4
loop_
_atom_site_label
_atom_site_type_symbol
_atom_site_fract_x
_atom_site_fract_y
_atom_site_fract_z
C1 C -0.0816(5) 0.6098(4) 0.5364(2)
H1 H -0.1095 0.5988 0.5863
C2 C 0.0413(5) 0.6733(4) 0.5210(2)
H2 H 0.0959 0.7063 0.5601
C3 C 0.0845(4) 0.6884(4) 0.4470(2)
H3 H 0.1690 0.7303 0.4367
C4 C 0.0021(4) 0.6413(3) 0.38774(18)
C5 C -0.1244(4) 0.5778(3) 0.40358(19)
C6 C -0.1654(4) 0.5616(4) 0.4786(2)
H4 H -0.2488 0.5185 0.4898
C7 C 0.0482(4) 0.6457(4) 0.3074(2)
H5 H 0.0893 0.5583 0.2967
C8 C -0.0675(4) 0.6622(4) 0.2530(2)
H6 H -0.1086 0.7498 0.2633
C9 C -0.1806(4) 0.5605(4) 0.2699(2)
H7 H -0.2300 0.5206 0.2308
C10 C -0.2083(4) 0.5292(4) 0.3404(2)
H8 H -0.2842 0.4741 0.3505
C11 C 0.0309(4) 0.5414(4) 0.1437(2)
H9 H -0.0485 0.4818 0.1399
H10 H 0.0990 0.5008 0.1770
C12 C 0.0952(4) 0.5605(4) 0.0663(2)
H11 H 0.1791 0.6140 0.0708
H12 H 0.1214 0.4744 0.0459
C13 C -0.0530(5) 0.7514(4) 0.0481(2)
H13 H -0.1229 0.7907 0.0153
H14 H 0.0240 0.8138 0.0525
C14 C -0.1147(5) 0.7275(4) 0.1241(2)
H15 H -0.1470 0.8114 0.1449
H16 H -0.1948 0.6688 0.1192
C15 C 0.0300(3) 0.6263(3) -0.06246(19)
C16 C 0.0860(4) 0.5116(4) -0.0963(2)
H17 H 0.1077 0.4387 -0.0661
C17 C 0.1098(4) 0.5039(5) -0.1726(2)
H18 H 0.1486 0.4275 -0.1937
C18 C 0.0762(5) 0.6082(6) -0.2162(2)
C19 C 0.0216(4) 0.7238(5) -0.1873(2)
H19 H -0.0011 0.7946 -0.2189
C20 C 0.0007(4) 0.7331(4) -0.1098(2)
H20 H -0.0333 0.8120 -0.0894
F1 F 0.1000(4) 0.6028(4) -0.29283(14)
N1 N -0.0144(3) 0.6681(3) 0.17530(17)
N2 N -0.0023(3) 0.6259(3) 0.01471(15)
O1 O 0.1578(2) 0.7409(3) 0.29656(14)
H21 H 0.1548 0.7695 0.2533
loop_
_geom_bond_atom_site_label_1
_geom_bond_atom_site_label_2
_geom_bond_site_symmetry_1
_geom_bond_site_symmetry_2
C1 H1 1_555 1_555
C2 C1 1_555 1_555
H2 C2 1_555 1_555
C3 C2 1_555 1_555
H3 C3 1_555 1_555
C4 C3 1_555 1_555
C5 C4 1_555 1_555
C6 C1 1_555 1_555
H4 C6 1_555 1_555
C7 C4 1_555 1_555
H5 C7 1_555 1_555
C8 C7 1_555 1_555
H6 C8 1_555 1_555
C9 C8 1_555 1_555
H7 C9 1_555 1_555
C10 C5 1_555 1_555
H8 C10 1_555 1_555
C11 H9 1_555 1_555
H10 C11 1_555 1_555
C12 C11 1_555 1_555
H11 C12 1_555 1_555
H12 C12 1_555 1_555
C13 H13 1_555 1_555
H14 C13 1_555 1_555
C14 C13 1_555 1_555
H15 C14 1_555 1_555
H16 C14 1_555 1_555
C15 C16 1_555 1_555
C16 H17 1_555 1_555
C17 C16 1_555 1_555
H18 C17 1_555 1_555
C18 C17 1_555 1_555
C19 C18 1_555 1_555
H19 C19 1_555 1_555
C20 C15 1_555 1_555
H20 C20 1_555 1_555
F1 C18 1_555 1_555
N1 C8 1_555 1_555
N2 C12 1_555 1_555
O1 C7 1_555 1_555
H21 O1 1_555 1_555
C5 C6 1_555 1_555
C9 C10 1_555 1_555
C11 N1 1_555 1_555
C13 N2 1_555 1_555
C14 N1 1_555 1_555
C15 N2 1_555 1_555
C19 C20 1_555 1_555

#END
