
#######################################################################
#
#                 Cambridge Crystallographic Data Centre
#                                CCDC 
#
#######################################################################
#
# If this CIF has been generated from an entry in the Cambridge 
# Structural Database, then it will include bibliographic, chemical, 
# crystal, experimental, refinement or atomic coordinate data resulting 
# from the CCDC's data processing and validation procedures.
#
#######################################################################

data_ISOQOX
_chemical_formula_moiety         'C24 H20 F4 O2'
_chemical_name_systematic        
1,2,4,5-Tetrafluoro-3-(4-methoxybenzyl)-6-(3-(4-methoxyphenyl)prop-2-en-1-yl)benzene
_symmetry_cell_setting           monoclinic
_symmetry_space_group_name_H-M   'P c'
_symmetry_Int_Tables_number      7
_space_group_name_Hall           'P -2yc'
loop_
_symmetry_equiv_pos_site_id
_symmetry_equiv_pos_as_xyz
1 x,y,z
2 x,-y,1/2+z
_cell_length_a                   17.865(2)
_cell_length_b                   5.7304(7)
_cell_length_c                   9.5540(11)
_cell_angle_alpha                90
_cell_angle_beta                 90.233(2)
_cell_angle_gamma                90
_cell_volume                     978.069
_exptl_crystal_colour            colorless
_exptl_crystal_description       prismatic
_cell_formula_units_Z            2
loop_
_atom_site_label
_atom_site_type_symbol
_atom_site_fract_x
_atom_site_fract_y
_atom_site_fract_z
F1 F 0.33187(17) -0.1432(3) 0.0755(3)
F2 F 0.19745(18) -0.0181(5) -0.0166(3)
F3 F 0.20920(13) 0.6561(4) 0.2603(2)
F4 F 0.34308(13) 0.5308(3) 0.3538(2)
O1 O 0.66034(13) 0.2948(4) -0.0988(3)
O2 O -0.20182(13) 0.2046(4) 0.6226(2)
C1 C 0.59942(17) 0.2641(5) -0.0147(3)
C2 C 0.5990(2) 0.0622(5) 0.0641(4)
H1 H 0.6385 -0.0429 0.0572
C3 C 0.5406(2) 0.0158(5) 0.1527(4)
H2 H 0.5414 -0.1206 0.2053
C4 C 0.48043(19) 0.1668(5) 0.1659(4)
C5 C 0.48174(18) 0.3660(6) 0.0852(4)
H3 H 0.4420 0.4703 0.0917
C6 C 0.54000(19) 0.4168(5) -0.0052(4)
H4 H 0.5390 0.5521 -0.0589
C7 C 0.4190(2) 0.1148(7) 0.2692(4)
H5 H 0.4185 -0.0515 0.2884
H6 H 0.4299 0.1949 0.3564
C8 C 0.34294(18) 0.1872(6) 0.2186(3)
C9 C 0.3022(2) 0.0560(5) 0.1226(4)
C10 C 0.2330(2) 0.1226(6) 0.0753(4)
C11 C 0.19892(19) 0.3243(7) 0.1180(3)
C12 C 0.23919(19) 0.4552(5) 0.2140(3)
C13 C 0.30809(19) 0.3897(6) 0.2616(3)
C14 C 0.1241(2) 0.4028(11) 0.0666(5)
H7 H 0.1314 0.5566 0.0266
H8 H 0.1109 0.3004 -0.0105
C15 C 0.0566(4) 0.4189(13) 0.1566(7)
H11 H 0.0181 0.5218 0.1346
C16 C 0.0526(4) 0.2876(11) 0.2656(8)
H12 H 0.0927 0.1928 0.2908
C17 C -0.0209(3) 0.2897(9) 0.3557(4)
C18 C -0.0251(2) 0.1032(7) 0.4411(4)
H13 H 0.0133 -0.0062 0.4393
C19 C -0.08401(19) 0.0680(6) 0.5310(4)
H14 H -0.0849 -0.0645 0.5872
C20 C -0.14164(17) 0.2270(5) 0.5386(3)
C21 C -0.1385(3) 0.4234(6) 0.4543(4)
H15 H -0.1762 0.5350 0.4574
C22 C -0.0775(3) 0.4507(8) 0.3642(4)
H16 H -0.0752 0.5830 0.3080
C23 C 0.6634(2) 0.5010(7) -0.1801(4)
H17 H 0.6210 0.5062 -0.2421
H18 H 0.7087 0.5021 -0.2338
H19 H 0.6625 0.6345 -0.1194
C24 C -0.2074(2) 0.0025(8) 0.7057(4)
H20 H -0.2147 -0.1310 0.6465
H21 H -0.2490 0.0176 0.7682
H22 H -0.1621 -0.0170 0.7589
H9? H 0.1150 0.3519 -0.0277
H10? H 0.1185 0.5687 0.0760
C25? C 0.0718(5) 0.268(2) 0.1786(12)
C26? C 0.0198(5) 0.4033(17) 0.2391(10)
H23? H 0.0773 0.1104 0.1993
H24? H 0.0101 0.5554 0.2103
loop_
_geom_bond_atom_site_label_1
_geom_bond_atom_site_label_2
_geom_bond_site_symmetry_1
_geom_bond_site_symmetry_2
F1 C9 1_555 1_555
F2 C10 1_555 1_555
F3 C12 1_555 1_555
F4 C13 1_555 1_555
O1 C1 1_555 1_555
O2 C20 1_555 1_555
C1 C2 1_555 1_555
C2 H1 1_555 1_555
C3 C2 1_555 1_555
H2 C3 1_555 1_555
C4 C3 1_555 1_555
C5 C4 1_555 1_555
H3 C5 1_555 1_555
C6 C1 1_555 1_555
H4 C6 1_555 1_555
C7 C4 1_555 1_555
H5 C7 1_555 1_555
H6 C7 1_555 1_555
C8 C7 1_555 1_555
C9 C8 1_555 1_555
C10 C9 1_555 1_555
C11 C10 1_555 1_555
C12 C11 1_555 1_555
C13 C8 1_555 1_555
C14 C11 1_555 1_555
H7 C14 1_555 1_555
H8 C14 1_555 1_555
C15 C14 1_555 1_555
H11 C15 1_555 1_555
C16 C15 1_555 1_555
H12 C16 1_555 1_555
C17 C16 1_555 1_555
C18 C17 1_555 1_555
H13 C18 1_555 1_555
C19 C18 1_555 1_555
H14 C19 1_555 1_555
C20 C19 1_555 1_555
C21 C20 1_555 1_555
H15 C21 1_555 1_555
C22 C17 1_555 1_555
H16 C22 1_555 1_555
C23 O1 1_555 1_555
H17 C23 1_555 1_555
H18 C23 1_555 1_555
H19 C23 1_555 1_555
C24 O2 1_555 1_555
H20 C24 1_555 1_555
H21 C24 1_555 1_555
H22 C24 1_555 1_555
C5 C6 1_555 1_555
C12 C13 1_555 1_555
C21 C22 1_555 1_555

#END
