
#######################################################################
#
#                 Cambridge Crystallographic Data Centre
#                                CCDC 
#
#######################################################################
#
# If this CIF has been generated from an entry in the Cambridge 
# Structural Database, then it will include bibliographic, chemical, 
# crystal, experimental, refinement or atomic coordinate data resulting 
# from the CCDC's data processing and validation procedures.
#
#######################################################################

data_ISORAK
_chemical_formula_moiety         'C27 H34 N2 O1'
_chemical_name_systematic        
4-Methyl-3-phenyl-1-(1-((2,2,6,6-tetramethylpiperidin-1-yl)oxy)ethyl)isoquinoline
_symmetry_cell_setting           triclinic
_symmetry_space_group_name_H-M   'P -1'
_symmetry_Int_Tables_number      2
_space_group_name_Hall           '-P 1'
loop_
_symmetry_equiv_pos_site_id
_symmetry_equiv_pos_as_xyz
1 x,y,z
2 -x,-y,-z
_cell_length_a                   7.9267(2)
_cell_length_b                   9.6626(3)
_cell_length_c                   14.4528(4)
_cell_angle_alpha                89.8410(10)
_cell_angle_beta                 89.9620(10)
_cell_angle_gamma                89.8000(10)
_cell_volume                     1106.97
_exptl_crystal_colour            colorless
_exptl_crystal_description       prism
_cell_formula_units_Z            2
loop_
_atom_site_label
_atom_site_type_symbol
_atom_site_fract_x
_atom_site_fract_y
_atom_site_fract_z
C1 C 0.56313(7) 0.38393(5) 0.23552(4)
C2 C 0.66828(7) 0.42435(6) 0.16088(4)
H1 H 0.6240 0.4809 0.1128
C3 C 0.83389(8) 0.38219(7) 0.15777(4)
H2 H 0.9038 0.4106 0.1078
C4 C 0.90077(8) 0.29714(7) 0.22816(5)
H3 H 1.0149 0.2673 0.2249
C5 C 0.80212(8) 0.25715(6) 0.30143(4)
H4 H 0.8485 0.1996 0.3484
C6 C 0.63123(7) 0.30095(5) 0.30772(4)
C7 C 0.52811(7) 0.26780(5) 0.38582(4)
C8 C 0.60035(8) 0.18079(6) 0.46276(4)
H5 H 0.5152 0.1686 0.5112
H6 H 0.6994 0.2270 0.4887
H7 H 0.6335 0.0901 0.4384
C9 C 0.36644(7) 0.32126(5) 0.38795(4)
C10 C 0.24904(7) 0.30114(6) 0.46760(4)
C11 C 0.19887(9) 0.41524(6) 0.52008(4)
H8 H 0.2427 0.5042 0.5059
C12 C 0.08523(9) 0.40007(7) 0.59293(4)
H9 H 0.0522 0.4785 0.6281
C13 C 0.02017(9) 0.27058(7) 0.61420(4)
H10 H -0.0583 0.2603 0.6634
C14 C 0.07067(9) 0.15587(7) 0.56292(4)
H11 H 0.0277 0.0669 0.5778
C15 C 0.18405(8) 0.17119(6) 0.48992(4)
H12 H 0.2174 0.0925 0.4550
C16 C 0.39098(7) 0.42793(5) 0.24399(4)
C17 C 0.29589(7) 0.50230(5) 0.16678(4)
H13 H 0.1804 0.5258 0.1900
C18 C 0.27724(8) 0.40869(6) 0.08225(4)
H14 H 0.2050 0.4543 0.0363
H15 H 0.2261 0.3208 0.1011
H16 H 0.3886 0.3910 0.0552
C19 C 0.20521(8) 0.83026(6) 0.11770(4)
C20 C 0.04749(8) 0.74457(7) 0.09688(5)
H17 H 0.0793 0.6627 0.0609
H18 H -0.0327 0.8008 0.0613
H19 H -0.0050 0.7154 0.1551
C21 C 0.29069(9) 0.86643(7) 0.02524(4)
H20 H 0.3720 0.9412 0.0349
H21 H 0.2050 0.8965 -0.0194
H22 H 0.3495 0.7846 0.0013
C22 C 0.14775(9) 0.96241(6) 0.16809(5)
H23 H 0.0858 1.0224 0.1240
H24 H 0.0688 0.9367 0.2183
C23 C 0.29362(10) 1.04394(7) 0.20917(6)
H25 H 0.3677 1.0784 0.1591
H26 H 0.2496 1.1246 0.2438
C24 C 0.39330(9) 0.95004(6) 0.27372(5)
H27 H 0.3203 0.9229 0.3263
H28 H 0.4899 1.0024 0.2990
C25 C 0.45993(7) 0.81877(6) 0.22646(4)
C26 C 0.60581(9) 0.85287(8) 0.16006(5)
H29 H 0.6282 0.7731 0.1201
H30 H 0.7073 0.8743 0.1959
H31 H 0.5750 0.9329 0.1218
C27 C 0.52953(9) 0.72336(6) 0.30177(4)
H32 H 0.4361 0.6870 0.3389
H33 H 0.6063 0.7755 0.3416
H34 H 0.5908 0.6464 0.2731
N1 N 0.29893(6) 0.39945(5) 0.31743(3)
N2 N 0.31103(6) 0.74870(5) 0.18429(3)
O1 O 0.37417(5) 0.62806(4) 0.13440(3)
loop_
_geom_bond_atom_site_label_1
_geom_bond_atom_site_label_2
_geom_bond_site_symmetry_1
_geom_bond_site_symmetry_2
C1 C2 1_555 1_555
C2 H1 1_555 1_555
C3 C2 1_555 1_555
H2 C3 1_555 1_555
C4 C3 1_555 1_555
H3 C4 1_555 1_555
C5 C4 1_555 1_555
H4 C5 1_555 1_555
C6 C1 1_555 1_555
C7 C6 1_555 1_555
C8 C7 1_555 1_555
H5 C8 1_555 1_555
H6 C8 1_555 1_555
H7 C8 1_555 1_555
C9 C7 1_555 1_555
C10 C9 1_555 1_555
C11 C10 1_555 1_555
H8 C11 1_555 1_555
C12 C11 1_555 1_555
H9 C12 1_555 1_555
C13 C12 1_555 1_555
H10 C13 1_555 1_555
C14 C13 1_555 1_555
H11 C14 1_555 1_555
C15 C10 1_555 1_555
H12 C15 1_555 1_555
C16 C1 1_555 1_555
C17 C16 1_555 1_555
H13 C17 1_555 1_555
C18 C17 1_555 1_555
H14 C18 1_555 1_555
H15 C18 1_555 1_555
H16 C18 1_555 1_555
C19 C20 1_555 1_555
C20 H17 1_555 1_555
H18 C20 1_555 1_555
H19 C20 1_555 1_555
C21 C19 1_555 1_555
H20 C21 1_555 1_555
H21 C21 1_555 1_555
H22 C21 1_555 1_555
C22 C19 1_555 1_555
H23 C22 1_555 1_555
H24 C22 1_555 1_555
C23 C22 1_555 1_555
H25 C23 1_555 1_555
H26 C23 1_555 1_555
C24 C23 1_555 1_555
H27 C24 1_555 1_555
H28 C24 1_555 1_555
C25 C24 1_555 1_555
C26 C25 1_555 1_555
H29 C26 1_555 1_555
H30 C26 1_555 1_555
H31 C26 1_555 1_555
C27 C25 1_555 1_555
H32 C27 1_555 1_555
H33 C27 1_555 1_555
H34 C27 1_555 1_555
N1 C9 1_555 1_555
N2 C19 1_555 1_555
O1 C17 1_555 1_555
C5 C6 1_555 1_555
C14 C15 1_555 1_555
C16 N1 1_555 1_555
C25 N2 1_555 1_555
N2 O1 1_555 1_555

#END
