
#######################################################################
#
#                 Cambridge Crystallographic Data Centre
#                                CCDC 
#
#######################################################################
#
# If this CIF has been generated from an entry in the Cambridge 
# Structural Database, then it will include bibliographic, chemical, 
# crystal, experimental, refinement or atomic coordinate data resulting 
# from the CCDC's data processing and validation procedures.
#
#######################################################################

data_ISOSUG
_chemical_formula_moiety         'C13 H12 N2'
_chemical_name_systematic        
N-(4-methylphenyl)-1-(pyridin-2-yl)methanimine
_symmetry_cell_setting           monoclinic
_symmetry_space_group_name_H-M   'P 21/c'
_symmetry_Int_Tables_number      14
_space_group_name_Hall           '-P 2ybc'
loop_
_symmetry_equiv_pos_site_id
_symmetry_equiv_pos_as_xyz
1 x,y,z
2 -x,1/2+y,1/2-z
3 -x,-y,-z
4 x,1/2-y,1/2+z
_cell_length_a                   19.300(4)
_cell_length_b                   4.9070(10)
_cell_length_c                   11.661(2)
_cell_angle_alpha                90
_cell_angle_beta                 106.37(3)
_cell_angle_gamma                90
_cell_volume                     1059.59
_exptl_crystal_colour            colorless
_exptl_crystal_description       block
_cell_formula_units_Z            4
loop_
_atom_site_label
_atom_site_type_symbol
_atom_site_fract_x
_atom_site_fract_y
_atom_site_fract_z
N1 N 0.37795(9) 0.8970(3) 0.22811(14)
N2 N 0.24937(8) 0.4012(3) 0.08375(13)
C1 C 0.33910(9) 0.7536(3) 0.13403(15)
C2 C 0.34697(11) 0.7805(4) 0.02038(17)
H1 H 0.3198 0.6744 -0.0424
C3 C 0.39591(12) 0.9676(5) 0.0022(2)
H2 H 0.4021 0.9909 -0.0735
C4 C 0.43532(11) 1.1189(4) 0.0965(2)
H3 H 0.4684 1.2478 0.0861
C5 C 0.42497(11) 1.0762(4) 0.20744(19)
H4 H 0.4524 1.1781 0.2715
C6 C 0.28771(10) 0.5596(4) 0.16141(16)
H5 H 0.2833 0.5536 0.2388
C7 C 0.20156(9) 0.2139(3) 0.11526(14)
C8 C 0.14882(10) 0.0994(4) 0.02209(15)
H6 H 0.1460 0.1481 -0.0561
C9 C 0.10021(10) -0.0862(4) 0.04345(15)
H7 H 0.0647 -0.1582 -0.0207
C10 C 0.10310(9) -0.1680(3) 0.15875(15)
C11 C 0.15678(10) -0.0572(3) 0.25162(16)
H8 H 0.1601 -0.1111 0.3295
C12 C 0.20566(10) 0.1312(4) 0.23253(15)
H9 H 0.2411 0.2030 0.2969
C13 C 0.05050(11) -0.3758(4) 0.18018(17)
H10 H 0.0176 -0.4284 0.1051
H11 H 0.0239 -0.2981 0.2304
H12 H 0.0765 -0.5331 0.2186
loop_
_geom_bond_atom_site_label_1
_geom_bond_atom_site_label_2
_geom_bond_site_symmetry_1
_geom_bond_site_symmetry_2
N1 C1 1_555 1_555
N2 C6 1_555 1_555
C1 C2 1_555 1_555
C2 H1 1_555 1_555
C3 C2 1_555 1_555
H2 C3 1_555 1_555
C4 C3 1_555 1_555
H3 C4 1_555 1_555
C5 N1 1_555 1_555
H4 C5 1_555 1_555
C6 C1 1_555 1_555
H5 C6 1_555 1_555
C7 N2 1_555 1_555
C8 C7 1_555 1_555
H6 C8 1_555 1_555
C9 C8 1_555 1_555
H7 C9 1_555 1_555
C10 C9 1_555 1_555
C11 C10 1_555 1_555
H8 C11 1_555 1_555
C12 C7 1_555 1_555
H9 C12 1_555 1_555
C13 C10 1_555 1_555
H10 C13 1_555 1_555
H11 C13 1_555 1_555
H12 C13 1_555 1_555
C4 C5 1_555 1_555
C11 C12 1_555 1_555

#END
