
#######################################################################
#
#                 Cambridge Crystallographic Data Centre
#                                CCDC 
#
#######################################################################
#
# If this CIF has been generated from an entry in the Cambridge 
# Structural Database, then it will include bibliographic, chemical, 
# crystal, experimental, refinement or atomic coordinate data resulting 
# from the CCDC's data processing and validation procedures.
#
#######################################################################

data_ISOTUH
_chemical_formula_moiety         'C12 H9 F1 N2 O1,0.5(H2 O1)'
_chemical_name_systematic        
'5-fluoro-2-((pyridin-2-ylmethylene)amino)phenol hemihydrate'
_symmetry_cell_setting           monoclinic
_symmetry_space_group_name_H-M   'C 2/c'
_symmetry_Int_Tables_number      15
_space_group_name_Hall           '-C 2yn'
loop_
_symmetry_equiv_pos_site_id
_symmetry_equiv_pos_as_xyz
1 x,y,z
2 -x,y,1/2-z
3 1/2+x,1/2+y,z
4 1/2-x,1/2+y,1/2-z
5 -x,-y,-z
6 x,-y,1/2+z
7 1/2-x,1/2-y,-z
8 1/2+x,1/2-y,1/2+z
_cell_length_a                   14.0030(9)
_cell_length_b                   6.7831(4)
_cell_length_c                   22.3993(15)
_cell_angle_alpha                90
_cell_angle_beta                 99.1960(10)
_cell_angle_gamma                90
_cell_volume                     2100.22
_exptl_crystal_colour            yellow
_exptl_crystal_description       rod
_cell_formula_units_Z            8
loop_
_atom_site_label
_atom_site_type_symbol
_atom_site_fract_x
_atom_site_fract_y
_atom_site_fract_z
C1 C 0.28531(11) -0.2324(2) 0.14791(7)
C2 C 0.23111(11) -0.2505(3) 0.09028(7)
H1 H 0.2279 -0.3721 0.0690
C3 C 0.18254(12) -0.0874(3) 0.06517(7)
C4 C 0.18344(14) 0.0925(3) 0.09369(8)
H2 H 0.1483 0.2015 0.0747
C5 C 0.23744(13) 0.1095(2) 0.15120(7)
H3 H 0.2391 0.2319 0.1720
C6 C 0.28911(11) -0.0505(2) 0.17868(6)
C7 C 0.37947(11) 0.1117(2) 0.26087(7)
H4 H 0.3639 0.2325 0.2401
C8 C 0.44159(11) 0.1133(3) 0.32062(7)
C9 C 0.46195(11) -0.0561(3) 0.35172(7)
H5 H 0.4363 -0.1778 0.3354
C10 C 0.51973(13) -0.0504(3) 0.40677(8)
H6 H 0.5339 -0.1687 0.4291
C11 C 0.55806(12) 0.1273(3) 0.43050(8)
H7 H 0.5975 0.1322 0.4691
C12 C 0.53749(13) 0.2961(3) 0.39674(8)
H8 H 0.5642 0.4185 0.4118
F1 F 0.12881(8) -0.10516(19) 0.00886(4)
N1 N 0.34644(9) -0.04956(19) 0.23669(6)
N2 N 0.47900(11) 0.2894(3) 0.34165(7)
O1 O 0.33417(8) -0.39294(17) 0.17183(6)
H9 H 0.3776(14) -0.363(3) 0.2046(8)
O2? O 0.47533(16) 0.6191(3) 0.27341(9)
H10? H 0.4656(14) 0.508(2) 0.2963(8)
loop_
_geom_bond_atom_site_label_1
_geom_bond_atom_site_label_2
_geom_bond_site_symmetry_1
_geom_bond_site_symmetry_2
C1 C2 1_555 1_555
C2 H1 1_555 1_555
C3 C2 1_555 1_555
C4 C3 1_555 1_555
H2 C4 1_555 1_555
C5 C4 1_555 1_555
H3 C5 1_555 1_555
C6 C1 1_555 1_555
C7 H4 1_555 1_555
C8 C7 1_555 1_555
C9 C8 1_555 1_555
H5 C9 1_555 1_555
C10 C9 1_555 1_555
H6 C10 1_555 1_555
C11 C10 1_555 1_555
H7 C11 1_555 1_555
C12 C11 1_555 1_555
H8 C12 1_555 1_555
F1 C3 1_555 1_555
N1 C6 1_555 1_555
N2 C8 1_555 1_555
O1 C1 1_555 1_555
H9 O1 1_555 1_555
C5 C6 1_555 1_555
C7 N1 1_555 1_555
C12 N2 1_555 1_555

#END
