
#######################################################################
#
#                 Cambridge Crystallographic Data Centre
#                                CCDC 
#
#######################################################################
#
# If this CIF has been generated from an entry in the Cambridge 
# Structural Database, then it will include bibliographic, chemical, 
# crystal, experimental, refinement or atomic coordinate data resulting 
# from the CCDC's data processing and validation procedures.
#
#######################################################################

data_ISOYUL
_chemical_formula_moiety         'C14 H21 N1 O1 Si1'
_chemical_name_systematic        
4-Oxo-3-((trimethylsilyl)methylene)octahydro-3aH-indene-3a-carbonitrile
_symmetry_cell_setting           monoclinic
_symmetry_space_group_name_H-M   'P 21/c'
_symmetry_Int_Tables_number      14
_space_group_name_Hall           '-P 2ybc'
loop_
_symmetry_equiv_pos_site_id
_symmetry_equiv_pos_as_xyz
1 x,y,z
2 -x,1/2+y,1/2-z
3 -x,-y,-z
4 x,1/2-y,1/2+z
_cell_length_a                   17.6183(11)
_cell_length_b                   6.8260(4)
_cell_length_c                   25.7319(16)
_cell_angle_alpha                90
_cell_angle_beta                 109.769(1)
_cell_angle_gamma                90
_cell_volume                     2912.2
_exptl_crystal_colour            colorless
_exptl_crystal_description       columnar
_cell_formula_units_Z            8
loop_
_atom_site_label
_atom_site_type_symbol
_atom_site_fract_x
_atom_site_fract_y
_atom_site_fract_z
Si1 Si 0.14052(4) 0.62233(12) 0.45889(3)
O1 O 0.45474(10) 0.5856(2) 0.57138(7)
N1 N 0.36354(14) 0.6223(4) 0.66889(10)
C1 C 0.35158(13) 0.3900(3) 0.58583(9)
C2 C 0.41581(13) 0.4364(3) 0.56001(9)
C3 C 0.42702(15) 0.2852(4) 0.52105(10)
H1 H 0.4748 0.3165 0.5120
H2 H 0.3810 0.2878 0.4871
C4 C 0.43570(16) 0.0817(4) 0.54587(12)
H3 H 0.4406 -0.0134 0.5192
H4 H 0.4842 0.0753 0.5781
C5 C 0.36319(16) 0.0333(4) 0.56220(11)
H5 H 0.3693 -0.0983 0.5772
H6 H 0.3154 0.0348 0.5294
C6 C 0.35074(14) 0.1734(3) 0.60436(10)
H7 H 0.3923 0.1528 0.6405
C7 C 0.26705(15) 0.1536(4) 0.60896(11)
H8 H 0.2656 0.2108 0.6431
H9 H 0.2511 0.0171 0.6075
C8 C 0.21160(15) 0.2668(4) 0.55866(11)
H10 H 0.1892 0.1793 0.5275
H11 H 0.1677 0.3280 0.5673
C9 C 0.26465(13) 0.4208(3) 0.54555(9)
C10 C 0.36060(14) 0.5224(4) 0.63287(10)
C11 C 0.24321(13) 0.5606(3) 0.50750(9)
H12 H 0.2850 0.6383 0.5047
C12 C 0.15423(18) 0.8070(5) 0.41002(12)
H13 H 0.1026 0.8429 0.3842
H14 H 0.1871 0.7527 0.3905
H15 H 0.1802 0.9209 0.4301
C13 C 0.07799(19) 0.7315(5) 0.49688(13)
H16 H 0.0253 0.7611 0.4714
H17 H 0.1030 0.8497 0.5149
H18 H 0.0734 0.6401 0.5240
C14 C 0.08839(17) 0.4012(5) 0.42062(12)
H19 H 0.0357 0.4370 0.3962
H20 H 0.0835 0.3047 0.4464
H21 H 0.1192 0.3480 0.3995
Si2 Si 0.13745(4) 0.71155(12) 0.20573(3)
O2 O 0.45156(10) 0.6827(3) 0.32121(7)
N2 N 0.36143(15) 0.7205(4) 0.41914(10)
C15 C 0.34769(13) 0.4892(3) 0.33548(9)
C16 C 0.41227(14) 0.5353(4) 0.30977(9)
C17 C 0.42345(16) 0.3821(4) 0.27120(11)
H22 H 0.4720 0.4104 0.2628
H23 H 0.3781 0.3860 0.2369
C18 C 0.42993(18) 0.1782(4) 0.29618(13)
H24 H 0.4350 0.0821 0.2698
H25 H 0.4779 0.1705 0.3288
C19 C 0.35674(18) 0.1327(4) 0.31155(12)
H26 H 0.3613 0.0004 0.3260
H27 H 0.3092 0.1380 0.2786
C20 C 0.34607(15) 0.2730(4) 0.35406(11)
H28 H 0.3879 0.2511 0.3900
C21 C 0.26244(16) 0.2569(4) 0.35909(12)
H29 H 0.2619 0.3142 0.3934
H30 H 0.2456 0.1210 0.3576
C22 C 0.20720(15) 0.3720(4) 0.30912(12)
H31 H 0.1826 0.2846 0.2783
H32 H 0.1648 0.4377 0.3185
C23 C 0.26089(13) 0.5204(4) 0.29451(10)
C24 C 0.35739(14) 0.6211(4) 0.38279(11)
C25 C 0.23980(14) 0.6529(4) 0.25494(10)
H33 H 0.2818 0.7273 0.2510
C26 C 0.15241(17) 0.9054(5) 0.15989(13)
H34 H 0.1863 0.8566 0.1404
H35 H 0.1776 1.0170 0.1816
H36 H 0.1011 0.9431 0.1339
C27 C 0.07196(18) 0.8056(5) 0.24331(13)
H37 H 0.0638 0.7046 0.2668
H38 H 0.0209 0.8444 0.2173
H39 H 0.0973 0.9165 0.2653
C28 C 0.08815(17) 0.4958(5) 0.16439(13)
H40 H 0.0807 0.3960 0.1885
H41 H 0.1215 0.4460 0.1446
H42 H 0.0367 0.5335 0.1386
loop_
_geom_bond_atom_site_label_1
_geom_bond_atom_site_label_2
_geom_bond_site_symmetry_1
_geom_bond_site_symmetry_2
Si1 C11 1_555 1_555
Si2 C25 1_555 1_555
O1 C2 1_555 1_555
O2 C16 1_555 1_555
N1 C10 1_555 1_555
N2 C24 1_555 1_555
C1 C2 1_555 1_555
C2 C3 1_555 1_555
C3 H1 1_555 1_555
H2 C3 1_555 1_555
C4 C3 1_555 1_555
H3 C4 1_555 1_555
H4 C4 1_555 1_555
C5 C4 1_555 1_555
H5 C5 1_555 1_555
H6 C5 1_555 1_555
C6 C1 1_555 1_555
H7 C6 1_555 1_555
C7 C6 1_555 1_555
H8 C7 1_555 1_555
H9 C7 1_555 1_555
C8 C7 1_555 1_555
H10 C8 1_555 1_555
H11 C8 1_555 1_555
C9 C1 1_555 1_555
C10 C1 1_555 1_555
C11 C9 1_555 1_555
H12 C11 1_555 1_555
C12 Si1 1_555 1_555
H13 C12 1_555 1_555
H14 C12 1_555 1_555
H15 C12 1_555 1_555
C13 Si1 1_555 1_555
H16 C13 1_555 1_555
H17 C13 1_555 1_555
H18 C13 1_555 1_555
C14 Si1 1_555 1_555
H19 C14 1_555 1_555
H20 C14 1_555 1_555
H21 C14 1_555 1_555
C15 C16 1_555 1_555
C16 C17 1_555 1_555
C17 H22 1_555 1_555
H23 C17 1_555 1_555
C18 C17 1_555 1_555
H24 C18 1_555 1_555
H25 C18 1_555 1_555
C19 C18 1_555 1_555
H26 C19 1_555 1_555
H27 C19 1_555 1_555
C20 C15 1_555 1_555
H28 C20 1_555 1_555
C21 C20 1_555 1_555
H29 C21 1_555 1_555
H30 C21 1_555 1_555
C22 C21 1_555 1_555
H31 C22 1_555 1_555
H32 C22 1_555 1_555
C23 C15 1_555 1_555
C24 C15 1_555 1_555
C25 C23 1_555 1_555
H33 C25 1_555 1_555
C26 Si2 1_555 1_555
H34 C26 1_555 1_555
H35 C26 1_555 1_555
H36 C26 1_555 1_555
C27 Si2 1_555 1_555
H37 C27 1_555 1_555
H38 C27 1_555 1_555
H39 C27 1_555 1_555
C28 Si2 1_555 1_555
H40 C28 1_555 1_555
H41 C28 1_555 1_555
H42 C28 1_555 1_555
C5 C6 1_555 1_555
C8 C9 1_555 1_555
C19 C20 1_555 1_555
C22 C23 1_555 1_555

#END
