
#######################################################################
#
#                 Cambridge Crystallographic Data Centre
#                                CCDC 
#
#######################################################################
#
# If this CIF has been generated from an entry in the Cambridge 
# Structural Database, then it will include bibliographic, chemical, 
# crystal, experimental, refinement or atomic coordinate data resulting 
# from the CCDC's data processing and validation procedures.
#
#######################################################################

data_ISUFEJ
_chemical_formula_moiety         'C19 H16 O3'
_chemical_name_systematic        
4-phenyl-3-(tetrahydrofuran-2-yl)-2H-chromen-2-one
_symmetry_cell_setting           triclinic
_symmetry_space_group_name_H-M   'P -1'
_symmetry_Int_Tables_number      2
_space_group_name_Hall           '-P 1'
loop_
_symmetry_equiv_pos_site_id
_symmetry_equiv_pos_as_xyz
1 x,y,z
2 -x,-y,-z
_cell_length_a                   9.108(2)
_cell_length_b                   9.6631(18)
_cell_length_c                   10.019(2)
_cell_angle_alpha                66.65(2)
_cell_angle_beta                 77.29(2)
_cell_angle_gamma                66.41(2)
_cell_volume                     739.938
_exptl_crystal_colour            colorless
_exptl_crystal_description       block
_chemical_melting_point          '452-454 K'
_cell_formula_units_Z            2
_exptl_crystal_recrystallization_method 'solvent evaporation'
loop_
_atom_site_label
_atom_site_type_symbol
_atom_site_fract_x
_atom_site_fract_y
_atom_site_fract_z
O1 O 0.2986(2) 0.8734(2) 0.1720(2)
O2 O 0.1940(2) 0.7004(2) 0.1828(3)
O3 O -0.1496(2) 0.8560(2) 0.1261(2)
C1 C 0.2855(3) 1.0159(3) 0.1811(3)
C2 C 0.4254(3) 1.0476(3) 0.1601(3)
H1 H 0.5232 0.9748 0.1394
C3 C 0.4187(4) 1.1878(4) 0.1703(3)
H2 H 0.5125 1.2099 0.1564
C4 C 0.2732(4) 1.2963(4) 0.2009(3)
H3 H 0.2693 1.3910 0.2076
C5 C 0.1350(3) 1.2640(3) 0.2215(3)
H4 H 0.0378 1.3374 0.2425
C6 C 0.1371(3) 1.1228(3) 0.2114(3)
C7 C -0.0050(3) 1.0801(3) 0.2338(3)
C8 C 0.0092(3) 0.9383(3) 0.2258(3)
C9 C 0.1669(3) 0.8294(3) 0.1923(3)
C10 C -0.1627(3) 1.1955(3) 0.2693(3)
C11 C -0.2429(3) 1.3354(3) 0.1620(3)
H5 H -0.1990 1.3576 0.0661
C12 C -0.3877(3) 1.4424(3) 0.1963(3)
H6 H -0.4412 1.5354 0.1233
C13 C -0.4521(3) 1.4117(4) 0.3372(4)
H7 H -0.5490 1.4839 0.3604
C14 C -0.3735(4) 1.2747(4) 0.4437(3)
H8 H -0.4172 1.2541 0.5396
C15 C -0.2298(4) 1.1663(4) 0.4106(3)
H9 H -0.1780 1.0730 0.4842
C16 C -0.1316(3) 0.8845(3) 0.2509(3)
H10 H -0.2289 0.9712 0.2665
C17 C -0.1243(5) 0.7304(4) 0.3817(3)
H11 H -0.0145 0.6649 0.4065
H12 H -0.1874 0.7549 0.4663
C18 C -0.1955(5) 0.6469(4) 0.3273(4)
H13 H -0.1493 0.5310 0.3722
H14 H -0.3111 0.6804 0.3481
C19 C -0.1537(4) 0.6978(3) 0.1687(3)
H15 H -0.0498 0.6249 0.1462
H16 H -0.2335 0.6989 0.1179
loop_
_geom_bond_atom_site_label_1
_geom_bond_atom_site_label_2
_geom_bond_site_symmetry_1
_geom_bond_site_symmetry_2
O1 C1 1_555 1_555
O2 C9 1_555 1_555
O3 C16 1_555 1_555
C1 C2 1_555 1_555
C2 H1 1_555 1_555
C3 C2 1_555 1_555
H2 C3 1_555 1_555
C4 C3 1_555 1_555
H3 C4 1_555 1_555
C5 C4 1_555 1_555
H4 C5 1_555 1_555
C6 C1 1_555 1_555
C7 C6 1_555 1_555
C8 C7 1_555 1_555
C9 O1 1_555 1_555
C10 C7 1_555 1_555
C11 C10 1_555 1_555
H5 C11 1_555 1_555
C12 C11 1_555 1_555
H6 C12 1_555 1_555
C13 C12 1_555 1_555
H7 C13 1_555 1_555
C14 C13 1_555 1_555
H8 C14 1_555 1_555
C15 C10 1_555 1_555
H9 C15 1_555 1_555
C16 C8 1_555 1_555
H10 C16 1_555 1_555
C17 C16 1_555 1_555
H11 C17 1_555 1_555
H12 C17 1_555 1_555
C18 C17 1_555 1_555
H13 C18 1_555 1_555
H14 C18 1_555 1_555
C19 O3 1_555 1_555
H15 C19 1_555 1_555
H16 C19 1_555 1_555
C5 C6 1_555 1_555
C8 C9 1_555 1_555
C14 C15 1_555 1_555
C18 C19 1_555 1_555

#END
