
#######################################################################
#
#                 Cambridge Crystallographic Data Centre
#                                CCDC 
#
#######################################################################
#
# If this CIF has been generated from an entry in the Cambridge 
# Structural Database, then it will include bibliographic, chemical, 
# crystal, experimental, refinement or atomic coordinate data resulting 
# from the CCDC's data processing and validation procedures.
#
#######################################################################

data_ISUGOU
_chemical_formula_moiety         'C24 H20 N4 O2'
_chemical_name_systematic        
'ethyl 2-(3,3-dicyano-1,10b-dihydropyrrolo[2,1-a]phthalazin-2(3H)-ylidene)-3-phenylpropanoate'
_symmetry_cell_setting           monoclinic
_symmetry_space_group_name_H-M   'P n'
_symmetry_Int_Tables_number      7
_space_group_name_Hall           'P -2yac'
loop_
_symmetry_equiv_pos_site_id
_symmetry_equiv_pos_as_xyz
1 x,y,z
2 1/2+x,-y,1/2+z
_cell_length_a                   11.285(2)
_cell_length_b                   14.466(3)
_cell_length_c                   13.528(3)
_cell_angle_alpha                90
_cell_angle_beta                 112.20(3)
_cell_angle_gamma                90
_cell_volume                     2044.72
_exptl_crystal_colour            'light yellow'
_exptl_crystal_description       rod
_cell_formula_units_Z            4
loop_
_atom_site_label
_atom_site_type_symbol
_atom_site_fract_x
_atom_site_fract_y
_atom_site_fract_z
O1 O -0.3751(2) -0.21771(15) -0.25830(17)
O2 O -0.5679(2) -0.28665(15) -0.31833(17)
N1 N -0.2737(2) 0.11731(17) -0.28083(18)
N2 N -0.3865(2) 0.06824(15) -0.33767(16)
N3 N -0.3710(3) -0.04100(18) -0.11681(19)
N4 N -0.1719(3) -0.0978(2) -0.3337(2)
C1 C -0.5658(3) 0.2107(2) -0.5676(2)
H1 H -0.6245 0.1702 -0.6142
C2 C -0.5790(3) 0.3051(2) -0.5857(3)
H2 H -0.6468 0.3277 -0.6444
C3 C -0.4919(3) 0.3661(2) -0.5170(3)
H3 H -0.5014 0.4294 -0.5295
C4 C -0.3903(3) 0.3324(2) -0.4294(2)
H4 H -0.3311 0.3732 -0.3835
C5 C -0.3770(3) 0.2383(2) -0.4102(2)
C6 C -0.4653(3) 0.17681(19) -0.4802(2)
C7 C -0.4370(3) 0.07626(19) -0.4548(2)
H5 H -0.3723 0.0554 -0.4818
C8 C -0.2727(3) 0.1988(2) -0.3178(2)
H6 H -0.2011 0.2355 -0.2838
C9 C -0.5465(3) 0.00693(19) -0.4855(2)
H7 H -0.6235 0.0353 -0.4836
H8 H -0.5646 -0.0176 -0.5564
C10 C -0.4985(2) -0.06839(18) -0.40193(19)
C11 C -0.3774(2) -0.03011(17) -0.3118(2)
C12 C -0.3738(3) -0.04054(18) -0.2016(2)
C13 C -0.2604(3) -0.0718(2) -0.3208(2)
C14 C -0.5468(3) -0.15280(19) -0.4060(2)
C15 C -0.4853(3) -0.2217(2) -0.3186(2)
C16 C -0.5186(4) -0.3647(2) -0.2460(3)
H9 H -0.5857 -0.3898 -0.2256
H10 H -0.4490 -0.3444 -0.1819
C17 C -0.4724(5) -0.4363(3) -0.3000(4)
H11 H -0.5393 -0.4522 -0.3666
H12 H -0.4478 -0.4903 -0.2554
H13 H -0.3998 -0.4133 -0.3130
C18 C -0.6592(3) -0.18763(19) -0.5012(2)
H14 H -0.6941 -0.1373 -0.5512
H15 H -0.7257 -0.2091 -0.4777
C19 C -0.6200(2) -0.26590(18) -0.55696(19)
C20 C -0.5052(3) -0.2633(2) -0.5709(2)
H16 H -0.4494 -0.2142 -0.5428
C21 C -0.4715(4) -0.3327(3) -0.6262(3)
H17 H -0.3939 -0.3299 -0.6354
C22 C -0.5542(4) -0.4059(2) -0.6676(3)
H18 H -0.5329 -0.4522 -0.7056
C23 C -0.6668(4) -0.4102(2) -0.6525(3)
H19 H -0.7212 -0.4602 -0.6792
C24 C -0.7009(3) -0.3408(2) -0.5979(2)
H20 H -0.7783 -0.3443 -0.5886
O3 O -0.1574(2) -0.38125(16) -0.61759(18)
O4 O -0.1052(3) -0.29381(17) -0.73015(18)
N5 N 0.1443(2) -0.43491(16) -0.23404(18)
N6 N 0.1288(2) -0.35810(15) -0.30053(18)
N7 N 0.1053(3) -0.4924(2) -0.5093(3)
N8 N -0.1840(3) -0.4200(2) -0.3829(3)
C25 C 0.2256(3) -0.2511(2) -0.1594(2)
C26 C 0.2788(3) -0.1648(2) -0.1261(2)
H21 H 0.2481 -0.1134 -0.1695
C27 C 0.3784(4) -0.1556(3) -0.0272(3)
H22 H 0.4149 -0.0979 -0.0046
C28 C 0.4234(4) -0.2321(3) 0.0378(3)
H23 H 0.4887 -0.2252 0.1045
C29 C 0.3720(3) -0.3182(2) 0.0041(2)
H24 H 0.4032 -0.3694 0.0479
C30 C 0.2729(3) -0.3292(2) -0.0959(2)
C31 C 0.2162(3) -0.4185(2) -0.1360(2)
H25 H 0.2329 -0.4671 -0.0877
C32 C 0.1112(3) -0.26808(18) -0.2601(2)
H26 H 0.0335 -0.2686 -0.2441
C33 C 0.0905(3) -0.20697(17) -0.3570(2)
H27 H 0.0395 -0.1531 -0.3567
H28 H 0.1715 -0.1868 -0.3591
C34 C 0.0199(3) -0.26989(17) -0.4506(2)
C35 C 0.0270(3) -0.36904(17) -0.4060(2)
C36 C 0.0683(3) -0.43935(19) -0.4653(2)
C37 C -0.0958(3) -0.39755(19) -0.3974(2)
C38 C -0.0330(3) -0.24527(18) -0.5532(2)
C39 C -0.1047(3) -0.3149(2) -0.6357(2)
C40 C -0.1873(8) -0.3503(3) -0.8205(3)
H29 H -0.1348 -0.3948 -0.8391
H30 H -0.2479 -0.3843 -0.7993
C41 C -0.2518(6) -0.2982(4) -0.9068(5)
H31 H -0.2824 -0.3368 -0.9691
H32 H -0.1959 -0.2518 -0.9156
H33 H -0.3231 -0.2691 -0.8971
C42 C -0.0270(3) -0.14812(19) -0.5919(2)
H34 H 0.0125 -0.1082 -0.5306
H35 H 0.0270 -0.1479 -0.6332
C43 C -0.1562(3) -0.10906(17) -0.6596(2)
C44 C -0.2555(3) -0.1074(2) -0.6225(2)
H36 H -0.2413 -0.1284 -0.5540
C45 C -0.3758(3) -0.0745(2) -0.6870(3)
H37 H -0.4416 -0.0740 -0.6614
C46 C -0.3981(3) -0.0430(2) -0.7880(2)
H38 H -0.4786 -0.0207 -0.8306
C47 C -0.3010(3) -0.0442(2) -0.8260(2)
H39 H -0.3156 -0.0229 -0.8945
C48 C -0.1815(3) -0.07734(19) -0.7624(2)
H40 H -0.1167 -0.0784 -0.7890
loop_
_geom_bond_atom_site_label_1
_geom_bond_atom_site_label_2
_geom_bond_site_symmetry_1
_geom_bond_site_symmetry_2
O1 C15 1_555 1_555
O2 C15 1_555 1_555
N1 N2 1_555 1_555
N2 C7 1_555 1_555
N3 C12 1_555 1_555
N4 C13 1_555 1_555
C1 H1 1_555 1_555
C2 C1 1_555 1_555
H2 C2 1_555 1_555
C3 C2 1_555 1_555
H3 C3 1_555 1_555
C4 C3 1_555 1_555
H4 C4 1_555 1_555
C5 C4 1_555 1_555
C6 C1 1_555 1_555
C7 C6 1_555 1_555
H5 C7 1_555 1_555
C8 N1 1_555 1_555
H6 C8 1_555 1_555
C9 C7 1_555 1_555
H7 C9 1_555 1_555
H8 C9 1_555 1_555
C10 C9 1_555 1_555
C11 N2 1_555 1_555
C12 C11 1_555 1_555
C13 C11 1_555 1_555
C14 C10 1_555 1_555
C15 C14 1_555 1_555
C16 O2 1_555 1_555
H9 C16 1_555 1_555
H10 C16 1_555 1_555
C17 C16 1_555 1_555
H11 C17 1_555 1_555
H12 C17 1_555 1_555
H13 C17 1_555 1_555
C18 C14 1_555 1_555
H14 C18 1_555 1_555
H15 C18 1_555 1_555
C19 C18 1_555 1_555
C20 C19 1_555 1_555
H16 C20 1_555 1_555
C21 C20 1_555 1_555
H17 C21 1_555 1_555
C22 C21 1_555 1_555
H18 C22 1_555 1_555
C23 C22 1_555 1_555
H19 C23 1_555 1_555
C24 C19 1_555 1_555
H20 C24 1_555 1_555
O3 C39 1_555 1_555
O4 C39 1_555 1_555
N5 N6 1_555 1_555
N6 C32 1_555 1_555
N7 C36 1_555 1_555
N8 C37 1_555 1_555
C25 C26 1_555 1_555
C26 H21 1_555 1_555
C27 C26 1_555 1_555
H22 C27 1_555 1_555
C28 C27 1_555 1_555
H23 C28 1_555 1_555
C29 C28 1_555 1_555
H24 C29 1_555 1_555
C30 C25 1_555 1_555
C31 N5 1_555 1_555
H25 C31 1_555 1_555
C32 C25 1_555 1_555
H26 C32 1_555 1_555
C33 C32 1_555 1_555
H27 C33 1_555 1_555
H28 C33 1_555 1_555
C34 C33 1_555 1_555
C35 N6 1_555 1_555
C36 C35 1_555 1_555
C37 C35 1_555 1_555
C38 C34 1_555 1_555
C39 C38 1_555 1_555
C40 O4 1_555 1_555
H29 C40 1_555 1_555
H30 C40 1_555 1_555
C41 C40 1_555 1_555
H31 C41 1_555 1_555
H32 C41 1_555 1_555
H33 C41 1_555 1_555
C42 C38 1_555 1_555
H34 C42 1_555 1_555
H35 C42 1_555 1_555
C43 C42 1_555 1_555
C44 C43 1_555 1_555
H36 C44 1_555 1_555
C45 C44 1_555 1_555
H37 C45 1_555 1_555
C46 C45 1_555 1_555
H38 C46 1_555 1_555
C47 C46 1_555 1_555
H39 C47 1_555 1_555
C48 C43 1_555 1_555
H40 C48 1_555 1_555
C5 C6 1_555 1_555
C5 C8 1_555 1_555
C10 C11 1_555 1_555
C23 C24 1_555 1_555
C29 C30 1_555 1_555
C30 C31 1_555 1_555
C34 C35 1_555 1_555
C47 C48 1_555 1_555

#END
