
#######################################################################
#
#                 Cambridge Crystallographic Data Centre
#                                CCDC 
#
#######################################################################
#
# If this CIF has been generated from an entry in the Cambridge 
# Structural Database, then it will include bibliographic, chemical, 
# crystal, experimental, refinement or atomic coordinate data resulting 
# from the CCDC's data processing and validation procedures.
#
#######################################################################

data_ISUHAH
_chemical_formula_moiety         'C19 H17 N3 O2'
_chemical_name_systematic        
'ethyl 2-(7-cyanopyrrolo[1,2-b]pyridazin-6-yl)-3-phenylpropanoate'
_symmetry_cell_setting           triclinic
_symmetry_space_group_name_H-M   'P -1'
_symmetry_Int_Tables_number      2
_space_group_name_Hall           '-P 1'
loop_
_symmetry_equiv_pos_site_id
_symmetry_equiv_pos_as_xyz
1 x,y,z
2 -x,-y,-z
_cell_length_a                   8.427(5)
_cell_length_b                   8.87(5)
_cell_length_c                   11.531(7)
_cell_angle_alpha                83.90(3)
_cell_angle_beta                 89.32(3)
_cell_angle_gamma                71.399(19)
_cell_volume                     812.042
_exptl_crystal_colour            colorless
_exptl_crystal_description       plate
_cell_formula_units_Z            2
loop_
_atom_site_label
_atom_site_type_symbol
_atom_site_fract_x
_atom_site_fract_y
_atom_site_fract_z
O1 O 0.5890(3) 0.6364(2) 0.6824(2)
O2 O 0.6000(3) 0.5314(2) 0.87006(18)
N1 N 1.0236(3) 0.1011(2) 0.62626(19)
N2 N 1.1539(3) -0.0380(3) 0.6337(2)
N3 N 0.8528(4) -0.0696(3) 0.8654(3)
C1 C 1.2694(3) -0.0404(3) 0.5565(3)
H1 H 1.3617 -0.1327 0.5589
C2 C 1.2650(3) 0.0866(3) 0.4697(2)
H2 H 1.3516 0.0761 0.4173
C3 C 1.1329(3) 0.2240(3) 0.4639(2)
H3 H 1.1268 0.3086 0.4072
C4 C 1.0050(3) 0.2354(3) 0.5461(2)
C5 C 0.8559(3) 0.3506(3) 0.5710(2)
H4 H 0.8117 0.4524 0.5313
C6 C 0.7835(3) 0.2868(3) 0.6662(2)
C7 C 0.8900(3) 0.1313(3) 0.6991(2)
C8 C 0.8737(4) 0.0173(3) 0.7904(3)
C9 C 0.6215(3) 0.3566(3) 0.7259(2)
H5 H 0.6237 0.2893 0.7994
C10 C 0.4696(3) 0.3575(4) 0.6521(2)
H6 H 0.4448 0.4462 0.5909
H7 H 0.4974 0.2591 0.6152
C11 C 0.3159(3) 0.3726(3) 0.7253(2)
C12 C 0.2905(3) 0.2341(3) 0.7799(2)
H8 H 0.3649 0.1344 0.7678
C13 C 0.1556(4) 0.2436(4) 0.8519(3)
H9 H 0.1402 0.1503 0.8875
C14 C 0.0443(3) 0.3900(4) 0.8712(3)
H10 H -0.0462 0.3961 0.9195
C15 C 0.0684(4) 0.5277(4) 0.8180(3)
H11 H -0.0059 0.6270 0.8311
C16 C 0.2034(3) 0.5193(3) 0.7446(2)
H12 H 0.2176 0.6129 0.7085
C17 C 0.6011(3) 0.5251(3) 0.7550(2)
C18 C 0.5829(4) 0.6833(4) 0.9130(3)
H13 H 0.6424 0.7408 0.8627
H14 H 0.6330 0.6643 0.9907
C19 C 0.4027(5) 0.7835(4) 0.9170(3)
H15 H 0.3547 0.8082 0.8395
H16 H 0.3950 0.8811 0.9492
H17 H 0.3429 0.7256 0.9650
loop_
_geom_bond_atom_site_label_1
_geom_bond_atom_site_label_2
_geom_bond_site_symmetry_1
_geom_bond_site_symmetry_2
O1 C17 1_555 1_555
O2 C17 1_555 1_555
N1 N2 1_555 1_555
N2 C1 1_555 1_555
N3 C8 1_555 1_555
C1 H1 1_555 1_555
C2 C1 1_555 1_555
H2 C2 1_555 1_555
C3 C2 1_555 1_555
H3 C3 1_555 1_555
C4 N1 1_555 1_555
C5 C4 1_555 1_555
H4 C5 1_555 1_555
C6 C5 1_555 1_555
C7 N1 1_555 1_555
C8 C7 1_555 1_555
C9 C6 1_555 1_555
H5 C9 1_555 1_555
C10 C9 1_555 1_555
H6 C10 1_555 1_555
H7 C10 1_555 1_555
C11 C10 1_555 1_555
C12 C11 1_555 1_555
H8 C12 1_555 1_555
C13 C12 1_555 1_555
H9 C13 1_555 1_555
C14 C13 1_555 1_555
H10 C14 1_555 1_555
C15 C14 1_555 1_555
H11 C15 1_555 1_555
C16 C11 1_555 1_555
H12 C16 1_555 1_555
C17 C9 1_555 1_555
C18 O2 1_555 1_555
H13 C18 1_555 1_555
H14 C18 1_555 1_555
C19 C18 1_555 1_555
H15 C19 1_555 1_555
H16 C19 1_555 1_555
H17 C19 1_555 1_555
C3 C4 1_555 1_555
C6 C7 1_555 1_555
C15 C16 1_555 1_555

#END
