
#######################################################################
#
#                 Cambridge Crystallographic Data Centre
#                                CCDC 
#
#######################################################################
#
# If this CIF has been generated from an entry in the Cambridge 
# Structural Database, then it will include bibliographic, chemical, 
# crystal, experimental, refinement or atomic coordinate data resulting 
# from the CCDC's data processing and validation procedures.
#
#######################################################################

data_ISUMEQ
_chemical_formula_moiety         'C15 H17 N3 O4 S1'
_chemical_name_systematic        
'N-benzyl-N-(2-(4-nitrophenyl)ethyl)sulfuric diamide'
_symmetry_cell_setting           orthorhombic
_symmetry_space_group_name_H-M   'P 21 21 21'
_symmetry_Int_Tables_number      19
_space_group_name_Hall           'P 2ac 2ab'
loop_
_symmetry_equiv_pos_site_id
_symmetry_equiv_pos_as_xyz
1 x,y,z
2 1/2+x,1/2-y,-z
3 -x,1/2+y,1/2-z
4 1/2-x,-y,1/2+z
_cell_length_a                   6.0617(2)
_cell_length_b                   7.1812(2)
_cell_length_c                   35.5229(10)
_cell_angle_alpha                90
_cell_angle_beta                 90
_cell_angle_gamma                90
_cell_volume                     1546.32
_exptl_crystal_colour            colorless
_exptl_crystal_description       needle
_cell_formula_units_Z            4
loop_
_atom_site_label
_atom_site_type_symbol
_atom_site_fract_x
_atom_site_fract_y
_atom_site_fract_z
S1 S 0.90474(9) 0.48853(8) 0.97162(2)
O1 O 0.9975(4) 0.6731(5) 0.74262(6)
O2 O 1.3192(3) 0.6328(4) 0.76704(6)
O3 O 1.0549(3) 0.6414(3) 0.97005(5)
O4 O 0.9908(3) 0.3028(3) 0.96957(6)
C1 C 0.8668(4) 0.8061(3) 0.87666(7)
N1 N 0.7358(3) 0.5129(3) 0.93584(5)
N2 N 0.7770(4) 0.5036(4) 1.01156(6)
N3 N 1.1237(4) 0.6711(4) 0.76940(7)
C2 C 1.0323(4) 0.7171(4) 0.80683(8)
C3 C 1.1604(4) 0.6803(4) 0.83818(8)
H1 H 1.3028 0.6263 0.8358
C4 C 1.0736(5) 0.7252(4) 0.87324(8)
H2 H 1.1574 0.7001 0.8953
C5 C 0.7737(5) 0.8532(4) 0.91498(7)
H3 H 0.6841 0.9680 0.9129
H4 H 0.8972 0.8794 0.9324
C6 C 0.6304(4) 0.6984(4) 0.93177(7)
H5 H 0.5797 0.7393 0.9569
H6 H 0.4978 0.6841 0.9158
C7 C 0.5727(4) 0.3592(4) 0.93247(7)
H7 H 0.4372 0.3931 0.9464
H8 H 0.6343 0.2452 0.9441
C8 C 0.5138(4) 0.3191(3) 0.89165(7)
C9 C 0.6659(4) 0.3473(4) 0.86298(7)
H9 H 0.8072 0.3973 0.8686
C10 C 0.6110(5) 0.3019(4) 0.82579(7)
H10 H 0.7151 0.3221 0.8062
C11 C 0.4062(5) 0.2278(4) 0.81740(7)
H11 H 0.3700 0.1965 0.7922
C12 C 0.8254(5) 0.7964(4) 0.80897(8)
H12 H 0.7414 0.8195 0.7869
C13 C 0.7433(4) 0.8415(4) 0.84443(8)
H13 H 0.6016 0.8970 0.8466
C14 C 0.2537(4) 0.1993(4) 0.84595(8)
H14 H 0.1130 0.1482 0.8403
C15 C 0.3071(4) 0.2460(4) 0.88310(7)
H15 H 0.2019 0.2276 0.9026
H16 H 0.713(5) 0.603(5) 1.0151(8)
H17 H 0.670(5) 0.416(5) 1.0159(9)
loop_
_geom_bond_atom_site_label_1
_geom_bond_atom_site_label_2
_geom_bond_site_symmetry_1
_geom_bond_site_symmetry_2
S1 O3 1_555 1_555
O1 N3 1_555 1_555
O2 N3 1_555 1_555
O4 S1 1_555 1_555
C1 C4 1_555 1_555
N1 S1 1_555 1_555
N2 S1 1_555 1_555
N3 C2 1_555 1_555
C2 C3 1_555 1_555
C3 H1 1_555 1_555
C4 C3 1_555 1_555
H2 C4 1_555 1_555
C5 C1 1_555 1_555
H3 C5 1_555 1_555
H4 C5 1_555 1_555
C6 N1 1_555 1_555
H5 C6 1_555 1_555
H6 C6 1_555 1_555
C7 N1 1_555 1_555
H7 C7 1_555 1_555
H8 C7 1_555 1_555
C8 C7 1_555 1_555
C9 C8 1_555 1_555
H9 C9 1_555 1_555
C10 C9 1_555 1_555
H10 C10 1_555 1_555
C11 C10 1_555 1_555
H11 C11 1_555 1_555
C12 C2 1_555 1_555
H12 C12 1_555 1_555
C13 C1 1_555 1_555
H13 C13 1_555 1_555
C14 C11 1_555 1_555
H14 C14 1_555 1_555
C15 C8 1_555 1_555
H15 C15 1_555 1_555
H16 N2 1_555 1_555
H17 N2 1_555 1_555
C5 C6 1_555 1_555
C12 C13 1_555 1_555
C14 C15 1_555 1_555

#END
