
#######################################################################
#
#                 Cambridge Crystallographic Data Centre
#                                CCDC 
#
#######################################################################
#
# If this CIF has been generated from an entry in the Cambridge 
# Structural Database, then it will include bibliographic, chemical, 
# crystal, experimental, refinement or atomic coordinate data resulting 
# from the CCDC's data processing and validation procedures.
#
#######################################################################

data_ISUNOB
_chemical_formula_moiety         
'C30 H14 I4 N6 O6,C8 H20 N1 1+,C1 H1 Cl3,Cl1 1-'
_chemical_name_systematic        
'tetraethylammonium 5,17-bis(2,6-diiodophenoxy)-2,8,14,20-tetraoxa-4,6,16,18,26,28-hexaazapentacyclo[19.3.1.1^3,7^.1^9,13^.1^15,19^]octacosa-1(25),3(28),4,6,9(27),10,12,15(26),16,18,21,23-dodecaene chloride chloroform unknown solvate'
_symmetry_cell_setting           monoclinic
_symmetry_space_group_name_H-M   'P 21/c'
_symmetry_Int_Tables_number      14
_space_group_name_Hall           '-P 2ybc'
loop_
_symmetry_equiv_pos_site_id
_symmetry_equiv_pos_as_xyz
1 x,y,z
2 -x,1/2+y,1/2-z
3 -x,-y,-z
4 x,1/2-y,1/2+z
_cell_length_a                   11.947(2)
_cell_length_b                   16.017(3)
_cell_length_c                   25.947(5)
_cell_angle_alpha                90
_cell_angle_beta                 97.58(3)
_cell_angle_gamma                90
_cell_volume                     4921.7
_exptl_crystal_colour            colorless
_exptl_crystal_description       rod
_cell_formula_units_Z            4
loop_
_atom_site_label
_atom_site_type_symbol
_atom_site_fract_x
_atom_site_fract_y
_atom_site_fract_z
I1 I 0.16750(3) 0.818368(18) 0.848378(13)
I2 I -0.34240(2) 0.840900(17) 0.836706(11)
I3 I 0.51746(3) 0.811267(16) 0.649385(12)
I4 I 0.45685(3) 0.823918(19) 0.413740(12)
O1 O -0.0991(2) 0.78056(15) 0.81573(10)
O2 O -0.1003(2) 0.97016(15) 0.68676(10)
O3 O 0.1588(2) 0.96440(15) 0.55789(11)
O4 O 0.0633(2) 0.69008(16) 0.52093(11)
O5 O -0.1862(2) 0.69394(16) 0.65093(10)
O6 O 0.4219(2) 0.77315(16) 0.52937(12)
N1 N -0.0979(3) 0.87913(18) 0.75133(12)
N2 N -0.1374(3) 0.83285(18) 0.66329(12)
N3 N -0.1447(3) 0.73642(19) 0.73338(12)
N4 N 0.2908(3) 0.87275(18) 0.54419(13)
N5 N 0.2427(3) 0.73083(19) 0.52472(13)
N6 N 0.1010(3) 0.82724(18) 0.54429(12)
C1 C 0.0226(4) 0.8727(2) 0.87244(16)
C2 C 0.0332(5) 0.9372(3) 0.90868(18)
H1 H 0.1062 0.9556 0.9232
C3 C -0.0612(5) 0.9748(3) 0.92386(17)
H2 H -0.0527 1.0184 0.9489
C4 C -0.1681(4) 0.9493(2) 0.90269(16)
H3 H -0.2329 0.9758 0.9129
C5 C -0.1806(4) 0.8851(2) 0.86662(15)
C6 C -0.0844(4) 0.8475(2) 0.85125(14)
C7 C -0.1149(3) 0.8007(2) 0.76497(15)
C8 C -0.1534(3) 0.7580(2) 0.68353(15)
C9 C -0.1113(3) 0.8896(2) 0.70002(14)
C10 C -0.0655(3) 0.9953(2) 0.63951(13)
C11 C -0.1071(4) 1.0716(2) 0.62149(14)
H4 H -0.1638 1.0992 0.6376
C12 C -0.0645(4) 1.1074(2) 0.57945(15)
H5 H -0.0940 1.1593 0.5660
C13 C 0.0205(3) 1.0686(2) 0.55665(14)
H6 H 0.0506 1.0938 0.5283
C14 C 0.0604(3) 0.9922(2) 0.57629(14)
C15 C 0.0182(3) 0.9538(2) 0.61772(14)
H7 H 0.0458 0.9011 0.6306
C16 C 0.1824(3) 0.8843(2) 0.54891(14)
C17 C 0.3145(3) 0.7939(2) 0.53282(15)
C18 C 0.1376(3) 0.7524(2) 0.53100(14)
C19 C -0.0467(3) 0.7013(2) 0.53426(15)
C20 C -0.1354(4) 0.7088(2) 0.49544(15)
H8 H -0.1229 0.7123 0.4601
C21 C -0.2435(4) 0.7112(3) 0.50871(16)
H9 H -0.3061 0.7159 0.4822
C22 C -0.2620(3) 0.7066(2) 0.56057(16)
H10 H -0.3364 0.7069 0.5697
C23 C -0.1696(3) 0.7018(2) 0.59812(14)
C24 C -0.0606(3) 0.6974(2) 0.58642(15)
H11 H 0.0021 0.6919 0.6128
C25 C 0.5015(3) 0.8385(2) 0.53209(17)
C26 C 0.5305(3) 0.8708(3) 0.48631(17)
C27 C 0.6128(3) 0.9327(3) 0.48807(17)
H12 H 0.6319 0.9565 0.4568
C28 C 0.6665(4) 0.9593(3) 0.53572(18)
H13 H 0.7235 1.0008 0.5370
C29 C 0.6383(3) 0.9261(2) 0.58169(17)
H14 H 0.6751 0.9455 0.6142
C30 C 0.5564(3) 0.8648(2) 0.58006(16)
Cl1 Cl 0.41325(10) 0.76867(7) 0.79321(5)
Cl2 Cl 0.26578(12) 0.65228(8) 0.64735(5)
Cl3 Cl 0.14650(12) 0.78199(7) 0.69480(6)
Cl4 Cl 0.12775(13) 0.61046(9) 0.72639(6)
C31 C 0.2168(4) 0.6852(2) 0.70531(17)
H15 H 0.2832 0.6927 0.7327
N7 N 0.6367(3) 0.54269(18) 0.75355(13)
C32 C 0.5397(4) 0.4890(2) 0.76749(18)
H16 H 0.5302 0.4411 0.7432
H17 H 0.5615 0.4662 0.8029
C33 C 0.4271(4) 0.5319(3) 0.7662(2)
H18 H 0.3987 0.5475 0.7304
H19 H 0.4360 0.5821 0.7879
H20 H 0.3734 0.4939 0.7796
C34 C 0.6654(4) 0.6122(2) 0.79336(17)
H21 H 0.7214 0.6498 0.7805
H22 H 0.5963 0.6453 0.7957
C35 C 0.7116(5) 0.5835(4) 0.84689(19)
H23 H 0.7883 0.5618 0.8466
H24 H 0.6633 0.5393 0.8579
H25 H 0.7136 0.6305 0.8711
C36 C 0.7351(4) 0.4833(2) 0.75224(19)
H26 H 0.7117 0.4387 0.7266
H27 H 0.7519 0.4565 0.7868
C37 C 0.8429(4) 0.5231(3) 0.7385(2)
H28 H 0.8275 0.5501 0.7044
H29 H 0.9007 0.4799 0.7374
H30 H 0.8698 0.5648 0.7648
C38 C 0.6057(4) 0.5868(3) 0.70219(17)
H31 H 0.6697 0.6227 0.6956
H32 H 0.5402 0.6236 0.7050
C39 C 0.5765(5) 0.5292(4) 0.65605(19)
H33 H 0.5553 0.5625 0.6246
H34 H 0.5132 0.4932 0.6621
H35 H 0.6422 0.4946 0.6516
loop_
_geom_bond_atom_site_label_1
_geom_bond_atom_site_label_2
_geom_bond_site_symmetry_1
_geom_bond_site_symmetry_2
I1 C1 1_555 1_555
I2 C5 1_555 1_555
I3 C30 1_555 1_555
I4 C26 1_555 1_555
O1 C6 1_555 1_555
O2 C9 1_555 1_555
O3 C14 1_555 1_555
O4 C18 1_555 1_555
O5 C8 1_555 1_555
O6 C17 1_555 1_555
N1 C7 1_555 1_555
N2 C8 1_555 1_555
N3 C7 1_555 1_555
N4 C16 1_555 1_555
N5 C17 1_555 1_555
N6 C16 1_555 1_555
C1 C2 1_555 1_555
C2 H1 1_555 1_555
C3 C2 1_555 1_555
H2 C3 1_555 1_555
C4 C3 1_555 1_555
H3 C4 1_555 1_555
C5 C4 1_555 1_555
C6 C1 1_555 1_555
C7 O1 1_555 1_555
C8 N3 1_555 1_555
C9 N1 1_555 1_555
C10 O2 1_555 1_555
C11 C10 1_555 1_555
H4 C11 1_555 1_555
C12 C11 1_555 1_555
H5 C12 1_555 1_555
C13 C12 1_555 1_555
H6 C13 1_555 1_555
C14 C13 1_555 1_555
C15 C10 1_555 1_555
H7 C15 1_555 1_555
C16 O3 1_555 1_555
C17 N4 1_555 1_555
C18 N5 1_555 1_555
C19 O4 1_555 1_555
C20 C19 1_555 1_555
H8 C20 1_555 1_555
C21 C20 1_555 1_555
H9 C21 1_555 1_555
C22 C21 1_555 1_555
H10 C22 1_555 1_555
C23 O5 1_555 1_555
C24 C19 1_555 1_555
H11 C24 1_555 1_555
C25 O6 1_555 1_555
C26 C25 1_555 1_555
C27 C26 1_555 1_555
H12 C27 1_555 1_555
C28 C27 1_555 1_555
H13 C28 1_555 1_555
C29 C28 1_555 1_555
H14 C29 1_555 1_555
C30 C25 1_555 1_555
Cl2 C31 1_555 1_555
Cl3 C31 1_555 1_555
Cl4 C31 1_555 1_555
C31 H15 1_555 1_555
N7 C32 1_555 1_555
C32 H16 1_555 1_555
H17 C32 1_555 1_555
C33 C32 1_555 1_555
H18 C33 1_555 1_555
H19 C33 1_555 1_555
H20 C33 1_555 1_555
C34 N7 1_555 1_555
H21 C34 1_555 1_555
H22 C34 1_555 1_555
C35 C34 1_555 1_555
H23 C35 1_555 1_555
H24 C35 1_555 1_555
H25 C35 1_555 1_555
C36 N7 1_555 1_555
H26 C36 1_555 1_555
H27 C36 1_555 1_555
C37 C36 1_555 1_555
H28 C37 1_555 1_555
H29 C37 1_555 1_555
H30 C37 1_555 1_555
C38 N7 1_555 1_555
H31 C38 1_555 1_555
H32 C38 1_555 1_555
C39 C38 1_555 1_555
H33 C39 1_555 1_555
H34 C39 1_555 1_555
H35 C39 1_555 1_555
N2 C9 1_555 1_555
N6 C18 1_555 1_555
C5 C6 1_555 1_555
C14 C15 1_555 1_555
C22 C23 1_555 1_555
C23 C24 1_555 1_555
C29 C30 1_555 1_555

#END
