
#######################################################################
#
#                 Cambridge Crystallographic Data Centre
#                                CCDC 
#
#######################################################################
#
# If this CIF has been generated from an entry in the Cambridge 
# Structural Database, then it will include bibliographic, chemical, 
# crystal, experimental, refinement or atomic coordinate data resulting 
# from the CCDC's data processing and validation procedures.
#
#######################################################################

data_ISUPUH
_chemical_formula_moiety         'C12 H8 Cl1 N1 O5 S1'
_chemical_name_systematic        '4-Chlorophenyl 3-nitrobenzenesulfonate'
_symmetry_cell_setting           triclinic
_symmetry_space_group_name_H-M   'P -1'
_symmetry_Int_Tables_number      2
_space_group_name_Hall           '-P 1'
loop_
_symmetry_equiv_pos_site_id
_symmetry_equiv_pos_as_xyz
1 x,y,z
2 -x,-y,-z
_cell_length_a                   7.556(9)
_cell_length_b                   8.562(8)
_cell_length_c                   10.851(13)
_cell_angle_alpha                67.86(6)
_cell_angle_beta                 89.93(11)
_cell_angle_gamma                87.01(8)
_cell_volume                     649.224
_exptl_crystal_colour            colorless
_exptl_crystal_description       block
_chemical_melting_point          '381-383 K'
_cell_formula_units_Z            2
_exptl_crystal_recrystallization_method ethanol
loop_
_atom_site_label
_atom_site_type_symbol
_atom_site_fract_x
_atom_site_fract_y
_atom_site_fract_z
S1 S 0.29260(15) 0.22971(17) 0.34181(13)
Cl1 Cl -0.44453(16) 0.2403(2) -0.03417(14)
N1 N 0.7084(6) -0.2434(6) 0.3013(5)
O1 O 0.8112(5) -0.1331(5) 0.2445(4)
O2 O 0.7443(5) -0.3948(5) 0.3334(5)
O3 O 0.4564(4) 0.2989(5) 0.3550(4)
O4 O 0.1500(4) 0.2328(5) 0.4270(4)
O5 O 0.2338(4) 0.3321(4) 0.1909(3)
C1 C 0.3331(6) 0.0219(7) 0.3509(5)
C2 C 0.4995(6) -0.0244(7) 0.3205(5)
H1 H 0.5899 0.0540 0.2936
C3 C 0.5301(6) -0.1895(7) 0.3305(5)
C4 C 0.4004(6) -0.3059(7) 0.3674(5)
H2 H 0.4254 -0.4185 0.3736
C5 C 0.2328(7) -0.2548(7) 0.3952(6)
H3 H 0.1414 -0.3323 0.4196
C6 C 0.1992(6) -0.0919(7) 0.3875(5)
H4 H 0.0848 -0.0570 0.4070
C7 C 0.0680(6) 0.3043(6) 0.1414(5)
C8 C -0.0867(6) 0.3675(7) 0.1778(5)
H5 H -0.0840 0.4222 0.2394
C9 C -0.2479(6) 0.3490(7) 0.1219(6)
H6 H -0.3573 0.3907 0.1441
C10 C -0.2411(6) 0.2673(7) 0.0326(5)
C11 C -0.0861(6) 0.2077(7) -0.0052(6)
H7 H -0.0873 0.1555 -0.0685
C12 C 0.0736(6) 0.2260(7) 0.0525(5)
H8 H 0.1833 0.1850 0.0301
loop_
_geom_bond_atom_site_label_1
_geom_bond_atom_site_label_2
_geom_bond_site_symmetry_1
_geom_bond_site_symmetry_2
S1 O3 1_555 1_555
Cl1 C10 1_555 1_555
N1 O1 1_555 1_555
O2 N1 1_555 1_555
O4 S1 1_555 1_555
O5 S1 1_555 1_555
C1 S1 1_555 1_555
C2 C1 1_555 1_555
H1 C2 1_555 1_555
C3 N1 1_555 1_555
C4 C3 1_555 1_555
H2 C4 1_555 1_555
C5 C4 1_555 1_555
H3 C5 1_555 1_555
C6 C1 1_555 1_555
H4 C6 1_555 1_555
C7 O5 1_555 1_555
C8 C7 1_555 1_555
H5 C8 1_555 1_555
C9 C8 1_555 1_555
H6 C9 1_555 1_555
C10 C9 1_555 1_555
C11 C10 1_555 1_555
H7 C11 1_555 1_555
C12 C7 1_555 1_555
H8 C12 1_555 1_555
C2 C3 1_555 1_555
C5 C6 1_555 1_555
C11 C12 1_555 1_555

#END
