
#######################################################################
#
#                 Cambridge Crystallographic Data Centre
#                                CCDC 
#
#######################################################################
#
# If this CIF has been generated from an entry in the Cambridge 
# Structural Database, then it will include bibliographic, chemical, 
# crystal, experimental, refinement or atomic coordinate data resulting 
# from the CCDC's data processing and validation procedures.
#
#######################################################################

data_ISUPOD
_chemical_formula_moiety         
'C30 H16 I2 N6 O6,C16 H36 N1 1+,C1 H1 Cl3,I1 1-'
_chemical_name_systematic        
'tetrabutylammonium 5,17-bis(2-iodophenoxy)-2,8,14,20-tetraoxa-4,6,16,18,26,28-hexaazapentacyclo[19.3.1.1^3,7^.1^9,13^.1^15,19^]octacosa-1(25),3(28),4,6,9(27),10,12,15(26),16,18,21,23-dodecaene iodide chloroform solvate'
_symmetry_cell_setting           monoclinic
_symmetry_space_group_name_H-M   'C 2/c'
_symmetry_Int_Tables_number      15
_space_group_name_Hall           '-C 2yn'
loop_
_symmetry_equiv_pos_site_id
_symmetry_equiv_pos_as_xyz
1 x,y,z
2 -x,y,1/2-z
3 1/2+x,1/2+y,z
4 1/2-x,1/2+y,1/2-z
5 -x,-y,-z
6 x,-y,1/2+z
7 1/2-x,1/2-y,-z
8 1/2+x,1/2-y,1/2+z
_cell_length_a                   47.458(12)
_cell_length_b                   12.173(3)
_cell_length_c                   19.255(5)
_cell_angle_alpha                90
_cell_angle_beta                 107.162(5)
_cell_angle_gamma                90
_cell_volume                     10628.4
_exptl_crystal_colour            colorless
_exptl_crystal_description       Plate
_cell_formula_units_Z            8
loop_
_atom_site_label
_atom_site_type_symbol
_atom_site_fract_x
_atom_site_fract_y
_atom_site_fract_z
I1 I 0.11541(2) 0.45622(8) 0.28898(4)
I2 I -0.19799(2) -0.10596(8) -0.15948(5)
O1 O 0.05163(17) 0.4129(6) 0.3101(4)
O2 O -0.00618(16) 0.4087(5) 0.0764(4)
O3 O -0.10139(16) 0.2430(6) -0.0291(4)
O4 O -0.16091(16) -0.0308(7) 0.0010(4)
O5 O -0.06471(14) -0.0978(5) 0.0570(4)
O6 O 0.02234(15) 0.0893(5) 0.2062(3)
N1 N 0.02325(19) 0.4165(7) 0.1909(4)
N2 N 0.03647(18) 0.2511(7) 0.2584(4)
N3 N 0.00734(17) 0.2423(6) 0.1343(4)
N4 N -0.08017(18) 0.0763(7) 0.0148(4)
N5 N -0.13167(19) 0.1124(7) -0.0132(5)
N6 N -0.11268(19) -0.0645(7) 0.0290(5)
C1 C 0.0824(3) 0.5653(10) 0.2995(6)
C2 C 0.0873(3) 0.6800(10) 0.3022(6)
H1 H 0.1057 0.7077 0.2998
C3 C 0.0664(3) 0.7498(11) 0.3080(6)
H2 H 0.0699 0.8266 0.3085
C4 C 0.0396(3) 0.7120(10) 0.3134(7)
H3 H 0.0251 0.7630 0.3177
C5 C 0.0338(3) 0.5986(10) 0.3125(6)
H4 H 0.0156 0.5711 0.3168
C6 C 0.0558(3) 0.5289(9) 0.3050(6)
C7 C 0.0368(2) 0.3596(8) 0.2497(5)
C8 C 0.0220(2) 0.1977(8) 0.1977(5)
C9 C 0.0085(2) 0.3514(8) 0.1347(5)
C10 C -0.0272(2) 0.3584(8) 0.0176(5)
C11 C -0.0233(2) 0.3718(8) -0.0500(5)
H5 H -0.0057 0.4037 -0.0546
C12 C -0.0454(2) 0.3382(8) -0.1116(6)
H6 H -0.0429 0.3465 -0.1585
C13 C -0.0707(2) 0.2933(8) -0.1039(5)
H7 H -0.0860 0.2708 -0.1455
C14 C -0.0738(2) 0.2807(8) -0.0343(5)
C15 C -0.0521(2) 0.3138(8) 0.0276(5)
H8 H -0.0544 0.3059 0.0746
C16 C -0.1038(2) 0.1378(9) -0.0071(5)
C17 C -0.1342(2) 0.0089(10) 0.0049(6)
C18 C -0.0865(2) -0.0241(8) 0.0330(5)
C19 C -0.1854(3) 0.0408(12) -0.0250(7)
C20 C -0.2056(3) 0.0195(12) -0.0917(7)
C21 C -0.2307(3) 0.0856(13) -0.1143(8)
H9 H -0.2455 0.0693 -0.1584
C22 C -0.2343(3) 0.1775(13) -0.0717(8)
H10 H -0.2511 0.2235 -0.0887
C23 C -0.2139(3) 0.2001(14) -0.0067(8)
H11 H -0.2156 0.2634 0.0206
C24 C -0.1898(3) 0.1253(13) 0.0187(8)
H12 H -0.1767 0.1338 0.0663
C25 C -0.0350(2) -0.0660(7) 0.0734(5)
C26 C -0.0182(2) -0.1224(8) 0.0364(5)
H13 H -0.0272 -0.1736 -0.0007
C27 C 0.0118(2) -0.1025(8) 0.0547(6)
H14 H 0.0234 -0.1386 0.0289
C28 C 0.0250(2) -0.0304(8) 0.1101(5)
H15 H 0.0456 -0.0168 0.1234
C29 C 0.0075(2) 0.0209(7) 0.1456(5)
C30 C -0.0221(2) 0.0059(7) 0.1293(5)
H16 H -0.0334 0.0432 0.1552
I3 I -0.18031(2) 0.30183(8) 0.21063(4)
Cl1 Cl -0.13813(12) -0.0576(5) 0.1912(4)
Cl2 Cl -0.09805(11) 0.1183(4) 0.2145(3)
Cl3 Cl -0.11158(12) 0.0183(7) 0.3361(3)
C31 C -0.1254(3) 0.0583(11) 0.2478(7)
H17 H -0.1419 0.1114 0.2429
N7 N -0.1692(3) 0.5344(10) -0.0594(6)
C32 C -0.1984(3) 0.5778(13) -0.1097(8)
H18 H -0.2006 0.6553 -0.0966
H19 H -0.1971 0.5772 -0.1601
C33 C -0.2250(4) 0.5181(14) -0.1086(9)
H20 H -0.2254 0.5108 -0.0577
H21 H -0.2243 0.4433 -0.1283
C34 C -0.2522(4) 0.5736(16) -0.1516(10)
H22 H -0.2542 0.5647 -0.2039
H23 H -0.2505 0.6532 -0.1404
C35 C -0.2794(4) 0.5296(18) -0.1368(12)
H24 H -0.2832 0.4547 -0.1559
H25 H -0.2963 0.5766 -0.1605
H26 H -0.2765 0.5288 -0.0842
C36 C -0.1699(4) 0.5356(13) 0.0193(8)
H27 H -0.1515 0.5011 0.0501
H28 H -0.1867 0.4903 0.0231
C37 C -0.1726(4) 0.6499(15) 0.0490(9)
H29 H -0.1852 0.6953 0.0091
H30 H -0.1528 0.6840 0.0646
C38 C -0.1856(4) 0.6528(18) 0.1128(10)
H31 H -0.1744 0.6021 0.1513
H32 H -0.1836 0.7279 0.1335
C39 C -0.2178(5) 0.620(2) 0.0892(13)
H33 H -0.2288 0.6680 0.0495
H34 H -0.2259 0.6273 0.1303
H35 H -0.2197 0.5436 0.0724
C40 C -0.1449(4) 0.6105(13) -0.0681(9)
H36 H -0.1458 0.6137 -0.1201
H37 H -0.1484 0.6855 -0.0527
C41 C -0.1143(4) 0.5741(16) -0.0243(11)
H38 H -0.1130 0.5690 0.0279
H39 H -0.1098 0.5010 -0.0410
C42 C -0.0940(5) 0.654(2) -0.0348(13)
H40 H -0.0843 0.6836 0.0143
H41 H -0.1064 0.7140 -0.0621
C43 C -0.0708(5) 0.642(2) -0.0676(15)
H42 H -0.0764 0.5870 -0.1065
H43 H -0.0527 0.6179 -0.0309
H44 H -0.0672 0.7125 -0.0880
C44 C -0.1643(3) 0.4171(12) -0.0789(8)
H45 H -0.1819 0.3735 -0.0788
H46 H -0.1474 0.3870 -0.0403
C45 C -0.1584(4) 0.4001(13) -0.1523(9)
H47 H -0.1721 0.4474 -0.1888
H48 H -0.1381 0.4257 -0.1478
C46 C -0.1614(4) 0.2857(14) -0.1803(9)
H49 H -0.1534 0.2817 -0.2222
H50 H -0.1494 0.2366 -0.1419
C47 C -0.1904(5) 0.248(2) -0.2019(12)
H51 H -0.2034 0.3042 -0.2308
H52 H -0.1966 0.2308 -0.1588
H53 H -0.1917 0.1810 -0.2313
loop_
_geom_bond_atom_site_label_1
_geom_bond_atom_site_label_2
_geom_bond_site_symmetry_1
_geom_bond_site_symmetry_2
I1 C1 1_555 1_555
I2 C20 1_555 1_555
O1 C6 1_555 1_555
O2 C9 1_555 1_555
O3 C14 1_555 1_555
O4 C17 1_555 1_555
O5 C18 1_555 1_555
O6 C8 1_555 1_555
N1 C7 1_555 1_555
N2 C7 1_555 1_555
N3 C8 1_555 1_555
N4 C16 1_555 1_555
N5 C16 1_555 1_555
N6 C17 1_555 1_555
C1 C2 1_555 1_555
C2 H1 1_555 1_555
C3 C2 1_555 1_555
H2 C3 1_555 1_555
C4 C3 1_555 1_555
H3 C4 1_555 1_555
C5 C4 1_555 1_555
H4 C5 1_555 1_555
C6 C1 1_555 1_555
C7 O1 1_555 1_555
C8 N2 1_555 1_555
C9 N1 1_555 1_555
C10 O2 1_555 1_555
C11 C10 1_555 1_555
H5 C11 1_555 1_555
C12 C11 1_555 1_555
H6 C12 1_555 1_555
C13 C12 1_555 1_555
H7 C13 1_555 1_555
C14 C13 1_555 1_555
C15 C10 1_555 1_555
H8 C15 1_555 1_555
C16 O3 1_555 1_555
C17 N5 1_555 1_555
C18 N4 1_555 1_555
C19 O4 1_555 1_555
C20 C19 1_555 1_555
C21 C20 1_555 1_555
H9 C21 1_555 1_555
C22 C21 1_555 1_555
H10 C22 1_555 1_555
C23 C22 1_555 1_555
H11 C23 1_555 1_555
C24 C19 1_555 1_555
H12 C24 1_555 1_555
C25 O5 1_555 1_555
C26 C25 1_555 1_555
H13 C26 1_555 1_555
C27 C26 1_555 1_555
H14 C27 1_555 1_555
C28 C27 1_555 1_555
H15 C28 1_555 1_555
C29 O6 1_555 1_555
C30 C25 1_555 1_555
H16 C30 1_555 1_555
Cl1 C31 1_555 1_555
Cl2 C31 1_555 1_555
Cl3 C31 1_555 1_555
C31 H17 1_555 1_555
N7 C32 1_555 1_555
C32 H18 1_555 1_555
H19 C32 1_555 1_555
C33 C32 1_555 1_555
H20 C33 1_555 1_555
H21 C33 1_555 1_555
C34 C33 1_555 1_555
H22 C34 1_555 1_555
H23 C34 1_555 1_555
C35 C34 1_555 1_555
H24 C35 1_555 1_555
H25 C35 1_555 1_555
H26 C35 1_555 1_555
C36 N7 1_555 1_555
H27 C36 1_555 1_555
H28 C36 1_555 1_555
C37 C36 1_555 1_555
H29 C37 1_555 1_555
H30 C37 1_555 1_555
C38 C37 1_555 1_555
H31 C38 1_555 1_555
H32 C38 1_555 1_555
C39 C38 1_555 1_555
H33 C39 1_555 1_555
H34 C39 1_555 1_555
H35 C39 1_555 1_555
C40 N7 1_555 1_555
H36 C40 1_555 1_555
H37 C40 1_555 1_555
C41 C40 1_555 1_555
H38 C41 1_555 1_555
H39 C41 1_555 1_555
C42 C41 1_555 1_555
H40 C42 1_555 1_555
H41 C42 1_555 1_555
C43 C42 1_555 1_555
H42 C43 1_555 1_555
H43 C43 1_555 1_555
H44 C43 1_555 1_555
C44 N7 1_555 1_555
H45 C44 1_555 1_555
H46 C44 1_555 1_555
C45 C44 1_555 1_555
H47 C45 1_555 1_555
H48 C45 1_555 1_555
C46 C45 1_555 1_555
H49 C46 1_555 1_555
H50 C46 1_555 1_555
C47 C46 1_555 1_555
H51 C47 1_555 1_555
H52 C47 1_555 1_555
H53 C47 1_555 1_555
N3 C9 1_555 1_555
N6 C18 1_555 1_555
C5 C6 1_555 1_555
C14 C15 1_555 1_555
C23 C24 1_555 1_555
C28 C29 1_555 1_555
C29 C30 1_555 1_555

#END
