
#######################################################################
#
#                 Cambridge Crystallographic Data Centre
#                                CCDC 
#
#######################################################################
#
# If this CIF has been generated from an entry in the Cambridge 
# Structural Database, then it will include bibliographic, chemical, 
# crystal, experimental, refinement or atomic coordinate data resulting 
# from the CCDC's data processing and validation procedures.
#
#######################################################################

data_ISUPIV
_chemical_formula_moiety         'C10 H13 N1 O2'
_chemical_name_systematic        
'(E)-1-(2-Hydroxyphenyl)propan-2-one O-methyloxime'
_symmetry_cell_setting           triclinic
_symmetry_space_group_name_H-M   'P -1'
_symmetry_Int_Tables_number      2
_space_group_name_Hall           '-P 1'
loop_
_symmetry_equiv_pos_site_id
_symmetry_equiv_pos_as_xyz
1 x,y,z
2 -x,-y,-z
_cell_length_a                   9.3723(2)
_cell_length_b                   9.4254(2)
_cell_length_c                   12.3080(3)
_cell_angle_alpha                89.7146(12)
_cell_angle_beta                 68.5508(11)
_cell_angle_gamma                77.0903(10)
_cell_volume                     982.847
_exptl_crystal_colour            colorless
_exptl_crystal_description       plate
_chemical_melting_point          '350-352 K'
_cell_formula_units_Z            4
_exptl_crystal_recrystallization_method ethanol
loop_
_atom_site_label
_atom_site_type_symbol
_atom_site_fract_x
_atom_site_fract_y
_atom_site_fract_z
O1 O 0.39534(15) 0.36002(12) 0.57489(10)
C1 C 0.32061(19) 0.26467(17) 0.64453(13)
C2 C 0.38170(19) 0.20224(17) 0.72650(14)
C3 C 0.3119(2) 0.09933(19) 0.79440(15)
C4 C 0.1839(2) 0.0602(2) 0.78326(16)
C5 C 0.1214(2) 0.1258(2) 0.70438(15)
C6 C 0.1889(2) 0.22874(18) 0.63541(14)
C7 C 0.5215(2) 0.24310(17) 0.74141(15)
C8 C 0.65818(19) 0.11186(17) 0.71219(14)
C9 C 0.7379(2) 0.0466(2) 0.58836(14)
N1 N 0.69418(15) 0.06114(14) 0.79775(12)
O3 O 0.82216(13) -0.06457(12) 0.76048(10)
C10 C 0.8404(2) -0.1266(2) 0.86204(17)
H1 H 0.3482 0.3917 0.5301
H2 H 0.3532 0.0551 0.8496
H3 H 0.1391 -0.0114 0.8295
H4 H 0.0323 0.1006 0.6973
H5 H 0.1451 0.2746 0.5820
H6 H 0.5533 0.3202 0.6893
H7 H 0.4910 0.2824 0.8233
H8 H 0.8470 0.0571 0.5573
H9 H 0.6813 0.0970 0.5409
H10 H 0.7377 -0.0573 0.5857
H11 H 0.8600 -0.0541 0.9082
H12 H 0.9298 -0.2123 0.8380
H13 H 0.7439 -0.1561 0.9096
O2 O 0.55460(14) 0.17204(13) 0.03400(10)
C11 C 0.64437(19) 0.24590(17) 0.06690(14)
C12 C 0.58684(19) 0.30253(16) 0.18393(14)
C13 C 0.6739(2) 0.38166(18) 0.21835(15)
C14 C 0.8157(2) 0.40444(19) 0.14040(17)
C15 C 0.8737(2) 0.34384(18) 0.02540(16)
C16 C 0.7887(2) 0.26469(18) -0.01102(14)
C17 C 0.4323(2) 0.28037(17) 0.27188(14)
C18 C 0.30726(19) 0.42157(17) 0.30663(13)
C19 C 0.2531(2) 0.4943(2) 0.21552(15)
N2 N 0.25907(16) 0.47231(14) 0.41354(12)
O4 O 0.14343(14) 0.60645(13) 0.43818(10)
C20 C 0.0975(2) 0.6536(2) 0.55899(15)
H14 H 0.6009 0.1418 -0.0371
H15 H 0.6353 0.4213 0.2974
H16 H 0.8723 0.4607 0.1653
H17 H 0.9719 0.3567 -0.0284
H18 H 0.8292 0.2231 -0.0896
H19 H 0.3962 0.2074 0.2373
H20 H 0.4489 0.2419 0.3424
H21 H 0.2626 0.5958 0.2146
H22 H 0.1427 0.4924 0.2338
H23 H 0.3186 0.4423 0.1385
H24 H 0.1888 0.6717 0.5727
H25 H 0.0584 0.5776 0.6078
H26 H 0.0140 0.7438 0.5792
loop_
_geom_bond_atom_site_label_1
_geom_bond_atom_site_label_2
_geom_bond_site_symmetry_1
_geom_bond_site_symmetry_2
O1 C1 1_555 1_555
O2 C11 1_555 1_555
C1 C2 1_555 1_555
C2 C3 1_555 1_555
C3 C4 1_555 1_555
C4 C5 1_555 1_555
C5 C6 1_555 1_555
C6 C1 1_555 1_555
C7 C2 1_555 1_555
C8 C7 1_555 1_555
C9 C8 1_555 1_555
N1 C8 1_555 1_555
O3 N1 1_555 1_555
C10 O3 1_555 1_555
C11 C12 1_555 1_555
C12 C13 1_555 1_555
C13 C14 1_555 1_555
C14 C15 1_555 1_555
C15 C16 1_555 1_555
C16 C11 1_555 1_555
C17 C12 1_555 1_555
C18 C17 1_555 1_555
C19 C18 1_555 1_555
N2 C18 1_555 1_555
O4 N2 1_555 1_555
C20 O4 1_555 1_555
H1 O1 1_555 1_555
H2 C3 1_555 1_555
H3 C4 1_555 1_555
H4 C5 1_555 1_555
H5 C6 1_555 1_555
H6 C7 1_555 1_555
H7 C7 1_555 1_555
H8 C9 1_555 1_555
H9 C9 1_555 1_555
H10 C9 1_555 1_555
H11 C10 1_555 1_555
H12 C10 1_555 1_555
H13 C10 1_555 1_555
H14 O2 1_555 1_555
H15 C13 1_555 1_555
H16 C14 1_555 1_555
H17 C15 1_555 1_555
H18 C16 1_555 1_555
H19 C17 1_555 1_555
H20 C17 1_555 1_555
H21 C19 1_555 1_555
H22 C19 1_555 1_555
H23 C19 1_555 1_555
H24 C20 1_555 1_555
H25 C20 1_555 1_555
H26 C20 1_555 1_555

#END
