
#######################################################################
#
#                 Cambridge Crystallographic Data Centre
#                                CCDC 
#
#######################################################################
#
# If this CIF has been generated from an entry in the Cambridge 
# Structural Database, then it will include bibliographic, chemical, 
# crystal, experimental, refinement or atomic coordinate data resulting 
# from the CCDC's data processing and validation procedures.
#
#######################################################################

data_ISUSEU
_chemical_formula_moiety         'C9 H9 N2 O1 S1 1+,Cl1 1-'
_chemical_name_systematic        '2-Amino-3-hydroxy-4-phenylthiazolium chloride'
_symmetry_cell_setting           monoclinic
_symmetry_space_group_name_H-M   'P 21/n'
_symmetry_Int_Tables_number      14
_space_group_name_Hall           '-P 2yn'
loop_
_symmetry_equiv_pos_site_id
_symmetry_equiv_pos_as_xyz
1 x,y,z
2 1/2+x,1/2-y,1/2+z
3 -x,-y,-z
4 1/2-x,1/2+y,1/2-z
_cell_length_a                   9.2663(5)
_cell_length_b                   7.0716(4)
_cell_length_c                   15.4610(10)
_cell_angle_alpha                90
_cell_angle_beta                 90.194(2)
_cell_angle_gamma                90
_cell_volume                     1013.12
_exptl_crystal_colour            colorless
_exptl_crystal_description       plate
_cell_formula_units_Z            4
loop_
_atom_site_label
_atom_site_type_symbol
_atom_site_fract_x
_atom_site_fract_y
_atom_site_fract_z
S1 S 0.38910(6) 0.22878(8) 0.50432(3)
C1 C 0.3016(2) 0.3484(3) 0.42286(13)
N1 N 0.2959(2) 0.2964(3) 0.34083(12)
N2 N 0.24406(19) 0.5079(2) 0.45261(11)
O1 O 0.16664(16) 0.6230(2) 0.39757(9)
C2 C 0.2658(2) 0.5452(3) 0.54098(13)
C3 C 0.3437(2) 0.4061(3) 0.57711(14)
C4 C 0.2075(2) 0.7165(3) 0.58266(14)
C5 C 0.2927(2) 0.8124(3) 0.64260(13)
C6 C 0.2390(2) 0.9687(3) 0.68564(14)
C7 C 0.1001(2) 1.0312(3) 0.66872(14)
C8 C 0.0152(3) 0.9379(3) 0.60891(15)
C9 C 0.0680(3) 0.7809(3) 0.56603(15)
H1 H 0.3358 0.1893 0.3245
H2 H 0.2523 0.3689 0.3026
H3 H 0.2207 0.7086 0.3785
H4 H 0.3713 0.4046 0.6363
H5 H 0.3882 0.7703 0.6540
H6 H 0.2974 1.0331 0.7268
H7 H 0.0632 1.1385 0.6983
H8 H -0.0798 0.9815 0.5972
H9 H 0.0090 0.7169 0.5251
Cl1 Cl 0.39250(6) 0.87277(8) 0.33083(3)
loop_
_geom_bond_atom_site_label_1
_geom_bond_atom_site_label_2
_geom_bond_site_symmetry_1
_geom_bond_site_symmetry_2
S1 C1 1_555 1_555
C1 N1 1_555 1_555
N1 H1 1_555 1_555
N2 C1 1_555 1_555
O1 N2 1_555 1_555
C2 N2 1_555 1_555
C3 S1 1_555 1_555
C4 C2 1_555 1_555
C5 C4 1_555 1_555
C6 C5 1_555 1_555
C7 C6 1_555 1_555
C8 C7 1_555 1_555
C9 C4 1_555 1_555
H2 N1 1_555 1_555
H3 O1 1_555 1_555
H4 C3 1_555 1_555
H5 C5 1_555 1_555
H6 C6 1_555 1_555
H7 C7 1_555 1_555
H8 C8 1_555 1_555
H9 C9 1_555 1_555
C2 C3 1_555 1_555
C8 C9 1_555 1_555

#END
