
#######################################################################
#
#                 Cambridge Crystallographic Data Centre
#                                CCDC 
#
#######################################################################
#
# If this CIF has been generated from an entry in the Cambridge 
# Structural Database, then it will include bibliographic, chemical, 
# crystal, experimental, refinement or atomic coordinate data resulting 
# from the CCDC's data processing and validation procedures.
#
#######################################################################

data_ISUTIZ
_chemical_formula_moiety         'C14 H12 N2 O4'
_chemical_name_systematic        2-Nitrophenoxyacetanilide
_symmetry_cell_setting           monoclinic
_symmetry_space_group_name_H-M   'P 21/n'
_symmetry_Int_Tables_number      14
_space_group_name_Hall           '-P 2yn'
loop_
_symmetry_equiv_pos_site_id
_symmetry_equiv_pos_as_xyz
1 x,y,z
2 1/2+x,1/2-y,1/2+z
3 -x,-y,-z
4 1/2-x,1/2+y,1/2-z
_cell_length_a                   8.5855(3)
_cell_length_b                   6.6129(2)
_cell_length_c                   22.0221(8)
_cell_angle_alpha                90
_cell_angle_beta                 91.8330(17)
_cell_angle_gamma                90
_cell_volume                     1249.67
_exptl_crystal_colour            colorless
_exptl_crystal_description       block
_chemical_melting_point          '394-395 K'
_cell_formula_units_Z            4
_exptl_crystal_recrystallization_method ethanol
loop_
_atom_site_label
_atom_site_type_symbol
_atom_site_fract_x
_atom_site_fract_y
_atom_site_fract_z
O1 O 0.58655(10) 0.07786(12) 0.56272(4)
O2 O 0.67330(11) -0.27857(13) 0.59281(4)
O3 O 0.67431(14) -0.35883(16) 0.68733(5)
O4 O 0.70165(11) 0.33007(14) 0.43088(4)
N1 N 0.63677(13) -0.24551(16) 0.64546(5)
N2 N 0.77220(12) 0.03034(16) 0.47565(5)
C1 C 0.54833(15) -0.06453(18) 0.65985(6)
C2 C 0.52726(14) 0.09548(19) 0.61855(6)
C3 C 0.44553(16) 0.2652(2) 0.63713(6)
C4 C 0.39037(17) 0.2747(2) 0.69490(7)
C5 C 0.41105(19) 0.1180(2) 0.73528(7)
C6 C 0.48921(17) -0.0531(2) 0.71761(6)
C7 C 0.87765(15) -0.05310(19) 0.43475(6)
C8 C 0.93602(15) 0.0529(2) 0.38626(6)
C9 C 1.04188(16) -0.0409(2) 0.34902(6)
C10 C 1.09038(16) -0.2371(2) 0.36001(6)
C11 C 1.03025(15) -0.3423(2) 0.40782(7)
C12 C 0.92444(16) -0.25263(19) 0.44513(6)
C13 C 0.59236(15) 0.25291(17) 0.52486(6)
C14 C 0.69471(15) 0.20731(19) 0.47213(6)
H1 H 0.4279 0.3745 0.6098
H2 H 0.3366 0.3926 0.7072
H3 H 0.3718 0.1275 0.7750
H4 H 0.5026 -0.1632 0.7450
H5 H 0.6353 0.3688 0.5484
H6 H 0.4861 0.2887 0.5097
H7 H 0.7545 -0.0434 0.5080
H8 H 0.9040 0.1882 0.3785
H9 H 1.0815 0.0310 0.3155
H10 H 1.1645 -0.2987 0.3348
H11 H 1.0620 -0.4780 0.4152
H12 H 0.8833 -0.3267 0.4779
loop_
_geom_bond_atom_site_label_1
_geom_bond_atom_site_label_2
_geom_bond_site_symmetry_1
_geom_bond_site_symmetry_2
O1 C2 1_555 1_555
O2 N1 1_555 1_555
O3 N1 1_555 1_555
O4 C14 1_555 1_555
N1 C1 1_555 1_555
N2 C7 1_555 1_555
C1 C2 1_555 1_555
C2 C3 1_555 1_555
C3 C4 1_555 1_555
C4 C5 1_555 1_555
C5 C6 1_555 1_555
C6 C1 1_555 1_555
C7 C8 1_555 1_555
C8 C9 1_555 1_555
C9 C10 1_555 1_555
C10 C11 1_555 1_555
C11 C12 1_555 1_555
C12 C7 1_555 1_555
C13 O1 1_555 1_555
C14 N2 1_555 1_555
H1 C3 1_555 1_555
H2 C4 1_555 1_555
H3 C5 1_555 1_555
H4 C6 1_555 1_555
H5 C13 1_555 1_555
H6 C13 1_555 1_555
H7 N2 1_555 1_555
H8 C8 1_555 1_555
H9 C9 1_555 1_555
H10 C10 1_555 1_555
H11 C11 1_555 1_555
H12 C12 1_555 1_555
C13 C14 1_555 1_555

#END
