
#######################################################################
#
#                 Cambridge Crystallographic Data Centre
#                                CCDC 
#
#######################################################################
#
# If this CIF has been generated from an entry in the Cambridge 
# Structural Database, then it will include bibliographic, chemical, 
# crystal, experimental, refinement or atomic coordinate data resulting 
# from the CCDC's data processing and validation procedures.
#
#######################################################################

data_ISUTUL
_chemical_formula_moiety         'C3 H7 N6 1+,C5 H7 O3 1-,H2 O1'
_chemical_name_systematic        'Melaminium levulinate monohydrate'
_symmetry_cell_setting           monoclinic
_symmetry_space_group_name_H-M   'P 21/c'
_symmetry_Int_Tables_number      14
_space_group_name_Hall           '-P 2ybc'
loop_
_symmetry_equiv_pos_site_id
_symmetry_equiv_pos_as_xyz
1 x,y,z
2 x,1/2-y,1/2+z
3 -x,-y,-z
4 -x,1/2+y,1/2-z
_cell_length_a                   10.538(2)
_cell_length_b                   16.214(3)
_cell_length_c                   7.1988(14)
_cell_angle_alpha                90
_cell_angle_beta                 95.85(3)
_cell_angle_gamma                90
_cell_volume                     1223.6
_exptl_crystal_colour            colorless
_exptl_crystal_description       block
_cell_formula_units_Z            4
loop_
_atom_site_label
_atom_site_type_symbol
_atom_site_fract_x
_atom_site_fract_y
_atom_site_fract_z
O1 O 0.08998(12) 0.85856(8) 0.2432(2)
O2 O 0.21430(13) 0.96730(9) 0.2963(3)
O3 O 0.54437(13) 0.75146(9) 0.4039(3)
C4 C 0.19804(17) 0.89259(11) 0.2881(3)
C5 C 0.31025(17) 0.83492(12) 0.3312(3)
H8 H 0.291 0.7969 0.4286
H9 H 0.3216 0.8027 0.2206
C6 C 0.43350(17) 0.87891(12) 0.3933(3)
H10 H 0.452 0.9168 0.2954
H11 H 0.4211 0.9115 0.503
C7 C 0.54735(17) 0.82440(11) 0.4384(3)
C8 C 0.66599(19) 0.86456(13) 0.5261(3)
H12 H 0.7318 0.8238 0.5496
H13 H 0.6493 0.8898 0.6418
H14 H 0.6932 0.9059 0.4435
N1 N 0.21102(14) 0.58793(10) 0.3006(2)
N2 N 0.10962(14) 0.46023(10) 0.3375(2)
H1 H 0.044(2) 0.4266(14) 0.312(3)
N3 N 0.32997(14) 0.46890(9) 0.4192(2)
N4 N -0.00394(15) 0.57231(10) 0.2184(3)
H2 H -0.0096 0.6232 0.1847
H3 H -0.0708 0.5416 0.2088
N5 N 0.22286(15) 0.34767(10) 0.4542(3)
H4 H 0.2933 0.3242 0.4955
H5 H 0.1529 0.32 0.4449
N6 N 0.42457(15) 0.59376(11) 0.3864(3)
H6 H 0.4226 0.6449 0.3549
H7 H 0.4955 0.5713 0.4295
C1 C 0.10664(16) 0.54157(11) 0.2846(3)
C2 C 0.22207(16) 0.42632(11) 0.4048(3)
C3 C 0.31790(16) 0.54923(12) 0.3685(3)
O4 O -0.00947(14) 0.73341(10) 0.0286(3)
H15 H 0.044(3) 0.7687(18) 0.081(4)
H16 H 0.025(3) 0.7124(19) -0.062(5)
loop_
_geom_bond_atom_site_label_1
_geom_bond_atom_site_label_2
_geom_bond_site_symmetry_1
_geom_bond_site_symmetry_2
O1 C4 1_555 1_555
O2 C4 1_555 1_555
O3 C7 1_555 1_555
N1 C1 1_555 1_555
N2 H1 1_555 1_555
N3 C2 1_555 1_555
N4 H2 1_555 1_555
H3 N4 1_555 1_555
N5 H4 1_555 1_555
H5 N5 1_555 1_555
N6 H6 1_555 1_555
H7 N6 1_555 1_555
C1 N2 1_555 1_555
C2 N2 1_555 1_555
C3 N1 1_555 1_555
C4 C5 1_555 1_555
C5 H8 1_555 1_555
H9 C5 1_555 1_555
C6 C5 1_555 1_555
H10 C6 1_555 1_555
H11 C6 1_555 1_555
C7 C6 1_555 1_555
C8 C7 1_555 1_555
H12 C8 1_555 1_555
H13 C8 1_555 1_555
H14 C8 1_555 1_555
O4 H15 1_555 1_555
H16 O4 1_555 1_555
N3 C3 1_555 1_555
N4 C1 1_555 1_555
N5 C2 1_555 1_555
N6 C3 1_555 1_555

#END
