
#######################################################################
#
#                 Cambridge Crystallographic Data Centre
#                                CCDC 
#
#######################################################################
#
# If this CIF has been generated from an entry in the Cambridge 
# Structural Database, then it will include bibliographic, chemical, 
# crystal, experimental, refinement or atomic coordinate data resulting 
# from the CCDC's data processing and validation procedures.
#
#######################################################################

data_ISUVIC
_chemical_formula_moiety         'C17 H14 O2'
_chemical_name_systematic        3-Benzyl-4-phenylfuran-2(5H)-one
_symmetry_cell_setting           triclinic
_symmetry_space_group_name_H-M   'P -1'
_symmetry_Int_Tables_number      2
_space_group_name_Hall           '-P 1'
loop_
_symmetry_equiv_pos_site_id
_symmetry_equiv_pos_as_xyz
1 x,y,z
2 -x,-y,-z
_cell_length_a                   10.1195(13)
_cell_length_b                   10.3075(14)
_cell_length_c                   14.4914(19)
_cell_angle_alpha                98.536(3)
_cell_angle_beta                 107.730(2)
_cell_angle_gamma                110.860(2)
_cell_volume                     1288.14
_exptl_crystal_colour            colorless
_exptl_crystal_description       prismatic
_cell_formula_units_Z            4
loop_
_atom_site_label
_atom_site_type_symbol
_atom_site_fract_x
_atom_site_fract_y
_atom_site_fract_z
O1 O 1.07205(14) 0.25722(14) 0.09965(9)
O2 O 0.94046(13) 0.08027(13) 0.15159(9)
C1 C 0.9600(2) 0.19676(19) 0.11623(12)
C2 C 0.7976(2) 0.03388(19) 0.16458(14)
H1 H 0.8141 0.0382 0.2347
H2 H 0.7293 -0.0649 0.1228
C3 C 0.73123(18) 0.13604(17) 0.13281(12)
C4 C 0.82807(18) 0.23078(17) 0.10378(11)
C5 C 0.82094(19) 0.34981(17) 0.05845(12)
H3 H 0.7139 0.3274 0.0224
H4 H 0.8674 0.3504 0.0089
C6 C 0.89735(17) 0.50066(17) 0.13071(12)
C7 C 0.9656(2) 0.5293(2) 0.23380(13)
H5 H 0.9649 0.4536 0.2618
C8 C 1.0354(2) 0.6708(2) 0.29629(16)
H6 H 1.0804 0.6896 0.3660
C9 C 1.0380(3) 0.7820(2) 0.2553(2)
H7 H 1.0855 0.8768 0.2971
C10 C 0.9709(2) 0.7543(2) 0.15300(19)
H8 H 0.9716 0.8301 0.1251
C11 C 0.9027(2) 0.61510(19) 0.09160(14)
H9 H 0.8589 0.5975 0.0219
C12 C 0.58165(17) 0.11806(17) 0.13379(11)
C13 C 0.48654(19) -0.00943(18) 0.14447(13)
H10 H 0.5198 -0.0819 0.1524
C14 C 0.3441(2) -0.0304(2) 0.14352(14)
H11 H 0.2820 -0.1167 0.1505
C15 C 0.2932(2) 0.0747(2) 0.13235(14)
H12 H 0.1958 0.0593 0.1301
C16 C 0.3867(2) 0.2028(2) 0.12456(15)
H13 H 0.3530 0.2751 0.1176
C17 C 0.5307(2) 0.2254(2) 0.12692(14)
H14 H 0.5944 0.3143 0.1239
O3 O 0.01430(15) 0.14581(15) 0.43353(10)
O4 O 0.12783(13) 0.30062(13) 0.35949(9)
C18 C 0.1240(2) 0.20433(19) 0.41396(13)
C19 C 0.2709(2) 0.3503(2) 0.34756(13)
H15 H 0.3281 0.4544 0.3777
H16 H 0.2545 0.3276 0.2764
C20 C 0.35536(18) 0.27266(17) 0.40048(11)
C21 C 0.26831(18) 0.18879(17) 0.44071(12)
C22 C 0.29750(19) 0.09960(17) 0.51047(13)
H17 H 0.3590 0.0539 0.4932
H18 H 0.2008 0.0238 0.5024
C23 C 0.38026(19) 0.19344(17) 0.61919(13)
C24 C 0.5380(2) 0.2547(2) 0.66607(15)
H19 H 0.5951 0.2335 0.6316
C25 C 0.6121(2) 0.3467(2) 0.76301(17)
H20 H 0.7186 0.3876 0.7936
C26 C 0.5286(3) 0.3779(2) 0.81450(16)
H21 H 0.5785 0.4408 0.8798
C27 C 0.3717(3) 0.3166(2) 0.76975(16)
H22 H 0.3150 0.3372 0.8048
C28 C 0.2982(2) 0.2243(2) 0.67289(14)
H23 H 0.1916 0.1821 0.6431
C29 C 0.50905(18) 0.29837(17) 0.40319(11)
C30 C 0.6070(2) 0.43275(18) 0.40308(13)
H24 H 0.5742 0.5062 0.4005
C31 C 0.7515(2) 0.4590(2) 0.40669(14)
H25 H 0.8167 0.5507 0.4088
C32 C 0.8006(2) 0.3514(2) 0.40727(13)
H26 H 0.8986 0.3695 0.4096
C33 C 0.7044(2) 0.2169(2) 0.40438(13)
H27 H 0.7368 0.1430 0.4041
C34 C 0.5602(2) 0.19022(19) 0.40191(13)
H28 H 0.4956 0.0979 0.3993
loop_
_geom_bond_atom_site_label_1
_geom_bond_atom_site_label_2
_geom_bond_site_symmetry_1
_geom_bond_site_symmetry_2
O1 C1 1_555 1_555
O2 C1 1_555 1_555
O3 C18 1_555 1_555
O4 C18 1_555 1_555
C1 C4 1_555 1_555
C2 O2 1_555 1_555
H1 C2 1_555 1_555
H2 C2 1_555 1_555
C3 C2 1_555 1_555
C4 C3 1_555 1_555
C5 C4 1_555 1_555
H3 C5 1_555 1_555
H4 C5 1_555 1_555
C6 C5 1_555 1_555
C7 C6 1_555 1_555
H5 C7 1_555 1_555
C8 C7 1_555 1_555
H6 C8 1_555 1_555
C9 C8 1_555 1_555
H7 C9 1_555 1_555
C10 C9 1_555 1_555
H8 C10 1_555 1_555
C11 C6 1_555 1_555
H9 C11 1_555 1_555
C12 C3 1_555 1_555
C13 C12 1_555 1_555
H10 C13 1_555 1_555
C14 C13 1_555 1_555
H11 C14 1_555 1_555
C15 C14 1_555 1_555
H12 C15 1_555 1_555
C16 C15 1_555 1_555
H13 C16 1_555 1_555
C17 C12 1_555 1_555
H14 C17 1_555 1_555
C18 C21 1_555 1_555
C19 O4 1_555 1_555
H15 C19 1_555 1_555
H16 C19 1_555 1_555
C20 C19 1_555 1_555
C21 C20 1_555 1_555
C22 C21 1_555 1_555
H17 C22 1_555 1_555
H18 C22 1_555 1_555
C23 C22 1_555 1_555
C24 C23 1_555 1_555
H19 C24 1_555 1_555
C25 C24 1_555 1_555
H20 C25 1_555 1_555
C26 C25 1_555 1_555
H21 C26 1_555 1_555
C27 C26 1_555 1_555
H22 C27 1_555 1_555
C28 C23 1_555 1_555
H23 C28 1_555 1_555
C29 C20 1_555 1_555
C30 C29 1_555 1_555
H24 C30 1_555 1_555
C31 C30 1_555 1_555
H25 C31 1_555 1_555
C32 C31 1_555 1_555
H26 C32 1_555 1_555
C33 C32 1_555 1_555
H27 C33 1_555 1_555
C34 C29 1_555 1_555
H28 C34 1_555 1_555
C10 C11 1_555 1_555
C16 C17 1_555 1_555
C27 C28 1_555 1_555
C33 C34 1_555 1_555

#END
