
#######################################################################
#
#                 Cambridge Crystallographic Data Centre
#                                CCDC 
#
#######################################################################
#
# If this CIF has been generated from an entry in the Cambridge 
# Structural Database, then it will include bibliographic, chemical, 
# crystal, experimental, refinement or atomic coordinate data resulting 
# from the CCDC's data processing and validation procedures.
#
#######################################################################

data_ISUVUO
_chemical_formula_moiety         'C19 H14 F3 I1 N2'
_chemical_name_systematic        
1-(Iodo(4-(trifluoromethyl)phenyl)methylene)-1,2,3,4-tetrahydropyrido[1,2-a]benzimidazole
_symmetry_cell_setting           monoclinic
_symmetry_space_group_name_H-M   'P 21/c'
_symmetry_Int_Tables_number      14
_space_group_name_Hall           '-P 2ybc'
loop_
_symmetry_equiv_pos_site_id
_symmetry_equiv_pos_as_xyz
1 x,y,z
2 -x,1/2+y,1/2-z
3 -x,-y,-z
4 x,1/2-y,1/2+z
_cell_length_a                   6.6252(7)
_cell_length_b                   22.610(3)
_cell_length_c                   11.7555(13)
_cell_angle_alpha                90
_cell_angle_beta                 96.830(2)
_cell_angle_gamma                90
_cell_volume                     1748.43
_exptl_crystal_colour            yellow
_exptl_crystal_description       prismatic
_cell_formula_units_Z            4
loop_
_atom_site_label
_atom_site_type_symbol
_atom_site_fract_x
_atom_site_fract_y
_atom_site_fract_z
I1 I 0.30222(3) 0.765192(10) 0.857180(19)
N1 N 1.0052(5) 0.77622(14) 0.5133(3)
N2 N 0.7203(4) 0.78026(13) 0.5980(3)
F1 F 0.9823(5) 1.03957(13) 0.8757(3)
F2 F 0.7192(5) 1.07239(12) 0.7773(3)
F3 F 0.7149(6) 1.05484(14) 0.9517(3)
C1 C 0.9110(6) 0.83026(17) 0.4892(3)
C2 C 0.9707(7) 0.8769(2) 0.4246(4)
H1 H 1.0927 0.8758 0.3929
C3 C 0.8431(8) 0.9247(2) 0.4093(4)
H2 H 0.8819 0.9572 0.3684
C4 C 0.6574(7) 0.9260(2) 0.4531(4)
H3 H 0.5720 0.9584 0.4377
C5 C 0.5966(6) 0.88001(17) 0.5192(3)
H4 H 0.4725 0.8808 0.5488
C6 C 0.7288(5) 0.83296(16) 0.5390(3)
C7 C 0.8894(6) 0.74752(17) 0.5755(3)
C8 C 0.9074(5) 0.68617(16) 0.6187(4)
H5 H 0.9649 0.6860 0.6986
H6 H 0.9962 0.6635 0.5752
C9 C 0.6955(5) 0.65874(17) 0.6061(4)
H7 H 0.6418 0.6577 0.5257
H8 H 0.7044 0.6184 0.6342
C10 C 0.5514(6) 0.69370(16) 0.6723(3)
H9 H 0.4132 0.6864 0.6380
H10 H 0.5634 0.6789 0.7503
C11 C 0.5870(5) 0.75961(15) 0.6763(3)
C12 C 0.5135(5) 0.79682(16) 0.7501(3)
C13 C 0.5798(5) 0.85824(15) 0.7756(3)
C14 C 0.4431(5) 0.90446(16) 0.7788(3)
H11 H 0.3046 0.8970 0.7629
C15 C 0.5077(6) 0.96076(17) 0.8047(4)
H12 H 0.4137 0.9913 0.8050
C16 C 0.7132(6) 0.97246(16) 0.8305(3)
C17 C 0.8509(6) 0.92704(17) 0.8285(3)
H13 H 0.9892 0.9346 0.8453
C18 C 0.7852(5) 0.87059(16) 0.8020(3)
H14 H 0.8797 0.8402 0.8017
C19 C 0.7817(7) 1.0337(2) 0.8585(4)
loop_
_geom_bond_atom_site_label_1
_geom_bond_atom_site_label_2
_geom_bond_site_symmetry_1
_geom_bond_site_symmetry_2
I1 C12 1_555 1_555
N1 C1 1_555 1_555
N2 C6 1_555 1_555
F1 C19 1_555 1_555
F2 C19 1_555 1_555
F3 C19 1_555 1_555
C1 C2 1_555 1_555
C2 H1 1_555 1_555
C3 C2 1_555 1_555
H2 C3 1_555 1_555
C4 C3 1_555 1_555
H3 C4 1_555 1_555
C5 C4 1_555 1_555
H4 C5 1_555 1_555
C6 C1 1_555 1_555
C7 N1 1_555 1_555
C8 C7 1_555 1_555
H5 C8 1_555 1_555
H6 C8 1_555 1_555
C9 C8 1_555 1_555
H7 C9 1_555 1_555
H8 C9 1_555 1_555
C10 C9 1_555 1_555
H9 C10 1_555 1_555
H10 C10 1_555 1_555
C11 N2 1_555 1_555
C12 C11 1_555 1_555
C13 C12 1_555 1_555
C14 C13 1_555 1_555
H11 C14 1_555 1_555
C15 C14 1_555 1_555
H12 C15 1_555 1_555
C16 C15 1_555 1_555
C17 C16 1_555 1_555
H13 C17 1_555 1_555
C18 C13 1_555 1_555
H14 C18 1_555 1_555
C19 C16 1_555 1_555
N2 C7 1_555 1_555
C5 C6 1_555 1_555
C10 C11 1_555 1_555
C17 C18 1_555 1_555

#END
