
#######################################################################
#
#                 Cambridge Crystallographic Data Centre
#                                CCDC 
#
#######################################################################
#
# If this CIF has been generated from an entry in the Cambridge 
# Structural Database, then it will include bibliographic, chemical, 
# crystal, experimental, refinement or atomic coordinate data resulting 
# from the CCDC's data processing and validation procedures.
#
#######################################################################

data_ISUVEX
_chemical_compound_source        'rhizome of Astilbe chinensis'
_chemical_formula_moiety         'C30 H48 O4'
_chemical_name_systematic        '3\b,6\b-Dihydroxyolean-12-en-27-oic acid'
_chemical_properties_biological  
'cytotoxic activity against human ovarian carcinoma cell (HO-8910), human cervical squamous carcinoma cell (Hela), human leukemia cell (HL60), human colorectal carcinoma cell (COLO205), human androgen-independent prostate adenocarcinoma (PC$3!), human breast cancer (Bcap37) and human chronic myelogenous leukemia (K562) in vitro. Induces apoptosis of COLO205'
_symmetry_cell_setting           orthorhombic
_symmetry_space_group_name_H-M   'P 21 21 21'
_symmetry_Int_Tables_number      19
_space_group_name_Hall           'P 2ac 2ab'
loop_
_symmetry_equiv_pos_site_id
_symmetry_equiv_pos_as_xyz
1 x,y,z
2 1/2-x,-y,1/2+z
3 -x,1/2+y,1/2-z
4 1/2+x,1/2-y,-z
_cell_length_a                   12.016(2)
_cell_length_b                   14.141(2)
_cell_length_c                   15.406(2)
_cell_angle_alpha                90
_cell_angle_beta                 90
_cell_angle_gamma                90
_cell_volume                     2617.76
_exptl_crystal_colour            colorless
_exptl_crystal_description       prism
_chemical_melting_point          '512-514 K'
_cell_formula_units_Z            4
_exptl_crystal_recrystallization_method methanol
loop_
_atom_site_label
_atom_site_type_symbol
_atom_site_fract_x
_atom_site_fract_y
_atom_site_fract_z
O1 O 0.41431(16) 0.56850(12) 0.80579(11)
O2 O 0.59346(14) 0.25242(11) 0.63496(11)
O3 O 0.32604(13) 0.41372(12) 0.35577(11)
O4 O 0.31939(14) 0.25658(13) 0.34323(13)
C1 C 0.53468(19) 0.56935(15) 0.58009(14)
H1 H 0.5920 0.6095 0.5554
H2 H 0.4666 0.5808 0.5480
C2 C 0.5163(2) 0.59848(16) 0.67434(15)
H3 H 0.5866 0.5963 0.7052
H4 H 0.4890 0.6630 0.6763
C3 C 0.4335(2) 0.53390(15) 0.71851(14)
H5 H 0.3631 0.5381 0.6867
C4 C 0.47061(18) 0.42926(15) 0.71842(14)
C5 C 0.48714(17) 0.40284(14) 0.62007(14)
H6 H 0.4150 0.4199 0.5948
C6 C 0.49456(19) 0.29644(14) 0.60042(14)
H7 H 0.4313 0.2668 0.6300
C7 C 0.47814(19) 0.27848(14) 0.50355(14)
H8 H 0.4008 0.2910 0.4897
H9 H 0.4913 0.2118 0.4927
C8 C 0.55112(17) 0.33587(14) 0.44020(14)
C9 C 0.54956(18) 0.44216(14) 0.46777(13)
H10 H 0.4736 0.4637 0.4558
C10 C 0.56922(17) 0.46450(14) 0.56680(14)
C11 C 0.6234(2) 0.50020(16) 0.40749(14)
H11 H 0.6097 0.5669 0.4175
H12 H 0.7008 0.4876 0.4211
C12 C 0.60304(18) 0.47827(15) 0.31432(14)
H13 H 0.6321 0.5204 0.2738
C13 C 0.54763(17) 0.40468(15) 0.28359(14)
C14 C 0.50139(18) 0.32693(14) 0.34306(14)
C15 C 0.5305(2) 0.22913(15) 0.30318(15)
H14 H 0.6088 0.2165 0.3134
H15 H 0.4882 0.1809 0.3334
C16 C 0.5075(2) 0.22026(15) 0.20549(15)
H16 H 0.5317 0.1585 0.1857
H17 H 0.4280 0.2250 0.1955
C17 C 0.56720(19) 0.29681(16) 0.15263(15)
C18 C 0.53032(18) 0.39438(15) 0.18595(14)
H18 H 0.5799 0.4406 0.1585
C19 C 0.41134(19) 0.41996(17) 0.15634(15)
H19 H 0.3591 0.3762 0.1826
H20 H 0.3933 0.4830 0.1767
C20 C 0.3980(2) 0.41655(19) 0.05701(16)
C21 C 0.4278(2) 0.31673(19) 0.02688(16)
H21 H 0.3737 0.2726 0.0501
H22 H 0.4232 0.3141 -0.0359
C22 C 0.5428(2) 0.28644(19) 0.05488(16)
H23 H 0.5971 0.3235 0.0229
H24 H 0.5533 0.2207 0.0388
C23 C 0.3744(2) 0.37145(16) 0.75525(16)
H25 H 0.3974 0.3069 0.7624
H26 H 0.3124 0.3741 0.7160
H27 H 0.3527 0.3970 0.8105
C24 C 0.5715(2) 0.41357(18) 0.77786(15)
H28 H 0.5488 0.4196 0.8374
H29 H 0.6275 0.4599 0.7651
H30 H 0.6011 0.3514 0.7683
C25 C 0.69269(18) 0.45571(16) 0.59580(15)
H31 H 0.7054 0.4954 0.6454
H32 H 0.7405 0.4751 0.5492
H33 H 0.7084 0.3912 0.6108
C26 C 0.67168(19) 0.29729(16) 0.44107(16)
H34 H 0.7079 0.3163 0.4938
H35 H 0.7117 0.3222 0.3922
H36 H 0.6701 0.2295 0.4377
C27 C 0.37316(19) 0.33784(16) 0.34782(14)
C28 C 0.69407(19) 0.28671(19) 0.16289(17)
H37 H 0.7168 0.2252 0.1434
H38 H 0.7138 0.2944 0.2229
H39 H 0.7307 0.3343 0.1288
C29 C 0.2759(2) 0.4348(3) 0.03349(19)
H40 H 0.2670 0.4317 -0.0284
H41 H 0.2543 0.4963 0.0537
H42 H 0.2298 0.3877 0.0604
C30 C 0.4695(3) 0.49310(19) 0.01424(17)
H43 H 0.5468 0.4785 0.0226
H44 H 0.4531 0.5533 0.0401
H45 H 0.4534 0.4955 -0.0468
H46 H 0.3520(14) 0.552(2) 0.822(2)
H47 H 0.575(2) 0.1992(11) 0.6498(19)
H48 H 0.2520(10) 0.265(2) 0.347(2)
loop_
_geom_bond_atom_site_label_1
_geom_bond_atom_site_label_2
_geom_bond_site_symmetry_1
_geom_bond_site_symmetry_2
O1 C3 1_555 1_555
O2 C6 1_555 1_555
O3 C27 1_555 1_555
O4 C27 1_555 1_555
C1 H1 1_555 1_555
H2 C1 1_555 1_555
C2 C1 1_555 1_555
H3 C2 1_555 1_555
H4 C2 1_555 1_555
C3 C2 1_555 1_555
H5 C3 1_555 1_555
C4 C3 1_555 1_555
C5 C4 1_555 1_555
H6 C5 1_555 1_555
C6 C5 1_555 1_555
H7 C6 1_555 1_555
C7 C6 1_555 1_555
H8 C7 1_555 1_555
H9 C7 1_555 1_555
C8 C7 1_555 1_555
C9 C8 1_555 1_555
H10 C9 1_555 1_555
C10 C1 1_555 1_555
C11 C9 1_555 1_555
H11 C11 1_555 1_555
H12 C11 1_555 1_555
C12 C11 1_555 1_555
H13 C12 1_555 1_555
C13 C12 1_555 1_555
C14 C8 1_555 1_555
C15 C14 1_555 1_555
H14 C15 1_555 1_555
H15 C15 1_555 1_555
C16 C15 1_555 1_555
H16 C16 1_555 1_555
H17 C16 1_555 1_555
C17 C16 1_555 1_555
C18 C13 1_555 1_555
H18 C18 1_555 1_555
C19 C18 1_555 1_555
H19 C19 1_555 1_555
H20 C19 1_555 1_555
C20 C19 1_555 1_555
C21 C20 1_555 1_555
H21 C21 1_555 1_555
H22 C21 1_555 1_555
C22 C17 1_555 1_555
H23 C22 1_555 1_555
H24 C22 1_555 1_555
C23 C4 1_555 1_555
H25 C23 1_555 1_555
H26 C23 1_555 1_555
H27 C23 1_555 1_555
C24 C4 1_555 1_555
H28 C24 1_555 1_555
H29 C24 1_555 1_555
H30 C24 1_555 1_555
C25 C10 1_555 1_555
H31 C25 1_555 1_555
H32 C25 1_555 1_555
H33 C25 1_555 1_555
C26 C8 1_555 1_555
H34 C26 1_555 1_555
H35 C26 1_555 1_555
H36 C26 1_555 1_555
C27 C14 1_555 1_555
C28 C17 1_555 1_555
H37 C28 1_555 1_555
H38 C28 1_555 1_555
H39 C28 1_555 1_555
C29 C20 1_555 1_555
H40 C29 1_555 1_555
H41 C29 1_555 1_555
H42 C29 1_555 1_555
C30 C20 1_555 1_555
H43 C30 1_555 1_555
H44 C30 1_555 1_555
H45 C30 1_555 1_555
H46 O1 1_555 1_555
H47 O2 1_555 1_555
H48 O4 1_555 1_555
C5 C10 1_555 1_555
C9 C10 1_555 1_555
C13 C14 1_555 1_555
C17 C18 1_555 1_555
C21 C22 1_555 1_555

#END
