
#######################################################################
#
#                 Cambridge Crystallographic Data Centre
#                                CCDC 
#
#######################################################################
#
# If this CIF has been generated from an entry in the Cambridge 
# Structural Database, then it will include bibliographic, chemical, 
# crystal, experimental, refinement or atomic coordinate data resulting 
# from the CCDC's data processing and validation procedures.
#
#######################################################################

data_ISUXUR
_chemical_formula_moiety         'C22 H24 F3 N1 O3 S1'
_chemical_name_systematic        
8-(t-butylperoxy)-1,8-dimethyl-4-phenyl-3-((trifluoromethyl)sulfanyl)-1-azaspiro[4.5]deca-3,6,9-trien-2-one
_symmetry_cell_setting           monoclinic
_symmetry_space_group_name_H-M   'P 21/n'
_symmetry_Int_Tables_number      14
_space_group_name_Hall           '-P 2yn'
loop_
_symmetry_equiv_pos_site_id
_symmetry_equiv_pos_as_xyz
1 x,y,z
2 1/2-x,1/2+y,1/2-z
3 -x,-y,-z
4 1/2+x,1/2-y,1/2+z
_cell_length_a                   12.2909(8)
_cell_length_b                   12.7985(11)
_cell_length_c                   14.5821(9)
_cell_angle_alpha                90
_cell_angle_beta                 101.076(6)
_cell_angle_gamma                90
_cell_volume                     2251.11
_exptl_crystal_colour            'light yellow'
_exptl_crystal_description       block
_cell_formula_units_Z            4
loop_
_atom_site_label
_atom_site_type_symbol
_atom_site_fract_x
_atom_site_fract_y
_atom_site_fract_z
S1 S 0.35166(7) 0.40966(8) 1.08082(5)
F1 F 0.3970(5) 0.2110(3) 1.0833(4)
F2 F 0.3052(4) 0.2619(3) 1.1830(2)
F3 F 0.2387(5) 0.2386(4) 1.0436(3)
O1 O 0.5589(2) 0.3468(3) 0.98513(18)
N1 N 0.4496(2) 0.3750(2) 0.84093(19)
O2 O 0.21131(19) 0.4841(2) 0.52173(15)
O3 O 0.32337(19) 0.4471(2) 0.51553(15)
C1 C 0.4706(3) 0.3696(3) 0.9349(2)
C2 C 0.3653(2) 0.4006(3) 0.9638(2)
C3 C 0.2893(2) 0.4272(2) 0.8899(2)
C4 C 0.3384(2) 0.4153(3) 0.8018(2)
C5 C 0.2733(3) 0.3393(3) 0.7342(2)
H1 H 0.2746 0.2691 0.7507
C6 C 0.2142(3) 0.3676(3) 0.6524(2)
H2 H 0.1768 0.3160 0.6138
C7 C 0.2046(3) 0.4787(3) 0.6188(2)
C8 C 0.2901(3) 0.5470(3) 0.6758(2)
H3 H 0.3034 0.6120 0.6516
C9 C 0.3479(2) 0.5210(3) 0.7584(2)
H4 H 0.3966 0.5697 0.7911
C10 C 0.0882(3) 0.5217(4) 0.6190(3)
H5 H 0.0846 0.5935 0.5995
H6 H 0.0726 0.5170 0.6809
H7 H 0.0345 0.4817 0.5767
C11 C 0.5306(3) 0.3537(4) 0.7825(3)
H8 H 0.6035 0.3707 0.8161
H9 H 0.5140 0.3952 0.7267
H10 H 0.5279 0.2810 0.7660
C12 C 0.1764(2) 0.4688(3) 0.8858(2)
C13 C 0.1620(3) 0.5728(3) 0.9043(3)
H11 H 0.2233 0.6162 0.9206
C14 C 0.0567(4) 0.6126(5) 0.8986(3)
H12 H 0.0472 0.6830 0.9108
C15 C -0.0338(4) 0.5492(6) 0.8752(3)
H13 H -0.1045 0.5766 0.8719
C16 C -0.0212(3) 0.4454(6) 0.8566(4)
H14 H -0.0832 0.4027 0.8403
C17 C 0.0840(3) 0.4041(4) 0.8620(3)
H15 H 0.0930 0.3337 0.8499
C18 C 0.3178(3) 0.4096(3) 0.4217(2)
C19 C 0.2430(4) 0.3155(4) 0.4036(4)
H16 H 0.2555 0.2711 0.4577
H17 H 0.2587 0.2776 0.3509
H18 H 0.1670 0.3379 0.3908
C20 C 0.2807(5) 0.4964(5) 0.3530(3)
H19 H 0.2050 0.5138 0.3538
H20 H 0.2870 0.4739 0.2914
H21 H 0.3267 0.5567 0.3700
C21 C 0.4378(4) 0.3795(5) 0.4225(3)
H22 H 0.4822 0.4415 0.4252
H23 H 0.4420 0.3413 0.3666
H24 H 0.4647 0.3366 0.4760
C22 C 0.3320(5) 0.2768(4) 1.1031(3)
loop_
_geom_bond_atom_site_label_1
_geom_bond_atom_site_label_2
_geom_bond_site_symmetry_1
_geom_bond_site_symmetry_2
S1 C2 1_555 1_555
F1 C22 1_555 1_555
F2 C22 1_555 1_555
F3 C22 1_555 1_555
O1 C1 1_555 1_555
N1 C1 1_555 1_555
O2 O3 1_555 1_555
O3 C18 1_555 1_555
C1 C2 1_555 1_555
C2 C3 1_555 1_555
C3 C4 1_555 1_555
C4 N1 1_555 1_555
C5 C4 1_555 1_555
H1 C5 1_555 1_555
C6 C5 1_555 1_555
H2 C6 1_555 1_555
C7 O2 1_555 1_555
C8 C7 1_555 1_555
H3 C8 1_555 1_555
C9 C4 1_555 1_555
H4 C9 1_555 1_555
C10 C7 1_555 1_555
H5 C10 1_555 1_555
H6 C10 1_555 1_555
H7 C10 1_555 1_555
C11 N1 1_555 1_555
H8 C11 1_555 1_555
H9 C11 1_555 1_555
H10 C11 1_555 1_555
C12 C3 1_555 1_555
C13 C12 1_555 1_555
H11 C13 1_555 1_555
C14 C13 1_555 1_555
H12 C14 1_555 1_555
C15 C14 1_555 1_555
H13 C15 1_555 1_555
C16 C15 1_555 1_555
H14 C16 1_555 1_555
C17 C12 1_555 1_555
H15 C17 1_555 1_555
C18 C19 1_555 1_555
C19 H16 1_555 1_555
H17 C19 1_555 1_555
H18 C19 1_555 1_555
C20 C18 1_555 1_555
H19 C20 1_555 1_555
H20 C20 1_555 1_555
H21 C20 1_555 1_555
C21 C18 1_555 1_555
H22 C21 1_555 1_555
H23 C21 1_555 1_555
H24 C21 1_555 1_555
C22 S1 1_555 1_555
C6 C7 1_555 1_555
C8 C9 1_555 1_555
C16 C17 1_555 1_555

#END
