
#######################################################################
#
#                 Cambridge Crystallographic Data Centre
#                                CCDC 
#
#######################################################################
#
# If this CIF has been generated from an entry in the Cambridge 
# Structural Database, then it will include bibliographic, chemical, 
# crystal, experimental, refinement or atomic coordinate data resulting 
# from the CCDC's data processing and validation procedures.
#
#######################################################################

data_ISUXEB
_chemical_formula_moiety         'C19 H29 B1 N2 O1'
_chemical_name_systematic        
N,N-di-isopropyl-1-(4-methoxyphenyl)-3,5-bis(methylene)-1,4-azaborinan-4-amine
_symmetry_cell_setting           monoclinic
_symmetry_space_group_name_H-M   'P 21/n'
_symmetry_Int_Tables_number      14
_space_group_name_Hall           '-P 2yn'
loop_
_symmetry_equiv_pos_site_id
_symmetry_equiv_pos_as_xyz
1 x,y,z
2 1/2-x,1/2+y,1/2-z
3 -x,-y,-z
4 1/2+x,1/2-y,1/2+z
_cell_length_a                   8.9658(13)
_cell_length_b                   9.7281(14)
_cell_length_c                   21.597(3)
_cell_angle_alpha                90
_cell_angle_beta                 92.191(4)
_cell_angle_gamma                90
_cell_volume                     1882.32
_exptl_crystal_colour            colorless
_exptl_crystal_description       plate
_cell_formula_units_Z            4
loop_
_atom_site_label
_atom_site_type_symbol
_atom_site_fract_x
_atom_site_fract_y
_atom_site_fract_z
O1 O 0.03229(13) 0.82302(13) 0.29089(5)
C1 C 0.0657(2) 0.9466(2) 0.32282(9)
H1 H 0.1736 0.9527 0.3314
H2 H 0.0139 0.9479 0.3620
H3 H 0.0328 1.0250 0.2973
C2 C 0.09657(18) 0.80413(18) 0.23440(7)
C3 C 0.05118(19) 0.68907(18) 0.20157(8)
H4 H -0.0196 0.6287 0.2187
C4 C 0.10661(18) 0.66005(18) 0.14443(8)
H5 H 0.0737 0.5797 0.1230
C5 C 0.21005(18) 0.74621(17) 0.11744(7)
C6 C 0.25557(18) 0.86068(17) 0.15152(8)
H6 H 0.3271 0.9210 0.1349
C7 C 0.20005(19) 0.88997(18) 0.20914(8)
H7 H 0.2335 0.9694 0.2312
N1 N 0.2494(4) 0.7159(4) 0.05647(19)
C8 C 0.1850(3) 0.5960(2) 0.02444(10)
H8 H 0.0752 0.5966 0.0281
H9 H 0.2244 0.5110 0.0442
C9 C 0.2224(6) 0.5968(5) -0.0440(2)
C10 C 0.4231(3) 0.7734(3) -0.02437(12)
C11 C 0.4092(3) 0.7341(3) 0.04338(10)
H10 H 0.4641 0.6475 0.0522
H11 H 0.4531 0.8070 0.0703
C12 C 0.2275(7) 0.4774(7) -0.0736(3)
H12 H 0.2080 0.3943 -0.0522
H13 H 0.2505 0.4751 -0.1161
C13 C 0.5535(3) 0.8082(3) -0.04656(15)
H14 H 0.6406 0.8090 -0.0201
H15 H 0.5600 0.8325 -0.0890
B1 B 0.2733(10) 0.7447(8) -0.0628(4)
N2 N 0.2045(3) 0.8381(3) -0.10371(11)
C14 C 0.0663(3) 0.8113(3) -0.14203(10)
H16 H 0.0371 0.9008 -0.1618
C15 C -0.0643(4) 0.7681(4) -0.10236(17)
H17 H -0.0785 0.8370 -0.0700
H18 H -0.0423 0.6788 -0.0831
H19 H -0.1556 0.7610 -0.1286
C16 C 0.0921(4) 0.7106(4) -0.19478(14)
H20 H 0.1762 0.7423 -0.2187
H21 H 0.0021 0.7054 -0.2219
H22 H 0.1147 0.6194 -0.1776
C17 C 0.2564(3) 0.9827(2) -0.10700(10)
H23 H 0.3481 0.9890 -0.0793
C18 C 0.3019(5) 1.0246(5) -0.16998(17)
H24 H 0.3763 0.9598 -0.1847
H25 H 0.3449 1.1172 -0.1680
H26 H 0.2143 1.0244 -0.1986
C19 C 0.1419(7) 1.0779(6) -0.0795(3)
H27 H 0.1168 1.0444 -0.0384
H28 H 0.0516 1.0798 -0.1065
H29 H 0.1834 1.1709 -0.0758
N3? N 0.2772(10) 0.7389(9) 0.0568(5)
C20? C 0.2992(7) 0.6033(5) 0.0324(2)
H30? H 0.2361 0.5369 0.0543
H31? H 0.4048 0.5759 0.0394
C21? C 0.2586(12) 0.5999(11) -0.0371(4)
C22? C 0.4048(7) 0.8243(7) -0.0329(3)
C23? C 0.3858(6) 0.8413(6) 0.0364(2)
H32? H 0.4828 0.8278 0.0590
H33? H 0.3497 0.9352 0.0453
C24? C 0.2515(19) 0.4803(17) -0.0655(8)
H34? H 0.2714 0.3981 -0.0430
H35? H 0.2264 0.4762 -0.1086
C25? C 0.5347(9) 0.8549(8) -0.0569(4)
H36? H 0.6151 0.8872 -0.0308
H37? H 0.5475 0.8445 -0.1001
B2? B 0.2713(17) 0.7484(14) -0.0675(9)
N4? N 0.1624(7) 0.8059(6) -0.1083(3)
C26? C 0.0357(6) 0.7215(6) -0.1324(2)
H38? H 0.0494 0.6263 -0.1157
C27? C -0.1114(9) 0.7753(13) -0.1105(5)
H39? H -0.1087 0.7780 -0.0651
H40? H -0.1924 0.7146 -0.1253
H41? H -0.1286 0.8682 -0.1269
C28? C 0.0319(10) 0.7124(12) -0.2023(4)
H42? H 0.1287 0.6798 -0.2160
H43? H 0.0111 0.8035 -0.2200
H44? H -0.0465 0.6481 -0.2163
C29? C 0.1580(7) 0.9509(5) -0.1285(2)
H45? H 0.0592 0.9641 -0.1508
C30? C 0.2783(12) 0.9846(11) -0.1762(5)
H46? H 0.2701 0.9193 -0.2107
H47? H 0.3778 0.9775 -0.1560
H48? H 0.2630 1.0782 -0.1919
C31? C 0.163(2) 1.0540(14) -0.0757(7)
H49? H 0.0858 1.0314 -0.0465
H50? H 0.1455 1.1467 -0.0922
H51? H 0.2614 1.0506 -0.0542
loop_
_geom_bond_atom_site_label_1
_geom_bond_atom_site_label_2
_geom_bond_site_symmetry_1
_geom_bond_site_symmetry_2
O1 C1 1_555 1_555
C1 H1 1_555 1_555
H2 C1 1_555 1_555
H3 C1 1_555 1_555
C2 O1 1_555 1_555
C3 C2 1_555 1_555
H4 C3 1_555 1_555
C4 C3 1_555 1_555
H5 C4 1_555 1_555
C5 C4 1_555 1_555
C6 C5 1_555 1_555
H6 C6 1_555 1_555
C7 C2 1_555 1_555
H7 C7 1_555 1_555
N1 C5 1_555 1_555
C8 N1 1_555 1_555
H8 C8 1_555 1_555
H9 C8 1_555 1_555
C9 C8 1_555 1_555
C10 C11 1_555 1_555
C11 N1 1_555 1_555
H10 C11 1_555 1_555
H11 C11 1_555 1_555
C12 C9 1_555 1_555
H12 C12 1_555 1_555
H13 C12 1_555 1_555
C13 C10 1_555 1_555
H14 C13 1_555 1_555
H15 C13 1_555 1_555
B1 C9 1_555 1_555
N2 B1 1_555 1_555
C14 N2 1_555 1_555
H16 C14 1_555 1_555
C15 C14 1_555 1_555
H17 C15 1_555 1_555
H18 C15 1_555 1_555
H19 C15 1_555 1_555
C16 C14 1_555 1_555
H20 C16 1_555 1_555
H21 C16 1_555 1_555
H22 C16 1_555 1_555
C17 N2 1_555 1_555
H23 C17 1_555 1_555
C18 C17 1_555 1_555
H24 C18 1_555 1_555
H25 C18 1_555 1_555
H26 C18 1_555 1_555
C19 C17 1_555 1_555
H27 C19 1_555 1_555
H28 C19 1_555 1_555
H29 C19 1_555 1_555
C6 C7 1_555 1_555
C10 B1 1_555 1_555

#END
