
#######################################################################
#
#                 Cambridge Crystallographic Data Centre
#                                CCDC 
#
#######################################################################
#
# If this CIF has been generated from an entry in the Cambridge 
# Structural Database, then it will include bibliographic, chemical, 
# crystal, experimental, refinement or atomic coordinate data resulting 
# from the CCDC's data processing and validation procedures.
#
#######################################################################

data_ISUXAX
_chemical_formula_moiety         'C20 H19 B1 F3 N1 O1'
_chemical_name_systematic        
1-(4-methoxyphenyl)-3,5-dimethyl-4-(4-(trifluoromethyl)phenyl)-1,4-dihydro-1,4-azaborinine
_symmetry_cell_setting           monoclinic
_symmetry_space_group_name_H-M   'P 21/c'
_symmetry_Int_Tables_number      14
_space_group_name_Hall           '-P 2ybc'
loop_
_symmetry_equiv_pos_site_id
_symmetry_equiv_pos_as_xyz
1 x,y,z
2 -x,1/2+y,1/2-z
3 -x,-y,-z
4 x,1/2-y,1/2+z
_cell_length_a                   6.547(3)
_cell_length_b                   12.523(6)
_cell_length_c                   21.547(11)
_cell_angle_alpha                90
_cell_angle_beta                 90.213(7)
_cell_angle_gamma                90
_cell_volume                     1766.58
_exptl_crystal_colour            colorless
_exptl_crystal_description       block
_cell_formula_units_Z            4
loop_
_atom_site_label
_atom_site_type_symbol
_atom_site_fract_x
_atom_site_fract_y
_atom_site_fract_z
N1 N 0.5806(3) 0.09890(14) 0.87387(8)
O1 O 1.2207(3) 0.19129(13) 1.03976(7)
B1 B 0.2713(5) 0.0581(2) 0.78299(11)
C1 C 1.1979(4) 0.2731(2) 1.08507(11)
H1 H 1.1602 0.3401 1.0645
H2 H 1.3271 0.2826 1.1075
H3 H 1.0906 0.2528 1.1144
C2 C 1.0561(4) 0.17130(17) 1.00136(10)
C3 C 1.0888(4) 0.09848(18) 0.95346(11)
H4 H 1.2187 0.0656 0.9490
C4 C 0.9320(4) 0.07388(18) 0.91213(10)
H5 H 0.9552 0.0243 0.8795
C5 C 0.7404(4) 0.12174(17) 0.91842(10)
C6 C 0.5165(4) -0.00455(19) 0.86416(10)
H6 H 0.5772 -0.0600 0.8880
C7 C 0.3680(4) -0.03118(17) 0.82138(10)
C8 C 0.1103(4) 0.03481(17) 0.72878(10)
C9 C 0.1665(4) -0.02883(18) 0.67814(11)
H7 H 0.2975 -0.0614 0.6782
C10 C 0.0371(4) -0.04609(19) 0.62773(10)
H8 H 0.0806 -0.0888 0.5938
C11 C -0.1569(4) -0.00011(19) 0.62737(11)
C12 C -0.2195(4) 0.06143(18) 0.67741(11)
H9 H -0.3528 0.0914 0.6779
C13 C -0.0872(4) 0.07891(18) 0.72660(10)
H10 H -0.1313 0.1223 0.7601
C14 C 0.3405(4) 0.17129(18) 0.79874(10)
C15 C 0.4913(4) 0.18321(18) 0.84211(10)
H11 H 0.5378 0.2534 0.8511
C16 C 0.7073(4) 0.19235(18) 0.96663(10)
H12 H 0.5764 0.2239 0.9715
C17 C 0.8636(4) 0.21799(18) 1.00829(10)
H13 H 0.8393 0.2669 1.0411
C18 C 0.3022(4) -0.14743(18) 0.81793(11)
H14 H 0.3663 -0.1875 0.8519
H15 H 0.3446 -0.1778 0.7781
H16 H 0.1533 -0.1520 0.8216
C19 C -0.2954(4) -0.0183(2) 0.57267(11)
C20 C 0.2527(4) 0.27174(18) 0.76899(11)
H17 H 0.1096 0.2800 0.7813
H18 H 0.2609 0.2657 0.7237
H19 H 0.3310 0.3341 0.7828
F1 F -0.1979(6) -0.0049(4) 0.51825(12)
F2 F -0.3836(9) -0.1105(3) 0.5720(2)
F3 F -0.4532(6) 0.0587(4) 0.57103(18)
F4? F -0.2493(12) 0.0328(6) 0.5244(3)
F5? F -0.2769(11) -0.1289(5) 0.5514(3)
F6? F -0.4876(12) -0.0142(8) 0.5850(3)
F7? F -0.2006(18) -0.0587(10) 0.5225(5)
F8? F -0.4549(17) -0.0870(9) 0.5854(5)
F9? F -0.3899(17) 0.0681(8) 0.5531(5)
loop_
_geom_bond_atom_site_label_1
_geom_bond_atom_site_label_2
_geom_bond_site_symmetry_1
_geom_bond_site_symmetry_2
N1 C5 1_555 1_555
O1 C1 1_555 1_555
B1 C7 1_555 1_555
C1 H1 1_555 1_555
H2 C1 1_555 1_555
H3 C1 1_555 1_555
C2 O1 1_555 1_555
C3 C2 1_555 1_555
H4 C3 1_555 1_555
C4 C3 1_555 1_555
H5 C4 1_555 1_555
C5 C4 1_555 1_555
C6 N1 1_555 1_555
H6 C6 1_555 1_555
C7 C6 1_555 1_555
C8 B1 1_555 1_555
C9 C8 1_555 1_555
H7 C9 1_555 1_555
C10 C9 1_555 1_555
H8 C10 1_555 1_555
C11 C10 1_555 1_555
C12 C11 1_555 1_555
H9 C12 1_555 1_555
C13 C8 1_555 1_555
H10 C13 1_555 1_555
C14 B1 1_555 1_555
C15 N1 1_555 1_555
H11 C15 1_555 1_555
C16 C5 1_555 1_555
H12 C16 1_555 1_555
C17 C2 1_555 1_555
H13 C17 1_555 1_555
C18 C7 1_555 1_555
H14 C18 1_555 1_555
H15 C18 1_555 1_555
H16 C18 1_555 1_555
C19 C11 1_555 1_555
C20 C14 1_555 1_555
H17 C20 1_555 1_555
H18 C20 1_555 1_555
H19 C20 1_555 1_555
F1 C19 1_555 1_555
F2 C19 1_555 1_555
F3 C19 1_555 1_555
C12 C13 1_555 1_555
C14 C15 1_555 1_555
C16 C17 1_555 1_555

#END
