
#######################################################################
#
#                 Cambridge Crystallographic Data Centre
#                                CCDC 
#
#######################################################################
#
# If this CIF has been generated from an entry in the Cambridge 
# Structural Database, then it will include bibliographic, chemical, 
# crystal, experimental, refinement or atomic coordinate data resulting 
# from the CCDC's data processing and validation procedures.
#
#######################################################################

data_ISUYAY
_chemical_formula_moiety         'C17 H12 F3 N1 O2 S1'
_chemical_name_systematic        
1-methyl-4-phenyl-3-((trifluoromethyl)sulfanyl)-1-azaspiro[4.5]deca-3,6,9-triene-2,8-dione
_symmetry_cell_setting           monoclinic
_symmetry_space_group_name_H-M   'P 21/c'
_symmetry_Int_Tables_number      14
_space_group_name_Hall           '-P 2ybc'
loop_
_symmetry_equiv_pos_site_id
_symmetry_equiv_pos_as_xyz
1 x,y,z
2 -x,1/2+y,1/2-z
3 -x,-y,-z
4 x,1/2-y,1/2+z
_cell_length_a                   8.9944(7)
_cell_length_b                   23.3645(9)
_cell_length_c                   8.8289(8)
_cell_angle_alpha                90
_cell_angle_beta                 118.307(11)
_cell_angle_gamma                90
_cell_volume                     1633.52
_exptl_crystal_colour            'light yellow'
_exptl_crystal_description       block
_cell_formula_units_Z            4
loop_
_atom_site_label
_atom_site_type_symbol
_atom_site_fract_x
_atom_site_fract_y
_atom_site_fract_z
S1 S 0.37021(12) 0.47962(4) 1.12686(13)
F1 F 0.4778(3) 0.43769(12) 1.4348(3)
F2 F 0.6652(3) 0.46947(12) 1.3750(3)
F3 F 0.5479(3) 0.38972(11) 1.2773(3)
O1 O 0.0855(3) 0.48508(9) 1.2504(3)
O2 O -0.3144(4) 0.23111(11) 0.6964(5)
N1 N -0.0384(4) 0.40503(10) 1.0909(4)
C1 C 0.0796(4) 0.44661(13) 1.1537(4)
C2 C 0.1955(4) 0.43617(12) 1.0797(4)
C3 C 0.1413(4) 0.39206(12) 0.9713(4)
C4 C -0.0170(4) 0.36722(12) 0.9702(4)
C5 C 0.0136(4) 0.30689(13) 1.0362(5)
H1 H 0.1027 0.3000 1.1454
C6 C -0.0791(5) 0.26324(14) 0.9475(6)
H2 H -0.0529 0.2267 0.9948
C7 C -0.2224(5) 0.27098(16) 0.7763(6)
C8 C -0.2540(4) 0.32853(15) 0.7046(5)
H3 H -0.3408 0.3343 0.5934
C9 C -0.1632(4) 0.37267(14) 0.7927(4)
H4 H -0.1910 0.4088 0.7426
C10 C 0.2046(4) 0.37038(12) 0.8566(4)
C11 C 0.3025(4) 0.32183(14) 0.8942(5)
H5 H 0.3304 0.3017 0.9950
C12 C 0.3595(5) 0.30295(17) 0.7821(6)
H6 H 0.4257 0.2701 0.8083
C13 C 0.3197(5) 0.33178(19) 0.6351(6)
H7 H 0.3569 0.3184 0.5596
C14 C 0.2249(6) 0.3806(2) 0.5973(5)
H8 H 0.1991 0.4008 0.4970
C15 C 0.1679(5) 0.39981(16) 0.7072(5)
H9 H 0.1036 0.4331 0.6809
C16 C 0.5190(5) 0.44236(18) 1.3092(5)
C17 C -0.1743(5) 0.39803(15) 1.1346(5)
H10 H -0.2807 0.3972 1.0311
H11 H -0.1730 0.4295 1.2052
H12 H -0.1589 0.3628 1.1962
loop_
_geom_bond_atom_site_label_1
_geom_bond_atom_site_label_2
_geom_bond_site_symmetry_1
_geom_bond_site_symmetry_2
S1 C2 1_555 1_555
F1 C16 1_555 1_555
F2 C16 1_555 1_555
F3 C16 1_555 1_555
O1 C1 1_555 1_555
O2 C7 1_555 1_555
N1 C1 1_555 1_555
C1 C2 1_555 1_555
C2 C3 1_555 1_555
C3 C4 1_555 1_555
C4 N1 1_555 1_555
C5 C4 1_555 1_555
H1 C5 1_555 1_555
C6 C5 1_555 1_555
H2 C6 1_555 1_555
C7 C6 1_555 1_555
C8 C7 1_555 1_555
H3 C8 1_555 1_555
C9 C4 1_555 1_555
H4 C9 1_555 1_555
C10 C3 1_555 1_555
C11 C10 1_555 1_555
H5 C11 1_555 1_555
C12 C11 1_555 1_555
H6 C12 1_555 1_555
C13 C12 1_555 1_555
H7 C13 1_555 1_555
C14 C13 1_555 1_555
H8 C14 1_555 1_555
C15 C10 1_555 1_555
H9 C15 1_555 1_555
C16 S1 1_555 1_555
C17 N1 1_555 1_555
H10 C17 1_555 1_555
H11 C17 1_555 1_555
H12 C17 1_555 1_555
C8 C9 1_555 1_555
C14 C15 1_555 1_555

#END
