
#######################################################################
#
#                 Cambridge Crystallographic Data Centre
#                                CCDC 
#
#######################################################################
#
# If this CIF has been generated from an entry in the Cambridge 
# Structural Database, then it will include bibliographic, chemical, 
# crystal, experimental, refinement or atomic coordinate data resulting 
# from the CCDC's data processing and validation procedures.
#
#######################################################################

data_ITAGAM
_chemical_formula_moiety         'C16 H21 N1 O2'
_chemical_name_systematic        
(+-)-9a-Benzyl-9-hydroxyoctahydro-5H-pyrrolo[1,2-a]azepin-5-one
_symmetry_cell_setting           monoclinic
_symmetry_space_group_name_H-M   'P 21/c'
_symmetry_Int_Tables_number      14
_space_group_name_Hall           '-P 2ybc'
loop_
_symmetry_equiv_pos_site_id
_symmetry_equiv_pos_as_xyz
1 x,y,z
2 -x,1/2+y,1/2-z
3 -x,-y,-z
4 x,1/2-y,1/2+z
_cell_length_a                   9.1103(17)
_cell_length_b                   13.610(3)
_cell_length_c                   11.256(2)
_cell_angle_alpha                90
_cell_angle_beta                 96.093(2)
_cell_angle_gamma                90
_cell_volume                     1387.76
_exptl_crystal_colour            colorless
_exptl_crystal_description       block
_cell_formula_units_Z            4
loop_
_atom_site_label
_atom_site_type_symbol
_atom_site_fract_x
_atom_site_fract_y
_atom_site_fract_z
C1 C -0.04068(19) 0.14534(12) 0.10376(15)
H1 H -0.0571 0.0901 0.0481
C2 C -0.1733(2) 0.14892(15) 0.17310(18)
H2 H -0.2593 0.1652 0.1183
H3 H -0.1591 0.2017 0.2311
C3 C -0.2054(2) 0.05563(17) 0.2381(2)
H4 H -0.2162 0.0021 0.1809
H5 H -0.2988 0.0631 0.2712
C4 C -0.0877(2) 0.02800(18) 0.33818(19)
H6 H -0.0585 0.0869 0.3832
H7 H -0.1309 -0.0168 0.3918
C5 C 0.0477(2) -0.01882(14) 0.29950(18)
C6 C 0.11270(18) 0.12833(11) 0.17386(13)
C7 C 0.2284(2) 0.12821(15) 0.08397(16)
H8 H 0.1824 0.1128 0.0045
H9 H 0.2750 0.1922 0.0818
C8 C 0.3411(3) 0.05086(18) 0.1256(2)
H10 H 0.3840 0.0223 0.0583
H11 H 0.4195 0.0788 0.1803
C9 C 0.2574(2) -0.02464(15) 0.18703(19)
H12 H 0.2276 -0.0784 0.1333
H13 H 0.3172 -0.0507 0.2563
C10 C 0.14766(19) 0.20745(12) 0.27194(14)
H14 H 0.1432 0.2715 0.2340
H15 H 0.0710 0.2054 0.3255
C11 C 0.29506(18) 0.19753(11) 0.34537(14)
C12 C 0.3138(2) 0.13245(13) 0.44017(15)
H16 H 0.2333 0.0956 0.4586
C13 C 0.4470(2) 0.12035(14) 0.50807(18)
H17 H 0.4554 0.0756 0.5709
C14 C 0.5659(3) 0.17336(17) 0.4838(2)
H18 H 0.6562 0.1649 0.5296
C15 C 0.5529(2) 0.23867(18) 0.3926(2)
H19 H 0.6346 0.2751 0.3760
C16 C 0.4175(2) 0.25188(15) 0.32321(19)
H20 H 0.4098 0.2977 0.2615
N1 N 0.12763(16) 0.02700(9) 0.22298(12)
O1 O -0.03574(17) 0.23111(9) 0.03215(11)
H21 H -0.0462 0.2799 0.0731
O2 O 0.0859(2) -0.10166(10) 0.33652(15)
loop_
_geom_bond_atom_site_label_1
_geom_bond_atom_site_label_2
_geom_bond_site_symmetry_1
_geom_bond_site_symmetry_2
C1 H1 1_555 1_555
C2 C1 1_555 1_555
H2 C2 1_555 1_555
H3 C2 1_555 1_555
C3 C2 1_555 1_555
H4 C3 1_555 1_555
H5 C3 1_555 1_555
C4 C3 1_555 1_555
H6 C4 1_555 1_555
H7 C4 1_555 1_555
C5 C4 1_555 1_555
C6 C1 1_555 1_555
C7 C6 1_555 1_555
H8 C7 1_555 1_555
H9 C7 1_555 1_555
C8 C7 1_555 1_555
H10 C8 1_555 1_555
H11 C8 1_555 1_555
C9 C8 1_555 1_555
H12 C9 1_555 1_555
H13 C9 1_555 1_555
C10 C6 1_555 1_555
H14 C10 1_555 1_555
H15 C10 1_555 1_555
C11 C10 1_555 1_555
C12 C11 1_555 1_555
H16 C12 1_555 1_555
C13 C12 1_555 1_555
H17 C13 1_555 1_555
C14 C13 1_555 1_555
H18 C14 1_555 1_555
C15 C14 1_555 1_555
H19 C15 1_555 1_555
C16 C11 1_555 1_555
H20 C16 1_555 1_555
N1 C5 1_555 1_555
O1 C1 1_555 1_555
H21 O1 1_555 1_555
O2 C5 1_555 1_555
C6 N1 1_555 1_555
C9 N1 1_555 1_555
C15 C16 1_555 1_555

#END
