
#######################################################################
#
#                 Cambridge Crystallographic Data Centre
#                                CCDC 
#
#######################################################################
#
# If this CIF has been generated from an entry in the Cambridge 
# Structural Database, then it will include bibliographic, chemical, 
# crystal, experimental, refinement or atomic coordinate data resulting 
# from the CCDC's data processing and validation procedures.
#
#######################################################################

data_ITAGIU
_chemical_formula_moiety         'C46 H34'
_chemical_name_systematic        
4-(2,2-Diphenylvinyl)-4'-(triphenylvinyl)biphenyl
_symmetry_cell_setting           monoclinic
_symmetry_space_group_name_H-M   'P 21/n'
_symmetry_Int_Tables_number      14
_space_group_name_Hall           '-P 2yn'
loop_
_symmetry_equiv_pos_site_id
_symmetry_equiv_pos_as_xyz
1 x,y,z
2 1/2-x,1/2+y,1/2-z
3 -x,-y,-z
4 1/2+x,1/2-y,1/2+z
_cell_length_a                   16.473(3)
_cell_length_b                   9.3922(14)
_cell_length_c                   20.772(3)
_cell_angle_alpha                90
_cell_angle_beta                 93.960(3)
_cell_angle_gamma                90
_cell_volume                     3206.12
_exptl_crystal_colour            colorless
_exptl_crystal_description       block
_cell_formula_units_Z            4
loop_
_atom_site_label
_atom_site_type_symbol
_atom_site_fract_x
_atom_site_fract_y
_atom_site_fract_z
C1 C 0.55753(11) 1.24298(18) 0.17720(8)
C2 C 0.44393(11) 0.68406(19) 0.34735(9)
C3 C 0.47792(11) 1.06665(19) 0.23810(8)
C4 C 0.26206(11) 0.32183(19) 0.47741(8)
C5 C 0.41588(11) 0.42862(19) 0.41555(9)
C6 C 0.45712(11) 0.81556(19) 0.30983(8)
C7 C 0.33930(11) 0.2400(2) 0.47500(8)
C8 C 0.48712(11) 1.19851(18) 0.19918(8)
C9 C 0.34036(11) 0.09526(19) 0.50405(8)
C10 C 0.26020(13) 0.4506(2) 0.51000(9)
C11 C 0.51589(12) 0.9168(2) 0.33000(9)
C12 C 0.37957(12) 1.3047(2) 0.12135(9)
C13 C 0.56254(11) 1.38577(19) 0.14595(9)
C14 C 0.78079(13) 1.0070(2) 0.18862(9)
C15 C 0.36651(12) 0.6260(2) 0.34894(9)
C16 C 0.63481(11) 1.15891(19) 0.18175(8)
C17 C 0.35222(12) 0.5025(2) 0.38246(9)
C18 C 0.29600(11) 0.0688(2) 0.55796(9)
C19 C 0.38320(11) -0.0177(2) 0.47874(9)
C20 C 0.63579(12) 1.0125(2) 0.17070(9)
C21 C 0.78111(12) 1.1517(2) 0.19889(9)
C22 C 0.29644(12) -0.0650(2) 0.58621(9)
C23 C 0.11983(13) 0.3514(2) 0.44558(10)
C24 C 0.41821(11) 0.9668(2) 0.21861(9)
C25 C 0.70920(11) 1.2277(2) 0.19475(9)
C26 C 0.38215(12) -0.1518(2) 0.50638(9)
C27 C 0.50802(12) 0.6122(2) 0.38094(10)
C28 C 0.52631(12) 1.0394(2) 0.29459(9)
C29 C 0.40881(12) 0.8428(2) 0.25309(9)
C30 C 0.33928(12) -0.1748(2) 0.56041(10)
C31 C 0.40951(11) 1.27916(19) 0.18469(9)
C32 C 0.54533(11) 1.5095(2) 0.17913(10)
C33 C 0.30794(12) 1.3791(2) 0.10800(10)
C34 C 0.40576(12) 0.2935(2) 0.44946(9)
C35 C 0.11927(13) 0.4803(2) 0.47708(10)
C36 C 0.58538(12) 1.3966(2) 0.08286(9)
C37 C 0.19047(12) 0.2717(2) 0.44567(10)
C38 C 0.70831(13) 0.9374(2) 0.17436(10)
C39 C 0.49431(12) 0.4873(2) 0.41406(10)
C40 C 0.29468(12) 1.4080(2) 0.22111(10)
C41 C 0.36524(12) 1.3298(2) 0.23441(10)
C42 C 0.58820(12) 1.5282(2) 0.05326(11)
C43 C 0.57119(13) 1.6503(2) 0.08691(12)
C44 C 0.55022(13) 1.6413(2) 0.14990(12)
C45 C 0.18955(13) 0.5301(2) 0.50952(10)
C46 C 0.26560(13) 1.4322(2) 0.15802(10)
H1 H 0.3364(12) -0.268(2) 0.5773(10)
H2 H 0.7126(11) 1.330(2) 0.2024(8)
H3 H 0.7104(12) 0.839(2) 0.1670(10)
H4 H 0.2949(13) 0.464(2) 0.3822(9)
H5 H 0.2652(13) 1.441(2) 0.2571(10)
H6 H 0.4128(11) -0.005(2) 0.4407(9)
H7 H 0.3204(13) 0.676(2) 0.3261(10)
H8 H 0.1934(12) 0.178(2) 0.4240(10)
H9 H 0.2627(11) 0.1468(19) 0.5762(8)
H10 H 0.4537(12) 0.235(2) 0.4541(9)
H11 H 0.2167(12) 1.487(2) 0.1502(9)
H12 H 0.3670(12) 0.772(2) 0.2364(9)
H13 H 0.5823(13) 0.962(2) 0.1566(10)
H14 H 0.2599(13) -0.079(2) 0.6259(10)
H15 H 0.4106(11) -0.229(2) 0.4862(9)
H16 H 0.5658(12) 1.112(2) 0.3112(9)
H17 H 0.2878(12) 1.397(2) 0.0623(10)
H18 H 0.5645(13) 0.651(2) 0.3801(9)
H19 H 0.6052(14) 1.529(2) 0.0083(11)
H20 H 0.5376(13) 1.728(2) 0.1751(11)
H21 H 0.8289(14) 0.953(2) 0.1935(10)
H22 H 0.3840(13) 1.308(2) 0.2806(11)
H23 H 0.5710(14) 1.741(3) 0.0683(11)
H24 H 0.5316(12) 1.503(2) 0.2247(10)
H25 H 0.4080(12) 1.267(2) 0.0862(9)
H26 H 0.5445(15) 0.434(2) 0.4365(11)
H27 H 0.8282(13) 1.202(2) 0.2092(10)
H28 H 0.5977(12) 1.309(2) 0.0606(9)
H29 H 0.3087(13) 0.488(2) 0.5330(10)
H30 H 0.3788(13) 0.984(2) 0.1804(10)
H31 H 0.1931(13) 0.622(2) 0.5307(11)
H32 H 0.0709(15) 0.315(2) 0.4220(11)
H33 H 0.5509(12) 0.903(2) 0.3696(10)
H34 H 0.0662(17) 0.539(3) 0.4785(12)
loop_
_geom_bond_atom_site_label_1
_geom_bond_atom_site_label_2
_geom_bond_site_symmetry_1
_geom_bond_site_symmetry_2
C1 C8 1_555 1_555
C2 C6 1_555 1_555
C3 C8 1_555 1_555
C4 C7 1_555 1_555
C5 C17 1_555 1_555
C6 C11 1_555 1_555
C7 C9 1_555 1_555
C8 C31 1_555 1_555
C9 C18 1_555 1_555
C10 C4 1_555 1_555
C11 C28 1_555 1_555
C12 C31 1_555 1_555
C13 C1 1_555 1_555
C14 C21 1_555 1_555
C15 C2 1_555 1_555
C16 C1 1_555 1_555
C17 C15 1_555 1_555
C18 C22 1_555 1_555
C19 C9 1_555 1_555
C20 C16 1_555 1_555
C21 C25 1_555 1_555
C22 C30 1_555 1_555
C23 C35 1_555 1_555
C24 C3 1_555 1_555
C25 C16 1_555 1_555
C26 C19 1_555 1_555
C27 C2 1_555 1_555
C28 C3 1_555 1_555
C29 C6 1_555 1_555
C30 C26 1_555 1_555
C31 C41 1_555 1_555
C32 C13 1_555 1_555
C33 C12 1_555 1_555
C34 C5 1_555 1_555
C35 C45 1_555 1_555
C36 C13 1_555 1_555
C37 C4 1_555 1_555
C38 C14 1_555 1_555
C39 C5 1_555 1_555
C40 C41 1_555 1_555
C41 H22 1_555 1_555
C42 C36 1_555 1_555
C43 C42 1_555 1_555
C44 C32 1_555 1_555
C45 C10 1_555 1_555
C46 C33 1_555 1_555
H1 C30 1_555 1_555
H2 C25 1_555 1_555
H3 C38 1_555 1_555
H4 C17 1_555 1_555
H5 C40 1_555 1_555
H6 C19 1_555 1_555
H7 C15 1_555 1_555
H8 C37 1_555 1_555
H9 C18 1_555 1_555
H10 C34 1_555 1_555
H11 C46 1_555 1_555
H12 C29 1_555 1_555
H13 C20 1_555 1_555
H14 C22 1_555 1_555
H15 C26 1_555 1_555
H16 C28 1_555 1_555
H17 C33 1_555 1_555
H18 C27 1_555 1_555
H19 C42 1_555 1_555
H20 C44 1_555 1_555
H21 C14 1_555 1_555
H23 C43 1_555 1_555
H24 C32 1_555 1_555
H25 C12 1_555 1_555
H26 C39 1_555 1_555
H27 C21 1_555 1_555
H28 C36 1_555 1_555
H29 C10 1_555 1_555
H30 C24 1_555 1_555
H31 C45 1_555 1_555
H32 C23 1_555 1_555
H33 C11 1_555 1_555
H34 C35 1_555 1_555
C7 C34 1_555 1_555
C20 C38 1_555 1_555
C23 C37 1_555 1_555
C24 C29 1_555 1_555
C27 C39 1_555 1_555
C40 C46 1_555 1_555
C43 C44 1_555 1_555

#END
