
#######################################################################
#
#                 Cambridge Crystallographic Data Centre
#                                CCDC 
#
#######################################################################
#
# If this CIF has been generated from an entry in the Cambridge 
# Structural Database, then it will include bibliographic, chemical, 
# crystal, experimental, refinement or atomic coordinate data resulting 
# from the CCDC's data processing and validation procedures.
#
#######################################################################

data_ITAKEU
_chemical_formula_moiety         'C21 H22 N2 O1'
_chemical_name_systematic        
1-(Piperidin-1-yl(pyridin-3-yl)methyl)-2-naphthol
_symmetry_cell_setting           orthorhombic
_symmetry_space_group_name_H-M   'P n a 21'
_symmetry_Int_Tables_number      33
_space_group_name_Hall           'P 2c -2n'
loop_
_symmetry_equiv_pos_site_id
_symmetry_equiv_pos_as_xyz
1 x,y,z
2 -x,-y,1/2+z
3 1/2+x,1/2-y,z
4 1/2-x,1/2+y,1/2+z
_cell_length_a                   16.8749(3)
_cell_length_b                   14.7594(2)
_cell_length_c                   6.85390(10)
_cell_angle_alpha                90
_cell_angle_beta                 90
_cell_angle_gamma                90
_cell_volume                     1707.06
_exptl_crystal_colour            colorless
_exptl_crystal_description       prism
_cell_formula_units_Z            4
loop_
_atom_site_label
_atom_site_type_symbol
_atom_site_fract_x
_atom_site_fract_y
_atom_site_fract_z
O1 O 0.15282(10) 0.38771(11) 0.0433(3)
C1 C 0.13875(10) 0.17477(12) 0.3243(3)
C2 C 0.19034(10) 0.32791(12) 0.4413(3)
C3 C 0.10238(11) 0.11919(14) 0.1790(3)
C4 C 0.15402(10) 0.26837(12) 0.2835(3)
C5 C 0.27952(10) 0.31414(11) 0.4551(3)
C6 C 0.15919(12) 0.13308(13) 0.5037(3)
C7 C 0.08266(11) 0.43633(14) 0.4541(4)
C8 C 0.32827(13) 0.31542(16) 0.2931(4)
C9 C 0.08680(13) 0.02648(16) 0.2226(4)
C10 C 0.14331(15) 0.04309(16) 0.5377(4)
C11 C 0.13630(11) 0.30138(14) 0.0996(3)
C12 C 0.08235(13) 0.15779(17) -0.0018(3)
C13 C 0.09859(12) 0.24611(17) -0.0409(3)
C14 C 0.31417(13) 0.29825(16) 0.6342(4)
C15 C 0.40910(14) 0.30227(18) 0.3197(6)
C16 C 0.21426(13) 0.48841(14) 0.5324(4)
C17 C 0.05538(13) 0.53218(16) 0.4098(5)
C18 C 0.19030(14) 0.58588(15) 0.4902(5)
C19 C 0.10249(16) 0.60080(17) 0.5250(5)
C20 C 0.10656(14) -0.01016(15) 0.3957(4)
C21 C 0.43734(15) 0.28717(16) 0.5035(6)
N1 N 0.16814(9) 0.42526(10) 0.4107(3)
N2 N 0.39214(12) 0.28432(14) 0.6624(4)
H1 H 0.2723(14) 0.4770(15) 0.505(4)
H2 H 0.0753(13) 0.4217(14) 0.588(4)
H3 H 0.0543(13) 0.1214(16) -0.098(4)
H4 H -0.0003(16) 0.5376(17) 0.443(4)
H5 H 0.2242(16) 0.6246(19) 0.575(5)
H6 H 0.0606(12) -0.0053(14) 0.121(4)
H7 H 0.1672(11) 0.3079(13) 0.576(3)
H8 H 0.2799(18) 0.2961(19) 0.756(5)
H9 H 0.2057(14) 0.4766(18) 0.667(5)
H10 H 0.3041(14) 0.3282(16) 0.166(5)
H11 H 0.0630(16) 0.5434(19) 0.270(5)
H12 H 0.1995(18) 0.5967(19) 0.336(5)
H13 H 0.4959(17) 0.2751(19) 0.525(5)
H14 H 0.1680(17) 0.421(2) 0.160(6)
H15 H 0.0533(12) 0.3895(15) 0.370(4)
H16 H 0.0893(16) 0.665(2) 0.490(5)
H17 H 0.0832(14) 0.2767(18) -0.170(5)
H18 H 0.1584(15) 0.0204(19) 0.659(5)
H19 H 0.0917(15) 0.593(2) 0.663(6)
H20 H 0.0968(15) -0.072(2) 0.425(5)
H21 H 0.1857(12) 0.1687(14) 0.605(4)
H22 H 0.440(2) 0.301(2) 0.205(7)
loop_
_geom_bond_atom_site_label_1
_geom_bond_atom_site_label_2
_geom_bond_site_symmetry_1
_geom_bond_site_symmetry_2
O1 C11 1_555 1_555
C1 C3 1_555 1_555
C2 C4 1_555 1_555
C3 C9 1_555 1_555
C4 C1 1_555 1_555
C5 C2 1_555 1_555
C6 C1 1_555 1_555
C7 C17 1_555 1_555
C8 C5 1_555 1_555
C9 C20 1_555 1_555
C10 C6 1_555 1_555
C11 C4 1_555 1_555
C12 C3 1_555 1_555
C13 C11 1_555 1_555
C14 C5 1_555 1_555
C15 C8 1_555 1_555
C16 C18 1_555 1_555
C17 C19 1_555 1_555
C18 C19 1_555 1_555
C19 H16 1_555 1_555
C20 C10 1_555 1_555
C21 C15 1_555 1_555
N1 C2 1_555 1_555
N2 C14 1_555 1_555
H1 C16 1_555 1_555
H2 C7 1_555 1_555
H3 C12 1_555 1_555
H4 C17 1_555 1_555
H5 C18 1_555 1_555
H6 C9 1_555 1_555
H7 C2 1_555 1_555
H8 C14 1_555 1_555
H9 C16 1_555 1_555
H10 C8 1_555 1_555
H11 C17 1_555 1_555
H12 C18 1_555 1_555
H13 C21 1_555 1_555
H14 O1 1_555 1_555
H15 C7 1_555 1_555
H17 C13 1_555 1_555
H18 C10 1_555 1_555
H19 C19 1_555 1_555
H20 C20 1_555 1_555
H21 C6 1_555 1_555
H22 C15 1_555 1_555
C7 N1 1_555 1_555
C12 C13 1_555 1_555
C16 N1 1_555 1_555
C21 N2 1_555 1_555

#END
