
#######################################################################
#
#                 Cambridge Crystallographic Data Centre
#                                CCDC 
#
#######################################################################
#
# If this CIF has been generated from an entry in the Cambridge 
# Structural Database, then it will include bibliographic, chemical, 
# crystal, experimental, refinement or atomic coordinate data resulting 
# from the CCDC's data processing and validation procedures.
#
#######################################################################

data_ITAKAP
_chemical_formula_moiety         'C24 H48 K1 O6 1+,C40 H56 N8 Si4 1-'
_chemical_name_systematic        
'hexakis(tetrahydrofuran)-potassium tetrakis(\m~2~-1,2-bis(ethylamido)benzene)-tetra-silicon radical'
_symmetry_cell_setting           monoclinic
_symmetry_space_group_name_H-M   'P 21/n'
_symmetry_Int_Tables_number      14
_space_group_name_Hall           '-P 2yn'
loop_
_symmetry_equiv_pos_site_id
_symmetry_equiv_pos_as_xyz
1 x,y,z
2 1/2+x,1/2-y,1/2+z
3 -x,-y,-z
4 1/2-x,1/2+y,1/2-z
_cell_length_a                   18.2955(7)
_cell_length_b                   9.4645(4)
_cell_length_c                   20.0260(8)
_cell_angle_alpha                90
_cell_angle_beta                 91.757(2)
_cell_angle_gamma                90
_cell_volume                     3466.03
_exptl_crystal_colour            green
_exptl_crystal_description       rod
_cell_formula_units_Z            2
loop_
_atom_site_label
_atom_site_type_symbol
_atom_site_fract_x
_atom_site_fract_y
_atom_site_fract_z
K1 K 0.00000 0.00000 0.00000
O1 O 0.1331(3) 0.1165(7) 0.0310(4)
O2 O -0.0427(3) 0.0756(8) 0.1218(2)
O3 O 0.0159(5) -0.2625(9) 0.0583(4)
C21 C -0.1075(8) 0.1702(16) 0.2044(5)
H29 H -0.0902 0.2683 0.2118
H30 H -0.157 0.1611 0.2226
C22 C -0.1091(5) 0.1365(12) 0.1332(4)
H31 H -0.1494 0.07 0.1219
H32 H -0.1159 0.2232 0.106
C23 C 0.0714(8) -0.3490(19) 0.0646(6)
H33 H 0.1138 -0.2985 0.085
H34 H 0.0852 -0.3829 0.0199
C24 C 0.0523(7) -0.4726(17) 0.1074(8)
H35 H 0.0549 -0.5623 0.0822
H36 H 0.0852 -0.4785 0.1475
C31 C -0.0213(7) -0.4421(14) 0.1253(7)
H49 H -0.033 -0.4826 0.1693
H50 H -0.0575 -0.4751 0.091
C32 C -0.0162(8) -0.2860(17) 0.1275(5)
H51 H 0.0171 -0.2527 0.1641
H52 H -0.0647 -0.241 0.1314
C33 C 0.1711(8) 0.2394(15) -0.0036(6)
H53 H 0.1935 0.2091 -0.0456
H54 H 0.137 0.3188 -0.013
C34 C 0.2269(5) 0.2766(12) 0.0483(5)
H55 H 0.276 0.2506 0.0329
H56 H 0.2262 0.3798 0.0563
C35 C 0.2131(7) 0.2072(15) 0.1056(5)
H57 H 0.1772 0.2583 0.1326
H58 H 0.2584 0.1909 0.1329
C36 C 0.1810(9) 0.0662(14) 0.0770(8)
H59 H 0.2191 0.0075 0.0566
H60 H 0.1564 0.0108 0.1117
C37 C 0.0005(7) 0.094(2) 0.1848(6)
H61 H 0.0228 0.1895 0.1879
H62 H 0.0392 0.0217 0.1901
C38 C -0.0598(6) 0.0749(11) 0.2355(4)
H63 H -0.0794 -0.0226 0.2361
H64 H -0.0443 0.1045 0.2812
O1B O -0.1331(3) -0.1165(7) -0.0310(4)
C33B C -0.1711(8) -0.2394(15) 0.0036(6)
H53B H -0.1935 -0.2091 0.0456
H54B H -0.137 -0.3188 0.013
C34B C -0.2269(5) -0.2766(12) -0.0483(5)
H55B H -0.276 -0.2506 -0.0329
H56B H -0.2262 -0.3798 -0.0563
C35B C -0.2131(7) -0.2072(15) -0.1056(5)
H57B H -0.1772 -0.2583 -0.1326
H58B H -0.2584 -0.1909 -0.1329
C36B C -0.1810(9) -0.0662(14) -0.0770(8)
H59B H -0.2191 -0.0075 -0.0566
H60B H -0.1564 -0.0108 -0.1117
O2B O 0.0427(3) -0.0756(8) -0.1218(2)
C22B C 0.1091(5) -0.1365(12) -0.1332(4)
C21B C 0.1075(8) -0.1702(16) -0.2044(5)
H29B H 0.0902 -0.2683 -0.2118
H30B H 0.157 -0.1611 -0.2226
C38B C 0.0598(6) -0.0749(11) -0.2355(4)
C37B C -0.0005(7) -0.094(2) -0.1848(6)
H61B H -0.0228 -0.1895 -0.1879
H62B H -0.0392 -0.0217 -0.1901
H63B H 0.0794 0.0226 -0.2361
H64B H 0.0443 -0.1045 -0.2812
H31B H 0.1494 -0.07 -0.1219
H32B H 0.1159 -0.2232 -0.106
O3B O -0.0159(5) 0.2625(9) -0.0583(4)
C23B C -0.0714(8) 0.3490(19) -0.0646(6)
H33B H -0.1138 0.2985 -0.085
H34B H -0.0852 0.3829 -0.0199
C24B C -0.0523(7) 0.4726(17) -0.1074(8)
H35B H -0.0549 0.5623 -0.0822
H36B H -0.0852 0.4785 -0.1475
C31B C 0.0213(7) 0.4421(14) -0.1253(7)
H49B H 0.033 0.4826 -0.1693
H50B H 0.0575 0.4751 -0.091
C32B C 0.0162(8) 0.2860(17) -0.1275(5)
H51B H -0.0171 0.2527 -0.1641
H52B H 0.0647 0.241 -0.1314
Si1 Si 0.45839(7) 0.47139(13) 0.07099(6)
Si2 Si 0.57402(7) 0.55561(13) 0.04255(6)
N1 N 0.4522(2) 0.3243(4) 0.12491(19)
N2 N 0.3992(2) 0.5648(4) 0.1239(2)
N3 N 0.6037(2) 0.7203(4) 0.07532(19)
N4 N 0.6541(2) 0.4783(4) 0.0778(2)
C1 C 0.4022(3) 0.3426(5) 0.1749(2)
C2 C 0.3713(3) 0.4788(5) 0.1741(2)
C3 C 0.3191(3) 0.5145(6) 0.2201(3)
H1 H 0.2981 0.6064 0.2202
C4 C 0.2978(3) 0.4123(8) 0.2665(3)
H2 H 0.2613 0.4348 0.2975
C5 C 0.3286(3) 0.2827(7) 0.2678(3)
H3 H 0.3144 0.216 0.3004
C6 C 0.3813(3) 0.2452(6) 0.2217(3)
H4 H 0.4025 0.1535 0.2227
C7 C 0.3765(3) 0.7112(5) 0.1185(3)
H5 H 0.3226 0.7159 0.1207
H6 H 0.3902 0.7478 0.0743
C8 C 0.4101(4) 0.8068(6) 0.1728(3)
H7 H 0.4635 0.8046 0.1705
H8 H 0.3956 0.7732 0.2167
H9 H 0.3927 0.9038 0.1659
C9 C 0.4979(3) 0.1986(5) 0.1238(2)
H10 H 0.5212 0.1924 0.0799
H11 H 0.4667 0.114 0.1287
C10 C 0.5571(3) 0.1981(6) 0.1787(3)
H12 H 0.5344 0.2021 0.2223
H13 H 0.5889 0.2805 0.1735
H14 H 0.5862 0.1115 0.1756
C11 C 0.6662(3) 0.7111(5) 0.1162(2)
C12 C 0.6948(3) 0.5718(6) 0.1180(2)
C13 C 0.7569(3) 0.5427(7) 0.1571(3)
H15 H 0.7768 0.45 0.1585
C14 C 0.7897(3) 0.6514(8) 0.1943(3)
H16 H 0.8323 0.632 0.2211
C15 C 0.7619(3) 0.7844(8) 0.1929(3)
H17 H 0.7848 0.8562 0.2193
C16 C 0.7002(3) 0.8167(6) 0.1533(3)
H18 H 0.6817 0.9104 0.1519
C17 C 0.5698(3) 0.8562(5) 0.0621(3)
H19 H 0.5658 0.9081 0.1047
H20 H 0.5197 0.8409 0.0434
C18 C 0.6123(3) 0.9461(6) 0.0135(3)
H21 H 0.6155 0.8962 -0.0291
H22 H 0.6616 0.9636 0.0322
H23 H 0.587 1.0363 0.0064
C19 C 0.6825(3) 0.3372(6) 0.0655(3)
H24 H 0.6431 0.2783 0.0449
H25 H 0.6976 0.2934 0.1086
C20 C 0.7474(3) 0.3394(7) 0.0197(3)
H26 H 0.7868 0.3967 0.0401
H27 H 0.7323 0.3801 -0.0235
H28 H 0.765 0.2427 0.0131
Si1B Si 0.54161(7) 0.52861(13) -0.07099(6)
Si2B Si 0.42598(7) 0.44439(13) -0.04255(6)
N3B N 0.3963(2) 0.2797(4) -0.07532(19)
C11B C 0.3338(3) 0.2889(5) -0.1162(2)
C12B C 0.3052(3) 0.4282(6) -0.1180(2)
N4B N 0.3459(2) 0.5217(4) -0.0778(2)
C19B C 0.3175(3) 0.6628(6) -0.0655(3)
H24B H 0.3569 0.7217 -0.0449
H25B H 0.3024 0.7066 -0.1086
C20B C 0.2526(3) 0.6606(7) -0.0197(3)
H26B H 0.2132 0.6033 -0.0401
H27B H 0.2677 0.6199 0.0235
H28B H 0.235 0.7573 -0.0131
C13B C 0.2431(3) 0.4573(7) -0.1571(3)
H15B H 0.2232 0.55 -0.1585
C14B C 0.2103(3) 0.3486(8) -0.1943(3)
H16B H 0.1677 0.368 -0.2211
C15B C 0.2381(3) 0.2156(8) -0.1929(3)
H17B H 0.2152 0.1438 -0.2193
C16B C 0.2998(3) 0.1833(6) -0.1533(3)
H18B H 0.3183 0.0896 -0.1519
C17B C 0.4302(3) 0.1438(5) -0.0621(3)
H19B H 0.4342 0.0919 -0.1047
H20B H 0.4803 0.1591 -0.0434
C18B C 0.3877(3) 0.0539(6) -0.0135(3)
H21B H 0.3845 0.1038 0.0291
H22B H 0.3384 0.0364 -0.0322
H23B H 0.413 -0.0363 -0.0064
N1B N 0.5478(2) 0.6757(4) -0.12491(19)
C1B C 0.5978(3) 0.6574(5) -0.1749(2)
C2B C 0.6287(3) 0.5212(5) -0.1741(2)
N2B N 0.6008(2) 0.4352(4) -0.1239(2)
C7B C 0.6235(3) 0.2888(5) -0.1185(3)
H5B H 0.6774 0.2841 -0.1207
H6B H 0.6098 0.2522 -0.0743
C8B C 0.5899(4) 0.1932(6) -0.1728(3)
H7B H 0.5365 0.1954 -0.1705
H8B H 0.6044 0.2268 -0.2167
H9B H 0.6073 0.0962 -0.1659
C3B C 0.6809(3) 0.4855(6) -0.2201(3)
H1B H 0.7019 0.3936 -0.2202
C4B C 0.7022(3) 0.5877(8) -0.2665(3)
H2B H 0.7387 0.5652 -0.2975
C5B C 0.6714(3) 0.7173(7) -0.2678(3)
H3B H 0.6856 0.784 -0.3004
C6B C 0.6187(3) 0.7548(6) -0.2217(3)
H4B H 0.5975 0.8465 -0.2227
C9B C 0.5021(3) 0.8014(5) -0.1238(2)
H10B H 0.4788 0.8076 -0.0799
H11B H 0.5333 0.886 -0.1287
C10B C 0.4429(3) 0.8019(6) -0.1787(3)
H12B H 0.4656 0.7979 -0.2223
H13B H 0.4111 0.7195 -0.1735
H14B H 0.4138 0.8885 -0.1756
C25? C 0.2066(11) 0.135(3) 0.0164(19)
H37? H 0.2132 0.1373 -0.0324
H38? H 0.2369 0.0577 0.036
C26? C 0.2269(5) 0.2766(12) 0.0483(5)
H39? H 0.2785 0.3052 0.0434
H40? H 0.1927 0.3548 0.0372
C27? C 0.2131(7) 0.2072(15) 0.1056(5)
H41? H 0.2272 0.2657 0.1449
H42? H 0.2407 0.1172 0.1081
C28? C 0.1325(8) 0.1798(19) 0.1034(7)
H43? H 0.1031 0.2672 0.1063
H44? H 0.1174 0.1106 0.1373
C29? C -0.0313(13) -0.014(2) 0.1835(6)
H45? H -0.0588 -0.1039 0.1796
H46? H 0.0212 -0.0351 0.192
C30? C -0.0598(6) 0.0749(11) 0.2355(4)
H47? H -0.0859 0.017 0.2683
H48? H -0.0194 0.1258 0.2591
C39? C -0.0213(7) -0.4421(14) 0.1253(7)
H65? H -0.0221 -0.3953 0.1695
H66? H -0.0506 -0.5298 0.127
C40? C -0.0511(10) -0.344(2) 0.0707(12)
H67? H -0.0685 -0.3963 0.0305
H68? H -0.0909 -0.2826 0.0867
loop_
_geom_bond_atom_site_label_1
_geom_bond_atom_site_label_2
_geom_bond_site_symmetry_1
_geom_bond_site_symmetry_2
K1 O1 1_555 1_555
Si1 Si2 1_555 1_555
Si2 N3 1_555 1_555
O1 C33 1_555 1_555
O2 K1 1_555 1_555
O3 K1 1_555 1_555
N1 Si1 1_555 1_555
N2 Si1 1_555 1_555
N3 C11 1_555 1_555
N4 Si2 1_555 1_555
C1 N1 1_555 1_555
C2 N2 1_555 1_555
C3 C2 1_555 1_555
H1 C3 1_555 1_555
C4 C3 1_555 1_555
H2 C4 1_555 1_555
C5 C4 1_555 1_555
H3 C5 1_555 1_555
C6 C1 1_555 1_555
H4 C6 1_555 1_555
C7 N2 1_555 1_555
H5 C7 1_555 1_555
H6 C7 1_555 1_555
C8 C7 1_555 1_555
H7 C8 1_555 1_555
H8 C8 1_555 1_555
H9 C8 1_555 1_555
C9 N1 1_555 1_555
H10 C9 1_555 1_555
H11 C9 1_555 1_555
C10 C9 1_555 1_555
H12 C10 1_555 1_555
H13 C10 1_555 1_555
H14 C10 1_555 1_555
C11 C12 1_555 1_555
C12 N4 1_555 1_555
C13 C12 1_555 1_555
H15 C13 1_555 1_555
C14 C13 1_555 1_555
H16 C14 1_555 1_555
C15 C14 1_555 1_555
H17 C15 1_555 1_555
C16 C11 1_555 1_555
H18 C16 1_555 1_555
C17 N3 1_555 1_555
H19 C17 1_555 1_555
H20 C17 1_555 1_555
C18 C17 1_555 1_555
H21 C18 1_555 1_555
H22 C18 1_555 1_555
H23 C18 1_555 1_555
C19 N4 1_555 1_555
H24 C19 1_555 1_555
H25 C19 1_555 1_555
C20 C19 1_555 1_555
H26 C20 1_555 1_555
H27 C20 1_555 1_555
H28 C20 1_555 1_555
C21 H29 1_555 1_555
H30 C21 1_555 1_555
C22 O2 1_555 1_555
H31 C22 1_555 1_555
H32 C22 1_555 1_555
C23 O3 1_555 1_555
H33 C23 1_555 1_555
H34 C23 1_555 1_555
C24 C23 1_555 1_555
H35 C24 1_555 1_555
H36 C24 1_555 1_555
C31 C24 1_555 1_555
H49 C31 1_555 1_555
H50 C31 1_555 1_555
C32 O3 1_555 1_555
H51 C32 1_555 1_555
H52 C32 1_555 1_555
C33 H53 1_555 1_555
H54 C33 1_555 1_555
C34 C33 1_555 1_555
H55 C34 1_555 1_555
H56 C34 1_555 1_555
C35 C34 1_555 1_555
H57 C35 1_555 1_555
H58 C35 1_555 1_555
C36 O1 1_555 1_555
H59 C36 1_555 1_555
H60 C36 1_555 1_555
C37 O2 1_555 1_555
H61 C37 1_555 1_555
H62 C37 1_555 1_555
C38 C21 1_555 1_555
H63 C38 1_555 1_555
H64 C38 1_555 1_555
O1B K1 1_555 1_555
C33B O1B 1_555 1_555
H53B C33B 1_555 1_555
H54B C33B 1_555 1_555
C34B C33B 1_555 1_555
H55B C34B 1_555 1_555
H56B C34B 1_555 1_555
C35B C34B 1_555 1_555
H57B C35B 1_555 1_555
H58B C35B 1_555 1_555
C36B O1B 1_555 1_555
H59B C36B 1_555 1_555
H60B C36B 1_555 1_555
O2B K1 1_555 1_555
C22B O2B 1_555 1_555
C21B C22B 1_555 1_555
H29B C21B 1_555 1_555
H30B C21B 1_555 1_555
C38B C21B 1_555 1_555
C37B O2B 1_555 1_555
H61B C37B 1_555 1_555
H62B C37B 1_555 1_555
H63B C38B 1_555 1_555
H64B C38B 1_555 1_555
H31B C22B 1_555 1_555
H32B C22B 1_555 1_555
O3B K1 1_555 1_555
C23B O3B 1_555 1_555
H33B C23B 1_555 1_555
H34B C23B 1_555 1_555
C24B C23B 1_555 1_555
H35B C24B 1_555 1_555
H36B C24B 1_555 1_555
C31B C24B 1_555 1_555
H49B C31B 1_555 1_555
H50B C31B 1_555 1_555
C32B O3B 1_555 1_555
H51B C32B 1_555 1_555
H52B C32B 1_555 1_555
Si1B Si2 1_555 1_555
Si2B Si1 1_555 1_555
N3B Si2B 1_555 1_555
C11B N3B 1_555 1_555
C12B C11B 1_555 1_555
N4B Si2B 1_555 1_555
C19B N4B 1_555 1_555
H24B C19B 1_555 1_555
H25B C19B 1_555 1_555
C20B C19B 1_555 1_555
H26B C20B 1_555 1_555
H27B C20B 1_555 1_555
H28B C20B 1_555 1_555
C13B C12B 1_555 1_555
H15B C13B 1_555 1_555
C14B C13B 1_555 1_555
H16B C14B 1_555 1_555
C15B C14B 1_555 1_555
H17B C15B 1_555 1_555
C16B C11B 1_555 1_555
H18B C16B 1_555 1_555
C17B N3B 1_555 1_555
H19B C17B 1_555 1_555
H20B C17B 1_555 1_555
C18B C17B 1_555 1_555
H21B C18B 1_555 1_555
H22B C18B 1_555 1_555
H23B C18B 1_555 1_555
N1B Si1B 1_555 1_555
C1B N1B 1_555 1_555
C2B C1B 1_555 1_555
N2B Si1B 1_555 1_555
C7B N2B 1_555 1_555
H5B C7B 1_555 1_555
H6B C7B 1_555 1_555
C8B C7B 1_555 1_555
H7B C8B 1_555 1_555
H8B C8B 1_555 1_555
H9B C8B 1_555 1_555
C3B C2B 1_555 1_555
H1B C3B 1_555 1_555
C4B C3B 1_555 1_555
H2B C4B 1_555 1_555
C5B C4B 1_555 1_555
H3B C5B 1_555 1_555
C6B C1B 1_555 1_555
H4B C6B 1_555 1_555
C9B N1B 1_555 1_555
H10B C9B 1_555 1_555
H11B C9B 1_555 1_555
C10B C9B 1_555 1_555
H12B C10B 1_555 1_555
H13B C10B 1_555 1_555
H14B C10B 1_555 1_555
C1 C2 1_555 1_555
C5 C6 1_555 1_555
C15 C16 1_555 1_555
C21 C22 1_555 1_555
C31 C32 1_555 1_555
C35 C36 1_555 1_555
C37 C38 1_555 1_555
C35B C36B 1_555 1_555
C38B C37B 1_555 1_555
C31B C32B 1_555 1_555
Si1B Si2B 1_555 1_555
C12B N4B 1_555 1_555
C15B C16B 1_555 1_555
C2B N2B 1_555 1_555
C5B C6B 1_555 1_555

#END
