
#######################################################################
#
#                 Cambridge Crystallographic Data Centre
#                                CCDC 
#
#######################################################################
#
# If this CIF has been generated from an entry in the Cambridge 
# Structural Database, then it will include bibliographic, chemical, 
# crystal, experimental, refinement or atomic coordinate data resulting 
# from the CCDC's data processing and validation procedures.
#
#######################################################################

data_ITANOH
_chemical_formula_moiety         'C36 H56 N2 Se2'
_chemical_name_systematic        
N,N'-bis[(2-decylseleno)phenylmethylene]-1,2-ethanediamine
_symmetry_cell_setting           triclinic
_symmetry_space_group_name_H-M   'P -1'
_symmetry_Int_Tables_number      2
_space_group_name_Hall           '-P 1'
loop_
_symmetry_equiv_pos_site_id
_symmetry_equiv_pos_as_xyz
1 x,y,z
2 -x,-y,-z
_cell_length_a                   4.8148(2)
_cell_length_b                   7.2403(2)
_cell_length_c                   24.6213(8)
_cell_angle_alpha                96.012(2)
_cell_angle_beta                 91.398(2)
_cell_angle_gamma                98.086(2)
_cell_volume                     844.438
_exptl_crystal_colour            colorless
_exptl_crystal_description       needle
_chemical_melting_point          '335.5 K'
_cell_formula_units_Z            1
loop_
_atom_site_label
_atom_site_type_symbol
_atom_site_fract_x
_atom_site_fract_y
_atom_site_fract_z
Se1 Se 0.51252(3) 0.41907(2) 0.349903(6)
N1 N 0.8039(3) 0.3436(2) 0.44273(7)
C1 C 1.0394(4) 0.4173(3) 0.48111(8)
H1 H 1.2040 0.4588 0.4612
H2 H 1.0834 0.3197 0.5026
C2 C 0.7098(4) 0.1700(3) 0.44035(8)
H3 H 0.7966 0.0961 0.4623
C3 C 0.4687(4) 0.0809(3) 0.40429(8)
C4 C 0.3518(4) -0.1021(3) 0.41255(8)
H4 H 0.4336 -0.1627 0.4389
C5 C 0.1171(4) -0.1948(3) 0.38236(8)
H5 H 0.0403 -0.3154 0.3888
C6 C -0.0014(4) -0.1050(3) 0.34242(8)
H6 H -0.1598 -0.1656 0.3221
C7 C 0.1145(4) 0.0746(3) 0.33248(8)
H7 H 0.0341 0.1319 0.3052
C8 C 0.3506(4) 0.1708(3) 0.36290(7)
C9 C 0.3060(4) 0.4462(3) 0.28202(8)
H8 H 0.1076 0.4066 0.2864
H9 H 0.3300 0.5778 0.2762
C10 C 0.3977(4) 0.3344(3) 0.23152(8)
H10 H 0.3529 0.2014 0.2351
H11 H 0.5996 0.3633 0.2291
C11 C 0.2541(4) 0.3777(3) 0.17874(8)
H12 H 0.0523 0.3495 0.1814
H13 H 0.2993 0.5107 0.1753
C12 C 0.3420(4) 0.2667(3) 0.12747(8)
H14 H 0.2792 0.1342 0.1291
H15 H 0.5452 0.2847 0.1267
C13 C 0.2219(4) 0.3251(3) 0.07480(8)
H16 H 0.0187 0.3078 0.0759
H17 H 0.2852 0.4577 0.0733
C14 C 0.3059(4) 0.2153(3) 0.02283(8)
H18 H 0.5091 0.2301 0.0221
H19 H 0.2384 0.0831 0.0238
C15 C 0.1908(4) 0.2782(3) -0.02936(8)
H20 H 0.2580 0.4106 -0.0301
H21 H -0.0124 0.2636 -0.0285
C16 C 0.2727(4) 0.1703(3) -0.08174(8)
H22 H 0.2035 0.0380 -0.0813
H23 H 0.4758 0.1840 -0.0826
C17 C 0.1571(5) 0.2372(3) -0.13351(8)
H24 H -0.0458 0.2247 -0.1324
H25 H 0.2275 0.3693 -0.1340
C18 C 0.2354(5) 0.1295(3) -0.18605(9)
H26 H 0.4360 0.1440 -0.1880
H27 H 0.1565 0.1777 -0.2169
H28 H 0.1629 -0.0011 -0.1863
Se1A Se 1.48748(3) 0.58093(2) 0.650097(6)
N1A N 1.1961(3) 0.6564(2) 0.55727(7)
C1A C 0.9606(4) 0.5827(3) 0.51889(8)
H1A H 0.7960 0.5412 0.5388
H2A H 0.9166 0.6803 0.4974
C2A C 1.2902(4) 0.8300(3) 0.55965(8)
H3A H 1.2034 0.9039 0.5377
C3A C 1.5313(4) 0.9191(3) 0.59571(8)
C4A C 1.6482(4) 1.1021(3) 0.58745(8)
H4A H 1.5664 1.1627 0.5611
C5A C 1.8829(4) 1.1948(3) 0.61764(8)
H5A H 1.9597 1.3154 0.6112
C6A C 2.0014(4) 1.1050(3) 0.65758(8)
H6A H 2.1598 1.1656 0.6779
C7A C 1.8855(4) 0.9254(3) 0.66752(8)
H7A H 1.9659 0.8681 0.6948
C8A C 1.6494(4) 0.8292(3) 0.63710(7)
C9A C 1.6940(4) 0.5538(3) 0.71798(8)
H8A H 1.8924 0.5934 0.7136
H9A H 1.6700 0.4222 0.7238
C10A C 1.6023(4) 0.6656(3) 0.76848(8)
H10A H 1.6471 0.7986 0.7649
H11A H 1.4004 0.6367 0.7709
C11A C 1.7459(4) 0.6223(3) 0.82126(8)
H12A H 1.9477 0.6505 0.8186
H13A H 1.7007 0.4893 0.8247
C12A C 1.6580(4) 0.7333(3) 0.87253(8)
H14A H 1.7208 0.8658 0.8709
H15A H 1.4548 0.7153 0.8733
C13A C 1.7781(4) 0.6749(3) 0.92520(8)
H16A H 1.9813 0.6922 0.9241
H17A H 1.7148 0.5423 0.9267
C14A C 1.6941(4) 0.7847(3) 0.97717(8)
H18A H 1.4909 0.7699 0.9779
H19A H 1.7616 0.9169 0.9762
C15A C 1.8092(4) 0.7218(3) 1.02936(8)
H20A H 1.7420 0.5894 1.0301
H21A H 2.0124 0.7364 1.0285
C16A C 1.7273(4) 0.8297(3) 1.08174(8)
H22A H 1.7965 0.9620 1.0813
H23A H 1.5242 0.8160 1.0826
C17A C 1.8429(5) 0.7628(3) 1.13351(8)
H24A H 2.0458 0.7753 1.1324
H25A H 1.7725 0.6307 1.1340
C18A C 1.7646(5) 0.8705(3) 1.18605(9)
H26A H 1.5640 0.8560 1.1880
H27A H 1.8435 0.8223 1.2169
H28A H 1.8371 1.0011 1.1863
loop_
_geom_bond_atom_site_label_1
_geom_bond_atom_site_label_2
_geom_bond_site_symmetry_1
_geom_bond_site_symmetry_2
Se1 C8 1_555 1_555
N1 C1 1_555 1_555
C1 H1 1_555 1_555
H2 C1 1_555 1_555
C2 N1 1_555 1_555
H3 C2 1_555 1_555
C3 C2 1_555 1_555
C4 C3 1_555 1_555
H4 C4 1_555 1_555
C5 C4 1_555 1_555
H5 C5 1_555 1_555
C6 C5 1_555 1_555
H6 C6 1_555 1_555
C7 C6 1_555 1_555
H7 C7 1_555 1_555
C8 C3 1_555 1_555
C9 Se1 1_555 1_555
H8 C9 1_555 1_555
H9 C9 1_555 1_555
C10 C9 1_555 1_555
H10 C10 1_555 1_555
H11 C10 1_555 1_555
C11 C10 1_555 1_555
H12 C11 1_555 1_555
H13 C11 1_555 1_555
C12 C11 1_555 1_555
H14 C12 1_555 1_555
H15 C12 1_555 1_555
C13 C12 1_555 1_555
H16 C13 1_555 1_555
H17 C13 1_555 1_555
C14 C13 1_555 1_555
H18 C14 1_555 1_555
H19 C14 1_555 1_555
C15 C14 1_555 1_555
H20 C15 1_555 1_555
H21 C15 1_555 1_555
C16 C15 1_555 1_555
H22 C16 1_555 1_555
H23 C16 1_555 1_555
C17 C16 1_555 1_555
H24 C17 1_555 1_555
H25 C17 1_555 1_555
C18 C17 1_555 1_555
H26 C18 1_555 1_555
H27 C18 1_555 1_555
H28 C18 1_555 1_555
Se1A C8A 1_555 1_555
N1A C1A 1_555 1_555
C1A C1 1_555 1_555
H1A C1A 1_555 1_555
H2A C1A 1_555 1_555
C2A N1A 1_555 1_555
H3A C2A 1_555 1_555
C3A C2A 1_555 1_555
C4A C3A 1_555 1_555
H4A C4A 1_555 1_555
C5A C4A 1_555 1_555
H5A C5A 1_555 1_555
C6A C5A 1_555 1_555
H6A C6A 1_555 1_555
C7A C6A 1_555 1_555
H7A C7A 1_555 1_555
C8A C3A 1_555 1_555
C9A Se1A 1_555 1_555
H8A C9A 1_555 1_555
H9A C9A 1_555 1_555
C10A C9A 1_555 1_555
H10A C10A 1_555 1_555
H11A C10A 1_555 1_555
C11A C10A 1_555 1_555
H12A C11A 1_555 1_555
H13A C11A 1_555 1_555
C12A C11A 1_555 1_555
H14A C12A 1_555 1_555
H15A C12A 1_555 1_555
C13A C12A 1_555 1_555
H16A C13A 1_555 1_555
H17A C13A 1_555 1_555
C14A C13A 1_555 1_555
H18A C14A 1_555 1_555
H19A C14A 1_555 1_555
C15A C14A 1_555 1_555
H20A C15A 1_555 1_555
H21A C15A 1_555 1_555
C16A C15A 1_555 1_555
H22A C16A 1_555 1_555
H23A C16A 1_555 1_555
C17A C16A 1_555 1_555
H24A C17A 1_555 1_555
H25A C17A 1_555 1_555
C18A C17A 1_555 1_555
H26A C18A 1_555 1_555
H27A C18A 1_555 1_555
H28A C18A 1_555 1_555
C7 C8 1_555 1_555
C7A C8A 1_555 1_555

#END
