
#######################################################################
#
#                 Cambridge Crystallographic Data Centre
#                                CCDC 
#
#######################################################################
#
# If this CIF has been generated from an entry in the Cambridge 
# Structural Database, then it will include bibliographic, chemical, 
# crystal, experimental, refinement or atomic coordinate data resulting 
# from the CCDC's data processing and validation procedures.
#
#######################################################################

data_ITAPUQ
_chemical_formula_moiety         'C20 H11 F3 N2 O3'
_chemical_name_systematic        
2-amino-5-oxo-4-(3-(trifluoromethyl)phenyl)-4H,5H-pyrano[3,2-c]chromene-3-carbonitrile
_symmetry_cell_setting           triclinic
_symmetry_space_group_name_H-M   'P -1'
_symmetry_Int_Tables_number      2
_space_group_name_Hall           '-P 1'
loop_
_symmetry_equiv_pos_site_id
_symmetry_equiv_pos_as_xyz
1 x,y,z
2 -x,-y,-z
_cell_length_a                   7.9416(6)
_cell_length_b                   10.9917(9)
_cell_length_c                   11.4755(6)
_cell_angle_alpha                112.429(7)
_cell_angle_beta                 105.094(6)
_cell_angle_gamma                97.364(6)
_cell_volume                     864.453
_exptl_crystal_colour            colorless
_exptl_crystal_description       block
_cell_formula_units_Z            2
loop_
_atom_site_label
_atom_site_type_symbol
_atom_site_fract_x
_atom_site_fract_y
_atom_site_fract_z
O1 O 0.2426(2) 0.54392(18) 0.36046(19)
C1 C 0.2857(4) 0.6834(3) 0.4077(3)
C2 C 0.1585(3) 0.7533(3) 0.4123(2)
C3 C -0.0415(3) 0.6869(2) 0.3626(2)
H1 H -0.0929 0.7356 0.4303
C4 C -0.0619(3) 0.5417(2) 0.3465(2)
C5 C 0.0723(3) 0.4796(3) 0.3406(2)
C6 C 0.2184(4) 0.8961(3) 0.4592(3)
C7 C -0.2348(4) 0.4667(3) 0.3340(3)
C8 C 0.0483(4) 0.3377(3) 0.3100(2)
C9 C -0.1224(4) 0.2670(3) 0.2909(3)
C10 C -0.1622(5) 0.1286(3) 0.2559(3)
H2 H -0.2768 0.0818 0.2427
C11 C -0.0294(5) 0.0622(3) 0.2411(4)
H3 H -0.0548 -0.0307 0.2179
C12 C 0.1428(5) 0.1300(3) 0.2598(3)
H4 H 0.2307 0.0827 0.2485
C13 C 0.1824(4) 0.2678(3) 0.2952(3)
H5 H 0.2977 0.3140 0.3091
C14 C -0.1426(4) 0.6885(3) 0.2295(3)
C15 C -0.0752(4) 0.6524(3) 0.1252(3)
H6 H 0.0336 0.6277 0.1357
C16 C -0.1680(5) 0.6524(4) 0.0051(3)
H7 H -0.1212 0.6280 -0.0645
C17 C -0.3289(5) 0.6884(4) -0.0120(3)
H8 H -0.3921 0.6867 -0.0933
C18 C -0.3955(4) 0.7267(3) 0.0915(3)
C19 C -0.3028(4) 0.7266(3) 0.2124(3)
H9 H -0.3493 0.7524 0.2822
C20 C -0.5682(5) 0.7676(4) 0.0743(4)
N1 N 0.4634(3) 0.7296(3) 0.4454(3)
H10 H 0.5111 0.8155 0.4781
H11 H 0.5307 0.6736 0.4372
N2 N 0.2723(4) 1.0107(3) 0.4965(3)
O2 O -0.2569(3) 0.33150(19) 0.3067(2)
O3 O -0.3622(3) 0.5127(2) 0.3460(2)
F1 F -0.7057(3) 0.6730(3) -0.0209(3)
F2 F -0.5674(4) 0.8652(3) 0.0334(4)
F3 F -0.6102(4) 0.8144(5) 0.1802(3)
loop_
_geom_bond_atom_site_label_1
_geom_bond_atom_site_label_2
_geom_bond_site_symmetry_1
_geom_bond_site_symmetry_2
O1 C1 1_555 1_555
C1 C2 1_555 1_555
C2 C3 1_555 1_555
C3 H1 1_555 1_555
C4 C3 1_555 1_555
C5 O1 1_555 1_555
C6 C2 1_555 1_555
C7 C4 1_555 1_555
C8 C5 1_555 1_555
C9 C8 1_555 1_555
C10 C9 1_555 1_555
H2 C10 1_555 1_555
C11 C10 1_555 1_555
H3 C11 1_555 1_555
C12 C11 1_555 1_555
H4 C12 1_555 1_555
C13 C8 1_555 1_555
H5 C13 1_555 1_555
C14 C3 1_555 1_555
C15 C14 1_555 1_555
H6 C15 1_555 1_555
C16 C15 1_555 1_555
H7 C16 1_555 1_555
C17 C16 1_555 1_555
H8 C17 1_555 1_555
C18 C17 1_555 1_555
C19 C14 1_555 1_555
H9 C19 1_555 1_555
C20 C18 1_555 1_555
N1 C1 1_555 1_555
H10 N1 1_555 1_555
H11 N1 1_555 1_555
N2 C6 1_555 1_555
O2 C7 1_555 1_555
O3 C7 1_555 1_555
F1 C20 1_555 1_555
F2 C20 1_555 1_555
F3 C20 1_555 1_555
C4 C5 1_555 1_555
C9 O2 1_555 1_555
C12 C13 1_555 1_555
C18 C19 1_555 1_555

#END
