
#######################################################################
#
#                 Cambridge Crystallographic Data Centre
#                                CCDC 
#
#######################################################################
#
# If this CIF has been generated from an entry in the Cambridge 
# Structural Database, then it will include bibliographic, chemical, 
# crystal, experimental, refinement or atomic coordinate data resulting 
# from the CCDC's data processing and validation procedures.
#
#######################################################################

data_ITAQOL
_chemical_formula_moiety         'C25 H14 Cl1 F1 O6'
_chemical_name_systematic        
3,3'-((4-chloro-3-fluorophenyl)methylene)bis(4-hydroxy-2H-chromen-2-one)
_symmetry_cell_setting           monoclinic
_symmetry_space_group_name_H-M   'P 21/c'
_symmetry_Int_Tables_number      14
_space_group_name_Hall           '-P 2ybc'
loop_
_symmetry_equiv_pos_site_id
_symmetry_equiv_pos_as_xyz
1 x,y,z
2 -x,1/2+y,1/2-z
3 -x,-y,-z
4 x,1/2-y,1/2+z
_cell_length_a                   10.1874(7)
_cell_length_b                   10.1667(6)
_cell_length_c                   20.0790(12)
_cell_angle_alpha                90
_cell_angle_beta                 96.571(7)
_cell_angle_gamma                90
_cell_volume                     2065.97
_cell_formula_units_Z            4
loop_
_atom_site_label
_atom_site_type_symbol
_atom_site_fract_x
_atom_site_fract_y
_atom_site_fract_z
C1 C 1.1433(3) -0.1604(2) 0.19764(13)
C2 C 1.3575(3) -0.2390(3) 0.17076(14)
C3 C 0.9430(3) -0.0078(2) 0.17933(13)
C4 C 1.0103(3) -0.1139(2) 0.29406(13)
C5 C 1.0539(3) -0.0652(2) 0.22913(13)
H1 H 1.1109 0.0102 0.2423
C6 C 1.0829(3) -0.2668(3) 0.15917(13)
C7 C 0.9031(3) -0.1879(2) 0.30060(13)
C8 C 1.2935(3) -0.3356(3) 0.13071(14)
C9 C 1.0977(3) -0.0797(3) 0.35294(14)
C10 C 0.8621(3) -0.2133(3) 0.36607(15)
C11 C 0.9411(3) -0.1646(3) 0.42074(15)
C12 C 0.9622(3) 0.0087(3) 0.11239(15)
H2 H 1.0400 -0.0209 0.0973
C13 C 1.2768(3) -0.1516(3) 0.20630(14)
C14 C 1.3615(3) -0.4231(3) 0.09515(15)
H3 H 1.3168 -0.4876 0.0687
C15 C 0.7526(3) 0.1128(3) 0.08829(17)
C16 C 0.9085(4) -0.1795(3) 0.48523(17)
H4 H 0.9617 -0.1441 0.5216
C17 C 1.5623(3) -0.3181(3) 0.13865(17)
H5 H 1.6538 -0.3123 0.1407
C18 C 0.8681(3) 0.0680(3) 0.06850(16)
C19 C 0.7487(3) -0.2822(3) 0.37642(17)
H6 H 0.6944 -0.3162 0.3401
C20 C 0.7321(3) 0.0980(3) 0.15443(18)
C21 C 1.4944(3) -0.2315(3) 0.17460(17)
H7 H 1.5400 -0.1680 0.2014
C22 C 0.7969(4) -0.2469(4) 0.49421(19)
H8 H 0.7737 -0.2577 0.5373
C23 C 1.4956(3) -0.4134(3) 0.09957(17)
H9 H 1.5427 -0.4719 0.0758
C24 C 0.7170(4) -0.3000(4) 0.4405(2)
H10 H 0.6420 -0.3476 0.4478
C25 C 0.8266(3) 0.0389(3) 0.19923(15)
H11 H 0.8116 0.0303 0.2438
O1 O 1.1583(2) -0.34933(17) 0.12603(10)
O2 O 0.82533(19) -0.24158(18) 0.24991(10)
H12 H 0.8446 -0.2301 0.2077
O3 O 0.9651(2) -0.29274(17) 0.15263(10)
O4 O 1.0587(2) -0.10191(19) 0.41397(9)
O5 O 1.2089(2) -0.03436(19) 0.35245(10)
O6 O 1.34420(19) -0.0661(2) 0.24695(11)
H13 H 1.3000 -0.0091 0.2704
F1 F 0.8779(4) 0.0870(4) 0.00652(17)
Cl1 Cl 0.63717(11) 0.18704(13) 0.03153(6)
F2? F 0.6255(4) 0.1346(5) 0.1690(2)
loop_
_geom_bond_atom_site_label_1
_geom_bond_atom_site_label_2
_geom_bond_site_symmetry_1
_geom_bond_site_symmetry_2
C1 C5 1_555 1_555
C2 C8 1_555 1_555
C3 C5 1_555 1_555
C4 C5 1_555 1_555
C5 H1 1_555 1_555
C6 C1 1_555 1_555
C7 C4 1_555 1_555
C8 C14 1_555 1_555
C9 C4 1_555 1_555
C10 C7 1_555 1_555
C11 C10 1_555 1_555
C12 C3 1_555 1_555
H2 C12 1_555 1_555
C13 C1 1_555 1_555
C14 H3 1_555 1_555
C15 C18 1_555 1_555
C16 C11 1_555 1_555
H4 C16 1_555 1_555
C17 H5 1_555 1_555
C18 C12 1_555 1_555
C19 C10 1_555 1_555
H6 C19 1_555 1_555
C20 C15 1_555 1_555
C21 C2 1_555 1_555
H7 C21 1_555 1_555
C22 C16 1_555 1_555
H8 C22 1_555 1_555
C23 C14 1_555 1_555
H9 C23 1_555 1_555
C24 C19 1_555 1_555
H10 C24 1_555 1_555
C25 C3 1_555 1_555
H11 C25 1_555 1_555
O1 C6 1_555 1_555
O2 C7 1_555 1_555
H12 O2 1_555 1_555
O3 C6 1_555 1_555
O4 C9 1_555 1_555
O5 C9 1_555 1_555
O6 C13 1_555 1_555
H13 O6 1_555 1_555
F1 C18 1_555 1_555
Cl1 C15 1_555 1_555
C2 C13 1_555 1_555
C8 O1 1_555 1_555
C11 O4 1_555 1_555
C17 C21 1_555 1_555
C17 C23 1_555 1_555
C20 C25 1_555 1_555
C22 C24 1_555 1_555

#END
