
#######################################################################
#
#                 Cambridge Crystallographic Data Centre
#                                CCDC 
#
#######################################################################
#
# If this CIF has been generated from an entry in the Cambridge 
# Structural Database, then it will include bibliographic, chemical, 
# crystal, experimental, refinement or atomic coordinate data resulting 
# from the CCDC's data processing and validation procedures.
#
#######################################################################

data_ITAREC
_chemical_formula_moiety         'C18 H18 N2 O2'
_chemical_name_systematic        
2-amino-7,7-dimethyl-5-oxo-4-phenyl-5,6,7,8-tetrahydro-4H-chromene-3-carbonitrile
_symmetry_cell_setting           monoclinic
_symmetry_space_group_name_H-M   'P 21/c'
_symmetry_Int_Tables_number      14
_space_group_name_Hall           '-P 2ybc'
loop_
_symmetry_equiv_pos_site_id
_symmetry_equiv_pos_as_xyz
1 x,y,z
2 -x,1/2+y,1/2-z
3 -x,-y,-z
4 x,1/2-y,1/2+z
_cell_length_a                   11.2938(5)
_cell_length_b                   9.4591(5)
_cell_length_c                   14.9132(7)
_cell_angle_alpha                90
_cell_angle_beta                 99.304(4)
_cell_angle_gamma                90
_cell_volume                     1572.21
_exptl_crystal_colour            colorless
_exptl_crystal_description       block
_cell_formula_units_Z            4
loop_
_atom_site_label
_atom_site_type_symbol
_atom_site_fract_x
_atom_site_fract_y
_atom_site_fract_z
O1 O 0.88595(10) 0.80157(15) 0.03596(8)
O2 O 0.89656(12) 0.57081(17) 0.31689(8)
C1 C 0.74629(14) 0.7009(2) 0.16883(11)
H1 H 0.7287 0.7350 0.2273
C2 C 0.88030(14) 0.68681(18) 0.17680(11)
C3 C 0.70522(14) 0.8132(2) 0.09804(11)
C4 C 0.94075(14) 0.73268(19) 0.11267(11)
C5 C 0.77161(14) 0.8514(2) 0.03404(11)
C6 C 1.07179(14) 0.7196(2) 0.11339(12)
H2 H 1.1099 0.8092 0.1318
H3 H 1.0860 0.6992 0.0523
C7 C 0.67995(15) 0.5620(2) 0.14768(11)
C8 C 0.94821(16) 0.6195(2) 0.25817(11)
N1 N 0.49700(15) 0.9198(2) 0.09493(11)
N2 N 0.74220(13) 0.9375(2) -0.03707(10)
H4 H 0.6727 0.9769 -0.0467
H5 H 0.7928 0.9535 -0.0732
C9 C 0.59005(16) 0.8726(2) 0.09516(11)
C10 C 1.08219(16) 0.6193(3) 0.26703(13)
H6 H 1.1137 0.5421 0.3067
H7 H 1.1128 0.7067 0.2959
C11 C 0.59430(17) 0.5185(2) 0.19645(13)
H8 H 0.5781 0.5732 0.2448
C12 C 1.12907(16) 0.6042(2) 0.17704(12)
C13 C 0.5312(2) 0.3945(3) 0.17521(17)
H9 H 0.4728 0.3672 0.2090
C14 C 1.0961(2) 0.4592(2) 0.13550(15)
H10 H 1.0105 0.4480 0.1260
H11 H 1.1325 0.3869 0.1760
H12 H 1.1245 0.4515 0.0784
C15 C 0.7025(2) 0.4767(3) 0.07774(16)
H13 H 0.7609 0.5038 0.0438
C16 C 0.6414(3) 0.3525(3) 0.05655(17)
H14 H 0.6593 0.2962 0.0094
C17 C 1.26486(18) 0.6217(3) 0.19252(17)
H15 H 1.2938 0.6119 0.1357
H16 H 1.3009 0.5506 0.2341
H17 H 1.2855 0.7137 0.2175
C18 C 0.5541(2) 0.3120(3) 0.10494(15)
H18 H 0.5108 0.2293 0.0901
loop_
_geom_bond_atom_site_label_1
_geom_bond_atom_site_label_2
_geom_bond_site_symmetry_1
_geom_bond_site_symmetry_2
O1 C4 1_555 1_555
O2 C8 1_555 1_555
C1 H1 1_555 1_555
C2 C1 1_555 1_555
C3 C1 1_555 1_555
C4 C2 1_555 1_555
C5 O1 1_555 1_555
C6 C4 1_555 1_555
H2 C6 1_555 1_555
H3 C6 1_555 1_555
C7 C1 1_555 1_555
C8 C2 1_555 1_555
N1 C9 1_555 1_555
N2 C5 1_555 1_555
H4 N2 1_555 1_555
H5 N2 1_555 1_555
C9 C3 1_555 1_555
C10 C8 1_555 1_555
H6 C10 1_555 1_555
H7 C10 1_555 1_555
C11 C7 1_555 1_555
H8 C11 1_555 1_555
C12 C6 1_555 1_555
C13 C11 1_555 1_555
H9 C13 1_555 1_555
C14 C12 1_555 1_555
H10 C14 1_555 1_555
H11 C14 1_555 1_555
H12 C14 1_555 1_555
C15 C7 1_555 1_555
H13 C15 1_555 1_555
C16 C15 1_555 1_555
H14 C16 1_555 1_555
C17 C12 1_555 1_555
H15 C17 1_555 1_555
H16 C17 1_555 1_555
H17 C17 1_555 1_555
C18 C13 1_555 1_555
H18 C18 1_555 1_555
C3 C5 1_555 1_555
C10 C12 1_555 1_555
C16 C18 1_555 1_555

#END
