
#######################################################################
#
#                 Cambridge Crystallographic Data Centre
#                                CCDC 
#
#######################################################################
#
# If this CIF has been generated from an entry in the Cambridge 
# Structural Database, then it will include bibliographic, chemical, 
# crystal, experimental, refinement or atomic coordinate data resulting 
# from the CCDC's data processing and validation procedures.
#
#######################################################################

data_ITARAY
_chemical_formula_moiety         'C26 H18 N2 O2'
_chemical_name_systematic        
2-amino-4-(3-phenoxyphenyl)-4H-benzo[h]chromene-3-carbonitrile
_symmetry_cell_setting           monoclinic
_symmetry_space_group_name_H-M   'P 21/c'
_symmetry_Int_Tables_number      14
_space_group_name_Hall           '-P 2ybc'
loop_
_symmetry_equiv_pos_site_id
_symmetry_equiv_pos_as_xyz
1 x,y,z
2 -x,1/2+y,1/2-z
3 -x,-y,-z
4 x,1/2-y,1/2+z
_cell_length_a                   11.908(3)
_cell_length_b                   15.4731(17)
_cell_length_c                   11.9343(18)
_cell_angle_alpha                90
_cell_angle_beta                 116.15(2)
_cell_angle_gamma                90
_cell_volume                     1973.86
_exptl_crystal_colour            colorless
_exptl_crystal_description       block
_cell_formula_units_Z            4
loop_
_atom_site_label
_atom_site_type_symbol
_atom_site_fract_x
_atom_site_fract_y
_atom_site_fract_z
C1 C 0.4037(3) 0.64435(18) 0.7001(2)
C2 C 0.3888(3) 0.58970(18) 0.7815(2)
C3 C 0.3522(3) 0.49598(18) 0.7534(2)
H1 H 0.4200 0.4611 0.8150
C4 C 0.3420(3) 0.47333(17) 0.6255(2)
C5 C 0.3538(2) 0.53396(17) 0.5490(2)
C6 C 0.3392(2) 0.51531(18) 0.4265(2)
C7 C 0.3164(3) 0.4285(2) 0.3866(3)
C8 C 0.3063(3) 0.3647(2) 0.4670(3)
H2 H 0.2919 0.3074 0.4412
C9 C 0.3174(3) 0.38724(19) 0.5816(3)
H3 H 0.3086 0.3449 0.6324
C10 C 0.3029(3) 0.4093(2) 0.2648(3)
H4 H 0.2888 0.3526 0.2361
C11 C 0.3106(3) 0.4729(3) 0.1901(3)
H5 H 0.3018 0.4591 0.1107
C12 C 0.3314(3) 0.5579(2) 0.2299(3)
H6 H 0.3354 0.6005 0.1768
C13 C 0.3460(3) 0.5798(2) 0.3460(2)
H7 H 0.3604 0.6370 0.3722
C14 C 0.4143(3) 0.62438(19) 0.9001(3)
C15 C 0.2324(3) 0.47228(17) 0.7624(2)
C16 C 0.1192(3) 0.5072(2) 0.6809(3)
H8 H 0.1162 0.5463 0.6205
C17 C 0.0108(3) 0.4851(2) 0.6880(3)
H9 H -0.0645 0.5101 0.6332
C18 C 0.0122(3) 0.4263(2) 0.7753(3)
H10 H -0.0615 0.4110 0.7792
C19 C 0.1246(3) 0.39048(18) 0.8566(3)
C20 C 0.2340(3) 0.41307(17) 0.8495(3)
H11 H 0.3094 0.3880 0.9042
C21 C 0.0406(3) 0.31349(18) 0.9775(3)
C22 C -0.0057(4) 0.2331(2) 0.9627(4)
H12 H 0.0202 0.1907 0.9239
C23 C -0.0935(4) 0.2146(2) 1.0068(5)
H13 H -0.1249 0.1588 0.9998
C24 C -0.1328(4) 0.2762(3) 1.0589(4)
H14 H -0.1920 0.2630 1.0873
C25 C -0.0891(4) 0.3558(3) 1.0708(3)
H15 H -0.1193 0.3988 1.1049
C26 C 0.0009(4) 0.3748(2) 1.0327(4)
H16 H 0.0349 0.4301 1.0446
O1 O 0.38173(18) 0.62016(12) 0.58312(16)
O2 O 0.1388(2) 0.32948(14) 0.9470(2)
N1 N 0.4413(3) 0.72704(16) 0.7193(2)
H17 H 0.4480 0.7559 0.6609
H18 H 0.4588 0.7512 0.7899
N2 N 0.4362(3) 0.65405(19) 0.9958(2)
loop_
_geom_bond_atom_site_label_1
_geom_bond_atom_site_label_2
_geom_bond_site_symmetry_1
_geom_bond_site_symmetry_2
C1 C2 1_555 1_555
C2 C3 1_555 1_555
C3 H1 1_555 1_555
C4 C3 1_555 1_555
C5 C4 1_555 1_555
C6 C5 1_555 1_555
C7 C6 1_555 1_555
C8 C7 1_555 1_555
H2 C8 1_555 1_555
C9 C4 1_555 1_555
H3 C9 1_555 1_555
C10 C7 1_555 1_555
H4 C10 1_555 1_555
C11 C10 1_555 1_555
H5 C11 1_555 1_555
C12 C11 1_555 1_555
H6 C12 1_555 1_555
C13 C6 1_555 1_555
H7 C13 1_555 1_555
C14 C2 1_555 1_555
C15 C3 1_555 1_555
C16 C15 1_555 1_555
H8 C16 1_555 1_555
C17 C16 1_555 1_555
H9 C17 1_555 1_555
C18 C17 1_555 1_555
H10 C18 1_555 1_555
C19 C18 1_555 1_555
C20 C15 1_555 1_555
H11 C20 1_555 1_555
C21 C22 1_555 1_555
C22 H12 1_555 1_555
C23 C22 1_555 1_555
H13 C23 1_555 1_555
C24 C23 1_555 1_555
H14 C24 1_555 1_555
C25 C24 1_555 1_555
H15 C25 1_555 1_555
C26 C21 1_555 1_555
H16 C26 1_555 1_555
O1 C1 1_555 1_555
O2 C19 1_555 1_555
N1 C1 1_555 1_555
H17 N1 1_555 1_555
H18 N1 1_555 1_555
N2 C14 1_555 1_555
C5 O1 1_555 1_555
C8 C9 1_555 1_555
C12 C13 1_555 1_555
C19 C20 1_555 1_555
C21 O2 1_555 1_555
C25 C26 1_555 1_555

#END
