
#######################################################################
#
#                 Cambridge Crystallographic Data Centre
#                                CCDC 
#
#######################################################################
#
# If this CIF has been generated from an entry in the Cambridge 
# Structural Database, then it will include bibliographic, chemical, 
# crystal, experimental, refinement or atomic coordinate data resulting 
# from the CCDC's data processing and validation procedures.
#
#######################################################################

data_ITAVEG
_chemical_formula_moiety         'C23 H23 Br1 O3'
_chemical_name_systematic        
(S)-4-((S)-(7-bromo-3-methoxynaphthalen-2-yl)(phenyl)methyl)-2,2-dimethyl-1,3-dioxolane
_symmetry_cell_setting           triclinic
_symmetry_space_group_name_H-M   'P -1'
_symmetry_Int_Tables_number      2
_space_group_name_Hall           '-P 1'
loop_
_symmetry_equiv_pos_site_id
_symmetry_equiv_pos_as_xyz
1 x,y,z
2 -x,-y,-z
_cell_length_a                   10.1365(4)
_cell_length_b                   11.0153(5)
_cell_length_c                   11.2158(5)
_cell_angle_alpha                60.615(5)
_cell_angle_beta                 79.588(4)
_cell_angle_gamma                66.477(4)
_cell_volume                     1000.34
_exptl_crystal_colour            'light colorless'
_exptl_crystal_description       block
_cell_formula_units_Z            2
loop_
_atom_site_label
_atom_site_type_symbol
_atom_site_fract_x
_atom_site_fract_y
_atom_site_fract_z
Br1 Br 0.34949(5) 0.16451(5) 0.22467(4)
O1 O 0.61664(17) 0.18936(17) 0.7916(2)
O2 O 0.76220(16) 0.24592(16) 0.87160(17)
O3 O 0.11671(16) 0.39451(18) 0.84976(17)
C1 C 0.32343(19) 0.5525(2) 0.7433(2)
C2 C 0.1626(2) 0.3613(2) 0.7433(2)
C3 C 0.2868(2) 0.2835(2) 0.5349(2)
C4 C 0.3077(2) 0.3508(2) 0.7058(2)
C5 C 0.1411(2) 0.3004(2) 0.5705(2)
C6 C 0.7372(2) 0.1238(2) 0.8791(2)
C7 C 0.3865(2) 0.3865(2) 0.7809(2)
H1 H 0.3734 0.3300 0.8792
C8 C 0.3665(2) 0.3103(2) 0.6057(2)
H2 H 0.4619 0.2998 0.5828
C9 C 0.2969(2) 0.6622(2) 0.6081(2)
H3 H 0.3128 0.6346 0.5391
C10 C 0.3481(3) 0.2419(3) 0.4310(2)
H4 H 0.4440 0.2287 0.4084
C11 C 0.2973(2) 0.5979(2) 0.8437(2)
H5 H 0.3136 0.5263 0.9351
C12 C 0.5478(2) 0.3440(2) 0.7555(2)
H6 H 0.5637 0.4037 0.6586
C13 C 0.0821(2) 0.3378(2) 0.6771(2)
H7 H -0.0126 0.3466 0.7026
C14 C 0.2661(3) 0.2211(3) 0.3637(2)
C15 C 0.0609(2) 0.2792(2) 0.4955(2)
H8 H -0.0354 0.2923 0.5160
C16 C 0.6278(2) 0.3650(2) 0.8432(3)
H9 H 0.6399 0.4609 0.7933
H10 H 0.5769 0.3584 0.9269
C17 C 0.2475(3) 0.7473(3) 0.8102(3)
H11 H 0.2302 0.7754 0.8791
C18 C 0.2473(3) 0.8121(3) 0.5742(2)
H12 H 0.2301 0.8843 0.4830
C19 C 0.1206(3) 0.2405(3) 0.3948(2)
H13 H 0.0660 0.2271 0.3471
C20 C 0.2233(3) 0.8546(3) 0.6758(3)
H14 H 0.1910 0.9553 0.6532
C21 C -0.0210(3) 0.3933(3) 0.9037(3)
H15 H -0.0940 0.4718 0.8358
H16 H -0.0357 0.4086 0.9831
H17 H -0.0265 0.2986 0.9289
C22 C 0.8671(3) 0.0408(3) 0.8235(3)
H18 H 0.8532 -0.0422 0.8272
H19 H 0.9506 0.0049 0.8775
H20 H 0.8806 0.1069 0.7303
C23 C 0.7028(4) 0.0267(4) 1.0226(3)
H21 H 0.6249 0.0873 1.0556
H22 H 0.7861 -0.0215 1.0808
H23 H 0.6756 -0.0476 1.0231
loop_
_geom_bond_atom_site_label_1
_geom_bond_atom_site_label_2
_geom_bond_site_symmetry_1
_geom_bond_site_symmetry_2
Br1 C14 1_555 1_555
O1 C6 1_555 1_555
O2 C6 1_555 1_555
O3 C2 1_555 1_555
C1 C7 1_555 1_555
C2 C4 1_555 1_555
C3 C5 1_555 1_555
C4 C7 1_555 1_555
C5 C13 1_555 1_555
C6 C22 1_555 1_555
C7 H1 1_555 1_555
C8 C3 1_555 1_555
H2 C8 1_555 1_555
C9 C1 1_555 1_555
H3 C9 1_555 1_555
C10 C3 1_555 1_555
H4 C10 1_555 1_555
C11 C1 1_555 1_555
H5 C11 1_555 1_555
C12 O1 1_555 1_555
H6 C12 1_555 1_555
C13 C2 1_555 1_555
H7 C13 1_555 1_555
C14 C10 1_555 1_555
C15 C5 1_555 1_555
H8 C15 1_555 1_555
C16 O2 1_555 1_555
H9 C16 1_555 1_555
H10 C16 1_555 1_555
C17 C11 1_555 1_555
H11 C17 1_555 1_555
C18 C9 1_555 1_555
H12 C18 1_555 1_555
C19 C14 1_555 1_555
H13 C19 1_555 1_555
C20 C17 1_555 1_555
H14 C20 1_555 1_555
C21 O3 1_555 1_555
H15 C21 1_555 1_555
H16 C21 1_555 1_555
H17 C21 1_555 1_555
C22 H18 1_555 1_555
H19 C22 1_555 1_555
H20 C22 1_555 1_555
C23 C6 1_555 1_555
H21 C23 1_555 1_555
H22 C23 1_555 1_555
H23 C23 1_555 1_555
C4 C8 1_555 1_555
C7 C12 1_555 1_555
C12 C16 1_555 1_555
C15 C19 1_555 1_555
C18 C20 1_555 1_555

#END
