
#######################################################################
#
#                 Cambridge Crystallographic Data Centre
#                                CCDC 
#
#######################################################################
#
# If this CIF has been generated from an entry in the Cambridge 
# Structural Database, then it will include bibliographic, chemical, 
# crystal, experimental, refinement or atomic coordinate data resulting 
# from the CCDC's data processing and validation procedures.
#
#######################################################################

data_ITEDUI
_chemical_formula_moiety         'C40 H34 N4 O2'
_chemical_name_systematic        
4'-(4-(2-(9-(2-(2-methoxyethoxy)ethyl)-9H-carbazol-3-yl)vinyl)phenyl)-2,2':6',2''-terpyridine
_symmetry_cell_setting           triclinic
_symmetry_space_group_name_H-M   'P 1'
_symmetry_Int_Tables_number      1
_space_group_name_Hall           'P 1'
loop_
_symmetry_equiv_pos_site_id
_symmetry_equiv_pos_as_xyz
1 x,y,z
_cell_length_a                   5.559(5)
_cell_length_b                   11.240(5)
_cell_length_c                   13.638(5)
_cell_angle_alpha                75.767(5)
_cell_angle_beta                 83.930(5)
_cell_angle_gamma                81.445(5)
_cell_volume                     814.668
_exptl_crystal_colour            yellow
_exptl_crystal_description       block
_cell_formula_units_Z            1
loop_
_atom_site_label
_atom_site_type_symbol
_atom_site_fract_x
_atom_site_fract_y
_atom_site_fract_z
C4 C 0.489(4) 1.7268(18) -0.3021(15)
H8 H 0.4515 1.8124 -0.3354
H9 H 0.6611 1.7076 -0.2949
H10 H 0.4030 1.7111 -0.2362
O2 O 0.415(2) 1.6503(11) -0.3617(9)
C5 C 0.182(3) 1.6495(12) -0.4003(14)
H11 H 0.1972 1.6734 -0.4738
H12 H 0.0614 1.7097 -0.3764
C6 C 0.100(3) 1.5277(13) -0.3677(6)
H13 H -0.0188 1.5193 -0.4119
H14 H 0.2368 1.4634 -0.3692
C7 C -0.1393(11) 1.4142(5) -0.2389(4)
H15 H -0.0306 1.3391 -0.2423
H16 H -0.2659 1.4241 -0.2851
C8 C -0.2521(10) 1.4063(6) -0.1311(4)
H17 H -0.3353 1.4869 -0.1257
H18 H -0.3721 1.3487 -0.1161
C9 C 0.0587(10) 1.4437(5) -0.0220(3)
C10 C 0.0368(13) 1.5729(6) -0.0459(4)
H19 H -0.0727 1.6212 -0.0913
C11 C 0.1890(17) 1.6252(6) 0.0023(5)
H20 H 0.1763 1.7110 -0.0109
C12 C 0.3603(15) 1.5554(6) 0.0698(5)
H21 H 0.4610 1.5944 0.0987
C13 C 0.3761(12) 1.4281(5) 0.0922(4)
H22 H 0.4853 1.3806 0.1380
C14 C 0.2278(10) 1.3695(5) 0.0459(3)
C15 C 0.2043(8) 1.2431(5) 0.0504(3)
C16 C 0.0188(8) 1.2446(5) -0.0138(3)
C17 C -0.0541(10) 1.1370(5) -0.0255(4)
H23 H -0.1763 1.1388 -0.0676
C18 C 0.0636(11) 1.0257(5) 0.0286(4)
H24 H 0.0153 0.9520 0.0229
C19 C 0.3216(9) 1.1276(4) 0.1024(3)
H25 H 0.4456 1.1245 0.1441
C20 C 0.2499(10) 1.0199(5) 0.0906(4)
C21 C 0.3705(13) 0.8966(5) 0.1425(5)
H26 H 0.3201 0.8300 0.1247
C22 C 0.5276(10) 0.8676(5) 0.2058(4)
H27 H 0.5878 0.9340 0.2199
C23 C 0.6336(9) 0.7444(4) 0.2621(4)
C24 C 0.8320(10) 0.5074(4) 0.3705(3)
C25 C 0.9353(8) 0.3813(4) 0.4266(3)
C26 C 0.8162(9) 0.3187(4) 0.5156(3)
H28 H 0.6697 0.3549 0.5415
C27 C 1.1578(9) 0.3212(4) 0.3931(3)
H29 H 1.2446 0.3600 0.3348
C28 C 0.9212(9) 0.1998(4) 0.5657(3)
C29 C 0.7948(9) 0.1272(5) 0.6599(3)
C30 C 0.8925(12) 0.0099(5) 0.7064(4)
H30 H 1.0386 -0.0264 0.6802
C31 C 0.7712(14) -0.0534(6) 0.7923(5)
H31 H 0.8368 -0.1324 0.8252
C32 C 0.5569(13) -0.0008(7) 0.8288(5)
H32 H 0.4699 -0.0434 0.8852
C33 C 0.4723(13) 0.1168(7) 0.7801(5)
H33 H 0.3267 0.1538 0.8061
C34 C 1.2485(9) 0.2036(4) 0.4469(3)
C35 C 1.4815(9) 0.1377(4) 0.4114(4)
C36 C 1.5708(12) 0.0207(6) 0.4640(5)
H34 H 1.4855 -0.0193 0.5222
C37 C 1.7916(14) -0.0364(7) 0.4281(6)
H35 H 1.8566 -0.1150 0.4620
C38 C 1.9092(12) 0.0249(7) 0.3429(5)
H36 H 2.0582 -0.0104 0.3184
C39 C 1.8087(11) 0.1374(7) 0.2941(5)
H37 H 1.8901 0.1774 0.2349
N1 N -0.0676(7) 1.3656(4) -0.0568(3)
N2 N 0.5886(8) 0.1842(4) 0.6950(3)
N3 N 1.1341(8) 0.1445(4) 0.5329(3)
N4 N 1.5987(8) 0.1944(4) 0.3263(3)
O3 O -0.0075(8) 1.5180(4) -0.2659(3)
C40 C 0.6962(19) 0.5947(9) 0.4226(7)
H38 H 0.6660 0.5717 0.4926
C41 C 0.6101(17) 0.7114(9) 0.3715(8)
H39 H 0.5363 0.7694 0.4072
C42 C 0.8491(18) 0.5442(9) 0.2636(7)
H40 H 0.9249 0.4888 0.2259
C43 C 0.7532(18) 0.6634(9) 0.2139(8)
H41 H 0.7750 0.6863 0.1435
C1? C 0.366(6) 1.8036(17) -0.2817(10)
H1? H 0.3351 1.8671 -0.3421
H2? H 0.5175 1.8117 -0.2573
H3? H 0.2362 1.8117 -0.2307
O1? O 0.382(3) 1.6832(17) -0.3044(13)
C2? C 0.210(4) 1.6873(18) -0.3784(17)
H4? H 0.2844 1.7106 -0.4469
H5? H 0.0669 1.7461 -0.3708
C3? C 0.146(4) 1.562(2) -0.3566(12)
H6? H 0.0658 1.5540 -0.4142
H7? H 0.2970 1.5054 -0.3533
C44? C 0.4931(18) 0.6491(9) 0.3083(8)
H42? H 0.3257 0.6624 0.3019
C45? C 0.597(2) 0.5357(10) 0.3632(8)
H43? H 0.4945 0.4774 0.3961
C46? C 0.993(2) 0.5963(10) 0.3218(8)
H44? H 1.1604 0.5767 0.3262
C47? C 0.894(2) 0.7138(9) 0.2671(8)
H45? H 0.9970 0.7717 0.2342
loop_
_geom_bond_atom_site_label_1
_geom_bond_atom_site_label_2
_geom_bond_site_symmetry_1
_geom_bond_site_symmetry_2
C4 H8 1_555 1_555
H9 C4 1_555 1_555
H10 C4 1_555 1_555
O2 C4 1_555 1_555
C5 O2 1_555 1_555
H11 C5 1_555 1_555
H12 C5 1_555 1_555
C6 C5 1_555 1_555
H13 C6 1_555 1_555
H14 C6 1_555 1_555
C7 H15 1_555 1_555
H16 C7 1_555 1_555
C8 C7 1_555 1_555
H17 C8 1_555 1_555
H18 C8 1_555 1_555
C9 C10 1_555 1_555
C10 H19 1_555 1_555
C11 C10 1_555 1_555
H20 C11 1_555 1_555
C12 C11 1_555 1_555
H21 C12 1_555 1_555
C13 C12 1_555 1_555
H22 C13 1_555 1_555
C14 C9 1_555 1_555
C15 C14 1_555 1_555
C16 C15 1_555 1_555
C17 C16 1_555 1_555
H23 C17 1_555 1_555
C18 C17 1_555 1_555
H24 C18 1_555 1_555
C19 C15 1_555 1_555
H25 C19 1_555 1_555
C20 C18 1_555 1_555
C21 C20 1_555 1_555
H26 C21 1_555 1_555
C22 C21 1_555 1_555
H27 C22 1_555 1_555
C23 C22 1_555 1_555
C24 C25 1_555 1_555
C25 C26 1_555 1_555
C26 H28 1_555 1_555
C27 C25 1_555 1_555
H29 C27 1_555 1_555
C28 C26 1_555 1_555
C29 C28 1_555 1_555
C30 C29 1_555 1_555
H30 C30 1_555 1_555
C31 C30 1_555 1_555
H31 C31 1_555 1_555
C32 C31 1_555 1_555
H32 C32 1_555 1_555
C33 C32 1_555 1_555
H33 C33 1_555 1_555
C34 C27 1_555 1_555
C35 C34 1_555 1_555
C36 C35 1_555 1_555
H34 C36 1_555 1_555
C37 C36 1_555 1_555
H35 C37 1_555 1_555
C38 C37 1_555 1_555
H36 C38 1_555 1_555
C39 C38 1_555 1_555
H37 C39 1_555 1_555
N1 C8 1_555 1_555
N2 C29 1_555 1_555
N3 C28 1_555 1_555
N4 C35 1_555 1_555
O3 C6 1_555 1_555
C40 C24 1_555 1_555
H38 C40 1_555 1_555
C41 C23 1_555 1_555
H39 C41 1_555 1_555
C42 C24 1_555 1_555
H40 C42 1_555 1_555
C43 C23 1_555 1_555
H41 C43 1_555 1_555
C7 O3 1_555 1_555
C9 N1 1_555 1_555
C13 C14 1_555 1_555
C16 N1 1_555 1_555
C19 C20 1_555 1_555
C33 N2 1_555 1_555
C34 N3 1_555 1_555
C39 N4 1_555 1_555
C40 C41 1_555 1_555
C42 C43 1_555 1_555

#END
