
#######################################################################
#
#                 Cambridge Crystallographic Data Centre
#                                CCDC 
#
#######################################################################
#
# If this CIF has been generated from an entry in the Cambridge 
# Structural Database, then it will include bibliographic, chemical, 
# crystal, experimental, refinement or atomic coordinate data resulting 
# from the CCDC's data processing and validation procedures.
#
#######################################################################

data_ITEGET
_chemical_compound_source        'Millettia usaramensis subsp. usaramensis'
_chemical_formula_moiety         'C18 H12 O8'
_chemical_name_systematic        'Usararotenoid A'
_chemical_properties_biological  'some antiplasmodial activity'
_symmetry_cell_setting           orthorhombic
_symmetry_space_group_name_H-M   'P 21 21 21'
_symmetry_Int_Tables_number      19
_space_group_name_Hall           'P 2ac 2ab'
loop_
_symmetry_equiv_pos_site_id
_symmetry_equiv_pos_as_xyz
1 x,y,z
2 1/2-x,-y,1/2+z
3 1/2+x,1/2-y,-z
4 -x,1/2+y,1/2-z
_cell_length_a                   7.2234(2)
_cell_length_b                   12.1344(3)
_cell_length_c                   16.6245(5)
_cell_angle_alpha                90
_cell_angle_beta                 90
_cell_angle_gamma                90
_cell_volume                     1457.16
_cell_formula_units_Z            4
loop_
_atom_site_label
_atom_site_type_symbol
_atom_site_fract_x
_atom_site_fract_y
_atom_site_fract_z
C1 C 0.4936(3) 0.4681(2) 0.4924(1)
C2 C 0.6671(3) 0.4218(2) 0.5134(1)
C3 C 0.4544(3) 0.4807(2) 0.4125(1)
O1 O 0.2968(2) 0.5252(1) 0.3782(1)
C4 C 0.3155(3) 0.5034(2) 0.2941(2)
C5 C 0.5800(3) 0.4517(2) 0.3538(1)
O2 O 0.5060(2) 0.4736(1) 0.2787(1)
C6 C 0.7936(3) 0.3970(2) 0.4524(1)
O3 O 0.9666(2) 0.3538(1) 0.4667(1)
C7 C 1.0336(3) 0.3643(2) 0.5474(1)
C8 C 0.8825(3) 0.3247(2) 0.6032(1)
O4 O 0.9589(2) 0.3188(1) 0.6835(1)
C9 C 0.8899(3) 0.2517(2) 0.8138(1)
O5 O 1.0685(2) 0.2357(1) 0.8400(1)
C10 C 1.0479(3) 0.2175(2) 0.9252(1)
C11 C 0.7652(3) 0.2170(2) 0.8715(1)
O6 O 0.8607(2) 0.1798(2) 0.9375(1)
C12 C 0.5765(3) 0.2175(2) 0.8590(1)
C13 C 0.5156(3) 0.2590(2) 0.7869(1)
C14 C 0.6378(3) 0.2972(2) 0.7275(1)
C15 C 0.5644(3) 0.3517(2) 0.6542(1)
O7 O 0.3997(2) 0.3642(2) 0.6442(1)
C16 C 0.7176(3) 0.4019(2) 0.6004(1)
O8 O 0.7607(2) 0.5071(1) 0.6367(1)
C17 C 0.820 0.292 0.745
C18 C 0.746 0.409 0.377
loop_
_geom_bond_atom_site_label_1
_geom_bond_atom_site_label_2
_geom_bond_site_symmetry_1
_geom_bond_site_symmetry_2
C1 C2 1_555 1_555
C2 C6 1_555 1_555
C3 C1 1_555 1_555
O1 C3 1_555 1_555
C4 O1 1_555 1_555
C5 C3 1_555 1_555
O2 C4 1_555 1_555
C6 O3 1_555 1_555
O3 C7 1_555 1_555
C7 C8 1_555 1_555
C8 O4 1_555 1_555
O4 C17 1_555 1_555
C9 O5 1_555 1_555
O5 C10 1_555 1_555
C10 O6 1_555 1_555
C11 C9 1_555 1_555
O6 C11 1_555 1_555
C12 C11 1_555 1_555
C13 C12 1_555 1_555
C14 C13 1_555 1_555
C15 C14 1_555 1_555
O7 C15 1_555 1_555
C16 C2 1_555 1_555
O8 C16 1_555 1_555
C17 C9 1_555 1_555
C18 C5 1_555 1_555
C5 O2 1_555 1_555
C6 C18 1_555 1_555
C8 C16 1_555 1_555
C14 C17 1_555 1_555
C15 C16 1_555 1_555

#END
