
#######################################################################
#
#                 Cambridge Crystallographic Data Centre
#                                CCDC 
#
#######################################################################
#
# If this CIF has been generated from an entry in the Cambridge 
# Structural Database, then it will include bibliographic, chemical, 
# crystal, experimental, refinement or atomic coordinate data resulting 
# from the CCDC's data processing and validation procedures.
#
#######################################################################

data_ITEGET01
_chemical_compound_source        'Millettia usaramensis ssp. usaramensis'
_chemical_name_common            'Usararotenoid A'
_chemical_formula_moiety         'C18 H12 O8'
_chemical_name_systematic        
11b-Hydroxy-4a,11b-dihydro[1,3]dioxolo[6,7]chromeno[3,4-b][1,3]dioxolo[4,5-h]chromen-12(5H)-one
_chemical_properties_biological  'anticancer activity'
_symmetry_cell_setting           orthorhombic
_symmetry_space_group_name_H-M   'P 21 21 21'
_symmetry_Int_Tables_number      19
_space_group_name_Hall           'P 2ac 2ab'
loop_
_symmetry_equiv_pos_site_id
_symmetry_equiv_pos_as_xyz
1 x,y,z
2 1/2-x,-y,1/2+z
3 1/2+x,1/2-y,-z
4 -x,1/2+y,1/2-z
_cell_length_a                   6.84414(7)
_cell_length_b                   14.31429(11)
_cell_length_c                   14.76660(12)
_cell_angle_alpha                90
_cell_angle_beta                 90
_cell_angle_gamma                90
_cell_volume                     1446.67
_exptl_crystal_colour            colorless
_exptl_crystal_description       block
_cell_formula_units_Z            4
loop_
_atom_site_label
_atom_site_type_symbol
_atom_site_fract_x
_atom_site_fract_y
_atom_site_fract_z
C1 C 0.8104(3) 0.64635(16) 0.80659(12)
H1 H 0.903(5) 0.614(2) 0.851(2)
H2 H 0.794(4) 0.713(2) 0.8180(18)
C2 C 0.5645(3) 0.59314(13) 0.72143(12)
C3 C 0.7223(3) 0.61087(12) 0.66591(12)
C4 C 0.7095(3) 0.60152(12) 0.57349(12)
C5 C 0.5278(3) 0.57319(12) 0.53771(12)
C6 C 0.3694(3) 0.55714(13) 0.59564(12)
H3 H 0.249(4) 0.5419(17) 0.5703(15)
C7 C 0.3838(3) 0.56651(13) 0.68943(13)
H4 H 0.273(4) 0.5576(17) 0.7321(16)
C8 C 0.8555(3) 0.60694(12) 0.42790(12)
H5 H 0.878(4) 0.5395(17) 0.4111(16)
C9 C 0.6543(3) 0.63272(12) 0.39082(11)
C10 C 0.5057(3) 0.56848(12) 0.43852(11)
C11 C 1.0069(3) 0.66941(13) 0.38431(11)
H6 H 0.969(4) 0.7348(17) 0.3922(15)
H7 H 1.138(4) 0.6556(17) 0.4102(16)
C12 C 0.8439(3) 0.63947(12) 0.24488(12)
C13 C 0.6633(3) 0.63037(12) 0.28893(11)
C14 C 0.4902(3) 0.62751(12) 0.23709(11)
H8 H 0.359(3) 0.6231(14) 0.2633(15)
C15 C 0.5082(3) 0.63251(12) 0.14518(12)
C16 C 0.6883(3) 0.63759(13) 0.10244(12)
C17 C 0.8600(3) 0.64129(13) 0.14991(12)
H9 H 0.993(4) 0.6472(17) 0.1206(16)
C18 C 0.4557(3) 0.64249(17) -0.00384(13)
H10 H 0.422(5) 0.704(2) -0.031(2)
H11 H 0.415(5) 0.592(2) -0.047(2)
O1 O 0.6201(2) 0.60503(10) 0.81006(8)
O2 O 0.8836(2) 0.63666(10) 0.71606(8)
O3 O 0.87166(19) 0.61993(9) 0.52367(8)
O4 O 0.6063(2) 0.72448(9) 0.42389(9)
H12 H 0.566(4) 0.759(2) 0.381(2)
O5 O 0.3813(2) 0.52222(10) 0.40044(9)
O6 O 1.01921(19) 0.64556(10) 0.28982(8)
O7 O 0.6628(2) 0.63899(11) 0.01010(9)
O8 O 0.3608(2) 0.63415(11) 0.08127(9)
loop_
_geom_bond_atom_site_label_1
_geom_bond_atom_site_label_2
_geom_bond_site_symmetry_1
_geom_bond_site_symmetry_2
C1 H1 1_555 1_555
H2 C1 1_555 1_555
C2 C3 1_555 1_555
C3 C4 1_555 1_555
C4 C5 1_555 1_555
C5 C6 1_555 1_555
C6 H3 1_555 1_555
C7 C2 1_555 1_555
H4 C7 1_555 1_555
C8 H5 1_555 1_555
C9 C8 1_555 1_555
C10 C5 1_555 1_555
C11 C8 1_555 1_555
H6 C11 1_555 1_555
H7 C11 1_555 1_555
C12 C13 1_555 1_555
C13 C9 1_555 1_555
C14 C13 1_555 1_555
H8 C14 1_555 1_555
C15 C14 1_555 1_555
C16 C15 1_555 1_555
C17 C12 1_555 1_555
H9 C17 1_555 1_555
C18 H10 1_555 1_555
H11 C18 1_555 1_555
O1 C1 1_555 1_555
O2 C1 1_555 1_555
O3 C4 1_555 1_555
O4 C9 1_555 1_555
H12 O4 1_555 1_555
O5 C10 1_555 1_555
O6 C11 1_555 1_555
O7 C16 1_555 1_555
O8 C15 1_555 1_555
C2 O1 1_555 1_555
C3 O2 1_555 1_555
C6 C7 1_555 1_555
C8 O3 1_555 1_555
C9 C10 1_555 1_555
C12 O6 1_555 1_555
C16 C17 1_555 1_555
C18 O7 1_555 1_555
C18 O8 1_555 1_555

#END
