
#######################################################################
#
#                 Cambridge Crystallographic Data Centre
#                                CCDC 
#
#######################################################################
#
# If this CIF has been generated from an entry in the Cambridge 
# Structural Database, then it will include bibliographic, chemical, 
# crystal, experimental, refinement or atomic coordinate data resulting 
# from the CCDC's data processing and validation procedures.
#
#######################################################################

data_ITENIG
_chemical_formula_moiety         'C42 H33 F12 N6 3+,2(F6 P1 1-),C2 H3 N1,Cl1 1-'
_chemical_name_systematic        
"3,3',3''-((2,4,6-trimethylbenzene-1,3,5-triyl)tris(methylene))tris(1-((2,3,4,5-tetrafluorophenyl)methyl)-1H-imidazol-3-ium) chloride bis(hexafluorophosphate) acetonitrile solvate"
_symmetry_cell_setting           triclinic
_symmetry_space_group_name_H-M   'P -1'
_symmetry_Int_Tables_number      2
_space_group_name_Hall           '-P 1'
loop_
_symmetry_equiv_pos_site_id
_symmetry_equiv_pos_as_xyz
1 x,y,z
2 -x,-y,-z
_cell_length_a                   12.175(4)
_cell_length_b                   12.483(5)
_cell_length_c                   18.276(5)
_cell_angle_alpha                75.34(3)
_cell_angle_beta                 78.55(2)
_cell_angle_gamma                71.31(2)
_cell_volume                     2524.49
_exptl_crystal_colour            colorless
_exptl_crystal_description       BLOCK
_cell_formula_units_Z            2
loop_
_atom_site_label
_atom_site_type_symbol
_atom_site_fract_x
_atom_site_fract_y
_atom_site_fract_z
Cl1 Cl 0.33992(17) 0.76034(16) 0.30901(11)
C1 C 0.5380(6) 0.7555(7) 0.0772(4)
C2 C 0.5650(7) 0.8374(7) 0.1055(4)
C3 C 0.4810(7) 0.9455(7) 0.1061(4)
C4 C 0.3674(6) 0.9662(6) 0.0886(4)
C5 C 0.3418(6) 0.8793(7) 0.0644(4)
C6 C 0.4276(7) 0.7767(7) 0.0554(4)
C7 C 0.6285(7) 0.6411(7) 0.0721(5)
H1 H 0.6200 0.6149 0.0285
H2 H 0.7059 0.6514 0.0644
C8 C 0.6792(7) 0.8119(9) 0.1341(5)
H3 H 0.7083 0.7301 0.1534
H4 H 0.7351 0.8362 0.0934
H5 H 0.6687 0.8524 0.1745
C9 C 0.5138(8) 1.0408(7) 0.1259(5)
H6 H 0.5961 1.0326 0.1084
H7 H 0.4697 1.1146 0.0987
C10 C 0.2731(8) 1.0775(7) 0.0964(5)
H8 H 0.3011 1.1230 0.1196
H9 H 0.2529 1.1200 0.0469
H10 H 0.2052 1.0603 0.1278
C11 C 0.2212(7) 0.8972(7) 0.0458(4)
H11 H 0.1756 0.9767 0.0459
H12 H 0.2273 0.8835 -0.0050
C12 C 0.4034(7) 0.6867(7) 0.0238(5)
H13 H 0.3269 0.7168 0.0078
H14 H 0.4606 0.6687 -0.0191
H15 H 0.4066 0.6180 0.0625
C13 C 0.6828(8) 0.4382(8) 0.1515(6)
H16 H 0.7397 0.4042 0.1155
C14 C 0.6502(8) 0.3856(8) 0.2215(6)
H17 H 0.6798 0.3080 0.2434
C15 C 0.5454(7) 0.5671(7) 0.2056(5)
H18 H 0.4908 0.6361 0.2139
C16 C 0.5014(8) 0.4520(7) 0.3339(5)
H19 H 0.4746 0.3837 0.3446
H20 H 0.4336 0.5182 0.3380
C17 C 0.5805(7) 0.4396(7) 0.3914(5)
C18 C 0.6494(9) 0.3316(8) 0.4244(5)
C19 C 0.7254(9) 0.3186(9) 0.4735(6)
C20 C 0.7326(9) 0.4135(10) 0.4929(6)
C21 C 0.6638(10) 0.5223(9) 0.4626(6)
C22 C 0.5891(8) 0.5337(7) 0.4125(5)
H21 H 0.5433 0.6069 0.3924
C23 C 0.5447(8) 1.0914(8) 0.2441(6)
H22 H 0.6046 1.1252 0.2221
C24 C 0.4951(9) 1.0834(9) 0.3163(7)
H23 H 0.5131 1.1108 0.3540
C25 C 0.4143(9) 1.0011(7) 0.2596(5)
H24 H 0.3678 0.9603 0.2510
C26 C 0.3279(13) 1.0072(9) 0.3913(6)
H25 H 0.3626 0.9934 0.4374
H26 H 0.3046 0.9396 0.3916
C27 C 0.2237(13) 1.1107(11) 0.3886(6)
C28 C 0.2196(12) 1.2112(10) 0.4085(5)
C29 C 0.1287(12) 1.3081(11) 0.4027(7)
C30 C 0.0352(13) 1.3091(15) 0.3742(8)
C31 C 0.0316(16) 1.2130(19) 0.3534(9)
C32 C 0.1218(17) 1.1176(14) 0.3590(7)
H27 H 0.1178 1.0540 0.3430
C33 C 0.0811(7) 0.7758(7) 0.0834(5)
H28 H 0.0586 0.7873 0.0356
C34 C 0.0426(7) 0.7133(7) 0.1487(5)
H29 H -0.0123 0.6735 0.1546
C35 C 0.1695(7) 0.7842(7) 0.1744(4)
H30 H 0.2177 0.8025 0.2001
C36 C 0.0817(7) 0.6640(7) 0.2871(4)
H31 H 0.1521 0.6498 0.3096
H32 H 0.0672 0.5902 0.2922
C37 C -0.0200(7) 0.7409(7) 0.3289(5)
C38 C -0.1324(8) 0.7455(7) 0.3272(5)
C39 C -0.2285(9) 0.8206(9) 0.3599(5)
C40 C -0.2070(10) 0.8931(9) 0.3955(5)
N1 N 0.6171(5) 0.5518(6) 0.1421(4)
N2 N 0.5645(6) 0.4671(6) 0.2557(4)
N3 N 0.4918(6) 1.0410(6) 0.2078(4)
N4 N 0.4127(8) 1.0272(6) 0.3244(4)
N5 N 0.1600(5) 0.8194(5) 0.1010(3)
N6 N 0.0987(5) 0.7182(5) 0.2057(4)
F1 F 0.6421(6) 0.2351(5) 0.4055(4)
F2 F 0.7930(6) 0.2138(5) 0.5017(4)
F3 F 0.8080(6) 0.4044(6) 0.5393(4)
F4 F 0.6692(7) 0.6142(6) 0.4836(4)
F5 F 0.3135(7) 1.2122(5) 0.4356(4)
F6 F 0.1315(7) 1.4036(6) 0.4213(5)
F7 F -0.0544(8) 1.4069(9) 0.3651(5)
F8 F -0.0653(9) 1.2198(11) 0.3252(6)
F9 F -0.1537(5) 0.6749(5) 0.2905(4)
F10 F -0.3358(5) 0.8233(6) 0.3559(4)
F11 F -0.2971(6) 0.9724(6) 0.4270(3)
F12 F -0.0767(7) 0.9641(6) 0.4366(4)
C41 C -0.0962(11) 0.8926(8) 0.3999(5)
C42 C 0.0004(9) 0.8149(8) 0.3665(5)
H33 H 0.0763 0.8132 0.3695
F13 F 0.3490(6) 0.3477(6) 0.2648(4)
F14 F 0.2732(7) 0.4517(7) 0.1026(4)
F15 F 0.3201(6) 0.5196(5) 0.1892(4)
F16 F 0.4427(5) 0.3639(8) 0.1497(5)
F17 F 0.3015(7) 0.2775(5) 0.1798(6)
F18 F 0.1785(5) 0.4344(5) 0.2181(4)
P1 P 0.3113(2) 0.3981(2) 0.18305(15)
F19 F 0.0058(6) 0.9756(10) 0.7984(5)
F20 F 0.2299(6) 0.8641(10) 0.8720(4)
F21 F 0.0447(5) 0.9443(6) 0.9140(3)
F22 F 0.1400(11) 1.0334(7) 0.8163(6)
F23 F 0.1910(5) 0.8922(5) 0.7574(3)
F24 F 0.1004(12) 0.8024(7) 0.8550(8)
P2 P 0.11639(19) 0.91936(19) 0.83522(13)
N7 N -0.002(2) 0.593(2) -0.1251(12)
C43 C -0.049(2) 0.637(2) -0.0732(13)
C44 C -0.0761(15) 0.640(2) 0.0099(13)
H34 H -0.0960 0.5702 0.0416
H35 H -0.1432 0.7069 0.0207
H36 H -0.0093 0.6464 0.0303
loop_
_geom_bond_atom_site_label_1
_geom_bond_atom_site_label_2
_geom_bond_site_symmetry_1
_geom_bond_site_symmetry_2
C1 C2 1_555 1_555
C2 C3 1_555 1_555
C3 C4 1_555 1_555
C4 C5 1_555 1_555
C5 C6 1_555 1_555
C6 C1 1_555 1_555
C7 C1 1_555 1_555
H1 C7 1_555 1_555
H2 C7 1_555 1_555
C8 C2 1_555 1_555
H3 C8 1_555 1_555
H4 C8 1_555 1_555
H5 C8 1_555 1_555
C9 C3 1_555 1_555
H6 C9 1_555 1_555
H7 C9 1_555 1_555
C10 C4 1_555 1_555
H8 C10 1_555 1_555
H9 C10 1_555 1_555
H10 C10 1_555 1_555
C11 C5 1_555 1_555
H11 C11 1_555 1_555
H12 C11 1_555 1_555
C12 C6 1_555 1_555
H13 C12 1_555 1_555
H14 C12 1_555 1_555
H15 C12 1_555 1_555
C13 H16 1_555 1_555
C14 C13 1_555 1_555
H17 C14 1_555 1_555
C15 H18 1_555 1_555
C16 H19 1_555 1_555
H20 C16 1_555 1_555
C17 C16 1_555 1_555
C18 C17 1_555 1_555
C19 C18 1_555 1_555
C20 C19 1_555 1_555
C21 C20 1_555 1_555
C22 C17 1_555 1_555
H21 C22 1_555 1_555
C23 H22 1_555 1_555
C24 C23 1_555 1_555
H23 C24 1_555 1_555
C25 H24 1_555 1_555
C26 H25 1_555 1_555
H26 C26 1_555 1_555
C27 C26 1_555 1_555
C28 C27 1_555 1_555
C29 C28 1_555 1_555
C30 C29 1_555 1_555
C31 C30 1_555 1_555
C32 C27 1_555 1_555
H27 C32 1_555 1_555
C33 H28 1_555 1_555
C34 C33 1_555 1_555
H29 C34 1_555 1_555
C35 H30 1_555 1_555
C36 H31 1_555 1_555
H32 C36 1_555 1_555
C37 C36 1_555 1_555
C38 C37 1_555 1_555
C39 C38 1_555 1_555
C40 C39 1_555 1_555
N1 C7 1_555 1_555
N2 C14 1_555 1_555
N3 C9 1_555 1_555
N4 C24 1_555 1_555
N5 C11 1_555 1_555
N6 C34 1_555 1_555
F1 C18 1_555 1_555
F2 C19 1_555 1_555
F3 C20 1_555 1_555
F4 C21 1_555 1_555
F5 C28 1_555 1_555
F6 C29 1_555 1_555
F7 C30 1_555 1_555
F8 C31 1_555 1_555
F9 C38 1_555 1_555
F10 C39 1_555 1_555
F11 C40 1_555 1_555
F12 C41 1_555 1_555
C41 C40 1_555 1_555
C42 C37 1_555 1_555
H33 C42 1_555 1_555
F13 P1 1_555 1_555
F14 P1 1_555 1_555
F15 P1 1_555 1_555
F16 P1 1_555 1_555
F17 P1 1_555 1_555
F18 P1 1_555 1_555
F19 P2 1_555 1_555
F20 P2 1_555 1_555
F21 P2 1_555 1_555
F22 P2 1_555 1_555
F23 P2 1_555 1_555
F24 P2 1_555 1_555
N7 C43 1_555 1_555
C43 C44 1_555 1_555
C44 H34 1_555 1_555
H35 C44 1_555 1_555
H36 C44 1_555 1_555
C13 N1 1_555 1_555
C15 N1 1_555 1_555
C15 N2 1_555 1_555
C16 N2 1_555 1_555
C21 C22 1_555 1_555
C23 N3 1_555 1_555
C25 N3 1_555 1_555
C25 N4 1_555 1_555
C26 N4 1_555 1_555
C31 C32 1_555 1_555
C33 N5 1_555 1_555
C35 N5 1_555 1_555
C35 N6 1_555 1_555
C36 N6 1_555 1_555
C41 C42 1_555 1_555

#END
