
#######################################################################
#
#                 Cambridge Crystallographic Data Centre
#                                CCDC 
#
#######################################################################
#
# If this CIF has been generated from an entry in the Cambridge 
# Structural Database, then it will include bibliographic, chemical, 
# crystal, experimental, refinement or atomic coordinate data resulting 
# from the CCDC's data processing and validation procedures.
#
#######################################################################

data_ITINOO
_chemical_name_common            
'Tri(2-Azido-1,1-bis(azidomethyl)ethyl) benzene-1,3,5-tricarboxylate'
_chemical_formula_moiety         'C21 H21 N27 O6'
_chemical_name_systematic        
1,3,5-tris(Tri(azidomethyl)methoxycarbonyl)benzene
_symmetry_cell_setting           triclinic
_symmetry_space_group_name_H-M   'P -1'
_symmetry_Int_Tables_number      2
_space_group_name_Hall           '-P 1'
loop_
_symmetry_equiv_pos_site_id
_symmetry_equiv_pos_as_xyz
1 x,y,z
2 -x,-y,-z
_cell_length_a                   8.5434(8)
_cell_length_b                   8.8245(8)
_cell_length_c                   22.232(2)
_cell_angle_alpha                79.408(2)
_cell_angle_beta                 89.350(2)
_cell_angle_gamma                83.638(2)
_cell_volume                     1637.32
_exptl_crystal_colour            colorless
_exptl_crystal_description       'irregular plate'
_cell_formula_units_Z            2
loop_
_atom_site_label
_atom_site_type_symbol
_atom_site_fract_x
_atom_site_fract_y
_atom_site_fract_z
O1 O 0.61686(18) 0.2114(2) 0.47425(7)
O2 O 0.25492(19) 0.5506(2) 0.23437(8)
O3 O 0.84688(19) 0.1078(2) 0.43801(8)
O4 O 0.2448(2) 0.5670(2) 0.33497(8)
O5 O 0.6894(2) 0.2577(2) 0.15270(8)
O6 O 0.8689(4) 0.1032(4) 0.21378(12)
C1 C 0.4535(3) 0.4043(3) 0.29952(11)
C2 C 0.6469(3) 0.2412(3) 0.36767(11)
C3 C 0.6675(3) 0.2546(3) 0.25856(12)
C4 C 0.5104(3) 0.3456(3) 0.35863(11)
H1 H 0.4564 0.3766 0.3927
C5 C 0.7248(3) 0.1957(3) 0.31756(12)
H2 H 0.8173 0.1241 0.3236
C6 C 0.6713(3) 0.1871(3) 0.53777(11)
C7 C 0.3071(3) 0.5155(3) 0.29302(12)
C8 C 0.8066(3) 0.2828(3) 0.54328(11)
H3 H 0.8345 0.2754 0.5869
H4 H 0.9005 0.2429 0.5221
C9 C 0.5308(3) 0.3589(3) 0.24962(12)
H5 H 0.4910 0.3986 0.2094
C10 C 0.7168(3) 0.1776(3) 0.42988(11)
N1 N 0.8257(3) 0.5435(3) 0.53367(11)
N2 N 0.3995(3) 0.1509(3) 0.56830(11)
N3 N 0.8237(3) -0.1265(3) 0.65195(11)
C11 C 0.7230(3) 0.0138(3) 0.56082(12)
H6 H 0.6390 -0.0494 0.5533
H7 H 0.8196 -0.0201 0.5396
N4 N 0.2780(3) 0.1928(3) 0.59379(11)
C12 C 0.1149(3) 0.6607(3) 0.21679(13)
C13 C 0.7531(4) 0.1965(4) 0.20696(13)
N5 N 0.7535(4) -0.0035(3) 0.62696(12)
C14 C 0.5294(3) 0.2476(3) 0.57186(12)
H8 H 0.5581 0.2433 0.6152
H9 H 0.4949 0.3569 0.5534
N6 N 0.7565(3) 0.4466(3) 0.51520(11)
C15 C 0.7439(3) 0.1975(3) 0.09766(12)
N7 N 0.5671(4) -0.0081(3) 0.12711(12)
C16 C 0.1303(3) 0.8175(3) 0.23389(14)
H10 H 0.0321 0.8874 0.2226
H11 H 0.1462 0.8045 0.2787
N8 N 0.0793(3) 0.5317(3) 0.12745(13)
C17 C 0.1120(3) 0.6753(3) 0.14682(14)
H12 H 0.0304 0.7600 0.1293
H13 H 0.2151 0.7036 0.1303
N9 N 0.4684(4) -0.0192(3) 0.08906(14)
N10 N -0.1710(3) 0.6850(4) 0.21602(13)
C18 C 0.7216(4) 0.0276(4) 0.10314(14)
H14 H 0.7344 -0.0017 0.0623
H15 H 0.8044 -0.0357 0.1305
N11 N 0.1598(3) 0.2209(4) 0.61574(14)
N12 N 0.1928(3) 0.4346(3) 0.12472(12)
N13 N -0.2840(3) 0.7051(3) 0.24881(12)
N14 N 1.0723(4) 0.2228(4) 0.00159(16)
N15 N 0.6638(4) 0.4583(3) 0.03678(14)
C19 C 0.6382(4) 0.2941(3) 0.04714(13)
H16 H 0.6587 0.2537 0.0088
H17 H 0.5267 0.2840 0.0582
C20 C -0.0288(3) 0.5915(4) 0.24678(15)
H18 H -0.0265 0.4819 0.2420
H19 H -0.0297 0.5952 0.2910
N16 N 0.2617(4) 0.8854(3) 0.20251(14)
N17 N 0.8785(4) 0.6437(3) 0.54648(13)
N18 N 0.8879(3) -0.2349(3) 0.68068(14)
C21 C 0.9168(4) 0.2258(5) 0.08587(17)
H20 H 0.9295 0.3369 0.0836
H21 H 0.9853 0.1640 0.1192
N19 N 0.3172(6) 0.9771(5) 0.22574(18)
N20 N 0.2822(3) 0.3316(4) 0.12103(17)
N21 N -0.3959(3) 0.7306(4) 0.27351(15)
N22 N 0.5918(4) 0.5340(3) 0.07213(13)
N23 N 0.5323(4) 0.6175(4) 0.10141(15)
N24 N 1.1783(5) 0.2548(4) -0.02593(16)
N25 N 0.3657(5) -0.0344(4) 0.05901(15)
N26 N 0.3852(9) 1.0623(7) 0.2446(3)
N27 N 0.9588(5) 0.1773(7) 0.0266(2)
loop_
_geom_bond_atom_site_label_1
_geom_bond_atom_site_label_2
_geom_bond_site_symmetry_1
_geom_bond_site_symmetry_2
O1 C6 1_555 1_555
O2 C7 1_555 1_555
O3 C10 1_555 1_555
O4 C7 1_555 1_555
O5 C13 1_555 1_555
O6 C13 1_555 1_555
C1 C4 1_555 1_555
C2 C4 1_555 1_555
C3 C5 1_555 1_555
C4 H1 1_555 1_555
C5 C2 1_555 1_555
H2 C5 1_555 1_555
C6 C8 1_555 1_555
C7 C1 1_555 1_555
C8 H3 1_555 1_555
H4 C8 1_555 1_555
C9 C1 1_555 1_555
H5 C9 1_555 1_555
C10 O1 1_555 1_555
N1 N6 1_555 1_555
N2 N4 1_555 1_555
N3 N5 1_555 1_555
C11 C6 1_555 1_555
H6 C11 1_555 1_555
H7 C11 1_555 1_555
N4 N11 1_555 1_555
C12 O2 1_555 1_555
C13 C3 1_555 1_555
N5 C11 1_555 1_555
C14 C6 1_555 1_555
H8 C14 1_555 1_555
H9 C14 1_555 1_555
N6 C8 1_555 1_555
C15 O5 1_555 1_555
N7 N9 1_555 1_555
C16 C12 1_555 1_555
H10 C16 1_555 1_555
H11 C16 1_555 1_555
N8 C17 1_555 1_555
C17 C12 1_555 1_555
H12 C17 1_555 1_555
H13 C17 1_555 1_555
N9 N25 1_555 1_555
N10 N13 1_555 1_555
C18 C15 1_555 1_555
H14 C18 1_555 1_555
H15 C18 1_555 1_555
N12 N8 1_555 1_555
N13 N21 1_555 1_555
N14 N24 1_555 1_555
N15 C19 1_555 1_555
C19 C15 1_555 1_555
H16 C19 1_555 1_555
H17 C19 1_555 1_555
C20 C12 1_555 1_555
H18 C20 1_555 1_555
H19 C20 1_555 1_555
N16 C16 1_555 1_555
N17 N1 1_555 1_555
N18 N3 1_555 1_555
C21 C15 1_555 1_555
H20 C21 1_555 1_555
H21 C21 1_555 1_555
N19 N16 1_555 1_555
N20 N12 1_555 1_555
N22 N15 1_555 1_555
N23 N22 1_555 1_555
N26 N19 1_555 1_555
N27 N14 1_555 1_555
C2 C10 1_555 1_555
C3 C9 1_555 1_555
N2 C14 1_555 1_555
N7 C18 1_555 1_555
N10 C20 1_555 1_555
C21 N27 1_555 1_555

#END
