
#######################################################################
#
#                 Cambridge Crystallographic Data Centre
#                                CCDC 
#
#######################################################################
#
# If this CIF has been generated from an entry in the Cambridge 
# Structural Database, then it will include bibliographic, chemical, 
# crystal, experimental, refinement or atomic coordinate data resulting 
# from the CCDC's data processing and validation procedures.
#
#######################################################################

data_ITIPAC
_chemical_formula_moiety         'C28 H28 N12 O7 S3,C3 H6 O1'
_chemical_name_systematic        
'tris(5-(4-Methylphenylsulfonyl)-1,2,3,4-tetraazol-1-ylmethyl)methanol acetone solvate'
_symmetry_cell_setting           monoclinic
_symmetry_space_group_name_H-M   'P 21/n'
_symmetry_Int_Tables_number      14
_space_group_name_Hall           '-P 2yn'
loop_
_symmetry_equiv_pos_site_id
_symmetry_equiv_pos_as_xyz
1 x,y,z
2 1/2+x,1/2-y,1/2+z
3 -x,-y,-z
4 1/2-x,1/2+y,1/2-z
_cell_length_a                   9.0085(8)
_cell_length_b                   17.4977(17)
_cell_length_c                   24.481(2)
_cell_angle_alpha                90
_cell_angle_beta                 92.838(2)
_cell_angle_gamma                90
_cell_volume                     3854.16
_exptl_crystal_colour            colorless
_exptl_crystal_description       'square prism'
_cell_formula_units_Z            4
loop_
_atom_site_label
_atom_site_type_symbol
_atom_site_fract_x
_atom_site_fract_y
_atom_site_fract_z
C1 C -0.2495(3) 0.87288(14) 0.04960(10)
O1 O -0.1826(2) 0.86617(11) 0.10354(8)
H1 H -0.228(4) 0.8891(18) 0.1268(13)
C2 C -0.1641(3) 0.81695(15) 0.01253(11)
H2 H -0.2082 0.7653 0.0145
H3 H -0.1746 0.8344 -0.0259
C3 C -0.2295(3) 0.95527(15) 0.02668(11)
H4 H -0.1226 0.9644 0.0217
H5 H -0.2821 0.9589 -0.0097
C4 C -0.4176(3) 0.85197(15) 0.04699(11)
H6 H -0.4739 0.8937 0.0637
H7 H -0.4533 0.8475 0.0082
C5 C 0.0696(3) 0.76624(15) 0.06550(11)
C6 C -0.4804(3) 0.70678(15) 0.05922(11)
C7 C -0.2172(3) 1.06489(15) 0.09790(11)
N1 N -0.0057(2) 0.81327(12) 0.02976(9)
N2 N 0.0922(2) 0.86661(14) 0.01273(10)
N3 N 0.2208(2) 0.85105(14) 0.03755(10)
N4 N 0.2109(2) 0.78833(14) 0.07091(10)
N5 N -0.4480(2) 0.77960(13) 0.07549(9)
N6 N -0.4521(2) 0.78051(15) 0.13107(10)
N7 N -0.4844(3) 0.71135(15) 0.14661(10)
N8 N -0.5030(2) 0.66360(14) 0.10240(10)
N9 N -0.2859(2) 1.01531(13) 0.06235(9)
N10 N -0.4332(3) 1.03315(14) 0.06030(10)
N11 N -0.4501(3) 1.09062(14) 0.09340(10)
N12 N -0.3160(3) 1.11244(14) 0.11746(10)
S1 S 0.00228(7) 0.68038(4) 0.09706(3)
O2 O 0.0959(3) 0.61997(12) 0.07847(9)
O3 O -0.1568(2) 0.67757(12) 0.08566(8)
C8 C 0.0403(3) 0.69488(15) 0.16735(11)
C9 C 0.1833(3) 0.67792(17) 0.18939(12)
H8 H 0.2575 0.6589 0.1667
C10 C 0.2146(3) 0.68956(19) 0.24517(13)
H9 H 0.3118 0.6792 0.2602
C11 C 0.1058(3) 0.71621(17) 0.27935(12)
C12 C 0.1409(4) 0.7294(2) 0.33977(13)
H10 H 0.1651 0.6805 0.3576
H11 H 0.0544 0.7521 0.3563
H12 H 0.2259 0.7641 0.3445
C13 C -0.0376(3) 0.73128(18) 0.25632(13)
H13 H -0.1129 0.7483 0.2793
C14 C -0.0715(3) 0.72183(17) 0.20046(12)
H14 H -0.1679 0.7333 0.1852
S2 S -0.48191(7) 0.66961(4) -0.00914(3)
O4 O -0.3943(2) 0.60052(13) -0.00558(10)
O5 O -0.4357(2) 0.73271(13) -0.04243(8)
C15 C -0.6676(3) 0.64586(16) -0.02878(11)
C16 C -0.7146(3) 0.57036(16) -0.02152(11)
H15 H -0.6524 0.5344 -0.0024
C17 C -0.8553(3) 0.54908(16) -0.04309(12)
H16 H -0.8882 0.4979 -0.0390
C18 C -0.9489(3) 0.60229(17) -0.07079(11)
C19 C -1.1022(3) 0.57861(19) -0.09393(14)
H17 H -1.1047 0.5231 -0.0992
H18 H -1.1230 0.6041 -0.1291
H19 H -1.1774 0.5934 -0.0683
C20 C -0.8984(3) 0.67785(17) -0.07689(13)
H20 H -0.9612 0.7142 -0.0952
C21 C -0.7578(3) 0.70026(16) -0.05649(12)
H21 H -0.7238 0.7511 -0.0612
S3 S -0.02379(8) 1.06999(4) 0.12011(3)
O6 O 0.0590(2) 1.01922(13) 0.08637(8)
O7 O 0.0108(3) 1.15076(12) 0.12214(9)
C22 C -0.0238(3) 1.03427(16) 0.18745(11)
C23 C 0.0389(3) 0.96259(17) 0.19953(13)
H22 H 0.0786 0.9324 0.1715
C24 C 0.0422(4) 0.93605(19) 0.25347(14)
H23 H 0.0868 0.8881 0.2622
C25 C -0.0197(4) 0.9796(2) 0.29495(13)
C26 C -0.0194(5) 0.9505(3) 0.35385(15)
H24 H 0.0529 0.9089 0.3588
H25 H -0.1186 0.9317 0.3615
H26 H 0.0079 0.9924 0.3790
C27 C -0.0844(4) 1.05085(19) 0.28169(13)
H27 H -0.1276 1.0804 0.3093
C28 C -0.0855(4) 1.07841(18) 0.22814(13)
H28 H -0.1280 1.1269 0.2194
O8 O -0.3522(2) 0.94837(12) 0.17522(9)
C29 C -0.4159(4) 0.94317(18) 0.21812(14)
C30 C -0.5165(5) 1.0061(3) 0.2366(2)
H29 H -0.5248 1.0459 0.2084
H30 H -0.4748 1.0282 0.2708
H31 H -0.6152 0.9851 0.2425
C31 C -0.3948(5) 0.8744(2) 0.25470(16)
H32 H -0.3742 0.8912 0.2925
H33 H -0.3111 0.8439 0.2427
H34 H -0.4853 0.8433 0.2527
loop_
_geom_bond_atom_site_label_1
_geom_bond_atom_site_label_2
_geom_bond_site_symmetry_1
_geom_bond_site_symmetry_2
C1 O1 1_555 1_555
O1 H1 1_555 1_555
C2 C1 1_555 1_555
H2 C2 1_555 1_555
H3 C2 1_555 1_555
C3 C1 1_555 1_555
H4 C3 1_555 1_555
H5 C3 1_555 1_555
C4 C1 1_555 1_555
H6 C4 1_555 1_555
H7 C4 1_555 1_555
C5 N1 1_555 1_555
C6 N5 1_555 1_555
C7 N9 1_555 1_555
N1 C2 1_555 1_555
N2 N1 1_555 1_555
N3 N2 1_555 1_555
N4 C5 1_555 1_555
N5 C4 1_555 1_555
N6 N5 1_555 1_555
N7 N6 1_555 1_555
N8 C6 1_555 1_555
N9 C3 1_555 1_555
N10 N9 1_555 1_555
N11 N10 1_555 1_555
N12 C7 1_555 1_555
S1 C5 1_555 1_555
O2 S1 1_555 1_555
O3 S1 1_555 1_555
C8 S1 1_555 1_555
C9 C8 1_555 1_555
H8 C9 1_555 1_555
C10 C9 1_555 1_555
H9 C10 1_555 1_555
C11 C10 1_555 1_555
C12 C11 1_555 1_555
H10 C12 1_555 1_555
H11 C12 1_555 1_555
H12 C12 1_555 1_555
C13 C11 1_555 1_555
H13 C13 1_555 1_555
C14 C8 1_555 1_555
H14 C14 1_555 1_555
S2 C6 1_555 1_555
O4 S2 1_555 1_555
O5 S2 1_555 1_555
C15 S2 1_555 1_555
C16 C15 1_555 1_555
H15 C16 1_555 1_555
C17 C16 1_555 1_555
H16 C17 1_555 1_555
C18 C17 1_555 1_555
C19 C18 1_555 1_555
H17 C19 1_555 1_555
H18 C19 1_555 1_555
H19 C19 1_555 1_555
C20 C18 1_555 1_555
H20 C20 1_555 1_555
C21 C15 1_555 1_555
H21 C21 1_555 1_555
S3 C7 1_555 1_555
O6 S3 1_555 1_555
O7 S3 1_555 1_555
C22 S3 1_555 1_555
C23 C22 1_555 1_555
H22 C23 1_555 1_555
C24 C23 1_555 1_555
H23 C24 1_555 1_555
C25 C24 1_555 1_555
C26 C25 1_555 1_555
H24 C26 1_555 1_555
H25 C26 1_555 1_555
H26 C26 1_555 1_555
C27 C25 1_555 1_555
H27 C27 1_555 1_555
C28 C22 1_555 1_555
H28 C28 1_555 1_555
O8 C29 1_555 1_555
C29 C30 1_555 1_555
C30 H29 1_555 1_555
H30 C30 1_555 1_555
H31 C30 1_555 1_555
C31 C29 1_555 1_555
H32 C31 1_555 1_555
H33 C31 1_555 1_555
H34 C31 1_555 1_555
N3 N4 1_555 1_555
N7 N8 1_555 1_555
N11 N12 1_555 1_555
C13 C14 1_555 1_555
C20 C21 1_555 1_555
C27 C28 1_555 1_555

#END
