
#######################################################################
#
#                 Cambridge Crystallographic Data Centre
#                                CCDC 
#
#######################################################################
#
# If this CIF has been generated from an entry in the Cambridge 
# Structural Database, then it will include bibliographic, chemical, 
# crystal, experimental, refinement or atomic coordinate data resulting 
# from the CCDC's data processing and validation procedures.
#
#######################################################################

data_ITIRAE01
_chemical_formula_moiety         'C7 H9 B1 O3'
_chemical_name_systematic        '(4-methoxyphenyl)boronic acid'
_symmetry_cell_setting           monoclinic
_symmetry_space_group_name_H-M   'P 21/n'
_symmetry_Int_Tables_number      14
_space_group_name_Hall           '-P 2yn'
loop_
_symmetry_equiv_pos_site_id
_symmetry_equiv_pos_as_xyz
1 x,y,z
2 1/2-x,1/2+y,1/2-z
3 -x,-y,-z
4 1/2+x,1/2-y,1/2+z
_cell_length_a                   11.2586(15)
_cell_length_b                   5.0616(7)
_cell_length_c                   13.8819(18)
_cell_angle_alpha                90
_cell_angle_beta                 111.069(2)
_cell_angle_gamma                90
_cell_volume                     738.196
_exptl_crystal_colour            colorless
_exptl_crystal_description       block
_cell_formula_units_Z            4
loop_
_atom_site_label
_atom_site_type_symbol
_atom_site_fract_x
_atom_site_fract_y
_atom_site_fract_z
B1 B 0.79639(12) -0.0643(3) 0.40880(9)
C1 C 0.84249(10) -0.0291(2) 0.52843(8)
C2 C 0.80007(12) 0.1758(2) 0.57480(9)
H1 H 0.7429 0.2978 0.5330
C3 C 0.84008(12) 0.2046(2) 0.68124(9)
H2 H 0.8085 0.3411 0.7100
C4 C 0.92755(11) 0.0274(2) 0.74397(8)
C5 C 0.97235(11) -0.1784(2) 0.70021(9)
H3 H 1.0311 -0.2976 0.7423
C6 C 0.92972(11) -0.2057(2) 0.59457(9)
H4 H 0.9598 -0.3456 0.5663
C7 C 0.93240(17) 0.2491(3) 0.89691(10)
H5 H 0.9565 0.4144 0.8754
H6 H 0.9707 0.2337 0.9706
H7 H 0.8415 0.2416 0.8766
O1 O 0.97474(10) 0.0374(2) 0.84963(6)
O2 O 0.80626(9) -0.30584(16) 0.36986(6)
H8 H 0.7910 -0.2933 0.3077
O3 O 0.74395(9) 0.13751(17) 0.34118(6)
H9 H 0.7537 0.2773 0.3730
loop_
_geom_bond_atom_site_label_1
_geom_bond_atom_site_label_2
_geom_bond_site_symmetry_1
_geom_bond_site_symmetry_2
B1 C1 1_555 1_555
C1 C2 1_555 1_555
C2 H1 1_555 1_555
C3 C2 1_555 1_555
H2 C3 1_555 1_555
C4 C3 1_555 1_555
C5 C4 1_555 1_555
H3 C5 1_555 1_555
C6 C1 1_555 1_555
H4 C6 1_555 1_555
C7 H5 1_555 1_555
H6 C7 1_555 1_555
H7 C7 1_555 1_555
O1 C4 1_555 1_555
O2 B1 1_555 1_555
H8 O2 1_555 1_555
O3 B1 1_555 1_555
H9 O3 1_555 1_555
C5 C6 1_555 1_555
C7 O1 1_555 1_555

#END
