
#######################################################################
#
#                 Cambridge Crystallographic Data Centre
#                                CCDC 
#
#######################################################################
#
# If this CIF has been generated from an entry in the Cambridge 
# Structural Database, then it will include bibliographic, chemical, 
# crystal, experimental, refinement or atomic coordinate data resulting 
# from the CCDC's data processing and validation procedures.
#
#######################################################################

data_ITIWIT
_chemical_formula_moiety         'C6 H2 N3 O7 1-,C2 H7 N4 O2 1+,H2 O1'
_chemical_name_systematic        
'2-amino-1-(hydroxyamino)-2-(hydroxyimino)ethaniminium 2,4,6-trinitrophenolate monohydrate'
_symmetry_cell_setting           triclinic
_symmetry_space_group_name_H-M   'P -1'
_symmetry_Int_Tables_number      2
_space_group_name_Hall           '-P 1'
loop_
_symmetry_equiv_pos_site_id
_symmetry_equiv_pos_as_xyz
1 x,y,z
2 -x,-y,-z
_cell_length_a                   7.4800(7)
_cell_length_b                   7.9953(8)
_cell_length_c                   12.7046(11)
_cell_angle_alpha                87.563(2)
_cell_angle_beta                 76.2600(10)
_cell_angle_gamma                68.8380(10)
_cell_volume                     687.498
_cell_formula_units_Z            2
loop_
_atom_site_label
_atom_site_type_symbol
_atom_site_fract_x
_atom_site_fract_y
_atom_site_fract_z
N1 N 0.4497(2) 0.4156(2) 0.11374(12)
H1 H 0.5243 0.3408 0.0605
N2 N 0.2686(2) 0.3241(2) -0.02191(12)
N3 N 0.1446(3) 0.5731(2) 0.21739(13)
H2 H 0.1940 0.6285 0.2522
H3 H 0.0195 0.5964 0.2336
N4 N 0.0195(3) 0.3210(2) 0.12880(13)
H4 H -0.0314 0.2685 0.0931
H5 H -0.0317 0.3493 0.1967
O1 O 0.5265(2) 0.4993(2) 0.17429(11)
H6 H 0.5835 0.5574 0.1346
O2 O 0.1815(2) 0.2295(2) -0.07110(10)
H7 H 0.2281 0.2196 -0.1368
C1 C 0.2591(3) 0.4543(2) 0.14047(14)
C2 C 0.1786(3) 0.3588(2) 0.07847(14)
N5 N 0.7786(3) 0.4940(2) 0.46706(13)
N6 N 0.1803(3) 0.9477(2) 0.66979(14)
N7 N 0.3679(3) 0.9978(2) 0.28244(13)
O3 O 0.7231(2) 0.70348(19) 0.27742(10)
O4 O 0.8783(2) 0.4121(2) 0.38231(12)
O5 O 0.8063(3) 0.4368(2) 0.55453(12)
O6 O 0.2319(3) 0.8916(2) 0.75315(12)
O7 O 0.0197(2) 1.0621(2) 0.66913(13)
O8 O 0.2892(3) 1.1603(2) 0.29391(13)
O9 O 0.4072(3) 0.9144(2) 0.19737(12)
C3 C 0.5947(3) 0.7471(2) 0.36488(15)
C4 C 0.6136(3) 0.6607(2) 0.46592(15)
C5 C 0.4833(3) 0.7260(2) 0.56366(15)
H8 H 0.5061 0.6684 0.6270
C6 C 0.3178(3) 0.8783(2) 0.56718(15)
C7 C 0.2806(3) 0.9649(3) 0.47346(15)
H9 H 0.1674 1.0660 0.4763
C8 C 0.4123(3) 0.8995(2) 0.37755(15)
O10 O 0.7607(3) 0.1356(2) 0.99781(14)
H10 H 0.7829 0.0333 1.0251
H11 H 0.7139 0.1352 0.9431
loop_
_geom_bond_atom_site_label_1
_geom_bond_atom_site_label_2
_geom_bond_site_symmetry_1
_geom_bond_site_symmetry_2
N1 H1 1_555 1_555
N2 O2 1_555 1_555
N3 H2 1_555 1_555
H3 N3 1_555 1_555
N4 H4 1_555 1_555
H5 N4 1_555 1_555
O1 N1 1_555 1_555
H6 O1 1_555 1_555
O2 H7 1_555 1_555
C1 N1 1_555 1_555
C2 N2 1_555 1_555
N5 O4 1_555 1_555
N6 O6 1_555 1_555
N7 O8 1_555 1_555
O3 C3 1_555 1_555
O5 N5 1_555 1_555
O7 N6 1_555 1_555
O9 N7 1_555 1_555
C3 C4 1_555 1_555
C4 N5 1_555 1_555
C5 C4 1_555 1_555
H8 C5 1_555 1_555
C6 N6 1_555 1_555
C7 C6 1_555 1_555
H9 C7 1_555 1_555
C8 N7 1_555 1_555
O10 H10 1_555 1_555
H11 O10 1_555 1_555
N3 C1 1_555 1_555
N4 C2 1_555 1_555
C1 C2 1_555 1_555
C3 C8 1_555 1_555
C5 C6 1_555 1_555
C7 C8 1_555 1_555

#END
