
#######################################################################
#
#                 Cambridge Crystallographic Data Centre
#                                CCDC 
#
#######################################################################
#
# If this CIF has been generated from an entry in the Cambridge 
# Structural Database, then it will include bibliographic, chemical, 
# crystal, experimental, refinement or atomic coordinate data resulting 
# from the CCDC's data processing and validation procedures.
#
#######################################################################

data_ITOBAW
_chemical_formula_moiety         'C12 H24 O6,C5 H12 N1 1+,Cl1 O4 1-'
_chemical_name_systematic        'cyclopentanaminium 18-crown-6 perchlorate'
_symmetry_cell_setting           orthorhombic
_symmetry_space_group_name_H-M   'P b c n'
_symmetry_Int_Tables_number      60
_space_group_name_Hall           '-P 2n 2ab'
loop_
_symmetry_equiv_pos_site_id
_symmetry_equiv_pos_as_xyz
1 x,y,z
2 1/2-x,1/2-y,1/2+z
3 1/2+x,1/2-y,-z
4 -x,y,1/2-z
5 -x,-y,-z
6 1/2+x,1/2+y,1/2-z
7 1/2-x,1/2+y,z
8 x,-y,1/2+z
_cell_length_a                   12.4985(9)
_cell_length_b                   13.1847(10)
_cell_length_c                   13.6702(9)
_cell_angle_alpha                90
_cell_angle_beta                 90
_cell_angle_gamma                90
_cell_volume                     2252.7
_exptl_crystal_colour            colorless
_exptl_crystal_description       block
_chemical_melting_point          '456 K'
_cell_formula_units_Z            4
_exptl_crystal_recrystallization_method 'Vapour Deposition'
loop_
_atom_site_label
_atom_site_type_symbol
_atom_site_fract_x
_atom_site_fract_y
_atom_site_fract_z
N1 N 0.5042(7) 0.4577(7) 0.0688(6)
H13 H 0.5318 0.5180 0.0833
H14 H 0.4374 0.4655 0.0473
H15 H 0.5435 0.4283 0.0224
C7 C 0.5045(14) 0.3919(13) 0.1594(9)
H16 H 0.4950 0.3270 0.1255
C8 C 0.4165(11) 0.385(2) 0.2151(12)
H17 H 0.3781 0.4483 0.2051
H18 H 0.3730 0.3325 0.1856
C9 C 0.5862(15) 0.3699(16) 0.2001(9)
H19 H 0.6010 0.2986 0.1890
H20 H 0.6443 0.4087 0.1717
N1C N 0.4958(7) 0.4577(7) 0.4312(6)
H13C H 0.4682 0.5180 0.4167
H14C H 0.5626 0.4655 0.4527
H15C H 0.4565 0.4283 0.4776
C7C C 0.4955(14) 0.3919(13) 0.3406(9)
H16C H 0.5050 0.3270 0.3745
C8C C 0.5835(11) 0.385(2) 0.2849(12)
H17C H 0.6219 0.4483 0.2949
H18C H 0.6270 0.3325 0.3144
C9C C 0.4138(15) 0.3699(16) 0.2999(9)
H19C H 0.3990 0.2986 0.3110
H20C H 0.3557 0.4087 0.3283
Cl1 Cl 0.5000 0.01820(17) 0.2500
O4 O 0.4066(4) -0.0430(4) 0.2476(5)
O5 O 0.4994(5) 0.0804(6) 0.3326(6)
O4C O 0.5934(4) -0.0430(4) 0.2524(5)
O5C O 0.5006(5) 0.0804(6) 0.1674(6)
O1 O 0.0578(3) 0.1728(3) 0.3933(3)
O2 O 0.2143(3) 0.0595(3) 0.4922(3)
O3 O 0.1611(3) -0.1366(3) 0.5574(3)
C1 C 0.1614(5) 0.2091(5) 0.4132(5)
H1 H 0.1621 0.2428 0.4763
H2 H 0.1820 0.2581 0.3638
C2 C 0.2382(5) 0.1245(5) 0.4139(4)
H3 H 0.2340 0.0875 0.3526
H4 H 0.3104 0.1505 0.4208
C3 C 0.2911(5) -0.0204(5) 0.5068(5)
H5 H 0.3604 0.0086 0.5225
H6 H 0.2985 -0.0597 0.4472
C4 C 0.2562(5) -0.0856(5) 0.5857(5)
H7 H 0.3116 -0.1347 0.6007
H8 H 0.2430 -0.0454 0.6439
C5 C 0.1258(5) -0.2094(6) 0.6290(5)
H9 H 0.1201 -0.1771 0.6925
H10 H 0.1777 -0.2639 0.6340
C6 C -0.0201(6) 0.2513(5) 0.4001(6)
H11 H -0.0008 0.3070 0.3572
H12 H -0.0235 0.2768 0.4666
O1D O -0.0578(3) -0.1728(3) 0.6067(3)
O2D O -0.2143(3) -0.0595(3) 0.5078(3)
O3D O -0.1611(3) 0.1366(3) 0.4426(3)
C1D C -0.1614(5) -0.2091(5) 0.5868(5)
H1D H -0.1621 -0.2428 0.5237
H2D H -0.1820 -0.2581 0.6362
C2D C -0.2382(5) -0.1245(5) 0.5861(4)
H3D H -0.2340 -0.0875 0.6474
H4D H -0.3104 -0.1505 0.5792
C3D C -0.2911(5) 0.0204(5) 0.4932(5)
H5D H -0.3604 -0.0086 0.4775
H6D H -0.2985 0.0597 0.5528
C4D C -0.2562(5) 0.0856(5) 0.4143(5)
H7D H -0.3116 0.1347 0.3993
H8D H -0.2430 0.0454 0.3561
C5D C -0.1258(5) 0.2094(6) 0.3710(5)
H9D H -0.1201 0.1771 0.3075
H10D H -0.1777 0.2639 0.3660
C6D C 0.0201(6) -0.2513(5) 0.5999(6)
H11D H 0.0008 -0.3070 0.6428
H12D H 0.0235 -0.2768 0.5334
loop_
_geom_bond_atom_site_label_1
_geom_bond_atom_site_label_2
_geom_bond_site_symmetry_1
_geom_bond_site_symmetry_2
O1 C1 1_555 1_555
O2 C2 1_555 1_555
O3 C4 1_555 1_555
C1 H1 1_555 1_555
H2 C1 1_555 1_555
C2 C1 1_555 1_555
H3 C2 1_555 1_555
H4 C2 1_555 1_555
C3 O2 1_555 1_555
H5 C3 1_555 1_555
H6 C3 1_555 1_555
C4 C3 1_555 1_555
H7 C4 1_555 1_555
H8 C4 1_555 1_555
C5 O3 1_555 1_555
H9 C5 1_555 1_555
H10 C5 1_555 1_555
C6 O1 1_555 1_555
H11 C6 1_555 1_555
H12 C6 1_555 1_555
N1 H13 1_555 1_555
H14 N1 1_555 1_555
H15 N1 1_555 1_555
C7 N1 1_555 1_555
H16 C7 1_555 1_555
C8 C7 1_555 1_555
H17 C8 1_555 1_555
H18 C8 1_555 1_555
C9 C7 1_555 1_555
H19 C9 1_555 1_555
H20 C9 1_555 1_555
Cl1 O4 1_555 1_555
O5 Cl1 1_555 1_555
O1D C1D 1_555 1_555
O2D C2D 1_555 1_555
O3D C4D 1_555 1_555
C1D H1D 1_555 1_555
H2D C1D 1_555 1_555
C2D C1D 1_555 1_555
H3D C2D 1_555 1_555
H4D C2D 1_555 1_555
C3D O2D 1_555 1_555
H5D C3D 1_555 1_555
H6D C3D 1_555 1_555
C4D C3D 1_555 1_555
H7D C4D 1_555 1_555
H8D C4D 1_555 1_555
C5D C6 1_555 1_555
H9D C5D 1_555 1_555
H10D C5D 1_555 1_555
C6D C5 1_555 1_555
H11D C6D 1_555 1_555
H12D C6D 1_555 1_555
N1C H13C 1_555 1_555
H14C N1C 1_555 1_555
H15C N1C 1_555 1_555
C7C N1C 1_555 1_555
H16C C7C 1_555 1_555
C8C C9 1_555 1_555
H17C C8C 1_555 1_555
H18C C8C 1_555 1_555
C9C C8 1_555 1_555
H19C C9C 1_555 1_555
H20C C9C 1_555 1_555
O4C Cl1 1_555 1_555
O5C Cl1 1_555 1_555
O1D C6D 1_555 1_555
O3D C5D 1_555 1_555
C7C C8C 1_555 1_555
C7C C9C 1_555 1_555

#END
