
#######################################################################
#
#                 Cambridge Crystallographic Data Centre
#                                CCDC 
#
#######################################################################
#
# If this CIF has been generated from an entry in the Cambridge 
# Structural Database, then it will include bibliographic, chemical, 
# crystal, experimental, refinement or atomic coordinate data resulting 
# from the CCDC's data processing and validation procedures.
#
#######################################################################

data_ITOFON
_chemical_name_common            
"(1S,3S,4R,4'R,5S,5'R,6R)-t-butyl 5,6-dihydroxy-4',5'-diphenyl-3-(phenylsulfonyl)-7-azaspiro[bicyclo[2.2.1]heptane-2,2'-[1,3]dioxolane]-7-carboxylate"
_chemical_formula_moiety         'C31 H33 N1 O8 S1'
_chemical_name_systematic        
"t-Butyl 5,6-dihydroxy-4',5'-diphenyl-3-(phenylsulfonyl)-7H-spiro[7-azabicyclo[2.2.1]heptane-2,2'-[1,3]dioxolane]-7-carboxylate"
_symmetry_cell_setting           monoclinic
_symmetry_space_group_name_H-M   'P 21'
_symmetry_Int_Tables_number      4
_space_group_name_Hall           'P 2yb'
loop_
_symmetry_equiv_pos_site_id
_symmetry_equiv_pos_as_xyz
1 x,y,z
2 -x,1/2+y,-z
_cell_length_a                   9.424(3)
_cell_length_b                   12.080(3)
_cell_length_c                   13.222(4)
_cell_angle_alpha                90
_cell_angle_beta                 95.924(5)
_cell_angle_gamma                90
_cell_volume                     1497.18
_exptl_crystal_colour            colorless
_exptl_crystal_description       blocks
_cell_formula_units_Z            2
loop_
_atom_site_label
_atom_site_type_symbol
_atom_site_fract_x
_atom_site_fract_y
_atom_site_fract_z
S1 S -0.27109(9) -0.33069(6) -0.64150(5)
O1 O -0.36668(17) -0.06835(13) -0.78457(13)
O2 O -0.52258(18) -0.17858(15) -0.71313(13)
O3 O -0.1399(3) -0.3914(2) -0.64213(18)
C1 C -0.4197(3) -0.1774(2) -0.78260(19)
C2 C -0.2882(3) -0.2541(2) -0.75935(19)
C3 C -0.2828(3) -0.1806(3) -0.99832(19)
O4 O -0.1474(2) -0.21051(19) -1.00088(14)
O5 O -0.3985(3) -0.39177(19) -0.62807(17)
C4 C -0.2488(3) -0.2255(3) -0.5469(2)
C5 C -0.2907(4) -0.3259(3) -0.8574(2)
N1 N -0.3476(3) -0.2433(2) -0.93303(16)
C6 C -0.4186(3) 0.1121(2) -0.7231(2)
O6 O -0.3449(2) -0.10881(19) -1.04998(15)
C7 C -0.4818(3) 0.0039(2) -0.7621(2)
C8 C -0.7754(3) 0.0223(3) -0.6304(2)
C9 C -0.7177(3) -0.0483(2) -0.69804(18)
C10 C -0.4792(3) -0.2186(2) -0.8892(2)
C11 C -0.3373(3) 0.1191(3) -0.6302(3)
C12 C -0.5586(3) -0.0658(2) -0.68858(19)
C13 C -0.1190(4) -0.1727(4) -0.5296(3)
O7 O -0.3977(4) -0.4779(2) -0.9508(2)
H1 H -0.4662 -0.5199 -0.9598
C14 C -0.3722(7) 0.3029(4) -0.7497(6)
C15 C -0.5455(4) -0.3343(3) -0.8791(2)
C16 C -0.8072(3) -0.0936(4) -0.7761(2)
C17 C -0.4345(5) 0.2061(3) -0.7822(4)
C18 C -0.3602(4) -0.1982(3) -0.4934(2)
C19 C -0.2145(7) -0.0606(4) -0.4042(3)
C20 C -1.0056(4) 0.0035(4) -0.7208(3)
C21 C -0.1032(6) -0.0887(4) -0.4567(3)
C22 C -0.3416(7) -0.1137(4) -0.4211(3)
C23 C -0.0685(4) -0.1837(4) -1.0897(3)
C24 C -0.9177(4) 0.0483(3) -0.6419(3)
C25 C -0.1511(4) -0.2313(4) -1.1833(3)
H2 H -0.1612 -0.3098 -1.1751
H3 H -0.1009 -0.2169 -1.2415
H4 H -0.2438 -0.1977 -1.1929
C26 C -0.4130(5) -0.4096(3) -0.8659(3)
C27 C -0.2939(6) 0.3102(4) -0.6583(6)
C28 C -0.9508(4) -0.0669(4) -0.7866(3)
C29 C -0.0477(6) -0.0588(5) -1.0971(4)
H5 H 0.0053 -0.0324 -1.0360
H6 H -0.1391 -0.0230 -1.1059
H7 H 0.0039 -0.0425 -1.1543
C30 C -0.2755(5) 0.2187(4) -0.5976(4)
C31 C 0.0694(4) -0.2448(6) -1.0630(3)
H8 H 0.0504 -0.3225 -1.0578
H9 H 0.1142 -0.2182 -0.9991
H10 H 0.1316 -0.2326 -1.1150
O8 O -0.6340(3) -0.3589(3) -0.9697(2)
H11 H -0.6471 -0.4259 -0.9737
H12 H -0.515(2) -0.049(2) -0.6199(18)
H13 H -0.201(3) -0.210(2) -0.7558(19)
H14 H -0.546(2) 0.012(2) -0.8237(17)
H15 H -0.202(3) -0.343(3) -0.870(2)
H16 H -1.007(4) -0.098(3) -0.841(3)
H17 H -0.542(3) -0.167(3) -0.927(2)
H18 H -0.763(4) -0.149(3) -0.816(3)
H19 H -0.042(3) -0.198(2) -0.5675(19)
H20 H -0.322(3) 0.057(2) -0.589(2)
H21 H -1.103(4) 0.018(4) -0.726(3)
H22 H -0.412(3) -0.450(3) -0.803(3)
H23 H -0.601(3) -0.341(2) -0.817(2)
H24 H -0.449(3) -0.235(3) -0.513(2)
H25 H -0.212(4) -0.001(4) -0.351(3)
H26 H -0.710(3) 0.056(3) -0.577(2)
H27 H -0.242(6) 0.366(6) -0.635(4)
H28 H -0.391(6) 0.362(5) -0.787(4)
H29 H -0.420(5) -0.098(4) -0.385(4)
H30 H -0.012(6) -0.049(5) -0.454(4)
H31 H -0.223(4) 0.220(3) -0.538(3)
H32 H -0.965(4) 0.104(4) -0.597(3)
H33 H -0.482(5) 0.202(4) -0.849(4)
loop_
_geom_bond_atom_site_label_1
_geom_bond_atom_site_label_2
_geom_bond_site_symmetry_1
_geom_bond_site_symmetry_2
S1 O3 1_555 1_555
O1 C1 1_555 1_555
O2 C1 1_555 1_555
C1 C2 1_555 1_555
C2 S1 1_555 1_555
C3 O4 1_555 1_555
O4 C23 1_555 1_555
O5 S1 1_555 1_555
C4 S1 1_555 1_555
C5 C2 1_555 1_555
N1 C3 1_555 1_555
C6 C7 1_555 1_555
O6 C3 1_555 1_555
C7 O1 1_555 1_555
C8 C9 1_555 1_555
C9 C12 1_555 1_555
C10 C1 1_555 1_555
C11 C6 1_555 1_555
C12 O2 1_555 1_555
C13 C4 1_555 1_555
O7 H1 1_555 1_555
C14 C17 1_555 1_555
C15 C10 1_555 1_555
C16 C9 1_555 1_555
C17 C6 1_555 1_555
C18 C4 1_555 1_555
C19 C21 1_555 1_555
C20 C24 1_555 1_555
C21 C13 1_555 1_555
C22 C18 1_555 1_555
C23 C25 1_555 1_555
C24 C8 1_555 1_555
C25 H2 1_555 1_555
H3 C25 1_555 1_555
H4 C25 1_555 1_555
C26 C5 1_555 1_555
C27 C14 1_555 1_555
C28 C16 1_555 1_555
C29 C23 1_555 1_555
H5 C29 1_555 1_555
H6 C29 1_555 1_555
H7 C29 1_555 1_555
C30 C11 1_555 1_555
C31 C23 1_555 1_555
H8 C31 1_555 1_555
H9 C31 1_555 1_555
H10 C31 1_555 1_555
O8 C15 1_555 1_555
H11 O8 1_555 1_555
H12 C12 1_555 1_555
H13 C2 1_555 1_555
H14 C7 1_555 1_555
H15 C5 1_555 1_555
H16 C28 1_555 1_555
H17 C10 1_555 1_555
H18 C16 1_555 1_555
H19 C13 1_555 1_555
H20 C11 1_555 1_555
H21 C20 1_555 1_555
H22 C26 1_555 1_555
H23 C15 1_555 1_555
H24 C18 1_555 1_555
H25 C19 1_555 1_555
H26 C8 1_555 1_555
H27 C27 1_555 1_555
H28 C14 1_555 1_555
H29 C22 1_555 1_555
H30 C21 1_555 1_555
H31 C30 1_555 1_555
H32 C24 1_555 1_555
H33 C17 1_555 1_555
C5 N1 1_555 1_555
N1 C10 1_555 1_555
C7 C12 1_555 1_555
O7 C26 1_555 1_555
C15 C26 1_555 1_555
C19 C22 1_555 1_555
C20 C28 1_555 1_555
C27 C30 1_555 1_555

#END
