
#######################################################################
#
#                 Cambridge Crystallographic Data Centre
#                                CCDC 
#
#######################################################################
#
# If this CIF has been generated from an entry in the Cambridge 
# Structural Database, then it will include bibliographic, chemical, 
# crystal, experimental, refinement or atomic coordinate data resulting 
# from the CCDC's data processing and validation procedures.
#
#######################################################################

data_ITOHIK
_chemical_formula_moiety         'C15 H13 N1 O1'
_chemical_name_systematic        3-benzylisoindolin-1-one
_symmetry_cell_setting           monoclinic
_symmetry_space_group_name_H-M   'P 21/c'
_symmetry_Int_Tables_number      14
_space_group_name_Hall           '-P 2ybc'
loop_
_symmetry_equiv_pos_site_id
_symmetry_equiv_pos_as_xyz
1 x,y,z
2 -x,1/2+y,1/2-z
3 -x,-y,-z
4 x,1/2-y,1/2+z
_cell_length_a                   12.6365(8)
_cell_length_b                   8.5132(4)
_cell_length_c                   12.1579(8)
_cell_angle_alpha                90
_cell_angle_beta                 116.664(8)
_cell_angle_gamma                90
_cell_volume                     1168.82
_exptl_crystal_colour            colorless
_exptl_crystal_description       tablets
_cell_formula_units_Z            4
loop_
_atom_site_label
_atom_site_type_symbol
_atom_site_fract_x
_atom_site_fract_y
_atom_site_fract_z
N1 N 0.44219(11) 0.33034(16) 0.39681(12)
H1 H 0.5108(8) 0.3840(18) 0.4293(14)
C1 C 0.35284(14) 0.36893(19) 0.42375(14)
O1 O 0.35835(10) 0.46130(14) 0.50431(11)
C2 C 0.24839(13) 0.27870(19) 0.33832(14)
C3 C 0.13615(14) 0.2694(2) 0.33133(16)
H2 H 0.1158 0.3274 0.3859
C4 C 0.05499(15) 0.1729(2) 0.24234(16)
H3 H -0.0228 0.1642 0.2351
C5 C 0.08553(15) 0.0886(2) 0.16345(16)
H4 H 0.0281 0.0225 0.1033
C6 C 0.19768(15) 0.0981(2) 0.16990(15)
H5 H 0.2179 0.0401 0.1153
C7 C 0.27890(13) 0.19514(18) 0.25895(13)
C8 C 0.40651(13) 0.22700(18) 0.29008(14)
H6 H 0.4108 0.2857 0.2209
C9 C 0.48186(14) 0.07820(18) 0.31746(15)
H7 H 0.4788 0.0226 0.3875
H8 H 0.4471 0.0080 0.2450
C10 C 0.60935(14) 0.10908(18) 0.34795(14)
C11 C 0.63999(14) 0.16307(19) 0.25820(15)
H9 H 0.5795 0.1835 0.1776
C12 C 0.75732(15) 0.1876(2) 0.28426(17)
H10 H 0.7768 0.2244 0.2218
C13 C 0.84564(16) 0.1585(2) 0.40097(18)
H11 H 0.9262 0.1746 0.4191
C14 C 0.81686(17) 0.1063(2) 0.49089(18)
H12 H 0.8777 0.0869 0.5715
C15 C 0.69987(16) 0.0816(2) 0.46473(16)
H13 H 0.6812 0.0453 0.5278
loop_
_geom_bond_atom_site_label_1
_geom_bond_atom_site_label_2
_geom_bond_site_symmetry_1
_geom_bond_site_symmetry_2
N1 H1 1_555 1_555
C1 N1 1_555 1_555
O1 C1 1_555 1_555
C2 C1 1_555 1_555
C3 C2 1_555 1_555
H2 C3 1_555 1_555
C4 C3 1_555 1_555
H3 C4 1_555 1_555
C5 C4 1_555 1_555
H4 C5 1_555 1_555
C6 C5 1_555 1_555
H5 C6 1_555 1_555
C7 C2 1_555 1_555
C8 N1 1_555 1_555
H6 C8 1_555 1_555
C9 C8 1_555 1_555
H7 C9 1_555 1_555
H8 C9 1_555 1_555
C10 C9 1_555 1_555
C11 C10 1_555 1_555
H9 C11 1_555 1_555
C12 C11 1_555 1_555
H10 C12 1_555 1_555
C13 C12 1_555 1_555
H11 C13 1_555 1_555
C14 C13 1_555 1_555
H12 C14 1_555 1_555
C15 C10 1_555 1_555
H13 C15 1_555 1_555
C6 C7 1_555 1_555
C7 C8 1_555 1_555
C14 C15 1_555 1_555

#END
