
#######################################################################
#
#                 Cambridge Crystallographic Data Centre
#                                CCDC 
#
#######################################################################
#
# If this CIF has been generated from an entry in the Cambridge 
# Structural Database, then it will include bibliographic, chemical, 
# crystal, experimental, refinement or atomic coordinate data resulting 
# from the CCDC's data processing and validation procedures.
#
#######################################################################

data_ITOHEG
_chemical_formula_moiety         'C16 H15 N1 O2'
_chemical_name_systematic        3-benzyl-2-methoxyisoindolin-1-one
_symmetry_cell_setting           orthorhombic
_symmetry_space_group_name_H-M   'P 21 21 21'
_symmetry_Int_Tables_number      19
_space_group_name_Hall           'P 2ac 2ab'
loop_
_symmetry_equiv_pos_site_id
_symmetry_equiv_pos_as_xyz
1 x,y,z
2 1/2-x,-y,1/2+z
3 -x,1/2+y,1/2-z
4 1/2+x,1/2-y,-z
_cell_length_a                   8.5662(4)
_cell_length_b                   10.7642(6)
_cell_length_c                   14.3417(7)
_cell_angle_alpha                90
_cell_angle_beta                 90
_cell_angle_gamma                90
_cell_volume                     1322.42
_exptl_crystal_colour            colorless
_exptl_crystal_description       'blocky needles'
_cell_formula_units_Z            4
loop_
_atom_site_label
_atom_site_type_symbol
_atom_site_fract_x
_atom_site_fract_y
_atom_site_fract_z
N1 N 0.9943(2) 0.79241(17) 0.34073(11)
C1 C 1.1075(3) 0.8783(2) 0.32827(15)
O1 O 1.1708(2) 0.94131(17) 0.38784(11)
C2 C 1.1348(2) 0.87650(19) 0.22590(13)
C3 C 1.2457(3) 0.9404(2) 0.17519(15)
H1 H 1.3196 0.9927 0.2051
C4 C 1.2456(3) 0.9258(2) 0.07937(15)
H2 H 1.3193 0.9696 0.0423
C5 C 1.1386(3) 0.8478(2) 0.03749(15)
H3 H 1.1385 0.8408 -0.0285
C6 C 1.0313(3) 0.7793(2) 0.08855(14)
H4 H 0.9610 0.7237 0.0589
C7 C 1.0307(2) 0.79525(19) 0.18445(14)
C8 C 0.9305(2) 0.7342(2) 0.25733(13)
H5 H 0.9522 0.6429 0.2587
O2 O 0.92384(19) 0.77191(16) 0.42637(9)
C9 C 1.0110(3) 0.6814(2) 0.47875(16)
H6 H 0.9518 0.6577 0.5344
H7 H 1.1114 0.7172 0.4975
H8 H 1.0292 0.6079 0.4400
C10 C 0.7542(2) 0.7562(2) 0.24744(15)
H9 H 0.7155 0.7070 0.1939
H10 H 0.7016 0.7246 0.3041
C11 C 0.7080(2) 0.8897(2) 0.23340(15)
C12 C 0.6974(3) 0.9713(2) 0.30819(17)
H11 H 0.7183 0.9421 0.3694
C13 C 0.6568(3) 1.0945(2) 0.29491(18)
H12 H 0.6502 1.1492 0.3467
C14 C 0.6257(3) 1.1378(2) 0.20602(18)
H13 H 0.5974 1.2223 0.1968
C15 C 0.6357(3) 1.0589(2) 0.13113(17)
H14 H 0.6146 1.0884 0.0700
C16 C 0.6767(3) 0.9360(2) 0.14519(16)
H15 H 0.6836 0.8819 0.0930
loop_
_geom_bond_atom_site_label_1
_geom_bond_atom_site_label_2
_geom_bond_site_symmetry_1
_geom_bond_site_symmetry_2
N1 C1 1_555 1_555
C1 O1 1_555 1_555
C2 C1 1_555 1_555
C3 C2 1_555 1_555
H1 C3 1_555 1_555
C4 C3 1_555 1_555
H2 C4 1_555 1_555
C5 C4 1_555 1_555
H3 C5 1_555 1_555
C6 C5 1_555 1_555
H4 C6 1_555 1_555
C7 C2 1_555 1_555
C8 N1 1_555 1_555
H5 C8 1_555 1_555
O2 N1 1_555 1_555
C9 O2 1_555 1_555
H6 C9 1_555 1_555
H7 C9 1_555 1_555
H8 C9 1_555 1_555
C10 C8 1_555 1_555
H9 C10 1_555 1_555
H10 C10 1_555 1_555
C11 C10 1_555 1_555
C12 C11 1_555 1_555
H11 C12 1_555 1_555
C13 C12 1_555 1_555
H12 C13 1_555 1_555
C14 C13 1_555 1_555
H13 C14 1_555 1_555
C15 C14 1_555 1_555
H14 C15 1_555 1_555
C16 C11 1_555 1_555
H15 C16 1_555 1_555
C6 C7 1_555 1_555
C7 C8 1_555 1_555
C15 C16 1_555 1_555

#END
