
#######################################################################
#
#                 Cambridge Crystallographic Data Centre
#                                CCDC 
#
#######################################################################
#
# If this CIF has been generated from an entry in the Cambridge 
# Structural Database, then it will include bibliographic, chemical, 
# crystal, experimental, refinement or atomic coordinate data resulting 
# from the CCDC's data processing and validation procedures.
#
#######################################################################

data_ITOJEI
_chemical_formula_moiety         'C33 H30 N4 O3'
_chemical_name_systematic        
2'-amino-1-benzyl-1'-(4-methoxyphenyl)-7',7'-dimethyl-2,5'-dioxo-1,2,5',6',7',8'-hexahydro-1'H-spiro[indole-3,4'-quinoline]-3'-carbonitrile
_symmetry_cell_setting           monoclinic
_symmetry_space_group_name_H-M   'C 2'
_symmetry_Int_Tables_number      5
_space_group_name_Hall           'C 2y'
loop_
_symmetry_equiv_pos_site_id
_symmetry_equiv_pos_as_xyz
1 x,y,z
2 -x,y,-z
3 1/2+x,1/2+y,z
4 1/2-x,1/2+y,-z
_cell_length_a                   32.0719(7)
_cell_length_b                   9.2396(2)
_cell_length_c                   20.2331(4)
_cell_angle_alpha                90
_cell_angle_beta                 109.7790(10)
_cell_angle_gamma                90
_cell_volume                     5641.99
_exptl_crystal_colour            colorless
_exptl_crystal_description       block
_cell_formula_units_Z            8
loop_
_atom_site_label
_atom_site_type_symbol
_atom_site_fract_x
_atom_site_fract_y
_atom_site_fract_z
O1 O -0.92713(12) -0.4971(4) -0.35847(18)
O2 O -0.97422(10) -0.2110(4) -0.31511(15)
O3 O -0.75493(15) -0.4705(5) 0.15015(17)
N1 N -0.91441(11) -0.2809(5) -0.40403(17)
N2 N -0.84955(11) -0.3925(5) -0.13415(16)
N3 N -0.78635(13) -0.4815(6) -0.1511(2)
H1 H -0.7705 -0.5003 -0.1768
H2 H -0.7769 -0.5041 -0.1072
N4 N -0.79869(14) -0.4309(9) -0.3282(2)
C1 C -0.91300(13) -0.3749(6) -0.3512(2)
C2 C -0.88717(13) -0.3002(5) -0.2800(2)
C3 C -0.88152(14) -0.1491(5) -0.3051(2)
C4 C -0.8644(2) -0.0266(7) -0.2682(3)
H3 H -0.8526 -0.0296 -0.2194
C5 C -0.8645(3) 0.1024(8) -0.3034(4)
H4 H -0.8526 0.1861 -0.2787
C6 C -0.8826(2) 0.1043(8) -0.3760(4)
H5 H -0.8832 0.1912 -0.3995
C7 C -0.89975(19) -0.0167(7) -0.4143(3)
H6 H -0.9117 -0.0135 -0.4631
C8 C -0.89876(15) -0.1443(6) -0.3781(2)
C9 C -0.93692(15) -0.3130(7) -0.4785(2)
H7 H -0.9603 -0.2424 -0.4978
H8 H -0.9507 -0.4076 -0.4826
C10 C -0.90630(14) -0.3116(5) -0.5219(2)
C11 C -0.92209(17) -0.2602(6) -0.5905(2)
H9 H -0.9503 -0.2200 -0.6083
C12 C -0.89568(19) -0.2690(6) -0.6324(2)
H10 H -0.9065 -0.2352 -0.6783
C13 C -0.85429(18) -0.3262(6) -0.6072(3)
H11 H -0.8371 -0.3332 -0.6360
C14 C -0.83820(17) -0.3734(6) -0.5392(3)
H12 H -0.8095 -0.4094 -0.5213
C15 C -0.86426(15) -0.3682(6) -0.4967(2)
H13 H -0.8532 -0.4032 -0.4510
C16 C -0.82599(13) -0.4169(6) -0.1794(2)
C17 C -0.84342(13) -0.3776(6) -0.2479(2)
C18 C -0.81830(15) -0.4089(8) -0.2919(2)
C19 C -0.91155(13) -0.3002(5) -0.22824(19)
C20 C -0.95679(13) -0.2460(5) -0.2533(2)
C21 C -0.98087(14) -0.2257(6) -0.2019(2)
H14 H -1.0124 -0.2376 -0.2265
H15 H -0.9761 -0.1274 -0.1841
C22 C -0.96677(13) -0.3295(5) -0.1401(2)
C23 C -0.91648(13) -0.3242(6) -0.1073(2)
H16 H -0.9080 -0.2332 -0.0824
H17 H -0.9068 -0.4017 -0.0731
C24 C -0.89269(12) -0.3384(5) -0.16013(19)
C25 C -0.98176(19) -0.4829(7) -0.1646(3)
H18 H -0.9690 -0.5123 -0.1990
H19 H -1.0135 -0.4854 -0.1849
H20 H -0.9723 -0.5476 -0.1252
C26 C -0.98702(15) -0.2821(7) -0.0854(2)
H21 H -0.9775 -0.3464 -0.0458
H22 H -1.0187 -0.2847 -0.1056
H23 H -0.9776 -0.1853 -0.0702
C27 C -0.82689(13) -0.4150(5) -0.0595(2)
C28 C -0.80033(18) -0.3073(6) -0.0201(3)
H24 H -0.7981 -0.2192 -0.0409
C29 C -0.7770(2) -0.3297(7) 0.0501(3)
H25 H -0.7591 -0.2565 0.0766
C30 C -0.78011(16) -0.4594(6) 0.0811(2)
C31 C -0.80584(16) -0.5669(6) 0.0423(2)
H26 H -0.8076 -0.6557 0.0628
C32 C -0.82937(15) -0.5431(6) -0.0279(2)
H27 H -0.8473 -0.6163 -0.0542
C33 C -0.7593(2) -0.5998(8) 0.1856(3)
H28 H -0.7515 -0.6816 0.1629
H29 H -0.7894 -0.6097 0.1841
H30 H -0.7400 -0.5954 0.2336
O4 O -0.58790(12) -0.5819(4) -0.17207(18)
O5 O -0.52114(9) -0.3442(4) -0.18877(14)
O6 O -0.74928(14) -0.4022(5) -0.67057(15)
N5 N -0.58641(11) -0.3741(5) -0.10912(16)
N6 N -0.65342(11) -0.3670(4) -0.38461(15)
N7 N -0.72298(12) -0.4115(5) -0.37630(18)
H31 H -0.7266 -0.4722 -0.4105
H32 H -0.7355 -0.4469 -0.3480
N8 N -0.70826(13) -0.4594(6) -0.19758(19)
C34 C -0.59330(13) -0.4530(5) -0.1695(2)
C35 C -0.61274(12) -0.3490(4) -0.23216(18)
C36 C -0.60934(12) -0.2047(5) -0.19571(19)
C37 C -0.61961(15) -0.0681(5) -0.2225(2)
H33 H -0.6301 -0.0532 -0.2708
C38 C -0.61418(17) 0.0484(6) -0.1765(3)
H34 H -0.6207 0.1420 -0.1939
C39 C -0.59903(19) 0.0238(7) -0.1048(3)
H35 H -0.5957 0.1019 -0.0744
C40 C -0.58888(17) -0.1118(7) -0.0774(3)
H36 H -0.5785 -0.1268 -0.0291
C41 C -0.59448(13) -0.2265(5) -0.1235(2)
C42 C -0.56686(16) -0.4336(8) -0.0388(2)
H37 H -0.5397 -0.3815 -0.0146
H38 H -0.5591 -0.5340 -0.0425
C43 C -0.59689(15) -0.4256(6) 0.0046(2)
C44 C -0.57956(17) -0.3918(7) 0.0751(2)
H39 H -0.5494 -0.3729 0.0957
C45 C -0.6071(2) -0.3859(7) 0.1151(2)
H40 H -0.5950 -0.3650 0.1628
C46 C -0.65083(19) -0.4098(7) 0.0863(3)
H41 H -0.6689 -0.4048 0.1137
C47 C -0.66872(17) -0.4419(7) 0.0159(3)
H42 H -0.6990 -0.4572 -0.0046
C48 C -0.64164(16) -0.4514(6) -0.0242(2)
H43 H -0.6538 -0.4755 -0.0715
C49 C -0.67910(13) -0.3908(5) -0.34245(19)
C50 C -0.66013(12) -0.3929(5) -0.27091(19)
C51 C -0.68723(13) -0.4284(6) -0.2311(2)
C52 C -0.58736(12) -0.3538(4) -0.28302(18)
C53 C -0.53958(13) -0.3486(5) -0.2531(2)
C54 C -0.51231(14) -0.3507(6) -0.3007(2)
H44 H -0.5052 -0.4502 -0.3079
H45 H -0.4847 -0.2999 -0.2780
C55 C -0.53624(14) -0.2805(5) -0.3721(2)
C56 C -0.58165(14) -0.3500(5) -0.4031(2)
H46 H -0.5986 -0.2961 -0.4446
H47 H -0.5779 -0.4476 -0.4179
C57 C -0.60771(12) -0.3569(4) -0.35398(18)
C58 C -0.54048(18) -0.1186(6) -0.3631(3)
H48 H -0.5566 -0.0759 -0.4077
H49 H -0.5115 -0.0761 -0.3451
H50 H -0.5560 -0.1013 -0.3308
C59 C -0.50971(18) -0.3060(9) -0.4211(3)
H51 H -0.5037 -0.4075 -0.4227
H52 H -0.4822 -0.2538 -0.4041
H53 H -0.5265 -0.2726 -0.4675
C60 C -0.67554(13) -0.3727(5) -0.46009(19)
C61 C -0.68252(17) -0.5025(5) -0.4949(2)
H54 H -0.6705 -0.5870 -0.4710
C62 C -0.70749(19) -0.5080(6) -0.5655(2)
H55 H -0.7125 -0.5965 -0.5887
C63 C -0.72488(17) -0.3847(6) -0.6014(2)
C64 C -0.7168(2) -0.2552(6) -0.5671(2)
H56 H -0.7277 -0.1703 -0.5915
C65 C -0.6926(2) -0.2493(5) -0.4964(2)
H57 H -0.6879 -0.1607 -0.4733
C66 C -0.7646(2) -0.2736(9) -0.7117(3)
H58 H -0.7817 -0.3002 -0.7590
H59 H -0.7396 -0.2166 -0.7119
H60 H -0.7827 -0.2182 -0.6917
loop_
_geom_bond_atom_site_label_1
_geom_bond_atom_site_label_2
_geom_bond_site_symmetry_1
_geom_bond_site_symmetry_2
O1 C1 1_555 1_555
O2 C20 1_555 1_555
O3 C30 1_555 1_555
N1 C1 1_555 1_555
N2 C16 1_555 1_555
N3 H1 1_555 1_555
H2 N3 1_555 1_555
N4 C18 1_555 1_555
C1 C2 1_555 1_555
C2 C3 1_555 1_555
C3 C4 1_555 1_555
C4 H3 1_555 1_555
C5 C4 1_555 1_555
H4 C5 1_555 1_555
C6 C5 1_555 1_555
H5 C6 1_555 1_555
C7 C6 1_555 1_555
H6 C7 1_555 1_555
C8 N1 1_555 1_555
C9 N1 1_555 1_555
H7 C9 1_555 1_555
H8 C9 1_555 1_555
C10 C9 1_555 1_555
C11 C10 1_555 1_555
H9 C11 1_555 1_555
C12 C11 1_555 1_555
H10 C12 1_555 1_555
C13 C12 1_555 1_555
H11 C13 1_555 1_555
C14 C13 1_555 1_555
H12 C14 1_555 1_555
C15 C10 1_555 1_555
H13 C15 1_555 1_555
C16 N3 1_555 1_555
C17 C2 1_555 1_555
C18 C17 1_555 1_555
C19 C2 1_555 1_555
C20 C19 1_555 1_555
C21 C20 1_555 1_555
H14 C21 1_555 1_555
H15 C21 1_555 1_555
C22 C21 1_555 1_555
C23 C22 1_555 1_555
H16 C23 1_555 1_555
H17 C23 1_555 1_555
C24 N2 1_555 1_555
C25 C22 1_555 1_555
H18 C25 1_555 1_555
H19 C25 1_555 1_555
H20 C25 1_555 1_555
C26 C22 1_555 1_555
H21 C26 1_555 1_555
H22 C26 1_555 1_555
H23 C26 1_555 1_555
C27 N2 1_555 1_555
C28 C27 1_555 1_555
H24 C28 1_555 1_555
C29 C28 1_555 1_555
H25 C29 1_555 1_555
C30 C29 1_555 1_555
C31 C30 1_555 1_555
H26 C31 1_555 1_555
C32 C27 1_555 1_555
H27 C32 1_555 1_555
C33 O3 1_555 1_555
H28 C33 1_555 1_555
H29 C33 1_555 1_555
H30 C33 1_555 1_555
O4 C34 1_555 1_555
O5 C53 1_555 1_555
O6 C63 1_555 1_555
N5 C34 1_555 1_555
N6 C49 1_555 1_555
N7 H31 1_555 1_555
H32 N7 1_555 1_555
N8 C51 1_555 1_555
C34 C35 1_555 1_555
C35 C36 1_555 1_555
C36 C37 1_555 1_555
C37 H33 1_555 1_555
C38 C37 1_555 1_555
H34 C38 1_555 1_555
C39 C38 1_555 1_555
H35 C39 1_555 1_555
C40 C39 1_555 1_555
H36 C40 1_555 1_555
C41 N5 1_555 1_555
C42 N5 1_555 1_555
H37 C42 1_555 1_555
H38 C42 1_555 1_555
C43 C42 1_555 1_555
C44 C43 1_555 1_555
H39 C44 1_555 1_555
C45 C44 1_555 1_555
H40 C45 1_555 1_555
C46 C45 1_555 1_555
H41 C46 1_555 1_555
C47 C46 1_555 1_555
H42 C47 1_555 1_555
C48 C43 1_555 1_555
H43 C48 1_555 1_555
C49 N7 1_555 1_555
C50 C35 1_555 1_555
C51 C50 1_555 1_555
C52 C35 1_555 1_555
C53 C52 1_555 1_555
C54 C53 1_555 1_555
H44 C54 1_555 1_555
H45 C54 1_555 1_555
C55 C54 1_555 1_555
C56 C55 1_555 1_555
H46 C56 1_555 1_555
H47 C56 1_555 1_555
C57 N6 1_555 1_555
C58 C55 1_555 1_555
H48 C58 1_555 1_555
H49 C58 1_555 1_555
H50 C58 1_555 1_555
C59 C55 1_555 1_555
H51 C59 1_555 1_555
H52 C59 1_555 1_555
H53 C59 1_555 1_555
C60 N6 1_555 1_555
C61 C60 1_555 1_555
H54 C61 1_555 1_555
C62 C61 1_555 1_555
H55 C62 1_555 1_555
C63 C62 1_555 1_555
C64 C63 1_555 1_555
H56 C64 1_555 1_555
C65 C60 1_555 1_555
H57 C65 1_555 1_555
C66 O6 1_555 1_555
H58 C66 1_555 1_555
H59 C66 1_555 1_555
H60 C66 1_555 1_555
C3 C8 1_555 1_555
C7 C8 1_555 1_555
C14 C15 1_555 1_555
C16 C17 1_555 1_555
C19 C24 1_555 1_555
C23 C24 1_555 1_555
C31 C32 1_555 1_555
C36 C41 1_555 1_555
C40 C41 1_555 1_555
C47 C48 1_555 1_555
C49 C50 1_555 1_555
C52 C57 1_555 1_555
C56 C57 1_555 1_555
C64 C65 1_555 1_555

#END
