
#######################################################################
#
#                 Cambridge Crystallographic Data Centre
#                                CCDC 
#
#######################################################################
#
# If this CIF has been generated from an entry in the Cambridge 
# Structural Database, then it will include bibliographic, chemical, 
# crystal, experimental, refinement or atomic coordinate data resulting 
# from the CCDC's data processing and validation procedures.
#
#######################################################################

data_ITOSOB
_chemical_formula_moiety         'C25 H18 Cl1 N1 O2'
_chemical_name_systematic        
(2-(4-chlorophenyl)-5-(2-hydroxyphenyl)-4-(4-methylphenyl)-3-furyl)acetonitrile
_symmetry_cell_setting           triclinic
_symmetry_space_group_name_H-M   'P -1'
_symmetry_Int_Tables_number      2
_space_group_name_Hall           '-P 1'
loop_
_symmetry_equiv_pos_site_id
_symmetry_equiv_pos_as_xyz
1 x,y,z
2 -x,-y,-z
_cell_length_a                   6.0626(11)
_cell_length_b                   8.9367(17)
_cell_length_c                   18.296(3)
_cell_angle_alpha                92.163(6)
_cell_angle_beta                 94.933(6)
_cell_angle_gamma                94.674(6)
_cell_volume                     983.315
_exptl_crystal_colour            white
_exptl_crystal_description       block
_cell_formula_units_Z            2
loop_
_atom_site_label
_atom_site_type_symbol
_atom_site_fract_x
_atom_site_fract_y
_atom_site_fract_z
Cl1 Cl 0.97555(13) 0.77056(10) 1.07752(4)
O1 O 0.2576(3) 0.48039(17) 0.80166(8)
O2 O -0.2841(3) 0.2854(2) 0.75960(12)
H1 H -0.3786 0.2154 0.7678
C1 C -0.0056(4) 0.6005(3) 0.74027(12)
C2 C 0.0931(4) 0.4698(3) 0.74493(13)
C3 C 0.2615(4) 0.6219(3) 0.83425(13)
C4 C 0.4339(4) 0.6573(3) 0.89461(13)
C5 C -0.1533(4) 0.6030(3) 0.60975(14)
H2 H -0.0279 0.5542 0.5968
C6 C -0.3681(4) 0.7023(3) 0.69969(14)
H3 H -0.3917 0.7231 0.7496
C7 C -0.5227(4) 0.7396(3) 0.64510(14)
H4 H -0.6508 0.7853 0.6582
C8 C -0.1784(4) 0.6348(3) 0.68337(13)
C9 C -0.1429(4) 0.2339(3) 0.71193(14)
C10 C 0.0512(4) 0.3242(3) 0.70396(13)
C11 C 0.7947(4) 0.6211(3) 0.95277(14)
H5 H 0.9289 0.5730 0.9537
C12 C 0.6297(4) 0.5853(3) 0.89735(13)
H6 H 0.6490 0.5108 0.8606
C13 C 0.1034(4) 0.6991(3) 0.79879(13)
C14 C 0.7659(4) 0.7270(3) 1.00712(14)
C15 C 0.5726(5) 0.7979(3) 1.00620(14)
H7 H 0.5523 0.8696 1.0441
C16 C 0.4094(4) 0.7637(3) 0.94987(14)
H8 H 0.2771 0.8141 0.9487
C17 C -0.4949(4) 0.7119(3) 0.57156(14)
C18 C 0.0617(4) 0.8615(3) 0.81189(14)
H9 H -0.0565 0.8883 0.7751
H10 H 0.0087 0.8753 0.8612
C19 C 0.1568(5) 0.1373(3) 0.61879(16)
H11 H 0.2604 0.1033 0.5871
C20 C -0.3078(4) 0.6413(3) 0.55512(14)
H12 H -0.2858 0.6189 0.5052
C21 C -0.1877(5) 0.0985(3) 0.67227(15)
H13 H -0.3223 0.0386 0.6768
C22 C 0.2622(5) 0.9624(3) 0.80693(14)
C23 C -0.6578(5) 0.7600(3) 0.51132(15)
H14 H -0.8055 0.7603 0.5292
H15 H -0.6641 0.6896 0.4687
H16 H -0.6091 0.8612 0.4971
C24 C -0.0378(5) 0.0507(3) 0.62635(16)
H17 H -0.0685 -0.0428 0.5995
C25 C 0.2006(5) 0.2734(3) 0.65740(15)
H18 H 0.3347 0.3331 0.6521
N1 N 0.4190(5) 1.0392(3) 0.80205(15)
loop_
_geom_bond_atom_site_label_1
_geom_bond_atom_site_label_2
_geom_bond_site_symmetry_1
_geom_bond_site_symmetry_2
Cl1 C14 1_555 1_555
O1 C2 1_555 1_555
O2 H1 1_555 1_555
C1 C2 1_555 1_555
C2 C10 1_555 1_555
C3 O1 1_555 1_555
C4 C3 1_555 1_555
C5 H2 1_555 1_555
C6 H3 1_555 1_555
C7 C6 1_555 1_555
H4 C7 1_555 1_555
C8 C1 1_555 1_555
C9 O2 1_555 1_555
C10 C9 1_555 1_555
C11 H5 1_555 1_555
C12 C4 1_555 1_555
H6 C12 1_555 1_555
C13 C1 1_555 1_555
C14 C11 1_555 1_555
C15 C14 1_555 1_555
H7 C15 1_555 1_555
C16 C4 1_555 1_555
H8 C16 1_555 1_555
C17 C7 1_555 1_555
C18 C13 1_555 1_555
H9 C18 1_555 1_555
H10 C18 1_555 1_555
C19 H11 1_555 1_555
C20 C5 1_555 1_555
H12 C20 1_555 1_555
C21 C9 1_555 1_555
H13 C21 1_555 1_555
C22 C18 1_555 1_555
C23 C17 1_555 1_555
H14 C23 1_555 1_555
H15 C23 1_555 1_555
H16 C23 1_555 1_555
C24 C19 1_555 1_555
H17 C24 1_555 1_555
C25 C10 1_555 1_555
H18 C25 1_555 1_555
N1 C22 1_555 1_555
C3 C13 1_555 1_555
C5 C8 1_555 1_555
C6 C8 1_555 1_555
C11 C12 1_555 1_555
C15 C16 1_555 1_555
C17 C20 1_555 1_555
C19 C25 1_555 1_555
C21 C24 1_555 1_555

#END
