
#######################################################################
#
#                 Cambridge Crystallographic Data Centre
#                                CCDC 
#
#######################################################################
#
# If this CIF has been generated from an entry in the Cambridge 
# Structural Database, then it will include bibliographic, chemical, 
# crystal, experimental, refinement or atomic coordinate data resulting 
# from the CCDC's data processing and validation procedures.
#
#######################################################################

data_ITOVAP
_chemical_formula_moiety         'C10 H10 Cl2 N2 O2'
_chemical_name_systematic        
'2,2-bis(chloromethyl)-2,3-dihydro-1H-benzimidazole-5-carboxylic acid'
_symmetry_cell_setting           monoclinic
_symmetry_space_group_name_H-M   'P 21/c'
_symmetry_Int_Tables_number      14
_space_group_name_Hall           '-P 2ybc'
loop_
_symmetry_equiv_pos_site_id
_symmetry_equiv_pos_as_xyz
1 x,y,z
2 -x,1/2+y,1/2-z
3 -x,-y,-z
4 x,1/2-y,1/2+z
_cell_length_a                   5.88980(10)
_cell_length_b                   18.9022(4)
_cell_length_c                   10.1073(2)
_cell_angle_alpha                90
_cell_angle_beta                 105.3930(10)
_cell_angle_gamma                90
_cell_volume                     1084.88
_cell_formula_units_Z            4
loop_
_atom_site_label
_atom_site_type_symbol
_atom_site_fract_x
_atom_site_fract_y
_atom_site_fract_z
C1 C 0.8052(2) 0.40536(7) 0.04069(14)
C2 C 0.6871(2) 0.43770(7) -0.07848(14)
H1 H 0.5379 0.4567 -0.0884
C3 C 0.7975(2) 0.44151(7) -0.18599(14)
C4 C 1.0220(2) 0.41336(8) -0.17031(14)
H2 H 1.0913 0.4159 -0.2428
C5 C 1.1437(2) 0.38156(8) -0.04805(15)
H3 H 1.2939 0.3631 -0.0372
C6 C 1.0336(2) 0.37830(7) 0.05725(14)
C7 C 0.9161(2) 0.34501(8) 0.24934(14)
C8 C 0.6704(2) 0.47047(7) -0.31939(14)
C9 C 0.8436(3) 0.26702(8) 0.23583(17)
H4 H 0.9783 0.2381 0.2802
H5 H 0.7962 0.2543 0.1394
C10 C 0.9713(3) 0.37287(8) 0.39510(15)
H6 H 0.8320 0.3691 0.4286
H7 H 1.0136 0.4225 0.3957
Cl1 Cl 0.60674(7) 0.24823(2) 0.31062(5)
Cl2 Cl 1.20761(8) 0.32493(3) 0.50691(4)
N1 N 0.7309(2) 0.38880(7) 0.15926(12)
H8 H 0.6746 0.4218 0.1984
N2 N 1.1153(2) 0.35315(7) 0.18899(13)
H9 H 1.2312 0.3255 0.2118
O1 O 0.75873(19) 0.46934(6) -0.41916(11)
O2 O 0.46055(18) 0.49615(6) -0.32999(11)
H10 H 0.3933 0.5075 -0.4135
loop_
_geom_bond_atom_site_label_1
_geom_bond_atom_site_label_2
_geom_bond_site_symmetry_1
_geom_bond_site_symmetry_2
C1 C2 1_555 1_555
C2 H1 1_555 1_555
C3 C2 1_555 1_555
C4 C3 1_555 1_555
H2 C4 1_555 1_555
C5 C4 1_555 1_555
H3 C5 1_555 1_555
C6 C1 1_555 1_555
C7 C9 1_555 1_555
C8 C3 1_555 1_555
C9 H4 1_555 1_555
H5 C9 1_555 1_555
C10 C7 1_555 1_555
H6 C10 1_555 1_555
H7 C10 1_555 1_555
Cl1 C9 1_555 1_555
Cl2 C10 1_555 1_555
N1 C1 1_555 1_555
H8 N1 1_555 1_555
N2 C6 1_555 1_555
H9 N2 1_555 1_555
O1 C8 1_555 1_555
O2 C8 1_555 1_555
H10 O2 1_555 1_555
C5 C6 1_555 1_555
C7 N1 1_555 1_555
C7 N2 1_555 1_555

#END
