
#######################################################################
#
#                 Cambridge Crystallographic Data Centre
#                                CCDC 
#
#######################################################################
#
# If this CIF has been generated from an entry in the Cambridge 
# Structural Database, then it will include bibliographic, chemical, 
# crystal, experimental, refinement or atomic coordinate data resulting 
# from the CCDC's data processing and validation procedures.
#
#######################################################################

data_ITOWEV
_chemical_formula_moiety         'C28 H20 Br1 F3 N2 O3,C1 H1 Cl3'
_chemical_name_systematic        
"4'-(3-bromophenyl)-1''-methyl-5-phenyl-5'-(trifluoromethyl)dispiro[furan-3,3'-pyrrolidine-2',3''-indole]-2,2''(1''H)-dione chloroform solvate"
_symmetry_cell_setting           orthorhombic
_symmetry_space_group_name_H-M   'P 21 21 21'
_symmetry_Int_Tables_number      19
_space_group_name_Hall           'P 2ac 2ab'
loop_
_symmetry_equiv_pos_site_id
_symmetry_equiv_pos_as_xyz
1 x,y,z
2 1/2+x,1/2-y,-z
3 -x,1/2+y,1/2-z
4 1/2-x,-y,1/2+z
_cell_length_a                   12.0262(12)
_cell_length_b                   13.8263(14)
_cell_length_c                   17.0090(17)
_cell_angle_alpha                90
_cell_angle_beta                 90
_cell_angle_gamma                90
_cell_volume                     2828.22
_exptl_crystal_colour            colorless
_exptl_crystal_description       prism
_cell_formula_units_Z            4
loop_
_atom_site_label
_atom_site_type_symbol
_atom_site_fract_x
_atom_site_fract_y
_atom_site_fract_z
C1 C 0.7720(3) 0.8596(2) 0.79592(17)
Br1 Br 0.89161(3) 0.91849(3) 0.84703(2)
C2 C 0.5862(3) 0.8066(2) 0.79893(18)
H1 H 0.5185 0.7963 0.8265
F1 F 0.84244(16) 0.53024(13) 0.57269(11)
F2 F 0.66823(16) 0.55858(12) 0.55626(10)
F3 F 0.74394(16) 0.58436(13) 0.66939(9)
O1 O 0.64720(17) 1.01022(13) 0.53776(11)
O2 O 0.51824(18) 0.89525(15) 0.52385(13)
O3 O 0.55771(17) 0.71243(15) 0.43520(11)
N1 N 0.6369(2) 0.80580(17) 0.33761(13)
C3 C 0.5526(3) 0.7950(3) 0.27692(17)
H2 H 0.4935 0.7522 0.2960
H3 H 0.5864 0.7669 0.2297
H4 H 0.5211 0.8584 0.2642
C4 C 0.6757(3) 0.8441(2) 0.83804(17)
H5 H 0.6716 0.8590 0.8925
C5 C 0.5924(3) 0.7833(2) 0.71916(16)
H6 H 0.5288 0.7584 0.6930
C6 C 0.6910(3) 0.79628(19) 0.67762(15)
C7 C 0.6962(2) 0.76694(19) 0.59168(14)
H7 H 0.6233 0.7364 0.5780
C8 C 0.7167(2) 0.85004(18) 0.53226(14)
C9 C 0.8063(2) 0.92188(19) 0.55053(14)
H8 H 0.8817 0.9066 0.5616
C10 C 0.7631(2) 1.01052(19) 0.54872(14)
C11 C 0.8122(3) 1.10730(18) 0.55241(15)
C12 C 0.9272(3) 1.1182(2) 0.55222(18)
H9 H 0.9742 1.0629 0.5526
C13 C 0.9728(3) 1.2107(2) 0.5514(2)
H10 H 1.0512 1.2187 0.5528
C14 C 0.9043(4) 1.2912(2) 0.5486(3)
H11 H 0.9360 1.3540 0.5456
C15 C 0.8833(3) 0.9346(2) 0.25623(16)
H12 H 0.9105 0.9654 0.2102
C16 C 0.9507(3) 0.9286(2) 0.32194(17)
H13 H 1.0235 0.9552 0.3206
C17 C 0.9122(2) 0.8836(2) 0.39056(16)
H14 H 0.9585 0.8795 0.4357
C18 C 0.8060(2) 0.84522(18) 0.39172(14)
C19 C 0.7424(2) 0.79105(18) 0.45473(14)
C20 C 0.6139(2) 0.91596(19) 0.52948(13)
C21 C 0.7902(4) 1.2807(2) 0.5503(2)
H15 H 0.7435 1.3362 0.5500
C22 C 0.7440(3) 1.1889(2) 0.55231(19)
H16 H 0.6655 1.1815 0.5537
C23 C 0.7822(3) 0.8357(2) 0.71670(16)
H17 H 0.8504 0.8460 0.6897
C24 C 0.7890(2) 0.69513(18) 0.56838(14)
H18 H 0.8607 0.7147 0.5936
N2 N 0.79811(19) 0.70373(15) 0.48307(12)
H19 H 0.8326 0.6619 0.4527
C25 C 0.7603(2) 0.5919(2) 0.59135(15)
C26 C 0.6320(2) 0.76353(19) 0.41035(15)
C27 C 0.7403(2) 0.85177(19) 0.32485(15)
C28 C 0.7761(3) 0.8960(2) 0.25647(16)
H20 H 0.7295 0.9001 0.2115
Cl1 Cl 0.32895(9) 0.90281(7) 0.70542(6)
Cl2 Cl 0.10106(9) 0.96615(7) 0.69871(6)
Cl3 Cl 0.27352(13) 1.08559(8) 0.63268(6)
C29 C 0.2303(3) 0.9671(2) 0.64960(19)
H22 H 0.2212 0.9339 0.5977
Br2? Br 0.47750(17) 0.79953(14) 0.85679(10)
H21? H 0.8340 0.8877 0.8220
loop_
_geom_bond_atom_site_label_1
_geom_bond_atom_site_label_2
_geom_bond_site_symmetry_1
_geom_bond_site_symmetry_2
C1 Br1 1_555 1_555
C2 H1 1_555 1_555
F1 C25 1_555 1_555
F2 C25 1_555 1_555
F3 C25 1_555 1_555
O1 C10 1_555 1_555
O2 C20 1_555 1_555
O3 C26 1_555 1_555
N1 C3 1_555 1_555
C3 H2 1_555 1_555
H3 C3 1_555 1_555
H4 C3 1_555 1_555
C4 C1 1_555 1_555
H5 C4 1_555 1_555
C5 C2 1_555 1_555
H6 C5 1_555 1_555
C6 C5 1_555 1_555
C7 C6 1_555 1_555
H7 C7 1_555 1_555
C8 C7 1_555 1_555
C9 C8 1_555 1_555
H8 C9 1_555 1_555
C10 C9 1_555 1_555
C11 C10 1_555 1_555
C12 C11 1_555 1_555
H9 C12 1_555 1_555
C13 C12 1_555 1_555
H10 C13 1_555 1_555
C14 C13 1_555 1_555
H11 C14 1_555 1_555
C15 H12 1_555 1_555
C16 C15 1_555 1_555
H13 C16 1_555 1_555
C17 C16 1_555 1_555
H14 C17 1_555 1_555
C18 C17 1_555 1_555
C19 C8 1_555 1_555
C20 O1 1_555 1_555
C21 C14 1_555 1_555
H15 C21 1_555 1_555
C22 C11 1_555 1_555
H16 C22 1_555 1_555
C23 C1 1_555 1_555
H17 C23 1_555 1_555
C24 C7 1_555 1_555
H18 C24 1_555 1_555
N2 C19 1_555 1_555
H19 N2 1_555 1_555
C25 C24 1_555 1_555
C26 N1 1_555 1_555
C27 N1 1_555 1_555
C28 C15 1_555 1_555
H20 C28 1_555 1_555
Cl1 C29 1_555 1_555
Cl2 C29 1_555 1_555
Cl3 C29 1_555 1_555
C29 H22 1_555 1_555
C2 C4 1_555 1_555
C6 C23 1_555 1_555
C8 C20 1_555 1_555
C18 C19 1_555 1_555
C18 C27 1_555 1_555
C19 C26 1_555 1_555
C21 C22 1_555 1_555
C24 N2 1_555 1_555
C27 C28 1_555 1_555

#END
