
#######################################################################
#
#                 Cambridge Crystallographic Data Centre
#                                CCDC 
#
#######################################################################
#
# If this CIF has been generated from an entry in the Cambridge 
# Structural Database, then it will include bibliographic, chemical, 
# crystal, experimental, refinement or atomic coordinate data resulting 
# from the CCDC's data processing and validation procedures.
#
#######################################################################

data_ITOXIZ
_chemical_formula_moiety         'C32 H27 Cl1 N2 O3'
_chemical_name_systematic        
'Methyl 5-(4-chlorophenyl)-2-(2-phenylethyl)-4-(phenyl(pyridin-2-ylmethyl)amino)-3-furoate'
_symmetry_cell_setting           triclinic
_symmetry_space_group_name_H-M   'P -1'
_symmetry_Int_Tables_number      2
_space_group_name_Hall           '-P 1'
loop_
_symmetry_equiv_pos_site_id
_symmetry_equiv_pos_as_xyz
1 x,y,z
2 -x,-y,-z
_cell_length_a                   8.3127(3)
_cell_length_b                   11.2189(4)
_cell_length_c                   15.1578(6)
_cell_angle_alpha                75.6810(10)
_cell_angle_beta                 78.9090(10)
_cell_angle_gamma                84.9410(10)
_cell_volume                     1342.88
_exptl_crystal_colour            colorless
_exptl_crystal_description       block
_chemical_melting_point          '145-146 deg.C'
_cell_formula_units_Z            2
loop_
_atom_site_label
_atom_site_type_symbol
_atom_site_fract_x
_atom_site_fract_y
_atom_site_fract_z
C1 C 0.67419(17) 0.43376(13) 0.77286(9)
C2 C 0.57789(19) 0.34806(16) 0.75710(11)
H1 H 0.6103 0.2650 0.7700
C3 C 0.4350(2) 0.3854(2) 0.72256(13)
H2 H 0.3724 0.3270 0.7124
C4 C 0.3835(2) 0.5072(2) 0.70299(13)
H3 H 0.2871 0.5314 0.6796
C5 C 0.4765(2) 0.5927(2) 0.71841(13)
H4 H 0.4423 0.6754 0.7053
C6 C 0.6208(2) 0.55781(15) 0.75329(11)
H5 H 0.6820 0.6169 0.7636
C7 C 0.93164(18) 0.48751(13) 0.80876(10)
H6 H 0.9430 0.5467 0.7494
H7 H 1.0384 0.4469 0.8143
C8 C 0.88273(19) 0.55708(13) 0.88471(10)
C9 C 0.9714(2) 0.65730(18) 0.87991(16)
H8 H 1.0551 0.6835 0.8301
C10 C 0.9336(3) 0.7179(2) 0.9505(2)
H9 H 0.9929 0.7849 0.9494
C11 C 0.8091(3) 0.6789(2) 1.02160(15)
H10 H 0.7815 0.7189 1.0697
C12 C 0.7255(3) 0.58005(18) 1.02109(14)
H11 H 0.6401 0.5538 1.0699
C13 C 0.88772(16) 0.27667(12) 0.80542(9)
C14 C 0.85598(17) 0.17113(12) 0.87170(9)
C15 C 0.74899(17) 0.13826(13) 0.96185(9)
C16 C 0.6579(2) 0.22696(16) 1.00085(12)
H12 H 0.6651 0.3094 0.9698
C17 C 0.5557(3) 0.19445(18) 1.08589(13)
H13 H 0.4946 0.2549 1.1117
C18 C 0.5450(2) 0.07365(18) 1.13173(11)
C19 C 0.6341(3) -0.01526(19) 1.09504(15)
H14 H 0.6266 -0.0975 1.1268
C20 C 0.7359(3) 0.01702(16) 1.01026(13)
H15 H 0.7969 -0.0442 0.9853
C21 C 1.00361(16) 0.24320(12) 0.73008(9)
C22 C 1.06640(17) 0.32819(13) 0.64206(9)
C23 C 1.2603(2) 0.3550(2) 0.50303(12)
H16 H 1.1747 0.3951 0.4705
H17 H 1.3305 0.3058 0.4665
H18 H 1.3233 0.4158 0.5141
C24 C 1.03408(17) 0.11958(13) 0.75609(9)
C25 C 1.12769(19) 0.02557(14) 0.70960(11)
H19 H 1.1462 -0.0489 0.7557
H20 H 1.2337 0.0564 0.6772
C26 C 1.0336(2) -0.00417(18) 0.64102(13)
H21 H 0.9316 -0.0409 0.6749
H22 H 1.0060 0.0721 0.5991
C27 C 1.12666(19) -0.09032(14) 0.58498(10)
C28 C 1.0675(2) -0.20423(15) 0.59117(12)
H23 H 0.9718 -0.2292 0.6325
C29 C 1.1479(3) -0.28146(16) 0.53704(15)
H24 H 1.1053 -0.3571 0.5416
C30 C 1.2887(3) -0.2473(2) 0.47725(14)
H25 H 1.3431 -0.2996 0.4411
C31 C 1.3504(2) -0.1359(2) 0.47032(13)
H26 H 1.4474 -0.1127 0.4296
C32 C 1.2695(2) -0.05702(18) 0.52355(13)
H27 H 1.3122 0.0190 0.5177
Cl1 Cl 0.41545(8) 0.03199(7) 1.23805(4)
N1 N 0.81804(14) 0.39577(10) 0.80905(8)
N2 N 0.7606(2) 0.51831(13) 0.95312(10)
O1 O 0.94492(12) 0.07444(8) 0.84149(7)
O2 O 1.18866(14) 0.27707(11) 0.59025(7)
O3 O 1.01572(16) 0.43241(10) 0.61876(8)
loop_
_geom_bond_atom_site_label_1
_geom_bond_atom_site_label_2
_geom_bond_site_symmetry_1
_geom_bond_site_symmetry_2
C1 C2 1_555 1_555
C2 H1 1_555 1_555
C3 C2 1_555 1_555
H2 C3 1_555 1_555
C4 C3 1_555 1_555
H3 C4 1_555 1_555
C5 C4 1_555 1_555
H4 C5 1_555 1_555
C6 C1 1_555 1_555
H5 C6 1_555 1_555
C7 H6 1_555 1_555
H7 C7 1_555 1_555
C8 C7 1_555 1_555
C9 C8 1_555 1_555
H8 C9 1_555 1_555
C10 C9 1_555 1_555
H9 C10 1_555 1_555
C11 C10 1_555 1_555
H10 C11 1_555 1_555
C12 C11 1_555 1_555
H11 C12 1_555 1_555
C13 C14 1_555 1_555
C14 C15 1_555 1_555
C15 C16 1_555 1_555
C16 H12 1_555 1_555
C17 C16 1_555 1_555
H13 C17 1_555 1_555
C18 C17 1_555 1_555
C19 C18 1_555 1_555
H14 C19 1_555 1_555
C20 C15 1_555 1_555
H15 C20 1_555 1_555
C21 C13 1_555 1_555
C22 C21 1_555 1_555
C23 H16 1_555 1_555
H17 C23 1_555 1_555
H18 C23 1_555 1_555
C24 C21 1_555 1_555
C25 C24 1_555 1_555
H19 C25 1_555 1_555
H20 C25 1_555 1_555
C26 C25 1_555 1_555
H21 C26 1_555 1_555
H22 C26 1_555 1_555
C27 C26 1_555 1_555
C28 C27 1_555 1_555
H23 C28 1_555 1_555
C29 C28 1_555 1_555
H24 C29 1_555 1_555
C30 C29 1_555 1_555
H25 C30 1_555 1_555
C31 C30 1_555 1_555
H26 C31 1_555 1_555
C32 C27 1_555 1_555
H27 C32 1_555 1_555
Cl1 C18 1_555 1_555
N1 C1 1_555 1_555
N2 C8 1_555 1_555
O1 C14 1_555 1_555
O2 C22 1_555 1_555
O3 C22 1_555 1_555
C5 C6 1_555 1_555
C7 N1 1_555 1_555
C12 N2 1_555 1_555
C13 N1 1_555 1_555
C19 C20 1_555 1_555
C23 O2 1_555 1_555
C24 O1 1_555 1_555
C31 C32 1_555 1_555

#END
