
#######################################################################
#
#                 Cambridge Crystallographic Data Centre
#                                CCDC 
#
#######################################################################
#
# If this CIF has been generated from an entry in the Cambridge 
# Structural Database, then it will include bibliographic, chemical, 
# crystal, experimental, refinement or atomic coordinate data resulting 
# from the CCDC's data processing and validation procedures.
#
#######################################################################

data_ITUFIN
_chemical_formula_moiety         'C22 H18 N2 O2 S1,C2 H6 O1 S1'
_chemical_name_systematic        
"(-)-1,5'-Dimethyl-5'-(2-naphthyl)-2'-thioxospiro[indole-3,4'-[1,3]oxazolidin]-2(1H)-one dimethylsulfoxide solvate"
_symmetry_cell_setting           triclinic
_symmetry_space_group_name_H-M   'P 1'
_symmetry_Int_Tables_number      1
_space_group_name_Hall           'P 1'
loop_
_symmetry_equiv_pos_site_id
_symmetry_equiv_pos_as_xyz
1 x,y,z
_cell_length_a                   9.8593(5)
_cell_length_b                   11.3699(6)
_cell_length_c                   11.6474(6)
_cell_angle_alpha                67.803(4)
_cell_angle_beta                 76.579(4)
_cell_angle_gamma                89.515(4)
_cell_volume                     1171.33
_chemical_melting_point          '215-219 deg.C'
_cell_formula_units_Z            2
_exptl_crystal_recrystallization_method dimethylsulfoxide
loop_
_atom_site_label
_atom_site_type_symbol
_atom_site_fract_x
_atom_site_fract_y
_atom_site_fract_z
S1 S 0.62799(11) 0.86350(10) 0.95917(11)
O2 O 0.6164(3) 0.6271(3) 0.9789(3)
N2 N 1.0313(3) 0.5229(4) 0.8413(4)
N3 N 0.8188(3) 0.6907(3) 0.9933(3)
O5 O 0.8834(3) 0.6631(3) 0.7458(3)
C5 C 0.6181(4) 0.2740(3) 0.8181(4)
C6 C 0.5678(4) 0.3977(3) 0.7851(4)
C10 C 0.9461(4) 0.4927(4) 1.0537(4)
C11 C 0.5970(5) 0.2004(4) 0.7472(4)
H2 H 0.6304 0.1202 0.7660
C12 C 0.8449(4) 0.5697(4) 0.9815(4)
C13 C 0.6626(4) 0.4312(3) 0.9461(4)
C14 C 0.6925(4) 0.2337(4) 0.9136(4)
H3 H 0.7271 0.1540 0.9346
C16 C 0.6916(4) 0.7249(3) 0.9780(3)
C18 C 0.5915(4) 0.4734(3) 0.8519(4)
H5 H 0.5582 0.5537 0.8316
C19 C 0.6306(5) 0.4436(5) 1.1617(4)
H6 H 0.6525 0.4965 1.2037
H7 H 0.6714 0.3641 1.1920
H8 H 0.5309 0.4276 1.1802
C22 C 0.7152(4) 0.3093(4) 0.9765(4)
H11 H 0.7652 0.2808 1.0391
C24 C 0.4997(5) 0.4412(4) 0.6855(4)
H12 H 0.4666 0.5216 0.6639
C28 C 0.6893(4) 0.5108(4) 1.0181(4)
C29 C 1.0527(4) 0.4666(4) 0.9668(5)
C31 C 1.0640(7) 0.3873(6) 1.2183(6)
H18 H 1.0700 0.3625 1.3026
C33 C 0.9520(6) 0.4544(5) 1.1793(5)
H22 H 0.8825 0.4728 1.2377
C34 C 0.5294(6) 0.2454(4) 0.6533(5)
H23 H 0.5146 0.1946 0.6100
C35 C 0.9184(4) 0.5935(4) 0.8414(4)
C38 C 1.1648(6) 0.3580(5) 1.1325(7)
H26 H 1.2366 0.3105 1.1604
C41 C 1.1327(5) 0.5307(6) 0.7252(6)
H29 H 1.0987 0.5797 0.6520
H30 H 1.1462 0.4464 0.7269
H31 H 1.2202 0.5712 0.7202
C42 C 0.4804(5) 0.3679(5) 0.6190(5)
H32 H 0.4359 0.3985 0.5525
C43 C 1.1621(5) 0.3983(5) 1.0029(6)
H33 H 1.2311 0.3797 0.9444
H48 H 0.887(6) 0.739(5) 0.990(5)
S2 S 0.30195(12) 0.57411(11) 0.36106(13)
O1 O 0.2929(3) 0.8054(3) 0.3621(3)
O3 O 0.4171(3) 0.7519(3) 0.6067(3)
N1 N 0.5027(3) 0.7361(3) 0.3542(3)
C1 C 0.6584(4) 0.9309(3) 0.3125(4)
N4 N 0.6051(4) 0.8993(3) 0.5262(3)
C2 C 0.1354(4) 1.0338(3) 0.5608(4)
C3 C 0.1994(4) 1.1566(3) 0.5272(4)
C4 C 0.3188(4) 0.9981(3) 0.4011(4)
C7 C 0.1969(4) 0.9566(3) 0.4952(4)
H1 H 0.1536 0.8763 0.5163
C8 C 0.5191(4) 0.8543(3) 0.3728(3)
C9 C 0.3702(4) 0.7064(4) 0.3598(4)
C15 C 0.3882(4) 0.9188(3) 0.3290(4)
C17 C 0.3251(4) 1.1989(4) 0.4289(4)
H4 H 0.3674 1.2803 0.4046
C20 C 0.7449(4) 0.9679(4) 0.1911(4)
H9 H 0.7197 0.9452 0.1296
C21 C 0.1362(5) 1.2341(4) 0.5924(4)
H10 H 0.1763 1.3162 0.5688
C23 C 0.5040(4) 0.8260(4) 0.5180(4)
C25 C 0.7027(4) 0.9597(4) 0.4048(4)
C26 C 0.8705(5) 1.0399(5) 0.1626(5)
H13 H 0.9287 1.0673 0.0805
C27 C 0.3844(4) 1.1215(3) 0.3698(4)
H14 H 0.4689 1.1493 0.3082
C30 C 0.6298(6) 0.8935(6) 0.6457(5)
H15 H 0.5568 0.8386 0.7156
H16 H 0.6305 0.9775 0.6468
H17 H 0.7185 0.8605 0.6542
C32 C 0.4150(5) 0.9902(4) 0.1861(4)
H19 H 0.4677 0.9408 0.1432
H20 H 0.4669 1.0706 0.1613
H21 H 0.3272 1.0046 0.1628
C36 C 0.0177(5) 1.1899(5) 0.6890(5)
H24 H -0.0219 1.2412 0.7317
C37 C 0.0109(4) 0.9899(4) 0.6607(4)
H25 H -0.0327 0.9095 0.6828
C39 C 0.9100(5) 1.0711(5) 0.2540(5)
H27 H 0.9944 1.1193 0.2329
C40 C -0.0453(5) 1.0651(5) 0.7246(5)
H28 H -0.1252 1.0344 0.7916
C44 C 0.8256(5) 1.0315(5) 0.3770(5)
H34 H 0.8515 1.0530 0.4389
H47 H 0.562(5) 0.682(4) 0.361(5)
O4 O 0.7414(4) 0.6062(4) 0.3539(4)
S4 S 0.79838(14) 0.62687(13) 0.45326(15)
C47 C 0.9561(6) 0.7238(6) 0.3763(11)
H41 H 1.0073 0.6994 0.3092
H42 H 1.0110 0.7138 0.4370
H43 H 0.9366 0.8113 0.3405
C48 C 0.8708(6) 0.4832(5) 0.5313(6)
H44 H 0.7980 0.4146 0.5728
H45 H 0.9131 0.4931 0.5938
H46 H 0.9404 0.4645 0.4693
O6 O 0.0326(4) 0.8348(5) -0.0019(5)
C45 C 0.2728(9) 0.9662(8) -0.1317(6)
H35 H 0.2378 1.0469 -0.1379
H36 H 0.2617 0.9480 -0.2032
H37 H 0.3702 0.9695 -0.1321
C46 C 0.2627(9) 0.7155(8) 0.0096(7)
H38 H 0.2178 0.6426 0.0843
H39 H 0.3587 0.7284 0.0099
H40 H 0.2587 0.7012 -0.0657
S3 S 0.1794(2) 0.8467(2) 0.0103(2)
C49? C 0.2728(9) 0.9662(8) -0.1317(6)
C50? C 0.2627(9) 0.7155(8) 0.0096(7)
H49? H 0.2702 1.0187 -0.2178
H50? H 0.3677 0.9491 -0.1286
H51? H 0.2365 1.0097 -0.0762
H52? H 0.1998 0.6595 0.0875
H53? H 0.3306 0.7598 0.0296
H54? H 0.3097 0.6664 -0.0366
S5? S 0.1710(3) 0.8227(4) -0.0816(4)
loop_
_geom_bond_atom_site_label_1
_geom_bond_atom_site_label_2
_geom_bond_site_symmetry_1
_geom_bond_site_symmetry_2
S1 C16 1_555 1_555
S2 C9 1_555 1_555
O1 C9 1_555 1_555
O2 C16 1_555 1_555
O3 C23 1_555 1_555
N1 C8 1_555 1_555
O4 S4 1_555 1_555
N2 C29 1_555 1_555
N3 C12 1_555 1_555
O5 C35 1_555 1_555
C1 C8 1_555 1_555
N4 C23 1_555 1_555
O6 S3 1_555 1_555
C2 C3 1_555 1_555
C3 C17 1_555 1_555
C4 C7 1_555 1_555
C5 C6 1_555 1_555
C6 C18 1_555 1_555
C7 C2 1_555 1_555
H1 C7 1_555 1_555
C8 C15 1_555 1_555
C9 N1 1_555 1_555
C10 C12 1_555 1_555
C11 C5 1_555 1_555
H2 C11 1_555 1_555
C12 C28 1_555 1_555
C13 C18 1_555 1_555
C14 C5 1_555 1_555
H3 C14 1_555 1_555
C15 O1 1_555 1_555
C16 N3 1_555 1_555
C17 H4 1_555 1_555
C18 H5 1_555 1_555
C19 H6 1_555 1_555
H7 C19 1_555 1_555
H8 C19 1_555 1_555
C20 C1 1_555 1_555
H9 C20 1_555 1_555
C21 C3 1_555 1_555
H10 C21 1_555 1_555
C22 C13 1_555 1_555
H11 C22 1_555 1_555
C23 C8 1_555 1_555
C24 C6 1_555 1_555
H12 C24 1_555 1_555
C25 C1 1_555 1_555
C26 C20 1_555 1_555
H13 C26 1_555 1_555
C27 C4 1_555 1_555
H14 C27 1_555 1_555
C28 O2 1_555 1_555
C29 C10 1_555 1_555
C30 N4 1_555 1_555
H15 C30 1_555 1_555
H16 C30 1_555 1_555
H17 C30 1_555 1_555
C31 H18 1_555 1_555
C32 C15 1_555 1_555
H19 C32 1_555 1_555
H20 C32 1_555 1_555
H21 C32 1_555 1_555
C33 C10 1_555 1_555
H22 C33 1_555 1_555
C34 C11 1_555 1_555
H23 C34 1_555 1_555
C35 N2 1_555 1_555
C36 C21 1_555 1_555
H24 C36 1_555 1_555
C37 C2 1_555 1_555
H25 C37 1_555 1_555
C38 C31 1_555 1_555
H26 C38 1_555 1_555
C39 C26 1_555 1_555
H27 C39 1_555 1_555
C40 C36 1_555 1_555
H28 C40 1_555 1_555
C41 N2 1_555 1_555
H29 C41 1_555 1_555
H30 C41 1_555 1_555
H31 C41 1_555 1_555
C42 C24 1_555 1_555
H32 C42 1_555 1_555
C43 C29 1_555 1_555
H33 C43 1_555 1_555
C44 C25 1_555 1_555
H34 C44 1_555 1_555
C45 H35 1_555 1_555
H36 C45 1_555 1_555
H37 C45 1_555 1_555
C46 H38 1_555 1_555
H39 C46 1_555 1_555
H40 C46 1_555 1_555
S3 C45 1_555 1_555
S4 C47 1_555 1_555
C47 H41 1_555 1_555
H42 C47 1_555 1_555
H43 C47 1_555 1_555
C48 S4 1_555 1_555
H44 C48 1_555 1_555
H45 C48 1_555 1_555
H46 C48 1_555 1_555
H47 N1 1_555 1_555
H48 N3 1_555 1_555
N4 C25 1_555 1_555
C4 C15 1_555 1_555
C12 C35 1_555 1_555
C13 C28 1_555 1_555
C14 C22 1_555 1_555
C17 C27 1_555 1_555
C19 C28 1_555 1_555
C31 C33 1_555 1_555
C34 C42 1_555 1_555
C37 C40 1_555 1_555
C38 C43 1_555 1_555
C39 C44 1_555 1_555
C46 S3 1_555 1_555

#END
