
#######################################################################
#
#                 Cambridge Crystallographic Data Centre
#                                CCDC 
#
#######################################################################
#
# If this CIF has been generated from an entry in the Cambridge 
# Structural Database, then it will include bibliographic, chemical, 
# crystal, experimental, refinement or atomic coordinate data resulting 
# from the CCDC's data processing and validation procedures.
#
#######################################################################

data_ITULOA
_chemical_formula_moiety         'C36 H1 B2 F30 O1 1-,C9 H18 N1 1+,2(C6 H6)'
_chemical_name_systematic        
'1-isopropylidene-2,2-dimethylpyrrolidinium bis[tris(pentafluorophenyl)borato]oxidanium benzene solvate'
_symmetry_cell_setting           triclinic
_symmetry_space_group_name_H-M   'P -1'
_symmetry_Int_Tables_number      2
_space_group_name_Hall           '-P 1'
loop_
_symmetry_equiv_pos_site_id
_symmetry_equiv_pos_as_xyz
1 x,y,z
2 -x,-y,-z
_cell_length_a                   12.1705(5)
_cell_length_b                   13.8618(5)
_cell_length_c                   16.5069(6)
_cell_angle_alpha                78.5190(10)
_cell_angle_beta                 86.1430(10)
_cell_angle_gamma                74.9080(10)
_cell_volume                     2634.6
_exptl_crystal_colour            colorless
_exptl_crystal_description       plate
_cell_formula_units_Z            2
loop_
_atom_site_label
_atom_site_type_symbol
_atom_site_fract_x
_atom_site_fract_y
_atom_site_fract_z
B1 B 0.6249(2) 0.4591(2) 0.27463(17)
O1 O 0.51887(14) 0.41876(13) 0.26523(10)
H1 H 0.537(3) 0.352(3) 0.276(2)
B2 B 0.3900(2) 0.4566(2) 0.24098(17)
C1 C 0.6936(2) 0.39051(18) 0.35858(15)
C2 C 0.7430(2) 0.42570(18) 0.41621(15)
F1 F 0.73312(12) 0.52640(11) 0.41011(9)
C3 C 0.8053(2) 0.3634(2) 0.48251(15)
F2 F 0.84883(13) 0.40380(12) 0.53652(9)
C4 C 0.8231(2) 0.2599(2) 0.49330(15)
F3 F 0.88375(14) 0.19890(12) 0.55728(9)
C5 C 0.7797(2) 0.21996(19) 0.43716(16)
F4 F 0.79860(13) 0.11840(11) 0.44458(10)
C6 C 0.7168(2) 0.28465(19) 0.37250(15)
F5 F 0.67654(12) 0.24014(10) 0.31857(9)
C7 C 0.7164(2) 0.43271(17) 0.19878(14)
C8 C 0.8164(2) 0.46405(18) 0.19213(14)
F6 F 0.83247(12) 0.52344(11) 0.24399(8)
C9 C 0.9028(2) 0.43972(18) 0.13559(15)
F7 F 0.99689(12) 0.47433(12) 0.13270(9)
C10 C 0.8923(2) 0.37821(19) 0.08202(15)
F8 F 0.97508(13) 0.35250(12) 0.02644(9)
C11 C 0.7960(2) 0.34339(18) 0.08653(15)
F9 F 0.78505(12) 0.28243(11) 0.03524(9)
C12 C 0.71154(19) 0.36984(18) 0.14427(15)
F10 F 0.62264(12) 0.32782(11) 0.14473(9)
C13 C 0.57835(19) 0.57874(18) 0.28058(14)
C14 C 0.5952(2) 0.66021(18) 0.22202(15)
F11 F 0.64943(12) 0.64642(10) 0.14928(8)
C15 C 0.5539(2) 0.76084(18) 0.22997(15)
F12 F 0.57052(13) 0.83649(11) 0.16882(9)
C16 C 0.4914(2) 0.78423(18) 0.29944(16)
F13 F 0.44743(13) 0.88168(11) 0.30579(10)
C17 C 0.4717(2) 0.70660(19) 0.35949(15)
F14 F 0.40911(12) 0.72801(11) 0.42674(9)
C18 C 0.5151(2) 0.60740(18) 0.34907(15)
F15 F 0.49110(12) 0.53480(11) 0.41029(8)
C19 C 0.36882(19) 0.57534(18) 0.19573(14)
C20 C 0.4192(2) 0.60144(18) 0.11895(14)
F16 F 0.48527(12) 0.52751(11) 0.08273(9)
C21 C 0.4079(2) 0.6996(2) 0.07701(15)
F17 F 0.46046(13) 0.71944(11) 0.00379(9)
C22 C 0.3428(2) 0.77903(18) 0.11141(16)
F18 F 0.33268(14) 0.87578(11) 0.07285(10)
C23 C 0.2899(2) 0.75783(19) 0.18687(16)
F19 F 0.22889(13) 0.83478(11) 0.22248(9)
C24 C 0.3039(2) 0.65811(18) 0.22720(14)
F20 F 0.25306(12) 0.64622(10) 0.30260(8)
C25 C 0.3112(2) 0.43183(18) 0.32372(15)
C26 C 0.1935(2) 0.45827(18) 0.31697(15)
F21 F 0.14568(12) 0.51462(11) 0.24537(8)
C27 C 0.1200(2) 0.4305(2) 0.37894(16)
F22 F 0.00644(12) 0.46009(13) 0.36828(10)
C28 C 0.1633(2) 0.3715(2) 0.45249(16)
F23 F 0.09324(13) 0.34317(13) 0.51385(10)
C29 C 0.2788(2) 0.34380(19) 0.46302(15)
F24 F 0.32247(13) 0.28596(11) 0.53508(9)
C30 C 0.3499(2) 0.37363(18) 0.39952(15)
F25 F 0.46206(11) 0.34089(11) 0.41612(9)
C31 C 0.3651(2) 0.38343(18) 0.17969(15)
C32 C 0.4031(2) 0.27820(19) 0.20113(15)
F26 F 0.46818(12) 0.23686(10) 0.26947(9)
C33 C 0.3805(2) 0.21004(19) 0.15842(17)
F27 F 0.42057(13) 0.10950(11) 0.18400(10)
C34 C 0.3142(2) 0.2468(2) 0.08911(16)
F28 F 0.28949(14) 0.18247(12) 0.04622(10)
C35 C 0.2718(2) 0.3499(2) 0.06546(15)
F29 F 0.20619(13) 0.38654(12) -0.00165(9)
C36 C 0.2972(2) 0.41566(18) 0.11044(15)
F30 F 0.24970(12) 0.51522(10) 0.08251(9)
N1 N 0.82295(18) 0.88277(16) 0.19950(13)
C37 C 0.7716(2) 0.9413(2) 0.11841(16)
H2 H 0.8317 0.9556 0.0778
H3 H 0.7273 0.9026 0.0956
C38 C 0.8769(2) 0.7879(2) 0.20810(17)
C39 C 0.8029(4) 0.9532(4) 0.2628(3)
C40 C 0.7601(4) 1.0569(2) 0.2069(2)
H4 H 0.7091 1.1052 0.2383
H5 H 0.8247 1.0853 0.1839
C41 C 0.6955(5) 1.0384(4) 0.1376(3)
H6 H 0.6191 1.03 0.1567
H7 H 0.6876 1.0946 0.0891
C42 C 0.7090(4) 0.9277(4) 0.3232(3)
H8 H 0.6957 0.9711 0.3648
H9 H 0.7324 0.8561 0.3505
H10 H 0.6388 0.9395 0.2928
C43 C 0.9121(5) 0.9474(5) 0.3051(4)
H11 H 0.9753 0.9416 0.2648
H12 H 0.9278 0.8878 0.3499
H13 H 0.9036 1.0091 0.3279
C44 C 0.9302(7) 0.7258(5) 0.2872(4)
H14 H 1.0123 0.7202 0.2843
H15 H 0.9169 0.6577 0.2957
H16 H 0.8963 0.7589 0.3334
C45 C 0.8941(11) 0.7347(6) 0.1364(4)
H17 H 0.8255 0.7131 0.1291
H18 H 0.959 0.6749 0.1468
H19 H 0.9092 0.781 0.0863
C53 C 0.0646(2) 0.1839(3) 0.3719(2)
H38 H 0.0327 0.2156 0.417
C54 C 0.0537(3) 0.2391(2) 0.2929(2)
H39 H 0.0135 0.3089 0.2833
C55 C 0.1012(3) 0.1935(3) 0.2273(2)
H40 H 0.0933 0.2318 0.1725
C56 C 0.1595(3) 0.0931(3) 0.2409(2)
H41 H 0.1931 0.0622 0.1957
C57 C 0.1696(3) 0.0366(2) 0.3202(2)
H42 H 0.2093 -0.0333 0.3297
C58 C 0.1217(3) 0.0823(3) 0.3858(2)
H43 H 0.1282 0.0438 0.4405
C59 C 0.5193(3) 0.0922(2) 0.4657(2)
H44 H 0.5326 0.1565 0.4417
C60 C 0.4348(3) 0.0608(3) 0.4364(2)
H45 H 0.3893 0.1034 0.3921
C61 C 0.4157(3) -0.0316(2) 0.47052(19)
H46 H 0.3572 -0.0535 0.4499
C59A C 0.4807(3) -0.0922(2) 0.5343(2)
H44A H 0.4674 -0.1565 0.5583
C60A C 0.5652(3) -0.0608(3) 0.5636(2)
H45A H 0.6107 -0.1034 0.6079
C61A C 0.5843(3) 0.0316(2) 0.52948(19)
H46A H 0.6428 0.0535 0.5501
C62 C 1.0568(2) -0.0165(2) 0.07365(17)
H47 H 1.0956 -0.0278 0.1241
C63 C 0.9919(2) 0.0802(2) 0.04042(17)
H48 H 0.9865 0.1352 0.0681
C64 C 0.9354(2) 0.0963(2) -0.03290(17)
H49 H 0.891 0.1624 -0.0554
C62A C 0.9432(2) 0.0165(2) -0.07365(17)
H47A H 0.9044 0.0278 -0.1241
C63A C 1.0081(2) -0.0802(2) -0.04042(17)
H48A H 1.0135 -0.1352 -0.0681
C64A C 1.0646(2) -0.0963(2) 0.03290(17)
H49A H 1.109 -0.1624 0.0554
H20? H 0.7106 0.914 0.1022
H21? H 0.8297 0.9429 0.0735
C46? C 0.7946(19) 0.9406(14) 0.2714(10)
C47? C 0.699(2) 1.0320(16) 0.2359(12)
H22? H 0.7016 1.0928 0.2579
H23? H 0.6239 1.0176 0.2489
C48? C 0.724(3) 1.0474(13) 0.1427(13)
H24? H 0.7799 1.0887 0.128
H25? H 0.6529 1.0837 0.1123
C49? C 0.752(2) 0.8843(18) 0.3517(13)
H26? H 0.6834 0.8644 0.3406
H27? H 0.7333 0.929 0.3924
H28? H 0.811 0.8233 0.3735
C50? C 0.899(2) 0.976(2) 0.287(2)
H29? H 0.9248 1.0124 0.2354
H30? H 0.9601 0.9174 0.3098
H31? H 0.8784 1.0223 0.3272
C51? C 0.904(3) 0.718(3) 0.2898(15)
H32? H 0.8723 0.7545 0.3345
H33? H 0.9865 0.6927 0.2954
H34? H 0.8702 0.6601 0.293
C52? C 0.877(6) 0.734(3) 0.138(2)
H35? H 0.799 0.7408 0.1225
H36? H 0.9156 0.6616 0.1546
H37? H 0.9182 0.7638 0.0901
loop_
_geom_bond_atom_site_label_1
_geom_bond_atom_site_label_2
_geom_bond_site_symmetry_1
_geom_bond_site_symmetry_2
B1 O1 1_555 1_555
O1 H1 1_555 1_555
B2 O1 1_555 1_555
C1 B1 1_555 1_555
C2 C1 1_555 1_555
F1 C2 1_555 1_555
C3 C2 1_555 1_555
F2 C3 1_555 1_555
C4 C3 1_555 1_555
F3 C4 1_555 1_555
C5 C4 1_555 1_555
F4 C5 1_555 1_555
C6 C1 1_555 1_555
F5 C6 1_555 1_555
C7 B1 1_555 1_555
C8 C7 1_555 1_555
F6 C8 1_555 1_555
C9 C8 1_555 1_555
F7 C9 1_555 1_555
C10 C9 1_555 1_555
F8 C10 1_555 1_555
C11 C10 1_555 1_555
F9 C11 1_555 1_555
C12 C7 1_555 1_555
F10 C12 1_555 1_555
C13 B1 1_555 1_555
C14 C13 1_555 1_555
F11 C14 1_555 1_555
C15 C14 1_555 1_555
F12 C15 1_555 1_555
C16 C15 1_555 1_555
F13 C16 1_555 1_555
C17 C16 1_555 1_555
F14 C17 1_555 1_555
C18 C13 1_555 1_555
F15 C18 1_555 1_555
C19 B2 1_555 1_555
C20 C19 1_555 1_555
F16 C20 1_555 1_555
C21 C20 1_555 1_555
F17 C21 1_555 1_555
C22 C21 1_555 1_555
F18 C22 1_555 1_555
C23 C22 1_555 1_555
F19 C23 1_555 1_555
C24 C19 1_555 1_555
F20 C24 1_555 1_555
C25 B2 1_555 1_555
C26 C25 1_555 1_555
F21 C26 1_555 1_555
C27 C26 1_555 1_555
F22 C27 1_555 1_555
C28 C27 1_555 1_555
F23 C28 1_555 1_555
C29 C28 1_555 1_555
F24 C29 1_555 1_555
C30 C25 1_555 1_555
F25 C30 1_555 1_555
C31 B2 1_555 1_555
C32 C31 1_555 1_555
F26 C32 1_555 1_555
C33 C32 1_555 1_555
F27 C33 1_555 1_555
C34 C33 1_555 1_555
F28 C34 1_555 1_555
C35 C34 1_555 1_555
F29 C35 1_555 1_555
C36 C31 1_555 1_555
F30 C36 1_555 1_555
N1 C37 1_555 1_555
C37 H2 1_555 1_555
H3 C37 1_555 1_555
C38 N1 1_555 1_555
C39 N1 1_555 1_555
C40 C39 1_555 1_555
H4 C40 1_555 1_555
H5 C40 1_555 1_555
C41 C37 1_555 1_555
H6 C41 1_555 1_555
H7 C41 1_555 1_555
C42 C39 1_555 1_555
H8 C42 1_555 1_555
H9 C42 1_555 1_555
H10 C42 1_555 1_555
C43 C39 1_555 1_555
H11 C43 1_555 1_555
H12 C43 1_555 1_555
H13 C43 1_555 1_555
C44 C38 1_555 1_555
H14 C44 1_555 1_555
H15 C44 1_555 1_555
H16 C44 1_555 1_555
C45 C38 1_555 1_555
H17 C45 1_555 1_555
H18 C45 1_555 1_555
H19 C45 1_555 1_555
C53 H38 1_555 1_555
C54 C53 1_555 1_555
H39 C54 1_555 1_555
C55 C54 1_555 1_555
H40 C55 1_555 1_555
C56 C55 1_555 1_555
H41 C56 1_555 1_555
C57 C56 1_555 1_555
H42 C57 1_555 1_555
C58 C53 1_555 1_555
H43 C58 1_555 1_555
C59 H44 1_555 1_555
C60 C59 1_555 1_555
H45 C60 1_555 1_555
C61 C60 1_555 1_555
H46 C61 1_555 1_555
C62 H47 1_555 1_555
C63 C62 1_555 1_555
H48 C63 1_555 1_555
C64 C63 1_555 1_555
H49 C64 1_555 1_555
C59A C61 1_555 1_555
H44A C59A 1_555 1_555
C60A C59A 1_555 1_555
H45A C60A 1_555 1_555
C61A C59 1_555 1_555
H46A C61A 1_555 1_555
C62A C64 1_555 1_555
H47A C62A 1_555 1_555
C63A C62A 1_555 1_555
H48A C63A 1_555 1_555
C64A C62 1_555 1_555
H49A C64A 1_555 1_555
C5 C6 1_555 1_555
C11 C12 1_555 1_555
C17 C18 1_555 1_555
C23 C24 1_555 1_555
C29 C30 1_555 1_555
C35 C36 1_555 1_555
C40 C41 1_555 1_555
C57 C58 1_555 1_555
C60A C61A 1_555 1_555
C63A C64A 1_555 1_555

#END
