
#######################################################################
#
#                 Cambridge Crystallographic Data Centre
#                                CCDC 
#
#######################################################################
#
# If this CIF has been generated from an entry in the Cambridge 
# Structural Database, then it will include bibliographic, chemical, 
# crystal, experimental, refinement or atomic coordinate data resulting 
# from the CCDC's data processing and validation procedures.
#
#######################################################################

data_ITULEP
_chemical_formula_moiety         'C60 H64 B2 Na2 O10'
_chemical_name_systematic        
bis(\m~2~-[benzene-1,2-diolato](naphthalen-2-olato)phenylborate)-tetrakis(tetrahydrofuran)-di-sodium
_symmetry_cell_setting           monoclinic
_symmetry_space_group_name_H-M   'P 21/c'
_symmetry_Int_Tables_number      14
_space_group_name_Hall           '-P 2ybc'
loop_
_symmetry_equiv_pos_site_id
_symmetry_equiv_pos_as_xyz
1 x,y,z
2 -x,1/2+y,1/2-z
3 -x,-y,-z
4 x,1/2-y,1/2+z
_cell_length_a                   20.792(4)
_cell_length_b                   13.554(3)
_cell_length_c                   18.696(4)
_cell_angle_alpha                90
_cell_angle_beta                 90.07(3)
_cell_angle_gamma                90
_cell_volume                     5268.8
_exptl_crystal_colour            colorless
_exptl_crystal_description       block
_cell_formula_units_Z            4
loop_
_atom_site_label
_atom_site_type_symbol
_atom_site_fract_x
_atom_site_fract_y
_atom_site_fract_z
Na1 Na 0.42785(8) 0.95413(13) 0.04833(9)
B2 B 0.5280(2) 1.1289(4) 0.0966(3)
O6 O 0.48444(14) 1.1061(2) 0.03269(15)
O7 O 0.52630(15) 1.2384(2) 0.10246(17)
O8 O 0.33373(16) 1.0304(3) 0.0868(2)
O9 O 0.39994(16) 0.7934(2) 0.08384(19)
O10 O 0.40862(14) 0.9100(2) -0.07286(16)
C1 C 0.4586(2) 1.1945(3) 0.0129(2)
C3 C 0.3545(2) 0.9010(3) -0.1136(2)
C4 C 0.3053(2) 0.9735(4) -0.1024(3)
H1 H 0.3112 1.0233 -0.0672
C5 C 0.2496(2) 0.9715(4) -0.1420(3)
H2 H 0.2181 1.0214 -0.1354
C6 C 0.2394(2) 0.8984(3) -0.1905(3)
C7 C 0.1791(2) 0.8919(4) -0.2322(3)
H3 H 0.1470 0.9413 -0.2269
C8 C 0.1696(2) 0.8169(4) -0.2772(3)
H4 H 0.1306 0.8136 -0.3037
C9 C 0.2164(2) 0.7421(4) -0.2863(3)
H5 H 0.2081 0.6885 -0.3177
C10 C 0.2735(2) 0.7464(4) -0.2501(3)
H6 H 0.3051 0.6968 -0.2571
C11 C 0.2851(2) 0.8237(3) -0.2029(2)
C12 C 0.3452(2) 0.8282(3) -0.1623(2)
H7 H 0.3777 0.7801 -0.1701
C23 C 0.4845(2) 1.2710(3) 0.0525(2)
C25 C 0.5024(2) 1.0756(4) 0.1681(2)
C27 C 0.5180(3) 0.9781(4) 0.1864(3)
H15 H 0.5486 0.9439 0.1580
C29 C 0.4131(2) 1.2117(4) -0.0404(2)
H17 H 0.3957 1.1593 -0.0679
C33 C 0.4189(3) 1.3855(4) -0.0131(3)
H21 H 0.4046 1.4510 -0.0220
C34 C 0.4576(3) 1.1208(4) 0.2119(3)
H22 H 0.4447 1.1866 0.2019
C35 C 0.4909(3) 0.9302(4) 0.2437(3)
H23 H 0.5028 0.8639 0.2537
C36 C 0.4660(2) 1.3671(4) 0.0404(3)
H24 H 0.4842 1.4198 0.0671
C37 C 0.3944(2) 1.3094(4) -0.0516(3)
H25 H 0.3633 1.3230 -0.0875
C39 C 0.4471(3) 0.9767(5) 0.2863(3)
H27 H 0.4283 0.9439 0.3260
C42 C 0.3605(3) 0.7325(4) 0.0393(3)
H30 H 0.3822 0.7198 -0.0069
H31 H 0.3189 0.7652 0.0297
C46 C 0.4302(3) 0.7329(4) 0.1378(3)
H37 H 0.4173 0.7546 0.1863
H38 H 0.4777 0.7369 0.1340
C47 C 0.2869(3) 0.9693(5) 0.1126(5)
H39 H 0.2972 0.9481 0.1620
H40 H 0.2826 0.9100 0.0821
C48 C 0.4310(3) 1.0722(5) 0.2699(3)
H41 H 0.4009 1.1060 0.2992
C50 C 0.4072(3) 0.6287(4) 0.1236(4)
H43 H 0.4409 0.5895 0.0992
H44 H 0.3953 0.5951 0.1687
C51 C 0.2249(4) 1.0301(6) 0.1113(6)
H45 H 0.1955 1.0063 0.0733
H46 H 0.2024 1.0262 0.1579
C52 C 0.2454(3) 1.1285(6) 0.0971(6)
H47 H 0.2314 1.1492 0.0488
H48 H 0.2269 1.1745 0.1326
C57 C 0.3506(4) 0.6415(5) 0.0771(4)
H57 H 0.3468 0.5858 0.0432
H58 H 0.3108 0.6449 0.1061
C60 C 0.3133(3) 1.1286(5) 0.1016(4)
H63 H 0.3274 1.1488 0.1501
H64 H 0.3318 1.1751 0.0663
Na1B Na 0.57215(8) 1.04587(13) -0.04833(9)
B2B B 0.4720(2) 0.8711(4) -0.0966(3)
O6B O 0.51556(14) 0.8939(2) -0.03269(15)
O7B O 0.47370(15) 0.7616(2) -0.10246(17)
O8B O 0.66627(16) 0.9696(3) -0.0868(2)
O9B O 0.60006(16) 1.2066(2) -0.08384(19)
O10B O 0.59138(14) 1.0900(2) 0.07286(16)
C1B C 0.5414(2) 0.8055(3) -0.0129(2)
C3B C 0.6455(2) 1.0990(3) 0.1136(2)
C4B C 0.6947(2) 1.0265(4) 0.1024(3)
H1B H 0.6888 0.9767 0.0672
C5B C 0.7504(2) 1.0285(4) 0.1420(3)
H2B H 0.7819 0.9786 0.1354
C6B C 0.7606(2) 1.1016(3) 0.1905(3)
C7B C 0.8209(2) 1.1081(4) 0.2322(3)
H3B H 0.8530 1.0587 0.2269
C8B C 0.8304(2) 1.1831(4) 0.2772(3)
H4B H 0.8694 1.1864 0.3037
C9B C 0.7836(2) 1.2579(4) 0.2863(3)
H5B H 0.7919 1.3115 0.3177
C10B C 0.7265(2) 1.2536(4) 0.2501(3)
H6B H 0.6949 1.3032 0.2571
C11B C 0.7149(2) 1.1763(3) 0.2029(2)
C12B C 0.6548(2) 1.1718(3) 0.1623(2)
H7B H 0.6223 1.2199 0.1701
C23B C 0.5155(2) 0.7290(3) -0.0525(2)
C25B C 0.4976(2) 0.9244(4) -0.1681(2)
C27B C 0.4820(3) 1.0219(4) -0.1864(3)
H15B H 0.4514 1.0561 -0.1580
C29B C 0.5869(2) 0.7883(4) 0.0404(2)
H17B H 0.6043 0.8407 0.0679
C33B C 0.5811(3) 0.6145(4) 0.0131(3)
H21B H 0.5954 0.5490 0.0220
C34B C 0.5424(3) 0.8792(4) -0.2119(3)
H22B H 0.5553 0.8134 -0.2019
C35B C 0.5091(3) 1.0698(4) -0.2437(3)
H23B H 0.4972 1.1361 -0.2537
C36B C 0.5340(2) 0.6329(4) -0.0404(3)
H24B H 0.5158 0.5802 -0.0671
C37B C 0.6056(2) 0.6906(4) 0.0516(3)
H25B H 0.6367 0.6770 0.0875
C39B C 0.5529(3) 1.0233(5) -0.2863(3)
H27B H 0.5717 1.0561 -0.3260
C42B C 0.6395(3) 1.2675(4) -0.0393(3)
H30B H 0.6178 1.2802 0.0069
H31B H 0.6811 1.2348 -0.0297
C46B C 0.5698(3) 1.2671(4) -0.1378(3)
H37B H 0.5827 1.2454 -0.1863
H38B H 0.5223 1.2631 -0.1340
C47B C 0.7131(3) 1.0307(5) -0.1126(5)
H39B H 0.7028 1.0519 -0.1620
H40B H 0.7174 1.0900 -0.0821
C48B C 0.5690(3) 0.9278(5) -0.2699(3)
H41B H 0.5991 0.8940 -0.2992
C50B C 0.5928(3) 1.3713(4) -0.1236(4)
H43B H 0.5591 1.4105 -0.0992
H44B H 0.6047 1.4049 -0.1687
C51B C 0.7751(4) 0.9699(6) -0.1113(6)
H45B H 0.8045 0.9937 -0.0733
H46B H 0.7976 0.9738 -0.1579
C52B C 0.7546(3) 0.8715(6) -0.0971(6)
H47B H 0.7686 0.8508 -0.0488
H48B H 0.7731 0.8255 -0.1326
C57B C 0.6494(4) 1.3585(5) -0.0771(4)
H57B H 0.6532 1.4142 -0.0432
H58B H 0.6892 1.3551 -0.1061
C60B C 0.6867(3) 0.8714(5) -0.1016(4)
H63B H 0.6726 0.8512 -0.1501
H64B H 0.6682 0.8249 -0.0663
Na2 Na 0.07057(9) 0.06955(14) 0.46297(10)
B1 B 0.0108(3) 0.1187(4) 0.6084(3)
O1 O -0.00697(18) 0.2248(2) 0.61839(17)
O2 O -0.02634(14) 0.0896(2) 0.54044(15)
O3 O 0.1739(2) 0.0239(4) 0.4212(3)
O4 O 0.07849(15) 0.1048(3) 0.58691(17)
O5 O 0.07650(19) 0.2341(3) 0.4284(2)
C2 C -0.0675(2) 0.1670(4) 0.5272(2)
C13 C 0.1282(3) 0.1261(4) 0.6336(3)
C14 C 0.1178(3) 0.1741(5) 0.7006(3)
H8 H 0.0749 0.1925 0.7118
C15 C 0.1650(3) 0.1964(6) 0.7510(4)
H9 H 0.1554 0.2263 0.7957
C16 C 0.2233(3) 0.1732(5) 0.7321(3)
C17 C 0.2771(3) 0.2007(5) 0.7862(4)
H10 H 0.2691 0.2321 0.8307
C18 C 0.3345(3) 0.1762(5) 0.7640(4)
H11 H 0.3696 0.1897 0.7951
C19 C 0.3487(4) 0.1311(6) 0.6977(4)
H12 H 0.3924 0.1175 0.6869
C20 C 0.3028(3) 0.1059(6) 0.6476(4)
H13 H 0.3127 0.0766 0.6028
C21 C 0.2413(3) 0.1272(4) 0.6691(3)
C22 C 0.1887(3) 0.1025(5) 0.6144(4)
H14 H 0.1982 0.0723 0.5698
C24 C -0.0097(2) 0.0539(3) 0.6758(2)
C26 C -0.0564(3) 0.2437(4) 0.5729(2)
C28 C 0.0121(3) -0.0415(4) 0.6872(3)
H16 H 0.0416 -0.0691 0.6539
C30 C -0.0506(3) -0.0618(4) 0.7937(3)
H18 H -0.0650 -0.1008 0.8327
C31 C -0.0074(3) -0.0985(4) 0.7452(3)
H19 H 0.0095 -0.1631 0.7513
C32 C -0.1149(2) 0.1702(4) 0.4758(3)
H20 H -0.1218 0.1164 0.4440
C38 C -0.0934(3) 0.3283(4) 0.5708(3)
H26 H -0.0860 0.3817 0.6027
C40 C -0.0726(3) 0.0324(5) 0.7842(3)
H28 H -0.1013 0.0598 0.8183
C41 C -0.0538(3) 0.0890(4) 0.7259(3)
H29 H -0.0714 0.1532 0.7200
C43 C 0.0301(3) 0.2968(4) 0.3929(3)
H32 H -0.0143 0.2757 0.4047
H33 H 0.0357 0.2939 0.3404
C44 C -0.1521(3) 0.2549(5) 0.4722(3)
H34 H -0.1847 0.2602 0.4367
C45 C 0.1186(3) 0.2953(5) 0.4701(4)
H35 H 0.1589 0.3083 0.4436
H36 H 0.1295 0.2623 0.5158
C49 C -0.1424(3) 0.3315(5) 0.5194(3)
H42 H -0.1696 0.3877 0.5170
C53 C 0.0421(4) 0.3970(5) 0.4194(4)
H49 H 0.0011 0.4295 0.4323
H50 H 0.0636 0.4370 0.3821
C54 C 0.1898(4) 0.0598(8) 0.3617(5)
H51 H 0.1983 0.1311 0.3685
H52 H 0.1525 0.0539 0.3289
C55 C 0.2464(4) 0.0156(8) 0.3262(5)
H53 H 0.2769 0.0662 0.3088
H54 H 0.2340 -0.0286 0.2863
C56 C 0.2728(4) -0.0410(7) 0.3895(4)
H55 H 0.2629 -0.1122 0.3850
H56 H 0.3200 -0.0328 0.3929
C58 C 0.2103(5) -0.0752(8) 0.4147(8)
H59 H 0.2138 -0.1091 0.4614
H60 H 0.1895 -0.1198 0.3796
C59 C 0.0843(4) 0.3876(5) 0.4837(4)
H61 H 0.1145 0.4439 0.4873
H62 H 0.0586 0.3836 0.5281
Na2B Na -0.07057(9) -0.06955(14) 0.53703(10)
B1B B -0.0108(3) -0.1187(4) 0.3916(3)
O1B O 0.00697(18) -0.2248(2) 0.38161(17)
O2B O 0.02634(14) -0.0896(2) 0.45956(15)
O3B O -0.1739(2) -0.0239(4) 0.5788(3)
O4B O -0.07849(15) -0.1048(3) 0.41309(17)
O5B O -0.07650(19) -0.2341(3) 0.5716(2)
C2B C 0.0675(2) -0.1670(4) 0.4728(2)
C13B C -0.1282(3) -0.1261(4) 0.3664(3)
C14B C -0.1178(3) -0.1741(5) 0.2994(3)
H8B H -0.0749 -0.1925 0.2882
C15B C -0.1650(3) -0.1964(6) 0.2490(4)
H9B H -0.1554 -0.2263 0.2043
C16B C -0.2233(3) -0.1732(5) 0.2679(3)
C17B C -0.2771(3) -0.2007(5) 0.2138(4)
H10B H -0.2691 -0.2321 0.1693
C18B C -0.3345(3) -0.1762(5) 0.2360(4)
H11B H -0.3696 -0.1897 0.2049
C19B C -0.3487(4) -0.1311(6) 0.3023(4)
H12B H -0.3924 -0.1175 0.3131
C20B C -0.3028(3) -0.1059(6) 0.3524(4)
H13B H -0.3127 -0.0766 0.3972
C21B C -0.2413(3) -0.1272(4) 0.3309(3)
C22B C -0.1887(3) -0.1025(5) 0.3856(4)
H14B H -0.1982 -0.0723 0.4302
C24B C 0.0097(2) -0.0539(3) 0.3242(2)
C26B C 0.0564(3) -0.2437(4) 0.4271(2)
C28B C -0.0121(3) 0.0415(4) 0.3128(3)
H16B H -0.0416 0.0691 0.3461
C30B C 0.0506(3) 0.0618(4) 0.2063(3)
H18B H 0.0650 0.1008 0.1673
C31B C 0.0074(3) 0.0985(4) 0.2548(3)
H19B H -0.0095 0.1631 0.2487
C32B C 0.1149(2) -0.1702(4) 0.5242(3)
H20B H 0.1218 -0.1164 0.5560
C38B C 0.0934(3) -0.3283(4) 0.4292(3)
H26B H 0.0860 -0.3817 0.3973
C40B C 0.0726(3) -0.0324(5) 0.2158(3)
H28B H 0.1013 -0.0598 0.1817
C41B C 0.0538(3) -0.0890(4) 0.2741(3)
H29B H 0.0714 -0.1532 0.2800
C43B C -0.0301(3) -0.2968(4) 0.6071(3)
H32B H 0.0143 -0.2757 0.5953
H33B H -0.0357 -0.2939 0.6596
C44B C 0.1521(3) -0.2549(5) 0.5278(3)
H34B H 0.1847 -0.2602 0.5633
C45B C -0.1186(3) -0.2953(5) 0.5299(4)
H35B H -0.1589 -0.3083 0.5564
H36B H -0.1295 -0.2623 0.4842
C49B C 0.1424(3) -0.3315(5) 0.4806(3)
H42B H 0.1696 -0.3877 0.4830
C53B C -0.0421(4) -0.3970(5) 0.5806(4)
H49B H -0.0011 -0.4295 0.5677
H50B H -0.0636 -0.4370 0.6179
C54B C -0.1898(4) -0.0598(8) 0.6383(5)
H51B H -0.1983 -0.1311 0.6315
H52B H -0.1525 -0.0539 0.6711
C55B C -0.2464(4) -0.0156(8) 0.6738(5)
H53B H -0.2769 -0.0662 0.6912
H54B H -0.2340 0.0286 0.7137
C56B C -0.2728(4) 0.0410(7) 0.6105(4)
H55B H -0.2629 0.1122 0.6150
H56B H -0.3200 0.0328 0.6071
C58B C -0.2103(5) 0.0752(8) 0.5853(8)
H59B H -0.2138 0.1091 0.5386
H60B H -0.1895 0.1198 0.6204
C59B C -0.0843(4) -0.3876(5) 0.5163(4)
H61B H -0.1145 -0.4439 0.5127
H62B H -0.0586 -0.3836 0.4719
C61? C 0.2407(5) 0.0014(13) 0.4530(6)
H65? H 0.2625 0.0621 0.4698
H66? H 0.2382 -0.0467 0.4927
loop_
_geom_bond_atom_site_label_1
_geom_bond_atom_site_label_2
_geom_bond_site_symmetry_1
_geom_bond_site_symmetry_2
Na1 O6 1_555 1_555
Na2 O2 1_555 1_555
B1 O1 1_555 1_555
B2 O6 1_555 1_555
O1 C26 1_555 1_555
O2 B1 1_555 1_555
O3 Na2 1_555 1_555
O4 Na2 1_555 1_555
O5 Na2 1_555 1_555
O6 C1 1_555 1_555
O7 B2 1_555 1_555
O8 Na1 1_555 1_555
O9 Na1 1_555 1_555
O10 Na1 1_555 1_555
C1 C23 1_555 1_555
C2 O2 1_555 1_555
C3 O10 1_555 1_555
C4 C3 1_555 1_555
H1 C4 1_555 1_555
C5 C4 1_555 1_555
H2 C5 1_555 1_555
C6 C5 1_555 1_555
C7 C6 1_555 1_555
H3 C7 1_555 1_555
C8 C7 1_555 1_555
H4 C8 1_555 1_555
C9 C8 1_555 1_555
H5 C9 1_555 1_555
C10 C9 1_555 1_555
H6 C10 1_555 1_555
C11 C6 1_555 1_555
C12 C3 1_555 1_555
H7 C12 1_555 1_555
C13 O4 1_555 1_555
C14 C13 1_555 1_555
H8 C14 1_555 1_555
C15 C14 1_555 1_555
H9 C15 1_555 1_555
C16 C15 1_555 1_555
C17 C16 1_555 1_555
H10 C17 1_555 1_555
C18 C17 1_555 1_555
H11 C18 1_555 1_555
C19 C18 1_555 1_555
H12 C19 1_555 1_555
C20 C19 1_555 1_555
H13 C20 1_555 1_555
C21 C16 1_555 1_555
C22 C13 1_555 1_555
H14 C22 1_555 1_555
C23 O7 1_555 1_555
C24 B1 1_555 1_555
C25 B2 1_555 1_555
C26 C2 1_555 1_555
C27 C25 1_555 1_555
H15 C27 1_555 1_555
C28 C24 1_555 1_555
H16 C28 1_555 1_555
C29 C1 1_555 1_555
H17 C29 1_555 1_555
C30 H18 1_555 1_555
C31 C28 1_555 1_555
H19 C31 1_555 1_555
C32 C2 1_555 1_555
H20 C32 1_555 1_555
C33 H21 1_555 1_555
C34 C25 1_555 1_555
H22 C34 1_555 1_555
C35 C27 1_555 1_555
H23 C35 1_555 1_555
C36 C23 1_555 1_555
H24 C36 1_555 1_555
C37 C29 1_555 1_555
H25 C37 1_555 1_555
C38 C26 1_555 1_555
H26 C38 1_555 1_555
C39 C35 1_555 1_555
H27 C39 1_555 1_555
C40 C30 1_555 1_555
H28 C40 1_555 1_555
C41 C24 1_555 1_555
H29 C41 1_555 1_555
C42 O9 1_555 1_555
H30 C42 1_555 1_555
H31 C42 1_555 1_555
C43 O5 1_555 1_555
H32 C43 1_555 1_555
H33 C43 1_555 1_555
C44 C32 1_555 1_555
H34 C44 1_555 1_555
C45 O5 1_555 1_555
H35 C45 1_555 1_555
H36 C45 1_555 1_555
C46 O9 1_555 1_555
H37 C46 1_555 1_555
H38 C46 1_555 1_555
C47 O8 1_555 1_555
H39 C47 1_555 1_555
H40 C47 1_555 1_555
C48 C34 1_555 1_555
H41 C48 1_555 1_555
C49 C38 1_555 1_555
H42 C49 1_555 1_555
C50 C46 1_555 1_555
H43 C50 1_555 1_555
H44 C50 1_555 1_555
C51 C47 1_555 1_555
H45 C51 1_555 1_555
H46 C51 1_555 1_555
C52 C51 1_555 1_555
H47 C52 1_555 1_555
H48 C52 1_555 1_555
C53 C43 1_555 1_555
H49 C53 1_555 1_555
H50 C53 1_555 1_555
C54 O3 1_555 1_555
H51 C54 1_555 1_555
H52 C54 1_555 1_555
C55 C54 1_555 1_555
H53 C55 1_555 1_555
H54 C55 1_555 1_555
C56 C55 1_555 1_555
H55 C56 1_555 1_555
H56 C56 1_555 1_555
C57 C42 1_555 1_555
H57 C57 1_555 1_555
H58 C57 1_555 1_555
C58 O3 1_555 1_555
H59 C58 1_555 1_555
H60 C58 1_555 1_555
C59 C45 1_555 1_555
H61 C59 1_555 1_555
H62 C59 1_555 1_555
C60 O8 1_555 1_555
H63 C60 1_555 1_555
H64 C60 1_555 1_555
Na1B O6 1_555 1_555
Na2B O2 1_555 1_555
B1B O1B 1_555 1_555
B2B O10 1_555 1_555
O1B C26B 1_555 1_555
O2B Na2 1_555 1_555
O3B Na2B 1_555 1_555
O4B Na2B 1_555 1_555
O5B Na2B 1_555 1_555
O6B Na1 1_555 1_555
O7B B2B 1_555 1_555
O8B Na1B 1_555 1_555
O9B Na1B 1_555 1_555
O10B B2 1_555 1_555
C1B O6B 1_555 1_555
C2B O2B 1_555 1_555
C3B O10B 1_555 1_555
C4B C3B 1_555 1_555
H1B C4B 1_555 1_555
C5B C4B 1_555 1_555
H2B C5B 1_555 1_555
C6B C5B 1_555 1_555
C7B C6B 1_555 1_555
H3B C7B 1_555 1_555
C8B C7B 1_555 1_555
H4B C8B 1_555 1_555
C9B C8B 1_555 1_555
H5B C9B 1_555 1_555
C10B C9B 1_555 1_555
H6B C10B 1_555 1_555
C11B C6B 1_555 1_555
C12B C3B 1_555 1_555
H7B C12B 1_555 1_555
C13B O4B 1_555 1_555
C14B C13B 1_555 1_555
H8B C14B 1_555 1_555
C15B C14B 1_555 1_555
H9B C15B 1_555 1_555
C16B C15B 1_555 1_555
C17B C16B 1_555 1_555
H10B C17B 1_555 1_555
C18B C17B 1_555 1_555
H11B C18B 1_555 1_555
C19B C18B 1_555 1_555
H12B C19B 1_555 1_555
C20B C19B 1_555 1_555
H13B C20B 1_555 1_555
C21B C16B 1_555 1_555
C22B C13B 1_555 1_555
H14B C22B 1_555 1_555
C23B O7B 1_555 1_555
C24B B1B 1_555 1_555
C25B B2B 1_555 1_555
C26B C2B 1_555 1_555
C27B C25B 1_555 1_555
H15B C27B 1_555 1_555
C28B C24B 1_555 1_555
H16B C28B 1_555 1_555
C29B C1B 1_555 1_555
H17B C29B 1_555 1_555
C30B H18B 1_555 1_555
C31B C28B 1_555 1_555
H19B C31B 1_555 1_555
C32B C2B 1_555 1_555
H20B C32B 1_555 1_555
C33B H21B 1_555 1_555
C34B C25B 1_555 1_555
H22B C34B 1_555 1_555
C35B C27B 1_555 1_555
H23B C35B 1_555 1_555
C36B C23B 1_555 1_555
H24B C36B 1_555 1_555
C37B C29B 1_555 1_555
H25B C37B 1_555 1_555
C38B C26B 1_555 1_555
H26B C38B 1_555 1_555
C39B C35B 1_555 1_555
H27B C39B 1_555 1_555
C40B C30B 1_555 1_555
H28B C40B 1_555 1_555
C41B C24B 1_555 1_555
H29B C41B 1_555 1_555
C42B O9B 1_555 1_555
H30B C42B 1_555 1_555
H31B C42B 1_555 1_555
C43B O5B 1_555 1_555
H32B C43B 1_555 1_555
H33B C43B 1_555 1_555
C44B C32B 1_555 1_555
H34B C44B 1_555 1_555
C45B O5B 1_555 1_555
H35B C45B 1_555 1_555
H36B C45B 1_555 1_555
C46B O9B 1_555 1_555
H37B C46B 1_555 1_555
H38B C46B 1_555 1_555
C47B O8B 1_555 1_555
H39B C47B 1_555 1_555
H40B C47B 1_555 1_555
C48B C34B 1_555 1_555
H41B C48B 1_555 1_555
C49B C38B 1_555 1_555
H42B C49B 1_555 1_555
C50B C46B 1_555 1_555
H43B C50B 1_555 1_555
H44B C50B 1_555 1_555
C51B C47B 1_555 1_555
H45B C51B 1_555 1_555
H46B C51B 1_555 1_555
C52B C51B 1_555 1_555
H47B C52B 1_555 1_555
H48B C52B 1_555 1_555
C53B C43B 1_555 1_555
H49B C53B 1_555 1_555
H50B C53B 1_555 1_555
C54B O3B 1_555 1_555
H51B C54B 1_555 1_555
H52B C54B 1_555 1_555
C55B C54B 1_555 1_555
H53B C55B 1_555 1_555
H54B C55B 1_555 1_555
C56B C55B 1_555 1_555
H55B C56B 1_555 1_555
H56B C56B 1_555 1_555
C57B C42B 1_555 1_555
H57B C57B 1_555 1_555
H58B C57B 1_555 1_555
C58B O3B 1_555 1_555
H59B C58B 1_555 1_555
H60B C58B 1_555 1_555
C59B C45B 1_555 1_555
H61B C59B 1_555 1_555
H62B C59B 1_555 1_555
C60B O8B 1_555 1_555
H63B C60B 1_555 1_555
H64B C60B 1_555 1_555
B1 O4 1_555 1_555
C10 C11 1_555 1_555
C11 C12 1_555 1_555
C20 C21 1_555 1_555
C21 C22 1_555 1_555
C30 C31 1_555 1_555
C33 C36 1_555 1_555
C33 C37 1_555 1_555
C39 C48 1_555 1_555
C40 C41 1_555 1_555
C44 C49 1_555 1_555
C50 C57 1_555 1_555
C52 C60 1_555 1_555
C53 C59 1_555 1_555
C56 C58 1_555 1_555
Na1B O6B 1_555 1_555
Na1B O10B 1_555 1_555
Na2B O2B 1_555 1_555
B1B O2B 1_555 1_555
B1B O4B 1_555 1_555
B2B O6B 1_555 1_555
C1B C23B 1_555 1_555
C10B C11B 1_555 1_555
C11B C12B 1_555 1_555
C20B C21B 1_555 1_555
C21B C22B 1_555 1_555
C30B C31B 1_555 1_555
C33B C36B 1_555 1_555
C33B C37B 1_555 1_555
C39B C48B 1_555 1_555
C40B C41B 1_555 1_555
C44B C49B 1_555 1_555
C50B C57B 1_555 1_555
C52B C60B 1_555 1_555
C53B C59B 1_555 1_555
C56B C58B 1_555 1_555

#END
