
#######################################################################
#
#                 Cambridge Crystallographic Data Centre
#                                CCDC 
#
#######################################################################
#
# If this CIF has been generated from an entry in the Cambridge 
# Structural Database, then it will include bibliographic, chemical, 
# crystal, experimental, refinement or atomic coordinate data resulting 
# from the CCDC's data processing and validation procedures.
#
#######################################################################

data_ITULUG
_chemical_formula_moiety         'C27 H19 B1 F15 N1 O1'
_chemical_name_systematic        
(1-oxy-2,2,6,6-tetramethylpiperidinium)(tris(pentafluorophenyl))borate
_symmetry_cell_setting           monoclinic
_symmetry_space_group_name_H-M   'P 21/n'
_symmetry_Int_Tables_number      14
_space_group_name_Hall           '-P 2yn'
loop_
_symmetry_equiv_pos_site_id
_symmetry_equiv_pos_as_xyz
1 x,y,z
2 1/2-x,1/2+y,1/2-z
3 -x,-y,-z
4 1/2+x,1/2-y,1/2+z
_cell_length_a                   11.1485(2)
_cell_length_b                   17.4855(4)
_cell_length_c                   14.1664(3)
_cell_angle_alpha                90
_cell_angle_beta                 102.295(1)
_cell_angle_gamma                90
_cell_volume                     2698.22
_exptl_crystal_colour            colorless
_exptl_crystal_description       prism
_cell_formula_units_Z            4
loop_
_atom_site_label
_atom_site_type_symbol
_atom_site_fract_x
_atom_site_fract_y
_atom_site_fract_z
O1 O 0.1738(2) 0.18047(14) 0.70925(16)
N1 N 0.2097(3) 0.19315(19) 0.6198(2)
H1 H 0.221(4) 0.145(3) 0.590(3)
C1 C 0.1052(4) 0.2339(2) 0.5447(3)
C2 C 0.1572(5) 0.2526(3) 0.4564(3)
H2 H 0.1686 0.2046 0.4237
H3 H 0.0962 0.2829 0.4117
C3 C 0.2783(5) 0.2961(3) 0.4759(4)
H4 H 0.2684 0.3460 0.5046
H5 H 0.3061 0.3041 0.4155
C4 C 0.3715(5) 0.2479(4) 0.5455(4)
H6 H 0.3810 0.1988 0.5146
H7 H 0.4511 0.2740 0.5570
C5 C 0.3386(4) 0.2328(3) 0.6407(3)
C6 C 0.0609(4) 0.3038(3) 0.5902(3)
H8 H -0.0171 0.3204 0.5512
H9 H 0.1207 0.3446 0.5937
H10 H 0.0507 0.2913 0.6547
C7 C 0.0006(4) 0.1768(3) 0.5167(3)
H11 H -0.0352 0.1667 0.5721
H12 H 0.0320 0.1295 0.4956
H13 H -0.0615 0.1977 0.4646
C8 C 0.4286(4) 0.1772(3) 0.7001(4)
H14 H 0.4299 0.1302 0.6639
H15 H 0.4035 0.1661 0.7601
H16 H 0.5100 0.1997 0.7141
C9 C 0.3374(5) 0.3051(3) 0.6999(4)
H17 H 0.4210 0.3197 0.7291
H18 H 0.2922 0.2958 0.7502
H19 H 0.2981 0.3460 0.6582
B1 B 0.1570(4) 0.1015(3) 0.7521(3)
C10 C 0.0094(3) 0.0767(2) 0.7220(2)
F1 F 0.0286(2) -0.05362(13) 0.67848(16)
C11 C -0.0426(4) 0.0067(2) 0.6905(3)
F2 F -0.2105(2) -0.07650(15) 0.63543(18)
C12 C -0.1676(4) -0.0083(2) 0.6705(3)
F3 F -0.3685(2) 0.03482(18) 0.66612(19)
C13 C -0.2463(3) 0.0476(3) 0.6858(3)
F4 F -0.2780(2) 0.17231(15) 0.73918(17)
C14 C -0.2012(3) 0.1175(2) 0.7210(3)
F5 F -0.04003(19) 0.20036(13) 0.77225(16)
C15 C -0.0766(3) 0.1300(2) 0.7377(2)
C16 C 0.1758(3) 0.1150(2) 0.8700(3)
F6 F 0.1391(2) -0.01703(13) 0.88654(16)
C17 C 0.1585(4) 0.0533(2) 0.9273(3)
F7 F 0.1432(3) -0.00636(16) 1.07446(18)
C18 C 0.1608(4) 0.0570(3) 1.0247(3)
F8 F 0.1821(3) 0.13198(17) 1.16581(16)
C19 C 0.1806(4) 0.1257(3) 1.0710(3)
F9 F 0.2173(3) 0.25773(15) 1.06240(17)
C20 C 0.1983(4) 0.1888(3) 1.0188(3)
F10 F 0.2128(2) 0.24943(13) 0.87690(15)
C21 C 0.1956(3) 0.1829(2) 0.9209(3)
C22 C 0.2546(3) 0.0374(2) 0.7261(3)
F11 F 0.3965(2) 0.04794(15) 0.87762(16)
C23 C 0.3630(4) 0.0157(2) 0.7893(3)
F12 F 0.5488(2) -0.05308(15) 0.83240(18)
C24 C 0.4447(3) -0.0372(2) 0.7675(3)
F13 F 0.5013(2) -0.12284(15) 0.6564(2)
C25 C 0.4220(4) -0.0719(2) 0.6785(3)
F14 F 0.2948(2) -0.08336(15) 0.52381(17)
C26 C 0.3181(4) -0.0514(2) 0.6121(3)
F15 F 0.1433(2) 0.02188(13) 0.56476(14)
C27 C 0.2402(4) 0.0020(2) 0.6368(3)
loop_
_geom_bond_atom_site_label_1
_geom_bond_atom_site_label_2
_geom_bond_site_symmetry_1
_geom_bond_site_symmetry_2
O1 N1 1_555 1_555
N1 H1 1_555 1_555
C1 N1 1_555 1_555
C2 C1 1_555 1_555
H2 C2 1_555 1_555
H3 C2 1_555 1_555
C3 C2 1_555 1_555
H4 C3 1_555 1_555
H5 C3 1_555 1_555
C4 C3 1_555 1_555
H6 C4 1_555 1_555
H7 C4 1_555 1_555
C5 N1 1_555 1_555
C6 C1 1_555 1_555
H8 C6 1_555 1_555
H9 C6 1_555 1_555
H10 C6 1_555 1_555
C7 C1 1_555 1_555
H11 C7 1_555 1_555
H12 C7 1_555 1_555
H13 C7 1_555 1_555
C8 C5 1_555 1_555
H14 C8 1_555 1_555
H15 C8 1_555 1_555
H16 C8 1_555 1_555
C9 C5 1_555 1_555
H17 C9 1_555 1_555
H18 C9 1_555 1_555
H19 C9 1_555 1_555
B1 O1 1_555 1_555
C10 B1 1_555 1_555
F1 C11 1_555 1_555
C11 C10 1_555 1_555
F2 C12 1_555 1_555
C12 C11 1_555 1_555
F3 C13 1_555 1_555
C13 C12 1_555 1_555
F4 C14 1_555 1_555
C14 C13 1_555 1_555
F5 C15 1_555 1_555
C15 C10 1_555 1_555
C16 B1 1_555 1_555
F6 C17 1_555 1_555
C17 C16 1_555 1_555
F7 C18 1_555 1_555
C18 C17 1_555 1_555
F8 C19 1_555 1_555
C19 C18 1_555 1_555
F9 C20 1_555 1_555
C20 C19 1_555 1_555
F10 C21 1_555 1_555
C21 C16 1_555 1_555
C22 B1 1_555 1_555
F11 C23 1_555 1_555
C23 C22 1_555 1_555
F12 C24 1_555 1_555
C24 C23 1_555 1_555
F13 C25 1_555 1_555
C25 C24 1_555 1_555
F14 C26 1_555 1_555
C26 C25 1_555 1_555
F15 C27 1_555 1_555
C27 C22 1_555 1_555
C4 C5 1_555 1_555
C14 C15 1_555 1_555
C20 C21 1_555 1_555
C26 C27 1_555 1_555

#END
