
#######################################################################
#
#                 Cambridge Crystallographic Data Centre
#                                CCDC 
#
#######################################################################
#
# If this CIF has been generated from an entry in the Cambridge 
# Structural Database, then it will include bibliographic, chemical, 
# crystal, experimental, refinement or atomic coordinate data resulting 
# from the CCDC's data processing and validation procedures.
#
#######################################################################

data_ITUSIZ
_chemical_formula_moiety         'C3 H8 N1 O2 1+,C3 H7 N1 O2,H2 O3 P1 1-,H2 O1'
_chemical_name_systematic        
'L-Alaninium L-alanine monophosphite monohydrate'
_symmetry_cell_setting           monoclinic
_symmetry_space_group_name_H-M   'P 21'
_symmetry_Int_Tables_number      4
_space_group_name_Hall           'P 2yb'
loop_
_symmetry_equiv_pos_site_id
_symmetry_equiv_pos_as_xyz
1 x,y,z
2 -x,1/2+y,-z
_cell_length_a                   8.592(3)
_cell_length_b                   6.475(3)
_cell_length_c                   12.004(3)
_cell_angle_alpha                90
_cell_angle_beta                 104.8(5)
_cell_angle_gamma                90
_cell_volume                     645.665
_exptl_crystal_colour            colorless
_cell_formula_units_Z            2
loop_
_atom_site_label
_atom_site_type_symbol
_atom_site_fract_x
_atom_site_fract_y
_atom_site_fract_z
P1 P 0.38454(3) 0.64767 0.22434(3)
O1 O 0.4404(2) 0.7345(2) 0.1255(2)
O2 O 0.4836(2) 0.7051(2) 0.3424(2)
O3 O 0.3691(2) 0.4083(2) 0.2085(2)
H1 H 0.341(5) 0.360(7) 0.253(4)
H19 H 0.239(5) 0.710(7) 0.215(3)
O4 O 0.2793(2) 0.8361(3) 0.8608(2)
O5 O 0.0224(2) 0.9007(4) 0.8575(2)
N1 N 0.3906(2) 1.1166(2) 1.0300(2)
C1 C 0.1786(2) 0.9321(3) 0.8909(2)
C2 C 0.2151(2) 1.1138(3) 0.9744(2)
C3 C 0.1642(3) 1.3179(4) 0.9132(2)
H2 H 0.006(5) 0.799(8) 0.822(4)
H3 H 0.157(4) 1.088(5) 1.024(3)
H4 H 0.068(5) 1.316(7) 0.884(3)
H5 H 0.212(5) 1.423(7) 0.956(4)
H6 H 0.231(5) 1.329(7) 0.851(4)
H7 H 0.449(3) 1.131(6) 0.984(3)
H8 H 0.406(4) 1.212(6) 1.082(3)
H9 H 0.417(4) 0.996(6) 1.068(3)
O6 O 0.6840(2) 0.6951(3) 0.6301(2)
O7 O 0.9418(2) 0.6168(3) 0.7090(2)
N2 N 0.6400(2) 0.3809(2) 0.4826(2)
C4 C 0.8101(2) 0.5975(3) 0.6357(2)
C5 C 0.8079(2) 0.4334(3) 0.5434(2)
C6 C 0.8987(3) 0.5089(4) 0.4573(2)
H10 H 0.849(4) 0.315(6) 0.580(3)
H11 H 0.860(4) 0.622(7) 0.423(3)
H12 H 0.883(5) 0.410(7) 0.393(4)
H13 H 1.011(5) 0.526(7) 0.497(4)
H14 H 0.590(4) 0.339(6) 0.526(3)
H15 H 0.636(4) 0.280(6) 0.438(3)
H16 H 0.582(4) 0.486(6) 0.446(3)
O8 O 0.6963(3) 0.0500(3) 0.3476(2)
H17 H 0.648(5) -0.040(9) 0.343(4)
H18 H 0.725(6) 0.077(8) 0.298(4)
loop_
_geom_bond_atom_site_label_1
_geom_bond_atom_site_label_2
_geom_bond_site_symmetry_1
_geom_bond_site_symmetry_2
P1 O1 1_555 1_555
O2 P1 1_555 1_555
O3 P1 1_555 1_555
O4 C1 1_555 1_555
O5 C1 1_555 1_555
O6 C4 1_555 1_555
O7 C4 1_555 1_555
O8 H17 1_555 1_555
N1 C2 1_555 1_555
N2 C5 1_555 1_555
C1 C2 1_555 1_555
C2 C3 1_555 1_555
C3 H4 1_555 1_555
C4 C5 1_555 1_555
C5 C6 1_555 1_555
C6 H11 1_555 1_555
H1 O3 1_555 1_555
H2 O5 1_555 1_555
H3 C2 1_555 1_555
H5 C3 1_555 1_555
H6 C3 1_555 1_555
H7 N1 1_555 1_555
H8 N1 1_555 1_555
H9 N1 1_555 1_555
H10 C5 1_555 1_555
H12 C6 1_555 1_555
H13 C6 1_555 1_555
H14 N2 1_555 1_555
H15 N2 1_555 1_555
H16 N2 1_555 1_555
H18 O8 1_555 1_555
H19 P1 1_555 1_555

#END
