
#######################################################################
#
#                 Cambridge Crystallographic Data Centre
#                                CCDC 
#
#######################################################################
#
# If this CIF has been generated from an entry in the Cambridge 
# Structural Database, then it will include bibliographic, chemical, 
# crystal, experimental, refinement or atomic coordinate data resulting 
# from the CCDC's data processing and validation procedures.
#
#######################################################################

data_ITUXEC
_chemical_formula_moiety         'C21 H28 N1 O1 P1 S1'
_chemical_name_systematic        
1-((diphenylphosphoryl)sulfanyl)-2,2,6,6-tetramethylpiperidine
_symmetry_cell_setting           monoclinic
_symmetry_space_group_name_H-M   'P 21/c'
_symmetry_Int_Tables_number      14
_space_group_name_Hall           '-P 2ybc'
loop_
_symmetry_equiv_pos_site_id
_symmetry_equiv_pos_as_xyz
1 x,y,z
2 -x,1/2+y,1/2-z
3 -x,-y,-z
4 x,1/2-y,1/2+z
_cell_length_a                   20.1973(4)
_cell_length_b                   6.13890(10)
_cell_length_c                   16.3931(2)
_cell_angle_alpha                90
_cell_angle_beta                 106.0090(10)
_cell_angle_gamma                90
_cell_volume                     1953.74
_exptl_crystal_colour            colorless
_exptl_crystal_description       rod
_cell_formula_units_Z            4
loop_
_atom_site_label
_atom_site_type_symbol
_atom_site_fract_x
_atom_site_fract_y
_atom_site_fract_z
S1 S 0.246787(15) -0.19305(5) 0.213591(18)
P1 P 0.307334(15) -0.46976(5) 0.208809(18)
O1 O 0.28679(5) -0.67809(14) 0.24064(6)
N1 N 0.16326(5) -0.28230(17) 0.17249(6)
C1 C 0.12632(6) -0.2997(2) 0.24095(7)
C2 C 0.05341(7) -0.3875(2) 0.20057(8)
H1 H 0.0569 -0.5422 0.1851
H2 H 0.0271 -0.3821 0.2433
C3 C 0.01353(7) -0.2639(2) 0.12206(8)
H3 H -0.0321 -0.3322 0.0980
H4 H 0.0064 -0.1111 0.1370
C4 C 0.05501(6) -0.2704(2) 0.05766(8)
H5 H 0.0294 -0.1908 0.0061
H6 H 0.0595 -0.4238 0.0413
C5 C 0.12731(6) -0.1711(2) 0.09000(7)
C6 C 0.16440(7) -0.4679(2) 0.30583(8)
H7 H 0.2072 -0.4040 0.3412
H8 H 0.1753 -0.5957 0.2761
H9 H 0.1352 -0.5119 0.3418
C7 C 0.12304(7) -0.0835(2) 0.28730(8)
H10 H 0.0939 0.0201 0.2478
H11 H 0.1696 -0.0234 0.3086
H12 H 0.1036 -0.1097 0.3350
C8 C 0.16622(7) -0.2276(2) 0.02497(8)
H13 H 0.1727 -0.3856 0.0240
H14 H 0.2112 -0.1553 0.0406
H15 H 0.1396 -0.1780 -0.0314
C9 C 0.12342(7) 0.0785(2) 0.09626(8)
H16 H 0.1678 0.1347 0.1307
H17 H 0.0872 0.1179 0.1228
H18 H 0.1129 0.1419 0.0393
C10 C 0.38862(6) -0.3673(2) 0.27449(7)
C11 C 0.42716(7) -0.5131(2) 0.33446(8)
H19 H 0.4101 -0.6556 0.3388
C12 C 0.49044(7) -0.4500(3) 0.38785(8)
H20 H 0.5166 -0.5497 0.4284
C13 C 0.51539(7) -0.2425(3) 0.38202(9)
H21 H 0.5587 -0.2001 0.4185
C14 C 0.47728(7) -0.0958(2) 0.32294(8)
H22 H 0.4946 0.0466 0.3192
C15 C 0.41374(6) -0.1569(2) 0.26923(8)
H23 H 0.3876 -0.0561 0.2292
C16 C 0.31525(6) -0.5027(2) 0.10207(7)
C17 C 0.29408(6) -0.7009(2) 0.06175(8)
H24 H 0.2783 -0.8143 0.0912
C18 C 0.29604(7) -0.7324(2) -0.02174(8)
H25 H 0.2811 -0.8670 -0.0493
C19 C 0.31956(7) -0.5686(2) -0.06482(8)
H26 H 0.3203 -0.5903 -0.1220
C20 C 0.34215(7) -0.3725(2) -0.02417(8)
H27 H 0.3592 -0.2612 -0.0532
C21 C 0.33988(7) -0.3389(2) 0.05889(8)
H28 H 0.3551 -0.2044 0.0863
loop_
_geom_bond_atom_site_label_1
_geom_bond_atom_site_label_2
_geom_bond_site_symmetry_1
_geom_bond_site_symmetry_2
S1 P1 1_555 1_555
P1 O1 1_555 1_555
N1 S1 1_555 1_555
C1 N1 1_555 1_555
C2 C1 1_555 1_555
H1 C2 1_555 1_555
H2 C2 1_555 1_555
C3 C2 1_555 1_555
H3 C3 1_555 1_555
H4 C3 1_555 1_555
C4 C3 1_555 1_555
H5 C4 1_555 1_555
H6 C4 1_555 1_555
C5 N1 1_555 1_555
C6 C1 1_555 1_555
H7 C6 1_555 1_555
H8 C6 1_555 1_555
H9 C6 1_555 1_555
C7 C1 1_555 1_555
H10 C7 1_555 1_555
H11 C7 1_555 1_555
H12 C7 1_555 1_555
C8 C5 1_555 1_555
H13 C8 1_555 1_555
H14 C8 1_555 1_555
H15 C8 1_555 1_555
C9 C5 1_555 1_555
H16 C9 1_555 1_555
H17 C9 1_555 1_555
H18 C9 1_555 1_555
C10 P1 1_555 1_555
C11 C10 1_555 1_555
H19 C11 1_555 1_555
C12 C11 1_555 1_555
H20 C12 1_555 1_555
C13 C12 1_555 1_555
H21 C13 1_555 1_555
C14 C13 1_555 1_555
H22 C14 1_555 1_555
C15 C10 1_555 1_555
H23 C15 1_555 1_555
C16 P1 1_555 1_555
C17 C16 1_555 1_555
H24 C17 1_555 1_555
C18 C17 1_555 1_555
H25 C18 1_555 1_555
C19 C18 1_555 1_555
H26 C19 1_555 1_555
C20 C19 1_555 1_555
H27 C20 1_555 1_555
C21 C16 1_555 1_555
H28 C21 1_555 1_555
C4 C5 1_555 1_555
C14 C15 1_555 1_555
C20 C21 1_555 1_555

#END
