
#######################################################################
#
#                 Cambridge Crystallographic Data Centre
#                                CCDC 
#
#######################################################################
#
# If this CIF has been generated from an entry in the Cambridge 
# Structural Database, then it will include bibliographic, chemical, 
# crystal, experimental, refinement or atomic coordinate data resulting 
# from the CCDC's data processing and validation procedures.
#
#######################################################################

data_IVABOW01
_chemical_formula_moiety         'C11 H12 N2 O3'
_chemical_name_systematic        
5-Acetyl-4-(2-furyl)-6-methyl-3,4-dihydropyrimidin-2(1H)-one
_symmetry_cell_setting           monoclinic
_symmetry_space_group_name_H-M   'P 21/n'
_symmetry_Int_Tables_number      14
_space_group_name_Hall           '-P 2yn'
loop_
_symmetry_equiv_pos_site_id
_symmetry_equiv_pos_as_xyz
1 x,y,z
2 1/2-x,1/2+y,1/2-z
3 -x,-y,-z
4 1/2+x,1/2-y,1/2+z
_cell_length_a                   8.8371(19)
_cell_length_b                   8.1860(16)
_cell_length_c                   14.831(3)
_cell_angle_alpha                90
_cell_angle_beta                 103.731(5)
_cell_angle_gamma                90
_cell_volume                     1042.22
_exptl_crystal_colour            'light brown'
_exptl_crystal_description       block
_chemical_melting_point          '221-222 deg.C'
_cell_formula_units_Z            4
_exptl_crystal_recrystallization_method 'ethyl acetate/hexane'
loop_
_atom_site_label
_atom_site_type_symbol
_atom_site_fract_x
_atom_site_fract_y
_atom_site_fract_z
O1 O 0.47078(18) 0.4846(2) 0.37650(11)
O2 O 0.90380(18) 0.56757(19) 0.39099(11)
O3 O 0.90154(18) 1.0759(2) 0.36715(11)
N1 N 0.6081(2) 0.6768(2) 0.47290(12)
H1 H 0.5920 0.6236 0.5213
N2 N 0.5935(2) 0.6858(2) 0.31621(12)
H2 H 0.5356 0.6723 0.2596
C1 C 0.5547(2) 0.6076(3) 0.38658(14)
C2 C 0.7300(2) 0.7935(3) 0.33064(14)
H3 H 0.7128 0.8721 0.2776
C3 C 0.7409(2) 0.8914(3) 0.41895(14)
C4 C 0.6852(2) 0.8243(3) 0.48806(15)
C5 C 0.8728(3) 0.6951(3) 0.32913(14)
C6 C 1.0343(3) 0.4919(3) 0.37636(16)
H4 H 1.0822 0.3988 0.4094
C7 C 1.0846(3) 0.5668(3) 0.30946(16)
H5 H 1.1731 0.5380 0.2869
C8 C 0.9801(3) 0.6989(3) 0.27807(16)
H6 H 0.9851 0.7748 0.2304
C9 C 0.8183(2) 1.0501(3) 0.42143(15)
C10 C 0.7944(3) 1.1852(3) 0.48460(17)
H7 H 0.8742 1.1786 0.5430
H8 H 0.6910 1.1749 0.4973
H9 H 0.8024 1.2907 0.4548
C11 C 0.6989(3) 0.8882(3) 0.58474(15)
H10 H 0.7947 0.9525 0.6040
H11 H 0.7021 0.7963 0.6275
H12 H 0.6088 0.9574 0.5857
loop_
_geom_bond_atom_site_label_1
_geom_bond_atom_site_label_2
_geom_bond_site_symmetry_1
_geom_bond_site_symmetry_2
O1 C1 1_555 1_555
O2 C5 1_555 1_555
O3 C9 1_555 1_555
N1 H1 1_555 1_555
N2 H2 1_555 1_555
C1 N1 1_555 1_555
C2 N2 1_555 1_555
H3 C2 1_555 1_555
C3 C2 1_555 1_555
C4 N1 1_555 1_555
C5 C2 1_555 1_555
C6 O2 1_555 1_555
H4 C6 1_555 1_555
C7 C6 1_555 1_555
H5 C7 1_555 1_555
C8 C5 1_555 1_555
H6 C8 1_555 1_555
C9 C3 1_555 1_555
C10 C9 1_555 1_555
H7 C10 1_555 1_555
H8 C10 1_555 1_555
H9 C10 1_555 1_555
C11 C4 1_555 1_555
H10 C11 1_555 1_555
H11 C11 1_555 1_555
H12 C11 1_555 1_555
N2 C1 1_555 1_555
C3 C4 1_555 1_555
C7 C8 1_555 1_555

#END
