
#######################################################################
#
#                 Cambridge Crystallographic Data Centre
#                                CCDC 
#
#######################################################################
#
# If this CIF has been generated from an entry in the Cambridge 
# Structural Database, then it will include bibliographic, chemical, 
# crystal, experimental, refinement or atomic coordinate data resulting 
# from the CCDC's data processing and validation procedures.
#
#######################################################################

data_IVABEM
_chemical_formula_moiety         'C23 H30 O4'
_chemical_name_systematic        "4-Hexyloxyphenyl 4'-butyloxybenzoate"
_symmetry_cell_setting           monoclinic
_symmetry_space_group_name_H-M   'P 21/n'
_symmetry_Int_Tables_number      14
_space_group_name_Hall           '-P 2yn'
loop_
_symmetry_equiv_pos_site_id
_symmetry_equiv_pos_as_xyz
1 x,y,z
2 1/2+x,1/2-y,1/2+z
3 -x,-y,-z
4 1/2-x,1/2+y,1/2-z
_cell_length_a                   19.6307(8)
_cell_length_b                   5.3304(2)
_cell_length_c                   20.2575(9)
_cell_angle_alpha                90
_cell_angle_beta                 104.734(2)
_cell_angle_gamma                90
_cell_volume                     2050.03
_exptl_crystal_colour            colorless
_exptl_crystal_description       plate
_cell_formula_units_Z            4
loop_
_atom_site_label
_atom_site_type_symbol
_atom_site_fract_x
_atom_site_fract_y
_atom_site_fract_z
O1 O 0.54787(7) -0.1933(3) 0.34653(7)
O2 O 0.61198(7) 0.1329(3) 0.32309(6)
O3 O 0.78898(6) 0.1044(3) 0.58475(6)
O4 O 0.40116(6) -0.0144(3) 0.03190(6)
C1 C 0.55931(9) -0.0417(4) 0.30684(9)
C2 C 0.65545(9) 0.1242(4) 0.39101(9)
C3 C 0.64884(10) 0.3135(4) 0.43526(10)
C4 C 0.69354(10) 0.3141(4) 0.50149(9)
C5 C 0.74277(9) 0.1229(4) 0.52114(9)
C6 C 0.74893(10) -0.0665(4) 0.47553(9)
C7 C 0.70462(10) -0.0660(4) 0.40973(10)
C8 C 0.78164(10) 0.2750(4) 0.63777(9)
C9 C 0.83468(10) 0.1894(4) 0.70188(9)
C10 C 0.83214(10) 0.3316(4) 0.76646(10)
C11 C 0.88610(11) 0.2294(4) 0.82872(10)
C12 C 0.88519(12) 0.3568(4) 0.89571(10)
C13 C 0.93950(13) 0.2453(5) 0.95650(11)
C14 C 0.51907(9) -0.0191(4) 0.23405(9)
C15 C 0.46758(9) -0.2016(4) 0.20834(9)
C16 C 0.42929(10) -0.1950(4) 0.14068(9)
C17 C 0.44169(9) -0.0038(4) 0.09783(9)
C18 C 0.49204(9) 0.1802(4) 0.12257(9)
C19 C 0.53078(9) 0.1700(4) 0.19097(9)
C20 C 0.40795(10) 0.1842(4) -0.01403(9)
C21 C 0.35759(10) 0.1293(4) -0.08265(9)
C22 C 0.36548(11) 0.3218(4) -0.13604(10)
C23 C 0.31523(12) 0.2742(5) -0.20563(10)
H1 H 0.6140(11) 0.437(4) 0.4207(11)
H2 H 0.6864(10) 0.440(4) 0.5324(10)
H3 H 0.7826(10) -0.192(4) 0.4904(10)
H4 H 0.7077(10) -0.199(4) 0.3788(10)
H5 H 0.7308(11) 0.277(4) 0.6426(10)
H6 H 0.7899(9) 0.444(4) 0.6256(9)
H7 H 0.8254(10) 0.009(4) 0.7091(10)
H8 H 0.8800(11) 0.200(4) 0.6950(11)
H9 H 0.8412(13) 0.504(5) 0.7629(12)
H10 H 0.7839(12) 0.317(4) 0.7728(11)
H11 H 0.9331(11) 0.247(4) 0.8209(11)
H12 H 0.8792(10) 0.048(4) 0.8341(10)
H13 H 0.8953(12) 0.541(5) 0.8932(12)
H14 H 0.8379(11) 0.328(4) 0.9053(11)
H15 H 0.9904(14) 0.269(5) 0.9517(12)
H16 H 0.9354(14) 0.330(5) 0.9972(15)
H17 H 0.9342(11) 0.054(5) 0.9601(11)
H18 H 0.4570(10) -0.331(4) 0.2383(10)
H19 H 0.3925(11) -0.312(4) 0.1241(10)
H20 H 0.5004(11) 0.313(4) 0.0959(11)
H21 H 0.5654(11) 0.296(4) 0.2093(11)
H22 H 0.4579(10) 0.189(4) -0.0199(10)
H23 H 0.3968(10) 0.343(4) 0.0043(10)
H24 H 0.3662(11) -0.041(4) -0.0990(10)
H25 H 0.3084(11) 0.136(4) -0.0780(10)
H26 H 0.4135(12) 0.319(5) -0.1426(11)
H27 H 0.3581(10) 0.487(4) -0.1213(10)
H28 H 0.3237(12) 0.403(5) -0.2402(12)
H29 H 0.3244(11) 0.109(5) -0.2243(11)
H30 H 0.2657(13) 0.282(5) -0.2036(11)
loop_
_geom_bond_atom_site_label_1
_geom_bond_atom_site_label_2
_geom_bond_site_symmetry_1
_geom_bond_site_symmetry_2
O1 C1 1_555 1_555
O2 C1 1_555 1_555
O3 C5 1_555 1_555
O4 C17 1_555 1_555
C1 C14 1_555 1_555
C2 O2 1_555 1_555
C3 C2 1_555 1_555
C4 C3 1_555 1_555
C5 C4 1_555 1_555
C6 C5 1_555 1_555
C7 C2 1_555 1_555
C8 O3 1_555 1_555
C9 C8 1_555 1_555
C10 C9 1_555 1_555
C11 C10 1_555 1_555
C12 C11 1_555 1_555
C13 C12 1_555 1_555
C14 C15 1_555 1_555
C15 C16 1_555 1_555
C16 C17 1_555 1_555
C17 C18 1_555 1_555
C18 C19 1_555 1_555
C19 C14 1_555 1_555
C20 O4 1_555 1_555
C21 C20 1_555 1_555
C22 C21 1_555 1_555
C23 C22 1_555 1_555
H1 C3 1_555 1_555
H2 C4 1_555 1_555
H3 C6 1_555 1_555
H4 C7 1_555 1_555
H5 C8 1_555 1_555
H6 C8 1_555 1_555
H7 C9 1_555 1_555
H8 C9 1_555 1_555
H9 C10 1_555 1_555
H10 C10 1_555 1_555
H11 C11 1_555 1_555
H12 C11 1_555 1_555
H13 C12 1_555 1_555
H14 C12 1_555 1_555
H15 C13 1_555 1_555
H16 C13 1_555 1_555
H17 C13 1_555 1_555
H18 C15 1_555 1_555
H19 C16 1_555 1_555
H20 C18 1_555 1_555
H21 C19 1_555 1_555
H22 C20 1_555 1_555
H23 C20 1_555 1_555
H24 C21 1_555 1_555
H25 C21 1_555 1_555
H26 C22 1_555 1_555
H27 C22 1_555 1_555
H28 C23 1_555 1_555
H29 C23 1_555 1_555
H30 C23 1_555 1_555
C6 C7 1_555 1_555

#END
