
#######################################################################
#
#                 Cambridge Crystallographic Data Centre
#                                CCDC 
#
#######################################################################
#
# If this CIF has been generated from an entry in the Cambridge 
# Structural Database, then it will include bibliographic, chemical, 
# crystal, experimental, refinement or atomic coordinate data resulting 
# from the CCDC's data processing and validation procedures.
#
#######################################################################

data_IVABAI
_chemical_formula_moiety         'C23 H30 O4'
_chemical_name_systematic        "4-Butyloxyphenyl 4'-hexyloxybenzoate"
_symmetry_cell_setting           triclinic
_symmetry_space_group_name_H-M   'P -1'
_symmetry_Int_Tables_number      2
_space_group_name_Hall           '-P 1'
loop_
_symmetry_equiv_pos_site_id
_symmetry_equiv_pos_as_xyz
1 x,y,z
2 -x,-y,-z
_cell_length_a                   9.3792(7)
_cell_length_b                   9.8507(7)
_cell_length_c                   22.168(2)
_cell_angle_alpha                83.635(2)
_cell_angle_beta                 89.609(2)
_cell_angle_gamma                89.789(2)
_cell_volume                     2035.46
_exptl_crystal_colour            colorless
_exptl_crystal_description       plate
_cell_formula_units_Z            4
loop_
_atom_site_label
_atom_site_type_symbol
_atom_site_fract_x
_atom_site_fract_y
_atom_site_fract_z
O1 O -0.9258(2) -0.0677(2) -0.20305(10)
O2 O -0.8408(2) -0.0734(2) -0.29783(9)
O3 O -0.2968(2) -0.2666(2) -0.14403(9)
O4 O -1.3832(2) -0.0065(2) -0.39335(10)
C1 C -0.8268(3) -0.0852(3) -0.23647(14)
C2 C -0.6818(3) -0.1221(3) -0.21600(14)
C3 C -0.5689(3) -0.1390(3) -0.25511(16)
C4 C -0.4362(3) -0.1824(3) -0.23275(16)
C5 C -0.4172(3) -0.2129(3) -0.17098(14)
C6 C -0.5286(3) -0.1908(3) -0.13100(15)
C7 C -0.6589(3) -0.1446(3) -0.15343(15)
C8 C -0.1812(3) -0.3021(4) -0.18316(16)
C9 C -0.0792(4) -0.3931(4) -0.14509(17)
C10 C -0.0108(3) -0.3282(3) -0.09268(16)
C11 C 0.1163(3) -0.4120(3) -0.06688(17)
C12 C 0.1893(4) -0.3521(4) -0.01463(17)
C13 C 0.3214(4) -0.4332(4) 0.0063(2)
C14 C -0.9815(3) -0.0526(3) -0.31995(14)
C15 C -1.0460(4) 0.0729(3) -0.32032(15)
C16 C -1.1825(4) 0.0935(3) -0.34452(16)
C17 C -1.2502(3) -0.0137(3) -0.36820(14)
C18 C -1.1830(4) -0.1394(3) -0.36697(15)
C19 C -1.0483(4) -0.1604(3) -0.34315(14)
C20 C -1.4645(4) 0.1163(3) -0.39124(18)
C21 C -1.6035(4) 0.0917(4) -0.42348(19)
C22 C -1.7043(4) 0.2127(4) -0.4260(2)
C23 C -1.8401(5) 0.1842(5) -0.4610(2)
H1 H -0.577(4) -0.125(3) -0.2914(14)
H2 H -0.358(4) -0.192(3) -0.2565(14)
H3 H -0.515(3) -0.216(3) -0.0870(12)
H4 H -0.747(4) -0.130(3) -0.1231(14)
H5 H -0.136(3) -0.212(3) -0.2000(11)
H6 H -0.222(3) -0.354(3) -0.2109(12)
H7 H -0.007(3) -0.412(3) -0.1723(13)
H8 H -0.138(4) -0.492(3) -0.1247(15)
H9 H -0.083(4) -0.318(3) -0.0580(14)
H10 H 0.024(3) -0.227(3) -0.1051(13)
H11 H 0.184(4) -0.418(3) -0.1022(15)
H12 H 0.089(4) -0.509(4) -0.0510(16)
H13 H 0.221(3) -0.265(3) -0.0271(12)
H14 H 0.115(4) -0.357(4) 0.0239(16)
H15 H 0.374(4) -0.386(3) 0.0380(15)
H16 H 0.398(4) -0.441(4) -0.0255(17)
H17 H 0.300(4) -0.531(4) 0.0244(15)
H18 H -1.006(3) 0.145(3) -0.2966(12)
H19 H -1.239(4) 0.179(4) -0.3375(15)
H20 H -1.226(4) -0.211(3) -0.3843(14)
H21 H -0.993(4) -0.250(4) -0.3362(17)
H22 H -1.412(4) 0.196(3) -0.4064(14)
H23 H -1.483(4) 0.144(4) -0.3449(16)
H24 H -1.597(4) 0.088(4) -0.4670(18)
H25 H -1.659(4) 0.009(4) -0.3910(17)
H26 H -1.664(4) 0.297(4) -0.4480(17)
H27 H -1.715(5) 0.215(5) -0.375(2)
H28 H -1.909(4) 0.263(4) -0.4562(17)
H29 H -1.890(5) 0.099(5) -0.436(2)
H30 H -1.818(5) 0.170(5) -0.503(2)
O5 O -0.8378(2) -0.4170(2) -0.26670(10)
O6 O -0.8866(2) -0.6286(2) -0.28968(11)
O7 O -0.3084(2) -0.7448(2) -0.14856(11)
O8 O -1.3757(4) -0.4388(3) -0.41003(14)
C24 C -0.8047(3) -0.5357(3) -0.26432(14)
C25 C -0.6755(3) -0.5973(3) -0.23570(14)
C26 C -0.6303(4) -0.7299(3) -0.24204(15)
C27 C -0.5067(3) -0.7821(3) -0.21464(16)
C28 C -0.4290(3) -0.7027(3) -0.17878(15)
C29 C -0.4736(3) -0.5696(3) -0.17171(16)
C30 C -0.5940(3) -0.5182(3) -0.20017(16)
C31 C -0.2638(4) -0.8857(3) -0.14958(19)
C32 C -0.1487(3) -0.9150(3) -0.10264(18)
C33 C -0.0122(3) -0.8342(3) -0.11416(17)
C34 C 0.1007(3) -0.8776(3) -0.06731(17)
C35 C 0.2450(4) -0.8097(4) -0.0795(2)
C36 C 0.3567(4) -0.8570(5) -0.0323(2)
H31 H -0.684(3) -0.783(3) -0.2650(12)
H32 H -0.478(3) -0.877(3) -0.2181(13)
H33 H -0.417(4) -0.516(3) -0.1444(14)
H34 H -0.625(3) -0.429(3) -0.1969(14)
H35 H -0.226(3) -0.897(3) -0.1889(13)
H36 H -0.355(4) -0.950(3) -0.1380(14)
H37 H -0.131(3) -1.021(3) -0.1000(13)
H38 H -0.186(3) -0.893(3) -0.0618(13)
H39 H 0.027(3) -0.850(3) -0.1511(13)
H40 H -0.038(4) -0.728(4) -0.1154(15)
H41 H 0.107(4) -0.983(3) -0.0625(14)
H42 H 0.064(3) -0.854(3) -0.0249(14)
H43 H 0.232(4) -0.704(4) -0.0800(15)
H44 H 0.270(4) -0.826(3) -0.1154(15)
H45 H 0.447(4) -0.802(4) -0.0467(16)
H46 H 0.378(4) -0.965(4) -0.0288(14)
H47 H 0.336(5) -0.839(4) 0.008(2)
H48 H -1.139(3) -0.617(3) -0.2388(14)
H49 H -1.345(4) -0.540(4) -0.2906(15)
H50 H -1.122(4) -0.462(4) -0.4437(17)
H51 H -0.911(5) -0.535(4) -0.3975(19)
C37 C -1.0125(4) -0.5780(3) -0.31871(15)
C38 C -1.1375(3) -0.5802(3) -0.28675(15)
C39 C -1.2634(4) -0.5361(3) -0.31646(16)
C40 C -1.2604(4) -0.4900(3) -0.37692(17)
C41 C -1.1341(6) -0.4901(4) -0.4090(2)
C42 C -1.0084(5) -0.5361(4) -0.38033(18)
C43 C -1.5049(5) -0.4172(5) -0.3778(3)
H52 H -1.4933 -0.3572 -0.3451
H53 H -1.5542 -0.5028 -0.3622
C44 C -1.7934(5) -0.2376(5) -0.4806(2)
H59 H -1.8361 -0.2549 -0.5183
H60 H -1.8657 -0.2388 -0.4497
H61 H -1.7481 -0.1498 -0.4856
C45 C -1.6160(8) -0.3144(7) -0.4013(3)
H62 H -1.5741 -0.2217 -0.4077
H63 H -1.6958 -0.3134 -0.3719
C46 C -1.6686(8) -0.3573(7) -0.4611(3)
H64 H -1.7104 -0.4500 -0.4555
H65 H -1.5910 -0.3545 -0.4917
H54? H -1.4771 -0.3930 -0.3387
H55? H -1.5526 -0.5037 -0.3712
H56? H -1.8881 -0.2046 -0.4701
H57? H -1.8035 -0.3125 -0.5059
H58? H -1.7397 -0.1629 -0.5030
C47? C -1.5785(9) -0.3367(9) -0.4420(4)
H66? H -1.5185 -0.2594 -0.4594
H67? H -1.5914 -0.4007 -0.4729
C48? C -1.7125(9) -0.2897(8) -0.4216(4)
H68? H -1.6992 -0.2150 -0.3958
H69? H -1.7653 -0.3649 -0.3981
loop_
_geom_bond_atom_site_label_1
_geom_bond_atom_site_label_2
_geom_bond_site_symmetry_1
_geom_bond_site_symmetry_2
O1 C1 1_555 1_555
O2 C1 1_555 1_555
O3 C5 1_555 1_555
O4 C17 1_555 1_555
C1 C2 1_555 1_555
C2 C3 1_555 1_555
C3 C4 1_555 1_555
C4 C5 1_555 1_555
C5 C6 1_555 1_555
C6 C7 1_555 1_555
C7 C2 1_555 1_555
C8 O3 1_555 1_555
C9 C8 1_555 1_555
C10 C9 1_555 1_555
C11 C10 1_555 1_555
C12 C11 1_555 1_555
C13 C12 1_555 1_555
C14 O2 1_555 1_555
C15 C14 1_555 1_555
C16 C15 1_555 1_555
C17 C16 1_555 1_555
C18 C17 1_555 1_555
C19 C14 1_555 1_555
C20 O4 1_555 1_555
C21 C20 1_555 1_555
C22 C21 1_555 1_555
C23 C22 1_555 1_555
H1 C3 1_555 1_555
H2 C4 1_555 1_555
H3 C6 1_555 1_555
H4 C7 1_555 1_555
H5 C8 1_555 1_555
H6 C8 1_555 1_555
H7 C9 1_555 1_555
H8 C9 1_555 1_555
H9 C10 1_555 1_555
H10 C10 1_555 1_555
H11 C11 1_555 1_555
H12 C11 1_555 1_555
H13 C12 1_555 1_555
H14 C12 1_555 1_555
H15 C13 1_555 1_555
H16 C13 1_555 1_555
H17 C13 1_555 1_555
H18 C15 1_555 1_555
H19 C16 1_555 1_555
H20 C18 1_555 1_555
H21 C19 1_555 1_555
H22 C20 1_555 1_555
H23 C20 1_555 1_555
H24 C21 1_555 1_555
H25 C21 1_555 1_555
H26 C22 1_555 1_555
H27 C22 1_555 1_555
H28 C23 1_555 1_555
H29 C23 1_555 1_555
H30 C23 1_555 1_555
O5 C24 1_555 1_555
O6 C24 1_555 1_555
O7 C28 1_555 1_555
O8 C40 1_555 1_555
C24 C25 1_555 1_555
C25 C26 1_555 1_555
C26 C27 1_555 1_555
C27 C28 1_555 1_555
C28 C29 1_555 1_555
C29 C30 1_555 1_555
C30 C25 1_555 1_555
C31 O7 1_555 1_555
C32 C31 1_555 1_555
C33 C32 1_555 1_555
C34 C33 1_555 1_555
C35 C34 1_555 1_555
C36 C35 1_555 1_555
H31 C26 1_555 1_555
H32 C27 1_555 1_555
H33 C29 1_555 1_555
H34 C30 1_555 1_555
H35 C31 1_555 1_555
H36 C31 1_555 1_555
H37 C32 1_555 1_555
H38 C32 1_555 1_555
H39 C33 1_555 1_555
H40 C33 1_555 1_555
H41 C34 1_555 1_555
H42 C34 1_555 1_555
H43 C35 1_555 1_555
H44 C35 1_555 1_555
H45 C36 1_555 1_555
H46 C36 1_555 1_555
H47 C36 1_555 1_555
H48 C38 1_555 1_555
H49 C39 1_555 1_555
H50 C41 1_555 1_555
H51 C42 1_555 1_555
C37 O6 1_555 1_555
C38 C37 1_555 1_555
C39 C38 1_555 1_555
C40 C39 1_555 1_555
C41 C40 1_555 1_555
C42 C37 1_555 1_555
C43 O8 1_555 1_555
H52 C43 1_555 1_555
H53 C43 1_555 1_555
C44 H59 1_555 1_555
H60 C44 1_555 1_555
H61 C44 1_555 1_555
C45 C43 1_555 1_555
H62 C45 1_555 1_555
H63 C45 1_555 1_555
C46 C44 1_555 1_555
H64 C46 1_555 1_555
H65 C46 1_555 1_555
C18 C19 1_555 1_555
C41 C42 1_555 1_555
C45 C46 1_555 1_555

#END
