
#######################################################################
#
#                 Cambridge Crystallographic Data Centre
#                                CCDC 
#
#######################################################################
#
# If this CIF has been generated from an entry in the Cambridge 
# Structural Database, then it will include bibliographic, chemical, 
# crystal, experimental, refinement or atomic coordinate data resulting 
# from the CCDC's data processing and validation procedures.
#
#######################################################################

data_IVADEP
_chemical_formula_moiety         'C23 H24 N2 O6,0.5(C1 H2 Cl2)'
_chemical_name_systematic        
'8a-Hydroxy-3-nitro-2-(4-nitrophenyl)-4-phenyldecahydronaphthalene-1-carbaldehyde dichloromethane solvate'
_symmetry_cell_setting           orthorhombic
_symmetry_space_group_name_H-M   'P 21 21 21'
_symmetry_Int_Tables_number      19
_space_group_name_Hall           'P 2ac 2ab'
loop_
_symmetry_equiv_pos_site_id
_symmetry_equiv_pos_as_xyz
1 x,y,z
2 1/2-x,-y,1/2+z
3 -x,1/2+y,1/2-z
4 1/2+x,1/2-y,-z
_cell_length_a                   8.390(5)
_cell_length_b                   22.555(15)
_cell_length_c                   23.123(17)
_cell_angle_alpha                90
_cell_angle_beta                 90
_cell_angle_gamma                90
_cell_volume                     4375.71
_exptl_crystal_colour            colorless
_exptl_crystal_description       prism
_cell_formula_units_Z            8
loop_
_atom_site_label
_atom_site_type_symbol
_atom_site_fract_x
_atom_site_fract_y
_atom_site_fract_z
C1 C 0.6143(9) 0.5553(4) 0.9454(4)
H1 H 0.5918 0.5231 0.9181
C2 C 0.6723(10) 0.5259(5) 1.0038(5)
H2 H 0.7558 0.4975 0.9935
C3 C 0.5417(10) 0.4911(6) 1.0306(5)
C4 C 0.4294(10) 0.5158(5) 1.0662(5)
H3 H 0.4285 0.5566 1.0720
C5 C 0.3167(12) 0.4803(6) 1.0935(5)
H4 H 0.2356 0.4971 1.1156
C6 C 0.3282(13) 0.4196(6) 1.0871(5)
C7 C 0.4367(11) 0.3944(6) 1.0510(5)
H5 H 0.4386 0.3536 1.0455
C8 C 0.5435(10) 0.4305(5) 1.0228(4)
H6 H 0.6183 0.4137 0.9980
C9 C 0.7498(12) 0.5717(5) 1.0434(5)
H7 H 0.6689 0.6010 1.0542
C10 C 0.8059(14) 0.5401(6) 1.0985(6)
H8 H 0.8943 0.5153 1.0969
C11 C 0.8865(11) 0.6040(5) 1.0139(5)
C12 C 0.9702(12) 0.6471(5) 1.0546(5)
H9 H 1.0124 0.6249 1.0871
H10 H 0.8917 0.6746 1.0697
C13 C 1.1034(12) 0.6820(5) 1.0280(6)
H11 H 1.1902 0.6556 1.0179
H12 H 1.1430 0.7108 1.0557
C14 C 1.0433(13) 0.7147(6) 0.9727(6)
H13 H 0.9666 0.7450 0.9834
H14 H 1.1322 0.7339 0.9535
C15 C 0.9662(12) 0.6704(5) 0.9321(5)
H15 H 1.0455 0.6417 0.9199
H16 H 0.9288 0.6911 0.8979
C16 C 0.8252(11) 0.6375(5) 0.9603(5)
H17 H 0.7461 0.6668 0.9728
C17 C 0.7455(10) 0.5945(5) 0.9183(5)
H18 H 0.8291 0.5675 0.9048
C18 C 0.6752(12) 0.6247(6) 0.8634(5)
C19 C 0.6137(15) 0.6802(6) 0.8637(6)
H19 H 0.6160 0.7030 0.8972
C20 C 0.5458(15) 0.7026(6) 0.8124(7)
H20 H 0.5069 0.7412 0.8119
C21 C 0.5362(14) 0.6691(8) 0.7638(6)
H21 H 0.4884 0.6841 0.7306
C22 C 0.5964(12) 0.6142(6) 0.7644(6)
H22 H 0.5919 0.5912 0.7310
C23 C 0.6657(13) 0.5910(5) 0.8141(6)
H23 H 0.7056 0.5526 0.8139
N1 N 0.4638(10) 0.5883(5) 0.9546(4)
N2 N 0.2213(13) 0.3831(7) 1.1224(5)
O1 O 0.4687(8) 0.6357(4) 0.9819(3)
O2 O 0.3371(8) 0.5667(4) 0.9389(3)
O3 O 0.1086(11) 0.4065(5) 1.1449(4)
O4 O 0.2478(11) 0.3290(5) 1.1252(4)
O5 O 0.7383(9) 0.5468(4) 1.1435(4)
O6 O 0.9980(7) 0.5578(3) 0.9970(3)
H49 H 1.0747 0.5728 0.9806
C24 C 0.6093(10) 0.0436(5) 0.1318(5)
H24 H 0.5850 0.0122 0.1038
C25 C 0.7156(10) 0.0165(5) 0.1783(5)
H25 H 0.8013 -0.0039 0.1575
C26 C 0.6318(11) -0.0307(6) 0.2131(5)
C27 C 0.5322(11) -0.0200(5) 0.2601(5)
H26 H 0.5130 0.0189 0.2717
C28 C 0.4622(12) -0.0658(6) 0.2893(5)
H27 H 0.3920 -0.0575 0.3193
C29 C 0.4928(12) -0.1221(6) 0.2756(5)
C30 C 0.5895(11) -0.1363(6) 0.2292(5)
H28 H 0.6056 -0.1754 0.2179
C31 C 0.6617(11) -0.0895(6) 0.2002(5)
H29 H 0.7336 -0.0981 0.1708
C32 C 0.7976(11) 0.0644(4) 0.2149(5)
H30 H 0.7159 0.0879 0.2346
C33 C 0.9047(12) 0.0343(6) 0.2608(7)
H31 H 0.9751 0.0048 0.2492
C34 C 0.8991(10) 0.1057(5) 0.1770(5)
C35 C 0.9990(11) 0.1490(5) 0.2106(5)
H32 H 0.9299 0.1710 0.2365
H33 H 1.0738 0.1269 0.2342
C36 C 1.0899(11) 0.1920(5) 0.1747(5)
H34 H 1.1721 0.1713 0.1533
H35 H 1.1412 0.2209 0.1996
C37 C 0.9782(12) 0.2238(5) 0.1326(5)
H36 H 0.9044 0.2485 0.1541
H37 H 1.0402 0.2494 0.1074
C38 C 0.8838(11) 0.1792(5) 0.0956(5)
H38 H 0.9566 0.1562 0.0719
H39 H 0.8115 0.2003 0.0701
C39 C 0.7895(11) 0.1379(5) 0.1352(5)
H40 H 0.7158 0.1623 0.1579
C40 C 0.6902(10) 0.0962(4) 0.0972(4)
H41 H 0.7661 0.0774 0.0708
C41 C 0.5692(11) 0.1254(6) 0.0596(5)
C42 C 0.4918(12) 0.1762(6) 0.0737(5)
H42 H 0.5161 0.1936 0.1091
C43 C 0.3812(12) 0.2035(5) 0.0400(6)
H43 H 0.3306 0.2379 0.0523
C44 C 0.3454(14) 0.1783(6) -0.0139(6)
H44 H 0.2759 0.1969 -0.0394
C45 C 0.4162(13) 0.1252(6) -0.0279(5)
H45 H 0.3863 0.1064 -0.0620
C46 C 0.5274(11) 0.0992(6) 0.0058(5)
H46 H 0.5765 0.0643 -0.0061
N3 N 0.4546(9) 0.0648(4) 0.1560(4)
N4 N 0.4204(11) -0.1702(6) 0.3074(6)
O7 O 0.4562(8) 0.1044(4) 0.1927(3)
O8 O 0.3312(7) 0.0435(3) 0.1380(3)
O9 O 0.4422(10) -0.2213(5) 0.2928(4)
O10 O 0.3363(10) -0.1573(4) 0.3502(4)
O11 O 0.9000(9) 0.0478(4) 0.3110(4)
O12 O 1.0074(7) 0.0678(3) 0.1429(3)
H50 H 0.9548 0.0454 0.1225
C47 C 0.5342(18) 0.6707(7) 0.1893(6)
H47 H 0.5729 0.6305 0.1941
H48 H 0.4990 0.6843 0.2269
Cl1 Cl 0.6877(5) 0.71286(18) 0.16898(19)
Cl2 Cl 0.3752(5) 0.6684(2) 0.1457(3)
loop_
_geom_bond_atom_site_label_1
_geom_bond_atom_site_label_2
_geom_bond_site_symmetry_1
_geom_bond_site_symmetry_2
C1 H1 1_555 1_555
C2 C1 1_555 1_555
H2 C2 1_555 1_555
C3 C2 1_555 1_555
C4 C3 1_555 1_555
H3 C4 1_555 1_555
C5 C4 1_555 1_555
H4 C5 1_555 1_555
C6 C5 1_555 1_555
C7 C6 1_555 1_555
H5 C7 1_555 1_555
C8 C3 1_555 1_555
H6 C8 1_555 1_555
C9 C2 1_555 1_555
H7 C9 1_555 1_555
C10 C9 1_555 1_555
H8 C10 1_555 1_555
C11 C9 1_555 1_555
C12 C11 1_555 1_555
H9 C12 1_555 1_555
H10 C12 1_555 1_555
C13 C12 1_555 1_555
H11 C13 1_555 1_555
H12 C13 1_555 1_555
C14 C13 1_555 1_555
H13 C14 1_555 1_555
H14 C14 1_555 1_555
C15 C14 1_555 1_555
H15 C15 1_555 1_555
H16 C15 1_555 1_555
C16 C11 1_555 1_555
H17 C16 1_555 1_555
C17 C1 1_555 1_555
H18 C17 1_555 1_555
C18 C17 1_555 1_555
C19 C18 1_555 1_555
H19 C19 1_555 1_555
C20 C19 1_555 1_555
H20 C20 1_555 1_555
C21 C20 1_555 1_555
H21 C21 1_555 1_555
C22 C21 1_555 1_555
H22 C22 1_555 1_555
C23 C18 1_555 1_555
H23 C23 1_555 1_555
C24 H24 1_555 1_555
C25 C24 1_555 1_555
H25 C25 1_555 1_555
C26 C25 1_555 1_555
C27 C26 1_555 1_555
H26 C27 1_555 1_555
C28 C27 1_555 1_555
H27 C28 1_555 1_555
C29 C28 1_555 1_555
C30 C29 1_555 1_555
H28 C30 1_555 1_555
C31 C26 1_555 1_555
H29 C31 1_555 1_555
C32 C25 1_555 1_555
H30 C32 1_555 1_555
C33 C32 1_555 1_555
H31 C33 1_555 1_555
C34 C32 1_555 1_555
C35 C34 1_555 1_555
H32 C35 1_555 1_555
H33 C35 1_555 1_555
C36 C35 1_555 1_555
H34 C36 1_555 1_555
H35 C36 1_555 1_555
C37 C36 1_555 1_555
H36 C37 1_555 1_555
H37 C37 1_555 1_555
C38 C37 1_555 1_555
H38 C38 1_555 1_555
H39 C38 1_555 1_555
C39 C34 1_555 1_555
H40 C39 1_555 1_555
C40 C24 1_555 1_555
H41 C40 1_555 1_555
C41 C40 1_555 1_555
C42 C41 1_555 1_555
H42 C42 1_555 1_555
C43 C42 1_555 1_555
H43 C43 1_555 1_555
C44 C43 1_555 1_555
H44 C44 1_555 1_555
C45 C44 1_555 1_555
H45 C45 1_555 1_555
C46 C41 1_555 1_555
H46 C46 1_555 1_555
C47 H47 1_555 1_555
H48 C47 1_555 1_555
N1 C1 1_555 1_555
N2 C6 1_555 1_555
N3 C24 1_555 1_555
N4 C29 1_555 1_555
O1 N1 1_555 1_555
O2 N1 1_555 1_555
O3 N2 1_555 1_555
O4 N2 1_555 1_555
O5 C10 1_555 1_555
O6 C11 1_555 1_555
H49 O6 1_555 1_555
O7 N3 1_555 1_555
O8 N3 1_555 1_555
O9 N4 1_555 1_555
O10 N4 1_555 1_555
O11 C33 1_555 1_555
O12 C34 1_555 1_555
H50 O12 1_555 1_555
Cl1 C47 1_555 1_555
Cl2 C47 1_555 1_555
C7 C8 1_555 1_555
C15 C16 1_555 1_555
C16 C17 1_555 1_555
C22 C23 1_555 1_555
C30 C31 1_555 1_555
C38 C39 1_555 1_555
C39 C40 1_555 1_555
C45 C46 1_555 1_555

#END
