
#######################################################################
#
#                 Cambridge Crystallographic Data Centre
#                                CCDC 
#
#######################################################################
#
# If this CIF has been generated from an entry in the Cambridge 
# Structural Database, then it will include bibliographic, chemical, 
# crystal, experimental, refinement or atomic coordinate data resulting 
# from the CCDC's data processing and validation procedures.
#
#######################################################################

data_IVALUN
_chemical_formula_moiety         'C18 H20 O7'
_chemical_name_systematic        
'Ethyl 3-(3,5-dimethoxyphenyl)-4-oxo-1,6-dihydro-3H-furo[3,4-c]pyran-3a(4H)-carboxylate'
_symmetry_cell_setting           triclinic
_symmetry_space_group_name_H-M   'P -1'
_symmetry_Int_Tables_number      2
_space_group_name_Hall           '-P 1'
loop_
_symmetry_equiv_pos_site_id
_symmetry_equiv_pos_as_xyz
1 x,y,z
2 -x,-y,-z
_cell_length_a                   9.256(3)
_cell_length_b                   9.421(3)
_cell_length_c                   11.816(4)
_cell_angle_alpha                90.596(5)
_cell_angle_beta                 108.248(4)
_cell_angle_gamma                117.729(4)
_cell_volume                     851.105
_exptl_crystal_colour            colorless
_exptl_crystal_description       block
_cell_formula_units_Z            2
loop_
_atom_site_label
_atom_site_type_symbol
_atom_site_fract_x
_atom_site_fract_y
_atom_site_fract_z
O1 O 0.2873(3) 1.0590(3) 0.4049(2)
O2 O 0.0996(3) 0.6456(3) 0.0940(2)
O3 O 0.3686(4) 0.7402(3) 0.2177(3)
O4 O 0.1881(4) 1.1087(3) 0.1225(2)
O5 O 0.3251(3) 0.9989(3) 0.0607(2)
O6 O 0.9374(3) 1.2085(3) 0.3130(3)
O7 O 0.7641(4) 1.5930(3) 0.3795(3)
C1 C 0.3765(4) 1.0050(4) 0.3514(3)
H1 H 0.4040 0.9302 0.3988
C2 C 0.1080(5) 0.9360(4) 0.3680(3)
H2 H 0.0339 0.9846 0.3602
H3 H 0.0899 0.8637 0.4262
C3 C 0.0690(4) 0.8453(4) 0.2476(3)
C4 C -0.0751(5) 0.7229(4) 0.1686(3)
H4 H -0.1814 0.6812 0.1799
C5 C -0.0615(5) 0.6543(5) 0.0617(4)
H5 H -0.1612 0.5458 0.0273
H6 H -0.0640 0.7220 0.0006
C6 C 0.2456(5) 0.7603(4) 0.1802(3)
C7 C 0.2362(4) 0.9060(4) 0.2241(3)
C8 C 0.2452(4) 1.0181(4) 0.1301(3)
C9 C 0.3452(6) 1.0980(5) -0.0325(3)
H7 H 0.2381 1.1017 -0.0711
H8 H 0.3654 1.0483 -0.0940
C10 C 0.4929(7) 1.2664(6) 0.0186(4)
H9 H 0.4638 1.3225 0.0683
H10 H 0.5151 1.3233 -0.0463
H11 H 0.5955 1.2626 0.0668
C11 C 0.5436(4) 1.1471(4) 0.3535(3)
C12 C 0.6703(4) 1.1197(4) 0.3369(3)
H12 H 0.6532 1.0142 0.3284
C13 C 0.8215(4) 1.2477(4) 0.3329(3)
C14 C 0.8505(5) 1.4058(4) 0.3477(3)
H13 H 0.9533 1.4929 0.3460
C15 C 0.7223(5) 1.4314(4) 0.3652(3)
C16 C 0.5683(4) 1.3051(4) 0.3674(3)
H14 H 0.4830 1.3244 0.3777
C17 C 1.0839(6) 1.3310(5) 0.2918(5)
H15 H 1.0451 1.3774 0.2248
H16 H 1.1481 1.2841 0.2732
H17 H 1.1579 1.4148 0.3629
C18 C 0.6337(6) 1.6294(5) 0.3804(5)
H18 H 0.5327 1.5702 0.3080
H19 H 0.6768 1.7443 0.3837
H20 H 0.6025 1.5984 0.4500
loop_
_geom_bond_atom_site_label_1
_geom_bond_atom_site_label_2
_geom_bond_site_symmetry_1
_geom_bond_site_symmetry_2
O1 C1 1_555 1_555
O2 C5 1_555 1_555
O3 C6 1_555 1_555
O4 C8 1_555 1_555
O5 C8 1_555 1_555
O6 C13 1_555 1_555
O7 C15 1_555 1_555
C1 H1 1_555 1_555
C2 O1 1_555 1_555
H2 C2 1_555 1_555
H3 C2 1_555 1_555
C3 C2 1_555 1_555
C4 C3 1_555 1_555
H4 C4 1_555 1_555
C5 C4 1_555 1_555
H5 C5 1_555 1_555
H6 C5 1_555 1_555
C6 O2 1_555 1_555
C7 C1 1_555 1_555
C8 C7 1_555 1_555
C9 O5 1_555 1_555
H7 C9 1_555 1_555
H8 C9 1_555 1_555
C10 C9 1_555 1_555
H9 C10 1_555 1_555
H10 C10 1_555 1_555
H11 C10 1_555 1_555
C11 C1 1_555 1_555
C12 C11 1_555 1_555
H12 C12 1_555 1_555
C13 C12 1_555 1_555
C14 C13 1_555 1_555
H13 C14 1_555 1_555
C15 C14 1_555 1_555
C16 C11 1_555 1_555
H14 C16 1_555 1_555
C17 O6 1_555 1_555
H15 C17 1_555 1_555
H16 C17 1_555 1_555
H17 C17 1_555 1_555
C18 O7 1_555 1_555
H18 C18 1_555 1_555
H19 C18 1_555 1_555
H20 C18 1_555 1_555
C3 C7 1_555 1_555
C6 C7 1_555 1_555
C15 C16 1_555 1_555

#END
