
#######################################################################
#
#                 Cambridge Crystallographic Data Centre
#                                CCDC 
#
#######################################################################
#
# If this CIF has been generated from an entry in the Cambridge 
# Structural Database, then it will include bibliographic, chemical, 
# crystal, experimental, refinement or atomic coordinate data resulting 
# from the CCDC's data processing and validation procedures.
#
#######################################################################

data_IVAMEY
_chemical_formula_moiety         'C26 H43 N1 O1,C1 H1 Cl3'
_chemical_name_systematic        
'17-(1-(Piperidin-2-yl)ethyl)androst-5-en-3-ol chloroform solvate'
_symmetry_cell_setting           orthorhombic
_symmetry_space_group_name_H-M   'P 21 21 21'
_symmetry_Int_Tables_number      19
_space_group_name_Hall           'P 2ac 2ab'
loop_
_symmetry_equiv_pos_site_id
_symmetry_equiv_pos_as_xyz
1 x,y,z
2 1/2-x,-y,1/2+z
3 1/2+x,1/2-y,-z
4 -x,1/2+y,1/2-z
_cell_length_a                   7.3450(2)
_cell_length_b                   14.1260(4)
_cell_length_c                   26.1680(8)
_cell_angle_alpha                90
_cell_angle_beta                 90
_cell_angle_gamma                90
_cell_volume                     2715.07
_exptl_crystal_colour            colorless
_exptl_crystal_description       needle
_cell_formula_units_Z            4
loop_
_atom_site_label
_atom_site_type_symbol
_atom_site_fract_x
_atom_site_fract_y
_atom_site_fract_z
C1 C 1.0757(7) 0.3143(3) 1.19912(16)
H1 H 1.0735 0.3604 1.2276
H2 H 1.2017 0.3119 1.1857
C2 C 1.0248(8) 0.2163(3) 1.21991(16)
H3 H 1.1170 0.1955 1.2451
H4 H 0.9054 0.2196 1.2374
C3 C 1.0153(7) 0.1454(3) 1.17631(16)
H5 H 1.1380 0.1368 1.1614
H6 H 0.9734 0.0834 1.1895
C4 C 0.8849(7) 0.1801(3) 1.13537(16)
H7 H 0.7599 0.1823 1.1495
H8 H 0.8854 0.1351 1.1063
C5 C 0.9391(6) 0.2792(3) 1.11618(15)
H9 H 1.0638 0.2731 1.1012
C6 C 0.8151(6) 0.3172(3) 1.07334(15)
H10 H 0.8101 0.2673 1.0463
C7 C 0.6176(7) 0.3332(3) 1.09193(17)
H11 H 0.6135 0.3888 1.1143
H12 H 0.5762 0.2774 1.1109
H13 H 0.5380 0.3434 1.0624
C8 C 0.8981(6) 0.4061(3) 1.04847(14)
H14 H 0.9098 0.4547 1.0761
C9 C 1.0931(7) 0.3876(3) 1.02771(16)
H15 H 1.1847 0.4006 1.0546
H16 H 1.1057 0.3208 1.0168
C10 C 1.1212(7) 0.4542(3) 0.98207(17)
H17 H 1.2356 0.4907 0.9857
H18 H 1.1247 0.4184 0.9496
C11 C 0.9555(6) 0.5194(3) 0.98415(15)
H19 H 0.9794 0.5650 1.0126
C12 C 0.9139(6) 0.5797(3) 0.93730(15)
H20 H 0.8890 0.5372 0.9075
C13 C 1.0778(6) 0.6438(3) 0.92465(16)
H21 H 1.1329 0.6664 0.9570
H22 H 1.1706 0.6061 0.9063
C14 C 1.0273(7) 0.7276(3) 0.89264(16)
H23 H 1.1242 0.7646 0.8793
C15 C 0.8592(6) 0.7547(3) 0.88124(15)
C16 C 0.8267(6) 0.8389(3) 0.84655(16)
H24 H 0.9427 0.8735 0.8420
H25 H 0.7875 0.8157 0.8126
C17 C 0.6843(7) 0.9067(3) 0.86696(16)
H26 H 0.7289 0.9346 0.8998
C18 C 0.5110(6) 0.8531(3) 0.87700(15)
H27 H 0.4654 0.8254 0.8447
H28 H 0.4171 0.8970 0.8903
C19 C 0.5451(7) 0.7738(3) 0.91617(15)
H29 H 0.5824 0.8030 0.9489
H30 H 0.4292 0.7398 0.9222
C20 C 0.6905(6) 0.7016(3) 0.90034(15)
C21 C 0.6137(7) 0.6400(3) 0.85653(15)
H31 H 0.6966 0.5871 0.8499
H32 H 0.6018 0.6786 0.8256
H33 H 0.4939 0.6154 0.8663
C22 C 0.7444(5) 0.6414(3) 0.94770(15)
H34 H 0.7799 0.6874 0.9750
C23 C 0.5866(6) 0.5822(3) 0.96972(16)
H35 H 0.4873 0.6255 0.9801
H36 H 0.5385 0.5406 0.9424
C24 C 0.6397(6) 0.5211(3) 1.01554(15)
H37 H 0.5339 0.4823 1.0261
H38 H 0.6733 0.5625 1.0446
C25 C 0.8012(6) 0.4553(3) 1.00274(14)
C26 C 0.7444(7) 0.3815(3) 0.96237(16)
H39 H 0.6320 0.3501 0.9733
H40 H 0.8412 0.3343 0.9585
H41 H 0.7237 0.4132 0.9296
O1 O 0.6631(5) 0.9804(2) 0.83036(12)
N1 N 0.9531(6) 0.3481(2) 1.15811(13)
H43 H 0.821(9) 0.351(4) 1.169(2)
H44 H 0.581(7) 1.018(3) 0.8390(16)
C27 C 1.0101(9) 0.5355(4) 0.7435(2)
H42 H 1.1044 0.5231 0.7168
Cl1 Cl 1.0838(4) 0.4894(2) 0.80163(7)
Cl2 Cl 0.8041(2) 0.48502(10) 0.72446(6)
Cl3 Cl 0.9758(3) 0.66055(12) 0.74941(7)
loop_
_geom_bond_atom_site_label_1
_geom_bond_atom_site_label_2
_geom_bond_site_symmetry_1
_geom_bond_site_symmetry_2
C1 H1 1_555 1_555
H2 C1 1_555 1_555
C2 C1 1_555 1_555
H3 C2 1_555 1_555
H4 C2 1_555 1_555
C3 C2 1_555 1_555
H5 C3 1_555 1_555
H6 C3 1_555 1_555
C4 C3 1_555 1_555
H7 C4 1_555 1_555
H8 C4 1_555 1_555
C5 C4 1_555 1_555
H9 C5 1_555 1_555
C6 C5 1_555 1_555
H10 C6 1_555 1_555
C7 C6 1_555 1_555
H11 C7 1_555 1_555
H12 C7 1_555 1_555
H13 C7 1_555 1_555
C8 C6 1_555 1_555
H14 C8 1_555 1_555
C9 C8 1_555 1_555
H15 C9 1_555 1_555
H16 C9 1_555 1_555
C10 C9 1_555 1_555
H17 C10 1_555 1_555
H18 C10 1_555 1_555
C11 C10 1_555 1_555
H19 C11 1_555 1_555
C12 C11 1_555 1_555
H20 C12 1_555 1_555
C13 C12 1_555 1_555
H21 C13 1_555 1_555
H22 C13 1_555 1_555
C14 C13 1_555 1_555
H23 C14 1_555 1_555
C15 C14 1_555 1_555
C16 C15 1_555 1_555
H24 C16 1_555 1_555
H25 C16 1_555 1_555
C17 C16 1_555 1_555
H26 C17 1_555 1_555
C18 C17 1_555 1_555
H27 C18 1_555 1_555
H28 C18 1_555 1_555
C19 C18 1_555 1_555
H29 C19 1_555 1_555
H30 C19 1_555 1_555
C20 C15 1_555 1_555
C21 C20 1_555 1_555
H31 C21 1_555 1_555
H32 C21 1_555 1_555
H33 C21 1_555 1_555
C22 C12 1_555 1_555
H34 C22 1_555 1_555
C23 C22 1_555 1_555
H35 C23 1_555 1_555
H36 C23 1_555 1_555
C24 C23 1_555 1_555
H37 C24 1_555 1_555
H38 C24 1_555 1_555
C25 C8 1_555 1_555
C26 C25 1_555 1_555
H39 C26 1_555 1_555
H40 C26 1_555 1_555
H41 C26 1_555 1_555
C27 H42 1_555 1_555
O1 C17 1_555 1_555
N1 C1 1_555 1_555
Cl1 C27 1_555 1_555
Cl2 C27 1_555 1_555
Cl3 C27 1_555 1_555
H43 N1 1_555 1_555
H44 O1 1_555 1_555
C5 N1 1_555 1_555
C11 C25 1_555 1_555
C19 C20 1_555 1_555
C20 C22 1_555 1_555
C24 C25 1_555 1_555

#END
