
#######################################################################
#
#                 Cambridge Crystallographic Data Centre
#                                CCDC 
#
#######################################################################
#
# If this CIF has been generated from an entry in the Cambridge 
# Structural Database, then it will include bibliographic, chemical, 
# crystal, experimental, refinement or atomic coordinate data resulting 
# from the CCDC's data processing and validation procedures.
#
#######################################################################

data_IVAMOI
_chemical_formula_moiety         'C24 H25 N3 O5'
_chemical_name_systematic        
5-(2-(2-Hydroxyethoxy)ethyl)-2,6-bis(4-methoxyphenyl)pyrazolo[1,5-a]pyrazin-4(5H)-one
_symmetry_cell_setting           triclinic
_symmetry_space_group_name_H-M   'P -1'
_symmetry_Int_Tables_number      2
_space_group_name_Hall           '-P 1'
loop_
_symmetry_equiv_pos_site_id
_symmetry_equiv_pos_as_xyz
1 x,y,z
2 -x,-y,-z
_cell_length_a                   8.4452(17)
_cell_length_b                   9.2982(19)
_cell_length_c                   15.015(3)
_cell_angle_alpha                79.952(3)
_cell_angle_beta                 81.120(3)
_cell_angle_gamma                72.914(4)
_cell_volume                     1103.05
_exptl_crystal_colour            colorless
_exptl_crystal_description       block
_cell_formula_units_Z            2
loop_
_atom_site_label
_atom_site_type_symbol
_atom_site_fract_x
_atom_site_fract_y
_atom_site_fract_z
O1 O 0.0378(3) 0.7702(2) 0.10498(12)
O2 O 0.5106(2) -0.20963(19) 0.19383(13)
O3 O 0.2152(3) 0.5097(2) 0.34018(12)
N1 N 0.2264(3) 0.5829(2) -0.08734(13)
N2 N 0.1801(3) 0.5215(2) 0.09758(13)
N3 N 0.2406(3) 0.6291(2) -0.17805(14)
C1 C 0.4559(3) -0.0581(3) 0.16115(16)
C2 C 0.1678(3) 0.7801(3) -0.18610(16)
C3 C 0.2879(4) 0.4366(3) -0.04636(18)
C4 C 0.1175(3) 0.6706(3) 0.05891(16)
C5 C 0.3310(3) 0.2452(3) 0.08733(16)
C6 C 0.2664(3) 0.4042(3) 0.04433(16)
O4 O 0.1701(3) 1.1544(2) -0.52367(13)
C7 C 0.4422(4) 0.2040(3) 0.15189(19)
C8 C 0.1428(4) 0.4914(3) 0.19709(17)
C9 C 0.1641(3) 0.8738(3) -0.27600(16)
C10 C 0.1491(3) 0.7007(3) -0.03943(16)
C11 C 0.2876(3) 0.1293(3) 0.05833(18)
C12 C 0.5049(4) 0.0539(3) 0.18928(18)
C13 C 0.1109(3) 0.8296(3) -0.10116(17)
C14 C 0.2548(4) 0.5460(4) 0.24518(19)
C15 C 0.3472(4) -0.0200(3) 0.09530(19)
H1 H 0.3144 -0.0954 0.0759
O5 O 0.3446(5) 0.3590(3) 0.51422(19)
C16 C 0.0817(4) 1.0274(3) -0.28545(19)
C17 C 0.0863(4) 1.1170(3) -0.3686(2)
C18 C 0.6345(5) -0.2549(4) 0.2554(3)
C19 C 0.2508(4) 0.8130(3) -0.35339(19)
C20 C 0.1713(4) 1.0543(3) -0.44431(18)
C21 C 0.3092(5) 0.5649(4) 0.3909(2)
C22 C 0.2539(5) 0.9024(4) -0.4372(2)
C23 C 0.2714(6) 0.5148(4) 0.4897(2)
C24 C 0.2525(6) 1.0951(5) -0.6057(2)
H2 H 0.2422 1.1763 -0.6555
H3 H 0.2021 1.0213 -0.6176
H4 H 0.3682 1.0479 -0.5989
H5 H 0.022(3) 0.541(3) 0.2122(17)
H6 H 0.481(4) 0.276(3) 0.171(2)
H7 H 0.142(5) 0.543(4) 0.511(3)
H8 H 0.339(3) 0.366(3) -0.0820(19)
H9 H 0.211(3) 0.155(3) 0.0089(19)
H10 H 0.586(3) 0.030(3) 0.233(2)
H11 H 0.389(4) 0.486(4) 0.230(2)
H12 H 0.151(3) 0.383(3) 0.2123(18)
H13 H 0.057(3) 0.926(4) -0.086(2)
H14 H 0.312(4) 0.709(4) -0.349(2)
H15 H 0.225(4) 0.657(4) 0.227(2)
H16 H 0.326(4) 0.857(4) -0.486(2)
H17 H 0.033(4) 1.225(4) -0.376(2)
H18 H 0.337(4) 0.560(4) 0.520(3)
H19 H 0.031(4) 1.068(4) -0.234(2)
H20 H 0.441(4) 0.524(4) 0.372(2)
H21 H 0.598(4) -0.212(4) 0.308(3)
H22 H 0.654(4) -0.366(4) 0.269(2)
H23 H 0.743(5) -0.220(4) 0.231(2)
H24 H 0.278(5) 0.673(5) 0.379(3)
H25 H 0.284(8) 0.321(7) 0.498(4)
loop_
_geom_bond_atom_site_label_1
_geom_bond_atom_site_label_2
_geom_bond_site_symmetry_1
_geom_bond_site_symmetry_2
O1 C4 1_555 1_555
O2 C1 1_555 1_555
O3 C14 1_555 1_555
N1 N3 1_555 1_555
N2 C4 1_555 1_555
N3 C2 1_555 1_555
C1 C12 1_555 1_555
C2 C9 1_555 1_555
C3 N1 1_555 1_555
C4 C10 1_555 1_555
C5 C6 1_555 1_555
C6 N2 1_555 1_555
O4 C20 1_555 1_555
C7 C5 1_555 1_555
C8 N2 1_555 1_555
C9 C16 1_555 1_555
C10 N1 1_555 1_555
C11 C5 1_555 1_555
C12 C7 1_555 1_555
C13 C2 1_555 1_555
C14 C8 1_555 1_555
C15 C1 1_555 1_555
H1 C15 1_555 1_555
O5 C23 1_555 1_555
C16 C17 1_555 1_555
C17 C20 1_555 1_555
C18 O2 1_555 1_555
C19 C9 1_555 1_555
C20 C22 1_555 1_555
C21 O3 1_555 1_555
C22 C19 1_555 1_555
C23 C21 1_555 1_555
C24 O4 1_555 1_555
H2 C24 1_555 1_555
H3 C24 1_555 1_555
H4 C24 1_555 1_555
H5 C8 1_555 1_555
H6 C7 1_555 1_555
H7 C23 1_555 1_555
H8 C3 1_555 1_555
H9 C11 1_555 1_555
H10 C12 1_555 1_555
H11 C14 1_555 1_555
H12 C8 1_555 1_555
H13 C13 1_555 1_555
H14 C19 1_555 1_555
H15 C14 1_555 1_555
H16 C22 1_555 1_555
H17 C17 1_555 1_555
H18 C23 1_555 1_555
H19 C16 1_555 1_555
H20 C21 1_555 1_555
H21 C18 1_555 1_555
H22 C18 1_555 1_555
H23 C18 1_555 1_555
H24 C21 1_555 1_555
H25 O5 1_555 1_555
C3 C6 1_555 1_555
C10 C13 1_555 1_555
C11 C15 1_555 1_555

#END
