
#######################################################################
#
#                 Cambridge Crystallographic Data Centre
#                                CCDC 
#
#######################################################################
#
# If this CIF has been generated from an entry in the Cambridge 
# Structural Database, then it will include bibliographic, chemical, 
# crystal, experimental, refinement or atomic coordinate data resulting 
# from the CCDC's data processing and validation procedures.
#
#######################################################################

data_IVANAW
_chemical_formula_moiety         'C43 H41 B1 F12 N1 O2 P1 S1,C1 H2 Cl2'
_chemical_name_systematic        
'bis(3,5-bis(trifluoromethyl)phenyl)(2-(dimesitylphosphonio)ethyl)(4-methylbenzenesulfonamidato)boron dichloromethane solvate'
_symmetry_cell_setting           triclinic
_symmetry_space_group_name_H-M   'P -1'
_symmetry_Int_Tables_number      2
_space_group_name_Hall           '-P 1'
loop_
_symmetry_equiv_pos_site_id
_symmetry_equiv_pos_as_xyz
1 x,y,z
2 -x,-y,-z
_cell_length_a                   8.2503(3)
_cell_length_b                   11.9048(4)
_cell_length_c                   24.2942(8)
_cell_angle_alpha                99.429(2)
_cell_angle_beta                 92.316(2)
_cell_angle_gamma                101.020(2)
_cell_volume                     2304.14
_exptl_crystal_colour            colorless
_exptl_crystal_description       plate
_cell_formula_units_Z            2
loop_
_atom_site_label
_atom_site_type_symbol
_atom_site_fract_x
_atom_site_fract_y
_atom_site_fract_z
P1 P 0.25540(8) 0.38562(6) 0.20513(2)
H1 H 0.142(3) 0.425(2) 0.2281(12)
S1 S 0.85072(8) 0.56506(6) 0.25716(2)
B1 B 0.5967(3) 0.6991(3) 0.26610(11)
N1 N 0.7631(3) 0.6665(2) 0.24370(8)
H2 H 0.835(4) 0.721(3) 0.2383(12)
O1 O 1.0205(2) 0.59150(18) 0.24229(8)
O2 O 0.7528(2) 0.45352(17) 0.23160(7)
C1 C 0.4083(3) 0.5151(2) 0.20358(10)
H3 H 0.5082 0.4939 0.187
H4 H 0.3635 0.5645 0.1802
C2 C 0.4542(3) 0.5826(2) 0.26356(10)
H5 H 0.494 0.5312 0.2869
H6 H 0.3539 0.6049 0.2794
F1 F 0.75488(19) 0.87660(16) 0.08414(6)
F2 F 0.5312(2) 0.76607(16) 0.04307(6)
F3 F 0.5510(2) 0.95149(15) 0.05985(6)
F4 F 0.0204(2) 0.83600(16) 0.18807(8)
F5 F 0.1389(2) 1.01253(16) 0.19224(9)
F6 F 0.1290(2) 0.9362(2) 0.26666(8)
F7 F 1.1002(2) 0.9886(2) 0.40695(10)
F8 F 0.9687(3) 1.09578(18) 0.36841(9)
F9 F 0.9643(3) 1.0966(2) 0.45666(9)
C3 C 0.1531(3) 0.3051(2) 0.13907(10)
C4 C 0.0018(3) 0.2287(2) 0.14304(10)
C5 C -0.0879(3) 0.1685(3) 0.09387(11)
H7 H -0.1899 0.1173 0.0962
C6 C -0.0333(3) 0.1806(3) 0.04136(11)
C7 C 0.1153(3) 0.2558(2) 0.03872(11)
H8 H 0.153 0.2648 0.003
C8 C 0.2120(3) 0.3188(2) 0.08609(10)
C9 C -0.0678(3) 0.2100(2) 0.19820(11)
H9 H -0.1126 0.2776 0.2143
H10 H 0.0203 0.1997 0.2241
H11 H -0.1563 0.1404 0.192
C10 C -0.1327(4) 0.1131(3) -0.01117(12)
H12 H -0.2326 0.1444 -0.0167
H13 H -0.1643 0.0311 -0.0077
H14 H -0.0657 0.12 -0.0433
C11 C 0.3727(3) 0.3964(3) 0.07692(10)
H15 H 0.3918 0.384 0.037
H16 H 0.4641 0.3775 0.0983
H17 H 0.3663 0.4778 0.0895
C12 C 0.3325(3) 0.2962(2) 0.24911(10)
C13 C 0.4415(3) 0.2243(2) 0.22843(10)
C14 C 0.5009(3) 0.1585(2) 0.26421(11)
H18 H 0.5751 0.1101 0.2508
C15 C 0.4554(3) 0.1612(2) 0.31862(11)
C16 C 0.3489(3) 0.2333(2) 0.33815(11)
H19 H 0.3182 0.2362 0.3756
C17 C 0.2853(3) 0.3015(2) 0.30469(10)
C18 C 0.4951(3) 0.2154(2) 0.16987(11)
H20 H 0.5599 0.1542 0.1629
H21 H 0.5633 0.2898 0.1652
H22 H 0.3973 0.1964 0.1433
C19 C 0.5189(4) 0.0863(3) 0.35548(13)
H23 H 0.6058 0.1346 0.3827
H24 H 0.5644 0.026 0.3324
H25 H 0.4278 0.0498 0.3753
C20 C 0.1682(4) 0.3761(3) 0.33034(11)
H26 H 0.1585 0.3682 0.3697
H27 H 0.0589 0.3505 0.31
H28 H 0.2115 0.4576 0.328
C21 C 0.5287(3) 0.7777(2) 0.22445(10)
C22 C 0.5944(3) 0.7947(2) 0.17361(10)
H29 H 0.6913 0.7665 0.1637
C23 C 0.5204(3) 0.8524(2) 0.13714(10)
C24 C 0.3787(3) 0.8945(2) 0.14974(10)
H30 H 0.3288 0.9337 0.1247
C25 C 0.3117(3) 0.8780(2) 0.19993(10)
C26 C 0.3858(3) 0.8214(2) 0.23652(10)
H31 H 0.338 0.812 0.2708
C27 C 0.5895(3) 0.8619(3) 0.08141(10)
C28 C 0.1523(3) 0.9162(3) 0.21197(12)
C29 C 0.6360(3) 0.7734(2) 0.32977(10)
C30 C 0.7690(3) 0.8679(2) 0.34262(11)
H32 H 0.8341 0.8899 0.3133
C31 C 0.8103(3) 0.9310(3) 0.39646(11)
C32 C 0.7175(3) 0.9020(3) 0.44023(11)
H33 H 0.7452 0.9443 0.4772
C33 C 0.5834(3) 0.8099(3) 0.42870(11)
C34 C 0.5439(3) 0.7469(2) 0.37477(10)
H34 H 0.4514 0.6838 0.3683
C35 C 0.9589(4) 1.0274(3) 0.40722(13)
C36 C 0.4794(4) 0.7788(3) 0.47523(11)
F10 F 0.3606(13) 0.8376(11) 0.4837(6)
F11 F 0.5744(13) 0.7999(16) 0.5233(3)
F12 F 0.411(2) 0.6666(6) 0.4674(5)
C37 C 0.8550(3) 0.5668(2) 0.33055(11)
C38 C 0.9602(4) 0.6573(3) 0.36610(12)
H35 H 1.0344 0.7141 0.3512
C39 C 0.9555(4) 0.6635(3) 0.42338(12)
H36 H 1.0264 0.7256 0.4477
C40 C 0.8491(4) 0.5807(3) 0.44595(12)
C41 C 0.7473(4) 0.4892(3) 0.40953(12)
H37 H 0.6751 0.4312 0.4244
C42 C 0.7499(4) 0.4815(3) 0.35197(12)
H38 H 0.6806 0.4186 0.3275
C43 C 0.8417(5) 0.5903(4) 0.50851(13)
H39 H 0.7444 0.6216 0.5201
H40 H 0.9421 0.6424 0.5274
H41 H 0.8337 0.5132 0.5187
C44 C 0.9511(6) 0.5265(6) 0.0964(2)
H42 H 0.9474 0.4443 0.0797
H43 H 0.9653 0.5335 0.1376
Cl1 Cl 0.76294(10) 0.56401(10) 0.07856(4)
Cl2 Cl 1.12183(14) 0.61446(11) 0.07354(11)
F13? F 0.396(3) 0.8626(18) 0.4938(9)
F14? F 0.557(2) 0.7624(19) 0.5211(6)
F15? F 0.360(3) 0.6848(19) 0.4598(8)
C45? C 0.930(5) 0.517(5) 0.106(2)
H44? H 0.9665 0.4434 0.1081
H45? H 0.8752 0.5387 0.1404
Cl3? Cl 1.1062(11) 0.6260(8) 0.1037(4)
Cl4? Cl 0.786(2) 0.494(2) 0.0482(9)
loop_
_geom_bond_atom_site_label_1
_geom_bond_atom_site_label_2
_geom_bond_site_symmetry_1
_geom_bond_site_symmetry_2
P1 H1 1_555 1_555
S1 N1 1_555 1_555
B1 N1 1_555 1_555
N1 H2 1_555 1_555
O1 S1 1_555 1_555
O2 S1 1_555 1_555
C1 P1 1_555 1_555
H3 C1 1_555 1_555
H4 C1 1_555 1_555
C2 B1 1_555 1_555
H5 C2 1_555 1_555
H6 C2 1_555 1_555
F1 C27 1_555 1_555
F2 C27 1_555 1_555
F3 C27 1_555 1_555
F4 C28 1_555 1_555
F5 C28 1_555 1_555
F6 C28 1_555 1_555
F7 C35 1_555 1_555
F8 C35 1_555 1_555
F9 C35 1_555 1_555
C3 P1 1_555 1_555
C4 C3 1_555 1_555
C5 C4 1_555 1_555
H7 C5 1_555 1_555
C6 C5 1_555 1_555
C7 C6 1_555 1_555
H8 C7 1_555 1_555
C8 C3 1_555 1_555
C9 C4 1_555 1_555
H9 C9 1_555 1_555
H10 C9 1_555 1_555
H11 C9 1_555 1_555
C10 C6 1_555 1_555
H12 C10 1_555 1_555
H13 C10 1_555 1_555
H14 C10 1_555 1_555
C11 C8 1_555 1_555
H15 C11 1_555 1_555
H16 C11 1_555 1_555
H17 C11 1_555 1_555
C12 P1 1_555 1_555
C13 C12 1_555 1_555
C14 C13 1_555 1_555
H18 C14 1_555 1_555
C15 C14 1_555 1_555
C16 C15 1_555 1_555
H19 C16 1_555 1_555
C17 C12 1_555 1_555
C18 C13 1_555 1_555
H20 C18 1_555 1_555
H21 C18 1_555 1_555
H22 C18 1_555 1_555
C19 C15 1_555 1_555
H23 C19 1_555 1_555
H24 C19 1_555 1_555
H25 C19 1_555 1_555
C20 C17 1_555 1_555
H26 C20 1_555 1_555
H27 C20 1_555 1_555
H28 C20 1_555 1_555
C21 B1 1_555 1_555
C22 C21 1_555 1_555
H29 C22 1_555 1_555
C23 C22 1_555 1_555
C24 C23 1_555 1_555
H30 C24 1_555 1_555
C25 C24 1_555 1_555
C26 C21 1_555 1_555
H31 C26 1_555 1_555
C27 C23 1_555 1_555
C28 C25 1_555 1_555
C29 B1 1_555 1_555
C30 C29 1_555 1_555
H32 C30 1_555 1_555
C31 C30 1_555 1_555
C32 C31 1_555 1_555
H33 C32 1_555 1_555
C33 C32 1_555 1_555
C34 C29 1_555 1_555
H34 C34 1_555 1_555
C35 C31 1_555 1_555
C36 C33 1_555 1_555
F10 C36 1_555 1_555
F11 C36 1_555 1_555
F12 C36 1_555 1_555
C37 S1 1_555 1_555
C38 C37 1_555 1_555
H35 C38 1_555 1_555
C39 C38 1_555 1_555
H36 C39 1_555 1_555
C40 C39 1_555 1_555
C41 C40 1_555 1_555
H37 C41 1_555 1_555
C42 C37 1_555 1_555
H38 C42 1_555 1_555
C43 C40 1_555 1_555
H39 C43 1_555 1_555
H40 C43 1_555 1_555
H41 C43 1_555 1_555
C44 H42 1_555 1_555
H43 C44 1_555 1_555
Cl1 C44 1_555 1_555
Cl2 C44 1_555 1_555
C1 C2 1_555 1_555
C7 C8 1_555 1_555
C16 C17 1_555 1_555
C25 C26 1_555 1_555
C33 C34 1_555 1_555
C41 C42 1_555 1_555

#END
