
#######################################################################
#
#                 Cambridge Crystallographic Data Centre
#                                CCDC 
#
#######################################################################
#
# If this CIF has been generated from an entry in the Cambridge 
# Structural Database, then it will include bibliographic, chemical, 
# crystal, experimental, refinement or atomic coordinate data resulting 
# from the CCDC's data processing and validation procedures.
#
#######################################################################

data_IVANOK
_chemical_formula_moiety         
'C49 H33 B2 F22 O1 P1,C48 H33 B2 F22 O1 P1,2(C1 H2 Cl2)'
_chemical_name_systematic        
'2,2-bis(3,5-bis(trifluoromethyl)phenyl)-7,7-bis(pentafluorophenyl)-5,5-bis(2,4,6-trimethylphenyl)-1-oxa-5-phospha-2,7-diboratabicyclo[4.1.0]heptane-1,5-diium (bis(pentafluorophenyl)borinato)bis(3,5-bis(trifluoromethyl)phenyl)(2-(bis(2,4,6-trimethylphenyl)phosphaniumyl)ethyl)borate dichloromethane solvate'
_symmetry_cell_setting           monoclinic
_symmetry_space_group_name_H-M   'P 21/c'
_symmetry_Int_Tables_number      14
_space_group_name_Hall           '-P 2ybc'
loop_
_symmetry_equiv_pos_site_id
_symmetry_equiv_pos_as_xyz
1 x,y,z
2 -x,1/2+y,1/2-z
3 -x,-y,-z
4 x,1/2-y,1/2+z
_cell_length_a                   22.3941(9)
_cell_length_b                   25.7775(10)
_cell_length_c                   17.8212(7)
_cell_angle_alpha                90
_cell_angle_beta                 105.6700(10)
_cell_angle_gamma                90
_cell_volume                     9905.18
_exptl_crystal_colour            colorless
_exptl_crystal_description       prism
_cell_formula_units_Z            4
loop_
_atom_site_label
_atom_site_type_symbol
_atom_site_fract_x
_atom_site_fract_y
_atom_site_fract_z
P1 P -0.06772(3) 0.34876(3) 0.21413(4)
B1 B 0.02110(14) 0.29525(12) 0.12961(17)
B2 B -0.04449(14) 0.21904(12) 0.20731(17)
O1 O -0.03144(8) 0.26682(7) 0.15360(10)
C1 C -0.11867(12) 0.29481(10) 0.22358(16)
H1 H -0.1474 0.3061 0.254
H2 H -0.1437 0.2838 0.1713
C2 C -0.07878(13) 0.24896(10) 0.26515(15)
H3 H -0.1055 0.2241 0.2835
H4 H -0.047 0.262 0.3113
C3 C -0.00153(12) 0.31134(10) 0.20361(15)
H5 H 0.0275 0.3006 0.2544
F1 F -0.23715(10) 0.21779(8) -0.05813(11)
F2 F -0.15889(9) 0.19472(8) -0.09750(10)
F3 F -0.23205(9) 0.14056(7) -0.10150(10)
F4 F -0.21287(9) 0.02444(7) 0.11305(10)
F5 F -0.11710(9) 0.01842(8) 0.17629(13)
F6 F -0.18163(11) 0.05656(8) 0.22771(11)
C4 C -0.05421(12) 0.38473(10) 0.30531(15)
C5 C -0.10683(13) 0.40932(11) 0.31893(16)
C6 C -0.10186(13) 0.43134(11) 0.39164(16)
H6 H -0.1371 0.4479 0.4009
C7 C -0.04708(13) 0.42992(11) 0.45120(16)
C8 C 0.00462(13) 0.40840(11) 0.43514(16)
H7 H 0.0428 0.4088 0.4746
C9 C 0.00295(13) 0.38611(10) 0.36341(15)
C10 C -0.16919(13) 0.41463(12) 0.25919(17)
H8 H -0.1903 0.3809 0.2518
H9 H -0.163 0.4264 0.2095
H10 H -0.1946 0.44 0.2776
C11 C -0.04395(15) 0.45157(12) 0.53072(17)
H11 H -0.0527 0.4239 0.564
H12 H -0.0747 0.4793 0.5258
H13 H -0.0024 0.4656 0.554
C12 C 0.06448(13) 0.36633(12) 0.35501(16)
H14 H 0.0983 0.3867 0.3884
H15 H 0.0655 0.3697 0.3006
H16 H 0.0695 0.3298 0.3706
C13 C -0.09380(12) 0.39090(10) 0.12951(15)
C14 C -0.15056(13) 0.38495(11) 0.07066(16)
C15 C -0.16083(13) 0.41685(11) 0.00535(16)
H17 H -0.1986 0.4131 -0.0344
C16 C -0.11861(13) 0.45389(11) -0.00450(16)
C17 C -0.06484(13) 0.46048(11) 0.05568(16)
H18 H -0.0364 0.4869 0.0511
C18 C -0.05125(12) 0.42995(10) 0.12212(15)
C19 C -0.20167(13) 0.34665(13) 0.07127(17)
H19 H -0.2398 0.3569 0.0323
H20 H -0.2091 0.3463 0.123
H21 H -0.1892 0.3119 0.0589
C20 C -0.13104(15) 0.48566(12) -0.07807(17)
H22 H -0.1396 0.4625 -0.1233
H23 H -0.0946 0.507 -0.0772
H24 H -0.1669 0.5082 -0.0816
C21 C 0.00913(13) 0.44050(11) 0.18299(16)
H25 H 0.0299 0.4702 0.1668
H26 H 0.0359 0.4099 0.1887
H27 H 0.0007 0.4482 0.233
C22 C -0.09261(13) 0.18128(10) 0.14752(15)
C23 C -0.12200(13) 0.19339(11) 0.07019(16)
H28 H -0.1116 0.2248 0.0489
C24 C -0.16621(13) 0.16079(11) 0.02315(16)
C25 C -0.18207(13) 0.11412(11) 0.05114(16)
H29 H -0.2121 0.0918 0.019
C26 C -0.15248(13) 0.10102(11) 0.12785(16)
C27 C -0.10918(13) 0.13406(11) 0.17511(16)
H30 H -0.0903 0.1243 0.2276
C28 C -0.19862(15) 0.17814(12) -0.05806(17)
C29 C -0.16555(14) 0.05010(12) 0.16099(17)
C30 C 0.02040(13) 0.19013(11) 0.25090(16)
C31 C 0.04053(15) 0.14619(11) 0.21914(17)
H31 H 0.0156 0.133 0.1711
C32 C 0.09578(18) 0.12095(13) 0.2551(2)
C33 C 0.13492(16) 0.14025(13) 0.32312(18)
H32 H 0.1732 0.1237 0.347
C34 C 0.11684(14) 0.18423(11) 0.35541(16)
C35 C 0.06012(13) 0.20794(11) 0.32142(16)
H33 H 0.0479 0.237 0.3466
C36 C 0.1129(2) 0.07267(17) 0.2198(3)
F7 F 0.0993(5) 0.0772(5) 0.1410(4)
F8 F 0.0956(5) 0.0313(2) 0.2383(6)
F9 F 0.1796(2) 0.0696(3) 0.2322(4)
C37 C 0.15993(14) 0.20708(12) 0.42775(17)
F10 F 0.1546(2) 0.25854(12) 0.4326(2)
F11 F 0.21887(12) 0.19910(19) 0.43288(19)
F12 F 0.15119(16) 0.18962(16) 0.49259(14)
C38 C 0.08273(13) 0.26087(10) 0.14134(15)
C39 C 0.08455(14) 0.22250(12) 0.08760(17)
F13 F 0.03394(8) 0.21494(7) 0.02663(10)
C40 C 0.13472(15) 0.19062(12) 0.09276(18)
F14 F 0.13395(10) 0.15402(8) 0.03915(12)
C41 C 0.18668(14) 0.19678(12) 0.15483(18)
F15 F 0.23641(9) 0.16597(7) 0.16104(11)
C42 C 0.18753(13) 0.23443(12) 0.20970(16)
F16 F 0.23783(8) 0.23986(7) 0.27026(10)
C43 C 0.13634(13) 0.26579(11) 0.20179(15)
F17 F 0.13977(7) 0.30214(7) 0.25727(9)
C44 C 0.00499(13) 0.32872(10) 0.05026(15)
C45 C 0.05107(13) 0.36186(11) 0.03922(16)
F18 F 0.10469(7) 0.36663(6) 0.09665(9)
C46 C 0.04612(13) 0.39102(11) -0.02714(16)
F19 F 0.09351(8) 0.42036(7) -0.03519(10)
C47 C -0.00849(14) 0.38932(11) -0.08594(16)
F20 F -0.01518(8) 0.41858(7) -0.15001(9)
C48 C -0.05605(13) 0.35785(11) -0.07791(15)
F21 F -0.10984(8) 0.35678(6) -0.13419(9)
C49 C -0.04821(13) 0.32798(10) -0.01146(15)
F22 F -0.09647(7) 0.29763(6) -0.00869(9)
P2 P 0.44854(3) 0.19598(3) 0.75509(4)
H34 H 0.4686(15) 0.2089(13) 0.8224(19)
B3 B 0.50499(15) 0.32107(13) 0.63857(19)
B4 B 0.42401(16) 0.39452(13) 0.6437(2)
O2 O 0.44505(9) 0.35277(8) 0.61713(11)
C50 C 0.44364(13) 0.25491(11) 0.69920(16)
H35 H 0.4288 0.2463 0.6431
H36 H 0.4127 0.2782 0.7121
C51 C 0.50602(13) 0.28405(12) 0.71404(16)
H37 H 0.5405 0.2588 0.7222
H38 H 0.5126 0.3056 0.7615
C52 C 0.37626(13) 0.16329(11) 0.75239(16)
C53 C 0.37911(14) 0.12591(12) 0.81135(17)
C54 C 0.32549(15) 0.10007(12) 0.81357(19)
H39 H 0.3273 0.0754 0.8538
C55 C 0.26877(15) 0.10893(12) 0.75877(19)
C56 C 0.26727(14) 0.14595(11) 0.70193(18)
H40 H 0.2289 0.1526 0.6646
C57 C 0.31907(13) 0.17372(11) 0.69683(16)
C58 C 0.43837(16) 0.11338(14) 0.87366(19)
H41 H 0.4307 0.0846 0.9059
H42 H 0.4519 0.144 0.9065
H43 H 0.4708 0.1034 0.8489
C59 C 0.21141(16) 0.07942(14) 0.7611(2)
H44 H 0.209 0.0473 0.731
H45 H 0.1747 0.1007 0.7385
H46 H 0.2131 0.071 0.8152
C60 C 0.30908(13) 0.21377(12) 0.63228(17)
H47 H 0.2658 0.2126 0.6008
H48 H 0.3365 0.2062 0.5991
H49 H 0.3185 0.2484 0.6551
C61 C 0.50706(14) 0.15422(12) 0.73479(19)
C62 C 0.49480(14) 0.12778(12) 0.66310(19)
C63 C 0.54115(16) 0.09769(13) 0.6466(2)
H50 H 0.5327 0.0802 0.598
C64 C 0.59906(17) 0.09240(15) 0.6985(2)
C65 C 0.61012(15) 0.11799(15) 0.7689(2)
H51 H 0.6494 0.1138 0.8055
C66 C 0.56625(15) 0.14982(13) 0.7890(2)
C67 C 0.43351(15) 0.13136(13) 0.60231(19)
H52 H 0.4341 0.1087 0.5583
H53 H 0.4263 0.1673 0.5841
H54 H 0.4002 0.1204 0.6249
C68 C 0.6490(2) 0.0606(2) 0.6773(3)
H55 H 0.6665 0.0805 0.6415
H56 H 0.631 0.0283 0.6522
H57 H 0.6818 0.0525 0.7247
C69 C 0.58447(17) 0.17868(16) 0.8655(2)
H58 H 0.6278 0.1709 0.8926
H59 H 0.5577 0.1678 0.898
H60 H 0.5798 0.2161 0.8557
C70 C 0.56386(13) 0.36026(11) 0.65165(17)
C71 C 0.60450(13) 0.37208(12) 0.72391(17)
H61 H 0.6007 0.354 0.7689
C72 C 0.65058(14) 0.40980(12) 0.73178(17)
C73 C 0.65845(14) 0.43639(12) 0.66736(18)
H62 H 0.6897 0.4621 0.6727
C74 C 0.61913(14) 0.42428(13) 0.59478(18)
C75 C 0.57309(13) 0.38710(12) 0.58756(17)
H63 H 0.5469 0.3796 0.5372
C76 C 0.69296(15) 0.42117(13) 0.81072(19)
F29 F 0.6668(9) 0.4148(8) 0.8683(10)
F30 F 0.7426(5) 0.3899(5) 0.8260(8)
F31 F 0.7149(7) 0.4693(3) 0.8138(10)
C77 C 0.62685(15) 0.45191(14) 0.52382(19)
F32 F 0.66868(12) 0.42834(10) 0.49384(13)
F33 F 0.64827(17) 0.50013(9) 0.53947(15)
F34 F 0.57537(12) 0.45314(16) 0.46632(16)
C78 C 0.50117(13) 0.28238(12) 0.56480(16)
C79 C 0.44376(14) 0.27198(13) 0.51164(17)
H64 H 0.4082 0.2907 0.5157
C80 C 0.43739(15) 0.23508(14) 0.45323(17)
C81 C 0.48858(15) 0.20808(14) 0.44435(19)
H65 H 0.4843 0.1829 0.4043
C82 C 0.54621(15) 0.21860(14) 0.49525(18)
C83 C 0.55204(14) 0.25491(13) 0.55503(17)
H66 H 0.5917 0.261 0.5899
C84 C 0.37367(16) 0.22360(15) 0.40132(19)
F35 F 0.3310(3) 0.2580(4) 0.4069(5)
F36 F 0.3725(2) 0.2209(2) 0.32659(16)
F37 F 0.3528(4) 0.1775(3) 0.4182(4)
C85 C 0.60196(16) 0.19003(15) 0.48659(19)
F38 F 0.59464(18) 0.1716(2) 0.41574(19)
F39 F 0.6205(2) 0.15378(18) 0.5371(3)
F40 F 0.65172(14) 0.22226(13) 0.4971(3)
C86 C 0.46373(14) 0.42600(12) 0.71782(19)
C87 C 0.50326(15) 0.46674(13) 0.7153(2)
F41 F 0.50878(10) 0.48272(8) 0.64578(13)
C88 C 0.53772(16) 0.49238(13) 0.7814(2)
F42 F 0.57681(11) 0.53072(9) 0.77564(16)
C89 C 0.5322(2) 0.47775(15) 0.8529(2)
F43 F 0.56504(14) 0.50167(10) 0.91780(15)
C90 C 0.4926(2) 0.43825(15) 0.8584(2)
F44 F 0.48632(18) 0.42435(11) 0.92882(14)
C91 C 0.46001(18) 0.41323(13) 0.7920(2)
F45 F 0.42127(14) 0.37440(9) 0.79893(13)
C92 C 0.35439(14) 0.41360(12) 0.60358(17)
C93 C 0.32956(16) 0.45900(14) 0.6230(2)
F46 F 0.36481(11) 0.49149(10) 0.67585(17)
C94 C 0.26937(17) 0.47499(15) 0.5900(2)
F47 F 0.24911(12) 0.52020(11) 0.6109(2)
C95 C 0.23110(14) 0.44573(14) 0.5332(2)
F48 F 0.17240(9) 0.46077(9) 0.50053(13)
C96 C 0.25356(15) 0.40205(15) 0.5085(2)
F49 F 0.21717(10) 0.37326(12) 0.45146(16)
C97 C 0.31359(16) 0.38626(14) 0.5442(2)
F50 F 0.33012(11) 0.34102(12) 0.5197(2)
C98 C 0.7335(2) 0.27432(16) 0.7444(3)
H67 H 0.7749 0.2718 0.7823
H68 H 0.7079 0.2983 0.7661
Cl1 Cl 0.69896(6) 0.21346(4) 0.73169(7)
Cl2 Cl 0.74162(6) 0.29928(5) 0.65656(9)
F23? F 0.1164(6) 0.0725(6) 0.1504(6)
F24? F 0.0585(5) 0.0366(2) 0.2135(4)
F25? F 0.1532(6) 0.0435(4) 0.2689(5)
F26? F 0.1936(6) 0.2410(6) 0.4146(6)
F27? F 0.1931(8) 0.1689(4) 0.4676(8)
F28? F 0.1282(5) 0.2268(6) 0.4709(7)
F51? F 0.6610(11) 0.4276(11) 0.8642(13)
F52? F 0.7312(13) 0.3813(8) 0.8394(15)
F53? F 0.7282(13) 0.4626(8) 0.8171(12)
F54? F 0.6858(9) 0.4594(18) 0.524(3)
F55? F 0.6031(18) 0.5000(8) 0.5187(17)
F56? F 0.600(2) 0.4291(15) 0.4575(17)
F57? F 0.3416(14) 0.2687(7) 0.3916(18)
F58? F 0.3435(15) 0.1913(12) 0.435(2)
F59? F 0.3719(19) 0.2060(17) 0.3310(14)
F60? F 0.6271(10) 0.1992(9) 0.4329(12)
F61? F 0.5883(7) 0.1363(5) 0.4732(12)
F62? F 0.6459(8) 0.1818(9) 0.5518(9)
loop_
_geom_bond_atom_site_label_1
_geom_bond_atom_site_label_2
_geom_bond_site_symmetry_1
_geom_bond_site_symmetry_2
P1 C1 1_555 1_555
B1 O1 1_555 1_555
B2 O1 1_555 1_555
O1 C3 1_555 1_555
C1 H1 1_555 1_555
H2 C1 1_555 1_555
C2 B2 1_555 1_555
H3 C2 1_555 1_555
H4 C2 1_555 1_555
C3 P1 1_555 1_555
H5 C3 1_555 1_555
F1 C28 1_555 1_555
F2 C28 1_555 1_555
F3 C28 1_555 1_555
F4 C29 1_555 1_555
F5 C29 1_555 1_555
F6 C29 1_555 1_555
C4 P1 1_555 1_555
C5 C4 1_555 1_555
C6 C5 1_555 1_555
H6 C6 1_555 1_555
C7 C6 1_555 1_555
C8 C7 1_555 1_555
H7 C8 1_555 1_555
C9 C4 1_555 1_555
C10 C5 1_555 1_555
H8 C10 1_555 1_555
H9 C10 1_555 1_555
H10 C10 1_555 1_555
C11 C7 1_555 1_555
H11 C11 1_555 1_555
H12 C11 1_555 1_555
H13 C11 1_555 1_555
C12 C9 1_555 1_555
H14 C12 1_555 1_555
H15 C12 1_555 1_555
H16 C12 1_555 1_555
C13 P1 1_555 1_555
C14 C13 1_555 1_555
C15 C14 1_555 1_555
H17 C15 1_555 1_555
C16 C15 1_555 1_555
C17 C16 1_555 1_555
H18 C17 1_555 1_555
C18 C13 1_555 1_555
C19 C14 1_555 1_555
H19 C19 1_555 1_555
H20 C19 1_555 1_555
H21 C19 1_555 1_555
C20 C16 1_555 1_555
H22 C20 1_555 1_555
H23 C20 1_555 1_555
H24 C20 1_555 1_555
C21 C18 1_555 1_555
H25 C21 1_555 1_555
H26 C21 1_555 1_555
H27 C21 1_555 1_555
C22 B2 1_555 1_555
C23 C22 1_555 1_555
H28 C23 1_555 1_555
C24 C23 1_555 1_555
C25 C24 1_555 1_555
H29 C25 1_555 1_555
C26 C25 1_555 1_555
C27 C22 1_555 1_555
H30 C27 1_555 1_555
C28 C24 1_555 1_555
C29 C26 1_555 1_555
C30 B2 1_555 1_555
C31 C30 1_555 1_555
H31 C31 1_555 1_555
C32 C31 1_555 1_555
C33 C32 1_555 1_555
H32 C33 1_555 1_555
C34 C33 1_555 1_555
C35 C30 1_555 1_555
H33 C35 1_555 1_555
C36 C32 1_555 1_555
F7 C36 1_555 1_555
F8 C36 1_555 1_555
F9 C36 1_555 1_555
C37 C34 1_555 1_555
F10 C37 1_555 1_555
F11 C37 1_555 1_555
F12 C37 1_555 1_555
C38 B1 1_555 1_555
C39 C38 1_555 1_555
F13 C39 1_555 1_555
C40 C39 1_555 1_555
F14 C40 1_555 1_555
C41 C40 1_555 1_555
F15 C41 1_555 1_555
C42 C41 1_555 1_555
F16 C42 1_555 1_555
C43 C38 1_555 1_555
F17 C43 1_555 1_555
C44 B1 1_555 1_555
C45 C44 1_555 1_555
F18 C45 1_555 1_555
C46 C45 1_555 1_555
F19 C46 1_555 1_555
C47 C46 1_555 1_555
F20 C47 1_555 1_555
C48 C47 1_555 1_555
F21 C48 1_555 1_555
C49 C44 1_555 1_555
F22 C49 1_555 1_555
P2 H34 1_555 1_555
B3 O2 1_555 1_555
B4 O2 1_555 1_555
C50 P2 1_555 1_555
H35 C50 1_555 1_555
H36 C50 1_555 1_555
C51 B3 1_555 1_555
H37 C51 1_555 1_555
H38 C51 1_555 1_555
C52 P2 1_555 1_555
C53 C52 1_555 1_555
C54 C53 1_555 1_555
H39 C54 1_555 1_555
C55 C54 1_555 1_555
C56 C55 1_555 1_555
H40 C56 1_555 1_555
C57 C52 1_555 1_555
C58 C53 1_555 1_555
H41 C58 1_555 1_555
H42 C58 1_555 1_555
H43 C58 1_555 1_555
C59 C55 1_555 1_555
H44 C59 1_555 1_555
H45 C59 1_555 1_555
H46 C59 1_555 1_555
C60 C57 1_555 1_555
H47 C60 1_555 1_555
H48 C60 1_555 1_555
H49 C60 1_555 1_555
C61 P2 1_555 1_555
C62 C61 1_555 1_555
C63 C62 1_555 1_555
H50 C63 1_555 1_555
C64 C63 1_555 1_555
C65 C64 1_555 1_555
H51 C65 1_555 1_555
C66 C61 1_555 1_555
C67 C62 1_555 1_555
H52 C67 1_555 1_555
H53 C67 1_555 1_555
H54 C67 1_555 1_555
C68 C64 1_555 1_555
H55 C68 1_555 1_555
H56 C68 1_555 1_555
H57 C68 1_555 1_555
C69 C66 1_555 1_555
H58 C69 1_555 1_555
H59 C69 1_555 1_555
H60 C69 1_555 1_555
C70 B3 1_555 1_555
C71 C70 1_555 1_555
H61 C71 1_555 1_555
C72 C71 1_555 1_555
C73 C72 1_555 1_555
H62 C73 1_555 1_555
C74 C73 1_555 1_555
C75 C70 1_555 1_555
H63 C75 1_555 1_555
C76 C72 1_555 1_555
F29 C76 1_555 1_555
F30 C76 1_555 1_555
F31 C76 1_555 1_555
C77 C74 1_555 1_555
F32 C77 1_555 1_555
F33 C77 1_555 1_555
F34 C77 1_555 1_555
C78 B3 1_555 1_555
C79 C78 1_555 1_555
H64 C79 1_555 1_555
C80 C79 1_555 1_555
C81 C80 1_555 1_555
H65 C81 1_555 1_555
C82 C81 1_555 1_555
C83 C78 1_555 1_555
H66 C83 1_555 1_555
C84 C80 1_555 1_555
F35 C84 1_555 1_555
F36 C84 1_555 1_555
F37 C84 1_555 1_555
C85 C82 1_555 1_555
F38 C85 1_555 1_555
F39 C85 1_555 1_555
F40 C85 1_555 1_555
C86 B4 1_555 1_555
C87 C86 1_555 1_555
F41 C87 1_555 1_555
C88 C87 1_555 1_555
F42 C88 1_555 1_555
C89 C88 1_555 1_555
F43 C89 1_555 1_555
C90 C89 1_555 1_555
F44 C90 1_555 1_555
C91 C86 1_555 1_555
F45 C91 1_555 1_555
C92 B4 1_555 1_555
C93 C92 1_555 1_555
F46 C93 1_555 1_555
C94 C93 1_555 1_555
F47 C94 1_555 1_555
C95 C94 1_555 1_555
F48 C95 1_555 1_555
C96 C95 1_555 1_555
F49 C96 1_555 1_555
C97 C92 1_555 1_555
F50 C97 1_555 1_555
C98 H67 1_555 1_555
H68 C98 1_555 1_555
Cl1 C98 1_555 1_555
Cl2 C98 1_555 1_555
B1 C3 1_555 1_555
C1 C2 1_555 1_555
C8 C9 1_555 1_555
C17 C18 1_555 1_555
C26 C27 1_555 1_555
C34 C35 1_555 1_555
C42 C43 1_555 1_555
C48 C49 1_555 1_555
C50 C51 1_555 1_555
C56 C57 1_555 1_555
C65 C66 1_555 1_555
C74 C75 1_555 1_555
C82 C83 1_555 1_555
C90 C91 1_555 1_555
C96 C97 1_555 1_555

#END
