
#######################################################################
#
#                 Cambridge Crystallographic Data Centre
#                                CCDC 
#
#######################################################################
#
# If this CIF has been generated from an entry in the Cambridge 
# Structural Database, then it will include bibliographic, chemical, 
# crystal, experimental, refinement or atomic coordinate data resulting 
# from the CCDC's data processing and validation procedures.
#
#######################################################################

data_IVAVOS
_chemical_formula_moiety         'C12 H11 F4 N1 O1'
_chemical_name_systematic        
4-(benzylamino)-1,1,5,5-tetrafluoropent-3-en-2-one
_symmetry_cell_setting           monoclinic
_symmetry_space_group_name_H-M   'P 21/c'
_symmetry_Int_Tables_number      14
_space_group_name_Hall           '-P 2ybc'
loop_
_symmetry_equiv_pos_site_id
_symmetry_equiv_pos_as_xyz
1 x,y,z
2 -x,1/2+y,1/2-z
3 -x,-y,-z
4 x,1/2-y,1/2+z
_cell_length_a                   10.4333(5)
_cell_length_b                   9.6448(5)
_cell_length_c                   13.1723(7)
_cell_angle_alpha                90
_cell_angle_beta                 122.396(3)
_cell_angle_gamma                90
_cell_volume                     1119.2
_exptl_crystal_colour            colorless
_exptl_crystal_description       prism
_cell_formula_units_Z            4
loop_
_atom_site_label
_atom_site_type_symbol
_atom_site_fract_x
_atom_site_fract_y
_atom_site_fract_z
C1 C 0.6675(2) 0.9114(2) 0.60256(18)
C2 C 0.5674(3) 0.8024(2) 0.5720(2)
H1 H 0.5387 0.7484 0.5027
C3 C 0.5089(3) 0.7714(3) 0.6417(3)
H2 H 0.4400 0.6963 0.6202
C4 C 0.5504(4) 0.8496(4) 0.7427(3)
H3 H 0.5102 0.8284 0.7907
C5 C 0.6495(3) 0.9575(4) 0.7733(2)
H4 H 0.6782 1.0110 0.8429
C6 C 0.7082(3) 0.9895(3) 0.7034(2)
H5 H 0.7765 1.0651 0.7249
C7 C 0.7292(3) 0.9455(2) 0.5251(2)
H6 H 0.6439 0.9548 0.4405
H7 H 0.7830 1.0355 0.5508
C8 C 0.8798(2) 0.8320(2) 0.45636(17)
C9 C 0.8399(2) 0.9284(2) 0.36695(18)
H8 H 0.7870 1.0088 0.3666
C10 C 0.8720(2) 0.9164(2) 0.27538(18)
C11 C 0.8216(3) 1.0370(2) 0.18571(19)
H9 H 0.9138 1.0808 0.1943
C12 C 0.9786(3) 0.7088(2) 0.47160(19)
H10 H 0.9366 0.6596 0.3931
N1 N 0.8338(2) 0.83841(18) 0.53305(16)
O1 O 0.93914(18) 0.82129(15) 0.25934(13)
F1 F 0.98752(17) 0.62015(13) 0.55581(12)
F2 F 1.12335(15) 0.75093(14) 0.51456(13)
F3 F 0.7335(2) 0.98849(17) 0.07319(12)
F4 F 0.7426(2) 1.13459(17) 0.20146(16)
H11 H 0.872(3) 0.779(3) 0.591(3)
loop_
_geom_bond_atom_site_label_1
_geom_bond_atom_site_label_2
_geom_bond_site_symmetry_1
_geom_bond_site_symmetry_2
C1 C2 1_555 1_555
C2 H1 1_555 1_555
C3 C2 1_555 1_555
H2 C3 1_555 1_555
C4 C3 1_555 1_555
H3 C4 1_555 1_555
C5 C4 1_555 1_555
H4 C5 1_555 1_555
C6 C1 1_555 1_555
H5 C6 1_555 1_555
C7 C1 1_555 1_555
H6 C7 1_555 1_555
H7 C7 1_555 1_555
C8 C9 1_555 1_555
C9 H8 1_555 1_555
C10 C9 1_555 1_555
C11 C10 1_555 1_555
H9 C11 1_555 1_555
C12 C8 1_555 1_555
H10 C12 1_555 1_555
N1 C7 1_555 1_555
O1 C10 1_555 1_555
F1 C12 1_555 1_555
F2 C12 1_555 1_555
F3 C11 1_555 1_555
F4 C11 1_555 1_555
H11 N1 1_555 1_555
C5 C6 1_555 1_555
C8 N1 1_555 1_555

#END
