
#######################################################################
#
#                 Cambridge Crystallographic Data Centre
#                                CCDC 
#
#######################################################################
#
# If this CIF has been generated from an entry in the Cambridge 
# Structural Database, then it will include bibliographic, chemical, 
# crystal, experimental, refinement or atomic coordinate data resulting 
# from the CCDC's data processing and validation procedures.
#
#######################################################################

data_IVAVUY
_chemical_formula_moiety         'C10 H9 F4 N3 O1'
_chemical_name_systematic        
3,5-bis(difluoromethyl)-1-(pyridin-2-yl)-4,5-dihydro-1H-pyrazol-5-ol
_symmetry_cell_setting           monoclinic
_symmetry_space_group_name_H-M   'P 21/c'
_symmetry_Int_Tables_number      14
_space_group_name_Hall           '-P 2ybc'
loop_
_symmetry_equiv_pos_site_id
_symmetry_equiv_pos_as_xyz
1 x,y,z
2 -x,1/2+y,1/2-z
3 -x,-y,-z
4 x,1/2-y,1/2+z
_cell_length_a                   7.0188(8)
_cell_length_b                   14.4736(17)
_cell_length_c                   11.1489(13)
_cell_angle_alpha                90
_cell_angle_beta                 105.012(3)
_cell_angle_gamma                90
_cell_volume                     1093.93
_exptl_crystal_colour            colorless
_exptl_crystal_description       plate
_cell_formula_units_Z            4
loop_
_atom_site_label
_atom_site_type_symbol
_atom_site_fract_x
_atom_site_fract_y
_atom_site_fract_z
C1 C 0.7884(3) -0.12436(15) 0.1281(2)
H1 H 0.8025 -0.1765 0.1814
C2 C 0.7692(3) -0.13936(16) 0.0035(2)
H2 H 0.7726 -0.2001 -0.0281
C3 C 0.7448(3) -0.06307(15) -0.0744(2)
H3 H 0.7294 -0.0712 -0.1610
C4 C 0.7429(3) 0.02448(15) -0.02632(19)
H4 H 0.7249 0.0776 -0.0782
C5 C 0.7684(3) 0.03210(14) 0.10196(18)
C6 C 0.6926(3) 0.26029(13) 0.16699(18)
C7 C 0.7396(3) 0.23237(14) 0.30113(18)
H5 H 0.6257 0.2427 0.3365
H6 H 0.8553 0.2664 0.3513
C8 C 0.7846(3) 0.12880(14) 0.29408(17)
C9 C 0.6183(3) 0.35246(14) 0.1173(2)
H7 H 0.6070 0.3562 0.0262
C10 C 0.9879(3) 0.10151(15) 0.37415(19)
H8 H 1.0115 0.0339 0.3663
N1 N 0.7883(3) -0.03999(12) 0.17851(16)
N2 N 0.7796(3) 0.11785(11) 0.16105(15)
N3 N 0.7140(3) 0.19616(11) 0.09225(15)
O1 O 0.6402(2) 0.07705(11) 0.33062(14)
F1 F 0.7394(2) 0.42031(9) 0.17987(13)
F2 F 0.4398(2) 0.36817(10) 0.14144(14)
F3 F 0.9977(2) 0.12427(10) 0.49475(12)
F4 F 1.1305(2) 0.15224(10) 0.34168(14)
H9 H 0.655(4) 0.0243(19) 0.313(3)
loop_
_geom_bond_atom_site_label_1
_geom_bond_atom_site_label_2
_geom_bond_site_symmetry_1
_geom_bond_site_symmetry_2
C1 H1 1_555 1_555
C2 C1 1_555 1_555
H2 C2 1_555 1_555
C3 C2 1_555 1_555
H3 C3 1_555 1_555
C4 C3 1_555 1_555
H4 C4 1_555 1_555
C5 C4 1_555 1_555
C6 C7 1_555 1_555
C7 H5 1_555 1_555
H6 C7 1_555 1_555
C8 C7 1_555 1_555
C9 C6 1_555 1_555
H7 C9 1_555 1_555
C10 C8 1_555 1_555
H8 C10 1_555 1_555
N1 C1 1_555 1_555
N2 C5 1_555 1_555
N3 C6 1_555 1_555
O1 C8 1_555 1_555
F1 C9 1_555 1_555
F2 C9 1_555 1_555
F3 C10 1_555 1_555
F4 C10 1_555 1_555
H9 O1 1_555 1_555
C5 N1 1_555 1_555
C8 N2 1_555 1_555
N2 N3 1_555 1_555

#END
