
#######################################################################
#
#                 Cambridge Crystallographic Data Centre
#                                CCDC 
#
#######################################################################
#
# If this CIF has been generated from an entry in the Cambridge 
# Structural Database, then it will include bibliographic, chemical, 
# crystal, experimental, refinement or atomic coordinate data resulting 
# from the CCDC's data processing and validation procedures.
#
#######################################################################

data_IVAVIM
_chemical_formula_moiety         'C6 H7 F4 N3 O2'
_chemical_name_systematic        
3,5-bis(difluoromethyl)-5-hydroxy-4,5-dihydro-1H-pyrazole-1-carboxamide
_symmetry_cell_setting           monoclinic
_symmetry_space_group_name_H-M   'P 21/c'
_symmetry_Int_Tables_number      14
_space_group_name_Hall           '-P 2ybc'
loop_
_symmetry_equiv_pos_site_id
_symmetry_equiv_pos_as_xyz
1 x,y,z
2 -x,1/2+y,1/2-z
3 -x,-y,-z
4 x,1/2-y,1/2+z
_cell_length_a                   8.2938(10)
_cell_length_b                   14.2847(17)
_cell_length_c                   7.4045(9)
_cell_angle_alpha                90
_cell_angle_beta                 90.616(3)
_cell_angle_gamma                90
_cell_volume                     877.193
_exptl_crystal_colour            colorless
_exptl_crystal_description       prism
_cell_formula_units_Z            4
loop_
_atom_site_label
_atom_site_type_symbol
_atom_site_fract_x
_atom_site_fract_y
_atom_site_fract_z
C1 C 0.2512(3) 0.42332(15) 0.1397(3)
C2 C 0.2535(3) 0.46637(15) 0.3248(3)
H1 H 0.3397 0.4389 0.4016
H2 H 0.1484 0.4586 0.3852
C3 C 0.2877(3) 0.56996(14) 0.2828(3)
C4 C 0.3511(3) 0.64088(15) -0.0246(3)
C5 C 0.2095(4) 0.32455(17) 0.0953(4)
H3 H 0.2218 0.3126 -0.0369
C6 C 0.1412(3) 0.63195(17) 0.3188(3)
H4 H 0.1629 0.6983 0.2835
N1 N 0.3145(2) 0.56629(13) 0.0854(2)
N2 N 0.2863(2) 0.47887(13) 0.0108(3)
N3 N 0.3646(3) 0.62114(15) -0.2001(3)
O1 O 0.3723(2) 0.71953(11) 0.0407(2)
O2 O 0.4214(2) 0.60089(12) 0.3813(2)
F1 F 0.3042(3) 0.26490(11) 0.1940(3)
F2 F 0.0563(2) 0.30752(13) 0.1471(3)
F3 F 0.0121(2) 0.59727(13) 0.2267(2)
F4 F 0.1035(2) 0.62571(12) 0.4978(2)
H5 H 0.425(4) 0.656(2) 0.386(4)
H6 H 0.346(5) 0.566(3) -0.235(5)
H7 H 0.355(5) 0.668(3) -0.267(5)
loop_
_geom_bond_atom_site_label_1
_geom_bond_atom_site_label_2
_geom_bond_site_symmetry_1
_geom_bond_site_symmetry_2
C1 C2 1_555 1_555
C2 H1 1_555 1_555
H2 C2 1_555 1_555
C3 C2 1_555 1_555
C4 N1 1_555 1_555
C5 C1 1_555 1_555
H3 C5 1_555 1_555
C6 C3 1_555 1_555
H4 C6 1_555 1_555
N1 C3 1_555 1_555
N2 C1 1_555 1_555
N3 C4 1_555 1_555
O1 C4 1_555 1_555
O2 C3 1_555 1_555
F1 C5 1_555 1_555
F2 C5 1_555 1_555
F3 C6 1_555 1_555
F4 C6 1_555 1_555
H5 O2 1_555 1_555
H6 N3 1_555 1_555
H7 N3 1_555 1_555
N1 N2 1_555 1_555

#END
