
#######################################################################
#
#                 Cambridge Crystallographic Data Centre
#                                CCDC 
#
#######################################################################
#
# If this CIF has been generated from an entry in the Cambridge 
# Structural Database, then it will include bibliographic, chemical, 
# crystal, experimental, refinement or atomic coordinate data resulting 
# from the CCDC's data processing and validation procedures.
#
#######################################################################

data_IVAWAF
_chemical_formula_moiety         'C13 H14 F4 N4 O1'
_chemical_name_systematic        
5-(benzylamino)-3,5-bis(difluoromethyl)-4,5-dihydro-1H-pyrazole-1-carboxamide
_symmetry_cell_setting           monoclinic
_symmetry_space_group_name_H-M   'P 21/c'
_symmetry_Int_Tables_number      14
_space_group_name_Hall           '-P 2ybc'
loop_
_symmetry_equiv_pos_site_id
_symmetry_equiv_pos_as_xyz
1 x,y,z
2 -x,1/2+y,1/2-z
3 -x,-y,-z
4 x,1/2-y,1/2+z
_cell_length_a                   15.5488(9)
_cell_length_b                   14.5410(9)
_cell_length_c                   14.7136(8)
_cell_angle_alpha                90
_cell_angle_beta                 117.5920(10)
_cell_angle_gamma                90
_cell_volume                     2948.32
_exptl_crystal_colour            colorless
_exptl_crystal_description       prism
_cell_formula_units_Z            8
loop_
_atom_site_label
_atom_site_type_symbol
_atom_site_fract_x
_atom_site_fract_y
_atom_site_fract_z
C1 C 0.40378(14) 0.31731(16) 0.33713(15)
C2 C 0.43969(14) 0.32985(17) 0.44969(16)
H1 H 0.4046 0.2894 0.4755
H2 H 0.4329 0.3945 0.4664
C3 C 0.54824(13) 0.30182(14) 0.49469(14)
C4 C 0.63640(14) 0.25556(15) 0.39102(14)
C5 C 0.30371(16) 0.3338(2) 0.25446(19)
H3 H 0.3012 0.3250 0.1858
C6 C 0.5348(2) 0.13756(18) 0.52481(18)
H4 H 0.5596 0.1184 0.4767
H5 H 0.4632 0.1410 0.4862
C7 C 0.56394(17) 0.06831(15) 0.60957(17)
C8 C 0.5024(2) 0.04852(19) 0.6515(2)
H6 H 0.4413 0.0785 0.6254
C9 C 0.5286(4) -0.0140(2) 0.7305(3)
H7 H 0.4856 -0.0266 0.7584
C10 C 0.6156(4) -0.0573(3) 0.7684(3)
H8 H 0.6337 -0.1003 0.8228
C11 C 0.6776(3) -0.0386(3) 0.7277(4)
H9 H 0.7387 -0.0689 0.7544
C12 C 0.6518(2) 0.0241(2) 0.6481(3)
H10 H 0.6949 0.0364 0.6203
C13 C 0.61466(15) 0.38338(14) 0.54828(15)
H11 H 0.6844 0.3646 0.5787
N1 N 0.55395(11) 0.28057(13) 0.39818(12)
N2 N 0.46748(12) 0.29079(13) 0.31085(12)
N3 N 0.62480(15) 0.24015(18) 0.29702(14)
N4 N 0.57449(13) 0.22842(12) 0.56806(12)
O1 O 0.71455(11) 0.24822(13) 0.46986(11)
F1 F 0.23985(11) 0.27605(15) 0.26468(14)
F2 F 0.27382(13) 0.41937(15) 0.26171(18)
F3 F 0.59574(11) 0.45315(10) 0.47986(11)
F4 F 0.59349(11) 0.41624(10) 0.62217(11)
H12 H 0.569(2) 0.256(2) 0.244(2)
H13 H 0.675(2) 0.238(2) 0.291(2)
H14 H 0.639(2) 0.2217(19) 0.604(2)
C14 C 1.09864(14) 0.19166(16) 0.42945(16)
C15 C 1.06096(14) 0.17035(16) 0.50385(15)
H15 H 1.0932 0.2086 0.5664
H16 H 1.0701 0.1046 0.5236
C16 C 0.95167(13) 0.19477(13) 0.44184(14)
C17 C 0.86316(14) 0.23885(14) 0.25166(14)
C18 C 1.20078(17) 0.1850(3) 0.4489(2)
H17 H 1.2052 0.1953 0.3840
C19 C 0.9604(2) 0.35977(16) 0.4813(2)
H18 H 0.9266 0.3820 0.4096
H19 H 1.0306 0.3561 0.5021
C20 C 0.94362(18) 0.42584(15) 0.55016(18)
C21 C 1.0156(2) 0.44091(18) 0.6500(2)
H20 H 1.0762 0.4103 0.6740
C22 C 1.0002(3) 0.4999(2) 0.7147(2)
H21 H 1.0502 0.5098 0.7826
C23 C 0.9137(3) 0.5437(2) 0.6815(3)
H22 H 0.9033 0.5843 0.7261
C24 C 0.8418(3) 0.5295(2) 0.5843(3)
H23 H 0.7812 0.5599 0.5617
C25 C 0.8564(2) 0.47061(19) 0.5175(2)
H24 H 0.8061 0.4616 0.4497
C26 C 0.88716(15) 0.11213(14) 0.43280(16)
H25 H 0.8170 0.1293 0.3945
N5 N 0.94581(11) 0.21511(12) 0.33927(12)
N6 N 1.03419(12) 0.21529(13) 0.33984(13)
N7 N 0.92389(13) 0.26843(12) 0.48803(13)
N8 N 0.87520(14) 0.26377(16) 0.17112(14)
O2 O 0.78385(10) 0.23704(13) 0.25163(11)
F5 F 1.23870(13) 0.10123(18) 0.48981(17)
F6 F 1.25684(11) 0.24752(17) 0.52161(15)
F7 F 0.90935(11) 0.08119(10) 0.52870(10)
F8 F 0.90747(12) 0.04195(9) 0.38524(12)
H26 H 0.823(2) 0.272(2) 0.113(2)
H27 H 0.930(2) 0.260(2) 0.172(2)
H28 H 0.863(2) 0.271(2) 0.465(2)
loop_
_geom_bond_atom_site_label_1
_geom_bond_atom_site_label_2
_geom_bond_site_symmetry_1
_geom_bond_site_symmetry_2
C1 C2 1_555 1_555
C2 H1 1_555 1_555
H2 C2 1_555 1_555
C3 C2 1_555 1_555
C4 N1 1_555 1_555
C5 C1 1_555 1_555
H3 C5 1_555 1_555
C6 H4 1_555 1_555
H5 C6 1_555 1_555
C7 C6 1_555 1_555
C8 C7 1_555 1_555
H6 C8 1_555 1_555
C9 C8 1_555 1_555
H7 C9 1_555 1_555
C10 C9 1_555 1_555
H8 C10 1_555 1_555
C11 C10 1_555 1_555
H9 C11 1_555 1_555
C12 C7 1_555 1_555
H10 C12 1_555 1_555
C13 C3 1_555 1_555
H11 C13 1_555 1_555
N1 C3 1_555 1_555
N2 C1 1_555 1_555
N3 C4 1_555 1_555
N4 C3 1_555 1_555
O1 C4 1_555 1_555
F1 C5 1_555 1_555
F2 C5 1_555 1_555
F3 C13 1_555 1_555
F4 C13 1_555 1_555
H12 N3 1_555 1_555
H13 N3 1_555 1_555
H14 N4 1_555 1_555
C14 C15 1_555 1_555
C15 H15 1_555 1_555
H16 C15 1_555 1_555
C16 C15 1_555 1_555
C17 N5 1_555 1_555
C18 C14 1_555 1_555
H17 C18 1_555 1_555
C19 H18 1_555 1_555
H19 C19 1_555 1_555
C20 C19 1_555 1_555
C21 C20 1_555 1_555
H20 C21 1_555 1_555
C22 C21 1_555 1_555
H21 C22 1_555 1_555
C23 C22 1_555 1_555
H22 C23 1_555 1_555
C24 C23 1_555 1_555
H23 C24 1_555 1_555
C25 C20 1_555 1_555
H24 C25 1_555 1_555
C26 C16 1_555 1_555
H25 C26 1_555 1_555
N5 C16 1_555 1_555
N6 C14 1_555 1_555
N7 C16 1_555 1_555
N8 C17 1_555 1_555
O2 C17 1_555 1_555
F5 C18 1_555 1_555
F6 C18 1_555 1_555
F7 C26 1_555 1_555
F8 C26 1_555 1_555
H26 N8 1_555 1_555
H27 N8 1_555 1_555
H28 N7 1_555 1_555
C6 N4 1_555 1_555
C11 C12 1_555 1_555
N1 N2 1_555 1_555
C19 N7 1_555 1_555
C24 C25 1_555 1_555
N5 N6 1_555 1_555

#END
