
#######################################################################
#
#                 Cambridge Crystallographic Data Centre
#                                CCDC 
#
#######################################################################
#
# If this CIF has been generated from an entry in the Cambridge 
# Structural Database, then it will include bibliographic, chemical, 
# crystal, experimental, refinement or atomic coordinate data resulting 
# from the CCDC's data processing and validation procedures.
#
#######################################################################

data_IVAWEH
_chemical_formula_moiety         'C63 H74 B3 N1,1.5(C3 H6 O1),0.5(C6 H14)'
_chemical_name_systematic        
'1-Dimesitylboryl-2-(Z-1-(dimesitylboryl)ethylidene)-5-(E-2-(dimesitylboryl)vinyl)-1,2-dihydropyridine acetone hexane solvate'
_symmetry_cell_setting           triclinic
_symmetry_space_group_name_H-M   'P -1'
_symmetry_Int_Tables_number      2
_space_group_name_Hall           '-P 1'
loop_
_symmetry_equiv_pos_site_id
_symmetry_equiv_pos_as_xyz
1 x,y,z
2 -x,-y,-z
_cell_length_a                   13.256(4)
_cell_length_b                   13.735(4)
_cell_length_c                   17.298(5)
_cell_angle_alpha                94.48(1)
_cell_angle_beta                 94.62(1)
_cell_angle_gamma                101.60(1)
_cell_volume                     3060.74
_exptl_crystal_colour            yellow
_exptl_crystal_description       block
_cell_formula_units_Z            2
loop_
_atom_site_label
_atom_site_type_symbol
_atom_site_fract_x
_atom_site_fract_y
_atom_site_fract_z
N1 N 0.31246(12) 0.36315(12) 0.28707(9)
C1 C 0.27436(14) 0.28562(14) 0.22363(11)
C2 C 0.25505(15) 0.18552(15) 0.24843(12)
H1 H 0.2558 0.1305 0.2117
C3 C 0.23685(15) 0.16855(15) 0.32182(12)
H2 H 0.2237 0.1022 0.3364
C4 C 0.23658(14) 0.25110(15) 0.37881(11)
C5 C 0.27509(14) 0.34365(15) 0.35949(11)
H3 H 0.2770 0.3987 0.3968
C6 C 0.20496(14) 0.23662(15) 0.45628(11)
H4 H 0.2033 0.2951 0.4889
C7 C 0.17718(16) 0.14877(16) 0.48663(12)
H5 H 0.1696 0.0892 0.4528
C8 C 0.24790(14) 0.30642(14) 0.14964(11)
C9 C 0.25804(16) 0.41259(15) 0.12972(12)
H6 H 0.2598 0.4564 0.1776
H7 H 0.1989 0.4177 0.0936
H8 H 0.3222 0.4329 0.1053
C10 C 0.15911(17) 0.03551(16) 0.60623(12)
C11 C 0.08068(17) -0.00947(17) 0.65180(12)
C12 C 0.0793(2) -0.10471(19) 0.67348(15)
H9 H 0.0240 -0.1353 0.7010
C13 C 0.1552(2) -0.15716(19) 0.65642(16)
C14 C 0.2337(2) -0.11123(19) 0.61651(16)
H10 H 0.2881 -0.1445 0.6061
C15 C 0.2369(2) -0.01734(19) 0.59086(15)
C16 C -0.00222(18) 0.04281(19) 0.67700(15)
H11 H -0.0483 -0.0004 0.7077
H12 H -0.0422 0.0573 0.6307
H13 H 0.0294 0.1054 0.7087
C17 C 0.1545(3) -0.2593(2) 0.6842(2)
H14 H 0.2026 -0.2915 0.6565
H15 H 0.0846 -0.3008 0.6741
H16 H 0.1761 -0.2515 0.7403
C18 C 0.3305(2) 0.0260(2) 0.5498(2)
H17 H 0.3906 0.0010 0.5702
H18 H 0.3451 0.0991 0.5588
H19 H 0.3161 0.0059 0.4937
C19 C 0.13908(15) 0.23288(15) 0.62311(11)
C20 C 0.21392(15) 0.28083(16) 0.68486(12)
C21 C 0.19955(17) 0.36549(16) 0.72740(12)
H20 H 0.2512 0.3975 0.7677
C22 C 0.11308(19) 0.40527(17) 0.71339(13)
C23 C 0.03866(18) 0.35675(18) 0.65364(14)
H21 H -0.0228 0.3813 0.6441
C24 C 0.05134(16) 0.27306(17) 0.60812(12)
C25 C 0.31034(16) 0.24194(18) 0.70344(14)
H22 H 0.3567 0.2565 0.6626
H23 H 0.2919 0.1696 0.7061
H24 H 0.3454 0.2743 0.7537
C26 C 0.0995(2) 0.49765(18) 0.76127(16)
H25 H 0.0377 0.5192 0.7397
H26 H 0.1605 0.5511 0.7601
H27 H 0.0917 0.4827 0.8152
C27 C -0.03230(18) 0.2267(2) 0.54251(14)
H28 H -0.1005 0.2283 0.5600
H29 H -0.0275 0.1573 0.5287
H30 H -0.0229 0.2643 0.4968
C28 C 0.22630(14) 0.12020(15) 0.06898(11)
C29 C 0.15507(15) 0.02952(15) 0.07432(11)
C30 C 0.18478(17) -0.06139(16) 0.06252(14)
H31 H 0.1360 -0.1213 0.0666
C31 C 0.28391(19) -0.06665(18) 0.04528(17)
C32 C 0.35381(18) 0.02187(18) 0.04007(15)
H32 H 0.4221 0.0194 0.0283
C33 C 0.32710(15) 0.11415(16) 0.05166(12)
C34 C 0.04830(15) 0.03045(16) 0.09777(12)
H33 H 0.0081 -0.0382 0.0947
H34 H 0.0136 0.0688 0.0626
H35 H 0.0537 0.0616 0.1513
C35 C 0.3154(3) -0.1668(2) 0.0320(3)
H36 H 0.2672 -0.2186 0.0542
H37 H 0.3855 -0.1618 0.0571
H38 H 0.3142 -0.1845 -0.0241
C36 C 0.40780(16) 0.20606(17) 0.04210(14)
H39 H 0.4745 0.2011 0.0686
H40 H 0.3864 0.2655 0.0648
H41 H 0.4145 0.2113 -0.0135
C37 C 0.10564(14) 0.25339(14) 0.02698(11)
C38 C 0.10987(15) 0.25150(15) -0.05431(12)
C39 C 0.03881(17) 0.29107(16) -0.09992(13)
H42 H 0.0426 0.2889 -0.1546
C40 C -0.03718(17) 0.33211(17) -0.06842(15)
C41 C -0.04343(16) 0.33069(16) 0.01065(14)
H43 H -0.0971 0.3560 0.0331
C42 C 0.02504(15) 0.29228(15) 0.05842(12)
C43 C 0.19177(18) 0.21153(18) -0.09505(12)
H44 H 0.1760 0.2093 -0.1516
H45 H 0.1930 0.1440 -0.0808
H46 H 0.2595 0.2553 -0.0793
C44 C -0.1101(2) 0.3782(2) -0.11838(19)
H47 H -0.0925 0.4511 -0.1080
H48 H -0.1813 0.3535 -0.1065
H49 H -0.1042 0.3594 -0.1734
C45 C 0.00980(18) 0.29360(19) 0.14425(14)
H50 H 0.0593 0.3498 0.1732
H51 H 0.0208 0.2309 0.1636
H52 H -0.0609 0.3012 0.1515
C46 C 0.47381(14) 0.45269(14) 0.22028(11)
C47 C 0.52929(15) 0.37623(15) 0.20893(11)
C48 C 0.60186(15) 0.38213(16) 0.15470(12)
H53 H 0.6398 0.3307 0.1489
C49 C 0.62043(16) 0.46091(16) 0.10902(12)
C50 C 0.56675(16) 0.53666(16) 0.12036(12)
H54 H 0.5785 0.5912 0.0893
C51 C 0.49641(15) 0.53557(15) 0.17567(11)
C52 C 0.51592(17) 0.28485(16) 0.25398(13)
H55 H 0.4731 0.2275 0.2213
H56 H 0.4822 0.2977 0.3010
H57 H 0.5839 0.2703 0.2688
C53 C 0.69750(19) 0.4636(2) 0.04899(14)
H58 H 0.6606 0.4531 -0.0034
H59 H 0.7363 0.4107 0.0559
H60 H 0.7455 0.5286 0.0555
C54 C 0.44516(16) 0.62424(15) 0.18493(13)
H61 H 0.4781 0.6770 0.1545
H62 H 0.4524 0.6496 0.2401
H63 H 0.3715 0.6034 0.1663
C55 C 0.41321(14) 0.53732(14) 0.35363(11)
C56 C 0.33903(15) 0.59563(15) 0.36664(12)
C57 C 0.36107(17) 0.67682(16) 0.42353(12)
H64 H 0.3107 0.7163 0.4304
C58 C 0.45472(17) 0.70162(16) 0.46979(12)
C59 C 0.52638(16) 0.64296(16) 0.45797(12)
H65 H 0.5905 0.6583 0.4897
C60 C 0.50834(14) 0.56209(15) 0.40103(11)
C61 C 0.23501(16) 0.57524(18) 0.31931(13)
H66 H 0.1933 0.6210 0.3397
H67 H 0.1993 0.5061 0.3227
H68 H 0.2448 0.5856 0.2647
C62 C 0.4770(2) 0.78914(18) 0.53205(14)
H69 H 0.4323 0.7743 0.5739
H70 H 0.4637 0.8489 0.5092
H71 H 0.5497 0.8009 0.5533
C63 C 0.59209(15) 0.50324(17) 0.39435(12)
H72 H 0.6263 0.5182 0.3472
H73 H 0.5616 0.4316 0.3912
H74 H 0.6429 0.5217 0.4402
B1 B 0.15720(18) 0.13830(19) 0.57271(14)
B2 B 0.19367(16) 0.22379(17) 0.08283(13)
B3 B 0.39556(16) 0.44951(17) 0.28471(13)
O2 O 0.3430(6) -0.1446(5) 0.8571(4)
C67 C 0.3074(5) -0.0693(6) 0.8484(4)
C68 C 0.2062(5) -0.0640(6) 0.8642(4)
H81 H 0.1682 -0.1305 0.8730
H82 H 0.1710 -0.0401 0.8198
H83 H 0.2087 -0.0179 0.9108
C69 C 0.3809(6) 0.0223(6) 0.8291(4)
H85 H 0.3931 0.0734 0.8735
H86 H 0.3507 0.0482 0.7834
C70 C 0.7146(6) 0.1038(5) 0.6849(4)
C71 C 0.7348(5) 0.0792(5) 0.6226(4)
C76 C 0.4848(6) 0.0594(6) 0.7763(5)
H92 H 0.4489 0.0831 0.7313
H93 H 0.4966 0.1141 0.8188
C77 C 0.5853(5) 0.0521(5) 0.7544(4)
H94 H 0.6183 0.0184 0.7949
H95 H 0.5747 0.0071 0.7055
C78 C 0.6583(7) 0.1408(7) 0.7432(6)
H96 H 0.6459 0.1913 0.7833
H97 H 0.6304 0.1599 0.6931
C79 C 0.7871(8) 0.1674(9) 0.7381(7)
H98 H 0.8090 0.2375 0.7283
H100 H 0.8230 0.1559 0.7872
O1? O -0.0466(4) 0.5735(4) 0.5785(3)
C64? C -0.0406(5) 0.5217(5) 0.5249(4)
C65? C 0.0630(6) 0.5098(6) 0.5023(5)
H75? H 0.1187 0.5569 0.5345
H76? H 0.0667 0.5220 0.4474
H77? H 0.0705 0.4413 0.5089
C66? C -0.1368(7) 0.4583(6) 0.4762(5)
H78? H -0.1992 0.4672 0.5002
H79? H -0.1326 0.3877 0.4735
H80? H -0.1399 0.4796 0.4234
H84? H 0.4467 0.0049 0.8177
C72? C 0.7560(10) 0.1213(10) 0.7165(8)
C73? C 0.6096(8) 0.0567(8) 0.6986(6)
C74? C 0.3076(7) -0.0119(7) 0.8212(5)
H87? H 0.2663 -0.0732 0.8371
H88? H 0.2714 0.0080 0.7753
H89? H 0.3178 0.0414 0.8639
C75? C 0.4073(5) -0.0259(6) 0.8009(5)
H90? H 0.3955 -0.0822 0.7595
H91? H 0.4404 -0.0483 0.8478
H99? H 0.8042 0.1243 0.6953
loop_
_geom_bond_atom_site_label_1
_geom_bond_atom_site_label_2
_geom_bond_site_symmetry_1
_geom_bond_site_symmetry_2
N1 C1 1_555 1_555
C1 C2 1_555 1_555
C2 H1 1_555 1_555
C3 C2 1_555 1_555
H2 C3 1_555 1_555
C4 C3 1_555 1_555
C5 N1 1_555 1_555
H3 C5 1_555 1_555
C6 C4 1_555 1_555
H4 C6 1_555 1_555
C7 C6 1_555 1_555
H5 C7 1_555 1_555
C8 C1 1_555 1_555
C9 C8 1_555 1_555
H6 C9 1_555 1_555
H7 C9 1_555 1_555
H8 C9 1_555 1_555
C10 C11 1_555 1_555
C11 C12 1_555 1_555
C12 H9 1_555 1_555
C13 C12 1_555 1_555
C14 C13 1_555 1_555
H10 C14 1_555 1_555
C15 C10 1_555 1_555
C16 C11 1_555 1_555
H11 C16 1_555 1_555
H12 C16 1_555 1_555
H13 C16 1_555 1_555
C17 C13 1_555 1_555
H14 C17 1_555 1_555
H15 C17 1_555 1_555
H16 C17 1_555 1_555
C18 C15 1_555 1_555
H17 C18 1_555 1_555
H18 C18 1_555 1_555
H19 C18 1_555 1_555
C19 C20 1_555 1_555
C20 C21 1_555 1_555
C21 H20 1_555 1_555
C22 C21 1_555 1_555
C23 C22 1_555 1_555
H21 C23 1_555 1_555
C24 C19 1_555 1_555
C25 C20 1_555 1_555
H22 C25 1_555 1_555
H23 C25 1_555 1_555
H24 C25 1_555 1_555
C26 C22 1_555 1_555
H25 C26 1_555 1_555
H26 C26 1_555 1_555
H27 C26 1_555 1_555
C27 C24 1_555 1_555
H28 C27 1_555 1_555
H29 C27 1_555 1_555
H30 C27 1_555 1_555
C28 C29 1_555 1_555
C29 C30 1_555 1_555
C30 H31 1_555 1_555
C31 C30 1_555 1_555
C32 C31 1_555 1_555
H32 C32 1_555 1_555
C33 C28 1_555 1_555
C34 C29 1_555 1_555
H33 C34 1_555 1_555
H34 C34 1_555 1_555
H35 C34 1_555 1_555
C35 C31 1_555 1_555
H36 C35 1_555 1_555
H37 C35 1_555 1_555
H38 C35 1_555 1_555
C36 C33 1_555 1_555
H39 C36 1_555 1_555
H40 C36 1_555 1_555
H41 C36 1_555 1_555
C37 C38 1_555 1_555
C38 C39 1_555 1_555
C39 H42 1_555 1_555
C40 C39 1_555 1_555
C41 C40 1_555 1_555
H43 C41 1_555 1_555
C42 C37 1_555 1_555
C43 C38 1_555 1_555
H44 C43 1_555 1_555
H45 C43 1_555 1_555
H46 C43 1_555 1_555
C44 C40 1_555 1_555
H47 C44 1_555 1_555
H48 C44 1_555 1_555
H49 C44 1_555 1_555
C45 C42 1_555 1_555
H50 C45 1_555 1_555
H51 C45 1_555 1_555
H52 C45 1_555 1_555
C46 C47 1_555 1_555
C47 C48 1_555 1_555
C48 H53 1_555 1_555
C49 C48 1_555 1_555
C50 C49 1_555 1_555
H54 C50 1_555 1_555
C51 C46 1_555 1_555
C52 C47 1_555 1_555
H55 C52 1_555 1_555
H56 C52 1_555 1_555
H57 C52 1_555 1_555
C53 C49 1_555 1_555
H58 C53 1_555 1_555
H59 C53 1_555 1_555
H60 C53 1_555 1_555
C54 C51 1_555 1_555
H61 C54 1_555 1_555
H62 C54 1_555 1_555
H63 C54 1_555 1_555
C55 C56 1_555 1_555
C56 C57 1_555 1_555
C57 H64 1_555 1_555
C58 C57 1_555 1_555
C59 C58 1_555 1_555
H65 C59 1_555 1_555
C60 C55 1_555 1_555
C61 C56 1_555 1_555
H66 C61 1_555 1_555
H67 C61 1_555 1_555
H68 C61 1_555 1_555
C62 C58 1_555 1_555
H69 C62 1_555 1_555
H70 C62 1_555 1_555
H71 C62 1_555 1_555
C63 C60 1_555 1_555
H72 C63 1_555 1_555
H73 C63 1_555 1_555
H74 C63 1_555 1_555
B1 C7 1_555 1_555
B2 C8 1_555 1_555
B3 N1 1_555 1_555
O2 C67 1_555 1_555
C67 C68 1_555 1_555
C68 H81 1_555 1_555
H82 C68 1_555 1_555
H83 C68 1_555 1_555
C69 C67 1_555 1_555
H85 C69 1_555 1_555
H86 C69 1_555 1_555
C70 C71 1_555 1_555
C76 H92 1_555 1_555
H93 C76 1_555 1_555
C77 C76 1_555 1_555
H94 C77 1_555 1_555
H95 C77 1_555 1_555
C78 C77 1_555 1_555
H96 C78 1_555 1_555
H97 C78 1_555 1_555
C79 C70 1_555 1_555
H98 C79 1_555 1_555
H100 C79 1_555 1_555
C4 C5 1_555 1_555
C10 B1 1_555 1_555
C14 C15 1_555 1_555
C19 B1 1_555 1_555
C23 C24 1_555 1_555
C28 B2 1_555 1_555
C32 C33 1_555 1_555
C37 B2 1_555 1_555
C41 C42 1_555 1_555
C46 B3 1_555 1_555
C50 C51 1_555 1_555
C55 B3 1_555 1_555
C59 C60 1_555 1_555
C78 C79 1_555 1_555

#END
