
#######################################################################
#
#                 Cambridge Crystallographic Data Centre
#                                CCDC 
#
#######################################################################
#
# If this CIF has been generated from an entry in the Cambridge 
# Structural Database, then it will include bibliographic, chemical, 
# crystal, experimental, refinement or atomic coordinate data resulting 
# from the CCDC's data processing and validation procedures.
#
#######################################################################

data_IVAWIN
_chemical_formula_moiety         'C10 H11 F4 N3 O3'
_chemical_name_systematic        
3,5-bis(difluoromethyl)-4-nitro-1-(tetrahydro-2H-pyran-2-yl)-1H-pyrazole
_symmetry_cell_setting           monoclinic
_symmetry_space_group_name_H-M   'P 21/c'
_symmetry_Int_Tables_number      14
_space_group_name_Hall           '-P 2ybc'
loop_
_symmetry_equiv_pos_site_id
_symmetry_equiv_pos_as_xyz
1 x,y,z
2 -x,1/2+y,1/2-z
3 -x,-y,-z
4 x,1/2-y,1/2+z
_cell_length_a                   8.5194(4)
_cell_length_b                   16.1430(8)
_cell_length_c                   9.1878(2)
_cell_angle_alpha                90
_cell_angle_beta                 103.310(3)
_cell_angle_gamma                90
_cell_volume                     1229.64
_exptl_crystal_colour            colorless
_exptl_crystal_description       prism
_cell_formula_units_Z            4
loop_
_atom_site_label
_atom_site_type_symbol
_atom_site_fract_x
_atom_site_fract_y
_atom_site_fract_z
C1 C 0.7514(2) -0.01219(11) 1.0441(2)
C2 C 0.7393(2) -0.08249(11) 0.9514(2)
C3 C 0.7406(2) -0.05413(11) 0.80999(19)
C4 C 0.7506(2) -0.00554(12) 1.2061(2)
H1 H 0.8219 -0.0488 1.2653
C5 C 0.7272(3) -0.10022(13) 0.6651(2)
H2 H 0.7372 -0.1613 0.6834
C6 C 0.7607(2) 0.09171(11) 0.7089(2)
H3 H 0.7187 0.0670 0.6075
C7 C 0.6622(2) 0.16759(12) 0.7253(2)
H4 H 0.6943 0.1886 0.8291
H5 H 0.5464 0.1529 0.7042
C8 C 0.6897(3) 0.23464(13) 0.6164(2)
H6 H 0.6401 0.2174 0.5126
H7 H 0.6375 0.2868 0.6368
C9 C 0.8684(3) 0.24912(12) 0.6327(2)
H8 H 0.8852 0.2887 0.5555
H9 H 0.9155 0.2733 0.7322
C10 C 0.9505(3) 0.16841(12) 0.6158(2)
H10 H 0.9063 0.1455 0.5147
H11 H 1.0674 0.1780 0.6268
N1 N 0.75323(19) 0.02917(9) 0.82333(16)
N2 N 0.76145(19) 0.05544(10) 0.96509(16)
N3 N 0.7224(2) -0.16662(10) 0.99529(19)
O1 O 0.7111(2) -0.17912(9) 1.12406(16)
O2 O 0.7183(2) -0.22187(9) 0.90315(17)
O3 O 0.92632(16) 0.10980(8) 0.72731(14)
F1 F 0.7984(2) 0.07029(8) 1.25713(14)
F2 F 0.59714(16) -0.01381(10) 1.22275(14)
F3 F 0.84036(18) -0.07354(9) 0.59443(16)
F4 F 0.58403(17) -0.08185(9) 0.57147(14)
loop_
_geom_bond_atom_site_label_1
_geom_bond_atom_site_label_2
_geom_bond_site_symmetry_1
_geom_bond_site_symmetry_2
C1 C2 1_555 1_555
C2 C3 1_555 1_555
C3 C5 1_555 1_555
C4 C1 1_555 1_555
H1 C4 1_555 1_555
C5 H2 1_555 1_555
C6 H3 1_555 1_555
C7 C6 1_555 1_555
H4 C7 1_555 1_555
H5 C7 1_555 1_555
C8 C7 1_555 1_555
H6 C8 1_555 1_555
H7 C8 1_555 1_555
C9 C8 1_555 1_555
H8 C9 1_555 1_555
H9 C9 1_555 1_555
C10 C9 1_555 1_555
H10 C10 1_555 1_555
H11 C10 1_555 1_555
N1 C3 1_555 1_555
N2 C1 1_555 1_555
N3 C2 1_555 1_555
O1 N3 1_555 1_555
O2 N3 1_555 1_555
O3 C6 1_555 1_555
F1 C4 1_555 1_555
F2 C4 1_555 1_555
F3 C5 1_555 1_555
F4 C5 1_555 1_555
C6 N1 1_555 1_555
C10 O3 1_555 1_555
N1 N2 1_555 1_555

#END
