
#######################################################################
#
#                 Cambridge Crystallographic Data Centre
#                                CCDC 
#
#######################################################################
#
# If this CIF has been generated from an entry in the Cambridge 
# Structural Database, then it will include bibliographic, chemical, 
# crystal, experimental, refinement or atomic coordinate data resulting 
# from the CCDC's data processing and validation procedures.
#
#######################################################################

data_IVEGUM
_chemical_formula_moiety         'C12 H10 N2 O4 S1'
_chemical_name_systematic        3-((3-Nitrophenyl)sulfonyl)aniline
_symmetry_cell_setting           monoclinic
_symmetry_space_group_name_H-M   'P 21/c'
_symmetry_Int_Tables_number      14
_space_group_name_Hall           '-P 2ybc'
loop_
_symmetry_equiv_pos_site_id
_symmetry_equiv_pos_as_xyz
1 x,y,z
2 -x,1/2+y,1/2-z
3 -x,-y,-z
4 x,1/2-y,1/2+z
_cell_length_a                   12.231(2)
_cell_length_b                   21.700(4)
_cell_length_c                   10.453(2)
_cell_angle_alpha                90
_cell_angle_beta                 114.00(3)
_cell_angle_gamma                90
_cell_volume                     2534.5
_exptl_crystal_colour            white
_exptl_crystal_description       needle
_cell_formula_units_Z            8
loop_
_atom_site_label
_atom_site_type_symbol
_atom_site_fract_x
_atom_site_fract_y
_atom_site_fract_z
S1 S 0.27645(13) 0.45331(8) 0.65667(15)
N1 N -0.0233(5) 0.5288(2) 0.1680(5)
N2 N 0.5499(5) 0.3717(2) 0.4310(5)
H1 H 0.5896 0.3422 0.4148
H2 H 0.5443 0.4068 0.3904
C1 C 0.0680(5) 0.3979(3) 0.4875(6)
H3 H 0.0861 0.3697 0.5602
O1 O 0.0373(4) 0.5773(2) 0.1983(5)
O2 O -0.0997(4) 0.5170(2) 0.0552(4)
C2 C -0.0309(5) 0.3906(2) 0.3693(6)
H4 H -0.0793 0.3563 0.3586
O3 O 0.3283(3) 0.51334(18) 0.6505(4)
C3 C -0.0614(5) 0.4343(3) 0.2627(6)
H5 H -0.1309 0.4302 0.1814
O4 O 0.2499(3) 0.4371(2) 0.7735(4)
C4 C 0.0125(4) 0.4825(2) 0.2803(6)
C5 C 0.1150(4) 0.4911(2) 0.3988(5)
H6 H 0.1638 0.5252 0.4094
C6 C 0.1424(4) 0.4470(2) 0.5011(5)
C7 C 0.3686(4) 0.3955(3) 0.6348(5)
C8 C 0.3798(5) 0.3397(3) 0.7012(6)
H7 H 0.3419 0.3319 0.7607
C9 C 0.4509(6) 0.2952(3) 0.6751(7)
H8 H 0.4612 0.2571 0.7192
C10 C 0.5053(6) 0.3062(3) 0.5866(7)
H9 H 0.5500 0.2752 0.5692
C11 C 0.4950(5) 0.3627(3) 0.5228(6)
C12 C 0.4238(4) 0.4070(2) 0.5452(5)
H10 H 0.4129 0.4448 0.4997
S2 S 0.18293(14) 0.73346(7) 0.04528(16)
O5 O 0.4077(4) 0.4701(2) 0.1559(5)
O6 O 0.3208(4) 0.5163(2) 0.2686(5)
O7 O 0.2364(3) 0.78818(16) 0.0175(4)
O8 O 0.1806(3) 0.72650(18) 0.1802(4)
N3 N 0.3572(5) 0.5159(3) 0.1751(6)
N4 N -0.2307(5) 0.6334(3) -0.1538(6)
H11 H -0.2075 0.6081 -0.0844
H12 H -0.3029 0.6317 -0.2165
C13 C 0.3048(4) 0.6696(2) -0.0820(5)
H13 H 0.2925 0.7038 -0.1399
C14 C 0.3675(5) 0.6198(3) -0.0962(6)
H14 H 0.3995 0.6203 -0.1630
C15 C 0.3831(5) 0.5695(3) -0.0134(6)
H15 H 0.4233 0.5351 -0.0256
C16 C 0.3399(4) 0.5698(3) 0.0873(5)
C17 C 0.2785(4) 0.6191(2) 0.1084(5)
H16 H 0.2511 0.6190 0.1793
C18 C 0.2598(4) 0.6682(2) 0.0204(5)
C19 C 0.0361(4) 0.7266(2) -0.0823(5)
C20 C -0.0059(6) 0.7680(3) -0.1924(7)
H17 H 0.0432 0.7992 -0.2001
C21 C -0.1203(7) 0.7620(3) -0.2892(7)
H18 H -0.1488 0.7889 -0.3650
C22 C -0.1945(6) 0.7172(3) -0.2771(6)
H19 H -0.2728 0.7141 -0.3441
C23 C -0.1529(5) 0.6760(3) -0.1644(6)
C24 C -0.0346(5) 0.6817(2) -0.0674(6)
H20 H -0.0042 0.6546 0.0078
loop_
_geom_bond_atom_site_label_1
_geom_bond_atom_site_label_2
_geom_bond_site_symmetry_1
_geom_bond_site_symmetry_2
S1 O3 1_555 1_555
N1 O1 1_555 1_555
N2 H1 1_555 1_555
H2 N2 1_555 1_555
C1 H3 1_555 1_555
O2 N1 1_555 1_555
C2 C1 1_555 1_555
H4 C2 1_555 1_555
C3 C2 1_555 1_555
H5 C3 1_555 1_555
O4 S1 1_555 1_555
C4 N1 1_555 1_555
C5 C4 1_555 1_555
H6 C5 1_555 1_555
C6 S1 1_555 1_555
C7 S1 1_555 1_555
C8 C7 1_555 1_555
H7 C8 1_555 1_555
C9 C8 1_555 1_555
H8 C9 1_555 1_555
C10 C9 1_555 1_555
H9 C10 1_555 1_555
C11 N2 1_555 1_555
C12 C7 1_555 1_555
H10 C12 1_555 1_555
S2 O7 1_555 1_555
O5 N3 1_555 1_555
O6 N3 1_555 1_555
O8 S2 1_555 1_555
N3 C16 1_555 1_555
N4 H11 1_555 1_555
H12 N4 1_555 1_555
C13 H13 1_555 1_555
C14 C13 1_555 1_555
H14 C14 1_555 1_555
C15 C14 1_555 1_555
H15 C15 1_555 1_555
C16 C15 1_555 1_555
C17 C16 1_555 1_555
H16 C17 1_555 1_555
C18 S2 1_555 1_555
C19 S2 1_555 1_555
C20 C19 1_555 1_555
H17 C20 1_555 1_555
C21 C20 1_555 1_555
H18 C21 1_555 1_555
C22 C21 1_555 1_555
H19 C22 1_555 1_555
C23 N4 1_555 1_555
C24 C19 1_555 1_555
H20 C24 1_555 1_555
C1 C6 1_555 1_555
C3 C4 1_555 1_555
C5 C6 1_555 1_555
C10 C11 1_555 1_555
C11 C12 1_555 1_555
C13 C18 1_555 1_555
C17 C18 1_555 1_555
C22 C23 1_555 1_555
C23 C24 1_555 1_555

#END
