
#######################################################################
#
#                 Cambridge Crystallographic Data Centre
#                                CCDC 
#
#######################################################################
#
# If this CIF has been generated from an entry in the Cambridge 
# Structural Database, then it will include bibliographic, chemical, 
# crystal, experimental, refinement or atomic coordinate data resulting 
# from the CCDC's data processing and validation procedures.
#
#######################################################################

data_IVEHIC
_chemical_formula_moiety         'C23 H25 N1 O5 S1'
_chemical_name_systematic        
'methyl 8-((4-methylphenyl)sulfonyl)-4-phenyl-4a,5,6,7,8,8a-hexahydro-4H-pyrano[2,3-b]pyridine-2-carboxylate'
_symmetry_cell_setting           monoclinic
_symmetry_space_group_name_H-M   'P 21/c'
_symmetry_Int_Tables_number      14
_space_group_name_Hall           '-P 2ybc'
loop_
_symmetry_equiv_pos_site_id
_symmetry_equiv_pos_as_xyz
1 x,y,z
2 -x,1/2+y,1/2-z
3 -x,-y,-z
4 x,1/2-y,1/2+z
_cell_length_a                   10.1764(9)
_cell_length_b                   7.7733(7)
_cell_length_c                   26.655(2)
_cell_angle_alpha                90
_cell_angle_beta                 92.548(2)
_cell_angle_gamma                90
_cell_volume                     2106.44
_exptl_crystal_colour            colorless
_exptl_crystal_description       prismatic
_cell_formula_units_Z            4
loop_
_atom_site_label
_atom_site_type_symbol
_atom_site_fract_x
_atom_site_fract_y
_atom_site_fract_z
S1 S 0.36070(5) 0.64537(7) 0.29975(2)
N1 N 0.35878(15) 0.7962(2) 0.34297(6)
O1 O 0.14211(12) 0.83189(18) 0.36591(5)
O2 O -0.16755(15) 0.9380(2) 0.40842(7)
O3 O -0.10407(13) 0.8040(2) 0.33943(6)
O4 O 0.31305(17) 0.49248(19) 0.32221(6)
O5 O 0.48907(15) 0.6475(2) 0.28067(6)
C1 C 0.3822(2) 0.9738(3) 0.32569(8)
H1 H 0.3014 1.0214 0.3109
H2 H 0.4474 0.9730 0.3002
C2 C 0.4303(2) 1.0839(3) 0.36954(9)
H3 H 0.4363 1.2027 0.3588
H4 H 0.5175 1.0465 0.3810
C3 C 0.3379(2) 1.0718(3) 0.41260(9)
H5 H 0.2530 1.1197 0.4023
H6 H 0.3732 1.1381 0.4409
C4 C 0.32150(19) 0.8854(3) 0.42814(7)
H7 H 0.4083 0.8417 0.4392
C5 C 0.27250(17) 0.7777(3) 0.38368(7)
H8 H 0.2696 0.6565 0.3937
C6 C 0.05577(19) 0.8603(3) 0.40267(8)
C7 C 0.0898(2) 0.8723(3) 0.45105(9)
H9 H 0.0238 0.8902 0.4735
C8 C 0.2282(2) 0.8588(3) 0.47147(8)
H10 H 0.2432 0.9537 0.4952
C9 C 0.2583(2) 0.6929(3) 0.49946(7)
C10 C 0.3653(3) 0.6866(4) 0.53318(9)
H11 H 0.4132 0.7864 0.5400
C11 C 0.4025(3) 0.5361(5) 0.55678(10)
H12 H 0.4758 0.5344 0.5789
C12 C 0.3323(3) 0.3892(4) 0.54791(11)
H13 H 0.3570 0.2874 0.5640
C13 C 0.2249(3) 0.3929(4) 0.51494(11)
H14 H 0.1765 0.2930 0.5088
C14 C 0.1882(2) 0.5432(3) 0.49094(9)
H15 H 0.1152 0.5438 0.4687
C15 C -0.0839(2) 0.8742(3) 0.38420(9)
C16 C -0.2376(2) 0.8061(4) 0.31915(11)
H16 H -0.2914 0.7353 0.3395
H17 H -0.2402 0.7626 0.2854
H18 H -0.2704 0.9220 0.3191
C17 C 0.25136(19) 0.7090(3) 0.25031(7)
C18 C 0.1184(2) 0.6769(3) 0.25201(8)
H19 H 0.0846 0.6237 0.2799
C19 C 0.0362(2) 0.7242(4) 0.21205(9)
H20 H -0.0534 0.7022 0.2133
C20 C 0.0834(2) 0.8034(3) 0.17020(9)
C21 C 0.2160(3) 0.8348(3) 0.16960(9)
H21 H 0.2496 0.8887 0.1418
C22 C 0.3003(2) 0.7890(3) 0.20884(8)
H22 H 0.3898 0.8116 0.2075
C23 C -0.0066(3) 0.8544(4) 0.12633(11)
H23 H 0.0097 0.9720 0.1176
H24 H -0.0965 0.8420 0.1353
H25 H 0.0094 0.7816 0.0982
loop_
_geom_bond_atom_site_label_1
_geom_bond_atom_site_label_2
_geom_bond_site_symmetry_1
_geom_bond_site_symmetry_2
S1 N1 1_555 1_555
N1 C1 1_555 1_555
O1 C5 1_555 1_555
O2 C15 1_555 1_555
O3 C15 1_555 1_555
O4 S1 1_555 1_555
O5 S1 1_555 1_555
C1 H1 1_555 1_555
H2 C1 1_555 1_555
C2 C1 1_555 1_555
H3 C2 1_555 1_555
H4 C2 1_555 1_555
C3 C2 1_555 1_555
H5 C3 1_555 1_555
H6 C3 1_555 1_555
C4 C3 1_555 1_555
H7 C4 1_555 1_555
C5 N1 1_555 1_555
H8 C5 1_555 1_555
C6 O1 1_555 1_555
C7 C6 1_555 1_555
H9 C7 1_555 1_555
C8 C4 1_555 1_555
H10 C8 1_555 1_555
C9 C8 1_555 1_555
C10 C9 1_555 1_555
H11 C10 1_555 1_555
C11 C10 1_555 1_555
H12 C11 1_555 1_555
C12 C11 1_555 1_555
H13 C12 1_555 1_555
C13 C12 1_555 1_555
H14 C13 1_555 1_555
C14 C9 1_555 1_555
H15 C14 1_555 1_555
C15 C6 1_555 1_555
C16 O3 1_555 1_555
H16 C16 1_555 1_555
H17 C16 1_555 1_555
H18 C16 1_555 1_555
C17 S1 1_555 1_555
C18 C17 1_555 1_555
H19 C18 1_555 1_555
C19 C18 1_555 1_555
H20 C19 1_555 1_555
C20 C19 1_555 1_555
C21 C20 1_555 1_555
H21 C21 1_555 1_555
C22 C17 1_555 1_555
H22 C22 1_555 1_555
C23 C20 1_555 1_555
H23 C23 1_555 1_555
H24 C23 1_555 1_555
H25 C23 1_555 1_555
C4 C5 1_555 1_555
C7 C8 1_555 1_555
C13 C14 1_555 1_555
C21 C22 1_555 1_555

#END
