
#######################################################################
#
#                 Cambridge Crystallographic Data Centre
#                                CCDC 
#
#######################################################################
#
# If this CIF has been generated from an entry in the Cambridge 
# Structural Database, then it will include bibliographic, chemical, 
# crystal, experimental, refinement or atomic coordinate data resulting 
# from the CCDC's data processing and validation procedures.
#
#######################################################################

data_IVEJOJ
_chemical_formula_moiety         'C27 H23 Cl3 N4 O2'
_chemical_name_systematic        
N-(6-(4-Chlorophenyl)-7-(2,4-dichlorophenyl)-2,2-dimethyl-3,4-dihydro-2H-pyrano[2,3-b]pyridin-4-yl)-5-methyl-1H-pyrazole-3-carboxamide
_symmetry_cell_setting           orthorhombic
_symmetry_space_group_name_H-M   'P 21 21 21'
_symmetry_Int_Tables_number      19
_space_group_name_Hall           'P 2ac 2ab'
loop_
_symmetry_equiv_pos_site_id
_symmetry_equiv_pos_as_xyz
1 x,y,z
2 1/2-x,-y,1/2+z
3 1/2+x,1/2-y,-z
4 -x,1/2+y,1/2-z
_cell_length_a                   11.1695(8)
_cell_length_b                   11.2252(8)
_cell_length_c                   20.0044(14)
_cell_angle_alpha                90
_cell_angle_beta                 90
_cell_angle_gamma                90
_cell_volume                     2508.15
_exptl_crystal_description       block
_cell_formula_units_Z            4
loop_
_atom_site_label
_atom_site_type_symbol
_atom_site_fract_x
_atom_site_fract_y
_atom_site_fract_z
Cl1 Cl 0.01424(6) 0.08225(6) 0.78268(3)
Cl2 Cl 0.22508(7) -0.31965(6) 0.86762(3)
Cl3 Cl 0.47621(7) 0.38814(7) 0.83419(4)
O1 O -0.0165(2) -0.03528(17) 0.48727(9)
N1 N -0.0428(2) 0.3387(2) 0.48947(11)
H1 H -0.1202 0.3485 0.4959
N2 N 0.0621(2) -0.0343(2) 0.58981(11)
O2 O 0.1502(4) 0.4320(3) 0.48809(19)
N3 N -0.0387(3) 0.7237(4) 0.55691(18)
H2 H -0.0218 0.7922 0.5761
N4 N 0.0449(3) 0.6391(3) 0.54279(19)
C1 C -0.2560(5) 0.7705(5) 0.5492(3)
H3 H -0.2744 0.7748 0.5970
H4 H -0.3248 0.7373 0.5252
H5 H -0.2389 0.8507 0.5323
C2 C -0.1488(6) 0.6921(6) 0.5387(4)
C3 C -0.1412(4) 0.5780(4) 0.5129(2)
H6 H -0.2046 0.5292 0.4969
C4 C -0.0195(5) 0.5506(4) 0.5157(2)
C5 C 0.0426(6) 0.4382(4) 0.4962(2)
C6 C 0.0078(3) 0.2234(2) 0.47160(12)
H7 H 0.0774 0.2371 0.4411
C7 C -0.0846(3) 0.1485(2) 0.43447(13)
H8 H -0.1595 0.1455 0.4609
H9 H -0.1030 0.1865 0.3910
C8 C -0.0398(3) 0.0222(2) 0.42245(12)
C9 C 0.0334(3) 0.0303(2) 0.53655(12)
C10 C 0.1160(2) 0.0188(2) 0.64151(12)
C11 C 0.1486(2) 0.1395(2) 0.64060(12)
C12 C 0.1116(2) 0.2063(2) 0.58501(12)
H10 H 0.1282 0.2893 0.5837
C13 C 0.0516(3) 0.1543(2) 0.53213(13)
C14 C 0.1429(2) -0.0621(2) 0.69920(12)
C15 C 0.2050(2) -0.1688(2) 0.68736(13)
H11 H 0.2300 -0.1874 0.6432
C16 C 0.2307(2) -0.2477(2) 0.73867(12)
H12 H 0.2734 -0.3192 0.7300
C17 C 0.1930(2) -0.2206(2) 0.80293(13)
C18 C 0.1286(2) -0.1177(2) 0.81690(12)
H13 H 0.1019 -0.1008 0.8610
C19 C 0.1043(2) -0.0403(2) 0.76440(12)
C20 C 0.2261(2) 0.1980(2) 0.69154(12)
C21 C 0.1953(2) 0.3082(2) 0.71856(13)
H14 H 0.1211 0.3436 0.7067
C22 C 0.2713(3) 0.3675(2) 0.76269(13)
H15 H 0.2490 0.4419 0.7816
C23 C 0.3800(2) 0.3153(3) 0.77826(13)
C24 C 0.4135(2) 0.2071(3) 0.75223(14)
H16 H 0.4885 0.1730 0.7637
C25 C 0.3369(2) 0.1482(2) 0.70913(13)
H17 H 0.3596 0.0732 0.6912
C26 C 0.0777(3) 0.0194(3) 0.38271(15)
H18 H 0.1405 0.0599 0.4082
H19 H 0.0663 0.0600 0.3398
H20 H 0.1012 -0.0635 0.3747
C27 C -0.1349(3) -0.0550(3) 0.39027(14)
H21 H -0.1069 -0.1377 0.3886
H22 H -0.1505 -0.0266 0.3448
H23 H -0.2087 -0.0507 0.4166
C28? C -0.2003(6) 0.8283(6) 0.5682(3)
C29? C -0.1637(8) 0.7114(8) 0.5382(4)
C30? C -0.0549(6) 0.6510(6) 0.5388(3)
C31? C -0.0791(6) 0.5427(5) 0.5056(3)
C32? C 0.0015(7) 0.4395(5) 0.4966(3)
H24? H -0.2398 0.8770 0.5341
H25? H -0.1292 0.8700 0.5848
H26? H -0.2557 0.8141 0.6053
H27? H -0.3138 0.6670 0.4944
H28? H 0.0191 0.6769 0.5572
N5? N -0.2402(5) 0.6444(5) 0.5036(3)
N6? N -0.1941(5) 0.5384(5) 0.4840(3)
O3? O 0.1094(7) 0.4445(5) 0.4977(3)
loop_
_geom_bond_atom_site_label_1
_geom_bond_atom_site_label_2
_geom_bond_site_symmetry_1
_geom_bond_site_symmetry_2
Cl1 C19 1_555 1_555
Cl2 C17 1_555 1_555
Cl3 C23 1_555 1_555
O1 C8 1_555 1_555
N1 H1 1_555 1_555
N2 C9 1_555 1_555
O2 C5 1_555 1_555
N3 H2 1_555 1_555
N4 N3 1_555 1_555
C1 H3 1_555 1_555
H4 C1 1_555 1_555
H5 C1 1_555 1_555
C2 N3 1_555 1_555
C3 C2 1_555 1_555
H6 C3 1_555 1_555
C4 N4 1_555 1_555
C5 N1 1_555 1_555
C6 N1 1_555 1_555
H7 C6 1_555 1_555
C7 C6 1_555 1_555
H8 C7 1_555 1_555
H9 C7 1_555 1_555
C8 C7 1_555 1_555
C9 O1 1_555 1_555
C10 N2 1_555 1_555
C11 C10 1_555 1_555
C12 C11 1_555 1_555
H10 C12 1_555 1_555
C13 C6 1_555 1_555
C14 C10 1_555 1_555
C15 C14 1_555 1_555
H11 C15 1_555 1_555
C16 C15 1_555 1_555
H12 C16 1_555 1_555
C17 C16 1_555 1_555
C18 C17 1_555 1_555
H13 C18 1_555 1_555
C19 C14 1_555 1_555
C20 C11 1_555 1_555
C21 C20 1_555 1_555
H14 C21 1_555 1_555
C22 C21 1_555 1_555
H15 C22 1_555 1_555
C23 C22 1_555 1_555
C24 C23 1_555 1_555
H16 C24 1_555 1_555
C25 C20 1_555 1_555
H17 C25 1_555 1_555
C26 C8 1_555 1_555
H18 C26 1_555 1_555
H19 C26 1_555 1_555
H20 C26 1_555 1_555
C27 C8 1_555 1_555
H21 C27 1_555 1_555
H22 C27 1_555 1_555
H23 C27 1_555 1_555
C1 C2 1_555 1_555
C3 C4 1_555 1_555
C4 C5 1_555 1_555
C9 C13 1_555 1_555
C12 C13 1_555 1_555
C18 C19 1_555 1_555
C24 C25 1_555 1_555

#END
