
#######################################################################
#
#                 Cambridge Crystallographic Data Centre
#                                CCDC 
#
#######################################################################
#
# If this CIF has been generated from an entry in the Cambridge 
# Structural Database, then it will include bibliographic, chemical, 
# crystal, experimental, refinement or atomic coordinate data resulting 
# from the CCDC's data processing and validation procedures.
#
#######################################################################

data_IVEJAW
_chemical_formula_moiety         'C30 H24 Br1 N1 O1'
_chemical_name_systematic        
(6aS,7R,12S,13aR)-2-bromo-7,12-diphenyl-6a,11,12,13a-tetrahydro-6H,7H-chromeno[4,3-b]pyrrolo[3,2,1-ij]quinoline
_symmetry_cell_setting           orthorhombic
_symmetry_space_group_name_H-M   'P 21 21 21'
_symmetry_Int_Tables_number      19
_space_group_name_Hall           'P 2ac 2ab'
loop_
_symmetry_equiv_pos_site_id
_symmetry_equiv_pos_as_xyz
1 x,y,z
2 1/2-x,-y,1/2+z
3 -x,1/2+y,1/2-z
4 1/2+x,1/2-y,-z
_cell_length_a                   8.7023(14)
_cell_length_b                   11.250(2)
_cell_length_c                   23.406(3)
_cell_angle_alpha                90
_cell_angle_beta                 90
_cell_angle_gamma                90
_cell_volume                     2291.47
_exptl_crystal_colour            colorless
_exptl_crystal_description       plate
_chemical_melting_point          '167-168 deg.C'
_cell_formula_units_Z            4
loop_
_atom_site_label
_atom_site_type_symbol
_atom_site_fract_x
_atom_site_fract_y
_atom_site_fract_z
Br1 Br 0.01111(4) 0.03711(3) -0.09411(2)
O1 O 0.1861(2) 0.28627(17) -0.31231(9)
N1 N 0.1441(2) -0.01315(19) -0.34489(10)
C1 C 0.1474(3) 0.2225(2) -0.26475(13)
C2 C 0.1950(3) 0.2693(2) -0.21285(14)
H1 H 0.2559 0.3394 -0.2121
C3 C 0.1542(3) 0.2147(3) -0.16233(13)
H2 H 0.1864 0.2471 -0.1268
C4 C 0.0658(3) 0.1121(3) -0.16380(12)
C5 C 0.0195(3) 0.0633(2) -0.21538(11)
H3 H -0.0411 -0.0069 -0.2158
C6 C 0.0618(3) 0.1172(2) -0.26655(11)
C7 C 0.0208(3) 0.0635(2) -0.32344(11)
H4 H -0.0771 0.0174 -0.3203
C8 C 0.2112(3) -0.1113(2) -0.31054(13)
H5 H 0.1275 -0.1524 -0.2890
C9 C 0.2778(3) -0.1976(3) -0.35654(14)
H6 H 0.3913 -0.1921 -0.3580
H7 H 0.2483 -0.2808 -0.3482
C10 C 0.2074(3) -0.1561(2) -0.41201(13)
C11 C 0.1296(3) -0.0492(2) -0.40139(12)
C12 C 0.2113(3) -0.2017(3) -0.46662(14)
H8 H 0.2639 -0.2738 -0.4746
C13 C 0.1362(3) -0.1395(3) -0.51004(14)
H9 H 0.1389 -0.1694 -0.5480
C14 C 0.0581(3) -0.0354(3) -0.49876(12)
H10 H 0.0076 0.0047 -0.5291
C15 C 0.0515(3) 0.0125(2) -0.44364(12)
C16 C -0.0383(3) 0.1226(2) -0.42798(12)
H11 H -0.0062 0.1869 -0.4549
C17 C 0.0020(3) 0.1652(2) -0.36693(10)
H12 H -0.0826 0.2183 -0.3534
C18 C 0.1506(3) 0.2363(2) -0.36704(13)
H13 H 0.2361 0.1838 -0.3791
H14 H 0.1421 0.3012 -0.3954
C19 C 0.3329(3) -0.0689(2) -0.26904(13)
C20 C 0.4429(3) 0.0149(3) -0.28503(14)
H15 H 0.4399 0.0483 -0.3223
C21 C 0.5565(3) 0.0500(3) -0.24711(15)
H16 H 0.6292 0.1086 -0.2582
C22 C 0.5645(4) 0.0002(3) -0.19348(16)
H17 H 0.6437 0.0232 -0.1678
C23 C 0.4575(4) -0.0830(3) -0.17717(15)
H18 H 0.4626 -0.1175 -0.1402
C24 C 0.3418(4) -0.1167(3) -0.21478(14)
H19 H 0.2676 -0.1736 -0.2030
C25 C -0.2115(3) 0.1051(2) -0.43551(11)
C26 C -0.2769(3) -0.0072(2) -0.43994(12)
H20 H -0.2135 -0.0756 -0.4369
C27 C -0.4342(3) -0.0206(3) -0.44872(13)
H21 H -0.4773 -0.0979 -0.4519
C28 C -0.5273(3) 0.0780(3) -0.45279(12)
H22 H -0.6343 0.0688 -0.4595
C29 C -0.4647(3) 0.1908(3) -0.44706(12)
H23 H -0.5293 0.2588 -0.4487
C30 C -0.3076(3) 0.2042(3) -0.43891(12)
H24 H -0.2650 0.2817 -0.4356
loop_
_geom_bond_atom_site_label_1
_geom_bond_atom_site_label_2
_geom_bond_site_symmetry_1
_geom_bond_site_symmetry_2
Br1 C4 1_555 1_555
O1 C1 1_555 1_555
N1 C7 1_555 1_555
C1 C2 1_555 1_555
C2 H1 1_555 1_555
C3 C2 1_555 1_555
H2 C3 1_555 1_555
C4 C3 1_555 1_555
C5 C4 1_555 1_555
H3 C5 1_555 1_555
C6 C1 1_555 1_555
C7 C6 1_555 1_555
H4 C7 1_555 1_555
C8 N1 1_555 1_555
H5 C8 1_555 1_555
C9 C8 1_555 1_555
H6 C9 1_555 1_555
H7 C9 1_555 1_555
C10 C9 1_555 1_555
C11 N1 1_555 1_555
C12 C10 1_555 1_555
H8 C12 1_555 1_555
C13 C12 1_555 1_555
H9 C13 1_555 1_555
C14 C13 1_555 1_555
H10 C14 1_555 1_555
C15 C11 1_555 1_555
C16 C15 1_555 1_555
H11 C16 1_555 1_555
C17 C7 1_555 1_555
H12 C17 1_555 1_555
C18 O1 1_555 1_555
H13 C18 1_555 1_555
H14 C18 1_555 1_555
C19 C8 1_555 1_555
C20 C19 1_555 1_555
H15 C20 1_555 1_555
C21 C20 1_555 1_555
H16 C21 1_555 1_555
C22 C21 1_555 1_555
H17 C22 1_555 1_555
C23 C22 1_555 1_555
H18 C23 1_555 1_555
C24 C19 1_555 1_555
H19 C24 1_555 1_555
C25 C16 1_555 1_555
C26 C25 1_555 1_555
H20 C26 1_555 1_555
C27 C26 1_555 1_555
H21 C27 1_555 1_555
C28 C27 1_555 1_555
H22 C28 1_555 1_555
C29 C28 1_555 1_555
H23 C29 1_555 1_555
C30 C25 1_555 1_555
H24 C30 1_555 1_555
C5 C6 1_555 1_555
C10 C11 1_555 1_555
C14 C15 1_555 1_555
C16 C17 1_555 1_555
C17 C18 1_555 1_555
C23 C24 1_555 1_555
C29 C30 1_555 1_555

#END
