
#######################################################################
#
#                 Cambridge Crystallographic Data Centre
#                                CCDC 
#
#######################################################################
#
# If this CIF has been generated from an entry in the Cambridge 
# Structural Database, then it will include bibliographic, chemical, 
# crystal, experimental, refinement or atomic coordinate data resulting 
# from the CCDC's data processing and validation procedures.
#
#######################################################################

data_IVEJAV
_chemical_formula_moiety         'C21 H24 N1 O2 1+,Cl1 1-'
_chemical_name_systematic        
'11-Benzyl-6-hydroxy-8-oxa-11-azoniatetracyclo[10.3.1.0^1,9^.0^2,7^]hexadeca-2,4,6-triene chloride'
_symmetry_cell_setting           triclinic
_symmetry_space_group_name_H-M   'P -1'
_symmetry_Int_Tables_number      2
_space_group_name_Hall           '-P 1'
loop_
_symmetry_equiv_pos_site_id
_symmetry_equiv_pos_as_xyz
1 x,y,z
2 -x,-y,-z
_cell_length_a                   7.783(3)
_cell_length_b                   10.028(4)
_cell_length_c                   12.657(5)
_cell_angle_alpha                103.490(5)
_cell_angle_beta                 107.365(5)
_cell_angle_gamma                93.687(6)
_cell_volume                     907.221
_exptl_crystal_colour            colorless
_exptl_crystal_description       prism
_cell_formula_units_Z            2
loop_
_atom_site_label
_atom_site_type_symbol
_atom_site_fract_x
_atom_site_fract_y
_atom_site_fract_z
Cl1 Cl 0.39548(7) 0.41458(6) -0.39869(4)
C1 C 0.1482(3) 0.5271(2) 0.20179(17)
H1 H 0.0156 0.5161 0.1618
H2 H 0.2000 0.6253 0.2184
N1 N 0.1853(2) 0.48195(18) 0.31120(14)
H3 H 0.3095 0.5075 0.3494
C2 C 0.1471(3) 0.3254(2) 0.29681(19)
H4 H 0.1965 0.3087 0.3744
C3 C -0.0545(3) 0.2675(3) 0.2493(2)
H5 H -0.1181 0.3223 0.2977
H6 H -0.0693 0.1709 0.2549
C4 C -0.1448(3) 0.2692(2) 0.1251(2)
H7 H -0.1739 0.3635 0.1234
H8 H -0.2608 0.2048 0.0931
C5 C -0.0271(3) 0.2278(2) 0.04865(19)
H9 H -0.0776 0.1735 -0.0287
C6 C 0.1796(3) 0.2796(2) 0.10486(17)
C7 C 0.2686(3) 0.2334(2) 0.01355(17)
C8 C 0.3182(3) 0.1089(2) -0.03194(19)
H10 H 0.3116 0.0327 0.0000
C9 C 0.3782(3) 0.0984(2) -0.1259(2)
H11 H 0.4155 0.0141 -0.1576
C10 C 0.3849(3) 0.2079(3) -0.17434(19)
H12 H 0.4261 0.1975 -0.2389
C11 C 0.3323(3) 0.3331(2) -0.12999(18)
O1 O 0.3273(2) 0.44296(17) -0.17528(13)
H13 H 0.345(4) 0.433(3) -0.250(3)
C12 C 0.2767(3) 0.3427(2) -0.03484(17)
O2 O 0.22198(19) 0.46093(15) 0.02040(12)
C13 C 0.2386(3) 0.4340(2) 0.12945(17)
H14 H 0.3715 0.4518 0.1738
C14 C 0.2490(3) 0.2478(2) 0.22062(18)
H15 H 0.3816 0.2789 0.2557
H16 H 0.2256 0.1468 0.2114
C15 C 0.0918(3) 0.5608(2) 0.39016(18)
H17 H -0.0407 0.5461 0.3492
H18 H 0.1116 0.5228 0.4577
C16 C 0.1590(3) 0.7140(2) 0.43101(18)
C17 C 0.3078(3) 0.7660(3) 0.5293(2)
H19 H 0.3697 0.7046 0.5689
C18 C 0.3663(3) 0.9064(3) 0.5696(2)
H20 H 0.4680 0.9412 0.6373
C19 C 0.2794(4) 0.9969(3) 0.5131(2)
H21 H 0.3211 1.0936 0.5410
C20 C 0.1306(4) 0.9458(3) 0.4153(2)
H22 H 0.0694 1.0075 0.3756
C21 C 0.0709(3) 0.8050(3) 0.3752(2)
H23 H -0.0322 0.7706 0.3083
loop_
_geom_bond_atom_site_label_1
_geom_bond_atom_site_label_2
_geom_bond_site_symmetry_1
_geom_bond_site_symmetry_2
C1 H1 1_555 1_555
H2 C1 1_555 1_555
N1 C1 1_555 1_555
H3 N1 1_555 1_555
C2 N1 1_555 1_555
H4 C2 1_555 1_555
C3 C2 1_555 1_555
H5 C3 1_555 1_555
H6 C3 1_555 1_555
C4 C3 1_555 1_555
H7 C4 1_555 1_555
H8 C4 1_555 1_555
C5 C4 1_555 1_555
H9 C5 1_555 1_555
C6 C5 1_555 1_555
C7 C6 1_555 1_555
C8 C7 1_555 1_555
H10 C8 1_555 1_555
C9 C8 1_555 1_555
H11 C9 1_555 1_555
C10 C9 1_555 1_555
H12 C10 1_555 1_555
C11 C10 1_555 1_555
O1 C11 1_555 1_555
H13 O1 1_555 1_555
C12 C7 1_555 1_555
O2 C12 1_555 1_555
C13 C1 1_555 1_555
H14 C13 1_555 1_555
C14 C2 1_555 1_555
H15 C14 1_555 1_555
H16 C14 1_555 1_555
C15 N1 1_555 1_555
H17 C15 1_555 1_555
H18 C15 1_555 1_555
C16 C15 1_555 1_555
C17 C16 1_555 1_555
H19 C17 1_555 1_555
C18 C17 1_555 1_555
H20 C18 1_555 1_555
C19 C18 1_555 1_555
H21 C19 1_555 1_555
C20 C19 1_555 1_555
H22 C20 1_555 1_555
C21 C16 1_555 1_555
H23 C21 1_555 1_555
C6 C13 1_555 1_555
C6 C14 1_555 1_555
C11 C12 1_555 1_555
O2 C13 1_555 1_555
C20 C21 1_555 1_555

#END
