
#######################################################################
#
#                 Cambridge Crystallographic Data Centre
#                                CCDC 
#
#######################################################################
#
# If this CIF has been generated from an entry in the Cambridge 
# Structural Database, then it will include bibliographic, chemical, 
# crystal, experimental, refinement or atomic coordinate data resulting 
# from the CCDC's data processing and validation procedures.
#
#######################################################################

data_IVEJUP
_chemical_formula_moiety         'C37 H43 N5 O7'
_chemical_name_systematic        
N-(t-Butoxycarbonyl)tyrosyl-N-(3-((1-amino-1-oxo-3-phenylpropan-2-yl)amino)-3-oxo-1-phenylprop-1-en-2-yl)prolinamide
_symmetry_cell_setting           monoclinic
_symmetry_space_group_name_H-M   'P 21'
_symmetry_Int_Tables_number      4
_space_group_name_Hall           'P 2yb'
loop_
_symmetry_equiv_pos_site_id
_symmetry_equiv_pos_as_xyz
1 x,y,z
2 -x,1/2+y,-z
_cell_length_a                   13.401(4)
_cell_length_b                   8.9611(15)
_cell_length_c                   15.027(4)
_cell_angle_alpha                90
_cell_angle_beta                 103.31(3)
_cell_angle_gamma                90
_cell_volume                     1756.09
_exptl_crystal_colour            colorless
_exptl_crystal_description       tablets
_cell_formula_units_Z            2
loop_
_atom_site_label
_atom_site_type_symbol
_atom_site_fract_x
_atom_site_fract_y
_atom_site_fract_z
O1 O 0.4019(2) 0.3194(4) 0.0157(3)
O2 O 0.7066(2) 0.3309(3) 0.0829(3)
C1 C 0.8307(4) 0.7981(5) 0.1795(4)
N1 N 0.6266(3) 0.5317(4) 0.1212(3)
H1 H 0.627(3) 0.619(4) 0.144(3)
N2 N 0.4834(4) 0.5024(5) -0.0424(3)
H2 H 0.4466 0.4893 -0.0968
H3 H 0.5302 0.5700 -0.0323
N3 N 0.7858(3) 0.7151(4) 0.1049(4)
H4 H 0.749(4) 0.755(5) 0.081(4)
C2 C 0.4680(4) 0.4181(5) 0.0261(4)
C3 C 0.5339(3) 0.4489(5) 0.1217(4)
H5 H 0.5547 0.3520 0.1503
C4 C 0.9904(4) 0.5465(5) 0.1014(4)
C5 C 1.0713(4) 0.4482(5) 0.1144(5)
H6 H 1.0617 0.3509 0.1324
C6 C 0.8014(4) 0.5588(4) 0.1044(4)
C7 C 1.0087(4) 0.6912(5) 0.0760(4)
H7 H 0.9560 0.7610 0.0671
C8 C 0.8894(4) 0.4919(4) 0.1071(4)
H8 H 0.8867 0.3890 0.1140
C9 C 1.1040(5) 0.7332(6) 0.0638(5)
H9 H 1.1147 0.8305 0.0466
C10 C 0.7080(4) 0.4637(5) 0.1021(4)
C11 C 0.6060(5) 0.4531(6) 0.3251(4)
H10 H 0.6477 0.4152 0.2888
C12 C 0.5125(5) 0.5195(5) 0.2821(4)
C13 C 0.4551(5) 0.5817(6) 0.3393(5)
H11 H 0.3936 0.6299 0.3140
C14 C 0.6388(6) 0.4416(7) 0.4183(5)
H12 H 0.7000 0.3932 0.4441
C15 C 1.1831(4) 0.6310(6) 0.0771(5)
H13 H 1.2474 0.6588 0.0692
C16 C 0.4698(4) 0.5270(5) 0.1796(4)
H14 H 0.4626 0.6311 0.1617
H15 H 0.4018 0.4832 0.1658
C17 C 0.5806(7) 0.5019(8) 0.4731(5)
H16 H 0.6027 0.4955 0.5364
C18 C 0.4889(7) 0.5726(8) 0.4345(6)
H17 H 0.4497 0.6140 0.4719
C19 C 1.1659(5) 0.4890(6) 0.1018(5)
H18 H 1.2185 0.4191 0.1102
O3 O 0.6404(2) 0.8343(4) 0.2213(2)
O4 O 1.1070(4) 0.9979(4) 0.6493(3)
H19 H 1.116(5) 1.055(6) 0.704(5)
O5 O 0.3796(3) 0.9766(3) 0.2875(3)
O6 O 0.4962(3) 1.1282(4) 0.2431(3)
O7 O 0.8927(3) 0.7483(3) 0.2455(3)
N4 N 0.7659(3) 1.0052(4) 0.2550(3)
N5 N 0.5445(3) 0.9460(5) 0.3487(3)
H20 H 0.518(4) 0.857(6) 0.369(4)
C20 C 0.8285(5) 1.0065(6) 0.5648(5)
H21 H 0.7720 1.0545 0.5777
C21 C 0.8009(4) 0.9624(4) 0.1735(4)
H22 H 0.7479 0.9825 0.1180
C22 C 0.8959(4) 1.0638(5) 0.1781(4)
H23 H 0.9512 1.0079 0.1620
H24 H 0.8786 1.1476 0.1365
C23 C 0.8279(4) 1.1275(5) 0.3057(4)
H25 H 0.8397 1.1127 0.3712
H26 H 0.7951 1.2235 0.2899
C24 C 0.7061(5) 0.8651(6) 0.4403(4)
H27 H 0.6622 0.8573 0.4832
H28 H 0.7095 0.7666 0.4144
C25 C 0.9244(5) 1.0399(5) 0.6163(5)
H29 H 0.9316 1.1083 0.6639
C26 C 0.2878(4) 1.0655(6) 0.2462(5)
C27 C 0.6855(4) 0.9332(5) 0.2728(4)
C28 C 1.0104(5) 0.9730(5) 0.5982(5)
C29 C 0.8133(5) 0.9046(5) 0.4946(4)
C30 C 0.8997(5) 0.8393(6) 0.4772(5)
H30 H 0.8923 0.7701 0.4300
C31 C 0.9964(5) 0.8724(6) 0.5269(5)
H31 H 1.0530 0.8267 0.5125
C32 C 0.9263(4) 1.1164(6) 0.2740(5)
H32 H 0.9597 1.2129 0.2772
H33 H 0.9728 1.0460 0.3114
C33 C 0.2755(5) 1.0745(6) 0.1436(4)
H34 H 0.2700 0.9757 0.1183
H35 H 0.3341 1.1237 0.1303
H36 H 0.2146 1.1300 0.1170
C34 C 0.4753(5) 1.0254(6) 0.2888(5)
C35 C 0.2035(5) 0.9694(8) 0.2694(5)
H37 H 0.2005 0.8755 0.2380
H38 H 0.1389 1.0197 0.2505
H39 H 0.2181 0.9523 0.3341
C36 C 0.2964(5) 1.2179(7) 0.2919(5)
H40 H 0.3507 1.2735 0.2755
H41 H 0.3110 1.2055 0.3571
H42 H 0.2328 1.2708 0.2720
C37 C 0.6527(4) 0.9685(5) 0.3625(4)
H43 H 0.6694 1.0726 0.3799
loop_
_geom_bond_atom_site_label_1
_geom_bond_atom_site_label_2
_geom_bond_site_symmetry_1
_geom_bond_site_symmetry_2
O1 C2 1_555 1_555
O2 C10 1_555 1_555
C1 N3 1_555 1_555
N1 H1 1_555 1_555
N2 H2 1_555 1_555
H3 N2 1_555 1_555
N3 H4 1_555 1_555
C2 N2 1_555 1_555
C3 N1 1_555 1_555
H5 C3 1_555 1_555
C4 C5 1_555 1_555
C5 H6 1_555 1_555
C6 N3 1_555 1_555
C7 C4 1_555 1_555
H7 C7 1_555 1_555
C8 C4 1_555 1_555
H8 C8 1_555 1_555
C9 C7 1_555 1_555
H9 C9 1_555 1_555
C10 N1 1_555 1_555
C11 H10 1_555 1_555
C12 C11 1_555 1_555
C13 C12 1_555 1_555
H11 C13 1_555 1_555
C14 C11 1_555 1_555
H12 C14 1_555 1_555
C15 C9 1_555 1_555
H13 C15 1_555 1_555
C16 C3 1_555 1_555
H14 C16 1_555 1_555
H15 C16 1_555 1_555
C17 C14 1_555 1_555
H16 C17 1_555 1_555
C18 C13 1_555 1_555
H17 C18 1_555 1_555
C19 C5 1_555 1_555
H18 C19 1_555 1_555
O3 C27 1_555 1_555
O4 H19 1_555 1_555
O5 C26 1_555 1_555
O6 C34 1_555 1_555
O7 C1 1_555 1_555
N4 C21 1_555 1_555
N5 H20 1_555 1_555
C20 H21 1_555 1_555
C21 C1 1_555 1_555
H22 C21 1_555 1_555
C22 C21 1_555 1_555
H23 C22 1_555 1_555
H24 C22 1_555 1_555
C23 N4 1_555 1_555
H25 C23 1_555 1_555
H26 C23 1_555 1_555
C24 H27 1_555 1_555
H28 C24 1_555 1_555
C25 C20 1_555 1_555
H29 C25 1_555 1_555
C26 C33 1_555 1_555
C27 N4 1_555 1_555
C28 O4 1_555 1_555
C29 C20 1_555 1_555
C30 C29 1_555 1_555
H30 C30 1_555 1_555
C31 C28 1_555 1_555
H31 C31 1_555 1_555
C32 C22 1_555 1_555
H32 C32 1_555 1_555
H33 C32 1_555 1_555
C33 H34 1_555 1_555
H35 C33 1_555 1_555
H36 C33 1_555 1_555
C34 O5 1_555 1_555
C35 C26 1_555 1_555
H37 C35 1_555 1_555
H38 C35 1_555 1_555
H39 C35 1_555 1_555
C36 C26 1_555 1_555
H40 C36 1_555 1_555
H41 C36 1_555 1_555
H42 C36 1_555 1_555
C37 N5 1_555 1_555
H43 C37 1_555 1_555
C2 C3 1_555 1_555
C6 C8 1_555 1_555
C6 C10 1_555 1_555
C12 C16 1_555 1_555
C15 C19 1_555 1_555
C17 C18 1_555 1_555
N5 C34 1_555 1_555
C23 C32 1_555 1_555
C24 C29 1_555 1_555
C24 C37 1_555 1_555
C25 C28 1_555 1_555
C27 C37 1_555 1_555
C30 C31 1_555 1_555

#END
