
#######################################################################
#
#                 Cambridge Crystallographic Data Centre
#                                CCDC 
#
#######################################################################
#
# If this CIF has been generated from an entry in the Cambridge 
# Structural Database, then it will include bibliographic, chemical, 
# crystal, experimental, refinement or atomic coordinate data resulting 
# from the CCDC's data processing and validation procedures.
#
#######################################################################

data_IVEMUT
_chemical_formula_moiety         'C34 H30 Br1 N1 O6'
_chemical_name_systematic        
'methyl 1-((4-bromobenzoyl)oxy)-8b-hydroxy-3a-(4-methoxyphenyl)-4-methyl-3-phenyl-1,2,3,3a,4,8b-hexahydrocyclopenta[b]indole-2-carboxylate'
_symmetry_cell_setting           triclinic
_symmetry_space_group_name_H-M   'P -1'
_symmetry_Int_Tables_number      2
_space_group_name_Hall           '-P 1'
loop_
_symmetry_equiv_pos_site_id
_symmetry_equiv_pos_as_xyz
1 x,y,z
2 -x,-y,-z
_cell_length_a                   9.979(4)
_cell_length_b                   11.195(4)
_cell_length_c                   13.087(5)
_cell_angle_alpha                77.795(15)
_cell_angle_beta                 81.273(19)
_cell_angle_gamma                83.202(16)
_cell_volume                     1406.78
_exptl_crystal_colour            colorless
_exptl_crystal_description       block
_cell_formula_units_Z            2
loop_
_atom_site_label
_atom_site_type_symbol
_atom_site_fract_x
_atom_site_fract_y
_atom_site_fract_z
Br1 Br 0.54030(2) 0.85482(2) 0.98152(2)
O1 O 1.48134(12) -0.08455(11) 0.63504(10)
O2 O 0.72363(11) 0.33194(10) 0.79972(9)
O3 O 0.88737(12) 0.03125(10) 0.80277(9)
H1 H 0.946(2) -0.005(2) 0.8285(18)
O4 O 0.68413(12) 0.42167(11) 0.55496(10)
O5 O 0.59996(12) 0.24241(10) 0.56141(9)
O6 O 0.50480(12) 0.34615(12) 0.76999(10)
C1 C 1.60845(17) -0.06256(16) 0.66123(15)
H2 H 1.6822 -0.1112 0.6258
H3 H 1.6086 -0.0862 0.7377
H4 H 1.6221 0.0248 0.6382
C2 C 1.37016(16) -0.00940(15) 0.66373(13)
C3 C 1.25421(17) -0.01664(15) 0.61884(13)
H5 H 1.2559 -0.0730 0.5736
C4 C 1.13694(17) 0.05761(15) 0.63969(12)
H6 H 1.0585 0.0512 0.6089
C5 C 1.13142(16) 0.14238(14) 0.70552(12)
C6 C 1.00307(16) 0.22660(14) 0.72642(12)
C7 C 0.88783(16) 0.15613(14) 0.80678(12)
C8 C 0.75351(16) 0.21607(14) 0.76594(12)
H7 H 0.6775 0.1620 0.7913
C9 C 0.59516(16) 0.38517(15) 0.80092(12)
C10 C 0.58266(16) 0.49863(15) 0.84552(12)
C11 C 0.66764(17) 0.51086(16) 0.91717(13)
H8 H 0.7358 0.4470 0.9373
C12 C 0.65263(18) 0.61627(16) 0.95913(14)
H9 H 0.7083 0.6243 1.0096
C13 C 0.55536(18) 0.70941(16) 0.92630(14)
C14 C 0.79292(16) 0.23437(14) 0.64626(12)
H10 H 0.8080 0.1519 0.6264
C15 C 0.93037(15) 0.29001(14) 0.62642(12)
H11 H 0.9088 0.3782 0.6317
C16 C 0.90733(16) 0.18310(15) 0.91093(13)
C17 C 0.98491(16) 0.28404(15) 0.89096(13)
N1 N 1.02820(14) 0.31863(12) 0.78541(10)
C18 C 1.11368(18) 0.41758(16) 0.74101(14)
H12 H 1.1917 0.3882 0.6948
H13 H 1.1462 0.4459 0.7980
H14 H 1.0610 0.4856 0.7001
C19 C 1.00652(17) 0.33636(16) 0.97423(13)
H15 H 1.0559 0.4067 0.9620
C20 C 0.95320(18) 0.28207(18) 1.07615(14)
H16 H 0.9673 0.3164 1.1337
C21 C 0.88037(18) 0.17978(18) 1.09600(13)
H17 H 0.8474 0.1436 1.1664
C22 C 0.85548(17) 0.12981(16) 1.01162(13)
H18 H 0.8040 0.0608 1.0237
C23 C 1.36557(17) 0.06954(15) 0.73282(13)
H19 H 1.4429 0.0730 0.7661
C24 C 1.24611(17) 0.14407(15) 0.75315(13)
H20 H 1.2433 0.1976 0.8011
C25 C 1.00617(10) 0.29006(10) 0.51484(6)
C26 C 0.96738(10) 0.22014(10) 0.45010(8)
H21 H 0.8951 0.1691 0.4754
C27 C 1.03440(11) 0.22496(10) 0.34832(7)
H22 H 1.0079 0.1772 0.3041
C28 C 1.14019(11) 0.29971(10) 0.31129(6)
H23 H 1.1860 0.3030 0.2417
C29 C 1.17898(9) 0.36963(9) 0.37603(8)
H24 H 1.2513 0.4207 0.3507
C30 C 1.11197(10) 0.36481(9) 0.47781(7)
H25 H 1.1385 0.4126 0.5221
C31 C 0.68787(16) 0.31204(15) 0.58250(12)
C32 C 0.48553(18) 0.30850(17) 0.51147(15)
H26 H 0.5189 0.3585 0.4435
H27 H 0.4339 0.3618 0.5570
H28 H 0.4264 0.2498 0.5002
C33 C 0.48351(17) 0.59226(16) 0.81540(13)
H29 H 0.4246 0.5829 0.7676
C34 C 0.47017(19) 0.69944(16) 0.85492(14)
H30 H 0.4040 0.7645 0.8334
loop_
_geom_bond_atom_site_label_1
_geom_bond_atom_site_label_2
_geom_bond_site_symmetry_1
_geom_bond_site_symmetry_2
Br1 C13 1_555 1_555
O1 C1 1_555 1_555
O2 C8 1_555 1_555
O3 H1 1_555 1_555
O4 C31 1_555 1_555
O5 C31 1_555 1_555
O6 C9 1_555 1_555
C1 H2 1_555 1_555
H3 C1 1_555 1_555
H4 C1 1_555 1_555
C2 O1 1_555 1_555
C3 C2 1_555 1_555
H5 C3 1_555 1_555
C4 C3 1_555 1_555
H6 C4 1_555 1_555
C5 C4 1_555 1_555
C6 C5 1_555 1_555
C7 O3 1_555 1_555
C8 C7 1_555 1_555
H7 C8 1_555 1_555
C9 O2 1_555 1_555
C10 C9 1_555 1_555
C11 C10 1_555 1_555
H8 C11 1_555 1_555
C12 C11 1_555 1_555
H9 C12 1_555 1_555
C13 C12 1_555 1_555
C14 C8 1_555 1_555
H10 C14 1_555 1_555
C15 C6 1_555 1_555
H11 C15 1_555 1_555
C16 C7 1_555 1_555
C17 C16 1_555 1_555
N1 C6 1_555 1_555
C18 N1 1_555 1_555
H12 C18 1_555 1_555
H13 C18 1_555 1_555
H14 C18 1_555 1_555
C19 C17 1_555 1_555
H15 C19 1_555 1_555
C20 C19 1_555 1_555
H16 C20 1_555 1_555
C21 C20 1_555 1_555
H17 C21 1_555 1_555
C22 C16 1_555 1_555
H18 C22 1_555 1_555
C23 C2 1_555 1_555
H19 C23 1_555 1_555
C24 C5 1_555 1_555
H20 C24 1_555 1_555
C25 C15 1_555 1_555
C26 C25 1_555 1_555
H21 C26 1_555 1_555
C27 C26 1_555 1_555
H22 C27 1_555 1_555
C28 C27 1_555 1_555
H23 C28 1_555 1_555
C29 C28 1_555 1_555
H24 C29 1_555 1_555
C30 C25 1_555 1_555
H25 C30 1_555 1_555
C31 C14 1_555 1_555
C32 O5 1_555 1_555
H26 C32 1_555 1_555
H27 C32 1_555 1_555
H28 C32 1_555 1_555
C33 C10 1_555 1_555
H29 C33 1_555 1_555
C34 C13 1_555 1_555
H30 C34 1_555 1_555
C6 C7 1_555 1_555
C14 C15 1_555 1_555
C17 N1 1_555 1_555
C21 C22 1_555 1_555
C23 C24 1_555 1_555
C29 C30 1_555 1_555
C33 C34 1_555 1_555

#END
