
#######################################################################
#
#                 Cambridge Crystallographic Data Centre
#                                CCDC 
#
#######################################################################
#
# If this CIF has been generated from an entry in the Cambridge 
# Structural Database, then it will include bibliographic, chemical, 
# crystal, experimental, refinement or atomic coordinate data resulting 
# from the CCDC's data processing and validation procedures.
#
#######################################################################

data_IVENED
_chemical_formula_moiety         'C15 H24 Br2 O3'
_chemical_name_systematic        
'Ethyl 3,3-dibromo-2-oxocyclododecanecarboxylate'
_symmetry_cell_setting           triclinic
_symmetry_space_group_name_H-M   'P -1'
_symmetry_Int_Tables_number      2
_space_group_name_Hall           '-P 1'
loop_
_symmetry_equiv_pos_site_id
_symmetry_equiv_pos_as_xyz
1 x,y,z
2 -x,-y,-z
_cell_length_a                   7.2171(2)
_cell_length_b                   10.47580(10)
_cell_length_c                   12.511
_cell_angle_alpha                106.7280(1)
_cell_angle_beta                 100.4960(2)
_cell_angle_gamma                104.3860(3)
_cell_volume                     844.014
_cell_formula_units_Z            2
loop_
_atom_site_label
_atom_site_type_symbol
_atom_site_fract_x
_atom_site_fract_y
_atom_site_fract_z
Br1 Br 0.10367(5) 0.74239(4) 0.56248(3)
Br2 Br 0.04236(5) 0.67630(4) 0.78628(4)
O1 O -0.2469(3) 0.8320(3) 0.7579(2)
O2 O -0.2850(3) 0.8542(2) 0.4048(2)
O3 O -0.4051(3) 0.7071(2) 0.49421(19)
C1 C 0.0612(4) 0.8210(3) 0.7156(3)
C2 C -0.1365(4) 0.8560(3) 0.6995(3)
C3 C -0.1774(4) 0.9312(3) 0.6134(2)
H1 H -0.0499 0.9887 0.6105
C4 C -0.3035(4) 1.0282(3) 0.6495(3)
H2 H -0.3355 1.0657 0.5886
H3 H -0.4277 0.9715 0.6548
C5 C -0.2056(5) 1.1502(3) 0.7633(3)
H4 H -0.1618 1.1137 0.8230
H5 H -0.3042 1.1931 0.7849
C6 C -0.0281(5) 1.2636(3) 0.7610(3)
H6 H -0.0747 1.3061 0.7066
H7 H 0.0642 1.2188 0.7319
C7 C 0.0845(6) 1.3802(4) 0.8778(3)
H8 H -0.0092 1.4203 0.9102
H9 H 0.1795 1.4541 0.8651
C8 C 0.1957(5) 1.3307(4) 0.9662(3)
H10 H 0.1012 1.2544 0.9765
H11 H 0.2489 1.4075 1.0402
C9 C 0.3662(5) 1.2804(4) 0.9329(3)
H12 H 0.3394 1.2473 0.8491
H13 H 0.4883 1.3595 0.9646
C10 C 0.3965(5) 1.1635(4) 0.9758(3)
H14 H 0.4056 1.1922 1.0580
H15 H 0.5223 1.1514 0.9666
C11 C 0.2327(5) 1.0223(3) 0.9137(3)
H16 H 0.1044 1.0366 0.9110
H17 H 0.2454 0.9608 0.9576
C12 C 0.2405(4) 0.9506(3) 0.7891(3)
H18 H 0.2517 1.0188 0.7501
H19 H 0.3597 0.9231 0.7932
C13 C -0.2905(4) 0.8276(3) 0.4918(3)
C14 C -0.5301(5) 0.6004(4) 0.3834(3)
H20 H -0.5738 0.6462 0.3310
H21 H -0.6472 0.5437 0.3957
C15 C -0.4207(6) 0.5076(4) 0.3296(4)
H22 H -0.5063 0.4388 0.2571
H23 H -0.3795 0.4608 0.3807
H24 H -0.3059 0.5633 0.3163
loop_
_geom_bond_atom_site_label_1
_geom_bond_atom_site_label_2
_geom_bond_site_symmetry_1
_geom_bond_site_symmetry_2
Br1 C1 1_555 1_555
Br2 C1 1_555 1_555
O1 C2 1_555 1_555
O2 C13 1_555 1_555
O3 C13 1_555 1_555
C1 C2 1_555 1_555
C2 C3 1_555 1_555
C3 H1 1_555 1_555
C4 C3 1_555 1_555
H2 C4 1_555 1_555
H3 C4 1_555 1_555
C5 C4 1_555 1_555
H4 C5 1_555 1_555
H5 C5 1_555 1_555
C6 C5 1_555 1_555
H6 C6 1_555 1_555
H7 C6 1_555 1_555
C7 C6 1_555 1_555
H8 C7 1_555 1_555
H9 C7 1_555 1_555
C8 C7 1_555 1_555
H10 C8 1_555 1_555
H11 C8 1_555 1_555
C9 C8 1_555 1_555
H12 C9 1_555 1_555
H13 C9 1_555 1_555
C10 C9 1_555 1_555
H14 C10 1_555 1_555
H15 C10 1_555 1_555
C11 C10 1_555 1_555
H16 C11 1_555 1_555
H17 C11 1_555 1_555
C12 C1 1_555 1_555
H18 C12 1_555 1_555
H19 C12 1_555 1_555
C13 C3 1_555 1_555
C14 O3 1_555 1_555
H20 C14 1_555 1_555
H21 C14 1_555 1_555
C15 C14 1_555 1_555
H22 C15 1_555 1_555
H23 C15 1_555 1_555
H24 C15 1_555 1_555
C11 C12 1_555 1_555

#END
