
#######################################################################
#
#                 Cambridge Crystallographic Data Centre
#                                CCDC 
#
#######################################################################
#
# If this CIF has been generated from an entry in the Cambridge 
# Structural Database, then it will include bibliographic, chemical, 
# crystal, experimental, refinement or atomic coordinate data resulting 
# from the CCDC's data processing and validation procedures.
#
#######################################################################

data_IVENAZ
_chemical_formula_moiety         'C17 H29 Br1 O3'
_chemical_name_systematic        
'Ethyl 3-bromo-1-ethyl-2-oxocyclododecanecarboxylate'
_symmetry_cell_setting           orthorhombic
_symmetry_space_group_name_H-M   'P 21 21 21'
_symmetry_Int_Tables_number      19
_space_group_name_Hall           'P 2ac 2ab'
loop_
_symmetry_equiv_pos_site_id
_symmetry_equiv_pos_as_xyz
1 x,y,z
2 1/2-x,-y,1/2+z
3 -x,1/2+y,1/2-z
4 1/2+x,1/2-y,-z
_cell_length_a                   8.9435(5)
_cell_length_b                   10.8153(6)
_cell_length_c                   19.1880(10)
_cell_angle_alpha                90
_cell_angle_beta                 90
_cell_angle_gamma                90
_cell_volume                     1855.99
_cell_formula_units_Z            4
loop_
_atom_site_label
_atom_site_type_symbol
_atom_site_fract_x
_atom_site_fract_y
_atom_site_fract_z
Br1 Br 0.23454(8) 0.59670(6) 0.12760(3)
O1 O 0.1208(5) 0.3073(4) 0.1772(2)
O2 O 0.3634(6) 0.2154(4) 0.09309(19)
O3 O 0.4315(6) 0.0924(4) 0.1811(2)
C1 C 0.3835(6) 0.3099(5) 0.2031(3)
C2 C 0.2270(7) 0.3686(5) 0.1948(2)
C3 C 0.2054(7) 0.5033(5) 0.2149(3)
H1 H 0.2814 0.5276 0.2490
C4 C 0.0504(6) 0.5358(6) 0.2422(3)
H2 H -0.0231 0.5095 0.2081
H3 H 0.0432 0.6251 0.2462
C5 C 0.0098(6) 0.4786(6) 0.3128(3)
H4 H -0.0948 0.4949 0.3224
H5 H 0.0226 0.3897 0.3099
C6 C 0.1032(7) 0.5276(5) 0.3726(3)
H6 H 0.0853 0.6157 0.3770
H7 H 0.2080 0.5164 0.3612
C7 C 0.0724(9) 0.4662(7) 0.4430(3)
H8 H 0.1293 0.5090 0.4787
H9 H -0.0328 0.4758 0.4541
C8 C 0.1116(8) 0.3294(6) 0.4454(3)
H10 H 0.0578 0.2877 0.4083
H11 H 0.0763 0.2957 0.4892
C9 C 0.2789(7) 0.2988(6) 0.4380(3)
H12 H 0.3285 0.3691 0.4168
H13 H 0.3206 0.2882 0.4843
C10 C 0.3148(7) 0.1857(6) 0.3958(2)
H14 H 0.2551 0.1172 0.4128
H15 H 0.4192 0.1647 0.4028
C11 C 0.2858(6) 0.2018(5) 0.3166(2)
H16 H 0.2844 0.1211 0.2945
H17 H 0.1884 0.2395 0.3098
C12 C 0.4045(6) 0.2817(5) 0.2821(2)
H18 H 0.5005 0.2413 0.2881
H19 H 0.4090 0.3598 0.3069
C13 C 0.5124(6) 0.3945(5) 0.1775(3)
H20 H 0.4941 0.4160 0.1292
H21 H 0.5105 0.4705 0.2044
C14 C 0.6693(6) 0.3373(6) 0.1833(4)
H22 H 0.7423 0.3956 0.1670
H23 H 0.6740 0.2637 0.1554
H24 H 0.6895 0.3169 0.2310
C15 C 0.3941(8) 0.1907(6) 0.1608(3)
C16 C 0.3748(12) 0.1117(8) 0.0447(3)
H25 H 0.4132 0.0398 0.0691
H26 H 0.2763 0.0914 0.0269
C17 C 0.4640(15) 0.1389(8) -0.0076(5)
H27 H 0.4652 0.0714 -0.0402
H28 H 0.5633 0.1530 0.0096
H29 H 0.4284 0.2121 -0.0306
loop_
_geom_bond_atom_site_label_1
_geom_bond_atom_site_label_2
_geom_bond_site_symmetry_1
_geom_bond_site_symmetry_2
Br1 C3 1_555 1_555
O1 C2 1_555 1_555
O2 C15 1_555 1_555
O3 C15 1_555 1_555
C1 C2 1_555 1_555
C2 C3 1_555 1_555
C3 H1 1_555 1_555
C4 C3 1_555 1_555
H2 C4 1_555 1_555
H3 C4 1_555 1_555
C5 C4 1_555 1_555
H4 C5 1_555 1_555
H5 C5 1_555 1_555
C6 C5 1_555 1_555
H6 C6 1_555 1_555
H7 C6 1_555 1_555
C7 C6 1_555 1_555
H8 C7 1_555 1_555
H9 C7 1_555 1_555
C8 C7 1_555 1_555
H10 C8 1_555 1_555
H11 C8 1_555 1_555
C9 C8 1_555 1_555
H12 C9 1_555 1_555
H13 C9 1_555 1_555
C10 C9 1_555 1_555
H14 C10 1_555 1_555
H15 C10 1_555 1_555
C11 C10 1_555 1_555
H16 C11 1_555 1_555
H17 C11 1_555 1_555
C12 C1 1_555 1_555
H18 C12 1_555 1_555
H19 C12 1_555 1_555
C13 C1 1_555 1_555
H20 C13 1_555 1_555
H21 C13 1_555 1_555
C14 C13 1_555 1_555
H22 C14 1_555 1_555
H23 C14 1_555 1_555
H24 C14 1_555 1_555
C15 C1 1_555 1_555
C16 O2 1_555 1_555
H25 C16 1_555 1_555
H26 C16 1_555 1_555
C17 C16 1_555 1_555
H27 C17 1_555 1_555
H28 C17 1_555 1_555
H29 C17 1_555 1_555
C11 C12 1_555 1_555

#END
