
#######################################################################
#
#                 Cambridge Crystallographic Data Centre
#                                CCDC 
#
#######################################################################
#
# If this CIF has been generated from an entry in the Cambridge 
# Structural Database, then it will include bibliographic, chemical, 
# crystal, experimental, refinement or atomic coordinate data resulting 
# from the CCDC's data processing and validation procedures.
#
#######################################################################

data_IVERIL
_chemical_formula_moiety         'C27 H23 N1 O2 S1'
_chemical_name_systematic        
3-(2,4-Diphenylbut-1-en-3-yn-1-yl)-1-((4-methylphenyl)sulfonyl)-2,5-dihydro-1H-pyrrole
_symmetry_cell_setting           monoclinic
_symmetry_space_group_name_H-M   'P 21/c'
_symmetry_Int_Tables_number      14
_space_group_name_Hall           '-P 2ybc'
loop_
_symmetry_equiv_pos_site_id
_symmetry_equiv_pos_as_xyz
1 x,y,z
2 -x,1/2+y,1/2-z
3 -x,-y,-z
4 x,1/2-y,1/2+z
_cell_length_a                   24.291
_cell_length_b                   6.053
_cell_length_c                   15.997
_cell_angle_alpha                90
_cell_angle_beta                 106
_cell_angle_gamma                90
_cell_volume                     2260.98
_cell_formula_units_Z            4
loop_
_atom_site_label
_atom_site_type_symbol
_atom_site_fract_x
_atom_site_fract_y
_atom_site_fract_z
S1 S 0.36006(2) 0.79443(9) 0.86791(3)
C1 C 0.41389(9) 0.8054(4) 0.65230(14)
H1 H 0.4137 0.7084 0.6065
C2 C 0.38939(8) 0.7391(4) 0.71613(13)
H2 H 0.3726 0.5988 0.7130
C3 C 0.43901(8) 1.1541(4) 0.72436(14)
H3 H 0.4559 1.2943 0.7275
C4 C 0.38979(8) 0.8814(3) 0.78471(12)
C5 C 0.43884(8) 1.0139(4) 0.65518(14)
C6 C 0.41460(8) 1.0898(3) 0.78887(13)
H4 H 0.4149 1.1863 0.8349
C7 C 0.19964(9) 0.2253(3) 0.59634(12)
O1 O 0.35839(6) 0.5563(2) 0.86629(11)
C8 C 0.11064(8) 0.6795(3) 0.69384(12)
C9 C 0.24639(8) 0.7608(3) 0.78027(13)
H5 H 0.2426 0.6084 0.7985
H6 H 0.2509 0.7602 0.7216
O2 O 0.39000(6) 0.9098(3) 0.94651(9)
N1 N 0.29430(7) 0.8772(3) 0.84350(11)
C10 C 0.00931(10) 0.8173(4) 0.67044(15)
H7 H 0.0237 0.9495 0.6992
C11 C 0.25697(10) 0.2597(4) 0.60309(15)
H8 H 0.2758 0.3839 0.6330
C12 C 0.14402(9) 0.5175(4) 0.66396(13)
C13 C 0.02333(10) 0.4565(4) 0.61945(14)
H9 H 0.0472 0.3406 0.6132
C14 C 0.16881(9) 0.3821(4) 0.63296(13)
C15 C 0.04706(9) 0.6521(4) 0.66097(13)
C16 C 0.20198(14) -0.1084(4) 0.51500(17)
H10 H 0.1835 -0.2329 0.4848
C17 C 0.21499(9) 1.0889(4) 0.82862(15)
H11 H 0.1910 1.1995 0.8388
C18 C 0.17249(10) 0.0381(4) 0.55203(14)
H12 H 0.1343 0.0118 0.5474
C19 C 0.19610(9) 0.9022(3) 0.78446(13)
C20 C 0.13595(9) 0.8505(3) 0.74655(13)
H13 H 0.1109 0.9505 0.7607
C21 C -0.04937(10) 0.7890(5) 0.63792(16)
H14 H -0.0736 0.9026 0.6450
C22 C -0.07202(11) 0.5976(5) 0.59589(15)
H15 H -0.1114 0.5803 0.5737
C23 C -0.03564(11) 0.4306(5) 0.58692(15)
H16 H -0.0506 0.2985 0.5588
C24 C 0.27855(10) 1.1033(4) 0.86027(17)
H17 H 0.2931 1.2123 0.8270
H18 H 0.2919 1.1400 0.9224
C25 C 0.28601(11) 0.1105(5) 0.56562(18)
H19 H 0.3243 0.1347 0.5699
C26 C 0.46556(10) 1.0853(5) 0.58437(16)
H20 H 0.4374 1.0781 0.5279
H21 H 0.4967 0.9874 0.5849
H22 H 0.4794 1.2356 0.5955
C27 C 0.25851(15) -0.0723(5) 0.52230(17)
H23 H 0.2782 -0.1733 0.4975
loop_
_geom_bond_atom_site_label_1
_geom_bond_atom_site_label_2
_geom_bond_site_symmetry_1
_geom_bond_site_symmetry_2
S1 C4 1_555 1_555
C1 H1 1_555 1_555
C2 C1 1_555 1_555
H2 C2 1_555 1_555
C3 H3 1_555 1_555
C4 C2 1_555 1_555
C5 C1 1_555 1_555
C6 C3 1_555 1_555
H4 C6 1_555 1_555
C7 C11 1_555 1_555
O1 S1 1_555 1_555
C8 C12 1_555 1_555
C9 H5 1_555 1_555
H6 C9 1_555 1_555
O2 S1 1_555 1_555
N1 S1 1_555 1_555
C10 H7 1_555 1_555
C11 H8 1_555 1_555
C12 C14 1_555 1_555
C13 H9 1_555 1_555
C14 C7 1_555 1_555
C15 C8 1_555 1_555
C16 H10 1_555 1_555
C17 H11 1_555 1_555
C18 C7 1_555 1_555
H12 C18 1_555 1_555
C19 C9 1_555 1_555
C20 C8 1_555 1_555
H13 C20 1_555 1_555
C21 C10 1_555 1_555
H14 C21 1_555 1_555
C22 C21 1_555 1_555
H15 C22 1_555 1_555
C23 C13 1_555 1_555
H16 C23 1_555 1_555
C24 N1 1_555 1_555
H17 C24 1_555 1_555
H18 C24 1_555 1_555
C25 C11 1_555 1_555
H19 C25 1_555 1_555
C26 C5 1_555 1_555
H20 C26 1_555 1_555
H21 C26 1_555 1_555
H22 C26 1_555 1_555
C27 C16 1_555 1_555
H23 C27 1_555 1_555
C3 C5 1_555 1_555
C4 C6 1_555 1_555
C9 N1 1_555 1_555
C10 C15 1_555 1_555
C13 C15 1_555 1_555
C16 C18 1_555 1_555
C17 C19 1_555 1_555
C17 C24 1_555 1_555
C19 C20 1_555 1_555
C22 C23 1_555 1_555
C25 C27 1_555 1_555

#END
