
#######################################################################
#
#                 Cambridge Crystallographic Data Centre
#                                CCDC 
#
#######################################################################
#
# If this CIF has been generated from an entry in the Cambridge 
# Structural Database, then it will include bibliographic, chemical, 
# crystal, experimental, refinement or atomic coordinate data resulting 
# from the CCDC's data processing and validation procedures.
#
#######################################################################

data_IVETAG
_chemical_formula_moiety         'C41 H28 N4 O2'
_chemical_name_systematic        
10-(4-(2-methyl-6-(4-(10H-phenoxazin-10-yl)phenyl)pyrimidin-4-yl)phenyl)-10H-phenoxazine
_symmetry_cell_setting           triclinic
_symmetry_space_group_name_H-M   'P -1'
_symmetry_Int_Tables_number      2
_space_group_name_Hall           '-P 1'
loop_
_symmetry_equiv_pos_site_id
_symmetry_equiv_pos_as_xyz
1 x,y,z
2 -x,-y,-z
_cell_length_a                   9.2631(4)
_cell_length_b                   12.1469(6)
_cell_length_c                   15.1191(7)
_cell_angle_alpha                107.7540(10)
_cell_angle_beta                 105.5420(10)
_cell_angle_gamma                90.7260(10)
_cell_volume                     1552.63
_exptl_crystal_description       block
_cell_formula_units_Z            2
loop_
_atom_site_label
_atom_site_type_symbol
_atom_site_fract_x
_atom_site_fract_y
_atom_site_fract_z
N1 N 0.31905(16) 1.08786(12) 1.01325(10)
N2 N 0.22841(16) 1.02534(12) 1.12542(10)
C1 C 0.07617(16) 0.84350(14) 1.08076(11)
C2 C 0.24595(17) 0.99210(14) 0.94200(12)
C3 C 0.16033(16) 0.92787(13) 1.05463(11)
N3 N -0.18513(17) 0.61825(15) 1.15610(13)
C4 C 0.16658(18) 0.90875(14) 0.96072(12)
H1 H 0.1185 0.8414 0.9113
C5 C 0.0867(2) 0.85769(16) 1.17683(12)
H2 H 0.1514 0.9184 1.2254
C6 C 0.3057(2) 1.10027(14) 1.10166(13)
C7 C 0.25181(18) 0.98040(14) 0.84303(12)
C8 C -0.34239(19) 0.62023(15) 1.12999(13)
C9 C -0.09227(18) 0.69242(16) 1.13110(13)
C10 C 0.3804(2) 1.02263(16) 0.82812(13)
H3 H 0.4636 1.0576 0.8808
C11 C -0.1222(2) 0.53617(15) 1.19836(13)
C12 C 0.0027(2) 0.78317(17) 1.20182(14)
H4 H 0.0107 0.7946 1.2667
C13 C -0.0980(2) 0.67381(17) 1.03579(14)
H5 H -0.1581 0.6101 0.9878
C14 C -0.0154(2) 0.74881(17) 1.01056(13)
H6 H -0.0214 0.7355 0.9457
O1 O -0.36584(18) 0.47860(16) 1.20987(14)
N4 N 0.2656(2) 0.95398(16) 0.56180(12)
O2 O 0.34659(19) 0.95219(16) 0.39577(10)
C15 C 0.1274(2) 0.93104(16) 0.76401(13)
H7 H 0.0407 0.9028 0.7733
C16 C -0.4297(2) 0.55027(16) 1.15825(14)
C17 C 0.3856(2) 1.01311(18) 0.73551(14)
H8 H 0.4726 1.0398 0.7257
C18 C 0.2604(2) 0.96357(17) 0.65766(13)
C19 C -0.2151(2) 0.46633(18) 1.22293(15)
C20 C 0.1311(2) 0.92337(18) 0.67153(14)
H9 H 0.0468 0.8913 0.6190
C21 C 0.2548(2) 1.05209(19) 0.53151(13)
C22 C -0.6548(2) 0.61993(18) 1.08628(18)
H10 H -0.7589 0.6201 1.0717
C23 C -0.5829(2) 0.55057(18) 1.13674(16)
H11 H -0.6384 0.5033 1.1566
C24 C 0.2934(2) 1.0486(2) 0.44791(13)
C25 C 0.3080(2) 0.85246(19) 0.50531(14)
C26 C -0.4162(2) 0.68974(17) 1.07923(16)
H12 H -0.3613 0.7374 1.0594
C27 C 0.3462(2) 0.8530(2) 0.42212(13)
C28 C 0.0290(2) 0.52010(18) 1.21649(17)
H13 H 0.0932 0.5657 1.2007
C29 C 0.2850(3) 1.1432(3) 0.41612(17)
H14 H 0.3109 1.1394 0.3600
C30 C -0.5713(2) 0.68926(19) 1.05751(18)
H15 H -0.6195 0.7365 1.0230
C31 C 0.2064(3) 1.1532(2) 0.58108(16)
H16 H 0.1791 1.1573 0.6368
C32 C 0.3839(3) 1.20879(18) 1.18034(15)
H17 H 0.4559 1.1888 1.2303
H18 H 0.3111 1.2524 1.2071
H19 H 0.4348 1.2549 1.1542
C33 C 0.3908(3) 0.7560(3) 0.36582(16)
H20 H 0.4157 0.7580 0.3106
C34 C -0.1579(3) 0.3832(2) 1.2628(2)
H21 H -0.2215 0.3364 1.2780
C35 C 0.2383(3) 1.2438(3) 0.4672(2)
H22 H 0.2341 1.3084 0.4462
C36 C 0.3150(3) 0.7505(2) 0.52831(18)
H23 H 0.2889 0.7475 0.5828
C37 C 0.1982(3) 1.2487(2) 0.54888(19)
H24 H 0.1653 1.3163 0.5829
C38 C -0.0074(3) 0.3684(2) 1.2805(2)
H25 H 0.0311 0.3121 1.3078
C39 C 0.0859(3) 0.4370(2) 1.2578(2)
H26 H 0.1880 0.4276 1.2703
C40 C 0.3991(3) 0.6560(3) 0.3903(2)
H27 H 0.4306 0.5905 0.3522
C41 C 0.3606(4) 0.6529(2) 0.4711(2)
H28 H 0.3653 0.5849 0.4876
loop_
_geom_bond_atom_site_label_1
_geom_bond_atom_site_label_2
_geom_bond_site_symmetry_1
_geom_bond_site_symmetry_2
N1 C2 1_555 1_555
N2 C3 1_555 1_555
C1 C3 1_555 1_555
C2 C4 1_555 1_555
C3 C4 1_555 1_555
N3 C8 1_555 1_555
C4 H1 1_555 1_555
C5 C1 1_555 1_555
H2 C5 1_555 1_555
C6 N1 1_555 1_555
C7 C2 1_555 1_555
C8 C16 1_555 1_555
C9 N3 1_555 1_555
C10 C7 1_555 1_555
H3 C10 1_555 1_555
C11 N3 1_555 1_555
C12 C5 1_555 1_555
H4 C12 1_555 1_555
C13 C9 1_555 1_555
H5 C13 1_555 1_555
C14 C1 1_555 1_555
H6 C14 1_555 1_555
O1 C16 1_555 1_555
N4 C18 1_555 1_555
O2 C24 1_555 1_555
C15 C7 1_555 1_555
H7 C15 1_555 1_555
C16 C23 1_555 1_555
C17 C10 1_555 1_555
H8 C17 1_555 1_555
C18 C17 1_555 1_555
C19 C11 1_555 1_555
C20 C15 1_555 1_555
H9 C20 1_555 1_555
C21 N4 1_555 1_555
C22 H10 1_555 1_555
C23 C22 1_555 1_555
H11 C23 1_555 1_555
C24 C21 1_555 1_555
C25 N4 1_555 1_555
C26 C8 1_555 1_555
H12 C26 1_555 1_555
C27 O2 1_555 1_555
C28 C11 1_555 1_555
H13 C28 1_555 1_555
C29 C24 1_555 1_555
H14 C29 1_555 1_555
C30 C22 1_555 1_555
H15 C30 1_555 1_555
C31 C21 1_555 1_555
H16 C31 1_555 1_555
C32 C6 1_555 1_555
H17 C32 1_555 1_555
H18 C32 1_555 1_555
H19 C32 1_555 1_555
C33 C27 1_555 1_555
H20 C33 1_555 1_555
C34 C19 1_555 1_555
H21 C34 1_555 1_555
C35 C29 1_555 1_555
H22 C35 1_555 1_555
C36 C25 1_555 1_555
H23 C36 1_555 1_555
C37 C31 1_555 1_555
H24 C37 1_555 1_555
C38 C34 1_555 1_555
H25 C38 1_555 1_555
C39 C28 1_555 1_555
H26 C39 1_555 1_555
C40 C33 1_555 1_555
H27 C40 1_555 1_555
C41 C36 1_555 1_555
H28 C41 1_555 1_555
N2 C6 1_555 1_555
C9 C12 1_555 1_555
C13 C14 1_555 1_555
O1 C19 1_555 1_555
C18 C20 1_555 1_555
C25 C27 1_555 1_555
C26 C30 1_555 1_555
C35 C37 1_555 1_555
C38 C39 1_555 1_555
C40 C41 1_555 1_555

#END
