
#######################################################################
#
#                 Cambridge Crystallographic Data Centre
#                                CCDC 
#
#######################################################################
#
# If this CIF has been generated from an entry in the Cambridge 
# Structural Database, then it will include bibliographic, chemical, 
# crystal, experimental, refinement or atomic coordinate data resulting 
# from the CCDC's data processing and validation procedures.
#
#######################################################################

data_IVEVEL
_chemical_formula_moiety         'C43 H32 N6 O1,2(C2 H6 O1)'
_chemical_name_systematic        
'meso-Tetraphenyl-12-(N-aminoaza)-13-oxochlorin ethanol solvate'
_symmetry_cell_setting           triclinic
_symmetry_space_group_name_H-M   'P -1'
_symmetry_Int_Tables_number      2
_space_group_name_Hall           '-P 1'
loop_
_symmetry_equiv_pos_site_id
_symmetry_equiv_pos_as_xyz
1 x,y,z
2 -x,-y,-z
_cell_length_a                   11.805(2)
_cell_length_b                   12.627(2)
_cell_length_c                   13.460(2)
_cell_angle_alpha                107.192(2)
_cell_angle_beta                 95.593(2)
_cell_angle_gamma                90.383(3)
_cell_volume                     1906.27
_exptl_crystal_colour            black
_exptl_crystal_description       plate
_cell_formula_units_Z            2
loop_
_atom_site_label
_atom_site_type_symbol
_atom_site_fract_x
_atom_site_fract_y
_atom_site_fract_z
O1 O 0.4831(4) 0.2400(4) 0.4588(3)
H1 H 0.4598 0.2323 0.5134
C1 C 0.5822(4) 0.1805(4) 0.4379(3)
H2 H 0.5631 0.0999 0.4166
H3 H 0.6365 0.1986 0.5020
C2 C 0.6359(3) 0.2088(4) 0.3530(4)
H4 H 0.6566 0.2882 0.3750
H5 H 0.5819 0.1909 0.2897
H6 H 0.7044 0.1660 0.3382
O2 O 0.3986(7) 0.2232(9) 0.6192(5)
H7 H 0.3506 0.2650 0.6516
C3 C 0.4683(5) 0.1803(5) 0.6905(5)
H8 H 0.5206 0.1258 0.6520
H9 H 0.4199 0.1423 0.7266
C4 C 0.5349(10) 0.2742(8) 0.7683(9)
H10 H 0.4828 0.3304 0.8022
H11 H 0.5877 0.3069 0.7328
H12 H 0.5780 0.2469 0.8212
C5 C 0.21407(16) 0.46910(15) 0.62699(14)
C6 C 0.15007(15) 0.57003(15) 0.65690(13)
C7 C 0.12148(15) 0.61826(14) 0.75849(13)
C8 C 0.04843(15) 0.70714(14) 0.78654(13)
C9 C 0.01404(16) 0.75873(15) 0.88776(13)
H13 H 0.0405 0.7421 0.9502
C10 C -0.06375(15) 0.83638(15) 0.87928(13)
H14 H -0.1010 0.8825 0.9349
C11 C -0.07937(15) 0.83621(14) 0.77282(13)
C12 C -0.15338(15) 0.90262(14) 0.73019(13)
C13 C -0.16058(15) 0.91104(15) 0.62893(13)
C14 C -0.24260(18) 0.98702(17) 0.59305(14)
H15 H -0.2323 1.0640 0.6401
H16 H -0.3226 0.9611 0.5900
C15 C -0.21031(19) 0.97932(18) 0.48439(15)
H17 H -0.2775 0.9590 0.4315
H18 H -0.1755 1.0502 0.4827
C16 C -0.12510(16) 0.88853(15) 0.46619(14)
C17 C -0.08263(16) 0.84542(15) 0.36871(13)
C18 C 0.00160(16) 0.76676(15) 0.34652(13)
C19 C 0.05627(17) 0.73360(16) 0.25213(14)
H19 H 0.0405 0.7602 0.1934
C20 C 0.13462(17) 0.65745(17) 0.26117(14)
H20 H 0.1841 0.6232 0.2104
C21 C 0.12977(16) 0.63784(16) 0.36005(13)
C22 C 0.18983(16) 0.56049(15) 0.39679(13)
C23 C 0.17937(16) 0.54359(15) 0.49441(14)
C24 C 0.17779(16) 0.57881(14) 0.84494(13)
C25 C 0.29401(16) 0.60125(16) 0.87263(14)
H21 H 0.3352 0.6399 0.8360
C26 C 0.35049(19) 0.56795(18) 0.95300(16)
H22 H 0.4298 0.5841 0.9714
C27 C 0.29098(19) 0.51109(18) 1.00648(16)
H23 H 0.3294 0.4882 1.0616
C28 C 0.1756(2) 0.48789(18) 0.97912(16)
H24 H 0.1349 0.4485 1.0154
C29 C 0.11894(17) 0.52161(16) 0.89908(15)
H25 H 0.0395 0.5056 0.8811
C30 C -0.23324(16) 0.96941(15) 0.80244(13)
C31 C -0.19466(17) 1.06496(16) 0.88256(14)
H26 H -0.1167 1.0885 0.8919
C32 C -0.27042(19) 1.12585(17) 0.94875(15)
H27 H -0.2437 1.1906 1.0032
C33 C -0.38380(19) 1.09286(18) 0.93575(16)
H28 H -0.4351 1.1350 0.9808
C34 C -0.42287(18) 0.99792(18) 0.85662(16)
H29 H -0.5009 0.9747 0.8478
C35 C -0.34788(17) 0.93670(16) 0.79027(15)
H30 H -0.3752 0.8719 0.7361
C36 C -0.13773(16) 0.87654(15) 0.27665(13)
C37 C -0.12847(17) 0.98252(16) 0.26562(15)
H31 H -0.0850 1.0393 0.3182
C38 C -0.18218(18) 1.00590(17) 0.17850(16)
H32 H -0.1746 1.0783 0.1716
C39 C -0.24697(18) 0.92420(18) 0.10142(15)
H33 H -0.2845 0.9405 0.0423
C40 C -0.25623(19) 0.81836(18) 0.11174(15)
H34 H -0.3002 0.7619 0.0592
C41 C -0.20164(18) 0.79455(17) 0.19834(14)
H35 H -0.2079 0.7217 0.2043
C42 C 0.27144(16) 0.49239(15) 0.32804(14)
C43 C 0.23173(16) 0.40651(15) 0.23926(13)
H36 H 0.1521 0.3940 0.2199
C44 C 0.30727(17) 0.33922(16) 0.17901(14)
H37 H 0.2793 0.2795 0.1199
C45 C 0.42261(19) 0.35869(18) 0.20459(18)
H38 H 0.4744 0.3130 0.1629
C46 C 0.4631(2) 0.4455(2) 0.2917(2)
H39 H 0.5428 0.4596 0.3090
C47 C 0.38771(18) 0.5120(2) 0.35372(19)
H40 H 0.4160 0.5707 0.4136
N1 N 0.12743(13) 0.61017(13) 0.57359(11)
N2 N -0.00901(13) 0.75812(12) 0.71995(11)
H41 H -0.0015 0.7426 0.6528
N3 N -0.09634(13) 0.85532(12) 0.55188(11)
N4 N 0.05004(13) 0.70838(13) 0.40962(11)
H42 H 0.0327 0.7149 0.4732
O3 O 0.23978(14) 0.39798(12) 0.67493(11)
N5 N 0.2664(2) 0.35965(17) 0.45994(14)
H43 H 0.3391(15) 0.367(3) 0.474(3)
H44 H 0.251(2) 0.303(2) 0.485(2)
N6 N 0.23183(15) 0.45548(14) 0.52524(12)
C48? C 0.5742(8) 0.2628(7) 0.3869(8)
C49? C 0.6567(12) 0.1820(9) 0.4035(12)
C50? C 0.4774(6) 0.2749(8) 0.7525(6)
C51? C 0.5888(6) 0.2227(8) 0.7301(7)
H45? H 0.4860 0.2294 0.4811
H46? H 0.3575 0.2952 0.6541
H47? H 0.6102 0.3382 0.4152
H48? H 0.5545 0.2487 0.3108
H49? H 0.6224 0.1069 0.3744
H50? H 0.6785 0.1967 0.4786
H51? H 0.7245 0.1882 0.3686
H52? H 0.4430 0.2473 0.8048
H53? H 0.4883 0.3566 0.7806
H54? H 0.6277 0.2593 0.6873
H55? H 0.5756 0.1438 0.6921
H56? H 0.6363 0.2308 0.7960
O4? O 0.4741(14) 0.2598(14) 0.4336(12)
O5? O 0.4037(9) 0.2449(12) 0.6537(8)
loop_
_geom_bond_atom_site_label_1
_geom_bond_atom_site_label_2
_geom_bond_site_symmetry_1
_geom_bond_site_symmetry_2
O1 H1 1_555 1_555
C1 O1 1_555 1_555
H2 C1 1_555 1_555
H3 C1 1_555 1_555
C2 C1 1_555 1_555
H4 C2 1_555 1_555
H5 C2 1_555 1_555
H6 C2 1_555 1_555
O2 H7 1_555 1_555
C3 O2 1_555 1_555
H8 C3 1_555 1_555
H9 C3 1_555 1_555
C4 C3 1_555 1_555
H10 C4 1_555 1_555
H11 C4 1_555 1_555
H12 C4 1_555 1_555
C5 C6 1_555 1_555
C6 C7 1_555 1_555
C7 C8 1_555 1_555
C8 C9 1_555 1_555
C9 H13 1_555 1_555
C10 C9 1_555 1_555
H14 C10 1_555 1_555
C11 C10 1_555 1_555
C12 C11 1_555 1_555
C13 C12 1_555 1_555
C14 C13 1_555 1_555
H15 C14 1_555 1_555
H16 C14 1_555 1_555
C15 C14 1_555 1_555
H17 C15 1_555 1_555
H18 C15 1_555 1_555
C16 C15 1_555 1_555
C17 C16 1_555 1_555
C18 C17 1_555 1_555
C19 C18 1_555 1_555
H19 C19 1_555 1_555
C20 C19 1_555 1_555
H20 C20 1_555 1_555
C21 C20 1_555 1_555
C22 C21 1_555 1_555
C23 C22 1_555 1_555
C24 C7 1_555 1_555
C25 C24 1_555 1_555
H21 C25 1_555 1_555
C26 C25 1_555 1_555
H22 C26 1_555 1_555
C27 C26 1_555 1_555
H23 C27 1_555 1_555
C28 C27 1_555 1_555
H24 C28 1_555 1_555
C29 C24 1_555 1_555
H25 C29 1_555 1_555
C30 C12 1_555 1_555
C31 C30 1_555 1_555
H26 C31 1_555 1_555
C32 C31 1_555 1_555
H27 C32 1_555 1_555
C33 C32 1_555 1_555
H28 C33 1_555 1_555
C34 C33 1_555 1_555
H29 C34 1_555 1_555
C35 C30 1_555 1_555
H30 C35 1_555 1_555
C36 C17 1_555 1_555
C37 C36 1_555 1_555
H31 C37 1_555 1_555
C38 C37 1_555 1_555
H32 C38 1_555 1_555
C39 C38 1_555 1_555
H33 C39 1_555 1_555
C40 C39 1_555 1_555
H34 C40 1_555 1_555
C41 C36 1_555 1_555
H35 C41 1_555 1_555
C42 C22 1_555 1_555
C43 C42 1_555 1_555
H36 C43 1_555 1_555
C44 C43 1_555 1_555
H37 C44 1_555 1_555
C45 C44 1_555 1_555
H38 C45 1_555 1_555
C46 C45 1_555 1_555
H39 C46 1_555 1_555
C47 C42 1_555 1_555
H40 C47 1_555 1_555
N1 C6 1_555 1_555
N2 C8 1_555 1_555
H41 N2 1_555 1_555
N3 C13 1_555 1_555
N4 C18 1_555 1_555
H42 N4 1_555 1_555
O3 C5 1_555 1_555
N5 H43 1_555 1_555
H44 N5 1_555 1_555
N6 C5 1_555 1_555
C11 N2 1_555 1_555
C16 N3 1_555 1_555
C21 N4 1_555 1_555
C23 N1 1_555 1_555
C23 N6 1_555 1_555
C28 C29 1_555 1_555
C34 C35 1_555 1_555
C40 C41 1_555 1_555
C46 C47 1_555 1_555
N5 N6 1_555 1_555

#END
