
#######################################################################
#
#                 Cambridge Crystallographic Data Centre
#                                CCDC 
#
#######################################################################
#
# If this CIF has been generated from an entry in the Cambridge 
# Structural Database, then it will include bibliographic, chemical, 
# crystal, experimental, refinement or atomic coordinate data resulting 
# from the CCDC's data processing and validation procedures.
#
#######################################################################

data_IVEWUB
_chemical_formula_moiety         'C38 H35 B1 N4,0.5(C1 H2 Cl2)'
_chemical_name_systematic        
'Dimestityl-(3,5-bis(7-azaindolyl)phenyl)borane dichloromethane solvate'
_symmetry_cell_setting           triclinic
_symmetry_space_group_name_H-M   'P -1'
_symmetry_Int_Tables_number      2
_space_group_name_Hall           '-P 1'
loop_
_symmetry_equiv_pos_site_id
_symmetry_equiv_pos_as_xyz
1 x,y,z
2 -x,-y,-z
_cell_length_a                   12.011(2)
_cell_length_b                   12.182(2)
_cell_length_c                   23.384(5)
_cell_angle_alpha                98.554(4)
_cell_angle_beta                 100.405(4)
_cell_angle_gamma                95.243(5)
_cell_volume                     3303.12
_exptl_crystal_colour            colorless
_exptl_crystal_description       plate
_chemical_melting_point          196-198deg.C
_cell_formula_units_Z            4
_exptl_crystal_recrystallization_method dichloromethane/hexane
_exptl_crystal_preparation       luminescent
loop_
_atom_site_label
_atom_site_type_symbol
_atom_site_fract_x
_atom_site_fract_y
_atom_site_fract_z
N1 N 0.8543(3) 0.9049(3) 0.42549(19)
N2 N 0.8494(4) 0.7318(4) 0.3611(2)
N3 N 0.9890(3) 0.6588(3) 0.56132(17)
N4 N 1.1586(4) 0.7018(3) 0.5244(2)
C1 C 0.6576(5) 1.0303(4) 0.6079(2)
C2 C 0.7235(5) 1.1343(4) 0.6131(2)
C3 C 0.6699(6) 1.2308(5) 0.6110(3)
H1 H 0.7143 1.2997 0.6168
C4 C 0.5525(7) 1.2268(5) 0.6006(3)
C5 C 0.4885(5) 1.1254(5) 0.5934(2)
H2 H 0.4094 1.1220 0.5857
C6 C 0.5383(5) 1.0259(4) 0.5973(2)
C7 C 0.8512(5) 1.1492(5) 0.6238(3)
H3 H 0.8782 1.2266 0.6258
H4 H 0.8761 1.1049 0.5921
H5 H 0.8810 1.1256 0.6603
C8 C 0.4947(7) 1.3334(6) 0.5975(3)
H6 H 0.4134 1.3146 0.5902
H7 H 0.5153 1.3684 0.5661
H8 H 0.5192 1.3839 0.6342
C9 C 0.4613(5) 0.9179(5) 0.5866(3)
H9 H 0.5064 0.8574 0.5907
H10 H 0.4160 0.9063 0.5475
H11 H 0.4122 0.9209 0.6148
C10 C 0.6967(4) 0.8503(4) 0.6649(2)
C11 C 0.7298(4) 0.8993(5) 0.7250(2)
C12 C 0.7224(5) 0.8350(5) 0.7687(3)
H12 H 0.7456 0.8689 0.8080
C13 C 0.6823(5) 0.7242(6) 0.7563(3)
C14 C 0.6475(5) 0.6746(5) 0.6970(3)
H13 H 0.6192 0.5991 0.6877
C15 C 0.6543(5) 0.7353(4) 0.6518(3)
C16 C 0.7761(5) 1.0209(5) 0.7443(3)
H14 H 0.7939 1.0378 0.7866
H15 H 0.7201 1.0664 0.7295
H16 H 0.8440 1.0360 0.7291
C17 C 0.6759(6) 0.6537(5) 0.8052(3)
H17 H 0.7032 0.7000 0.8430
H18 H 0.7222 0.5940 0.8006
H19 H 0.5982 0.6229 0.8024
C18 C 0.6100(5) 0.6753(4) 0.5900(3)
H20 H 0.5857 0.5983 0.5907
H21 H 0.6693 0.6798 0.5676
H22 H 0.5466 0.7095 0.5722
C19 C 0.7931(4) 0.8764(4) 0.5733(2)
C20 C 0.7931(4) 0.9120(4) 0.5194(2)
H23 H 0.7491 0.9679 0.5095
C21 C 0.8567(4) 0.8666(4) 0.4801(2)
C22 C 0.9240(4) 0.7836(4) 0.4941(2)
H24 H 0.9673 0.7529 0.4680
C23 C 0.9252(4) 0.7482(4) 0.5472(2)
C24 C 0.8634(4) 0.7953(4) 0.5864(2)
H25 H 0.8687 0.7721 0.6228
C25 C 0.8517(4) 1.0150(4) 0.4173(3)
H26 H 0.8524 1.0752 0.4470
C26 C 0.8480(5) 1.0225(5) 0.3605(3)
H27 H 0.8461 1.0877 0.3442
C27 C 0.8473(5) 0.9141(5) 0.3298(3)
C28 C 0.8451(6) 0.8643(6) 0.2725(3)
H28 H 0.8447 0.9074 0.2429
C29 C 0.8436(7) 0.7510(6) 0.2599(3)
H29 H 0.8406 0.7161 0.2214
C30 C 0.8465(6) 0.6885(5) 0.3049(3)
H30 H 0.8464 0.6116 0.2954
C31 C 0.8504(4) 0.8416(4) 0.3708(2)
C32 C 0.9486(5) 0.5720(4) 0.5877(2)
H31 H 0.8798 0.5666 0.6007
C33 C 1.0247(5) 0.4968(4) 0.5917(2)
H32 H 1.0175 0.4318 0.6078
C34 C 1.1157(5) 0.5342(4) 0.5671(2)
C35 C 1.2182(5) 0.4960(5) 0.5579(3)
H33 H 1.2394 0.4297 0.5692
C36 C 1.2864(5) 0.5607(5) 0.5315(3)
H34 H 1.3541 0.5364 0.5235
C37 C 1.2567(5) 0.6615(5) 0.5165(3)
H35 H 1.3071 0.7037 0.5000
C38 C 1.0939(4) 0.6366(4) 0.5487(2)
B1 B 0.7158(5) 0.9203(5) 0.6156(3)
N5 N 0.5751(3) 0.0506(3) -0.08190(18)
N6 N 0.5536(4) 0.1888(4) -0.1442(2)
N7 N 0.5643(3) 0.3821(3) 0.05970(17)
N8 N 0.3647(4) 0.3196(3) 0.02707(19)
C39 C 0.9418(4) 0.2507(4) 0.1458(2)
C40 C 0.9700(4) 0.3511(4) 0.1256(2)
C41 C 1.0275(5) 0.4427(4) 0.1651(3)
H36 H 1.0464 0.5077 0.1508
C42 C 1.0587(5) 0.4428(5) 0.2256(3)
C43 C 1.0305(5) 0.3445(5) 0.2446(3)
H37 H 1.0488 0.3418 0.2847
C44 C 0.9755(4) 0.2484(4) 0.2063(2)
C45 C 0.9456(5) 0.3603(4) 0.0611(2)
H38 H 0.9708 0.4349 0.0563
H39 H 0.8651 0.3436 0.0458
H40 H 0.9852 0.3081 0.0399
C46 C 1.1222(7) 0.5446(5) 0.2676(3)
H41 H 1.1361 0.5283 0.3070
H42 H 1.0774 0.6058 0.2660
H43 H 1.1936 0.5645 0.2566
C47 C 0.9495(5) 0.1462(4) 0.2323(2)
H44 H 0.9795 0.1612 0.2740
H45 H 0.9840 0.0855 0.2143
H46 H 0.8685 0.1263 0.2254
C48 C 0.9221(4) 0.0288(4) 0.0968(2)
C49 C 0.8597(5) -0.0685(4) 0.1054(2)
C50 C 0.9111(6) -0.1652(4) 0.1080(2)
H47 H 0.8694 -0.2286 0.1147
C51 C 1.0229(6) -0.1707(5) 0.1009(2)
C52 C 1.0804(5) -0.0794(4) 0.0894(2)
H48 H 1.1543 -0.0829 0.0829
C53 C 1.0329(4) 0.0210(4) 0.0868(2)
C54 C 0.7377(5) -0.0702(5) 0.1147(3)
H49 H 0.7101 -0.1437 0.1200
H50 H 0.6906 -0.0506 0.0809
H51 H 0.7353 -0.0172 0.1491
C55 C 1.0760(7) -0.2761(5) 0.1066(3)
H52 H 1.1529 -0.2661 0.1005
H53 H 1.0328 -0.3364 0.0777
H54 H 1.0763 -0.2934 0.1454
C56 C 1.1034(4) 0.1176(4) 0.0712(2)
H55 H 1.1764 0.0961 0.0662
H56 H 1.1139 0.1807 0.1024
H57 H 1.0647 0.1374 0.0353
C57 C 0.7584(4) 0.1625(4) 0.0641(2)
C58 C 0.7112(4) 0.0943(4) 0.0111(2)
H58 H 0.7426 0.0292 0.0004
C59 C 0.6185(4) 0.1203(4) -0.0265(2)
C60 C 0.5687(4) 0.2148(4) -0.0107(2)
H59 H 0.5065 0.2329 -0.0360
C61 C 0.6116(4) 0.2817(4) 0.0425(2)
C62 C 0.7045(4) 0.2556(4) 0.0801(2)
H60 H 0.7313 0.3009 0.1166
C63 C 0.5554(5) -0.0651(4) -0.0919(3)
H61 H 0.5692 -0.1095 -0.0630
C64 C 0.5146(5) -0.1032(5) -0.1477(3)
H62 H 0.4952 -0.1781 -0.1647
C65 C 0.5049(5) -0.0115(5) -0.1779(3)
C66 C 0.4705(6) 0.0049(6) -0.2346(3)
H63 H 0.4424 -0.0551 -0.2650
C67 C 0.4786(7) 0.1137(8) -0.2455(3)
H64 H 0.4561 0.1274 -0.2837
C68 C 0.5190(7) 0.1999(6) -0.2010(3)
H65 H 0.5233 0.2718 -0.2100
C69 C 0.5452(4) 0.0823(4) -0.1362(2)
C70 C 0.6266(5) 0.4823(4) 0.0874(2)
H66 H 0.7057 0.4939 0.0978
C71 C 0.5577(5) 0.5614(4) 0.0975(2)
H67 H 0.5804 0.6351 0.1161
C72 C 0.4441(5) 0.5109(4) 0.0745(2)
C73 C 0.3368(5) 0.5433(4) 0.0693(3)
H68 H 0.3265 0.6169 0.0824
C74 C 0.2461(5) 0.4658(5) 0.0446(3)
H69 H 0.1726 0.4855 0.0416
C75 C 0.2629(5) 0.3554(5) 0.0234(2)
H70 H 0.1990 0.3046 0.0057
C76 C 0.4497(4) 0.3974(4) 0.0513(2)
B2 B 0.8734(5) 0.1451(4) 0.1021(3)
C77 C 1.2590(11) 0.6632(10) 0.7334(6)
H71 H 1.1894 0.6177 0.7118
H72 H 1.2385 0.7159 0.7640
Cl1 Cl 1.3491(4) 0.5753(3) 0.7675(2)
Cl2 Cl 1.3076(5) 0.7283(4) 0.6916(2)
loop_
_geom_bond_atom_site_label_1
_geom_bond_atom_site_label_2
_geom_bond_site_symmetry_1
_geom_bond_site_symmetry_2
N1 C21 1_555 1_555
N2 C30 1_555 1_555
N3 C23 1_555 1_555
N4 C37 1_555 1_555
N5 C59 1_555 1_555
N6 C68 1_555 1_555
N7 C61 1_555 1_555
N8 C75 1_555 1_555
C1 C2 1_555 1_555
C2 C3 1_555 1_555
C3 H1 1_555 1_555
C4 C3 1_555 1_555
C5 C4 1_555 1_555
H2 C5 1_555 1_555
C6 C1 1_555 1_555
C7 C2 1_555 1_555
H3 C7 1_555 1_555
H4 C7 1_555 1_555
H5 C7 1_555 1_555
C8 C4 1_555 1_555
H6 C8 1_555 1_555
H7 C8 1_555 1_555
H8 C8 1_555 1_555
C9 C6 1_555 1_555
H9 C9 1_555 1_555
H10 C9 1_555 1_555
H11 C9 1_555 1_555
C10 C11 1_555 1_555
C11 C12 1_555 1_555
C12 H12 1_555 1_555
C13 C12 1_555 1_555
C14 C13 1_555 1_555
H13 C14 1_555 1_555
C15 C10 1_555 1_555
C16 C11 1_555 1_555
H14 C16 1_555 1_555
H15 C16 1_555 1_555
H16 C16 1_555 1_555
C17 C13 1_555 1_555
H17 C17 1_555 1_555
H18 C17 1_555 1_555
H19 C17 1_555 1_555
C18 C15 1_555 1_555
H20 C18 1_555 1_555
H21 C18 1_555 1_555
H22 C18 1_555 1_555
C19 C20 1_555 1_555
C20 H23 1_555 1_555
C21 C20 1_555 1_555
C22 C21 1_555 1_555
H24 C22 1_555 1_555
C23 C22 1_555 1_555
C24 C19 1_555 1_555
H25 C24 1_555 1_555
C25 N1 1_555 1_555
H26 C25 1_555 1_555
C26 C25 1_555 1_555
H27 C26 1_555 1_555
C27 C26 1_555 1_555
C28 C27 1_555 1_555
H28 C28 1_555 1_555
C29 C28 1_555 1_555
H29 C29 1_555 1_555
C30 C29 1_555 1_555
H30 C30 1_555 1_555
C31 N1 1_555 1_555
C32 N3 1_555 1_555
H31 C32 1_555 1_555
C33 C32 1_555 1_555
H32 C33 1_555 1_555
C34 C33 1_555 1_555
C35 C34 1_555 1_555
H33 C35 1_555 1_555
C36 C35 1_555 1_555
H34 C36 1_555 1_555
C37 C36 1_555 1_555
H35 C37 1_555 1_555
C38 N3 1_555 1_555
C39 C40 1_555 1_555
C40 C41 1_555 1_555
C41 H36 1_555 1_555
C42 C41 1_555 1_555
C43 C42 1_555 1_555
H37 C43 1_555 1_555
C44 C39 1_555 1_555
C45 C40 1_555 1_555
H38 C45 1_555 1_555
H39 C45 1_555 1_555
H40 C45 1_555 1_555
C46 C42 1_555 1_555
H41 C46 1_555 1_555
H42 C46 1_555 1_555
H43 C46 1_555 1_555
C47 C44 1_555 1_555
H44 C47 1_555 1_555
H45 C47 1_555 1_555
H46 C47 1_555 1_555
C48 C49 1_555 1_555
C49 C50 1_555 1_555
C50 H47 1_555 1_555
C51 C50 1_555 1_555
C52 C51 1_555 1_555
H48 C52 1_555 1_555
C53 C48 1_555 1_555
C54 C49 1_555 1_555
H49 C54 1_555 1_555
H50 C54 1_555 1_555
H51 C54 1_555 1_555
C55 C51 1_555 1_555
H52 C55 1_555 1_555
H53 C55 1_555 1_555
H54 C55 1_555 1_555
C56 C53 1_555 1_555
H55 C56 1_555 1_555
H56 C56 1_555 1_555
H57 C56 1_555 1_555
C57 C58 1_555 1_555
C58 H58 1_555 1_555
C59 C58 1_555 1_555
C60 C59 1_555 1_555
H59 C60 1_555 1_555
C61 C60 1_555 1_555
C62 C57 1_555 1_555
H60 C62 1_555 1_555
C63 N5 1_555 1_555
H61 C63 1_555 1_555
C64 C63 1_555 1_555
H62 C64 1_555 1_555
C65 C64 1_555 1_555
C66 C65 1_555 1_555
H63 C66 1_555 1_555
C67 C66 1_555 1_555
H64 C67 1_555 1_555
C68 C67 1_555 1_555
H65 C68 1_555 1_555
C69 N5 1_555 1_555
C70 N7 1_555 1_555
H66 C70 1_555 1_555
C71 C70 1_555 1_555
H67 C71 1_555 1_555
C72 C71 1_555 1_555
C73 C72 1_555 1_555
H68 C73 1_555 1_555
C74 C73 1_555 1_555
H69 C74 1_555 1_555
C75 C74 1_555 1_555
H70 C75 1_555 1_555
C76 N7 1_555 1_555
C77 H71 1_555 1_555
H72 C77 1_555 1_555
B1 C1 1_555 1_555
B2 C39 1_555 1_555
Cl1 C77 1_555 1_555
Cl2 C77 1_555 1_555
N2 C31 1_555 1_555
N4 C38 1_555 1_555
N6 C69 1_555 1_555
N8 C76 1_555 1_555
C5 C6 1_555 1_555
C10 B1 1_555 1_555
C14 C15 1_555 1_555
C19 B1 1_555 1_555
C23 C24 1_555 1_555
C27 C31 1_555 1_555
C34 C38 1_555 1_555
C43 C44 1_555 1_555
C48 B2 1_555 1_555
C52 C53 1_555 1_555
C57 B2 1_555 1_555
C61 C62 1_555 1_555
C65 C69 1_555 1_555
C72 C76 1_555 1_555

#END
