
#######################################################################
#
#                 Cambridge Crystallographic Data Centre
#                                CCDC 
#
#######################################################################
#
# If this CIF has been generated from an entry in the Cambridge 
# Structural Database, then it will include bibliographic, chemical, 
# crystal, experimental, refinement or atomic coordinate data resulting 
# from the CCDC's data processing and validation procedures.
#
#######################################################################

data_IVEWIP
_chemical_formula_moiety         'C31 H31 B1 N2'
_chemical_name_systematic        Dimesityl-(p-(7-azaindolyl)phenyl)borane
_symmetry_cell_setting           monoclinic
_symmetry_space_group_name_H-M   'P 21'
_symmetry_Int_Tables_number      4
_space_group_name_Hall           'P 2yb'
loop_
_symmetry_equiv_pos_site_id
_symmetry_equiv_pos_as_xyz
1 x,y,z
2 -x,1/2+y,-z
_cell_length_a                   12.224(4)
_cell_length_b                   13.231(4)
_cell_length_c                   16.429(5)
_cell_angle_alpha                90
_cell_angle_beta                 102.940(5)
_cell_angle_gamma                90
_cell_volume                     2589.68
_exptl_crystal_colour            colorless
_exptl_crystal_description       block
_chemical_melting_point          161-162deg.C
_cell_formula_units_Z            4
_exptl_crystal_recrystallization_method dichloromethane/hexane
_exptl_crystal_preparation       luminescent
loop_
_atom_site_label
_atom_site_type_symbol
_atom_site_fract_x
_atom_site_fract_y
_atom_site_fract_z
N1 N 0.9838(2) -0.5874(2) 0.15932(16)
N2 N 1.0505(2) -0.4236(2) 0.21421(17)
B1 B 0.6085(3) -0.4893(3) -0.1128(2)
C1 C 1.0208(3) -0.6854(3) 0.1774(2)
H1 H 0.9866 -0.7428 0.1503
C2 C 1.1130(4) -0.6858(3) 0.2397(3)
H2 H 1.1528 -0.7426 0.2629
C3 C 1.1387(3) -0.5846(3) 0.2638(2)
C4 C 1.2206(4) -0.5358(3) 0.3228(3)
H3 H 1.2771 -0.5717 0.3585
C5 C 1.2148(4) -0.4334(4) 0.3266(3)
H4 H 1.2678 -0.3983 0.3660
C6 C 1.1308(3) -0.3804(3) 0.2723(2)
H5 H 1.1305 -0.3103 0.2767
C7 C 1.0578(3) -0.5232(3) 0.21239(19)
C8 C 0.8903(3) -0.5598(2) 0.09390(18)
C9 C 0.8962(3) -0.4771(3) 0.04366(19)
H6 H 0.9598 -0.4363 0.0539
C10 C 0.8075(3) -0.4558(2) -0.02139(19)
H7 H 0.8117 -0.3996 -0.0546
C11 C 0.7104(3) -0.5161(2) -0.03953(19)
C12 C 0.7084(3) -0.5994(2) 0.0125(2)
H8 H 0.6462 -0.6419 0.0020
C13 C 0.7962(3) -0.6200(3) 0.0789(2)
H9 H 0.7919 -0.6746 0.1137
C14 C 0.5271(3) -0.5783(3) -0.15285(18)
C15 C 0.5671(3) -0.6639(3) -0.1884(2)
C16 C 0.4926(4) -0.7393(3) -0.2214(2)
H10 H 0.5189 -0.7940 -0.2469
C17 C 0.3803(4) -0.7375(4) -0.2183(2)
C18 C 0.3437(3) -0.6545(4) -0.1831(2)
H11 H 0.2684 -0.6510 -0.1811
C19 C 0.4137(3) -0.5751(3) -0.1502(2)
C20 C 0.6861(3) -0.6735(3) -0.1960(3)
H12 H 0.6960 -0.7369 -0.2218
H13 H 0.7350 -0.6704 -0.1415
H14 H 0.7037 -0.6192 -0.2297
C21 C 0.3024(5) -0.8250(4) -0.2509(3)
H15 H 0.3430 -0.8759 -0.2735
H16 H 0.2410 -0.8012 -0.2937
H17 H 0.2739 -0.8533 -0.2059
C22 C 0.3659(3) -0.4905(3) -0.1088(3)
H18 H 0.2871 -0.5019 -0.1135
H19 H 0.3765 -0.4278 -0.1354
H20 H 0.4033 -0.4876 -0.0508
C23 C 0.5876(3) -0.3767(3) -0.1417(2)
C24 C 0.5753(3) -0.3482(3) -0.2258(2)
C25 C 0.5560(3) -0.2456(4) -0.2493(3)
H21 H 0.5524 -0.2271 -0.3044
C26 C 0.5426(4) -0.1739(3) -0.1935(4)
C27 C 0.5542(3) -0.2013(3) -0.1114(3)
H22 H 0.5461 -0.1522 -0.0727
C28 C 0.5774(3) -0.2990(3) -0.0847(2)
C29 C 0.5808(4) -0.4258(4) -0.2926(2)
H23 H 0.5942 -0.4915 -0.2675
H24 H 0.6408 -0.4088 -0.3192
H25 H 0.5110 -0.4263 -0.3334
C30 C 0.5148(5) -0.0660(4) -0.2214(4)
H26 H 0.5102 -0.0606 -0.2803
H27 H 0.5724 -0.0217 -0.1919
H28 H 0.4441 -0.0473 -0.2096
C31 C 0.5822(4) -0.3218(3) 0.0072(2)
H29 H 0.5734 -0.2601 0.0358
H30 H 0.6534 -0.3518 0.0320
H31 H 0.5230 -0.3677 0.0114
N3 N 0.9612(2) -0.0871(2) 0.13329(16)
N4 N 0.9039(2) 0.0769(2) 0.07534(16)
B2 B 1.1862(3) 0.0110(3) 0.4728(2)
C32 C 0.9445(4) -0.1846(3) 0.1028(2)
H32 H 0.9720 -0.2424 0.1327
C33 C 0.8834(4) -0.1844(3) 0.0244(2)
H33 H 0.8613 -0.2408 -0.0091
C34 C 0.8586(3) -0.0818(3) 0.0014(2)
C35 C 0.7968(3) -0.0332(3) -0.0680(2)
H34 H 0.7614 -0.0689 -0.1154
C36 C 0.7897(3) 0.0688(3) -0.0645(2)
H35 H 0.7478 0.1039 -0.1099
C37 C 0.8440(3) 0.1216(3) 0.0058(2)
H36 H 0.8389 0.1918 0.0049
C38 C 0.9081(3) -0.0221(3) 0.0702(2)
C39 C 1.0147(3) -0.0609(3) 0.2169(2)
C40 C 1.0034(3) -0.1248(3) 0.2812(2)
H37 H 0.9579 -0.1818 0.2702
C41 C 1.0600(3) -0.1033(3) 0.3616(2)
H38 H 1.0546 -0.1482 0.4041
C42 C 1.1252(3) -0.0163(3) 0.38153(19)
C43 C 1.1324(3) 0.0469(2) 0.3145(2)
H39 H 1.1748 0.1057 0.3249
C44 C 1.0786(3) 0.0245(3) 0.23362(19)
H40 H 1.0858 0.0676 0.1904
C45 C 1.2106(3) -0.0760(3) 0.54063(19)
C46 C 1.1664(3) -0.0705(3) 0.6121(2)
C47 C 1.1862(3) -0.1491(4) 0.6692(2)
H41 H 1.1551 -0.1451 0.7158
C48 C 1.2485(3) -0.2317(3) 0.6607(3)
C49 C 1.2922(3) -0.2363(3) 0.5907(3)
H42 H 1.3358 -0.2918 0.5836
C50 C 1.2739(3) -0.1619(3) 0.5305(2)
C51 C 1.3281(4) -0.1732(3) 0.4583(3)
H43 H 1.3672 -0.2366 0.4625
H44 H 1.3804 -0.1190 0.4586
H45 H 1.2717 -0.1714 0.4072
C52 C 1.2641(4) -0.3170(4) 0.7244(3)
H46 H 1.3098 -0.3690 0.7083
H47 H 1.1922 -0.3445 0.7267
H48 H 1.3002 -0.2913 0.7784
C53 C 1.0918(3) 0.0139(3) 0.6264(2)
H49 H 1.0705 0.0038 0.6786
H50 H 1.0257 0.0152 0.5819
H51 H 1.1311 0.0769 0.6278
C54 C 1.2182(3) 0.1254(3) 0.49451(19)
C55 C 1.1359(3) 0.2002(3) 0.4813(2)
C56 C 1.1647(4) 0.2995(3) 0.5036(2)
H52 H 1.1084 0.3483 0.4940
C57 C 1.2711(5) 0.3287(4) 0.5388(3)
C58 C 1.3538(4) 0.2551(4) 0.5496(2)
H53 H 1.4281 0.2735 0.5711
C59 C 1.3287(3) 0.1550(3) 0.5294(2)
C60 C 1.0140(3) 0.1788(3) 0.4458(3)
H54 H 0.9722 0.2407 0.4414
H55 H 0.9866 0.1329 0.4819
H56 H 1.0052 0.1490 0.3915
C61 C 1.3010(6) 0.4356(4) 0.5660(4)
H57 H 1.2345 0.4766 0.5544
H58 H 1.3540 0.4617 0.5362
H59 H 1.3335 0.4367 0.6249
C62 C 1.4247(3) 0.0788(3) 0.5455(3)
H60 H 1.4938 0.1129 0.5693
H61 H 1.4301 0.0476 0.4939
H62 H 1.4106 0.0280 0.5836
loop_
_geom_bond_atom_site_label_1
_geom_bond_atom_site_label_2
_geom_bond_site_symmetry_1
_geom_bond_site_symmetry_2
N1 C1 1_555 1_555
N2 C6 1_555 1_555
N3 C32 1_555 1_555
N4 C37 1_555 1_555
B1 C11 1_555 1_555
B2 C42 1_555 1_555
C1 H1 1_555 1_555
C2 C1 1_555 1_555
H2 C2 1_555 1_555
C3 C2 1_555 1_555
C4 C3 1_555 1_555
H3 C4 1_555 1_555
C5 C4 1_555 1_555
H4 C5 1_555 1_555
C6 C5 1_555 1_555
H5 C6 1_555 1_555
C7 N1 1_555 1_555
C8 N1 1_555 1_555
C9 C8 1_555 1_555
H6 C9 1_555 1_555
C10 C9 1_555 1_555
H7 C10 1_555 1_555
C11 C10 1_555 1_555
C12 C11 1_555 1_555
H8 C12 1_555 1_555
C13 C8 1_555 1_555
H9 C13 1_555 1_555
C14 B1 1_555 1_555
C15 C14 1_555 1_555
C16 C15 1_555 1_555
H10 C16 1_555 1_555
C17 C16 1_555 1_555
C18 C17 1_555 1_555
H11 C18 1_555 1_555
C19 C14 1_555 1_555
C20 C15 1_555 1_555
H12 C20 1_555 1_555
H13 C20 1_555 1_555
H14 C20 1_555 1_555
C21 C17 1_555 1_555
H15 C21 1_555 1_555
H16 C21 1_555 1_555
H17 C21 1_555 1_555
C22 C19 1_555 1_555
H18 C22 1_555 1_555
H19 C22 1_555 1_555
H20 C22 1_555 1_555
C23 B1 1_555 1_555
C24 C23 1_555 1_555
C25 C24 1_555 1_555
H21 C25 1_555 1_555
C26 C25 1_555 1_555
C27 C26 1_555 1_555
H22 C27 1_555 1_555
C28 C23 1_555 1_555
C29 C24 1_555 1_555
H23 C29 1_555 1_555
H24 C29 1_555 1_555
H25 C29 1_555 1_555
C30 C26 1_555 1_555
H26 C30 1_555 1_555
H27 C30 1_555 1_555
H28 C30 1_555 1_555
C31 C28 1_555 1_555
H29 C31 1_555 1_555
H30 C31 1_555 1_555
H31 C31 1_555 1_555
C32 H32 1_555 1_555
C33 C32 1_555 1_555
H33 C33 1_555 1_555
C34 C33 1_555 1_555
C35 C34 1_555 1_555
H34 C35 1_555 1_555
C36 C35 1_555 1_555
H35 C36 1_555 1_555
C37 C36 1_555 1_555
H36 C37 1_555 1_555
C38 N3 1_555 1_555
C39 N3 1_555 1_555
C40 C39 1_555 1_555
H37 C40 1_555 1_555
C41 C40 1_555 1_555
H38 C41 1_555 1_555
C42 C41 1_555 1_555
C43 C42 1_555 1_555
H39 C43 1_555 1_555
C44 C39 1_555 1_555
H40 C44 1_555 1_555
C45 B2 1_555 1_555
C46 C45 1_555 1_555
C47 C46 1_555 1_555
H41 C47 1_555 1_555
C48 C47 1_555 1_555
C49 C48 1_555 1_555
H42 C49 1_555 1_555
C50 C45 1_555 1_555
C51 C50 1_555 1_555
H43 C51 1_555 1_555
H44 C51 1_555 1_555
H45 C51 1_555 1_555
C52 C48 1_555 1_555
H46 C52 1_555 1_555
H47 C52 1_555 1_555
H48 C52 1_555 1_555
C53 C46 1_555 1_555
H49 C53 1_555 1_555
H50 C53 1_555 1_555
H51 C53 1_555 1_555
C54 B2 1_555 1_555
C55 C54 1_555 1_555
C56 C55 1_555 1_555
H52 C56 1_555 1_555
C57 C56 1_555 1_555
C58 C57 1_555 1_555
H53 C58 1_555 1_555
C59 C54 1_555 1_555
C60 C55 1_555 1_555
H54 C60 1_555 1_555
H55 C60 1_555 1_555
H56 C60 1_555 1_555
C61 C57 1_555 1_555
H57 C61 1_555 1_555
H58 C61 1_555 1_555
H59 C61 1_555 1_555
C62 C59 1_555 1_555
H60 C62 1_555 1_555
H61 C62 1_555 1_555
H62 C62 1_555 1_555
N2 C7 1_555 1_555
N4 C38 1_555 1_555
C3 C7 1_555 1_555
C12 C13 1_555 1_555
C18 C19 1_555 1_555
C27 C28 1_555 1_555
C34 C38 1_555 1_555
C43 C44 1_555 1_555
C49 C50 1_555 1_555
C58 C59 1_555 1_555

#END
