
#######################################################################
#
#                 Cambridge Crystallographic Data Centre
#                                CCDC 
#
#######################################################################
#
# If this CIF has been generated from an entry in the Cambridge 
# Structural Database, then it will include bibliographic, chemical, 
# crystal, experimental, refinement or atomic coordinate data resulting 
# from the CCDC's data processing and validation procedures.
#
#######################################################################

data_IVEXEO
_chemical_formula_moiety         'C33 H23 N1 O2'
_chemical_name_systematic        
2-Nitro-9-(2,2,2-triphenylethylidene)-9H-fluorene
_symmetry_cell_setting           triclinic
_symmetry_space_group_name_H-M   'P -1'
_symmetry_Int_Tables_number      2
_space_group_name_Hall           '-P 1'
loop_
_symmetry_equiv_pos_site_id
_symmetry_equiv_pos_as_xyz
1 x,y,z
2 -x,-y,-z
_cell_length_a                   8.5786(2)
_cell_length_b                   9.7671(3)
_cell_length_c                   15.6403(4)
_cell_angle_alpha                100.0330(10)
_cell_angle_beta                 104.2190(10)
_cell_angle_gamma                106.9520(10)
_cell_volume                     1171.64
_exptl_crystal_colour            yellow
_exptl_crystal_description       block
_cell_formula_units_Z            2
loop_
_atom_site_label
_atom_site_type_symbol
_atom_site_fract_x
_atom_site_fract_y
_atom_site_fract_z
C1 C 0.82520(12) 0.63592(10) 0.10045(7)
C2 C 0.72033(13) 0.57299(11) 0.14856(7)
H1 H 0.7288 0.6258 0.2076
C3 C 0.60216(14) 0.42969(12) 0.10734(8)
C4 C 0.58388(16) 0.34725(12) 0.02133(9)
H2 H 0.5039 0.2486 -0.0032
C5 C 0.68471(15) 0.41184(12) -0.02809(8)
H3 H 0.6728 0.3590 -0.0878
C6 C 0.80385(13) 0.55550(11) 0.01104(7)
C7 C 0.91968(14) 0.64845(12) -0.02722(7)
C8 C 0.94682(16) 0.62048(14) -0.11205(7)
H4 H 0.8838 0.5278 -0.1562
C9 C 1.06748(17) 0.73073(16) -0.13042(8)
H5 H 1.0881 0.7135 -0.1876
C10 C 1.15904(17) 0.86700(15) -0.06540(8)
H6 H 1.2414 0.9414 -0.0791
C11 C 1.13206(14) 0.89621(12) 0.01932(7)
H7 H 1.1943 0.9896 0.0630
C12 C 1.01200(13) 0.78558(11) 0.03836(6)
C13 C 0.96030(12) 0.78399(10) 0.12236(6)
C14 C 1.03589(11) 0.90166(10) 0.19698(6)
H8 H 1.1162 0.9840 0.1881
C15 C 1.01771(11) 0.92853(10) 0.29298(6)
C16 C 1.00207(12) 0.78925(10) 0.32831(6)
C17 C 1.10855(14) 0.70880(11) 0.31394(7)
H9 H 1.1899 0.7419 0.2835
C18 C 1.09673(17) 0.58093(12) 0.34365(7)
H10 H 1.1692 0.5270 0.3330
C19 C 0.97942(19) 0.53197(13) 0.38876(8)
H11 H 0.9696 0.4434 0.4078
C20 C 0.87629(17) 0.61316(13) 0.40600(8)
H12 H 0.7975 0.5812 0.4380
C21 C 0.88839(14) 0.74175(11) 0.37627(7)
H13 H 0.8185 0.7973 0.3889
C22 C 0.86219(12) 0.97874(10) 0.29231(6)
C23 C 0.71334(12) 0.92333(11) 0.21697(7)
H14 H 0.7070 0.8534 0.1645
C24 C 0.57374(14) 0.96898(13) 0.21740(8)
H15 H 0.4736 0.9304 0.1654
C25 C 0.58061(14) 1.07074(13) 0.29367(8)
H16 H 0.4861 1.1026 0.2939
C26 C 0.72736(14) 1.12532(12) 0.36962(8)
H17 H 0.7327 1.1942 0.4222
C27 C 0.86653(13) 1.07969(12) 0.36903(7)
H18 H 0.9659 1.1176 0.4215
C28 C 1.18175(11) 1.05795(10) 0.35662(6)
C29 C 1.27864(12) 1.04835(11) 0.43981(6)
H19 H 1.2462 0.9588 0.4577
C30 C 1.42260(13) 1.16866(12) 0.49711(7)
H20 H 1.4869 1.1606 0.5537
C31 C 1.47207(13) 1.30007(11) 0.47165(7)
H21 H 1.5707 1.3815 0.5102
C32 C 1.37576(13) 1.31135(11) 0.38908(7)
H22 H 1.4088 1.4010 0.3713
C33 C 1.23156(12) 1.19212(10) 0.33255(6)
H23 H 1.1659 1.2017 0.2769
N1 N 0.48769(14) 0.36565(13) 0.15704(9)
O1 O 0.47623(15) 0.44973(14) 0.22185(8)
O2 O 0.40567(15) 0.23153(13) 0.13037(10)
loop_
_geom_bond_atom_site_label_1
_geom_bond_atom_site_label_2
_geom_bond_site_symmetry_1
_geom_bond_site_symmetry_2
C1 C2 1_555 1_555
C2 H1 1_555 1_555
C3 C2 1_555 1_555
C4 C3 1_555 1_555
H2 C4 1_555 1_555
C5 C4 1_555 1_555
H3 C5 1_555 1_555
C6 C1 1_555 1_555
C7 C6 1_555 1_555
C8 C7 1_555 1_555
H4 C8 1_555 1_555
C9 C8 1_555 1_555
H5 C9 1_555 1_555
C10 C9 1_555 1_555
H6 C10 1_555 1_555
C11 C10 1_555 1_555
H7 C11 1_555 1_555
C12 C7 1_555 1_555
C13 C1 1_555 1_555
C14 C13 1_555 1_555
H8 C14 1_555 1_555
C15 C14 1_555 1_555
C16 C15 1_555 1_555
C17 C16 1_555 1_555
H9 C17 1_555 1_555
C18 C17 1_555 1_555
H10 C18 1_555 1_555
C19 C18 1_555 1_555
H11 C19 1_555 1_555
C20 C19 1_555 1_555
H12 C20 1_555 1_555
C21 C16 1_555 1_555
H13 C21 1_555 1_555
C22 C15 1_555 1_555
C23 C22 1_555 1_555
H14 C23 1_555 1_555
C24 C23 1_555 1_555
H15 C24 1_555 1_555
C25 C24 1_555 1_555
H16 C25 1_555 1_555
C26 C25 1_555 1_555
H17 C26 1_555 1_555
C27 C22 1_555 1_555
H18 C27 1_555 1_555
C28 C15 1_555 1_555
C29 C28 1_555 1_555
H19 C29 1_555 1_555
C30 C29 1_555 1_555
H20 C30 1_555 1_555
C31 C30 1_555 1_555
H21 C31 1_555 1_555
C32 C31 1_555 1_555
H22 C32 1_555 1_555
C33 C28 1_555 1_555
H23 C33 1_555 1_555
N1 C3 1_555 1_555
O1 N1 1_555 1_555
O2 N1 1_555 1_555
C5 C6 1_555 1_555
C11 C12 1_555 1_555
C12 C13 1_555 1_555
C20 C21 1_555 1_555
C26 C27 1_555 1_555
C32 C33 1_555 1_555

#END
