
#######################################################################
#
#                 Cambridge Crystallographic Data Centre
#                                CCDC 
#
#######################################################################
#
# If this CIF has been generated from an entry in the Cambridge 
# Structural Database, then it will include bibliographic, chemical, 
# crystal, experimental, refinement or atomic coordinate data resulting 
# from the CCDC's data processing and validation procedures.
#
#######################################################################

data_IVEXOY
_chemical_formula_moiety         'C20 H16 Br1 N1'
_chemical_name_systematic        
1-(9-(bromomethylene)-9H-fluoren-2-yl)-2,5-dimethyl-1H-pyrrole
_symmetry_cell_setting           monoclinic
_symmetry_space_group_name_H-M   'C 2/c'
_symmetry_Int_Tables_number      15
_space_group_name_Hall           '-C 2yn'
loop_
_symmetry_equiv_pos_site_id
_symmetry_equiv_pos_as_xyz
1 x,y,z
2 -x,y,1/2-z
3 1/2+x,1/2+y,z
4 1/2-x,1/2+y,1/2-z
5 -x,-y,-z
6 x,-y,1/2+z
7 1/2-x,1/2-y,-z
8 1/2+x,1/2-y,1/2+z
_cell_length_a                   23.2679(13)
_cell_length_b                   11.8343(6)
_cell_length_c                   14.2215(10)
_cell_angle_alpha                90
_cell_angle_beta                 127.179(2)
_cell_angle_gamma                90
_cell_volume                     3120.1
_exptl_crystal_colour            yellow/orange
_exptl_crystal_description       rhomboid
_cell_formula_units_Z            8
loop_
_atom_site_label
_atom_site_type_symbol
_atom_site_fract_x
_atom_site_fract_y
_atom_site_fract_z
Br1 Br 0.168663(11) 0.617131(19) 0.198047(19)
N1 N 0.38893(10) 0.55275(16) 0.18451(16)
C1 C 0.33378(11) 0.74236(18) 0.32417(18)
C2 C 0.32985(11) 0.66086(18) 0.24985(18)
H1 H 0.2863 0.6206 0.1958
C3 C 0.39115(11) 0.63967(18) 0.25657(18)
C4 C 0.45571(11) 0.6985(2) 0.3354(2)
H2 H 0.4970 0.6820 0.3391
C5 C 0.45934(11) 0.78139(19) 0.40862(19)
H3 H 0.5027 0.8226 0.4614
C6 C 0.39868(11) 0.80282(18) 0.40312(18)
C7 C 0.38829(12) 0.88128(17) 0.47195(19)
C8 C 0.43499(13) 0.9583(2) 0.5602(2)
H4 H 0.4831 0.9665 0.5860
C9 C 0.40947(14) 1.0232(2) 0.6101(2)
H5 H 0.4406 1.0764 0.6702
C10 C 0.33908(14) 1.0110(2) 0.5728(2)
H6 H 0.3226 1.0569 0.6069
C11 C 0.29234(13) 0.9327(2) 0.4863(2)
H7 H 0.2447 0.9234 0.4625
C12 C 0.31723(12) 0.86821(18) 0.43547(19)
C13 C 0.28115(11) 0.77783(18) 0.34504(18)
C14 C 0.21662(12) 0.73742(19) 0.30557(19)
H8 H 0.1930 0.7721 0.3339
C15 C 0.36324(12) 0.56552(19) 0.06771(19)
C16 C 0.36946(13) 0.4622(2) 0.0307(2)
H9 H 0.3564 0.4454 -0.0453
C17 C 0.39890(14) 0.38462(19) 0.1261(2)
H10 H 0.4087 0.3070 0.1247
C18 C 0.41067(12) 0.44144(19) 0.2203(2)
C19 C 0.33469(14) 0.6751(2) 0.0041(2)
H11 H 0.3173 0.6655 -0.0777
H12 H 0.3732 0.7319 0.0432
H13 H 0.2948 0.7000 0.0048
C20 C 0.44071(14) 0.4025(2) 0.3419(2)
H14 H 0.4503 0.3212 0.3485
H15 H 0.4058 0.4178 0.3575
H16 H 0.4857 0.4430 0.3995
loop_
_geom_bond_atom_site_label_1
_geom_bond_atom_site_label_2
_geom_bond_site_symmetry_1
_geom_bond_site_symmetry_2
Br1 C14 1_555 1_555
N1 C3 1_555 1_555
C1 C2 1_555 1_555
C2 H1 1_555 1_555
C3 C2 1_555 1_555
C4 C3 1_555 1_555
H2 C4 1_555 1_555
C5 C4 1_555 1_555
H3 C5 1_555 1_555
C6 C1 1_555 1_555
C7 C6 1_555 1_555
C8 C7 1_555 1_555
H4 C8 1_555 1_555
C9 C8 1_555 1_555
H5 C9 1_555 1_555
C10 C9 1_555 1_555
H6 C10 1_555 1_555
C11 C10 1_555 1_555
H7 C11 1_555 1_555
C12 C7 1_555 1_555
C13 C1 1_555 1_555
C14 C13 1_555 1_555
H8 C14 1_555 1_555
C15 N1 1_555 1_555
C16 C15 1_555 1_555
H9 C16 1_555 1_555
C17 C16 1_555 1_555
H10 C17 1_555 1_555
C18 N1 1_555 1_555
C19 C15 1_555 1_555
H11 C19 1_555 1_555
H12 C19 1_555 1_555
H13 C19 1_555 1_555
C20 C18 1_555 1_555
H14 C20 1_555 1_555
H15 C20 1_555 1_555
H16 C20 1_555 1_555
C5 C6 1_555 1_555
C11 C12 1_555 1_555
C12 C13 1_555 1_555
C17 C18 1_555 1_555

#END
