
#######################################################################
#
#                 Cambridge Crystallographic Data Centre
#                                CCDC 
#
#######################################################################
#
# If this CIF has been generated from an entry in the Cambridge 
# Structural Database, then it will include bibliographic, chemical, 
# crystal, experimental, refinement or atomic coordinate data resulting 
# from the CCDC's data processing and validation procedures.
#
#######################################################################

data_IVEYEP
_chemical_formula_moiety         'C33 H23 I1'
_chemical_name_systematic        
2-iodo-9-(2,2,2-triphenylethylidene)-9H-fluorene
_symmetry_cell_setting           orthorhombic
_symmetry_space_group_name_H-M   'P b c a'
_symmetry_Int_Tables_number      61
_space_group_name_Hall           '-P 2ac 2ab'
loop_
_symmetry_equiv_pos_site_id
_symmetry_equiv_pos_as_xyz
1 x,y,z
2 1/2-x,-y,1/2+z
3 -x,1/2+y,1/2-z
4 1/2+x,1/2-y,-z
5 -x,-y,-z
6 1/2+x,y,1/2-z
7 x,1/2-y,1/2+z
8 1/2-x,1/2+y,z
_cell_length_a                   16.9332(3)
_cell_length_b                   14.0127(2)
_cell_length_c                   19.7578(3)
_cell_angle_alpha                90
_cell_angle_beta                 90
_cell_angle_gamma                90
_cell_volume                     4688.13
_exptl_crystal_description       plate
_cell_formula_units_Z            8
loop_
_atom_site_label
_atom_site_type_symbol
_atom_site_fract_x
_atom_site_fract_y
_atom_site_fract_z
I1 I 0.339174(6) -0.311549(8) 0.972649(5)
C1 C 0.32722(8) -0.03434(11) 0.87480(7)
C2 C 0.31715(9) -0.13062(11) 0.88910(7)
H1 H 0.2888(12) -0.1714(14) 0.8604(10)
C3 C 0.35123(9) -0.16580(12) 0.94851(8)
C4 C 0.39281(9) -0.10748(12) 0.99329(7)
H2 H 0.4159(12) -0.1299(15) 1.0334(10)
C5 C 0.39975(9) -0.01030(12) 0.97983(7)
H3 H 0.4262(11) 0.0305(14) 1.0102(10)
C6 C 0.36734(8) 0.02583(11) 0.92054(7)
C7 C 0.37121(8) 0.12179(11) 0.89143(7)
C8 C 0.40688(9) 0.20383(12) 0.91642(8)
H4 H 0.4325(14) 0.2060(16) 0.9595(11)
C9 C 0.40766(9) 0.28501(12) 0.87599(8)
H5 H 0.4354(12) 0.3419(15) 0.8926(10)
C10 C 0.37363(9) 0.28361(12) 0.81170(8)
H6 H 0.3785(12) 0.3362(15) 0.7829(10)
C11 C 0.33646(9) 0.20203(12) 0.78706(8)
H7 H 0.3134(13) 0.2017(14) 0.7434(11)
C12 C 0.33408(8) 0.12035(11) 0.82730(8)
C13 C 0.30320(8) 0.02259(11) 0.81443(7)
C14 C 0.26345(8) -0.01638(11) 0.76218(7)
H8 H 0.2551(11) -0.0835(13) 0.7654(9)
C15 C 0.23062(8) 0.02770(10) 0.69720(7)
C16 C 0.18479(8) 0.12096(11) 0.71105(7)
C17 C 0.17060(9) 0.18744(11) 0.65999(8)
H9 H 0.1958(11) 0.1819(12) 0.6181(9)
C18 C 0.11868(9) 0.26335(11) 0.66990(8)
H10 H 0.1093(13) 0.3093(14) 0.6321(11)
C19 C 0.08064(9) 0.27514(12) 0.73144(8)
H11 H 0.0436(12) 0.3267(14) 0.7391(10)
C20 C 0.09453(9) 0.20979(12) 0.78298(8)
H12 H 0.0691(12) 0.2167(15) 0.8241(10)
C21 C 0.14581(9) 0.13369(12) 0.77295(8)
H13 H 0.1548(11) 0.0892(15) 0.8093(10)
C22 C 0.16988(8) -0.04451(11) 0.66769(7)
C23 C 0.19766(9) -0.12906(11) 0.63864(8)
H14 H 0.2510(13) -0.1389(15) 0.6369(10)
C24 C 0.14638(10) -0.19664(11) 0.61204(9)
H15 H 0.1677(12) -0.2513(17) 0.5938(11)
C25 C 0.06524(9) -0.18139(11) 0.61448(8)
H16 H 0.0280(11) -0.2276(14) 0.5960(10)
C26 C 0.03685(8) -0.09838(11) 0.64345(8)
H17 H -0.0189(12) -0.0865(14) 0.6453(10)
C27 C 0.08831(9) -0.03006(11) 0.66956(7)
H18 H 0.0667(12) 0.0267(15) 0.6870(10)
C28 C 0.29854(8) 0.04044(10) 0.64515(7)
C29 C 0.28123(9) 0.04588(11) 0.57578(8)
H19 H 0.2289(12) 0.0393(14) 0.5609(10)
C30 C 0.33996(9) 0.05965(13) 0.52766(8)
H20 H 0.3234(15) 0.0663(19) 0.4798(12)
C31 C 0.41859(9) 0.06586(12) 0.54746(8)
H21 H 0.4577(12) 0.0753(14) 0.5153(10)
C32 C 0.43730(9) 0.05791(12) 0.61567(8)
H22 H 0.4911(12) 0.0598(14) 0.6291(10)
C33 C 0.37814(9) 0.04557(11) 0.66389(8)
H23 H 0.3927(12) 0.0389(14) 0.7087(10)
loop_
_geom_bond_atom_site_label_1
_geom_bond_atom_site_label_2
_geom_bond_site_symmetry_1
_geom_bond_site_symmetry_2
I1 C3 1_555 1_555
C1 C2 1_555 1_555
C2 H1 1_555 1_555
C3 C2 1_555 1_555
C4 C3 1_555 1_555
H2 C4 1_555 1_555
C5 C4 1_555 1_555
H3 C5 1_555 1_555
C6 C1 1_555 1_555
C7 C6 1_555 1_555
C8 C7 1_555 1_555
H4 C8 1_555 1_555
C9 C8 1_555 1_555
H5 C9 1_555 1_555
C10 C9 1_555 1_555
H6 C10 1_555 1_555
C11 C10 1_555 1_555
H7 C11 1_555 1_555
C12 C7 1_555 1_555
C13 C1 1_555 1_555
C14 C13 1_555 1_555
H8 C14 1_555 1_555
C15 C14 1_555 1_555
C16 C15 1_555 1_555
C17 C16 1_555 1_555
H9 C17 1_555 1_555
C18 C17 1_555 1_555
H10 C18 1_555 1_555
C19 C18 1_555 1_555
H11 C19 1_555 1_555
C20 C19 1_555 1_555
H12 C20 1_555 1_555
C21 C16 1_555 1_555
H13 C21 1_555 1_555
C22 C15 1_555 1_555
C23 C22 1_555 1_555
H14 C23 1_555 1_555
C24 C23 1_555 1_555
H15 C24 1_555 1_555
C25 C24 1_555 1_555
H16 C25 1_555 1_555
C26 C25 1_555 1_555
H17 C26 1_555 1_555
C27 C22 1_555 1_555
H18 C27 1_555 1_555
C28 C15 1_555 1_555
C29 C28 1_555 1_555
H19 C29 1_555 1_555
C30 C29 1_555 1_555
H20 C30 1_555 1_555
C31 C30 1_555 1_555
H21 C31 1_555 1_555
C32 C31 1_555 1_555
H22 C32 1_555 1_555
C33 C28 1_555 1_555
H23 C33 1_555 1_555
C5 C6 1_555 1_555
C11 C12 1_555 1_555
C12 C13 1_555 1_555
C20 C21 1_555 1_555
C26 C27 1_555 1_555
C32 C33 1_555 1_555

#END
