
#######################################################################
#
#                 Cambridge Crystallographic Data Centre
#                                CCDC 
#
#######################################################################
#
# If this CIF has been generated from an entry in the Cambridge 
# Structural Database, then it will include bibliographic, chemical, 
# crystal, experimental, refinement or atomic coordinate data resulting 
# from the CCDC's data processing and validation procedures.
#
#######################################################################

data_IVIJAA
_chemical_formula_moiety         'C32 H28 N6 O4'
_chemical_name_systematic        
't-butyl 2-(4-(1-(t-butoxycarbonyl)-1H-pyrrol-2-yl)-2,5-bis(2,2-dicyanovinyl)phenyl)-1H-pyrrole-1-carboxylate'
_symmetry_cell_setting           monoclinic
_symmetry_space_group_name_H-M   'C 2/c'
_symmetry_Int_Tables_number      15
_space_group_name_Hall           '-C 2yn'
loop_
_symmetry_equiv_pos_site_id
_symmetry_equiv_pos_as_xyz
1 x,y,z
2 -x,y,1/2-z
3 1/2+x,1/2+y,z
4 1/2-x,1/2+y,1/2-z
5 -x,-y,-z
6 x,-y,1/2+z
7 1/2-x,1/2-y,-z
8 1/2+x,1/2-y,1/2+z
_cell_length_a                   20.3875(9)
_cell_length_b                   6.9526(2)
_cell_length_c                   21.3637(7)
_cell_angle_alpha                90
_cell_angle_beta                 95.544(3)
_cell_angle_gamma                90
_cell_volume                     3014.06
_cell_formula_units_Z            4
loop_
_atom_site_label
_atom_site_type_symbol
_atom_site_fract_x
_atom_site_fract_y
_atom_site_fract_z
O1 O 0.38835(7) 0.24724(17) 0.26715(5)
O2 O 0.42033(7) 0.01854(16) 0.33835(5)
N1 N 0.20403(9) 0.1888(3) 0.41616(10)
N2 N 0.31629(10) -0.3446(3) 0.44771(12)
N3 N 0.44738(7) 0.33340(18) 0.35552(6)
C1 C 0.25328(9) 0.1152(3) 0.43008(9)
C2 C 0.31648(9) -0.1810(3) 0.44786(10)
C3 C 0.31599(8) 0.0254(2) 0.44728(8)
C4 C 0.37020(8) 0.1330(2) 0.45881(7)
H1 H 0.3652 0.2652 0.4539
C5 C 0.43646(7) 0.0626(2) 0.47832(6)
C6 C 0.49176(7) 0.1499(2) 0.45531(6)
C7 C 0.55380(7) 0.0849(2) 0.47766(6)
H2 H 0.5905 0.1420 0.4627
C8 C 0.48723(8) 0.3164(2) 0.41267(7)
C9 C 0.51812(10) 0.4879(2) 0.42310(8)
H3 H 0.5481 0.5175 0.4573
C10 C 0.49724(12) 0.6137(3) 0.37355(10)
H4 H 0.5105 0.7408 0.3697
C11 C 0.45519(11) 0.5187(3) 0.33299(9)
H5 H 0.4345 0.5683 0.2958
C12 C 0.41781(8) 0.1810(2) 0.32051(7)
C13 C 0.35721(9) 0.1132(3) 0.21901(7)
C14 C 0.33369(12) 0.2514(4) 0.16671(9)
H6 H 0.3038 0.3427 0.1821
H7 H 0.3116 0.1808 0.1323
H8 H 0.3708 0.3180 0.1527
C15 C 0.40762(11) -0.0227(3) 0.19802(10)
H9 H 0.4445 0.0490 0.1857
H10 H 0.3885 -0.0966 0.1629
H11 H 0.4222 -0.1077 0.2320
C16 C 0.30065(12) 0.0132(4) 0.24494(12)
H12 H 0.3172 -0.0808 0.2754
H13 H 0.2741 -0.0495 0.2114
H14 H 0.2744 0.1057 0.2646
O1D O 0.61165(7) -0.24724(17) 0.73285(5)
O2D O 0.57967(7) -0.01854(16) 0.66165(5)
N1D N 0.79597(9) -0.1888(3) 0.58384(10)
N2D N 0.68371(10) 0.3446(3) 0.55229(12)
N3D N 0.55262(7) -0.33340(18) 0.64448(6)
C1D C 0.74672(9) -0.1152(3) 0.56992(9)
C2D C 0.68352(9) 0.1810(3) 0.55214(10)
C3D C 0.68401(8) -0.0254(2) 0.55272(8)
C4D C 0.62980(8) -0.1330(2) 0.54119(7)
H1D H 0.6348 -0.2652 0.5461
C5D C 0.56354(7) -0.0626(2) 0.52168(6)
C6D C 0.50824(7) -0.1499(2) 0.54469(6)
C7D C 0.44620(7) -0.0849(2) 0.52234(6)
H2D H 0.4095 -0.1420 0.5373
C8D C 0.51277(8) -0.3164(2) 0.58733(7)
C9D C 0.48188(10) -0.4879(2) 0.57690(8)
H3D H 0.4519 -0.5175 0.5427
C10D C 0.50276(12) -0.6137(3) 0.62645(10)
H4D H 0.4895 -0.7408 0.6303
C11D C 0.54481(11) -0.5187(3) 0.66701(9)
H5D H 0.5655 -0.5683 0.7042
C12D C 0.58219(8) -0.1810(2) 0.67949(7)
C13D C 0.64279(9) -0.1132(3) 0.78099(7)
C14D C 0.66631(12) -0.2514(4) 0.83329(9)
H6D H 0.6962 -0.3427 0.8179
H7D H 0.6884 -0.1808 0.8677
H8D H 0.6292 -0.3180 0.8473
C15D C 0.59238(11) 0.0227(3) 0.80198(10)
H9D H 0.5555 -0.0490 0.8143
H10D H 0.6115 0.0966 0.8371
H11D H 0.5778 0.1077 0.7680
C16D C 0.69935(12) -0.0132(4) 0.75506(12)
H12D H 0.6828 0.0808 0.7246
H13D H 0.7259 0.0495 0.7886
H14D H 0.7256 -0.1057 0.7354
loop_
_geom_bond_atom_site_label_1
_geom_bond_atom_site_label_2
_geom_bond_site_symmetry_1
_geom_bond_site_symmetry_2
O1 C12 1_555 1_555
O2 C12 1_555 1_555
N1 C1 1_555 1_555
N2 C2 1_555 1_555
N3 C8 1_555 1_555
C1 C3 1_555 1_555
C2 C3 1_555 1_555
C3 C4 1_555 1_555
C4 H1 1_555 1_555
C5 C4 1_555 1_555
C6 C5 1_555 1_555
C7 C6 1_555 1_555
H2 C7 1_555 1_555
C8 C6 1_555 1_555
C9 C8 1_555 1_555
H3 C9 1_555 1_555
C10 C9 1_555 1_555
H4 C10 1_555 1_555
C11 N3 1_555 1_555
H5 C11 1_555 1_555
C12 N3 1_555 1_555
C13 O1 1_555 1_555
C14 C13 1_555 1_555
H6 C14 1_555 1_555
H7 C14 1_555 1_555
H8 C14 1_555 1_555
C15 C13 1_555 1_555
H9 C15 1_555 1_555
H10 C15 1_555 1_555
H11 C15 1_555 1_555
C16 C13 1_555 1_555
H12 C16 1_555 1_555
H13 C16 1_555 1_555
H14 C16 1_555 1_555
O1D C12D 1_555 1_555
O2D C12D 1_555 1_555
N1D C1D 1_555 1_555
N2D C2D 1_555 1_555
N3D C8D 1_555 1_555
C1D C3D 1_555 1_555
C2D C3D 1_555 1_555
C3D C4D 1_555 1_555
C4D H1D 1_555 1_555
C5D C7 1_555 1_555
C6D C5D 1_555 1_555
C7D C5 1_555 1_555
H2D C7D 1_555 1_555
C8D C6D 1_555 1_555
C9D C8D 1_555 1_555
H3D C9D 1_555 1_555
C10D C9D 1_555 1_555
H4D C10D 1_555 1_555
C11D N3D 1_555 1_555
H5D C11D 1_555 1_555
C12D N3D 1_555 1_555
C13D O1D 1_555 1_555
C14D C13D 1_555 1_555
H6D C14D 1_555 1_555
H7D C14D 1_555 1_555
H8D C14D 1_555 1_555
C15D C13D 1_555 1_555
H9D C15D 1_555 1_555
H10D C15D 1_555 1_555
H11D C15D 1_555 1_555
C16D C13D 1_555 1_555
H12D C16D 1_555 1_555
H13D C16D 1_555 1_555
H14D C16D 1_555 1_555
C10 C11 1_555 1_555
C4D C5D 1_555 1_555
C6D C7D 1_555 1_555
C10D C11D 1_555 1_555

#END
