
#######################################################################
#
#                 Cambridge Crystallographic Data Centre
#                                CCDC 
#
#######################################################################
#
# If this CIF has been generated from an entry in the Cambridge 
# Structural Database, then it will include bibliographic, chemical, 
# crystal, experimental, refinement or atomic coordinate data resulting 
# from the CCDC's data processing and validation procedures.
#
#######################################################################

data_IVILOQ
_chemical_formula_moiety         'C28 H18 N4 O2'
_chemical_name_systematic        
2,2'-((4,4''-dimethoxy-1,1':4',1''-terphenyl-2',5'-diyl)dimethylylidene)dimalononitrile
_symmetry_cell_setting           monoclinic
_symmetry_space_group_name_H-M   'P 21/c'
_symmetry_Int_Tables_number      14
_space_group_name_Hall           '-P 2ybc'
loop_
_symmetry_equiv_pos_site_id
_symmetry_equiv_pos_as_xyz
1 x,y,z
2 -x,1/2+y,1/2-z
3 -x,-y,-z
4 x,1/2-y,1/2+z
_cell_length_a                   6.7023(2)
_cell_length_b                   14.1338(4)
_cell_length_c                   12.7266(4)
_cell_angle_alpha                90
_cell_angle_beta                 100.447(3)
_cell_angle_gamma                90
_cell_volume                     1185.59
_cell_formula_units_Z            2
loop_
_atom_site_label
_atom_site_type_symbol
_atom_site_fract_x
_atom_site_fract_y
_atom_site_fract_z
O1 O 0.3033(2) 0.67797(11) 0.80451(11)
N1 N 0.4929(3) 0.61324(14) 0.24285(17)
N2 N 0.9355(3) 0.70136(13) 0.05520(12)
C1 C 0.6516(3) 0.63176(13) 0.79947(13)
H1 H 0.6940 0.6431 0.8721
C2 C 0.4529(3) 0.64855(13) 0.75177(14)
C3 C 0.3931(3) 0.63623(12) 0.64269(14)
H2 H 0.2611 0.6507 0.6099
C4 C 0.5291(2) 0.60255(11) 0.58293(12)
H3 H 0.4878 0.5945 0.5097
C5 C 0.7279(2) 0.58026(11) 0.63009(11)
C6 C 0.7875(3) 0.59789(12) 0.73841(12)
H4 H 0.9213 0.5867 0.7707
C7 C 0.8675(2) 0.53850(11) 0.56447(11)
C8 C 0.8794(2) 0.57655(11) 0.46535(11)
H5 H 0.7986 0.6284 0.4412
C9 C 1.0077(2) 0.54006(11) 0.40042(11)
C10 C 1.0237(2) 0.58684(11) 0.29977(11)
H6 H 1.1527 0.5910 0.2828
C11 C 0.8704(2) 0.62439(11) 0.22935(12)
C12 C 0.6606(3) 0.61805(12) 0.23841(13)
C13 C 0.9083(3) 0.66873(13) 0.13300(13)
C14 C 0.3529(4) 0.6865(2) 0.9168(2)
H7 H 0.4599 0.7320 0.9352
H8 H 0.3968 0.6263 0.9474
H9 H 0.2356 0.7071 0.9440
O1B O 1.6967(2) 0.32203(11) 0.19549(11)
N1B N 1.5071(3) 0.38676(14) 0.75715(17)
N2B N 1.0645(3) 0.29864(13) 0.94480(12)
C1B C 1.3484(3) 0.36824(13) 0.20053(13)
H1B H 1.3060 0.3569 0.1279
C2B C 1.5471(3) 0.35145(13) 0.24823(14)
C3B C 1.6069(3) 0.36377(12) 0.35731(14)
H2B H 1.7389 0.3493 0.3901
C4B C 1.4709(2) 0.39745(11) 0.41707(12)
H3B H 1.5122 0.4055 0.4903
C5B C 1.2721(2) 0.41974(11) 0.36991(11)
C6B C 1.2125(3) 0.40211(12) 0.26159(12)
H4B H 1.0787 0.4133 0.2293
C7B C 1.1325(2) 0.46150(11) 0.43553(11)
C8B C 1.1206(2) 0.42345(11) 0.53465(11)
H5B H 1.2014 0.3716 0.5588
C9B C 0.9923(2) 0.45994(11) 0.59958(11)
C10B C 0.9763(2) 0.41316(11) 0.70023(11)
H6B H 0.8473 0.4090 0.7172
C11B C 1.1296(2) 0.37561(11) 0.77065(12)
C12B C 1.3394(3) 0.38195(12) 0.76159(13)
C13B C 1.0917(3) 0.33127(13) 0.86700(13)
C14B C 1.6471(4) 0.3135(2) 0.0832(2)
H7B H 1.5401 0.2680 0.0648
H8B H 1.6032 0.3737 0.0526
H9B H 1.7644 0.2929 0.0560
loop_
_geom_bond_atom_site_label_1
_geom_bond_atom_site_label_2
_geom_bond_site_symmetry_1
_geom_bond_site_symmetry_2
O1 C2 1_555 1_555
N1 C12 1_555 1_555
N2 C13 1_555 1_555
C1 H1 1_555 1_555
C2 C1 1_555 1_555
C3 C2 1_555 1_555
H2 C3 1_555 1_555
C4 C3 1_555 1_555
H3 C4 1_555 1_555
C5 C4 1_555 1_555
C6 C1 1_555 1_555
H4 C6 1_555 1_555
C7 C5 1_555 1_555
C8 C7 1_555 1_555
H5 C8 1_555 1_555
C9 C8 1_555 1_555
C10 C9 1_555 1_555
H6 C10 1_555 1_555
C11 C10 1_555 1_555
C12 C11 1_555 1_555
C13 C11 1_555 1_555
C14 O1 1_555 1_555
H7 C14 1_555 1_555
H8 C14 1_555 1_555
H9 C14 1_555 1_555
O1B C2B 1_555 1_555
N1B C12B 1_555 1_555
N2B C13B 1_555 1_555
C1B H1B 1_555 1_555
C2B C1B 1_555 1_555
C3B C2B 1_555 1_555
H2B C3B 1_555 1_555
C4B C3B 1_555 1_555
H3B C4B 1_555 1_555
C5B C4B 1_555 1_555
C6B C1B 1_555 1_555
H4B C6B 1_555 1_555
C7B C9 1_555 1_555
C8B C7B 1_555 1_555
H5B C8B 1_555 1_555
C9B C7 1_555 1_555
C10B C9B 1_555 1_555
H6B C10B 1_555 1_555
C11B C10B 1_555 1_555
C12B C11B 1_555 1_555
C13B C11B 1_555 1_555
C14B O1B 1_555 1_555
H7B C14B 1_555 1_555
H8B C14B 1_555 1_555
H9B C14B 1_555 1_555
C5 C6 1_555 1_555
C5B C6B 1_555 1_555
C5B C7B 1_555 1_555
C8B C9B 1_555 1_555

#END
