
#######################################################################
#
#                 Cambridge Crystallographic Data Centre
#                                CCDC 
#
#######################################################################
#
# If this CIF has been generated from an entry in the Cambridge 
# Structural Database, then it will include bibliographic, chemical, 
# crystal, experimental, refinement or atomic coordinate data resulting 
# from the CCDC's data processing and validation procedures.
#
#######################################################################

data_IVINUY
_chemical_formula_moiety         'C28 H18 N4 O2'
_chemical_name_systematic        
2,2'-((4,4''-dimethoxy-1,1':4',1''-terphenyl-2',5'-diyl)dimethylylidene)dimalononitrile
_symmetry_cell_setting           triclinic
_symmetry_space_group_name_H-M   'P -1'
_symmetry_Int_Tables_number      2
_space_group_name_Hall           '-P 1'
loop_
_symmetry_equiv_pos_site_id
_symmetry_equiv_pos_as_xyz
1 x,y,z
2 -x,-y,-z
_cell_length_a                   6.5174(4)
_cell_length_b                   9.8469(5)
_cell_length_c                   10.3476(5)
_cell_angle_alpha                113.309(5)
_cell_angle_beta                 95.997(5)
_cell_angle_gamma                104.217(5)
_cell_volume                     575.826
_cell_formula_units_Z            1
loop_
_atom_site_label
_atom_site_type_symbol
_atom_site_fract_x
_atom_site_fract_y
_atom_site_fract_z
C1 C -0.4147(2) 0.56371(15) 0.86745(16)
C2 C -0.1724(2) 0.40530(14) 0.82205(15)
C3 C -0.1987(2) 0.55621(13) 0.86133(13)
C4 C -0.0263(2) 0.67879(13) 0.88877(13)
H1 H 0.1030(2) 0.65792(13) 0.87330(13)
C5 C -0.01879(19) 0.84166(13) 0.94033(13)
C6 C 0.11689(19) 0.94020(13) 0.89375(13)
C7 C 0.1311(2) 1.09690(13) 0.95499(13)
H2 H 0.2189(2) 1.16315(13) 0.92488(13)
C8 C 0.2385(2) 0.88243(13) 0.78138(13)
C9 C 0.1451(2) 0.74262(15) 0.65708(15)
H3 H 0.0036(2) 0.68255(15) 0.64496(15)
C10 C 0.4489(2) 0.96916(14) 0.79374(14)
H4 H 0.5148(2) 1.06295(14) 0.87557(14)
C11 C 0.5633(2) 0.92042(16) 0.68817(16)
H5 H 0.7038(2) 0.98115(16) 0.69894(16)
C12 C 0.4672(2) 0.78045(16) 0.56624(16)
C13 C 0.2580(3) 0.69184(17) 0.55208(17)
H6 H 0.1933(3) 0.59723(17) 0.47092(17)
C14 C 0.7474(3) 0.8239(2) 0.4431(2)
H7 H 0.7922(16) 0.7699(6) 0.3567(9)
H8 H 0.7099(8) 0.9106(10) 0.4388(17)
H9 H 0.8642(9) 0.8609(14) 0.5255(9)
N1 N -0.5857(2) 0.56818(18) 0.8731(2)
N2 N -0.1434(2) 0.28844(14) 0.79284(17)
O1 O 0.5643(2) 0.72095(14) 0.45541(13)
C1A C 0.4147(2) 1.43629(15) 1.13255(16)
C2A C 0.1724(2) 1.59470(14) 1.17795(15)
C3A C 0.1987(2) 1.44379(13) 1.13867(13)
C4A C 0.0263(2) 1.32121(13) 1.11123(13)
H1A H -0.1030(2) 1.34208(13) 1.12670(13)
C5A C 0.01879(19) 1.15834(13) 1.05967(13)
C6A C -0.11689(19) 1.05980(13) 1.10625(13)
C7A C -0.1311(2) 0.90310(13) 1.04501(13)
H2A H -0.2189(2) 0.83685(13) 1.07512(13)
C8A C -0.2385(2) 1.11757(13) 1.21862(13)
C9A C -0.1451(2) 1.25738(15) 1.34292(15)
H3A H -0.0036(2) 1.31745(15) 1.35504(15)
C10A C -0.4489(2) 1.03084(14) 1.20626(14)
H4A H -0.5148(2) 0.93705(14) 1.12443(14)
C11A C -0.5633(2) 1.07958(16) 1.31183(16)
H5A H -0.7038(2) 1.01885(16) 1.30106(16)
C12A C -0.4672(2) 1.21955(16) 1.43376(16)
C13A C -0.2580(3) 1.30816(17) 1.44792(17)
H6A H -0.1933(3) 1.40277(17) 1.52908(17)
C14A C -0.7474(3) 1.1761(2) 1.5569(2)
H7A H -0.7922(16) 1.2301(6) 1.6433(9)
H8A H -0.7099(8) 1.0894(10) 1.5612(17)
H9A H -0.8642(9) 1.1391(14) 1.4745(9)
N1A N 0.5857(2) 1.43182(18) 1.1269(2)
N2A N 0.1434(2) 1.71156(14) 1.20716(17)
O1A O -0.5643(2) 1.27905(14) 1.54459(13)
loop_
_geom_bond_atom_site_label_1
_geom_bond_atom_site_label_2
_geom_bond_site_symmetry_1
_geom_bond_site_symmetry_2
C1 C3 1_555 1_555
C2 C3 1_555 1_555
C3 C4 1_555 1_555
C4 H1 1_555 1_555
C5 C4 1_555 1_555
C6 C5 1_555 1_555
C7 C6 1_555 1_555
H2 C7 1_555 1_555
C8 C6 1_555 1_555
C9 C8 1_555 1_555
H3 C9 1_555 1_555
C10 C8 1_555 1_555
H4 C10 1_555 1_555
C11 C10 1_555 1_555
H5 C11 1_555 1_555
C12 C11 1_555 1_555
C13 C9 1_555 1_555
H6 C13 1_555 1_555
C14 H7 1_555 1_555
H8 C14 1_555 1_555
H9 C14 1_555 1_555
N1 C1 1_555 1_555
N2 C2 1_555 1_555
O1 C12 1_555 1_555
C1A C3A 1_555 1_555
C2A C3A 1_555 1_555
C3A C4A 1_555 1_555
C4A H1A 1_555 1_555
C5A C7 1_555 1_555
C6A C5A 1_555 1_555
C7A C5 1_555 1_555
H2A C7A 1_555 1_555
C8A C6A 1_555 1_555
C9A C8A 1_555 1_555
H3A C9A 1_555 1_555
C10A C8A 1_555 1_555
H4A C10A 1_555 1_555
C11A C10A 1_555 1_555
H5A C11A 1_555 1_555
C12A C11A 1_555 1_555
C13A C9A 1_555 1_555
H6A C13A 1_555 1_555
C14A H7A 1_555 1_555
H8A C14A 1_555 1_555
H9A C14A 1_555 1_555
N1A C1A 1_555 1_555
N2A C2A 1_555 1_555
O1A C12A 1_555 1_555
C12 C13 1_555 1_555
C14 O1 1_555 1_555
C4A C5A 1_555 1_555
C6A C7A 1_555 1_555
C12A C13A 1_555 1_555
C14A O1A 1_555 1_555

#END
