
#######################################################################
#
#                 Cambridge Crystallographic Data Centre
#                                CCDC 
#
#######################################################################
#
# If this CIF has been generated from an entry in the Cambridge 
# Structural Database, then it will include bibliographic, chemical, 
# crystal, experimental, refinement or atomic coordinate data resulting 
# from the CCDC's data processing and validation procedures.
#
#######################################################################

data_IVIQOV
_chemical_formula_moiety         'C16 H10 N4 O2'
_chemical_name_systematic        
2,2'-((2,5-dimethoxy-1,4-phenylene)dimethylylidene)dimalononitrile
_symmetry_cell_setting           monoclinic
_symmetry_space_group_name_H-M   'P 21/c'
_symmetry_Int_Tables_number      14
_space_group_name_Hall           '-P 2ybc'
loop_
_symmetry_equiv_pos_site_id
_symmetry_equiv_pos_as_xyz
1 x,y,z
2 -x,1/2+y,1/2-z
3 -x,-y,-z
4 x,1/2-y,1/2+z
_cell_length_a                   3.9933(4)
_cell_length_b                   16.4932(9)
_cell_length_c                   10.7618(6)
_cell_angle_alpha                90
_cell_angle_beta                 93.630(6)
_cell_angle_gamma                90
_cell_volume                     707.375
_cell_formula_units_Z            2
loop_
_atom_site_label
_atom_site_type_symbol
_atom_site_fract_x
_atom_site_fract_y
_atom_site_fract_z
O1 O 0.1895(3) 0.06651(6) 0.28855(9)
N1 N 0.4003(5) 0.37998(9) 0.45713(16)
N2 N 0.9095(5) 0.23492(9) 0.73539(15)
C1 C 0.4644(4) 0.31559(9) 0.48760(15)
C2 C 0.5476(4) 0.23474(8) 0.52972(14)
C3 C 0.7476(5) 0.23274(8) 0.64505(15)
C4 C 0.4359(4) 0.17075(8) 0.46109(13)
H1 H 0.3141 0.1840 0.3874
C5 C 0.4754(4) 0.08442(8) 0.48386(12)
C6 C 0.3383(4) 0.03132(9) 0.39093(12)
C7 C 0.3658(4) -0.05158(9) 0.40831(12)
H2 H 0.2762 -0.0863 0.3467
C8 C 0.0327(5) 0.01562(10) 0.19430(15)
H3 H -0.0857 0.0486 0.1325
H4 H -0.1222 -0.0203 0.2312
H5 H 0.2008 -0.0156 0.1560
O1B O 0.8105(3) -0.06651(6) 0.71145(9)
N1B N 0.5997(5) -0.37998(9) 0.54287(16)
N2B N 0.0905(5) -0.23492(9) 0.26461(15)
C1B C 0.5356(4) -0.31559(9) 0.51240(15)
C2B C 0.4524(4) -0.23474(8) 0.47028(14)
C3B C 0.2524(5) -0.23274(8) 0.35495(15)
C4B C 0.5641(4) -0.17075(8) 0.53891(13)
H1B H 0.6859 -0.1840 0.6126
C5B C 0.5246(4) -0.08442(8) 0.51614(12)
C6B C 0.6617(4) -0.03132(9) 0.60907(12)
C7B C 0.6342(4) 0.05158(9) 0.59169(12)
H2B H 0.7238 0.0863 0.6533
C8B C 0.9673(5) -0.01562(10) 0.80570(15)
H3B H 1.0857 -0.0486 0.8675
H4B H 1.1222 0.0203 0.7688
H5B H 0.7992 0.0156 0.8440
loop_
_geom_bond_atom_site_label_1
_geom_bond_atom_site_label_2
_geom_bond_site_symmetry_1
_geom_bond_site_symmetry_2
O1 C6 1_555 1_555
N1 C1 1_555 1_555
N2 C3 1_555 1_555
C1 C2 1_555 1_555
C2 C3 1_555 1_555
C4 C2 1_555 1_555
H1 C4 1_555 1_555
C5 C4 1_555 1_555
C6 C5 1_555 1_555
C7 C6 1_555 1_555
H2 C7 1_555 1_555
C8 O1 1_555 1_555
H3 C8 1_555 1_555
H4 C8 1_555 1_555
H5 C8 1_555 1_555
O1B C6B 1_555 1_555
N1B C1B 1_555 1_555
N2B C3B 1_555 1_555
C1B C2B 1_555 1_555
C2B C3B 1_555 1_555
C4B C2B 1_555 1_555
H1B C4B 1_555 1_555
C5B C7 1_555 1_555
C6B C5B 1_555 1_555
C7B C5 1_555 1_555
H2B C7B 1_555 1_555
C8B O1B 1_555 1_555
H3B C8B 1_555 1_555
H4B C8B 1_555 1_555
H5B C8B 1_555 1_555
C4B C5B 1_555 1_555
C6B C7B 1_555 1_555

#END
