
#######################################################################
#
#                 Cambridge Crystallographic Data Centre
#                                CCDC 
#
#######################################################################
#
# If this CIF has been generated from an entry in the Cambridge 
# Structural Database, then it will include bibliographic, chemical, 
# crystal, experimental, refinement or atomic coordinate data resulting 
# from the CCDC's data processing and validation procedures.
#
#######################################################################

data_IVISOX
_chemical_formula_moiety         'C27 H31 N1 O5'
_chemical_name_systematic        
'dimethyl 1-(2-cyclopropyl-2-oxoethyl)-7-(dimethylamino)-4-phenyl-3,4-dihydronaphthalene-2,2(1H)-dicarboxylate'
_symmetry_cell_setting           monoclinic
_symmetry_space_group_name_H-M   'P 21/n'
_symmetry_Int_Tables_number      14
_space_group_name_Hall           '-P 2yn'
loop_
_symmetry_equiv_pos_site_id
_symmetry_equiv_pos_as_xyz
1 x,y,z
2 1/2-x,1/2+y,1/2-z
3 -x,-y,-z
4 1/2+x,1/2-y,1/2+z
_cell_length_a                   8.8884(5)
_cell_length_b                   17.3920(11)
_cell_length_c                   15.5342(9)
_cell_angle_alpha                90
_cell_angle_beta                 103.087(3)
_cell_angle_gamma                90
_cell_volume                     2339.02
_exptl_crystal_colour            colorless
_exptl_crystal_description       Block
_cell_formula_units_Z            4
loop_
_atom_site_label
_atom_site_type_symbol
_atom_site_fract_x
_atom_site_fract_y
_atom_site_fract_z
C1 C 0.3855(3) 0.65594(14) 0.19207(15)
C2 C 0.5361(3) 0.62728(14) 0.21118(15)
H1 H 0.5534 0.5742 0.2190
C3 C 0.6586(3) 0.67651(14) 0.21860(15)
H2 H 0.7588 0.6557 0.2311
C4 C 0.6420(2) 0.75594(13) 0.20848(14)
C5 C 0.7838(2) 0.80509(13) 0.21190(14)
H3 H 0.8403 0.7804 0.1712
C6 C 0.7403(2) 0.88527(13) 0.17417(14)
H4 H 0.7162 0.8823 0.1095
H5 H 0.8297 0.9193 0.1924
C7 C 0.6020(2) 0.92087(13) 0.20345(13)
C8 C 0.4562(2) 0.87050(12) 0.17384(13)
H6 H 0.3824 0.8858 0.2098
C9 C 0.4923(2) 0.78565(13) 0.19166(13)
C10 C 0.3675(3) 0.73549(13) 0.18488(14)
H7 H 0.2674 0.7562 0.1751
N1 N 0.2585(2) 0.60696(12) 0.18173(15)
C11 C 0.2837(3) 0.52457(15) 0.17706(19)
H8 H 0.3340 0.5137 0.1291
H9 H 0.1853 0.4980 0.1666
H10 H 0.3488 0.5070 0.2324
C12 C 0.1097(3) 0.63472(18) 0.1329(2)
H11 H 0.0813 0.6803 0.1616
H12 H 0.0323 0.5951 0.1316
H13 H 0.1159 0.6473 0.0730
C13 C 0.8972(2) 0.80735(13) 0.30219(14)
C14 C 0.8564(3) 0.79292(14) 0.38139(15)
H14 H 0.7537 0.7801 0.3816
C15 C 0.9658(3) 0.79721(14) 0.46059(16)
H15 H 0.9358 0.7889 0.5141
C16 C 1.1175(3) 0.81348(15) 0.46173(18)
H16 H 1.1917 0.8148 0.5155
C17 C 1.1596(3) 0.82777(15) 0.38314(18)
H17 H 1.2631 0.8391 0.3831
C18 C 1.0503(3) 0.82551(14) 0.30474(15)
H18 H 1.0799 0.8365 0.2517
C19 C 0.6327(3) 0.93277(13) 0.30357(15)
O1 O 0.55780(18) 0.90646(10) 0.35147(10)
O2 O 0.75389(18) 0.97949(9) 0.33070(10)
C20 C 0.7945(3) 0.99491(16) 0.42444(16)
H19 H 0.7042 1.0132 0.4435
H20 H 0.8747 1.0338 0.4368
H21 H 0.8319 0.9481 0.4560
C21 C 0.5740(3) 1.00018(14) 0.16076(15)
O3 O 0.6389(2) 1.02477(11) 0.10709(12)
O4 O 0.46384(18) 1.03823(9) 0.18823(11)
C22 C 0.4196(3) 1.11118(14) 0.14445(19)
H22 H 0.5098 1.1440 0.1514
H23 H 0.3429 1.1359 0.1706
H24 H 0.3766 1.1023 0.0821
C23 C 0.3747(2) 0.88211(14) 0.07603(13)
H25 H 0.4041 0.9325 0.0568
H26 H 0.4122 0.8430 0.0406
C24 C 0.2012(3) 0.87764(14) 0.05725(15)
O5 O 0.13058(18) 0.88118(12) 0.11522(11)
C25 C 0.1212(3) 0.87027(16) -0.03612(16)
H27 H 0.1860 0.8715 -0.0802
C26 C -0.0216(3) 0.8212(2) -0.0575(2)
H28 H -0.0419 0.7921 -0.1130
H29 H -0.0531 0.7953 -0.0084
C27 C -0.0366(3) 0.9047(2) -0.06305(19)
H30 H -0.0777 0.9309 -0.0175
H31 H -0.0665 0.9277 -0.1220
loop_
_geom_bond_atom_site_label_1
_geom_bond_atom_site_label_2
_geom_bond_site_symmetry_1
_geom_bond_site_symmetry_2
C1 C2 1_555 1_555
C2 H1 1_555 1_555
C3 C2 1_555 1_555
H2 C3 1_555 1_555
C4 C3 1_555 1_555
C5 C4 1_555 1_555
H3 C5 1_555 1_555
C6 C5 1_555 1_555
H4 C6 1_555 1_555
H5 C6 1_555 1_555
C7 C6 1_555 1_555
C8 C7 1_555 1_555
H6 C8 1_555 1_555
C9 C4 1_555 1_555
C10 C1 1_555 1_555
H7 C10 1_555 1_555
N1 C1 1_555 1_555
C11 N1 1_555 1_555
H8 C11 1_555 1_555
H9 C11 1_555 1_555
H10 C11 1_555 1_555
C12 N1 1_555 1_555
H11 C12 1_555 1_555
H12 C12 1_555 1_555
H13 C12 1_555 1_555
C13 C5 1_555 1_555
C14 C13 1_555 1_555
H14 C14 1_555 1_555
C15 C14 1_555 1_555
H15 C15 1_555 1_555
C16 C15 1_555 1_555
H16 C16 1_555 1_555
C17 C16 1_555 1_555
H17 C17 1_555 1_555
C18 C13 1_555 1_555
H18 C18 1_555 1_555
C19 C7 1_555 1_555
O1 C19 1_555 1_555
O2 C19 1_555 1_555
C20 O2 1_555 1_555
H19 C20 1_555 1_555
H20 C20 1_555 1_555
H21 C20 1_555 1_555
C21 C7 1_555 1_555
O3 C21 1_555 1_555
O4 C21 1_555 1_555
C22 O4 1_555 1_555
H22 C22 1_555 1_555
H23 C22 1_555 1_555
H24 C22 1_555 1_555
C23 C8 1_555 1_555
H25 C23 1_555 1_555
H26 C23 1_555 1_555
C24 C23 1_555 1_555
O5 C24 1_555 1_555
C25 C24 1_555 1_555
H27 C25 1_555 1_555
C26 C25 1_555 1_555
H28 C26 1_555 1_555
H29 C26 1_555 1_555
C27 C25 1_555 1_555
H30 C27 1_555 1_555
H31 C27 1_555 1_555
C8 C9 1_555 1_555
C9 C10 1_555 1_555
C17 C18 1_555 1_555
C26 C27 1_555 1_555

#END
