
#######################################################################
#
#                 Cambridge Crystallographic Data Centre
#                                CCDC 
#
#######################################################################
#
# If this CIF has been generated from an entry in the Cambridge 
# Structural Database, then it will include bibliographic, chemical, 
# crystal, experimental, refinement or atomic coordinate data resulting 
# from the CCDC's data processing and validation procedures.
#
#######################################################################

data_IVISAJ
_chemical_formula_moiety         'C24 H14 N4 S2'
_chemical_name_systematic        
2,2'-((2,5-bis(5-methyl-2-thienyl)-1,4-phenylene)dimethylylidene)dimalononitrile
_symmetry_cell_setting           monoclinic
_symmetry_space_group_name_H-M   'P 21/c'
_symmetry_Int_Tables_number      14
_space_group_name_Hall           '-P 2ybc'
loop_
_symmetry_equiv_pos_site_id
_symmetry_equiv_pos_as_xyz
1 x,y,z
2 -x,1/2+y,1/2-z
3 -x,-y,-z
4 x,1/2-y,1/2+z
_cell_length_a                   9.0866(3)
_cell_length_b                   10.3527(4)
_cell_length_c                   11.6224(4)
_cell_angle_alpha                90
_cell_angle_beta                 104.969(4)
_cell_angle_gamma                90
_cell_volume                     1056.23
_cell_formula_units_Z            2
loop_
_atom_site_label
_atom_site_type_symbol
_atom_site_fract_x
_atom_site_fract_y
_atom_site_fract_z
C1 C 0.9488(2) 0.62544(18) 0.48252(15)
H1 H 0.9148 0.7104 0.4713
C2 C 0.88013(19) 0.53282(17) 0.39965(15)
C3 C 0.93289(19) 0.40450(17) 0.41792(15)
C4 C 0.8746(2) 0.30645(18) 0.32753(16)
H2 H 0.8521 0.3337 0.2487
C5 C 0.8499(2) 0.18183(18) 0.34562(15)
C6 C 0.8643(2) 0.12678(19) 0.46176(17)
C7 C 0.7987(2) 0.09524(19) 0.24607(17)
C8 C 0.7542(2) 0.56814(18) 0.29689(15)
C9 C 0.6241(2) 0.5024(2) 0.24552(17)
H3 H 0.5987 0.4235 0.2734
C10 C 0.5321(2) 0.5665(2) 0.14566(18)
H4 H 0.4399 0.5332 0.1010
C11 C 0.5891(2) 0.6803(2) 0.12045(17)
C12 C 0.5259(3) 0.7713(3) 0.0189(2)
H5 H 0.5334 0.8584 0.0481
H6 H 0.4210 0.7506 -0.0166
H7 H 0.5829 0.7629 -0.0397
N1 N 0.8726(3) 0.0832(2) 0.55271(17)
N2 N 0.7580(3) 0.0294(2) 0.16618(18)
S1 S 0.76067(5) 0.71115(5) 0.22249(4)
C1B C 1.0512(2) 0.37456(18) 0.51748(15)
H1B H 1.0852 0.2896 0.5287
C2B C 1.11987(19) 0.46718(17) 0.60035(15)
C3B C 1.06711(19) 0.59550(17) 0.58208(15)
C4B C 1.1254(2) 0.69355(18) 0.67247(16)
H2B H 1.1479 0.6663 0.7513
C5B C 1.1501(2) 0.81817(18) 0.65438(15)
C6B C 1.1357(2) 0.87322(19) 0.53824(17)
C7B C 1.2013(2) 0.90476(19) 0.75393(17)
C8B C 1.2458(2) 0.43186(18) 0.70311(15)
C9B C 1.3759(2) 0.4976(2) 0.75448(17)
H3B H 1.4013 0.5765 0.7266
C10B C 1.4679(2) 0.4335(2) 0.85434(18)
H4B H 1.5601 0.4668 0.8990
C11B C 1.4109(2) 0.3197(2) 0.87955(17)
C12B C 1.4741(3) 0.2287(3) 0.9811(2)
H5B H 1.4666 0.1416 0.9519
H6B H 1.5790 0.2494 1.0166
H7B H 1.4171 0.2371 1.0397
N1B N 1.1274(3) 0.9168(2) 0.44729(17)
N2B N 1.2420(3) 0.9706(2) 0.83382(18)
S1B S 1.23933(5) 0.28885(5) 0.77751(4)
loop_
_geom_bond_atom_site_label_1
_geom_bond_atom_site_label_2
_geom_bond_site_symmetry_1
_geom_bond_site_symmetry_2
C1 H1 1_555 1_555
C2 C1 1_555 1_555
C3 C2 1_555 1_555
C4 C3 1_555 1_555
H2 C4 1_555 1_555
C5 C4 1_555 1_555
C6 C5 1_555 1_555
C7 C5 1_555 1_555
C8 C2 1_555 1_555
C9 C8 1_555 1_555
H3 C9 1_555 1_555
C10 C9 1_555 1_555
H4 C10 1_555 1_555
C11 C10 1_555 1_555
C12 C11 1_555 1_555
H5 C12 1_555 1_555
H6 C12 1_555 1_555
H7 C12 1_555 1_555
N1 C6 1_555 1_555
N2 C7 1_555 1_555
S1 C8 1_555 1_555
C1B C3 1_555 1_555
H1B C1B 1_555 1_555
C2B C1B 1_555 1_555
C3B C1 1_555 1_555
C4B C3B 1_555 1_555
H2B C4B 1_555 1_555
C5B C4B 1_555 1_555
C6B C5B 1_555 1_555
C7B C5B 1_555 1_555
C8B C2B 1_555 1_555
C9B C8B 1_555 1_555
H3B C9B 1_555 1_555
C10B C9B 1_555 1_555
H4B C10B 1_555 1_555
C11B C10B 1_555 1_555
C12B C11B 1_555 1_555
H5B C12B 1_555 1_555
H6B C12B 1_555 1_555
H7B C12B 1_555 1_555
N1B C6B 1_555 1_555
N2B C7B 1_555 1_555
S1B C8B 1_555 1_555
C11 S1 1_555 1_555
C2B C3B 1_555 1_555
C11B S1B 1_555 1_555

#END
