
#######################################################################
#
#                 Cambridge Crystallographic Data Centre
#                                CCDC 
#
#######################################################################
#
# If this CIF has been generated from an entry in the Cambridge 
# Structural Database, then it will include bibliographic, chemical, 
# crystal, experimental, refinement or atomic coordinate data resulting 
# from the CCDC's data processing and validation procedures.
#
#######################################################################

data_IVITUD01
_chemical_formula_moiety         'C14 H15 N1 O3'
_chemical_name_systematic        
'(Z)-Methyl 3-(2-oxopyrrolidin-1-yl)-3-phenylacrylate'
_symmetry_cell_setting           monoclinic
_symmetry_space_group_name_H-M   'P 21/n'
_symmetry_Int_Tables_number      14
_space_group_name_Hall           '-P 2yn'
loop_
_symmetry_equiv_pos_site_id
_symmetry_equiv_pos_as_xyz
1 x,y,z
2 1/2-x,1/2+y,1/2-z
3 -x,-y,-z
4 1/2+x,1/2-y,1/2+z
_cell_length_a                   9.4301(14)
_cell_length_b                   6.9967(11)
_cell_length_c                   18.692(3)
_cell_angle_alpha                90
_cell_angle_beta                 96.925(2)
_cell_angle_gamma                90
_cell_volume                     1224.29
_exptl_crystal_colour            colorless
_exptl_crystal_description       block
_cell_formula_units_Z            4
loop_
_atom_site_label
_atom_site_type_symbol
_atom_site_fract_x
_atom_site_fract_y
_atom_site_fract_z
N1 N 0.49618(14) 0.22807(19) 0.17004(7)
O1 O 0.55108(15) 0.2742(2) 0.32149(7)
O2 O 0.77287(14) 0.18598(18) 0.36397(6)
O3 O 0.44979(14) -0.0686(2) 0.21358(8)
C1 C 0.71005(17) 0.2108(2) 0.10668(9)
C2 C 0.62220(19) 0.1897(2) 0.04203(9)
H1 H 0.5241 0.1772 0.0426
C3 C 0.6780(2) 0.1868(3) -0.02354(10)
H2 H 0.6173 0.1740 -0.0663
C4 C 0.8227(2) 0.2028(3) -0.02507(10)
H3 H 0.8608 0.2006 -0.0687
C5 C 0.9107(2) 0.2222(3) 0.03864(11)
H4 H 1.0088 0.2314 0.0377
C6 C 0.85661(19) 0.2284(3) 0.10406(10)
H5 H 0.9181 0.2444 0.1464
C7 C 0.64771(17) 0.2160(2) 0.17625(9)
C8 C 0.72545(18) 0.2099(2) 0.24053(9)
H6 H 0.8235 0.1932 0.2414
C9 C 0.6692(2) 0.2273(3) 0.31092(9)
C10 C 0.7352(2) 0.2001(3) 0.43601(9)
H7 H 0.7159 0.3312 0.4466
H8 H 0.8128 0.1542 0.4695
H9 H 0.6516 0.1244 0.4400
C11 C 0.42209(19) 0.4102(3) 0.15554(11)
H10 H 0.4503 0.4710 0.1128
H11 H 0.4405 0.4968 0.1961
C12 C 0.26624(19) 0.3498(3) 0.14413(11)
H12 H 0.2053 0.4488 0.1601
H13 H 0.2360 0.3224 0.0937
C13 C 0.26184(19) 0.1717(3) 0.18955(11)
H14 H 0.2381 0.2029 0.2373
H15 H 0.1920 0.0816 0.1671
C14 C 0.41037(18) 0.0906(3) 0.19354(9)
loop_
_geom_bond_atom_site_label_1
_geom_bond_atom_site_label_2
_geom_bond_site_symmetry_1
_geom_bond_site_symmetry_2
N1 C7 1_555 1_555
O1 C9 1_555 1_555
O2 C9 1_555 1_555
O3 C14 1_555 1_555
C1 C2 1_555 1_555
C2 H1 1_555 1_555
C3 C2 1_555 1_555
H2 C3 1_555 1_555
C4 C3 1_555 1_555
H3 C4 1_555 1_555
C5 C4 1_555 1_555
H4 C5 1_555 1_555
C6 C1 1_555 1_555
H5 C6 1_555 1_555
C7 C1 1_555 1_555
C8 C7 1_555 1_555
H6 C8 1_555 1_555
C9 C8 1_555 1_555
C10 O2 1_555 1_555
H7 C10 1_555 1_555
H8 C10 1_555 1_555
H9 C10 1_555 1_555
C11 N1 1_555 1_555
H10 C11 1_555 1_555
H11 C11 1_555 1_555
C12 C11 1_555 1_555
H12 C12 1_555 1_555
H13 C12 1_555 1_555
C13 C12 1_555 1_555
H14 C13 1_555 1_555
H15 C13 1_555 1_555
C14 N1 1_555 1_555
C5 C6 1_555 1_555
C13 C14 1_555 1_555

#END
