
#######################################################################
#
#                 Cambridge Crystallographic Data Centre
#                                CCDC 
#
#######################################################################
#
# If this CIF has been generated from an entry in the Cambridge 
# Structural Database, then it will include bibliographic, chemical, 
# crystal, experimental, refinement or atomic coordinate data resulting 
# from the CCDC's data processing and validation procedures.
#
#######################################################################

data_IVIWIU
_chemical_formula_moiety         'C40 H54 O9 Si1,C1 H1 Cl3'
_chemical_name_systematic        
'24-(Benzyloxy)-16-((triethylsilyl)oxy)-4,9,11,19,19-pentamethyl-2,6,18,25-tetraoxaheptacyclo-[12.10.1.1^1,8^.0^3,7^.0^11,26^.0^14,23^.0^16,20^]hexacos-22-ene-5,10,17-trione chloroform solvate'
_symmetry_cell_setting           triclinic
_symmetry_space_group_name_H-M   'P -1'
_symmetry_Int_Tables_number      2
_space_group_name_Hall           '-P 1'
loop_
_symmetry_equiv_pos_site_id
_symmetry_equiv_pos_as_xyz
1 x,y,z
2 -x,-y,-z
_cell_length_a                   10.386(2)
_cell_length_b                   13.574(3)
_cell_length_c                   16.293(3)
_cell_angle_alpha                98.35(3)
_cell_angle_beta                 91.17(3)
_cell_angle_gamma                108.76(3)
_cell_volume                     2146.36
_cell_formula_units_Z            2
loop_
_atom_site_label
_atom_site_type_symbol
_atom_site_fract_x
_atom_site_fract_y
_atom_site_fract_z
C1 C 0.5100(6) 1.2778(4) 0.9415(4)
C2 C 0.4140(5) 1.1978(4) 0.8662(3)
C3 C 0.3051(5) 1.1165(4) 0.9071(3)
H1 H 0.2534 1.1536 0.9403
H2 H 0.3519 1.0883 0.9450
C4 C 0.2019(5) 1.0218(4) 0.8481(3)
C5 C 0.0589(5) 0.9941(4) 0.8809(3)
H3 H 0.0658 0.9797 0.9371
H4 H 0.0299 1.0555 0.8840
C6 C -0.0499(5) 0.9022(4) 0.8314(3)
H5 H -0.0549 0.9163 0.7749
H6 H -0.1364 0.8996 0.8541
C7 C -0.0352(5) 0.7909(4) 0.8272(3)
C8 C -0.0072(5) 0.7703(4) 0.9146(3)
C9 C 0.1009(5) 0.7169(4) 0.9186(3)
H7 H 0.1864 0.7690 0.9444
C10 C 0.1163(5) 0.6871(4) 0.8220(3)
H8 H 0.0475 0.6181 0.8028
C11 C 0.2550(5) 0.6741(4) 0.8107(3)
H9 H 0.2832 0.6474 0.8583
C12 C 0.3637(7) 0.6236(5) 0.6981(4)
C13 C 0.4616(6) 0.7287(5) 0.7463(4)
H10 H 0.5168 0.7096 0.7867
C14 C 0.3641(5) 0.7718(4) 0.7959(3)
H11 H 0.4085 0.8169 0.8481
C15 C 0.0801(5) 0.7663(4) 0.7772(3)
H12 H 0.0410 0.7309 0.7212
C16 C 0.2039(5) 0.8621(4) 0.7687(3)
C17 C 0.1863(6) 0.9310(4) 0.7027(3)
H13 H 0.2633 0.9436 0.6673
C18 C 0.1908(4) 1.0338(4) 0.7566(3)
C19 C 0.1948(5) 1.1212(4) 0.7289(3)
H14 H 0.1838 1.1196 0.6719
C20 C 0.2164(5) 1.2239(4) 0.7863(3)
H15 H 0.1934 1.2732 0.7561
H16 H 0.1573 1.2118 0.8317
C21 C 0.3632(5) 1.2696(4) 0.8203(3)
H17 H 0.4185 1.2826 0.7726
C22 C 0.4014(6) 1.3778(4) 0.8816(4)
C23 C 0.2820(5) 1.3936(4) 0.9249(3)
H18 H 0.2430 1.3362 0.9548
H19 H 0.2148 1.3960 0.8846
H20 H 0.3118 1.4587 0.9632
C24 C 0.4700(6) 1.4686(4) 0.8367(3)
H21 H 0.4946 1.5335 0.8751
H22 H 0.4085 1.4707 0.7927
H23 H 0.5505 1.4594 0.8137
C25 C 0.5566(6) 0.7917(5) 0.6954(4)
H24 H 0.5912 0.7470 0.6575
H25 H 0.6307 0.8427 0.7304
H26 H 0.5109 0.8274 0.6646
C26 C -0.1745(5) 0.7057(4) 0.7948(4)
H27 H -0.1664 0.6368 0.7921
H28 H -0.2003 0.7153 0.7404
H29 H -0.2428 0.7125 0.8320
C27 C 0.0599(6) 0.6253(4) 0.9671(3)
H30 H 0.0450 0.6503 1.0231
H31 H 0.1312 0.5946 0.9677
H32 H -0.0225 0.5731 0.9411
C28 C 0.7425(5) 1.3044(4) 0.7905(4)
H33 H 0.6979 1.3317 0.7506
H34 H 0.7400 1.3429 0.8451
C29 C 0.8912(6) 1.3266(6) 0.7706(4)
H35 H 0.9377 1.3027 0.8110
H36 H 0.9342 1.4010 0.7722
H37 H 0.8953 1.2901 0.7162
C30 C 0.7413(7) 1.1110(6) 0.8603(4)
H38 H 0.8082 1.0894 0.8283
H39 H 0.7914 1.1690 0.9032
C31 C 0.6674(7) 1.0247(5) 0.9009(4)
H40 H 0.6040 1.0453 0.9357
H41 H 0.7302 1.0057 0.9343
H42 H 0.6187 0.9653 0.8598
C32 C 0.6208(8) 1.0906(7) 0.6853(4)
H43 H 0.6373 1.0267 0.6801
C33 C 0.5889(15) 1.1124(9) 0.6258(6)
H44 H 0.5709 1.1753 0.6268
H45 H 0.5806 1.0673 0.5757
C34 C 0.0711(8) 0.8935(8) 0.5733(4)
H46 H 0.1479 0.8745 0.5522
H47 H 0.0872 0.9670 0.5689
C35 C -0.0573(9) 0.8261(8) 0.5217(5)
C36 C -0.0616(11) 0.7428(8) 0.4634(6)
H48 H 0.0199 0.7291 0.4560
C37 C -0.1724(16) 0.6771(7) 0.4144(5)
H49 H -0.1693 0.6209 0.3754
C38 C -0.2936(12) 0.7028(12) 0.4286(8)
H50 H -0.3747 0.6610 0.3986
C39 C -0.2930(13) 0.7845(13) 0.4835(7)
H51 H -0.3738 0.7999 0.4887
C40 C -0.1831(18) 0.8468(8) 0.5323(5)
H52 H -0.1885 0.9019 0.5718
O1 O 0.5009(4) 1.3717(3) 0.9432(2)
O2 O 0.5820(4) 1.2554(3) 0.9883(2)
O3 O 0.4871(3) 1.1431(2) 0.8176(2)
O4 O 0.2499(3) 0.9339(2) 0.84731(18)
O5 O 0.0613(4) 0.8811(3) 0.6527(2)
O6 O -0.0664(4) 0.7909(3) 0.9749(3)
O7 O 0.3155(3) 0.8284(2) 0.7420(2)
O8 O 0.2442(4) 0.5996(3) 0.7338(2)
O9 O 0.3827(5) 0.5747(3) 0.6360(3)
Si1 Si 0.64380(17) 1.16377(13) 0.78889(10)
C41 C 0.7804(8) 0.4773(6) 0.5544(5)
H53 H 0.7901 0.5059 0.5021
Cl1 Cl 0.6515(3) 0.5057(3) 0.59824(19)
Cl2 Cl 0.9319(3) 0.5232(2) 0.60411(16)
Cl3 Cl 0.7275(3) 0.3314(2) 0.5251(2)
loop_
_geom_bond_atom_site_label_1
_geom_bond_atom_site_label_2
_geom_bond_site_symmetry_1
_geom_bond_site_symmetry_2
C1 C2 1_555 1_555
C2 C3 1_555 1_555
C3 H1 1_555 1_555
H2 C3 1_555 1_555
C4 C3 1_555 1_555
C5 C4 1_555 1_555
H3 C5 1_555 1_555
H4 C5 1_555 1_555
C6 C5 1_555 1_555
H5 C6 1_555 1_555
H6 C6 1_555 1_555
C7 C6 1_555 1_555
C8 C7 1_555 1_555
C9 C8 1_555 1_555
H7 C9 1_555 1_555
C10 C9 1_555 1_555
H8 C10 1_555 1_555
C11 C10 1_555 1_555
H9 C11 1_555 1_555
C12 C13 1_555 1_555
C13 H10 1_555 1_555
C14 C11 1_555 1_555
H11 C14 1_555 1_555
C15 C7 1_555 1_555
H12 C15 1_555 1_555
C16 C15 1_555 1_555
C17 C16 1_555 1_555
H13 C17 1_555 1_555
C18 C4 1_555 1_555
C19 C18 1_555 1_555
H14 C19 1_555 1_555
C20 C19 1_555 1_555
H15 C20 1_555 1_555
H16 C20 1_555 1_555
C21 C2 1_555 1_555
H17 C21 1_555 1_555
C22 C21 1_555 1_555
C23 C22 1_555 1_555
H18 C23 1_555 1_555
H19 C23 1_555 1_555
H20 C23 1_555 1_555
C24 C22 1_555 1_555
H21 C24 1_555 1_555
H22 C24 1_555 1_555
H23 C24 1_555 1_555
C25 C13 1_555 1_555
H24 C25 1_555 1_555
H25 C25 1_555 1_555
H26 C25 1_555 1_555
C26 C7 1_555 1_555
H27 C26 1_555 1_555
H28 C26 1_555 1_555
H29 C26 1_555 1_555
C27 C9 1_555 1_555
H30 C27 1_555 1_555
H31 C27 1_555 1_555
H32 C27 1_555 1_555
C28 H33 1_555 1_555
H34 C28 1_555 1_555
C29 C28 1_555 1_555
H35 C29 1_555 1_555
H36 C29 1_555 1_555
H37 C29 1_555 1_555
C30 H38 1_555 1_555
H39 C30 1_555 1_555
C31 C30 1_555 1_555
H40 C31 1_555 1_555
H41 C31 1_555 1_555
H42 C31 1_555 1_555
C32 H43 1_555 1_555
C33 C32 1_555 1_555
H44 C33 1_555 1_555
H45 C33 1_555 1_555
C34 H46 1_555 1_555
H47 C34 1_555 1_555
C35 C34 1_555 1_555
C36 C35 1_555 1_555
H48 C36 1_555 1_555
C37 C36 1_555 1_555
H49 C37 1_555 1_555
C38 C37 1_555 1_555
H50 C38 1_555 1_555
C39 C38 1_555 1_555
H51 C39 1_555 1_555
C40 C35 1_555 1_555
H52 C40 1_555 1_555
C41 H53 1_555 1_555
Cl1 C41 1_555 1_555
Cl2 C41 1_555 1_555
Cl3 C41 1_555 1_555
O1 C1 1_555 1_555
O2 C1 1_555 1_555
O3 C2 1_555 1_555
O4 C4 1_555 1_555
O5 C17 1_555 1_555
O6 C8 1_555 1_555
O7 C14 1_555 1_555
O8 C11 1_555 1_555
O9 C12 1_555 1_555
Si1 C28 1_555 1_555
C10 C15 1_555 1_555
C12 O8 1_555 1_555
C13 C14 1_555 1_555
C16 O4 1_555 1_555
C16 O7 1_555 1_555
C17 C18 1_555 1_555
C20 C21 1_555 1_555
C22 O1 1_555 1_555
C30 Si1 1_555 1_555
C32 Si1 1_555 1_555
C34 O5 1_555 1_555
C39 C40 1_555 1_555
O3 Si1 1_555 1_555

#END
