
#######################################################################
#
#                 Cambridge Crystallographic Data Centre
#                                CCDC 
#
#######################################################################
#
# If this CIF has been generated from an entry in the Cambridge 
# Structural Database, then it will include bibliographic, chemical, 
# crystal, experimental, refinement or atomic coordinate data resulting 
# from the CCDC's data processing and validation procedures.
#
#######################################################################

data_IVIWAM
_chemical_formula_moiety         'C23 H38 O6 Si1'
_chemical_name_systematic        
't-Butyl (1,1-dimethyl-3,5-dioxo-3a-((triethylsilyl)oxy)-3,3a,4,5,8,8a-hexahydro-1H-cyclohepta[c]furan-6-yl)acetate'
_symmetry_cell_setting           triclinic
_symmetry_space_group_name_H-M   'P -1'
_symmetry_Int_Tables_number      2
_space_group_name_Hall           '-P 1'
loop_
_symmetry_equiv_pos_site_id
_symmetry_equiv_pos_as_xyz
1 x,y,z
2 -x,-y,-z
_cell_length_a                   7.4730(15)
_cell_length_b                   12.351(3)
_cell_length_c                   13.897(3)
_cell_angle_alpha                91.79(3)
_cell_angle_beta                 98.83(3)
_cell_angle_gamma                98.58(3)
_cell_volume                     1251.37
_cell_formula_units_Z            2
loop_
_atom_site_label
_atom_site_type_symbol
_atom_site_fract_x
_atom_site_fract_y
_atom_site_fract_z
Si1 Si 0.1983(2) 0.41020(12) 0.22798(10)
O1 O 0.2374(4) 0.2988(2) 0.1723(2)
O2 O 0.1086(5) 0.2663(3) -0.2830(2)
O3 O 0.3215(5) 0.1030(3) 0.3343(2)
O4 O 0.0802(5) 0.1874(3) 0.3304(2)
O5 O -0.0853(5) 0.1639(3) -0.0355(3)
O6 O 0.1692(6) 0.1073(4) -0.2235(3)
C1 C 0.0666(8) 0.1606(4) 0.0128(4)
C2 C 0.4160(6) 0.1488(4) 0.1850(3)
H1 H 0.5091 0.2144 0.2001
C3 C 0.2305(6) 0.1842(4) 0.1887(3)
C4 C 0.0752(6) 0.1217(4) 0.1142(3)
H2 H 0.0885 0.0448 0.1124
H3 H -0.0404 0.1274 0.1362
C5 C 0.2299(9) 0.1979(4) -0.0308(4)
C6 C 0.6377(7) 0.1017(5) 0.3286(4)
H4 H 0.7274 0.0872 0.2893
H5 H 0.6456 0.0574 0.3842
H6 H 0.6604 0.1778 0.3502
C7 C 0.1974(7) 0.1590(4) 0.2916(4)
C8 C 0.1580(7) 0.2030(5) -0.2114(4)
C9 C 0.0856(7) 0.2320(4) -0.3881(3)
C10 C 0.3925(9) 0.1698(4) 0.0035(4)
H7 H 0.4888 0.1963 -0.0288
C11 C 0.4380(7) 0.1013(4) 0.0870(3)
H8 H 0.5639 0.0891 0.0899
H9 H 0.3604 0.0304 0.0747
C12 C 0.4461(7) 0.0742(4) 0.2683(3)
C13 C -0.0478(7) 0.4104(5) 0.2270(4)
H10 H -0.0898 0.3546 0.2696
H11 H -0.0622 0.4806 0.2556
C14 C 0.2034(8) 0.2668(4) -0.1169(3)
H12 H 0.1058 0.3087 -0.1101
H13 H 0.3148 0.3184 -0.1168
C15 C 0.2693(8) 0.2182(6) -0.4112(4)
H14 H 0.3532 0.2851 -0.3934
H15 H 0.2598 0.2009 -0.4798
H16 H 0.3133 0.1598 -0.3752
C16 C 0.0200(9) 0.3297(5) -0.4371(4)
H17 H 0.1018 0.3953 -0.4120
H18 H -0.1011 0.3351 -0.4242
H19 H 0.0174 0.3207 -0.5062
C17 C 0.3242(8) 0.4369(5) 0.3534(4)
H20 H 0.3156 0.5111 0.3751
H21 H 0.2636 0.3875 0.3955
C18 C 0.3940(7) -0.0484(4) 0.2434(4)
H22 H 0.2737 -0.0630 0.2052
H23 H 0.3944 -0.0866 0.3025
H24 H 0.4808 -0.0729 0.2069
C19 C -0.1723(9) 0.3913(6) 0.1316(5)
H25 H -0.1333 0.4453 0.0878
H26 H -0.2952 0.3969 0.1411
H27 H -0.1688 0.3194 0.1043
C20 C 0.2890(9) 0.6353(5) 0.1881(5)
H28 H 0.1690 0.6417 0.2020
H29 H 0.3199 0.6857 0.1399
H30 H 0.3769 0.6519 0.2467
C21 C 0.2910(8) 0.5171(4) 0.1493(4)
H31 H 0.4160 0.5086 0.1438
H32 H 0.2192 0.5055 0.0845
C22 C -0.0484(9) 0.1282(5) -0.4120(4)
H33 H -0.0748 0.1140 -0.4814
H34 H -0.1595 0.1357 -0.3875
H35 H 0.0034 0.0683 -0.3823
C23 C 0.5250(9) 0.4241(6) 0.3668(5)
H36 H 0.5361 0.3513 0.3448
H37 H 0.5770 0.4364 0.4345
H38 H 0.5891 0.4765 0.3295
loop_
_geom_bond_atom_site_label_1
_geom_bond_atom_site_label_2
_geom_bond_site_symmetry_1
_geom_bond_site_symmetry_2
Si1 O1 1_555 1_555
O1 C3 1_555 1_555
O2 C8 1_555 1_555
O3 C7 1_555 1_555
O4 C7 1_555 1_555
O5 C1 1_555 1_555
O6 C8 1_555 1_555
C1 C4 1_555 1_555
C2 H1 1_555 1_555
C3 C2 1_555 1_555
C4 C3 1_555 1_555
H2 C4 1_555 1_555
H3 C4 1_555 1_555
C5 C1 1_555 1_555
C6 H4 1_555 1_555
H5 C6 1_555 1_555
H6 C6 1_555 1_555
C7 C3 1_555 1_555
C8 C14 1_555 1_555
C9 O2 1_555 1_555
C10 C5 1_555 1_555
H7 C10 1_555 1_555
C11 C2 1_555 1_555
H8 C11 1_555 1_555
H9 C11 1_555 1_555
C12 O3 1_555 1_555
C13 Si1 1_555 1_555
H10 C13 1_555 1_555
H11 C13 1_555 1_555
C14 C5 1_555 1_555
H12 C14 1_555 1_555
H13 C14 1_555 1_555
C15 C9 1_555 1_555
H14 C15 1_555 1_555
H15 C15 1_555 1_555
H16 C15 1_555 1_555
C16 C9 1_555 1_555
H17 C16 1_555 1_555
H18 C16 1_555 1_555
H19 C16 1_555 1_555
C17 Si1 1_555 1_555
H20 C17 1_555 1_555
H21 C17 1_555 1_555
C18 C12 1_555 1_555
H22 C18 1_555 1_555
H23 C18 1_555 1_555
H24 C18 1_555 1_555
C19 C13 1_555 1_555
H25 C19 1_555 1_555
H26 C19 1_555 1_555
H27 C19 1_555 1_555
C20 H28 1_555 1_555
H29 C20 1_555 1_555
H30 C20 1_555 1_555
C21 Si1 1_555 1_555
H31 C21 1_555 1_555
H32 C21 1_555 1_555
C22 C9 1_555 1_555
H33 C22 1_555 1_555
H34 C22 1_555 1_555
H35 C22 1_555 1_555
C23 C17 1_555 1_555
H36 C23 1_555 1_555
H37 C23 1_555 1_555
H38 C23 1_555 1_555
C2 C12 1_555 1_555
C6 C12 1_555 1_555
C10 C11 1_555 1_555
C20 C21 1_555 1_555

#END
