
#######################################################################
#
#                 Cambridge Crystallographic Data Centre
#                                CCDC 
#
#######################################################################
#
# If this CIF has been generated from an entry in the Cambridge 
# Structural Database, then it will include bibliographic, chemical, 
# crystal, experimental, refinement or atomic coordinate data resulting 
# from the CCDC's data processing and validation procedures.
#
#######################################################################

data_IVIWEQ
_chemical_formula_moiety         'C30 H42 O6 Si1'
_chemical_name_systematic        
'11-(Benzyloxy)-12-hydroxy-6,6-dimethyl-3-((triethylsilyl)oxy)-5,17-dioxatetracyclo[10.4.1.0^1,10^.0^3,7^]-heptadeca-9,13-dien-4-one unknown solvate'
_symmetry_cell_setting           monoclinic
_symmetry_space_group_name_H-M   'C 2/c'
_symmetry_Int_Tables_number      15
_space_group_name_Hall           '-C 2yn'
loop_
_symmetry_equiv_pos_site_id
_symmetry_equiv_pos_as_xyz
1 x,y,z
2 -x,y,1/2-z
3 1/2+x,1/2+y,z
4 1/2-x,1/2+y,1/2-z
5 -x,-y,-z
6 x,-y,1/2+z
7 1/2-x,1/2-y,-z
8 1/2+x,1/2-y,1/2+z
_cell_length_a                   31.799(6)
_cell_length_b                   11.160(2)
_cell_length_c                   22.053(4)
_cell_angle_alpha                90
_cell_angle_beta                 126.92(3)
_cell_angle_gamma                90
_cell_volume                     6256.77
_cell_formula_units_Z            8
loop_
_atom_site_label
_atom_site_type_symbol
_atom_site_fract_x
_atom_site_fract_y
_atom_site_fract_z
C1 C 0.02501(14) 0.5087(4) 0.42289(19)
C2 C 0.07778(12) 0.5647(3) 0.48691(16)
C3 C 0.08489(11) 0.5428(3) 0.56122(15)
H1 H 0.0563 0.5828 0.5574
H2 H 0.0809 0.4576 0.5650
C4 C 0.13643(11) 0.5827(2) 0.63541(16)
C5 C 0.12385(11) 0.6325(3) 0.68819(16)
H3 H 0.0966 0.6927 0.6603
H4 H 0.1094 0.5678 0.6998
C6 C 0.16896(14) 0.6876(3) 0.76225(18)
H5 H 0.1801 0.7589 0.7503
H6 H 0.1554 0.7136 0.7895
C7 C 0.21633(14) 0.6132(3) 0.81472(19)
H7 H 0.2313 0.6198 0.8660
C8 C 0.23992(13) 0.5376(3) 0.79662(18)
H8 H 0.2697 0.4979 0.8365
C9 C 0.22316(12) 0.5111(3) 0.71912(17)
C10 C 0.22557(11) 0.6182(2) 0.67660(15)
H9 H 0.2341 0.5876 0.6436
C11 C 0.17086(11) 0.6665(3) 0.62800(16)
C12 C 0.15411(12) 0.7587(3) 0.58170(16)
H10 H 0.1789 0.8066 0.5837
C13 C 0.09686(12) 0.7905(3) 0.52567(18)
H11 H 0.0934 0.8695 0.5047
H12 H 0.0802 0.7919 0.5509
C14 C 0.06990(12) 0.6969(3) 0.46177(17)
H13 H 0.0851 0.7060 0.4343
C15 C 0.00989(13) 0.7160(4) 0.40279(19)
C16 C -0.00355(16) 0.7819(4) 0.3339(2)
H14 H 0.0128 0.7427 0.3142
H15 H 0.0090 0.8628 0.3475
H16 H -0.0410 0.7823 0.2960
C17 C -0.01798(14) 0.7695(3) 0.4332(2)
H17 H -0.0553 0.7612 0.3959
H18 H -0.0092 0.8529 0.4441
H19 H -0.0071 0.7284 0.4787
C18 C 0.31640(12) 0.6768(3) 0.76455(19)
H20 H 0.3224 0.6053 0.7938
H21 H 0.3385 0.7399 0.8000
C19 C 0.33263(13) 0.6521(4) 0.7138(2)
C20 C 0.33032(17) 0.7401(4) 0.6691(3)
H22 H 0.3179 0.8160 0.6683
C21 C 0.3469(2) 0.7141(5) 0.6245(3)
H23 H 0.3449 0.7741 0.5936
C22 C 0.3655(2) 0.6075(6) 0.6242(4)
H24 H 0.3770 0.5934 0.5948
C23 C 0.3670(2) 0.5225(5) 0.6670(4)
H25 H 0.3791 0.4468 0.6668
C24 C 0.35076(18) 0.5436(4) 0.7127(3)
H26 H 0.3525 0.4821 0.7425
C25 C 0.20464(17) 0.3959(4) 0.5149(3)
H27 H 0.2244 0.3941 0.5696
H28 H 0.2146 0.3254 0.5005
C26 C 0.2212(2) 0.4991(6) 0.4958(3)
H29 H 0.2039 0.5003 0.4421
H30 H 0.2586 0.4960 0.5222
H31 H 0.2123 0.5703 0.5103
C27 C 0.09232(16) 0.3535(4) 0.3686(2)
H32 H 0.1099 0.2928 0.3597
H33 H 0.0594 0.3191 0.3539
C28 C 0.07958(18) 0.4549(4) 0.3171(2)
H34 H 0.0609 0.5152 0.3233
H35 H 0.0580 0.4270 0.2655
H36 H 0.1115 0.4884 0.3289
C29 C 0.12864(18) 0.2580(3) 0.5236(2)
H37 H 0.1571 0.2673 0.5772
H38 H 0.0960 0.2682 0.5174
C30 C 0.1302(2) 0.1312(4) 0.5018(3)
H39 H 0.1017 0.1187 0.4492
H40 H 0.1269 0.0767 0.5324
H41 H 0.1630 0.1174 0.5098
O1 O 0.01478(9) 0.4034(3) 0.41296(14)
O2 O -0.01071(9) 0.5914(3) 0.37780(13)
O3 O 0.11966(8) 0.51311(18) 0.49006(11)
O4 O 0.16839(7) 0.47732(16) 0.66919(10)
O5 O 0.25236(9) 0.4179(2) 0.71962(13)
O6 O 0.26233(7) 0.71177(17) 0.72356(10)
Si1 Si 0.13368(4) 0.38197(9) 0.47259(6)
H42 H 0.2468(11) 0.356(2) 0.7370(15)
loop_
_geom_bond_atom_site_label_1
_geom_bond_atom_site_label_2
_geom_bond_site_symmetry_1
_geom_bond_site_symmetry_2
C1 C2 1_555 1_555
C2 C3 1_555 1_555
C3 H1 1_555 1_555
H2 C3 1_555 1_555
C4 C3 1_555 1_555
C5 C4 1_555 1_555
H3 C5 1_555 1_555
H4 C5 1_555 1_555
C6 C5 1_555 1_555
H5 C6 1_555 1_555
H6 C6 1_555 1_555
C7 C6 1_555 1_555
H7 C7 1_555 1_555
C8 C7 1_555 1_555
H8 C8 1_555 1_555
C9 C8 1_555 1_555
C10 C9 1_555 1_555
H9 C10 1_555 1_555
C11 C4 1_555 1_555
C12 C11 1_555 1_555
H10 C12 1_555 1_555
C13 C12 1_555 1_555
H11 C13 1_555 1_555
H12 C13 1_555 1_555
C14 C2 1_555 1_555
H13 C14 1_555 1_555
C15 C14 1_555 1_555
C16 C15 1_555 1_555
H14 C16 1_555 1_555
H15 C16 1_555 1_555
H16 C16 1_555 1_555
C17 C15 1_555 1_555
H17 C17 1_555 1_555
H18 C17 1_555 1_555
H19 C17 1_555 1_555
C18 H20 1_555 1_555
H21 C18 1_555 1_555
C19 C18 1_555 1_555
C20 C19 1_555 1_555
H22 C20 1_555 1_555
C21 C20 1_555 1_555
H23 C21 1_555 1_555
C22 C21 1_555 1_555
H24 C22 1_555 1_555
C23 C22 1_555 1_555
H25 C23 1_555 1_555
C24 C19 1_555 1_555
H26 C24 1_555 1_555
C25 H27 1_555 1_555
H28 C25 1_555 1_555
C26 C25 1_555 1_555
H29 C26 1_555 1_555
H30 C26 1_555 1_555
H31 C26 1_555 1_555
C27 H32 1_555 1_555
H33 C27 1_555 1_555
C28 C27 1_555 1_555
H34 C28 1_555 1_555
H35 C28 1_555 1_555
H36 C28 1_555 1_555
C29 H37 1_555 1_555
H38 C29 1_555 1_555
C30 C29 1_555 1_555
H39 C30 1_555 1_555
H40 C30 1_555 1_555
H41 C30 1_555 1_555
O1 C1 1_555 1_555
O2 C1 1_555 1_555
O3 C2 1_555 1_555
O4 C4 1_555 1_555
O5 C9 1_555 1_555
O6 C10 1_555 1_555
Si1 C25 1_555 1_555
H42 O5 1_555 1_555
C9 O4 1_555 1_555
C10 C11 1_555 1_555
C13 C14 1_555 1_555
C15 O2 1_555 1_555
C18 O6 1_555 1_555
C23 C24 1_555 1_555
C27 Si1 1_555 1_555
C29 Si1 1_555 1_555
O3 Si1 1_555 1_555

#END
