
#######################################################################
#
#                 Cambridge Crystallographic Data Centre
#                                CCDC 
#
#######################################################################
#
# If this CIF has been generated from an entry in the Cambridge 
# Structural Database, then it will include bibliographic, chemical, 
# crystal, experimental, refinement or atomic coordinate data resulting 
# from the CCDC's data processing and validation procedures.
#
#######################################################################

data_IVIYOB
_chemical_formula_moiety         'C34 H26 N2 O4'
_chemical_name_systematic        
trans-(M,M,P,P)-(1R,2R)-N,N'-bis(Diphenoyl)-1,2-diaminocyclohexane
_symmetry_cell_setting           monoclinic
_symmetry_space_group_name_H-M   'P 21'
_symmetry_Int_Tables_number      4
_space_group_name_Hall           'P 2yb'
loop_
_symmetry_equiv_pos_site_id
_symmetry_equiv_pos_as_xyz
1 x,y,z
2 -x,1/2+y,-z
_cell_length_a                   9.907(2)
_cell_length_b                   12.579(3)
_cell_length_c                   21.288(4)
_cell_angle_alpha                90
_cell_angle_beta                 98.90(3)
_cell_angle_gamma                90
_cell_volume                     2620.97
_exptl_crystal_colour            colorless
_exptl_crystal_description       prism
_chemical_melting_point          264-266deg.C
_cell_formula_units_Z            4
loop_
_atom_site_label
_atom_site_type_symbol
_atom_site_fract_x
_atom_site_fract_y
_atom_site_fract_z
C1 C -0.2819(2) -1.07760(15) -0.67724(9)
H1 H -0.3158 -1.0616 -0.7209
C2 C -0.17602(19) -0.99207(14) -0.65353(9)
H2 H -0.1267 -1.0165 -0.6138
C3 C -0.0744(2) -0.98533(18) -0.70120(10)
H3 H -0.1219 -0.9653 -0.7423
H4 H -0.0075 -0.9316 -0.6875
C4 C -0.0030(2) -1.09126(19) -0.70615(12)
H5 H 0.0539 -1.0867 -0.7387
H6 H 0.0548 -1.1059 -0.6666
C5 C -0.1037(2) -1.18250(19) -0.72126(12)
H7 H -0.1497 -1.1750 -0.7642
H8 H -0.0547 -1.2486 -0.7184
C6 C -0.2086(2) -1.18442(17) -0.67628(11)
H9 H -0.1643 -1.1996 -0.6339
H10 H -0.2743 -1.2394 -0.6890
C7 C -0.3836(2) -1.06353(16) -0.57688(8)
C8 C -0.5233(2) -1.11812(17) -0.67866(9)
C9 C -0.15516(19) -0.82724(15) -0.59307(9)
C10 C -0.34044(19) -0.84463(15) -0.68624(9)
C11 C -0.6298(2) -1.02552(17) -0.56215(9)
C12 C -0.7208(2) -0.9563(2) -0.53939(10)
H11 H -0.8165 -0.9729 -0.5465
C13 C -0.6747(3) -0.8644(2) -0.50723(12)
H12 H -0.7387 -0.8165 -0.4927
C14 C -0.5377(3) -0.8419(2) -0.49585(12)
H13 H -0.5047 -0.7791 -0.4728
C15 C -0.4459(3) -0.90906(18) -0.51775(10)
H14 H -0.3498 -0.8942 -0.5093
C16 C -0.4910(2) -0.99985(16) -0.55196(8)
C17 C -0.6771(2) -1.12798(17) -0.59184(9)
C18 C -0.7750(2) -1.1865(2) -0.56550(10)
H15 H -0.8090 -1.1597 -0.5287
C19 C -0.8232(3) -1.2819(2) -0.59127(13)
H16 H -0.8891 -1.3216 -0.5722
C20 C -0.7768(3) -1.3213(2) -0.64426(13)
H17 H -0.8113 -1.3878 -0.6622
C21 C -0.6816(2) -1.26492(19) -0.67170(12)
H18 H -0.6508 -1.2920 -0.7092
C22 C -0.6288(2) -1.16858(16) -0.64510(9)
C23 C -0.2639(2) -0.64074(16) -0.61345(9)
C24 C -0.2389(2) -0.53117(18) -0.61371(12)
H19 H -0.3142 -0.4839 -0.6267
C25 C -0.1101(3) -0.4903(2) -0.59582(14)
H20 H -0.0956 -0.4149 -0.5974
C26 C -0.0011(2) -0.5563(2) -0.57599(13)
H21 H 0.0883 -0.5276 -0.5620
C27 C -0.0231(2) -0.66489(18) -0.57606(11)
H22 H 0.0523 -0.7116 -0.5623
C28 C -0.15244(19) -0.70840(15) -0.59555(8)
C29 C -0.40606(19) -0.67880(16) -0.62815(9)
C30 C -0.5118(2) -0.6189(2) -0.60919(11)
H23 H -0.4890 -0.5545 -0.5857
C31 C -0.6457(2) -0.6498(2) -0.62379(13)
H24 H -0.7167 -0.6077 -0.6102
C32 C -0.6785(2) -0.7422(2) -0.65815(12)
H25 H -0.7721 -0.7644 -0.6682
C33 C -0.5770(2) -0.80230(19) -0.67808(10)
H26 H -0.5997 -0.8656 -0.7026
C34 C -0.44044(19) -0.77205(16) -0.66235(9)
N1 N -0.40229(16) -1.08121(13) -0.64321(7)
N2 N -0.23287(15) -0.88535(12) -0.64219(7)
O1 O -0.27615(15) -1.08581(14) -0.54403(7)
O2 O -0.53603(18) -1.12163(17) -0.73627(7)
O3 O -0.07761(15) -0.87316(12) -0.55196(7)
O4 O -0.36188(16) -0.87885(12) -0.74013(6)
C35 C -0.2683(2) 0.42242(18) -0.81466(10)
H27 H -0.2113 0.4388 -0.7752
C36 C -0.2407(3) 0.50841(17) -0.86309(11)
H28 H -0.3066 0.4972 -0.9006
C37 C -0.2695(3) 0.6177(2) -0.83727(15)
H29 H -0.2083 0.6300 -0.7984
H30 H -0.2536 0.6715 -0.8673
C38 C -0.4155(4) 0.6240(3) -0.82461(18)
H31 H -0.4323 0.6930 -0.8082
H32 H -0.4759 0.6148 -0.8641
C39 C -0.4473(4) 0.5391(3) -0.77863(18)
H33 H -0.3917 0.5509 -0.7381
H34 H -0.5414 0.5435 -0.7730
C40 C -0.4161(3) 0.4280(3) -0.80255(14)
H35 H -0.4756 0.4141 -0.8417
H36 H -0.4323 0.3749 -0.7722
C41 C -0.3079(2) 0.26400(16) -0.88536(10)
C42 C -0.1171(2) 0.26767(16) -0.79482(9)
C43 C -0.0953(3) 0.46375(18) -0.94378(10)
C44 C 0.0098(3) 0.53846(18) -0.83953(10)
C45 C -0.2049(2) 0.07461(16) -0.87613(9)
C46 C -0.2324(3) -0.03472(18) -0.87947(12)
H37 H -0.1582 -0.0844 -0.8712
C47 C -0.3636(3) -0.0719(2) -0.89328(16)
H38 H -0.3799 -0.1472 -0.8953
C48 C -0.4703(3) -0.0033(2) -0.90607(18)
H39 H -0.5616 -0.0307 -0.9156
C49 C -0.4470(2) 0.1049(2) -0.90340(13)
H40 H -0.5222 0.1534 -0.9130
C50 C -0.3148(2) 0.14466(17) -0.88740(10)
C51 C -0.0615(2) 0.11030(17) -0.86324(9)
C52 C 0.0408(3) 0.0520(2) -0.88590(11)
H41 H 0.0158 -0.0095 -0.9119
C53 C 0.1759(3) 0.0812(2) -0.87198(13)
H42 H 0.2443 0.0403 -0.8885
C54 C 0.2138(3) 0.1681(3) -0.83452(12)
H43 H 0.3084 0.1876 -0.8248
C55 C 0.1153(2) 0.2271(2) -0.81101(11)
H44 H 0.1417 0.2882 -0.7850
C56 C -0.0220(2) 0.19910(16) -0.82520(9)
C57 C 0.1624(3) 0.45623(19) -0.94290(10)
C58 C 0.2737(3) 0.3983(2) -0.95782(12)
H45 H 0.3628 0.4299 -0.9490
C59 C 0.2578(4) 0.2987(3) -0.98391(13)
H46 H 0.3359 0.2600 -0.9932
C60 C 0.1302(4) 0.2545(2) -0.99696(13)
H47 H 0.1180 0.1851 -1.0157
C61 C 0.0170(4) 0.3093(2) -0.98336(11)
H48 H -0.0726 0.2786 -0.9929
C62 C 0.0329(3) 0.41086(17) -0.95514(9)
C63 C 0.1816(2) 0.56516(19) -0.91707(11)
C64 C 0.2720(3) 0.6339(2) -0.94065(13)
H49 H 0.3175 0.6109 -0.9749
C65 C 0.2962(3) 0.7348(2) -0.91507(16)
H50 H 0.3553 0.7824 -0.9332
C66 C 0.2373(3) 0.7662(2) -0.86408(16)
H51 H 0.2598 0.8348 -0.8456
C67 C 0.1474(3) 0.6995(2) -0.83977(13)
H52 H 0.1049 0.7224 -0.8045
C68 C 0.1160(2) 0.59887(18) -0.86701(11)
N3 N -0.22906(17) 0.31404(13) -0.83406(7)
N4 N -0.1038(2) 0.50085(14) -0.88186(8)
O5 O -0.38526(16) 0.31575(12) -0.92376(7)
O6 O -0.08780(18) 0.29378(12) -0.73976(7)
O7 O -0.19569(19) 0.46442(16) -0.98422(7)
O8 O 0.0087(2) 0.53509(16) -0.78254(8)
loop_
_geom_bond_atom_site_label_1
_geom_bond_atom_site_label_2
_geom_bond_site_symmetry_1
_geom_bond_site_symmetry_2
C1 H1 1_555 1_555
C2 C1 1_555 1_555
H2 C2 1_555 1_555
C3 C2 1_555 1_555
H3 C3 1_555 1_555
H4 C3 1_555 1_555
C4 C3 1_555 1_555
H5 C4 1_555 1_555
H6 C4 1_555 1_555
C5 C4 1_555 1_555
H7 C5 1_555 1_555
H8 C5 1_555 1_555
C6 C1 1_555 1_555
H9 C6 1_555 1_555
H10 C6 1_555 1_555
C7 C16 1_555 1_555
C8 C22 1_555 1_555
C9 C28 1_555 1_555
C10 C34 1_555 1_555
C11 C12 1_555 1_555
C12 H11 1_555 1_555
C13 C12 1_555 1_555
H12 C13 1_555 1_555
C14 C13 1_555 1_555
H13 C14 1_555 1_555
C15 C14 1_555 1_555
H14 C15 1_555 1_555
C16 C11 1_555 1_555
C17 C11 1_555 1_555
C18 C17 1_555 1_555
H15 C18 1_555 1_555
C19 C18 1_555 1_555
H16 C19 1_555 1_555
C20 C19 1_555 1_555
H17 C20 1_555 1_555
C21 C20 1_555 1_555
H18 C21 1_555 1_555
C22 C17 1_555 1_555
C23 C24 1_555 1_555
C24 H19 1_555 1_555
C25 C24 1_555 1_555
H20 C25 1_555 1_555
C26 C25 1_555 1_555
H21 C26 1_555 1_555
C27 C26 1_555 1_555
H22 C27 1_555 1_555
C28 C23 1_555 1_555
C29 C23 1_555 1_555
C30 C29 1_555 1_555
H23 C30 1_555 1_555
C31 C30 1_555 1_555
H24 C31 1_555 1_555
C32 C31 1_555 1_555
H25 C32 1_555 1_555
C33 C32 1_555 1_555
H26 C33 1_555 1_555
C34 C29 1_555 1_555
N1 C1 1_555 1_555
N2 C2 1_555 1_555
O1 C7 1_555 1_555
O2 C8 1_555 1_555
O3 C9 1_555 1_555
O4 C10 1_555 1_555
C35 H27 1_555 1_555
C36 C35 1_555 1_555
H28 C36 1_555 1_555
C37 C36 1_555 1_555
H29 C37 1_555 1_555
H30 C37 1_555 1_555
C38 C37 1_555 1_555
H31 C38 1_555 1_555
H32 C38 1_555 1_555
C39 C38 1_555 1_555
H33 C39 1_555 1_555
H34 C39 1_555 1_555
C40 C35 1_555 1_555
H35 C40 1_555 1_555
H36 C40 1_555 1_555
C41 C50 1_555 1_555
C42 C56 1_555 1_555
C43 C62 1_555 1_555
C44 C68 1_555 1_555
C45 C46 1_555 1_555
C46 H37 1_555 1_555
C47 C46 1_555 1_555
H38 C47 1_555 1_555
C48 C47 1_555 1_555
H39 C48 1_555 1_555
C49 C48 1_555 1_555
H40 C49 1_555 1_555
C50 C45 1_555 1_555
C51 C45 1_555 1_555
C52 C51 1_555 1_555
H41 C52 1_555 1_555
C53 C52 1_555 1_555
H42 C53 1_555 1_555
C54 C53 1_555 1_555
H43 C54 1_555 1_555
C55 C54 1_555 1_555
H44 C55 1_555 1_555
C56 C51 1_555 1_555
C57 C58 1_555 1_555
C58 H45 1_555 1_555
C59 C58 1_555 1_555
H46 C59 1_555 1_555
C60 C59 1_555 1_555
H47 C60 1_555 1_555
C61 C60 1_555 1_555
H48 C61 1_555 1_555
C62 C57 1_555 1_555
C63 C57 1_555 1_555
C64 C63 1_555 1_555
H49 C64 1_555 1_555
C65 C64 1_555 1_555
H50 C65 1_555 1_555
C66 C65 1_555 1_555
H51 C66 1_555 1_555
C67 C66 1_555 1_555
H52 C67 1_555 1_555
C68 C63 1_555 1_555
N3 C35 1_555 1_555
N4 C36 1_555 1_555
O5 C41 1_555 1_555
O6 C42 1_555 1_555
O7 C43 1_555 1_555
O8 C44 1_555 1_555
C5 C6 1_555 1_555
C7 N1 1_555 1_555
C8 N1 1_555 1_555
C9 N2 1_555 1_555
C10 N2 1_555 1_555
C15 C16 1_555 1_555
C21 C22 1_555 1_555
C27 C28 1_555 1_555
C33 C34 1_555 1_555
C39 C40 1_555 1_555
C41 N3 1_555 1_555
C42 N3 1_555 1_555
C43 N4 1_555 1_555
C44 N4 1_555 1_555
C49 C50 1_555 1_555
C55 C56 1_555 1_555
C61 C62 1_555 1_555
C67 C68 1_555 1_555

#END
