
#######################################################################
#
#                 Cambridge Crystallographic Data Centre
#                                CCDC 
#
#######################################################################
#
# If this CIF has been generated from an entry in the Cambridge 
# Structural Database, then it will include bibliographic, chemical, 
# crystal, experimental, refinement or atomic coordinate data resulting 
# from the CCDC's data processing and validation procedures.
#
#######################################################################

data_IVIZET
_chemical_formula_moiety         'C45 H77 B2 Li1 N2 O3'
_chemical_name_systematic        
((4-(Triethylboryl)-1,3-bis(2,6-di-isopropylphenyl)imidazol-2-ylidene)trihydridoborate-H,H',H'')-tris(tetrahydrofuran)-lithium
_symmetry_cell_setting           monoclinic
_symmetry_space_group_name_H-M   'P 21/n'
_symmetry_Int_Tables_number      14
_space_group_name_Hall           '-P 2yn'
loop_
_symmetry_equiv_pos_site_id
_symmetry_equiv_pos_as_xyz
1 x,y,z
2 1/2-x,1/2+y,1/2-z
3 -x,-y,-z
4 1/2+x,1/2-y,1/2+z
_cell_length_a                   10.798(6)
_cell_length_b                   22.113(12)
_cell_length_c                   20.838(11)
_cell_angle_alpha                90
_cell_angle_beta                 101.847(8)
_cell_angle_gamma                90
_cell_volume                     4869.63
_exptl_crystal_colour            colorless
_exptl_crystal_description       plate
_cell_formula_units_Z            4
_chemical_properties_physical    air-sensitive
loop_
_atom_site_label
_atom_site_type_symbol
_atom_site_fract_x
_atom_site_fract_y
_atom_site_fract_z
Li1 Li 0.1539(5) 0.1686(2) 0.3980(2)
B1 B 0.1070(4) 0.27062(15) 0.3776(2)
H1 H 0.079(5) 0.233(2) 0.343(3)
H2 H 0.083(6) 0.259(2) 0.426(3)
H3 H 0.214(2) 0.276(2) 0.389(3)
B2 B -0.1458(3) 0.45546(15) 0.23352(15)
N1 N 0.05941(17) 0.38526(8) 0.38943(9)
N2 N -0.01684(17) 0.35256(8) 0.29265(9)
C1 C 0.0508(2) 0.33491(10) 0.35245(11)
C2 C -0.0020(2) 0.43300(10) 0.35316(11)
H7 H -0.0076 0.4719 0.3692
C3 C -0.0524(2) 0.41512(10) 0.29127(12)
C4 C -0.0363(2) 0.31269(10) 0.23600(12)
C5 C -0.1449(3) 0.27614(12) 0.22222(14)
C6 C -0.1598(4) 0.24042(14) 0.16574(18)
H8 H -0.2319 0.2167 0.1539
C7 C -0.0714(5) 0.23959(17) 0.12786(18)
H9 H -0.0833 0.2148 0.0911
C8 C 0.0338(4) 0.27445(16) 0.14298(16)
H10 H 0.0929 0.2731 0.1162
C9 C 0.0561(3) 0.31253(12) 0.19791(13)
C10 C 0.1764(3) 0.34967(16) 0.21439(17)
H11 H 0.1628 0.3811 0.2454
C11 C 0.2088(4) 0.3817(2) 0.1552(2)
H12 H 0.2845 0.4052 0.1689
H13 H 0.1404 0.4079 0.1360
H14 H 0.2221 0.3522 0.1235
C12 C 0.2873(4) 0.3112(2) 0.2488(2)
H15 H 0.3620 0.3358 0.2591
H16 H 0.3010 0.2788 0.2204
H17 H 0.2688 0.2948 0.2884
C13 C -0.2399(3) 0.27213(15) 0.26648(19)
H18 H -0.2286 0.3075 0.2954
C14 C -0.3792(3) 0.2708(2) 0.2286(3)
H19 H -0.4344 0.2683 0.2592
H20 H -0.3922 0.2362 0.2001
H21 H -0.3974 0.3070 0.2030
C15 C -0.2183(4) 0.2155(2) 0.3091(3)
H22 H -0.2787 0.2144 0.3371
H23 H -0.1342 0.2163 0.3355
H24 H -0.2284 0.1803 0.2816
C16 C 0.1201(2) 0.38942(10) 0.45813(11)
C17 C 0.0440(3) 0.38588(11) 0.50480(12)
C18 C 0.1048(3) 0.39412(12) 0.57022(13)
H25 H 0.0574 0.3923 0.6027
C19 C 0.2322(3) 0.40482(13) 0.58783(14)
H26 H 0.2700 0.4103 0.6317
C20 C 0.3044(3) 0.40751(12) 0.54073(14)
H27 H 0.3908 0.4147 0.5535
C21 C 0.2515(2) 0.39964(10) 0.47408(12)
C22 C 0.3331(3) 0.40309(13) 0.42328(14)
H28 H 0.2838 0.3864 0.3824
C23 C 0.4531(3) 0.36566(19) 0.4418(2)
H29 H 0.5011 0.3689 0.4080
H30 H 0.4313 0.3241 0.4468
H31 H 0.5028 0.3803 0.4824
C24 C 0.3651(4) 0.46838(18) 0.4098(2)
H32 H 0.4159 0.4692 0.3770
H33 H 0.4112 0.4865 0.4494
H34 H 0.2884 0.4906 0.3944
C25 C -0.0970(3) 0.37525(13) 0.48655(15)
H35 H -0.1187 0.3688 0.4390
C26 C -0.1703(3) 0.43052(18) 0.5015(2)
H36 H -0.2595 0.4229 0.4884
H37 H -0.1482 0.4648 0.4779
H38 H -0.1496 0.4387 0.5477
C27 C -0.1371(4) 0.3190(2) 0.5188(3)
H39 H -0.2268 0.3136 0.5051
H40 H -0.1155 0.3235 0.5656
H41 H -0.0941 0.2844 0.5060
C28 C -0.1313(3) 0.52604(13) 0.25733(15)
H42 H -0.1968 0.5492 0.2289
H43 H -0.1484 0.5281 0.3012
C29 C -0.0036(4) 0.55796(18) 0.25856(19)
H44 H -0.0079 0.5988 0.2735
H45 H 0.0138 0.5581 0.2152
H46 H 0.0626 0.5368 0.2877
C30 C -0.1160(4) 0.44707(17) 0.16159(14)
H47 H -0.0276 0.4565 0.1635
H48 H -0.1291 0.4050 0.1488
C31 C -0.1985(5) 0.48725(19) 0.10802(17)
H49 H -0.1750 0.4802 0.0667
H50 H -0.1854 0.5291 0.1198
H51 H -0.2862 0.4772 0.1045
C32 C -0.2951(3) 0.43380(16) 0.2319(2)
H52 H -0.3509 0.4604 0.2021
H53 H -0.3059 0.3934 0.2136
C33 C -0.3392(4) 0.4332(2) 0.2974(2)
H54 H -0.4259 0.4205 0.2902
H55 H -0.3316 0.4732 0.3159
H56 H -0.2876 0.4057 0.3271
O1 O 0.0993(19) 0.1117(6) 0.3256(5)
C34 C 0.1112(14) 0.0486(5) 0.3254(6)
H57 H 0.0312 0.0297 0.3277
H58 H 0.1743 0.0354 0.3629
C35 C 0.1505(16) 0.0314(6) 0.2631(6)
H59 H 0.1220 -0.0088 0.2484
H60 H 0.2412 0.0345 0.2666
C36 C 0.0778(15) 0.0812(6) 0.2192(5)
H61 H 0.1321 0.1007 0.1936
H62 H 0.0050 0.0643 0.1894
C37 C 0.0401(12) 0.1217(5) 0.2613(4)
H63 H 0.0589 0.1624 0.2488
H64 H -0.0507 0.1186 0.2574
O2 O 0.0771(2) 0.13374(10) 0.46759(11)
C38 C 0.108(2) 0.1535(11) 0.5340(9)
H65 H 0.1181 0.1971 0.5362
H66 H 0.1855 0.1348 0.5570
C39 C -0.0022(18) 0.1344(8) 0.5638(7)
H67 H 0.0283 0.1178 0.6073
H68 H -0.0557 0.1689 0.5676
C40 C -0.0713(17) 0.0902(7) 0.5222(8)
H69 H -0.0605 0.0507 0.5428
H70 H -0.1608 0.1001 0.5123
C41 C -0.0211(16) 0.0910(8) 0.4644(7)
H71 H -0.0884 0.1004 0.4272
H72 H 0.0110 0.0511 0.4574
O3 O 0.3340(2) 0.15471(12) 0.42806(14)
C42 C 0.3881(8) 0.1083(5) 0.4698(6)
H73 H 0.3763 0.1172 0.5137
H74 H 0.3435 0.0710 0.4558
C43 C 0.5134(8) 0.0998(6) 0.4719(5)
H75 H 0.5269 0.0623 0.4502
H76 H 0.5597 0.0979 0.5170
C44 C 0.5541(10) 0.1488(10) 0.4397(7)
H77 H 0.6084 0.1748 0.4709
H78 H 0.6015 0.1348 0.4078
C45 C 0.4405(11) 0.1822(5) 0.4067(7)
H79 H 0.4476 0.2246 0.4189
H80 H 0.4302 0.1792 0.3595
H4? H 0.137(6) 0.243(3) 0.335(3)
H5? H 0.025(6) 0.245(3) 0.393(4)
H6? H 0.184(5) 0.2728(19) 0.428(2)
C46? C 0.181(2) 0.0562(8) 0.3248(9)
C47? C 0.129(3) 0.0331(8) 0.2559(11)
C48? C 0.139(3) 0.0903(9) 0.2165(9)
C49? C 0.141(3) 0.1367(6) 0.2590(7)
C50? C 0.0852(19) 0.1627(9) 0.5313(9)
C51? C -0.0392(19) 0.1486(9) 0.5497(11)
C52? C -0.1055(15) 0.1164(13) 0.5003(11)
C53? C -0.0453(16) 0.1084(10) 0.4474(9)
C54? C 0.4132(12) 0.1615(12) 0.4884(5)
C55? C 0.5333(14) 0.1717(12) 0.4775(7)
C56? C 0.5350(17) 0.1641(16) 0.4124(9)
C57? C 0.4039(17) 0.1610(12) 0.3809(6)
H81? H 0.1503 0.0323 0.3574
H82? H 0.2726 0.0562 0.3347
H83? H 0.1797 0.0005 0.2440
H84? H 0.0416 0.0197 0.2508
H85? H 0.2154 0.0897 0.1991
H86? H 0.0666 0.0938 0.1803
H87? H 0.0713 0.1640 0.2425
H88? H 0.2193 0.1591 0.2621
H89? H 0.0968 0.2060 0.5282
H90? H 0.1550 0.1463 0.5634
H91? H -0.0260 0.1256 0.5901
H92? H -0.0836 0.1857 0.5557
H93? H -0.1861 0.1364 0.4846
H94? H -0.1229 0.0770 0.5168
H95? H -0.0915 0.1290 0.4087
H96? H -0.0396 0.0658 0.4374
H97? H 0.4122 0.1253 0.5145
H98? H 0.3861 0.1954 0.5116
H99? H 0.5596 0.2125 0.4909
H100? H 0.5922 0.1437 0.5036
H101? H 0.5787 0.1271 0.4054
H102? H 0.5764 0.1979 0.3959
H103? H 0.3895 0.1269 0.3511
H104? H 0.3793 0.1977 0.3559
O4? O 0.132(4) 0.1161(10) 0.3212(9)
loop_
_geom_bond_atom_site_label_1
_geom_bond_atom_site_label_2
_geom_bond_site_symmetry_1
_geom_bond_site_symmetry_2
Li1 H1 1_555 1_555
B1 H1 1_555 1_555
H2 Li1 1_555 1_555
H3 Li1 1_555 1_555
B2 C3 1_555 1_555
N1 C1 1_555 1_555
N2 C1 1_555 1_555
C1 B1 1_555 1_555
C2 N1 1_555 1_555
H7 C2 1_555 1_555
C3 N2 1_555 1_555
C4 N2 1_555 1_555
C5 C4 1_555 1_555
C6 C5 1_555 1_555
H8 C6 1_555 1_555
C7 C6 1_555 1_555
H9 C7 1_555 1_555
C8 C7 1_555 1_555
H10 C8 1_555 1_555
C9 C4 1_555 1_555
C10 C9 1_555 1_555
H11 C10 1_555 1_555
C11 C10 1_555 1_555
H12 C11 1_555 1_555
H13 C11 1_555 1_555
H14 C11 1_555 1_555
C12 C10 1_555 1_555
H15 C12 1_555 1_555
H16 C12 1_555 1_555
H17 C12 1_555 1_555
C13 C5 1_555 1_555
H18 C13 1_555 1_555
C14 C13 1_555 1_555
H19 C14 1_555 1_555
H20 C14 1_555 1_555
H21 C14 1_555 1_555
C15 C13 1_555 1_555
H22 C15 1_555 1_555
H23 C15 1_555 1_555
H24 C15 1_555 1_555
C16 N1 1_555 1_555
C17 C16 1_555 1_555
C18 C17 1_555 1_555
H25 C18 1_555 1_555
C19 C18 1_555 1_555
H26 C19 1_555 1_555
C20 C19 1_555 1_555
H27 C20 1_555 1_555
C21 C16 1_555 1_555
C22 C21 1_555 1_555
H28 C22 1_555 1_555
C23 C22 1_555 1_555
H29 C23 1_555 1_555
H30 C23 1_555 1_555
H31 C23 1_555 1_555
C24 C22 1_555 1_555
H32 C24 1_555 1_555
H33 C24 1_555 1_555
H34 C24 1_555 1_555
C25 C17 1_555 1_555
H35 C25 1_555 1_555
C26 C25 1_555 1_555
H36 C26 1_555 1_555
H37 C26 1_555 1_555
H38 C26 1_555 1_555
C27 C25 1_555 1_555
H39 C27 1_555 1_555
H40 C27 1_555 1_555
H41 C27 1_555 1_555
C28 B2 1_555 1_555
H42 C28 1_555 1_555
H43 C28 1_555 1_555
C29 C28 1_555 1_555
H44 C29 1_555 1_555
H45 C29 1_555 1_555
H46 C29 1_555 1_555
C30 B2 1_555 1_555
H47 C30 1_555 1_555
H48 C30 1_555 1_555
C31 C30 1_555 1_555
H49 C31 1_555 1_555
H50 C31 1_555 1_555
H51 C31 1_555 1_555
C32 B2 1_555 1_555
H52 C32 1_555 1_555
H53 C32 1_555 1_555
C33 C32 1_555 1_555
H54 C33 1_555 1_555
H55 C33 1_555 1_555
H56 C33 1_555 1_555
O1 Li1 1_555 1_555
C34 O1 1_555 1_555
H57 C34 1_555 1_555
H58 C34 1_555 1_555
C35 C34 1_555 1_555
H59 C35 1_555 1_555
H60 C35 1_555 1_555
C36 C35 1_555 1_555
H61 C36 1_555 1_555
H62 C36 1_555 1_555
C37 O1 1_555 1_555
H63 C37 1_555 1_555
H64 C37 1_555 1_555
O2 Li1 1_555 1_555
C38 O2 1_555 1_555
H65 C38 1_555 1_555
H66 C38 1_555 1_555
C39 C38 1_555 1_555
H67 C39 1_555 1_555
H68 C39 1_555 1_555
C40 C39 1_555 1_555
H69 C40 1_555 1_555
H70 C40 1_555 1_555
C41 O2 1_555 1_555
H71 C41 1_555 1_555
H72 C41 1_555 1_555
O3 Li1 1_555 1_555
C42 O3 1_555 1_555
H73 C42 1_555 1_555
H74 C42 1_555 1_555
C43 C42 1_555 1_555
H75 C43 1_555 1_555
H76 C43 1_555 1_555
C44 C43 1_555 1_555
H77 C44 1_555 1_555
H78 C44 1_555 1_555
C45 O3 1_555 1_555
H79 C45 1_555 1_555
H80 C45 1_555 1_555
B1 H2 1_555 1_555
B1 H3 1_555 1_555
C2 C3 1_555 1_555
C8 C9 1_555 1_555
C20 C21 1_555 1_555
C36 C37 1_555 1_555
C40 C41 1_555 1_555
C44 C45 1_555 1_555

#END
