
#######################################################################
#
#                 Cambridge Crystallographic Data Centre
#                                CCDC 
#
#######################################################################
#
# If this CIF has been generated from an entry in the Cambridge 
# Structural Database, then it will include bibliographic, chemical, 
# crystal, experimental, refinement or atomic coordinate data resulting 
# from the CCDC's data processing and validation procedures.
#
#######################################################################

data_IVOCAX
_chemical_formula_moiety         'C6 F6,C14 H10'
_chemical_name_systematic        'Phenanthrene hexafluorobenzene'
_symmetry_cell_setting           triclinic
_symmetry_space_group_name_H-M   'P -1'
_symmetry_Int_Tables_number      2
_space_group_name_Hall           '-P 1'
loop_
_symmetry_equiv_pos_site_id
_symmetry_equiv_pos_as_xyz
1 x,y,z
2 -x,-y,-z
_cell_length_a                   6.929(2)
_cell_length_b                   7.308(1)
_cell_length_c                   15.991(3)
_cell_angle_alpha                91.51(1)
_cell_angle_beta                 102.16(1)
_cell_angle_gamma                100.16(1)
_cell_volume                     777.459
_exptl_crystal_colour            colorless
_exptl_crystal_description       splinter
_cell_formula_units_Z            2
loop_
_atom_site_label
_atom_site_type_symbol
_atom_site_fract_x
_atom_site_fract_y
_atom_site_fract_z
C1 C 0.17722(19) 0.54956(18) 0.78140(9)
C2 C 0.18582(19) 0.56089(17) 0.69606(8)
C3 C 0.23835(18) 0.73275(18) 0.66465(8)
C4 C 0.28050(18) 0.89289(17) 0.71858(8)
C5 C 0.27093(18) 0.88089(18) 0.80376(9)
C6 C 0.21939(19) 0.70912(19) 0.83535(8)
F1 F 0.12864(13) 0.38249(12) 0.81211(6)
F2 F 0.14272(13) 0.40623(11) 0.64376(6)
F3 F 0.24944(12) 0.74441(13) 0.58224(5)
F4 F 0.33194(13) 1.05951(11) 0.68811(6)
F5 F 0.31169(13) 1.03708(12) 0.85556(6)
F6 F 0.20914(13) 0.69771(13) 0.91778(5)
C7 C 0.7236(2) 0.6645(3) 0.55867(10)
H1 H 0.6985 0.5583 0.5197
C8 C 0.7711(2) 0.8385(3) 0.53009(9)
H2 H 0.7779 0.8522 0.4718
C9 C 0.8099(2) 0.9973(3) 0.58742(10)
H3 H 0.8417 1.1180 0.5676
C10 C 0.8021(2) 0.9792(2) 0.67194(9)
H4 H 0.8307 1.0874 0.7099
C11 C 0.7805(2) 0.9283(2) 0.85508(9)
H5 H 0.8160 1.0516 0.8386
C12 C 0.7668(2) 0.8988(3) 0.93892(10)
H6 H 0.7905 1.0029 0.9790
C13 C 0.7181(3) 0.7172(4) 0.96478(10)
H7 H 0.7107 0.6987 1.0227
C14 C 0.6816(2) 0.5675(3) 0.90637(10)
H8 H 0.6498 0.4453 0.9246
C15 C 0.6487(2) 0.43707(19) 0.75822(10)
H9 H 0.6133 0.3153 0.7764
C16 C 0.6578(2) 0.45964(19) 0.67532(10)
H10 H 0.6286 0.3533 0.6362
C17 C 0.71115(19) 0.6419(2) 0.64554(9)
C18 C 0.75216(18) 0.8015(2) 0.70359(9)
C19 C 0.74216(18) 0.7768(2) 0.79310(8)
C20 C 0.6914(2) 0.5941(2) 0.81951(9)
C21? C 0.7961(18) 0.913(2) 0.5893(8)
H11? H 0.8287 1.0356 0.5712
C22? C 0.7591(18) 0.755(2) 0.5359(8)
H12? H 0.7640 0.7662 0.4773
C23? C 0.7158(19) 0.582(2) 0.5574(8)
H13? H 0.6959 0.4791 0.5172
C24? C 0.6995(16) 0.550(2) 0.6415(7)
H14? H 0.6658 0.4252 0.6568
C25? C 0.6732(16) 0.4879(19) 0.8209(7)
H15? H 0.6434 0.3820 0.7815
C26? C 0.6655(19) 0.462(2) 0.9050(8)
H16? H 0.6383 0.3414 0.9250
C27? C 0.707(2) 0.624(2) 0.9607(10)
H17? H 0.6958 0.5994 1.0178
C28? C 0.7538(16) 0.799(2) 0.9388(7)
H18? H 0.7788 0.9036 0.9788
C29? C 0.8207(15) 1.0118(15) 0.8249(7)
H19? H 0.8480 1.1139 0.8663
C30? C 0.8260(14) 1.0341(13) 0.7425(6)
H20? H 0.8648 1.1567 0.7258
C31? C 0.7834(13) 0.8837(19) 0.6796(6)
C32? C 0.7336(14) 0.6979(17) 0.7004(6)
C33? C 0.7263(13) 0.6704(17) 0.7940(6)
C34? C 0.7655(14) 0.8257(16) 0.8489(7)
loop_
_geom_bond_atom_site_label_1
_geom_bond_atom_site_label_2
_geom_bond_site_symmetry_1
_geom_bond_site_symmetry_2
C1 C2 1_555 1_555
C2 C3 1_555 1_555
C3 C4 1_555 1_555
C4 C5 1_555 1_555
C5 C6 1_555 1_555
C6 C1 1_555 1_555
F1 C1 1_555 1_555
F2 C2 1_555 1_555
F3 C3 1_555 1_555
F4 C4 1_555 1_555
F5 C5 1_555 1_555
F6 C6 1_555 1_555
C7 H1 1_555 1_555
C8 C7 1_555 1_555
H2 C8 1_555 1_555
C9 C8 1_555 1_555
H3 C9 1_555 1_555
C10 C9 1_555 1_555
H4 C10 1_555 1_555
C11 H5 1_555 1_555
C12 C11 1_555 1_555
H6 C12 1_555 1_555
C13 C12 1_555 1_555
H7 C13 1_555 1_555
C14 C13 1_555 1_555
H8 C14 1_555 1_555
C15 H9 1_555 1_555
C16 C15 1_555 1_555
H10 C16 1_555 1_555
C17 C7 1_555 1_555
C18 C10 1_555 1_555
C19 C11 1_555 1_555
C20 C14 1_555 1_555
C15 C20 1_555 1_555
C16 C17 1_555 1_555
C17 C18 1_555 1_555
C18 C19 1_555 1_555
C19 C20 1_555 1_555

#END
