
#######################################################################
#
#                 Cambridge Crystallographic Data Centre
#                                CCDC 
#
#######################################################################
#
# If this CIF has been generated from an entry in the Cambridge 
# Structural Database, then it will include bibliographic, chemical, 
# crystal, experimental, refinement or atomic coordinate data resulting 
# from the CCDC's data processing and validation procedures.
#
#######################################################################

data_IVOFAC
_chemical_formula_moiety         'C22 H22 N2 O2'
_chemical_name_systematic        
6,16-dioxa-1,21-diazapentacyclo[19.2.2.1^11,15^.0^3,8^.0^7,12^]hexacosa-3,7,9,11,13,15(26)-hexaen-18-yne
_symmetry_cell_setting           monoclinic
_symmetry_space_group_name_H-M   'P 21/n'
_symmetry_Int_Tables_number      14
_space_group_name_Hall           '-P 2yn'
loop_
_symmetry_equiv_pos_site_id
_symmetry_equiv_pos_as_xyz
1 x,y,z
2 1/2-x,1/2+y,1/2-z
3 -x,-y,-z
4 1/2+x,1/2-y,1/2+z
_cell_length_a                   12.6571(14)
_cell_length_b                   11.3249(12)
_cell_length_c                   12.6571(14)
_cell_angle_alpha                90
_cell_angle_beta                 105.22
_cell_angle_gamma                90
_cell_volume                     1750.64
_exptl_crystal_colour            red
_exptl_crystal_description       block
_cell_formula_units_Z            4
loop_
_atom_site_label
_atom_site_type_symbol
_atom_site_fract_x
_atom_site_fract_y
_atom_site_fract_z
C1 C 0.32707(14) 0.55135(16) 1.13165(14)
C2 C 0.35985(14) 0.52026(16) 1.04120(15)
H1 H 0.3986 0.5737 1.0100
C3 C 0.33501(13) 0.40714(16) 0.99487(14)
C4 C 0.28361(13) 0.32421(15) 1.04931(14)
C5 C 0.26647(14) 0.35433(16) 1.15164(15)
H2 H 0.2420 0.2973 1.1925
C6 C 0.28553(15) 0.46686(17) 1.19119(15)
H3 H 0.2710 0.4873 1.2572
C7 C 0.34653(14) 0.38243(17) 0.88876(15)
H4 H 0.3922 0.4285 0.8588
C8 C 0.29034(15) 0.29099(17) 0.83146(15)
H5 H 0.2921 0.2793 0.7592
C9 C 0.22899(14) 0.21284(16) 0.87943(15)
C10 C 0.23682(14) 0.22170(15) 0.98943(15)
C11 C 0.13291(16) 0.14728(17) 0.81451(16)
C12 C 0.09376(19) 0.06077(18) 0.86508(19)
H6 H 0.0302 0.0198 0.8311
C13 C 0.1576(2) 0.03388(18) 0.9787(2)
H7 H 0.1153 -0.0171 1.0137
H8 H 0.2247 -0.0069 0.9775
C14 C 0.07142(17) 0.20826(18) 0.71082(16)
H9 H 0.1130 0.2046 0.6565
H10 H 0.0013 0.1701 0.6810
C15 C 0.04587(18) 0.42077(19) 0.65605(16)
H11 H -0.0280 0.4219 0.6085
H12 H 0.0961 0.4045 0.6117
C16 C 0.07272(17) 0.53962(18) 0.71246(17)
H13 H 0.1483 0.5397 0.7558
H14 H 0.0644 0.6012 0.6577
C17 C 0.00520(16) 0.46849(17) 0.86134(15)
H15 H -0.0469 0.4840 0.9038
H16 H 0.0777 0.4649 0.9115
C18 C -0.02130(16) 0.35152(18) 0.80314(17)
H17 H -0.0160 0.2886 0.8563
H18 H -0.0955 0.3528 0.7564
C19 C 0.02093(16) 0.67964(18) 0.83640(18)
H19 H -0.0381 0.6945 0.8703
H20 H 0.0153 0.7386 0.7796
C20 C 0.12605(16) 0.70023(17) 0.92081(16)
C21 C 0.20548(16) 0.72434(16) 0.99134(16)
C22 C 0.30397(18) 0.75254(17) 1.07975(16)
H21 H 0.3664 0.7577 1.0490
H22 H 0.2943 0.8292 1.1101
N1 N 0.05521(13) 0.33067(14) 0.73801(13)
N2 N 0.00122(12) 0.56434(14) 0.78306(13)
O1 O 0.32680(12) 0.66699(12) 1.16610(10)
O2 O 0.18367(12) 0.14434(11) 1.04025(11)
loop_
_geom_bond_atom_site_label_1
_geom_bond_atom_site_label_2
_geom_bond_site_symmetry_1
_geom_bond_site_symmetry_2
C1 C2 1_555 1_555
C2 H1 1_555 1_555
C3 C2 1_555 1_555
C4 C3 1_555 1_555
C5 C4 1_555 1_555
H2 C5 1_555 1_555
C6 C1 1_555 1_555
H3 C6 1_555 1_555
C7 C3 1_555 1_555
H4 C7 1_555 1_555
C8 C7 1_555 1_555
H5 C8 1_555 1_555
C9 C8 1_555 1_555
C10 C4 1_555 1_555
C11 C9 1_555 1_555
C12 C11 1_555 1_555
H6 C12 1_555 1_555
C13 C12 1_555 1_555
H7 C13 1_555 1_555
H8 C13 1_555 1_555
C14 C11 1_555 1_555
H9 C14 1_555 1_555
H10 C14 1_555 1_555
C15 H11 1_555 1_555
H12 C15 1_555 1_555
C16 C15 1_555 1_555
H13 C16 1_555 1_555
H14 C16 1_555 1_555
C17 H15 1_555 1_555
H16 C17 1_555 1_555
C18 C17 1_555 1_555
H17 C18 1_555 1_555
H18 C18 1_555 1_555
C19 H19 1_555 1_555
H20 C19 1_555 1_555
C20 C19 1_555 1_555
C21 C20 1_555 1_555
C22 C21 1_555 1_555
H21 C22 1_555 1_555
H22 C22 1_555 1_555
N1 C14 1_555 1_555
N2 C16 1_555 1_555
O1 C1 1_555 1_555
O2 C10 1_555 1_555
C5 C6 1_555 1_555
C9 C10 1_555 1_555
C13 O2 1_555 1_555
C15 N1 1_555 1_555
C17 N2 1_555 1_555
C18 N1 1_555 1_555
C19 N2 1_555 1_555
C22 O1 1_555 1_555

#END
