
#######################################################################
#
#                 Cambridge Crystallographic Data Centre
#                                CCDC 
#
#######################################################################
#
# If this CIF has been generated from an entry in the Cambridge 
# Structural Database, then it will include bibliographic, chemical, 
# crystal, experimental, refinement or atomic coordinate data resulting 
# from the CCDC's data processing and validation procedures.
#
#######################################################################

data_IVOPUF
_chemical_formula_moiety         
'C44 H68 N24 O22 Sr2 4+,H3 O1 1+,5(Cl1 1-),7(H2 O1)'
_chemical_name_systematic        
'(\m~2~-p-Dicyclohexanocucurbit(6)uril)-deca-aqua-di-strontium oxonium pentachloride heptahydrate'
_symmetry_cell_setting           triclinic
_symmetry_space_group_name_H-M   'P -1'
_symmetry_Int_Tables_number      2
_space_group_name_Hall           '-P 1'
loop_
_symmetry_equiv_pos_site_id
_symmetry_equiv_pos_as_xyz
1 x,y,z
2 -x,-y,-z
_cell_length_a                   11.1891(9)
_cell_length_b                   13.1426(18)
_cell_length_c                   13.6714(10)
_cell_angle_alpha                104.748(4)
_cell_angle_beta                 114.062(3)
_cell_angle_gamma                98.487(4)
_cell_volume                     1701.8
_exptl_crystal_colour            colorless
_exptl_crystal_description       block
_cell_formula_units_Z            1
loop_
_atom_site_label
_atom_site_type_symbol
_atom_site_fract_x
_atom_site_fract_y
_atom_site_fract_z
C1 C 0.1206(5) 0.2830(4) -0.2429(4)
C2 C 0.0959(5) 0.1293(4) -0.1731(4)
H1 H 0.0195 0.1514 -0.1670
H2 H 0.0659 0.0504 -0.2115
C3 C 0.2125(5) 0.2319(4) 0.0324(4)
C4 C 0.3383(5) 0.2901(4) 0.2421(4)
H3 H 0.3570 0.2449 0.2896
H4 H 0.2556 0.3090 0.2362
C5 C 0.4310(5) 0.4870(4) 0.2841(4)
C6 C 0.7698(5) 0.7696(4) 0.3529(4)
H5 H 0.8186 0.7994 0.4366
C7 C 0.8651(5) 0.6057(4) 0.3585(4)
H6 H 0.9177 0.6430 0.4406
H7 H 0.9248 0.5755 0.3318
C8 C 0.7350(5) 0.4109(4) 0.2708(4)
C9 C 0.6235(5) 0.2223(4) 0.2434(4)
H8 H 0.7060 0.2084 0.2427
H9 H 0.6077 0.1915 0.2959
C10 C 0.5252(5) 0.1421(4) 0.0340(4)
C11 C 0.3831(5) 0.0649(4) -0.1739(4)
H10 H 0.3109 -0.0034 -0.2215
H11 H 0.4665 0.0527 -0.1740
C12 C 0.4446(5) 0.2193(4) -0.2324(4)
C13 C 0.2098(5) 0.1426(4) -0.2993(4)
H12 H 0.1599 0.0695 -0.3577
C14 C 0.2904(5) 0.0847(4) -0.0276(4)
H13 H 0.2357 0.0086 -0.0541
C15 C 0.3678(5) 0.1358(4) 0.1050(4)
H14 H 0.3502 0.0829 0.1402
C16 C 0.5942(5) 0.3965(4) 0.3600(4)
C17 C 0.6686(5) 0.5217(4) 0.3938(4)
C18 C 0.7528(5) 0.5788(5) 0.5232(4)
H15 H 0.8038 0.6528 0.5397
H16 H 0.6917 0.5841 0.5570
C19 C 0.6269(5) 0.3630(5) 0.4658(4)
H17 H 0.5843 0.3986 0.5085
H18 H 0.5893 0.2842 0.4417
C20 C 0.7802(5) 0.3949(5) 0.5424(5)
H19 H 0.8203 0.3510 0.5029
H20 H 0.7969 0.3779 0.6110
C21 C 0.8515(5) 0.5175(5) 0.5770(5)
H21 H 0.8945 0.5513 0.6595
H22 H 0.9227 0.5239 0.5537
C22 C 0.5622(5) 0.6801(4) 0.3648(4)
H23 H 0.6140 0.7184 0.4467
H24 H 0.4705 0.6873 0.3410
N1 N 0.1332(4) 0.1815(4) -0.2421(3)
N2 N 0.3495(4) 0.1481(3) -0.2240(3)
N3 N 0.2056(4) 0.1560(3) -0.0601(3)
N4 N 0.4012(4) 0.0922(3) -0.0586(3)
N5 N 0.3136(4) 0.2259(4) 0.1293(3)
N6 N 0.5101(4) 0.1658(4) 0.1300(3)
N7 N 0.4500(4) 0.3902(4) 0.2986(3)
N8 N 0.6457(4) 0.3400(3) 0.2860(3)
N9 N 0.5550(4) 0.5652(3) 0.3415(3)
N10 N 0.7531(4) 0.5158(3) 0.3354(3)
N11 N 0.8225(4) 0.6852(3) 0.3057(3)
N12 N 0.3762(4) 0.2660(4) -0.3094(3)
O1 O 0.0649(4) 0.3369(3) -0.1977(3)
O2 O 0.5682(3) 0.2362(3) -0.1818(3)
O3 O 0.8589(4) 0.3399(4) -0.1380(4)
O4 O 0.1405(4) 0.2938(3) 0.0289(3)
O5 O 0.7317(4) 0.4802(3) -0.0055(3)
O6 O 0.6356(3) 0.1575(3) 0.0315(3)
O7 O 1.0283(4) 0.4455(3) 0.1302(3)
O8 O 0.3214(3) 0.5030(3) 0.2335(3)
O9 O 0.7947(5) 0.1172(4) -0.1164(4)
O10 O 0.7914(3) 0.3842(3) 0.2130(3)
O11 O 0.9686(4) 0.2174(4) 0.1523(4)
Sr1 Sr 0.79985(5) 0.29932(4) 0.01726(4)
C1A C 0.8794(5) 0.7170(4) 0.2429(4)
C2A C 0.9041(5) 0.8707(4) 0.1731(4)
H1A H 0.9805 0.8486 0.1670
H2A H 0.9341 0.9496 0.2115
C3A C 0.7875(5) 0.7681(4) -0.0324(4)
C4A C 0.6617(5) 0.7099(4) -0.2421(4)
H3A H 0.6430 0.7551 -0.2896
H4A H 0.7444 0.6910 -0.2362
C5A C 0.5690(5) 0.5130(4) -0.2841(4)
C6A C 0.2302(5) 0.2304(4) -0.3529(4)
H5A H 0.1814 0.2006 -0.4366
C7A C 0.1349(5) 0.3943(4) -0.3585(4)
H6A H 0.0823 0.3570 -0.4406
H7A H 0.0752 0.4245 -0.3318
C8A C 0.2650(5) 0.5891(4) -0.2708(4)
C9A C 0.3765(5) 0.7777(4) -0.2434(4)
H8A H 0.2940 0.7916 -0.2427
H9A H 0.3923 0.8085 -0.2959
C10A C 0.4748(5) 0.8579(4) -0.0340(4)
C11A C 0.6169(5) 0.9351(4) 0.1739(4)
H10A H 0.6891 1.0034 0.2215
H11A H 0.5335 0.9473 0.1740
C12A C 0.5554(5) 0.7807(4) 0.2324(4)
C13A C 0.7902(5) 0.8574(4) 0.2993(4)
H12A H 0.8401 0.9305 0.3577
C14A C 0.7096(5) 0.9153(4) 0.0276(4)
H13A H 0.7643 0.9914 0.0541
C15A C 0.6322(5) 0.8642(4) -0.1050(4)
H14A H 0.6498 0.9171 -0.1402
C16A C 0.4058(5) 0.6035(4) -0.3600(4)
C17A C 0.3314(5) 0.4783(4) -0.3938(4)
C18A C 0.2472(5) 0.4212(5) -0.5232(4)
H15A H 0.1962 0.3472 -0.5397
H16A H 0.3083 0.4159 -0.5570
C19A C 0.3731(5) 0.6370(5) -0.4658(4)
H17A H 0.4157 0.6014 -0.5085
H18A H 0.4107 0.7158 -0.4417
C20A C 0.2198(5) 0.6051(5) -0.5424(5)
H19A H 0.1797 0.6490 -0.5029
H20A H 0.2031 0.6221 -0.6110
C21A C 0.1485(5) 0.4825(5) -0.5770(5)
H21A H 0.1055 0.4487 -0.6595
H22A H 0.0773 0.4761 -0.5537
C22A C 0.4378(5) 0.3199(4) -0.3648(4)
H23A H 0.3860 0.2816 -0.4467
H24A H 0.5295 0.3127 -0.3410
N1A N 0.8668(4) 0.8185(4) 0.2421(3)
N2A N 0.6505(4) 0.8519(3) 0.2240(3)
N3A N 0.7944(4) 0.8440(3) 0.0601(3)
N4A N 0.5988(4) 0.9078(3) 0.0586(3)
N5A N 0.6864(4) 0.7741(4) -0.1293(3)
N6A N 0.4899(4) 0.8342(4) -0.1300(3)
N7A N 0.5500(4) 0.6098(4) -0.2986(3)
N8A N 0.3543(4) 0.6600(3) -0.2860(3)
N9A N 0.4450(4) 0.4348(3) -0.3415(3)
N10A N 0.2469(4) 0.4842(3) -0.3354(3)
N11A N 0.1775(4) 0.3148(3) -0.3057(3)
N12A N 0.6238(4) 0.7340(4) 0.3094(3)
O1A O 0.9351(4) 0.6631(3) 0.1977(3)
O2A O 0.4318(3) 0.7638(3) 0.1818(3)
O3A O 0.1411(4) 0.6601(4) 0.1380(4)
O4A O 0.8595(4) 0.7062(3) -0.0289(3)
O5A O 0.2683(4) 0.5198(3) 0.0055(3)
O6A O 0.3644(3) 0.8425(3) -0.0315(3)
O7A O -0.0283(4) 0.5545(3) -0.1302(3)
O8A O 0.6786(3) 0.4970(3) -0.2335(3)
O9A O 0.2053(5) 0.8828(4) 0.1164(4)
O10A O 0.2086(3) 0.6158(3) -0.2130(3)
O11A O 0.0314(4) 0.7826(4) -0.1523(4)
Sr1A Sr 0.20015(5) 0.70068(4) -0.01726(4)
O12 O 0.6763(7) 0.1895(5) -0.3642(6)
O13 O 0.7761(14) 0.0963(8) 0.4834(9)
O14 O 0.2103(8) 0.0636(6) 0.4142(6)
O15 O 0.4898(13) 0.4004(12) 0.0244(12)
Cl1 Cl 0.0000 0.0000 0.0000
Cl2 Cl 1.04938(15) 0.84259(13) 0.63759(12)
Cl3 Cl 0.4392(3) 0.0487(2) 0.3499(2)
loop_
_geom_bond_atom_site_label_1
_geom_bond_atom_site_label_2
_geom_bond_site_symmetry_1
_geom_bond_site_symmetry_2
C1 N1 1_555 1_555
C2 H1 1_555 1_555
H2 C2 1_555 1_555
C3 N3 1_555 1_555
C4 H3 1_555 1_555
H4 C4 1_555 1_555
C5 N7 1_555 1_555
C6 H5 1_555 1_555
C7 H6 1_555 1_555
H7 C7 1_555 1_555
C8 N8 1_555 1_555
C9 H8 1_555 1_555
H9 C9 1_555 1_555
C10 N4 1_555 1_555
C11 H10 1_555 1_555
H11 C11 1_555 1_555
C12 N2 1_555 1_555
C13 H12 1_555 1_555
C14 H13 1_555 1_555
C15 C14 1_555 1_555
H14 C15 1_555 1_555
C16 C17 1_555 1_555
C17 C18 1_555 1_555
C18 H15 1_555 1_555
H16 C18 1_555 1_555
C19 C16 1_555 1_555
H17 C19 1_555 1_555
H18 C19 1_555 1_555
C20 C19 1_555 1_555
H19 C20 1_555 1_555
H20 C20 1_555 1_555
C21 C18 1_555 1_555
H21 C21 1_555 1_555
H22 C21 1_555 1_555
C22 H23 1_555 1_555
H24 C22 1_555 1_555
N1 C2 1_555 1_555
N2 C11 1_555 1_555
N3 C2 1_555 1_555
N4 C11 1_555 1_555
N5 C3 1_555 1_555
N6 C9 1_555 1_555
N7 C4 1_555 1_555
N8 C9 1_555 1_555
N9 C5 1_555 1_555
N10 C7 1_555 1_555
N11 C6 1_555 1_555
N12 C12 1_555 1_555
O1 C1 1_555 1_555
O2 C12 1_555 1_555
O3 Sr1 1_555 1_555
O4 C3 1_555 1_555
O5 Sr1 1_555 1_555
O6 C10 1_555 1_555
O7 Sr1 1_555 1_555
O8 C5 1_555 1_555
O9 Sr1 1_555 1_555
O10 C8 1_555 1_555
O11 Sr1 1_555 1_555
Sr1 O2 1_555 1_555
C1A N11 1_555 1_555
C2A H1A 1_555 1_555
H2A C2A 1_555 1_555
C3A N3A 1_555 1_555
C4A H3A 1_555 1_555
H4A C4A 1_555 1_555
C5A N7A 1_555 1_555
C6A C13 1_555 1_555
H5A C6A 1_555 1_555
C7A H6A 1_555 1_555
H7A C7A 1_555 1_555
C8A N8A 1_555 1_555
C9A H8A 1_555 1_555
H9A C9A 1_555 1_555
C10A N4A 1_555 1_555
C11A H10A 1_555 1_555
H11A C11A 1_555 1_555
C12A N2A 1_555 1_555
C13A C6 1_555 1_555
H12A C13A 1_555 1_555
C14A H13A 1_555 1_555
C15A C14A 1_555 1_555
H14A C15A 1_555 1_555
C16A C17A 1_555 1_555
C17A C18A 1_555 1_555
C18A H15A 1_555 1_555
H16A C18A 1_555 1_555
C19A C16A 1_555 1_555
H17A C19A 1_555 1_555
H18A C19A 1_555 1_555
C20A C19A 1_555 1_555
H19A C20A 1_555 1_555
H20A C20A 1_555 1_555
C21A C18A 1_555 1_555
H21A C21A 1_555 1_555
H22A C21A 1_555 1_555
C22A N12 1_555 1_555
H23A C22A 1_555 1_555
H24A C22A 1_555 1_555
N1A C1A 1_555 1_555
N2A C11A 1_555 1_555
N3A C2A 1_555 1_555
N4A C11A 1_555 1_555
N5A C3A 1_555 1_555
N6A C9A 1_555 1_555
N7A C4A 1_555 1_555
N8A C9A 1_555 1_555
N9A C5A 1_555 1_555
N10A C7A 1_555 1_555
N11A C1 1_555 1_555
N12A C6 1_555 1_555
O1A C1A 1_555 1_555
O2A C12A 1_555 1_555
O3A Sr1A 1_555 1_555
O4A C3A 1_555 1_555
O5A Sr1A 1_555 1_555
O6A C10A 1_555 1_555
O7A Sr1A 1_555 1_555
O8A C5A 1_555 1_555
O9A Sr1A 1_555 1_555
O10A C8A 1_555 1_555
O11A Sr1A 1_555 1_555
Sr1A O2A 1_555 1_555
C4 N5 1_555 1_555
C7 N11 1_555 1_555
C8 N10 1_555 1_555
C10 N6 1_555 1_555
C13 N1 1_555 1_555
C13 N2 1_555 1_555
C14 N3 1_555 1_555
C14 N4 1_555 1_555
C15 N5 1_555 1_555
C15 N6 1_555 1_555
C16 N7 1_555 1_555
C16 N8 1_555 1_555
C17 N9 1_555 1_555
C17 N10 1_555 1_555
C20 C21 1_555 1_555
C22 N9 1_555 1_555
C22 N12A 1_555 1_555
N12 C6A 1_555 1_555
O6 Sr1 1_555 1_555
O10 Sr1 1_555 1_555
C2A N1A 1_555 1_555
C4A N5A 1_555 1_555
C6A N11A 1_555 1_555
C7A N11A 1_555 1_555
C8A N10A 1_555 1_555
C10A N6A 1_555 1_555
C12A N12A 1_555 1_555
C13A N1A 1_555 1_555
C13A N2A 1_555 1_555
C14A N3A 1_555 1_555
C14A N4A 1_555 1_555
C15A N5A 1_555 1_555
C15A N6A 1_555 1_555
C16A N7A 1_555 1_555
C16A N8A 1_555 1_555
C17A N9A 1_555 1_555
C17A N10A 1_555 1_555
C20A C21A 1_555 1_555
C22A N9A 1_555 1_555
O6A Sr1A 1_555 1_555
O10A Sr1A 1_555 1_555

#END
