
#######################################################################
#
#                 Cambridge Crystallographic Data Centre
#                                CCDC 
#
#######################################################################
#
# If this CIF has been generated from an entry in the Cambridge 
# Structural Database, then it will include bibliographic, chemical, 
# crystal, experimental, refinement or atomic coordinate data resulting 
# from the CCDC's data processing and validation procedures.
#
#######################################################################

data_IVOSOD
_chemical_formula_moiety         'C14 H9 N1 O4 S1'
_chemical_name_systematic        
'2-benzoyl-1,2-benzothiazol-3(2H)-one 1,1-dioxide'
_symmetry_cell_setting           orthorhombic
_symmetry_space_group_name_H-M   'P 21 21 21'
_symmetry_Int_Tables_number      19
_space_group_name_Hall           'P 2ac 2ab'
loop_
_symmetry_equiv_pos_site_id
_symmetry_equiv_pos_as_xyz
1 x,y,z
2 1/2-x,-y,1/2+z
3 -x,1/2+y,1/2-z
4 1/2+x,1/2-y,-z
_cell_length_a                   10.0936(6)
_cell_length_b                   10.3894(6)
_cell_length_c                   12.0481(7)
_cell_angle_alpha                90
_cell_angle_beta                 90
_cell_angle_gamma                90
_cell_volume                     1263.44
_exptl_crystal_colour            colorless
_exptl_crystal_description       block
_cell_formula_units_Z            4
loop_
_atom_site_label
_atom_site_type_symbol
_atom_site_fract_x
_atom_site_fract_y
_atom_site_fract_z
S1 S 0.18781(5) 0.55476(4) 0.56422(4)
O1 O -0.00163(15) 0.74411(15) 0.48805(13)
O2 O 0.31876(15) 0.67603(14) 0.28879(12)
O3 O 0.06941(14) 0.48089(13) 0.55433(13)
O4 O 0.21185(14) 0.62443(14) 0.66417(12)
N1 N 0.20183(17) 0.65959(15) 0.45462(14)
C1 C 0.3018(2) 0.62362(19) 0.37612(17)
C2 C 0.3724(2) 0.50986(19) 0.41974(18)
C3 C 0.3251(2) 0.46505(19) 0.52003(16)
C4 C 0.3794(2) 0.35905(19) 0.57369(19)
H1 H 0.3455 0.3289 0.6425
C5 C 0.4854(2) 0.2996(2) 0.52185(19)
H2 H 0.5265 0.2277 0.5565
C6 C 0.5331(2) 0.3428(2) 0.42029(19)
H3 H 0.6052 0.2992 0.3864
C7 C 0.4774(2) 0.4482(2) 0.36758(18)
H4 H 0.5100 0.4773 0.2980
C8 C 0.10281(19) 0.7554(2) 0.44013(18)
C9 C 0.1359(2) 0.86614(19) 0.36697(18)
C10 C 0.0474(2) 0.8978(2) 0.28290(18)
H5 H -0.0309 0.8485 0.2723
C11 C 0.0746(2) 1.0020(2) 0.21473(19)
H6 H 0.0174 1.0211 0.1543
C12 C 0.1850(2) 1.0784(2) 0.23414(18)
H7 H 0.2021 1.1507 0.1881
C13 C 0.2704(2) 1.0490(2) 0.32107(18)
H8 H 0.3439 1.1034 0.3363
C14 C 0.2486(2) 0.9404(2) 0.38571(18)
H9 H 0.3099 0.9171 0.4421
loop_
_geom_bond_atom_site_label_1
_geom_bond_atom_site_label_2
_geom_bond_site_symmetry_1
_geom_bond_site_symmetry_2
S1 O3 1_555 1_555
O1 C8 1_555 1_555
O2 C1 1_555 1_555
O4 S1 1_555 1_555
N1 S1 1_555 1_555
C1 N1 1_555 1_555
C2 C1 1_555 1_555
C3 S1 1_555 1_555
C4 C3 1_555 1_555
H1 C4 1_555 1_555
C5 C4 1_555 1_555
H2 C5 1_555 1_555
C6 C5 1_555 1_555
H3 C6 1_555 1_555
C7 C2 1_555 1_555
H4 C7 1_555 1_555
C8 N1 1_555 1_555
C9 C8 1_555 1_555
C10 C9 1_555 1_555
H5 C10 1_555 1_555
C11 C10 1_555 1_555
H6 C11 1_555 1_555
C12 C11 1_555 1_555
H7 C12 1_555 1_555
C13 C12 1_555 1_555
H8 C13 1_555 1_555
C14 C9 1_555 1_555
H9 C14 1_555 1_555
C2 C3 1_555 1_555
C6 C7 1_555 1_555
C13 C14 1_555 1_555

#END
