
#######################################################################
#
#                 Cambridge Crystallographic Data Centre
#                                CCDC 
#
#######################################################################
#
# If this CIF has been generated from an entry in the Cambridge 
# Structural Database, then it will include bibliographic, chemical, 
# crystal, experimental, refinement or atomic coordinate data resulting 
# from the CCDC's data processing and validation procedures.
#
#######################################################################

data_IVOTOE
_chemical_name_common            
'1-(cyclohexylamino)-2-(tosylmethyl)imidazo[5,1-a]isoquinolin-2-ium chloride trihydrate'
_chemical_formula_moiety         'C25 H28 N3 O2 S1 1+,3(H2 O1),Cl1 1-'
_chemical_name_systematic        
'1-(cyclohexylamino)-2-(((4-methylphenyl)sulfonyl)methyl)imidazo[5,1-a]isoquinolin-2-ium chloride trihydrate'
_symmetry_cell_setting           monoclinic
_symmetry_space_group_name_H-M   'P 21/n'
_symmetry_Int_Tables_number      14
_space_group_name_Hall           '-P 2yn'
loop_
_symmetry_equiv_pos_site_id
_symmetry_equiv_pos_as_xyz
1 x,y,z
2 1/2-x,1/2+y,1/2-z
3 -x,-y,-z
4 1/2+x,1/2-y,1/2+z
_cell_length_a                   21.318(8)
_cell_length_b                   5.901(2)
_cell_length_c                   21.320(8)
_cell_angle_alpha                90
_cell_angle_beta                 100.253(11)
_cell_angle_gamma                90
_cell_volume                     2639.18
_exptl_crystal_colour            colorless
_exptl_crystal_description       needle
_cell_formula_units_Z            4
loop_
_atom_site_label
_atom_site_type_symbol
_atom_site_fract_x
_atom_site_fract_y
_atom_site_fract_z
N1 N 0.6111(3) 0.1986(9) 0.4436(2)
C1 C 0.6424(3) 0.3859(11) 0.4229(3)
C2 C 0.7108(3) 0.4089(11) 0.4456(3)
C3 C 0.7472(3) 0.5937(11) 0.4304(3)
H1 H 0.7275 0.7095 0.4027
C4 C 0.8124(3) 0.6072(13) 0.4558(3)
H2 H 0.8364 0.7332 0.4453
C5 C 0.8430(4) 0.4383(13) 0.4964(3)
H3 H 0.8872 0.4501 0.5135
C6 C 0.8082(4) 0.2543(13) 0.5112(3)
H4 H 0.8291 0.1382 0.5379
C7 C 0.7423(4) 0.2351(11) 0.4876(3)
C8 C 0.7040(4) 0.0490(12) 0.5041(3)
H5 H 0.7249 -0.0662 0.5313
C9 C 0.6416(4) 0.0291(11) 0.4839(3)
H6 H 0.6185 -0.0957 0.4963
C10 C 0.5493(4) 0.2145(11) 0.4212(3)
H7 H 0.5175 0.1125 0.4299
N2 N 0.5391(3) 0.4011(9) 0.3837(2)
C11 C 0.5975(3) 0.5096(11) 0.3835(3)
C12 C 0.4761(3) 0.4733(12) 0.3523(3)
H8 H 0.4521 0.3427 0.3308
H9 H 0.4798 0.5897 0.3197
S1 S 0.43461(9) 0.5892(3) 0.41225(7)
O1 O 0.4299(2) 0.4089(7) 0.45766(19)
O2 O 0.4664(2) 0.7991(7) 0.43566(19)
C13 C 0.3572(3) 0.6553(11) 0.3726(3)
C14 C 0.3074(3) 0.5060(12) 0.3773(3)
H10 H 0.3161 0.3637 0.3978
C15 C 0.2458(4) 0.5657(12) 0.3520(3)
H11 H 0.2122 0.463 0.3551
C16 C 0.2315(3) 0.7762(13) 0.3216(3)
C17 C 0.2834(4) 0.9207(12) 0.3169(3)
H12 H 0.2752 1.0628 0.2961
C18 C 0.3449(3) 0.8625(11) 0.3412(3)
H13 H 0.379 0.9618 0.3369
C19 C 0.1643(4) 0.8473(13) 0.2960(3)
H14 H 0.1462 0.9217 0.3298
H15 H 0.1388 0.7135 0.2809
H16 H 0.1641 0.953 0.2605
N3 N 0.6059(2) 0.7003(9) 0.3466(2)
H17 H 0.5665(15) 0.763(10) 0.343(3)
C20 C 0.6369(3) 0.6481(10) 0.2909(3)
H18 H 0.6763 0.558 0.3065
C21 C 0.5943(3) 0.5092(11) 0.2390(3)
H19 H 0.5824 0.3646 0.2574
H20 H 0.5546 0.5944 0.2231
C22 C 0.6290(3) 0.4602(11) 0.1839(3)
H21 H 0.6007 0.373 0.1506
H22 H 0.6672 0.3668 0.1993
C23 C 0.6491(3) 0.6805(12) 0.1552(3)
H23 H 0.6107 0.7675 0.1361
H24 H 0.6735 0.6449 0.121
C24 C 0.6905(3) 0.8243(11) 0.2068(3)
H25 H 0.731 0.7435 0.2224
H26 H 0.701 0.9698 0.188
C25 C 0.6570(3) 0.8721(11) 0.2628(3)
H27 H 0.6188 0.9668 0.2483
H28 H 0.6859 0.957 0.2961
Cl1 Cl 0.48013(9) 0.9863(3) 0.26614(8)
O3 O 0.4175(4) 0.7376(16) 0.1359(3)
O4 O 0.4661(4) 0.2539(18) 0.1280(3)
O6 O 0.5208(4) 0.250(2) 0.0169(5)
O5? O 0.4970(12) 0.077(6) 0.1027(15)
O7? O 0.4598(10) 0.504(4) 0.0670(10)
loop_
_geom_bond_atom_site_label_1
_geom_bond_atom_site_label_2
_geom_bond_site_symmetry_1
_geom_bond_site_symmetry_2
N1 C1 1_555 1_555
C1 C2 1_555 1_555
C2 C3 1_555 1_555
C3 H1 1_555 1_555
C4 C3 1_555 1_555
H2 C4 1_555 1_555
C5 C4 1_555 1_555
H3 C5 1_555 1_555
C6 C5 1_555 1_555
H4 C6 1_555 1_555
C7 C2 1_555 1_555
C8 C7 1_555 1_555
H5 C8 1_555 1_555
C9 N1 1_555 1_555
H6 C9 1_555 1_555
C10 N1 1_555 1_555
H7 C10 1_555 1_555
N2 C10 1_555 1_555
C11 C1 1_555 1_555
C12 N2 1_555 1_555
H8 C12 1_555 1_555
H9 C12 1_555 1_555
S1 C12 1_555 1_555
O1 S1 1_555 1_555
O2 S1 1_555 1_555
C13 S1 1_555 1_555
C14 C13 1_555 1_555
H10 C14 1_555 1_555
C15 C14 1_555 1_555
H11 C15 1_555 1_555
C16 C15 1_555 1_555
C17 C16 1_555 1_555
H12 C17 1_555 1_555
C18 C13 1_555 1_555
H13 C18 1_555 1_555
C19 C16 1_555 1_555
H14 C19 1_555 1_555
H15 C19 1_555 1_555
H16 C19 1_555 1_555
N3 C11 1_555 1_555
H17 N3 1_555 1_555
C20 N3 1_555 1_555
H18 C20 1_555 1_555
C21 C20 1_555 1_555
H19 C21 1_555 1_555
H20 C21 1_555 1_555
C22 C21 1_555 1_555
H21 C22 1_555 1_555
H22 C22 1_555 1_555
C23 C22 1_555 1_555
H23 C23 1_555 1_555
H24 C23 1_555 1_555
C24 C23 1_555 1_555
H25 C24 1_555 1_555
H26 C24 1_555 1_555
C25 C20 1_555 1_555
H27 C25 1_555 1_555
H28 C25 1_555 1_555
C6 C7 1_555 1_555
C8 C9 1_555 1_555
N2 C11 1_555 1_555
C17 C18 1_555 1_555
C24 C25 1_555 1_555

#END
