
#######################################################################
#
#                 Cambridge Crystallographic Data Centre
#                                CCDC 
#
#######################################################################
#
# If this CIF has been generated from an entry in the Cambridge 
# Structural Database, then it will include bibliographic, chemical, 
# crystal, experimental, refinement or atomic coordinate data resulting 
# from the CCDC's data processing and validation procedures.
#
#######################################################################

data_IVUHEN
_chemical_formula_moiety         'C13 H10 I2'
_chemical_name_systematic        2,3-Diiodo-5-methylbiphenyl
_symmetry_cell_setting           monoclinic
_symmetry_space_group_name_H-M   'P 21'
_symmetry_Int_Tables_number      4
_space_group_name_Hall           'P 2yb'
loop_
_symmetry_equiv_pos_site_id
_symmetry_equiv_pos_as_xyz
1 x,y,z
2 -x,1/2+y,-z
_cell_length_a                   8.218(6)
_cell_length_b                   7.383(5)
_cell_length_c                   11.103(8)
_cell_angle_alpha                90
_cell_angle_beta                 100.577(6)
_cell_angle_gamma                90
_cell_volume                     662.212
_exptl_crystal_colour            colorless
_exptl_crystal_description       block
_cell_formula_units_Z            2
loop_
_atom_site_label
_atom_site_type_symbol
_atom_site_fract_x
_atom_site_fract_y
_atom_site_fract_z
C1 C 0.5945(9) 0.8458(11) 0.7388(6)
C2 C 0.5120(9) 0.9893(11) 0.6751(6)
C3 C 0.5674(10) 1.0668(10) 0.5773(6)
H1 H 0.5069 1.1596 0.5334
C4 C 0.7153(9) 1.0063(12) 0.5435(7)
C5 C 0.7940(10) 0.8577(11) 0.6083(6)
H2 H 0.8900 0.8128 0.5861
C6 C 0.7347(9) 0.7744(10) 0.7043(6)
C7 C 0.8313(9) 0.6140(12) 0.7657(6)
C8 C 0.9922(10) 0.6345(12) 0.8257(7)
H3 H 1.0427 0.7476 0.8296
C9 C 1.0781(11) 0.4865(16) 0.8799(8)
H4 H 1.1881 0.4998 0.9181
C10 C 1.0050(12) 0.3219(15) 0.8784(8)
H5 H 1.0630 0.2244 0.9184
C11 C 0.8467(13) 0.2994(12) 0.8185(10)
H6 H 0.7980 0.1853 0.8147
C12 C 0.7574(13) 0.4459(13) 0.7631(9)
H7 H 0.6479 0.4309 0.7242
C13 C 0.7865(13) 1.0953(17) 0.4449(9)
H8 H 0.8644 1.0151 0.4179
H9 H 0.8416 1.2050 0.4758
H10 H 0.6993 1.1233 0.3773
I1 I 0.52225(7) 0.74404(9) 0.89930(4)
I2 I 0.29953(8) 1.10976(9) 0.72214(6)
loop_
_geom_bond_atom_site_label_1
_geom_bond_atom_site_label_2
_geom_bond_site_symmetry_1
_geom_bond_site_symmetry_2
C1 C2 1_555 1_555
C2 C3 1_555 1_555
C3 H1 1_555 1_555
C4 C3 1_555 1_555
C5 C4 1_555 1_555
H2 C5 1_555 1_555
C6 C1 1_555 1_555
C7 C6 1_555 1_555
C8 C7 1_555 1_555
H3 C8 1_555 1_555
C9 C8 1_555 1_555
H4 C9 1_555 1_555
C10 C9 1_555 1_555
H5 C10 1_555 1_555
C11 C10 1_555 1_555
H6 C11 1_555 1_555
C12 C7 1_555 1_555
H7 C12 1_555 1_555
C13 C4 1_555 1_555
H8 C13 1_555 1_555
H9 C13 1_555 1_555
H10 C13 1_555 1_555
I1 C1 1_555 1_555
I2 C2 1_555 1_555
C5 C6 1_555 1_555
C11 C12 1_555 1_555

#END
