
#######################################################################
#
#                 Cambridge Crystallographic Data Centre
#                                CCDC 
#
#######################################################################
#
# If this CIF has been generated from an entry in the Cambridge 
# Structural Database, then it will include bibliographic, chemical, 
# crystal, experimental, refinement or atomic coordinate data resulting 
# from the CCDC's data processing and validation procedures.
#
#######################################################################

data_IVUJEP
_chemical_formula_moiety         'C13 H10 N4'
_chemical_name_systematic        2-(4-Phenyl-2H-1,2,3-triazol-2-yl)pyridine
_symmetry_cell_setting           monoclinic
_symmetry_space_group_name_H-M   'P 21/c'
_symmetry_Int_Tables_number      14
_space_group_name_Hall           '-P 2ybc'
loop_
_symmetry_equiv_pos_site_id
_symmetry_equiv_pos_as_xyz
1 x,y,z
2 -x,1/2+y,1/2-z
3 -x,-y,-z
4 x,1/2-y,1/2+z
_cell_length_a                   11.7655(10)
_cell_length_b                   13.7278(12)
_cell_length_c                   14.7205(13)
_cell_angle_alpha                90
_cell_angle_beta                 106.323(2)
_cell_angle_gamma                90
_cell_volume                     2281.74
_exptl_crystal_colour            colorless
_exptl_crystal_description       irregular
_cell_formula_units_Z            8
loop_
_atom_site_label
_atom_site_type_symbol
_atom_site_fract_x
_atom_site_fract_y
_atom_site_fract_z
N1 N 0.47939(8) 0.61860(7) 0.06665(6)
N2 N 0.55095(8) 0.68279(7) 0.04184(6)
N3 N 0.66718(9) 0.66555(8) 0.07772(7)
N4 N 0.58305(10) 0.82809(9) -0.02838(9)
C1 C 0.66936(11) 0.58528(10) 0.12828(8)
H1 H 0.7377 0.5536 0.1628
C2 C 0.55337(10) 0.55524(9) 0.12201(7)
C3 C 0.51091(10) 0.47159(9) 0.16538(7)
C4 C 0.39135(11) 0.44676(9) 0.13839(8)
H2 H 0.3382 0.4828 0.0918
C5 C 0.35122(13) 0.36905(10) 0.18029(9)
H3 H 0.2710 0.3536 0.1624
C6 C 0.42952(15) 0.31416(11) 0.24854(10)
H4 H 0.4024 0.2612 0.2759
C7 C 0.54737(14) 0.33793(11) 0.27578(10)
H5 H 0.5999 0.3012 0.3221
C8 C 0.58898(12) 0.41620(11) 0.23485(9)
H6 H 0.6691 0.4317 0.2538
C9 C 0.50461(11) 0.76424(9) -0.01696(7)
C10 C 0.38344(12) 0.77173(11) -0.05646(9)
H7 H 0.3321 0.7241 -0.0464
C11 C 0.34190(14) 0.85248(13) -0.11119(11)
H8 H 0.2610 0.8610 -0.1384
C12 C 0.42108(15) 0.92028(12) -0.12512(11)
H9 H 0.3950 0.9752 -0.1621
C13 C 0.53963(15) 0.90517(12) -0.08321(12)
H10 H 0.5929 0.9510 -0.0934
N5 N 0.96718(8) 0.11821(8) 0.07142(7)
N6 N 1.04487(8) 0.05614(7) 0.12639(6)
N7 N 1.15923(9) 0.07582(8) 0.13520(7)
N8 N 1.08787(10) -0.07175(9) 0.23441(7)
C14 C 1.15346(11) 0.15522(10) 0.08315(9)
H11 H 1.2186 0.1882 0.0743
C15 C 1.03496(10) 0.18256(9) 0.04317(8)
C16 C 0.98497(11) 0.26451(9) -0.01910(8)
C17 C 0.86433(12) 0.26982(11) -0.06362(10)
H12 H 0.8145 0.2207 -0.0541
C18 C 0.81764(15) 0.34741(13) -0.12192(13)
H13 H 0.7366 0.3506 -0.1509
C19 C 0.89066(16) 0.42001(13) -0.13719(12)
H14 H 0.8591 0.4722 -0.1765
C20 C 1.01011(16) 0.41520(12) -0.09434(11)
H15 H 1.0596 0.4641 -0.1049
C21 C 1.05717(13) 0.33814(11) -0.03556(10)
H16 H 1.1383 0.3356 -0.0067
C22 C 1.00644(10) -0.02825(9) 0.16607(8)
C23 C 0.89020(11) -0.05856(9) 0.13064(8)
H17 H 0.8363 -0.0236 0.0836
C24 C 0.85762(14) -0.14237(11) 0.16771(10)
H18 H 0.7807 -0.1660 0.1455
C25 C 0.94022(15) -0.19094(12) 0.23811(10)
H19 H 0.9204 -0.2481 0.2639
C26 C 1.05212(15) -0.15315(12) 0.26928(10)
H20 H 1.1069 -0.1858 0.3176
loop_
_geom_bond_atom_site_label_1
_geom_bond_atom_site_label_2
_geom_bond_site_symmetry_1
_geom_bond_site_symmetry_2
N1 N2 1_555 1_555
N2 N3 1_555 1_555
N3 C1 1_555 1_555
N4 C9 1_555 1_555
N5 N6 1_555 1_555
N6 N7 1_555 1_555
N7 C14 1_555 1_555
N8 C22 1_555 1_555
C1 H1 1_555 1_555
C2 N1 1_555 1_555
C3 C2 1_555 1_555
C4 C3 1_555 1_555
H2 C4 1_555 1_555
C5 C4 1_555 1_555
H3 C5 1_555 1_555
C6 C5 1_555 1_555
H4 C6 1_555 1_555
C7 C6 1_555 1_555
H5 C7 1_555 1_555
C8 C3 1_555 1_555
H6 C8 1_555 1_555
C9 N2 1_555 1_555
C10 C9 1_555 1_555
H7 C10 1_555 1_555
C11 C10 1_555 1_555
H8 C11 1_555 1_555
C12 C11 1_555 1_555
H9 C12 1_555 1_555
C13 N4 1_555 1_555
H10 C13 1_555 1_555
C14 H11 1_555 1_555
C15 N5 1_555 1_555
C16 C15 1_555 1_555
C17 C16 1_555 1_555
H12 C17 1_555 1_555
C18 C17 1_555 1_555
H13 C18 1_555 1_555
C19 C18 1_555 1_555
H14 C19 1_555 1_555
C20 C19 1_555 1_555
H15 C20 1_555 1_555
C21 C16 1_555 1_555
H16 C21 1_555 1_555
C22 N6 1_555 1_555
C23 C22 1_555 1_555
H17 C23 1_555 1_555
C24 C23 1_555 1_555
H18 C24 1_555 1_555
C25 C24 1_555 1_555
H19 C25 1_555 1_555
C26 N8 1_555 1_555
H20 C26 1_555 1_555
C1 C2 1_555 1_555
C7 C8 1_555 1_555
C12 C13 1_555 1_555
C14 C15 1_555 1_555
C20 C21 1_555 1_555
C25 C26 1_555 1_555

#END
