
#######################################################################
#
#                 Cambridge Crystallographic Data Centre
#                                CCDC 
#
#######################################################################
#
# If this CIF has been generated from an entry in the Cambridge 
# Structural Database, then it will include bibliographic, chemical, 
# crystal, experimental, refinement or atomic coordinate data resulting 
# from the CCDC's data processing and validation procedures.
#
#######################################################################

data_IVULIU
_chemical_formula_moiety         'C35 H49 N3 O5 Si2,0.5(H2 O1)'
_chemical_name_systematic        
"exo-1'-Benzyl-5-((t-butyl(dimethyl)silyl)oxy)-6-(((t-butyl(dimethyl)silyl)oxy)methyl)-2-phenyltetrahydro-1H,5'H-spiro(cyclopenta(c)pyrrole-4,4'-(2'-imidazoline))-1,3,5'(2H)-trione hemihydrate"
_symmetry_cell_setting           monoclinic
_symmetry_space_group_name_H-M   'P 21/n'
_symmetry_Int_Tables_number      14
_space_group_name_Hall           '-P 2yn'
loop_
_symmetry_equiv_pos_site_id
_symmetry_equiv_pos_as_xyz
1 x,y,z
2 1/2+x,1/2-y,1/2+z
3 -x,-y,-z
4 1/2-x,1/2+y,1/2-z
_cell_length_a                   14.007(3)
_cell_length_b                   18.438(4)
_cell_length_c                   29.115(6)
_cell_angle_alpha                90.00
_cell_angle_beta                 95.24(3)
_cell_angle_gamma                90.00
_cell_volume                     7487.85
_cell_formula_units_Z            8
loop_
_atom_site_label
_atom_site_type_symbol
_atom_site_fract_x
_atom_site_fract_y
_atom_site_fract_z
Si1 Si 0.09568(14) 0.81556(10) 0.02985(7)
Si2 Si 0.0733(4) 0.8721(4) -0.1468(3)
O1 O 0.1912(3) 0.6758(3) -0.1794(2)
O2 O -0.0129(3) 0.5518(3) -0.09658(15)
O3 O 0.1637(3) 0.7616(2) 0.00153(14)
O4 O 0.1266(3) 0.8016(2) -0.1221(2)
O5 O 0.2978(3) 0.6132(2) 0.00943(14)
N1 N 0.0675(3) 0.6238(3) -0.1444(2)
N2 N 0.1646(3) 0.5842(2) 0.0457(2)
N3 N 0.0443(3) 0.6180(2) -0.0059(2)
C1 C 0.1591(4) 0.6531(3) -0.1455(2)
C2 C 0.0567(5) 0.5873(3) -0.1028(2)
C3 C 0.1328(4) 0.6366(3) -0.0251(2)
C4 C 0.1400(4) 0.7175(3) -0.0375(2)
H2 H 0.0808(4) 0.7334(3) -0.0535(2)
C5 C 0.2190(4) 0.7208(3) -0.0704(2)
H3 H 0.2783(4) 0.7195(3) -0.0511(2)
C6 C 0.1467(4) 0.5981(3) -0.0709(2)
H4 H 0.1773(4) 0.5520(3) -0.0648(2)
C7 C 0.2105(4) 0.6483(3) -0.0980(2)
H5 H 0.2725(4) 0.6269(3) -0.0997(2)
C8 C -0.0048(5) 0.6234(3) -0.1824(2)
C9 C 0.0135(6) 0.5926(4) -0.2237(2)
H6 H 0.0753(6) 0.5718(4) -0.2271(2)
C10 C -0.0583(7) 0.5932(5) -0.2604(3)
H7 H -0.0487(7) 0.5700(5) -0.2892(3)
C11 C -0.1454(7) 0.6258(5) -0.2542(3)
H8 H -0.1948(7) 0.6284(5) -0.2793(3)
C12 C -0.1615(6) 0.6552(5) -0.2141(3)
H9 H -0.2226(6) 0.6769(5) -0.2105(3)
C13 C -0.0911(5) 0.6548(4) -0.1772(2)
H10 H -0.1026(5) 0.6765(4) -0.1483(2)
C14 C 0.2119(4) 0.6125(3) 0.0108(2)
C15 C 0.0675(4) 0.5881(3) 0.0326(2)
H11 H 0.0209(4) 0.5688(3) 0.0515(2)
C16 C 0.2108(4) 0.5428(3) 0.0847(2)
H12 H 0.2740(4) 0.5296(3) 0.0775(2)
H13 H 0.1751(4) 0.4990(3) 0.0882(2)
C17 C 0.2191(5) 0.5832(3) 0.1293(2)
C18 C 0.1655(6) 0.5644(5) 0.1644(3)
H14 H 0.1219(6) 0.5243(5) 0.1598(3)
C19 C 0.1739(8) 0.5992(7) 0.2062(3)
H15 H 0.1335(8) 0.5862(7) 0.2298(3)
C20 C 0.2360(10) 0.6534(8) 0.2137(4)
H16 H 0.2400(10) 0.6794(8) 0.2424(4)
C21 C 0.2946(10) 0.6739(7) 0.1796(4)
H17 H 0.3436(10) 0.7100(7) 0.1856(4)
C22 C 0.2825(7) 0.6380(5) 0.1377(3)
H18 H 0.3196(7) 0.6528(5) 0.1132(3)
C23 C 0.0022(6) 0.8570(4) -0.0093(3)
H19 H 0.0313(6) 0.8843(4) -0.0324(3)
H20 H -0.0375(6) 0.8196(4) -0.0238(3)
H21 H -0.0363(6) 0.8888(4) 0.0075(3)
C24 C 0.0391(6) 0.7641(4) 0.0745(3)
H22 H -0.0048(6) 0.7293(4) 0.0599(3)
H23 H 0.0880(6) 0.7394(4) 0.0937(3)
H24 H 0.0050(6) 0.7965(4) 0.0930(3)
C25 C 0.1819(6) 0.8840(4) 0.0574(3)
C26 C 0.2555(8) 0.8466(6) 0.0929(4)
H25 H 0.2995(8) 0.8821(6) 0.1066(4)
H26 H 0.2233(8) 0.8232(6) 0.1166(4)
H27 H 0.2901(8) 0.8111(6) 0.0769(4)
C27 C 0.1243(9) 0.9412(5) 0.0839(4)
H28 H 0.1679(9) 0.9767(5) 0.0979(4)
H29 H 0.0769(9) 0.9648(5) 0.0632(4)
H30 H 0.0934(9) 0.9164(5) 0.1075(4)
C28 C 0.2332(8) 0.9230(6) 0.0206(4)
H31 H 0.2773(8) 0.9582(6) 0.0346(4)
H32 H 0.2676(8) 0.8878(6) 0.0043(4)
H33 H 0.1867(8) 0.9469(6) -0.0005(4)
C29 C 0.2175(5) 0.7906(3) -0.0984(2)
H34 H 0.2333(5) 0.8312(3) -0.0785(2)
H35 H 0.2649(5) 0.7875(3) -0.1202(2)
C30 C -0.0621(7) 0.8670(6) -0.1442(4)
C31 C 0.1300(20) 0.9563(10) -0.1166(9)
H36 H 0.1149(20) 0.9550(10) -0.0851(9)
H37 H 0.1981(20) 0.9601(10) -0.1175(9)
H38 H 0.0994(20) 0.9975(10) -0.1319(9)
C32 C 0.1017(12) 0.8740(8) -0.2088(5)
C33 C 0.2179(24) 0.8614(27) -0.2109(16)
H39 H 0.2261(24) 0.8627(27) -0.2432(16)
H40 H 0.2624(24) 0.8944(27) -0.1948(16)
H41 H 0.2297(24) 0.8132(27) -0.1993(16)
C34 C 0.0742(17) 0.9466(11) -0.2321(7)
H42 H 0.0883(17) 0.9465(11) -0.2638(7)
H43 H 0.0065(17) 0.9525(11) -0.2307(7)
H44 H 0.1077(17) 0.9859(11) -0.2161(7)
C35 C 0.0507(21) 0.8142(20) -0.2342(8)
H45 H 0.0682(21) 0.8179(20) -0.2652(8)
H46 H 0.0733(21) 0.7689(20) -0.2211(8)
H47 H -0.0178(21) 0.8165(20) -0.2343(8)
Si4 Si 0.4137(3) 0.1664(2) 0.0770(2)
Si5 Si 0.3505(3) 0.1740(2) -0.0816(2)
O6 O 0.4541(3) 0.3903(3) -0.0968(2)
O7 O 0.2166(3) 0.4430(2) -0.00567(14)
O8 O 0.4454(3) 0.2525(2) 0.0746(2)
O9 O 0.4063(4) 0.2427(2) -0.0530(2)
O10 O 0.5512(3) 0.4172(2) 0.0912(2)
N4 N 0.3188(3) 0.4134(2) -0.0600(2)
N5 N 0.4189(4) 0.4196(3) 0.1329(2)
N6 N 0.3030(3) 0.3752(3) 0.0830(2)
C41 C 0.4157(4) 0.3982(3) -0.0618(2)
C42 C 0.2959(4) 0.4277(3) -0.0151(2)
C43 C 0.3898(4) 0.3761(3) 0.0594(2)
C44 C 0.4129(4) 0.3023(3) 0.0395(2)
H61 H 0.3566(4) 0.2833(3) 0.0224(2)
C45 C 0.4872(4) 0.3171(3) 0.0062(2)
H62 H 0.5470(4) 0.3206(3) 0.0250(2)
C46 C 0.3878(4) 0.4257(3) 0.0164(2)
H63 H 0.4053(4) 0.4742(3) 0.0258(2)
C47 C 0.4625(4) 0.3942(3) -0.0135(2)
H64 H 0.5186(4) 0.4243(3) -0.0109(2)
C48 C 0.2496(4) 0.4182(3) -0.0997(2)
C49 C 0.2712(5) 0.4587(3) -0.1369(2)
H65 H 0.3305(5) 0.4850(3) -0.1357(2)
C50 C 0.2070(6) 0.4615(4) -0.1746(3)
H66 H 0.2219(6) 0.4881(4) -0.2014(3)
C51 C 0.1206(6) 0.4251(5) -0.1760(3)
H67 H 0.0744(6) 0.4285(5) -0.2023(3)
C52 C 0.0996(5) 0.3844(4) -0.1382(3)
H68 H 0.0404(5) 0.3580(4) -0.1386(3)
C53 C 0.1648(4) 0.3818(3) -0.0994(2)
H69 H 0.1516(4) 0.3547(3) -0.0725(2)
C54 C 0.4671(5) 0.4055(3) 0.0949(2)
C55 C 0.3246(4) 0.3989(3) 0.1230(3)
H70 H 0.2780(4) 0.4031(3) 0.1451(3)
C56 C 0.4613(6) 0.4529(4) 0.1761(2)
H71 H 0.4168(6) 0.4873(4) 0.1866(2)
H72 H 0.5185(6) 0.4786(4) 0.1699(2)
C57 C 0.4867(5) 0.3974(4) 0.2128(2)
C58 C 0.4265(7) 0.3836(6) 0.2464(3)
H73 H 0.3686(7) 0.4116(6) 0.2460(3)
C59 C 0.4487(11) 0.3327(8) 0.2789(4)
H74 H 0.4054(11) 0.3240(8) 0.3021(4)
C60 C 0.5304(15) 0.2931(8) 0.2796(5)
H75 H 0.5448(15) 0.2559(8) 0.3023(5)
C61 C 0.5928(11) 0.3088(7) 0.2461(5)
H76 H 0.6519(11) 0.2822(7) 0.2469(5)
C62 C 0.5714(7) 0.3592(6) 0.2133(3)
H77 H 0.6145(7) 0.3692(6) 0.1902(3)
C63 C 0.2887(6) 0.1522(5) 0.0536(3)
C64 C 0.5296(9) 0.1579(7) 0.1649(4)
C65 C 0.4929(15) 0.1008(11) 0.0513(7)
H78 H 0.4905(15) 0.1076(11) 0.0185(7)
H79 H 0.5569(15) 0.1095(11) 0.0648(7)
H80 H 0.4744(15) 0.0521(11) 0.0578(7)
C66 C 0.4210(11) 0.1509(8) 0.1408(5)
C67 C 0.3718(17) 0.0725(13) 0.1547(9)
H81 H 0.3775(17) 0.0665(13) 0.1875(9)
H82 H 0.3054(17) 0.0711(13) 0.1432(9)
H83 H 0.4056(17) 0.0341(13) 0.1409(9)
C68 C 0.3570(12) 0.2128(10) 0.1646(6)
H84 H 0.3601(12) 0.2057(10) 0.1974(6)
H85 H 0.3822(12) 0.2598(10) 0.1581(6)
H86 H 0.2915(12) 0.2097(10) 0.1518(6)
C73 C 0.4969(5) 0.2585(4) -0.0293(3)
H96 H 0.5398(5) 0.2743(4) -0.0512(3)
H97 H 0.5226(5) 0.2153(4) -0.0146(3)
C74 C 0.2244(10) 0.1682(8) -0.0811(5)
C75 C 0.3020(10) 0.2512(7) -0.1626(5)
C76 C 0.3212(9) 0.1152(7) -0.1688(5)
C77 C 0.4092(13) 0.0897(9) -0.0597(6)
H98 H 0.3994(13) 0.0848(9) -0.0277(6)
H99 H 0.3832(13) 0.0482(9) -0.0764(6)
H100 H 0.4766(13) 0.0931(9) -0.0631(6)
C78 C 0.3683(12) 0.1874(8) -0.1457(5)
C79 C 0.4760(16) 0.1999(13) -0.1492(8)
H101 H 0.4891(16) 0.2079(13) -0.1806(8)
H102 H 0.4983(16) 0.2407(13) -0.1307(8)
H103 H 0.5084(16) 0.1568(13) -0.1377(8)
O11 O 0.1217(4) 0.3049(3) 0.0505(2)
Si3? Si 0.1184(7) 0.8791(5) -0.1559(4)
H1? H -0.0155(3) 0.6266(2) -0.0188(2)
C36? C 0.1366(43) 0.9619(22) -0.1215(17)
H48? H 0.0985(43) 0.9687(22) -0.0961(17)
H49? H 0.2018(43) 0.9522(22) -0.1100(17)
H50? H 0.1342(43) 1.0050(22) -0.1401(17)
C37? C 0.1982(36) 0.8792(33) -0.2063(17)
H51? H 0.2618(36) 0.8817(33) -0.1909(17)
H52? H 0.1925(36) 0.8365(33) -0.2253(17)
H53? H 0.1863(36) 0.9214(33) -0.2252(17)
C38? C -0.0023(22) 0.8759(14) -0.1837(10)
C39? C -0.0183(26) 0.9476(16) -0.2114(12)
H54? H -0.0809(26) 0.9488(16) -0.2278(12)
H55? H -0.0140(26) 0.9842(16) -0.1878(12)
H56? H 0.0293(26) 0.9565(16) -0.2324(12)
C40? C -0.0011(31) 0.8143(26) -0.2231(17)
H57? H -0.0603(31) 0.8067(26) -0.2418(17)
H58? H 0.0461(31) 0.8330(26) -0.2419(17)
H59? H 0.0209(31) 0.7691(26) -0.2096(17)
Si6? Si 0.3784(3) 0.1899(2) 0.1026(2)
Si7? Si 0.4295(4) 0.1853(3) -0.1005(2)
H60? H 0.2451(3) 0.3599(3) 0.0709(2)
C69? C 0.3060(14) 0.2240(11) 0.1477(6)
H87? H 0.3463(14) 0.2428(11) 0.1734(6)
H88? H 0.2640(14) 0.2616(11) 0.1351(6)
H89? H 0.2687(14) 0.1844(11) 0.1579(6)
C70? C 0.4744(11) 0.1250(8) 0.1238(5)
C71? C 0.5382(12) 0.1068(9) 0.0855(6)
H90? H 0.5878(12) 0.0740(9) 0.0972(6)
H91? H 0.4995(12) 0.0839(9) 0.0606(6)
H92? H 0.5666(12) 0.1500(9) 0.0744(6)
C72? C 0.4263(18) 0.0574(12) 0.1419(8)
H93? H 0.4766(18) 0.0247(12) 0.1528(8)
H94? H 0.3825(18) 0.0632(12) 0.1651(8)
H95? H 0.3926(18) 0.0380(12) 0.1144(8)
C80? C 0.4825(18) 0.0963(13) -0.0797(9)
H104? H 0.4441(18) 0.0763(13) -0.0571(9)
H105? H 0.4850(18) 0.0627(13) -0.1047(9)
H106? H 0.5462(18) 0.1050(13) -0.0657(9)
C81? C 0.5088(18) 0.2240(14) -0.1434(8)
H107? H 0.4806(18) 0.2687(14) -0.1546(8)
H108? H 0.5726(18) 0.2329(14) -0.1296(8)
H109? H 0.5113(18) 0.1906(14) -0.1685(8)
C82? C 0.3089(18) 0.1719(12) -0.1251(9)
loop_
_geom_bond_atom_site_label_1
_geom_bond_atom_site_label_2
_geom_bond_site_symmetry_1
_geom_bond_site_symmetry_2
Si1 O3 1_555 1_555
Si2 O4 1_555 1_555
O1 C1 1_555 1_555
O2 C2 1_555 1_555
O3 C4 1_555 1_555
O4 C29 1_555 1_555
O5 C14 1_555 1_555
N1 C1 1_555 1_555
N2 C14 1_555 1_555
N3 C3 1_555 1_555
C1 C7 1_555 1_555
C2 N1 1_555 1_555
C3 C4 1_555 1_555
C4 H2 1_555 1_555
C5 C4 1_555 1_555
H3 C5 1_555 1_555
C6 C2 1_555 1_555
H4 C6 1_555 1_555
C7 C5 1_555 1_555
H5 C7 1_555 1_555
C8 N1 1_555 1_555
C9 C8 1_555 1_555
H6 C9 1_555 1_555
C10 C9 1_555 1_555
H7 C10 1_555 1_555
C11 C10 1_555 1_555
H8 C11 1_555 1_555
C12 C11 1_555 1_555
H9 C12 1_555 1_555
C13 C8 1_555 1_555
H10 C13 1_555 1_555
C14 C3 1_555 1_555
C15 N2 1_555 1_555
H11 C15 1_555 1_555
C16 N2 1_555 1_555
H12 C16 1_555 1_555
H13 C16 1_555 1_555
C17 C16 1_555 1_555
C18 C17 1_555 1_555
H14 C18 1_555 1_555
C19 C18 1_555 1_555
H15 C19 1_555 1_555
C20 C19 1_555 1_555
H16 C20 1_555 1_555
C21 C20 1_555 1_555
H17 C21 1_555 1_555
C22 C17 1_555 1_555
H18 C22 1_555 1_555
C23 Si1 1_555 1_555
H19 C23 1_555 1_555
H20 C23 1_555 1_555
H21 C23 1_555 1_555
C24 Si1 1_555 1_555
H22 C24 1_555 1_555
H23 C24 1_555 1_555
H24 C24 1_555 1_555
C25 Si1 1_555 1_555
C26 C25 1_555 1_555
H25 C26 1_555 1_555
H26 C26 1_555 1_555
H27 C26 1_555 1_555
C27 C25 1_555 1_555
H28 C27 1_555 1_555
H29 C27 1_555 1_555
H30 C27 1_555 1_555
C28 C25 1_555 1_555
H31 C28 1_555 1_555
H32 C28 1_555 1_555
H33 C28 1_555 1_555
C29 C5 1_555 1_555
H34 C29 1_555 1_555
H35 C29 1_555 1_555
C30 Si2 1_555 1_555
C31 Si2 1_555 1_555
H36 C31 1_555 1_555
H37 C31 1_555 1_555
H38 C31 1_555 1_555
C32 Si2 1_555 1_555
C33 C32 1_555 1_555
H39 C33 1_555 1_555
H40 C33 1_555 1_555
H41 C33 1_555 1_555
C34 C32 1_555 1_555
H42 C34 1_555 1_555
H43 C34 1_555 1_555
H44 C34 1_555 1_555
C35 C32 1_555 1_555
H45 C35 1_555 1_555
H46 C35 1_555 1_555
H47 C35 1_555 1_555
Si4 O8 1_555 1_555
Si5 O9 1_555 1_555
O6 C41 1_555 1_555
O7 C42 1_555 1_555
O8 C44 1_555 1_555
O9 C73 1_555 1_555
O10 C54 1_555 1_555
N4 C41 1_555 1_555
N5 C54 1_555 1_555
N6 C43 1_555 1_555
C41 C47 1_555 1_555
C42 N4 1_555 1_555
C43 C44 1_555 1_555
C44 H61 1_555 1_555
C45 C44 1_555 1_555
H62 C45 1_555 1_555
C46 C42 1_555 1_555
H63 C46 1_555 1_555
C47 C45 1_555 1_555
H64 C47 1_555 1_555
C48 N4 1_555 1_555
C49 C48 1_555 1_555
H65 C49 1_555 1_555
C50 C49 1_555 1_555
H66 C50 1_555 1_555
C51 C50 1_555 1_555
H67 C51 1_555 1_555
C52 C51 1_555 1_555
H68 C52 1_555 1_555
C53 C48 1_555 1_555
H69 C53 1_555 1_555
C54 C43 1_555 1_555
C55 N5 1_555 1_555
H70 C55 1_555 1_555
C56 N5 1_555 1_555
H71 C56 1_555 1_555
H72 C56 1_555 1_555
C57 C56 1_555 1_555
C58 C57 1_555 1_555
H73 C58 1_555 1_555
C59 C58 1_555 1_555
H74 C59 1_555 1_555
C60 C59 1_555 1_555
H75 C60 1_555 1_555
C61 C60 1_555 1_555
H76 C61 1_555 1_555
C62 C57 1_555 1_555
H77 C62 1_555 1_555
C63 Si4 1_555 1_555
C64 C66 1_555 1_555
C65 Si4 1_555 1_555
H78 C65 1_555 1_555
H79 C65 1_555 1_555
H80 C65 1_555 1_555
C66 Si4 1_555 1_555
C67 C66 1_555 1_555
H81 C67 1_555 1_555
H82 C67 1_555 1_555
H83 C67 1_555 1_555
C68 C66 1_555 1_555
H84 C68 1_555 1_555
H85 C68 1_555 1_555
H86 C68 1_555 1_555
C73 C45 1_555 1_555
H96 C73 1_555 1_555
H97 C73 1_555 1_555
C74 Si5 1_555 1_555
C75 C78 1_555 1_555
C76 C78 1_555 1_555
C77 Si5 1_555 1_555
H98 C77 1_555 1_555
H99 C77 1_555 1_555
H100 C77 1_555 1_555
C78 Si5 1_555 1_555
C79 C78 1_555 1_555
H101 C79 1_555 1_555
H102 C79 1_555 1_555
H103 C79 1_555 1_555
N3 C15 1_555 1_555
C3 C6 1_555 1_555
C6 C7 1_555 1_555
C12 C13 1_555 1_555
C21 C22 1_555 1_555
N6 C55 1_555 1_555
C43 C46 1_555 1_555
C46 C47 1_555 1_555
C52 C53 1_555 1_555
C61 C62 1_555 1_555

#END
