
#######################################################################
#
#                 Cambridge Crystallographic Data Centre
#                                CCDC 
#
#######################################################################
#
# If this CIF has been generated from an entry in the Cambridge 
# Structural Database, then it will include bibliographic, chemical, 
# crystal, experimental, refinement or atomic coordinate data resulting 
# from the CCDC's data processing and validation procedures.
#
#######################################################################

data_IVUNEU
_chemical_formula_moiety         'C54 H58 O4'
_chemical_name_systematic        
7,14-bis(4-t-butyl-2,6-bis(methoxymethyl)phenyl)-5,12-dimethyldibenzo[c,pqr]tetraphene
_symmetry_cell_setting           triclinic
_symmetry_space_group_name_H-M   'P -1'
_symmetry_Int_Tables_number      2
_space_group_name_Hall           '-P 1'
loop_
_symmetry_equiv_pos_site_id
_symmetry_equiv_pos_as_xyz
1 x,y,z
2 -x,-y,-z
_cell_length_a                   8.4906(5)
_cell_length_b                   11.5160(7)
_cell_length_c                   11.5589(8)
_cell_angle_alpha                111.353(4)
_cell_angle_beta                 94.778(5)
_cell_angle_gamma                99.246(4)
_cell_volume                     1026.51
_exptl_crystal_colour            yellow
_exptl_crystal_description       rod
_cell_formula_units_Z            1
loop_
_atom_site_label
_atom_site_type_symbol
_atom_site_fract_x
_atom_site_fract_y
_atom_site_fract_z
O1 O 0.8057(5) 0.9833(4) 0.4349(4)
O2 O 0.2365(5) 0.4967(4) 0.5150(4)
C1 C 0.4252(6) 0.6601(5) 0.2620(5)
C2 C 0.2811(6) 0.6897(5) 0.2190(5)
C3 C 0.1936(7) 0.7642(5) 0.3073(5)
H1 H 0.2391 0.8010 0.3938
C4 C 0.0472(7) 0.7843(6) 0.2720(6)
H2 H -0.0077 0.8362 0.3324
C5 C -0.0220(7) 0.7266(6) 0.1440(6)
H3 H -0.1271 0.7359 0.1188
C6 C 0.0606(7) 0.6575(6) 0.0556(5)
H4 H 0.0109 0.6199 -0.0299
C7 C 0.2192(6) 0.6399(5) 0.0875(5)
C8 C 0.3131(6) 0.5716(5) -0.0028(5)
C9 C 0.4526(6) 0.5380(5) 0.0421(5)
C10 C 0.5043(6) 0.5799(5) 0.1748(5)
C11 C 0.6378(6) 0.5349(5) 0.2149(5)
H5 H 0.6677 0.5586 0.3027
C12 C 0.7247(7) 0.4612(6) 0.1370(5)
C13 C 0.8483(7) 0.4115(7) 0.1970(6)
H6 H 0.9560 0.4629 0.2064
H7 H 0.8457 0.3226 0.1438
H8 H 0.8236 0.4169 0.2799
C14 C 0.4859(7) 0.7124(6) 0.4006(5)
C15 C 0.6003(7) 0.8268(6) 0.4550(5)
C16 C 0.6515(7) 0.8784(6) 0.5849(5)
H9 H 0.7284 0.9565 0.6215
C17 C 0.5925(7) 0.8183(6) 0.6621(5)
C18 C 0.4775(7) 0.7065(6) 0.6067(5)
H10 H 0.4342 0.6647 0.6579
C19 C 0.4235(7) 0.6536(6) 0.4777(5)
C20 C 0.6573(7) 0.8980(6) 0.3757(5)
H11 H 0.6706 0.8369 0.2927
H12 H 0.5756 0.9460 0.3619
C21 C 0.8539(8) 1.0618(6) 0.3693(6)
H13 H 0.8582 1.0085 0.2819
H14 H 0.9610 1.1150 0.4093
H15 H 0.7759 1.1164 0.3711
C22 C 0.2971(7) 0.5330(6) 0.4206(5)
H16 H 0.2076 0.5460 0.3691
H17 H 0.3445 0.4642 0.3647
C23 C 0.1208(7) 0.3814(6) 0.4672(6)
H18 H 0.0305 0.3891 0.4138
H19 H 0.0810 0.3629 0.5372
H20 H 0.1706 0.3121 0.4175
C24 C 0.6529(8) 0.8800(7) 0.8062(6)
C25 C 0.6014(10) 1.0080(7) 0.8594(7)
H21 H 0.6410 1.0490 0.9499
H22 H 0.4833 0.9943 0.8450
H23 H 0.6470 1.0629 0.8174
C26 C 0.8366(9) 0.9024(10) 0.8312(7)
H24 H 0.8826 0.9410 0.7754
H25 H 0.8695 0.8208 0.8153
H26 H 0.8758 0.9597 0.9189
C27 C 0.5850(9) 0.7951(7) 0.8734(6)
H27 H 0.6173 0.7127 0.8386
H28 H 0.4669 0.7818 0.8614
H29 H 0.6274 0.8363 0.9634
O1A O 0.1943(5) 0.0167(4) -0.4349(4)
O2A O 0.7635(5) 0.5033(4) -0.5150(4)
C1A C 0.5748(6) 0.3399(5) -0.2620(5)
C2A C 0.7189(6) 0.3103(5) -0.2190(5)
C3A C 0.8064(7) 0.2358(5) -0.3073(5)
H1A H 0.7609 0.1990 -0.3938
C4A C 0.9528(7) 0.2157(6) -0.2720(6)
H2A H 1.0077 0.1638 -0.3324
C5A C 1.0220(7) 0.2734(6) -0.1440(6)
H3A H 1.1271 0.2641 -0.1188
C6A C 0.9394(7) 0.3425(6) -0.0556(5)
H4A H 0.9891 0.3801 0.0299
C7A C 0.7808(6) 0.3601(5) -0.0875(5)
C8A C 0.6869(6) 0.4284(5) 0.0028(5)
C9A C 0.5474(6) 0.4620(5) -0.0421(5)
C10A C 0.4957(6) 0.4201(5) -0.1748(5)
C11A C 0.3622(6) 0.4651(5) -0.2149(5)
H5A H 0.3323 0.4414 -0.3027
C12A C 0.2753(7) 0.5388(6) -0.1370(5)
C13A C 0.1517(7) 0.5885(7) -0.1970(6)
H6A H 0.0440 0.5371 -0.2064
H7A H 0.1543 0.6774 -0.1438
H8A H 0.1764 0.5831 -0.2799
C14A C 0.5141(7) 0.2876(6) -0.4006(5)
C15A C 0.3997(7) 0.1732(6) -0.4550(5)
C16A C 0.3485(7) 0.1216(6) -0.5849(5)
H9A H 0.2716 0.0435 -0.6215
C17A C 0.4075(7) 0.1817(6) -0.6621(5)
C18A C 0.5225(7) 0.2935(6) -0.6067(5)
H10A H 0.5658 0.3353 -0.6579
C19A C 0.5765(7) 0.3464(6) -0.4777(5)
C20A C 0.3427(7) 0.1020(6) -0.3757(5)
H11A H 0.3294 0.1631 -0.2927
H12A H 0.4244 0.0540 -0.3619
C21A C 0.1461(8) -0.0618(6) -0.3693(6)
H13A H 0.1418 -0.0085 -0.2819
H14A H 0.0390 -0.1150 -0.4093
H15A H 0.2241 -0.1164 -0.3711
C22A C 0.7029(7) 0.4670(6) -0.4206(5)
H16A H 0.7924 0.4540 -0.3691
H17A H 0.6555 0.5358 -0.3647
C23A C 0.8792(7) 0.6186(6) -0.4672(6)
H18A H 0.9695 0.6109 -0.4138
H19A H 0.9190 0.6371 -0.5372
H20A H 0.8294 0.6879 -0.4175
C24A C 0.3471(8) 0.1200(7) -0.8062(6)
C25A C 0.3986(10) -0.0080(7) -0.8594(7)
H21A H 0.3590 -0.0490 -0.9499
H22A H 0.5167 0.0057 -0.8450
H23A H 0.3530 -0.0629 -0.8174
C26A C 0.1634(9) 0.0976(10) -0.8312(7)
H24A H 0.1174 0.0590 -0.7754
H25A H 0.1305 0.1792 -0.8153
H26A H 0.1242 0.0403 -0.9189
C27A C 0.4150(9) 0.2049(7) -0.8734(6)
H27A H 0.3827 0.2873 -0.8386
H28A H 0.5331 0.2182 -0.8614
H29A H 0.3726 0.1637 -0.9634
loop_
_geom_bond_atom_site_label_1
_geom_bond_atom_site_label_2
_geom_bond_site_symmetry_1
_geom_bond_site_symmetry_2
O1 C20 1_555 1_555
O2 C22 1_555 1_555
C1 C2 1_555 1_555
C2 C3 1_555 1_555
C3 H1 1_555 1_555
C4 C3 1_555 1_555
H2 C4 1_555 1_555
C5 C4 1_555 1_555
H3 C5 1_555 1_555
C6 C5 1_555 1_555
H4 C6 1_555 1_555
C7 C2 1_555 1_555
C8 C7 1_555 1_555
C9 C8 1_555 1_555
C10 C1 1_555 1_555
C11 C10 1_555 1_555
H5 C11 1_555 1_555
C12 C11 1_555 1_555
C13 C12 1_555 1_555
H6 C13 1_555 1_555
H7 C13 1_555 1_555
H8 C13 1_555 1_555
C14 C1 1_555 1_555
C15 C14 1_555 1_555
C16 C15 1_555 1_555
H9 C16 1_555 1_555
C17 C16 1_555 1_555
C18 C17 1_555 1_555
H10 C18 1_555 1_555
C19 C14 1_555 1_555
C20 C15 1_555 1_555
H11 C20 1_555 1_555
H12 C20 1_555 1_555
C21 O1 1_555 1_555
H13 C21 1_555 1_555
H14 C21 1_555 1_555
H15 C21 1_555 1_555
C22 C19 1_555 1_555
H16 C22 1_555 1_555
H17 C22 1_555 1_555
C23 O2 1_555 1_555
H18 C23 1_555 1_555
H19 C23 1_555 1_555
H20 C23 1_555 1_555
C24 C17 1_555 1_555
C25 C24 1_555 1_555
H21 C25 1_555 1_555
H22 C25 1_555 1_555
H23 C25 1_555 1_555
C26 C24 1_555 1_555
H24 C26 1_555 1_555
H25 C26 1_555 1_555
H26 C26 1_555 1_555
C27 C24 1_555 1_555
H27 C27 1_555 1_555
H28 C27 1_555 1_555
H29 C27 1_555 1_555
O1A C20A 1_555 1_555
O2A C22A 1_555 1_555
C1A C2A 1_555 1_555
C2A C3A 1_555 1_555
C3A H1A 1_555 1_555
C4A C3A 1_555 1_555
H2A C4A 1_555 1_555
C5A C4A 1_555 1_555
H3A C5A 1_555 1_555
C6A C5A 1_555 1_555
H4A C6A 1_555 1_555
C7A C2A 1_555 1_555
C8A C12 1_555 1_555
C9A C9 1_555 1_555
C10A C1A 1_555 1_555
C11A C10A 1_555 1_555
H5A C11A 1_555 1_555
C12A C8 1_555 1_555
C13A C12A 1_555 1_555
H6A C13A 1_555 1_555
H7A C13A 1_555 1_555
H8A C13A 1_555 1_555
C14A C1A 1_555 1_555
C15A C14A 1_555 1_555
C16A C15A 1_555 1_555
H9A C16A 1_555 1_555
C17A C16A 1_555 1_555
C18A C17A 1_555 1_555
H10A C18A 1_555 1_555
C19A C14A 1_555 1_555
C20A C15A 1_555 1_555
H11A C20A 1_555 1_555
H12A C20A 1_555 1_555
C21A O1A 1_555 1_555
H13A C21A 1_555 1_555
H14A C21A 1_555 1_555
H15A C21A 1_555 1_555
C22A C19A 1_555 1_555
H16A C22A 1_555 1_555
H17A C22A 1_555 1_555
C23A O2A 1_555 1_555
H18A C23A 1_555 1_555
H19A C23A 1_555 1_555
H20A C23A 1_555 1_555
C24A C17A 1_555 1_555
C25A C24A 1_555 1_555
H21A C25A 1_555 1_555
H22A C25A 1_555 1_555
H23A C25A 1_555 1_555
C26A C24A 1_555 1_555
H24A C26A 1_555 1_555
H25A C26A 1_555 1_555
H26A C26A 1_555 1_555
C27A C24A 1_555 1_555
H27A C27A 1_555 1_555
H28A C27A 1_555 1_555
H29A C27A 1_555 1_555
C6 C7 1_555 1_555
C9 C10 1_555 1_555
C18 C19 1_555 1_555
C6A C7A 1_555 1_555
C7A C8A 1_555 1_555
C8A C9A 1_555 1_555
C9A C10A 1_555 1_555
C11A C12A 1_555 1_555
C18A C19A 1_555 1_555

#END
