
#######################################################################
#
#                 Cambridge Crystallographic Data Centre
#                                CCDC 
#
#######################################################################
#
# If this CIF has been generated from an entry in the Cambridge 
# Structural Database, then it will include bibliographic, chemical, 
# crystal, experimental, refinement or atomic coordinate data resulting 
# from the CCDC's data processing and validation procedures.
#
#######################################################################

data_IVUNIY
_chemical_formula_moiety         'C50 H42 O4,2(C1 H1 Cl3)'
_chemical_name_systematic        
'5-t-butyl-2-(14-(4-t-butyl-2,6-diformylphenyl)-5,12-dimethyldibenzo[c,pqr]tetraphen-7-yl)isophthalaldehyde chloroform solvate'
_symmetry_cell_setting           triclinic
_symmetry_space_group_name_H-M   'P -1'
_symmetry_Int_Tables_number      2
_space_group_name_Hall           '-P 1'
loop_
_symmetry_equiv_pos_site_id
_symmetry_equiv_pos_as_xyz
1 x,y,z
2 -x,-y,-z
_cell_length_a                   9.1153(4)
_cell_length_b                   9.2347(4)
_cell_length_c                   13.7911(7)
_cell_angle_alpha                80.943(2)
_cell_angle_beta                 89.824(2)
_cell_angle_gamma                77.478(2)
_cell_volume                     1118.57
_exptl_crystal_colour            orange
_exptl_crystal_description       Block
_cell_formula_units_Z            1
loop_
_atom_site_label
_atom_site_type_symbol
_atom_site_fract_x
_atom_site_fract_y
_atom_site_fract_z
O1 O 1.06568(11) 0.45008(11) 0.61048(7)
O2 O 0.67532(14) 0.99056(16) 0.89162(10)
C1 C 0.46659(15) 0.67825(15) 0.59342(9)
C2 C 0.39617(15) 0.55574(16) 0.58845(10)
H1 H 0.3145 0.5696 0.5428
C3 C 0.44186(16) 0.41907(16) 0.64692(11)
H2 H 0.3922 0.3404 0.6408
C4 C 0.56148(16) 0.39370(16) 0.71601(11)
H3 H 0.5899 0.3000 0.7584
C5 C 0.63632(16) 0.50560(16) 0.72133(10)
H4 H 0.7179 0.4882 0.7675
C6 C 0.59492(15) 0.64776(15) 0.65929(9)
C7 C 0.68196(14) 0.75707(15) 0.65952(9)
C8 C 0.64806(14) 0.89091(15) 0.59372(9)
C9 C 0.51574(14) 0.92797(15) 0.53127(9)
C10 C 0.42020(15) 0.82408(15) 0.53372(9)
C11 C 0.72204(15) 1.12552(15) 0.52174(10)
C12 C 0.85231(16) 1.20333(17) 0.50897(11)
H5 H 0.8357 1.2864 0.5469
H6 H 0.8599 1.2426 0.4393
H7 H 0.9457 1.1314 0.5325
C13 C 0.74784(15) 0.99190(16) 0.58322(9)
H8 H 0.8385 0.9635 0.6220
C14 C 0.81574(15) 0.72633(15) 0.72830(9)
C15 C 0.94951(15) 0.62672(15) 0.71094(9)
C16 C 1.07420(15) 0.60069(16) 0.77475(10)
H9 H 1.1635 0.5326 0.7617
C17 C 1.07196(15) 0.67171(16) 0.85732(10)
C18 C 0.93963(16) 0.77089(16) 0.87316(10)
H10 H 0.9349 0.8216 0.9283
C19 C 0.81291(15) 0.79847(16) 0.81038(10)
C20 C 0.96212(15) 0.55210(16) 0.62284(10)
H11 H 0.8848 0.5860 0.5732
C21 C 0.67602(17) 0.90736(18) 0.83255(11)
H12 H 0.5845 0.9115 0.7984
C22 C 1.21318(16) 0.64108(17) 0.92384(10)
C23 C 1.2655(2) 0.4718(2) 0.95784(14)
H13 H 1.3529 0.4523 1.0030
H14 H 1.2932 0.4217 0.9007
H15 H 1.1840 0.4328 0.9916
C24 C 1.33697(17) 0.69873(19) 0.86430(12)
H16 H 1.3029 0.8066 0.8405
H17 H 1.3594 0.6452 0.8082
H18 H 1.4278 0.6813 0.9061
C25 C 1.18424(19) 0.7195(2) 1.01382(12)
H19 H 1.1533 0.8284 0.9925
H20 H 1.2765 0.6968 1.0549
H21 H 1.1044 0.6838 1.0518
O1A O -0.06568(11) 1.54992(11) 0.38952(7)
O2A O 0.32468(14) 1.00944(16) 0.10838(10)
C1A C 0.53341(15) 1.32175(15) 0.40658(9)
C2A C 0.60383(15) 1.44426(16) 0.41155(10)
H1A H 0.6855 1.4304 0.4572
C3A C 0.55814(16) 1.58093(16) 0.35308(11)
H2A H 0.6078 1.6596 0.3592
C4A C 0.43852(16) 1.60630(16) 0.28399(11)
H3A H 0.4101 1.7000 0.2416
C5A C 0.36368(16) 1.49440(16) 0.27867(10)
H4A H 0.2821 1.5118 0.2325
C6A C 0.40508(15) 1.35224(15) 0.34071(9)
C7A C 0.31804(14) 1.24293(15) 0.34048(9)
C8A C 0.35194(14) 1.10909(15) 0.40628(9)
C9A C 0.48426(14) 1.07203(15) 0.46873(9)
C10A C 0.57980(15) 1.17592(15) 0.46628(9)
C11A C 0.27796(15) 0.87448(15) 0.47826(10)
C12A C 0.14769(16) 0.79667(17) 0.49103(11)
H5A H 0.1643 0.7136 0.4531
H6A H 0.1401 0.7574 0.5607
H7A H 0.0543 0.8686 0.4675
C13A C 0.25216(15) 1.00810(16) 0.41678(9)
H8A H 0.1615 1.0365 0.3780
C14A C 0.18426(15) 1.27367(15) 0.27170(9)
C15A C 0.05049(15) 1.37328(15) 0.28906(9)
C16A C -0.07420(15) 1.39931(16) 0.22525(10)
H9A H -0.1635 1.4674 0.2383
C17A C -0.07196(15) 1.32829(16) 0.14268(10)
C18A C 0.06037(16) 1.22911(16) 0.12684(10)
H10A H 0.0651 1.1784 0.0717
C19A C 0.18709(15) 1.20153(16) 0.18962(10)
C20A C 0.03788(15) 1.44790(16) 0.37716(10)
H11A H 0.1152 1.4140 0.4268
C21A C 0.32398(17) 1.09264(18) 0.16745(11)
H12A H 0.4155 1.0885 0.2016
C22A C -0.21318(16) 1.35892(17) 0.07616(10)
C23A C -0.2655(2) 1.5282(2) 0.04216(14)
H13A H -0.3529 1.5477 -0.0030
H14A H -0.2932 1.5783 0.0993
H15A H -0.1840 1.5672 0.0084
C24A C -0.33697(17) 1.30127(19) 0.13570(12)
H16A H -0.3029 1.1934 0.1595
H17A H -0.3594 1.3548 0.1918
H18A H -0.4278 1.3187 0.0939
C25A C -0.18424(19) 1.2805(2) -0.01382(12)
H19A H -0.1533 1.1716 0.0075
H20A H -0.2765 1.3032 -0.0549
H21A H -0.1044 1.3162 -0.0518
C26 C 0.84454(19) 0.83501(18) 0.23848(11)
H22 H 0.8508(19) 0.736(2) 0.2617(12)
Cl1 Cl 1.0354(5) 0.8597(4) 0.2261(2)
Cl2 Cl 0.7533(5) 0.8843(5) 0.1223(2)
Cl3 Cl 0.7487(5) 0.9349(3) 0.3280(3)
Cl4? Cl 0.7619(9) 0.9450(7) 0.3229(5)
Cl5? Cl 1.0144(11) 0.8697(8) 0.2171(6)
Cl6? Cl 0.7224(18) 0.8796(9) 0.1345(8)
loop_
_geom_bond_atom_site_label_1
_geom_bond_atom_site_label_2
_geom_bond_site_symmetry_1
_geom_bond_site_symmetry_2
O1 C20 1_555 1_555
O2 C21 1_555 1_555
C1 C2 1_555 1_555
C2 H1 1_555 1_555
C3 C2 1_555 1_555
H2 C3 1_555 1_555
C4 C3 1_555 1_555
H3 C4 1_555 1_555
C5 C4 1_555 1_555
H4 C5 1_555 1_555
C6 C1 1_555 1_555
C7 C6 1_555 1_555
C8 C7 1_555 1_555
C9 C8 1_555 1_555
C10 C1 1_555 1_555
C11 C12 1_555 1_555
C12 H5 1_555 1_555
H6 C12 1_555 1_555
H7 C12 1_555 1_555
C13 C8 1_555 1_555
H8 C13 1_555 1_555
C14 C7 1_555 1_555
C15 C14 1_555 1_555
C16 C15 1_555 1_555
H9 C16 1_555 1_555
C17 C16 1_555 1_555
C18 C17 1_555 1_555
H10 C18 1_555 1_555
C19 C14 1_555 1_555
C20 C15 1_555 1_555
H11 C20 1_555 1_555
C21 C19 1_555 1_555
H12 C21 1_555 1_555
C22 C17 1_555 1_555
C23 C22 1_555 1_555
H13 C23 1_555 1_555
H14 C23 1_555 1_555
H15 C23 1_555 1_555
C24 C22 1_555 1_555
H16 C24 1_555 1_555
H17 C24 1_555 1_555
H18 C24 1_555 1_555
C25 C22 1_555 1_555
H19 C25 1_555 1_555
H20 C25 1_555 1_555
H21 C25 1_555 1_555
C26 H22 1_555 1_555
Cl1 C26 1_555 1_555
Cl2 C26 1_555 1_555
Cl3 C26 1_555 1_555
O1A C20A 1_555 1_555
O2A C21A 1_555 1_555
C1A C2A 1_555 1_555
C2A H1A 1_555 1_555
C3A C2A 1_555 1_555
H2A C3A 1_555 1_555
C4A C3A 1_555 1_555
H3A C4A 1_555 1_555
C5A C4A 1_555 1_555
H4A C5A 1_555 1_555
C6A C1A 1_555 1_555
C7A C6A 1_555 1_555
C8A C7A 1_555 1_555
C9A C9 1_555 1_555
C10A C11 1_555 1_555
C11A C10 1_555 1_555
C12A C11A 1_555 1_555
H5A C12A 1_555 1_555
H6A C12A 1_555 1_555
H7A C12A 1_555 1_555
C13A C8A 1_555 1_555
H8A C13A 1_555 1_555
C14A C7A 1_555 1_555
C15A C14A 1_555 1_555
C16A C15A 1_555 1_555
H9A C16A 1_555 1_555
C17A C16A 1_555 1_555
C18A C17A 1_555 1_555
H10A C18A 1_555 1_555
C19A C14A 1_555 1_555
C20A C15A 1_555 1_555
H11A C20A 1_555 1_555
C21A C19A 1_555 1_555
H12A C21A 1_555 1_555
C22A C17A 1_555 1_555
C23A C22A 1_555 1_555
H13A C23A 1_555 1_555
H14A C23A 1_555 1_555
H15A C23A 1_555 1_555
C24A C22A 1_555 1_555
H16A C24A 1_555 1_555
H17A C24A 1_555 1_555
H18A C24A 1_555 1_555
C25A C22A 1_555 1_555
H19A C25A 1_555 1_555
H20A C25A 1_555 1_555
H21A C25A 1_555 1_555
C5 C6 1_555 1_555
C9 C10 1_555 1_555
C11 C13 1_555 1_555
C18 C19 1_555 1_555
C1A C10A 1_555 1_555
C5A C6A 1_555 1_555
C8A C9A 1_555 1_555
C9A C10A 1_555 1_555
C11A C13A 1_555 1_555
C18A C19A 1_555 1_555

#END
