
#######################################################################
#
#                 Cambridge Crystallographic Data Centre
#                                CCDC 
#
#######################################################################
#
# If this CIF has been generated from an entry in the Cambridge 
# Structural Database, then it will include bibliographic, chemical, 
# crystal, experimental, refinement or atomic coordinate data resulting 
# from the CCDC's data processing and validation procedures.
#
#######################################################################

data_IVUTOK
_chemical_formula_moiety         'C36 H31 N3'
_chemical_name_systematic        
1-t-butyl-3-(4-methylphenyl)-N-(2-((4-methylphenyl)ethynyl)phenyl)pyrrolo[2,3-b]indol-2(1H)-imine
_symmetry_cell_setting           monoclinic
_symmetry_space_group_name_H-M   'P 21/c'
_symmetry_Int_Tables_number      14
_space_group_name_Hall           '-P 2ybc'
loop_
_symmetry_equiv_pos_site_id
_symmetry_equiv_pos_as_xyz
1 x,y,z
2 -x,1/2+y,1/2-z
3 -x,-y,-z
4 x,1/2-y,1/2+z
_cell_length_a                   9.1198(9)
_cell_length_b                   17.4080(16)
_cell_length_c                   19.2261(18)
_cell_angle_alpha                90
_cell_angle_beta                 111.966(3)
_cell_angle_gamma                90
_cell_volume                     2830.71
_exptl_crystal_colour            red
_exptl_crystal_description       block
_cell_formula_units_Z            4
loop_
_atom_site_label
_atom_site_type_symbol
_atom_site_fract_x
_atom_site_fract_y
_atom_site_fract_z
N1 N 0.3185(4) 0.4067(2) 0.5073(2)
N2 N 0.0934(4) 0.3579(2) 0.5377(2)
N3 N -0.0942(4) 0.2661(2) 0.5382(2)
C1 C 0.1989(6) 0.3629(3) 0.5012(3)
C2 C 0.0000(5) 0.2911(3) 0.5076(3)
C3 C 0.0400(5) 0.2602(3) 0.4437(3)
C4 C 0.1611(5) 0.3030(3) 0.4427(2)
C5 C 0.2754(5) 0.3168(3) 0.4082(3)
C6 C 0.3679(5) 0.3784(3) 0.4491(3)
C7 C 0.4903(5) 0.4072(3) 0.4308(3)
H1 H 0.5529 0.4474 0.4579
C8 C 0.5167(6) 0.3742(3) 0.3706(3)
H2 H 0.5981 0.3932 0.3574
C9 C 0.4269(6) 0.3145(3) 0.3299(3)
H3 H 0.4477 0.2937 0.2900
C10 C 0.3048(5) 0.2853(3) 0.3488(2)
H4 H 0.2433 0.2448 0.3215
C11 C 0.1022(7) 0.3991(3) 0.6079(3)
C12 C 0.1960(6) 0.4731(3) 0.6157(3)
H5 H 0.3037 0.4610 0.6236
H6 H 0.1929 0.5020 0.6577
H7 H 0.1506 0.5031 0.5708
C13 C 0.1732(6) 0.3478(3) 0.6754(3)
H8 H 0.1121 0.3015 0.6681
H9 H 0.1729 0.3740 0.7193
H10 H 0.2800 0.3352 0.6817
C14 C -0.0654(6) 0.4238(3) 0.6004(3)
H11 H -0.1160 0.4502 0.5537
H12 H -0.0586 0.4573 0.6412
H13 H -0.1261 0.3791 0.6018
C15 C -0.0399(5) 0.1968(3) 0.3917(3)
C16 C 0.0463(6) 0.1400(3) 0.3755(3)
H14 H 0.1559 0.1398 0.3991
C17 C -0.0279(7) 0.0828(3) 0.3244(3)
H15 H 0.0317 0.0447 0.3135
C18 C -0.1906(7) 0.0826(3) 0.2896(3)
C19 C -0.2764(6) 0.1393(3) 0.3049(3)
H16 H -0.3859 0.1390 0.2813
C20 C -0.2036(5) 0.1976(3) 0.3551(3)
H17 H -0.2635 0.2367 0.3643
C21 C -0.2731(6) 0.0201(3) 0.2326(3)
H18 H -0.3718 0.0071 0.2368
H19 H -0.2070 -0.0246 0.2423
H20 H -0.2924 0.0386 0.1829
C22 C -0.1679(5) 0.1935(3) 0.5209(3)
C23 C -0.3318(5) 0.1897(3) 0.4950(3)
H21 H -0.3909 0.2346 0.4872
C24 C -0.4072(6) 0.1192(3) 0.4808(3)
H22 H -0.5170 0.1169 0.4610
C25 C -0.3196(6) 0.0522(3) 0.4960(3)
H23 H -0.3704 0.0048 0.4870
C26 C -0.1567(6) 0.0557(3) 0.5245(3)
H24 H -0.0982 0.0105 0.5349
C27 C -0.0786(5) 0.1262(3) 0.5379(3)
C28 C 0.0916(6) 0.1283(3) 0.5697(3)
C29 C 0.2302(6) 0.1332(3) 0.5959(3)
C30 C 0.4021(6) 0.1405(3) 0.6277(3)
C31 C 0.4941(6) 0.0761(3) 0.6589(3)
H25 H 0.4466 0.0288 0.6587
C32 C 0.6581(7) 0.0834(4) 0.6904(3)
H26 H 0.7203 0.0405 0.7103
C33 C 0.7288(7) 0.1535(4) 0.6923(3)
C34 C 0.6388(7) 0.2165(4) 0.6612(3)
H27 H 0.6873 0.2636 0.6617
C35 C 0.4740(6) 0.2104(3) 0.6286(3)
H28 H 0.4131 0.2534 0.6075
C36 C 0.9097(6) 0.1622(4) 0.7279(3)
H29 H 0.9407 0.2085 0.7100
H30 H 0.9587 0.1189 0.7143
H31 H 0.9427 0.1645 0.7814
loop_
_geom_bond_atom_site_label_1
_geom_bond_atom_site_label_2
_geom_bond_site_symmetry_1
_geom_bond_site_symmetry_2
N1 C1 1_555 1_555
N2 C1 1_555 1_555
N3 C2 1_555 1_555
C1 C4 1_555 1_555
C2 N2 1_555 1_555
C3 C2 1_555 1_555
C4 C3 1_555 1_555
C5 C4 1_555 1_555
C6 N1 1_555 1_555
C7 C6 1_555 1_555
H1 C7 1_555 1_555
C8 C7 1_555 1_555
H2 C8 1_555 1_555
C9 C8 1_555 1_555
H3 C9 1_555 1_555
C10 C5 1_555 1_555
H4 C10 1_555 1_555
C11 N2 1_555 1_555
C12 C11 1_555 1_555
H5 C12 1_555 1_555
H6 C12 1_555 1_555
H7 C12 1_555 1_555
C13 C11 1_555 1_555
H8 C13 1_555 1_555
H9 C13 1_555 1_555
H10 C13 1_555 1_555
C14 C11 1_555 1_555
H11 C14 1_555 1_555
H12 C14 1_555 1_555
H13 C14 1_555 1_555
C15 C3 1_555 1_555
C16 C15 1_555 1_555
H14 C16 1_555 1_555
C17 C16 1_555 1_555
H15 C17 1_555 1_555
C18 C17 1_555 1_555
C19 C18 1_555 1_555
H16 C19 1_555 1_555
C20 C15 1_555 1_555
H17 C20 1_555 1_555
C21 C18 1_555 1_555
H18 C21 1_555 1_555
H19 C21 1_555 1_555
H20 C21 1_555 1_555
C22 N3 1_555 1_555
C23 C22 1_555 1_555
H21 C23 1_555 1_555
C24 C23 1_555 1_555
H22 C24 1_555 1_555
C25 C24 1_555 1_555
H23 C25 1_555 1_555
C26 C25 1_555 1_555
H24 C26 1_555 1_555
C27 C22 1_555 1_555
C28 C27 1_555 1_555
C29 C28 1_555 1_555
C30 C29 1_555 1_555
C31 C30 1_555 1_555
H25 C31 1_555 1_555
C32 C31 1_555 1_555
H26 C32 1_555 1_555
C33 C32 1_555 1_555
C34 C33 1_555 1_555
H27 C34 1_555 1_555
C35 C30 1_555 1_555
H28 C35 1_555 1_555
C36 C33 1_555 1_555
H29 C36 1_555 1_555
H30 C36 1_555 1_555
H31 C36 1_555 1_555
C5 C6 1_555 1_555
C9 C10 1_555 1_555
C19 C20 1_555 1_555
C26 C27 1_555 1_555
C34 C35 1_555 1_555

#END
