
#######################################################################
#
#                 Cambridge Crystallographic Data Centre
#                                CCDC 
#
#######################################################################
#
# If this CIF has been generated from an entry in the Cambridge 
# Structural Database, then it will include bibliographic, chemical, 
# crystal, experimental, refinement or atomic coordinate data resulting 
# from the CCDC's data processing and validation procedures.
#
#######################################################################

data_IVUVAY01
_chemical_formula_moiety         'C28 H45 F3 O3'
_chemical_name_systematic        
7\b-(trifluoromethyl)cholest-5-ene-3\b,7\a,25-triol
_chemical_properties_biological  'EBI2 agonist activity'
_symmetry_cell_setting           monoclinic
_symmetry_space_group_name_H-M   'P 21'
_symmetry_Int_Tables_number      4
_space_group_name_Hall           'P 2yb'
loop_
_symmetry_equiv_pos_site_id
_symmetry_equiv_pos_as_xyz
1 x,y,z
2 -x,1/2+y,-z
_cell_length_a                   10.6589(3)
_cell_length_b                   15.8194(6)
_cell_length_c                   16.2328(6)
_cell_angle_alpha                90
_cell_angle_beta                 97.053(2)
_cell_angle_gamma                90
_cell_volume                     2716.42
_exptl_crystal_colour            colorless
_exptl_crystal_description       Block
_chemical_melting_point          '198-199 deg.C'
_cell_formula_units_Z            4
_exptl_crystal_recrystallization_method 'ethyl acetate'
loop_
_atom_site_label
_atom_site_type_symbol
_atom_site_fract_x
_atom_site_fract_y
_atom_site_fract_z
C1 C 0.1706(3) 0.57734(13) 1.22278(14)
H1 H 0.2176 0.6100 1.1862
H2 H 0.0827 0.5943 1.2121
C2 C 0.2202(4) 0.59926(16) 1.31306(16)
H3 H 0.3099 0.5867 1.3232
H4 H 0.2092 0.6593 1.3222
C3 C 0.1514(3) 0.54990(15) 1.37259(13)
H5 H 0.0614 0.5647 1.3642
C4 C 0.1666(2) 0.45637(13) 1.35707(12)
H6 H 0.121(2) 0.4227(16) 1.3923(16)
H7 H 0.261(3) 0.4389(19) 1.3735(17)
C5 C 0.12917(16) 0.43117(10) 1.26804(11)
C6 C 0.05791(16) 0.36338(11) 1.25109(10)
H8 H 0.0247 0.3381 1.2954
C7 C 0.02539(15) 0.32325(10) 1.16725(10)
C8 C 0.08040(14) 0.36997(9) 1.09524(10)
H9 H 0.1632 0.3455 1.0892
C9 C 0.09913(16) 0.46541(10) 1.11664(10)
H10 H 0.0150 0.4882 1.1219
C10 C 0.18085(17) 0.48212(11) 1.20097(11)
C11 C 0.1480(2) 0.51379(12) 1.04484(12)
H11 H 0.1517 0.5736 1.0583
H12 H 0.2334 0.4951 1.0397
C12 C 0.0664(2) 0.50181(11) 0.96138(12)
H13 H -0.0163 0.5265 0.9641
H14 H 0.1051 0.5312 0.9185
C13 C 0.05120(16) 0.40839(10) 0.93851(10)
C14 C -0.00339(15) 0.36278(10) 1.01111(10)
H15 H -0.0823 0.3922 1.0181
C15 C -0.0423(2) 0.27610(12) 0.97408(11)
H16 H -0.1074 0.2506 1.0028
H17 H 0.0296 0.2382 0.9772
C16 C -0.0929(2) 0.29606(15) 0.88328(12)
H18 H -0.1843 0.2908 0.8748
H19 H -0.0575 0.2570 0.8463
C17 C -0.05339(17) 0.38793(11) 0.86541(11)
H20 H -0.1259 0.4242 0.8723
C18 C 0.17804(18) 0.37071(13) 0.92108(13)
H21 H 0.1655 0.3135 0.9022
H22 H 0.2365 0.3715 0.9710
H23 H 0.2115 0.4035 0.8791
C19 C 0.3200(2) 0.4561(2) 1.19936(16)
H24 H 0.3558 0.4889 1.1583
H25 H 0.3240 0.3972 1.1859
H26 H 0.3667 0.4662 1.2529
C20 C -0.02479(19) 0.39904(12) 0.77527(11)
H27 H 0.0459 0.3617 0.7669
C21 C 0.0131(3) 0.48925(15) 0.75596(14)
H28 H 0.0216 0.4940 0.6979
H29 H 0.0923 0.5027 0.7881
H30 H -0.0507 0.5278 0.7697
C22 C -0.1394(2) 0.37179(16) 0.71461(12)
H31 H -0.1747 0.3210 0.7362
H32 H -0.2032 0.4157 0.7132
C23 C -0.1137(2) 0.35447(16) 0.62622(12)
H33 H -0.0524 0.3091 0.6262
H34 H -0.0780 0.4046 0.6037
C24 C -0.2349(2) 0.32987(15) 0.57184(12)
H35 H -0.2899 0.3789 0.5662
H36 H -0.2771 0.2867 0.6007
C25 C -0.2211(2) 0.29698(14) 0.48475(12)
C26 C -0.1685(3) 0.3644(2) 0.43159(16)
H37 H -0.2265 0.4109 0.4240
H38 H -0.1570 0.3408 0.3785
H39 H -0.0886 0.3839 0.4587
C27 C -0.3486(3) 0.2646(2) 0.44379(18)
H40 H -0.4097 0.3094 0.4415
H41 H -0.3759 0.2185 0.4756
H42 H -0.3404 0.2457 0.3885
O1 O -0.13908(17) 0.22445(11) 0.49019(11)
H43 H -0.063(4) 0.243(3) 0.502(2)
O2 O -0.10897(12) 0.31425(10) 1.15066(9)
H44 H -0.142(3) 0.350(2) 1.1828(19)
C28 C 0.0754(2) 0.23201(11) 1.17838(12)
F1 F 0.03141(18) 0.19405(8) 1.24282(9)
F2 F 0.20044(14) 0.23094(9) 1.19421(11)
F3 F 0.04403(17) 0.18183(8) 1.11374(8)
O3 O 0.2007(2) 0.56381(12) 1.45756(11)
H45 H 0.180(3) 0.613(2) 1.470(2)
C29 C 0.4673(2) 0.41945(11) 0.76615(13)
H46 H 0.5468 0.3909 0.7832
H47 H 0.4061 0.3984 0.8007
C30 C 0.4228(3) 0.39612(14) 0.67593(14)
H48 H 0.487(3) 0.415(2) 0.6392(19)
H49 H 0.417(3) 0.337(2) 0.6732(18)
C31 C 0.2997(2) 0.44002(13) 0.64629(14)
H50 H 0.237(3) 0.4233(19) 0.6820(19)
C32 C 0.3171(2) 0.53487(13) 0.65362(12)
H51 H 0.3717 0.5533 0.6135
H52 H 0.2357 0.5621 0.6398
C33 C 0.37350(17) 0.56346(10) 0.73925(10)
C34 C 0.32802(16) 0.63158(11) 0.77266(11)
H53 H 0.2540 0.6544 0.7453
C35 C 0.38498(15) 0.67560(9) 0.85090(10)
C36 C 0.49748(14) 0.62675(9) 0.90039(9)
H54 H 0.5765 0.6498 0.8846
C37 C 0.49117(15) 0.53174(9) 0.87743(10)
H55 H 0.4113 0.5105 0.8936
C38 C 0.48599(16) 0.51545(10) 0.78255(10)
C39 C 0.59716(19) 0.48167(11) 0.92888(12)
H56 H 0.5853 0.4220 0.9168
H57 H 0.6777 0.4983 0.9119
C40 C 0.60197(19) 0.49500(10) 1.02272(11)
H58 H 0.5257 0.4724 1.0413
H59 H 0.6735 0.4644 1.0511
C41 C 0.61403(14) 0.58877(9) 1.04532(10)
C42 C 0.50110(15) 0.63552(9) 0.99534(10)
H60 H 0.4244 0.6079 1.0097
C43 C 0.5051(2) 0.72311(12) 1.03618(12)
H61 H 0.4233 0.7507 1.0265
H62 H 0.5679 0.7589 1.0153
C44 C 0.5409(2) 0.70376(13) 1.12876(12)
H63 H 0.4677 0.7098 1.1583
H64 H 0.6059 0.7425 1.1527
C45 C 0.59070(16) 0.61112(10) 1.13555(10)
H65 H 0.5201 0.5758 1.1484
C46 C 0.74224(17) 0.62427(14) 1.02718(13)
H66 H 0.7492 0.6824 1.0441
H67 H 0.7482 0.6203 0.9688
H68 H 0.8093 0.5922 1.0573
C47 C 0.6064(2) 0.54560(14) 0.74785(13)
H69 H 0.6784 0.5166 0.7759
H70 H 0.6163 0.6054 0.7565
H71 H 0.5994 0.5336 0.6895
C48 C 0.69701(18) 0.60047(12) 1.20799(12)
H72 H 0.7649 0.6399 1.1990
C49 C 0.7534(3) 0.51159(16) 1.21451(15)
H73 H 0.7920 0.4993 1.1655
H74 H 0.6877 0.4712 1.2199
H75 H 0.8160 0.5084 1.2623
C50 C 0.6483(2) 0.62471(15) 1.28994(13)
H76 H 0.5977 0.6756 1.2808
H77 H 0.5931 0.5800 1.3050
C51 C 0.7497(2) 0.64009(17) 1.36292(13)
H78 H 0.7962 0.5881 1.3761
H79 H 0.8088 0.6822 1.3475
C52 C 0.6929(2) 0.67019(15) 1.43897(12)
H80 H 0.6393 0.6256 1.4560
H81 H 0.6391 0.7184 1.4231
C53 C 0.7869(2) 0.69567(13) 1.51440(11)
C54 C 0.8689(3) 0.62179(16) 1.54745(16)
H82 H 0.8165 0.5781 1.5661
H83 H 0.9284 0.6404 1.5930
H84 H 0.9136 0.6001 1.5042
C55 C 0.7140(3) 0.7332(2) 1.58110(14)
H85 H 0.6575 0.6914 1.5985
H86 H 0.6662 0.7812 1.5589
H87 H 0.7724 0.7505 1.6278
O4 O 0.87348(15) 0.75847(11) 1.49025(10)
H88 H 0.833(3) 0.799(2) 1.473(2)
O5 O 0.29149(12) 0.69060(9) 0.90420(8)
H89 H 0.230(3) 0.720(2) 0.8753(19)
C56 C 0.43169(19) 0.76177(11) 0.82148(12)
F4 F 0.33671(13) 0.80537(8) 0.77818(9)
F5 F 0.48099(18) 0.81218(8) 0.88231(9)
F6 F 0.51925(12) 0.75310(8) 0.77036(9)
O6 O 0.2567(2) 0.41559(12) 0.56238(11)
H90 H 0.236(3) 0.464(3) 0.536(2)
loop_
_geom_bond_atom_site_label_1
_geom_bond_atom_site_label_2
_geom_bond_site_symmetry_1
_geom_bond_site_symmetry_2
C1 H1 1_555 1_555
H2 C1 1_555 1_555
C2 C1 1_555 1_555
H3 C2 1_555 1_555
H4 C2 1_555 1_555
C3 C2 1_555 1_555
H5 C3 1_555 1_555
C4 C3 1_555 1_555
H6 C4 1_555 1_555
H7 C4 1_555 1_555
C5 C4 1_555 1_555
C6 C5 1_555 1_555
H8 C6 1_555 1_555
C7 C6 1_555 1_555
C8 C7 1_555 1_555
H9 C8 1_555 1_555
C9 C8 1_555 1_555
H10 C9 1_555 1_555
C10 C1 1_555 1_555
C11 C9 1_555 1_555
H11 C11 1_555 1_555
H12 C11 1_555 1_555
C12 C11 1_555 1_555
H13 C12 1_555 1_555
H14 C12 1_555 1_555
C13 C12 1_555 1_555
C14 C8 1_555 1_555
H15 C14 1_555 1_555
C15 C14 1_555 1_555
H16 C15 1_555 1_555
H17 C15 1_555 1_555
C16 C15 1_555 1_555
H18 C16 1_555 1_555
H19 C16 1_555 1_555
C17 C13 1_555 1_555
H20 C17 1_555 1_555
C18 C13 1_555 1_555
H21 C18 1_555 1_555
H22 C18 1_555 1_555
H23 C18 1_555 1_555
C19 C10 1_555 1_555
H24 C19 1_555 1_555
H25 C19 1_555 1_555
H26 C19 1_555 1_555
C20 C17 1_555 1_555
H27 C20 1_555 1_555
C21 C20 1_555 1_555
H28 C21 1_555 1_555
H29 C21 1_555 1_555
H30 C21 1_555 1_555
C22 C20 1_555 1_555
H31 C22 1_555 1_555
H32 C22 1_555 1_555
C23 C22 1_555 1_555
H33 C23 1_555 1_555
H34 C23 1_555 1_555
C24 C23 1_555 1_555
H35 C24 1_555 1_555
H36 C24 1_555 1_555
C25 C24 1_555 1_555
C26 C25 1_555 1_555
H37 C26 1_555 1_555
H38 C26 1_555 1_555
H39 C26 1_555 1_555
C27 C25 1_555 1_555
H40 C27 1_555 1_555
H41 C27 1_555 1_555
H42 C27 1_555 1_555
O1 C25 1_555 1_555
H43 O1 1_555 1_555
O2 C7 1_555 1_555
H44 O2 1_555 1_555
C28 C7 1_555 1_555
F1 C28 1_555 1_555
F2 C28 1_555 1_555
F3 C28 1_555 1_555
O3 C3 1_555 1_555
H45 O3 1_555 1_555
C29 H46 1_555 1_555
H47 C29 1_555 1_555
C30 C29 1_555 1_555
H48 C30 1_555 1_555
H49 C30 1_555 1_555
C31 C30 1_555 1_555
H50 C31 1_555 1_555
C32 C31 1_555 1_555
H51 C32 1_555 1_555
H52 C32 1_555 1_555
C33 C32 1_555 1_555
C34 C33 1_555 1_555
H53 C34 1_555 1_555
C35 C34 1_555 1_555
C36 C35 1_555 1_555
H54 C36 1_555 1_555
C37 C36 1_555 1_555
H55 C37 1_555 1_555
C38 C29 1_555 1_555
C39 C37 1_555 1_555
H56 C39 1_555 1_555
H57 C39 1_555 1_555
C40 C39 1_555 1_555
H58 C40 1_555 1_555
H59 C40 1_555 1_555
C41 C40 1_555 1_555
C42 C36 1_555 1_555
H60 C42 1_555 1_555
C43 C42 1_555 1_555
H61 C43 1_555 1_555
H62 C43 1_555 1_555
C44 C43 1_555 1_555
H63 C44 1_555 1_555
H64 C44 1_555 1_555
C45 C41 1_555 1_555
H65 C45 1_555 1_555
C46 C41 1_555 1_555
H66 C46 1_555 1_555
H67 C46 1_555 1_555
H68 C46 1_555 1_555
C47 C38 1_555 1_555
H69 C47 1_555 1_555
H70 C47 1_555 1_555
H71 C47 1_555 1_555
C48 C45 1_555 1_555
H72 C48 1_555 1_555
C49 C48 1_555 1_555
H73 C49 1_555 1_555
H74 C49 1_555 1_555
H75 C49 1_555 1_555
C50 C48 1_555 1_555
H76 C50 1_555 1_555
H77 C50 1_555 1_555
C51 C50 1_555 1_555
H78 C51 1_555 1_555
H79 C51 1_555 1_555
C52 C51 1_555 1_555
H80 C52 1_555 1_555
H81 C52 1_555 1_555
C53 C52 1_555 1_555
C54 C53 1_555 1_555
H82 C54 1_555 1_555
H83 C54 1_555 1_555
H84 C54 1_555 1_555
C55 C53 1_555 1_555
H85 C55 1_555 1_555
H86 C55 1_555 1_555
H87 C55 1_555 1_555
O4 C53 1_555 1_555
H88 O4 1_555 1_555
O5 C35 1_555 1_555
H89 O5 1_555 1_555
C56 C35 1_555 1_555
F4 C56 1_555 1_555
F5 C56 1_555 1_555
F6 C56 1_555 1_555
O6 C31 1_555 1_555
H90 O6 1_555 1_555
C5 C10 1_555 1_555
C9 C10 1_555 1_555
C13 C14 1_555 1_555
C16 C17 1_555 1_555
C33 C38 1_555 1_555
C37 C38 1_555 1_555
C41 C42 1_555 1_555
C44 C45 1_555 1_555

#END
