
#######################################################################
#
#                 Cambridge Crystallographic Data Centre
#                                CCDC 
#
#######################################################################
#
# If this CIF has been generated from an entry in the Cambridge 
# Structural Database, then it will include bibliographic, chemical, 
# crystal, experimental, refinement or atomic coordinate data resulting 
# from the CCDC's data processing and validation procedures.
#
#######################################################################

data_IWABAL02
_chemical_name_common            
"(S)-7,7'-Diethoxy-2'-hydroxy-[1,1'-binaphthalen]-2-yl (1R,4S)-1,2,3,4-tetrahydro-1,4-epoxynaphthalene-1-carboxylate monohydrate"
_chemical_formula_moiety         'C35 H30 O6,H2 O1'
_chemical_name_systematic        
"(S)-7,7'-diethoxy-2'-hydroxy-1,1'-binaphthalen-2-yl (1R,8S)-11-oxatricyclo[6.2.1.0^2,7^]undeca-2,4,6-triene-1-carboxylate monohydrate"
_symmetry_cell_setting           orthorhombic
_symmetry_space_group_name_H-M   'P 21 21 21'
_symmetry_Int_Tables_number      19
_space_group_name_Hall           'P 2ac 2ab'
loop_
_symmetry_equiv_pos_site_id
_symmetry_equiv_pos_as_xyz
1 x,y,z
2 1/2+x,1/2-y,-z
3 -x,1/2+y,1/2-z
4 1/2-x,-y,1/2+z
_cell_length_a                   11.3580(2)
_cell_length_b                   12.5450(4)
_cell_length_c                   21.2690(7)
_cell_angle_alpha                90
_cell_angle_beta                 90
_cell_angle_gamma                90
_cell_volume                     3030.54
_exptl_crystal_colour            colorless
_exptl_crystal_description       prism
_cell_formula_units_Z            4
loop_
_atom_site_label
_atom_site_type_symbol
_atom_site_fract_x
_atom_site_fract_y
_atom_site_fract_z
C1 C 0.75871(18) 0.03317(17) 0.12864(9)
O1 O 0.91947(13) -0.08970(13) 0.12799(7)
C2 C 0.96893(17) 0.13322(17) 0.18675(9)
H1 H 0.92933(17) 0.07943(17) 0.20816(9)
C3 C 0.64166(18) 0.05809(17) 0.14835(10)
O2 O 0.43074(15) 0.28250(14) 0.15632(9)
C4 C 0.57161(19) -0.02247(18) 0.17706(10)
O3 O 1.11446(16) 0.14833(13) 0.26907(7)
C5 C 0.59429(18) 0.16194(18) 0.14128(10)
H2 H 0.63972(18) 0.21531(18) 0.12304(10)
C6 C 1.06513(18) 0.17906(17) 0.21304(9)
C7 C 0.8003(2) 0.1466(2) 0.03610(10)
C8 C 0.92784(17) 0.16682(16) 0.12645(9)
C9 C 0.83128(17) 0.11574(17) 0.09622(9)
O4 O 0.71269(16) 0.09976(19) 0.00263(9)
C10 C 0.79979(18) -0.06756(19) 0.14027(10)
C11 C 1.1234(2) 0.26421(19) 0.18309(11)
H3 H 1.1873(2) 0.29692(19) 0.20247(11)
C12 C 0.7316(2) -0.1469(2) 0.16858(12)
H4 H 0.7627(2) -0.2146(2) 0.17516(12)
C13 C 0.9496(2) 0.2821(2) 0.03526(11)
H5 H 0.9871(2) 0.3383(2) 0.01503(11)
C14 C 0.48248(19) 0.18438(19) 0.16100(11)
C15 C 0.4561(2) 0.0050(2) 0.19608(12)
H6 H 0.4088(2) -0.0470(2) 0.21434(12)
O5 O 1.12401(18) -0.16480(16) 0.00843(8)
C16 C 1.15684(19) -0.17127(17) 0.11484(10)
C17 C 1.0862(2) 0.29838(19) 0.12592(11)
H7 H 1.1255(2) 0.35419(19) 0.10625(11)
C18 C 0.4124(2) 0.1044(2) 0.18857(12)
H8 H 0.3361(2) 0.1200(2) 0.20157(12)
C19 C 0.98827(19) 0.25050(18) 0.09565(10)
C20 C 1.3525(2) -0.2473(2) 0.11528(14)
H9 H 1.4228(2) -0.2635(2) 0.09496(14)
C21 C 1.0847(2) -0.11354(19) 0.06553(11)
C22 C 1.1419(2) -0.19583(19) 0.17736(11)
H10 H 1.0726(2) -0.17813(19) 0.19823(11)
C23 C 0.6206(2) -0.1245(2) 0.18622(12)
H11 H 0.5752(2) -0.1775(2) 0.20487(12)
C24 C 0.9532(2) -0.11388(19) 0.06926(11)
C25 C 0.8588(2) 0.2318(2) 0.00626(12)
H12 H 0.8351(2) 0.2536(2) -0.03356(12)
O6 O 0.8864(2) -0.1292(2) 0.02714(10)
C26 C 1.1392(2) -0.0004(2) 0.05790(13)
H13 H 1.0906(2) 0.0448(2) 0.03154(13)
H14 H 1.1510(2) 0.0339(2) 0.09829(13)
C27 C 1.2622(2) -0.19605(19) 0.08412(12)
C28 C 1.2493(3) -0.1493(2) 0.01957(13)
H15 H 1.3008(3) -0.1809(2) -0.01234(13)
C29 C 0.4986(3) 0.3673(2) 0.13110(15)
H16 H 0.5676(3) 0.3798(2) 0.15698(15)
H17 H 0.5245(3) 0.3499(2) 0.08887(15)
C30 C 1.3351(2) -0.2736(2) 0.17762(14)
H18 H 1.3939(2) -0.3097(2) 0.19935(14)
C31 C 1.2320(2) -0.2473(2) 0.20831(12)
H19 H 1.2232(2) -0.2646(2) 0.25057(12)
C32 C 0.4219(4) 0.4646(3) 0.13003(19)
H20 H 0.3552(14) 0.4520(9) 0.1033(11)
H21 H 0.395(2) 0.4800(14) 0.1719(3)
H22 H 0.4661(9) 0.5240(6) 0.1142(13)
C33 C 1.2588(3) -0.0273(3) 0.02550(14)
H23 H 1.2653(3) 0.0066(3) -0.01534(14)
H24 H 1.3252(3) -0.0066(3) 0.05144(14)
C34 C 1.0708(3) 0.0556(2) 0.29878(14)
H25 H 0.9914(3) 0.0674(2) 0.31399(14)
H26 H 1.0697(3) -0.0037(2) 0.26951(14)
C35 C 1.1515(6) 0.0326(5) 0.3520(3)
H27 H 1.2313(7) 0.045(5) 0.3392(10)
H28 H 1.133(4) 0.078(4) 0.3868(11)
H29 H 1.143(4) -0.0405(15) 0.365(2)
H30 H 0.680(3) 0.035(3) 0.0174(17)
O7 O 0.5883(3) -0.0934(3) 0.01577(16)
H31 H 0.572(2) -0.0943(19) -0.0323(8)
H32 H 0.64(3) -0.144(7) 0.028(3)
loop_
_geom_bond_atom_site_label_1
_geom_bond_atom_site_label_2
_geom_bond_site_symmetry_1
_geom_bond_site_symmetry_2
C1 C3 1_555 1_555
O1 C10 1_555 1_555
C2 H1 1_555 1_555
C3 C4 1_555 1_555
O2 C14 1_555 1_555
C4 C15 1_555 1_555
O3 C6 1_555 1_555
C5 C3 1_555 1_555
H2 C5 1_555 1_555
C6 C2 1_555 1_555
C7 C9 1_555 1_555
C8 C2 1_555 1_555
C9 C1 1_555 1_555
O4 C7 1_555 1_555
C10 C1 1_555 1_555
C11 C6 1_555 1_555
H3 C11 1_555 1_555
C12 C10 1_555 1_555
H4 C12 1_555 1_555
C13 H5 1_555 1_555
C14 C5 1_555 1_555
C15 H6 1_555 1_555
O5 C21 1_555 1_555
C16 C21 1_555 1_555
C17 C11 1_555 1_555
H7 C17 1_555 1_555
C18 C14 1_555 1_555
H8 C18 1_555 1_555
C19 C8 1_555 1_555
C20 H9 1_555 1_555
C21 C24 1_555 1_555
C22 C16 1_555 1_555
H10 C22 1_555 1_555
C23 C4 1_555 1_555
H11 C23 1_555 1_555
C24 O1 1_555 1_555
C25 C7 1_555 1_555
H12 C25 1_555 1_555
O6 C24 1_555 1_555
C26 C21 1_555 1_555
H13 C26 1_555 1_555
H14 C26 1_555 1_555
C27 C16 1_555 1_555
C28 O5 1_555 1_555
H15 C28 1_555 1_555
C29 O2 1_555 1_555
H16 C29 1_555 1_555
H17 C29 1_555 1_555
C30 C20 1_555 1_555
H18 C30 1_555 1_555
C31 C22 1_555 1_555
H19 C31 1_555 1_555
C32 C29 1_555 1_555
H20 C32 1_555 1_555
H21 C32 1_555 1_555
H22 C32 1_555 1_555
C33 C26 1_555 1_555
H23 C33 1_555 1_555
H24 C33 1_555 1_555
C34 O3 1_555 1_555
H25 C34 1_555 1_555
H26 C34 1_555 1_555
C35 C34 1_555 1_555
H27 C35 1_555 1_555
H28 C35 1_555 1_555
H29 C35 1_555 1_555
H30 O4 1_555 1_555
O7 H31 1_555 1_555
H32 O7 1_555 1_555
C8 C9 1_555 1_555
C12 C23 1_555 1_555
C13 C19 1_555 1_555
C13 C25 1_555 1_555
C15 C18 1_555 1_555
C17 C19 1_555 1_555
C20 C27 1_555 1_555
C27 C28 1_555 1_555
C28 C33 1_555 1_555
C30 C31 1_555 1_555

#END
