
#######################################################################
#
#                 Cambridge Crystallographic Data Centre
#                                CCDC 
#
#######################################################################
#
# If this CIF has been generated from an entry in the Cambridge 
# Structural Database, then it will include bibliographic, chemical, 
# crystal, experimental, refinement or atomic coordinate data resulting 
# from the CCDC's data processing and validation procedures.
#
#######################################################################

data_IWAHOF
_chemical_formula_moiety         'C70 H44 F12 N2 S4,1.5(C2 H6 O1)'
_chemical_name_systematic        
'4-(4-(2-(5-(4-(4-(2-(5-(4-(diphenylamino)phenyl)-2-methyl-3-thienyl)-3,3,4,4,5,5-hexafluorocyclopent-1-en-1-yl)-5-methyl-2-thienyl)buta-1,3-diyn-1-yl)-2-methyl-3-thienyl)-3,3,4,4,5,5-hexafluorocyclopent-1-en-1-yl)-5-methyl-2-thienyl)-N,N-diphenylaniline ethanol solvate'
_symmetry_cell_setting           monoclinic
_symmetry_space_group_name_H-M   'C 2/c'
_symmetry_Int_Tables_number      15
_space_group_name_Hall           '-C 2yn'
loop_
_symmetry_equiv_pos_site_id
_symmetry_equiv_pos_as_xyz
1 x,y,z
2 -x,y,1/2-z
3 1/2+x,1/2+y,z
4 1/2-x,1/2+y,1/2-z
5 -x,-y,-z
6 x,-y,1/2+z
7 1/2-x,1/2-y,-z
8 1/2+x,1/2-y,1/2+z
_cell_length_a                   65.27(7)
_cell_length_b                   8.368(9)
_cell_length_c                   12.001(12)
_cell_angle_alpha                90
_cell_angle_beta                 95.370(19)
_cell_angle_gamma                90
_cell_volume                     6525.93
_exptl_crystal_colour            colorless
_exptl_crystal_description       block
_cell_formula_units_Z            4
loop_
_atom_site_label
_atom_site_type_symbol
_atom_site_fract_x
_atom_site_fract_y
_atom_site_fract_z
S1 S 0.12760(2) 0.99844(11) 0.36014(8)
S2 S 0.03817(2) 0.98070(13) 0.32011(9)
C1 C 0.05981(5) 0.7338(4) 0.3011(3)
C2 C 0.10763(5) 0.7451(4) 0.3859(3)
C3 C 0.13236(5) 0.9004(4) 0.4849(3)
C4 C 0.14773(5) 0.9657(4) 0.5705(3)
C5 C 0.09407(6) 0.6083(4) 0.3655(3)
C6 C 0.10965(5) 0.8614(4) 0.3093(3)
C7 C 0.03446(6) 0.8771(5) 0.1973(3)
C8 C 0.05645(5) 0.8516(4) 0.3755(3)
C9 C 0.04727(5) 0.7503(5) 0.1991(3)
H1 H 0.0478 0.6805 0.1391
C10 C 0.07432(5) 0.6038(4) 0.3258(3)
C11 C 0.12078(5) 0.7666(4) 0.4864(3)
H2 H 0.1213 0.6962 0.5465
F1 F 0.10738(8) 0.4149(4) 0.4926(4)
C12 C 0.22107(7) 0.9748(6) 0.7434(4)
H3 H 0.2141 0.9677 0.6722
N1 N 0.19451(5) 1.1476(4) 0.8000(3)
F2 F 0.05774(7) 0.4004(3) 0.2169(4)
F3 F 0.08290(6) 0.2134(5) 0.4038(5)
F4 F 0.09109(7) 0.2663(6) 0.2486(5)
C13 C 0.00732(6) 0.9753(5) 0.0400(3)
C14 C 0.19238(6) 1.3027(5) 0.8449(3)
C15 C 0.21301(6) 1.0661(5) 0.8221(3)
C16 C 0.09946(6) 0.8798(5) 0.1932(3)
H4 H 0.1042 0.9761 0.1607
H5 H 0.1028 0.7897 0.1488
H6 H 0.0848 0.8855 0.1957
C17 C 0.01999(6) 0.9288(5) 0.1101(3)
C18 C 0.15936(6) 0.8660(5) 0.6435(3)
H7 H 0.1569 0.7565 0.6407
C19 C 0.06567(7) 0.8738(5) 0.4924(3)
H8 H 0.0602 0.9688 0.5231
H9 H 0.0625 0.7832 0.5366
H10 H 0.0803 0.8839 0.4930
C20 C 0.23919(7) 0.8929(7) 0.7663(4)
H11 H 0.2444 0.8310 0.7111
C21 C 0.06721(7) 0.4367(6) 0.3120(5)
F5 F 0.11954(6) 0.4194(4) 0.3429(6)
C22 C 0.17854(6) 1.0864(5) 0.7253(3)
C23 C 0.17438(6) 0.9251(5) 0.7199(3)
H12 H 0.1818 0.8555 0.7685
C24 C 0.10228(7) 0.4438(5) 0.3862(5)
C25 C 0.16646(6) 1.1864(5) 0.6549(3)
H13 H 0.1686 1.2962 0.6590
C26 C 0.15154(6) 1.1270(5) 0.5799(3)
H14 H 0.1437 1.1973 0.5335
C27 C 0.08565(8) 0.3353(5) 0.3424(6)
C28 C 0.22399(8) 1.0760(6) 0.9256(4)
H15 H 0.2190 1.1389 0.9808
C29 C 0.24965(8) 0.9023(7) 0.8707(5)
H16 H 0.2618 0.8450 0.8872
C30 C 0.20463(8) 1.5671(6) 0.8840(5)
H17 H 0.2149 1.6432 0.8791
C31 C 0.24219(9) 0.9953(7) 0.9492(5)
H18 H 0.2494 1.0048 1.0195
C32 C 0.20700(7) 1.4182(6) 0.8381(4)
H19 H 0.2187 1.3960 0.8021
C33 C 0.17308(9) 1.4923(7) 0.9404(5)
H20 H 0.1613 1.5182 0.9743
C34 C 0.17528(7) 1.3422(6) 0.8967(4)
H21 H 0.1650 1.2665 0.9023
C35 C 0.18844(9) 1.6048(6) 0.9341(5)
H22 H 0.1872 1.7058 0.9651
F6 F 0.05330(6) 0.4017(4) 0.3838(6)
S1D S -0.12760(2) 1.00156(11) -0.36014(8)
S2D S -0.03817(2) 1.01930(13) -0.32011(9)
C1D C -0.05981(5) 1.2662(4) -0.3011(3)
C2D C -0.10763(5) 1.2549(4) -0.3859(3)
C3D C -0.13236(5) 1.0996(4) -0.4849(3)
C4D C -0.14773(5) 1.0343(4) -0.5705(3)
C5D C -0.09407(6) 1.3917(4) -0.3655(3)
C6D C -0.10965(5) 1.1386(4) -0.3093(3)
C7D C -0.03446(6) 1.1229(5) -0.1973(3)
C8D C -0.05645(5) 1.1484(4) -0.3755(3)
C9D C -0.04727(5) 1.2497(5) -0.1991(3)
H1D H -0.0478 1.3195 -0.1391
C10D C -0.07432(5) 1.3962(4) -0.3258(3)
C11D C -0.12078(5) 1.2334(4) -0.4864(3)
H2D H -0.1213 1.3038 -0.5465
F1D F -0.10738(8) 1.5851(4) -0.4926(4)
C12D C -0.22107(7) 1.0252(6) -0.7434(4)
H3D H -0.2141 1.0323 -0.6722
N1D N -0.19451(5) 0.8524(4) -0.8000(3)
F2D F -0.05774(7) 1.5996(3) -0.2169(4)
F3D F -0.08290(6) 1.7866(5) -0.4038(5)
F4D F -0.09109(7) 1.7337(6) -0.2486(5)
C13D C -0.00732(6) 1.0247(5) -0.0400(3)
C14D C -0.19238(6) 0.6973(5) -0.8449(3)
C15D C -0.21301(6) 0.9339(5) -0.8221(3)
C16D C -0.09946(6) 1.1202(5) -0.1932(3)
H4D H -0.1042 1.0239 -0.1607
H5D H -0.1028 1.2103 -0.1488
H6D H -0.0848 1.1145 -0.1957
C17D C -0.01999(6) 1.0712(5) -0.1101(3)
C18D C -0.15936(6) 1.1340(5) -0.6435(3)
H7D H -0.1569 1.2435 -0.6407
C19D C -0.06567(7) 1.1262(5) -0.4924(3)
H8D H -0.0602 1.0312 -0.5231
H9D H -0.0625 1.2168 -0.5366
H10D H -0.0803 1.1161 -0.4930
C20D C -0.23919(7) 1.1071(7) -0.7663(4)
H11D H -0.2444 1.1690 -0.7111
C21D C -0.06721(7) 1.5633(6) -0.3120(5)
F5D F -0.11954(6) 1.5806(4) -0.3429(6)
C22D C -0.17854(6) 0.9136(5) -0.7253(3)
C23D C -0.17438(6) 1.0749(5) -0.7199(3)
H12D H -0.1818 1.1445 -0.7685
C24D C -0.10228(7) 1.5562(5) -0.3862(5)
C25D C -0.16646(6) 0.8136(5) -0.6549(3)
H13D H -0.1686 0.7038 -0.6590
C26D C -0.15154(6) 0.8730(5) -0.5799(3)
H14D H -0.1437 0.8027 -0.5335
C27D C -0.08565(8) 1.6647(5) -0.3424(6)
C28D C -0.22399(8) 0.9240(6) -0.9256(4)
H15D H -0.2190 0.8611 -0.9808
C29D C -0.24965(8) 1.0977(7) -0.8707(5)
H16D H -0.2618 1.1550 -0.8872
C30D C -0.20463(8) 0.4329(6) -0.8840(5)
H17D H -0.2149 0.3568 -0.8791
C31D C -0.24219(9) 1.0047(7) -0.9492(5)
H18D H -0.2494 0.9952 -1.0195
C32D C -0.20700(7) 0.5818(6) -0.8381(4)
H19D H -0.2187 0.6040 -0.8021
C33D C -0.17308(9) 0.5077(7) -0.9404(5)
H20D H -0.1613 0.4818 -0.9743
C34D C -0.17528(7) 0.6578(6) -0.8967(4)
H21D H -0.1650 0.7335 -0.9023
C35D C -0.18844(9) 0.3952(6) -0.9341(5)
H22D H -0.1872 0.2942 -0.9651
F6D F -0.05330(6) 1.5983(4) -0.3838(6)
loop_
_geom_bond_atom_site_label_1
_geom_bond_atom_site_label_2
_geom_bond_site_symmetry_1
_geom_bond_site_symmetry_2
S1 C3 1_555 1_555
S2 C7 1_555 1_555
C1 C8 1_555 1_555
C2 C5 1_555 1_555
C3 C4 1_555 1_555
C4 C18 1_555 1_555
C5 C10 1_555 1_555
C6 S1 1_555 1_555
C7 C9 1_555 1_555
C8 S2 1_555 1_555
C9 C1 1_555 1_555
H1 C9 1_555 1_555
C10 C1 1_555 1_555
C11 C2 1_555 1_555
H2 C11 1_555 1_555
F1 C24 1_555 1_555
C12 H3 1_555 1_555
N1 C14 1_555 1_555
F2 C21 1_555 1_555
F3 C27 1_555 1_555
F4 C27 1_555 1_555
C13 C17 1_555 1_555
C14 C32 1_555 1_555
C15 C12 1_555 1_555
C16 C6 1_555 1_555
H4 C16 1_555 1_555
H5 C16 1_555 1_555
H6 C16 1_555 1_555
C17 C7 1_555 1_555
C18 H7 1_555 1_555
C19 C8 1_555 1_555
H8 C19 1_555 1_555
H9 C19 1_555 1_555
H10 C19 1_555 1_555
C20 C12 1_555 1_555
H11 C20 1_555 1_555
C21 C10 1_555 1_555
F5 C24 1_555 1_555
C22 N1 1_555 1_555
C23 C18 1_555 1_555
H12 C23 1_555 1_555
C24 C5 1_555 1_555
C25 C22 1_555 1_555
H13 C25 1_555 1_555
C26 C4 1_555 1_555
H14 C26 1_555 1_555
C27 C21 1_555 1_555
C28 C15 1_555 1_555
H15 C28 1_555 1_555
C29 C20 1_555 1_555
H16 C29 1_555 1_555
C30 H17 1_555 1_555
C31 C28 1_555 1_555
H18 C31 1_555 1_555
C32 C30 1_555 1_555
H19 C32 1_555 1_555
C33 H20 1_555 1_555
C34 C14 1_555 1_555
H21 C34 1_555 1_555
C35 C30 1_555 1_555
H22 C35 1_555 1_555
F6 C21 1_555 1_555
S1D C3D 1_555 1_555
S2D C7D 1_555 1_555
C1D C8D 1_555 1_555
C2D C5D 1_555 1_555
C3D C4D 1_555 1_555
C4D C18D 1_555 1_555
C5D C10D 1_555 1_555
C6D S1D 1_555 1_555
C7D C9D 1_555 1_555
C8D S2D 1_555 1_555
C9D C1D 1_555 1_555
H1D C9D 1_555 1_555
C10D C1D 1_555 1_555
C11D C2D 1_555 1_555
H2D C11D 1_555 1_555
F1D C24D 1_555 1_555
C12D H3D 1_555 1_555
N1D C14D 1_555 1_555
F2D C21D 1_555 1_555
F3D C27D 1_555 1_555
F4D C27D 1_555 1_555
C13D C13 1_555 1_555
C14D C32D 1_555 1_555
C15D C12D 1_555 1_555
C16D C6D 1_555 1_555
H4D C16D 1_555 1_555
H5D C16D 1_555 1_555
H6D C16D 1_555 1_555
C17D C7D 1_555 1_555
C18D H7D 1_555 1_555
C19D C8D 1_555 1_555
H8D C19D 1_555 1_555
H9D C19D 1_555 1_555
H10D C19D 1_555 1_555
C20D C12D 1_555 1_555
H11D C20D 1_555 1_555
C21D C10D 1_555 1_555
F5D C24D 1_555 1_555
C22D N1D 1_555 1_555
C23D C18D 1_555 1_555
H12D C23D 1_555 1_555
C24D C5D 1_555 1_555
C25D C22D 1_555 1_555
H13D C25D 1_555 1_555
C26D C4D 1_555 1_555
H14D C26D 1_555 1_555
C27D C21D 1_555 1_555
C28D C15D 1_555 1_555
H15D C28D 1_555 1_555
C29D C20D 1_555 1_555
H16D C29D 1_555 1_555
C30D H17D 1_555 1_555
C31D C28D 1_555 1_555
H18D C31D 1_555 1_555
C32D C30D 1_555 1_555
H19D C32D 1_555 1_555
C33D H20D 1_555 1_555
C34D C14D 1_555 1_555
H21D C34D 1_555 1_555
C35D C30D 1_555 1_555
H22D C35D 1_555 1_555
F6D C21D 1_555 1_555
C2 C6 1_555 1_555
C3 C11 1_555 1_555
N1 C15 1_555 1_555
C22 C23 1_555 1_555
C24 C27 1_555 1_555
C25 C26 1_555 1_555
C29 C31 1_555 1_555
C33 C34 1_555 1_555
C33 C35 1_555 1_555
C2D C6D 1_555 1_555
C3D C11D 1_555 1_555
N1D C15D 1_555 1_555
C13D C17D 1_555 1_555
C22D C23D 1_555 1_555
C24D C27D 1_555 1_555
C25D C26D 1_555 1_555
C29D C31D 1_555 1_555
C33D C34D 1_555 1_555
C33D C35D 1_555 1_555

#END
