
#######################################################################
#
#                 Cambridge Crystallographic Data Centre
#                                CCDC 
#
#######################################################################
#
# If this CIF has been generated from an entry in the Cambridge 
# Structural Database, then it will include bibliographic, chemical, 
# crystal, experimental, refinement or atomic coordinate data resulting 
# from the CCDC's data processing and validation procedures.
#
#######################################################################

data_IWAJEX
_chemical_formula_moiety         'C15 H10 N4 O2'
_chemical_name_systematic        
3-([1,2,4]triazolo[4,3-a]quinoxalin-1-yl)benzene-1,2-diol
_symmetry_cell_setting           orthorhombic
_symmetry_space_group_name_H-M   'P b c a'
_symmetry_Int_Tables_number      61
_space_group_name_Hall           '-P 2ac 2ab'
loop_
_symmetry_equiv_pos_site_id
_symmetry_equiv_pos_as_xyz
1 x,y,z
2 1/2-x,-y,1/2+z
3 1/2+x,1/2-y,-z
4 -x,1/2+y,1/2-z
5 -x,-y,-z
6 1/2+x,y,1/2-z
7 1/2-x,1/2+y,z
8 x,1/2-y,1/2+z
_cell_length_a                   11.492(4)
_cell_length_b                   12.573(4)
_cell_length_c                   16.620(5)
_cell_angle_alpha                90
_cell_angle_beta                 90
_cell_angle_gamma                90
_cell_volume                     2401.41
_exptl_crystal_colour            brown
_exptl_crystal_description       Block
_cell_formula_units_Z            8
loop_
_atom_site_label
_atom_site_type_symbol
_atom_site_fract_x
_atom_site_fract_y
_atom_site_fract_z
O1 O 0.19086(9) 0.24799(7) 0.26815(6)
O2 O 0.40960(8) 0.17836(7) 0.27817(6)
N1 N 0.81643(10) 0.04796(9) 0.37757(7)
N2 N 0.59798(10) -0.13690(8) 0.30477(7)
N3 N 0.57490(10) 0.02115(8) 0.36049(6)
N4 N 0.48222(10) -0.11513(8) 0.31017(7)
C1 C 0.26180(12) -0.03428(10) 0.38542(8)
H1 H 0.2799 -0.0995 0.4114
C2 C 0.14775(12) 0.00024(11) 0.38211(8)
H2 H 0.0879 -0.0408 0.4064
C3 C 0.20784(12) 0.15625(10) 0.30917(8)
C4 C 0.12060(12) 0.09505(10) 0.34319(8)
H3 H 0.0419 0.1179 0.3399
C5 C 0.59046(12) 0.27410(10) 0.47430(8)
H4 H 0.5409 0.3257 0.4982
C6 C 0.71045(12) 0.28671(11) 0.47928(8)
H5 H 0.7424 0.3469 0.5059
C7 C 0.32360(11) 0.12234(10) 0.31275(8)
C8 C 0.73700(12) 0.12239(10) 0.40694(8)
C9 C 0.65308(12) -0.05434(10) 0.33460(8)
C10 C 0.78256(12) 0.21189(10) 0.44562(8)
H6 H 0.8645 0.2211 0.4486
C11 C 0.77518(12) -0.03590(10) 0.34350(8)
H7 H 0.8280 -0.0876 0.3235
C12 C 0.35074(11) 0.02634(10) 0.35076(8)
C13 C 0.61546(12) 0.11247(10) 0.40094(8)
C14 C 0.54221(12) 0.18804(10) 0.43528(8)
H8 H 0.4601 0.1804 0.4319
C15 C 0.46717(11) -0.02010(10) 0.34274(8)
H9 H 0.1268(16) 0.2823(14) 0.2851(10)
H10 H 0.3831(15) 0.2363(14) 0.2552(10)
loop_
_geom_bond_atom_site_label_1
_geom_bond_atom_site_label_2
_geom_bond_site_symmetry_1
_geom_bond_site_symmetry_2
O1 C3 1_555 1_555
O2 C7 1_555 1_555
N1 C8 1_555 1_555
N2 N4 1_555 1_555
N3 C9 1_555 1_555
N4 C15 1_555 1_555
C1 H1 1_555 1_555
C2 C1 1_555 1_555
H2 C2 1_555 1_555
C3 C4 1_555 1_555
C4 C2 1_555 1_555
H3 C4 1_555 1_555
C5 H4 1_555 1_555
C6 C5 1_555 1_555
H5 C6 1_555 1_555
C7 C3 1_555 1_555
C8 C10 1_555 1_555
C9 N2 1_555 1_555
C10 C6 1_555 1_555
H6 C10 1_555 1_555
C11 N1 1_555 1_555
H7 C11 1_555 1_555
C12 C1 1_555 1_555
C13 N3 1_555 1_555
C14 C5 1_555 1_555
H8 C14 1_555 1_555
C15 N3 1_555 1_555
H9 O1 1_555 1_555
H10 O2 1_555 1_555
C7 C12 1_555 1_555
C8 C13 1_555 1_555
C9 C11 1_555 1_555
C12 C15 1_555 1_555
C13 C14 1_555 1_555

#END
