
#######################################################################
#
#                 Cambridge Crystallographic Data Centre
#                                CCDC 
#
#######################################################################
#
# If this CIF has been generated from an entry in the Cambridge 
# Structural Database, then it will include bibliographic, chemical, 
# crystal, experimental, refinement or atomic coordinate data resulting 
# from the CCDC's data processing and validation procedures.
#
#######################################################################

data_IWAKAT
_chemical_name_common            
Bromo-difluoro-(3,4,6-tri-O-benzyl-alpha-D-galactopyranosyl)methane
_chemical_formula_moiety         'C28 H29 Br1 F2 O5'
_chemical_name_systematic        
4,5-bis(benzyloxy)-6-((benzyloxy)methyl)-2-(bromo(difluoro)methyl)tetrahydro-2H-pyran-3-ol
_symmetry_cell_setting           monoclinic
_symmetry_space_group_name_H-M   'P 21'
_symmetry_Int_Tables_number      4
_space_group_name_Hall           'P 2yb'
loop_
_symmetry_equiv_pos_site_id
_symmetry_equiv_pos_as_xyz
1 x,y,z
2 -x,1/2+y,-z
_cell_length_a                   10.6499(14)
_cell_length_b                   9.9676(13)
_cell_length_c                   12.7304(17)
_cell_angle_alpha                90
_cell_angle_beta                 90.228(2)
_cell_angle_gamma                90
_cell_volume                     1351.37
_exptl_crystal_colour            colorless
_exptl_crystal_description       rod
_chemical_melting_point          362K
_cell_formula_units_Z            2
_exptl_crystal_recrystallization_method 'diethyl ether/n-pentane'
loop_
_atom_site_label
_atom_site_type_symbol
_atom_site_fract_x
_atom_site_fract_y
_atom_site_fract_z
Br1 Br 0.40490(9) 0.82131(8) 0.48182(7)
F1 F 0.3111(4) 0.5961(4) 0.4097(3)
F2 F 0.4377(3) 0.5733(4) 0.5462(3)
O1 O 0.1323(4) 0.7077(3) 0.5320(3)
O2 O 0.1678(4) 0.4188(3) 0.5354(3)
H1 H 0.1172 0.4553 0.496
O3 O 0.1217(3) 0.5861(3) 0.7857(3)
O4 O -0.1264(4) 0.6102(4) 0.7071(3)
O5 O 0.0296(4) 0.9625(4) 0.6217(3)
C1 C 0.3411(6) 0.6455(7) 0.5089(6)
C2 C 0.2328(5) 0.6428(5) 0.5856(4)
H2 H 0.2556 0.6964 0.6473
C3 C 0.1960(5) 0.5061(5) 0.6211(5)
H3 H 0.2654 0.4675 0.6618
C4 C 0.0801(5) 0.5191(5) 0.6933(5)
H4 H 0.05 0.4293 0.712
C5 C -0.0219(5) 0.5938(5) 0.6400(5)
H5 H -0.0499 0.539 0.5804
C6 C 0.0232(6) 0.7296(6) 0.5950(5)
H6 H -0.0428 0.7594 0.5465
C7 C 0.0383(5) 0.8413(5) 0.6752(4)
H7 H -0.027 0.8354 0.7279
H8 H 0.1192 0.8342 0.7101
C8 C 0.0295(6) 1.0768(6) 0.6869(5)
H9 H -0.0374 1.0669 0.7378
H10 H 0.0098 1.1545 0.644
C9 C 0.1487(6) 1.1046(5) 0.7452(5)
C10 C 0.1554(7) 1.0982(7) 0.8531(6)
H11 H 0.0844 1.0728 0.8904
C11 C 0.2613(9) 1.1277(9) 0.9063(7)
H12 H 0.2626 1.1213 0.9791
C12 C 0.3618(10) 1.1651(9) 0.8565(9)
H13 H 0.4338 1.1874 0.8943
C13 C 0.3628(9) 1.1717(9) 0.7532(10)
H14 H 0.436 1.1944 0.7178
C14 C 0.2508(9) 1.1438(8) 0.6966(6)
H15 H 0.2497 1.1535 0.624
C15 C -0.2417(7) 0.6192(11) 0.6529(8)
H16 H -0.2597 0.5345 0.6184
H17 H -0.2365 0.6883 0.5995
C16 C -0.3430(6) 0.6515(10) 0.7266(6)
C17 C -0.3909(10) 0.5545(10) 0.7863(8)
H18 H -0.3525 0.4708 0.7834
C18 C -0.488(2) 0.568(2) 0.8491(12)
H19 H -0.5182 0.4929 0.885
C19 C -0.5407(12) 0.677(2) 0.8611(11)
H20 H -0.6054 0.6854 0.9095
C20 C -0.5041(15) 0.7849(16) 0.8041(14)
H21 H -0.5452 0.8665 0.8123
C21 C -0.4024(11) 0.7740(10) 0.7311(9)
H22 H -0.3779 0.8457 0.6892
C22 C 0.1046(12) 0.5217(10) 0.8753(6)
H23 H 0.1472 0.4358 0.871
H24 H 0.0156 0.5035 0.8828
C23 C 0.1483(8) 0.5908(9) 0.9699(5)
C24 C 0.2175(9) 0.5176(9) 1.0446(8)
H25 H 0.2332 0.4267 1.0345
C25 C 0.2617(8) 0.5820(13) 1.1329(7)
H26 H 0.3063 0.5338 1.1833
C26 C 0.2415(9) 0.7117(12) 1.1470(8)
H27 H 0.2695 0.7533 1.2081
C27 C 0.1829(8) 0.7813(8) 1.0759(8)
H28 H 0.1736 0.8732 1.0853
C28 C 0.1341(7) 0.7219(9) 0.9869(7)
H29 H 0.0907 0.7739 0.9381
loop_
_geom_bond_atom_site_label_1
_geom_bond_atom_site_label_2
_geom_bond_site_symmetry_1
_geom_bond_site_symmetry_2
Br1 C1 1_555 1_555
F1 C1 1_555 1_555
F2 C1 1_555 1_555
O1 C2 1_555 1_555
O2 H1 1_555 1_555
O3 C4 1_555 1_555
O4 C5 1_555 1_555
O5 C7 1_555 1_555
C1 C2 1_555 1_555
C2 H2 1_555 1_555
C3 O2 1_555 1_555
H3 C3 1_555 1_555
C4 C3 1_555 1_555
H4 C4 1_555 1_555
C5 C4 1_555 1_555
H5 C5 1_555 1_555
C6 O1 1_555 1_555
H6 C6 1_555 1_555
C7 C6 1_555 1_555
H7 C7 1_555 1_555
H8 C7 1_555 1_555
C8 O5 1_555 1_555
H9 C8 1_555 1_555
H10 C8 1_555 1_555
C9 C8 1_555 1_555
C10 C9 1_555 1_555
H11 C10 1_555 1_555
C11 C10 1_555 1_555
H12 C11 1_555 1_555
C12 C11 1_555 1_555
H13 C12 1_555 1_555
C13 C12 1_555 1_555
H14 C13 1_555 1_555
C14 C9 1_555 1_555
H15 C14 1_555 1_555
C15 O4 1_555 1_555
H16 C15 1_555 1_555
H17 C15 1_555 1_555
C16 C15 1_555 1_555
C17 C16 1_555 1_555
H18 C17 1_555 1_555
C18 C17 1_555 1_555
H19 C18 1_555 1_555
C19 C18 1_555 1_555
H20 C19 1_555 1_555
C20 C19 1_555 1_555
H21 C20 1_555 1_555
C21 C16 1_555 1_555
H22 C21 1_555 1_555
C22 O3 1_555 1_555
H23 C22 1_555 1_555
H24 C22 1_555 1_555
C23 C22 1_555 1_555
C24 C23 1_555 1_555
H25 C24 1_555 1_555
C25 C24 1_555 1_555
H26 C25 1_555 1_555
C26 C25 1_555 1_555
H27 C26 1_555 1_555
C27 C26 1_555 1_555
H28 C27 1_555 1_555
C28 C23 1_555 1_555
H29 C28 1_555 1_555
C2 C3 1_555 1_555
C5 C6 1_555 1_555
C13 C14 1_555 1_555
C20 C21 1_555 1_555
C27 C28 1_555 1_555

#END
