
#######################################################################
#
#                 Cambridge Crystallographic Data Centre
#                                CCDC 
#
#######################################################################
#
# If this CIF has been generated from an entry in the Cambridge 
# Structural Database, then it will include bibliographic, chemical, 
# crystal, experimental, refinement or atomic coordinate data resulting 
# from the CCDC's data processing and validation procedures.
#
#######################################################################

data_IWANOL
_chemical_formula_moiety         'C22 H16 O2'
_chemical_name_systematic        (3-benzyl-1-benzofuran-2-yl)(phenyl)methanone
_symmetry_cell_setting           triclinic
_symmetry_space_group_name_H-M   'P -1'
_symmetry_Int_Tables_number      2
_space_group_name_Hall           '-P 1'
loop_
_symmetry_equiv_pos_site_id
_symmetry_equiv_pos_as_xyz
1 x,y,z
2 -x,-y,-z
_cell_length_a                   8.6416(6)
_cell_length_b                   10.3000(7)
_cell_length_c                   10.3018(7)
_cell_angle_alpha                69.010(2)
_cell_angle_beta                 76.700(3)
_cell_angle_gamma                75.815(2)
_cell_volume                     819.683
_exptl_crystal_colour            colorless
_exptl_crystal_description       parallelepiped
_cell_formula_units_Z            2
loop_
_atom_site_label
_atom_site_type_symbol
_atom_site_fract_x
_atom_site_fract_y
_atom_site_fract_z
O1 O 0.26000(12) 0.50403(10) 0.87186(10)
O2 O 0.13927(13) 0.40260(11) 0.61951(11)
C1 C 0.23289(16) 0.44377(14) 1.01477(14)
C2 C 0.27261(18) 0.48981(17) 1.11180(16)
H1 H 0.3242 0.5670 1.0843
C3 C 0.23130(19) 0.4147(2) 1.25109(17)
H2 H 0.2544 0.4424 1.3201
C4 C 0.1560(2) 0.2984(2) 1.29166(17)
H3 H 0.1314 0.2494 1.3869
C5 C 0.11699(19) 0.25409(17) 1.19436(16)
H4 H 0.0660 0.1765 1.2225
C6 C 0.15618(16) 0.32915(14) 1.05140(14)
C7 C 0.13392(15) 0.31804(13) 0.92216(14)
C8 C 0.19851(16) 0.42506(13) 0.81764(14)
C9 C 0.20104(16) 0.46881(14) 0.66512(14)
C10 C 0.27377(16) 0.59284(14) 0.56625(13)
C11 C 0.20674(19) 0.66742(17) 0.44415(15)
H5 H 0.1166 0.6431 0.4301
C12 C 0.2741(2) 0.7773(2) 0.34414(19)
H6 H 0.2284 0.8279 0.2630
C13 C 0.4088(2) 0.8130(2) 0.36348(19)
H7 H 0.4540 0.8872 0.2954
C14 C 0.47623(19) 0.73910(18) 0.48312(17)
H8 H 0.5678 0.7628 0.4955
C15 C 0.40891(17) 0.62977(16) 0.58527(16)
H9 H 0.4542 0.5808 0.6669
C16 C 0.05299(16) 0.21141(14) 0.90857(15)
H10 H -0.0130 0.2577 0.8345
H11 H -0.0183 0.1762 0.9959
C17 C 0.17084(16) 0.08742(13) 0.87558(14)
C18 C 0.28136(19) 0.00346(15) 0.96402(16)
H12 H 0.2859 0.0255 1.0429
C19 C 0.3851(2) -0.11270(17) 0.9366(2)
H13 H 0.4584 -0.1681 0.9971
C20 C 0.3799(2) -0.14619(19) 0.8205(2)
H14 H 0.4490 -0.2247 0.8024
C21 C 0.2722(2) -0.0631(2) 0.7313(2)
H15 H 0.2688 -0.0853 0.6521
C22 C 0.1686(2) 0.05327(17) 0.75816(17)
H16 H 0.0966 0.1091 0.6965
loop_
_geom_bond_atom_site_label_1
_geom_bond_atom_site_label_2
_geom_bond_site_symmetry_1
_geom_bond_site_symmetry_2
O1 C1 1_555 1_555
O2 C9 1_555 1_555
C1 C2 1_555 1_555
C2 H1 1_555 1_555
C3 C2 1_555 1_555
H2 C3 1_555 1_555
C4 C3 1_555 1_555
H3 C4 1_555 1_555
C5 C4 1_555 1_555
H4 C5 1_555 1_555
C6 C1 1_555 1_555
C7 C6 1_555 1_555
C8 O1 1_555 1_555
C9 C8 1_555 1_555
C10 C9 1_555 1_555
C11 C10 1_555 1_555
H5 C11 1_555 1_555
C12 C11 1_555 1_555
H6 C12 1_555 1_555
C13 C12 1_555 1_555
H7 C13 1_555 1_555
C14 C13 1_555 1_555
H8 C14 1_555 1_555
C15 C10 1_555 1_555
H9 C15 1_555 1_555
C16 C7 1_555 1_555
H10 C16 1_555 1_555
H11 C16 1_555 1_555
C17 C16 1_555 1_555
C18 C17 1_555 1_555
H12 C18 1_555 1_555
C19 C18 1_555 1_555
H13 C19 1_555 1_555
C20 C19 1_555 1_555
H14 C20 1_555 1_555
C21 C20 1_555 1_555
H15 C21 1_555 1_555
C22 C17 1_555 1_555
H16 C22 1_555 1_555
C5 C6 1_555 1_555
C7 C8 1_555 1_555
C14 C15 1_555 1_555
C21 C22 1_555 1_555

#END
