
#######################################################################
#
#                 Cambridge Crystallographic Data Centre
#                                CCDC 
#
#######################################################################
#
# If this CIF has been generated from an entry in the Cambridge 
# Structural Database, then it will include bibliographic, chemical, 
# crystal, experimental, refinement or atomic coordinate data resulting 
# from the CCDC's data processing and validation procedures.
#
#######################################################################

data_IWANIF
_chemical_formula_moiety         'C26 H18 O2 S1'
_chemical_name_systematic        
(3-(diphenylmethyl)-1-benzofuran-2-yl)(2-thienyl)methanone
_symmetry_cell_setting           monoclinic
_symmetry_space_group_name_H-M   'P 21/c'
_symmetry_Int_Tables_number      14
_space_group_name_Hall           '-P 2ybc'
loop_
_symmetry_equiv_pos_site_id
_symmetry_equiv_pos_as_xyz
1 x,y,z
2 -x,1/2+y,1/2-z
3 -x,-y,-z
4 x,1/2-y,1/2+z
_cell_length_a                   12.7648(5)
_cell_length_b                   9.8852(3)
_cell_length_c                   17.1981(5)
_cell_angle_alpha                90
_cell_angle_beta                 109.7066(10)
_cell_angle_gamma                90
_cell_volume                     2043
_exptl_crystal_colour            colorless
_exptl_crystal_description       parallelepiped
_cell_formula_units_Z            4
loop_
_atom_site_label
_atom_site_type_symbol
_atom_site_fract_x
_atom_site_fract_y
_atom_site_fract_z
S1 S 0.42947(9) 0.98266(12) 0.12658(7)
O1 O 0.62146(19) 0.9129(2) 0.08522(16)
O2 O 0.58104(15) 0.56319(19) 0.11018(12)
C1 C 0.3259(3) 0.9243(6) 0.1568(3)
H1 H 0.2731 0.9805 0.1664
C2 C 0.3260(4) 0.7893(6) 0.1661(3)
H2 H 0.2726 0.7452 0.1825
C3 C 0.4155(2) 0.7160(4) 0.14875(19)
H3 H 0.4298 0.6235 0.1532
C4 C 0.4776(2) 0.8216(3) 0.12264(16)
C5 C 0.5766(2) 0.8106(3) 0.09758(17)
C6 C 0.6240(2) 0.6793(2) 0.08747(16)
C7 C 0.6397(2) 0.4583(3) 0.09374(17)
C8 C 0.6256(3) 0.3224(3) 0.1083(2)
H4 H 0.5726 0.2936 0.1308
C9 C 0.6947(3) 0.2328(3) 0.0876(2)
H5 H 0.6884 0.1409 0.0965
C10 C 0.7733(3) 0.2759(3) 0.0538(2)
H6 H 0.8182 0.2123 0.0403
C11 C 0.7864(2) 0.4104(3) 0.03967(18)
H7 H 0.8392 0.4384 0.0168
C12 C 0.7180(2) 0.5049(2) 0.06065(15)
C13 C 0.70716(19) 0.6503(2) 0.05688(14)
C14 C 0.77404(19) 0.7494(2) 0.02562(15)
H8 H 0.7280 0.8309 0.0092
C15 C 0.7924(2) 0.6972(3) -0.05235(15)
C16 C 0.7006(3) 0.6585(4) -0.11927(19)
H9 H 0.6298 0.6644 -0.1154
C17 C 0.7128(3) 0.6117(5) -0.1912(2)
H10 H 0.6504 0.5841 -0.2345
C18 C 0.8149(3) 0.6054(4) -0.1996(2)
H11 H 0.8224 0.5767 -0.2490
C19 C 0.9066(3) 0.6420(4) -0.1342(2)
H12 H 0.9769 0.6363 -0.1390
C20 C 0.8957(2) 0.6875(3) -0.06098(18)
H13 H 0.9589 0.7117 -0.0172
C21 C 0.8805(2) 0.7934(2) 0.09287(15)
C22 C 0.9183(3) 0.9245(3) 0.0920(2)
H14 H 0.8782 0.9838 0.0507
C23 C 1.0154(3) 0.9685(4) 0.1519(3)
H15 H 1.0394 1.0570 0.1505
C24 C 1.0761(3) 0.8826(4) 0.2130(2)
H16 H 1.1410 0.9124 0.2533
C25 C 1.0406(3) 0.7540(4) 0.21412(19)
H17 H 1.0821 0.6950 0.2550
C26 C 0.9429(2) 0.7086(3) 0.15494(17)
H18 H 0.9194 0.6201 0.1573
loop_
_geom_bond_atom_site_label_1
_geom_bond_atom_site_label_2
_geom_bond_site_symmetry_1
_geom_bond_site_symmetry_2
S1 C1 1_555 1_555
O1 C5 1_555 1_555
O2 C6 1_555 1_555
C1 H1 1_555 1_555
C2 C1 1_555 1_555
H2 C2 1_555 1_555
C3 C2 1_555 1_555
H3 C3 1_555 1_555
C4 S1 1_555 1_555
C5 C4 1_555 1_555
C6 C5 1_555 1_555
C7 O2 1_555 1_555
C8 C7 1_555 1_555
H4 C8 1_555 1_555
C9 C8 1_555 1_555
H5 C9 1_555 1_555
C10 C9 1_555 1_555
H6 C10 1_555 1_555
C11 C10 1_555 1_555
H7 C11 1_555 1_555
C12 C7 1_555 1_555
C13 C6 1_555 1_555
C14 C13 1_555 1_555
H8 C14 1_555 1_555
C15 C14 1_555 1_555
C16 C15 1_555 1_555
H9 C16 1_555 1_555
C17 C16 1_555 1_555
H10 C17 1_555 1_555
C18 C17 1_555 1_555
H11 C18 1_555 1_555
C19 C18 1_555 1_555
H12 C19 1_555 1_555
C20 C15 1_555 1_555
H13 C20 1_555 1_555
C21 C14 1_555 1_555
C22 C21 1_555 1_555
H14 C22 1_555 1_555
C23 C22 1_555 1_555
H15 C23 1_555 1_555
C24 C23 1_555 1_555
H16 C24 1_555 1_555
C25 C24 1_555 1_555
H17 C25 1_555 1_555
C26 C21 1_555 1_555
H18 C26 1_555 1_555
C3 C4 1_555 1_555
C11 C12 1_555 1_555
C12 C13 1_555 1_555
C19 C20 1_555 1_555
C25 C26 1_555 1_555

#END
