
#######################################################################
#
#                 Cambridge Crystallographic Data Centre
#                                CCDC 
#
#######################################################################
#
# If this CIF has been generated from an entry in the Cambridge 
# Structural Database, then it will include bibliographic, chemical, 
# crystal, experimental, refinement or atomic coordinate data resulting 
# from the CCDC's data processing and validation procedures.
#
#######################################################################

data_IWARUT
_chemical_formula_moiety         'C20 H14 O2,2(C10 H9 N1)'
_chemical_name_systematic        
"2,2'-Dihydroxy-1,1'-binaphthyl bis(2-methylquinoline) clathrate"
_symmetry_cell_setting           monoclinic
_symmetry_space_group_name_H-M   'C 2'
_symmetry_Int_Tables_number      5
_space_group_name_Hall           'C 2y'
loop_
_symmetry_equiv_pos_site_id
_symmetry_equiv_pos_as_xyz
1 x,y,z
2 -x,y,-z
3 1/2+x,1/2+y,z
4 1/2-x,1/2+y,-z
_cell_length_a                   14.8402(3)
_cell_length_b                   10.5377(2)
_cell_length_c                   9.7304(2)
_cell_angle_alpha                90
_cell_angle_beta                 99.4430(10)
_cell_angle_gamma                90
_cell_volume                     1501.04
_exptl_crystal_colour            colorless
_exptl_crystal_description       prism
_cell_formula_units_Z            2
loop_
_atom_site_label
_atom_site_type_symbol
_atom_site_fract_x
_atom_site_fract_y
_atom_site_fract_z
C1 C 0.02990(10) 0.38199(13) 0.94511(15)
C2 C 0.15976(10) 0.29521(15) 0.84486(15)
C3 C 0.10264(10) 0.29297(14) 0.94942(15)
C4 C 0.24610(12) 0.11567(16) 0.95460(17)
H1 H 0.2936 0.0563 0.9566
C6 C 0.12098(10) 0.19999(14) 1.05536(15)
H2 H 0.0851 0.1979 1.1264
C8 C 0.07219(12) 0.47177(16) 0.73496(17)
H3 H 0.0616 0.5321 0.6629
C9 C 0.01529(10) 0.46937(14) 0.83824(15)
C10 C 0.18955(11) 0.11320(16) 1.05690(18)
H4 H 0.1989 0.0512 1.1272
C11 C 0.23145(10) 0.20511(16) 0.85233(17)
H5 H 0.2700 0.2072 0.7847
C12 C 0.14243(12) 0.38712(16) 0.73895(17)
H6 H 0.1798 0.3904 0.6698
O1 O -0.05579(8) 0.55148(10) 0.83261(12)
H16 H -0.0476(14) 0.6240(11) 0.7739(18)
C1A C -0.02990(10) 0.38199(13) 1.05489(15)
C3A C -0.10264(10) 0.29297(14) 1.05058(15)
C2A C -0.15976(10) 0.29521(15) 1.15514(15)
C11A C -0.23145(10) 0.20511(16) 1.14767(17)
C4A C -0.24610(12) 0.11567(16) 1.04540(17)
H1A H -0.2936 0.0563 1.0434
C10A C -0.18955(11) 0.11320(16) 0.94310(18)
C6A C -0.12098(10) 0.19999(14) 0.94464(15)
H2A H -0.0851 0.1979 0.8736
H4A H -0.1989 0.0512 0.8728
H5A H -0.2700 0.2072 1.2153
C12A C -0.14243(12) 0.38712(16) 1.26105(17)
C8A C -0.07219(12) 0.47177(16) 1.26504(17)
H3A H -0.0616 0.5321 1.3371
C9A C -0.01529(10) 0.46937(14) 1.16176(15)
O1A O 0.05579(8) 0.55148(10) 1.16739(12)
H16A H 0.0476(14) 0.6240(11) 1.2261(18)
H6A H -0.1798 0.3904 1.3302
N1 N -0.03704(9) 0.77800(13) 0.70216(14)
C5 C -0.10166(11) 0.81723(14) 0.59294(15)
C7 C -0.11418(11) 0.94657(15) 0.55628(16)
C13 C 0.01663(11) 0.86450(16) 0.77369(16)
C14 C -0.05610(12) 1.03531(16) 0.63564(17)
H7 H -0.0622 1.1224 0.6152
C15 C 0.00850(12) 0.99459(16) 0.74141(17)
H8 H 0.0479 1.0534 0.7933
C16 C -0.18249(12) 0.97931(19) 0.44289(17)
H9 H -0.1914 1.0650 0.4172
C17 C -0.15673(12) 0.72530(16) 0.51539(18)
H10 H -0.1484 0.6390 0.5383
C18 C -0.22244(13) 0.7607(2) 0.40680(18)
H11 H -0.2592 0.6985 0.3560
C19 C -0.23547(13) 0.8886(2) 0.37049(19)
H12 H -0.2810 0.9119 0.2958
C20 C 0.08802(13) 0.81799(19) 0.89020(18)
H13 H 0.0729 0.7326 0.9160
H14 H 0.0902 0.8737 0.9700
H15 H 0.1471 0.8175 0.8599
loop_
_geom_bond_atom_site_label_1
_geom_bond_atom_site_label_2
_geom_bond_site_symmetry_1
_geom_bond_site_symmetry_2
C1 C3 1_555 1_555
C2 C3 1_555 1_555
C3 C6 1_555 1_555
N1 C5 1_555 1_555
C4 H1 1_555 1_555
C5 C7 1_555 1_555
C6 H2 1_555 1_555
C7 C14 1_555 1_555
C8 H3 1_555 1_555
C9 C1 1_555 1_555
C10 C4 1_555 1_555
H4 C10 1_555 1_555
C11 C2 1_555 1_555
H5 C11 1_555 1_555
C12 C2 1_555 1_555
H6 C12 1_555 1_555
C13 N1 1_555 1_555
C14 H7 1_555 1_555
C15 C13 1_555 1_555
H8 C15 1_555 1_555
C16 C7 1_555 1_555
H9 C16 1_555 1_555
C17 C5 1_555 1_555
H10 C17 1_555 1_555
C18 C17 1_555 1_555
H11 C18 1_555 1_555
C19 C16 1_555 1_555
H12 C19 1_555 1_555
O1 C9 1_555 1_555
C20 C13 1_555 1_555
H13 C20 1_555 1_555
H14 C20 1_555 1_555
H15 C20 1_555 1_555
H16 O1 1_555 1_555
C1A C1 1_555 1_555
C3A C1A 1_555 1_555
C2A C3A 1_555 1_555
C11A C2A 1_555 1_555
C4A C11A 1_555 1_555
H1A C4A 1_555 1_555
C10A C4A 1_555 1_555
C6A C3A 1_555 1_555
H2A C6A 1_555 1_555
H4A C10A 1_555 1_555
H5A C11A 1_555 1_555
C12A C2A 1_555 1_555
C8A C12A 1_555 1_555
H3A C8A 1_555 1_555
C9A C1A 1_555 1_555
O1A C9A 1_555 1_555
H16A O1A 1_555 1_555
H6A C12A 1_555 1_555
C4 C11 1_555 1_555
C6 C10 1_555 1_555
C8 C12 1_555 1_555
C8 C9 1_555 1_555
C14 C15 1_555 1_555
C18 C19 1_555 1_555
C10A C6A 1_555 1_555
C8A C9A 1_555 1_555

#END
