
#######################################################################
#
#                 Cambridge Crystallographic Data Centre
#                                CCDC 
#
#######################################################################
#
# If this CIF has been generated from an entry in the Cambridge 
# Structural Database, then it will include bibliographic, chemical, 
# crystal, experimental, refinement or atomic coordinate data resulting 
# from the CCDC's data processing and validation procedures.
#
#######################################################################

data_IWATOR
_chemical_formula_moiety         'C11 H14 N2 O3'
_chemical_name_systematic        
'5-ethoxy-2,2-dimethyl-2H-benzimidazole 1,3-dioxide'
_symmetry_cell_setting           monoclinic
_symmetry_space_group_name_H-M   'P 21/c'
_symmetry_Int_Tables_number      14
_space_group_name_Hall           '-P 2ybc'
loop_
_symmetry_equiv_pos_site_id
_symmetry_equiv_pos_as_xyz
1 x,y,z
2 -x,1/2+y,1/2-z
3 -x,-y,-z
4 x,1/2-y,1/2+z
_cell_length_a                   9.7420(16)
_cell_length_b                   14.507(2)
_cell_length_c                   8.032(1)
_cell_angle_alpha                90
_cell_angle_beta                 109.440(4)
_cell_angle_gamma                90
_cell_volume                     1070.43
_exptl_crystal_colour            'dark orange'
_exptl_crystal_description       block
_cell_formula_units_Z            4
loop_
_atom_site_label
_atom_site_type_symbol
_atom_site_fract_x
_atom_site_fract_y
_atom_site_fract_z
O1 O 0.6308(2) 0.24870(15) 0.3096(3)
O2 O 1.1254(2) 0.20636(14) 0.1397(3)
N1 N 1.0915(3) 0.44017(17) 0.2483(3)
O3 O 1.1355(3) 0.52465(15) 0.2705(3)
C1 C 0.7498(4) 0.2911(2) 0.2888(4)
N2 N 1.0870(3) 0.28527(17) 0.1854(3)
C2 C 0.9726(4) 0.4028(2) 0.2665(4)
C3 C 0.9683(3) 0.3064(2) 0.2273(4)
C4 C 0.8544(3) 0.2491(2) 0.2385(4)
H1 H 0.8511 0.1851 0.2125
C5 C 0.7514(4) 0.3894(2) 0.3256(4)
H2 H 0.6740 0.4152 0.3574
C6 C 1.1804(4) 0.3682(2) 0.1988(4)
C7 C 0.6276(4) 0.1494(2) 0.2984(5)
H3 H 0.7199 0.1233 0.3787
H4 H 0.6156 0.1295 0.1764
C8 C 1.3232(4) 0.3572(2) 0.3475(4)
H5 H 1.3755 0.4161 0.3684
H6 H 1.3823 0.3102 0.3157
H7 H 1.3043 0.3382 0.4550
C9 C 1.1930(4) 0.3906(2) 0.0202(4)
H8 H 1.0956 0.4000 -0.0659
H9 H 1.2408 0.3394 -0.0183
H10 H 1.2507 0.4469 0.0293
C10 C 0.8598(3) 0.4451(2) 0.3158(4)
H11 H 0.8606 0.5092 0.3406
C11 C 0.5010(4) 0.1161(2) 0.3509(5)
H12 H 0.5135 0.1367 0.4713
H13 H 0.4971 0.0486 0.3461
H14 H 0.4102 0.1414 0.2694
loop_
_geom_bond_atom_site_label_1
_geom_bond_atom_site_label_2
_geom_bond_site_symmetry_1
_geom_bond_site_symmetry_2
O1 C1 1_555 1_555
O2 N2 1_555 1_555
N1 O3 1_555 1_555
C1 C4 1_555 1_555
N2 C3 1_555 1_555
C2 N1 1_555 1_555
C3 C2 1_555 1_555
C4 C3 1_555 1_555
H1 C4 1_555 1_555
C5 C1 1_555 1_555
H2 C5 1_555 1_555
C6 N1 1_555 1_555
C7 O1 1_555 1_555
H3 C7 1_555 1_555
H4 C7 1_555 1_555
C8 C6 1_555 1_555
H5 C8 1_555 1_555
H6 C8 1_555 1_555
H7 C8 1_555 1_555
C9 C6 1_555 1_555
H8 C9 1_555 1_555
H9 C9 1_555 1_555
H10 C9 1_555 1_555
C10 C2 1_555 1_555
H11 C10 1_555 1_555
C11 C7 1_555 1_555
H12 C11 1_555 1_555
H13 C11 1_555 1_555
H14 C11 1_555 1_555
N2 C6 1_555 1_555
C5 C10 1_555 1_555

#END
