
#######################################################################
#
#                 Cambridge Crystallographic Data Centre
#                                CCDC 
#
#######################################################################
#
# If this CIF has been generated from an entry in the Cambridge 
# Structural Database, then it will include bibliographic, chemical, 
# crystal, experimental, refinement or atomic coordinate data resulting 
# from the CCDC's data processing and validation procedures.
#
#######################################################################

data_IWAVIN
_chemical_formula_moiety         'C15 H11 N3 O6'
_chemical_name_systematic        
'4-(2-methyl-5-nitro-1,3-dioxido-2H-benzimidazol-2-yl)benzoic acid'
_symmetry_cell_setting           triclinic
_symmetry_space_group_name_H-M   'P -1'
_symmetry_Int_Tables_number      2
_space_group_name_Hall           '-P 1'
loop_
_symmetry_equiv_pos_site_id
_symmetry_equiv_pos_as_xyz
1 x,y,z
2 -x,-y,-z
_cell_length_a                   6.09844(38)
_cell_length_b                   7.85303(83)
_cell_length_c                   14.64790(40)
_cell_angle_alpha                101.3734(65)
_cell_angle_beta                 97.6475(66)
_cell_angle_gamma                95.2031(62)
_cell_volume                     676.66
_exptl_crystal_colour            black
_exptl_crystal_description       block
_cell_formula_units_Z            2
loop_
_atom_site_label
_atom_site_type_symbol
_atom_site_fract_x
_atom_site_fract_y
_atom_site_fract_z
O1 O 0.7076(3) -0.3678(3) 0.48634(15)
O2 O 1.0159(4) 0.0906(3) 0.16255(16)
O3 O 0.3446(3) -0.3444(3) 0.44827(16)
H1 H 0.3297 -0.4305 0.4740
O4 O 0.4535(4) 0.4165(3) 0.27194(16)
O5 O 0.2510(5) 0.2941(3) -0.18770(17)
N1 N 0.5657(4) 0.3285(3) 0.21699(19)
N2 N 0.8422(4) 0.1707(3) 0.16367(18)
C1 C 0.6041(5) -0.1556(4) 0.3988(2)
N3 N 0.2178(5) 0.3267(4) -0.1065(2)
C2 C 0.4347(5) -0.0873(4) 0.3503(2)
H2 H 0.2839 -0.1328 0.3481
O6 O 0.0614(4) 0.3981(4) -0.07920(18)
C3 C 0.7058(5) 0.1130(4) 0.3072(2)
C4 C 0.8747(5) 0.0442(4) 0.3571(2)
H3 H 1.0256 0.0911 0.3609
C5 C 0.5575(5) -0.2990(4) 0.4482(2)
C6 C 0.7065(5) 0.1961(4) 0.0900(2)
C7 C 0.5335(5) 0.2906(4) 0.1226(2)
C8 C 0.3629(5) 0.3332(4) 0.0586(2)
H4 H 0.2430 0.3925 0.0786
C9 C 0.5599(6) 0.1947(4) -0.0683(2)
H5 H 0.5654 0.1679 -0.1340
C10 C 0.4840(5) 0.0470(4) 0.3048(2)
H6 H 0.3672 0.0941 0.2720
C11 C 0.8250(5) -0.0907(4) 0.4010(2)
H7 H 0.9416 -0.1397 0.4327
C12 C 0.3844(5) 0.2823(4) -0.0343(2)
C13 C 0.7683(5) 0.2530(4) 0.2549(2)
C14 C 0.7205(5) 0.1489(4) -0.0072(2)
H8 H 0.8374 0.0877 -0.0289
C15 C 0.9429(5) 0.4008(4) 0.3083(2)
H9 H 1.0811 0.3533 0.3271
H10 H 0.8892 0.4615 0.3647
H11 H 0.9714 0.4834 0.2679
loop_
_geom_bond_atom_site_label_1
_geom_bond_atom_site_label_2
_geom_bond_site_symmetry_1
_geom_bond_site_symmetry_2
O1 C5 1_555 1_555
O2 N2 1_555 1_555
O3 H1 1_555 1_555
O4 N1 1_555 1_555
O5 N3 1_555 1_555
N1 C7 1_555 1_555
N2 C6 1_555 1_555
C1 C2 1_555 1_555
N3 O6 1_555 1_555
C2 H2 1_555 1_555
C3 C4 1_555 1_555
C4 H3 1_555 1_555
C5 O3 1_555 1_555
C6 C7 1_555 1_555
C7 C8 1_555 1_555
C8 H4 1_555 1_555
C9 H5 1_555 1_555
C10 C2 1_555 1_555
H6 C10 1_555 1_555
C11 C1 1_555 1_555
H7 C11 1_555 1_555
C12 N3 1_555 1_555
C13 N1 1_555 1_555
C14 C6 1_555 1_555
H8 C14 1_555 1_555
C15 C13 1_555 1_555
H9 C15 1_555 1_555
H10 C15 1_555 1_555
H11 C15 1_555 1_555
N2 C13 1_555 1_555
C1 C5 1_555 1_555
C3 C10 1_555 1_555
C3 C13 1_555 1_555
C4 C11 1_555 1_555
C8 C12 1_555 1_555
C9 C12 1_555 1_555
C9 C14 1_555 1_555

#END
