
#######################################################################
#
#                 Cambridge Crystallographic Data Centre
#                                CCDC 
#
#######################################################################
#
# If this CIF has been generated from an entry in the Cambridge 
# Structural Database, then it will include bibliographic, chemical, 
# crystal, experimental, refinement or atomic coordinate data resulting 
# from the CCDC's data processing and validation procedures.
#
#######################################################################

data_IWAVOT
_chemical_formula_moiety         'C11 H11 N3 O4'
_chemical_name_systematic        
"5-nitrospiro[benzimidazole-2,1'-cyclopentane] 1,3-dioxide"
_chemical_properties_biological  
'tested for inhibitory activity in in vitro separase enzymatic assay'
_symmetry_cell_setting           monoclinic
_symmetry_space_group_name_H-M   'P 21/n'
_symmetry_Int_Tables_number      14
_space_group_name_Hall           '-P 2yn'
loop_
_symmetry_equiv_pos_site_id
_symmetry_equiv_pos_as_xyz
1 x,y,z
2 1/2-x,1/2+y,1/2-z
3 -x,-y,-z
4 1/2+x,1/2-y,1/2+z
_cell_length_a                   8.716(1)
_cell_length_b                   5.6960(6)
_cell_length_c                   21.744(3)
_cell_angle_alpha                90
_cell_angle_beta                 96.550(4)
_cell_angle_gamma                90
_cell_volume                     1072.46
_exptl_crystal_colour            'dark blue'
_exptl_crystal_description       block
_cell_formula_units_Z            4
loop_
_atom_site_label
_atom_site_type_symbol
_atom_site_fract_x
_atom_site_fract_y
_atom_site_fract_z
O1 O -0.20509(13) -0.3089(2) 0.15649(5)
O2 O 0.06928(13) 0.3683(2) 0.10985(5)
O3 O -0.48120(14) -0.0654(2) -0.12687(5)
N1 N -0.44191(15) -0.1809(2) -0.08029(6)
N2 N -0.02794(14) 0.1982(2) 0.10457(6)
O4 O -0.49076(16) -0.3778(2) -0.07132(6)
C1 C -0.33099(17) -0.0758(3) -0.03222(7)
N3 N -0.15938(14) -0.1354(2) 0.12710(6)
C2 C -0.20193(16) -0.0739(3) 0.06795(7)
C3 C -0.12300(17) 0.1354(3) 0.05457(7)
C4 C -0.25856(17) 0.1387(3) -0.04682(7)
H1 H -0.2842 0.2090 -0.0863
C5 C -0.30661(17) -0.1864(3) 0.02352(7)
H2 H -0.3567 -0.3293 0.0318
C6 C -0.15280(18) 0.2432(3) -0.00447(7)
H3 H -0.1010 0.3830 -0.0141
C7 C 0.10119(17) -0.0719(3) 0.18721(7)
H4 H 0.1097 -0.2365 0.1733
H5 H 0.1919 0.0172 0.1765
C8 C -0.12194(18) 0.1683(3) 0.20989(7)
H6 H -0.1516 0.3307 0.1974
H7 H -0.2146 0.0839 0.2206
C9 C -0.04940(17) 0.0401(3) 0.15772(7)
C10 C 0.0047(2) 0.1684(3) 0.26435(8)
H8 H 0.0745 0.3046 0.2623
H9 H -0.0399 0.1724 0.3042
C11 C 0.08950(19) -0.0607(3) 0.25677(8)
H10 H 0.0305 -0.1959 0.2704
H11 H 0.1932 -0.0587 0.2807
loop_
_geom_bond_atom_site_label_1
_geom_bond_atom_site_label_2
_geom_bond_site_symmetry_1
_geom_bond_site_symmetry_2
O1 N3 1_555 1_555
O2 N2 1_555 1_555
O3 N1 1_555 1_555
N1 O4 1_555 1_555
N2 C3 1_555 1_555
C1 N1 1_555 1_555
N3 C2 1_555 1_555
C2 C3 1_555 1_555
C3 C6 1_555 1_555
C4 C1 1_555 1_555
H1 C4 1_555 1_555
C5 C1 1_555 1_555
H2 C5 1_555 1_555
C6 C4 1_555 1_555
H3 C6 1_555 1_555
C7 H4 1_555 1_555
H5 C7 1_555 1_555
C8 H6 1_555 1_555
H7 C8 1_555 1_555
C9 N2 1_555 1_555
C10 C8 1_555 1_555
H8 C10 1_555 1_555
H9 C10 1_555 1_555
C11 C7 1_555 1_555
H10 C11 1_555 1_555
H11 C11 1_555 1_555
N3 C9 1_555 1_555
C2 C5 1_555 1_555
C7 C9 1_555 1_555
C8 C9 1_555 1_555
C10 C11 1_555 1_555

#END
