
#######################################################################
#
#                 Cambridge Crystallographic Data Centre
#                                CCDC 
#
#######################################################################
#
# If this CIF has been generated from an entry in the Cambridge 
# Structural Database, then it will include bibliographic, chemical, 
# crystal, experimental, refinement or atomic coordinate data resulting 
# from the CCDC's data processing and validation procedures.
#
#######################################################################

data_IWAXOV
_chemical_formula_moiety         'C20 H18 N2 P1 S1 1+,C1 F3 O3 S1 1-'
_chemical_name_systematic        
'1-(2-(diphenylphosphino)-3-thienyl)-3-methyl-1H-imidazol-3-ium trifluoromethanesulfonate unknown solvate'
_symmetry_cell_setting           triclinic
_symmetry_space_group_name_H-M   'P -1'
_symmetry_Int_Tables_number      2
_space_group_name_Hall           '-P 1'
loop_
_symmetry_equiv_pos_site_id
_symmetry_equiv_pos_as_xyz
1 x,y,z
2 -x,-y,-z
_cell_length_a                   8.0971(4)
_cell_length_b                   9.4106(5)
_cell_length_c                   18.3414(10)
_cell_angle_alpha                86.612(2)
_cell_angle_beta                 88.149(2)
_cell_angle_gamma                67.998(2)
_cell_volume                     1293.46
_exptl_crystal_colour            colorless
_exptl_crystal_description       block
_cell_formula_units_Z            2
loop_
_atom_site_label
_atom_site_type_symbol
_atom_site_fract_x
_atom_site_fract_y
_atom_site_fract_z
S1 S 0.53599(10) 1.08382(9) 0.32205(5)
P1 P 0.45437(10) 0.88459(9) 0.20733(5)
N1 N 0.1525(3) 0.6564(3) 0.33663(14)
N2 N 0.2182(3) 0.8565(3) 0.34706(14)
C1 C 0.3120(4) 1.0552(3) 0.15376(17)
C2 C 0.3253(5) 1.0538(4) 0.07775(19)
H1 H 0.4141 0.9700 0.0553
C3 C 0.2109(5) 1.1728(5) 0.0351(2)
H2 H 0.2236 1.1716 -0.0166
C4 C 0.0780(5) 1.2939(4) 0.0663(2)
H3 H -0.0016 1.3751 0.0365
C5 C 0.0623(5) 1.2953(4) 0.1414(2)
H4 H -0.0287 1.3783 0.1633
C6 C 0.1774(4) 1.1772(4) 0.18505(19)
H5 H 0.1646 1.1795 0.2367
C7 C 0.6784(4) 0.8701(3) 0.17832(17)
C8 C 0.8108(4) 0.7252(4) 0.17815(18)
H6 H 0.7830 0.6383 0.1931
C9 C 0.9845(4) 0.7047(4) 0.15642(19)
H7 H 1.0741 0.6046 0.1562
C10 C 1.0250(5) 0.8306(4) 0.1353(2)
H8 H 1.1434 0.8173 0.1208
C11 C 0.8953(5) 0.9758(4) 0.1352(2)
H9 H 0.9245 1.0621 0.1205
C12 C 0.7219(5) 0.9967(4) 0.1563(2)
H10 H 0.6327 1.0971 0.1558
C13 C 0.4278(5) 1.1127(4) 0.40491(19)
H11 H 0.4424 1.1766 0.4403
C14 C 0.3184(5) 1.0329(4) 0.41375(18)
H12 H 0.2474 1.0339 0.4561
C15 C 0.3237(4) 0.9490(3) 0.35226(17)
C16 C 0.4347(4) 0.9625(3) 0.29706(17)
C17 C 0.0343(4) 0.9066(4) 0.34808(18)
H13 H -0.0474 1.0091 0.3525
C18 C -0.0064(4) 0.7813(4) 0.34162(19)
H14 H -0.1227 0.7792 0.3407
C19 C 0.2857(4) 0.7053(3) 0.34015(17)
H15 H 0.4089 0.6429 0.3381
C20 C 0.1705(4) 0.4970(4) 0.3302(2)
H16 H 0.2970 0.4313 0.3276
H17 H 0.1112 0.4889 0.2858
H18 H 0.1153 0.4642 0.3729
S2 S 0.75525(10) 0.39593(9) 0.36427(4)
O1 O 0.9043(3) 0.2835(3) 0.33019(14)
O2 O 0.5916(3) 0.3699(3) 0.36330(14)
O3 O 0.7367(3) 0.5520(3) 0.34852(14)
F1 F 0.8241(4) 0.2217(4) 0.48378(15)
F2 F 0.6957(4) 0.4629(4) 0.50146(14)
F3 F 0.9699(3) 0.3696(3) 0.47313(13)
C21 C 0.8139(5) 0.3612(5) 0.4602(2)
loop_
_geom_bond_atom_site_label_1
_geom_bond_atom_site_label_2
_geom_bond_site_symmetry_1
_geom_bond_site_symmetry_2
S1 C13 1_555 1_555
P1 C1 1_555 1_555
N1 C18 1_555 1_555
N2 C15 1_555 1_555
C1 C2 1_555 1_555
C2 H1 1_555 1_555
C3 C2 1_555 1_555
H2 C3 1_555 1_555
C4 C3 1_555 1_555
H3 C4 1_555 1_555
C5 C4 1_555 1_555
H4 C5 1_555 1_555
C6 C1 1_555 1_555
H5 C6 1_555 1_555
C7 P1 1_555 1_555
C8 C7 1_555 1_555
H6 C8 1_555 1_555
C9 C8 1_555 1_555
H7 C9 1_555 1_555
C10 C9 1_555 1_555
H8 C10 1_555 1_555
C11 C10 1_555 1_555
H9 C11 1_555 1_555
C12 C7 1_555 1_555
H10 C12 1_555 1_555
C13 H11 1_555 1_555
C14 C13 1_555 1_555
H12 C14 1_555 1_555
C15 C14 1_555 1_555
C16 S1 1_555 1_555
C17 N2 1_555 1_555
H13 C17 1_555 1_555
C18 C17 1_555 1_555
H14 C18 1_555 1_555
C19 N1 1_555 1_555
H15 C19 1_555 1_555
C20 N1 1_555 1_555
H16 C20 1_555 1_555
H17 C20 1_555 1_555
H18 C20 1_555 1_555
S2 O1 1_555 1_555
O2 S2 1_555 1_555
O3 S2 1_555 1_555
F1 C21 1_555 1_555
F2 C21 1_555 1_555
F3 C21 1_555 1_555
C21 S2 1_555 1_555
P1 C16 1_555 1_555
N2 C19 1_555 1_555
C5 C6 1_555 1_555
C11 C12 1_555 1_555
C15 C16 1_555 1_555

#END
