
#######################################################################
#
#                 Cambridge Crystallographic Data Centre
#                                CCDC 
#
#######################################################################
#
# If this CIF has been generated from an entry in the Cambridge 
# Structural Database, then it will include bibliographic, chemical, 
# crystal, experimental, refinement or atomic coordinate data resulting 
# from the CCDC's data processing and validation procedures.
#
#######################################################################

data_IWEKEB
_chemical_formula_moiety         'C21 H19 O1 P1'
_chemical_name_systematic        
'(2-(2-Methylphenyl)vinyl)(diphenyl)phosphine oxide'
_symmetry_cell_setting           orthorhombic
_symmetry_space_group_name_H-M   'P 21 21 21'
_symmetry_Int_Tables_number      19
_space_group_name_Hall           'P 2ac 2ab'
loop_
_symmetry_equiv_pos_site_id
_symmetry_equiv_pos_as_xyz
1 x,y,z
2 1/2-x,-y,1/2+z
3 -x,1/2+y,1/2-z
4 1/2+x,1/2-y,-z
_cell_length_a                   9.077(2)
_cell_length_b                   9.993(3)
_cell_length_c                   18.823(5)
_cell_angle_alpha                90
_cell_angle_beta                 90
_cell_angle_gamma                90
_cell_volume                     1707.37
_exptl_crystal_colour            colorless
_exptl_crystal_description       block
_cell_formula_units_Z            4
loop_
_atom_site_label
_atom_site_type_symbol
_atom_site_fract_x
_atom_site_fract_y
_atom_site_fract_z
C1 C 1.0554(2) 0.1687(2) 0.28887(12)
H1 H 1.0228 0.2520 0.3042
C2 C 1.1362(2) 0.0940(2) 0.33146(12)
H2 H 1.1755 0.0164 0.3118
C3 C 1.1712(2) 0.1192(2) 0.40659(11)
C4 C 1.2772(2) 0.0427(2) 0.44184(13)
C5 C 1.2970(3) 0.0623(3) 0.51435(14)
H3 H 1.3656 0.0102 0.5385
C6 C 1.2180(3) 0.1562(3) 0.55110(15)
H4 H 1.2331 0.1671 0.5996
C7 C 1.1166(3) 0.2344(3) 0.51639(14)
H5 H 1.0638 0.2992 0.5411
C8 C 1.0934(3) 0.2163(2) 0.44451(13)
H6 H 1.0250 0.2695 0.4210
C9 C 1.3673(3) -0.0615(3) 0.40388(16)
H7 H 1.3045 -0.1340 0.3896
H8 H 1.4425 -0.0945 0.4352
H9 H 1.4122 -0.0224 0.3627
C10 C 1.0573(2) 0.2434(2) 0.14189(12)
C11 C 1.1680(3) 0.3338(3) 0.15822(15)
H10 H 1.2135 0.3300 0.2024
C12 C 1.2117(3) 0.4298(3) 0.10931(19)
H11 H 1.2861 0.4898 0.1209
C13 C 1.1454(4) 0.4363(3) 0.04405(17)
H12 H 1.1749 0.5007 0.0114
C14 C 1.0362(3) 0.3482(3) 0.02701(16)
H13 H 0.9918 0.3525 -0.0175
C15 C 0.9908(3) 0.2524(2) 0.07569(13)
H14 H 0.9152 0.1937 0.0638
C16 C 0.8092(2) 0.1022(2) 0.20029(11)
C17 C 0.7197(3) 0.1924(3) 0.23655(14)
H15 H 0.7619 0.2613 0.2628
C18 C 0.5683(3) 0.1796(4) 0.23353(18)
H16 H 0.5090 0.2402 0.2578
C19 C 0.5045(3) 0.0785(3) 0.19510(16)
H17 H 0.4025 0.0700 0.1937
C20 C 0.5918(3) -0.0099(3) 0.15867(16)
H18 H 0.5488 -0.0775 0.1318
C21 C 0.7429(3) 0.0009(3) 0.16169(14)
H19 H 0.8011 -0.0607 0.1375
O1 O 1.07695(18) -0.01924(14) 0.18313(8)
P1 P 1.00816(7) 0.11110(6) 0.20227(3)
loop_
_geom_bond_atom_site_label_1
_geom_bond_atom_site_label_2
_geom_bond_site_symmetry_1
_geom_bond_site_symmetry_2
C1 H1 1_555 1_555
C2 C1 1_555 1_555
H2 C2 1_555 1_555
C3 C2 1_555 1_555
C4 C3 1_555 1_555
C5 C4 1_555 1_555
H3 C5 1_555 1_555
C6 C5 1_555 1_555
H4 C6 1_555 1_555
C7 C6 1_555 1_555
H5 C7 1_555 1_555
C8 C3 1_555 1_555
H6 C8 1_555 1_555
C9 C4 1_555 1_555
H7 C9 1_555 1_555
H8 C9 1_555 1_555
H9 C9 1_555 1_555
C10 C11 1_555 1_555
C11 H10 1_555 1_555
C12 C11 1_555 1_555
H11 C12 1_555 1_555
C13 C12 1_555 1_555
H12 C13 1_555 1_555
C14 C13 1_555 1_555
H13 C14 1_555 1_555
C15 C10 1_555 1_555
H14 C15 1_555 1_555
C16 C17 1_555 1_555
C17 H15 1_555 1_555
C18 C17 1_555 1_555
H16 C18 1_555 1_555
C19 C18 1_555 1_555
H17 C19 1_555 1_555
C20 C19 1_555 1_555
H18 C20 1_555 1_555
C21 C16 1_555 1_555
H19 C21 1_555 1_555
O1 P1 1_555 1_555
P1 C1 1_555 1_555
C7 C8 1_555 1_555
C10 P1 1_555 1_555
C14 C15 1_555 1_555
C16 P1 1_555 1_555
C20 C21 1_555 1_555

#END
