
#######################################################################
#
#                 Cambridge Crystallographic Data Centre
#                                CCDC 
#
#######################################################################
#
# If this CIF has been generated from an entry in the Cambridge 
# Structural Database, then it will include bibliographic, chemical, 
# crystal, experimental, refinement or atomic coordinate data resulting 
# from the CCDC's data processing and validation procedures.
#
#######################################################################

data_IWEQUY
_chemical_formula_moiety         'C11 H19 N1 O3 S1'
_chemical_name_systematic        
'(1S,3S)-Methyl 1-t-butyl-3-methyl-3,6-dihydro-1\l^4^-1,2-thiazine-1-oxide 4-carboxylate'
_symmetry_cell_setting           orthorhombic
_symmetry_space_group_name_H-M   'P 21 21 21'
_symmetry_Int_Tables_number      19
_space_group_name_Hall           'P 2ac 2ab'
loop_
_symmetry_equiv_pos_site_id
_symmetry_equiv_pos_as_xyz
1 x,y,z
2 1/2-x,-y,1/2+z
3 1/2+x,1/2-y,-z
4 -x,1/2+y,1/2-z
_cell_length_a                   6.1762(5)
_cell_length_b                   9.8315(8)
_cell_length_c                   20.5884(16)
_cell_angle_alpha                90
_cell_angle_beta                 90
_cell_angle_gamma                90
_cell_volume                     1250.15
_exptl_crystal_colour            'light yellow'
_exptl_crystal_description       plate
_cell_formula_units_Z            4
loop_
_atom_site_label
_atom_site_type_symbol
_atom_site_fract_x
_atom_site_fract_y
_atom_site_fract_z
S1 S 0.20129(8) 0.70771(5) 0.28188(2)
N1 N 0.3602(3) 0.6237(2) 0.32175(9)
C1 C 0.3095(4) 0.6004(2) 0.39110(10)
H1 H 0.3972 0.5202 0.4053
C2 C 0.0738(4) 0.5644(2) 0.40281(11)
C3 C -0.0858(4) 0.5837(2) 0.36036(11)
H2 H -0.2275 0.5598 0.3742
C4 C -0.0649(4) 0.6391(2) 0.29328(11)
H3 H -0.1743 0.7112 0.2863
H4 H -0.0912 0.5658 0.2613
O1 O 0.1813(3) 0.85492(16) 0.29058(8)
C5 C 0.2697(4) 0.6765(2) 0.19669(10)
C6 C 0.4639(4) 0.7671(3) 0.18146(11)
H5 H 0.4277 0.8619 0.1912
H6 H 0.5011 0.7586 0.1354
H7 H 0.5877 0.7388 0.2080
C7 C 0.0735(4) 0.7207(3) 0.15644(11)
H8 H -0.0442 0.6549 0.1623
H9 H 0.1138 0.7246 0.1104
H10 H 0.0253 0.8107 0.1708
C8 C 0.3193(4) 0.5270(2) 0.18563(11)
H11 H 0.4515 0.5024 0.2092
H12 H 0.3402 0.5105 0.1391
H13 H 0.1983 0.4717 0.2015
C9 C 0.3781(4) 0.7204(3) 0.43381(12)
H14 H 0.3618 0.6957 0.4797
H15 H 0.2865 0.7993 0.4241
H16 H 0.5297 0.7432 0.4250
C10 C 0.0242(4) 0.4950(2) 0.46556(11)
O2 O 0.1576(3) 0.4512(2) 0.50229(9)
O3 O -0.1905(3) 0.48357(19) 0.47512(8)
C11 C -0.2577(4) 0.4100(3) 0.53201(13)
H17 H -0.2120 0.3148 0.5283
H18 H -0.4157 0.4141 0.5359
H19 H -0.1912 0.4507 0.5706
loop_
_geom_bond_atom_site_label_1
_geom_bond_atom_site_label_2
_geom_bond_site_symmetry_1
_geom_bond_site_symmetry_2
S1 N1 1_555 1_555
N1 C1 1_555 1_555
C1 H1 1_555 1_555
C2 C1 1_555 1_555
C3 C2 1_555 1_555
H2 C3 1_555 1_555
C4 S1 1_555 1_555
H3 C4 1_555 1_555
H4 C4 1_555 1_555
O1 S1 1_555 1_555
C5 S1 1_555 1_555
C6 C5 1_555 1_555
H5 C6 1_555 1_555
H6 C6 1_555 1_555
H7 C6 1_555 1_555
C7 C5 1_555 1_555
H8 C7 1_555 1_555
H9 C7 1_555 1_555
H10 C7 1_555 1_555
C8 C5 1_555 1_555
H11 C8 1_555 1_555
H12 C8 1_555 1_555
H13 C8 1_555 1_555
C9 C1 1_555 1_555
H14 C9 1_555 1_555
H15 C9 1_555 1_555
H16 C9 1_555 1_555
C10 C2 1_555 1_555
O2 C10 1_555 1_555
O3 C10 1_555 1_555
C11 O3 1_555 1_555
H17 C11 1_555 1_555
H18 C11 1_555 1_555
H19 C11 1_555 1_555
C3 C4 1_555 1_555

#END
