
#######################################################################
#
#                 Cambridge Crystallographic Data Centre
#                                CCDC 
#
#######################################################################
#
# If this CIF has been generated from an entry in the Cambridge 
# Structural Database, then it will include bibliographic, chemical, 
# crystal, experimental, refinement or atomic coordinate data resulting 
# from the CCDC's data processing and validation procedures.
#
#######################################################################

data_IWERAF
_chemical_formula_moiety         'C16 H21 N1 O3 S1'
_chemical_name_systematic        
'(1S,3S)-methyl 1-t-butyl-3-phenyl-3,6-dihydro-1\l^4^-1,2-thiazine-1-oxide 4-carboxylate'
_symmetry_cell_setting           orthorhombic
_symmetry_space_group_name_H-M   'P 21 21 21'
_symmetry_Int_Tables_number      19
_space_group_name_Hall           'P 2ac 2ab'
loop_
_symmetry_equiv_pos_site_id
_symmetry_equiv_pos_as_xyz
1 x,y,z
2 1/2-x,-y,1/2+z
3 1/2+x,1/2-y,-z
4 -x,1/2+y,1/2-z
_cell_length_a                   5.8752(6)
_cell_length_b                   10.4583(12)
_cell_length_c                   24.671(3)
_cell_angle_alpha                90
_cell_angle_beta                 90
_cell_angle_gamma                90
_cell_volume                     1515.9
_exptl_crystal_colour            colorless
_exptl_crystal_description       needle
_cell_formula_units_Z            4
loop_
_atom_site_label
_atom_site_type_symbol
_atom_site_fract_x
_atom_site_fract_y
_atom_site_fract_z
S1 S 0.7197(9) 0.6681(5) 0.26235(19)
N1 N 0.926(3) 0.6479(16) 0.2965(6)
C1 C 0.925(4) 0.604(2) 0.3527(8)
H1 H 1.0695 0.5550 0.3578
C2 C 0.733(4) 0.5134(19) 0.3660(8)
C3 C 0.545(4) 0.501(2) 0.3372(8)
H2 H 0.4379 0.4401 0.3501
C4 C 0.481(4) 0.572(2) 0.2855(8)
H3 H 0.3483 0.6283 0.2926
H4 H 0.4375 0.5102 0.2569
O1 O 0.627(3) 0.7968(13) 0.2548(5)
C5 C 0.795(4) 0.6095(19) 0.1952(8)
C6 C 0.877(5) 0.471(2) 0.2007(9)
H5 H 1.0220 0.4688 0.2205
H6 H 0.8987 0.4335 0.1646
H7 H 0.7634 0.4207 0.2206
C7 C 0.589(4) 0.616(2) 0.1579(8)
H8 H 0.4743 0.5545 0.1698
H9 H 0.6356 0.5963 0.1207
H10 H 0.5244 0.7027 0.1590
C8 C 0.984(4) 0.698(2) 0.1758(9)
H11 H 0.9257 0.7855 0.1732
H12 H 1.0377 0.6699 0.1402
H13 H 1.1108 0.6956 0.2017
C9 C 0.934(4) 0.715(2) 0.3932(8)
C10 C 0.759(4) 0.8022(19) 0.3976(8)
H14 H 0.6269 0.7922 0.3759
C11 C 0.774(4) 0.905(2) 0.4337(8)
H15 H 0.6507 0.9634 0.4369
C12 C 0.966(4) 0.921(2) 0.4644(9)
H16 H 0.9769 0.9928 0.4879
C13 C 1.145(4) 0.834(2) 0.4620(8)
H17 H 1.2764 0.8434 0.4842
C14 C 1.126(4) 0.731(2) 0.4258(8)
H18 H 1.2473 0.6713 0.4234
C15 C 0.766(4) 0.427(2) 0.4137(8)
O2 O 0.614(3) 0.3593(15) 0.4328(6)
O3 O 0.972(3) 0.4286(14) 0.4324(6)
C16 C 1.021(4) 0.338(2) 0.4759(9)
H19 H 0.9606 0.2539 0.4661
H20 H 0.9485 0.3676 0.5094
H21 H 1.1857 0.3323 0.4813
loop_
_geom_bond_atom_site_label_1
_geom_bond_atom_site_label_2
_geom_bond_site_symmetry_1
_geom_bond_site_symmetry_2
S1 N1 1_555 1_555
N1 C1 1_555 1_555
C1 H1 1_555 1_555
C2 C1 1_555 1_555
C3 C2 1_555 1_555
H2 C3 1_555 1_555
C4 S1 1_555 1_555
H3 C4 1_555 1_555
H4 C4 1_555 1_555
O1 S1 1_555 1_555
C5 S1 1_555 1_555
C6 C5 1_555 1_555
H5 C6 1_555 1_555
H6 C6 1_555 1_555
H7 C6 1_555 1_555
C7 C5 1_555 1_555
H8 C7 1_555 1_555
H9 C7 1_555 1_555
H10 C7 1_555 1_555
C8 C5 1_555 1_555
H11 C8 1_555 1_555
H12 C8 1_555 1_555
H13 C8 1_555 1_555
C9 C1 1_555 1_555
C10 C9 1_555 1_555
H14 C10 1_555 1_555
C11 C10 1_555 1_555
H15 C11 1_555 1_555
C12 C11 1_555 1_555
H16 C12 1_555 1_555
C13 C12 1_555 1_555
H17 C13 1_555 1_555
C14 C9 1_555 1_555
H18 C14 1_555 1_555
C15 C2 1_555 1_555
O2 C15 1_555 1_555
O3 C15 1_555 1_555
C16 O3 1_555 1_555
H19 C16 1_555 1_555
H20 C16 1_555 1_555
H21 C16 1_555 1_555
C3 C4 1_555 1_555
C13 C14 1_555 1_555

#END
