
#######################################################################
#
#                 Cambridge Crystallographic Data Centre
#                                CCDC 
#
#######################################################################
#
# If this CIF has been generated from an entry in the Cambridge 
# Structural Database, then it will include bibliographic, chemical, 
# crystal, experimental, refinement or atomic coordinate data resulting 
# from the CCDC's data processing and validation procedures.
#
#######################################################################

data_IWEYAK
_chemical_name_common            'Homocysteine sulfonamide hydantoin'
_chemical_formula_moiety         'C5 H9 N3 O4 S1'
_chemical_name_systematic        
2-(2,5-Dioxoimidazolidin-4-yl)ethanesulfonamide
_symmetry_cell_setting           monoclinic
_symmetry_space_group_name_H-M   'C 2/c'
_symmetry_Int_Tables_number      15
_space_group_name_Hall           '-C 2yn'
loop_
_symmetry_equiv_pos_site_id
_symmetry_equiv_pos_as_xyz
1 x,y,z
2 -x,y,1/2-z
3 1/2+x,1/2+y,z
4 1/2-x,1/2+y,1/2-z
5 -x,-y,-z
6 x,-y,1/2+z
7 1/2-x,1/2-y,-z
8 1/2+x,1/2-y,1/2+z
_cell_length_a                   15.653(2)
_cell_length_b                   9.6489(10)
_cell_length_c                   11.066(2)
_cell_angle_alpha                90
_cell_angle_beta                 94.64(2)
_cell_angle_gamma                90
_cell_volume                     1665.87
_exptl_crystal_colour            colorless
_exptl_crystal_description       parallelepiped
_chemical_melting_point          '185-186 deg.C'
_cell_formula_units_Z            8
_exptl_crystal_recrystallization_method aqueous
loop_
_atom_site_label
_atom_site_type_symbol
_atom_site_fract_x
_atom_site_fract_y
_atom_site_fract_z
S1 S 0.1855(1) 0.0445(1) 0.7630(1)
C1 C 0.0493(1) -0.2684(2) 0.5830(2)
C2 C -0.0320(1) -0.2687(2) 0.4990(2)
C3 C 0.0684(1) -0.3949(2) 0.4094(2)
C4 C 0.0799(1) -0.1215(2) 0.6130(2)
C5 C 0.1529(1) -0.1225(2) 0.7121(2)
N1 N -0.0154(1) -0.3460(2) 0.4013(2)
N2 N 0.1069(1) -0.3490(2) 0.5138(2)
N3 N 0.2354(1) 0.1171(2) 0.6604(2)
O1 O -0.0987(1) -0.2114(2) 0.5172(1)
O2 O 0.0980(1) -0.4674(2) 0.3321(1)
O3 O 0.2462(1) 0.0231(2) 0.8655(1)
O4 O 0.1107(1) 0.1250(2) 0.7788(2)
loop_
_geom_bond_atom_site_label_1
_geom_bond_atom_site_label_2
_geom_bond_site_symmetry_1
_geom_bond_site_symmetry_2
S1 C5 1_555 1_555
C1 C2 1_555 1_555
C2 N1 1_555 1_555
C3 N1 1_555 1_555
C4 C1 1_555 1_555
C5 C4 1_555 1_555
N2 C1 1_555 1_555
N3 S1 1_555 1_555
O1 C2 1_555 1_555
O2 C3 1_555 1_555
O3 S1 1_555 1_555
O4 S1 1_555 1_555
C3 N2 1_555 1_555

#END
