
#######################################################################
#
#                 Cambridge Crystallographic Data Centre
#                                CCDC 
#
#######################################################################
#
# If this CIF has been generated from an entry in the Cambridge 
# Structural Database, then it will include bibliographic, chemical, 
# crystal, experimental, refinement or atomic coordinate data resulting 
# from the CCDC's data processing and validation procedures.
#
#######################################################################

data_IWEYUG
_chemical_formula_moiety         'C20 H16 O3'
_chemical_name_systematic        
1-(4-hydroxy-3,5-dimethylphenyl)-2-(2-naphthyl)ethane-1,2-dione
_symmetry_cell_setting           monoclinic
_symmetry_space_group_name_H-M   'P 21/n'
_symmetry_Int_Tables_number      14
_space_group_name_Hall           '-P 2yn'
loop_
_symmetry_equiv_pos_site_id
_symmetry_equiv_pos_as_xyz
1 x,y,z
2 1/2-x,1/2+y,1/2-z
3 -x,-y,-z
4 1/2+x,1/2-y,1/2+z
_cell_length_a                   7.9918(16)
_cell_length_b                   8.6960(17)
_cell_length_c                   22.750(5)
_cell_angle_alpha                90
_cell_angle_beta                 98.022(3)
_cell_angle_gamma                90
_cell_volume                     1565.58
_exptl_crystal_colour            colorless
_exptl_crystal_description       Block
_cell_formula_units_Z            4
loop_
_atom_site_label
_atom_site_type_symbol
_atom_site_fract_x
_atom_site_fract_y
_atom_site_fract_z
C1 C 0.6083(3) 0.0436(3) 0.80694(9)
H1 H 0.6741 0.1003 0.8362
C2 C 0.6721(3) 0.0028(3) 0.75632(10)
H2 H 0.7805 0.0334 0.7510
C3 C 0.5748(4) -0.0847(4) 0.71247(10)
H3 H 0.6195 -0.1120 0.6783
C4 C 0.4167(3) -0.1300(3) 0.71922(9)
H4 H 0.3547 -0.1895 0.6899
C5 C 0.3443(3) -0.0881(2) 0.77012(8)
C6 C 0.4438(2) -0.0001(2) 0.81484(8)
C7 C 0.3724(2) 0.04108(18) 0.86613(7)
H5 H 0.4368 0.0958 0.8963
C8 C 0.2095(2) 0.00150(17) 0.87195(7)
C9 C 0.1114(2) -0.0847(2) 0.82671(8)
H6 H 0.0004 -0.1104 0.8305
C10 C 0.1778(3) -0.1296(2) 0.77829(8)
H7 H 0.1132 -0.1891 0.7497
C11 C 0.1333(2) 0.05338(19) 0.92401(8)
C12 C 0.2498(2) 0.08943(17) 0.98163(7)
C13 C 0.26916(19) 0.24868(17) 1.00191(7)
C14 C 0.1995(2) 0.36975(18) 0.96641(7)
H8 H 0.1381 0.3480 0.9296
C15 C 0.2192(2) 0.52106(17) 0.98448(7)
C16 C 0.3119(2) 0.54972(18) 1.04015(7)
C17 C 0.3837(2) 0.43056(18) 1.07705(7)
C18 C 0.3612(2) 0.28185(18) 1.05678(7)
H9 H 0.4088 0.2016 1.0804
C19 C 0.1458(2) 0.6505(2) 0.94533(8)
H10 H 0.2356 0.7095 0.9326
H11 H 0.0792 0.7154 0.9671
H12 H 0.0757 0.6091 0.9113
C20 C 0.4854(3) 0.4690(2) 1.13591(8)
H13 H 0.5127 0.3760 1.1579
H14 H 0.4207 0.5353 1.1579
H15 H 0.5878 0.5201 1.1295
O1 O -0.01803(17) 0.05999(18) 0.92434(7)
O2 O 0.31661(16) -0.02024(12) 1.00905(5)
O3 O 0.33709(18) 0.69383(14) 1.06235(6)
H16 H 0.305(2) 0.761(2) 1.0361(8)
loop_
_geom_bond_atom_site_label_1
_geom_bond_atom_site_label_2
_geom_bond_site_symmetry_1
_geom_bond_site_symmetry_2
C1 H1 1_555 1_555
C2 C1 1_555 1_555
H2 C2 1_555 1_555
C3 C2 1_555 1_555
H3 C3 1_555 1_555
C4 C3 1_555 1_555
H4 C4 1_555 1_555
C5 C4 1_555 1_555
C6 C1 1_555 1_555
C7 C6 1_555 1_555
H5 C7 1_555 1_555
C8 C7 1_555 1_555
C9 C8 1_555 1_555
H6 C9 1_555 1_555
C10 C5 1_555 1_555
H7 C10 1_555 1_555
C11 C8 1_555 1_555
C12 C11 1_555 1_555
C13 C12 1_555 1_555
C14 C13 1_555 1_555
H8 C14 1_555 1_555
C15 C14 1_555 1_555
C16 C15 1_555 1_555
C17 C16 1_555 1_555
C18 C13 1_555 1_555
H9 C18 1_555 1_555
C19 C15 1_555 1_555
H10 C19 1_555 1_555
H11 C19 1_555 1_555
H12 C19 1_555 1_555
C20 C17 1_555 1_555
H13 C20 1_555 1_555
H14 C20 1_555 1_555
H15 C20 1_555 1_555
O1 C11 1_555 1_555
O2 C12 1_555 1_555
O3 C16 1_555 1_555
H16 O3 1_555 1_555
C5 C6 1_555 1_555
C9 C10 1_555 1_555
C17 C18 1_555 1_555

#END
