
#######################################################################
#
#                 Cambridge Crystallographic Data Centre
#                                CCDC 
#
#######################################################################
#
# If this CIF has been generated from an entry in the Cambridge 
# Structural Database, then it will include bibliographic, chemical, 
# crystal, experimental, refinement or atomic coordinate data resulting 
# from the CCDC's data processing and validation procedures.
#
#######################################################################

data_IWEYAM
_chemical_compound_source        'club moss Lycopodium annotinum'
_chemical_name_common            'Annotinolide A'
_chemical_formula_moiety         'C16 H21 N1 O2'
_chemical_name_systematic        
(1S,2S,10S,12S,13R,15R)-16-methyl-14-oxa-6-azapentacyclo[8.7.0.0^1,6^.0^2,13^.0^10,12^]heptadec-8-en-15-one
_chemical_properties_biological  'antiaggregation activity'
_symmetry_cell_setting           orthorhombic
_symmetry_space_group_name_H-M   'P 21 21 21'
_symmetry_Int_Tables_number      19
_space_group_name_Hall           'P 2ac 2ab'
loop_
_symmetry_equiv_pos_site_id
_symmetry_equiv_pos_as_xyz
1 x,y,z
2 1/2+x,1/2-y,-z
3 -x,1/2+y,1/2-z
4 1/2-x,-y,1/2+z
_cell_length_a                   8.59030(10)
_cell_length_b                   9.11950(10)
_cell_length_c                   17.5588(2)
_cell_angle_alpha                90
_cell_angle_beta                 90
_cell_angle_gamma                90
_cell_volume                     1375.54
_exptl_crystal_colour            colorless
_exptl_crystal_description       block
_cell_formula_units_Z            4
_exptl_crystal_recrystallization_method methanol
loop_
_atom_site_label
_atom_site_type_symbol
_atom_site_fract_x
_atom_site_fract_y
_atom_site_fract_z
O1 O 0.9896(5) 0.1586(2) 1.01187(16)
O2 O 1.0481(4) 0.2266(2) 0.89726(14)
N1 N 0.8893(3) 0.6946(3) 0.84839(11)
C1 C 0.7220(4) 0.6688(5) 0.8485(2)
H1 H 0.6696 0.7535 0.8271
H2 H 0.6866 0.6571 0.9005
C2 C 0.6780(4) 0.5338(7) 0.8031(3)
H3 H 0.6937 0.5543 0.7494
H4 H 0.5680 0.5145 0.8106
C3 C 0.7700(5) 0.3952(5) 0.8240(3)
H5 H 0.7420 0.3621 0.8747
H6 H 0.7478 0.3171 0.7882
C4 C 0.9391(3) 0.4355(3) 0.82114(15)
H7 H 0.9563 0.4720 0.7693
C5 C 1.0758(4) 0.3324(3) 0.83698(17)
H8 H 1.0960 0.2772 0.7901
C6 C 1.2120(3) 0.4345(3) 0.84931(18)
H9 H 1.3046 0.4012 0.8769
C7 C 1.2249(3) 0.5473(4) 0.78834(17)
H10 H 1.1596 0.5360 0.7437
H11 H 1.3270 0.5887 0.7784
C8 C 1.0228(4) 0.2590(3) 0.97065(19)
C9 C 0.9379(5) 0.8239(3) 0.89346(16)
H12 H 0.9131 0.9118 0.8648
H13 H 0.8776 0.8263 0.9401
C10 C 1.1047(5) 0.8272(4) 0.91333(18)
H14 H 1.1431 0.9121 0.9358
C11 C 1.2035(5) 0.7190(4) 0.90170(18)
H15 H 1.3063 0.7258 0.9179
C12 C 1.1465(3) 0.5871(3) 0.86245(14)
C13 C 0.9744(3) 0.5642(2) 0.87261(12)
C14 C 0.9408(3) 0.5263(3) 0.95752(13)
H16 H 0.9460 0.6172 0.9861
H17 H 0.8341 0.4920 0.9605
C15 C 1.0421(4) 0.4145(3) 0.99905(14)
H18 H 1.1512 0.4426 0.9918
C16 C 1.0066(5) 0.4208(4) 1.08475(16)
H19 H 1.0238 0.5187 1.1031
H20 H 1.0737 0.3541 1.1114
H21 H 0.9000 0.3938 1.0933
loop_
_geom_bond_atom_site_label_1
_geom_bond_atom_site_label_2
_geom_bond_site_symmetry_1
_geom_bond_site_symmetry_2
O1 C8 1_555 1_555
O2 C5 1_555 1_555
N1 C1 1_555 1_555
C1 H1 1_555 1_555
H2 C1 1_555 1_555
C2 C1 1_555 1_555
H3 C2 1_555 1_555
H4 C2 1_555 1_555
C3 C2 1_555 1_555
H5 C3 1_555 1_555
H6 C3 1_555 1_555
C4 C3 1_555 1_555
H7 C4 1_555 1_555
C5 C4 1_555 1_555
H8 C5 1_555 1_555
C6 C5 1_555 1_555
H9 C6 1_555 1_555
C7 C6 1_555 1_555
H10 C7 1_555 1_555
H11 C7 1_555 1_555
C8 O2 1_555 1_555
C9 N1 1_555 1_555
H12 C9 1_555 1_555
H13 C9 1_555 1_555
C10 C9 1_555 1_555
H14 C10 1_555 1_555
C11 C10 1_555 1_555
H15 C11 1_555 1_555
C12 C6 1_555 1_555
C13 N1 1_555 1_555
C14 C13 1_555 1_555
H16 C14 1_555 1_555
H17 C14 1_555 1_555
C15 C8 1_555 1_555
H18 C15 1_555 1_555
C16 C15 1_555 1_555
H19 C16 1_555 1_555
H20 C16 1_555 1_555
H21 C16 1_555 1_555
C4 C13 1_555 1_555
C7 C12 1_555 1_555
C11 C12 1_555 1_555
C12 C13 1_555 1_555
C14 C15 1_555 1_555

#END
