
#######################################################################
#
#                 Cambridge Crystallographic Data Centre
#                                CCDC 
#
#######################################################################
#
# If this CIF has been generated from an entry in the Cambridge 
# Structural Database, then it will include bibliographic, chemical, 
# crystal, experimental, refinement or atomic coordinate data resulting 
# from the CCDC's data processing and validation procedures.
#
#######################################################################

data_IWEZAN
_chemical_formula_moiety         'C17 H14 O5'
_chemical_name_systematic        
1-(1,3-benzodioxol-5-yl)-2-(4-hydroxy-3,5-dimethylphenyl)ethane-1,2-dione
_symmetry_cell_setting           triclinic
_symmetry_space_group_name_H-M   'P -1'
_symmetry_Int_Tables_number      2
_space_group_name_Hall           '-P 1'
loop_
_symmetry_equiv_pos_site_id
_symmetry_equiv_pos_as_xyz
1 x,y,z
2 -x,-y,-z
_cell_length_a                   8.115(3)
_cell_length_b                   9.202(3)
_cell_length_c                   10.049(4)
_cell_angle_alpha                99.389(5)
_cell_angle_beta                 94.177(5)
_cell_angle_gamma                102.638(5)
_cell_volume                     717.806
_exptl_crystal_colour            colorless
_exptl_crystal_description       Block
_cell_formula_units_Z            2
loop_
_atom_site_label
_atom_site_type_symbol
_atom_site_fract_x
_atom_site_fract_y
_atom_site_fract_z
C1 C 0.8319(4) -0.0093(4) 0.7624(3)
H1 H 0.7699 0.0261 0.8351
H2 H 0.8785 -0.0910 0.7870
C2 C 0.7772(3) 0.0392(3) 0.5558(2)
C3 C 0.9223(3) 0.1412(3) 0.6181(2)
C4 C 1.0058(3) 0.2552(3) 0.5582(3)
H3 H 1.1049 0.3235 0.6007
C5 C 0.9346(3) 0.2632(3) 0.4304(2)
H4 H 0.9862 0.3400 0.3868
C6 C 0.7888(2) 0.1598(2) 0.3660(2)
C7 C 0.7059(3) 0.0429(2) 0.4301(2)
H5 H 0.6079 -0.0277 0.3886
C8 C 0.7152(3) 0.1729(2) 0.2328(2)
C9 C 0.7936(3) 0.3080(2) 0.1686(2)
C10 C 0.7052(2) 0.4306(2) 0.17237(19)
C11 C 0.5694(3) 0.4351(2) 0.2491(2)
H6 H 0.5353 0.3586 0.2983
C12 C 0.4844(3) 0.5499(2) 0.2539(2)
C13 C 0.5393(2) 0.6638(2) 0.1789(2)
C14 C 0.6753(3) 0.6631(2) 0.1009(2)
C15 C 0.7578(3) 0.5466(2) 0.0990(2)
H7 H 0.8492 0.5450 0.0485
C16 C 0.3371(4) 0.5545(3) 0.3343(3)
H8 H 0.3194 0.4713 0.3823
H9 H 0.2369 0.5469 0.2742
H10 H 0.3605 0.6482 0.3982
C17 C 0.7290(3) 0.7856(3) 0.0199(2)
H11 H 0.8149 0.7614 -0.0349
H12 H 0.7739 0.8806 0.0805
H13 H 0.6327 0.7931 -0.0376
O1 O 0.7220(2) -0.0611(2) 0.6391(2)
O2 O 0.9644(3) 0.1109(3) 0.7413(2)
O3 O 0.5945(2) 0.07843(18) 0.16498(17)
O4 O 0.9203(2) 0.3005(2) 0.1134(2)
O5 O 0.4495(2) 0.77334(18) 0.18474(19)
H14 H 0.513(3) 0.848(3) 0.160(3)
loop_
_geom_bond_atom_site_label_1
_geom_bond_atom_site_label_2
_geom_bond_site_symmetry_1
_geom_bond_site_symmetry_2
C1 H1 1_555 1_555
H2 C1 1_555 1_555
C2 C3 1_555 1_555
C3 C4 1_555 1_555
C4 H3 1_555 1_555
C5 C4 1_555 1_555
H4 C5 1_555 1_555
C6 C5 1_555 1_555
C7 C2 1_555 1_555
H5 C7 1_555 1_555
C8 C6 1_555 1_555
C9 C8 1_555 1_555
C10 C9 1_555 1_555
C11 C10 1_555 1_555
H6 C11 1_555 1_555
C12 C11 1_555 1_555
C13 C12 1_555 1_555
C14 C13 1_555 1_555
C15 C10 1_555 1_555
H7 C15 1_555 1_555
C16 C12 1_555 1_555
H8 C16 1_555 1_555
H9 C16 1_555 1_555
H10 C16 1_555 1_555
C17 C14 1_555 1_555
H11 C17 1_555 1_555
H12 C17 1_555 1_555
H13 C17 1_555 1_555
O1 C1 1_555 1_555
O2 C1 1_555 1_555
O3 C8 1_555 1_555
O4 C9 1_555 1_555
O5 C13 1_555 1_555
H14 O5 1_555 1_555
C2 O1 1_555 1_555
C3 O2 1_555 1_555
C6 C7 1_555 1_555
C14 C15 1_555 1_555

#END
