
#######################################################################
#
#                 Cambridge Crystallographic Data Centre
#                                CCDC 
#
#######################################################################
#
# If this CIF has been generated from an entry in the Cambridge 
# Structural Database, then it will include bibliographic, chemical, 
# crystal, experimental, refinement or atomic coordinate data resulting 
# from the CCDC's data processing and validation procedures.
#
#######################################################################

data_IWEZER
_chemical_name_common            'Lannotinidine G'
_chemical_formula_moiety         'C16 H21 N1 O2'
_chemical_name_systematic        
16-methyl-14-oxa-6-azatetracyclo[8.7.0.0^1,6^.0^2,13^]heptadeca-8,10-dien-15-one
_symmetry_cell_setting           orthorhombic
_symmetry_space_group_name_H-M   'P 21 21 21'
_symmetry_Int_Tables_number      19
_space_group_name_Hall           'P 2ac 2ab'
loop_
_symmetry_equiv_pos_site_id
_symmetry_equiv_pos_as_xyz
1 x,y,z
2 1/2-x,-y,1/2+z
3 -x,1/2+y,1/2-z
4 1/2+x,1/2-y,-z
_cell_length_a                   8.7114(2)
_cell_length_b                   9.1691(2)
_cell_length_c                   16.9047(5)
_cell_angle_alpha                90
_cell_angle_beta                 90
_cell_angle_gamma                90
_cell_volume                     1350.27
_exptl_crystal_colour            colorless
_exptl_crystal_description       block
_cell_formula_units_Z            4
loop_
_atom_site_label
_atom_site_type_symbol
_atom_site_fract_x
_atom_site_fract_y
_atom_site_fract_z
O1 O 0.4603(3) 0.17100(17) 0.48168(11)
O2 O 0.38764(18) 0.25194(15) 0.59541(9)
N1 N 0.67620(18) 0.65146(18) 0.65769(10)
C1 C 0.8149(2) 0.5648(3) 0.67203(14)
H1 H 0.8915 0.6255 0.6976
H2 H 0.8566 0.5324 0.6218
C2 C 0.7823(3) 0.4327(3) 0.72375(15)
H3 H 0.8738 0.3728 0.7272
H4 H 0.7564 0.4650 0.7768
C3 C 0.6514(3) 0.3427(2) 0.69066(13)
H5 H 0.6255 0.2649 0.7272
H6 H 0.6817 0.2992 0.6407
C4 C 0.5130(2) 0.4415(2) 0.67832(10)
H7 H 0.4937 0.4871 0.7298
C5 C 0.3673(2) 0.3596(2) 0.65808(12)
H8 H 0.3424 0.3030 0.7056
C6 C 0.2302(2) 0.4600(3) 0.64527(15)
H9 H 0.1674 0.4196 0.6033
H10 H 0.1687 0.4602 0.6931
C7 C 0.2682(2) 0.6139(2) 0.62465(13)
H11 H 0.1867 0.6780 0.6173
C8 C 0.4396(2) 0.2767(2) 0.52232(12)
C9 C 0.7156(3) 0.7851(3) 0.61515(14)
H12 H 0.7713 0.7598 0.5674
H13 H 0.7830 0.8438 0.6479
C10 C 0.5798(3) 0.8722(2) 0.59369(15)
H14 H 0.5937 0.9686 0.5781
C11 C 0.4395(3) 0.8190(2) 0.59565(13)
H15 H 0.3574 0.8799 0.5838
C12 C 0.4095(2) 0.6670(2) 0.61595(11)
C13 C 0.5483(2) 0.56796(19) 0.62152(10)
C14 C 0.5876(2) 0.51539(19) 0.53687(10)
H16 H 0.6146 0.6002 0.5055
H17 H 0.6782 0.4542 0.5400
C15 C 0.4631(2) 0.43058(19) 0.49225(11)
H18 H 0.3660 0.4833 0.4984
C16 C 0.5017(3) 0.4257(2) 0.40397(12)
H19 H 0.5117 0.5233 0.3841
H20 H 0.4211 0.3763 0.3760
H21 H 0.5966 0.3743 0.3964
loop_
_geom_bond_atom_site_label_1
_geom_bond_atom_site_label_2
_geom_bond_site_symmetry_1
_geom_bond_site_symmetry_2
O1 C8 1_555 1_555
O2 C5 1_555 1_555
N1 C1 1_555 1_555
C1 H1 1_555 1_555
H2 C1 1_555 1_555
C2 C1 1_555 1_555
H3 C2 1_555 1_555
H4 C2 1_555 1_555
C3 C2 1_555 1_555
H5 C3 1_555 1_555
H6 C3 1_555 1_555
C4 C3 1_555 1_555
H7 C4 1_555 1_555
C5 C4 1_555 1_555
H8 C5 1_555 1_555
C6 C5 1_555 1_555
H9 C6 1_555 1_555
H10 C6 1_555 1_555
C7 C6 1_555 1_555
H11 C7 1_555 1_555
C8 O2 1_555 1_555
C9 N1 1_555 1_555
H12 C9 1_555 1_555
H13 C9 1_555 1_555
C10 C9 1_555 1_555
H14 C10 1_555 1_555
C11 C10 1_555 1_555
H15 C11 1_555 1_555
C12 C7 1_555 1_555
C13 N1 1_555 1_555
C14 C13 1_555 1_555
H16 C14 1_555 1_555
H17 C14 1_555 1_555
C15 C8 1_555 1_555
H18 C15 1_555 1_555
C16 C15 1_555 1_555
H19 C16 1_555 1_555
H20 C16 1_555 1_555
H21 C16 1_555 1_555
C4 C13 1_555 1_555
C11 C12 1_555 1_555
C12 C13 1_555 1_555
C14 C15 1_555 1_555

#END
