
#######################################################################
#
#                 Cambridge Crystallographic Data Centre
#                                CCDC 
#
#######################################################################
#
# If this CIF has been generated from an entry in the Cambridge 
# Structural Database, then it will include bibliographic, chemical, 
# crystal, experimental, refinement or atomic coordinate data resulting 
# from the CCDC's data processing and validation procedures.
#
#######################################################################

data_IWILIK
_chemical_formula_moiety         'C68 H50 Si3'
_chemical_name_systematic        
1,1,3,4-Tetraphenyl-2,5-bis((triphenylsilyl)ethynyl)-1H-silole
_symmetry_cell_setting           monoclinic
_symmetry_space_group_name_H-M   'P 21/n'
_symmetry_Int_Tables_number      14
_space_group_name_Hall           '-P 2yn'
loop_
_symmetry_equiv_pos_site_id
_symmetry_equiv_pos_as_xyz
1 x,y,z
2 1/2-x,1/2+y,1/2-z
3 -x,-y,-z
4 1/2+x,1/2-y,1/2+z
_cell_length_a                   9.31450(10)
_cell_length_b                   34.8540(3)
_cell_length_c                   16.6322(2)
_cell_angle_alpha                90
_cell_angle_beta                 98.0100(10)
_cell_angle_gamma                90
_cell_volume                     5346.92
_exptl_crystal_colour            pink
_exptl_crystal_description       plate
_cell_formula_units_Z            4
loop_
_atom_site_label
_atom_site_type_symbol
_atom_site_fract_x
_atom_site_fract_y
_atom_site_fract_z
Si1 Si 0.55767(4) 0.245643(9) 0.31897(2)
Si2 Si 0.55211(3) 0.407835(9) 0.30688(2)
Si3 Si 0.51409(4) 0.089786(9) 0.30899(2)
C1 C 0.49573(14) 0.28650(4) 0.37817(8)
C2 C 0.42889(13) 0.27256(4) 0.43989(8)
C3 C 0.42389(13) 0.22943(4) 0.44632(7)
C4 C 0.48759(13) 0.21041(3) 0.38892(8)
C5 C 0.51469(14) 0.32597(4) 0.36174(8)
C6 C 0.53329(14) 0.35885(4) 0.34270(8)
C7 C 0.49025(14) 0.17044(4) 0.37405(8)
C8 C 0.50011(14) 0.13765(4) 0.35201(8)
C9 C 0.36658(14) 0.29872(4) 0.49653(8)
C10 C 0.41298(16) 0.29787(4) 0.57938(9)
H1 H 0.4816 0.2792 0.6015
C11 C 0.35924(19) 0.32432(5) 0.63003(10)
H2 H 0.3925 0.3240 0.6867
C12 C 0.2578(2) 0.35109(5) 0.59848(10)
H3 H 0.2214 0.3691 0.6334
C13 C 0.20905(19) 0.35176(5) 0.51631(11)
H4 H 0.1381 0.3700 0.4948
C14 C 0.26358(16) 0.32584(4) 0.46529(9)
H5 H 0.2307 0.3265 0.4086
C15 C 0.34715(14) 0.20963(4) 0.50647(8)
C16 C 0.40556(17) 0.17642(4) 0.54346(9)
H6 H 0.4983 0.1679 0.5334
C17 C 0.3302(2) 0.15538(4) 0.59512(10)
H7 H 0.3724 0.1330 0.6213
C18 C 0.1937(2) 0.16711(5) 0.60816(10)
H8 H 0.1405 0.1525 0.6421
C19 C 0.13474(17) 0.20019(5) 0.57173(9)
H9 H 0.0411 0.2083 0.5810
C20 C 0.21048(15) 0.22157(4) 0.52196(8)
H10 H 0.1695 0.2445 0.4981
C21 C 0.75627(15) 0.24110(4) 0.31720(8)
C22 C 0.83817(16) 0.21197(4) 0.35910(9)
H11 H 0.7931 0.1946 0.3919
C23 C 0.98526(17) 0.20811(5) 0.35333(10)
H12 H 1.0395 0.1879 0.3813
C24 C 1.05202(17) 0.23353(6) 0.30720(11)
H13 H 1.1524 0.2309 0.3035
C25 C 0.97379(19) 0.26282(6) 0.26642(12)
H14 H 1.0205 0.2805 0.2352
C26 C 0.82684(17) 0.26650(5) 0.27090(10)
H15 H 0.7734 0.2866 0.2420
C27 C 0.45462(14) 0.24325(4) 0.21479(8)
C28 C 0.34278(15) 0.26875(5) 0.18818(9)
H16 H 0.3192 0.2886 0.2233
C29 C 0.26555(17) 0.26544(6) 0.11081(11)
H17 H 0.1898 0.2831 0.0933
C30 C 0.29811(19) 0.23678(6) 0.05944(10)
H18 H 0.2450 0.2346 0.0066
C31 C 0.4082(2) 0.21115(6) 0.08497(10)
H19 H 0.4306 0.1913 0.0497
C32 C 0.48609(18) 0.21438(5) 0.16197(9)
H20 H 0.5619 0.1967 0.1790
C33 C 0.45514(13) 0.44117(4) 0.36853(8)
C34 C 0.41932(15) 0.43018(4) 0.44395(9)
H21 H 0.4440 0.4052 0.4640
C35 C 0.34824(17) 0.45517(5) 0.49021(9)
H22 H 0.3250 0.4472 0.5415
C36 C 0.31142(17) 0.49154(5) 0.46184(10)
H23 H 0.2625 0.5086 0.4934
C37 C 0.34569(16) 0.50324(4) 0.38734(10)
H24 H 0.3208 0.5283 0.3679
C38 C 0.41658(15) 0.47828(4) 0.34098(9)
H25 H 0.4393 0.4865 0.2898
C39 C 0.75008(14) 0.41893(4) 0.31567(8)
C40 C 0.80417(15) 0.45588(4) 0.32897(10)
H26 H 0.7394 0.4764 0.3354
C41 C 0.95190(17) 0.46332(5) 0.33308(11)
H27 H 0.9872 0.4887 0.3425
C42 C 1.04671(16) 0.43407(6) 0.32354(11)
H28 H 1.1473 0.4393 0.3257
C43 C 0.99585(17) 0.39710(6) 0.31081(12)
H29 H 1.0616 0.3768 0.3045
C44 C 0.84897(16) 0.38943(4) 0.30721(10)
H30 H 0.8150 0.3638 0.2989
C45 C 0.47239(14) 0.40818(4) 0.19721(8)
C46 C 0.54276(18) 0.42503(4) 0.13751(9)
H31 H 0.6313 0.4383 0.1531
C47 C 0.4870(2) 0.42286(6) 0.05640(11)
H32 H 0.5371 0.4346 0.0169
C48 C 0.3599(3) 0.40391(6) 0.03284(12)
H33 H 0.3220 0.4022 -0.0231
C49 C 0.2864(2) 0.38728(6) 0.09038(13)
H34 H 0.1972 0.3744 0.0741
C50 C 0.34260(18) 0.38934(5) 0.17223(11)
H35 H 0.2916 0.3777 0.2115
C51 C 0.42236(13) 0.05480(4) 0.36960(8)
C52 C 0.37493(15) 0.01914(4) 0.33803(9)
H36 H 0.3871 0.0128 0.2838
C53 C 0.31048(17) -0.00712(4) 0.38435(11)
H37 H 0.2783 -0.0312 0.3617
C54 C 0.29299(17) 0.00167(5) 0.46337(10)
H38 H 0.2491 -0.0164 0.4952
C55 C 0.33913(18) 0.03650(5) 0.49593(10)
H39 H 0.3272 0.0425 0.5503
C56 C 0.40323(16) 0.06295(4) 0.44954(9)
H40 H 0.4345 0.0870 0.4726
C57 C 0.71083(14) 0.07814(4) 0.31348(8)
C58 C 0.80901(16) 0.10725(4) 0.30186(9)
H41 H 0.7746 0.1326 0.2910
C59 C 0.95572(17) 0.09963(5) 0.30588(12)
H42 H 1.0209 0.1197 0.2975
C60 C 1.00772(17) 0.06284(5) 0.32211(11)
H43 H 1.1084 0.0577 0.3248
C61 C 0.91344(17) 0.03386(5) 0.33425(11)
H44 H 0.9490 0.0086 0.3458
C62 C 0.76547(16) 0.04134(4) 0.32974(9)
H45 H 0.7010 0.0210 0.3379
C63 C 0.42648(15) 0.09227(4) 0.20085(8)
C64 C 0.29779(18) 0.11270(5) 0.18043(10)
H46 H 0.2538 0.1247 0.2221
C65 C 0.2328(2) 0.11591(6) 0.10040(12)
H47 H 0.1449 0.1299 0.0877
C66 C 0.2961(2) 0.09880(6) 0.03961(11)
H48 H 0.2520 0.1011 -0.0152
C67 C 0.4223(2) 0.07843(6) 0.05763(10)
H49 H 0.4651 0.0665 0.0154
C68 C 0.48798(17) 0.07517(4) 0.13815(9)
H50 H 0.5757 0.0611 0.1502
loop_
_geom_bond_atom_site_label_1
_geom_bond_atom_site_label_2
_geom_bond_site_symmetry_1
_geom_bond_site_symmetry_2
Si1 C1 1_555 1_555
Si2 C6 1_555 1_555
Si3 C8 1_555 1_555
C1 C2 1_555 1_555
C2 C3 1_555 1_555
C3 C4 1_555 1_555
C4 Si1 1_555 1_555
C5 C1 1_555 1_555
C6 C5 1_555 1_555
C7 C4 1_555 1_555
C8 C7 1_555 1_555
C9 C2 1_555 1_555
C10 C9 1_555 1_555
H1 C10 1_555 1_555
C11 C10 1_555 1_555
H2 C11 1_555 1_555
C12 C11 1_555 1_555
H3 C12 1_555 1_555
C13 C12 1_555 1_555
H4 C13 1_555 1_555
C14 C9 1_555 1_555
H5 C14 1_555 1_555
C15 C3 1_555 1_555
C16 C15 1_555 1_555
H6 C16 1_555 1_555
C17 C16 1_555 1_555
H7 C17 1_555 1_555
C18 C17 1_555 1_555
H8 C18 1_555 1_555
C19 C18 1_555 1_555
H9 C19 1_555 1_555
C20 C15 1_555 1_555
H10 C20 1_555 1_555
C21 Si1 1_555 1_555
C22 C21 1_555 1_555
H11 C22 1_555 1_555
C23 C22 1_555 1_555
H12 C23 1_555 1_555
C24 C23 1_555 1_555
H13 C24 1_555 1_555
C25 C24 1_555 1_555
H14 C25 1_555 1_555
C26 C21 1_555 1_555
H15 C26 1_555 1_555
C27 Si1 1_555 1_555
C28 C27 1_555 1_555
H16 C28 1_555 1_555
C29 C28 1_555 1_555
H17 C29 1_555 1_555
C30 C29 1_555 1_555
H18 C30 1_555 1_555
C31 C30 1_555 1_555
H19 C31 1_555 1_555
C32 C27 1_555 1_555
H20 C32 1_555 1_555
C33 Si2 1_555 1_555
C34 C33 1_555 1_555
H21 C34 1_555 1_555
C35 C34 1_555 1_555
H22 C35 1_555 1_555
C36 C35 1_555 1_555
H23 C36 1_555 1_555
C37 C36 1_555 1_555
H24 C37 1_555 1_555
C38 C33 1_555 1_555
H25 C38 1_555 1_555
C39 Si2 1_555 1_555
C40 C39 1_555 1_555
H26 C40 1_555 1_555
C41 C40 1_555 1_555
H27 C41 1_555 1_555
C42 C41 1_555 1_555
H28 C42 1_555 1_555
C43 C42 1_555 1_555
H29 C43 1_555 1_555
C44 C39 1_555 1_555
H30 C44 1_555 1_555
C45 Si2 1_555 1_555
C46 C45 1_555 1_555
H31 C46 1_555 1_555
C47 C46 1_555 1_555
H32 C47 1_555 1_555
C48 C47 1_555 1_555
H33 C48 1_555 1_555
C49 C48 1_555 1_555
H34 C49 1_555 1_555
C50 C45 1_555 1_555
H35 C50 1_555 1_555
C51 Si3 1_555 1_555
C52 C51 1_555 1_555
H36 C52 1_555 1_555
C53 C52 1_555 1_555
H37 C53 1_555 1_555
C54 C53 1_555 1_555
H38 C54 1_555 1_555
C55 C54 1_555 1_555
H39 C55 1_555 1_555
C56 C51 1_555 1_555
H40 C56 1_555 1_555
C57 Si3 1_555 1_555
C58 C57 1_555 1_555
H41 C58 1_555 1_555
C59 C58 1_555 1_555
H42 C59 1_555 1_555
C60 C59 1_555 1_555
H43 C60 1_555 1_555
C61 C60 1_555 1_555
H44 C61 1_555 1_555
C62 C57 1_555 1_555
H45 C62 1_555 1_555
C63 Si3 1_555 1_555
C64 C63 1_555 1_555
H46 C64 1_555 1_555
C65 C64 1_555 1_555
H47 C65 1_555 1_555
C66 C65 1_555 1_555
H48 C66 1_555 1_555
C67 C66 1_555 1_555
H49 C67 1_555 1_555
C68 C63 1_555 1_555
H50 C68 1_555 1_555
C13 C14 1_555 1_555
C19 C20 1_555 1_555
C25 C26 1_555 1_555
C31 C32 1_555 1_555
C37 C38 1_555 1_555
C43 C44 1_555 1_555
C49 C50 1_555 1_555
C55 C56 1_555 1_555
C61 C62 1_555 1_555
C67 C68 1_555 1_555

#END
