
#######################################################################
#
#                 Cambridge Crystallographic Data Centre
#                                CCDC 
#
#######################################################################
#
# If this CIF has been generated from an entry in the Cambridge 
# Structural Database, then it will include bibliographic, chemical, 
# crystal, experimental, refinement or atomic coordinate data resulting 
# from the CCDC's data processing and validation procedures.
#
#######################################################################

data_IWILUW
_chemical_formula_moiety         'C28 H20 Br2 Si1'
_chemical_name_systematic        2,5-Dibromo-1,1,3,4-tetraphenyl-1H-silole
_symmetry_cell_setting           monoclinic
_symmetry_space_group_name_H-M   'P 2/n'
_symmetry_Int_Tables_number      13
_space_group_name_Hall           '-P 2yac'
loop_
_symmetry_equiv_pos_site_id
_symmetry_equiv_pos_as_xyz
1 x,y,z
2 1/2-x,y,1/2-z
3 -x,-y,-z
4 1/2+x,-y,1/2+z
_cell_length_a                   14.5958(11)
_cell_length_b                   10.1222(9)
_cell_length_c                   17.1317(12)
_cell_angle_alpha                90
_cell_angle_beta                 107.352(6)
_cell_angle_gamma                90
_cell_volume                     2415.88
_exptl_crystal_colour            colorless
_exptl_crystal_description       plate
_cell_formula_units_Z            4
loop_
_atom_site_label
_atom_site_type_symbol
_atom_site_fract_x
_atom_site_fract_y
_atom_site_fract_z
Br1 Br 0.60283(3) 0.89079(4) 0.07257(2)
Si1 Si 0.7500 0.79501(12) 0.2500
C1 C 0.6869(2) 0.9271(3) 0.17813(16)
C2 C 0.7134(2) 1.0485(3) 0.20754(16)
C3 C 0.8317(2) 0.6963(3) 0.20796(18)
C4 C 0.8543(3) 0.7393(4) 0.1382(2)
H1 H 0.8228 0.8119 0.1091
C5 C 0.9237(3) 0.6735(5) 0.1127(3)
H2 H 0.9388 0.7029 0.0666
C6 C 0.9697(3) 0.5666(5) 0.1544(3)
H3 H 1.0157 0.5231 0.1362
C7 C 0.9488(3) 0.5215(5) 0.2234(3)
H4 H 0.9808 0.4489 0.2523
C8 C 0.8794(3) 0.5870(4) 0.2485(2)
H5 H 0.8643 0.5563 0.2943
C9 C 0.6809(2) 1.1731(3) 0.16304(16)
C10 C 0.7468(2) 1.2608(3) 0.14683(18)
H6 H 0.8122 1.2438 0.1674
C11 C 0.7154(3) 1.3723(4) 0.1005(2)
H7 H 0.7598 1.4297 0.0895
C12 C 0.6185(3) 1.3994(4) 0.0702(2)
H8 H 0.5977 1.4737 0.0379
C13 C 0.5538(3) 1.3175(4) 0.0877(2)
H9 H 0.4887 1.3374 0.0686
C14 C 0.5837(2) 1.2045(4) 0.13376(19)
H10 H 0.5386 1.1492 0.1453
Br1A Br 0.89717(3) 0.89079(4) 0.42743(2)
C1A C 0.8131(2) 0.9271(3) 0.32187(16)
C2A C 0.7866(2) 1.0485(3) 0.29246(16)
C3A C 0.6683(2) 0.6963(3) 0.29204(18)
C4A C 0.6457(3) 0.7393(4) 0.3618(2)
H1A H 0.6772 0.8119 0.3909
C5A C 0.5763(3) 0.6735(5) 0.3873(3)
H2A H 0.5612 0.7029 0.4334
C6A C 0.5303(3) 0.5666(5) 0.3456(3)
H3A H 0.4843 0.5231 0.3638
C7A C 0.5512(3) 0.5215(5) 0.2766(3)
H4A H 0.5192 0.4489 0.2477
C8A C 0.6206(3) 0.5870(4) 0.2515(2)
H5A H 0.6357 0.5563 0.2057
C9A C 0.8191(2) 1.1731(3) 0.33696(16)
C10A C 0.7532(2) 1.2608(3) 0.35317(18)
H6A H 0.6878 1.2438 0.3326
C11A C 0.7846(3) 1.3723(4) 0.3995(2)
H7A H 0.7402 1.4297 0.4105
C12A C 0.8815(3) 1.3994(4) 0.4298(2)
H8A H 0.9023 1.4737 0.4621
C13A C 0.9462(3) 1.3175(4) 0.4123(2)
H9A H 1.0113 1.3374 0.4314
C14A C 0.9163(2) 1.2045(4) 0.36624(19)
H10A H 0.9614 1.1492 0.3547
Br2 Br 0.27803(3) 0.40464(4) 0.07513(2)
Si2 Si 0.2500 0.31148(13) 0.2500
C15 C 0.2662(2) 0.4439(3) 0.18010(17)
C16 C 0.2585(2) 0.5660(3) 0.20775(16)
C17 C 0.3600(2) 0.2117(3) 0.29512(18)
C18 C 0.3817(3) 0.1032(4) 0.2537(2)
H11 H 0.3380 0.0756 0.2050
C19 C 0.4679(3) 0.0359(5) 0.2847(3)
H12 H 0.4823 -0.0357 0.2563
C20 C 0.5307(3) 0.0746(5) 0.3559(3)
H13 H 0.5883 0.0293 0.3762
C21 C 0.5116(3) 0.1787(5) 0.3987(3)
H14 H 0.5558 0.2038 0.4478
C22 C 0.4264(3) 0.2470(4) 0.3691(2)
H15 H 0.4131 0.3175 0.3989
C23 C 0.2598(2) 0.6898(3) 0.16344(17)
C24 C 0.3350(3) 0.7176(4) 0.1311(2)
H16 H 0.3876 0.6612 0.1416
C25 C 0.3310(3) 0.8297(4) 0.0832(2)
H17 H 0.3805 0.8461 0.0607
C26 C 0.2562(3) 0.9157(4) 0.0686(2)
H18 H 0.2547 0.9902 0.0364
C27 C 0.1829(3) 0.8918(4) 0.1016(2)
H19 H 0.1321 0.9510 0.0926
C28 C 0.1845(2) 0.7800(3) 0.14820(18)
H20 H 0.1342 0.7646 0.1699
Br2A Br 0.22197(3) 0.40464(4) 0.42487(2)
C15A C 0.2338(2) 0.4439(3) 0.31990(17)
C16A C 0.2415(2) 0.5660(3) 0.29225(16)
C17A C 0.1400(2) 0.2117(3) 0.20488(18)
C18A C 0.1183(3) 0.1032(4) 0.2463(2)
H11A H 0.1620 0.0756 0.2950
C19A C 0.0321(3) 0.0359(5) 0.2153(3)
H12A H 0.0177 -0.0357 0.2437
C20A C -0.0307(3) 0.0746(5) 0.1441(3)
H13A H -0.0883 0.0293 0.1238
C21A C -0.0116(3) 0.1787(5) 0.1013(3)
H14A H -0.0558 0.2038 0.0522
C22A C 0.0736(3) 0.2470(4) 0.1309(2)
H15A H 0.0869 0.3175 0.1011
C23A C 0.2402(2) 0.6898(3) 0.33656(17)
C24A C 0.1650(3) 0.7176(4) 0.3689(2)
H16A H 0.1124 0.6612 0.3584
C25A C 0.1690(3) 0.8297(4) 0.4168(2)
H17A H 0.1195 0.8461 0.4393
C26A C 0.2438(3) 0.9157(4) 0.4314(2)
H18A H 0.2453 0.9902 0.4636
C27A C 0.3171(3) 0.8918(4) 0.3984(2)
H19A H 0.3679 0.9510 0.4074
C28A C 0.3155(2) 0.7800(3) 0.35180(18)
H20A H 0.3658 0.7646 0.3301
loop_
_geom_bond_atom_site_label_1
_geom_bond_atom_site_label_2
_geom_bond_site_symmetry_1
_geom_bond_site_symmetry_2
Br1 C1 1_555 1_555
Si1 C1 1_555 1_555
C1 C2 1_555 1_555
C2 C9 1_555 1_555
C3 Si1 1_555 1_555
C4 C3 1_555 1_555
H1 C4 1_555 1_555
C5 C4 1_555 1_555
H2 C5 1_555 1_555
C6 C5 1_555 1_555
H3 C6 1_555 1_555
C7 C6 1_555 1_555
H4 C7 1_555 1_555
C8 C3 1_555 1_555
H5 C8 1_555 1_555
C9 C10 1_555 1_555
C10 H6 1_555 1_555
C11 C10 1_555 1_555
H7 C11 1_555 1_555
C12 C11 1_555 1_555
H8 C12 1_555 1_555
C13 C12 1_555 1_555
H9 C13 1_555 1_555
C14 C9 1_555 1_555
H10 C14 1_555 1_555
Br2 C15 1_555 1_555
Si2 C15 1_555 1_555
C15 C16 1_555 1_555
C16 C23 1_555 1_555
C17 Si2 1_555 1_555
C18 C17 1_555 1_555
H11 C18 1_555 1_555
C19 C18 1_555 1_555
H12 C19 1_555 1_555
C20 C19 1_555 1_555
H13 C20 1_555 1_555
C21 C20 1_555 1_555
H14 C21 1_555 1_555
C22 C17 1_555 1_555
H15 C22 1_555 1_555
C23 C24 1_555 1_555
C24 H16 1_555 1_555
C25 C24 1_555 1_555
H17 C25 1_555 1_555
C26 C25 1_555 1_555
H18 C26 1_555 1_555
C27 C26 1_555 1_555
H19 C27 1_555 1_555
C28 C23 1_555 1_555
H20 C28 1_555 1_555
Br1A C1A 1_555 1_555
C1A Si1 1_555 1_555
C2A C2 1_555 1_555
C3A Si1 1_555 1_555
C4A C3A 1_555 1_555
H1A C4A 1_555 1_555
C5A C4A 1_555 1_555
H2A C5A 1_555 1_555
C6A C5A 1_555 1_555
H3A C6A 1_555 1_555
C7A C6A 1_555 1_555
H4A C7A 1_555 1_555
C8A C3A 1_555 1_555
H5A C8A 1_555 1_555
C9A C2A 1_555 1_555
C10A C9A 1_555 1_555
H6A C10A 1_555 1_555
C11A C10A 1_555 1_555
H7A C11A 1_555 1_555
C12A C11A 1_555 1_555
H8A C12A 1_555 1_555
C13A C12A 1_555 1_555
H9A C13A 1_555 1_555
C14A C9A 1_555 1_555
H10A C14A 1_555 1_555
Br2A C15A 1_555 1_555
C15A Si2 1_555 1_555
C16A C16 1_555 1_555
C17A Si2 1_555 1_555
C18A C17A 1_555 1_555
H11A C18A 1_555 1_555
C19A C18A 1_555 1_555
H12A C19A 1_555 1_555
C20A C19A 1_555 1_555
H13A C20A 1_555 1_555
C21A C20A 1_555 1_555
H14A C21A 1_555 1_555
C22A C17A 1_555 1_555
H15A C22A 1_555 1_555
C23A C16A 1_555 1_555
C24A C23A 1_555 1_555
H16A C24A 1_555 1_555
C25A C24A 1_555 1_555
H17A C25A 1_555 1_555
C26A C25A 1_555 1_555
H18A C26A 1_555 1_555
C27A C26A 1_555 1_555
H19A C27A 1_555 1_555
C28A C23A 1_555 1_555
H20A C28A 1_555 1_555
C7 C8 1_555 1_555
C13 C14 1_555 1_555
C21 C22 1_555 1_555
C27 C28 1_555 1_555
C1A C2A 1_555 1_555
C7A C8A 1_555 1_555
C13A C14A 1_555 1_555
C15A C16A 1_555 1_555
C21A C22A 1_555 1_555
C27A C28A 1_555 1_555

#END
