
#######################################################################
#
#                 Cambridge Crystallographic Data Centre
#                                CCDC 
#
#######################################################################
#
# If this CIF has been generated from an entry in the Cambridge 
# Structural Database, then it will include bibliographic, chemical, 
# crystal, experimental, refinement or atomic coordinate data resulting 
# from the CCDC's data processing and validation procedures.
#
#######################################################################

data_IWILOQ
_chemical_formula_moiety         'C63 H48 Si3,0.5(C1 H2 Cl2)'
_chemical_name_systematic        
'1-Methyl-1,3,4-triphenyl-2,5-bis((triphenylsilyl)ethynyl)-1H-silole dichloromethane solvate'
_symmetry_cell_setting           monoclinic
_symmetry_space_group_name_H-M   'P 21/c'
_symmetry_Int_Tables_number      14
_space_group_name_Hall           '-P 2ybc'
loop_
_symmetry_equiv_pos_site_id
_symmetry_equiv_pos_as_xyz
1 x,y,z
2 -x,1/2+y,1/2-z
3 -x,-y,-z
4 x,1/2-y,1/2+z
_cell_length_a                   14.7474(4)
_cell_length_b                   9.1010(3)
_cell_length_c                   38.6284(11)
_cell_angle_alpha                90
_cell_angle_beta                 90.520(3)
_cell_angle_gamma                90
_cell_volume                     5184.34
_exptl_crystal_colour            yellow
_exptl_crystal_description       plate
_cell_formula_units_Z            4
loop_
_atom_site_label
_atom_site_type_symbol
_atom_site_fract_x
_atom_site_fract_y
_atom_site_fract_z
Si1 Si 0.28094(6) 0.68123(10) 0.22319(2)
Si2 Si 0.34038(6) 0.65803(10) 0.08002(2)
Si3 Si 0.17798(6) 0.62834(10) 0.36462(2)
C1 C 0.3072(2) 0.5359(4) 0.19077(8)
C2 C 0.3196(2) 0.4049(4) 0.20681(7)
C3 C 0.3014(2) 0.4062(4) 0.24501(8)
C4 C 0.2789(2) 0.5399(4) 0.25818(7)
C5 C 0.3223(2) 0.5660(4) 0.15506(8)
C6 C 0.3301(2) 0.6063(4) 0.12554(8)
C7 C 0.2505(2) 0.5636(4) 0.29300(8)
C8 C 0.2225(2) 0.5929(4) 0.32153(7)
C9 C 0.3566(2) 0.2729(3) 0.18905(8)
C10 C 0.3144(2) 0.2145(4) 0.16015(8)
H1 H 0.2570 0.2510 0.1528
C11 C 0.3560(3) 0.1021(4) 0.14179(9)
H2 H 0.3268 0.0622 0.1219
C12 C 0.4390(3) 0.0483(4) 0.15217(10)
H3 H 0.4675 -0.0275 0.1393
C13 C 0.4805(3) 0.1042(4) 0.18111(10)
H4 H 0.5376 0.0668 0.1885
C14 C 0.4390(2) 0.2160(4) 0.19963(8)
H5 H 0.4677 0.2538 0.2199
C15 C 0.2993(2) 0.2693(4) 0.26581(7)
C16 C 0.2380(2) 0.1606(4) 0.25801(8)
H6 H 0.2015 0.1683 0.2377
C17 C 0.2288(3) 0.0398(4) 0.27940(10)
H7 H 0.1849 -0.0334 0.2740
C18 C 0.2827(3) 0.0249(5) 0.30827(11)
H8 H 0.2761 -0.0582 0.3229
C19 C 0.3463(3) 0.1304(5) 0.31604(9)
H9 H 0.3851 0.1186 0.3356
C20 C 0.3538(3) 0.2550(4) 0.29512(9)
H10 H 0.3962 0.3298 0.3009
C21 C 0.3759(2) 0.8125(4) 0.22660(9)
H11 H 0.3614 0.8881 0.2437
H12 H 0.3857 0.8587 0.2040
H13 H 0.4310 0.7602 0.2338
C22 C 0.1706(2) 0.7740(4) 0.21606(8)
C23 C 0.0910(2) 0.7272(4) 0.23172(9)
H14 H 0.0919 0.6439 0.2465
C24 C 0.0096(3) 0.8024(6) 0.22571(11)
H15 H -0.0443 0.7713 0.2368
C25 C 0.0077(3) 0.9210(6) 0.20377(12)
H16 H -0.0478 0.9711 0.1996
C26 C 0.0851(3) 0.9680(5) 0.18788(11)
H17 H 0.0833 1.0507 0.1729
C27 C 0.1646(3) 0.8959(4) 0.19364(9)
H18 H 0.2177 0.9287 0.1822
C28 C 0.3420(2) 0.4838(4) 0.05453(8)
C29 C 0.3846(2) 0.4712(4) 0.02236(8)
H19 H 0.4184 0.5518 0.0137
C30 C 0.3783(2) 0.3442(4) 0.00314(8)
H20 H 0.4071 0.3390 -0.0187
C31 C 0.3307(2) 0.2242(4) 0.01517(8)
H21 H 0.3259 0.1372 0.0017
C32 C 0.2899(3) 0.2334(4) 0.04760(9)
H22 H 0.2573 0.1517 0.0565
C33 C 0.2966(2) 0.3606(4) 0.06673(9)
H23 H 0.2694 0.3643 0.0889
C34 C 0.4453(2) 0.7695(4) 0.07440(7)
C35 C 0.5256(2) 0.7315(4) 0.09098(8)
H24 H 0.5267 0.6465 0.1053
C36 C 0.6042(2) 0.8131(5) 0.08747(9)
H25 H 0.6586 0.7831 0.0987
C37 C 0.6025(3) 0.9387(4) 0.06735(9)
H26 H 0.6556 0.9969 0.0653
C38 C 0.5250(3) 0.9792(4) 0.05050(10)
H27 H 0.5246 1.0642 0.0363
C39 C 0.4465(2) 0.8962(4) 0.05411(8)
H28 H 0.3926 0.9264 0.0425
C40 C 0.2387(2) 0.7687(4) 0.06743(8)
C41 C 0.2225(2) 0.8090(4) 0.03294(8)
H29 H 0.2630 0.7756 0.0156
C42 C 0.1502(3) 0.8952(5) 0.02324(10)
H30 H 0.1423 0.9225 -0.0003
C43 C 0.0894(3) 0.9417(5) 0.04761(11)
H31 H 0.0388 1.0003 0.0410
C44 C 0.1025(3) 0.9027(5) 0.08165(11)
H32 H 0.0604 0.9341 0.0986
C45 C 0.1758(2) 0.8188(4) 0.09154(9)
H33 H 0.1838 0.7943 0.1153
C46 C 0.1573(2) 0.4482(4) 0.38628(8)
C47 C 0.1470(2) 0.3175(4) 0.36786(9)
H34 H 0.1509 0.3196 0.3433
C48 C 0.1312(3) 0.1859(5) 0.38405(11)
H35 H 0.1237 0.0987 0.3708
C49 C 0.1264(3) 0.1809(5) 0.41962(11)
H36 H 0.1151 0.0901 0.4309
C50 C 0.1377(3) 0.3064(4) 0.43875(10)
H37 H 0.1353 0.3023 0.4633
C51 C 0.1527(2) 0.4380(4) 0.42238(8)
H38 H 0.1600 0.5244 0.4359
C52 C 0.2629(2) 0.7347(4) 0.38959(8)
C53 C 0.3544(2) 0.7388(4) 0.38026(9)
H39 H 0.3726 0.6924 0.3594
C54 C 0.4189(2) 0.8083(4) 0.40051(10)
H40 H 0.4808 0.8065 0.3938
C55 C 0.3943(3) 0.8801(4) 0.43021(10)
H41 H 0.4388 0.9292 0.4439
C56 C 0.3047(3) 0.8807(4) 0.44010(9)
H42 H 0.2873 0.9291 0.4608
C57 C 0.2406(2) 0.8110(4) 0.41992(8)
H43 H 0.1789 0.8146 0.4268
C58 C 0.0718(2) 0.7369(4) 0.36017(8)
C59 C 0.0126(2) 0.7571(5) 0.38754(10)
H44 H 0.0236 0.7063 0.4086
C60 C -0.0615(3) 0.8485(6) 0.38503(12)
H45 H -0.1008 0.8586 0.4042
C61 C -0.0793(3) 0.9254(5) 0.35502(14)
H46 H -0.1295 0.9905 0.3536
C62 C -0.0233(3) 0.9062(5) 0.32733(12)
H47 H -0.0359 0.9559 0.3062
C63 C 0.0514(2) 0.8153(4) 0.32975(9)
H48 H 0.0900 0.8055 0.3103
C64? C 0.0306(7) 0.5396(12) 0.0131(3)
Cl1? Cl -0.0591(5) 0.4051(8) 0.01104(18)
Cl2? Cl -0.0103(3) 0.3585(5) 0.02165(10)
Cl3? Cl -0.0267(4) 0.6447(7) -0.02085(14)
Cl4? Cl 0.1207(4) 0.4685(6) 0.01132(13)
loop_
_geom_bond_atom_site_label_1
_geom_bond_atom_site_label_2
_geom_bond_site_symmetry_1
_geom_bond_site_symmetry_2
Si1 C1 1_555 1_555
Si2 C6 1_555 1_555
Si3 C8 1_555 1_555
C1 C2 1_555 1_555
C2 C3 1_555 1_555
C3 C4 1_555 1_555
C4 Si1 1_555 1_555
C5 C1 1_555 1_555
C6 C5 1_555 1_555
C7 C4 1_555 1_555
C8 C7 1_555 1_555
C9 C2 1_555 1_555
C10 C9 1_555 1_555
H1 C10 1_555 1_555
C11 C10 1_555 1_555
H2 C11 1_555 1_555
C12 C11 1_555 1_555
H3 C12 1_555 1_555
C13 C12 1_555 1_555
H4 C13 1_555 1_555
C14 C9 1_555 1_555
H5 C14 1_555 1_555
C15 C3 1_555 1_555
C16 C15 1_555 1_555
H6 C16 1_555 1_555
C17 C16 1_555 1_555
H7 C17 1_555 1_555
C18 C17 1_555 1_555
H8 C18 1_555 1_555
C19 C18 1_555 1_555
H9 C19 1_555 1_555
C20 C15 1_555 1_555
H10 C20 1_555 1_555
C21 Si1 1_555 1_555
H11 C21 1_555 1_555
H12 C21 1_555 1_555
H13 C21 1_555 1_555
C22 Si1 1_555 1_555
C23 C22 1_555 1_555
H14 C23 1_555 1_555
C24 C23 1_555 1_555
H15 C24 1_555 1_555
C25 C24 1_555 1_555
H16 C25 1_555 1_555
C26 C25 1_555 1_555
H17 C26 1_555 1_555
C27 C22 1_555 1_555
H18 C27 1_555 1_555
C28 Si2 1_555 1_555
C29 C28 1_555 1_555
H19 C29 1_555 1_555
C30 C29 1_555 1_555
H20 C30 1_555 1_555
C31 C30 1_555 1_555
H21 C31 1_555 1_555
C32 C31 1_555 1_555
H22 C32 1_555 1_555
C33 C28 1_555 1_555
H23 C33 1_555 1_555
C34 Si2 1_555 1_555
C35 C34 1_555 1_555
H24 C35 1_555 1_555
C36 C35 1_555 1_555
H25 C36 1_555 1_555
C37 C36 1_555 1_555
H26 C37 1_555 1_555
C38 C37 1_555 1_555
H27 C38 1_555 1_555
C39 C34 1_555 1_555
H28 C39 1_555 1_555
C40 Si2 1_555 1_555
C41 C40 1_555 1_555
H29 C41 1_555 1_555
C42 C41 1_555 1_555
H30 C42 1_555 1_555
C43 C42 1_555 1_555
H31 C43 1_555 1_555
C44 C43 1_555 1_555
H32 C44 1_555 1_555
C45 C40 1_555 1_555
H33 C45 1_555 1_555
C46 Si3 1_555 1_555
C47 C46 1_555 1_555
H34 C47 1_555 1_555
C48 C47 1_555 1_555
H35 C48 1_555 1_555
C49 C48 1_555 1_555
H36 C49 1_555 1_555
C50 C49 1_555 1_555
H37 C50 1_555 1_555
C51 C46 1_555 1_555
H38 C51 1_555 1_555
C52 Si3 1_555 1_555
C53 C52 1_555 1_555
H39 C53 1_555 1_555
C54 C53 1_555 1_555
H40 C54 1_555 1_555
C55 C54 1_555 1_555
H41 C55 1_555 1_555
C56 C55 1_555 1_555
H42 C56 1_555 1_555
C57 C52 1_555 1_555
H43 C57 1_555 1_555
C58 Si3 1_555 1_555
C59 C58 1_555 1_555
H44 C59 1_555 1_555
C60 C59 1_555 1_555
H45 C60 1_555 1_555
C61 C60 1_555 1_555
H46 C61 1_555 1_555
C62 C61 1_555 1_555
H47 C62 1_555 1_555
C63 C58 1_555 1_555
H48 C63 1_555 1_555
C13 C14 1_555 1_555
C19 C20 1_555 1_555
C26 C27 1_555 1_555
C32 C33 1_555 1_555
C38 C39 1_555 1_555
C44 C45 1_555 1_555
C50 C51 1_555 1_555
C56 C57 1_555 1_555
C62 C63 1_555 1_555

#END
