
#######################################################################
#
#                 Cambridge Crystallographic Data Centre
#                                CCDC 
#
#######################################################################
#
# If this CIF has been generated from an entry in the Cambridge 
# Structural Database, then it will include bibliographic, chemical, 
# crystal, experimental, refinement or atomic coordinate data resulting 
# from the CCDC's data processing and validation procedures.
#
#######################################################################

data_IWIMEI
_chemical_formula_moiety         'C31 H46 B1 K1 N4 O2'
_chemical_name_systematic        
(N,N,N-tris(2-(dimethylamino)ethyl)amine)-(((formyl)oxy)(triphenyl)borate)-potassium
_symmetry_cell_setting           monoclinic
_symmetry_space_group_name_H-M   'P 21/c'
_symmetry_Int_Tables_number      14
_space_group_name_Hall           '-P 2ybc'
loop_
_symmetry_equiv_pos_site_id
_symmetry_equiv_pos_as_xyz
1 x,y,z
2 -x,1/2+y,1/2-z
3 -x,-y,-z
4 x,1/2-y,1/2+z
_cell_length_a                   9.570(2)
_cell_length_b                   19.486(4)
_cell_length_c                   17.762(4)
_cell_angle_alpha                90
_cell_angle_beta                 102.244(4)
_cell_angle_gamma                90
_cell_volume                     3236.93
_exptl_crystal_colour            colorless
_exptl_crystal_description       block
_cell_formula_units_Z            4
_chemical_properties_physical    
Air-sensitive,Moisture-sensitive,Hygroscopic,Oxygen-sensitive
loop_
_atom_site_label
_atom_site_type_symbol
_atom_site_fract_x
_atom_site_fract_y
_atom_site_fract_z
K1 K 0.21445(7) 0.03649(3) 0.19049(4)
O1 O 0.1603(2) 0.15548(9) 0.10427(10)
O2 O 0.1508(3) 0.06733(11) 0.02521(12)
N1 N 0.3116(3) -0.07472(13) 0.11408(15)
N2 N -0.0358(3) -0.01419(13) 0.22772(14)
N3 N 0.4062(3) 0.03734(13) 0.34238(14)
N4 N 0.2438(3) -0.09427(13) 0.27382(15)
B1 B 0.2267(4) 0.22750(16) 0.12967(18)
C1 C 0.1777(4) 0.12717(16) 0.04035(17)
H1 H 0.214(3) 0.1569(14) 0.0031(16)
C2 C 0.4208(4) -0.0520(2) 0.0729(2)
H2 H 0.5048 -0.0355 0.1101
H3 H 0.3822 -0.0148 0.0374
H4 H 0.4483 -0.0905 0.0437
C3 C 0.1872(4) -0.09815(18) 0.05717(19)
H5 H 0.2128 -0.1391 0.0310
H6 H 0.1561 -0.0618 0.0192
H7 H 0.1094 -0.1093 0.0831
C4 C -0.0641(4) 0.02272(18) 0.2938(2)
H8 H -0.0764 0.0716 0.2813
H9 H 0.0164 0.0167 0.3377
H10 H -0.1515 0.0048 0.3071
C5 C -0.1526(5) -0.0010(2) 0.1619(2)
H11 H -0.2430 -0.0159 0.1740
H12 H -0.1358 -0.0264 0.1170
H13 H -0.1572 0.0483 0.1503
C6 C 0.3812(4) 0.09870(18) 0.3834(2)
H14 H 0.2818 0.0993 0.3894
H15 H 0.3994 0.1392 0.3543
H16 H 0.4455 0.0991 0.4343
C7 C 0.5539(4) 0.0349(2) 0.3335(3)
H17 H 0.5763 0.0771 0.3083
H18 H 0.5670 -0.0048 0.3019
H19 H 0.6178 0.0309 0.3843
C8 C 0.3666(4) -0.12875(17) 0.1682(2)
H20 H 0.4594 -0.1136 0.1998
H21 H 0.3852 -0.1697 0.1388
C9 C 0.2713(4) -0.14953(17) 0.2212(2)
H22 H 0.1787 -0.1651 0.1898
H23 H 0.3154 -0.1890 0.2526
C10 C -0.0222(4) -0.08833(17) 0.2433(2)
H24 H -0.0255 -0.1126 0.1940
H25 H -0.1059 -0.1036 0.2635
C11 C 0.1100(4) -0.10937(17) 0.2988(2)
H26 H 0.1125 -0.0859 0.3485
H27 H 0.1054 -0.1593 0.3080
C12 C 0.3734(5) -0.02352(18) 0.38400(19)
H28 H 0.2815 -0.0156 0.3997
H29 H 0.4483 -0.0284 0.4316
C13 C 0.3632(4) -0.08995(18) 0.3405(2)
H30 H 0.4534 -0.0970 0.3227
H31 H 0.3542 -0.1279 0.3763
C14 C 0.3931(3) 0.22299(14) 0.12388(16)
C15 C 0.4908(3) 0.18615(16) 0.17838(17)
H32 H 0.4595 0.1677 0.2214
C16 C 0.6310(4) 0.17516(18) 0.17293(19)
H33 H 0.6935 0.1497 0.2117
C17 C 0.6801(4) 0.20139(18) 0.1108(2)
H34 H 0.7762 0.1943 0.1063
C18 C 0.5870(4) 0.23775(17) 0.05596(19)
H35 H 0.6195 0.2556 0.0129
C19 C 0.4467(3) 0.24910(15) 0.06172(17)
H36 H 0.3854 0.2750 0.0229
C20 C 0.2028(3) 0.23509(14) 0.21713(15)
C21 C 0.2945(3) 0.27275(14) 0.27340(16)
H37 H 0.3756 0.2940 0.2605
C22 C 0.2722(4) 0.28060(15) 0.34778(17)
H38 H 0.3382 0.3061 0.3848
C23 C 0.1539(3) 0.25116(15) 0.36750(16)
H39 H 0.1380 0.2562 0.4182
C24 C 0.0591(3) 0.21440(15) 0.31326(16)
H40 H -0.0231 0.1945 0.3264
C25 C 0.0833(3) 0.20629(15) 0.23890(16)
H41 H 0.0170 0.1806 0.2022
C26 C 0.1342(3) 0.28676(14) 0.07671(15)
C27 C 0.1871(4) 0.35372(15) 0.07502(17)
H42 H 0.2798 0.3641 0.1043
C28 C 0.1080(4) 0.40500(16) 0.03194(19)
H43 H 0.1476 0.4497 0.0316
C29 C -0.0275(4) 0.39205(18) -0.01049(19)
H44 H -0.0812 0.4274 -0.0402
C30 C -0.0838(4) 0.32750(17) -0.00923(17)
H45 H -0.1776 0.3179 -0.0376
C31 C -0.0030(3) 0.27617(15) 0.03366(16)
H46 H -0.0436 0.2317 0.0335
loop_
_geom_bond_atom_site_label_1
_geom_bond_atom_site_label_2
_geom_bond_site_symmetry_1
_geom_bond_site_symmetry_2
K1 O1 1_555 1_555
O1 B1 1_555 1_555
O2 K1 1_555 1_555
N1 K1 1_555 1_555
N2 K1 1_555 1_555
N3 K1 1_555 1_555
N4 K1 1_555 1_555
B1 C14 1_555 1_555
C1 O1 1_555 1_555
H1 C1 1_555 1_555
C2 N1 1_555 1_555
H2 C2 1_555 1_555
H3 C2 1_555 1_555
H4 C2 1_555 1_555
C3 N1 1_555 1_555
H5 C3 1_555 1_555
H6 C3 1_555 1_555
H7 C3 1_555 1_555
C4 N2 1_555 1_555
H8 C4 1_555 1_555
H9 C4 1_555 1_555
H10 C4 1_555 1_555
C5 N2 1_555 1_555
H11 C5 1_555 1_555
H12 C5 1_555 1_555
H13 C5 1_555 1_555
C6 N3 1_555 1_555
H14 C6 1_555 1_555
H15 C6 1_555 1_555
H16 C6 1_555 1_555
C7 N3 1_555 1_555
H17 C7 1_555 1_555
H18 C7 1_555 1_555
H19 C7 1_555 1_555
C8 N1 1_555 1_555
H20 C8 1_555 1_555
H21 C8 1_555 1_555
C9 N4 1_555 1_555
H22 C9 1_555 1_555
H23 C9 1_555 1_555
C10 N2 1_555 1_555
H24 C10 1_555 1_555
H25 C10 1_555 1_555
C11 N4 1_555 1_555
H26 C11 1_555 1_555
H27 C11 1_555 1_555
C12 N3 1_555 1_555
H28 C12 1_555 1_555
H29 C12 1_555 1_555
C13 N4 1_555 1_555
H30 C13 1_555 1_555
H31 C13 1_555 1_555
C14 C15 1_555 1_555
C15 H32 1_555 1_555
C16 C15 1_555 1_555
H33 C16 1_555 1_555
C17 C16 1_555 1_555
H34 C17 1_555 1_555
C18 C17 1_555 1_555
H35 C18 1_555 1_555
C19 C14 1_555 1_555
H36 C19 1_555 1_555
C20 B1 1_555 1_555
C21 C20 1_555 1_555
H37 C21 1_555 1_555
C22 C21 1_555 1_555
H38 C22 1_555 1_555
C23 C22 1_555 1_555
H39 C23 1_555 1_555
C24 C23 1_555 1_555
H40 C24 1_555 1_555
C25 C20 1_555 1_555
H41 C25 1_555 1_555
C26 B1 1_555 1_555
C27 C26 1_555 1_555
H42 C27 1_555 1_555
C28 C27 1_555 1_555
H43 C28 1_555 1_555
C29 C28 1_555 1_555
H44 C29 1_555 1_555
C30 C29 1_555 1_555
H45 C30 1_555 1_555
C31 C26 1_555 1_555
H46 C31 1_555 1_555
O2 C1 1_555 1_555
C8 C9 1_555 1_555
C10 C11 1_555 1_555
C12 C13 1_555 1_555
C18 C19 1_555 1_555
C24 C25 1_555 1_555
C30 C31 1_555 1_555

#END
