
#######################################################################
#
#                 Cambridge Crystallographic Data Centre
#                                CCDC 
#
#######################################################################
#
# If this CIF has been generated from an entry in the Cambridge 
# Structural Database, then it will include bibliographic, chemical, 
# crystal, experimental, refinement or atomic coordinate data resulting 
# from the CCDC's data processing and validation procedures.
#
#######################################################################

data_IWIPIN
_chemical_formula_moiety         'C18 H16 N2 O1'
_chemical_name_systematic        2,6-bis(3-Pyridylmethylidene)cyclohexanone
_symmetry_cell_setting           triclinic
_symmetry_space_group_name_H-M   'P -1'
_symmetry_Int_Tables_number      2
_space_group_name_Hall           '-P 1'
loop_
_symmetry_equiv_pos_site_id
_symmetry_equiv_pos_as_xyz
1 x,y,z
2 -x,-y,-z
_cell_length_a                   9.0541(2)
_cell_length_b                   9.3447(3)
_cell_length_c                   9.7248(3)
_cell_angle_alpha                81.711(1)
_cell_angle_beta                 70.102(1)
_cell_angle_gamma                64.450(1)
_cell_volume                     698.012
_exptl_crystal_colour            'light yellow'
_exptl_crystal_description       block
_chemical_melting_point          '139 deg.C'
_cell_formula_units_Z            2
_exptl_crystal_recrystallization_method ethanol
loop_
_atom_site_label
_atom_site_type_symbol
_atom_site_fract_x
_atom_site_fract_y
_atom_site_fract_z
O1 O 0.19897(14) 0.11122(13) 0.29236(12)
N1 N -0.46978(17) 0.71075(17) 0.22353(16)
N2 N 0.19438(18) -0.20081(16) 0.93407(15)
C1 C 0.08133(18) 0.17774(17) 0.40252(16)
C2 C -0.1641(2) 0.36622(18) 0.65916(17)
C3 C -0.4185(2) 0.82192(19) 0.14609(17)
C4 C -0.2482(2) 0.80338(19) 0.09593(17)
C5 C -0.12351(19) 0.66435(18) 0.13006(16)
C6 C -0.17359(19) 0.54975(17) 0.21592(15)
C7 C -0.3482(2) 0.57844(19) 0.25659(17)
C8 C -0.04653(18) 0.40243(17) 0.25790(16)
C9 C -0.06668(18) 0.33037(17) 0.38884(16)
C10 C -0.22099(19) 0.39507(19) 0.52301(16)
C11 C 0.3593(2) -0.2548(2) 0.93071(18)
C12 C 0.4889(2) -0.24154(19) 0.81006(19)
C13 C 0.4469(2) -0.16620(18) 0.68626(18)
C14 C 0.27504(19) -0.10160(17) 0.68719(16)
C15 C 0.15505(19) -0.12561(18) 0.81476(16)
C16 C 0.23075(19) -0.01533(18) 0.55828(16)
C17 C 0.08381(18) 0.10976(17) 0.55210(15)
C18 C -0.07158(19) 0.18817(18) 0.68253(16)
H1 H -0.084(2) 0.418(2) 0.649(2)
H2 H -0.268(2) 0.413(2) 0.745(2)
H3 H -0.506(3) 0.916(2) 0.124(2)
H4 H -0.215(3) 0.888(3) 0.036(2)
H5 H -0.006(2) 0.649(2) 0.0961(19)
H6 H -0.386(3) 0.493(2) 0.308(2)
H7 H 0.065(3) 0.358(2) 0.185(2)
H8 H -0.289(3) 0.512(2) 0.513(2)
H9 H -0.299(2) 0.343(2) 0.536(2)
H10 H 0.386(3) -0.308(2) 1.023(2)
H11 H 0.605(3) -0.284(2) 0.812(2)
H12 H 0.533(2) -0.155(2) 0.599(2)
H13 H 0.034(2) -0.088(2) 0.820(2)
H14 H 0.322(2) -0.047(2) 0.465(2)
H15 H -0.034(2) 0.165(2) 0.771(2)
H16 H -0.157(2) 0.145(2) 0.6982(19)
loop_
_geom_bond_atom_site_label_1
_geom_bond_atom_site_label_2
_geom_bond_site_symmetry_1
_geom_bond_site_symmetry_2
O1 C1 1_555 1_555
N1 C3 1_555 1_555
N2 C11 1_555 1_555
C1 C9 1_555 1_555
C2 C10 1_555 1_555
C3 C4 1_555 1_555
C4 C5 1_555 1_555
C5 C6 1_555 1_555
C6 C7 1_555 1_555
C7 N1 1_555 1_555
C8 C6 1_555 1_555
C9 C8 1_555 1_555
C10 C9 1_555 1_555
C11 C12 1_555 1_555
C12 C13 1_555 1_555
C13 C14 1_555 1_555
C14 C15 1_555 1_555
C15 N2 1_555 1_555
C16 C14 1_555 1_555
C17 C1 1_555 1_555
C18 C2 1_555 1_555
H1 C2 1_555 1_555
H2 C2 1_555 1_555
H3 C3 1_555 1_555
H4 C4 1_555 1_555
H5 C5 1_555 1_555
H6 C7 1_555 1_555
H7 C8 1_555 1_555
H8 C10 1_555 1_555
H9 C10 1_555 1_555
H10 C11 1_555 1_555
H11 C12 1_555 1_555
H12 C13 1_555 1_555
H13 C15 1_555 1_555
H14 C16 1_555 1_555
H15 C18 1_555 1_555
H16 C18 1_555 1_555
C16 C17 1_555 1_555
C17 C18 1_555 1_555

#END
