
#######################################################################
#
#                 Cambridge Crystallographic Data Centre
#                                CCDC 
#
#######################################################################
#
# If this CIF has been generated from an entry in the Cambridge 
# Structural Database, then it will include bibliographic, chemical, 
# crystal, experimental, refinement or atomic coordinate data resulting 
# from the CCDC's data processing and validation procedures.
#
#######################################################################

data_IWITAJ
_chemical_formula_moiety         'C17 H19 N3 O4'
_chemical_name_systematic        
(10bS,11S)-8,9-Dimethoxy-11-methyl-5,6,10b,11-tetrahydro-2H-12-oxa-2,3,4b-triazachrysen-1-one
_symmetry_cell_setting           orthorhombic
_symmetry_space_group_name_H-M   'P 21 21 21'
_symmetry_Int_Tables_number      19
_space_group_name_Hall           'P 2ac 2ab'
loop_
_symmetry_equiv_pos_site_id
_symmetry_equiv_pos_as_xyz
1 x,y,z
2 1/2-x,-y,1/2+z
3 1/2+x,1/2-y,-z
4 -x,1/2+y,1/2-z
_cell_length_a                   7.9375(5)
_cell_length_b                   8.2717(6)
_cell_length_c                   23.9023
_cell_angle_alpha                90
_cell_angle_beta                 90
_cell_angle_gamma                90
_cell_volume                     1569.34
_exptl_crystal_colour            colorless
_exptl_crystal_description       platelet
_chemical_melting_point          214-215deg.C
_cell_formula_units_Z            4
loop_
_atom_site_label
_atom_site_type_symbol
_atom_site_fract_x
_atom_site_fract_y
_atom_site_fract_z
O1 O 0.4029(2) 0.4074(2) 0.50049(6)
O2 O 0.5634(2) 0.6696(2) 0.48466(6)
O3 O 1.0267(2) 0.4530(2) 0.25058(6)
O4 O 1.1909(2) 0.4663(2) 0.14819(6)
N1 N 0.6713(2) 0.4193(2) 0.24725(7)
N2 N 0.9414(2) 0.4280(2) 0.10305(7)
N3 N 0.7749(2) 0.3977(3) 0.09893(7)
C1 C 0.4595(3) 0.3131(3) 0.40538(8)
C2 C 0.4738(3) 0.4229(3) 0.44815(8)
C3 C 0.5688(3) 0.5653(3) 0.44062(8)
C4 C 0.6585(3) 0.5872(3) 0.39137(8)
C5 C 0.6502(3) 0.4710(3) 0.34877(8)
C6 C 0.7555(3) 0.4897(3) 0.29635(9)
C7 C 0.5157(3) 0.3254(3) 0.25295(9)
C8 C 0.5215(3) 0.2261(3) 0.30637(8)
C9 C 0.5467(3) 0.3371(3) 0.35521(8)
C10 C 0.3122(3) 0.2631(3) 0.51122(9)
C11 C 0.6600(3) 0.8145(3) 0.48080(9)
C12 C 0.9322(3) 0.4125(3) 0.30088(8)
C13 C 0.9383(3) 0.4360(3) 0.20178(8)
C14 C 1.0367(3) 0.4459(3) 0.15124(9)
C15 C 0.6926(3) 0.3888(3) 0.14571(9)
C16 C 0.7680(3) 0.4112(3) 0.19975(8)
C17 C 1.0389(3) 0.4715(3) 0.34888(9)
H1 H 0.3901 0.2204 0.4099
H2 H 1.0007 0.4383 0.0687
H3 H 0.7258 0.6812 0.3865
H4 H 0.7699 0.6020 0.2896
H5 H 0.5042 0.2551 0.2217
H6 H 0.4221 0.3969 0.2543
H7 H 0.6123 0.1513 0.3045
H8 H 0.4186 0.1688 0.3107
H9 H 0.2687 0.2658 0.5482
H10 H 0.2217 0.2541 0.4854
H11 H 0.3852 0.1729 0.5072
H12 H 0.6513 0.8732 0.5148
H13 H 0.7748 0.7881 0.4741
H14 H 0.6187 0.8789 0.4509
H15 H 0.9208 0.2983 0.3033
H16 H 0.5753 0.3661 0.1441
H17 H 1.0416 0.5863 0.3487
H18 H 1.1502 0.4308 0.3450
H19 H 0.9921 0.4347 0.3832
loop_
_geom_bond_atom_site_label_1
_geom_bond_atom_site_label_2
_geom_bond_site_symmetry_1
_geom_bond_site_symmetry_2
O1 C2 1_555 1_555
O2 C3 1_555 1_555
O3 C12 1_555 1_555
O4 C14 1_555 1_555
N1 C6 1_555 1_555
N2 N3 1_555 1_555
N3 C15 1_555 1_555
C1 C2 1_555 1_555
C2 C3 1_555 1_555
C3 C4 1_555 1_555
C4 C5 1_555 1_555
C5 C6 1_555 1_555
C6 C12 1_555 1_555
C7 N1 1_555 1_555
C8 C7 1_555 1_555
C9 C1 1_555 1_555
C10 O1 1_555 1_555
C11 O2 1_555 1_555
C12 C17 1_555 1_555
C13 O3 1_555 1_555
C14 N2 1_555 1_555
C15 C16 1_555 1_555
C16 N1 1_555 1_555
C17 H17 1_555 1_555
H1 C1 1_555 1_555
H2 N2 1_555 1_555
H3 C4 1_555 1_555
H4 C6 1_555 1_555
H5 C7 1_555 1_555
H6 C7 1_555 1_555
H7 C8 1_555 1_555
H8 C8 1_555 1_555
H9 C10 1_555 1_555
H10 C10 1_555 1_555
H11 C10 1_555 1_555
H12 C11 1_555 1_555
H13 C11 1_555 1_555
H14 C11 1_555 1_555
H15 C12 1_555 1_555
H16 C15 1_555 1_555
H18 C17 1_555 1_555
H19 C17 1_555 1_555
C5 C9 1_555 1_555
C8 C9 1_555 1_555
C13 C14 1_555 1_555
C13 C16 1_555 1_555

#END
