
#######################################################################
#
#                 Cambridge Crystallographic Data Centre
#                                CCDC 
#
#######################################################################
#
# If this CIF has been generated from an entry in the Cambridge 
# Structural Database, then it will include bibliographic, chemical, 
# crystal, experimental, refinement or atomic coordinate data resulting 
# from the CCDC's data processing and validation procedures.
#
#######################################################################

data_IWIWIU01
_chemical_formula_moiety         'C104 H120 Br6 O16,2(C2 H6 O1),C1 H1 Cl3'
_chemical_name_systematic        
'Bi-(11,15,18-tribromo-19,21,23,25-tetrapentylcavitand-7-yl) bis(ethanol) clathrate chloroform unknown solvate'
_symmetry_cell_setting           triclinic
_symmetry_space_group_name_H-M   'P -1'
_symmetry_Int_Tables_number      2
_space_group_name_Hall           '-P 1'
loop_
_symmetry_equiv_pos_site_id
_symmetry_equiv_pos_as_xyz
1 x,y,z
2 -x,-y,-z
_cell_length_a                   12.3963(7)
_cell_length_b                   18.9127(11)
_cell_length_c                   26.0831(13)
_cell_angle_alpha                100.106(4)
_cell_angle_beta                 99.616(3)
_cell_angle_gamma                98.416(3)
_cell_volume                     5837.63
_exptl_crystal_colour            colorless
_exptl_crystal_description       plate
_cell_formula_units_Z            2
_exptl_crystal_recrystallization_method chloroform/ethanol
loop_
_atom_site_label
_atom_site_type_symbol
_atom_site_fract_x
_atom_site_fract_y
_atom_site_fract_z
O1 O 1.2561(7) 0.3776(5) 0.2806(3)
C1 C 1.2195(12) 0.3723(8) 0.2244(6)
C10 C 1.1266(9) 0.4201(6) 0.2136(4)
H1 H 1.2844(12) 0.3900(8) 0.2089(6)
H2 H 1.1883(12) 0.3201(8) 0.2072(6)
H7 H 1.1029(9) 0.4158(6) 0.1744(4)
H8 H 1.1569(9) 0.4724(6) 0.2308(4)
H9 H 1.0611(9) 0.4021(6) 0.2286(4)
O2 O 0.9760(9) 0.3438(6) 0.4444(4)
C59 C 0.8536(11) 0.3271(9) 0.4458(7)
C68 C 0.794(1) 0.2737(7) 0.4010(5)
H34 H 0.8397(11) 0.3267(9) 0.4824(7)
H35 H 0.8103(11) 0.3611(9) 0.4297(7)
H40 H 0.714(1) 0.2639(7) 0.4033(5)
H41 H 0.825(1) 0.2275(7) 0.4002(5)
H42 H 0.802(1) 0.2923(7) 0.3680(5)
Br1 Br 1.07569(12) 0.24876(8) 0.04754(6)
Br2 Br 1.5224(1) 0.46160(7) 0.20202(5)
Br3 Br 1.24145(11) 0.50194(8) 0.41298(5)
Br4 Br 0.50021(12) 0.41411(7) 0.44144(5)
Br5 Br 0.87003(11) 0.26577(8) 0.59357(5)
Br6 Br 1.1987(1) 0.24142(8) 0.39807(6)
O3 O 1.2207(6) 0.3911(4) 0.0417(3)
O4 O 1.3797(6) 0.4671(5) 0.0975(3)
O5 O 1.4688(6) 0.5820(4) 0.2809(3)
O6 O 1.3716(6) 0.5942(4) 0.3514(3)
O7 O 0.9994(6) 0.5114(4) 0.3744(3)
O8 O 0.8383(6) 0.4352(4) 0.3192(3)
O9 O 0.7597(6) 0.3054(4) 0.1403(3)
O10 O 0.8609(6) 0.2936(4) 0.0712(3)
O11 O 0.5905(6) 0.3436(4) 0.2583(3)
O12 O 0.4795(6) 0.3517(4) 0.3248(3)
O13 O 0.4951(6) 0.2835(4) 0.4930(3)
O14 O 0.6238(6) 0.2339(4) 0.5458(3)
O15 O 0.9669(6) 0.1540(4) 0.5260(3)
O16 O 1.0763(6) 0.1464(5) 0.4599(3)
O17 O 1.0501(6) 0.2043(4) 0.2891(3)
O18 O 0.9255(6) 0.2585(4) 0.2365(3)
C2 C 1.0438(11) 0.3454(6) 0.0613(4)
C3 C 0.940(1) 0.3540(7) 0.0733(4)
C4 C 0.9170(9) 0.4229(7) 0.0854(4)
C5 C 0.9984(9) 0.4835(6) 0.0850(4)
C6 C 1.1026(9) 0.4727(7) 0.0720(4)
C7 C 1.1231(9) 0.4033(6) 0.0588(4)
C8 C 1.3156(9) 0.3955(7) 0.0821(4)
C9 C 1.1929(9) 0.5389(6) 0.0750(4)
C11 C 1.4178(8) 0.5227(6) 0.1905(5)
C12 C 1.3551(8) 0.5106(7) 0.1382(4)
C13 C 1.2697(8) 0.5527(6) 0.1299(4)
C14 C 1.2538(8) 0.6021(6) 0.1720(4)
C15 C 1.3165(8) 0.6140(6) 0.2231(4)
C16 C 1.3979(9) 0.5729(6) 0.2318(4)
C17 C 1.424(1) 0.5491(7) 0.3195(4)
C18 C 1.2973(8) 0.6673(6) 0.2698(4)
C19 C 1.1858(11) 0.5500(6) 0.3609(4)
C20 C 1.256(1) 0.5904(6) 0.3348(4)
C21 C 1.2163(9) 0.6244(6) 0.2962(4)
C22 C 1.1010(9) 0.6202(6) 0.2831(4)
C23 C 1.0257(9) 0.5816(6) 0.3074(4)
C24 C 1.071(1) 0.5464(6) 0.3455(4)
C25 C 0.948(1) 0.4366(6) 0.3489(5)
C26 C 0.9005(9) 0.5733(6) 0.2919(4)
C27 C 0.7987(8) 0.3707(6) 0.2301(4)
C28 C 0.8328(8) 0.4367(6) 0.2661(4)
C29 C 0.8588(8) 0.5023(6) 0.2501(4)
C30 C 0.8469(7) 0.5002(6) 0.1970(4)
C31 C 0.8137(8) 0.4353(6) 0.1581(4)
C32 C 0.7913(8) 0.3710(6) 0.1760(4)
C33 C 0.844(1) 0.2740(7) 0.1201(4)
C34 C 0.8056(8) 0.4335(6) 0.0989(4)
C35 C 0.7563(8) 0.2995(6) 0.2450(4)
C36 C 0.8163(9) 0.2439(6) 0.2451(4)
C37 C 0.7698(9) 0.1752(6) 0.2507(4)
C38 C 0.6604(8) 0.1639(6) 0.2593(4)
C39 C 0.6012(8) 0.2185(6) 0.2614(4)
C40 C 0.6491(9) 0.2872(6) 0.2562(4)
C41 C 0.5815(9) 0.3793(6) 0.3104(4)
C42 C 0.4795(8) 0.2073(6) 0.2724(4)
C43 C 0.4928(8) 0.3151(6) 0.4081(4)
C44 C 0.4866(8) 0.2969(7) 0.3542(5)
C45 C 0.4802(8) 0.2254(7) 0.3300(4)
C46 C 0.4848(8) 0.1734(6) 0.3617(4)
C47 C 0.4893(8) 0.1915(7) 0.4171(4)
C48 C 0.4935(8) 0.2628(7) 0.4405(4)
C49 C 0.6007(9) 0.2952(7) 0.5279(4)
C50 C 0.5004(8) 0.1355(5) 0.4509(4)
C51 C 0.7958(9) 0.1959(6) 0.5341(4)
C52 C 0.6820(9) 0.1896(6) 0.5156(4)
C53 C 0.6262(8) 0.1385(7) 0.4713(4)
C54 C 0.686(1) 0.0936(6) 0.4451(4)
C55 C 0.8015(9) 0.0970(6) 0.4611(4)
C56 C 0.855(1) 0.1506(7) 0.5069(4)
C57 C 1.0421(9) 0.1930(7) 0.4995(5)
C58 C 0.8675(9) 0.0486(6) 0.4314(4)
C60 C 1.0602(8) 0.1742(6) 0.3734(5)
C61 C 1.016(1) 0.1372(6) 0.4085(4)
C62 C 0.9139(9) 0.0887(6) 0.3921(4)
C63 C 0.8600(9) 0.0805(6) 0.3398(4)
C64 C 0.9034(9) 0.1189(6) 0.3045(4)
C65 C 1.0050(8) 0.1683(6) 0.3235(4)
C66 C 1.011(1) 0.2695(7) 0.2836(5)
C67 C 0.8407(9) 0.1138(6) 0.2487(4)
C69 C 1.1504(9) 0.6043(6) 0.0616(4)
C70 C 1.2465(9) 0.6682(7) 0.0597(5)
C71 C 1.210(1) 0.7402(7) 0.0611(5)
C72 C 1.3014(13) 0.8006(7) 0.0563(7)
C73 C 1.2612(17) 0.8745(8) 0.0581(9)
C74 C 1.2596(9) 0.7360(6) 0.2563(5)
C75 C 1.352(1) 0.7843(7) 0.2409(6)
C76 C 1.318(1) 0.8514(7) 0.2245(5)
C77 C 1.4194(12) 0.9109(8) 0.2211(7)
C78 C 1.4839(14) 0.9500(8) 0.2748(7)
C79 C 0.865(1) 0.6414(6) 0.2746(5)
C80 C 0.7478(11) 0.6411(8) 0.2706(6)
C81 C 0.7117(12) 0.7091(11) 0.2495(7)
C82 C 0.7719(17) 0.7777(8) 0.2763(9)
C83 C 0.7248(16) 0.8435(9) 0.2528(9)
C84 C 0.7645(8) 0.4994(7) 0.0802(4)
C85 C 0.6379(9) 0.4942(7) 0.0764(5)
C86 C 0.5969(11) 0.5591(9) 0.0596(6)
C87 C 0.6167(14) 0.6240(9) 0.1047(7)
C88 C 0.5780(14) 0.690(1) 0.0872(9)
C89 C 0.4110(8) 0.1319(6) 0.2430(4)
C90 C 0.2872(9) 0.1280(6) 0.2414(5)
C91 C 0.2189(11) 0.0517(9) 0.2109(8)
C92 C 0.4372(9) 0.0578(5) 0.4264(4)
C93 C 0.3088(8) 0.0535(4) 0.4085(5)
C94 C 0.1273(11) -0.0326(8) 0.3732(8)
C95 C 0.8038(9) -0.0280(6) 0.4078(4)
C96 C 0.7699(11) -0.0681(6) 0.4495(5)
C97 C 0.7130(13) -0.1460(8) 0.4290(6)
C98 C 0.5995(15) -0.1586(11) 0.3951(7)
C99 C 0.775(1) 0.0388(6) 0.2212(4)
C100 C 0.7279(12) 0.0345(7) 0.1637(4)
C101 C 0.6731(15) -0.0410(11) 0.1349(6)
C103 C 0.249(1) -0.0268(6) 0.398(1)
H3 H 0.9827(9) 0.5341(6) 0.0941(4)
H4 H 1.3632(9) 0.3613(7) 0.0681(4)
H5 H 1.2905(9) 0.3807(7) 0.1137(4)
H6 H 1.2358(9) 0.5274(6) 0.0463(4)
H10 H 1.1937(8) 0.6313(6) 0.1655(4)
H11 H 1.487(1) 0.5352(7) 0.3429(4)
H12 H 1.369(1) 0.5041(7) 0.3008(4)
H13 H 1.3697(8) 0.6876(6) 0.2951(4)
H14 H 1.0709(9) 0.6460(6) 0.2550(4)
H15 H 0.942(1) 0.4065(6) 0.3766(5)
H16 H 0.994(1) 0.4160(6) 0.3242(5)
H17 H 0.8659(9) 0.5699(6) 0.3235(4)
H18 H 0.8627(7) 0.5472(6) 0.1848(4)
H19 H 0.915(1) 0.2904(7) 0.1469(4)
H20 H 0.823(1) 0.2197(7) 0.1137(4)
H21 H 0.7468(8) 0.3913(6) 0.0787(4)
H22 H 0.6258(8) 0.1149(6) 0.2642(4)
H23 H 0.6451(9) 0.3721(6) 0.3368(4)
H24 H 0.5852(9) 0.4327(6) 0.3110(4)
H25 H 0.4389(8) 0.2427(6) 0.2565(4)
H26 H 0.4845(8) 0.1215(6) 0.3451(4)
H27 H 0.6013(9) 0.3341(7) 0.5594(4)
H28 H 0.6600(9) 0.3120(7) 0.5088(4)
H29 H 0.4615(8) 0.1487(5) 0.4810(4)
H30 H 0.646(1) 0.0563(6) 0.4128(4)
H31 H 1.1094(9) 0.2196(7) 0.5265(5)
H32 H 1.0039(9) 0.2290(7) 0.4831(5)
H33 H 0.9311(9) 0.0388(6) 0.4566(4)
H36 H 0.7871(9) 0.0461(6) 0.3272(4)
H37 H 1.075(1) 0.3068(7) 0.2809(5)
H38 H 0.981(1) 0.2875(7) 0.3155(5)
H39 H 0.8958(9) 0.1218(6) 0.2254(4)
H43 H 1.1097(9) 0.6230(6) 0.0896(4)
H44 H 1.0981(9) 0.5901(6) 0.0263(4)
H45 H 1.3087(9) 0.6729(7) 0.0907(5)
H46 H 1.2735(9) 0.6546(7) 0.0259(5)
H47 H 1.186(1) 0.7547(7) 0.0956(5)
H48 H 1.146(1) 0.7350(7) 0.0310(5)
H49 H 1.3661(13) 0.8062(7) 0.0861(7)
H50 H 1.3252(13) 0.7869(7) 0.0216(7)
H51 H 1.3226(17) 0.9131(8) 0.0549(9)
H52 H 1.2375(17) 0.8887(8) 0.0927(9)
H53 H 1.1965(17) 0.8693(8) 0.0282(9)
H54 H 1.2370(9) 0.7638(6) 0.2878(5)
H55 H 1.1945(9) 0.7213(6) 0.2259(5)
H56 H 1.416(1) 0.8001(7) 0.2719(6)
H57 H 1.377(1) 0.7553(7) 0.2105(6)
H58 H 1.276(1) 0.8735(7) 0.2508(5)
H59 H 1.268(1) 0.8364(7) 0.1886(5)
H60 H 1.3900(12) 0.9482(8) 0.2025(7)
H61 H 1.4695(12) 0.8865(8) 0.2003(7)
H62 H 1.5466(14) 0.9869(8) 0.2707(7)
H63 H 1.4349(14) 0.9750(8) 0.2959(7)
H64 H 1.5144(14) 0.9133(8) 0.2937(7)
H65 H 0.7698(16) 0.8921(9) 0.2717(9)
H66 H 0.7273(16) 0.8363(9) 0.2141(9)
H67 H 0.6459(16) 0.8415(9) 0.2573(9)
H68 H 0.8037(8) 0.5448(7) 0.1063(4)
H69 H 0.7824(8) 0.5019(7) 0.0445(4)
H70 H 0.6202(9) 0.4907(7) 0.1120(5)
H71 H 0.5990(9) 0.4491(7) 0.0498(5)
H72 H 0.6356(11) 0.5728(9) 0.0311(6)
H73 H 0.5150(11) 0.5450(9) 0.0452(6)
H74 H 0.6982(14) 0.6369(9) 0.1202(7)
H75 H 0.5752(14) 0.6111(9) 0.1325(7)
H76 H 0.5931(14) 0.732(1) 0.1183(9)
H77 H 0.6193(14) 0.704(1) 0.0596(9)
H78 H 0.4964(14) 0.678(1) 0.0719(9)
H79 H 0.4365(8) 0.0938(6) 0.2618(4)
H80 H 0.4237(8) 0.1220(6) 0.2058(4)
H81 H 0.2737(9) 0.1366(6) 0.2785(5)
H82 H 0.2614(9) 0.1666(6) 0.2232(5)
H83 H 0.1384(11) 0.0500(9) 0.2096(8)
H84 H 0.2449(11) 0.0124(9) 0.2283(8)
H85 H 0.2326(11) 0.0424(9) 0.1730(8)
H86 H 0.4498(9) 0.0265(5) 0.4531(4)
H87 H 0.4674(9) 0.0388(5) 0.3944(4)
H88 H 0.8508(9) -0.0563(6) 0.3876(4)
H89 H 0.7350(9) -0.0241(6) 0.3830(4)
H90 H 0.8387(11) -0.0677(6) 0.4758(5)
H91 H 0.7186(11) -0.0412(6) 0.4676(5)
H92 H 0.825(1) 0.0023(6) 0.2242(4)
H93 H 0.711(1) 0.0269(6) 0.2394(4)
H94 H 0.7905(12) 0.0508(7) 0.1463(4)
H95 H 0.6727(12) 0.0679(7) 0.1610(4)
H96 H 0.6432(15) -0.0418(11) 0.0958(6)
H97 H 0.7262(15) -0.0765(11) 0.1359(6)
H98 H 0.6083(15) -0.0594(11) 0.1506(6)
H99 H 0.907(1) 0.6858(6) 0.3010(5)
H100 H 0.884(1) 0.6434(6) 0.2390(5)
H101 H 0.7295(11) 0.6416(8) 0.3065(6)
H102 H 0.7057(11) 0.5956(8) 0.2454(6)
H103 H 0.7162(12) 0.7028(11) 0.2110(7)
H104 H 0.6327(12) 0.7091(11) 0.2532(7)
H105 H 0.8507(17) 0.7799(8) 0.2718(9)
H106 H 0.7694(17) 0.7851(8) 0.3150(9)
H107 H 0.7063(13) -0.1684(8) 0.4605(6)
H108 H 0.7616(13) -0.1712(8) 0.4078(6)
H109 H 0.2766(8) 0.0689(4) 0.4405(5)
H110 H 0.2951(8) 0.0867(4) 0.3832(5)
C102? C 0.254(1) -0.0255(7) 0.3814(11)
loop_
_geom_bond_atom_site_label_1
_geom_bond_atom_site_label_2
_geom_bond_site_symmetry_1
_geom_bond_site_symmetry_2
Br1 C2 1_555 1_555
Br2 C11 1_555 1_555
Br3 C19 1_555 1_555
Br4 C43 1_555 1_555
Br5 C51 1_555 1_555
Br6 C60 1_555 1_555
O1 C1 1_555 1_555
O2 C59 1_555 1_555
O3 C7 1_555 1_555
O4 C8 1_555 1_555
O5 C16 1_555 1_555
O6 C17 1_555 1_555
O7 C24 1_555 1_555
O8 C25 1_555 1_555
O9 C32 1_555 1_555
O10 C3 1_555 1_555
O11 C40 1_555 1_555
O12 C41 1_555 1_555
O13 C48 1_555 1_555
O14 C49 1_555 1_555
O15 C56 1_555 1_555
O16 C57 1_555 1_555
O17 C65 1_555 1_555
O18 C36 1_555 1_555
C1 C10 1_555 1_555
C2 C3 1_555 1_555
C3 C4 1_555 1_555
C4 C5 1_555 1_555
C5 C6 1_555 1_555
C6 C7 1_555 1_555
C7 C2 1_555 1_555
C8 O3 1_555 1_555
C9 C6 1_555 1_555
C10 H7 1_555 1_555
C11 C12 1_555 1_555
C12 O4 1_555 1_555
C13 C9 1_555 1_555
C14 C13 1_555 1_555
C15 C14 1_555 1_555
C16 C11 1_555 1_555
C17 O5 1_555 1_555
C18 C15 1_555 1_555
C19 C20 1_555 1_555
C20 O6 1_555 1_555
C21 C18 1_555 1_555
C22 C21 1_555 1_555
C23 C22 1_555 1_555
C24 C19 1_555 1_555
C25 O7 1_555 1_555
C26 C23 1_555 1_555
C27 C28 1_555 1_555
C28 O8 1_555 1_555
C29 C26 1_555 1_555
C30 C29 1_555 1_555
C31 C30 1_555 1_555
C32 C27 1_555 1_555
C33 O9 1_555 1_555
C34 C4 1_555 1_555
C35 C27 1_555 1_555
C36 C35 1_555 1_555
C37 C36 1_555 1_555
C38 C37 1_555 1_555
C39 C38 1_555 1_555
C40 C35 1_555 1_555
C41 O11 1_555 1_555
C42 C39 1_555 1_555
C43 C44 1_555 1_555
C44 O12 1_555 1_555
C45 C42 1_555 1_555
C46 C45 1_555 1_555
C47 C46 1_555 1_555
C48 C43 1_555 1_555
C49 O13 1_555 1_555
C50 C47 1_555 1_555
C51 C52 1_555 1_555
C52 O14 1_555 1_555
C53 C50 1_555 1_555
C54 C53 1_555 1_555
C55 C54 1_555 1_555
C56 C51 1_555 1_555
C57 O15 1_555 1_555
C58 C55 1_555 1_555
C59 C68 1_555 1_555
C60 C61 1_555 1_555
C61 O16 1_555 1_555
C62 C58 1_555 1_555
C63 C62 1_555 1_555
C64 C63 1_555 1_555
C65 C60 1_555 1_555
C66 O17 1_555 1_555
C67 C37 1_555 1_555
C68 H40 1_555 1_555
C69 C9 1_555 1_555
C70 C69 1_555 1_555
C71 C70 1_555 1_555
C72 C71 1_555 1_555
C73 C72 1_555 1_555
C74 C18 1_555 1_555
C75 C74 1_555 1_555
C76 C75 1_555 1_555
C77 C76 1_555 1_555
C78 C77 1_555 1_555
C79 C26 1_555 1_555
C80 C79 1_555 1_555
C81 C80 1_555 1_555
C82 C81 1_555 1_555
C83 C82 1_555 1_555
C84 C34 1_555 1_555
C85 C84 1_555 1_555
C86 C85 1_555 1_555
C87 C86 1_555 1_555
C88 C87 1_555 1_555
C89 C42 1_555 1_555
C90 C89 1_555 1_555
C91 C90 1_555 1_555
C92 C50 1_555 1_555
C93 C92 1_555 1_555
C94 C103 1_555 1_555
C95 C58 1_555 1_555
C96 C95 1_555 1_555
C97 C96 1_555 1_555
C98 C97 1_555 1_555
C99 C67 1_555 1_555
C100 C99 1_555 1_555
C101 C100 1_555 1_555
C103 C93 1_555 1_555
H1 C1 1_555 1_555
H2 C1 1_555 1_555
H3 C5 1_555 1_555
H4 C8 1_555 1_555
H5 C8 1_555 1_555
H6 C9 1_555 1_555
H8 C10 1_555 1_555
H9 C10 1_555 1_555
H10 C14 1_555 1_555
H11 C17 1_555 1_555
H12 C17 1_555 1_555
H13 C18 1_555 1_555
H14 C22 1_555 1_555
H15 C25 1_555 1_555
H16 C25 1_555 1_555
H17 C26 1_555 1_555
H18 C30 1_555 1_555
H19 C33 1_555 1_555
H20 C33 1_555 1_555
H21 C34 1_555 1_555
H22 C38 1_555 1_555
H23 C41 1_555 1_555
H24 C41 1_555 1_555
H25 C42 1_555 1_555
H26 C46 1_555 1_555
H27 C49 1_555 1_555
H28 C49 1_555 1_555
H29 C50 1_555 1_555
H30 C54 1_555 1_555
H31 C57 1_555 1_555
H32 C57 1_555 1_555
H33 C58 1_555 1_555
H34 C59 1_555 1_555
H35 C59 1_555 1_555
H36 C63 1_555 1_555
H37 C66 1_555 1_555
H38 C66 1_555 1_555
H39 C67 1_555 1_555
H41 C68 1_555 1_555
H42 C68 1_555 1_555
H43 C69 1_555 1_555
H44 C69 1_555 1_555
H45 C70 1_555 1_555
H46 C70 1_555 1_555
H47 C71 1_555 1_555
H48 C71 1_555 1_555
H49 C72 1_555 1_555
H50 C72 1_555 1_555
H51 C73 1_555 1_555
H52 C73 1_555 1_555
H53 C73 1_555 1_555
H54 C74 1_555 1_555
H55 C74 1_555 1_555
H56 C75 1_555 1_555
H57 C75 1_555 1_555
H58 C76 1_555 1_555
H59 C76 1_555 1_555
H60 C77 1_555 1_555
H61 C77 1_555 1_555
H62 C78 1_555 1_555
H63 C78 1_555 1_555
H64 C78 1_555 1_555
H65 C83 1_555 1_555
H66 C83 1_555 1_555
H67 C83 1_555 1_555
H68 C84 1_555 1_555
H69 C84 1_555 1_555
H70 C85 1_555 1_555
H71 C85 1_555 1_555
H72 C86 1_555 1_555
H73 C86 1_555 1_555
H74 C87 1_555 1_555
H75 C87 1_555 1_555
H76 C88 1_555 1_555
H77 C88 1_555 1_555
H78 C88 1_555 1_555
H79 C89 1_555 1_555
H80 C89 1_555 1_555
H81 C90 1_555 1_555
H82 C90 1_555 1_555
H83 C91 1_555 1_555
H84 C91 1_555 1_555
H85 C91 1_555 1_555
H86 C92 1_555 1_555
H87 C92 1_555 1_555
H88 C95 1_555 1_555
H89 C95 1_555 1_555
H90 C96 1_555 1_555
H91 C96 1_555 1_555
H92 C99 1_555 1_555
H93 C99 1_555 1_555
H94 C100 1_555 1_555
H95 C100 1_555 1_555
H96 C101 1_555 1_555
H97 C101 1_555 1_555
H98 C101 1_555 1_555
H99 C79 1_555 1_555
H100 C79 1_555 1_555
H101 C80 1_555 1_555
H102 C80 1_555 1_555
H103 C81 1_555 1_555
H104 C81 1_555 1_555
H105 C82 1_555 1_555
H106 C82 1_555 1_555
H107 C97 1_555 1_555
H108 C97 1_555 1_555
H109 C93 1_555 1_555
H110 C93 1_555 1_555
O10 C33 1_555 1_555
O18 C66 1_555 1_555
C12 C13 1_555 1_555
C15 C16 1_555 1_555
C20 C21 1_555 1_555
C23 C24 1_555 1_555
C28 C29 1_555 1_555
C31 C34 1_555 1_555
C31 C32 1_555 1_555
C39 C40 1_555 1_555
C44 C45 1_555 1_555
C47 C48 1_555 1_555
C52 C53 1_555 1_555
C55 C56 1_555 1_555
C61 C62 1_555 1_555
C64 C67 1_555 1_555
C64 C65 1_555 1_555

#END
