
#######################################################################
#
#                 Cambridge Crystallographic Data Centre
#                                CCDC 
#
#######################################################################
#
# If this CIF has been generated from an entry in the Cambridge 
# Structural Database, then it will include bibliographic, chemical, 
# crystal, experimental, refinement or atomic coordinate data resulting 
# from the CCDC's data processing and validation procedures.
#
#######################################################################

data_IWIXUI01
_chemical_formula_moiety         'C21 H25 Cl1 O5,C9 H11 N1 O2,H2 O1'
_chemical_name_systematic        
'L-Phenylalanine 2-(4-chloro-3-(4-ethylbenzyl)phenyl)-6-(hydroxymethyl)tetrahydro-2H-pyran-3,4,5-triol monohydrate'
_chemical_properties_biological  
'Possible use in selective inhibition of SGLT2 in diabetic patients'
_symmetry_cell_setting           monoclinic
_symmetry_space_group_name_H-M   'P 21'
_symmetry_Int_Tables_number      4
_space_group_name_Hall           'P 2yb'
loop_
_symmetry_equiv_pos_site_id
_symmetry_equiv_pos_as_xyz
1 x,y,z
2 -x,1/2+y,-z
_cell_length_a                   11.738(3)
_cell_length_b                   5.882(1)
_cell_length_c                   21.001(4)
_cell_angle_alpha                90
_cell_angle_beta                 86.66(1)
_cell_angle_gamma                90
_cell_volume                     1447.51
_cell_formula_units_Z            2
loop_
_atom_site_label
_atom_site_type_symbol
_atom_site_fract_x
_atom_site_fract_y
_atom_site_fract_z
Cl1 Cl 0.426751 -0.500300 0.457418
O1 O 0.589162 -0.169159 0.168185
O2 O 0.387602 0.324987 0.092328
O3 O 0.575306 0.12412 0.015007
C1 C 0.558088 0.096139 0.082309
C2 C 0.445 0.105 0.105
O4 O 0.294746 0.029018 0.190498
C3 C 0.413687 0.041088 0.172603
O5 O 0.784217 -0.348975 0.111208
C4 C 0.472310 -0.192807 0.186673
C5 C 0.608531 -0.130069 0.099798
C6 C 0.387325 -0.448891 0.273359
C7 C 0.171988 -0.686670 0.367141
C8 C 0.373705 -0.514950 0.335568
C9 C 0.736134 -0.135773 0.089100
C10 C 0.436000 -0.402433 0.378303
C11 C 0.453020 -0.267014 0.254464
C12 C 0.301284 -0.726389 0.348956
C13 C 0.503219 -0.219896 0.362346
C14 C 0.027966 -0.461534 0.422895
C15 C 0.510998 -0.149400 0.299164
C16 C 0.133448 -0.487385 0.398389
C17 C 0.097978 -0.854982 0.358084
C18 C -0.01248 -0.833011 0.380679
C19 C -0.184225 -0.642273 0.433591
C20 C -0.050911 -0.634923 0.413778
C21 C -0.221079 -0.458194 0.463434
H1 H 0.604600 0.239400 0.107500
H2 H 0.387500 -0.014600 0.071900
H3 H 0.567700 -0.267300 0.073400
H4 H 0.771100 0.014000 0.115100
H5 H 0.761300 -0.102600 0.038200
H6 H 0.452600 0.180800 0.201400
H7 H 0.434000 -0.314000 0.157000
H8 H 0.337200 -0.528600 0.234100
H9 H 0.560900 0.011700 0.282200
H10 H 0.552500 -0.119600 0.399200
H11 H 0.338400 -0.813500 0.389000
H12 H 0.309600 -0.835800 0.307700
H13 H 0.128500 -0.998300 0.330300
H14 H 0.195500 -0.346300 0.404900
H15 H 0.004500 -0.294500 0.451400
H16 H -0.075900 -0.967600 0.375200
H17 H -0.230700 -0.663100 0.391200
H18 H -0.200400 -0.776700 0.466100
H19 H -0.310100 -0.453700 0.474700
H20 H -0.173700 -0.416200 0.504200
H21 H -0.204000 -0.302600 0.429300
H22 H 0.246700 0.062600 0.148300
H23 H 0.420700 0.391600 0.04500
H24 H 0.653200 0.226900 0.003800
H25 H 0.783100 -0.466500 0.072900
O6 O 0.232785 -0.147957 0.001140
H26 H 0.220200 -0.042100 0.045800
H27 H 0.148900 -0.179500 -0.01500
O7 O 0.125306 0.078328 0.108142
N1 N 0.028163 0.648639 0.086383
C22 C -0.028752 0.476730 0.217888
O8 O 0.000245 0.232300 0.045029
C23 C 0.091560 0.483651 0.188943
C24 C 0.103948 0.468262 0.115500
C25 C -0.084673 0.659260 0.250634
C26 C -0.254127 0.443123 0.263222
C27 C -0.095222 0.288655 0.208609
C28 C -0.194869 0.640701 0.274492
C29 C -0.203431 0.263479 0.233000
C30 C 0.067777 0.237032 0.084630
H28 H -0.343100 0.457300 0.282900
H29 H -0.257100 0.120000 0.229400
H30 H -0.233600 0.796900 0.299200
H31 H -0.058400 0.146500 0.179900
H32 H -0.030300 0.820800 0.257300
H33 H 0.133800 0.654400 0.204300
H34 H 0.143700 0.355700 0.209100
H35 H 0.195100 0.515700 0.098600
H36 H 0.035300 0.646800 0.035700
H37 H -0.059000 0.621100 0.103800
H38 H 0.051300 0.824800 0.102100
loop_
_geom_bond_atom_site_label_1
_geom_bond_atom_site_label_2
_geom_bond_site_symmetry_1
_geom_bond_site_symmetry_2
Cl1 C10 1_555 1_555
O1 C4 1_555 1_555
O2 C2 1_555 1_555
O3 C1 1_555 1_555
C1 C2 1_555 1_555
C2 C3 1_555 1_555
O4 C3 1_555 1_555
C3 C4 1_555 1_555
O5 C9 1_555 1_555
C4 C11 1_555 1_555
C5 O1 1_555 1_555
C6 C8 1_555 1_555
C7 C12 1_555 1_555
C8 C10 1_555 1_555
C9 C5 1_555 1_555
C10 C13 1_555 1_555
C11 C6 1_555 1_555
C12 C8 1_555 1_555
C13 C15 1_555 1_555
C14 C16 1_555 1_555
C15 C11 1_555 1_555
C16 C7 1_555 1_555
C17 C7 1_555 1_555
C18 C17 1_555 1_555
C19 C20 1_555 1_555
C20 C14 1_555 1_555
C21 C19 1_555 1_555
H1 C1 1_555 1_555
H2 C2 1_555 1_555
H3 C5 1_555 1_555
H4 C9 1_555 1_555
H5 C9 1_555 1_555
H6 C3 1_555 1_555
H7 C4 1_555 1_555
H8 C6 1_555 1_555
H9 C15 1_555 1_555
H10 C13 1_555 1_555
H11 C12 1_555 1_555
H12 C12 1_555 1_555
H13 C17 1_555 1_555
H14 C16 1_555 1_555
H15 C14 1_555 1_555
H16 C18 1_555 1_555
H17 C19 1_555 1_555
H18 C19 1_555 1_555
H19 C21 1_555 1_555
H20 C21 1_555 1_555
H21 C21 1_555 1_555
H22 O4 1_555 1_555
H23 O2 1_555 1_555
H24 O3 1_555 1_555
H25 O5 1_555 1_555
O6 H26 1_555 1_555
H27 O6 1_555 1_555
O7 C30 1_555 1_555
N1 C24 1_555 1_555
C22 C23 1_555 1_555
O8 C30 1_555 1_555
C23 C24 1_555 1_555
C24 C30 1_555 1_555
C25 C22 1_555 1_555
C26 C28 1_555 1_555
C27 C22 1_555 1_555
C28 C25 1_555 1_555
C29 C26 1_555 1_555
H28 C26 1_555 1_555
H29 C29 1_555 1_555
H30 C28 1_555 1_555
H31 C27 1_555 1_555
H32 C25 1_555 1_555
H33 C23 1_555 1_555
H34 C23 1_555 1_555
H35 C24 1_555 1_555
H36 N1 1_555 1_555
H37 N1 1_555 1_555
H38 N1 1_555 1_555
C1 C5 1_555 1_555
C18 C20 1_555 1_555
C27 C29 1_555 1_555

#END
