
#######################################################################
#
#                 Cambridge Crystallographic Data Centre
#                                CCDC 
#
#######################################################################
#
# If this CIF has been generated from an entry in the Cambridge 
# Structural Database, then it will include bibliographic, chemical, 
# crystal, experimental, refinement or atomic coordinate data resulting 
# from the CCDC's data processing and validation procedures.
#
#######################################################################

data_IWIXUI
_chemical_formula_moiety         'C21 H25 Cl1 O5,C9 H11 N1 O2,H2 O1'
_chemical_name_systematic        
'L-Phenylalanine 2-(4-chloro-3-(4-ethylbenzyl)phenyl)-6-(hydroxymethyl)tetrahydro-2H-pyran-3,4,5-triol monohydrate'
_chemical_properties_biological  
'possible use in selective inhibition of SGLT2 in diabetic patients'
_symmetry_cell_setting           monoclinic
_symmetry_space_group_name_H-M   'P 21'
_symmetry_Int_Tables_number      4
_space_group_name_Hall           'P 2yb'
loop_
_symmetry_equiv_pos_site_id
_symmetry_equiv_pos_as_xyz
1 x,y,z
2 -x,1/2+y,-z
_cell_length_a                   11.564(4)
_cell_length_b                   5.954(1)
_cell_length_c                   21.123(6)
_cell_angle_alpha                90
_cell_angle_beta                 96.96(2)
_cell_angle_gamma                90
_cell_volume                     1443.64
_cell_formula_units_Z            2
loop_
_atom_site_label
_atom_site_type_symbol
_atom_site_fract_x
_atom_site_fract_y
_atom_site_fract_z
O1 O 0.425790 0.326243 0.095241
O2 O 0.360534 0.048059 0.197261
O3 O 0.817546 -0.376218 0.110602
O4 O 0.575357 0.107858 0.015826
O5 O 0.642678 -0.183012 0.168918
Cl1 Cl 0.556701 -0.477228 0.462238
C1 C 0.476664 0.045625 0.175701
C2 C 0.587598 0.083175 0.083721
C3 C 0.526923 -0.185223 0.187324
C4 C 0.462457 0.093957 0.103479
C5 C 0.611333 -0.192925 0.368809
C6 C 0.768170 -0.167025 0.089052
C7 C 0.539544 -0.246761 0.256622
C8 C 0.639478 -0.154381 0.101149
C9 C 0.553521 -0.385669 0.383484
C10 C 0.600311 -0.135519 0.304486
C11 C 0.813157 -0.071579 0.417965
C12 C 0.486279 -0.502564 0.338024
C13 C 0.684371 -0.052855 0.418487
C14 C 1.057704 -0.136226 0.410352
C15 C 0.992178 -0.294378 0.435034
C16 C 0.880056 0.087791 0.393559
C17 C 0.477265 -0.443409 0.273057
C18 C 0.997174 0.059657 0.390805
C19 C 0.871064 -0.276155 0.440042
C20 C 1.186347 -0.180502 0.407455
C21 C 1.244817 -0.017583 0.373440
H1 H 0.442900 0.374500 0.051100
H2 H 0.300200 0.037600 0.157600
H3 H 0.801400 -0.493500 0.075800
H4 H 0.644800 0.185700 0.002100
H5 H 0.531200 0.166300 0.205000
H6 H 0.636800 0.228000 0.105100
H7 H 0.471400 -0.307800 0.156600
H8 H 0.390800 -0.017200 0.080400
H9 H 0.811600 -0.021100 0.111400
H10 H 0.771600 -0.141700 0.035600
H11 H 0.577700 -0.287300 0.075700
H12 H 0.647600 0.015800 0.291800
H13 H 0.433800 -0.638400 0.353000
H14 H 0.657000 0.125800 0.408000
H15 H 0.658000 -0.086900 0.466200
H16 H 1.038400 -0.452300 0.454500
H17 H 0.839400 0.252500 0.377000
H18 H 0.421900 -0.548900 0.237100
H19 H 1.047100 0.193800 0.371300
H20 H 0.825600 -0.417600 0.461100
H21 H 1.233100 -0.200900 0.455500
H22 H 1.196500 -0.344000 0.382700
H23 H 1.339100 -0.051000 0.372500
H24 H 1.206400 0.008000 0.325000
H25 H 1.243000 0.151100 0.397800
O6 O 0.161491 0.048951 0.110224
O7 O 0.018684 0.206760 0.046833
N1 N 0.057585 0.626076 0.085720
C22 C -0.029273 0.254132 0.208117
C23 C 0.141162 0.452919 0.115046
C24 C 0.149794 0.459646 0.188348
C25 C 0.037491 0.452935 0.216726
C26 C -0.186729 0.442558 0.259630
C27 C 0.106575 0.213986 0.087732
C28 C -0.005529 0.636616 0.246231
C29 C -0.140156 0.252341 0.229007
C30 C -0.114504 0.628622 0.268705
H26 H 0.045000 0.609000 0.038100
H27 H -0.022200 0.598500 0.101700
H28 H 0.006900 0.100600 0.186100
H29 H 0.225200 0.496800 0.099600
H30 H 0.203100 0.314500 0.207300
H31 H 0.199000 0.610600 0.206700
H32 H -0.275600 0.447800 0.272000
H33 H 0.047400 0.797800 0.251300
H34 H -0.194200 0.103400 0.222300
H35 H -0.139900 0.766400 0.298100
H36 H 0.082200 0.780500 0.097400
O8 O 0.233292 -0.164897 0.001652
H37 H 0.207200 -0.097600 0.040600
H38 H 0.160200 -0.247800 -0.021800
loop_
_geom_bond_atom_site_label_1
_geom_bond_atom_site_label_2
_geom_bond_site_symmetry_1
_geom_bond_site_symmetry_2
O1 C4 1_555 1_555
O2 C1 1_555 1_555
O3 C6 1_555 1_555
O4 C2 1_555 1_555
O5 C3 1_555 1_555
Cl1 C9 1_555 1_555
C1 C3 1_555 1_555
C2 C4 1_555 1_555
C3 C7 1_555 1_555
C4 C1 1_555 1_555
C5 C9 1_555 1_555
C6 C8 1_555 1_555
C7 C10 1_555 1_555
C8 O5 1_555 1_555
C9 C12 1_555 1_555
C10 C5 1_555 1_555
C11 C13 1_555 1_555
C12 C17 1_555 1_555
C13 C5 1_555 1_555
C14 C15 1_555 1_555
C15 C19 1_555 1_555
C16 C11 1_555 1_555
C17 C7 1_555 1_555
C18 C14 1_555 1_555
C19 C11 1_555 1_555
C20 C14 1_555 1_555
C21 C20 1_555 1_555
H1 O1 1_555 1_555
H2 O2 1_555 1_555
H3 O3 1_555 1_555
H4 O4 1_555 1_555
H5 C1 1_555 1_555
H6 C2 1_555 1_555
H7 C3 1_555 1_555
H8 C4 1_555 1_555
H9 C6 1_555 1_555
H10 C6 1_555 1_555
H11 C8 1_555 1_555
H12 C10 1_555 1_555
H13 C12 1_555 1_555
H14 C13 1_555 1_555
H15 C13 1_555 1_555
H16 C15 1_555 1_555
H17 C16 1_555 1_555
H18 C17 1_555 1_555
H19 C18 1_555 1_555
H20 C19 1_555 1_555
H21 C20 1_555 1_555
H22 C20 1_555 1_555
H23 C21 1_555 1_555
H24 C21 1_555 1_555
H25 C21 1_555 1_555
O6 C27 1_555 1_555
O7 C27 1_555 1_555
N1 C23 1_555 1_555
C22 C25 1_555 1_555
C23 C24 1_555 1_555
C24 C25 1_555 1_555
C25 C28 1_555 1_555
C26 C29 1_555 1_555
C27 C23 1_555 1_555
C28 C30 1_555 1_555
C29 C22 1_555 1_555
C30 C26 1_555 1_555
H26 N1 1_555 1_555
H27 N1 1_555 1_555
H28 C22 1_555 1_555
H29 C23 1_555 1_555
H30 C24 1_555 1_555
H31 C24 1_555 1_555
H32 C26 1_555 1_555
H33 C28 1_555 1_555
H34 C29 1_555 1_555
H35 C30 1_555 1_555
H36 N1 1_555 1_555
O8 H37 1_555 1_555
H38 O8 1_555 1_555
C2 C8 1_555 1_555
C16 C18 1_555 1_555

#END
