
#######################################################################
#
#                 Cambridge Crystallographic Data Centre
#                                CCDC 
#
#######################################################################
#
# If this CIF has been generated from an entry in the Cambridge 
# Structural Database, then it will include bibliographic, chemical, 
# crystal, experimental, refinement or atomic coordinate data resulting 
# from the CCDC's data processing and validation procedures.
#
#######################################################################

data_IWIYEU
_chemical_formula_moiety         'C6 H8 I1 N2 S2 1+,I3 1-'
_chemical_name_systematic        
'5-(iodomethyl)-2-methyl-5,6-dihydro[1,3]thiazolo[2,3-b][1,3,4]thiadiazol-4-ium ti-iodide'
_symmetry_cell_setting           monoclinic
_symmetry_space_group_name_H-M   'P 21/c'
_symmetry_Int_Tables_number      14
_space_group_name_Hall           '-P 2ybc'
loop_
_symmetry_equiv_pos_site_id
_symmetry_equiv_pos_as_xyz
1 x,y,z
2 -x,1/2+y,1/2-z
3 -x,-y,-z
4 x,1/2-y,1/2+z
_cell_length_a                   8.9726(4)
_cell_length_b                   8.2114(3)
_cell_length_c                   20.5497(11)
_cell_angle_alpha                90
_cell_angle_beta                 94.266(4)
_cell_angle_gamma                90
_cell_volume                     1509.86
_exptl_crystal_colour            brown
_exptl_crystal_description       needle
_cell_formula_units_Z            4
loop_
_atom_site_label
_atom_site_type_symbol
_atom_site_fract_x
_atom_site_fract_y
_atom_site_fract_z
I1 I 0.02757(3) 0.35622(4) 0.152416(16)
I2 I 0.22896(4) 0.36651(5) 0.047562(19)
I3 I -0.16922(4) 0.34418(5) 0.259805(18)
I4 I -0.44756(4) -0.37210(4) 0.125177(16)
S1 S -0.40454(14) 0.20500(16) 0.03549(5)
S2 S -0.51726(17) 0.0876(2) 0.16630(7)
C1 C -0.3977(6) 0.0985(6) 0.1063(2)
C2 C -0.2381(5) 0.1123(5) 0.0173(2)
C3 C -0.3948(6) -0.0438(8) 0.2174(2)
H1 H -0.3630 0.0098 0.2582
H2 H -0.4449 -0.1448 0.2271
N1 N -0.1843(4) 0.0142(5) 0.0614(2)
N2 N -0.2784(5) 0.0090(5) 0.11159(19)
C4 C -0.2373(9) -0.2531(10) 0.1620(4)
H3 H -0.1980 -0.3078 0.2015
H4 H -0.1643 -0.2635 0.1297
C5 C -0.1675(6) 0.1496(8) -0.0445(3)
H5 H -0.0771 0.0876 -0.0461
H6 H -0.1446 0.2636 -0.0461
H7 H -0.2352 0.1214 -0.0811
C6 C -0.2599(9) -0.0765(9) 0.1765(3)
H8 H -0.1694 -0.0350 0.2005
C7? C -0.1995(18) -0.137(2) 0.1509(9)
H9? H -0.1467 -0.2243 0.1320
H10? H -0.1313 -0.0742 0.1792
C8? C -0.3195(16) -0.201(2) 0.1891(6)
H11? H -0.2806 -0.2906 0.2152
loop_
_geom_bond_atom_site_label_1
_geom_bond_atom_site_label_2
_geom_bond_site_symmetry_1
_geom_bond_site_symmetry_2
I1 I2 1_555 1_555
I3 I1 1_555 1_555
I4 C4 1_555 1_555
S1 C1 1_555 1_555
S2 C1 1_555 1_555
C1 N2 1_555 1_555
C2 S1 1_555 1_555
C3 S2 1_555 1_555
H1 C3 1_555 1_555
H2 C3 1_555 1_555
N1 C2 1_555 1_555
N2 N1 1_555 1_555
C4 H3 1_555 1_555
H4 C4 1_555 1_555
C5 C2 1_555 1_555
H5 C5 1_555 1_555
H6 C5 1_555 1_555
H7 C5 1_555 1_555
C6 C3 1_555 1_555
H8 C6 1_555 1_555
N2 C6 1_555 1_555
C4 C6 1_555 1_555

#END
