
#######################################################################
#
#                 Cambridge Crystallographic Data Centre
#                                CCDC 
#
#######################################################################
#
# If this CIF has been generated from an entry in the Cambridge 
# Structural Database, then it will include bibliographic, chemical, 
# crystal, experimental, refinement or atomic coordinate data resulting 
# from the CCDC's data processing and validation procedures.
#
#######################################################################

data_IWOFAD
_chemical_formula_moiety         'C17 H18 N1 O4 1+,H2 O1,Br1 1-'
_chemical_name_systematic        
'1-(2-hydroxyethyl)-3-(1-hydroxy-3-(4-methoxyphenyl)-3-oxoprop-1-en-1-yl)pyridinium bromide monohydrate'
_symmetry_cell_setting           triclinic
_symmetry_space_group_name_H-M   'P -1'
_symmetry_Int_Tables_number      2
_space_group_name_Hall           '-P 1'
loop_
_symmetry_equiv_pos_site_id
_symmetry_equiv_pos_as_xyz
1 x,y,z
2 -x,-y,-z
_cell_length_a                   5.2286(5)
_cell_length_b                   8.3500(6)
_cell_length_c                   20.2441(18)
_cell_angle_alpha                79.956(7)
_cell_angle_beta                 89.888(8)
_cell_angle_gamma                81.369(7)
_cell_volume                     860.166
_cell_formula_units_Z            2
loop_
_atom_site_label
_atom_site_type_symbol
_atom_site_fract_x
_atom_site_fract_y
_atom_site_fract_z
Br1 Br 0.17889(9) 0.17127(6) 0.12976(2)
O1 O 0.1077(6) 0.3576(4) 0.36939(14)
O2 O 1.1388(6) -0.1514(4) 0.41932(14)
O3 O 1.4547(6) -0.3270(4) 0.36221(15)
N1 N 1.3478(7) -0.3946(4) 0.13827(16)
O4 O 1.5809(8) -0.2996(6) 0.01241(19)
H1 H 1.6345 -0.2473 -0.0215
C1 C 1.3034(8) -0.2858(5) 0.3096(2)
C2 C 1.6239(8) -0.4720(5) 0.2558(2)
H2 H 1.7194 -0.4992 0.2959
C3 C 1.3980(7) -0.3603(5) 0.25083(19)
C4 C 0.3809(8) 0.1818(5) 0.3137(2)
H3 H 0.2713 0.2176 0.2762
C5 C 1.0743(8) -0.1797(5) 0.3081(2)
H4 H 0.9692 -0.1543 0.2695
C6 C 0.9990(8) -0.1096(5) 0.3647(2)
C7 C 1.2646(8) -0.3243(5) 0.1906(2)
H5 H 1.1125 -0.2491 0.1859
C8 C 0.7636(8) 0.0113(5) 0.36625(19)
C9 C 0.3244(8) 0.2430(5) 0.3720(2)
C10 C 0.7024(9) 0.0733(5) 0.4244(2)
H6 H 0.8105 0.0364 0.4621
C11 C 0.4860(8) 0.1882(5) 0.4281(2)
H7 H 0.4491 0.2283 0.4677
C12 C 1.5678(9) -0.5049(5) 0.1436(2)
H8 H 1.6223 -0.5543 0.1072
C13 C 0.0365(10) 0.4173(6) 0.4296(2)
H9 H -0.1189 0.4960 0.4214
H10 H 0.1733 0.4690 0.4441
H11 H 0.0072 0.3272 0.4638
C14 C 1.2048(9) -0.3463(6) 0.0730(2)
H12 H 1.0277 -0.2997 0.0802
H13 H 1.2008 -0.4431 0.0527
C15 C 0.5980(8) 0.0682(5) 0.3107(2)
H14 H 0.6348 0.0288 0.2710
C16 C 1.3308(10) -0.2221(7) 0.0261(2)
H15 H 1.2288 -0.1855 -0.0152
H16 H 1.3439 -0.1272 0.0468
C17 C 1.7085(9) -0.5436(6) 0.2014(2)
H17 H 1.8614 -0.6179 0.2048
H18 H 1.398(19) -0.282(12) 0.395(4)
O5 O 0.7400(7) 0.9217(5) 0.1500(2)
H20 H 0.838(9) 0.994(5) 0.140(3)
H21 H 0.582(5) 0.965(7) 0.143(3)
H19? H 1.266(14) -0.213(11) 0.406(5)
loop_
_geom_bond_atom_site_label_1
_geom_bond_atom_site_label_2
_geom_bond_site_symmetry_1
_geom_bond_site_symmetry_2
O1 C9 1_555 1_555
O2 C6 1_555 1_555
O3 C1 1_555 1_555
N1 C7 1_555 1_555
O4 H1 1_555 1_555
C1 C3 1_555 1_555
C2 H2 1_555 1_555
C3 C2 1_555 1_555
C4 H3 1_555 1_555
C5 C1 1_555 1_555
H4 C5 1_555 1_555
C6 C5 1_555 1_555
C7 C3 1_555 1_555
H5 C7 1_555 1_555
C8 C6 1_555 1_555
C9 C4 1_555 1_555
C10 C8 1_555 1_555
H6 C10 1_555 1_555
C11 C9 1_555 1_555
H7 C11 1_555 1_555
C12 N1 1_555 1_555
H8 C12 1_555 1_555
C13 O1 1_555 1_555
H9 C13 1_555 1_555
H10 C13 1_555 1_555
H11 C13 1_555 1_555
C14 N1 1_555 1_555
H12 C14 1_555 1_555
H13 C14 1_555 1_555
C15 C4 1_555 1_555
H14 C15 1_555 1_555
C16 O4 1_555 1_555
H15 C16 1_555 1_555
H16 C16 1_555 1_555
C17 C2 1_555 1_555
H17 C17 1_555 1_555
H18 O3 1_555 1_555
O5 H20 1_555 1_555
H21 O5 1_555 1_555
C8 C15 1_555 1_555
C10 C11 1_555 1_555
C12 C17 1_555 1_555
C14 C16 1_555 1_555

#END
