
#######################################################################
#
#                 Cambridge Crystallographic Data Centre
#                                CCDC 
#
#######################################################################
#
# If this CIF has been generated from an entry in the Cambridge 
# Structural Database, then it will include bibliographic, chemical, 
# crystal, experimental, refinement or atomic coordinate data resulting 
# from the CCDC's data processing and validation procedures.
#
#######################################################################

data_IWONOX
_chemical_formula_moiety         'C14 H20 Mg1 N2 O10'
_chemical_name_systematic        
Tetra-aqua-bis((2-oxo-1,2-dihydropyridin-1-yl)acetato)-magnesium(ii)
_symmetry_cell_setting           monoclinic
_symmetry_space_group_name_H-M   'P 21/c'
_symmetry_Int_Tables_number      14
_space_group_name_Hall           '-P 2ybc'
loop_
_symmetry_equiv_pos_site_id
_symmetry_equiv_pos_as_xyz
1 x,y,z
2 x,1/2-y,1/2+z
3 -x,-y,-z
4 -x,1/2+y,1/2-z
_cell_length_a                   10.550(2)
_cell_length_b                   7.0990(10)
_cell_length_c                   13.056(3)
_cell_angle_alpha                90
_cell_angle_beta                 113.70(3)
_cell_angle_gamma                90
_cell_volume                     895.355
_exptl_crystal_colour            colorless
_exptl_crystal_description       prism
_cell_formula_units_Z            2
loop_
_atom_site_label
_atom_site_type_symbol
_atom_site_fract_x
_atom_site_fract_y
_atom_site_fract_z
Mg1 Mg 0.0000 0.0000 0.5000
O1 O -0.08580(10) 0.5007(2) 0.64772(9)
O2 O -0.25520(10) 0.5467(2) 0.47913(9)
O3 O -0.18480(10) 0.0986(2) 0.49040(10)
O4 O -0.0222(2) 0.1439(2) 0.35680(10)
O5 O -0.09410(10) -0.2399(2) 0.40636(9)
N1 N -0.37970(10) 0.2160(2) 0.49440(10)
C1 C -0.3133(2) 0.1091(2) 0.44290(10)
C2 C -0.3995(2) 0.0214(3) 0.3404(2)
C3 C -0.5392(2) 0.0442(3) 0.2976(2)
C4 C -0.6016(2) 0.1527(3) 0.3544(2)
C5 C -0.5201(2) 0.2352(2) 0.4519(2)
C6 C -0.2900(2) 0.3130(2) 0.59610(10)
C7 C -0.2030(2) 0.4663(2) 0.57080(10)
H1 H -0.3598 -0.0523 0.3023
H2 H -0.5940 -0.0127 0.2301
H3 H -0.6972 0.1675 0.3254
H4 H -0.5604 0.3062 0.4907
H5 H 0.016(3) 0.251(2) 0.359(2)
H6 H -0.039(3) 0.093(3) 0.2930(10)
H7 H -0.042(2) -0.314(2) 0.390(2)
H8 H -0.146(2) -0.304(3) 0.430(2)
H9 H -0.2287 0.2225 0.6483
H10 H -0.3461 0.3705 0.6311
O3B O 0.18480(10) -0.0986(2) 0.50960(10)
C1B C 0.3133(2) -0.1091(2) 0.55710(10)
N1B N 0.37970(10) -0.2160(2) 0.50560(10)
C5B C 0.5201(2) -0.2352(2) 0.5481(2)
C4B C 0.6016(2) -0.1527(3) 0.6456(2)
C3B C 0.5392(2) -0.0442(3) 0.7024(2)
C2B C 0.3995(2) -0.0214(3) 0.6596(2)
H1B H 0.3598 0.0523 0.6977
H2B H 0.5940 0.0127 0.7699
H3B H 0.6972 -0.1675 0.6746
H4B H 0.5604 -0.3062 0.5093
C6B C 0.2900(2) -0.3130(2) 0.40390(10)
C7B C 0.2030(2) -0.4663(2) 0.42920(10)
O1B O 0.08580(10) -0.5007(2) 0.35228(9)
O2B O 0.25520(10) -0.5467(2) 0.52087(9)
H9B H 0.2287 -0.2225 0.3517
H10B H 0.3461 -0.3705 0.3689
O4B O 0.0222(2) -0.1439(2) 0.64320(10)
H5B H -0.016(3) -0.251(2) 0.641(2)
H6B H 0.039(3) -0.093(3) 0.7070(10)
O5B O 0.09410(10) 0.2399(2) 0.59364(9)
H7B H 0.042(2) 0.314(2) 0.610(2)
H8B H 0.146(2) 0.304(3) 0.570(2)
loop_
_geom_bond_atom_site_label_1
_geom_bond_atom_site_label_2
_geom_bond_site_symmetry_1
_geom_bond_site_symmetry_2
Mg1 O3 1_555 1_555
O1 C7 1_555 1_555
O2 C7 1_555 1_555
O3 C1 1_555 1_555
O4 Mg1 1_555 1_555
O5 Mg1 1_555 1_555
N1 C1 1_555 1_555
C1 C2 1_555 1_555
C2 C3 1_555 1_555
C3 C4 1_555 1_555
C4 C5 1_555 1_555
C5 N1 1_555 1_555
C6 N1 1_555 1_555
C7 C6 1_555 1_555
H1 C2 1_555 1_555
H2 C3 1_555 1_555
H3 C4 1_555 1_555
H4 C5 1_555 1_555
H5 O4 1_555 1_555
H6 O4 1_555 1_555
H7 O5 1_555 1_555
H8 O5 1_555 1_555
H9 C6 1_555 1_555
H10 C6 1_555 1_555
O3B Mg1 1_555 1_555
C1B O3B 1_555 1_555
N1B C1B 1_555 1_555
C5B N1B 1_555 1_555
C4B C5B 1_555 1_555
C3B C4B 1_555 1_555
C2B C1B 1_555 1_555
H1B C2B 1_555 1_555
H2B C3B 1_555 1_555
H3B C4B 1_555 1_555
H4B C5B 1_555 1_555
C6B N1B 1_555 1_555
C7B C6B 1_555 1_555
O1B C7B 1_555 1_555
O2B C7B 1_555 1_555
H9B C6B 1_555 1_555
H10B C6B 1_555 1_555
O4B Mg1 1_555 1_555
H5B O4B 1_555 1_555
H6B O4B 1_555 1_555
O5B Mg1 1_555 1_555
H7B O5B 1_555 1_555
H8B O5B 1_555 1_555
C3B C2B 1_555 1_555

#END
