
#######################################################################
#
#                 Cambridge Crystallographic Data Centre
#                                CCDC 
#
#######################################################################
#
# If this CIF has been generated from an entry in the Cambridge 
# Structural Database, then it will include bibliographic, chemical, 
# crystal, experimental, refinement or atomic coordinate data resulting 
# from the CCDC's data processing and validation procedures.
#
#######################################################################

data_IWOPUH
_chemical_formula_moiety         'C31 H35 N3 O2'
_chemical_name_systematic        
N-(2,2,6,6-tetramethyl-1-((4-methylbenzo[h]quinolin-2-yl)methoxy)piperidin-4-yl)benzamide
_symmetry_cell_setting           monoclinic
_symmetry_space_group_name_H-M   'P 21/c'
_symmetry_Int_Tables_number      14
_space_group_name_Hall           '-P 2ybc'
loop_
_symmetry_equiv_pos_site_id
_symmetry_equiv_pos_as_xyz
1 x,y,z
2 -x,1/2+y,1/2-z
3 -x,-y,-z
4 x,1/2-y,1/2+z
_cell_length_a                   11.4456(18)
_cell_length_b                   22.211(3)
_cell_length_c                   10.3680(16)
_cell_angle_alpha                90
_cell_angle_beta                 94.457(4)
_cell_angle_gamma                90
_cell_volume                     2627.76
_exptl_crystal_colour            colorless
_exptl_crystal_description       prismatic
_cell_formula_units_Z            4
loop_
_atom_site_label
_atom_site_type_symbol
_atom_site_fract_x
_atom_site_fract_y
_atom_site_fract_z
N1 N 0.71228(15) -0.15771(7) 0.10323(15)
N2 N 0.77096(16) 0.04341(7) 0.23432(15)
N3 N 0.77262(15) 0.22841(7) 0.31470(16)
O1 O 0.78823(15) -0.02017(6) 0.25909(13)
O2 O 0.74866(13) 0.24900(6) 0.52365(12)
C1 C 0.65616(17) -0.25840(9) 0.04479(19)
C2 C 0.58192(18) -0.23783(10) -0.0602(2)
H1 H 0.5746 -0.1967 -0.0758
C3 C 0.5203(2) -0.27767(12) -0.1398(2)
H2 H 0.4711 -0.2635 -0.2088
C4 C 0.5310(2) -0.33899(12) -0.1178(3)
H3 H 0.4892 -0.3658 -0.1727
C5 C 0.6018(2) -0.36039(11) -0.0171(3)
H4 H 0.6084 -0.4017 -0.0038
C6 C 0.66566(19) -0.32031(9) 0.0680(2)
C7 C 0.7389(2) -0.34101(10) 0.1740(2)
H5 H 0.7442 -0.3822 0.1897
C8 C 0.80192(19) -0.30294(10) 0.2536(2)
H6 H 0.8484 -0.3184 0.3234
C9 C 0.79853(17) -0.23967(8) 0.23283(18)
C10 C 0.72427(17) -0.21718(8) 0.12887(18)
C11 C 0.77345(19) -0.11963(9) 0.17941(19)
C12 C 0.84962(19) -0.13827(9) 0.28317(19)
H7 H 0.8912 -0.1097 0.3337
C13 C 0.86407(17) -0.19815(9) 0.31171(18)
C14 C 0.9455(2) -0.21813(10) 0.4234(2)
H8 H 1.0072 -0.2421 0.3922
H9 H 0.9030 -0.2416 0.4818
H10 H 0.9786 -0.1835 0.4680
C15 C 0.7565(3) -0.05460(9) 0.1456(2)
H11 H 0.8053 -0.0435 0.0770
H12 H 0.6753 -0.0471 0.1161
C16 C 0.6788(2) 0.06360(9) 0.3184(2)
C17 C 0.66848(18) 0.13176(9) 0.30377(19)
H13 H 0.6378 0.1411 0.2162
H14 H 0.6130 0.1467 0.3623
C18 C 0.78437(17) 0.16384(8) 0.33176(17)
H15 H 0.8136 0.1555 0.4213
C19 C 0.87131(17) 0.13989(8) 0.24227(17)
H16 H 0.9460 0.1598 0.2618
H17 H 0.8443 0.1499 0.1539
C20 C 0.88957(18) 0.07198(8) 0.25231(18)
C21 C 0.9617(2) 0.05516(10) 0.3776(2)
H18 H 0.9288 0.0742 0.4495
H19 H 1.0411 0.0684 0.3730
H20 H 0.9605 0.0123 0.3888
C22 C 0.9573(2) 0.05217(10) 0.1387(2)
H21 H 0.9735 0.0098 0.1455
H22 H 1.0297 0.0741 0.1400
H23 H 0.9113 0.0601 0.0591
C23 C 0.5628(2) 0.03575(12) 0.2638(3)
H24 H 0.5517 0.0438 0.1727
H25 H 0.4993 0.0530 0.3066
H26 H 0.5648 -0.0070 0.2780
C24 C 0.6977(3) 0.04579(11) 0.4616(2)
H27 H 0.7248 0.0049 0.4683
H28 H 0.6251 0.0494 0.5015
H29 H 0.7550 0.0719 0.5047
C25 C 0.75567(16) 0.26594(8) 0.41223(17)
C26 C 0.74744(17) 0.33100(8) 0.37750(17)
C27 C 0.6598(2) 0.36592(10) 0.4223(2)
H30 H 0.6047 0.3487 0.4724
C28 C 0.6537(3) 0.42644(11) 0.3929(2)
H31 H 0.5937 0.4497 0.4223
C29 C 0.7348(3) 0.45241(11) 0.3212(2)
H32 H 0.7302 0.4933 0.3021
C30 C 0.8227(3) 0.41863(11) 0.2776(2)
H33 H 0.8786 0.4366 0.2296
C31 C 0.8290(2) 0.35788(9) 0.3042(2)
H34 H 0.8884 0.3348 0.2728
H35 H 0.7675(18) 0.2427(9) 0.237(2)
loop_
_geom_bond_atom_site_label_1
_geom_bond_atom_site_label_2
_geom_bond_site_symmetry_1
_geom_bond_site_symmetry_2
N1 C10 1_555 1_555
N2 O1 1_555 1_555
N3 C18 1_555 1_555
O1 C15 1_555 1_555
O2 C25 1_555 1_555
C1 C2 1_555 1_555
C2 H1 1_555 1_555
C3 C2 1_555 1_555
H2 C3 1_555 1_555
C4 C3 1_555 1_555
H3 C4 1_555 1_555
C5 C4 1_555 1_555
H4 C5 1_555 1_555
C6 C1 1_555 1_555
C7 C6 1_555 1_555
H5 C7 1_555 1_555
C8 C7 1_555 1_555
H6 C8 1_555 1_555
C9 C8 1_555 1_555
C10 C1 1_555 1_555
C11 N1 1_555 1_555
C12 C11 1_555 1_555
H7 C12 1_555 1_555
C13 C9 1_555 1_555
C14 C13 1_555 1_555
H8 C14 1_555 1_555
H9 C14 1_555 1_555
H10 C14 1_555 1_555
C15 C11 1_555 1_555
H11 C15 1_555 1_555
H12 C15 1_555 1_555
C16 N2 1_555 1_555
C17 C16 1_555 1_555
H13 C17 1_555 1_555
H14 C17 1_555 1_555
C18 C17 1_555 1_555
H15 C18 1_555 1_555
C19 C18 1_555 1_555
H16 C19 1_555 1_555
H17 C19 1_555 1_555
C20 N2 1_555 1_555
C21 C20 1_555 1_555
H18 C21 1_555 1_555
H19 C21 1_555 1_555
H20 C21 1_555 1_555
C22 C20 1_555 1_555
H21 C22 1_555 1_555
H22 C22 1_555 1_555
H23 C22 1_555 1_555
C23 C16 1_555 1_555
H24 C23 1_555 1_555
H25 C23 1_555 1_555
H26 C23 1_555 1_555
C24 C16 1_555 1_555
H27 C24 1_555 1_555
H28 C24 1_555 1_555
H29 C24 1_555 1_555
C25 N3 1_555 1_555
C26 C25 1_555 1_555
C27 C26 1_555 1_555
H30 C27 1_555 1_555
C28 C27 1_555 1_555
H31 C28 1_555 1_555
C29 C28 1_555 1_555
H32 C29 1_555 1_555
C30 C29 1_555 1_555
H33 C30 1_555 1_555
C31 C26 1_555 1_555
H34 C31 1_555 1_555
H35 N3 1_555 1_555
C5 C6 1_555 1_555
C9 C10 1_555 1_555
C12 C13 1_555 1_555
C19 C20 1_555 1_555
C30 C31 1_555 1_555

#END
