
#######################################################################
#
#                 Cambridge Crystallographic Data Centre
#                                CCDC 
#
#######################################################################
#
# If this CIF has been generated from an entry in the Cambridge 
# Structural Database, then it will include bibliographic, chemical, 
# crystal, experimental, refinement or atomic coordinate data resulting 
# from the CCDC's data processing and validation procedures.
#
#######################################################################

data_IWOROB01
_chemical_formula_moiety         'C20 H17 N5'
_chemical_name_systematic        
4-(3,4-Dimethylphenyl)-3,5-bis(2-pyridyl)-4H-1,2,4-triazole
_symmetry_cell_setting           triclinic
_symmetry_space_group_name_H-M   'P -1'
_symmetry_Int_Tables_number      2
_space_group_name_Hall           '-P 1'
loop_
_symmetry_equiv_pos_site_id
_symmetry_equiv_pos_as_xyz
1 x,y,z
2 -x,-y,-z
_cell_length_a                   10.006(3)
_cell_length_b                   10.318(3)
_cell_length_c                   10.371(3)
_cell_angle_alpha                82.630(5)
_cell_angle_beta                 62.925(5)
_cell_angle_gamma                63.291(5)
_cell_volume                     847.731
_exptl_crystal_colour            colorless
_exptl_crystal_description       rod-like
_cell_formula_units_Z            2
loop_
_atom_site_label
_atom_site_type_symbol
_atom_site_fract_x
_atom_site_fract_y
_atom_site_fract_z
N1 N 0.25737(19) 0.43417(17) 0.01826(17)
N2 N 0.3250(2) 0.20503(19) -0.0288(2)
N3 N 0.3243(2) 0.2764(2) -0.15077(19)
N4 N 0.1624(2) 0.35648(18) 0.32880(19)
N5 N 0.3796(2) 0.5877(2) -0.2440(2)
C1 C 0.2859(3) 0.3003(2) 0.0704(2)
C2 C 0.2844(2) 0.4128(2) -0.1205(2)
C3 C 0.2803(3) 0.2604(2) 0.2135(2)
C4 C 0.3944(3) 0.1234(2) 0.2222(2)
H1 H 0.4745 0.0589 0.1393
C5 C 0.3862(3) 0.0852(3) 0.3566(3)
H2 H 0.4608 -0.0060 0.3663
C6 C 0.2672(3) 0.1827(3) 0.4754(3)
H3 H 0.2601 0.1599 0.5673
C7 C 0.1586(3) 0.3148(3) 0.4570(2)
H4 H 0.0767 0.3798 0.5392
C8 C 0.2879(3) 0.5192(2) -0.2285(2)
C9 C 0.2119(3) 0.5367(3) -0.3158(2)
H5 H 0.1471 0.4888 -0.3005
C10 C 0.2333(3) 0.6261(3) -0.4258(3)
H6 H 0.1828 0.6400 -0.4861
C11 C 0.3301(3) 0.6943(3) -0.4453(3)
H7 H 0.3496 0.7533 -0.5207
C12 C 0.3973(3) 0.6733(2) -0.3511(3)
H8 H 0.4599 0.7226 -0.3630
C13 C 0.2092(3) 0.5703(2) 0.0882(2)
C14 C 0.0678(3) 0.6905(2) 0.0966(2)
H9 H 0.0008 0.6814 0.0625
C15 C 0.0233(3) 0.8268(2) 0.1562(2)
C16 C 0.1267(3) 0.8369(3) 0.2060(2)
C17 C 0.2644(3) 0.7150(3) 0.1992(2)
H10 H 0.3307 0.7228 0.2352
C18 C 0.3088(3) 0.5805(2) 0.1410(2)
H11 H 0.4033 0.4988 0.1373
C19 C -0.1322(3) 0.9551(2) 0.1645(3)
H12 H -0.2109 0.9890 0.2646
H13 H -0.1806 0.9269 0.1184
H14 H -0.1048 1.0317 0.1159
C20 C 0.0847(4) 0.9830(3) 0.2693(3)
H15 H 0.1580 0.9688 0.3109
H16 H -0.0293 1.0255 0.3433
H17 H 0.0988 1.0470 0.1935
loop_
_geom_bond_atom_site_label_1
_geom_bond_atom_site_label_2
_geom_bond_site_symmetry_1
_geom_bond_site_symmetry_2
N1 C1 1_555 1_555
N2 N3 1_555 1_555
N3 C2 1_555 1_555
N4 C3 1_555 1_555
N5 C8 1_555 1_555
C1 N2 1_555 1_555
C2 N1 1_555 1_555
C3 C1 1_555 1_555
C4 C3 1_555 1_555
H1 C4 1_555 1_555
C5 C4 1_555 1_555
H2 C5 1_555 1_555
C6 C5 1_555 1_555
H3 C6 1_555 1_555
C7 N4 1_555 1_555
H4 C7 1_555 1_555
C8 C2 1_555 1_555
C9 C8 1_555 1_555
H5 C9 1_555 1_555
C10 C9 1_555 1_555
H6 C10 1_555 1_555
C11 C10 1_555 1_555
H7 C11 1_555 1_555
C12 N5 1_555 1_555
H8 C12 1_555 1_555
C13 N1 1_555 1_555
C14 C13 1_555 1_555
H9 C14 1_555 1_555
C15 C14 1_555 1_555
C16 C15 1_555 1_555
C17 C16 1_555 1_555
H10 C17 1_555 1_555
C18 C13 1_555 1_555
H11 C18 1_555 1_555
C19 C15 1_555 1_555
H12 C19 1_555 1_555
H13 C19 1_555 1_555
H14 C19 1_555 1_555
C20 C16 1_555 1_555
H15 C20 1_555 1_555
H16 C20 1_555 1_555
H17 C20 1_555 1_555
C6 C7 1_555 1_555
C11 C12 1_555 1_555
C17 C18 1_555 1_555

#END
