
#######################################################################
#
#                 Cambridge Crystallographic Data Centre
#                                CCDC 
#
#######################################################################
#
# If this CIF has been generated from an entry in the Cambridge 
# Structural Database, then it will include bibliographic, chemical, 
# crystal, experimental, refinement or atomic coordinate data resulting 
# from the CCDC's data processing and validation procedures.
#
#######################################################################

data_IWORUH
_chemical_formula_moiety         'C10 H13 Br1 O4 S1'
_chemical_name_systematic        
(4aSR,7SR,9aRS)-9a-Bromo-7-methyl-5,5-dioxo-1,2,4a,6,7,9a-hexahydro-8-oxa-5\l^6^-thia-1,4-benzocyclohepten-9-one
_symmetry_cell_setting           triclinic
_symmetry_space_group_name_H-M   'P -1'
_symmetry_Int_Tables_number      2
_space_group_name_Hall           '-P 1'
loop_
_symmetry_equiv_pos_site_id
_symmetry_equiv_pos_as_xyz
1 x,y,z
2 -x,-y,-z
_cell_length_a                   6.2069(10)
_cell_length_b                   9.2067(15)
_cell_length_c                   10.4197(17)
_cell_angle_alpha                92.724(3)
_cell_angle_beta                 94.191(3)
_cell_angle_gamma                101.615(3)
_cell_volume                     580.5
_exptl_crystal_colour            colorless
_exptl_crystal_description       block
_cell_formula_units_Z            2
_exptl_crystal_recrystallization_method perdeuterochloroform
loop_
_atom_site_label
_atom_site_type_symbol
_atom_site_fract_x
_atom_site_fract_y
_atom_site_fract_z
Br1 Br 0.71750(4) -0.00992(2) 0.65490(2)
C1 C 1.0193(4) 0.2454(3) 0.5794(2)
H1 H 1.099(6) 0.347(4) 0.604(3)
H2 H 1.126(6) 0.185(4) 0.585(3)
O1 O 0.9861(3) 0.5019(2) 0.80645(18)
C2 C 0.9000(4) 0.2381(3) 0.4456(2)
H3 H 1.000(6) 0.286(4) 0.386(3)
H4 H 0.845(6) 0.129(4) 0.412(3)
O2 O 0.6122(3) 0.5552(2) 0.76989(19)
C3 C 0.7112(4) 0.3160(3) 0.4470(3)
H5 H 0.657(6) 0.339(4) 0.369(4)
O3 O 1.2058(3) 0.1956(2) 0.80829(18)
C4 C 0.6166(4) 0.3421(3) 0.5535(2)
H6 H 0.500(6) 0.389(4) 0.552(3)
C5 C 0.6795(4) 0.2916(3) 0.6842(2)
H7 H 0.546(5) 0.235(4) 0.719(3)
S1 S 0.74977(10) 0.45077(6) 0.79933(6)
C6 C 0.6752(4) 0.3697(3) 0.9453(2)
H8 H 0.761(5) 0.434(4) 1.011(3)
H9 H 0.528(6) 0.365(4) 0.947(3)
C7 C 0.7128(4) 0.2119(3) 0.9530(2)
H10 H 0.613(6) 0.145(4) 0.889(3)
O4 O 0.9404(3) 0.2074(2) 0.93013(16)
C8 C 1.0158(4) 0.2035(3) 0.8128(2)
C9 C 0.8672(4) 0.2029(3) 0.6860(2)
C10 C 0.6833(5) 0.1590(3) 1.0870(3)
H11 H 0.705(6) 0.058(5) 1.090(4)
H12 H 0.546(7) 0.164(4) 1.104(4)
H13 H 0.786(6) 0.224(4) 1.151(4)
loop_
_geom_bond_atom_site_label_1
_geom_bond_atom_site_label_2
_geom_bond_site_symmetry_1
_geom_bond_site_symmetry_2
Br1 C9 1_555 1_555
C1 H1 1_555 1_555
H2 C1 1_555 1_555
O1 S1 1_555 1_555
C2 C1 1_555 1_555
H3 C2 1_555 1_555
H4 C2 1_555 1_555
O2 S1 1_555 1_555
C3 C2 1_555 1_555
H5 C3 1_555 1_555
O3 C8 1_555 1_555
C4 C3 1_555 1_555
H6 C4 1_555 1_555
C5 C4 1_555 1_555
H7 C5 1_555 1_555
S1 C5 1_555 1_555
C6 S1 1_555 1_555
H8 C6 1_555 1_555
H9 C6 1_555 1_555
C7 C6 1_555 1_555
H10 C7 1_555 1_555
O4 C7 1_555 1_555
C8 O4 1_555 1_555
C9 C1 1_555 1_555
C10 C7 1_555 1_555
H11 C10 1_555 1_555
H12 C10 1_555 1_555
H13 C10 1_555 1_555
C5 C9 1_555 1_555
C8 C9 1_555 1_555

#END
