
#######################################################################
#
#                 Cambridge Crystallographic Data Centre
#                                CCDC 
#
#######################################################################
#
# If this CIF has been generated from an entry in the Cambridge 
# Structural Database, then it will include bibliographic, chemical, 
# crystal, experimental, refinement or atomic coordinate data resulting 
# from the CCDC's data processing and validation procedures.
#
#######################################################################

data_IWOROB
_chemical_formula_moiety         'C20 H17 N5'
_chemical_name_systematic        
4-(3,4-Dimethylphenyl)-3,5-bis(2-pyridyl)-4H-1,2,4-triazole
_symmetry_cell_setting           triclinic
_symmetry_space_group_name_H-M   'P -1'
_symmetry_Int_Tables_number      2
_space_group_name_Hall           '-P 1'
loop_
_symmetry_equiv_pos_site_id
_symmetry_equiv_pos_as_xyz
1 x,y,z
2 -x,-y,-z
_cell_length_a                   10.006(3)
_cell_length_b                   10.318(3)
_cell_length_c                   10.371(3)
_cell_angle_alpha                82.630(5)
_cell_angle_beta                 62.925(5)
_cell_angle_gamma                63.291(5)
_cell_volume                     847.731
_exptl_crystal_colour            colorless
_exptl_crystal_description       prism
_cell_formula_units_Z            2
_exptl_crystal_recrystallization_method acetone
loop_
_atom_site_label
_atom_site_type_symbol
_atom_site_fract_x
_atom_site_fract_y
_atom_site_fract_z
N1 N 0.2576(2) 0.4342(2) 0.0180(2)
N2 N 0.3253(3) 0.2051(2) -0.0289(2)
N3 N 0.3246(3) 0.2766(2) -0.1507(2)
N4 N 0.1628(3) 0.3565(2) 0.3287(2)
N5 N 0.3793(3) 0.5879(2) -0.2439(2)
C1 C 0.2860(3) 0.3006(3) 0.0705(3)
C2 C 0.2842(3) 0.4129(3) -0.1205(3)
C3 C 0.2804(3) 0.2602(3) 0.2134(3)
C4 C 0.3947(3) 0.1236(3) 0.2220(3)
H1 H 0.4752 0.0594 0.1389
C5 C 0.3861(4) 0.0850(3) 0.3565(3)
H2 H 0.4604 -0.0064 0.3661
C6 C 0.2673(4) 0.1826(3) 0.4757(3)
H3 H 0.2601 0.1597 0.5676
C7 C 0.1589(4) 0.3149(3) 0.4572(3)
H4 H 0.0772 0.3801 0.5393
C8 C 0.2884(3) 0.5195(3) -0.2288(3)
C9 C 0.2127(3) 0.5372(3) -0.3162(3)
H5 H 0.1477 0.4894 -0.3009
C10 C 0.2341(4) 0.6266(3) -0.4266(3)
H6 H 0.1840 0.6403 -0.4871
C11 C 0.3303(4) 0.6947(3) -0.4455(3)
H7 H 0.3497 0.7540 -0.5205
C12 C 0.3971(3) 0.6732(3) -0.3512(3)
H8 H 0.4600 0.7222 -0.3631
C13 C 0.2100(3) 0.5706(3) 0.0880(2)
C14 C 0.0683(3) 0.6906(3) 0.0961(2)
H9 H 0.0014 0.6814 0.0618
C15 C 0.0236(3) 0.8273(3) 0.1559(3)
C16 C 0.1265(4) 0.8370(3) 0.2062(3)
C17 C 0.2641(4) 0.7147(3) 0.1994(3)
H10 H 0.3300 0.7224 0.2359
C18 C 0.3090(3) 0.5809(3) 0.1408(3)
H11 H 0.4038 0.4993 0.1369
C19 C -0.1306(3) 0.9553(3) 0.1632(3)
H12 H -0.1440 1.0402 0.2061
H13 H -0.2261 0.9369 0.2215
H14 H -0.1212 0.9714 0.0669
C20 C 0.0835(5) 0.9831(3) 0.2699(4)
H15 H 0.1662 0.9716 0.2991
H16 H -0.0245 1.0186 0.3528
H17 H 0.0817 1.0515 0.1979
loop_
_geom_bond_atom_site_label_1
_geom_bond_atom_site_label_2
_geom_bond_site_symmetry_1
_geom_bond_site_symmetry_2
N1 C1 1_555 1_555
N2 N3 1_555 1_555
N3 C2 1_555 1_555
N4 C3 1_555 1_555
N5 C8 1_555 1_555
C1 N2 1_555 1_555
C2 N1 1_555 1_555
C3 C1 1_555 1_555
C4 C3 1_555 1_555
H1 C4 1_555 1_555
C5 C4 1_555 1_555
H2 C5 1_555 1_555
C6 C5 1_555 1_555
H3 C6 1_555 1_555
C7 N4 1_555 1_555
H4 C7 1_555 1_555
C8 C2 1_555 1_555
C9 C8 1_555 1_555
H5 C9 1_555 1_555
C10 C9 1_555 1_555
H6 C10 1_555 1_555
C11 C10 1_555 1_555
H7 C11 1_555 1_555
C12 N5 1_555 1_555
H8 C12 1_555 1_555
C13 N1 1_555 1_555
C14 C13 1_555 1_555
H9 C14 1_555 1_555
C15 C14 1_555 1_555
C16 C15 1_555 1_555
C17 C16 1_555 1_555
H10 C17 1_555 1_555
C18 C13 1_555 1_555
H11 C18 1_555 1_555
C19 C15 1_555 1_555
H12 C19 1_555 1_555
H13 C19 1_555 1_555
H14 C19 1_555 1_555
C20 C16 1_555 1_555
H15 C20 1_555 1_555
H16 C20 1_555 1_555
H17 C20 1_555 1_555
C6 C7 1_555 1_555
C11 C12 1_555 1_555
C17 C18 1_555 1_555

#END
