
#######################################################################
#
#                 Cambridge Crystallographic Data Centre
#                                CCDC 
#
#######################################################################
#
# If this CIF has been generated from an entry in the Cambridge 
# Structural Database, then it will include bibliographic, chemical, 
# crystal, experimental, refinement or atomic coordinate data resulting 
# from the CCDC's data processing and validation procedures.
#
#######################################################################

data_IWOYID
_chemical_formula_moiety         'C21 H21 N3'
_chemical_name_systematic        
N,N'-(2-Amino-5-methylcyclohexa-2,5-diene-1,4-diylidene)bis(4-methylaniline)
_symmetry_cell_setting           rhombohedral
_symmetry_space_group_name_H-M   'R 3'
_symmetry_Int_Tables_number      146
_space_group_name_Hall           'R 3'
loop_
_symmetry_equiv_pos_site_id
_symmetry_equiv_pos_as_xyz
1 x,y,z
2 -y,x-y,z
3 -x+y,-x,z
4 2/3+x,1/3+y,1/3+z
5 2/3-y,1/3+x-y,1/3+z
6 2/3-x+y,1/3-x,1/3+z
7 1/3+x,2/3+y,2/3+z
8 1/3-y,2/3+x-y,2/3+z
9 1/3-x+y,2/3-x,2/3+z
_cell_length_a                   21.116(2)
_cell_length_b                   21.116(2)
_cell_length_c                   10.364(2)
_cell_angle_alpha                90
_cell_angle_beta                 90
_cell_angle_gamma                120
_cell_volume                     4002.04
_exptl_crystal_colour            red
_exptl_crystal_description       block
_cell_formula_units_Z            9
loop_
_atom_site_label
_atom_site_type_symbol
_atom_site_fract_x
_atom_site_fract_y
_atom_site_fract_z
C1 C 0.7688(6) 0.5002(5) -0.3172(11)
H1 H 0.7755 0.4898 -0.4047
H2 H 0.7811 0.5504 -0.3104
H3 H 0.7187 0.4690 -0.2925
N1 N 0.9449(3) 0.4340(4) 0.0191(7)
C2 C 0.8163(6) 0.4870(5) -0.2319(10)
N2 N 0.9653(4) 0.6016(4) 0.3490(7)
H4 H 0.9406 0.6156 0.3034
H5 H 0.9811 0.6204 0.4239
C3 C 0.7852(6) 0.4262(6) -0.1473(12)
H6 H 0.7349 0.3948 -0.1464
N3 N 1.0486(4) 0.5601(4) 0.4866(7)
C4 C 0.8298(6) 0.4131(5) -0.0653(11)
H7 H 0.8082 0.3716 -0.0136
C5 C 0.9011(6) 0.4571(5) -0.0578(8)
C6 C 0.9326(5) 0.5132(5) -0.1517(11)
H8 H 0.9831 0.5411 -0.1612
C7 C 0.8888(8) 0.5249(7) -0.2249(10)
H9 H 0.9117 0.5651 -0.2795
C8 C 0.9712(5) 0.4687(5) 0.1292(9)
C9 C 0.9542(4) 0.5188(5) 0.1830(9)
H10 H 0.9248 0.5317 0.1358
C10 C 0.9789(5) 0.5507(5) 0.3039(8)
C11 C 1.0288(4) 0.5330(4) 0.3763(9)
C12 C 1.0459(5) 0.4798(4) 0.3115(8)
H11 H 1.0793 0.4692 0.3502
C13 C 1.0166(5) 0.4488(5) 0.2064(10)
C14 C 1.0388(5) 0.3971(5) 0.1383(9)
H12 H 1.0657 0.4201 0.0612
H13 H 0.9956 0.3520 0.1164
H14 H 1.0687 0.3874 0.1953
C15 C 1.0944(4) 0.5460(5) 0.5614(8)
C16 C 1.1706(6) 0.5845(6) 0.5476(12)
H15 H 1.1941 0.6217 0.4873
C17 C 1.2086(5) 0.5636(7) 0.6291(11)
H16 H 1.2592 0.5889 0.6200
C18 C 1.1822(7) 0.5129(6) 0.7171(9)
C19 C 1.1081(6) 0.4723(5) 0.7249(11)
H17 H 1.0852 0.4331 0.7816
C20 C 1.0666(6) 0.4927(7) 0.6412(12)
H18 H 1.0159 0.4652 0.6459
C21 C 1.2297(6) 0.4951(5) 0.8085(9)
H19 H 1.1984 0.4552 0.8640
H20 H 1.2605 0.5374 0.8598
H21 H 1.2594 0.4819 0.7581
loop_
_geom_bond_atom_site_label_1
_geom_bond_atom_site_label_2
_geom_bond_site_symmetry_1
_geom_bond_site_symmetry_2
C1 H1 1_555 1_555
H2 C1 1_555 1_555
H3 C1 1_555 1_555
N1 C5 1_555 1_555
C2 C1 1_555 1_555
N2 H4 1_555 1_555
H5 N2 1_555 1_555
C3 C2 1_555 1_555
H6 C3 1_555 1_555
N3 C11 1_555 1_555
C4 C3 1_555 1_555
H7 C4 1_555 1_555
C5 C4 1_555 1_555
C6 C5 1_555 1_555
H8 C6 1_555 1_555
C7 C2 1_555 1_555
H9 C7 1_555 1_555
C8 N1 1_555 1_555
C9 C8 1_555 1_555
H10 C9 1_555 1_555
C10 N2 1_555 1_555
C11 C10 1_555 1_555
C12 C11 1_555 1_555
H11 C12 1_555 1_555
C13 C8 1_555 1_555
C14 C13 1_555 1_555
H12 C14 1_555 1_555
H13 C14 1_555 1_555
H14 C14 1_555 1_555
C15 N3 1_555 1_555
C16 C15 1_555 1_555
H15 C16 1_555 1_555
C17 C16 1_555 1_555
H16 C17 1_555 1_555
C18 C17 1_555 1_555
C19 C18 1_555 1_555
H17 C19 1_555 1_555
C20 C15 1_555 1_555
H18 C20 1_555 1_555
C21 C18 1_555 1_555
H19 C21 1_555 1_555
H20 C21 1_555 1_555
H21 C21 1_555 1_555
C6 C7 1_555 1_555
C9 C10 1_555 1_555
C12 C13 1_555 1_555
C19 C20 1_555 1_555

#END
