
#######################################################################
#
#                 Cambridge Crystallographic Data Centre
#                                CCDC 
#
#######################################################################
#
# If this CIF has been generated from an entry in the Cambridge 
# Structural Database, then it will include bibliographic, chemical, 
# crystal, experimental, refinement or atomic coordinate data resulting 
# from the CCDC's data processing and validation procedures.
#
#######################################################################

data_IWUGIS
_chemical_formula_moiety         'C22 H22 N2 O2 S1'
_chemical_name_systematic        
4-((1-((4-methylphenyl)sulfonyl)-4-(prop-1-en-2-yl)pyrrolidin-2-ylidene)methyl)benzonitrile
_symmetry_cell_setting           orthorhombic
_symmetry_space_group_name_H-M   'P 21 21 21'
_symmetry_Int_Tables_number      19
_space_group_name_Hall           'P 2ac 2ab'
loop_
_symmetry_equiv_pos_site_id
_symmetry_equiv_pos_as_xyz
1 x,y,z
2 1/2-x,-y,1/2+z
3 1/2+x,1/2-y,-z
4 -x,1/2+y,1/2-z
_cell_length_a                   8.4061(11)
_cell_length_b                   21.989(3)
_cell_length_c                   22.020(3)
_cell_angle_alpha                90
_cell_angle_beta                 90
_cell_angle_gamma                90
_cell_volume                     4070.21
_exptl_crystal_colour            colorless
_exptl_crystal_description       block
_cell_formula_units_Z            8
loop_
_atom_site_label
_atom_site_type_symbol
_atom_site_fract_x
_atom_site_fract_y
_atom_site_fract_z
S1 S 0.69971(11) 0.04033(4) -0.09774(3)
O1 O 0.6713(3) 0.00056(11) -0.14779(9)
O2 O 0.5858(3) 0.08665(11) -0.08309(10)
N1 N 0.7179(3) -0.00378(12) -0.03841(10)
N2 N 0.7402(7) 0.1863(2) 0.33123(17)
C1 C 0.8834(4) 0.07670(16) -0.10873(13)
C2 C 1.0091(4) 0.04479(16) -0.13438(13)
H1 H 1.0000 0.0033 -0.1418
C3 C 1.1467(4) 0.07497(18) -0.14871(13)
H2 H 1.2313 0.0531 -0.1650
C4 C 1.1638(4) 0.13613(19) -0.13984(14)
C5 C 1.0396(5) 0.16710(17) -0.11312(17)
H3 H 1.0501 0.2084 -0.1051
C6 C 0.8994(4) 0.13776(18) -0.09796(15)
H4 H 0.8163 0.1595 -0.0805
C7 C 1.3117(5) 0.16888(19) -0.15960(17)
H5 H 1.3036 0.2111 -0.1489
H6 H 1.3237 0.1652 -0.2028
H7 H 1.4025 0.1513 -0.1398
C8 C 0.6521(4) 0.14670(17) 0.12124(15)
H8 H 0.5966 0.1673 0.0911
C9 C 0.6535(5) 0.17011(16) 0.17909(17)
H9 H 0.5978 0.2056 0.1879
C10 C 0.7381(5) 0.14065(18) 0.22404(15)
C11 C 0.8190(5) 0.08784(17) 0.21078(14)
H10 H 0.8760 0.0680 0.2411
C12 C 0.8158(4) 0.06427(15) 0.15272(14)
H11 H 0.8709 0.0286 0.1443
C13 C 0.7311(4) 0.09314(14) 0.10626(13)
C14 C 0.7212(4) 0.07145(15) 0.04359(13)
H12 H 0.7039 0.1011 0.0142
C15 C 0.7339(4) 0.01471(15) 0.02339(13)
C16 C 0.7614(4) -0.04297(13) 0.05823(13)
H13 H 0.7072 -0.0417 0.0971
H14 H 0.8741 -0.0495 0.0652
C17 C 0.6933(5) -0.09250(14) 0.01830(12)
H15 H 0.5772 -0.0903 0.0217
C18 C 0.7375(4) -0.07018(15) -0.04538(13)
H16 H 0.8462 -0.0808 -0.0557
H17 H 0.6661 -0.0864 -0.0759
C19 C 0.7402(5) -0.15696(16) 0.03074(15)
C20 C 0.8361(5) -0.17313(17) 0.07414(16)
H18 H 0.8798 -0.1439 0.0997
H19 H 0.8609 -0.2140 0.0797
C21 C 0.6660(8) -0.20340(19) -0.01122(19)
H20 H 0.7025 -0.2433 -0.0003
H21 H 0.6962 -0.1947 -0.0524
H22 H 0.5523 -0.2017 -0.0076
C22 C 0.7394(6) 0.1660(2) 0.2844(2)
S2 S 0.30506(10) 0.03247(4) 0.67769(3)
O3 O 0.4250(3) 0.07644(11) 0.66292(9)
O4 O 0.3292(3) -0.00752(10) 0.72837(8)
N3 N 0.2801(3) -0.01283(11) 0.61910(9)
N4 N 0.2679(6) 0.17169(15) 0.24681(14)
C23 C 0.1195(4) 0.13399(17) 0.68446(14)
H23 H 0.2069 0.1556 0.6701
C24 C -0.0169(5) 0.16406(18) 0.70140(16)
H24 H -0.0195 0.2063 0.6992
C25 C -0.1505(4) 0.13337(19) 0.72156(14)
C26 C -0.1436(4) 0.07063(18) 0.72383(13)
H25 H -0.2327 0.0489 0.7362
C27 C -0.0070(4) 0.03966(17) 0.70806(13)
H26 H -0.0041 -0.0026 0.7103
C28 C 0.1251(4) 0.07145(16) 0.68897(13)
C29 C -0.2984(5) 0.16642(18) 0.74244(17)
H27 H -0.3776 0.1373 0.7544
H28 H -0.3389 0.1909 0.7098
H29 H -0.2727 0.1920 0.7764
C30 C 0.2679(4) -0.07939(13) 0.62619(12)
H30 H 0.1603 -0.0917 0.6363
H31 H 0.3403 -0.0943 0.6571
C31 C 0.3161(4) -0.10179(14) 0.56250(12)
H32 H 0.4317 -0.0970 0.5594
C32 C 0.2414(4) -0.05295(13) 0.52229(12)
H33 H 0.2947 -0.0509 0.4833
H34 H 0.1293 -0.0611 0.5157
C33 C 0.2639(3) 0.00526(15) 0.55733(12)
C34 C 0.2746(4) 0.06181(15) 0.53714(12)
H35 H 0.2907 0.0917 0.5663
C35 C 0.2639(4) 0.08269(14) 0.47414(13)
C36 C 0.1807(4) 0.05415(14) 0.42815(13)
H36 H 0.1244 0.0188 0.4369
C37 C 0.1788(5) 0.07652(16) 0.36958(13)
H37 H 0.1212 0.0565 0.3396
C38 C 0.2621(5) 0.12845(15) 0.35566(13)
C39 C 0.3443(5) 0.15810(16) 0.40006(15)
H38 H 0.4000 0.1935 0.3908
C40 C 0.3453(4) 0.13586(15) 0.45867(14)
H39 H 0.4014 0.1567 0.4885
C41 C 0.2806(4) -0.16745(15) 0.55105(14)
C42 C 0.3709(5) -0.21038(16) 0.59100(18)
H40 H 0.3431 -0.2515 0.5809
H41 H 0.3446 -0.2026 0.6327
H42 H 0.4830 -0.2045 0.5850
C43 C 0.1777(5) -0.18590(16) 0.50996(15)
H43 H 0.1232 -0.1576 0.4865
H44 H 0.1594 -0.2272 0.5044
C44 C 0.2646(6) 0.15236(17) 0.29448(17)
loop_
_geom_bond_atom_site_label_1
_geom_bond_atom_site_label_2
_geom_bond_site_symmetry_1
_geom_bond_site_symmetry_2
S1 O1 1_555 1_555
O2 S1 1_555 1_555
N1 S1 1_555 1_555
N2 C22 1_555 1_555
C1 S1 1_555 1_555
C2 C1 1_555 1_555
H1 C2 1_555 1_555
C3 C2 1_555 1_555
H2 C3 1_555 1_555
C4 C3 1_555 1_555
C5 C4 1_555 1_555
H3 C5 1_555 1_555
C6 C1 1_555 1_555
H4 C6 1_555 1_555
C7 C4 1_555 1_555
H5 C7 1_555 1_555
H6 C7 1_555 1_555
H7 C7 1_555 1_555
C8 H8 1_555 1_555
C9 C8 1_555 1_555
H9 C9 1_555 1_555
C10 C9 1_555 1_555
C11 C10 1_555 1_555
H10 C11 1_555 1_555
C12 C11 1_555 1_555
H11 C12 1_555 1_555
C13 C8 1_555 1_555
C14 C13 1_555 1_555
H12 C14 1_555 1_555
C15 N1 1_555 1_555
C16 C15 1_555 1_555
H13 C16 1_555 1_555
H14 C16 1_555 1_555
C17 C16 1_555 1_555
H15 C17 1_555 1_555
C18 N1 1_555 1_555
H16 C18 1_555 1_555
H17 C18 1_555 1_555
C19 C17 1_555 1_555
C20 C19 1_555 1_555
H18 C20 1_555 1_555
H19 C20 1_555 1_555
C21 C19 1_555 1_555
H20 C21 1_555 1_555
H21 C21 1_555 1_555
H22 C21 1_555 1_555
C22 C10 1_555 1_555
S2 O3 1_555 1_555
O4 S2 1_555 1_555
N3 S2 1_555 1_555
N4 C44 1_555 1_555
C23 H23 1_555 1_555
C24 C23 1_555 1_555
H24 C24 1_555 1_555
C25 C24 1_555 1_555
C26 C25 1_555 1_555
H25 C26 1_555 1_555
C27 C26 1_555 1_555
H26 C27 1_555 1_555
C28 S2 1_555 1_555
C29 C25 1_555 1_555
H27 C29 1_555 1_555
H28 C29 1_555 1_555
H29 C29 1_555 1_555
C30 N3 1_555 1_555
H30 C30 1_555 1_555
H31 C30 1_555 1_555
C31 C30 1_555 1_555
H32 C31 1_555 1_555
C32 C31 1_555 1_555
H33 C32 1_555 1_555
H34 C32 1_555 1_555
C33 N3 1_555 1_555
C34 C33 1_555 1_555
H35 C34 1_555 1_555
C35 C34 1_555 1_555
C36 C35 1_555 1_555
H36 C36 1_555 1_555
C37 C36 1_555 1_555
H37 C37 1_555 1_555
C38 C37 1_555 1_555
C39 C38 1_555 1_555
H38 C39 1_555 1_555
C40 C35 1_555 1_555
H39 C40 1_555 1_555
C41 C31 1_555 1_555
C42 C41 1_555 1_555
H40 C42 1_555 1_555
H41 C42 1_555 1_555
H42 C42 1_555 1_555
C43 C41 1_555 1_555
H43 C43 1_555 1_555
H44 C43 1_555 1_555
C44 C38 1_555 1_555
C5 C6 1_555 1_555
C12 C13 1_555 1_555
C14 C15 1_555 1_555
C17 C18 1_555 1_555
C23 C28 1_555 1_555
C27 C28 1_555 1_555
C32 C33 1_555 1_555
C39 C40 1_555 1_555

#END
