
#######################################################################
#
#                 Cambridge Crystallographic Data Centre
#                                CCDC 
#
#######################################################################
#
# If this CIF has been generated from an entry in the Cambridge 
# Structural Database, then it will include bibliographic, chemical, 
# crystal, experimental, refinement or atomic coordinate data resulting 
# from the CCDC's data processing and validation procedures.
#
#######################################################################

data_IWUKOB
_chemical_formula_moiety         'C25 H31 N5 O10 S1,C1 H4 O1'
_chemical_name_systematic        
'1-(4-(2-(2,2-Dimethyl-6-(5-methyl-2,4-dioxo-3,4-dihydropyrimidin-1(2H)-yl)tetrahydrofuro[3,4-d][1,3]dioxol-4-yl)-4-oxo-1,3-thiazolidin-3-yl)-5-(hydroxymethyl)tetrahydrofuran-2-yl)-5-methylpyrimidine-2,4(1H,3H)-dione methanol solvate'
_symmetry_cell_setting           orthorhombic
_symmetry_space_group_name_H-M   'P 21 21 21'
_symmetry_Int_Tables_number      19
_space_group_name_Hall           'P 2ac 2ab'
loop_
_symmetry_equiv_pos_site_id
_symmetry_equiv_pos_as_xyz
1 x,y,z
2 1/2+x,1/2-y,-z
3 -x,1/2+y,1/2-z
4 1/2-x,-y,1/2+z
_cell_length_a                   8.5748(6)
_cell_length_b                   14.9184(10)
_cell_length_c                   23.0172(15)
_cell_angle_alpha                90
_cell_angle_beta                 90
_cell_angle_gamma                90
_cell_volume                     2944.41
_cell_formula_units_Z            4
loop_
_atom_site_label
_atom_site_type_symbol
_atom_site_fract_x
_atom_site_fract_y
_atom_site_fract_z
S1 S 0.35586(15) 0.21285(9) 0.99534(4)
N1 N 1.2024(4) -0.0542(2) 0.83436(14)
N2 N 0.9691(3) 0.02139(19) 0.82017(12)
N3 N 0.5143(3) 0.16126(19) 0.90360(12)
N4 N 0.2111(3) 0.33970(18) 0.75888(11)
N5 N -0.0115(4) 0.2665(2) 0.72589(15)
O1 O 1.3690(3) -0.0809(2) 0.76110(13)
O2 O 1.0315(4) -0.0362(2) 0.90836(12)
O3 O 0.7165(3) 0.05060(17) 0.79209(11)
O4 O 0.6725(4) 0.2289(2) 0.73935(12)
H1 H 0.7207 0.2377 0.7696
O5 O 0.5183(4) 0.00965(18) 0.91305(13)
O6 O 0.3973(3) 0.30717(17) 0.83187(10)
O7 O 0.3392(4) 0.41405(17) 0.94600(10)
O8 O 0.3262(3) 0.50216(17) 0.86708(10)
O9 O 0.0132(3) 0.3014(2) 0.82107(12)
O10 O -0.0424(4) 0.2237(2) 0.63285(14)
C1 C 1.2494(4) -0.0446(3) 0.77706(17)
C2 C 1.1493(4) 0.0091(3) 0.74089(16)
C3 C 1.0136(4) 0.0379(2) 0.76380(16)
H3 H 0.9465 0.0706 0.7402
C4 C 1.0652(4) -0.0240(3) 0.85816(17)
C5 C 1.1953(6) 0.0240(4) 0.67981(19)
H4 H 1.1182 0.0603 0.6609
H5 H 1.2032 -0.0327 0.6603
H6 H 1.2943 0.0539 0.6786
C6 C 0.8101(4) 0.0416(2) 0.84174(15)
H7 H 0.7721 -0.0084 0.8655
C7 C 0.7948(4) 0.1290(2) 0.87560(15)
H8 H 0.8768 0.1707 0.8650
H9 H 0.7994 0.1182 0.9171
C8 C 0.6346(4) 0.1651(2) 0.85788(14)
H10 H 0.6470 0.2278 0.8459
C9 C 0.5885(4) 0.1097(2) 0.80391(14)
H11 H 0.4961 0.0738 0.8132
C10 C 0.5578(4) 0.1623(3) 0.74872(16)
H12 H 0.5564 0.1216 0.7159
H13 H 0.4561 0.1906 0.7513
C11 C 0.4701(5) 0.0841(3) 0.92804(16)
C12 C 0.3494(6) 0.0977(3) 0.97470(19)
H14 H 0.3719 0.0598 1.0079
H15 H 0.2466 0.0825 0.9601
C13 C 0.4436(4) 0.2433(2) 0.92578(14)
H16 H 0.5255 0.2880 0.9324
C14 C 0.3217(4) 0.2822(3) 0.88537(14)
H17 H 0.2430 0.2363 0.8771
C15 C 0.2405(4) 0.3663(2) 0.90691(15)
H18 H 0.1378 0.3536 0.9237
C16 C 0.2303(4) 0.4276(2) 0.85311(14)
H19 H 0.1231 0.4447 0.8433
C17 C 0.3114(4) 0.3759(2) 0.80462(14)
H20 H 0.3862 0.4166 0.7862
C18 C 0.3385(5) 0.5062(3) 0.92897(15)
C19 C 0.4911(7) 0.5484(4) 0.9446(2)
H21 H 0.4945 0.5589 0.9857
H22 H 0.5019 0.6043 0.9244
H23 H 0.5747 0.5090 0.9338
C20 C 0.1987(6) 0.5529(3) 0.9546(2)
H24 H 0.1067 0.5180 0.9472
H25 H 0.1875 0.6110 0.9372
H26 H 0.2127 0.5594 0.9958
C21 C 0.2711(4) 0.3332(2) 0.70327(14)
H27 H 0.3697 0.3570 0.6965
C22 C 0.1973(4) 0.2954(3) 0.65890(15)
C23 C 0.0422(5) 0.2597(3) 0.66900(18)
C24 C 0.0679(4) 0.3029(2) 0.77168(17)
C25 C 0.2619(6) 0.2900(4) 0.59896(18)
H28 H 0.1953 0.3223 0.5728
H29 H 0.2678 0.2284 0.5872
H30 H 0.3644 0.3159 0.5983
O11 O 0.6654(5) 0.3014(3) 0.60198(15)
H2 H 0.7408 0.3250 0.6177
C26 C 0.6761(7) 0.3126(4) 0.5426(2)
H31 H 0.5799 0.2945 0.5247
H32 H 0.7599 0.2765 0.5278
H33 H 0.6960 0.3745 0.5340
loop_
_geom_bond_atom_site_label_1
_geom_bond_atom_site_label_2
_geom_bond_site_symmetry_1
_geom_bond_site_symmetry_2
S1 C12 1_555 1_555
N1 C1 1_555 1_555
N2 C3 1_555 1_555
N3 C8 1_555 1_555
N4 C17 1_555 1_555
N5 C23 1_555 1_555
O1 C1 1_555 1_555
O2 C4 1_555 1_555
O3 C6 1_555 1_555
O4 H1 1_555 1_555
O5 C11 1_555 1_555
O6 C14 1_555 1_555
O7 C15 1_555 1_555
O8 C16 1_555 1_555
O9 C24 1_555 1_555
O10 C23 1_555 1_555
O11 H2 1_555 1_555
C1 C2 1_555 1_555
C2 C3 1_555 1_555
C3 H3 1_555 1_555
C4 N1 1_555 1_555
C5 C2 1_555 1_555
H4 C5 1_555 1_555
H5 C5 1_555 1_555
H6 C5 1_555 1_555
C6 N2 1_555 1_555
H7 C6 1_555 1_555
C7 C6 1_555 1_555
H8 C7 1_555 1_555
H9 C7 1_555 1_555
C8 C7 1_555 1_555
H10 C8 1_555 1_555
C9 O3 1_555 1_555
H11 C9 1_555 1_555
C10 O4 1_555 1_555
H12 C10 1_555 1_555
H13 C10 1_555 1_555
C11 N3 1_555 1_555
C12 C11 1_555 1_555
H14 C12 1_555 1_555
H15 C12 1_555 1_555
C13 S1 1_555 1_555
H16 C13 1_555 1_555
C14 C13 1_555 1_555
H17 C14 1_555 1_555
C15 C14 1_555 1_555
H18 C15 1_555 1_555
C16 C15 1_555 1_555
H19 C16 1_555 1_555
C17 O6 1_555 1_555
H20 C17 1_555 1_555
C18 O7 1_555 1_555
C19 C18 1_555 1_555
H21 C19 1_555 1_555
H22 C19 1_555 1_555
H23 C19 1_555 1_555
C20 C18 1_555 1_555
H24 C20 1_555 1_555
H25 C20 1_555 1_555
H26 C20 1_555 1_555
C21 N4 1_555 1_555
H27 C21 1_555 1_555
C22 C21 1_555 1_555
C23 C22 1_555 1_555
C24 N4 1_555 1_555
C25 C22 1_555 1_555
H28 C25 1_555 1_555
H29 C25 1_555 1_555
H30 C25 1_555 1_555
C26 O11 1_555 1_555
H31 C26 1_555 1_555
H32 C26 1_555 1_555
H33 C26 1_555 1_555
N2 C4 1_555 1_555
N3 C13 1_555 1_555
N5 C24 1_555 1_555
O8 C18 1_555 1_555
C8 C9 1_555 1_555
C9 C10 1_555 1_555
C16 C17 1_555 1_555

#END
