
#######################################################################
#
#                 Cambridge Crystallographic Data Centre
#                                CCDC 
#
#######################################################################
#
# If this CIF has been generated from an entry in the Cambridge 
# Structural Database, then it will include bibliographic, chemical, 
# crystal, experimental, refinement or atomic coordinate data resulting 
# from the CCDC's data processing and validation procedures.
#
#######################################################################

data_IWULAO
_chemical_formula_moiety         'C20 H14 Cl1 N1 O1'
_chemical_name_systematic        
10-Chloro-8,9-dihydro-5H,7H-benzo[a]pyrido[3,2,1-de]phenanthridin-5-one
_symmetry_cell_setting           orthorhombic
_symmetry_space_group_name_H-M   'P 21 21 21'
_symmetry_Int_Tables_number      19
_space_group_name_Hall           'P 2ac 2ab'
loop_
_symmetry_equiv_pos_site_id
_symmetry_equiv_pos_as_xyz
1 x,y,z
2 1/2-x,-y,1/2+z
3 -x,1/2+y,1/2-z
4 1/2+x,1/2-y,-z
_cell_length_a                   7.272(4)
_cell_length_b                   11.909(6)
_cell_length_c                   17.041(8)
_cell_angle_alpha                90
_cell_angle_beta                 90
_cell_angle_gamma                90
_cell_volume                     1475.79
_exptl_crystal_colour            colorless
_exptl_crystal_description       block
_cell_formula_units_Z            4
loop_
_atom_site_label
_atom_site_type_symbol
_atom_site_fract_x
_atom_site_fract_y
_atom_site_fract_z
C1 C 0.4261(6) 0.4874(4) -0.0317(3)
H1 H 0.4689 0.5348 -0.0710
C2 C 0.4451(7) 0.3725(4) -0.0402(4)
H2 H 0.5021 0.3435 -0.0846
C3 C 0.3795(10) 0.3000(4) 0.0173(4)
H3 H 0.3858 0.2227 0.0101
C4 C 0.3070(8) 0.3427(4) 0.0833(4)
H4 H 0.2662 0.2940 0.1222
C5 C 0.2912(7) 0.4583(4) 0.0951(3)
C6 C 0.2348(7) 0.4964(5) 0.1711(3)
C7 C 0.2191(11) 0.6491(6) 0.2661(3)
H5 H 0.0917 0.6729 0.2686
H6 H 0.2359 0.5884 0.3033
C8 C 0.3360(13) 0.7410(7) 0.2870(4)
H7 H 0.4630 0.7161 0.2859
H8 H 0.3079 0.7644 0.3402
C9 C 0.3145(10) 0.8405(5) 0.2325(4)
H9 H 0.4129 0.8937 0.2422
H10 H 0.1988 0.8778 0.2435
C10 C 0.3187(7) 0.8047(4) 0.1466(3)
C11 C 0.2976(6) 0.6891(4) 0.1262(3)
C12 C 0.3245(6) 0.6530(4) 0.0489(3)
C13 C 0.3437(6) 0.5333(3) 0.0351(3)
C14 C 0.3225(6) 0.7364(3) -0.0126(3)
C15 C 0.2914(7) 0.7100(4) -0.0933(3)
H11 H 0.2721 0.6357 -0.1080
C16 C 0.2895(7) 0.7908(5) -0.1484(3)
H12 H 0.2686 0.7711 -0.2005
C17 C 0.3174(8) 0.9009(5) -0.1301(4)
H13 H 0.3210 0.9543 -0.1699
C18 C 0.3400(7) 0.9333(4) -0.0546(4)
H14 H 0.3545 1.0089 -0.0423
C19 C 0.3413(7) 0.8514(4) 0.0058(3)
C20 C 0.3475(7) 0.8788(4) 0.0876(3)
Cl1 Cl 0.3887(3) 1.01631(12) 0.11301(12)
N1 N 0.2613(6) 0.6080(4) 0.1852(2)
O1 O 0.1738(6) 0.4359(3) 0.2281(2)
loop_
_geom_bond_atom_site_label_1
_geom_bond_atom_site_label_2
_geom_bond_site_symmetry_1
_geom_bond_site_symmetry_2
C1 H1 1_555 1_555
C2 C1 1_555 1_555
H2 C2 1_555 1_555
C3 C2 1_555 1_555
H3 C3 1_555 1_555
C4 C3 1_555 1_555
H4 C4 1_555 1_555
C5 C4 1_555 1_555
C6 C5 1_555 1_555
C7 H5 1_555 1_555
H6 C7 1_555 1_555
C8 C7 1_555 1_555
H7 C8 1_555 1_555
H8 C8 1_555 1_555
C9 C8 1_555 1_555
H9 C9 1_555 1_555
H10 C9 1_555 1_555
C10 C9 1_555 1_555
C11 C10 1_555 1_555
C12 C11 1_555 1_555
C13 C1 1_555 1_555
C14 C12 1_555 1_555
C15 C14 1_555 1_555
H11 C15 1_555 1_555
C16 C15 1_555 1_555
H12 C16 1_555 1_555
C17 C16 1_555 1_555
H13 C17 1_555 1_555
C18 C17 1_555 1_555
H14 C18 1_555 1_555
C19 C14 1_555 1_555
C20 C10 1_555 1_555
Cl1 C20 1_555 1_555
N1 C6 1_555 1_555
O1 C6 1_555 1_555
C5 C13 1_555 1_555
C7 N1 1_555 1_555
C11 N1 1_555 1_555
C12 C13 1_555 1_555
C18 C19 1_555 1_555
C19 C20 1_555 1_555

#END
