
#######################################################################
#
#                 Cambridge Crystallographic Data Centre
#                                CCDC 
#
#######################################################################
#
# If this CIF has been generated from an entry in the Cambridge 
# Structural Database, then it will include bibliographic, chemical, 
# crystal, experimental, refinement or atomic coordinate data resulting 
# from the CCDC's data processing and validation procedures.
#
#######################################################################

data_IWULUI
_chemical_formula_moiety         'C27 H25 N5 O7,C2 H6 O1,H2 O1'
_chemical_name_systematic        
'5-(4-Amino-5,7-dioxo-6,7-dihydropyrimido[4,5-d]pyrimidin-1(5H)-yl)-2-(((4-methylbenzoyl)oxy)methyl)tetrahydrofuran-3-yl 4-methylbenzoate ethanol solvate monohydrate'
_symmetry_cell_setting           orthorhombic
_symmetry_space_group_name_H-M   'P 21 21 21'
_symmetry_Int_Tables_number      19
_space_group_name_Hall           'P 2ac 2ab'
loop_
_symmetry_equiv_pos_site_id
_symmetry_equiv_pos_as_xyz
1 x,y,z
2 1/2-x,-y,1/2+z
3 1/2+x,1/2-y,-z
4 -x,1/2+y,1/2-z
_cell_length_a                   10.5802(6)
_cell_length_b                   14.4578(5)
_cell_length_c                   21.0827(11)
_cell_angle_alpha                90
_cell_angle_beta                 90
_cell_angle_gamma                90
_cell_volume                     3224.95
_exptl_crystal_colour            colorless
_exptl_crystal_description       block
_cell_formula_units_Z            4
loop_
_atom_site_label
_atom_site_type_symbol
_atom_site_fract_x
_atom_site_fract_y
_atom_site_fract_z
O1 O -0.0886(2) 0.26797(14) 0.45758(12)
O2 O 0.1768(2) 0.25386(14) 0.38951(13)
O3 O 0.2550(3) 0.1164(2) 0.41617(16)
O4 O 0.0457(3) 0.23957(15) 0.57950(14)
O5 O 0.0840(4) 0.1327(2) 0.64965(16)
O6 O 0.0252(3) 0.67374(13) 0.38003(12)
O7 O 0.0123(3) 0.54853(13) 0.18380(12)
N1 N -0.0574(2) 0.36444(15) 0.36741(13)
N2 N -0.0732(3) 0.28759(15) 0.27010(16)
N3 N -0.0395(4) 0.3620(2) 0.17591(17)
H4 H -0.059(4) 0.311(3) 0.1508(18)
H5 H -0.025(4) 0.412(3) 0.1593(19)
N4 N 0.0196(3) 0.60783(16) 0.28402(14)
H6 H 0.046(3) 0.667(2) 0.2674(16)
N5 N -0.0207(3) 0.52120(15) 0.37726(14)
C1 C -0.0476(4) 0.3574(2) 0.43924(18)
H7 H -0.107(3) 0.413(2) 0.4543(15)
C2 C 0.0880(4) 0.3643(2) 0.4596(2)
H8 H 0.136(4) 0.398(2) 0.4391(19)
H9 H 0.086(4) 0.375(2) 0.4989(19)
C3 C 0.1366(4) 0.2669(2) 0.4556(2)
H10 H 0.209(4) 0.247(3) 0.4862(18)
C4 C 0.0196(4) 0.2075(2) 0.46769(19)
H11 H 0.005(4) 0.155(2) 0.4350(18)
C5 C 0.0126(6) 0.1678(3) 0.5346(2)
H12 H -0.056(5) 0.123(3) 0.549(2)
H13 H 0.064(5) 0.127(3) 0.537(3)
C6 C 0.0783(4) 0.2121(3) 0.6366(2)
C7 C 0.1061(4) 0.2877(3) 0.6812(2)
C8 C 0.1200(5) 0.2684(4) 0.7456(3)
H14 H 0.131(4) 0.213(3) 0.763(2)
C9 C 0.1466(4) 0.3381(4) 0.7884(3)
H15 H 0.125(4) 0.315(3) 0.835(2)
C10 C 0.1616(4) 0.4247(4) 0.7709(3)
C11 C 0.1511(5) 0.4457(4) 0.7075(3)
H16 H 0.199(5) 0.502(4) 0.704(2)
C12 C 0.1242(5) 0.3791(3) 0.6614(3)
H17 H 0.117(4) 0.404(3) 0.611(2)
C13 C 0.1826(6) 0.5013(4) 0.8175(3)
H18 H 0.2497 0.5405 0.8027
H19 H 0.2051 0.4756 0.8579
H20 H 0.1065 0.5370 0.8217
C14 C 0.2350(4) 0.1735(3) 0.3763(3)
C15 C 0.2655(3) 0.1648(2) 0.3082(3)
C16 C 0.3037(4) 0.0810(3) 0.2841(3)
H21 H 0.3158 0.0316 0.3117
C17 C 0.3246(5) 0.0681(4) 0.2205(3)
H22 H 0.354(5) 0.005(3) 0.209(2)
C18 C 0.3139(4) 0.1400(4) 0.1791(3)
C19 C 0.2756(4) 0.2258(3) 0.2012(3)
H23 H 0.286(4) 0.281(3) 0.164(2)
C20 C 0.2519(4) 0.2379(3) 0.2642(3)
H24 H 0.229(4) 0.296(3) 0.278(2)
C21 C 0.3363(6) 0.1295(4) 0.1070(3)
H25 H 0.4254 0.1260 0.0987
H26 H 0.3013 0.1819 0.0852
H27 H 0.2961 0.0740 0.0922
C22 C -0.0758(3) 0.2889(2) 0.3306(2)
H28 H -0.090(3) 0.228(2) 0.3503(15)
C23 C -0.0465(3) 0.36781(19) 0.2377(2)
C24 C -0.0289(3) 0.45044(18) 0.27227(16)
C25 C 0.0015(3) 0.53766(18) 0.24178(18)
C26 C 0.0092(4) 0.60327(19) 0.34964(17)
C27 C -0.0348(3) 0.44856(18) 0.33809(16)
O8 O -0.1201(16) 0.6288(15) 0.5974(9)
H1 H -0.0516 0.6418 0.6133
C28 C -0.1024(12) 0.5999(9) 0.5360(7)
H29 H -0.1735 0.6188 0.5100
H30 H -0.0960 0.5331 0.5345
C29 C 0.0305(10) 0.6477(6) 0.5089(5)
H31 H 0.0496 0.6229 0.4677
H32 H 0.0986 0.6342 0.5375
H33 H 0.0197 0.7135 0.5058
O9 O 0.3551(14) 0.5755(10) 0.5294(6)
H2 H 0.3176 0.5583 0.5613
H3 H 0.3386 0.6335 0.5095
loop_
_geom_bond_atom_site_label_1
_geom_bond_atom_site_label_2
_geom_bond_site_symmetry_1
_geom_bond_site_symmetry_2
O1 C1 1_555 1_555
O2 C3 1_555 1_555
O3 C14 1_555 1_555
O4 C5 1_555 1_555
O5 C6 1_555 1_555
O6 C26 1_555 1_555
O7 C25 1_555 1_555
O8 H1 1_555 1_555
O9 H2 1_555 1_555
H3 O9 1_555 1_555
N1 C1 1_555 1_555
N2 C22 1_555 1_555
N3 H4 1_555 1_555
H5 N3 1_555 1_555
N4 H6 1_555 1_555
N5 C26 1_555 1_555
C1 H7 1_555 1_555
C2 C1 1_555 1_555
H8 C2 1_555 1_555
H9 C2 1_555 1_555
C3 C2 1_555 1_555
H10 C3 1_555 1_555
C4 O1 1_555 1_555
H11 C4 1_555 1_555
C5 C4 1_555 1_555
H12 C5 1_555 1_555
H13 C5 1_555 1_555
C6 O4 1_555 1_555
C7 C6 1_555 1_555
C8 C7 1_555 1_555
H14 C8 1_555 1_555
C9 C8 1_555 1_555
H15 C9 1_555 1_555
C10 C9 1_555 1_555
C11 C10 1_555 1_555
H16 C11 1_555 1_555
C12 C7 1_555 1_555
H17 C12 1_555 1_555
C13 C10 1_555 1_555
H18 C13 1_555 1_555
H19 C13 1_555 1_555
H20 C13 1_555 1_555
C14 O2 1_555 1_555
C15 C14 1_555 1_555
C16 C15 1_555 1_555
H21 C16 1_555 1_555
C17 C16 1_555 1_555
H22 C17 1_555 1_555
C18 C17 1_555 1_555
C19 C18 1_555 1_555
H23 C19 1_555 1_555
C20 C15 1_555 1_555
H24 C20 1_555 1_555
C21 C18 1_555 1_555
H25 C21 1_555 1_555
H26 C21 1_555 1_555
H27 C21 1_555 1_555
C22 N1 1_555 1_555
H28 C22 1_555 1_555
C23 N2 1_555 1_555
C24 C23 1_555 1_555
C25 N4 1_555 1_555
C26 N4 1_555 1_555
C27 N1 1_555 1_555
C28 O8 1_555 1_555
H29 C28 1_555 1_555
H30 C28 1_555 1_555
C29 C28 1_555 1_555
H31 C29 1_555 1_555
H32 C29 1_555 1_555
H33 C29 1_555 1_555
N3 C23 1_555 1_555
N5 C27 1_555 1_555
C3 C4 1_555 1_555
C11 C12 1_555 1_555
C19 C20 1_555 1_555
C24 C25 1_555 1_555
C24 C27 1_555 1_555

#END
