
#######################################################################
#
#                 Cambridge Crystallographic Data Centre
#                                CCDC 
#
#######################################################################
#
# If this CIF has been generated from an entry in the Cambridge 
# Structural Database, then it will include bibliographic, chemical, 
# crystal, experimental, refinement or atomic coordinate data resulting 
# from the CCDC's data processing and validation procedures.
#
#######################################################################

data_IWUMOD
_chemical_formula_moiety         'C23 H25 F1 N4 O2 S1'
_chemical_name_systematic        
3-(4-Fluorophenyl)-5-((4-methylphenyl)sulfonyl)-5,5a,6,7,8,9,10,10a-octahydro-4H-cyclohepta[e][1,2,3]triazolo[1,5-a]pyrazine
_symmetry_cell_setting           monoclinic
_symmetry_space_group_name_H-M   'P 21/c'
_symmetry_Int_Tables_number      14
_space_group_name_Hall           '-P 2ybc'
loop_
_symmetry_equiv_pos_site_id
_symmetry_equiv_pos_as_xyz
1 x,y,z
2 -x,1/2+y,1/2-z
3 -x,-y,-z
4 x,1/2-y,1/2+z
_cell_length_a                   11.4682(11)
_cell_length_b                   19.7219(18)
_cell_length_c                   9.6293(9)
_cell_angle_alpha                90
_cell_angle_beta                 103.607(5)
_cell_angle_gamma                90
_cell_volume                     2116.78
_exptl_crystal_colour            colorless
_exptl_crystal_description       needle
_chemical_melting_point          '214-216 deg.C'
_cell_formula_units_Z            4
loop_
_atom_site_label
_atom_site_type_symbol
_atom_site_fract_x
_atom_site_fract_y
_atom_site_fract_z
S1 S 0.31480(5) 0.40622(2) 0.44940(5)
N1 N 0.20148(13) 0.54568(7) 0.17626(15)
N2 N 0.23382(15) 0.56829(9) 0.05849(17)
N3 N 0.20263(15) 0.52123(8) -0.03909(17)
N4 N 0.21404(14) 0.46591(8) 0.40618(15)
O1 O 0.25371(15) 0.34675(7) 0.47717(16)
O2 O 0.40852(14) 0.43388(8) 0.55910(15)
F1 F 0.02181(15) 0.22519(7) -0.27084(15)
C1 C 0.11012(16) 0.40709(9) -0.06696(18)
C2 C 0.11679(17) 0.45252(10) 0.27928(19)
H1 H 0.0419 0.4710 0.2929
H2 H 0.1068 0.4040 0.2640
C3 C 0.14955(15) 0.46874(9) 0.01449(18)
C4 C 0.14832(15) 0.48482(9) 0.15368(18)
C5 C 0.03172(17) 0.36268(10) -0.02480(19)
H3 H -0.0017 0.3744 0.0510
C6 C 0.36965(16) 0.38865(9) 0.29778(19)
C7 C 0.24611(19) 0.53799(10) 0.43898(19)
H4 H 0.3335 0.5405 0.4729
C8 C 0.20954(18) 0.58503(9) 0.30736(19)
H5 H 0.1296 0.6031 0.3054
C9 C 0.33676(18) 0.32970(10) 0.2228(2)
H6 H 0.2884 0.2984 0.2547
C10 C 0.00233(19) 0.30164(10) -0.0927(2)
H7 H -0.0492 0.2716 -0.0624
C11 C 0.15419(19) 0.38966(11) -0.1855(2)
H8 H 0.2048 0.4195 -0.2177
C12 C 0.0503(2) 0.28603(10) -0.2054(2)
C13 C 0.1239(2) 0.32899(12) -0.2554(2)
H9 H 0.1530 0.3176 -0.3347
C14 C 0.2943(2) 0.64450(10) 0.3140(2)
H10 H 0.2793 0.6655 0.2204
H11 H 0.3760 0.6275 0.3361
C15 C 0.48074(18) 0.42184(12) 0.1290(2)
H12 H 0.5298 0.4530 0.0976
C16 C 0.44739(18) 0.36275(12) 0.0509(2)
C17 C 0.1919(3) 0.55951(12) 0.5612(2)
H13 H 0.1092 0.5443 0.5394
H14 H 0.2337 0.5352 0.6460
C18 C 0.37557(19) 0.31705(11) 0.1002(2)
H15 H 0.3529 0.2771 0.0499
C19 C 0.4867(2) 0.35012(15) -0.0849(3)
H16 H 0.4625 0.3054 -0.1196
H17 H 0.5725 0.3538 -0.0667
H18 H 0.4505 0.3831 -0.1553
C20 C 0.1929(3) 0.63389(13) 0.5987(3)
H19 H 0.1182 0.6535 0.5452
H20 H 0.1928 0.6374 0.6992
C21 C 0.2839(3) 0.69879(13) 0.4240(3)
H21 H 0.3458 0.7324 0.4248
H22 H 0.2072 0.7214 0.3910
C22 C 0.2933(3) 0.67683(13) 0.5732(3)
H23 H 0.2990 0.7170 0.6326
H24 H 0.3676 0.6518 0.6049
C23 C 0.44288(17) 0.43532(10) 0.2516(2)
H25 H 0.4660 0.4751 0.3027
loop_
_geom_bond_atom_site_label_1
_geom_bond_atom_site_label_2
_geom_bond_site_symmetry_1
_geom_bond_site_symmetry_2
S1 N4 1_555 1_555
N1 N2 1_555 1_555
N2 N3 1_555 1_555
N3 C3 1_555 1_555
N4 C2 1_555 1_555
O1 S1 1_555 1_555
O2 S1 1_555 1_555
F1 C12 1_555 1_555
C1 C3 1_555 1_555
C2 H1 1_555 1_555
H2 C2 1_555 1_555
C3 C4 1_555 1_555
C4 N1 1_555 1_555
C5 C1 1_555 1_555
H3 C5 1_555 1_555
C6 S1 1_555 1_555
C7 N4 1_555 1_555
H4 C7 1_555 1_555
C8 N1 1_555 1_555
H5 C8 1_555 1_555
C9 C6 1_555 1_555
H6 C9 1_555 1_555
C10 C5 1_555 1_555
H7 C10 1_555 1_555
C11 C1 1_555 1_555
H8 C11 1_555 1_555
C12 C10 1_555 1_555
C13 C11 1_555 1_555
H9 C13 1_555 1_555
C14 C8 1_555 1_555
H10 C14 1_555 1_555
H11 C14 1_555 1_555
C15 H12 1_555 1_555
C16 C15 1_555 1_555
C17 C7 1_555 1_555
H13 C17 1_555 1_555
H14 C17 1_555 1_555
C18 C9 1_555 1_555
H15 C18 1_555 1_555
C19 C16 1_555 1_555
H16 C19 1_555 1_555
H17 C19 1_555 1_555
H18 C19 1_555 1_555
C20 C17 1_555 1_555
H19 C20 1_555 1_555
H20 C20 1_555 1_555
C21 C14 1_555 1_555
H21 C21 1_555 1_555
H22 C21 1_555 1_555
C22 C20 1_555 1_555
H23 C22 1_555 1_555
H24 C22 1_555 1_555
C23 C6 1_555 1_555
H25 C23 1_555 1_555
C2 C4 1_555 1_555
C7 C8 1_555 1_555
C12 C13 1_555 1_555
C15 C23 1_555 1_555
C16 C18 1_555 1_555
C21 C22 1_555 1_555

#END
