
#######################################################################
#
#                 Cambridge Crystallographic Data Centre
#                                CCDC 
#
#######################################################################
#
# If this CIF has been generated from an entry in the Cambridge 
# Structural Database, then it will include bibliographic, chemical, 
# crystal, experimental, refinement or atomic coordinate data resulting 
# from the CCDC's data processing and validation procedures.
#
#######################################################################

data_IWUMET
_chemical_formula_moiety         'C18 H19 N1 O2 S1'
_chemical_name_systematic        
4-Methyl-1-((4-methylphenyl)sulfonyl)-3-phenyl-2,3-dihydro-1H-pyrrole
_symmetry_cell_setting           monoclinic
_symmetry_space_group_name_H-M   'P 21/c'
_symmetry_Int_Tables_number      14
_space_group_name_Hall           '-P 2ybc'
loop_
_symmetry_equiv_pos_site_id
_symmetry_equiv_pos_as_xyz
1 x,y,z
2 -x,1/2+y,1/2-z
3 -x,-y,-z
4 x,1/2-y,1/2+z
_cell_length_a                   10.879(7)
_cell_length_b                   8.725(6)
_cell_length_c                   17.898(12)
_cell_angle_alpha                90
_cell_angle_beta                 92.108(9)
_cell_angle_gamma                90
_cell_volume                     1697.72
_cell_formula_units_Z            4
loop_
_atom_site_label
_atom_site_type_symbol
_atom_site_fract_x
_atom_site_fract_y
_atom_site_fract_z
C1 C 0.6263(3) 0.6312(4) 0.22512(18)
H1 H 0.5863 0.7254 0.2249
C2 C 0.6233(3) 0.5395(4) 0.28589(19)
H2 H 0.5834 0.5719 0.3281
C3 C 0.6790(3) 0.3989(4) 0.28524(18)
H3 H 0.6751 0.3360 0.3270
C4 C 0.7403(3) 0.3488(4) 0.22458(19)
C5 C 0.7466(3) 0.4428(4) 0.16296(18)
H4 H 0.7889 0.4115 0.1214
C6 C 0.6889(3) 0.5846(4) 0.16360(18)
H5 H 0.6925 0.6486 0.1222
C7 C 0.7974(3) 0.1915(3) 0.22447(16)
H6 H 0.7994 0.1516 0.2757
C8 C 0.9242(3) 0.1818(4) 0.19538(17)
C9 C 1.0304(3) 0.2685(4) 0.22982(17)
H7 H 1.1051 0.2358 0.2077
H8 H 1.0357 0.2490 0.2826
H9 H 1.0188 0.3762 0.2212
C10 C 0.9286(3) 0.0855(4) 0.13941(18)
H10 H 0.9990 0.0679 0.1127
C11 C 0.7236(3) 0.0780(4) 0.17347(19)
H11 H 0.6858 -0.0011 0.2031
H12 H 0.6596 0.1313 0.1446
C12 C 0.7440(3) 0.1572(4) -0.00480(17)
C13 C 0.6257(3) 0.2128(4) -0.01315(17)
H13 H 0.5594 0.1543 0.0016
C14 C 0.6072(3) 0.3552(4) -0.04351(18)
H14 H 0.5271 0.3918 -0.0495
C15 C 0.7024(3) 0.4463(4) -0.06545(16)
C16 C 0.8201(3) 0.3896(4) -0.05527(16)
H15 H 0.8862 0.4500 -0.0686
C17 C 0.8423(3) 0.2451(4) -0.02577(16)
H16 H 0.9222 0.2079 -0.0202
C18 C 0.6790(3) 0.6018(4) -0.09931(18)
H17 H 0.5949 0.6084 -0.1172
H18 H 0.7324 0.6169 -0.1402
H19 H 0.6949 0.6793 -0.0622
N1 N 0.8144(2) 0.0107(3) 0.12372(15)
O1 O 0.87011(19) -0.0942(3) 0.00206(12)
O2 O 0.65465(19) -0.0988(3) 0.04003(12)
S1 S 0.76981(7) -0.02208(9) 0.03692(4)
loop_
_geom_bond_atom_site_label_1
_geom_bond_atom_site_label_2
_geom_bond_site_symmetry_1
_geom_bond_site_symmetry_2
C1 H1 1_555 1_555
C2 C1 1_555 1_555
H2 C2 1_555 1_555
C3 C2 1_555 1_555
H3 C3 1_555 1_555
C4 C3 1_555 1_555
C5 C4 1_555 1_555
H4 C5 1_555 1_555
C6 C1 1_555 1_555
H5 C6 1_555 1_555
C7 C4 1_555 1_555
H6 C7 1_555 1_555
C8 C7 1_555 1_555
C9 C8 1_555 1_555
H7 C9 1_555 1_555
H8 C9 1_555 1_555
H9 C9 1_555 1_555
C10 C8 1_555 1_555
H10 C10 1_555 1_555
C11 C7 1_555 1_555
H11 C11 1_555 1_555
H12 C11 1_555 1_555
C12 C13 1_555 1_555
C13 H13 1_555 1_555
C14 C13 1_555 1_555
H14 C14 1_555 1_555
C15 C14 1_555 1_555
C16 C15 1_555 1_555
H15 C16 1_555 1_555
C17 C12 1_555 1_555
H16 C17 1_555 1_555
C18 C15 1_555 1_555
H17 C18 1_555 1_555
H18 C18 1_555 1_555
H19 C18 1_555 1_555
N1 C10 1_555 1_555
O1 S1 1_555 1_555
O2 S1 1_555 1_555
S1 C12 1_555 1_555
C5 C6 1_555 1_555
C11 N1 1_555 1_555
C16 C17 1_555 1_555
N1 S1 1_555 1_555

#END
