
#######################################################################
#
#                 Cambridge Crystallographic Data Centre
#                                CCDC 
#
#######################################################################
#
# If this CIF has been generated from an entry in the Cambridge 
# Structural Database, then it will include bibliographic, chemical, 
# crystal, experimental, refinement or atomic coordinate data resulting 
# from the CCDC's data processing and validation procedures.
#
#######################################################################

data_IWUNUL
_chemical_formula_moiety         'C51 H28 Cl1 N5 O4,2.5(C3 H6 O1)'
_chemical_name_systematic        
'23-chloro-2,20,26,44-tetraoxa-22,24,51,53,57-pentaazatetradecacyclo[43.5.3.2^3,6^.2^27,30^.1^15,19^.1^21,25^.1^39,43^.0^5,14^.0^7,16^.0^8,13^.0^29,38^.0^31,40^.0^32,37^.0^48,52^]hexaconta-1(51),3,5,8,10,12,15(58),16,18,21(57),22,24,27,29,32,34,36,39(54),40,42,45,47,49,52,55,59-hexacosaene acetone solvate'
_symmetry_cell_setting           orthorhombic
_symmetry_space_group_name_H-M   'P 21 21 21'
_symmetry_Int_Tables_number      19
_space_group_name_Hall           'P 2ac 2ab'
loop_
_symmetry_equiv_pos_site_id
_symmetry_equiv_pos_as_xyz
1 x,y,z
2 1/2-x,-y,1/2+z
3 -x,1/2+y,1/2-z
4 1/2+x,1/2-y,-z
_cell_length_a                   12.8527(18)
_cell_length_b                   26.751(4)
_cell_length_c                   28.722(4)
_cell_angle_alpha                90
_cell_angle_beta                 90
_cell_angle_gamma                90
_cell_volume                     9875.27
_exptl_crystal_colour            colorless
_exptl_crystal_description       block
_cell_formula_units_Z            8
loop_
_atom_site_label
_atom_site_type_symbol
_atom_site_fract_x
_atom_site_fract_y
_atom_site_fract_z
Cl1 Cl 0.16708(12) 0.64675(5) 0.73110(4)
O1 O -0.0015(3) 0.79263(13) 0.67266(11)
O2 O 0.0673(3) 1.11493(13) 0.64143(12)
O3 O 0.0973(3) 1.08479(14) 0.88173(12)
O4 O 0.0090(3) 0.76789(12) 0.83242(11)
N1 N 0.0731(3) 0.72573(14) 0.70202(13)
N2 N -0.0046(3) 0.78546(13) 0.75323(13)
N3 N 0.0811(3) 0.71318(14) 0.78411(13)
N4 N 0.0767(3) 1.10481(14) 0.72164(14)
N5 N 0.0852(3) 1.09503(15) 0.80117(14)
C1 C 0.0997(4) 0.70143(17) 0.74038(16)
C2 C 0.0206(4) 0.76774(17) 0.71147(16)
C3 C 0.0273(4) 0.75620(16) 0.78769(15)
C4 C -0.0615(4) 0.83643(17) 0.66971(16)
C5 C -0.0224(4) 0.87025(17) 0.63700(16)
H1 H 0.0444 0.8657 0.6236
C6 C -0.0839(4) 0.91037(16) 0.62481(16)
C7 C -0.1818(4) 0.91733(17) 0.64597(16)
C8 C -0.2163(4) 0.88381(18) 0.67919(16)
H2 H -0.2810 0.8893 0.6943
C9 C -0.1568(4) 0.84209(18) 0.69065(16)
H3 H -0.1815 0.8181 0.7124
C10 C -0.0585(4) 0.94876(17) 0.58784(16)
H4 H 0.0108 0.9433 0.5728
C11 C -0.1487(5) 0.94695(18) 0.55364(17)
C12 C -0.2462(5) 0.95380(18) 0.57461(18)
C13 C -0.2387(4) 0.96332(17) 0.62691(16)
H5 H -0.3080 0.9689 0.6419
C14 C -0.1406(6) 0.9383(2) 0.50591(19)
H6 H -0.0749 0.9324 0.4918
C15 C -0.2309(7) 0.9386(2) 0.4795(2)
H7 H -0.2263 0.9338 0.4468
C16 C -0.3274(7) 0.9456(2) 0.4996(2)
H8 H -0.3883 0.9451 0.4809
C17 C -0.3350(5) 0.9535(2) 0.5476(2)
H9 H -0.4011 0.9587 0.5616
C18 C 0.0103(4) 1.03477(18) 0.61510(16)
H10 H 0.0761 1.0295 0.6009
C19 C -0.0122(4) 1.07869(17) 0.64011(16)
C20 C -0.1066(4) 1.08711(19) 0.66024(16)
H11 H -0.1193 1.1174 0.6765
C21 C -0.1647(4) 1.00677(17) 0.63345(15)
C22 C -0.0678(4) 0.99983(16) 0.61226(15)
C23 C 0.1024(4) 1.13023(17) 0.68431(17)
C24 C 0.1673(4) 1.17307(19) 0.68357(19)
H12 H 0.1847 1.1892 0.6552
C25 C 0.2032(4) 1.18993(18) 0.72436(19)
H13 H 0.2473 1.2184 0.7252
C26 C 0.1755(4) 1.16536(17) 0.76647(18)
C27 C 0.2057(4) 1.18171(19) 0.81073(19)
H14 H 0.2454 1.2115 0.8139
C28 C 0.1784(5) 1.15526(19) 0.8491(2)
H15 H 0.1991 1.1655 0.8794
C29 C 0.1176(4) 1.11150(19) 0.84199(18)
C30 C 0.1127(4) 1.12256(18) 0.76329(17)
C31 C 0.0178(4) 1.04864(17) 0.88297(17)
C32 C 0.0450(4) 1.00324(18) 0.90371(16)
H16 H 0.1148 0.9967 0.9128
C33 C -0.1343(4) 0.97760(17) 0.89591(15)
C34 C -0.1584(4) 1.02235(16) 0.87475(16)
H17 H -0.2274 1.0287 0.8645
C35 C -0.0813(4) 1.05815(19) 0.86849(16)
H18 H -0.0976 1.0892 0.8542
C36 C -0.0325(4) 0.96787(17) 0.91070(15)
C37 C -0.0198(4) 0.91653(16) 0.93386(15)
H19 H 0.0527 0.9097 0.9448
C38 C -0.2084(4) 0.93494(17) 0.90546(15)
H20 H -0.2809 0.9420 0.8947
C39 C -0.1009(4) 0.91507(16) 0.97287(16)
C40 C -0.0816(5) 0.90429(18) 1.01918(17)
H21 H -0.0130 0.8971 1.0294
C41 C -0.1638(5) 0.90414(18) 1.05039(18)
H22 H -0.1514 0.8966 1.0822
C42 C -0.2634(5) 0.91475(19) 1.03568(19)
H23 H -0.3190 0.9149 1.0575
C43 C -0.2828(5) 0.92521(17) 0.98910(18)
H24 H -0.3514 0.9326 0.9789
C44 C -0.2019(4) 0.92481(17) 0.95814(17)
C45 C -0.0587(4) 0.87934(16) 0.89735(15)
C46 C -0.0031(4) 0.83993(17) 0.87923(15)
H25 H 0.0659 0.8332 0.8894
C47 C -0.0503(4) 0.81028(17) 0.84569(16)
C48 C -0.1500(4) 0.81876(18) 0.82997(16)
H26 H -0.1801 0.7977 0.8070
C49 C -0.2055(4) 0.85863(16) 0.84824(15)
H27 H -0.2741 0.8651 0.8376
C50 C -0.1611(4) 0.88938(16) 0.88230(15)
C51 C -0.1839(4) 1.05116(18) 0.65691(16)
H28 H -0.2500 1.0569 0.6707
Cl2 Cl 0.31632(13) 0.55928(5) 0.71763(5)
O5 O 0.4965(3) 0.42388(12) 0.64325(12)
O6 O 0.4026(3) 0.10727(14) 0.67487(12)
O7 O 0.5006(3) 0.11858(13) 0.91177(12)
O8 O 0.4863(3) 0.43085(13) 0.80443(11)
N6 N 0.4123(3) 0.48520(14) 0.67940(14)
N7 N 0.4105(3) 0.48942(15) 0.76253(15)
N8 N 0.5006(3) 0.42232(14) 0.72403(13)
N9 N 0.4630(3) 0.11560(15) 0.83316(14)
N10 N 0.4306(3) 0.11228(15) 0.75440(14)
C52 C 0.5821(4) 0.13509(19) 0.68271(17)
H29 H 0.5965 0.1093 0.7045
C53 C 0.4517(4) 0.09668(19) 0.87477(18)
C54 C 0.4699(4) 0.44408(17) 0.68431(17)
C55 C 0.3880(4) 0.50512(18) 0.72011(18)
C56 C 0.4668(4) 0.44720(18) 0.76129(17)
C57 C 0.5556(4) 0.37999(17) 0.64035(17)
C58 C 0.6547(4) 0.37656(18) 0.65863(16)
H30 H 0.6841 0.4035 0.6756
C59 C 0.7108(4) 0.33227(17) 0.65150(17)
H31 H 0.7787 0.3288 0.6641
C60 C 0.6676(4) 0.29372(17) 0.62623(16)
C61 C 0.5678(4) 0.29851(18) 0.60733(16)
C62 C 0.5106(4) 0.34129(18) 0.61438(16)
H32 H 0.4424 0.3445 0.6020
C63 C 0.7170(4) 0.24245(18) 0.61681(17)
H33 H 0.7883 0.2389 0.6303
C64 C 0.5316(4) 0.25136(17) 0.58192(16)
H34 H 0.4601 0.2545 0.5685
C65 C 0.6143(4) 0.23961(17) 0.54538(18)
C66 C 0.5971(5) 0.23187(19) 0.49827(18)
H35 H 0.5294 0.2361 0.4855
C67 C 0.6790(6) 0.2181(2) 0.4702(2)
H36 H 0.6678 0.2123 0.4380
C68 C 0.7765(6) 0.2127(2) 0.4887(2)
H37 H 0.8320 0.2030 0.4688
C69 C 0.7972(5) 0.22094(19) 0.5363(2)
H38 H 0.8653 0.2172 0.5487
C70 C 0.7141(4) 0.23477(17) 0.56430(18)
C71 C 0.6393(3) 0.20456(17) 0.63627(15)
C72 C 0.6604(4) 0.16785(18) 0.66892(16)
H39 H 0.7281 0.1650 0.6819
C73 C 0.4841(4) 0.14042(18) 0.66465(16)
C74 C 0.4612(4) 0.17749(18) 0.63177(17)
H40 H 0.3929 0.1807 0.6195
C75 C 0.5409(4) 0.20970(18) 0.61740(16)
C76 C 0.3885(4) 0.08960(19) 0.71904(18)
C77 C 0.3234(4) 0.0472(2) 0.7212(2)
H41 H 0.2933 0.0330 0.6941
C78 C 0.3058(4) 0.0274(2) 0.7651(2)
H42 H 0.2627 -0.0012 0.7686
C79 C 0.3515(4) 0.04950(18) 0.80410(19)
C80 C 0.3386(4) 0.03192(19) 0.8504(2)
H43 H 0.2951 0.0040 0.8565
C81 C 0.3886(4) 0.0551(2) 0.8862(2)
H44 H 0.3815 0.0439 0.9174
C82 C 0.4144(4) 0.09204(19) 0.79748(17)
C83 C 0.5654(4) 0.16015(17) 0.90321(16)
C84 C 0.6622(4) 0.15276(18) 0.88552(15)
H45 H 0.6843 0.1201 0.8770
C85 C 0.7299(4) 0.19399(18) 0.87992(16)
H46 H 0.7984 0.1896 0.8682
C86 C 0.6935(4) 0.24082(17) 0.89199(15)
C87 C 0.5935(4) 0.24784(17) 0.90997(16)
C88 C 0.5286(4) 0.20707(18) 0.91564(17)
H47 H 0.4603 0.2111 0.9278
C89 C 0.5685(4) 0.30213(18) 0.92006(17)
H48 H 0.4966 0.3071 0.9326
C90 C 0.7550(4) 0.28950(17) 0.88763(15)
H49 H 0.8269 0.2844 0.8751
C91 C 0.7540(4) 0.31395(17) 0.93588(16)
C92 C 0.6536(5) 0.32131(17) 0.95290(16)
C93 C 0.6381(5) 0.34595(19) 0.99551(18)
H50 H 0.5701 0.3507 1.0077
C94 C 0.7249(6) 0.3631(2) 1.0192(2)
H51 H 0.7157 0.3809 1.0475
C95 C 0.8232(6) 0.3550(2) 1.00300(19)
H52 H 0.8816 0.3662 1.0204
C96 C 0.8378(5) 0.33030(19) 0.96107(18)
H53 H 0.9063 0.3247 0.9498
C97 C 0.5888(4) 0.33113(18) 0.87566(16)
C98 C 0.6890(4) 0.32428(16) 0.85746(15)
C99 C 0.7189(4) 0.35041(18) 0.81844(16)
H54 H 0.7859 0.3449 0.8054
C100 C 0.6511(4) 0.38523(17) 0.79758(16)
H55 H 0.6722 0.4039 0.7711
C101 C 0.5539(4) 0.39152(17) 0.81637(16)
C102 C 0.5196(4) 0.36451(17) 0.85482(17)
H56 H 0.4511 0.3687 0.8666
O9 O 0.1478(4) 0.7102(2) 0.2563(2)
C103 C -0.0191(6) 0.7223(3) 0.2284(2)
H57 H 0.0073 0.7019 0.2027
H58 H -0.0401 0.7551 0.2166
H59 H -0.0793 0.7057 0.2426
C104 C 0.0627(5) 0.72856(19) 0.26343(19)
C105 C 0.0386(7) 0.7572(3) 0.3041(2)
H60 H 0.0994 0.7582 0.3247
H61 H -0.0200 0.7418 0.3205
H62 H 0.0198 0.7913 0.2949
O10 O 0.2103(5) 0.7413(3) 0.4172(2)
C106 C 0.3764(7) 0.7225(4) 0.4435(3)
H63 H 0.3977 0.7398 0.4150
H64 H 0.4033 0.6883 0.4432
H65 H 0.4043 0.7403 0.4706
C107 C 0.2612(7) 0.7214(3) 0.4463(3)
C108 C 0.2153(9) 0.6969(3) 0.4867(3)
H66 H 0.1393 0.6990 0.4848
H67 H 0.2393 0.7136 0.5151
H68 H 0.2366 0.6618 0.4873
C109 C -0.7646(14) 1.1348(5) 0.5109(7)
H69 H -0.6909 1.1404 0.5039
H70 H -0.7721 1.1242 0.5433
H71 H -0.8033 1.1660 0.5060
C110 C -0.9173(8) 1.0814(6) 0.4845(4)
H72 H -0.9311 1.0546 0.4621
H73 H -0.9622 1.1101 0.4775
H74 H -0.9318 1.0694 0.5160
C111 C -0.8046(9) 1.0971(7) 0.4810(5)
O11 O -0.7528(6) 1.0731(4) 0.4498(3)
O12 O 0.1498(3) 0.91970(18) 0.77362(17)
C112 C -0.0285(5) 0.9406(3) 0.7824(2)
H75 H -0.0237 0.9194 0.8102
H76 H -0.0819 0.9272 0.7615
H77 H -0.0472 0.9747 0.7916
C113 C 0.0730(4) 0.94115(19) 0.75821(18)
C114 C 0.0798(6) 0.9704(2) 0.7152(2)
H78 H 0.1504 0.9682 0.7026
H79 H 0.0632 1.0055 0.7219
H80 H 0.0301 0.9573 0.6924
C115 C -0.6303(9) 0.9885(5) 0.5280(4)
H81 H -0.6497 1.0071 0.4999
H82 H -0.6408 0.9527 0.5227
H83 H -0.5569 0.9948 0.5352
O13 O -0.7855(13) 0.9893(6) 0.5458(6)
C116 C -0.6992(16) 1.0060(9) 0.5695(7)
C117 C -0.7108(11) 0.9581(5) 0.5980(5)
H84 H -0.7669 0.9624 0.6208
H85 H -0.6454 0.9511 0.6143
H86 H -0.7275 0.9302 0.5772
loop_
_geom_bond_atom_site_label_1
_geom_bond_atom_site_label_2
_geom_bond_site_symmetry_1
_geom_bond_site_symmetry_2
Cl1 C1 1_555 1_555
O1 C2 1_555 1_555
O2 C19 1_555 1_555
O3 C29 1_555 1_555
O4 C3 1_555 1_555
N1 C1 1_555 1_555
N2 C2 1_555 1_555
N3 C1 1_555 1_555
N4 C23 1_555 1_555
N5 C29 1_555 1_555
C2 N1 1_555 1_555
C3 N2 1_555 1_555
C4 O1 1_555 1_555
C5 C4 1_555 1_555
H1 C5 1_555 1_555
C6 C5 1_555 1_555
C7 C6 1_555 1_555
C8 C7 1_555 1_555
H2 C8 1_555 1_555
C9 C4 1_555 1_555
H3 C9 1_555 1_555
C10 C6 1_555 1_555
H4 C10 1_555 1_555
C11 C10 1_555 1_555
C12 C11 1_555 1_555
C13 C7 1_555 1_555
H5 C13 1_555 1_555
C14 C11 1_555 1_555
H6 C14 1_555 1_555
C15 C14 1_555 1_555
H7 C15 1_555 1_555
C16 C15 1_555 1_555
H8 C16 1_555 1_555
C17 C12 1_555 1_555
H9 C17 1_555 1_555
C18 H10 1_555 1_555
C19 C18 1_555 1_555
C20 C19 1_555 1_555
H11 C20 1_555 1_555
C21 C13 1_555 1_555
C22 C10 1_555 1_555
C23 O2 1_555 1_555
C24 C23 1_555 1_555
H12 C24 1_555 1_555
C25 C24 1_555 1_555
H13 C25 1_555 1_555
C26 C25 1_555 1_555
C27 C26 1_555 1_555
H14 C27 1_555 1_555
C28 C27 1_555 1_555
H15 C28 1_555 1_555
C29 C28 1_555 1_555
C30 N4 1_555 1_555
C31 O3 1_555 1_555
C32 C31 1_555 1_555
H16 C32 1_555 1_555
C33 C34 1_555 1_555
C34 H17 1_555 1_555
C35 C31 1_555 1_555
H18 C35 1_555 1_555
C36 C32 1_555 1_555
C37 C36 1_555 1_555
H19 C37 1_555 1_555
C38 C33 1_555 1_555
H20 C38 1_555 1_555
C39 C37 1_555 1_555
C40 C39 1_555 1_555
H21 C40 1_555 1_555
C41 C40 1_555 1_555
H22 C41 1_555 1_555
C42 C41 1_555 1_555
H23 C42 1_555 1_555
C43 C42 1_555 1_555
H24 C43 1_555 1_555
C44 C38 1_555 1_555
C45 C37 1_555 1_555
C46 C45 1_555 1_555
H25 C46 1_555 1_555
C47 O4 1_555 1_555
C48 C47 1_555 1_555
H26 C48 1_555 1_555
C49 C48 1_555 1_555
H27 C49 1_555 1_555
C50 C38 1_555 1_555
C51 C20 1_555 1_555
H28 C51 1_555 1_555
Cl2 C55 1_555 1_555
O5 C54 1_555 1_555
O6 C73 1_555 1_555
O7 C53 1_555 1_555
O8 C56 1_555 1_555
N6 C54 1_555 1_555
N7 C55 1_555 1_555
N8 C54 1_555 1_555
N9 C53 1_555 1_555
N10 C76 1_555 1_555
C52 H29 1_555 1_555
C53 C81 1_555 1_555
C55 N6 1_555 1_555
C56 N7 1_555 1_555
C57 O5 1_555 1_555
C58 C57 1_555 1_555
H30 C58 1_555 1_555
C59 C58 1_555 1_555
H31 C59 1_555 1_555
C60 C59 1_555 1_555
C61 C60 1_555 1_555
C62 C57 1_555 1_555
H32 C62 1_555 1_555
C63 C60 1_555 1_555
H33 C63 1_555 1_555
C64 C61 1_555 1_555
H34 C64 1_555 1_555
C65 C64 1_555 1_555
C66 C65 1_555 1_555
H35 C66 1_555 1_555
C67 C66 1_555 1_555
H36 C67 1_555 1_555
C68 C67 1_555 1_555
H37 C68 1_555 1_555
C69 C68 1_555 1_555
H38 C69 1_555 1_555
C70 C63 1_555 1_555
C71 C63 1_555 1_555
C72 C52 1_555 1_555
H39 C72 1_555 1_555
C73 C52 1_555 1_555
C74 C73 1_555 1_555
H40 C74 1_555 1_555
C75 C64 1_555 1_555
C76 O6 1_555 1_555
C77 C76 1_555 1_555
H41 C77 1_555 1_555
C78 C77 1_555 1_555
H42 C78 1_555 1_555
C79 C78 1_555 1_555
C80 C79 1_555 1_555
H43 C80 1_555 1_555
C81 C80 1_555 1_555
H44 C81 1_555 1_555
C82 N9 1_555 1_555
C83 O7 1_555 1_555
C84 C83 1_555 1_555
H45 C84 1_555 1_555
C85 C84 1_555 1_555
H46 C85 1_555 1_555
C86 C85 1_555 1_555
C87 C86 1_555 1_555
C88 C83 1_555 1_555
H47 C88 1_555 1_555
C89 C87 1_555 1_555
H48 C89 1_555 1_555
C90 C86 1_555 1_555
H49 C90 1_555 1_555
C91 C90 1_555 1_555
C92 C89 1_555 1_555
C93 C92 1_555 1_555
H50 C93 1_555 1_555
C94 C93 1_555 1_555
H51 C94 1_555 1_555
C95 C94 1_555 1_555
H52 C95 1_555 1_555
C96 C91 1_555 1_555
H53 C96 1_555 1_555
C97 C89 1_555 1_555
C98 C90 1_555 1_555
C99 C98 1_555 1_555
H54 C99 1_555 1_555
C100 C99 1_555 1_555
H55 C100 1_555 1_555
C101 O8 1_555 1_555
C102 C97 1_555 1_555
H56 C102 1_555 1_555
O9 C104 1_555 1_555
C103 H57 1_555 1_555
H58 C103 1_555 1_555
H59 C103 1_555 1_555
C104 C103 1_555 1_555
C105 C104 1_555 1_555
H60 C105 1_555 1_555
H61 C105 1_555 1_555
H62 C105 1_555 1_555
O10 C107 1_555 1_555
C106 H63 1_555 1_555
H64 C106 1_555 1_555
H65 C106 1_555 1_555
C107 C106 1_555 1_555
C108 C107 1_555 1_555
H66 C108 1_555 1_555
H67 C108 1_555 1_555
H68 C108 1_555 1_555
C109 H69 1_555 1_555
H70 C109 1_555 1_555
H71 C109 1_555 1_555
C110 H72 1_555 1_555
H73 C110 1_555 1_555
H74 C110 1_555 1_555
C111 C109 1_555 1_555
O11 C111 1_555 1_555
O12 C113 1_555 1_555
C112 H75 1_555 1_555
H76 C112 1_555 1_555
H77 C112 1_555 1_555
C113 C112 1_555 1_555
C114 C113 1_555 1_555
H78 C114 1_555 1_555
H79 C114 1_555 1_555
H80 C114 1_555 1_555
C115 H81 1_555 1_555
H82 C115 1_555 1_555
H83 C115 1_555 1_555
O13 C116 1_555 1_555
C116 C115 1_555 1_555
C117 C116 1_555 1_555
H84 C117 1_555 1_555
H85 C117 1_555 1_555
H86 C117 1_555 1_555
N3 C3 1_555 1_555
N5 C30 1_555 1_555
C8 C9 1_555 1_555
C12 C13 1_555 1_555
C16 C17 1_555 1_555
C18 C22 1_555 1_555
C21 C22 1_555 1_555
C21 C51 1_555 1_555
C26 C30 1_555 1_555
C33 C36 1_555 1_555
C34 C35 1_555 1_555
C39 C44 1_555 1_555
C43 C44 1_555 1_555
C45 C50 1_555 1_555
C46 C47 1_555 1_555
C49 C50 1_555 1_555
N8 C56 1_555 1_555
N10 C82 1_555 1_555
C61 C62 1_555 1_555
C65 C70 1_555 1_555
C69 C70 1_555 1_555
C71 C72 1_555 1_555
C71 C75 1_555 1_555
C74 C75 1_555 1_555
C79 C82 1_555 1_555
C87 C88 1_555 1_555
C91 C92 1_555 1_555
C95 C96 1_555 1_555
C97 C98 1_555 1_555
C100 C101 1_555 1_555
C101 C102 1_555 1_555
C110 C111 1_555 1_555

#END
