
#######################################################################
#
#                 Cambridge Crystallographic Data Centre
#                                CCDC 
#
#######################################################################
#
# If this CIF has been generated from an entry in the Cambridge 
# Structural Database, then it will include bibliographic, chemical, 
# crystal, experimental, refinement or atomic coordinate data resulting 
# from the CCDC's data processing and validation procedures.
#
#######################################################################

data_IWUPAS
_chemical_formula_moiety         'C19 H14 Cl2 O3'
_chemical_name_systematic        
5-(1-(3,4-Dichlorophenyl)-3-oxo-3-phenylpropyl)furan-2(5H)-one
_symmetry_cell_setting           monoclinic
_symmetry_space_group_name_H-M   'P 21'
_symmetry_Int_Tables_number      4
_space_group_name_Hall           'P 2yb'
loop_
_symmetry_equiv_pos_site_id
_symmetry_equiv_pos_as_xyz
1 x,y,z
2 -x,1/2+y,-z
_cell_length_a                   8.1115(3)
_cell_length_b                   5.6573(2)
_cell_length_c                   18.0697(7)
_cell_angle_alpha                90
_cell_angle_beta                 92.887(3)
_cell_angle_gamma                90
_cell_volume                     828.151
_exptl_crystal_colour            colorless
_exptl_crystal_description       block
_cell_formula_units_Z            2
loop_
_atom_site_label
_atom_site_type_symbol
_atom_site_fract_x
_atom_site_fract_y
_atom_site_fract_z
Cl1 Cl -0.32270(6) -1.03111(9) 0.01891(3)
Cl2 Cl -0.12752(6) -0.58289(9) -0.03670(3)
O1 O -0.90524(15) -1.0755(3) -0.28947(7)
O2 O -1.14804(19) -1.2643(3) -0.28238(9)
O3 O -0.67210(19) -1.4952(2) -0.33424(8)
C1 C -0.3539(2) -0.9263(4) -0.07115(11)
C2 C -0.2719(2) -0.7275(4) -0.09451(12)
C3 C -0.3019(3) -0.6441(4) -0.16597(12)
H1 H -0.2466 -0.5068 -0.1821
C4 C -0.4125(3) -0.7614(4) -0.21381(12)
H2 H -0.4338 -0.7019 -0.2625
C5 C -0.4933(2) -0.9654(3) -0.19183(11)
C6 C -0.4626(2) -1.0455(4) -0.11969(10)
H3 H -0.5167 -1.1837 -0.1035
C7 C -0.6186(2) -1.0911(4) -0.24267(10)
H4 H -0.6310 -1.2565 -0.2243
C8 C -0.7852(2) -0.9652(4) -0.23839(11)
H5 H -0.7728 -0.7947 -0.2515
C9 C -0.8618(2) -0.9858(4) -0.16502(12)
H6 H -0.8160 -0.9240 -0.1196
C10 C -1.0027(2) -1.1030(4) -0.17285(12)
H7 H -1.0724 -1.1428 -0.1340
C11 C -1.0336(3) -1.1615(4) -0.25149(12)
C12 C -0.5686(2) -1.1021(4) -0.32351(11)
H8 H -0.5988 -0.9515 -0.3486
H9 H -0.4474 -1.1210 -0.3244
C13 C -0.6529(3) -1.3067(4) -0.36552(12)
C14 C -0.7064(2) -1.2779(4) -0.44500(11)
C15 C -0.8038(3) -1.4551(4) -0.47825(12)
H10 H -0.8325 -1.5895 -0.4501
C16 C -0.8594(3) -1.4377(4) -0.55194(13)
H11 H -0.9263 -1.5588 -0.5741
C17 C -0.8163(3) -1.2418(4) -0.59295(13)
H12 H -0.8539 -1.2288 -0.6434
C18 C -0.7189(3) -1.0652(4) -0.56072(11)
H13 H -0.6903 -0.9312 -0.5891
C19 C -0.6628(2) -1.0835(4) -0.48687(11)
H14 H -0.5946 -0.9632 -0.4651
loop_
_geom_bond_atom_site_label_1
_geom_bond_atom_site_label_2
_geom_bond_site_symmetry_1
_geom_bond_site_symmetry_2
Cl1 C1 1_555 1_555
Cl2 C2 1_555 1_555
O1 C8 1_555 1_555
O2 C11 1_555 1_555
O3 C13 1_555 1_555
C1 C2 1_555 1_555
C2 C3 1_555 1_555
C3 H1 1_555 1_555
C4 C3 1_555 1_555
H2 C4 1_555 1_555
C5 C4 1_555 1_555
C6 C1 1_555 1_555
H3 C6 1_555 1_555
C7 C5 1_555 1_555
H4 C7 1_555 1_555
C8 C7 1_555 1_555
H5 C8 1_555 1_555
C9 C8 1_555 1_555
H6 C9 1_555 1_555
C10 C9 1_555 1_555
H7 C10 1_555 1_555
C11 O1 1_555 1_555
C12 C7 1_555 1_555
H8 C12 1_555 1_555
H9 C12 1_555 1_555
C13 C12 1_555 1_555
C14 C13 1_555 1_555
C15 C14 1_555 1_555
H10 C15 1_555 1_555
C16 C15 1_555 1_555
H11 C16 1_555 1_555
C17 C16 1_555 1_555
H12 C17 1_555 1_555
C18 C17 1_555 1_555
H13 C18 1_555 1_555
C19 C14 1_555 1_555
H14 C19 1_555 1_555
C5 C6 1_555 1_555
C10 C11 1_555 1_555
C18 C19 1_555 1_555

#END
