
#######################################################################
#
#                 Cambridge Crystallographic Data Centre
#                                CCDC 
#
#######################################################################
#
# If this CIF has been generated from an entry in the Cambridge 
# Structural Database, then it will include bibliographic, chemical, 
# crystal, experimental, refinement or atomic coordinate data resulting 
# from the CCDC's data processing and validation procedures.
#
#######################################################################

data_IWUVUT
_chemical_formula_moiety         'C21 H23 N1 O1 Si1,0.25(C4 H10 O1)'
_chemical_name_systematic        
'5-phenyl-4-(trimethylsilyl)-1,5-dihydro-2H-1-benzazonin-2-one diethyl ether solvate'
_symmetry_cell_setting           tetragonal
_symmetry_space_group_name_H-M   'P 42/n'
_symmetry_Int_Tables_number      86
_space_group_name_Hall           '-P 4bc'
loop_
_symmetry_equiv_pos_site_id
_symmetry_equiv_pos_as_xyz
1 x,y,z
2 -y,1/2+x,1/2+z
3 1/2-x,1/2-y,z
4 1/2+y,-x,1/2+z
5 -x,-y,-z
6 y,1/2-x,1/2-z
7 1/2+x,1/2+y,-z
8 1/2-y,x,1/2-z
_cell_length_a                   20.5653(4)
_cell_length_b                   20.5653(4)
_cell_length_c                   9.7519(2)
_cell_angle_alpha                90
_cell_angle_beta                 90
_cell_angle_gamma                90
_cell_volume                     4124.39
_exptl_crystal_colour            colorless
_exptl_crystal_description       plank
_cell_formula_units_Z            8
loop_
_atom_site_label
_atom_site_type_symbol
_atom_site_fract_x
_atom_site_fract_y
_atom_site_fract_z
C1 C 0.5928(3) 0.6745(3) 0.3542(8)
H1 H 0.6259 0.7063 0.3442
C2 C 0.5673(4) 0.6623(4) 0.4795(8)
H2 H 0.5813 0.6876 0.5553
C3 C 0.5209(3) 0.6137(3) 0.5012(6)
H3 H 0.5048 0.6051 0.5907
C4 C 0.4984(3) 0.5778(3) 0.3876(5)
H4 H 0.4671 0.5443 0.3986
N1 N 0.50083(17) 0.56073(15) 0.1388(4)
H5 H 0.5092 0.5190 0.1287
C5 C 0.4680(2) 0.59134(19) 0.0408(5)
C6 C 0.4390(2) 0.65510(19) 0.0807(4)
H6 H 0.3979 0.6525 0.1249
C7 C 0.4618(2) 0.71479(19) 0.0637(4)
C8 C 0.5278(3) 0.7336(3) 0.0008(6)
H7 H 0.5439 0.7700 0.0597
C9 C 0.5807(2) 0.6862(3) 0.0018(6)
H8 H 0.6034 0.6813 -0.0825
C10 C 0.6014(3) 0.6494(4) 0.1025(7)
H9 H 0.6400 0.6254 0.0858
C11 C 0.5710(2) 0.6409(2) 0.2417(6)
C12 C 0.5231(2) 0.5928(2) 0.2600(5)
C13 C 0.5167(3) 0.7644(3) -0.1382(5)
C14 C 0.4739(3) 0.7401(3) -0.2348(6)
H10 H 0.4513 0.7007 -0.2173
C15 C 0.4638(4) 0.7730(4) -0.3569(6)
H11 H 0.4342 0.7563 -0.4229
C16 C 0.4961(4) 0.8289(3) -0.3821(6)
H12 H 0.4897 0.8508 -0.4668
C17 C 0.5375(3) 0.8540(3) -0.2877(7)
H13 H 0.5593 0.8938 -0.3063
C18 C 0.5484(3) 0.8222(3) -0.1640(6)
H14 H 0.5773 0.8400 -0.0980
Si1 Si 0.41842(16) 0.78699(18) 0.1260(4)
C19 C 0.3631(4) 0.7640(4) 0.2665(7)
H15 H 0.3293 0.7349 0.2313
H16 H 0.3428 0.8032 0.3046
H17 H 0.3878 0.7417 0.3385
C20 C 0.3718(4) 0.8236(3) -0.0156(7)
H18 H 0.4006 0.8311 -0.0940
H19 H 0.3532 0.8651 0.0146
H20 H 0.3366 0.7941 -0.0427
C21 C 0.4759(4) 0.8469(4) 0.1930(7)
H21 H 0.5071 0.8253 0.2539
H22 H 0.4522 0.8803 0.2443
H23 H 0.4993 0.8673 0.1166
O1 O 0.45889(17) 0.56821(14) -0.0748(4)
Si2? Si 0.3957(5) 0.7800(6) 0.1332(13)
C22? C 0.4065(12) 0.8609(8) 0.054(2)
H24? H 0.4516 0.8753 0.0663
H25? H 0.3771 0.8921 0.0977
H26? H 0.3966 0.8583 -0.0442
C23? C 0.4175(12) 0.7911(11) 0.3140(16)
H27? H 0.3994 0.7553 0.3683
H28? H 0.3998 0.8325 0.3471
H29? H 0.4650 0.7915 0.3233
C24? C 0.3104(8) 0.7582(9) 0.114(2)
H30? H 0.3032 0.7144 0.1505
H31? H 0.2987 0.7590 0.0163
H32? H 0.2834 0.7894 0.1639
loop_
_geom_bond_atom_site_label_1
_geom_bond_atom_site_label_2
_geom_bond_site_symmetry_1
_geom_bond_site_symmetry_2
C1 H1 1_555 1_555
C2 C1 1_555 1_555
H2 C2 1_555 1_555
C3 C2 1_555 1_555
H3 C3 1_555 1_555
C4 C3 1_555 1_555
H4 C4 1_555 1_555
N1 H5 1_555 1_555
C5 N1 1_555 1_555
C6 C5 1_555 1_555
H6 C6 1_555 1_555
C7 C6 1_555 1_555
C8 C7 1_555 1_555
H7 C8 1_555 1_555
C9 C8 1_555 1_555
H8 C9 1_555 1_555
C10 C9 1_555 1_555
H9 C10 1_555 1_555
C11 C1 1_555 1_555
C12 C4 1_555 1_555
C13 C8 1_555 1_555
C14 C13 1_555 1_555
H10 C14 1_555 1_555
C15 C14 1_555 1_555
H11 C15 1_555 1_555
C16 C15 1_555 1_555
H12 C16 1_555 1_555
C17 C16 1_555 1_555
H13 C17 1_555 1_555
C18 C13 1_555 1_555
H14 C18 1_555 1_555
Si1 C7 1_555 1_555
C19 Si1 1_555 1_555
H15 C19 1_555 1_555
H16 C19 1_555 1_555
H17 C19 1_555 1_555
C20 Si1 1_555 1_555
H18 C20 1_555 1_555
H19 C20 1_555 1_555
H20 C20 1_555 1_555
C21 Si1 1_555 1_555
H21 C21 1_555 1_555
H22 C21 1_555 1_555
H23 C21 1_555 1_555
O1 C5 1_555 1_555
N1 C12 1_555 1_555
C10 C11 1_555 1_555
C11 C12 1_555 1_555
C17 C18 1_555 1_555

#END
