
#######################################################################
#
#                 Cambridge Crystallographic Data Centre
#                                CCDC 
#
#######################################################################
#
# If this CIF has been generated from an entry in the Cambridge 
# Structural Database, then it will include bibliographic, chemical, 
# crystal, experimental, refinement or atomic coordinate data resulting 
# from the CCDC's data processing and validation procedures.
#
#######################################################################

data_IXAHOG
_chemical_formula_moiety         'C22 H18 Cl1 N1 O3'
_chemical_name_systematic        
6-acetyl-4-(4-chlorophenyl)-1'-methyl-2H-spiro[cyclohex-3-ene-1,3'-indole]-2,2'(1'H)-dione
_symmetry_cell_setting           orthorhombic
_symmetry_space_group_name_H-M   'P n a 21'
_symmetry_Int_Tables_number      33
_space_group_name_Hall           'P 2c -2n'
loop_
_symmetry_equiv_pos_site_id
_symmetry_equiv_pos_as_xyz
1 x,y,z
2 -x,-y,1/2+z
3 1/2-x,1/2+y,1/2+z
4 1/2+x,1/2-y,z
_cell_length_a                   24.739(2)
_cell_length_b                   6.5307(6)
_cell_length_c                   22.413(2)
_cell_angle_alpha                90
_cell_angle_beta                 90
_cell_angle_gamma                90
_cell_volume                     3621.11
_exptl_crystal_colour            colorless
_exptl_crystal_description       needle
_cell_formula_units_Z            8
loop_
_atom_site_label
_atom_site_type_symbol
_atom_site_fract_x
_atom_site_fract_y
_atom_site_fract_z
Cl1 Cl 0.50448(9) 0.8766(3) 0.31462(11)
O1 O 0.7320(3) -0.2115(8) 0.3415(3)
O2 O 0.7793(3) -0.2847(8) 0.4770(3)
O3 O 0.8287(2) 0.1921(9) 0.5058(3)
N1 N 0.8499(3) -0.1707(9) 0.4171(3)
C1 C 0.8905(4) -0.3148(13) 0.4400(5)
H1 H 0.9111 -0.2500 0.4710
H2 H 0.9142 -0.3550 0.4082
H3 H 0.8727 -0.4337 0.4558
C2 C 0.5506(3) 0.6933(11) 0.3375(4)
C3 C 0.5561(3) 0.5137(12) 0.3054(3)
H4 H 0.5347 0.4887 0.2721
C4 C 0.5939(3) 0.3731(11) 0.3236(4)
H5 H 0.5965 0.2507 0.3026
C5 C 0.6282(3) 0.4032(10) 0.3712(3)
C6 C 0.6707(4) 0.2601(10) 0.3873(4)
C7 C 0.7045(3) 0.3122(12) 0.4422(4)
H6 H 0.6802 0.3552 0.4737
H7 H 0.7274 0.4283 0.4325
C8 C 0.7407(3) 0.1397(10) 0.4665(3)
H8 H 0.7170 0.0423 0.4871
C9 C 0.7692(3) 0.0209(9) 0.4154(3)
C10 C 0.8142(3) 0.1269(10) 0.3799(3)
C11 C 0.8150(4) 0.3032(12) 0.3478(4)
H9 H 0.7851 0.3896 0.3475
C12 C 0.8613(4) 0.3531(13) 0.3151(4)
H10 H 0.8622 0.4709 0.2919
C13 C 0.9057(5) 0.2248(14) 0.3179(5)
H11 H 0.9366 0.2604 0.2966
C14 C 0.6208(3) 0.5865(11) 0.4020(4)
H12 H 0.6420 0.6108 0.4355
C15 C 0.5838(4) 0.7335(12) 0.3856(5)
H13 H 0.5812 0.8566 0.4062
C16 C 0.7272(3) -0.0508(11) 0.3688(3)
C17 C 0.6822(3) 0.0912(11) 0.3565(4)
H14 H 0.6598 0.0599 0.3244
C18 C 0.7988(4) -0.1664(12) 0.4410(4)
C19 C 0.8594(3) 0.0009(11) 0.3806(3)
C20 C 0.9063(3) 0.0484(13) 0.3506(4)
H15 H 0.9367 -0.0351 0.3524
C21 C 0.7805(4) 0.2161(12) 0.5114(4)
C22 C 0.7560(4) 0.3184(13) 0.5651(4)
H16 H 0.7814 0.3162 0.5974
H17 H 0.7238 0.2467 0.5766
H18 H 0.7472 0.4577 0.5555
Cl2 Cl 0.25634(9) 0.8528(3) 0.71282(11)
O4 O 0.4866(3) -0.2300(8) 0.6841(3)
O5 O 0.5717(3) 0.1347(9) 0.5059(3)
O6 O 0.5279(3) -0.3179(8) 0.5490(3)
C23 C 0.3032(3) 0.6719(12) 0.6910(4)
C24 C 0.3340(4) 0.7056(13) 0.6417(4)
H19 H 0.3286 0.8237 0.6193
C25 C 0.3732(3) 0.5670(12) 0.6245(4)
H20 H 0.3954 0.5964 0.5920
C26 C 0.3801(3) 0.3802(11) 0.6558(3)
C27 C 0.4238(4) 0.2359(10) 0.6373(4)
C28 C 0.4350(3) 0.0663(10) 0.6692(3)
H21 H 0.4132 0.0364 0.7018
C29 C 0.4795(3) -0.0736(11) 0.6556(3)
C30 C 0.5193(3) -0.0038(10) 0.6078(3)
C31 C 0.5647(3) 0.1100(11) 0.6388(3)
C32 C 0.6112(3) -0.0125(11) 0.6339(3)
C33 C 0.6588(3) 0.0441(14) 0.6605(4)
H22 H 0.6894 -0.0374 0.6570
C34 C 0.6604(5) 0.2274(14) 0.6931(5)
H23 H 0.6921 0.2675 0.7120
C35 C 0.3460(3) 0.3462(11) 0.7042(3)
H24 H 0.3492 0.2245 0.7255
C36 C 0.3076(3) 0.4877(12) 0.7217(4)
H25 H 0.2849 0.4599 0.7537
C37 C 0.4532(4) 0.2821(10) 0.5819(4)
H26 H 0.4761 0.4002 0.5887
H27 H 0.4272 0.3187 0.5513
C38 C 0.4880(3) 0.1060(11) 0.5590(3)
H28 H 0.4629 0.0049 0.5424
C39 C 0.5483(4) -0.1878(11) 0.5821(4)
N2 N 0.6005(3) -0.1877(10) 0.6010(3)
C40 C 0.5664(4) 0.2904(11) 0.6706(4)
H29 H 0.5359 0.3727 0.6745
C41 C 0.6157(4) 0.3457(13) 0.6972(4)
H30 H 0.6177 0.4681 0.7183
C42 C 0.6411(4) -0.3290(12) 0.5809(4)
H31 H 0.6242 -0.4384 0.5591
H32 H 0.6600 -0.3840 0.6147
H33 H 0.6662 -0.2591 0.5553
C43 C 0.5245(4) 0.1735(12) 0.5071(4)
C44 C 0.4985(4) 0.2840(14) 0.4564(4)
H34 H 0.5142 0.2393 0.4195
H35 H 0.5040 0.4287 0.4609
H36 H 0.4604 0.2552 0.4561
loop_
_geom_bond_atom_site_label_1
_geom_bond_atom_site_label_2
_geom_bond_site_symmetry_1
_geom_bond_site_symmetry_2
Cl1 C2 1_555 1_555
O1 C16 1_555 1_555
O2 C18 1_555 1_555
O3 C21 1_555 1_555
N1 C1 1_555 1_555
C1 H1 1_555 1_555
H2 C1 1_555 1_555
H3 C1 1_555 1_555
C2 C3 1_555 1_555
C3 H4 1_555 1_555
C4 C3 1_555 1_555
H5 C4 1_555 1_555
C5 C4 1_555 1_555
C6 C5 1_555 1_555
C7 C6 1_555 1_555
H6 C7 1_555 1_555
H7 C7 1_555 1_555
C8 C7 1_555 1_555
H8 C8 1_555 1_555
C9 C8 1_555 1_555
C10 C9 1_555 1_555
C11 C10 1_555 1_555
H9 C11 1_555 1_555
C12 C11 1_555 1_555
H10 C12 1_555 1_555
C13 C12 1_555 1_555
H11 C13 1_555 1_555
C14 C5 1_555 1_555
H12 C14 1_555 1_555
C15 C2 1_555 1_555
H13 C15 1_555 1_555
C16 C9 1_555 1_555
C17 C6 1_555 1_555
H14 C17 1_555 1_555
C18 N1 1_555 1_555
C19 N1 1_555 1_555
C20 C13 1_555 1_555
H15 C20 1_555 1_555
C21 C8 1_555 1_555
C22 C21 1_555 1_555
H16 C22 1_555 1_555
H17 C22 1_555 1_555
H18 C22 1_555 1_555
Cl2 C23 1_555 1_555
O4 C29 1_555 1_555
O5 C43 1_555 1_555
O6 C39 1_555 1_555
C23 C24 1_555 1_555
C24 H19 1_555 1_555
C25 C24 1_555 1_555
H20 C25 1_555 1_555
C26 C25 1_555 1_555
C27 C26 1_555 1_555
C28 C27 1_555 1_555
H21 C28 1_555 1_555
C29 C28 1_555 1_555
C30 C29 1_555 1_555
C31 C30 1_555 1_555
C32 C31 1_555 1_555
C33 C32 1_555 1_555
H22 C33 1_555 1_555
C34 C33 1_555 1_555
H23 C34 1_555 1_555
C35 C26 1_555 1_555
H24 C35 1_555 1_555
C36 C23 1_555 1_555
H25 C36 1_555 1_555
C37 C27 1_555 1_555
H26 C37 1_555 1_555
H27 C37 1_555 1_555
C38 C30 1_555 1_555
H28 C38 1_555 1_555
C39 C30 1_555 1_555
N2 C32 1_555 1_555
C40 C31 1_555 1_555
H29 C40 1_555 1_555
C41 C34 1_555 1_555
H30 C41 1_555 1_555
C42 N2 1_555 1_555
H31 C42 1_555 1_555
H32 C42 1_555 1_555
H33 C42 1_555 1_555
C43 C38 1_555 1_555
C44 C43 1_555 1_555
H34 C44 1_555 1_555
H35 C44 1_555 1_555
H36 C44 1_555 1_555
C9 C18 1_555 1_555
C10 C19 1_555 1_555
C14 C15 1_555 1_555
C16 C17 1_555 1_555
C19 C20 1_555 1_555
C35 C36 1_555 1_555
C37 C38 1_555 1_555
C39 N2 1_555 1_555
C40 C41 1_555 1_555

#END
