
#######################################################################
#
#                 Cambridge Crystallographic Data Centre
#                                CCDC 
#
#######################################################################
#
# If this CIF has been generated from an entry in the Cambridge 
# Structural Database, then it will include bibliographic, chemical, 
# crystal, experimental, refinement or atomic coordinate data resulting 
# from the CCDC's data processing and validation procedures.
#
#######################################################################

data_IXAJIC
_chemical_formula_moiety         'C6 H4 N8 O4,2(C2 H6 O1 S1)'
_chemical_name_systematic        
'4-((4-carbamoyl-1,2,5-oxadiazol-3-yl)diazenyl)-1,2,5-oxadiazole-3-carboxamide dimethyl sulfoxide solvate'
_symmetry_cell_setting           monoclinic
_symmetry_space_group_name_H-M   'P 21/c'
_symmetry_Int_Tables_number      14
_space_group_name_Hall           '-P 2ybc'
loop_
_symmetry_equiv_pos_site_id
_symmetry_equiv_pos_as_xyz
1 x,y,z
2 -x,1/2+y,1/2-z
3 -x,-y,-z
4 x,1/2-y,1/2+z
_cell_length_a                   11.4117(9)
_cell_length_b                   7.5854(6)
_cell_length_c                   10.0314(6)
_cell_angle_alpha                90
_cell_angle_beta                 95.652(2)
_cell_angle_gamma                90
_cell_volume                     864.12
_exptl_crystal_description       block
_cell_formula_units_Z            2
loop_
_atom_site_label
_atom_site_type_symbol
_atom_site_fract_x
_atom_site_fract_y
_atom_site_fract_z
C1 C -0.01029(16) 0.7124(3) 0.06462(18)
C2 C 0.09557(16) 0.7753(3) 0.13819(18)
C3 C 0.21963(16) 0.7066(2) 0.13753(19)
N1 N -0.03628(13) 0.5610(2) -0.01464(15)
N2 N -0.09613(14) 0.8226(2) 0.07691(16)
N3 N 0.07205(14) 0.9226(2) 0.19563(16)
N4 N 0.28283(15) 0.7005(2) 0.25492(16)
H1 H 0.2518(17) 0.734(3) 0.3243(17)
H2 H 0.3521(15) 0.656(3) 0.258(2)
O1 O -0.04804(12) 0.95412(19) 0.15884(14)
O2 O 0.25243(11) 0.66519(19) 0.02892(13)
C1B C 0.01029(16) 0.2876(3) -0.06462(18)
C2B C -0.09557(16) 0.2247(3) -0.13819(18)
C3B C -0.21963(16) 0.2934(2) -0.13753(19)
N1B N 0.03628(13) 0.4390(2) 0.01464(15)
N2B N 0.09613(14) 0.1774(2) -0.07691(16)
N3B N -0.07205(14) 0.0774(2) -0.19563(16)
N4B N -0.28283(15) 0.2995(2) -0.25492(16)
H1B H -0.2518(17) 0.266(3) -0.3243(17)
H2B H -0.3521(15) 0.344(3) -0.258(2)
O1B O 0.04804(12) 0.04588(19) -0.15884(14)
O2B O -0.25243(11) 0.33481(19) -0.02892(13)
C4 C 0.70027(18) 0.7235(3) 0.2892(2)
H3 H 0.6522 0.8070 0.2328
H4 H 0.7346 0.6363 0.2323
H5 H 0.7635 0.7874 0.3419
C5 C 0.55246(19) 0.8080(3) 0.4682(2)
H6 H 0.5094 0.8768 0.3966
H7 H 0.6172 0.8790 0.5114
H8 H 0.4989 0.7750 0.5346
O3 O 0.50845(12) 0.53472(19) 0.31148(13)
S1 S 0.61033(4) 0.61422(7) 0.39923(5)
loop_
_geom_bond_atom_site_label_1
_geom_bond_atom_site_label_2
_geom_bond_site_symmetry_1
_geom_bond_site_symmetry_2
C1 C2 1_555 1_555
C2 C3 1_555 1_555
C3 N4 1_555 1_555
N1 C1 1_555 1_555
N2 C1 1_555 1_555
N3 C2 1_555 1_555
N4 H1 1_555 1_555
H2 N4 1_555 1_555
O1 N2 1_555 1_555
O2 C3 1_555 1_555
C4 H3 1_555 1_555
H4 C4 1_555 1_555
H5 C4 1_555 1_555
C5 H6 1_555 1_555
H7 C5 1_555 1_555
H8 C5 1_555 1_555
O3 S1 1_555 1_555
S1 C4 1_555 1_555
C1B C2B 1_555 1_555
C2B C3B 1_555 1_555
C3B N4B 1_555 1_555
N1B N1 1_555 1_555
N2B C1B 1_555 1_555
N3B C2B 1_555 1_555
N4B H1B 1_555 1_555
H2B N4B 1_555 1_555
O1B N2B 1_555 1_555
O2B C3B 1_555 1_555
N3 O1 1_555 1_555
C5 S1 1_555 1_555
C1B N1B 1_555 1_555
N3B O1B 1_555 1_555

#END
