
#######################################################################
#
#                 Cambridge Crystallographic Data Centre
#                                CCDC 
#
#######################################################################
#
# If this CIF has been generated from an entry in the Cambridge 
# Structural Database, then it will include bibliographic, chemical, 
# crystal, experimental, refinement or atomic coordinate data resulting 
# from the CCDC's data processing and validation procedures.
#
#######################################################################

data_IXAKID
_chemical_formula_moiety         'C22 H23 N1 O1'
_chemical_name_systematic        
7-t-butyl-N-hydroxy-8-phenylbenzo[8]annulen-5(8H)-imine
_symmetry_cell_setting           monoclinic
_symmetry_space_group_name_H-M   'P 21/c'
_symmetry_Int_Tables_number      14
_space_group_name_Hall           '-P 2ybc'
loop_
_symmetry_equiv_pos_site_id
_symmetry_equiv_pos_as_xyz
1 x,y,z
2 -x,1/2+y,1/2-z
3 -x,-y,-z
4 x,1/2-y,1/2+z
_cell_length_a                   15.2286(10)
_cell_length_b                   8.4987(4)
_cell_length_c                   14.7188(11)
_cell_angle_alpha                90
_cell_angle_beta                 113.021(9)
_cell_angle_gamma                90
_cell_volume                     1753.25
_exptl_crystal_colour            colorless
_exptl_crystal_description       plate
_cell_formula_units_Z            4
loop_
_atom_site_label
_atom_site_type_symbol
_atom_site_fract_x
_atom_site_fract_y
_atom_site_fract_z
C1 C 0.30421(10) 0.75618(17) 0.42905(11)
H1 H 0.3099 0.8147 0.3766
C2 C 0.36719(10) 0.63452(17) 0.47205(12)
H2 H 0.4165 0.6111 0.4499
C3 C 0.35847(11) 0.54692(17) 0.54730(12)
H3 H 0.4023 0.4644 0.5773
C4 C 0.28579(10) 0.57962(16) 0.57881(11)
H4 H 0.2789 0.5174 0.6292
C5 C 0.14313(9) 0.73015(15) 0.57126(9)
C6 C 0.14076(9) 0.85602(16) 0.63930(9)
H5 H 0.1128 0.8270 0.6843
C7 C 0.17197(9) 1.00510(15) 0.64743(9)
C8 C 0.21665(9) 1.07628(15) 0.58039(9)
H6 H 0.2135 1.1926 0.5888
C9 C 0.15677(9) 1.04648(15) 0.47157(9)
H7 H 0.1081 1.1207 0.4385
C10 C 0.16642(9) 0.92622(16) 0.41871(9)
H8 H 0.1292 0.9253 0.3497
C11 C 0.23230(9) 0.79381(15) 0.46201(9)
C12 C 0.22259(9) 0.70340(15) 0.53698(9)
C13 C 0.32303(9) 1.04032(15) 0.61088(9)
C14 C 0.37420(9) 0.93470(16) 0.68438(10)
H9 H 0.3434 0.8816 0.7206
C15 C 0.47051(10) 0.90549(18) 0.70575(10)
H10 H 0.5044 0.8311 0.7552
C16 C 0.51660(10) 0.98447(19) 0.65509(11)
H11 H 0.5821 0.9646 0.6696
C17 C 0.46678(10) 1.09285(17) 0.58300(11)
H12 H 0.4984 1.1483 0.5485
C18 C 0.37091(10) 1.12050(16) 0.56114(9)
H13 H 0.3373 1.1950 0.5116
C19 C 0.15987(9) 1.11966(15) 0.72229(9)
C20 C 0.12174(11) 1.04080(17) 0.79284(10)
H14 H 0.0579 0.9983 0.7552
H15 H 0.1182 1.1184 0.8405
H16 H 0.1646 0.9551 0.8280
C21 C 0.08869(10) 1.24847(17) 0.66614(10)
H17 H 0.1145 1.3085 0.6253
H18 H 0.0780 1.3192 0.7134
H19 H 0.0281 1.1999 0.6238
C22 C 0.25617(10) 1.19734(18) 0.78464(10)
H20 H 0.3010 1.1168 0.8241
H21 H 0.2467 1.2760 0.8286
H22 H 0.2821 1.2485 0.7409
N1 N 0.08035(8) 0.61960(13) 0.54399(8)
O1 O 0.00805(7) 0.63672(12) 0.58070(7)
H23 H -0.0326 0.5649 0.5578
loop_
_geom_bond_atom_site_label_1
_geom_bond_atom_site_label_2
_geom_bond_site_symmetry_1
_geom_bond_site_symmetry_2
C1 H1 1_555 1_555
C2 C1 1_555 1_555
H2 C2 1_555 1_555
C3 C2 1_555 1_555
H3 C3 1_555 1_555
C4 C3 1_555 1_555
H4 C4 1_555 1_555
C5 C6 1_555 1_555
C6 H5 1_555 1_555
C7 C6 1_555 1_555
C8 C7 1_555 1_555
H6 C8 1_555 1_555
C9 C8 1_555 1_555
H7 C9 1_555 1_555
C10 C9 1_555 1_555
H8 C10 1_555 1_555
C11 C1 1_555 1_555
C12 C4 1_555 1_555
C13 C8 1_555 1_555
C14 C13 1_555 1_555
H9 C14 1_555 1_555
C15 C14 1_555 1_555
H10 C15 1_555 1_555
C16 C15 1_555 1_555
H11 C16 1_555 1_555
C17 C16 1_555 1_555
H12 C17 1_555 1_555
C18 C13 1_555 1_555
H13 C18 1_555 1_555
C19 C7 1_555 1_555
C20 C19 1_555 1_555
H14 C20 1_555 1_555
H15 C20 1_555 1_555
H16 C20 1_555 1_555
C21 C19 1_555 1_555
H17 C21 1_555 1_555
H18 C21 1_555 1_555
H19 C21 1_555 1_555
C22 C19 1_555 1_555
H20 C22 1_555 1_555
H21 C22 1_555 1_555
H22 C22 1_555 1_555
N1 C5 1_555 1_555
O1 N1 1_555 1_555
H23 O1 1_555 1_555
C5 C12 1_555 1_555
C10 C11 1_555 1_555
C11 C12 1_555 1_555
C17 C18 1_555 1_555

#END
