
#######################################################################
#
#                 Cambridge Crystallographic Data Centre
#                                CCDC 
#
#######################################################################
#
# If this CIF has been generated from an entry in the Cambridge 
# Structural Database, then it will include bibliographic, chemical, 
# crystal, experimental, refinement or atomic coordinate data resulting 
# from the CCDC's data processing and validation procedures.
#
#######################################################################

data_IXASUV
_chemical_formula_moiety         'C12 H10 N2'
_chemical_name_systematic        trans-2-(2-Phenylethenyl)pyrazine
_symmetry_cell_setting           orthorhombic
_symmetry_space_group_name_H-M   'P b c a'
_symmetry_Int_Tables_number      61
_space_group_name_Hall           '-P 2ac 2ab'
loop_
_symmetry_equiv_pos_site_id
_symmetry_equiv_pos_as_xyz
1 x,y,z
2 1/2+x,y,1/2-z
3 x,1/2-y,1/2+z
4 1/2-x,1/2+y,z
5 -x,-y,-z
6 1/2-x,-y,1/2+z
7 -x,1/2+y,1/2-z
8 1/2+x,1/2-y,-z
_cell_length_a                   9.794(5)
_cell_length_b                   7.388(3)
_cell_length_c                   26.946(12)
_cell_angle_alpha                90
_cell_angle_beta                 90
_cell_angle_gamma                90
_cell_volume                     1949.76
_exptl_crystal_colour            colorless
_exptl_crystal_description       plate
_chemical_melting_point          '355 K'
_cell_formula_units_Z            8
_exptl_crystal_recrystallization_method acetone-water
loop_
_atom_site_label
_atom_site_type_symbol
_atom_site_fract_x
_atom_site_fract_y
_atom_site_fract_z
N1 N 0.38022(15) -0.0078(2) 0.43674(6)
N2 N 0.56948(18) -0.2812(2) 0.45665(6)
C1 C 0.50626(18) -0.0023(2) 0.41776(7)
C2 C 0.5984(2) -0.1396(3) 0.42815(7)
H1 H 0.6853 -0.1322 0.4144
C3 C 0.4446(2) -0.2835(3) 0.47528(7)
H2 H 0.4188 -0.3791 0.4957
C4 C 0.3520(2) -0.1491(3) 0.46537(7)
H3 H 0.2654 -0.1573 0.4794
C5 C 0.54309(19) 0.1496(3) 0.38608(7)
H4 H 0.6268 0.1447 0.3699
C6 C 0.46610(18) 0.2940(2) 0.37869(6)
H5 H 0.3838 0.2972 0.3959
C7 C 0.49472(18) 0.4493(2) 0.34674(7)
C8 C 0.3985(2) 0.5870(3) 0.34227(7)
H6 H 0.3178 0.5803 0.3603
C9 C 0.4209(2) 0.7334(3) 0.31156(8)
H7 H 0.3554 0.8240 0.3091
C10 C 0.5392(2) 0.7458(3) 0.28467(8)
H8 H 0.5541 0.8442 0.2638
C11 C 0.6357(2) 0.6119(3) 0.28872(7)
H9 H 0.7161 0.6197 0.2705
C12 C 0.61442(19) 0.4660(3) 0.31958(7)
H10 H 0.6814 0.3773 0.3223
loop_
_geom_bond_atom_site_label_1
_geom_bond_atom_site_label_2
_geom_bond_site_symmetry_1
_geom_bond_site_symmetry_2
N1 C1 1_555 1_555
N2 C2 1_555 1_555
C1 C2 1_555 1_555
C2 H1 1_555 1_555
C3 N2 1_555 1_555
H2 C3 1_555 1_555
C4 N1 1_555 1_555
H3 C4 1_555 1_555
C5 C1 1_555 1_555
H4 C5 1_555 1_555
C6 C5 1_555 1_555
H5 C6 1_555 1_555
C7 C6 1_555 1_555
C8 C7 1_555 1_555
H6 C8 1_555 1_555
C9 C8 1_555 1_555
H7 C9 1_555 1_555
C10 C9 1_555 1_555
H8 C10 1_555 1_555
C11 C10 1_555 1_555
H9 C11 1_555 1_555
C12 C7 1_555 1_555
H10 C12 1_555 1_555
C3 C4 1_555 1_555
C11 C12 1_555 1_555

#END
