
#######################################################################
#
#                 Cambridge Crystallographic Data Centre
#                                CCDC 
#
#######################################################################
#
# If this CIF has been generated from an entry in the Cambridge 
# Structural Database, then it will include bibliographic, chemical, 
# crystal, experimental, refinement or atomic coordinate data resulting 
# from the CCDC's data processing and validation procedures.
#
#######################################################################

data_IXATUW
_chemical_formula_moiety         'C21 H17 N1'
_chemical_name_systematic        N-9H-Fluoren-9-ylidene-3,4-dimethylaniline
_symmetry_cell_setting           triclinic
_symmetry_space_group_name_H-M   'P -1'
_symmetry_Int_Tables_number      2
_space_group_name_Hall           '-P 1'
loop_
_symmetry_equiv_pos_site_id
_symmetry_equiv_pos_as_xyz
1 x,y,z
2 -x,-y,-z
_cell_length_a                   8.476(3)
_cell_length_b                   8.870(3)
_cell_length_c                   10.376(4)
_cell_angle_alpha                78.886(6)
_cell_angle_beta                 79.375(6)
_cell_angle_gamma                89.483(6)
_cell_volume                     752.051
_exptl_crystal_colour            orange
_exptl_crystal_description       parallelepiped
_chemical_melting_point          '355.8 K'
_cell_formula_units_Z            2
loop_
_atom_site_label
_atom_site_type_symbol
_atom_site_fract_x
_atom_site_fract_y
_atom_site_fract_z
N1 N 0.17433(12) 0.46338(11) 0.67607(10)
C1 C -0.04904(13) 0.25424(13) 0.90276(11)
H1 H 0.0335 0.1957 0.8625
C2 C -0.16822(14) 0.18367(13) 1.00806(11)
H2 H -0.1672 0.0759 1.0399
C3 C -0.28873(14) 0.27017(14) 1.06676(12)
H3 H -0.3690 0.2205 1.1385
C4 C -0.29349(14) 0.42875(14) 1.02188(11)
H4 H -0.3757 0.4874 1.0623
C5 C -0.23586(14) 0.78863(13) 0.86896(11)
H5 H -0.3286 0.7805 0.9374
C6 C -0.18410(15) 0.93022(14) 0.78815(12)
H6 H -0.2426 1.0195 0.8015
C7 C -0.04821(14) 0.94273(13) 0.68831(12)
H7 H -0.0147 1.0405 0.6348
C8 C 0.03990(14) 0.81344(13) 0.66552(11)
H8 H 0.1326 0.8222 0.5970
C9 C 0.05504(13) 0.51429(12) 0.74783(11)
C10 C -0.05363(13) 0.41135(13) 0.85820(11)
C11 C -0.17535(13) 0.49860(12) 0.91689(11)
C12 C -0.14870(13) 0.65976(13) 0.84713(11)
C13 C -0.01134(13) 0.67170(12) 0.74549(11)
C14 C 0.27151(13) 0.56591(12) 0.56911(11)
C15 C 0.40697(13) 0.63838(13) 0.59043(11)
H9 H 0.4322 0.6207 0.6775
C16 C 0.50606(13) 0.73612(13) 0.48654(11)
C17 C 0.47049(13) 0.76004(13) 0.35730(11)
C18 C 0.33727(14) 0.68383(14) 0.33679(12)
H10 H 0.3136 0.6982 0.2493
C19 C 0.23786(14) 0.58724(14) 0.44088(12)
H11 H 0.1476 0.5362 0.4245
C20 C 0.65200(15) 0.81173(15) 0.51315(13)
H12 H 0.6592 0.7798 0.6076
H13 H 0.6432 0.9237 0.4917
H14 H 0.7485 0.7810 0.4574
C21 C 0.57716(15) 0.86252(15) 0.24221(13)
H15 H 0.5281 0.8747 0.1625
H16 H 0.6824 0.8162 0.2244
H17 H 0.5904 0.9634 0.2648
loop_
_geom_bond_atom_site_label_1
_geom_bond_atom_site_label_2
_geom_bond_site_symmetry_1
_geom_bond_site_symmetry_2
N1 C9 1_555 1_555
C1 H1 1_555 1_555
C2 C1 1_555 1_555
H2 C2 1_555 1_555
C3 C2 1_555 1_555
H3 C3 1_555 1_555
C4 C3 1_555 1_555
H4 C4 1_555 1_555
C5 H5 1_555 1_555
C6 C5 1_555 1_555
H6 C6 1_555 1_555
C7 C6 1_555 1_555
H7 C7 1_555 1_555
C8 C7 1_555 1_555
H8 C8 1_555 1_555
C9 C10 1_555 1_555
C10 C1 1_555 1_555
C11 C4 1_555 1_555
C12 C5 1_555 1_555
C13 C8 1_555 1_555
C14 N1 1_555 1_555
C15 C14 1_555 1_555
H9 C15 1_555 1_555
C16 C15 1_555 1_555
C17 C16 1_555 1_555
C18 C17 1_555 1_555
H10 C18 1_555 1_555
C19 C14 1_555 1_555
H11 C19 1_555 1_555
C20 C16 1_555 1_555
H12 C20 1_555 1_555
H13 C20 1_555 1_555
H14 C20 1_555 1_555
C21 C17 1_555 1_555
H15 C21 1_555 1_555
H16 C21 1_555 1_555
H17 C21 1_555 1_555
C9 C13 1_555 1_555
C10 C11 1_555 1_555
C11 C12 1_555 1_555
C12 C13 1_555 1_555
C18 C19 1_555 1_555

#END
