
#######################################################################
#
#                 Cambridge Crystallographic Data Centre
#                                CCDC 
#
#######################################################################
#
# If this CIF has been generated from an entry in the Cambridge 
# Structural Database, then it will include bibliographic, chemical, 
# crystal, experimental, refinement or atomic coordinate data resulting 
# from the CCDC's data processing and validation procedures.
#
#######################################################################

data_IXAVAF
_chemical_formula_moiety         'C17 H16 Br1 N1 O3 S1'
_chemical_name_systematic        
'Methyl 4-(4-bromophenyl)-2-methyl-5-oxo-4,5,6,8-tetrahydro-1H-thiopyrano[3,4-b]pyridine-3-carboxylate'
_symmetry_cell_setting           monoclinic
_symmetry_space_group_name_H-M   'P 21/n'
_symmetry_Int_Tables_number      14
_space_group_name_Hall           '-P 2yn'
loop_
_symmetry_equiv_pos_site_id
_symmetry_equiv_pos_as_xyz
1 x,y,z
2 1/2-x,1/2+y,1/2-z
3 -x,-y,-z
4 1/2+x,1/2-y,1/2+z
_cell_length_a                   7.98260(10)
_cell_length_b                   15.1896(2)
_cell_length_c                   14.0058(2)
_cell_angle_alpha                90
_cell_angle_beta                 106.3110(10)
_cell_angle_gamma                90
_cell_volume                     1629.89
_cell_formula_units_Z            4
loop_
_atom_site_label
_atom_site_type_symbol
_atom_site_fract_x
_atom_site_fract_y
_atom_site_fract_z
Br1 Br 0.36536(12) 1.16876(4) 0.50396(5)
S1 S 0.69339(15) 0.70315(9) 0.74381(9)
C1 C 0.3334(5) 0.7214(3) 0.6741(3)
O1 O -0.0988(4) 0.9283(2) 0.7571(2)
O2 O 0.2030(4) 0.7146(2) 0.6029(2)
C2 C 0.4759(5) 0.7841(3) 0.8375(3)
C3 C 0.1964(5) 0.8515(3) 0.7401(3)
H1 H 0.0879 0.8245 0.7001
N1 N 0.4664(4) 0.8352(2) 0.9162(2)
H2 H 0.5603 0.8456 0.9629
C4 C 0.3428(5) 0.7843(3) 0.7523(3)
O3 O -0.0519(4) 0.9041(3) 0.9189(3)
C5 C 0.6377(6) 0.7287(3) 0.8564(3)
H3 H 0.6199 0.6743 0.8885
H4 H 0.7342 0.7598 0.9013
C6 C 0.3103(5) 0.8709(3) 0.9232(3)
C7 C 0.3116(7) 1.0728(3) 0.5776(4)
C8 C 0.3483(6) 1.0784(3) 0.6776(3)
H5 H 0.3987 1.1291 0.7107
C9 C 0.2341(5) 0.9316(3) 0.6841(3)
C10 C 0.3100(5) 1.0075(3) 0.7303(3)
H6 H 0.3364 1.0114 0.7992
C11 C 0.1733(5) 0.8746(3) 0.8411(3)
C12 C -0.2762(5) 0.9547(3) 0.7496(4)
H7 H -0.3337 0.9716 0.6824
H8 H -0.2749 1.0037 0.7932
H9 H -0.3377 0.9064 0.7684
C13 C 0.0009(5) 0.9030(3) 0.8464(3)
C14 C 0.4821(6) 0.6589(3) 0.6794(4)
H10 H 0.4821 0.6431 0.6123
H11 H 0.4630 0.6054 0.7128
C15 C 0.3174(6) 0.9032(3) 1.0252(3)
H12 H 0.2058 0.9268 1.0250
H13 H 0.4045 0.9484 1.0445
H14 H 0.3466 0.8553 1.0715
C16 C 0.1955(11) 0.9294(4) 0.5818(4)
H15 H 0.1424 0.8797 0.5477
C17 C 0.2342(13) 0.9997(4) 0.5287(4)
H16 H 0.2073 0.9969 0.4597
loop_
_geom_bond_atom_site_label_1
_geom_bond_atom_site_label_2
_geom_bond_site_symmetry_1
_geom_bond_site_symmetry_2
Br1 C7 1_555 1_555
S1 C5 1_555 1_555
C1 O2 1_555 1_555
O1 C12 1_555 1_555
C2 N1 1_555 1_555
C3 H1 1_555 1_555
N1 H2 1_555 1_555
C4 C1 1_555 1_555
O3 C13 1_555 1_555
C5 C2 1_555 1_555
H3 C5 1_555 1_555
H4 C5 1_555 1_555
C6 N1 1_555 1_555
C7 C8 1_555 1_555
C8 H5 1_555 1_555
C9 C3 1_555 1_555
C10 C8 1_555 1_555
H6 C10 1_555 1_555
C11 C3 1_555 1_555
C12 H7 1_555 1_555
H8 C12 1_555 1_555
H9 C12 1_555 1_555
C13 O1 1_555 1_555
C14 S1 1_555 1_555
H10 C14 1_555 1_555
H11 C14 1_555 1_555
C15 C6 1_555 1_555
H12 C15 1_555 1_555
H13 C15 1_555 1_555
H14 C15 1_555 1_555
C16 C9 1_555 1_555
H15 C16 1_555 1_555
C17 C7 1_555 1_555
H16 C17 1_555 1_555
C1 C14 1_555 1_555
C2 C4 1_555 1_555
C3 C4 1_555 1_555
C6 C11 1_555 1_555
C9 C10 1_555 1_555
C11 C13 1_555 1_555
C16 C17 1_555 1_555

#END
