
#######################################################################
#
#                 Cambridge Crystallographic Data Centre
#                                CCDC 
#
#######################################################################
#
# If this CIF has been generated from an entry in the Cambridge 
# Structural Database, then it will include bibliographic, chemical, 
# crystal, experimental, refinement or atomic coordinate data resulting 
# from the CCDC's data processing and validation procedures.
#
#######################################################################

data_IXAVUY
_chemical_formula_moiety         'C16 H14 N8 S2'
_chemical_name_systematic        
1,2-bis(1-Phenyl-1H-tetrazol-5-ylsulfanyl)ethane
_symmetry_cell_setting           monoclinic
_symmetry_space_group_name_H-M   'P 21/c'
_symmetry_Int_Tables_number      14
_space_group_name_Hall           '-P 2ybc'
loop_
_symmetry_equiv_pos_site_id
_symmetry_equiv_pos_as_xyz
1 x,y,z
2 x,1/2-y,1/2+z
3 -x,-y,-z
4 -x,1/2+y,1/2-z
_cell_length_a                   9.333(3)
_cell_length_b                   13.456(4)
_cell_length_c                   7.181(2)
_cell_angle_alpha                90
_cell_angle_beta                 103.550(10)
_cell_angle_gamma                90
_cell_volume                     876.723
_exptl_crystal_colour            colorless
_exptl_crystal_description       block
_chemical_melting_point          '432-433 K'
_cell_formula_units_Z            2
_exptl_crystal_recrystallization_method ethanol
loop_
_atom_site_label
_atom_site_type_symbol
_atom_site_fract_x
_atom_site_fract_y
_atom_site_fract_z
S1 S 0.30655(6) 0.00639(4) 0.12738(8)
N1 N 0.31111(17) 0.15398(12) 0.3878(2)
N2 N 0.52982(17) 0.10365(15) 0.3778(3)
N3 N 0.5387(2) 0.17817(16) 0.5088(3)
N4 N 0.4094(2) 0.20903(14) 0.5173(3)
C1 C 0.38763(19) 0.09003(14) 0.3039(3)
C2 C 0.1558(2) 0.17246(15) 0.3539(3)
C3 C 0.0593(2) 0.09506(16) 0.3429(3)
H1 H 0.0936 0.0299 0.3559
C4 C -0.0903(2) 0.1148(2) 0.3123(3)
H2 H -0.1569 0.0626 0.3035
C5 C -0.1401(3) 0.2105(2) 0.2951(4)
H3 H -0.2404 0.2235 0.2756
C6 C -0.0426(3) 0.2871(2) 0.3064(4)
H4 H -0.0774 0.3521 0.2940
C7 C 0.1068(3) 0.26967(16) 0.3361(3)
H5 H 0.1729 0.3221 0.3438
C8 C 0.4701(2) -0.03782(16) 0.0586(3)
H6 H 0.5453 -0.0533 0.1730
H7 H 0.4467 -0.0985 -0.0151
C8B C 0.5299(2) 0.03782(16) -0.0586(3)
S1B S 0.69345(6) -0.00639(4) -0.12738(8)
C1B C 0.61237(19) -0.09003(14) -0.3039(3)
N1B N 0.68889(17) -0.15398(12) -0.3878(2)
N4B N 0.5906(2) -0.20903(14) -0.5173(3)
N3B N 0.4613(2) -0.17817(16) -0.5088(3)
N2B N 0.47018(17) -0.10365(15) -0.3778(3)
C2B C 0.8442(2) -0.17246(15) -0.3539(3)
C3B C 0.9407(2) -0.09506(16) -0.3429(3)
H1B H 0.9064 -0.0299 -0.3559
C4B C 1.0903(2) -0.1148(2) -0.3123(3)
H2B H 1.1569 -0.0626 -0.3035
C5B C 1.1401(3) -0.2105(2) -0.2951(4)
H3B H 1.2404 -0.2235 -0.2756
C6B C 1.0426(3) -0.2871(2) -0.3064(4)
H4B H 1.0774 -0.3521 -0.2940
C7B C 0.8932(3) -0.26967(16) -0.3361(3)
H5B H 0.8271 -0.3221 -0.3438
H6B H 0.4547 0.0533 -0.1730
H7B H 0.5533 0.0985 0.0151
loop_
_geom_bond_atom_site_label_1
_geom_bond_atom_site_label_2
_geom_bond_site_symmetry_1
_geom_bond_site_symmetry_2
S1 C1 1_555 1_555
N1 N4 1_555 1_555
N2 N3 1_555 1_555
N3 N4 1_555 1_555
C1 N1 1_555 1_555
C2 N1 1_555 1_555
C3 C2 1_555 1_555
H1 C3 1_555 1_555
C4 C3 1_555 1_555
H2 C4 1_555 1_555
C5 C4 1_555 1_555
H3 C5 1_555 1_555
C6 C5 1_555 1_555
H4 C6 1_555 1_555
C7 C2 1_555 1_555
H5 C7 1_555 1_555
C8 S1 1_555 1_555
H6 C8 1_555 1_555
H7 C8 1_555 1_555
C8B C8 1_555 1_555
S1B C8B 1_555 1_555
C1B S1B 1_555 1_555
N1B C1B 1_555 1_555
N4B N1B 1_555 1_555
N3B N4B 1_555 1_555
N2B C1B 1_555 1_555
C2B N1B 1_555 1_555
C3B C2B 1_555 1_555
H1B C3B 1_555 1_555
C4B C3B 1_555 1_555
H2B C4B 1_555 1_555
C5B C4B 1_555 1_555
H3B C5B 1_555 1_555
C6B C5B 1_555 1_555
H4B C6B 1_555 1_555
C7B C2B 1_555 1_555
H5B C7B 1_555 1_555
H6B C8B 1_555 1_555
H7B C8B 1_555 1_555
N2 C1 1_555 1_555
C6 C7 1_555 1_555
N3B N2B 1_555 1_555
C6B C7B 1_555 1_555

#END
