
#######################################################################
#
#                 Cambridge Crystallographic Data Centre
#                                CCDC 
#
#######################################################################
#
# If this CIF has been generated from an entry in the Cambridge 
# Structural Database, then it will include bibliographic, chemical, 
# crystal, experimental, refinement or atomic coordinate data resulting 
# from the CCDC's data processing and validation procedures.
#
#######################################################################

data_IXAVAE
_chemical_formula_moiety         'C20 H15 N3 O2,0.5(C1 H4 O1)'
_chemical_name_systematic        
"1-Ethyl-2-oxo-5-phenyl-1,6-dihydro-2H-oxazolo(4',5':5,6)pyrido(3,4-b)indole methanol solvate"
_symmetry_cell_setting           monoclinic
_symmetry_space_group_name_H-M   'C 2/c'
_symmetry_Int_Tables_number      15
_space_group_name_Hall           '-C 2yn'
loop_
_symmetry_equiv_pos_site_id
_symmetry_equiv_pos_as_xyz
1 x,y,z
2 1/2+x,1/2+y,z
3 x,-y,1/2+z
4 1/2+x,1/2-y,1/2+z
5 -x,-y,-z
6 1/2-x,1/2-y,-z
7 -x,y,1/2-z
8 1/2-x,1/2+y,1/2-z
_cell_length_a                   17.728(4)
_cell_length_b                   8.5045(19)
_cell_length_c                   22.575(5)
_cell_angle_alpha                90
_cell_angle_beta                 105.925(4)
_cell_angle_gamma                90
_cell_volume                     3272.96
_exptl_crystal_colour            colorless
_exptl_crystal_description       block
_cell_formula_units_Z            8
loop_
_atom_site_label
_atom_site_type_symbol
_atom_site_fract_x
_atom_site_fract_y
_atom_site_fract_z
C21 C 0.0000 0.0843(8) 0.2500
H18 H 0.0360 0.1680 0.2666
O3 O 0.0294(4) -0.0473(9) 0.2749(2)
H19 H 0.0367 -0.0447 0.3137
H18F H -0.0360 0.1680 0.2334
O3F O -0.0294(4) -0.0473(9) 0.2251(2)
H19F H -0.0367 -0.0447 0.1863
C1 C 0.05791(12) -0.1542(3) 0.47163(11)
C2 C 0.23704(11) 0.1080(2) 0.40628(9)
C3 C 0.45438(12) 0.0945(3) 0.59654(10)
H1 H 0.4921 0.1612 0.5887
C4 C 0.46728(12) 0.0166(3) 0.65127(10)
H2 H 0.5147 0.0302 0.6813
C5 C 0.41084(13) -0.0828(3) 0.66295(11)
H3 H 0.4219 -0.1375 0.7000
C6 C 0.33970(12) -0.1017(3) 0.62118(10)
H4 H 0.3019 -0.1659 0.6302
C7 C 0.13411(15) -0.1204(3) 0.61983(13)
H5 H 0.1709 -0.0357 0.6235
H6 H 0.1432 -0.1735 0.6587
H7 H 0.0817 -0.0792 0.6080
C8 C 0.14410(12) -0.2319(3) 0.57283(11)
H8 H 0.1077 -0.3187 0.5696
H9 H 0.1970 -0.2741 0.5848
C9 C 0.26387(11) 0.1905(2) 0.35818(9)
C10 C 0.21032(13) 0.2764(3) 0.31347(10)
H10 H 0.1584 0.2830 0.3147
C11 C 0.23331(16) 0.3520(3) 0.26731(11)
H11 H 0.1967 0.4088 0.2376
C12 C 0.30952(15) 0.3444(3) 0.26464(11)
H12 H 0.3248 0.3961 0.2335
C13 C 0.36293(14) 0.2601(3) 0.30833(11)
H13 H 0.4147 0.2547 0.3067
C14 C 0.34110(12) 0.1829(2) 0.35484(10)
H14 H 0.3781 0.1256 0.3841
C15 C 0.13925(11) -0.0207(2) 0.43145(9)
C16 C 0.28338(10) 0.0794(2) 0.46650(9)
C17 C 0.38305(10) 0.0706(2) 0.55298(9)
C18 C 0.32386(10) -0.0235(2) 0.56451(9)
C19 C 0.25849(10) -0.0140(2) 0.50990(9)
C20 C 0.18072(11) -0.0647(2) 0.48938(9)
N1 N 0.12976(10) -0.1528(2) 0.51291(8)
N2 N 0.16202(9) 0.0569(2) 0.38948(8)
N3 N 0.35864(9) 0.1299(2) 0.49417(7)
H15 H 0.3861 0.1893 0.4773
O1 O -0.00186(9) -0.2114(2) 0.47665(8)
O2 O 0.06267(8) -0.07450(19) 0.41982(7)
H16? H -0.0077 0.0780 0.2063
H17? H -0.0493 0.1045 0.2584
loop_
_geom_bond_atom_site_label_1
_geom_bond_atom_site_label_2
_geom_bond_site_symmetry_1
_geom_bond_site_symmetry_2
C1 N1 1_555 1_555
C2 C9 1_555 1_555
C3 H1 1_555 1_555
C4 C3 1_555 1_555
H2 C4 1_555 1_555
C5 C4 1_555 1_555
H3 C5 1_555 1_555
C6 C5 1_555 1_555
H4 C6 1_555 1_555
C7 H5 1_555 1_555
H6 C7 1_555 1_555
H7 C7 1_555 1_555
C8 C7 1_555 1_555
H8 C8 1_555 1_555
H9 C8 1_555 1_555
C9 C10 1_555 1_555
C10 H10 1_555 1_555
C11 C10 1_555 1_555
H11 C11 1_555 1_555
C12 C11 1_555 1_555
H12 C12 1_555 1_555
C13 C12 1_555 1_555
H13 C13 1_555 1_555
C14 C9 1_555 1_555
H14 C14 1_555 1_555
C15 C20 1_555 1_555
C16 C2 1_555 1_555
C17 C3 1_555 1_555
C18 C6 1_555 1_555
C19 C16 1_555 1_555
C20 C19 1_555 1_555
N1 C8 1_555 1_555
N2 C2 1_555 1_555
N3 C16 1_555 1_555
H15 N3 1_555 1_555
O1 C1 1_555 1_555
O2 C1 1_555 1_555
C21 H18 1_555 1_555
O3 C21 1_555 1_555
H19 O3 1_555 1_555
H18F C21 1_555 1_555
O3F C21 1_555 1_555
H19F O3F 1_555 1_555
C13 C14 1_555 1_555
C15 N2 1_555 1_555
C15 O2 1_555 1_555
C17 N3 1_555 1_555
C17 C18 1_555 1_555
C18 C19 1_555 1_555
C20 N1 1_555 1_555
O3 O3F 1_555 1_555

#END
