
#######################################################################
#
#                 Cambridge Crystallographic Data Centre
#                                CCDC 
#
#######################################################################
#
# If this CIF has been generated from an entry in the Cambridge 
# Structural Database, then it will include bibliographic, chemical, 
# crystal, experimental, refinement or atomic coordinate data resulting 
# from the CCDC's data processing and validation procedures.
#
#######################################################################

data_IXEGIB
_chemical_formula_moiety         'C24 H22 O4'
_chemical_name_systematic        2,7-Di-t-butyl-pyrene-4,5,9,10-tetrone
_symmetry_cell_setting           triclinic
_symmetry_space_group_name_H-M   'P -1'
_symmetry_Int_Tables_number      2
_space_group_name_Hall           '-P 1'
loop_
_symmetry_equiv_pos_site_id
_symmetry_equiv_pos_as_xyz
1 x,y,z
2 -x,-y,-z
_cell_length_a                   6.3273(4)
_cell_length_b                   9.0975(6)
_cell_length_c                   9.2448(6)
_cell_angle_alpha                64.8739(14)
_cell_angle_beta                 81.6571(12)
_cell_angle_gamma                72.5434(13)
_cell_volume                     459.514
_exptl_crystal_colour            red
_exptl_crystal_description       plate
_cell_formula_units_Z            1
loop_
_atom_site_label
_atom_site_type_symbol
_atom_site_fract_x
_atom_site_fract_y
_atom_site_fract_z
O1 O 1.0452(7) 0.1633(5) 1.0306(5)
O2 O 1.0568(7) 0.3415(5) 1.2017(5)
C1 C 0.5010(9) 0.4565(7) 0.9483(7)
C2 C 0.6852(9) 0.3297(7) 0.9368(8)
C3 C 0.4989(9) 0.2864(7) 0.7495(7)
C4 C 0.3163(9) 0.4967(7) 0.8555(8)
C5 C 0.8840(9) 0.2780(7) 1.0305(7)
C6 C 0.889(1) 0.3724(7) 1.1345(7)
C7 C 0.4969(9) 0.1867(7) 0.6523(7)
C8 C 0.6806(9) 0.2478(7) 0.8413(8)
C9 C 0.3177(9) 0.4127(7) 0.7599(7)
H1 H 0.8082(9) 0.1607(7) 0.8397(8)
H2 H 0.1886(9) 0.4412(7) 0.7020(7)
C10 C 0.725(1) 0.1456(7) 0.5712(7)
H3 H 0.720(1) 0.0844(7) 0.5110(7)
H4 H 0.833(1) 0.0793(7) 0.6516(7)
H5 H 0.763(1) 0.2468(7) 0.5025(7)
C11 C 0.440(1) 0.0216(7) 0.7659(7)
H6 H 0.437(1) -0.0417(7) 0.7070(7)
H7 H 0.549(1) -0.0421(7) 0.8459(7)
H8 H 0.299(1) 0.0465(7) 0.8148(7)
C12 C 0.322(1) 0.2854(7) 0.5206(7)
H9 H 0.325(1) 0.2199(7) 0.4627(7)
H10 H 0.353(1) 0.3888(7) 0.4499(7)
H11 H 0.179(1) 0.3078(7) 0.5684(7)
C1A C 0.4990(9) 0.5435(7) 1.0517(7)
C2A C 0.3148(9) 0.6703(7) 1.0632(8)
C5A C 0.1160(9) 0.7220(7) 0.9695(7)
O1A O -0.0452(7) 0.8367(5) 0.9694(5)
C6A C 0.111(1) 0.6276(7) 0.8655(7)
O2A O -0.0568(7) 0.6585(5) 0.7983(5)
C8A C 0.3194(9) 0.7522(7) 1.1587(8)
C3A C 0.5011(9) 0.7136(7) 1.2505(7)
C7A C 0.5031(9) 0.8133(7) 1.3477(7)
C10A C 0.275(1) 0.8544(7) 1.4288(7)
H3A H 0.280(1) 0.9156(7) 1.4890(7)
H4A H 0.167(1) 0.9207(7) 1.3484(7)
H5A H 0.237(1) 0.7532(7) 1.4975(7)
C11A C 0.560(1) 0.9784(7) 1.2341(7)
H6A H 0.563(1) 1.0417(7) 1.2930(7)
H7A H 0.451(1) 1.0421(7) 1.1541(7)
H8A H 0.701(1) 0.9535(7) 1.1852(7)
C12A C 0.678(1) 0.7146(7) 1.4794(7)
H9A H 0.675(1) 0.7801(7) 1.5373(7)
H10A H 0.647(1) 0.6112(7) 1.5501(7)
H11A H 0.821(1) 0.6922(7) 1.4316(7)
C9A C 0.6823(9) 0.5873(7) 1.2401(7)
C4A C 0.6837(9) 0.5033(7) 1.1445(8)
H2A H 0.8114(9) 0.5588(7) 1.2980(7)
H1A H 0.1918(9) 0.8393(7) 1.1603(8)
loop_
_geom_bond_atom_site_label_1
_geom_bond_atom_site_label_2
_geom_bond_site_symmetry_1
_geom_bond_site_symmetry_2
O1 C5 1_555 1_555
O2 C6 1_555 1_555
C1 C2 1_555 1_555
C2 C5 1_555 1_555
C3 C7 1_555 1_555
C4 C1 1_555 1_555
C5 C6 1_555 1_555
C6 C4A 1_555 1_555
C7 C10 1_555 1_555
C8 C2 1_555 1_555
C9 C3 1_555 1_555
H1 C8 1_555 1_555
H2 C9 1_555 1_555
C10 H3 1_555 1_555
H4 C10 1_555 1_555
H5 C10 1_555 1_555
C11 C7 1_555 1_555
H6 C11 1_555 1_555
H7 C11 1_555 1_555
H8 C11 1_555 1_555
C12 C7 1_555 1_555
H9 C12 1_555 1_555
H10 C12 1_555 1_555
H11 C12 1_555 1_555
C1A C1 1_555 1_555
C2A C1A 1_555 1_555
C5A C2A 1_555 1_555
O1A C5A 1_555 1_555
C6A C4 1_555 1_555
O2A C6A 1_555 1_555
C8A C2A 1_555 1_555
C3A C8A 1_555 1_555
C7A C3A 1_555 1_555
C10A C7A 1_555 1_555
H3A C10A 1_555 1_555
H4A C10A 1_555 1_555
H5A C10A 1_555 1_555
C11A C7A 1_555 1_555
H6A C11A 1_555 1_555
H7A C11A 1_555 1_555
H8A C11A 1_555 1_555
C12A C7A 1_555 1_555
H9A C12A 1_555 1_555
H10A C12A 1_555 1_555
H11A C12A 1_555 1_555
C9A C3A 1_555 1_555
C4A C1A 1_555 1_555
H2A C9A 1_555 1_555
H1A C8A 1_555 1_555
C3 C8 1_555 1_555
C4 C9 1_555 1_555
C5A C6A 1_555 1_555
C9A C4A 1_555 1_555

#END
