
#######################################################################
#
#                 Cambridge Crystallographic Data Centre
#                                CCDC 
#
#######################################################################
#
# If this CIF has been generated from an entry in the Cambridge 
# Structural Database, then it will include bibliographic, chemical, 
# crystal, experimental, refinement or atomic coordinate data resulting 
# from the CCDC's data processing and validation procedures.
#
#######################################################################

data_IXEGEX
_chemical_formula_moiety         'C16 H8 O2'
_chemical_name_systematic        Pyrene-4,5-dione
_symmetry_cell_setting           monoclinic
_symmetry_space_group_name_H-M   'P 21/n'
_symmetry_Int_Tables_number      14
_space_group_name_Hall           '-P 2yn'
loop_
_symmetry_equiv_pos_site_id
_symmetry_equiv_pos_as_xyz
1 x,y,z
2 1/2-x,1/2+y,1/2-z
3 -x,-y,-z
4 1/2+x,1/2-y,1/2+z
_cell_length_a                   7.2913(4)
_cell_length_b                   9.0849(5)
_cell_length_c                   15.5725(7)
_cell_angle_alpha                90
_cell_angle_beta                 96.9191(11)
_cell_angle_gamma                90
_cell_volume                     1024.02
_exptl_crystal_colour            red
_exptl_crystal_description       plate
_cell_formula_units_Z            4
loop_
_atom_site_label
_atom_site_type_symbol
_atom_site_fract_x
_atom_site_fract_y
_atom_site_fract_z
O1 O 0.5566(4) 0.7793(3) -0.16204(19)
O2 O 0.5713(4) 0.5067(4) -0.23347(18)
C1 C 0.7660(5) 0.4275(6) -0.0123(2)
C2 C 0.7096(5) 0.4014(5) -0.1012(3)
C3 C 0.8436(5) 0.3098(5) 0.0398(3)
C4 C 0.7456(5) 0.5704(5) 0.0267(2)
C5 C 0.6685(5) 0.6907(5) -0.0228(2)
C6 C 0.8046(5) 0.5896(5) 0.1155(2)
C7 C 0.6277(5) 0.5228(5) -0.1572(3)
C8 C 0.6120(5) 0.6751(5) -0.1158(3)
C9 C 0.7321(5) 0.2648(5) -0.1372(3)
C10 C 0.8092(6) 0.1493(5) -0.0856(3)
C11 C 0.8624(5) 0.1704(5) 0.0010(3)
C12 C 0.6480(5) 0.8250(5) 0.0162(3)
C13 C 0.7056(5) 0.8444(5) 0.1044(3)
C14 C 0.7840(5) 0.7297(5) 0.1532(3)
C15 C 0.9028(5) 0.3363(5) 0.1292(2)
C16 C 0.8864(5) 0.4699(5) 0.1657(3)
H1 H 0.6937(5) 0.2496(5) -0.1970(3)
H2 H 0.8244(6) 0.0555(5) -0.1107(3)
H3 H 0.9141(5) 0.0916(5) 0.0360(3)
H4 H 0.5947(5) 0.9046(5) -0.0176(3)
H5 H 0.6912(5) 0.9372(5) 0.1309(3)
H6 H 0.8242(5) 0.7437(5) 0.2129(3)
H7 H 0.9542(5) 0.2576(5) 0.1644(2)
H8 H 0.9291(5) 0.4841(5) 0.2252(3)
loop_
_geom_bond_atom_site_label_1
_geom_bond_atom_site_label_2
_geom_bond_site_symmetry_1
_geom_bond_site_symmetry_2
O1 C8 1_555 1_555
O2 C7 1_555 1_555
C1 C2 1_555 1_555
C2 C7 1_555 1_555
C3 C1 1_555 1_555
C4 C1 1_555 1_555
C5 C4 1_555 1_555
C6 C4 1_555 1_555
C7 C8 1_555 1_555
C8 C5 1_555 1_555
C9 C2 1_555 1_555
C10 C9 1_555 1_555
C11 C3 1_555 1_555
C12 C5 1_555 1_555
C13 C12 1_555 1_555
C14 C6 1_555 1_555
C15 C3 1_555 1_555
C16 C6 1_555 1_555
H1 C9 1_555 1_555
H2 C10 1_555 1_555
H3 C11 1_555 1_555
H4 C12 1_555 1_555
H5 C13 1_555 1_555
H6 C14 1_555 1_555
H7 C15 1_555 1_555
H8 C16 1_555 1_555
C10 C11 1_555 1_555
C13 C14 1_555 1_555
C15 C16 1_555 1_555

#END
