
#######################################################################
#
#                 Cambridge Crystallographic Data Centre
#                                CCDC 
#
#######################################################################
#
# If this CIF has been generated from an entry in the Cambridge 
# Structural Database, then it will include bibliographic, chemical, 
# crystal, experimental, refinement or atomic coordinate data resulting 
# from the CCDC's data processing and validation procedures.
#
#######################################################################

data_IXEGOH
_chemical_formula_moiety         'C24 H24 O2,0.33(C1 H2 Cl2)'
_chemical_name_systematic        
'2,7-Di-t-butyl-pyrene-4,5-dione dichloromethane solvate'
_symmetry_cell_setting           monoclinic
_symmetry_space_group_name_H-M   'P 21/c'
_symmetry_Int_Tables_number      14
_space_group_name_Hall           '-P 2ybc'
loop_
_symmetry_equiv_pos_site_id
_symmetry_equiv_pos_as_xyz
1 x,y,z
2 x,1/2-y,1/2+z
3 -x,-y,-z
4 -x,1/2+y,1/2-z
_cell_length_a                   10.7680(5)
_cell_length_b                   24.6505(8)
_cell_length_c                   22.3453(8)
_cell_angle_alpha                90
_cell_angle_beta                 92.6010(13)
_cell_angle_gamma                90
_cell_volume                     5925.15
_exptl_crystal_colour            red
_exptl_crystal_description       prism
_cell_formula_units_Z            12
loop_
_atom_site_label
_atom_site_type_symbol
_atom_site_fract_x
_atom_site_fract_y
_atom_site_fract_z
Cl1 Cl 0.01315(16) 0.70034(6) 0.12573(7)
Cl2 Cl 0.19549(15) 0.77823(6) 0.08761(8)
C1 C 0.0403(5) 0.76716(18) 0.1040(2)
H1 H 0.0173(5) 0.79129(18) 0.1349(2)
H2 H -0.0098(5) 0.77403(18) 0.0685(2)
O1 O 0.2038(4) 0.43101(16) -0.10266(18)
O2 O 0.2606(4) 0.53522(15) -0.07580(18)
C2 C 0.2563(4) 0.5414(2) -0.2373(3)
C3 C 0.2381(4) 0.4846(2) -0.2515(2)
C4 C 0.2219(5) 0.4457(2) -0.2066(2)
C5 C 0.2217(5) 0.4627(2) -0.1435(3)
C6 C 0.2496(5) 0.5228(2) -0.1293(3)
C7 C 0.2665(5) 0.5602(2) -0.1784(3)
C8 C 0.2703(4) 0.5785(2) -0.2846(3)
C9 C 0.2378(4) 0.4677(2) -0.3107(2)
C10 C 0.2145(4) 0.37276(19) -0.2811(2)
C11 C 0.3076(4) 0.6524(2) -0.2120(3)
C12 C 0.2060(5) 0.31204(19) -0.2950(2)
C13 C 0.3342(5) 0.7124(2) -0.1998(3)
C14 C 0.2644(4) 0.5598(2) -0.3450(2)
C15 C 0.2500(4) 0.5067(2) -0.3582(2)
C16 C 0.2096(5) 0.3909(2) -0.2221(3)
C17 C 0.2296(4) 0.4116(2) -0.3247(2)
C18 C 0.2912(4) 0.6148(2) -0.1666(3)
C19 C 0.2941(5) 0.6334(2) -0.2699(3)
H3 H 0.2650(4) 0.5866(2) -0.3757(2)
H4 H 0.2492(4) 0.4951(2) -0.3989(2)
H5 H 0.2033(5) 0.3648(2) -0.1909(3)
H6 H 0.2307(4) 0.4004(2) -0.3655(2)
H7 H 0.3012(4) 0.6264(2) -0.1259(3)
H8 H 0.3016(5) 0.6581(2) -0.3024(3)
C20 C 0.2668(5) 0.27800(19) -0.2441(3)
H9 H 0.2599(5) 0.24067(19) -0.2547(3)
H10 H 0.3522(5) 0.28730(19) -0.2377(3)
H11 H 0.2244(5) 0.28435(19) -0.2083(3)
C21 C 0.2668(5) 0.2984(2) -0.3539(2)
H12 H 0.2592(5) 0.2603(2) -0.3603(2)
H13 H 0.2237(5) 0.3172(2) -0.3859(2)
H14 H 0.3523(5) 0.3083(2) -0.3526(2)
C22 C 0.0681(5) 0.2969(2) -0.3013(2)
H15 H 0.0640(5) 0.2591(2) -0.3101(2)
H16 H 0.0275(5) 0.3168(2) -0.3332(2)
H17 H 0.0282(5) 0.3039(2) -0.2649(2)
C23 C 0.2131(5) 0.7423(2) -0.1966(3)
H18 H 0.2277(5) 0.7797(2) -0.1883(3)
H19 H 0.1686(5) 0.7387(2) -0.2343(3)
H20 H 0.1656(5) 0.7270(2) -0.1659(3)
C24 C 0.4083(7) 0.7199(2) -0.1409(3)
H21 H 0.4249(7) 0.7572(2) -0.1328(3)
H22 H 0.4846(7) 0.7004(2) -0.1412(3)
H23 H 0.3584(7) 0.7055(2) -0.1106(3)
C25 C 0.4089(7) 0.7367(2) -0.2488(4)
H24 H 0.4255(7) 0.7739(2) -0.2402(4)
H25 H 0.3619(7) 0.7339(2) -0.2859(4)
H26 H 0.4853(7) 0.7177(2) -0.2514(4)
O3 O -0.0257(3) 0.61037(13) -0.37814(17)
O4 O -0.0345(3) 0.66856(13) -0.27583(15)
C26 C -0.0781(4) 0.53331(19) -0.2166(2)
C27 C -0.0917(4) 0.5036(2) -0.2721(2)
C28 C -0.0764(4) 0.52805(19) -0.3290(2)
C29 C -0.0471(4) 0.5867(2) -0.3318(2)
C30 C -0.0437(4) 0.61899(19) -0.2720(2)
C31 C -0.0553(4) 0.5893(2) -0.2163(2)
C32 C -0.0904(4) 0.5057(2) -0.1624(2)
C33 C -0.1202(4) 0.44727(18) -0.2711(2)
C34 C -0.1259(5) 0.44351(19) -0.3808(3)
C35 C -0.0543(5) 0.59057(19) -0.1073(2)
C36 C -0.1430(5) 0.4129(2) -0.4399(2)
C37 C -0.0446(5) 0.6228(2) -0.0485(2)
C38 C -0.1168(4) 0.44886(19) -0.1624(2)
C39 C -0.1328(4) 0.42172(19) -0.2150(2)
C40 C -0.0932(4) 0.49831(19) -0.3811(2)
C41 C -0.1395(4) 0.4193(2) -0.3257(2)
C42 C -0.0426(4) 0.6174(2) -0.1624(2)
C43 C -0.0773(4) 0.53566(19) -0.1089(2)
H27 H -0.1234(4) 0.42937(19) -0.1259(2)
H28 H -0.1542(4) 0.38424(19) -0.2152(2)
H29 H -0.0827(4) 0.51546(19) -0.4188(2)
H30 H -0.1582(4) 0.3816(2) -0.3244(2)
H31 H -0.0319(4) 0.6557(2) -0.1622(2)
H32 H -0.0844(4) 0.51834(19) -0.0711(2)
C44 C -0.2210(5) 0.4459(2) -0.4853(2)
H33 H -0.2325(5) 0.4263(2) -0.5220(2)
H34 H -0.1778(5) 0.4788(2) -0.4924(2)
H35 H -0.2998(5) 0.4539(2) -0.4700(2)
C45 C -0.2047(5) 0.35757(18) -0.4320(2)
H36 H -0.2155(5) 0.34001(18) -0.4699(2)
H37 H -0.2834(5) 0.36208(18) -0.4150(2)
H38 H -0.1524(5) 0.33604(18) -0.4058(2)
C46 C -0.0135(5) 0.4039(2) -0.4653(2)
H39 H -0.0187(5) 0.3849(2) -0.5025(2)
H40 H 0.0252(5) 0.4382(2) -0.4706(2)
H41 H 0.0342(5) 0.3832(2) -0.4364(2)
C47 C 0.0482(5) 0.6700(2) -0.0521(2)
H42 H 0.0534(5) 0.6880(2) -0.0143(2)
H43 H 0.0163(5) 0.6943(2) -0.0822(2)
H44 H 0.1288(5) 0.6581(2) -0.0620(2)
C48 C -0.0001(6) 0.5861(2) 0.0030(2)
H45 H 0.0055(6) 0.6067(2) 0.0391(2)
H46 H 0.0798(6) 0.5721(2) -0.0051(2)
H47 H -0.0566(6) 0.5568(2) 0.0074(2)
C49 C -0.1734(5) 0.6442(2) -0.0350(3)
H48 H -0.1669(5) 0.6632(2) 0.0022(3)
H49 H -0.2005(5) 0.6685(2) -0.0661(3)
H50 H -0.2319(5) 0.6155(2) -0.0324(3)
O5 O -0.4556(3) 0.36628(14) -0.30753(16)
O6 O -0.4861(3) 0.43728(13) -0.40016(17)
C50 C -0.4093(4) 0.52891(19) -0.2770(3)
C51 C -0.4259(4) 0.4927(2) -0.2268(2)
C52 C -0.4475(5) 0.4372(2) -0.2358(3)
C53 C -0.4533(4) 0.4149(2) -0.2964(2)
C54 C -0.4568(4) 0.4541(2) -0.3494(3)
C55 C -0.4264(4) 0.5123(2) -0.3369(3)
C56 C -0.3804(5) 0.5845(2) -0.2663(3)
C57 C -0.4148(5) 0.5129(2) -0.1674(3)
C58 C -0.4541(4) 0.4234(2) -0.1281(2)
C59 C -0.3821(4) 0.60214(19) -0.3745(2)
C60 C -0.4642(5) 0.3850(2) -0.0747(2)
C61 C -0.3706(5) 0.6414(2) -0.4272(2)
C62 C -0.3677(4) 0.60333(19) -0.2061(3)
C63 C -0.3866(4) 0.5699(2) -0.1602(2)
C64 C -0.4610(4) 0.4035(2) -0.1867(3)
C65 C -0.4310(5) 0.4776(2) -0.1204(2)
C66 C -0.4128(4) 0.5472(2) -0.3842(3)
C67 C -0.3661(4) 0.6195(2) -0.3165(3)
H51 H -0.3453(4) 0.64013(19) -0.1984(3)
H52 H -0.3814(4) 0.5832(2) -0.1201(2)
H53 H -0.4762(4) 0.3660(2) -0.1937(3)
H54 H -0.4270(5) 0.4926(2) -0.0810(2)
H55 H -0.4304(4) 0.5350(2) -0.4242(3)
H56 H -0.3435(4) 0.6563(2) -0.3087(3)
C68 C -0.3337(5) 0.3617(2) -0.0593(3)
H57 H -0.3369(5) 0.3372(2) -0.0265(3)
H58 H -0.2784(5) 0.3907(2) -0.0489(3)
H59 H -0.3051(5) 0.3431(2) -0.0934(3)
C69 C -0.5083(5) 0.4140(2) -0.0191(2)
H60 H -0.5154(5) 0.3889(2) 0.0131(2)
H61 H -0.5871(5) 0.4301(2) -0.0286(2)
H62 H -0.4499(5) 0.4415(2) -0.0075(2)
C70 C -0.5541(6) 0.3378(2) -0.0891(2)
H63 H -0.5564(6) 0.3159(2) -0.0541(2)
H64 H -0.6354(6) 0.3511(2) -0.0994(2)
H65 H -0.5253(6) 0.3167(2) -0.1214(2)
C71 C -0.5018(5) 0.6539(2) -0.4529(3)
H66 H -0.4950(5) 0.6782(2) -0.4858(3)
H67 H -0.5503(5) 0.6702(2) -0.4233(3)
H68 H -0.5407(5) 0.6212(2) -0.4667(3)
C72 C -0.2959(5) 0.6153(2) -0.4759(2)
H69 H -0.2896(5) 0.6398(2) -0.5086(2)
H70 H -0.3364(5) 0.5830(2) -0.4896(2)
H71 H -0.2150(5) 0.6067(2) -0.4596(2)
C73 C -0.3085(5) 0.69484(18) -0.4096(2)
H72 H -0.3042(5) 0.71762(18) -0.4439(2)
H73 H -0.3550(5) 0.71256(18) -0.3801(2)
H74 H -0.2268(5) 0.68757(18) -0.3935(2)
loop_
_geom_bond_atom_site_label_1
_geom_bond_atom_site_label_2
_geom_bond_site_symmetry_1
_geom_bond_site_symmetry_2
Cl1 C1 1_555 1_555
Cl2 C1 1_555 1_555
C1 H1 1_555 1_555
H2 C1 1_555 1_555
O1 C5 1_555 1_555
O2 C6 1_555 1_555
C2 C3 1_555 1_555
C3 C4 1_555 1_555
C4 C5 1_555 1_555
C5 C6 1_555 1_555
C6 C7 1_555 1_555
C7 C2 1_555 1_555
C8 C2 1_555 1_555
C9 C3 1_555 1_555
C10 C12 1_555 1_555
C11 C13 1_555 1_555
C12 C20 1_555 1_555
C13 C23 1_555 1_555
C14 C8 1_555 1_555
C15 C9 1_555 1_555
C16 C4 1_555 1_555
C17 C9 1_555 1_555
C18 C7 1_555 1_555
C19 C8 1_555 1_555
H3 C14 1_555 1_555
H4 C15 1_555 1_555
H5 C16 1_555 1_555
H6 C17 1_555 1_555
H7 C18 1_555 1_555
H8 C19 1_555 1_555
C20 H9 1_555 1_555
H10 C20 1_555 1_555
H11 C20 1_555 1_555
C21 C12 1_555 1_555
H12 C21 1_555 1_555
H13 C21 1_555 1_555
H14 C21 1_555 1_555
C22 C12 1_555 1_555
H15 C22 1_555 1_555
H16 C22 1_555 1_555
H17 C22 1_555 1_555
C23 H18 1_555 1_555
H19 C23 1_555 1_555
H20 C23 1_555 1_555
C24 C13 1_555 1_555
H21 C24 1_555 1_555
H22 C24 1_555 1_555
H23 C24 1_555 1_555
C25 C13 1_555 1_555
H24 C25 1_555 1_555
H25 C25 1_555 1_555
H26 C25 1_555 1_555
O3 C29 1_555 1_555
O4 C30 1_555 1_555
C26 C27 1_555 1_555
C27 C28 1_555 1_555
C28 C29 1_555 1_555
C29 C30 1_555 1_555
C30 C31 1_555 1_555
C31 C26 1_555 1_555
C32 C26 1_555 1_555
C33 C27 1_555 1_555
C34 C36 1_555 1_555
C35 C37 1_555 1_555
C36 C44 1_555 1_555
C37 C47 1_555 1_555
C38 C32 1_555 1_555
C39 C33 1_555 1_555
C40 C28 1_555 1_555
C41 C33 1_555 1_555
C42 C31 1_555 1_555
C43 C32 1_555 1_555
H27 C38 1_555 1_555
H28 C39 1_555 1_555
H29 C40 1_555 1_555
H30 C41 1_555 1_555
H31 C42 1_555 1_555
H32 C43 1_555 1_555
C44 H33 1_555 1_555
H34 C44 1_555 1_555
H35 C44 1_555 1_555
C45 C36 1_555 1_555
H36 C45 1_555 1_555
H37 C45 1_555 1_555
H38 C45 1_555 1_555
C46 C36 1_555 1_555
H39 C46 1_555 1_555
H40 C46 1_555 1_555
H41 C46 1_555 1_555
C47 H42 1_555 1_555
H43 C47 1_555 1_555
H44 C47 1_555 1_555
C48 C37 1_555 1_555
H45 C48 1_555 1_555
H46 C48 1_555 1_555
H47 C48 1_555 1_555
C49 C37 1_555 1_555
H48 C49 1_555 1_555
H49 C49 1_555 1_555
H50 C49 1_555 1_555
O5 C53 1_555 1_555
O6 C54 1_555 1_555
C50 C51 1_555 1_555
C51 C52 1_555 1_555
C52 C53 1_555 1_555
C53 C54 1_555 1_555
C54 C55 1_555 1_555
C55 C50 1_555 1_555
C56 C50 1_555 1_555
C57 C51 1_555 1_555
C58 C60 1_555 1_555
C59 C61 1_555 1_555
C60 C68 1_555 1_555
C61 C71 1_555 1_555
C62 C56 1_555 1_555
C63 C57 1_555 1_555
C64 C52 1_555 1_555
C65 C57 1_555 1_555
C66 C55 1_555 1_555
C67 C56 1_555 1_555
H51 C62 1_555 1_555
H52 C63 1_555 1_555
H53 C64 1_555 1_555
H54 C65 1_555 1_555
H55 C66 1_555 1_555
H56 C67 1_555 1_555
C68 H57 1_555 1_555
H58 C68 1_555 1_555
H59 C68 1_555 1_555
C69 C60 1_555 1_555
H60 C69 1_555 1_555
H61 C69 1_555 1_555
H62 C69 1_555 1_555
C70 C60 1_555 1_555
H63 C70 1_555 1_555
H64 C70 1_555 1_555
H65 C70 1_555 1_555
C71 H66 1_555 1_555
H67 C71 1_555 1_555
H68 C71 1_555 1_555
C72 C61 1_555 1_555
H69 C72 1_555 1_555
H70 C72 1_555 1_555
H71 C72 1_555 1_555
C73 C61 1_555 1_555
H72 C73 1_555 1_555
H73 C73 1_555 1_555
H74 C73 1_555 1_555
C10 C17 1_555 1_555
C10 C16 1_555 1_555
C11 C18 1_555 1_555
C11 C19 1_555 1_555
C14 C15 1_555 1_555
C34 C41 1_555 1_555
C34 C40 1_555 1_555
C35 C42 1_555 1_555
C35 C43 1_555 1_555
C38 C39 1_555 1_555
C58 C65 1_555 1_555
C58 C64 1_555 1_555
C59 C66 1_555 1_555
C59 C67 1_555 1_555
C62 C63 1_555 1_555

#END
