
#######################################################################
#
#                 Cambridge Crystallographic Data Centre
#                                CCDC 
#
#######################################################################
#
# If this CIF has been generated from an entry in the Cambridge 
# Structural Database, then it will include bibliographic, chemical, 
# crystal, experimental, refinement or atomic coordinate data resulting 
# from the CCDC's data processing and validation procedures.
#
#######################################################################

data_IXEROS
_chemical_formula_moiety         'C16 H19 N1 O4'
_chemical_name_systematic        
1-Acetyl-3'-butoxyspiro(indole-3,2'-oxetan)-2(1H)-one
_symmetry_cell_setting           triclinic
_symmetry_space_group_name_H-M   'P -1'
_symmetry_Int_Tables_number      2
_space_group_name_Hall           '-P 1'
loop_
_symmetry_equiv_pos_site_id
_symmetry_equiv_pos_as_xyz
1 x,y,z
2 -x,-y,-z
_cell_length_a                   8.2141(8)
_cell_length_b                   8.7676(8)
_cell_length_c                   12.0117(11)
_cell_angle_alpha                104.046(2)
_cell_angle_beta                 105.633(2)
_cell_angle_gamma                101.122(2)
_cell_volume                     776.646
_exptl_crystal_colour            colorless
_exptl_crystal_description       slab
_cell_formula_units_Z            2
loop_
_atom_site_label
_atom_site_type_symbol
_atom_site_fract_x
_atom_site_fract_y
_atom_site_fract_z
O1 O -0.1696(4) 0.3746(4) 0.5150(3)
O2 O 0.2658(5) 0.1886(5) 0.5929(3)
O3 O 0.2406(4) -0.0576(3) 0.3702(3)
O4 O 0.3586(3) 0.2288(4) 0.2601(3)
N1 N 0.0134(4) 0.2257(4) 0.4671(3)
C1 C 0.0208(5) 0.0808(5) 0.2814(4)
C2 C -0.0442(6) 0.0022(6) 0.1564(4)
H1 H 0.0186 -0.0577 0.1183
C3 C -0.2041(6) 0.0153(6) 0.0903(4)
H2 H -0.2488 -0.0337 0.0064
C4 C -0.2978(6) 0.1011(7) 0.1488(5)
H3 H -0.4056 0.1077 0.1029
C5 C -0.2378(5) 0.1765(5) 0.2715(4)
H4 H -0.3028 0.2338 0.3091
C6 C -0.0763(5) 0.1648(5) 0.3385(4)
C7 C -0.0378(6) 0.3307(5) 0.5517(4)
C8 C 0.0724(6) 0.3860(6) 0.6821(4)
H5 H 0.1687 0.3378 0.6915
H6 H 0.0025 0.3530 0.7290
H7 H 0.1173 0.5030 0.7099
C9 C 0.1668(5) 0.1720(5) 0.4934(4)
C10 C 0.1886(5) 0.0905(5) 0.3729(4)
C11 C 0.3927(6) 0.0006(6) 0.3373(5)
H8 H 0.3798 -0.0531 0.2534
H9 H 0.5021 -0.0026 0.3920
C12 C 0.3672(5) 0.1705(5) 0.3586(4)
H10 H 0.4514 0.2487 0.4350
C13 C 0.3537(7) 0.3948(6) 0.2852(5)
H11 H 0.4637 0.4669 0.3450
H12 H 0.2585 0.4101 0.3162
C14 C 0.3240(15) 0.4302(10) 0.1628(9)
H13 H 0.4190 0.4078 0.1339
H14 H 0.2162 0.3514 0.1053
C15 C 0.3141(18) 0.5639(17) 0.1574(10)
H15 H 0.4214 0.6435 0.2148
H16 H 0.2180 0.5865 0.1849
C16 C 0.2861(17) 0.5927(17) 0.0331(9)
H17 H 0.2806 0.7031 0.0410
H18 H 0.1780 0.5180 -0.0245
H19 H 0.3822 0.5751 0.0054
loop_
_geom_bond_atom_site_label_1
_geom_bond_atom_site_label_2
_geom_bond_site_symmetry_1
_geom_bond_site_symmetry_2
O1 C7 1_555 1_555
O2 C9 1_555 1_555
O3 C10 1_555 1_555
O4 C12 1_555 1_555
N1 C6 1_555 1_555
C1 C2 1_555 1_555
C2 H1 1_555 1_555
C3 C2 1_555 1_555
H2 C3 1_555 1_555
C4 C3 1_555 1_555
H3 C4 1_555 1_555
C5 C4 1_555 1_555
H4 C5 1_555 1_555
C6 C1 1_555 1_555
C7 N1 1_555 1_555
C8 C7 1_555 1_555
H5 C8 1_555 1_555
H6 C8 1_555 1_555
H7 C8 1_555 1_555
C9 N1 1_555 1_555
C10 C1 1_555 1_555
C11 O3 1_555 1_555
H8 C11 1_555 1_555
H9 C11 1_555 1_555
C12 C10 1_555 1_555
H10 C12 1_555 1_555
C13 O4 1_555 1_555
H11 C13 1_555 1_555
H12 C13 1_555 1_555
C14 C13 1_555 1_555
H13 C14 1_555 1_555
H14 C14 1_555 1_555
C15 C14 1_555 1_555
H15 C15 1_555 1_555
H16 C15 1_555 1_555
C16 C15 1_555 1_555
H17 C16 1_555 1_555
H18 C16 1_555 1_555
H19 C16 1_555 1_555
C5 C6 1_555 1_555
C9 C10 1_555 1_555
C11 C12 1_555 1_555

#END
