
#######################################################################
#
#                 Cambridge Crystallographic Data Centre
#                                CCDC 
#
#######################################################################
#
# If this CIF has been generated from an entry in the Cambridge 
# Structural Database, then it will include bibliographic, chemical, 
# crystal, experimental, refinement or atomic coordinate data resulting 
# from the CCDC's data processing and validation procedures.
#
#######################################################################

data_IXEREI
_chemical_formula_moiety         'C24 H18 N2 O7'
_chemical_name_systematic        
1,1''-Diacetyldispiro(indole-3,3'-(4,6,9)trioxatricyclo(5.2.0.0^2,5^)nonane-8',3''-indole)-2,2''(1H,1''H)-dione
_symmetry_cell_setting           monoclinic
_symmetry_space_group_name_H-M   'P 21'
_symmetry_Int_Tables_number      4
_space_group_name_Hall           'P 2yb'
loop_
_symmetry_equiv_pos_site_id
_symmetry_equiv_pos_as_xyz
1 x,y,z
2 -x,1/2+y,-z
_cell_length_a                   9.0926(4)
_cell_length_b                   9.1306(4)
_cell_length_c                   12.1838(5)
_cell_angle_alpha                90
_cell_angle_beta                 98.030(1)
_cell_angle_gamma                90
_cell_volume                     1001.59
_exptl_crystal_colour            colorless
_exptl_crystal_description       needle
_cell_formula_units_Z            2
loop_
_atom_site_label
_atom_site_type_symbol
_atom_site_fract_x
_atom_site_fract_y
_atom_site_fract_z
O1 O 0.0579(3) 0.4073(4) -0.0008(2)
O2 O 0.2909(3) 0.4431(4) 0.2035(2)
O3 O 0.1623(3) 0.3823(4) 0.3531(2)
O4 O -0.3401(5) 0.1633(5) 0.5084(4)
O5 O -0.1327(4) 0.5123(4) 0.3794(3)
O6 O 0.2538(4) 0.2011(4) -0.1043(3)
O7 O 0.5446(4) 0.4655(5) -0.2517(3)
N1 N -0.1854(3) 0.2632(4) 0.4008(3)
N2 N 0.3628(3) 0.4222(4) -0.1477(3)
C1 C 0.0046(5) 0.1649(5) 0.3171(3)
C2 C 0.0928(6) 0.0532(6) 0.2839(4)
H1 H 0.1730 0.0745 0.2469
C3 C 0.0596(7) -0.0872(6) 0.3067(4)
H2 H 0.1182 -0.1627 0.2855
C4 C -0.0587(7) -0.1196(5) 0.3604(4)
H3 H -0.0798 -0.2174 0.3728
C5 C -0.1482(5) -0.0131(5) 0.3970(4)
H4 H -0.2271 -0.0362 0.4348
C6 C -0.1130(5) 0.1311(4) 0.3738(3)
C7 C -0.1062(5) 0.3832(4) 0.3672(3)
C8 C 0.0175(4) 0.3244(5) 0.3061(3)
C9 C 0.0263(4) 0.4103(4) 0.1964(3)
H5 H -0.0547 0.4796 0.1743
C10 C 0.1701(5) 0.4770(5) 0.2606(4)
H6 H 0.1618 0.5813 0.2778
C11 C 0.2468(4) 0.3437(5) 0.1146(3)
H7 H 0.3048 0.2530 0.1163
C12 C 0.0778(4) 0.3233(5) 0.1031(3)
H8 H 0.0433 0.2216 0.0968
C13 C 0.2161(4) 0.4223(5) -0.0019(3)
C14 C 0.2678(4) 0.5737(5) -0.0218(3)
C15 C 0.2397(5) 0.7030(5) 0.0282(4)
H9 H 0.1866 0.7044 0.0882
C16 C 0.2918(5) 0.8312(6) -0.0123(5)
H10 H 0.2733 0.9202 0.0203
C17 C 0.3717(5) 0.8281(6) -0.1012(4)
H11 H 0.4046 0.9155 -0.1284
C18 C 0.4039(5) 0.6952(6) -0.1512(4)
H12 H 0.4598 0.6927 -0.2095
C19 C 0.3504(4) 0.5715(5) -0.1109(3)
C20 C 0.2749(5) 0.3301(5) -0.0918(4)
C21 C 0.4605(5) 0.3775(5) -0.2237(4)
C22 C 0.4491(6) 0.2274(6) -0.2650(4)
H13 H 0.3746 0.1760 -0.2315
H14 H 0.5430 0.1790 -0.2466
H15 H 0.4220 0.2284 -0.3440
C23 C -0.3077(5) 0.2715(6) 0.4610(4)
C24 C -0.3901(7) 0.4033(8) 0.4631(6)
H16 H -0.3478 0.4770 0.4209
H17 H -0.3867 0.4358 0.5384
H18 H -0.4914 0.3861 0.4316
loop_
_geom_bond_atom_site_label_1
_geom_bond_atom_site_label_2
_geom_bond_site_symmetry_1
_geom_bond_site_symmetry_2
O1 C12 1_555 1_555
O2 C10 1_555 1_555
O3 C8 1_555 1_555
O4 C23 1_555 1_555
O5 C7 1_555 1_555
O6 C20 1_555 1_555
O7 C21 1_555 1_555
N1 C6 1_555 1_555
N2 C19 1_555 1_555
C1 C2 1_555 1_555
C2 H1 1_555 1_555
C3 C2 1_555 1_555
H2 C3 1_555 1_555
C4 C3 1_555 1_555
H3 C4 1_555 1_555
C5 C4 1_555 1_555
H4 C5 1_555 1_555
C6 C1 1_555 1_555
C7 N1 1_555 1_555
C8 C1 1_555 1_555
C9 C8 1_555 1_555
H5 C9 1_555 1_555
C10 O3 1_555 1_555
H6 C10 1_555 1_555
C11 O2 1_555 1_555
H7 C11 1_555 1_555
C12 C9 1_555 1_555
H8 C12 1_555 1_555
C13 O1 1_555 1_555
C14 C13 1_555 1_555
C15 C14 1_555 1_555
H9 C15 1_555 1_555
C16 C15 1_555 1_555
H10 C16 1_555 1_555
C17 C16 1_555 1_555
H11 C17 1_555 1_555
C18 C17 1_555 1_555
H12 C18 1_555 1_555
C19 C14 1_555 1_555
C20 N2 1_555 1_555
C21 N2 1_555 1_555
C22 C21 1_555 1_555
H13 C22 1_555 1_555
H14 C22 1_555 1_555
H15 C22 1_555 1_555
C23 N1 1_555 1_555
C24 C23 1_555 1_555
H16 C24 1_555 1_555
H17 C24 1_555 1_555
H18 C24 1_555 1_555
C5 C6 1_555 1_555
C7 C8 1_555 1_555
C9 C10 1_555 1_555
C11 C12 1_555 1_555
C11 C13 1_555 1_555
C13 C20 1_555 1_555
C18 C19 1_555 1_555

#END
