
#######################################################################
#
#                 Cambridge Crystallographic Data Centre
#                                CCDC 
#
#######################################################################
#
# If this CIF has been generated from an entry in the Cambridge 
# Structural Database, then it will include bibliographic, chemical, 
# crystal, experimental, refinement or atomic coordinate data resulting 
# from the CCDC's data processing and validation procedures.
#
#######################################################################

data_IXERIM
_chemical_formula_moiety         'C22 H23 N1 O6'
_chemical_name_systematic        
1-Acetyl-3-hydroxy-3-(2-(4-hydroxybutoxy)-2,3-dihydro-1-benzofuran-3-yl)-1,3-dihydro-2H-indol-2-one
_symmetry_cell_setting           monoclinic
_symmetry_space_group_name_H-M   'P 21/c'
_symmetry_Int_Tables_number      14
_space_group_name_Hall           '-P 2ybc'
loop_
_symmetry_equiv_pos_site_id
_symmetry_equiv_pos_as_xyz
1 x,y,z
2 x,1/2-y,1/2+z
3 -x,-y,-z
4 -x,1/2+y,1/2-z
_cell_length_a                   19.817(1)
_cell_length_b                   11.7579(6)
_cell_length_c                   8.9452(3)
_cell_angle_alpha                90
_cell_angle_beta                 96.358(2)
_cell_angle_gamma                90
_cell_volume                     2071.47
_exptl_crystal_colour            colorless
_exptl_crystal_description       plate
_cell_formula_units_Z            4
loop_
_atom_site_label
_atom_site_type_symbol
_atom_site_fract_x
_atom_site_fract_y
_atom_site_fract_z
O1 O 0.3208(2) 0.0858(5) 0.1028(5)
O2 O 0.3108(2) 0.2643(4) 0.2144(5)
O3 O 0.13766(19) 0.2375(3) 0.0415(4)
H1 H 0.0990 0.2401 -0.0019
O4 O 0.0761(2) 0.1241(4) 0.2898(5)
O5 O 0.0001(2) -0.1711(4) 0.0902(5)
C1 C 0.1086(3) -0.0500(5) -0.0075(6)
N1 N 0.0756(2) -0.0280(4) 0.1240(4)
C2 C 0.1018(3) -0.1423(5) -0.1035(7)
H2 H 0.0724 -0.2018 -0.0879
C3 C 0.1398(4) -0.1433(7) -0.2224(7)
H3 H 0.1351 -0.2041 -0.2891
C4 C 0.1841(4) -0.0583(7) -0.2466(7)
H4 H 0.2097 -0.0623 -0.3276
C5 C 0.1909(3) 0.0343(6) -0.1498(6)
H5 H 0.2206 0.0931 -0.1661
C6 C 0.1532(3) 0.0384(5) -0.0289(6)
C7 C 0.1521(3) 0.1263(5) 0.0924(6)
C8 C 0.0963(3) 0.0781(5) 0.1833(7)
C9 C 0.2183(3) 0.1345(6) 0.1997(7)
H6 H 0.2107 0.1838 0.2846
C10 C 0.2450(3) 0.0227(6) 0.2586(7)
C11 C 0.2222(4) -0.0527(6) 0.3596(8)
H7 H 0.1832 -0.0360 0.4043
C12 C 0.2554(5) -0.1489(9) 0.3939(9)
H8 H 0.2390 -0.2003 0.4602
C13 C 0.3138(6) -0.1724(8) 0.3312(12)
H9 H 0.3364 -0.2400 0.3576
C14 C 0.3418(4) -0.0985(9) 0.2275(11)
H10 H 0.3810 -0.1151 0.1834
C15 C 0.3046(4) 0.0011(7) 0.1988(8)
C16 C 0.2765(3) 0.1813(6) 0.1228(8)
H11 H 0.2596 0.2140 0.0250
C17 C 0.3621(5) 0.3235(9) 0.1329(11)
H12 H 0.3987 0.2717 0.1164
H13 H 0.3414 0.3501 0.0359
C18 C 0.3883(6) 0.4190(11) 0.2246(14)
H14 H 0.4106 0.3886 0.3181
H15 H 0.3498 0.4630 0.2497
C19 C 0.4404(8) 0.5055(18) 0.1582(18)
H16 H 0.4221 0.5070 0.0531
H17 H 0.4804 0.4578 0.1605
C20 C 0.4811(2) 0.6521(4) 0.1782(5)
H18 H 0.5282 0.6545 0.1582
H19 H 0.4546 0.7124 0.1261
C21 C 0.0237(2) -0.0940(4) 0.1715(5)
C22 C 0.0000(2) -0.0727(4) 0.3204(5)
H20 H -0.0356 -0.1253 0.3361
H21 H -0.0168 0.0036 0.3239
H22 H 0.0372 -0.0828 0.3977
O6 O 0.4693(3) 0.6374(6) 0.3702(9)
H23 H 0.4819 0.6955 0.4155
loop_
_geom_bond_atom_site_label_1
_geom_bond_atom_site_label_2
_geom_bond_site_symmetry_1
_geom_bond_site_symmetry_2
O1 C15 1_555 1_555
O2 C16 1_555 1_555
O3 H1 1_555 1_555
O4 C8 1_555 1_555
O5 C21 1_555 1_555
C1 N1 1_555 1_555
N1 C8 1_555 1_555
C2 C1 1_555 1_555
H2 C2 1_555 1_555
C3 C2 1_555 1_555
H3 C3 1_555 1_555
C4 C3 1_555 1_555
H4 C4 1_555 1_555
C5 C4 1_555 1_555
H5 C5 1_555 1_555
C6 C1 1_555 1_555
C7 O3 1_555 1_555
C8 C7 1_555 1_555
C9 C7 1_555 1_555
H6 C9 1_555 1_555
C10 C9 1_555 1_555
C11 C10 1_555 1_555
H7 C11 1_555 1_555
C12 C11 1_555 1_555
H8 C12 1_555 1_555
C13 C12 1_555 1_555
H9 C13 1_555 1_555
C14 C13 1_555 1_555
H10 C14 1_555 1_555
C15 C10 1_555 1_555
C16 O1 1_555 1_555
H11 C16 1_555 1_555
C17 O2 1_555 1_555
H12 C17 1_555 1_555
H13 C17 1_555 1_555
C18 C17 1_555 1_555
H14 C18 1_555 1_555
H15 C18 1_555 1_555
C19 C18 1_555 1_555
H16 C19 1_555 1_555
H17 C19 1_555 1_555
C20 C19 1_555 1_555
H18 C20 1_555 1_555
H19 C20 1_555 1_555
C21 N1 1_555 1_555
C22 C21 1_555 1_555
H20 C22 1_555 1_555
H21 C22 1_555 1_555
H22 C22 1_555 1_555
O6 C20 1_555 1_555
H23 O6 1_555 1_555
C5 C6 1_555 1_555
C6 C7 1_555 1_555
C9 C16 1_555 1_555
C14 C15 1_555 1_555

#END
