
#######################################################################
#
#                 Cambridge Crystallographic Data Centre
#                                CCDC 
#
#######################################################################
#
# If this CIF has been generated from an entry in the Cambridge 
# Structural Database, then it will include bibliographic, chemical, 
# crystal, experimental, refinement or atomic coordinate data resulting 
# from the CCDC's data processing and validation procedures.
#
#######################################################################

data_IXERUA
_chemical_formula_moiety         'C12 H30 B10 N2 O2'
_chemical_name_systematic        
1-methyl-7-(4-(t-butoxycarbonyl)piperazin-1-yl)-1,2-dicarba-closo-dodecaborane(10)
_symmetry_cell_setting           monoclinic
_symmetry_space_group_name_H-M   'C 2/c'
_symmetry_Int_Tables_number      15
_space_group_name_Hall           '-C 2yn'
loop_
_symmetry_equiv_pos_site_id
_symmetry_equiv_pos_as_xyz
1 x,y,z
2 -x,y,1/2-z
3 1/2+x,1/2+y,z
4 1/2-x,1/2+y,1/2-z
5 -x,-y,-z
6 x,-y,1/2+z
7 1/2-x,1/2-y,-z
8 1/2+x,1/2-y,1/2+z
_cell_length_a                   29.8616(6)
_cell_length_b                   6.63610(10)
_cell_length_c                   20.4917(4)
_cell_angle_alpha                90
_cell_angle_beta                 99.0968(17)
_cell_angle_gamma                90
_cell_volume                     4009.66
_exptl_crystal_colour            colorless
_exptl_crystal_description       block
_cell_formula_units_Z            8
loop_
_atom_site_label
_atom_site_type_symbol
_atom_site_fract_x
_atom_site_fract_y
_atom_site_fract_z
N1 N 0.24013(5) 0.9512(2) 0.35656(7)
N2 N 0.32876(5) 0.9010(3) 0.32497(9)
C1 C 0.14831(6) 1.0500(3) 0.33464(9)
H1 H 0.1499 1.0862 0.2827
C2 C 0.10263(6) 0.9470(3) 0.35412(9)
C3 C 0.06418(7) 0.9043(4) 0.29878(12)
H2 H 0.0394 0.8442 0.3165
H3 H 0.0542 1.0280 0.2769
H4 H 0.0744 0.8135 0.2677
C4 C 0.27708(6) 1.0886(3) 0.38249(10)
H5 H 0.2913 1.0424 0.4258
H6 H 0.2648 1.2219 0.3876
C5 C 0.31209(6) 1.1009(3) 0.33778(12)
H7 H 0.2990 1.1633 0.2964
H8 H 0.3372 1.1842 0.3581
C6 C 0.29316(6) 0.7554(4) 0.30221(12)
H9 H 0.3064 0.6226 0.2999
H10 H 0.2783 0.7918 0.2582
C7 C 0.25871(6) 0.7503(3) 0.34875(10)
H11 H 0.2343 0.6590 0.3316
H12 H 0.2729 0.7003 0.3915
C8 C 0.37264(6) 0.8482(3) 0.33068(9)
C9 C 0.44790(6) 0.9796(4) 0.37639(10)
C10 C 0.46153(8) 1.1923(4) 0.39807(14)
H13 H 0.4933 1.1956 0.4154
H14 H 0.4554 1.2816 0.3609
H15 H 0.4445 1.2344 0.4317
C11 C 0.47238(8) 0.9133(5) 0.32131(14)
H16 H 0.5041 0.8976 0.3380
H17 H 0.4601 0.7871 0.3039
H18 H 0.4685 1.0130 0.2869
C12 C 0.45461(10) 0.8355(5) 0.43333(13)
H19 H 0.4865 0.8199 0.4490
H20 H 0.4400 0.8871 0.4683
H21 H 0.4417 0.7072 0.4192
O1 O 0.38579(5) 0.6824(2) 0.31728(8)
O2 O 0.39960(4) 1.0046(2) 0.35216(8)
B1 B 0.15115(7) 0.8028(3) 0.35637(11)
H22 H 0.1546 0.6778 0.3223
B2 B 0.19839(7) 0.9665(3) 0.38398(10)
B3 B 0.17319(7) 1.2084(3) 0.39368(11)
H23 H 0.1915 1.3462 0.3839
B4 B 0.11347(7) 1.1946(4) 0.37381(12)
H24 H 0.0929 1.3216 0.3514
B5 B 0.11670(8) 0.7857(3) 0.41911(11)
H25 H 0.0979 0.6472 0.4264
B6 B 0.17657(7) 0.7996(3) 0.44040(11)
H26 H 0.1967 0.6706 0.4623
B7 B 0.19038(7) 1.0533(3) 0.46378(11)
H27 H 0.2198 1.0907 0.5012
B8 B 0.13910(8) 1.1943(4) 0.45738(12)
H28 H 0.1354 1.3221 0.4903
B9 B 0.09365(8) 1.0274(4) 0.42980(11)
H29 H 0.0599 1.0455 0.4443
B10 B 0.14103(8) 0.9404(4) 0.48574(11)
H30 H 0.1384 0.9032 0.5373
loop_
_geom_bond_atom_site_label_1
_geom_bond_atom_site_label_2
_geom_bond_site_symmetry_1
_geom_bond_site_symmetry_2
N1 C4 1_555 1_555
N2 C5 1_555 1_555
C1 H1 1_555 1_555
C2 C1 1_555 1_555
C3 C2 1_555 1_555
H2 C3 1_555 1_555
H3 C3 1_555 1_555
H4 C3 1_555 1_555
C4 H5 1_555 1_555
H6 C4 1_555 1_555
C5 C4 1_555 1_555
H7 C5 1_555 1_555
H8 C5 1_555 1_555
C6 N2 1_555 1_555
H9 C6 1_555 1_555
H10 C6 1_555 1_555
C7 N1 1_555 1_555
H11 C7 1_555 1_555
H12 C7 1_555 1_555
C8 N2 1_555 1_555
C9 C10 1_555 1_555
C10 H13 1_555 1_555
H14 C10 1_555 1_555
H15 C10 1_555 1_555
C11 C9 1_555 1_555
H16 C11 1_555 1_555
H17 C11 1_555 1_555
H18 C11 1_555 1_555
C12 C9 1_555 1_555
H19 C12 1_555 1_555
H20 C12 1_555 1_555
H21 C12 1_555 1_555
O1 C8 1_555 1_555
O2 C8 1_555 1_555
B1 C1 1_555 1_555
H22 B1 1_555 1_555
B2 N1 1_555 1_555
B3 C1 1_555 1_555
H23 B3 1_555 1_555
B4 C1 1_555 1_555
H24 B4 1_555 1_555
B5 C2 1_555 1_555
H25 B5 1_555 1_555
B6 B1 1_555 1_555
H26 B6 1_555 1_555
B7 B2 1_555 1_555
H27 B7 1_555 1_555
B8 B3 1_555 1_555
H28 B8 1_555 1_555
B9 C2 1_555 1_555
H29 B9 1_555 1_555
B10 B5 1_555 1_555
H30 B10 1_555 1_555
C1 B2 1_555 1_555
C2 B1 1_555 1_555
C2 B4 1_555 1_555
C6 C7 1_555 1_555
C9 O2 1_555 1_555
B1 B2 1_555 1_555
B1 B5 1_555 1_555
B2 B3 1_555 1_555
B2 B6 1_555 1_555
B3 B4 1_555 1_555
B3 B7 1_555 1_555
B4 B8 1_555 1_555
B4 B9 1_555 1_555
B5 B6 1_555 1_555
B5 B9 1_555 1_555
B6 B7 1_555 1_555
B6 B10 1_555 1_555
B7 B8 1_555 1_555
B7 B10 1_555 1_555
B8 B9 1_555 1_555
B8 B10 1_555 1_555
B9 B10 1_555 1_555

#END
