
#######################################################################
#
#                 Cambridge Crystallographic Data Centre
#                                CCDC 
#
#######################################################################
#
# If this CIF has been generated from an entry in the Cambridge 
# Structural Database, then it will include bibliographic, chemical, 
# crystal, experimental, refinement or atomic coordinate data resulting 
# from the CCDC's data processing and validation procedures.
#
#######################################################################

data_IXEWEO
_chemical_formula_moiety         'C14 H18 N2 O1'
_chemical_name_systematic        
1',3'-Dihydrospiro[cycloheptane-1,2'-quinazolin]-4'-one
_symmetry_cell_setting           monoclinic
_symmetry_space_group_name_H-M   'C 2/c'
_symmetry_Int_Tables_number      15
_space_group_name_Hall           '-C 2yn'
loop_
_symmetry_equiv_pos_site_id
_symmetry_equiv_pos_as_xyz
1 x,y,z
2 -x,y,1/2-z
3 1/2+x,1/2+y,z
4 1/2-x,1/2+y,1/2-z
5 -x,-y,-z
6 x,-y,1/2+z
7 1/2-x,1/2-y,-z
8 1/2+x,1/2-y,1/2+z
_cell_length_a                   39.9096(12)
_cell_length_b                   11.2986(3)
_cell_length_c                   29.6340(10)
_cell_angle_alpha                90
_cell_angle_beta                 131.752(3)
_cell_angle_gamma                90
_cell_volume                     9968.99
_exptl_crystal_colour            colorless
_exptl_crystal_description       block
_chemical_melting_point          '481-483 K'
_cell_formula_units_Z            32
loop_
_atom_site_label
_atom_site_type_symbol
_atom_site_fract_x
_atom_site_fract_y
_atom_site_fract_z
O1 O 0.36739(6) 0.28870(16) 0.22705(9)
N1 N 0.30715(7) 0.1728(2) 0.18598(10)
N2 N 0.23469(8) 0.2514(2) 0.12542(11)
C1 C 0.29761(9) 0.3819(2) 0.18067(11)
C2 C 0.32671(8) 0.2789(2) 0.20048(11)
C3 C 0.25121(9) 0.3641(2) 0.14191(11)
C4 C 0.26221(8) 0.1520(2) 0.16433(11)
C5 C 0.31486(11) 0.4964(2) 0.19582(14)
H1 H 0.3457 0.5082 0.2221
C6 C 0.26630(10) 0.1454(3) 0.21958(12)
H2 H 0.2929 0.0999 0.2508
H3 H 0.2709 0.2250 0.2351
C7 C 0.24280(10) 0.0397(3) 0.12615(13)
H4 H 0.2103 0.0453 0.0985
H5 H 0.2510 0.0387 0.1018
C8 C 0.22310(11) 0.4630(3) 0.11891(14)
H6 H 0.1922 0.4529 0.0935
C9 C 0.22685(11) 0.0915(3) 0.20877(16)
H7 H 0.1996 0.1087 0.1677
H8 H 0.2242 0.1280 0.2359
C10 C 0.24088(12) 0.5750(3) 0.13361(15)
H9 H 0.2218 0.6400 0.1173
C11 C 0.25608(12) -0.0760(3) 0.15786(17)
H10 H 0.2872 -0.0714 0.1953
H11 H 0.2541 -0.1364 0.1329
C12 C 0.28632(13) 0.5925(3) 0.17193(16)
H12 H 0.2979 0.6689 0.1818
C13 C 0.23113(13) -0.0417(3) 0.21840(17)
H13 H 0.2601 -0.0584 0.2580
H14 H 0.2082 -0.0678 0.2189
C14 C 0.22699(12) -0.1138(3) 0.17236(17)
H15 H 0.1958 -0.1123 0.1350
H16 H 0.2343 -0.1952 0.1863
H69 H 0.3252(10) 0.111(3) 0.1993(12)
H72 H 0.2063(12) 0.239(3) 0.1043(15)
O2 O 0.10179(7) 0.52186(18) -0.01900(9)
N3 N 0.10652(8) 0.4195(2) 0.05028(11)
N4 N 0.12217(8) 0.5135(2) 0.13289(11)
C15 C 0.10135(8) 0.6288(2) 0.04966(12)
C16 C 0.11222(8) 0.6213(2) 0.10539(12)
C17 C 0.10246(8) 0.5200(2) 0.02349(12)
C18 C 0.10245(8) 0.4070(2) 0.09534(12)
C19 C 0.09274(10) 0.7379(3) 0.02246(14)
H17 H 0.0854 0.7423 -0.0146
C20 C 0.10677(11) 0.8325(3) 0.10516(17)
H18 H 0.1089 0.9016 0.1240
C21 C 0.11545(10) 0.7266(3) 0.13299(14)
H19 H 0.1236 0.7241 0.1706
C22 C 0.05300(9) 0.3971(3) 0.06496(15)
H20 H 0.0507 0.4206 0.0943
H21 H 0.0361 0.4542 0.0322
C23 C 0.09487(11) 0.8399(3) 0.04956(17)
H22 H 0.0884 0.9128 0.0307
C24 C 0.13056(10) 0.3001(3) 0.13455(14)
H23 H 0.1274 0.2405 0.1084
H24 H 0.1618 0.3244 0.1627
C25 C 0.03027(12) 0.2785(3) 0.03961(16)
H25 H -0.0015 0.2915 0.0058
H26 H 0.0424 0.2391 0.0241
C26 C 0.12124(15) 0.2426(4) 0.16966(19)
H27 H 0.1142 0.3032 0.1854
H28 H 0.1483 0.2025 0.2040
C27 C 0.08185(15) 0.1511(3) 0.1331(2)
H29 H 0.0883 0.0939 0.1153
H30 H 0.0818 0.1086 0.1615
C28 C 0.03525(13) 0.1986(3) 0.08348(17)
H31 H 0.0150 0.1322 0.0614
H32 H 0.0259 0.2411 0.1019
H66 H 0.1222(11) 0.516(3) 0.1632(15)
H67 H 0.1102(10) 0.368(3) 0.0395(13)
O3 O 0.36744(7) 0.27722(16) -0.01470(8)
N5 N 0.36257(8) 0.1682(2) 0.04456(10)
N6 N 0.36943(8) 0.2538(2) 0.12227(11)
C29 C 0.36237(8) 0.3786(2) 0.05069(11)
C30 C 0.36625(9) 0.3650(2) 0.10107(12)
C31 C 0.35098(9) 0.1522(2) 0.08181(13)
C32 C 0.36353(8) 0.2719(2) 0.02337(11)
C33 C 0.36220(9) 0.4908(2) 0.03173(12)
H33 H 0.3602 0.4989 -0.0012
C34 C 0.36972(11) 0.4674(3) 0.13087(14)
H34 H 0.3728 0.4607 0.1647
C35 C 0.37424(10) 0.0422(2) 0.12059(14)
H35 H 0.3741 0.0468 0.1531
H36 H 0.4054 0.0454 0.1390
C36 C 0.36490(11) 0.5902(3) 0.06060(14)
H37 H 0.3642 0.6653 0.0472
C37 C 0.36865(11) 0.5760(3) 0.11037(15)
H38 H 0.3705 0.6429 0.1302
C38 C 0.35573(11) -0.0782(3) 0.09072(17)
H39 H 0.3503 -0.0788 0.0536
H40 H 0.3782 -0.1380 0.1173
C39 C 0.29982(10) 0.1515(3) 0.04206(16)
H41 H 0.2936 0.1478 0.0686
H42 H 0.2883 0.2267 0.0210
C40 C 0.27445(13) 0.0585(4) -0.00244(18)
H43 H 0.2883 0.0424 -0.0190
H44 H 0.2445 0.0883 -0.0352
C41 C 0.26996(12) -0.0606(3) 0.01924(18)
H45 H 0.2491 -0.0494 0.0253
H46 H 0.2568 -0.1184 -0.0128
C42 C 0.31251(13) -0.1111(3) 0.07607(19)
H47 H 0.3099 -0.1967 0.0736
H48 H 0.3151 -0.0864 0.1096
H65 H 0.3666(10) 0.112(3) 0.0307(14)
H70 H 0.3674(10) 0.258(2) 0.1509(14)
O4 O 0.12906(6) 0.47791(17) 0.25943(10)
N7 N 0.06957(8) 0.5973(2) 0.19610(11)
N8 N -0.00346(9) 0.5244(2) 0.13374(12)
C43 C 0.01043(9) 0.4216(2) 0.16614(11)
C44 C 0.05669(9) 0.4022(2) 0.21246(11)
C45 C 0.08787(9) 0.4944(2) 0.22517(12)
C46 C 0.02252(8) 0.6323(2) 0.16033(11)
C47 C -0.02266(9) 0.7697(2) 0.17247(13)
H49 H -0.0314 0.7676 0.1961
H50 H -0.0473 0.7375 0.1328
C48 C -0.01936(10) 0.3326(3) 0.15248(13)
H51 H -0.0502 0.3440 0.1219
C49 C 0.00857(10) 0.7127(3) 0.10870(12)
H52 H 0.0211 0.6801 0.0923
H53 H -0.0239 0.7092 0.0769
C50 C 0.01823(9) 0.6918(2) 0.20270(11)
H54 H 0.0178 0.6306 0.2252
H55 H 0.0448 0.7395 0.2316
C51 C -0.00311(11) 0.2285(3) 0.18424(15)
H56 H -0.0232 0.1697 0.1749
C52 C 0.07202(10) 0.2956(3) 0.24347(13)
H57 H 0.1027 0.2827 0.2739
C53 C -0.01167(11) 0.9198(3) 0.11832(16)
H58 H -0.0035 1.0019 0.1208
H59 H -0.0411 0.9077 0.0787
C54 C -0.01509(11) 0.8985(3) 0.16532(15)
H60 H -0.0396 0.9458 0.1551
H61 H 0.0123 0.9263 0.2040
C55 C 0.04236(11) 0.2089(3) 0.22969(15)
H62 H 0.0528 0.1377 0.2508
C56 C 0.02206(10) 0.8418(3) 0.12351(14)
H63 H 0.0257 0.8722 0.0964
H64 H 0.0509 0.8474 0.1644
H68 H -0.0263(10) 0.534(2) 0.1108(13)
H71 H 0.0857(10) 0.651(3) 0.2107(13)
loop_
_geom_bond_atom_site_label_1
_geom_bond_atom_site_label_2
_geom_bond_site_symmetry_1
_geom_bond_site_symmetry_2
O1 C2 1_555 1_555
N1 C2 1_555 1_555
N2 C3 1_555 1_555
C1 C2 1_555 1_555
C3 C1 1_555 1_555
C4 N1 1_555 1_555
C5 C1 1_555 1_555
H1 C5 1_555 1_555
C6 C4 1_555 1_555
H2 C6 1_555 1_555
H3 C6 1_555 1_555
C7 C4 1_555 1_555
H4 C7 1_555 1_555
H5 C7 1_555 1_555
C8 C3 1_555 1_555
H6 C8 1_555 1_555
C9 C6 1_555 1_555
H7 C9 1_555 1_555
H8 C9 1_555 1_555
C10 C8 1_555 1_555
H9 C10 1_555 1_555
C11 C7 1_555 1_555
H10 C11 1_555 1_555
H11 C11 1_555 1_555
C12 C5 1_555 1_555
H12 C12 1_555 1_555
C13 C9 1_555 1_555
H13 C13 1_555 1_555
H14 C13 1_555 1_555
C14 C11 1_555 1_555
H15 C14 1_555 1_555
H16 C14 1_555 1_555
O2 C17 1_555 1_555
N3 C17 1_555 1_555
N4 C16 1_555 1_555
C15 C16 1_555 1_555
C16 C21 1_555 1_555
C17 C15 1_555 1_555
C18 N3 1_555 1_555
C19 C15 1_555 1_555
H17 C19 1_555 1_555
C20 H18 1_555 1_555
C21 C20 1_555 1_555
H19 C21 1_555 1_555
C22 C18 1_555 1_555
H20 C22 1_555 1_555
H21 C22 1_555 1_555
C23 C19 1_555 1_555
H22 C23 1_555 1_555
C24 C18 1_555 1_555
H23 C24 1_555 1_555
H24 C24 1_555 1_555
C25 C22 1_555 1_555
H25 C25 1_555 1_555
H26 C25 1_555 1_555
C26 C24 1_555 1_555
H27 C26 1_555 1_555
H28 C26 1_555 1_555
C27 C26 1_555 1_555
H29 C27 1_555 1_555
H30 C27 1_555 1_555
C28 C25 1_555 1_555
H31 C28 1_555 1_555
H32 C28 1_555 1_555
O3 C32 1_555 1_555
N5 C31 1_555 1_555
N6 C30 1_555 1_555
C29 C30 1_555 1_555
C30 C34 1_555 1_555
C31 N6 1_555 1_555
C32 N5 1_555 1_555
C33 C29 1_555 1_555
H33 C33 1_555 1_555
C34 H34 1_555 1_555
C35 C31 1_555 1_555
H35 C35 1_555 1_555
H36 C35 1_555 1_555
C36 C33 1_555 1_555
H37 C36 1_555 1_555
C37 C34 1_555 1_555
H38 C37 1_555 1_555
C38 C35 1_555 1_555
H39 C38 1_555 1_555
H40 C38 1_555 1_555
C39 C31 1_555 1_555
H41 C39 1_555 1_555
H42 C39 1_555 1_555
C40 C39 1_555 1_555
H43 C40 1_555 1_555
H44 C40 1_555 1_555
C41 C40 1_555 1_555
H45 C41 1_555 1_555
H46 C41 1_555 1_555
C42 C38 1_555 1_555
H47 C42 1_555 1_555
H48 C42 1_555 1_555
O4 C45 1_555 1_555
N7 C45 1_555 1_555
N8 C43 1_555 1_555
C43 C44 1_555 1_555
C44 C45 1_555 1_555
C46 N7 1_555 1_555
C47 H49 1_555 1_555
H50 C47 1_555 1_555
C48 C43 1_555 1_555
H51 C48 1_555 1_555
C49 C46 1_555 1_555
H52 C49 1_555 1_555
H53 C49 1_555 1_555
C50 C46 1_555 1_555
H54 C50 1_555 1_555
H55 C50 1_555 1_555
C51 C48 1_555 1_555
H56 C51 1_555 1_555
C52 C44 1_555 1_555
H57 C52 1_555 1_555
C53 H58 1_555 1_555
H59 C53 1_555 1_555
C54 C47 1_555 1_555
H60 C54 1_555 1_555
H61 C54 1_555 1_555
C55 C51 1_555 1_555
H62 C55 1_555 1_555
C56 C49 1_555 1_555
H63 C56 1_555 1_555
H64 C56 1_555 1_555
H65 N5 1_555 1_555
H66 N4 1_555 1_555
H67 N3 1_555 1_555
H68 N8 1_555 1_555
H69 N1 1_555 1_555
H70 N6 1_555 1_555
H71 N7 1_555 1_555
H72 N2 1_555 1_555
N2 C4 1_555 1_555
C10 C12 1_555 1_555
C13 C14 1_555 1_555
N4 C18 1_555 1_555
C20 C23 1_555 1_555
C27 C28 1_555 1_555
C29 C32 1_555 1_555
C36 C37 1_555 1_555
C41 C42 1_555 1_555
N8 C46 1_555 1_555
C47 C50 1_555 1_555
C52 C55 1_555 1_555
C53 C54 1_555 1_555
C53 C56 1_555 1_555

#END
