
#######################################################################
#
#                 Cambridge Crystallographic Data Centre
#                                CCDC 
#
#######################################################################
#
# If this CIF has been generated from an entry in the Cambridge 
# Structural Database, then it will include bibliographic, chemical, 
# crystal, experimental, refinement or atomic coordinate data resulting 
# from the CCDC's data processing and validation procedures.
#
#######################################################################

data_IXEWAL
_chemical_formula_moiety         'C61 H61'
_chemical_name_systematic        
'3,6-bis(4-t-butylphenyl)-9-[10-(3,5-di-t-butylphenyl)anthracen-9-yl]-9H-fluoren-9-yl radical'
_symmetry_cell_setting           monoclinic
_symmetry_space_group_name_H-M   'C 2/c'
_symmetry_Int_Tables_number      15
_space_group_name_Hall           '-C 2yn'
loop_
_symmetry_equiv_pos_site_id
_symmetry_equiv_pos_as_xyz
1 x,y,z
2 -x,y,1/2-z
3 1/2+x,1/2+y,z
4 1/2-x,1/2+y,1/2-z
5 -x,-y,-z
6 x,-y,1/2+z
7 1/2-x,1/2-y,-z
8 1/2+x,1/2-y,1/2+z
_cell_length_a                   47.8736(15)
_cell_length_b                   19.1675(6)
_cell_length_c                   16.5421(5)
_cell_angle_alpha                90
_cell_angle_beta                 97.306(2)
_cell_angle_gamma                90
_cell_volume                     15056.1
_exptl_crystal_colour            black
_exptl_crystal_description       'prism frag'
_cell_formula_units_Z            12
loop_
_atom_site_label
_atom_site_type_symbol
_atom_site_fract_x
_atom_site_fract_y
_atom_site_fract_z
C1 C 0.31735(7) 0.68646(16) 0.24157(19)
C2 C 0.33386(7) 0.62896(17) 0.27276(19)
C3 C 0.35132(7) 0.59166(18) 0.2240(2)
H1 H 0.3513 0.6040 0.1684
C4 C 0.36806(7) 0.53842(18) 0.2564(2)
H2 H 0.3798 0.5147 0.2234
C5 C 0.36808(7) 0.51815(18) 0.3389(2)
H3 H 0.3798 0.4808 0.3606
C6 C 0.35148(7) 0.55184(17) 0.3870(2)
H4 H 0.3516 0.5374 0.4420
C7 C 0.33377(7) 0.60867(17) 0.3565(2)
C8 C 0.31691(7) 0.64483(17) 0.40631(19)
C9 C 0.30017(7) 0.70134(17) 0.37455(19)
C10 C 0.28354(7) 0.74098(18) 0.4243(2)
H5 H 0.2832 0.7279 0.4795
C11 C 0.26819(7) 0.79697(19) 0.3939(2)
H6 H 0.2573 0.8225 0.4279
C12 C 0.26846(7) 0.81712(19) 0.3125(2)
H7 H 0.2578 0.8566 0.2922
C13 C 0.28360(7) 0.78151(18) 0.2622(2)
H8 H 0.2830 0.7955 0.2069
C14 C 0.30065(7) 0.72262(16) 0.29158(19)
C15 C 0.31834(7) 0.71065(17) 0.1562(2)
C16 C 0.30449(7) 0.67584(17) 0.0897(2)
H9 H 0.2944 0.6344 0.0981
C17 C 0.30508(7) 0.70045(18) 0.0101(2)
C18 C 0.31986(8) 0.76182(18) 0.0007(2)
H10 H 0.3204 0.7795 -0.0528
C19 C 0.33390(8) 0.79842(18) 0.0666(2)
C20 C 0.33313(8) 0.77154(18) 0.1442(2)
H11 H 0.3429 0.7951 0.1899
C21 C 0.31694(7) 0.62486(17) 0.49245(19)
C22 C 0.33872(7) 0.63945(18) 0.5578(2)
C23 C 0.36461(7) 0.67405(19) 0.5592(2)
H12 H 0.3704 0.6917 0.5103
C24 C 0.38146(7) 0.68198(19) 0.6326(2)
H13 H 0.3990 0.7055 0.6335
C25 C 0.37358(7) 0.65636(18) 0.7063(2)
C26 C 0.34757(7) 0.62234(17) 0.7047(2)
H14 H 0.3415 0.6061 0.7539
C27 C 0.33091(7) 0.61256(17) 0.6319(2)
C28 C 0.30329(7) 0.57910(17) 0.61163(19)
C29 C 0.28675(7) 0.54155(16) 0.6589(2)
H15 H 0.2930 0.5331 0.7149
C30 C 0.26050(7) 0.51599(17) 0.6231(2)
C31 C 0.25199(7) 0.52870(18) 0.5400(2)
H16 H 0.2341 0.5125 0.5163
C32 C 0.26870(7) 0.56382(17) 0.4919(2)
H17 H 0.2626 0.5706 0.4355
C33 C 0.29479(7) 0.58945(17) 0.52709(19)
C34 C 0.39235(7) 0.66280(18) 0.7835(2)
C35 C 0.42149(8) 0.6553(2) 0.7855(3)
H18 H 0.4293 0.6502 0.7357
C36 C 0.43917(9) 0.6551(2) 0.8583(3)
H19 H 0.4588 0.6491 0.8572
C37 C 0.42933(10) 0.6633(2) 0.9320(3)
C38 C 0.40024(10) 0.6730(2) 0.9305(3)
H20 H 0.3926 0.6796 0.9802
C39 C 0.38245(8) 0.6731(2) 0.8574(2)
H21 H 0.3629 0.6805 0.8583
C40 C 0.24224(7) 0.47647(17) 0.6725(2)
C41 C 0.25265(7) 0.42228(18) 0.7244(2)
H22 H 0.2722 0.4119 0.7303
C42 C 0.23517(7) 0.38358(19) 0.7672(2)
H23 H 0.2429 0.3462 0.8006
C43 C 0.20647(7) 0.39799(18) 0.7627(2)
C44 C 0.19644(8) 0.4537(2) 0.7121(2)
H24 H 0.1771 0.4659 0.7084
C45 C 0.21367(8) 0.4914(2) 0.6677(2)
H25 H 0.2059 0.5281 0.6334
C46 C 0.29012(8) 0.65921(19) -0.0618(2)
C47 C 0.30471(9) 0.58754(19) -0.0648(2)
H26 H 0.3246 0.5944 -0.0710
H27 H 0.2956 0.5607 -0.1112
H28 H 0.3032 0.5621 -0.0142
C48 C 0.25891(8) 0.6489(2) -0.0510(2)
H29 H 0.2576 0.6235 -0.0003
H30 H 0.2495 0.6221 -0.0972
H31 H 0.2498 0.6945 -0.0489
C49 C 0.29156(9) 0.6952(2) -0.1436(2)
H32 H 0.2831 0.7417 -0.1429
H33 H 0.2813 0.6674 -0.1874
H34 H 0.3113 0.6996 -0.1531
C50 C 0.34859(8) 0.86750(18) 0.0517(2)
C51 C 0.32662(9) 0.9190(2) 0.0123(3)
H35 H 0.3171 0.8990 -0.0384
H36 H 0.3359 0.9627 0.0002
H37 H 0.3128 0.9284 0.0497
C52 C 0.37112(9) 0.8550(2) -0.0056(3)
H38 H 0.3850 0.8212 0.0194
H39 H 0.3806 0.8991 -0.0147
H40 H 0.3621 0.8367 -0.0578
C53 C 0.36271(10) 0.9003(2) 0.1314(2)
H41 H 0.3483 0.9127 0.1660
H42 H 0.3729 0.9425 0.1189
H43 H 0.3759 0.8668 0.1601
C54 C 0.45171(19) 0.6638(4) 1.0046(5)
C55 C 0.4680(2) 0.7324(5) 1.0095(6)
H44 H 0.4805 0.7334 0.9669
H45 H 0.4793 0.7364 1.0631
H46 H 0.4548 0.7715 1.0016
C56 C 0.4724(2) 0.6023(5) 1.0010(9)
H47 H 0.4833 0.5958 1.0547
H48 H 0.4852 0.6125 0.9608
H49 H 0.4618 0.5597 0.9852
C57 C 0.4370(2) 0.6570(6) 1.0818(6)
H50 H 0.4226 0.6933 1.0816
H51 H 0.4509 0.6624 1.1302
H52 H 0.4282 0.6110 1.0827
C58 C 0.18636(16) 0.3581(4) 0.8096(4)
C59 C 0.2005(3) 0.2950(5) 0.8537(6)
H53 H 0.2078 0.2642 0.8141
H54 H 0.1867 0.2696 0.8814
H55 H 0.2160 0.3107 0.8940
C60 C 0.1756(2) 0.4079(5) 0.8722(6)
H56 H 0.1915 0.4341 0.9005
H57 H 0.1667 0.3807 0.9120
H58 H 0.1619 0.4404 0.8440
C61 C 0.1610(2) 0.3316(5) 0.7508(6)
H59 H 0.1510 0.3714 0.7234
H60 H 0.1482 0.3058 0.7815
H61 H 0.1676 0.3008 0.7100
C70 C 0.5000 0.4870(3) 0.7500
C71 C 0.47935(7) 0.4431(2) 0.7790(2)
C72 C 0.45461(8) 0.4578(2) 0.8124(2)
H80 H 0.4491 0.5048 0.8196
C73 C 0.43843(8) 0.4039(2) 0.8347(2)
H81 H 0.4217 0.4142 0.8575
C74 C 0.44592(8) 0.3338(2) 0.8247(2)
C75 C 0.47071(7) 0.3186(2) 0.7913(2)
H82 H 0.4762 0.2716 0.7846
C76 C 0.48689(7) 0.37210(19) 0.7685(2)
C77 C 0.42766(8) 0.2760(2) 0.8477(2)
C78 C 0.39853(8) 0.2842(2) 0.8415(2)
H83 H 0.3902 0.3268 0.8214
C79 C 0.38170(8) 0.23103(19) 0.8641(2)
H84 H 0.3619 0.2379 0.8593
C80 C 0.39275(8) 0.1680(2) 0.8937(2)
C81 C 0.42192(8) 0.1597(2) 0.8987(3)
H85 H 0.4302 0.1169 0.9185
C82 C 0.43888(8) 0.2121(2) 0.8754(2)
H86 H 0.4586 0.2045 0.8784
C83 C 0.5000 0.5641(3) 0.7500
C84 C 0.48290(9) 0.5998(2) 0.6876(3)
C85 C 0.48334(10) 0.6740(3) 0.6869(4)
C86 C 0.46559(12) 0.7074(3) 0.6188(4)
H87 H 0.4653 0.7569 0.6150
C87 C 0.44961(13) 0.6693(4) 0.5613(4)
H88 H 0.4384 0.6928 0.5181
C88 C 0.44909(11) 0.5971(3) 0.5635(3)
H89 H 0.4375 0.5716 0.5229
C89 C 0.46543(10) 0.5631(3) 0.6247(3)
H90 H 0.4652 0.5135 0.6257
C90 C 0.5000 0.7099(4) 0.7500
C91 C 0.5000 0.7880(4) 0.7500
C92 C 0.52423(14) 0.8227(4) 0.7409(6)
H91 H 0.5407 0.7968 0.7342
C93 C 0.52540(18) 0.8947(5) 0.7413(9)
C94 C 0.5000 0.9300(7) 0.7500
H92 H 0.5000 0.9795 0.7500
C95 C 0.5544(3) 0.9244(6) 0.7129(11)
C96 C 0.5789(5) 0.9122(9) 0.7796(12)
H93 H 0.5834 0.8624 0.7829
H94 H 0.5737 0.9281 0.8320
H95 H 0.5954 0.9384 0.7669
C97 C 0.5473(4) 1.0029(7) 0.7057(13)
H96 H 0.5621 1.0272 0.6807
H97 H 0.5462 1.0222 0.7601
H98 H 0.5292 1.0092 0.6717
C98 C 0.5634(4) 0.8982(9) 0.6319(11)
H99 H 0.5828 0.9131 0.6280
H100 H 0.5508 0.9178 0.5861
H101 H 0.5624 0.8472 0.6299
C99 C 0.37483(8) 0.1092(2) 0.9223(2)
C100 C 0.34356(9) 0.1285(3) 0.9142(3)
H102 H 0.3364 0.1355 0.8565
H103 H 0.3412 0.1717 0.9444
H104 H 0.3330 0.0908 0.9365
C101 C 0.38504(10) 0.0933(3) 1.0115(3)
H105 H 0.3737 0.0555 1.0304
H106 H 0.3831 0.1351 1.0445
H107 H 0.4049 0.0791 1.0171
C102 C 0.37815(11) 0.0439(2) 0.8718(3)
H108 H 0.3710 0.0530 0.8146
H109 H 0.3675 0.0054 0.8923
H110 H 0.3981 0.0312 0.8761
C71A C 0.52065(7) 0.4431(2) 0.7210(2)
C72A C 0.54539(8) 0.4578(2) 0.6876(2)
H80A H 0.5509 0.5048 0.6804
C73A C 0.56157(8) 0.4039(2) 0.6653(2)
H81A H 0.5783 0.4142 0.6425
C74A C 0.55408(8) 0.3338(2) 0.6753(2)
C75A C 0.52929(7) 0.3186(2) 0.7087(2)
H82A H 0.5238 0.2716 0.7154
C76A C 0.51311(7) 0.37210(19) 0.7315(2)
C77A C 0.57234(8) 0.2760(2) 0.6523(2)
C78A C 0.60147(8) 0.2842(2) 0.6585(2)
H83A H 0.6098 0.3268 0.6786
C79A C 0.61830(8) 0.23103(19) 0.6359(2)
H84A H 0.6381 0.2379 0.6407
C80A C 0.60725(8) 0.1680(2) 0.6063(2)
C81A C 0.57808(8) 0.1597(2) 0.6013(3)
H85A H 0.5698 0.1169 0.5815
C82A C 0.56112(8) 0.2121(2) 0.6246(2)
H86A H 0.5414 0.2045 0.6216
C84A C 0.51710(9) 0.5998(2) 0.8124(3)
C85A C 0.51666(10) 0.6740(3) 0.8131(4)
C86A C 0.53441(12) 0.7074(3) 0.8812(4)
H87A H 0.5347 0.7569 0.8850
C87A C 0.55039(13) 0.6693(4) 0.9387(4)
H88A H 0.5616 0.6928 0.9819
C88A C 0.55091(11) 0.5971(3) 0.9365(3)
H89A H 0.5625 0.5716 0.9771
C89A C 0.53457(10) 0.5631(3) 0.8753(3)
H90A H 0.5348 0.5135 0.8743
C92A C 0.47577(14) 0.8227(4) 0.7591(6)
H91A H 0.4593 0.7968 0.7658
C93A C 0.47460(18) 0.8947(5) 0.7587(9)
C95A C 0.4456(3) 0.9244(6) 0.7871(11)
C96A C 0.4211(5) 0.9122(9) 0.7204(12)
H93A H 0.4166 0.8624 0.7171
H94A H 0.4263 0.9281 0.6680
H95A H 0.4046 0.9384 0.7331
C97A C 0.4527(4) 1.0029(7) 0.7943(13)
H96A H 0.4379 1.0272 0.8193
H97A H 0.4538 1.0222 0.7399
H98A H 0.4708 1.0092 0.8283
C98A C 0.4366(4) 0.8982(9) 0.8681(11)
H99A H 0.4172 0.9131 0.8720
H100A H 0.4492 0.9178 0.9139
H101A H 0.4376 0.8472 0.8701
C99A C 0.62517(8) 0.1092(2) 0.5777(2)
C100A C 0.65644(9) 0.1285(3) 0.5858(3)
H102A H 0.6636 0.1355 0.6435
H103A H 0.6588 0.1717 0.5556
H104A H 0.6670 0.0908 0.5635
C101A C 0.61496(10) 0.0933(3) 0.4885(3)
H105A H 0.6263 0.0555 0.4696
H106A H 0.6169 0.1351 0.4555
H107A H 0.5951 0.0791 0.4829
C102A C 0.62185(11) 0.0439(2) 0.6282(3)
H108A H 0.6290 0.0530 0.6854
H109A H 0.6325 0.0054 0.6077
H110A H 0.6019 0.0312 0.6239
C62? C 0.44647(19) 0.6589(4) 1.0197(5)
C63? C 0.4519(2) 0.7325(4) 1.0534(7)
H62? H 0.4340 0.7549 1.0598
H63? H 0.4618 0.7598 1.0156
H64? H 0.4636 0.7299 1.1065
C64? C 0.4751(2) 0.6234(6) 1.0132(8)
H65? H 0.4840 0.6454 0.9696
H66? H 0.4720 0.5737 1.0010
H67? H 0.4873 0.6284 1.0650
C65? C 0.4313(2) 0.6178(5) 1.0815(6)
H68? H 0.4449 0.6051 1.1287
H69? H 0.4230 0.5753 1.0556
H70? H 0.4164 0.6468 1.0994
C66? C 0.1873(3) 0.3569(7) 0.8131(8)
C67? C 0.1993(4) 0.2859(8) 0.8413(11)
H71? H 0.2050 0.2606 0.7946
H72? H 0.1848 0.2589 0.8646
H73? H 0.2156 0.2925 0.8827
C68? C 0.1837(3) 0.4016(8) 0.8887(9)
H74? H 0.2009 0.3992 0.9275
H75? H 0.1678 0.3839 0.9145
H76? H 0.1800 0.4502 0.8720
C69? C 0.1582(3) 0.3446(9) 0.7634(9)
H77? H 0.1489 0.3895 0.7513
H78? H 0.1467 0.3156 0.7950
H79? H 0.1606 0.3208 0.7123
C103? C 0.5509(3) 0.9416(6) 0.7391(10)
C104? C 0.5576(4) 1.0145(7) 0.7731(12)
H111? H 0.5769 1.0155 0.8010
H112? H 0.5444 1.0264 0.8118
H113? H 0.5557 1.0483 0.7284
C105? C 0.5439(4) 0.9460(9) 0.6452(10)
H114? H 0.5351 0.9024 0.6244
H115? H 0.5613 0.9535 0.6209
H116? H 0.5310 0.9850 0.6309
C106? C 0.5771(4) 0.8953(8) 0.7614(14)
H117? H 0.5940 0.9248 0.7698
H118? H 0.5788 0.8624 0.7169
H119? H 0.5752 0.8695 0.8115
loop_
_geom_bond_atom_site_label_1
_geom_bond_atom_site_label_2
_geom_bond_site_symmetry_1
_geom_bond_site_symmetry_2
C1 C2 1_555 1_555
C2 C3 1_555 1_555
C3 H1 1_555 1_555
C4 C3 1_555 1_555
H2 C4 1_555 1_555
C5 C4 1_555 1_555
H3 C5 1_555 1_555
C6 C5 1_555 1_555
H4 C6 1_555 1_555
C7 C2 1_555 1_555
C8 C7 1_555 1_555
C9 C8 1_555 1_555
C10 C9 1_555 1_555
H5 C10 1_555 1_555
C11 C10 1_555 1_555
H6 C11 1_555 1_555
C12 C11 1_555 1_555
H7 C12 1_555 1_555
C13 C12 1_555 1_555
H8 C13 1_555 1_555
C14 C1 1_555 1_555
C15 C1 1_555 1_555
C16 C15 1_555 1_555
H9 C16 1_555 1_555
C17 C16 1_555 1_555
C18 C17 1_555 1_555
H10 C18 1_555 1_555
C19 C18 1_555 1_555
C20 C15 1_555 1_555
H11 C20 1_555 1_555
C21 C8 1_555 1_555
C22 C21 1_555 1_555
C23 C22 1_555 1_555
H12 C23 1_555 1_555
C24 C23 1_555 1_555
H13 C24 1_555 1_555
C25 C24 1_555 1_555
C26 C25 1_555 1_555
H14 C26 1_555 1_555
C27 C22 1_555 1_555
C28 C27 1_555 1_555
C29 C28 1_555 1_555
H15 C29 1_555 1_555
C30 C29 1_555 1_555
C31 C30 1_555 1_555
H16 C31 1_555 1_555
C32 C31 1_555 1_555
H17 C32 1_555 1_555
C33 C21 1_555 1_555
C34 C25 1_555 1_555
C35 C34 1_555 1_555
H18 C35 1_555 1_555
C36 C35 1_555 1_555
H19 C36 1_555 1_555
C37 C36 1_555 1_555
C38 C37 1_555 1_555
H20 C38 1_555 1_555
C39 C34 1_555 1_555
H21 C39 1_555 1_555
C40 C30 1_555 1_555
C41 C40 1_555 1_555
H22 C41 1_555 1_555
C42 C41 1_555 1_555
H23 C42 1_555 1_555
C43 C42 1_555 1_555
C44 C43 1_555 1_555
H24 C44 1_555 1_555
C45 C40 1_555 1_555
H25 C45 1_555 1_555
C46 C17 1_555 1_555
C47 C46 1_555 1_555
H26 C47 1_555 1_555
H27 C47 1_555 1_555
H28 C47 1_555 1_555
C48 C46 1_555 1_555
H29 C48 1_555 1_555
H30 C48 1_555 1_555
H31 C48 1_555 1_555
C49 C46 1_555 1_555
H32 C49 1_555 1_555
H33 C49 1_555 1_555
H34 C49 1_555 1_555
C50 C19 1_555 1_555
C51 C50 1_555 1_555
H35 C51 1_555 1_555
H36 C51 1_555 1_555
H37 C51 1_555 1_555
C52 C50 1_555 1_555
H38 C52 1_555 1_555
H39 C52 1_555 1_555
H40 C52 1_555 1_555
C53 C50 1_555 1_555
H41 C53 1_555 1_555
H42 C53 1_555 1_555
H43 C53 1_555 1_555
C54 C37 1_555 1_555
C55 C54 1_555 1_555
H44 C55 1_555 1_555
H45 C55 1_555 1_555
H46 C55 1_555 1_555
C56 C54 1_555 1_555
H47 C56 1_555 1_555
H48 C56 1_555 1_555
H49 C56 1_555 1_555
C57 C54 1_555 1_555
H50 C57 1_555 1_555
H51 C57 1_555 1_555
H52 C57 1_555 1_555
C58 C43 1_555 1_555
C59 C58 1_555 1_555
H53 C59 1_555 1_555
H54 C59 1_555 1_555
H55 C59 1_555 1_555
C60 C58 1_555 1_555
H56 C60 1_555 1_555
H57 C60 1_555 1_555
H58 C60 1_555 1_555
C61 C58 1_555 1_555
H59 C61 1_555 1_555
H60 C61 1_555 1_555
H61 C61 1_555 1_555
C70 C71 1_555 1_555
C71 C72 1_555 1_555
C72 H80 1_555 1_555
C73 C72 1_555 1_555
H81 C73 1_555 1_555
C74 C73 1_555 1_555
C75 C74 1_555 1_555
H82 C75 1_555 1_555
C76 C71 1_555 1_555
C77 C74 1_555 1_555
C78 C77 1_555 1_555
H83 C78 1_555 1_555
C79 C78 1_555 1_555
H84 C79 1_555 1_555
C80 C79 1_555 1_555
C81 C80 1_555 1_555
H85 C81 1_555 1_555
C82 C77 1_555 1_555
H86 C82 1_555 1_555
C83 C70 1_555 1_555
C84 C83 1_555 1_555
C85 C84 1_555 1_555
C86 C85 1_555 1_555
H87 C86 1_555 1_555
C87 C86 1_555 1_555
H88 C87 1_555 1_555
C88 C87 1_555 1_555
H89 C88 1_555 1_555
C89 C84 1_555 1_555
H90 C89 1_555 1_555
C90 C85 1_555 1_555
C91 C90 1_555 1_555
C92 C91 1_555 1_555
H91 C92 1_555 1_555
C93 C92 1_555 1_555
C94 C93 1_555 1_555
H92 C94 1_555 1_555
C95 C93 1_555 1_555
C96 C95 1_555 1_555
H93 C96 1_555 1_555
H94 C96 1_555 1_555
H95 C96 1_555 1_555
C97 C95 1_555 1_555
H96 C97 1_555 1_555
H97 C97 1_555 1_555
H98 C97 1_555 1_555
C98 C95 1_555 1_555
H99 C98 1_555 1_555
H100 C98 1_555 1_555
H101 C98 1_555 1_555
C99 C80 1_555 1_555
C100 C99 1_555 1_555
H102 C100 1_555 1_555
H103 C100 1_555 1_555
H104 C100 1_555 1_555
C101 C99 1_555 1_555
H105 C101 1_555 1_555
H106 C101 1_555 1_555
H107 C101 1_555 1_555
C102 C99 1_555 1_555
H108 C102 1_555 1_555
H109 C102 1_555 1_555
H110 C102 1_555 1_555
C71A C70 1_555 1_555
C72A C71A 1_555 1_555
H80A C72A 1_555 1_555
C73A C72A 1_555 1_555
H81A C73A 1_555 1_555
C74A C73A 1_555 1_555
C75A C74A 1_555 1_555
H82A C75A 1_555 1_555
C76A C76 1_555 1_555
C77A C74A 1_555 1_555
C78A C77A 1_555 1_555
H83A C78A 1_555 1_555
C79A C78A 1_555 1_555
H84A C79A 1_555 1_555
C80A C79A 1_555 1_555
C81A C80A 1_555 1_555
H85A C81A 1_555 1_555
C82A C77A 1_555 1_555
H86A C82A 1_555 1_555
C84A C83 1_555 1_555
C85A C90 1_555 1_555
C86A C85A 1_555 1_555
H87A C86A 1_555 1_555
C87A C86A 1_555 1_555
H88A C87A 1_555 1_555
C88A C87A 1_555 1_555
H89A C88A 1_555 1_555
C89A C84A 1_555 1_555
H90A C89A 1_555 1_555
C92A C91 1_555 1_555
H91A C92A 1_555 1_555
C93A C94 1_555 1_555
C95A C93A 1_555 1_555
C96A C95A 1_555 1_555
H93A C96A 1_555 1_555
H94A C96A 1_555 1_555
H95A C96A 1_555 1_555
C97A C95A 1_555 1_555
H96A C97A 1_555 1_555
H97A C97A 1_555 1_555
H98A C97A 1_555 1_555
C98A C95A 1_555 1_555
H99A C98A 1_555 1_555
H100A C98A 1_555 1_555
H101A C98A 1_555 1_555
C99A C80A 1_555 1_555
C100A C99A 1_555 1_555
H102A C100A 1_555 1_555
H103A C100A 1_555 1_555
H104A C100A 1_555 1_555
C101A C99A 1_555 1_555
H105A C101A 1_555 1_555
H106A C101A 1_555 1_555
H107A C101A 1_555 1_555
C102A C99A 1_555 1_555
H108A C102A 1_555 1_555
H109A C102A 1_555 1_555
H110A C102A 1_555 1_555
C6 C7 1_555 1_555
C9 C14 1_555 1_555
C13 C14 1_555 1_555
C19 C20 1_555 1_555
C26 C27 1_555 1_555
C28 C33 1_555 1_555
C32 C33 1_555 1_555
C38 C39 1_555 1_555
C44 C45 1_555 1_555
C75 C76 1_555 1_555
C81 C82 1_555 1_555
C88 C89 1_555 1_555
C71A C76A 1_555 1_555
C75A C76A 1_555 1_555
C81A C82A 1_555 1_555
C84A C85A 1_555 1_555
C88A C89A 1_555 1_555
C92A C93A 1_555 1_555

#END
