
#######################################################################
#
#                 Cambridge Crystallographic Data Centre
#                                CCDC 
#
#######################################################################
#
# If this CIF has been generated from an entry in the Cambridge 
# Structural Database, then it will include bibliographic, chemical, 
# crystal, experimental, refinement or atomic coordinate data resulting 
# from the CCDC's data processing and validation procedures.
#
#######################################################################

data_IXEWAK
_chemical_formula_moiety         'C12 H16 N2 O1'
_chemical_name_systematic        
2-Isopropyl-2-methyl-2,3-dihydroquinazolin-4(1H)-one
_symmetry_cell_setting           monoclinic
_symmetry_space_group_name_H-M   'P 21/c'
_symmetry_Int_Tables_number      14
_space_group_name_Hall           '-P 2ybc'
loop_
_symmetry_equiv_pos_site_id
_symmetry_equiv_pos_as_xyz
1 x,y,z
2 -x,1/2+y,1/2-z
3 -x,-y,-z
4 x,1/2-y,1/2+z
_cell_length_a                   9.7976(14)
_cell_length_b                   11.3938(17)
_cell_length_c                   11.8365(19)
_cell_angle_alpha                90
_cell_angle_beta                 120.442(8)
_cell_angle_gamma                90
_cell_volume                     1139.18
_exptl_crystal_colour            colorless
_exptl_crystal_description       sheet
_chemical_melting_point          '458-460 K'
_cell_formula_units_Z            4
loop_
_atom_site_label
_atom_site_type_symbol
_atom_site_fract_x
_atom_site_fract_y
_atom_site_fract_z
O1 O 0.6665(4) 0.4175(3) 0.0110(3)
N1 N 0.5751(5) 0.4043(3) 0.1497(4)
H1 H 0.4962 0.4482 0.0983
N2 N 0.6409(4) 0.2464(3) 0.2950(4)
H2 H 0.5954 0.1941 0.3169
C1 C 0.7634(5) 0.2176(4) 0.2769(4)
C2 C 0.7886(5) 0.2814(4) 0.1879(4)
C3 C 0.6734(5) 0.3743(4) 0.1103(4)
C4 C 0.8616(5) 0.1214(4) 0.3411(5)
H3 H 0.8451 0.0767 0.3988
C5 C 0.9826(6) 0.0931(4) 0.3185(5)
H4 H 1.0476 0.0293 0.3616
C6 C 1.0085(6) 0.1580(4) 0.2330(5)
H5 H 1.0916 0.1391 0.2197
C7 C 0.9101(5) 0.2510(4) 0.1672(5)
H6 H 0.9261 0.2939 0.1081
C8 C 0.4254(7) 0.3806(5) 0.2612(6)
H7 H 0.3955 0.4636 0.2448
C9 C 0.3056(7) 0.3124(6) 0.1428(7)
H8 H 0.2030 0.3200 0.1339
H9 H 0.3354 0.2311 0.1534
H10 H 0.3022 0.3427 0.0657
C10 C 0.5888(7) 0.3688(4) 0.2761(5)
C11 C 0.7105(7) 0.4495(5) 0.3876(5)
H11 H 0.8123 0.4408 0.3953
H12 H 0.7177 0.4277 0.4688
H13 H 0.6767 0.5297 0.3676
C12 C 0.4243(10) 0.3457(7) 0.3832(8)
H14 H 0.3193 0.3545 0.3691
H15 H 0.4960 0.3950 0.4546
H16 H 0.4570 0.2654 0.4039
loop_
_geom_bond_atom_site_label_1
_geom_bond_atom_site_label_2
_geom_bond_site_symmetry_1
_geom_bond_site_symmetry_2
O1 C3 1_555 1_555
N1 H1 1_555 1_555
N2 H2 1_555 1_555
C1 N2 1_555 1_555
C2 C1 1_555 1_555
C3 N1 1_555 1_555
C4 C1 1_555 1_555
H3 C4 1_555 1_555
C5 C4 1_555 1_555
H4 C5 1_555 1_555
C6 C5 1_555 1_555
H5 C6 1_555 1_555
C7 C2 1_555 1_555
H6 C7 1_555 1_555
C8 H7 1_555 1_555
C9 C8 1_555 1_555
H8 C9 1_555 1_555
H9 C9 1_555 1_555
H10 C9 1_555 1_555
C10 N1 1_555 1_555
C11 C10 1_555 1_555
H11 C11 1_555 1_555
H12 C11 1_555 1_555
H13 C11 1_555 1_555
C12 C8 1_555 1_555
H14 C12 1_555 1_555
H15 C12 1_555 1_555
H16 C12 1_555 1_555
N2 C10 1_555 1_555
C2 C3 1_555 1_555
C6 C7 1_555 1_555
C8 C10 1_555 1_555

#END
