
#######################################################################
#
#                 Cambridge Crystallographic Data Centre
#                                CCDC 
#
#######################################################################
#
# If this CIF has been generated from an entry in the Cambridge 
# Structural Database, then it will include bibliographic, chemical, 
# crystal, experimental, refinement or atomic coordinate data resulting 
# from the CCDC's data processing and validation procedures.
#
#######################################################################

data_IXEWEN
_chemical_formula_moiety         'C12 H9 N3 O3'
_chemical_name_systematic        
1,3,5-tris(Prop-2-ynyl)-1,3,5-triazine-2,4,6-trione
_symmetry_cell_setting           monoclinic
_symmetry_space_group_name_H-M   'P 21/c'
_symmetry_Int_Tables_number      14
_space_group_name_Hall           '-P 2ybc'
loop_
_symmetry_equiv_pos_site_id
_symmetry_equiv_pos_as_xyz
1 x,y,z
2 -x,1/2+y,1/2-z
3 -x,-y,-z
4 x,1/2-y,1/2+z
_cell_length_a                   8.509(2)
_cell_length_b                   15.686(3)
_cell_length_c                   18.168(3)
_cell_angle_alpha                90
_cell_angle_beta                 91.16(2)
_cell_angle_gamma                90
_cell_volume                     2424.43
_exptl_crystal_colour            colorless
_exptl_crystal_description       plates
_cell_formula_units_Z            8
loop_
_atom_site_label
_atom_site_type_symbol
_atom_site_fract_x
_atom_site_fract_y
_atom_site_fract_z
C1 C 0.5448(3) 0.76547(18) 0.60090(15)
O1 O 0.6325(3) 0.74431(13) 0.65040(11)
N1 N 0.4945(3) 0.70861(13) 0.54676(12)
C2 C 0.5583(3) 0.62150(18) 0.54943(16)
H1 H 0.5767 0.6023 0.4996
H2 H 0.6589 0.6224 0.5756
C3 C 0.4554(4) 0.5609(2) 0.58520(17)
C4 C 0.3823(5) 0.5084(2) 0.6135(2)
H3 H 0.3236 0.4663 0.6362
C5 C 0.3915(3) 0.72916(19) 0.49036(15)
O2 O 0.3460(3) 0.67659(15) 0.44629(11)
N2 N 0.3446(3) 0.81271(15) 0.48723(12)
C6 C 0.2362(3) 0.8386(2) 0.42654(15)
H4 H 0.1581 0.7944 0.4184
H5 H 0.1819 0.8905 0.4402
C7 C 0.3209(4) 0.8532(2) 0.35874(17)
C8 C 0.3878(5) 0.8652(3) 0.3048(2)
H6 H 0.4416 0.8749 0.2616
C9 C 0.3878(3) 0.87444(18) 0.53857(15)
O3 O 0.3404(3) 0.94635(14) 0.53505(12)
N3 N 0.4875(3) 0.84669(14) 0.59374(12)
C10 C 0.5315(4) 0.90790(18) 0.65192(16)
H7 H 0.6433 0.9031 0.6628
H8 H 0.5110 0.9654 0.6345
C11 C 0.4447(4) 0.8932(2) 0.7187(2)
C12 C 0.3774(5) 0.8817(3) 0.7726(2)
H9 H 0.3232 0.8725 0.8158
C13 C -0.0928(3) 0.82778(18) 0.26914(16)
O4 O -0.1247(3) 0.89145(14) 0.30240(13)
N4 N -0.1496(2) 0.74850(14) 0.28811(11)
C14 C -0.2580(3) 0.7433(2) 0.34994(15)
H10 H -0.3067 0.7985 0.3572
H11 H -0.3405 0.7026 0.3383
C15 C -0.1766(4) 0.7175(2) 0.41734(18)
C16 C -0.1063(5) 0.6980(3) 0.4697(2)
H12 H -0.0497 0.6823 0.5119
C17 C -0.1122(3) 0.67347(17) 0.25311(14)
O5 O -0.1691(2) 0.60576(12) 0.27068(10)
N5 N -0.0070(2) 0.68084(13) 0.19730(11)
C18 C 0.0383(4) 0.60290(18) 0.15777(17)
H13 H 0.1487 0.6061 0.1459
H14 H 0.0238 0.5539 0.1895
C19 C -0.0546(4) 0.5914(2) 0.0901(2)
C20 C -0.1238(5) 0.5806(2) 0.0363(2)
H15 H -0.1801 0.5718 -0.0075
C21 C 0.0510(3) 0.75734(17) 0.17166(15)
O6 O 0.1371(2) 0.76039(12) 0.12013(11)
N6 N 0.0041(3) 0.82831(14) 0.20962(12)
C22 C 0.0672(3) 0.91127(18) 0.18640(17)
H16 H 0.0892 0.9456 0.2298
H17 H 0.1659 0.9020 0.1618
C23 C -0.0380(4) 0.95817(19) 0.13743(18)
C24 C -0.1162(5) 0.9994(2) 0.0982(2)
H18 H -0.1787 1.0324 0.0667
loop_
_geom_bond_atom_site_label_1
_geom_bond_atom_site_label_2
_geom_bond_site_symmetry_1
_geom_bond_site_symmetry_2
C1 O1 1_555 1_555
N1 C1 1_555 1_555
C2 N1 1_555 1_555
H1 C2 1_555 1_555
H2 C2 1_555 1_555
C3 C2 1_555 1_555
C4 C3 1_555 1_555
H3 C4 1_555 1_555
C5 N1 1_555 1_555
O2 C5 1_555 1_555
N2 C5 1_555 1_555
C6 N2 1_555 1_555
H4 C6 1_555 1_555
H5 C6 1_555 1_555
C7 C6 1_555 1_555
C8 C7 1_555 1_555
H6 C8 1_555 1_555
C9 N2 1_555 1_555
O3 C9 1_555 1_555
N3 C1 1_555 1_555
C10 N3 1_555 1_555
H7 C10 1_555 1_555
H8 C10 1_555 1_555
C11 C10 1_555 1_555
C12 C11 1_555 1_555
H9 C12 1_555 1_555
C13 O4 1_555 1_555
N4 C13 1_555 1_555
C14 N4 1_555 1_555
H10 C14 1_555 1_555
H11 C14 1_555 1_555
C15 C14 1_555 1_555
C16 C15 1_555 1_555
H12 C16 1_555 1_555
C17 N4 1_555 1_555
O5 C17 1_555 1_555
N5 C17 1_555 1_555
C18 N5 1_555 1_555
H13 C18 1_555 1_555
H14 C18 1_555 1_555
C19 C18 1_555 1_555
C20 C19 1_555 1_555
H15 C20 1_555 1_555
C21 N5 1_555 1_555
O6 C21 1_555 1_555
N6 C13 1_555 1_555
C22 N6 1_555 1_555
H16 C22 1_555 1_555
H17 C22 1_555 1_555
C23 C22 1_555 1_555
C24 C23 1_555 1_555
H18 C24 1_555 1_555
C9 N3 1_555 1_555
C21 N6 1_555 1_555

#END
