
#######################################################################
#
#                 Cambridge Crystallographic Data Centre
#                                CCDC 
#
#######################################################################
#
# If this CIF has been generated from an entry in the Cambridge 
# Structural Database, then it will include bibliographic, chemical, 
# crystal, experimental, refinement or atomic coordinate data resulting 
# from the CCDC's data processing and validation procedures.
#
#######################################################################

data_IXEWEP
_chemical_formula_moiety         'C102 H96'
_chemical_name_systematic        
"6,6'-bis(4-t-butylphenyl)-9,9'-bis[10-(3,5-di-t-butylphenyl)anthracen-9-yl][9H,9'H-3,3'-bifluorene]-9,9'-diyl diradical unknown solvate"
_symmetry_cell_setting           monoclinic
_symmetry_space_group_name_H-M   'C 2/c'
_symmetry_Int_Tables_number      15
_space_group_name_Hall           '-C 2yn'
loop_
_symmetry_equiv_pos_site_id
_symmetry_equiv_pos_as_xyz
1 x,y,z
2 -x,y,1/2-z
3 1/2+x,1/2+y,z
4 1/2-x,1/2+y,1/2-z
5 -x,-y,-z
6 x,-y,1/2+z
7 1/2-x,1/2-y,-z
8 1/2+x,1/2-y,1/2+z
_cell_length_a                   53.095(4)
_cell_length_b                   10.2240(8)
_cell_length_c                   35.660(2)
_cell_angle_alpha                90
_cell_angle_beta                 109.528(7)
_cell_angle_gamma                90
_cell_volume                     18244.3
_exptl_crystal_colour            black
_exptl_crystal_description       'prism frag'
_cell_formula_units_Z            8
loop_
_atom_site_label
_atom_site_type_symbol
_atom_site_fract_x
_atom_site_fract_y
_atom_site_fract_z
C1 C 0.11995(11) 0.7723(7) 0.04033(15)
C2 C 0.12051(11) 0.7345(7) 0.07995(15)
C3 C 0.14372(13) 0.7223(8) 0.11168(17)
H1 H 0.1599 0.7432 0.1073
C4 C 0.14544(12) 0.6827(7) 0.14900(16)
H2 H 0.1622 0.6779 0.1697
C5 C 0.12186(11) 0.6492(6) 0.15610(15)
C6 C 0.11711(11) 0.6068(6) 0.19126(15)
C7 C 0.13640(12) 0.5873(7) 0.23043(15)
C8 C 0.15791(11) 0.5022(6) 0.23759(14)
C9 C 0.16090(13) 0.4204(7) 0.20620(17)
H3 H 0.1476 0.4216 0.1806
C10 C 0.18263(14) 0.3420(8) 0.21316(19)
H4 H 0.1851 0.2948 0.1917
C11 C 0.20138(13) 0.3294(7) 0.25111(17)
H5 H 0.2162 0.2722 0.2554
C12 C 0.19864(13) 0.3980(7) 0.28195(17)
H6 H 0.2114 0.3865 0.3077
C13 C 0.17684(11) 0.4882(6) 0.27677(14)
C14 C 0.17431(12) 0.5572(7) 0.30845(15)
C15 C 0.15279(11) 0.6454(6) 0.30200(14)
C16 C 0.14937(11) 0.7204(6) 0.33377(16)
H7 H 0.1613 0.7069 0.3601
C17 C 0.12958(12) 0.8104(7) 0.32750(17)
H8 H 0.1274 0.8562 0.3494
C18 C 0.11212(13) 0.8364(7) 0.28850(17)
H9 H 0.0991 0.9038 0.2838
C19 C 0.11429(12) 0.7615(7) 0.25689(16)
H10 H 0.1021 0.7764 0.2308
C20 C 0.13384(12) 0.6656(6) 0.26277(16)
C21 C 0.08783(12) 0.5895(7) 0.17961(16)
C22 C 0.07209(13) 0.5443(8) 0.20161(19)
H11 H 0.0800 0.5156 0.2283
C23 C 0.04526(13) 0.5428(8) 0.18374(18)
H12 H 0.0347 0.5137 0.1990
C24 C 0.03206(12) 0.5804(8) 0.14501(18)
C25 C 0.04809(12) 0.6254(8) 0.12135(18)
H13 H 0.0399 0.6533 0.0946
C26 C 0.07538(12) 0.6263(7) 0.13883(16)
C27 C 0.09655(11) 0.6618(7) 0.12302(16)
C28 C 0.09565(11) 0.7057(6) 0.08690(15)
H14 H 0.0790 0.7176 0.0663
C29 C 0.09556(11) 0.8006(7) 0.00867(15)
H15 H 0.0789 0.7919 0.0128
C30 C 0.09648(11) 0.8396(6) -0.02718(15)
C31 C 0.07499(12) 0.8751(7) -0.06415(17)
C32 C 0.04734(11) 0.8785(7) -0.07433(16)
H16 H 0.0393 0.8562 -0.0550
C33 C 0.03123(12) 0.9142(8) -0.11250(18)
C34 C 0.04455(14) 0.9568(8) -0.13943(18)
H17 H 0.0339 0.9891 -0.1648
C35 C 0.07194(12) 0.9532(7) -0.13039(17)
H18 H 0.0800 0.9783 -0.1494
C36 C 0.08759(11) 0.9112(7) -0.09197(16)
C37 C 0.13624(11) 0.9107(7) -0.09511(15)
C38 C 0.13347(12) 0.8366(6) -0.12970(16)
C39 C 0.11425(12) 0.7381(7) -0.14313(17)
H19 H 0.1024 0.7220 -0.1288
C40 C 0.11187(13) 0.6635(7) -0.17622(17)
H20 H 0.0989 0.5961 -0.1842
C41 C 0.12938(12) 0.6891(6) -0.19868(16)
H21 H 0.1272 0.6427 -0.2226
C42 C 0.14875(13) 0.7786(7) -0.18563(16)
H22 H 0.1607 0.7896 -0.2001
C43 C 0.15263(11) 0.8609(6) -0.15037(16)
C44 C 0.17381(11) 0.9432(6) -0.13543(15)
C45 C 0.17676(11) 1.0151(6) -0.10031(15)
C46 C 0.19819(12) 1.1040(7) -0.08488(17)
H23 H 0.2113 1.1116 -0.0974
C47 C 0.20036(15) 1.1797(8) -0.0519(2)
H24 H 0.2148 1.2395 -0.0420
C48 C 0.18057(13) 1.1668(7) -0.03304(18)
H25 H 0.1822 1.2177 -0.0101
C49 C 0.15971(13) 1.0844(7) -0.04700(17)
H26 H 0.1464 1.0803 -0.0347
C50 C 0.15773(11) 1.0038(6) -0.08018(14)
C51 C 0.11624(11) 0.8942(7) -0.07460(15)
C52 C 0.12134(11) 0.8543(7) -0.03496(15)
C53 C 0.14548(12) 0.8281(7) -0.00431(16)
H27 H 0.1621 0.8375 -0.0087
C54 C 0.14462(12) 0.7883(8) 0.03223(17)
H28 H 0.1610 0.7708 0.0529
C55 C 0.00232(12) 0.5890(7) 0.12691(18)
C56 C -0.01387(17) 0.4848(10) 0.1348(2)
H29 H -0.0052 0.4132 0.1510
C57 C -0.0406(2) 0.4869(11) 0.1199(3)
H30 H -0.0509 0.4153 0.1238
C58 C -0.05397(13) 0.6061(9) 0.0967(2)
C59 C -0.03824(16) 0.6992(11) 0.0884(3)
H31 H -0.0462 0.7736 0.0730
C60 C -0.01024(14) 0.6857(9) 0.1026(2)
H32 H 0.0002 0.7480 0.0945
C61 C 0.19510(11) 0.5454(6) 0.35005(15)
C62 C 0.22069(12) 0.5949(7) 0.35676(17)
H33 H 0.2247 0.6343 0.3353
C63 C 0.24028(13) 0.5883(7) 0.39336(16)
C64 C 0.23278(13) 0.5273(7) 0.42491(17)
H34 H 0.2459 0.5166 0.4504
C65 C 0.20781(11) 0.4858(6) 0.41894(15)
C66 C 0.18882(12) 0.4898(6) 0.38079(15)
H35 H 0.1715 0.4539 0.3761
C67 C -0.08508(18) 0.6193(11) 0.0793(3)
C68 C -0.0946(2) 0.6226(17) 0.1174(4)
H36 H -0.0820 0.6748 0.1384
H37 H -0.0951 0.5332 0.1270
H38 H -0.1124 0.6616 0.1101
C69 C -0.09625(16) 0.4950(10) 0.0568(3)
H39 H -0.1152 0.5076 0.0414
H40 H -0.0944 0.4231 0.0757
H41 H -0.0864 0.4739 0.0387
C70 C -0.0936(3) 0.7394(19) 0.0525(5)
H42 H -0.0836 0.8159 0.0662
H43 H -0.1127 0.7546 0.0464
H44 H -0.0898 0.7246 0.0277
C71 C 0.26842(14) 0.6414(8) 0.40336(19)
C72 C 0.27359(16) 0.6823(10) 0.3634(2)
H45 H 0.2665 0.6144 0.3432
H46 H 0.2928 0.6921 0.3687
H47 H 0.2646 0.7654 0.3537
C73 C 0.27106(15) 0.7675(8) 0.4276(2)
H48 H 0.2558 0.8245 0.4148
H49 H 0.2876 0.8126 0.4288
H50 H 0.2715 0.7461 0.4546
C74 C 0.28972(15) 0.5445(10) 0.4251(2)
H51 H 0.2893 0.5320 0.4522
H52 H 0.3073 0.5778 0.4264
H53 H 0.2864 0.4607 0.4110
C75 C 0.20066(13) 0.4192(7) 0.45332(16)
C76 C 0.21757(15) 0.4742(8) 0.49350(17)
H54 H 0.2150 0.4208 0.5148
H55 H 0.2121 0.5644 0.4960
H56 H 0.2364 0.4727 0.4956
C77 C 0.20629(14) 0.2775(8) 0.4544(2)
H57 H 0.2254 0.2638 0.4594
H58 H 0.1960 0.2381 0.4288
H59 H 0.2012 0.2367 0.4757
C78 C 0.17128(14) 0.4422(8) 0.44789(19)
H60 H 0.1601 0.4048 0.4225
H61 H 0.1679 0.5364 0.4480
H62 H 0.1669 0.4003 0.4697
C79 C 0.00224(13) 0.9079(8) -0.12481(17)
C80 C -0.01058(17) 0.8146(12) -0.1122(2)
H63 H -0.0002 0.7525 -0.0936
C81 C -0.03840(19) 0.8026(14) -0.1248(3)
H64 H -0.0463 0.7315 -0.1156
C82 C -0.05414(14) 0.8923(10) -0.1499(2)
C83 C -0.0408(2) 1.0055(12) -0.1597(3)
H65 H -0.0511 1.0763 -0.1742
C84 C -0.01383(19) 1.0108(11) -0.1484(2)
H66 H -0.0055 1.0833 -0.1560
C85 C -0.08564(17) 0.8824(11) -0.1634(3)
C86 C -0.0942(2) 0.7698(15) -0.1450(4)
H67 H -0.0870 0.7783 -0.1160
H68 H -0.0875 0.6890 -0.1531
H69 H -0.1138 0.7673 -0.1537
C87 C -0.09654(16) 0.9999(10) -0.1534(2)
H70 H -0.1160 0.9984 -0.1655
H71 H -0.0894 1.0755 -0.1634
H72 H -0.0916 1.0063 -0.1244
C88 C -0.0947(2) 0.8770(17) -0.2117(3)
H73 H -0.0866 0.8001 -0.2197
H74 H -0.0886 0.9564 -0.2215
H75 H -0.1142 0.8711 -0.2230
C89 C 0.19471(12) 0.9551(7) -0.15547(16)
C90 C 0.18837(12) 1.0096(6) -0.19221(15)
H76 H 0.1712 1.0461 -0.2049
C91 C 0.20787(12) 1.0110(6) -0.21142(15)
C92 C 0.23281(13) 0.9726(7) -0.19233(17)
H77 H 0.2460 0.9852 -0.2046
C93 C 0.24039(14) 0.9134(7) -0.15414(18)
C94 C 0.22036(12) 0.9049(7) -0.13690(17)
H78 H 0.2243 0.8636 -0.1117
C95 C 0.20035(13) 1.0793(7) -0.25388(17)
C96 C 0.17150(14) 1.0493(9) -0.27775(19)
H79 H 0.1597 1.0992 -0.2670
H80 H 0.1682 0.9556 -0.2761
H81 H 0.1680 1.0739 -0.3056
C97 C 0.20571(15) 1.2223(8) -0.24866(19)
H82 H 0.2027 1.2628 -0.2747
H83 H 0.2243 1.2365 -0.2316
H84 H 0.1936 1.2617 -0.2362
C98 C 0.21781(16) 1.0118(9) -0.2767(2)
H85 H 0.2128 1.0467 -0.3038
H86 H 0.2147 0.9171 -0.2777
H87 H 0.2368 1.0297 -0.2626
C99 C 0.26784(14) 0.8589(8) -0.1354(2)
C100 C 0.29004(18) 0.9583(13) -0.1363(3)
H88 H 0.2893 0.9717 -0.1638
H89 H 0.3076 0.9236 -0.1206
H90 H 0.2871 1.0419 -0.1249
C101 C 0.27101(14) 0.7304(8) -0.1560(2)
H91 H 0.2625 0.6588 -0.1465
H92 H 0.2901 0.7111 -0.1499
H93 H 0.2625 0.7396 -0.1849
C102 C 0.27311(16) 0.8221(10) -0.0901(2)
H94 H 0.2922 0.8060 -0.0768
H95 H 0.2630 0.7432 -0.0887
H96 H 0.2674 0.8945 -0.0769
loop_
_geom_bond_atom_site_label_1
_geom_bond_atom_site_label_2
_geom_bond_site_symmetry_1
_geom_bond_site_symmetry_2
C1 C2 1_555 1_555
C2 C3 1_555 1_555
C3 H1 1_555 1_555
C4 C3 1_555 1_555
H2 C4 1_555 1_555
C5 C4 1_555 1_555
C6 C5 1_555 1_555
C7 C6 1_555 1_555
C8 C7 1_555 1_555
C9 C8 1_555 1_555
H3 C9 1_555 1_555
C10 C9 1_555 1_555
H4 C10 1_555 1_555
C11 C10 1_555 1_555
H5 C11 1_555 1_555
C12 C11 1_555 1_555
H6 C12 1_555 1_555
C13 C8 1_555 1_555
C14 C13 1_555 1_555
C15 C14 1_555 1_555
C16 C15 1_555 1_555
H7 C16 1_555 1_555
C17 C16 1_555 1_555
H8 C17 1_555 1_555
C18 C17 1_555 1_555
H9 C18 1_555 1_555
C19 C18 1_555 1_555
H10 C19 1_555 1_555
C20 C7 1_555 1_555
C21 C6 1_555 1_555
C22 C21 1_555 1_555
H11 C22 1_555 1_555
C23 C22 1_555 1_555
H12 C23 1_555 1_555
C24 C23 1_555 1_555
C25 C24 1_555 1_555
H13 C25 1_555 1_555
C26 C21 1_555 1_555
C27 C5 1_555 1_555
C28 C2 1_555 1_555
H14 C28 1_555 1_555
C29 C1 1_555 1_555
H15 C29 1_555 1_555
C30 C29 1_555 1_555
C31 C30 1_555 1_555
C32 C31 1_555 1_555
H16 C32 1_555 1_555
C33 C32 1_555 1_555
C34 C33 1_555 1_555
H17 C34 1_555 1_555
C35 C34 1_555 1_555
H18 C35 1_555 1_555
C36 C31 1_555 1_555
C37 C38 1_555 1_555
C38 C39 1_555 1_555
C39 H19 1_555 1_555
C40 C39 1_555 1_555
H20 C40 1_555 1_555
C41 C40 1_555 1_555
H21 C41 1_555 1_555
C42 C41 1_555 1_555
H22 C42 1_555 1_555
C43 C38 1_555 1_555
C44 C43 1_555 1_555
C45 C44 1_555 1_555
C46 C45 1_555 1_555
H23 C46 1_555 1_555
C47 C46 1_555 1_555
H24 C47 1_555 1_555
C48 C47 1_555 1_555
H25 C48 1_555 1_555
C49 C48 1_555 1_555
H26 C49 1_555 1_555
C50 C37 1_555 1_555
C51 C36 1_555 1_555
C52 C30 1_555 1_555
C53 C52 1_555 1_555
H27 C53 1_555 1_555
C54 C1 1_555 1_555
H28 C54 1_555 1_555
C55 C24 1_555 1_555
C56 C55 1_555 1_555
H29 C56 1_555 1_555
C57 C56 1_555 1_555
H30 C57 1_555 1_555
C58 C57 1_555 1_555
C59 C58 1_555 1_555
H31 C59 1_555 1_555
C60 C55 1_555 1_555
H32 C60 1_555 1_555
C61 C14 1_555 1_555
C62 C61 1_555 1_555
H33 C62 1_555 1_555
C63 C62 1_555 1_555
C64 C63 1_555 1_555
H34 C64 1_555 1_555
C65 C64 1_555 1_555
C66 C61 1_555 1_555
H35 C66 1_555 1_555
C67 C58 1_555 1_555
C68 C67 1_555 1_555
H36 C68 1_555 1_555
H37 C68 1_555 1_555
H38 C68 1_555 1_555
C69 C67 1_555 1_555
H39 C69 1_555 1_555
H40 C69 1_555 1_555
H41 C69 1_555 1_555
C70 C67 1_555 1_555
H42 C70 1_555 1_555
H43 C70 1_555 1_555
H44 C70 1_555 1_555
C71 C63 1_555 1_555
C72 C71 1_555 1_555
H45 C72 1_555 1_555
H46 C72 1_555 1_555
H47 C72 1_555 1_555
C73 C71 1_555 1_555
H48 C73 1_555 1_555
H49 C73 1_555 1_555
H50 C73 1_555 1_555
C74 C71 1_555 1_555
H51 C74 1_555 1_555
H52 C74 1_555 1_555
H53 C74 1_555 1_555
C75 C65 1_555 1_555
C76 C75 1_555 1_555
H54 C76 1_555 1_555
H55 C76 1_555 1_555
H56 C76 1_555 1_555
C77 C75 1_555 1_555
H57 C77 1_555 1_555
H58 C77 1_555 1_555
H59 C77 1_555 1_555
C78 C75 1_555 1_555
H60 C78 1_555 1_555
H61 C78 1_555 1_555
H62 C78 1_555 1_555
C79 C33 1_555 1_555
C80 C79 1_555 1_555
H63 C80 1_555 1_555
C81 C80 1_555 1_555
H64 C81 1_555 1_555
C82 C81 1_555 1_555
C83 C82 1_555 1_555
H65 C83 1_555 1_555
C84 C79 1_555 1_555
H66 C84 1_555 1_555
C85 C82 1_555 1_555
C86 C85 1_555 1_555
H67 C86 1_555 1_555
H68 C86 1_555 1_555
H69 C86 1_555 1_555
C87 C85 1_555 1_555
H70 C87 1_555 1_555
H71 C87 1_555 1_555
H72 C87 1_555 1_555
C88 C85 1_555 1_555
H73 C88 1_555 1_555
H74 C88 1_555 1_555
H75 C88 1_555 1_555
C89 C44 1_555 1_555
C90 C89 1_555 1_555
H76 C90 1_555 1_555
C91 C90 1_555 1_555
C92 C91 1_555 1_555
H77 C92 1_555 1_555
C93 C92 1_555 1_555
C94 C89 1_555 1_555
H78 C94 1_555 1_555
C95 C91 1_555 1_555
C96 C95 1_555 1_555
H79 C96 1_555 1_555
H80 C96 1_555 1_555
H81 C96 1_555 1_555
C97 C95 1_555 1_555
H82 C97 1_555 1_555
H83 C97 1_555 1_555
H84 C97 1_555 1_555
C98 C95 1_555 1_555
H85 C98 1_555 1_555
H86 C98 1_555 1_555
H87 C98 1_555 1_555
C99 C93 1_555 1_555
C100 C99 1_555 1_555
H88 C100 1_555 1_555
H89 C100 1_555 1_555
H90 C100 1_555 1_555
C101 C99 1_555 1_555
H91 C101 1_555 1_555
H92 C101 1_555 1_555
H93 C101 1_555 1_555
C102 C99 1_555 1_555
H94 C102 1_555 1_555
H95 C102 1_555 1_555
H96 C102 1_555 1_555
C12 C13 1_555 1_555
C15 C20 1_555 1_555
C19 C20 1_555 1_555
C25 C26 1_555 1_555
C26 C27 1_555 1_555
C27 C28 1_555 1_555
C35 C36 1_555 1_555
C37 C51 1_555 1_555
C42 C43 1_555 1_555
C45 C50 1_555 1_555
C49 C50 1_555 1_555
C51 C52 1_555 1_555
C53 C54 1_555 1_555
C59 C60 1_555 1_555
C65 C66 1_555 1_555
C83 C84 1_555 1_555
C93 C94 1_555 1_555

#END
