
#######################################################################
#
#                 Cambridge Crystallographic Data Centre
#                                CCDC 
#
#######################################################################
#
# If this CIF has been generated from an entry in the Cambridge 
# Structural Database, then it will include bibliographic, chemical, 
# crystal, experimental, refinement or atomic coordinate data resulting 
# from the CCDC's data processing and validation procedures.
#
#######################################################################

data_IXEWIR01
_chemical_formula_moiety         'C56 H64 O4'
_chemical_name_systematic        
5,11,17,23-Tetra-t-butyl-25,26,27,28-tetrakis(prop-2-ynyloxy)calix(4)arene
_symmetry_cell_setting           triclinic
_symmetry_space_group_name_H-M   'P -1'
_symmetry_Int_Tables_number      2
_space_group_name_Hall           '-P 1'
loop_
_symmetry_equiv_pos_site_id
_symmetry_equiv_pos_as_xyz
1 x,y,z
2 -x,-y,-z
_cell_length_a                   11.052(2)
_cell_length_b                   11.296(2)
_cell_length_c                   19.610(5)
_cell_angle_alpha                90.33(2)
_cell_angle_beta                 95.05(2)
_cell_angle_gamma                98.27(2)
_cell_volume                     2412.9
_exptl_crystal_colour            colorless
_exptl_crystal_description       prisms
_cell_formula_units_Z            2
loop_
_atom_site_label
_atom_site_type_symbol
_atom_site_fract_x
_atom_site_fract_y
_atom_site_fract_z
C1 C 0.0759(2) 0.9265(2) 0.20310(13)
H1 H 0.0275 0.8962 0.2399
H2 H 0.0320 0.9828 0.1776
C2 C 0.0909(2) 0.8240(2) 0.15632(12)
C3 C 0.0676(2) 0.8328(2) 0.08635(13)
H3 H 0.0363 0.9001 0.0694
C4 C 0.0886(2) 0.7460(2) 0.03980(12)
C5 C 0.1333(2) 0.6462(2) 0.06675(13)
H4 H 0.1483 0.5866 0.0370
C6 C 0.1566(2) 0.6320(2) 0.13694(13)
C7 C 0.1347(2) 0.7212(2) 0.18103(12)
O1 O 0.16994(18) 0.71131(16) 0.25006(9)
C8 C 0.0774(4) 0.6790(3) 0.29539(16)
H5 H 0.0265 0.7421 0.2957
H6 H 0.1169 0.6746 0.3413
C9 C -0.0008(4) 0.5675(4) 0.27911(19)
C10 C -0.0687(7) 0.4821(5) 0.2669(3)
H7 H -0.1238 0.4127 0.2570
C11 C 0.0644(3) 0.7653(2) -0.03693(13)
C12 C 0.0964(4) 0.6642(3) -0.08001(15)
H8 H 0.0799 0.6805 -0.1277
H9 H 0.0478 0.5905 -0.0691
H10 H 0.1819 0.6577 -0.0705
C13 C 0.1424(3) 0.8823(3) -0.05604(17)
H11 H 0.1232 0.9474 -0.0293
H12 H 0.1249 0.8970 -0.1038
H13 H 0.2279 0.8754 -0.0470
C14 C -0.0715(3) 0.7758(3) -0.05397(16)
H14 H -0.0931 0.8395 -0.0270
H15 H -0.1207 0.7019 -0.0439
H16 H -0.0859 0.7924 -0.1017
C15 C 0.2128(3) 0.5248(2) 0.16407(14)
H17 H 0.1647 0.4875 0.1993
H18 H 0.2102 0.4666 0.1272
C16 C 0.3444(2) 0.5601(2) 0.19350(13)
C17 C 0.4332(3) 0.6037(3) 0.15041(14)
H19 H 0.4109 0.6049 0.1036
C18 C 0.5535(3) 0.6454(3) 0.17435(15)
C19 C 0.5817(3) 0.6456(3) 0.24448(14)
H20 H 0.6612 0.6753 0.2621
C20 C 0.4964(2) 0.6035(2) 0.28984(13)
C21 C 0.3790(2) 0.5568(2) 0.26300(13)
O2 O 0.29366(17) 0.51177(16) 0.30763(9)
C22 C 0.2692(3) 0.3846(3) 0.31113(16)
H21 H 0.3044 0.3493 0.2737
H22 H 0.1811 0.3594 0.3058
C23 C 0.3194(3) 0.3414(2) 0.37559(16)
C24 C 0.3592(5) 0.3096(3) 0.4276(2)
H23 H 0.3913 0.2841 0.4695
C25 C 0.6513(3) 0.6895(3) 0.12575(17)
C26 C 0.7653(9) 0.7544(11) 0.1609(6)
H24 H 0.7512 0.8322 0.1753
H25 H 0.8288 0.7627 0.1302
H26 H 0.7902 0.7105 0.2002
C27 C 0.6716(11) 0.5830(9) 0.0822(5)
H27 H 0.7141 0.5298 0.1101
H28 H 0.7198 0.6109 0.0455
H29 H 0.5937 0.5414 0.0636
C28 C 0.5964(9) 0.7778(9) 0.0744(5)
H30 H 0.5536 0.8303 0.0988
H31 H 0.5404 0.7330 0.0402
H32 H 0.6616 0.8242 0.0528
C29 C 0.5295(2) 0.6140(2) 0.36624(13)
H33 H 0.5154 0.5349 0.3856
H34 H 0.6164 0.6436 0.3747
C30 C 0.4584(2) 0.6955(2) 0.40278(12)
C31 C 0.3766(2) 0.6489(2) 0.44883(13)
H35 H 0.3689 0.5674 0.4576
C32 C 0.3060(2) 0.7176(2) 0.48222(12)
C33 C 0.3180(2) 0.8387(2) 0.46706(12)
H36 H 0.2704 0.8867 0.4884
C34 C 0.3979(2) 0.8907(2) 0.42141(12)
C35 C 0.4705(2) 0.8181(2) 0.39076(12)
O3 O 0.55002(17) 0.86431(17) 0.34363(9)
C36 C 0.6613(3) 0.9339(3) 0.3718(2)
H37 H 0.7010 0.9760 0.3349
H38 H 0.6411 0.9936 0.4030
C37 C 0.7462(3) 0.8675(3) 0.4075(2)
C38 C 0.8155(5) 0.8159(5) 0.4375(4)
H39 H 0.8714 0.7742 0.4617
C39 C 0.2191(3) 0.6653(2) 0.53432(14)
C40 C 0.1924(4) 0.5289(3) 0.5296(2)
H40 H 0.2681 0.4964 0.5355
H41 H 0.1509 0.5047 0.4856
H42 H 0.1412 0.4999 0.5648
C41 C 0.0976(4) 0.7150(4) 0.5250(2)
H43 H 0.0588 0.6946 0.4799
H44 H 0.1127 0.8005 0.5308
H45 H 0.0449 0.6813 0.5585
C42 C 0.2792(4) 0.6984(4) 0.60597(17)
H46 H 0.3559 0.6677 0.6124
H47 H 0.2260 0.6646 0.6392
H48 H 0.2936 0.7839 0.6116
C43 C 0.3963(2) 1.0204(2) 0.40317(13)
H49 H 0.4785 1.0639 0.4125
H50 H 0.3431 1.0546 0.4322
C44 C 0.3524(2) 1.0365(2) 0.32898(12)
C45 C 0.4328(2) 1.0907(2) 0.28390(14)
H51 H 0.5116 1.1235 0.3012
C46 C 0.4003(2) 1.0979(2) 0.21427(14)
C47 C 0.2830(3) 1.0445(2) 0.19061(13)
H52 H 0.2597 1.0452 0.1439
C48 C 0.1991(2) 0.9904(2) 0.23326(13)
C49 C 0.2335(2) 0.9923(2) 0.30307(12)
O4 O 0.14907(17) 0.94515(16) 0.34771(9)
C50 C 0.0897(3) 1.0331(3) 0.37832(17)
H53 H 0.1518 1.0955 0.3991
H54 H 0.0438 0.9964 0.4145
C51 C 0.0064(4) 1.0877(3) 0.3303(2)
C52 C -0.0603(6) 1.1295(5) 0.2924(3)
H55 H -0.1142 1.1632 0.2617
C53 C 0.4880(3) 1.1599(3) 0.16544(16)
C54 C 0.4868(12) 1.2921(8) 0.1669(7)
H56 H 0.5238 1.3250 0.2103
H57 H 0.4036 1.3081 0.1603
H58 H 0.5322 1.3282 0.1310
C55 C 0.6211(7) 1.1393(10) 0.1900(5)
H59 H 0.6323 1.1438 0.2391
H60 H 0.6788 1.1997 0.1715
H61 H 0.6344 1.0618 0.1746
C56 C 0.4636(13) 1.1135(13) 0.0932(5)
H62 H 0.4008 1.1524 0.0697
H63 H 0.4369 1.0288 0.0932
H64 H 0.5375 1.1294 0.0704
C57? C 0.6003(9) 0.7099(10) 0.0550(4)
H65? H 0.5142 0.7143 0.0547
H66? H 0.6122 0.6451 0.0256
H67? H 0.6416 0.7837 0.0388
C58? C 0.7293(8) 0.8098(7) 0.1544(5)
H68? H 0.6905 0.8762 0.1378
H69? H 0.8102 0.8165 0.1393
H70? H 0.7347 0.8103 0.2035
C59? C 0.7452(7) 0.6033(7) 0.1269(5)
H71? H 0.7080 0.5256 0.1399
H72? H 0.8135 0.6318 0.1594
H73? H 0.7733 0.5982 0.0822
C60? C 0.4978(8) 1.0765(7) 0.1052(4)
H74? H 0.4183 1.0548 0.0810
H75? H 0.5283 1.0058 0.1220
H76? H 0.5532 1.1166 0.0748
C61? C 0.4293(6) 1.2662(5) 0.1322(3)
H77? H 0.3466 1.2380 0.1139
H78? H 0.4765 1.2983 0.0959
H79? H 0.4288 1.3275 0.1662
C62? C 0.6109(6) 1.2104(8) 0.1988(4)
H80? H 0.6518 1.1466 0.2172
H81? H 0.6013 1.2648 0.2350
H82? H 0.6589 1.2522 0.1655
loop_
_geom_bond_atom_site_label_1
_geom_bond_atom_site_label_2
_geom_bond_site_symmetry_1
_geom_bond_site_symmetry_2
C1 H1 1_555 1_555
H2 C1 1_555 1_555
C2 C1 1_555 1_555
C3 C2 1_555 1_555
H3 C3 1_555 1_555
C4 C3 1_555 1_555
C5 C4 1_555 1_555
H4 C5 1_555 1_555
C6 C5 1_555 1_555
C7 C2 1_555 1_555
O1 C7 1_555 1_555
C8 O1 1_555 1_555
H5 C8 1_555 1_555
H6 C8 1_555 1_555
C9 C8 1_555 1_555
C10 C9 1_555 1_555
H7 C10 1_555 1_555
C11 C4 1_555 1_555
C12 C11 1_555 1_555
H8 C12 1_555 1_555
H9 C12 1_555 1_555
H10 C12 1_555 1_555
C13 C11 1_555 1_555
H11 C13 1_555 1_555
H12 C13 1_555 1_555
H13 C13 1_555 1_555
C14 C11 1_555 1_555
H14 C14 1_555 1_555
H15 C14 1_555 1_555
H16 C14 1_555 1_555
C15 C6 1_555 1_555
H17 C15 1_555 1_555
H18 C15 1_555 1_555
C16 C15 1_555 1_555
C17 C16 1_555 1_555
H19 C17 1_555 1_555
C18 C17 1_555 1_555
C19 C18 1_555 1_555
H20 C19 1_555 1_555
C20 C19 1_555 1_555
C21 C16 1_555 1_555
O2 C21 1_555 1_555
C22 O2 1_555 1_555
H21 C22 1_555 1_555
H22 C22 1_555 1_555
C23 C22 1_555 1_555
C24 C23 1_555 1_555
H23 C24 1_555 1_555
C25 C18 1_555 1_555
C26 C25 1_555 1_555
H24 C26 1_555 1_555
H25 C26 1_555 1_555
H26 C26 1_555 1_555
C27 C25 1_555 1_555
H27 C27 1_555 1_555
H28 C27 1_555 1_555
H29 C27 1_555 1_555
C28 C25 1_555 1_555
H30 C28 1_555 1_555
H31 C28 1_555 1_555
H32 C28 1_555 1_555
C29 C20 1_555 1_555
H33 C29 1_555 1_555
H34 C29 1_555 1_555
C30 C29 1_555 1_555
C31 C30 1_555 1_555
H35 C31 1_555 1_555
C32 C31 1_555 1_555
C33 C32 1_555 1_555
H36 C33 1_555 1_555
C34 C33 1_555 1_555
C35 C30 1_555 1_555
O3 C35 1_555 1_555
C36 O3 1_555 1_555
H37 C36 1_555 1_555
H38 C36 1_555 1_555
C37 C36 1_555 1_555
C38 C37 1_555 1_555
H39 C38 1_555 1_555
C39 C32 1_555 1_555
C40 C39 1_555 1_555
H40 C40 1_555 1_555
H41 C40 1_555 1_555
H42 C40 1_555 1_555
C41 C39 1_555 1_555
H43 C41 1_555 1_555
H44 C41 1_555 1_555
H45 C41 1_555 1_555
C42 C39 1_555 1_555
H46 C42 1_555 1_555
H47 C42 1_555 1_555
H48 C42 1_555 1_555
C43 C34 1_555 1_555
H49 C43 1_555 1_555
H50 C43 1_555 1_555
C44 C43 1_555 1_555
C45 C44 1_555 1_555
H51 C45 1_555 1_555
C46 C45 1_555 1_555
C47 C46 1_555 1_555
H52 C47 1_555 1_555
C48 C1 1_555 1_555
C49 C44 1_555 1_555
O4 C49 1_555 1_555
C50 O4 1_555 1_555
H53 C50 1_555 1_555
H54 C50 1_555 1_555
C51 C50 1_555 1_555
C52 C51 1_555 1_555
H55 C52 1_555 1_555
C53 C46 1_555 1_555
C54 C53 1_555 1_555
H56 C54 1_555 1_555
H57 C54 1_555 1_555
H58 C54 1_555 1_555
C55 C53 1_555 1_555
H59 C55 1_555 1_555
H60 C55 1_555 1_555
H61 C55 1_555 1_555
C56 C53 1_555 1_555
H62 C56 1_555 1_555
H63 C56 1_555 1_555
H64 C56 1_555 1_555
C6 C7 1_555 1_555
C20 C21 1_555 1_555
C34 C35 1_555 1_555
C47 C48 1_555 1_555
C48 C49 1_555 1_555

#END
