
#######################################################################
#
#                 Cambridge Crystallographic Data Centre
#                                CCDC 
#
#######################################################################
#
# If this CIF has been generated from an entry in the Cambridge 
# Structural Database, then it will include bibliographic, chemical, 
# crystal, experimental, refinement or atomic coordinate data resulting 
# from the CCDC's data processing and validation procedures.
#
#######################################################################

data_IXIBIC
_chemical_formula_moiety         'C50 H37 Br1 O4'
_chemical_name_systematic        
'1-(2-bromo-3,4,6-tris(2-methoxy-1-naphthyl)phenyl)-2-methoxynaphthalene unknown solvate'
_symmetry_cell_setting           rhombohedral
_symmetry_space_group_name_H-M   'R -3'
_symmetry_Int_Tables_number      148
_space_group_name_Hall           '-R 3'
loop_
_symmetry_equiv_pos_site_id
_symmetry_equiv_pos_as_xyz
1 x,y,z
2 -y,x-y,z
3 -x+y,-x,z
4 2/3+x,1/3+y,1/3+z
5 2/3-y,1/3+x-y,1/3+z
6 2/3-x+y,1/3-x,1/3+z
7 1/3+x,2/3+y,2/3+z
8 1/3-y,2/3+x-y,2/3+z
9 1/3-x+y,2/3-x,2/3+z
10 -x,-y,-z
11 y,-x+y,-z
12 x-y,x,-z
13 1/3-x,2/3-y,2/3-z
14 1/3+y,2/3-x+y,2/3-z
15 1/3+x-y,2/3+x,2/3-z
16 2/3-x,1/3-y,1/3-z
17 2/3+y,1/3-x+y,1/3-z
18 2/3+x-y,1/3+x,1/3-z
_cell_length_a                   32.9726(10)
_cell_length_b                   32.9726(10)
_cell_length_c                   10.6792(3)
_cell_angle_alpha                90
_cell_angle_beta                 90
_cell_angle_gamma                120
_cell_volume                     10054.9
_exptl_crystal_colour            colorless
_exptl_crystal_description       block
_cell_formula_units_Z            9
loop_
_atom_site_label
_atom_site_type_symbol
_atom_site_fract_x
_atom_site_fract_y
_atom_site_fract_z
Br1 Br -0.05850(3) 0.41866(3) 0.20542(7)
C1 C -0.04921(18) 0.40172(14) -0.0719(3)
C2 C -0.0988(2) 0.37764(15) -0.0839(4)
C3 C -0.12547(18) 0.3992(2) -0.0611(5)
H1 H -0.1100 0.4315 -0.0401
C4 C -0.1736(3) 0.3746(3) -0.0686(8)
H2 H -0.1916 0.3890 -0.0488
C5 C -0.1959(3) 0.3258(3) -0.1079(9)
H3 H -0.2290 0.3084 -0.1159
C6 C -0.1707(3) 0.3050(2) -0.1331(7)
H4 H -0.1865 0.2734 -0.1605
C7 C -0.1231(2) 0.32801(19) -0.1204(4)
C8 C -0.0950(3) 0.3080(2) -0.1390(5)
H5 H -0.1103 0.2759 -0.1628
C9 C -0.0492(3) 0.3295(2) -0.1265(5)
H6 H -0.0328 0.3130 -0.1393
C10 C -0.0246(2) 0.37810(16) -0.0933(4)
O1 O 0.02232(16) 0.40329(15) -0.0771(3)
C11 C 0.0495(3) 0.3815(3) -0.1101(6)
H7 H 0.0304 0.3475 -0.0987
H8 H 0.0772 0.3938 -0.0562
H9 H 0.0594 0.3884 -0.1978
C12 C -0.02300(15) 0.45230(13) -0.0365(3)
C13 C -0.02712(15) 0.46655(13) 0.0833(3)
C14 C -0.00567(14) 0.51307(12) 0.1216(3)
C15 C -0.01409(16) 0.52511(13) 0.2507(3)
C16 C -0.05943(19) 0.51893(16) 0.2803(4)
C17 C -0.0960(2) 0.5023(2) 0.1930(5)
H10 H -0.0910 0.4944 0.1110
C18 C -0.1382(3) 0.4971(3) 0.2227(7)
H11 H -0.1625 0.4865 0.1620
C19 C -0.1457(3) 0.5081(3) 0.3495(9)
H12 H -0.1756 0.5031 0.3732
C20 C -0.1109(3) 0.5250(3) 0.4327(7)
H13 H -0.1162 0.5330 0.5142
C21 C -0.0665(2) 0.53139(19) 0.4026(5)
C22 C -0.0304(2) 0.54789(18) 0.4902(4)
H14 H -0.0357 0.5555 0.5721
C23 C 0.0118(2) 0.55339(15) 0.4618(4)
H15 H 0.0360 0.5652 0.5229
C24 C 0.02018(17) 0.54147(13) 0.3397(3)
O2 O 0.06205(12) 0.54531(10) 0.3071(3)
C25 C 0.1020(2) 0.5722(2) 0.3851(6)
H16 H 0.1130 0.6056 0.3736
H17 H 0.1270 0.5657 0.3622
H18 H 0.0933 0.5637 0.4729
Br1I Br 0.05850(3) 0.58134(3) -0.20542(7)
C1I C 0.04921(18) 0.59828(14) 0.0719(3)
C2I C 0.0988(2) 0.62236(15) 0.0839(4)
C3I C 0.12547(18) 0.6008(2) 0.0611(5)
H1I H 0.1100 0.5685 0.0401
C4I C 0.1736(3) 0.6254(3) 0.0686(8)
H2I H 0.1916 0.6110 0.0488
C5I C 0.1959(3) 0.6742(3) 0.1079(9)
H3I H 0.2290 0.6916 0.1159
C6I C 0.1707(3) 0.6950(2) 0.1331(7)
H4I H 0.1865 0.7266 0.1605
C7I C 0.1231(2) 0.67199(19) 0.1204(4)
C8I C 0.0950(3) 0.6920(2) 0.1390(5)
H5I H 0.1103 0.7241 0.1628
C9I C 0.0492(3) 0.6705(2) 0.1265(5)
H6I H 0.0328 0.6870 0.1393
C10I C 0.0246(2) 0.62190(16) 0.0933(4)
O1I O -0.02232(16) 0.59671(15) 0.0771(3)
C11I C -0.0495(3) 0.6185(3) 0.1101(6)
H7I H -0.0304 0.6525 0.0987
H8I H -0.0772 0.6062 0.0562
H9I H -0.0594 0.6116 0.1978
C12I C 0.02300(15) 0.54770(13) 0.0365(3)
C13I C 0.02712(15) 0.53345(13) -0.0833(3)
C14I C 0.00567(14) 0.48693(12) -0.1216(3)
C15I C 0.01409(16) 0.47489(13) -0.2507(3)
C16I C 0.05943(19) 0.48107(16) -0.2803(4)
C17I C 0.0960(2) 0.4977(2) -0.1930(5)
H10I H 0.0910 0.5056 -0.1110
C18I C 0.1382(3) 0.5029(3) -0.2227(7)
H11I H 0.1625 0.5135 -0.1620
C19I C 0.1457(3) 0.4919(3) -0.3495(9)
H12I H 0.1756 0.4969 -0.3732
C20I C 0.1109(3) 0.4750(3) -0.4327(7)
H13I H 0.1162 0.4670 -0.5142
C21I C 0.0665(2) 0.46861(19) -0.4026(5)
C22I C 0.0304(2) 0.45211(18) -0.4902(4)
H14I H 0.0357 0.4445 -0.5721
C23I C -0.0118(2) 0.44661(15) -0.4618(4)
H15I H -0.0360 0.4348 -0.5229
C24I C -0.02018(17) 0.45853(13) -0.3397(3)
O2I O -0.06205(12) 0.45469(10) -0.3071(3)
C25I C -0.1020(2) 0.4278(2) -0.3851(6)
H16I H -0.1130 0.3944 -0.3736
H17I H -0.1270 0.4343 -0.3622
H18I H -0.0933 0.4363 -0.4729
H19? H -0.0457 0.4430 0.1426
loop_
_geom_bond_atom_site_label_1
_geom_bond_atom_site_label_2
_geom_bond_site_symmetry_1
_geom_bond_site_symmetry_2
Br1 C13 1_555 1_555
C1 C2 1_555 1_555
C2 C3 1_555 1_555
C3 H1 1_555 1_555
C4 C3 1_555 1_555
H2 C4 1_555 1_555
C5 C4 1_555 1_555
H3 C5 1_555 1_555
C6 C5 1_555 1_555
H4 C6 1_555 1_555
C7 C2 1_555 1_555
C8 C7 1_555 1_555
H5 C8 1_555 1_555
C9 C8 1_555 1_555
H6 C9 1_555 1_555
C10 C1 1_555 1_555
O1 C10 1_555 1_555
C11 O1 1_555 1_555
H7 C11 1_555 1_555
H8 C11 1_555 1_555
H9 C11 1_555 1_555
C12 C1 1_555 1_555
C13 C12 1_555 1_555
C14 C13 1_555 1_555
C15 C14 1_555 1_555
C16 C15 1_555 1_555
C17 C16 1_555 1_555
H10 C17 1_555 1_555
C18 C17 1_555 1_555
H11 C18 1_555 1_555
C19 C18 1_555 1_555
H12 C19 1_555 1_555
C20 C19 1_555 1_555
H13 C20 1_555 1_555
C21 C16 1_555 1_555
C22 C21 1_555 1_555
H14 C22 1_555 1_555
C23 C22 1_555 1_555
H15 C23 1_555 1_555
C24 C15 1_555 1_555
O2 C24 1_555 1_555
C25 O2 1_555 1_555
H16 C25 1_555 1_555
H17 C25 1_555 1_555
H18 C25 1_555 1_555
Br1I C13I 1_555 1_555
C1I C2I 1_555 1_555
C2I C3I 1_555 1_555
C3I H1I 1_555 1_555
C4I C3I 1_555 1_555
H2I C4I 1_555 1_555
C5I C4I 1_555 1_555
H3I C5I 1_555 1_555
C6I C5I 1_555 1_555
H4I C6I 1_555 1_555
C7I C2I 1_555 1_555
C8I C7I 1_555 1_555
H5I C8I 1_555 1_555
C9I C8I 1_555 1_555
H6I C9I 1_555 1_555
C10I C1I 1_555 1_555
O1I C10I 1_555 1_555
C11I O1I 1_555 1_555
H7I C11I 1_555 1_555
H8I C11I 1_555 1_555
H9I C11I 1_555 1_555
C12I C14 1_555 1_555
C13I C12I 1_555 1_555
C14I C12 1_555 1_555
C15I C14I 1_555 1_555
C16I C15I 1_555 1_555
C17I C16I 1_555 1_555
H10I C17I 1_555 1_555
C18I C17I 1_555 1_555
H11I C18I 1_555 1_555
C19I C18I 1_555 1_555
H12I C19I 1_555 1_555
C20I C19I 1_555 1_555
H13I C20I 1_555 1_555
C21I C16I 1_555 1_555
C22I C21I 1_555 1_555
H14I C22I 1_555 1_555
C23I C22I 1_555 1_555
H15I C23I 1_555 1_555
C24I C15I 1_555 1_555
O2I C24I 1_555 1_555
C25I O2I 1_555 1_555
H16I C25I 1_555 1_555
H17I C25I 1_555 1_555
H18I C25I 1_555 1_555
C6 C7 1_555 1_555
C9 C10 1_555 1_555
C20 C21 1_555 1_555
C23 C24 1_555 1_555
C1I C12I 1_555 1_555
C6I C7I 1_555 1_555
C9I C10I 1_555 1_555
C13I C14I 1_555 1_555
C20I C21I 1_555 1_555
C23I C24I 1_555 1_555

#END
