
#######################################################################
#
#                 Cambridge Crystallographic Data Centre
#                                CCDC 
#
#######################################################################
#
# If this CIF has been generated from an entry in the Cambridge 
# Structural Database, then it will include bibliographic, chemical, 
# crystal, experimental, refinement or atomic coordinate data resulting 
# from the CCDC's data processing and validation procedures.
#
#######################################################################

data_IXIBEY
_chemical_formula_moiety         'C46 H24 B2 O4'
_chemical_name_systematic        
13,14,27,28-tetraoxa-13a,27a-diboradiphenanthro[2,3,4-jk:4',3',2'-mn]heptahelicene
_symmetry_cell_setting           triclinic
_symmetry_space_group_name_H-M   'P -1'
_symmetry_Int_Tables_number      2
_space_group_name_Hall           '-P 1'
loop_
_symmetry_equiv_pos_site_id
_symmetry_equiv_pos_as_xyz
1 x,y,z
2 -x,-y,-z
_cell_length_a                   8.7409(5)
_cell_length_b                   10.9925(6)
_cell_length_c                   17.4245(10)
_cell_angle_alpha                106.582(4)
_cell_angle_beta                 94.206(5)
_cell_angle_gamma                97.026(5)
_cell_volume                     1582.2
_exptl_crystal_colour            brown
_exptl_crystal_description       block
_cell_formula_units_Z            2
loop_
_atom_site_label
_atom_site_type_symbol
_atom_site_fract_x
_atom_site_fract_y
_atom_site_fract_z
B1 B 0.4385(2) 0.48996(18) 0.27477(13)
O1 O 0.34533(15) 0.54505(11) 0.33035(8)
C1 C 0.3128(2) 0.48931(16) 0.38990(11)
C2 C 0.2333(2) 0.56088(19) 0.44997(14)
H1 H 0.2010 0.6384 0.4458
C3 C 0.2029(3) 0.5188(2) 0.51404(14)
H2 H 0.1426 0.5641 0.5526
C4 C 0.2596(2) 0.40848(19) 0.52430(12)
C5 C 0.2423(3) 0.3716(2) 0.59493(13)
H3 H 0.1844 0.4178 0.6344
C6 C 0.3066(3) 0.2715(2) 0.60755(13)
H4 H 0.2922 0.2472 0.6549
C7 C 0.3948(2) 0.2042(2) 0.54994(12)
H5 H 0.4433 0.1363 0.5596
C8 C 0.4112(2) 0.23551(18) 0.48011(11)
H6 H 0.4712 0.1889 0.4419
C9 C 0.3403(2) 0.33659(17) 0.46347(11)
C10 C 0.35398(19) 0.37108(15) 0.39003(11)
C11 C 0.41116(18) 0.29135(15) 0.31817(10)
C12 C 0.47261(19) 0.35445(15) 0.26498(10)
C13 C 0.55831(18) 0.29966(14) 0.20170(10)
C14 C 0.58647(19) 0.37038(16) 0.14260(10)
C15 C 0.6327(2) 0.31463(17) 0.06381(11)
C16 C 0.6108(2) 0.18074(17) 0.02501(11)
H7 H 0.5619 0.1239 0.0510
C17 C 0.6584(2) 0.1318(2) -0.04861(12)
H8 H 0.6407 0.0416 -0.0735
C18 C 0.7333(3) 0.2125(2) -0.08845(12)
H9 H 0.7726 0.1772 -0.1382
C19 C 0.7488(3) 0.3410(2) -0.05504(13)
H10 H 0.7969 0.3957 -0.0827
C20 C 0.6952(2) 0.39659(19) 0.02004(12)
C21 C 0.6958(3) 0.5308(2) 0.05087(14)
H11 H 0.7446 0.5867 0.0242
C22 C 0.6275(3) 0.58043(19) 0.11790(13)
H12 H 0.6191 0.6693 0.1350
C23 C 0.5691(2) 0.49955(16) 0.16211(11)
O2 O 0.49638(15) 0.55911(11) 0.22697(8)
B2 B 0.5535(2) -0.02477(17) 0.23672(12)
O3 O 0.66241(15) -0.07606(11) 0.19001(8)
C24 C 0.7635(2) 0.00378(17) 0.16249(11)
C25 C 0.8810(2) -0.0554(2) 0.12253(13)
H13 H 0.8804 -0.1451 0.1124
C26 C 0.9947(2) 0.0152(2) 0.09860(13)
H14 H 1.0690 -0.0262 0.0677
C27 C 1.0044(2) 0.15045(19) 0.11917(11)
C28 C 1.1351(2) 0.2267(2) 0.10430(13)
H15 H 1.2109 0.1862 0.0743
C29 C 1.1536(2) 0.3563(2) 0.13214(13)
H16 H 1.2405 0.4061 0.1205
C30 C 1.0437(2) 0.4176(2) 0.17852(12)
H17 H 1.0600 0.5084 0.2008
C31 C 0.9135(2) 0.34659(18) 0.19146(11)
H18 H 0.8399 0.3893 0.2223
C32 C 0.88597(19) 0.21098(17) 0.16001(10)
C33 C 0.75205(19) 0.13298(16) 0.17400(10)
C34 C 0.61328(19) 0.18425(15) 0.20544(10)
C35 C 0.52276(19) 0.11110(15) 0.24491(10)
C36 C 0.40685(18) 0.15565(15) 0.29345(10)
C37 C 0.30088(19) 0.05868(15) 0.31486(10)
C38 C 0.14930(19) 0.07843(16) 0.33954(10)
C39 C 0.0725(2) 0.17825(16) 0.32741(10)
H19 H 0.1198 0.2339 0.3002
C40 C -0.0690(2) 0.19654(18) 0.35413(11)
H20 H -0.1191 0.2634 0.3442
C41 C -0.1411(2) 0.1177(2) 0.39600(12)
H21 H -0.2354 0.1348 0.4179
C42 C -0.0738(2) 0.0166(2) 0.40473(13)
H22 H -0.1235 -0.0383 0.4318
C43 C 0.0687(2) -0.00887(17) 0.37440(11)
C44 C 0.1297(2) -0.12265(19) 0.37513(13)
H23 H 0.0785 -0.1798 0.4002
C45 C 0.2602(2) -0.15077(18) 0.34040(13)
H24 H 0.2944 -0.2309 0.3366
C46 C 0.3449(2) -0.06032(16) 0.31000(11)
O4 O 0.47473(15) -0.09922(11) 0.27584(8)
loop_
_geom_bond_atom_site_label_1
_geom_bond_atom_site_label_2
_geom_bond_site_symmetry_1
_geom_bond_site_symmetry_2
B1 O1 1_555 1_555
O1 C1 1_555 1_555
C1 C2 1_555 1_555
C2 H1 1_555 1_555
C3 C2 1_555 1_555
H2 C3 1_555 1_555
C4 C3 1_555 1_555
C5 C4 1_555 1_555
H3 C5 1_555 1_555
C6 C5 1_555 1_555
H4 C6 1_555 1_555
C7 C6 1_555 1_555
H5 C7 1_555 1_555
C8 C7 1_555 1_555
H6 C8 1_555 1_555
C9 C4 1_555 1_555
C10 C1 1_555 1_555
C11 C10 1_555 1_555
C12 B1 1_555 1_555
C13 C12 1_555 1_555
C14 C13 1_555 1_555
C15 C14 1_555 1_555
C16 C15 1_555 1_555
H7 C16 1_555 1_555
C17 C16 1_555 1_555
H8 C17 1_555 1_555
C18 C17 1_555 1_555
H9 C18 1_555 1_555
C19 C18 1_555 1_555
H10 C19 1_555 1_555
C20 C15 1_555 1_555
C21 C20 1_555 1_555
H11 C21 1_555 1_555
C22 C21 1_555 1_555
H12 C22 1_555 1_555
C23 C14 1_555 1_555
O2 B1 1_555 1_555
B2 O3 1_555 1_555
O3 C24 1_555 1_555
C24 C25 1_555 1_555
C25 H13 1_555 1_555
C26 C25 1_555 1_555
H14 C26 1_555 1_555
C27 C26 1_555 1_555
C28 C27 1_555 1_555
H15 C28 1_555 1_555
C29 C28 1_555 1_555
H16 C29 1_555 1_555
C30 C29 1_555 1_555
H17 C30 1_555 1_555
C31 C30 1_555 1_555
H18 C31 1_555 1_555
C32 C27 1_555 1_555
C33 C24 1_555 1_555
C34 C13 1_555 1_555
C35 B2 1_555 1_555
C36 C11 1_555 1_555
C37 C36 1_555 1_555
C38 C37 1_555 1_555
C39 C38 1_555 1_555
H19 C39 1_555 1_555
C40 C39 1_555 1_555
H20 C40 1_555 1_555
C41 C40 1_555 1_555
H21 C41 1_555 1_555
C42 C41 1_555 1_555
H22 C42 1_555 1_555
C43 C38 1_555 1_555
C44 C43 1_555 1_555
H23 C44 1_555 1_555
C45 C44 1_555 1_555
H24 C45 1_555 1_555
C46 C37 1_555 1_555
O4 B2 1_555 1_555
C8 C9 1_555 1_555
C9 C10 1_555 1_555
C11 C12 1_555 1_555
C19 C20 1_555 1_555
C22 C23 1_555 1_555
C23 O2 1_555 1_555
C31 C32 1_555 1_555
C32 C33 1_555 1_555
C33 C34 1_555 1_555
C34 C35 1_555 1_555
C35 C36 1_555 1_555
C42 C43 1_555 1_555
C45 C46 1_555 1_555
C46 O4 1_555 1_555

#END
