
#######################################################################
#
#                 Cambridge Crystallographic Data Centre
#                                CCDC 
#
#######################################################################
#
# If this CIF has been generated from an entry in the Cambridge 
# Structural Database, then it will include bibliographic, chemical, 
# crystal, experimental, refinement or atomic coordinate data resulting 
# from the CCDC's data processing and validation procedures.
#
#######################################################################

data_IXIDIE
_chemical_formula_moiety         'C20 H16 N6'
_chemical_name_systematic        
4-(7-(4-(dimethylamino)phenyl)[1,2,4]triazolo[1,5-a]pyrimidin-2-yl)benzonitrile
_symmetry_cell_setting           monoclinic
_symmetry_space_group_name_H-M   'P 21/c'
_symmetry_Int_Tables_number      14
_space_group_name_Hall           '-P 2ybc'
loop_
_symmetry_equiv_pos_site_id
_symmetry_equiv_pos_as_xyz
1 x,y,z
2 -x,1/2+y,1/2-z
3 -x,-y,-z
4 x,1/2-y,1/2+z
_cell_length_a                   7.6566(6)
_cell_length_b                   30.6548(15)
_cell_length_c                   7.8558(6)
_cell_angle_alpha                90
_cell_angle_beta                 115.192(9)
_cell_angle_gamma                90
_cell_volume                     1668.47
_exptl_crystal_description       needle
_cell_formula_units_Z            4
loop_
_atom_site_label
_atom_site_type_symbol
_atom_site_fract_x
_atom_site_fract_y
_atom_site_fract_z
N1 N 0.68214(19) 0.26136(4) 0.96045(19)
N2 N 0.52528(19) 0.28025(4) 0.8210(2)
N3 N 0.7332(2) 0.33277(5) 0.9998(2)
N4 N 0.9738(2) 0.28578(5) 1.2162(2)
N5 N -0.0764(4) 0.47346(7) 0.2906(3)
N6 N 0.2513(2) 0.07689(5) 0.5849(2)
C1 C 0.5655(3) 0.32273(5) 0.8530(2)
C2 C 0.8071(2) 0.29406(6) 1.0680(2)
C3 C 1.0120(3) 0.24388(7) 1.2524(3)
H1 H 1.1270 0.2366 1.3543
C4 C 0.8951(3) 0.21008(6) 1.1513(3)
H2 H 0.9332 0.1815 1.1886
C5 C 0.7229(2) 0.21748(5) 0.9960(2)
C6 C 0.4296(3) 0.35585(5) 0.7335(2)
C7 C 0.2700(3) 0.34371(5) 0.5734(3)
H3 H 0.2488 0.3143 0.5417
C8 C 0.1414(3) 0.37445(6) 0.4595(3)
H4 H 0.0347 0.3659 0.3516
C9 C 0.1733(3) 0.41823(6) 0.5080(3)
C10 C 0.3336(3) 0.43099(6) 0.6684(3)
H5 H 0.3543 0.4604 0.7004
C11 C 0.4619(3) 0.40013(6) 0.7801(3)
H6 H 0.5701 0.4087 0.8865
C12 C 0.5975(2) 0.18293(5) 0.8813(2)
C13 C 0.4175(3) 0.18910(5) 0.7312(2)
H7 H 0.3724 0.2174 0.6963
C14 C 0.3046(3) 0.15460(5) 0.6331(3)
H8 H 0.1849 0.1602 0.5345
C15 C 0.3650(3) 0.11130(5) 0.6777(3)
C16 C 0.5480(3) 0.10500(6) 0.8253(3)
H9 H 0.5956 0.0768 0.8575
C17 C 0.6575(3) 0.13948(6) 0.9227(3)
H10 H 0.7774 0.1339 1.0210
C18 C 0.0355(3) 0.44962(7) 0.3881(3)
C19 C 0.0600(3) 0.08354(7) 0.4391(3)
H11 H 0.0680 0.0981 0.3344
H12 H -0.0130 0.1011 0.4867
H13 H -0.0026 0.0558 0.3988
C20 C 0.3228(4) 0.03275(6) 0.6257(4)
H14 H 0.3445 0.0254 0.7519
H15 H 0.4418 0.0304 0.6132
H16 H 0.2295 0.0131 0.5392
loop_
_geom_bond_atom_site_label_1
_geom_bond_atom_site_label_2
_geom_bond_site_symmetry_1
_geom_bond_site_symmetry_2
N1 N2 1_555 1_555
N2 C1 1_555 1_555
N3 C1 1_555 1_555
N4 C2 1_555 1_555
N5 C18 1_555 1_555
N6 C15 1_555 1_555
C1 C6 1_555 1_555
C2 N1 1_555 1_555
C3 N4 1_555 1_555
H1 C3 1_555 1_555
C4 C3 1_555 1_555
H2 C4 1_555 1_555
C5 N1 1_555 1_555
C6 C7 1_555 1_555
C7 H3 1_555 1_555
C8 C7 1_555 1_555
H4 C8 1_555 1_555
C9 C8 1_555 1_555
C10 C9 1_555 1_555
H5 C10 1_555 1_555
C11 C6 1_555 1_555
H6 C11 1_555 1_555
C12 C5 1_555 1_555
C13 C12 1_555 1_555
H7 C13 1_555 1_555
C14 C13 1_555 1_555
H8 C14 1_555 1_555
C15 C14 1_555 1_555
C16 C15 1_555 1_555
H9 C16 1_555 1_555
C17 C12 1_555 1_555
H10 C17 1_555 1_555
C18 C9 1_555 1_555
C19 N6 1_555 1_555
H11 C19 1_555 1_555
H12 C19 1_555 1_555
H13 C19 1_555 1_555
C20 N6 1_555 1_555
H14 C20 1_555 1_555
H15 C20 1_555 1_555
H16 C20 1_555 1_555
N3 C2 1_555 1_555
C4 C5 1_555 1_555
C10 C11 1_555 1_555
C16 C17 1_555 1_555

#END
