
#######################################################################
#
#                 Cambridge Crystallographic Data Centre
#                                CCDC 
#
#######################################################################
#
# If this CIF has been generated from an entry in the Cambridge 
# Structural Database, then it will include bibliographic, chemical, 
# crystal, experimental, refinement or atomic coordinate data resulting 
# from the CCDC's data processing and validation procedures.
#
#######################################################################

data_IXIDAW
_chemical_formula_moiety         'C19 H10 F6 N4'
_chemical_name_systematic        
7-(3,5-bis(trifluoromethyl)phenyl)-2-phenyl[1,2,4]triazolo[1,5-a]pyrimidine
_symmetry_cell_setting           triclinic
_symmetry_space_group_name_H-M   'P -1'
_symmetry_Int_Tables_number      2
_space_group_name_Hall           '-P 1'
loop_
_symmetry_equiv_pos_site_id
_symmetry_equiv_pos_as_xyz
1 x,y,z
2 -x,-y,-z
_cell_length_a                   7.0493(4)
_cell_length_b                   9.2417(8)
_cell_length_c                   15.1514(11)
_cell_angle_alpha                94.912(7)
_cell_angle_beta                 103.007(6)
_cell_angle_gamma                111.772(7)
_cell_volume                     877.409
_cell_formula_units_Z            2
loop_
_atom_site_label
_atom_site_type_symbol
_atom_site_fract_x
_atom_site_fract_y
_atom_site_fract_z
C1 C 0.7176(4) 0.4296(3) 0.55462(18)
C2 C 0.8614(4) 0.6439(3) 0.5104(2)
C3 C 0.7278(4) 0.5482(3) 0.34588(18)
C4 C 0.8393(4) 0.6999(3) 0.3382(2)
H1 H 0.8386 0.7257 0.2801
C5 C 0.9550(5) 0.8172(4) 0.4172(2)
H2 H 1.0274 0.9198 0.4089
C6 C 0.6565(4) 0.3195(3) 0.61702(18)
C7 C 0.7366(4) 0.3727(4) 0.7115(2)
H3 H 0.8299 0.4779 0.7348
C8 C 0.6789(5) 0.2707(5) 0.7712(2)
H4 H 0.7341 0.3074 0.8345
C9 C 0.5404(6) 0.1149(5) 0.7379(3)
H5 H 0.5011 0.0466 0.7784
C10 C 0.4602(5) 0.0611(4) 0.6439(2)
H6 H 0.3666 -0.0441 0.6210
C11 C 0.5178(5) 0.1617(4) 0.5839(2)
H7 H 0.4634 0.1239 0.5207
C12 C 0.5958(4) 0.4186(3) 0.26606(18)
C13 C 0.6643(5) 0.4180(4) 0.1870(2)
H8 H 0.7953 0.4938 0.1869
C14 C 0.5391(5) 0.3054(4) 0.1083(2)
C15 C 0.3437(5) 0.1931(4) 0.1070(2)
H9 H 0.2589 0.1180 0.0539
C16 C 0.2757(5) 0.1936(4) 0.1855(2)
C17 C 0.3994(4) 0.3035(3) 0.26462(18)
H10 H 0.3517 0.3009 0.3172
C18 C 0.6115(8) 0.3070(6) 0.0234(3)
C19 C 0.0613(6) 0.0766(5) 0.1838(3)
F1 F 0.6069(8) 0.1688(5) -0.0103(3)
F2 F 0.7959(10) 0.4159(10) 0.0307(4)
F3 F 0.4811(7) 0.3317(7) -0.0468(2)
F4 F -0.0865(7) 0.1321(7) 0.1626(6)
F5 F -0.0013(7) -0.0572(5) 0.1231(3)
F6 F 0.0526(5) 0.0293(5) 0.2625(2)
N1 N 0.7392(3) 0.5224(3) 0.43430(15)
N2 N 0.6467(3) 0.3842(3) 0.46296(15)
N3 N 0.8489(3) 0.5850(3) 0.58664(16)
N4 N 0.9690(4) 0.7932(3) 0.50198(19)
F7? F 0.794(6) 0.301(3) 0.0387(16)
F8? F 0.682(6) 0.433(6) 0.009(3)
F9? F 0.488(4) 0.213(4) -0.0466(12)
F10? F -0.066(4) 0.070(5) 0.112(3)
F11? F 0.034(4) -0.063(3) 0.1751(16)
F12? F -0.014(3) 0.100(3) 0.2409(14)
loop_
_geom_bond_atom_site_label_1
_geom_bond_atom_site_label_2
_geom_bond_site_symmetry_1
_geom_bond_site_symmetry_2
C1 C6 1_555 1_555
C2 N1 1_555 1_555
C3 C4 1_555 1_555
C4 H1 1_555 1_555
C5 C4 1_555 1_555
H2 C5 1_555 1_555
C6 C7 1_555 1_555
C7 H3 1_555 1_555
C8 C7 1_555 1_555
H4 C8 1_555 1_555
C9 C8 1_555 1_555
H5 C9 1_555 1_555
C10 C9 1_555 1_555
H6 C10 1_555 1_555
C11 C6 1_555 1_555
H7 C11 1_555 1_555
C12 C3 1_555 1_555
C13 C12 1_555 1_555
H8 C13 1_555 1_555
C14 C13 1_555 1_555
C15 C14 1_555 1_555
H9 C15 1_555 1_555
C16 C15 1_555 1_555
C17 C12 1_555 1_555
H10 C17 1_555 1_555
C18 C14 1_555 1_555
C19 C16 1_555 1_555
F1 C18 1_555 1_555
F2 C18 1_555 1_555
F3 C18 1_555 1_555
F4 C19 1_555 1_555
F5 C19 1_555 1_555
F6 C19 1_555 1_555
N1 C3 1_555 1_555
N2 C1 1_555 1_555
N3 C1 1_555 1_555
N4 C2 1_555 1_555
C2 N3 1_555 1_555
C5 N4 1_555 1_555
C10 C11 1_555 1_555
C16 C17 1_555 1_555
N1 N2 1_555 1_555

#END
