
#######################################################################
#
#                 Cambridge Crystallographic Data Centre
#                                CCDC 
#
#######################################################################
#
# If this CIF has been generated from an entry in the Cambridge 
# Structural Database, then it will include bibliographic, chemical, 
# crystal, experimental, refinement or atomic coordinate data resulting 
# from the CCDC's data processing and validation procedures.
#
#######################################################################

data_IXIDUQ
_chemical_formula_moiety         'C13 H13 N5'
_chemical_name_systematic        
N,N-dimethyl-4-([1,2,4]triazolo[1,5-a]pyrimidin-2-yl)aniline
_symmetry_cell_setting           monoclinic
_symmetry_space_group_name_H-M   'P 21/n'
_symmetry_Int_Tables_number      14
_space_group_name_Hall           '-P 2yn'
loop_
_symmetry_equiv_pos_site_id
_symmetry_equiv_pos_as_xyz
1 x,y,z
2 1/2-x,1/2+y,1/2-z
3 -x,-y,-z
4 1/2+x,1/2-y,1/2+z
_cell_length_a                   6.3116(3)
_cell_length_b                   19.0781(12)
_cell_length_c                   9.8328(6)
_cell_angle_alpha                90
_cell_angle_beta                 99.199(5)
_cell_angle_gamma                90
_cell_volume                     1168.77
_cell_formula_units_Z            4
loop_
_atom_site_label
_atom_site_type_symbol
_atom_site_fract_x
_atom_site_fract_y
_atom_site_fract_z
C1 C 0.4300(2) 0.11157(8) 0.52857(15)
C2 C 0.3855(2) 0.19335(9) 0.38300(16)
C3 C 0.7519(3) 0.21156(10) 0.35739(17)
H1 H 0.8964 0.1998 0.3782
C4 C 0.6826(3) 0.26361(10) 0.26846(18)
H2 H 0.7795 0.2893 0.2266
C5 C 0.4635(3) 0.27833(10) 0.24024(18)
H3 H 0.4197 0.3147 0.1792
C6 C 0.3884(2) 0.05798(9) 0.62654(16)
C7 C 0.1835(2) 0.03818(9) 0.64338(18)
H4 H 0.0662 0.0600 0.5909
C8 C 0.1493(3) -0.01290(10) 0.7357(2)
H5 H 0.0092 -0.0250 0.7441
C9 C 0.3203(2) -0.04719(9) 0.81771(17)
C10 C 0.5266(3) -0.02670(10) 0.80018(18)
H6 H 0.6447 -0.0480 0.8527
C11 C 0.5584(3) 0.02403(9) 0.70745(18)
H7 H 0.6981 0.0362 0.6982
C12 C 0.0754(3) -0.11591(13) 0.9351(2)
H8 H 0.0185 -0.0769 0.9792
H9 H 0.0825 -0.1562 0.9941
H10 H -0.0160 -0.1259 0.8496
C13 C 0.4671(3) -0.13266(11) 0.9937(2)
H11 H 0.5567 -0.1547 0.9360
H12 H 0.4144 -0.1674 1.0505
H13 H 0.5490 -0.0983 1.0510
N1 N 0.2748(2) 0.15169(7) 0.45439(14)
N2 N 0.63028(19) 0.12495(7) 0.50884(13)
N3 N 0.60064(19) 0.17740(7) 0.41470(13)
N4 N 0.3140(2) 0.24469(8) 0.29348(15)
N5 N 0.2883(2) -0.09893(9) 0.90870(17)
loop_
_geom_bond_atom_site_label_1
_geom_bond_atom_site_label_2
_geom_bond_site_symmetry_1
_geom_bond_site_symmetry_2
C1 C6 1_555 1_555
C2 N1 1_555 1_555
C3 H1 1_555 1_555
C4 C3 1_555 1_555
H2 C4 1_555 1_555
C5 C4 1_555 1_555
H3 C5 1_555 1_555
C6 C7 1_555 1_555
C7 H4 1_555 1_555
C8 C7 1_555 1_555
H5 C8 1_555 1_555
C9 C8 1_555 1_555
C10 C9 1_555 1_555
H6 C10 1_555 1_555
C11 C6 1_555 1_555
H7 C11 1_555 1_555
C12 H8 1_555 1_555
H9 C12 1_555 1_555
H10 C12 1_555 1_555
C13 H11 1_555 1_555
H12 C13 1_555 1_555
H13 C13 1_555 1_555
N1 C1 1_555 1_555
N2 C1 1_555 1_555
N3 C2 1_555 1_555
N4 C2 1_555 1_555
N5 C9 1_555 1_555
C3 N3 1_555 1_555
C5 N4 1_555 1_555
C10 C11 1_555 1_555
C12 N5 1_555 1_555
C13 N5 1_555 1_555
N2 N3 1_555 1_555

#END
