
#######################################################################
#
#                 Cambridge Crystallographic Data Centre
#                                CCDC 
#
#######################################################################
#
# If this CIF has been generated from an entry in the Cambridge 
# Structural Database, then it will include bibliographic, chemical, 
# crystal, experimental, refinement or atomic coordinate data resulting 
# from the CCDC's data processing and validation procedures.
#
#######################################################################

data_IXIFUR
_chemical_formula_moiety         'C42 H76 Br2 Mg2 N10 Si2,C1 H2 Cl2'
_chemical_name_systematic        
"bis(\m~2~-2,4-bis(Dimethylamino)-1-(2,6-di-isopropylphenyl)-5-(trimethylsilyl)-1,3,5-triazapenta-1,4-diene-N,N',N',N'')-dibromo-di-magnesium dichloromethane solvate"
_symmetry_cell_setting           triclinic
_symmetry_space_group_name_H-M   'P -1'
_symmetry_Int_Tables_number      2
_space_group_name_Hall           '-P 1'
loop_
_symmetry_equiv_pos_site_id
_symmetry_equiv_pos_as_xyz
1 x,y,z
2 -x,-y,-z
_cell_length_a                   12.3170(8)
_cell_length_b                   13.8217(9)
_cell_length_c                   17.1073(11)
_cell_angle_alpha                73.8230(10)
_cell_angle_beta                 82.7830(10)
_cell_angle_gamma                76.2170(10)
_cell_volume                     2711.04
_cell_formula_units_Z            2
loop_
_atom_site_label
_atom_site_type_symbol
_atom_site_fract_x
_atom_site_fract_y
_atom_site_fract_z
Mg1 Mg 0.96933(6) 0.49523(5) -0.08796(4)
Br1 Br 0.94965(2) 0.648947(19) -0.204480(15)
N1 N 0.89421(15) 0.62611(13) 0.09466(11)
N2 N 0.72328(15) 0.66264(14) 0.02883(12)
N3 N 0.87184(14) 0.51900(13) 0.02290(11)
N4 N 0.73524(16) 0.41915(15) 0.07835(11)
N5 N 0.82802(15) 0.42373(14) -0.05322(11)
Si1 Si 0.76586(6) 0.37368(5) -0.11416(4)
C1 C 0.88472(18) 0.72480(17) 0.10968(14)
C2 C 0.87388(19) 0.73021(18) 0.19156(15)
C3 C 0.8706(2) 0.8244(2) 0.20636(17)
H1 H 0.8636 0.8295 0.2599
C4 C 0.8775(2) 0.9106(2) 0.14360(19)
H2 H 0.8735 0.9734 0.1550
C5 C 0.8901(2) 0.90438(19) 0.06427(18)
H3 H 0.8960 0.9629 0.0224
C6 C 0.89418(19) 0.81148(17) 0.04510(15)
C7 C 0.9128(2) 0.80814(19) -0.04375(15)
H4 H 0.9086 0.7389 -0.0456
C8 C 0.8224(3) 0.8847(3) -0.0964(2)
H5 H 0.7500 0.8734 -0.0731
H6 H 0.8332 0.8750 -0.1505
H7 H 0.8273 0.9537 -0.0987
C9 C 1.0280(2) 0.8250(2) -0.07966(18)
H8 H 1.0346 0.8927 -0.0794
H9 H 1.0380 0.8185 -0.1347
H10 H 1.0843 0.7743 -0.0476
C10 C 0.8644(2) 0.6362(2) 0.26209(15)
H11 H 0.9101 0.5755 0.2461
C11 C 0.9075(3) 0.6393(3) 0.34162(18)
H12 H 0.9792 0.6579 0.3303
H13 H 0.9147 0.5725 0.3795
H14 H 0.8556 0.6893 0.3647
C12 C 0.7443(3) 0.6202(2) 0.28061(19)
H15 H 0.6962 0.6809 0.2922
H16 H 0.7418 0.5623 0.3270
H17 H 0.7194 0.6072 0.2342
C13 C 0.82669(18) 0.60634(16) 0.05070(13)
C14 C 0.6523(2) 0.7328(2) 0.07312(18)
H18 H 0.6907 0.7341 0.1182
H19 H 0.5840 0.7096 0.0932
H20 H 0.6353 0.8008 0.0373
C15 C 0.6735(2) 0.6562(2) -0.04149(17)
H21 H 0.7314 0.6310 -0.0785
H22 H 0.6331 0.7234 -0.0685
H23 H 0.6229 0.6100 -0.0240
C16 C 0.80638(17) 0.45195(16) 0.01519(13)
C17 C 0.7274(2) 0.4449(2) 0.15637(15)
H24 H 0.7964 0.4613 0.1636
H25 H 0.7138 0.3871 0.1998
H26 H 0.6670 0.5032 0.1570
C18 C 0.6702(2) 0.3442(2) 0.07838(17)
H27 H 0.5940 0.3787 0.0682
H28 H 0.6726 0.2946 0.1305
H29 H 0.7012 0.3096 0.0365
C19 C 0.6127(2) 0.4330(3) -0.12172(19)
H30 H 0.5721 0.4030 -0.0728
H31 H 0.5866 0.4203 -0.1678
H32 H 0.6010 0.5060 -0.1285
C20 C 0.7885(3) 0.2306(2) -0.08764(18)
H33 H 0.8674 0.2013 -0.0898
H34 H 0.7533 0.2105 -0.1258
H35 H 0.7566 0.2063 -0.0336
C21 C 0.8326(2) 0.4135(2) -0.21770(16)
H36 H 0.8272 0.4867 -0.2326
H37 H 0.7952 0.3956 -0.2559
H38 H 0.9100 0.3788 -0.2183
Mg1A Mg 1.03067(6) 0.50477(5) 0.08796(4)
Br1A Br 1.05035(2) 0.351053(19) 0.204480(15)
N1A N 1.10579(15) 0.37389(13) -0.09466(11)
N2A N 1.27672(15) 0.33736(14) -0.02883(12)
N3A N 1.12816(14) 0.48100(13) -0.02290(11)
N4A N 1.26476(16) 0.58085(15) -0.07835(11)
N5A N 1.17198(15) 0.57627(14) 0.05322(11)
Si1A Si 1.23414(6) 0.62632(5) 0.11416(4)
C1A C 1.11528(18) 0.27520(17) -0.10968(14)
C2A C 1.12612(19) 0.26979(18) -0.19156(15)
C3A C 1.1294(2) 0.1756(2) -0.20636(17)
H1A H 1.1364 0.1705 -0.2599
C4A C 1.1225(2) 0.0894(2) -0.14360(19)
H2A H 1.1265 0.0266 -0.1550
C5A C 1.1099(2) 0.09562(19) -0.06427(18)
H3A H 1.1040 0.0371 -0.0224
C6A C 1.10582(19) 0.18852(17) -0.04510(15)
C7A C 1.0872(2) 0.19186(19) 0.04375(15)
H4A H 1.0914 0.2611 0.0456
C8A C 1.1776(3) 0.1153(3) 0.0964(2)
H5A H 1.2500 0.1266 0.0731
H6A H 1.1668 0.1250 0.1505
H7A H 1.1727 0.0463 0.0987
C9A C 0.9720(2) 0.1750(2) 0.07966(18)
H8A H 0.9654 0.1073 0.0794
H9A H 0.9620 0.1815 0.1347
H10A H 0.9157 0.2257 0.0476
C10A C 1.1356(2) 0.3638(2) -0.26209(15)
H11A H 1.0899 0.4245 -0.2461
C11A C 1.0925(3) 0.3607(3) -0.34162(18)
H12A H 1.0208 0.3421 -0.3303
H13A H 1.0853 0.4275 -0.3795
H14A H 1.1444 0.3107 -0.3647
C12A C 1.2557(3) 0.3798(2) -0.28061(19)
H15A H 1.3038 0.3191 -0.2922
H16A H 1.2582 0.4377 -0.3270
H17A H 1.2806 0.3928 -0.2342
C13A C 1.17331(18) 0.39366(16) -0.05070(13)
C14A C 1.3477(2) 0.2672(2) -0.07312(18)
H18A H 1.3093 0.2659 -0.1182
H19A H 1.4160 0.2904 -0.0932
H20A H 1.3647 0.1992 -0.0373
C15A C 1.3265(2) 0.3438(2) 0.04149(17)
H21A H 1.2686 0.3690 0.0785
H22A H 1.3669 0.2766 0.0685
H23A H 1.3771 0.3900 0.0240
C16A C 1.19362(17) 0.54805(16) -0.01519(13)
C17A C 1.2726(2) 0.5551(2) -0.15637(15)
H24A H 1.2036 0.5387 -0.1636
H25A H 1.2862 0.6129 -0.1998
H26A H 1.3330 0.4968 -0.1570
C18A C 1.3298(2) 0.6558(2) -0.07838(17)
H27A H 1.4060 0.6213 -0.0682
H28A H 1.3274 0.7054 -0.1305
H29A H 1.2988 0.6904 -0.0365
C19A C 1.3873(2) 0.5670(3) 0.12172(19)
H30A H 1.4279 0.5970 0.0728
H31A H 1.4134 0.5797 0.1678
H32A H 1.3990 0.4940 0.1285
C20A C 1.2115(3) 0.7694(2) 0.08764(18)
H33A H 1.1326 0.7987 0.0898
H34A H 1.2467 0.7895 0.1258
H35A H 1.2434 0.7937 0.0336
C21A C 1.1674(2) 0.5865(2) 0.21770(16)
H36A H 1.1728 0.5133 0.2326
H37A H 1.2048 0.6044 0.2559
H38A H 1.0900 0.6212 0.2183
Mg2 Mg 0.49304(6) 0.09646(5) 0.53654(4)
Br2 Br 0.37816(2) 0.10491(2) 0.662602(15)
N6 N 0.33371(14) -0.07176(13) 0.45623(11)
N7 N 0.20502(15) 0.08917(14) 0.44847(13)
N8 N 0.40247(14) 0.06896(13) 0.44608(10)
N9 N 0.37291(17) 0.19684(14) 0.32151(11)
N10 N 0.44558(15) 0.22459(14) 0.43416(11)
Si2 Si 0.43778(6) 0.35266(5) 0.43062(4)
C22 C 0.25762(18) -0.13901(17) 0.48724(14)
C23 C 0.2288(2) -0.19020(19) 0.43464(16)
C24 C 0.1687(2) -0.2675(2) 0.46899(18)
H39 H 0.1496 -0.3028 0.4355
C25 C 0.1372(2) -0.2928(2) 0.55026(19)
H40 H 0.0986 -0.3455 0.5717
C26 C 0.1629(2) -0.23968(19) 0.60049(17)
H41 H 0.1400 -0.2563 0.6556
C27 C 0.22240(18) -0.16181(18) 0.57012(15)
C28 C 0.2447(2) -0.10268(19) 0.62724(14)
H42 H 0.2958 -0.0584 0.5975
C29 C 0.1371(2) -0.0326(2) 0.65128(18)
H43 H 0.1038 0.0133 0.6030
H44 H 0.1543 0.0068 0.6845
H45 H 0.0856 -0.0739 0.6815
C30 C 0.3000(2) -0.1717(2) 0.70382(17)
H46 H 0.2477 -0.2092 0.7381
H47 H 0.3226 -0.1301 0.7327
H48 H 0.3645 -0.2193 0.6890
C31 C 0.2557(3) -0.1602(2) 0.34290(18)
H49 H 0.2893 -0.0996 0.3297
C32 C 0.1484(3) -0.1310(3) 0.2953(2)
H50 H 0.1197 -0.1916 0.3012
H51 H 0.1662 -0.1019 0.2386
H52 H 0.0930 -0.0814 0.3165
C33 C 0.3373(3) -0.2445(3) 0.3108(2)
H53 H 0.4103 -0.2533 0.3292
H54 H 0.3407 -0.2251 0.2523
H55 H 0.3120 -0.3081 0.3307
C34 C 0.30916(17) 0.02839(16) 0.44962(13)
C35 C 0.1106(2) 0.0685(2) 0.41779(19)
H56 H 0.1342 0.0066 0.3995
H57 H 0.0827 0.1252 0.3730
H58 H 0.0524 0.0600 0.4605
C36 C 0.1806(2) 0.18837(19) 0.46921(18)
H59 H 0.2386 0.1904 0.5010
H60 H 0.1099 0.1966 0.5002
H61 H 0.1772 0.2432 0.4201
C37 C 0.40556(17) 0.16895(16) 0.39860(13)
C38 C 0.3547(2) 0.12371(19) 0.27959(15)
H62 H 0.3837 0.0546 0.3104
H63 H 0.3926 0.1357 0.2263
H64 H 0.2759 0.1328 0.2745
C39 C 0.3690(3) 0.2990(2) 0.26815(16)
H65 H 0.3579 0.3479 0.3003
H66 H 0.3081 0.3165 0.2333
H67 H 0.4382 0.3003 0.2355
C40 C 0.5246(3) 0.4240(2) 0.34744(17)
H68 H 0.6021 0.3903 0.3523
H69 H 0.5145 0.4934 0.3517
H70 H 0.5018 0.4251 0.2955
C41 C 0.2896(2) 0.4252(2) 0.4322(2)
H71 H 0.2557 0.4248 0.3847
H72 H 0.2875 0.4950 0.4322
H73 H 0.2492 0.3931 0.4803
C42 C 0.4925(3) 0.3497(2) 0.52703(17)
H74 H 0.4557 0.3077 0.5719
H75 H 0.4787 0.4185 0.5334
H76 H 0.5717 0.3214 0.5259
Mg2A Mg 0.50696(6) -0.09646(5) 0.46346(4)
Br2A Br 0.62184(2) -0.10491(2) 0.337398(15)
N6A N 0.66629(14) 0.07176(13) 0.54377(11)
N7A N 0.79498(15) -0.08917(14) 0.55153(13)
N8A N 0.59753(14) -0.06896(13) 0.55392(10)
N9A N 0.62709(17) -0.19684(14) 0.67849(11)
N10A N 0.55442(15) -0.22459(14) 0.56584(11)
Si2A Si 0.56222(6) -0.35266(5) 0.56938(4)
C22A C 0.74238(18) 0.13901(17) 0.51276(14)
C23A C 0.7712(2) 0.19020(19) 0.56536(16)
C24A C 0.8313(2) 0.2675(2) 0.53101(18)
H39A H 0.8504 0.3028 0.5645
C25A C 0.8628(2) 0.2928(2) 0.44974(19)
H40A H 0.9014 0.3455 0.4283
C26A C 0.8371(2) 0.23968(19) 0.39951(17)
H41A H 0.8600 0.2563 0.3444
C27A C 0.77760(18) 0.16181(18) 0.42988(15)
C28A C 0.7553(2) 0.10268(19) 0.37276(14)
H42A H 0.7042 0.0584 0.4025
C29A C 0.8629(2) 0.0326(2) 0.34872(18)
H43A H 0.8962 -0.0133 0.3970
H44A H 0.8457 -0.0068 0.3155
H45A H 0.9144 0.0739 0.3185
C30A C 0.7000(2) 0.1717(2) 0.29618(17)
H46A H 0.7523 0.2092 0.2619
H47A H 0.6774 0.1301 0.2673
H48A H 0.6355 0.2193 0.3110
C31A C 0.7443(3) 0.1602(2) 0.65710(18)
H49A H 0.7107 0.0996 0.6703
C32A C 0.8516(3) 0.1310(3) 0.7047(2)
H50A H 0.8803 0.1916 0.6988
H51A H 0.8338 0.1019 0.7614
H52A H 0.9070 0.0814 0.6835
C33A C 0.6627(3) 0.2445(3) 0.6892(2)
H53A H 0.5897 0.2533 0.6708
H54A H 0.6593 0.2251 0.7477
H55A H 0.6880 0.3081 0.6693
C34A C 0.69084(17) -0.02839(16) 0.55038(13)
C35A C 0.8894(2) -0.0685(2) 0.58221(19)
H56A H 0.8658 -0.0066 0.6005
H57A H 0.9173 -0.1252 0.6270
H58A H 0.9476 -0.0600 0.5395
C36A C 0.8194(2) -0.18837(19) 0.53079(18)
H59A H 0.7614 -0.1904 0.4990
H60A H 0.8901 -0.1966 0.4998
H61A H 0.8228 -0.2432 0.5799
C37A C 0.59444(17) -0.16895(16) 0.60140(13)
C38A C 0.6453(2) -0.12371(19) 0.72041(15)
H62A H 0.6163 -0.0546 0.6896
H63A H 0.6074 -0.1357 0.7737
H64A H 0.7241 -0.1328 0.7255
C39A C 0.6310(3) -0.2990(2) 0.73185(16)
H65A H 0.6421 -0.3479 0.6997
H66A H 0.6919 -0.3165 0.7667
H67A H 0.5618 -0.3003 0.7645
C40A C 0.4754(3) -0.4240(2) 0.65256(17)
H68A H 0.3979 -0.3903 0.6477
H69A H 0.4855 -0.4934 0.6483
H70A H 0.4982 -0.4251 0.7045
C41A C 0.7104(2) -0.4252(2) 0.5678(2)
H71A H 0.7443 -0.4248 0.6153
H72A H 0.7125 -0.4950 0.5678
H73A H 0.7508 -0.3931 0.5197
C42A C 0.5075(3) -0.3497(2) 0.47297(17)
H74A H 0.5443 -0.3077 0.4281
H75A H 0.5213 -0.4185 0.4666
H76A H 0.4283 -0.3214 0.4741
C43 C 0.4104(2) 1.0159(2) 0.8824(2)
H77 H 0.3813 1.0492 0.8291
H78 H 0.3598 1.0450 0.9222
Cl1 Cl 0.41411(9) 0.88430(7) 0.90478(7)
Cl2 Cl 0.54149(7) 1.04121(8) 0.88281(6)
loop_
_geom_bond_atom_site_label_1
_geom_bond_atom_site_label_2
_geom_bond_site_symmetry_1
_geom_bond_site_symmetry_2
Mg1 Br1 1_555 1_555
N1 C1 1_555 1_555
N2 C13 1_555 1_555
N3 Mg1 1_555 1_555
N4 C16 1_555 1_555
N5 Mg1 1_555 1_555
Si1 N5 1_555 1_555
C1 C2 1_555 1_555
C2 C3 1_555 1_555
C3 H1 1_555 1_555
C4 C3 1_555 1_555
H2 C4 1_555 1_555
C5 C4 1_555 1_555
H3 C5 1_555 1_555
C6 C1 1_555 1_555
C7 C6 1_555 1_555
H4 C7 1_555 1_555
C8 C7 1_555 1_555
H5 C8 1_555 1_555
H6 C8 1_555 1_555
H7 C8 1_555 1_555
C9 C7 1_555 1_555
H8 C9 1_555 1_555
H9 C9 1_555 1_555
H10 C9 1_555 1_555
C10 C2 1_555 1_555
H11 C10 1_555 1_555
C11 C10 1_555 1_555
H12 C11 1_555 1_555
H13 C11 1_555 1_555
H14 C11 1_555 1_555
C12 C10 1_555 1_555
H15 C12 1_555 1_555
H16 C12 1_555 1_555
H17 C12 1_555 1_555
C13 N1 1_555 1_555
C14 N2 1_555 1_555
H18 C14 1_555 1_555
H19 C14 1_555 1_555
H20 C14 1_555 1_555
C15 N2 1_555 1_555
H21 C15 1_555 1_555
H22 C15 1_555 1_555
H23 C15 1_555 1_555
C16 N3 1_555 1_555
C17 N4 1_555 1_555
H24 C17 1_555 1_555
H25 C17 1_555 1_555
H26 C17 1_555 1_555
C18 N4 1_555 1_555
H27 C18 1_555 1_555
H28 C18 1_555 1_555
H29 C18 1_555 1_555
C19 Si1 1_555 1_555
H30 C19 1_555 1_555
H31 C19 1_555 1_555
H32 C19 1_555 1_555
C20 Si1 1_555 1_555
H33 C20 1_555 1_555
H34 C20 1_555 1_555
H35 C20 1_555 1_555
C21 Si1 1_555 1_555
H36 C21 1_555 1_555
H37 C21 1_555 1_555
H38 C21 1_555 1_555
Mg2 Br2 1_555 1_555
N6 C22 1_555 1_555
N7 C34 1_555 1_555
N8 Mg2 1_555 1_555
N9 C37 1_555 1_555
N10 Mg2 1_555 1_555
Si2 N10 1_555 1_555
C22 C23 1_555 1_555
C23 C24 1_555 1_555
C24 H39 1_555 1_555
C25 C24 1_555 1_555
H40 C25 1_555 1_555
C26 C25 1_555 1_555
H41 C26 1_555 1_555
C27 C22 1_555 1_555
C28 C27 1_555 1_555
H42 C28 1_555 1_555
C29 C28 1_555 1_555
H43 C29 1_555 1_555
H44 C29 1_555 1_555
H45 C29 1_555 1_555
C30 C28 1_555 1_555
H46 C30 1_555 1_555
H47 C30 1_555 1_555
H48 C30 1_555 1_555
C31 C23 1_555 1_555
H49 C31 1_555 1_555
C32 C31 1_555 1_555
H50 C32 1_555 1_555
H51 C32 1_555 1_555
H52 C32 1_555 1_555
C33 C31 1_555 1_555
H53 C33 1_555 1_555
H54 C33 1_555 1_555
H55 C33 1_555 1_555
C34 N6 1_555 1_555
C35 N7 1_555 1_555
H56 C35 1_555 1_555
H57 C35 1_555 1_555
H58 C35 1_555 1_555
C36 N7 1_555 1_555
H59 C36 1_555 1_555
H60 C36 1_555 1_555
H61 C36 1_555 1_555
C37 N8 1_555 1_555
C38 N9 1_555 1_555
H62 C38 1_555 1_555
H63 C38 1_555 1_555
H64 C38 1_555 1_555
C39 N9 1_555 1_555
H65 C39 1_555 1_555
H66 C39 1_555 1_555
H67 C39 1_555 1_555
C40 Si2 1_555 1_555
H68 C40 1_555 1_555
H69 C40 1_555 1_555
H70 C40 1_555 1_555
C41 Si2 1_555 1_555
H71 C41 1_555 1_555
H72 C41 1_555 1_555
H73 C41 1_555 1_555
C42 Si2 1_555 1_555
H74 C42 1_555 1_555
H75 C42 1_555 1_555
H76 C42 1_555 1_555
C43 H77 1_555 1_555
H78 C43 1_555 1_555
Cl1 C43 1_555 1_555
Cl2 C43 1_555 1_555
Mg1A N1 1_555 1_555
Br1A Mg1A 1_555 1_555
N1A Mg1 1_555 1_555
N2A C13A 1_555 1_555
N3A Mg1 1_555 1_555
N4A C16A 1_555 1_555
N5A Mg1A 1_555 1_555
Si1A N5A 1_555 1_555
C1A N1A 1_555 1_555
C2A C1A 1_555 1_555
C3A C2A 1_555 1_555
H1A C3A 1_555 1_555
C4A C3A 1_555 1_555
H2A C4A 1_555 1_555
C5A C4A 1_555 1_555
H3A C5A 1_555 1_555
C6A C1A 1_555 1_555
C7A C6A 1_555 1_555
H4A C7A 1_555 1_555
C8A C7A 1_555 1_555
H5A C8A 1_555 1_555
H6A C8A 1_555 1_555
H7A C8A 1_555 1_555
C9A C7A 1_555 1_555
H8A C9A 1_555 1_555
H9A C9A 1_555 1_555
H10A C9A 1_555 1_555
C10A C2A 1_555 1_555
H11A C10A 1_555 1_555
C11A C10A 1_555 1_555
H12A C11A 1_555 1_555
H13A C11A 1_555 1_555
H14A C11A 1_555 1_555
C12A C10A 1_555 1_555
H15A C12A 1_555 1_555
H16A C12A 1_555 1_555
H17A C12A 1_555 1_555
C13A N1A 1_555 1_555
C14A N2A 1_555 1_555
H18A C14A 1_555 1_555
H19A C14A 1_555 1_555
H20A C14A 1_555 1_555
C15A N2A 1_555 1_555
H21A C15A 1_555 1_555
H22A C15A 1_555 1_555
H23A C15A 1_555 1_555
C16A N3A 1_555 1_555
C17A N4A 1_555 1_555
H24A C17A 1_555 1_555
H25A C17A 1_555 1_555
H26A C17A 1_555 1_555
C18A N4A 1_555 1_555
H27A C18A 1_555 1_555
H28A C18A 1_555 1_555
H29A C18A 1_555 1_555
C19A Si1A 1_555 1_555
H30A C19A 1_555 1_555
H31A C19A 1_555 1_555
H32A C19A 1_555 1_555
C20A Si1A 1_555 1_555
H33A C20A 1_555 1_555
H34A C20A 1_555 1_555
H35A C20A 1_555 1_555
C21A Si1A 1_555 1_555
H36A C21A 1_555 1_555
H37A C21A 1_555 1_555
H38A C21A 1_555 1_555
Mg2A N6 1_555 1_555
Br2A Mg2A 1_555 1_555
N6A Mg2 1_555 1_555
N7A C34A 1_555 1_555
N8A Mg2 1_555 1_555
N9A C37A 1_555 1_555
N10A Mg2A 1_555 1_555
Si2A N10A 1_555 1_555
C22A N6A 1_555 1_555
C23A C22A 1_555 1_555
C24A C23A 1_555 1_555
H39A C24A 1_555 1_555
C25A C24A 1_555 1_555
H40A C25A 1_555 1_555
C26A C25A 1_555 1_555
H41A C26A 1_555 1_555
C27A C22A 1_555 1_555
C28A C27A 1_555 1_555
H42A C28A 1_555 1_555
C29A C28A 1_555 1_555
H43A C29A 1_555 1_555
H44A C29A 1_555 1_555
H45A C29A 1_555 1_555
C30A C28A 1_555 1_555
H46A C30A 1_555 1_555
H47A C30A 1_555 1_555
H48A C30A 1_555 1_555
C31A C23A 1_555 1_555
H49A C31A 1_555 1_555
C32A C31A 1_555 1_555
H50A C32A 1_555 1_555
H51A C32A 1_555 1_555
H52A C32A 1_555 1_555
C33A C31A 1_555 1_555
H53A C33A 1_555 1_555
H54A C33A 1_555 1_555
H55A C33A 1_555 1_555
C34A N6A 1_555 1_555
C35A N7A 1_555 1_555
H56A C35A 1_555 1_555
H57A C35A 1_555 1_555
H58A C35A 1_555 1_555
C36A N7A 1_555 1_555
H59A C36A 1_555 1_555
H60A C36A 1_555 1_555
H61A C36A 1_555 1_555
C37A N8A 1_555 1_555
C38A N9A 1_555 1_555
H62A C38A 1_555 1_555
H63A C38A 1_555 1_555
H64A C38A 1_555 1_555
C39A N9A 1_555 1_555
H65A C39A 1_555 1_555
H66A C39A 1_555 1_555
H67A C39A 1_555 1_555
C40A Si2A 1_555 1_555
H68A C40A 1_555 1_555
H69A C40A 1_555 1_555
H70A C40A 1_555 1_555
C41A Si2A 1_555 1_555
H71A C41A 1_555 1_555
H72A C41A 1_555 1_555
H73A C41A 1_555 1_555
C42A Si2A 1_555 1_555
H74A C42A 1_555 1_555
H75A C42A 1_555 1_555
H76A C42A 1_555 1_555
N3 C13 1_555 1_555
N3 Mg1A 1_555 1_555
N5 C16 1_555 1_555
C5 C6 1_555 1_555
N8 C34 1_555 1_555
N8 Mg2A 1_555 1_555
N10 C37 1_555 1_555
C26 C27 1_555 1_555
Mg1A N3A 1_555 1_555
N3A C13A 1_555 1_555
N5A C16A 1_555 1_555
C5A C6A 1_555 1_555
Mg2A N8A 1_555 1_555
N8A C34A 1_555 1_555
N10A C37A 1_555 1_555
C26A C27A 1_555 1_555

#END
