
#######################################################################
#
#                 Cambridge Crystallographic Data Centre
#                                CCDC 
#
#######################################################################
#
# If this CIF has been generated from an entry in the Cambridge 
# Structural Database, then it will include bibliographic, chemical, 
# crystal, experimental, refinement or atomic coordinate data resulting 
# from the CCDC's data processing and validation procedures.
#
#######################################################################

data_IXIJEG
_chemical_formula_moiety         'C16 H19 N1 O5'
_chemical_name_systematic        
'methyl 2-hydroxy-5,5-dimethyl-2-(4-nitrobenzyl)hex-3-ynoate'
_symmetry_cell_setting           monoclinic
_symmetry_space_group_name_H-M   'P 21/c'
_symmetry_Int_Tables_number      14
_space_group_name_Hall           '-P 2ybc'
loop_
_symmetry_equiv_pos_site_id
_symmetry_equiv_pos_as_xyz
1 x,y,z
2 -x,1/2+y,1/2-z
3 -x,-y,-z
4 x,1/2-y,1/2+z
_cell_length_a                   12.1249(14)
_cell_length_b                   13.3777(13)
_cell_length_c                   10.4716(11)
_cell_angle_alpha                90
_cell_angle_beta                 103.422(4)
_cell_angle_gamma                90
_cell_volume                     1652.14
_exptl_crystal_colour            colorless
_exptl_crystal_description       block
_cell_formula_units_Z            4
loop_
_atom_site_label
_atom_site_type_symbol
_atom_site_fract_x
_atom_site_fract_y
_atom_site_fract_z
C1 C 0.76330(11) 0.31478(10) 0.58446(13)
C2 C 0.87001(11) 0.35951(9) 0.54842(13)
H1 H 0.9384 0.335 0.6119
H2 H 0.8739 0.3355 0.4601
C3 C 0.87088(11) 0.47217(10) 0.54877(13)
C4 C 0.91942(12) 0.52408(10) 0.66365(14)
H3 H 0.95 0.4879 0.7419
C5 C 0.92373(12) 0.62797(10) 0.66520(14)
H4 H 0.9563 0.6634 0.7435
C6 C 0.87906(11) 0.67825(10) 0.54912(13)
C7 C 0.82974(12) 0.62949(10) 0.43326(14)
H5 H 0.7994 0.6661 0.3553
C8 C 0.82567(12) 0.52554(10) 0.43389(13)
H6 H 0.7919 0.4906 0.3556
C9 C 0.66062(12) 0.33569(10) 0.48133(14)
C10 C 0.58016(12) 0.35473(11) 0.39489(15)
C11 C 0.47969(13) 0.38052(13) 0.28946(16)
C12 C 0.37604(17) 0.3836(2) 0.3456(2)
H7 H 0.3632 0.3174 0.3794
H8 H 0.31 0.403 0.2767
H9 H 0.3875 0.4325 0.4172
C13 C 0.4664(2) 0.3064(3) 0.1795(3)
H10 H 0.5337 0.3082 0.1428
H11 H 0.3991 0.3232 0.1109
H12 H 0.4577 0.2391 0.213
C14 C 0.4977(2) 0.4862(2) 0.2391(3)
H13 H 0.5093 0.5337 0.3123
H14 H 0.4308 0.5059 0.1717
H15 H 0.5645 0.4862 0.2014
C15 C 0.78173(11) 0.20105(10) 0.59931(13)
C16 C 0.81900(16) 0.05208(11) 0.49628(16)
H16 H 0.8937 0.0404 0.5545
H17 H 0.8185 0.027 0.4082
H18 H 0.7611 0.017 0.5306
N1 N 0.88726(11) 0.78783(9) 0.54879(12)
O1 O 0.75335(10) 0.35448(7) 0.70669(10)
H19 H 0.7516 0.3075 0.7594
O2 O 0.78711(11) 0.15828(8) 0.70112(11)
O3 O 0.79477(11) 0.15882(7) 0.48963(10)
O4 O 0.91852(13) 0.83147(9) 0.65371(12)
O5 O 0.86233(13) 0.83122(8) 0.44302(12)
loop_
_geom_bond_atom_site_label_1
_geom_bond_atom_site_label_2
_geom_bond_site_symmetry_1
_geom_bond_site_symmetry_2
C1 C2 1_555 1_555
C2 H1 1_555 1_555
H2 C2 1_555 1_555
C3 C2 1_555 1_555
C4 C3 1_555 1_555
H3 C4 1_555 1_555
C5 C4 1_555 1_555
H4 C5 1_555 1_555
C6 C5 1_555 1_555
C7 C6 1_555 1_555
H5 C7 1_555 1_555
C8 C3 1_555 1_555
H6 C8 1_555 1_555
C9 C1 1_555 1_555
C10 C9 1_555 1_555
C11 C10 1_555 1_555
C12 C11 1_555 1_555
H7 C12 1_555 1_555
H8 C12 1_555 1_555
H9 C12 1_555 1_555
C13 C11 1_555 1_555
H10 C13 1_555 1_555
H11 C13 1_555 1_555
H12 C13 1_555 1_555
C14 C11 1_555 1_555
H13 C14 1_555 1_555
H14 C14 1_555 1_555
H15 C14 1_555 1_555
C15 C1 1_555 1_555
C16 H16 1_555 1_555
H17 C16 1_555 1_555
H18 C16 1_555 1_555
N1 C6 1_555 1_555
O1 C1 1_555 1_555
H19 O1 1_555 1_555
O2 C15 1_555 1_555
O3 C15 1_555 1_555
O4 N1 1_555 1_555
O5 N1 1_555 1_555
C7 C8 1_555 1_555
C16 O3 1_555 1_555

#END
