
#######################################################################
#
#                 Cambridge Crystallographic Data Centre
#                                CCDC 
#
#######################################################################
#
# If this CIF has been generated from an entry in the Cambridge 
# Structural Database, then it will include bibliographic, chemical, 
# crystal, experimental, refinement or atomic coordinate data resulting 
# from the CCDC's data processing and validation procedures.
#
#######################################################################

data_IXIJIK
_chemical_formula_moiety         'C22 H17 Br1 N2 O4'
_chemical_name_systematic        
1-benzyl-5-bromo-3-hydroxy-3-(4-nitrobenzyl)-1,3-dihydro-2H-indol-2-one
_symmetry_cell_setting           monoclinic
_symmetry_space_group_name_H-M   'P 21/c'
_symmetry_Int_Tables_number      14
_space_group_name_Hall           '-P 2ybc'
loop_
_symmetry_equiv_pos_site_id
_symmetry_equiv_pos_as_xyz
1 x,y,z
2 -x,1/2+y,1/2-z
3 -x,-y,-z
4 x,1/2-y,1/2+z
_cell_length_a                   9.5583(8)
_cell_length_b                   8.5142(7)
_cell_length_c                   23.2109(18)
_cell_angle_alpha                90
_cell_angle_beta                 92.256(3)
_cell_angle_gamma                90
_cell_volume                     1887.47
_exptl_crystal_colour            colorless
_exptl_crystal_description       block
_cell_formula_units_Z            4
loop_
_atom_site_label
_atom_site_type_symbol
_atom_site_fract_x
_atom_site_fract_y
_atom_site_fract_z
Br1 Br 0.27946(2) 0.93758(2) 0.05747(2)
C1 C 0.82026(19) 0.4777(2) 0.05778(8)
C2 C 0.79084(17) 0.6527(2) 0.04359(8)
C3 C 0.63707(17) 0.6655(2) 0.05593(7)
C4 C 0.54698(17) 0.7912(2) 0.05063(8)
H1 H 0.5794 0.8921 0.0399
C5 C 0.40627(17) 0.7652(2) 0.06163(8)
C6 C 0.35692(17) 0.6183(2) 0.07641(8)
H2 H 0.2601 0.6037 0.0826
C7 C 0.44853(18) 0.4919(2) 0.08223(8)
H3 H 0.4164 0.3905 0.0925
C8 C 0.58810(17) 0.5194(2) 0.07244(7)
C9 C 0.6849(2) 0.2476(2) 0.09267(8)
H4 H 0.7727 0.1906 0.0853
H5 H 0.6083 0.197 0.0695
C10 C 0.65430(18) 0.2347(2) 0.15601(8)
C11 C 0.5434(2) 0.1452(2) 0.17406(9)
H6 H 0.4844 0.0924 0.1465
C12 C 0.5180(2) 0.1322(3) 0.23254(10)
H7 H 0.4427 0.0691 0.2447
C13 C 0.6015(2) 0.2102(3) 0.27280(9)
H8 H 0.583 0.2021 0.3126
C14 C 0.7124(2) 0.3005(3) 0.25530(9)
H9 H 0.7702 0.3542 0.2831
C15 C 0.7389(2) 0.3125(3) 0.19712(9)
H10 H 0.8153 0.3743 0.1852
C16 C 0.88991(18) 0.7597(2) 0.07977(8)
H11 H 0.987 0.7397 0.0683
H12 H 0.8674 0.8703 0.07
C17 C 0.88500(17) 0.7405(2) 0.14439(8)
C18 C 0.97885(18) 0.6420(2) 0.17440(8)
H13 H 1.0452 0.5836 0.1538
C19 C 0.97694(19) 0.6277(2) 0.23408(8)
H14 H 1.0413 0.5607 0.2543
C20 C 0.87937(18) 0.7130(2) 0.26312(8)
C21 C 0.78332(19) 0.8101(2) 0.23482(9)
H15 H 0.7164 0.8669 0.2557
C22 C 0.78668(19) 0.8229(2) 0.17551(9)
H16 H 0.7209 0.889 0.1556
N1 N 0.69872(15) 0.41018(18) 0.07430(7)
N2 N 0.88046(17) 0.7017(2) 0.32674(7)
O1 O 0.93256(14) 0.41122(17) 0.05504(6)
O2 O 0.80622(13) 0.68163(17) -0.01595(5)
H17 H 0.8871 0.6554 -0.0251
O3 O 0.80591(17) 0.7930(2) 0.35231(7)
O4 O 0.95624(18) 0.6034(2) 0.35060(7)
loop_
_geom_bond_atom_site_label_1
_geom_bond_atom_site_label_2
_geom_bond_site_symmetry_1
_geom_bond_site_symmetry_2
Br1 C5 1_555 1_555
C1 C2 1_555 1_555
C2 C3 1_555 1_555
C3 C4 1_555 1_555
C4 H1 1_555 1_555
C5 C4 1_555 1_555
C6 C5 1_555 1_555
H2 C6 1_555 1_555
C7 C6 1_555 1_555
H3 C7 1_555 1_555
C8 C3 1_555 1_555
C9 H4 1_555 1_555
H5 C9 1_555 1_555
C10 C9 1_555 1_555
C11 C10 1_555 1_555
H6 C11 1_555 1_555
C12 C11 1_555 1_555
H7 C12 1_555 1_555
C13 C12 1_555 1_555
H8 C13 1_555 1_555
C14 C13 1_555 1_555
H9 C14 1_555 1_555
C15 C10 1_555 1_555
H10 C15 1_555 1_555
C16 C2 1_555 1_555
H11 C16 1_555 1_555
H12 C16 1_555 1_555
C17 C16 1_555 1_555
C18 C17 1_555 1_555
H13 C18 1_555 1_555
C19 C18 1_555 1_555
H14 C19 1_555 1_555
C20 C19 1_555 1_555
C21 C20 1_555 1_555
H15 C21 1_555 1_555
C22 C17 1_555 1_555
H16 C22 1_555 1_555
N1 C1 1_555 1_555
N2 C20 1_555 1_555
O1 C1 1_555 1_555
O2 C2 1_555 1_555
H17 O2 1_555 1_555
O3 N2 1_555 1_555
O4 N2 1_555 1_555
C7 C8 1_555 1_555
C8 N1 1_555 1_555
C9 N1 1_555 1_555
C14 C15 1_555 1_555
C21 C22 1_555 1_555

#END
