
#######################################################################
#
#                 Cambridge Crystallographic Data Centre
#                                CCDC 
#
#######################################################################
#
# If this CIF has been generated from an entry in the Cambridge 
# Structural Database, then it will include bibliographic, chemical, 
# crystal, experimental, refinement or atomic coordinate data resulting 
# from the CCDC's data processing and validation procedures.
#
#######################################################################

data_IXIKAD
_chemical_formula_moiety         'C29 H26 Cl1 N1 O8'
_chemical_name_systematic        
'benzyl 5-(2-chloro-3,4,5-trimethoxyphenyl)-3,3a,4,5-tetrahydro[1,3]dioxolo[6,7]naphtho[1,2-c][1,2]oxazole-4-carboxylate'
_symmetry_cell_setting           orthorhombic
_symmetry_space_group_name_H-M   'P 21 21 21'
_symmetry_Int_Tables_number      19
_space_group_name_Hall           'P 2ac 2ab'
loop_
_symmetry_equiv_pos_site_id
_symmetry_equiv_pos_as_xyz
1 x,y,z
2 1/2-x,-y,1/2+z
3 1/2+x,1/2-y,-z
4 -x,1/2+y,1/2-z
_cell_length_a                   9.0843(5)
_cell_length_b                   12.1874(6)
_cell_length_c                   24.3116(13)
_cell_angle_alpha                90
_cell_angle_beta                 90
_cell_angle_gamma                90
_cell_volume                     2691.63
_exptl_crystal_colour            'light colorless'
_exptl_crystal_description       block
_cell_formula_units_Z            4
loop_
_atom_site_label
_atom_site_type_symbol
_atom_site_fract_x
_atom_site_fract_y
_atom_site_fract_z
Cl1 Cl -0.5909(2) -0.37041(11) -0.07241(6)
O1 O -0.4363(5) -0.7986(3) -0.29337(16)
O2 O -0.4131(5) -0.6121(3) -0.27938(15)
O3 O -0.6491(4) -1.0013(3) -0.04903(16)
O4 O -0.8010(5) -0.6809(4) 0.03062(19)
O5 O -0.6235(4) -0.5558(3) 0.02388(15)
O6 O -0.8790(5) -0.2720(3) -0.08808(18)
O7 O -1.1389(5) -0.3811(4) -0.1113(2)
O8 O -1.1344(4) -0.5947(4) -0.13863(19)
N1 N -0.5988(5) -0.9634(3) -0.10142(19)
C1 C -0.6154(5) -0.7015(4) -0.0391(2)
H1 H -0.5144 -0.7175 -0.0275
C2 C -0.6878(6) -0.8112(4) -0.0536(2)
H2 H -0.7929 -0.7996 -0.0605
C3 C -0.6178(5) -0.8591(4) -0.1037(2)
C4 C -0.5722(5) -0.7925(4) -0.1505(2)
C5 C -0.5327(6) -0.8404(4) -0.2015(2)
H3 H -0.5406 -0.9156 -0.2074
C6 C -0.4833(6) -0.7725(4) -0.2411(2)
C7 C -0.3921(9) -0.6980(4) -0.3179(3)
H4 H -0.2893 -0.7019 -0.3285
H5 H -0.4501 -0.6841 -0.3507
C8 C -0.4703(5) -0.6600(4) -0.2330(2)
C9 C -0.5098(5) -0.6120(4) -0.1849(2)
H6 H -0.5027 -0.5364 -0.1804
C10 C -0.5616(5) -0.6786(4) -0.14202(19)
C11 C -0.6052(5) -0.6226(4) -0.0894(2)
H7 H -0.5268 -0.5700 -0.0810
C12 C -0.6685(6) -0.9066(4) -0.0144(2)
H8 H -0.5830 -0.8956 0.0089
H9 H -0.7547 -0.9150 0.0088
C13 C -0.7446(5) -0.5554(4) -0.0984(2)
C14 C -0.7494(6) -0.4431(4) -0.0898(2)
C15 C -0.8789(8) -0.3843(4) -0.0959(2)
C16 C -1.0067(7) -0.4368(5) -0.1106(3)
C17 C -1.0052(6) -0.5493(5) -0.1224(2)
C18 C -0.8736(5) -0.6056(4) -0.1164(2)
H10 H -0.8713 -0.6801 -0.1246
C19 C -0.9061(11) -0.2392(5) -0.0321(3)
H11 H -0.9025 -0.1607 -0.0294
H12 H -0.8324 -0.2706 -0.0086
H13 H -1.0016 -0.2646 -0.0209
C20 C -1.1777(11) -0.3269(7) -0.1586(4)
H14 H -1.2032 -0.3794 -0.1864
H15 H -1.0963 -0.2832 -0.1710
H16 H -1.2607 -0.2804 -0.1513
C21 C -1.1339(7) -0.7085(5) -0.1519(4)
H17 H -1.0781 -0.7199 -0.1850
H18 H -1.2331 -0.7331 -0.1574
H19 H -1.0900 -0.7491 -0.1223
C22 C -0.6919(6) -0.6481(5) 0.0088(2)
C23 C -0.6982(7) -0.4851(5) 0.0635(3)
H20 H -0.8020 -0.5037 0.0644
H21 H -0.6895 -0.4094 0.0517
C24 C -0.6355(6) -0.4964(4) 0.1200(2)
C25 C -0.4863(6) -0.5020(5) 0.1289(3)
H22 H -0.4220 -0.5030 0.0991
C26 C -0.4309(8) -0.5060(6) 0.1822(3)
H23 H -0.3300 -0.5112 0.1881
C27 C -0.5251(11) -0.5024(8) 0.2258(3)
H24 H -0.4886 -0.5034 0.2616
C28 C -0.6739(10) -0.4972(8) 0.2168(3)
H25 H -0.7382 -0.4957 0.2465
C29 C -0.7288(7) -0.4941(6) 0.1644(3)
H26 H -0.8300 -0.4905 0.1588
loop_
_geom_bond_atom_site_label_1
_geom_bond_atom_site_label_2
_geom_bond_site_symmetry_1
_geom_bond_site_symmetry_2
Cl1 C14 1_555 1_555
O1 C6 1_555 1_555
O2 C7 1_555 1_555
O3 N1 1_555 1_555
O4 C22 1_555 1_555
O5 C22 1_555 1_555
O6 C15 1_555 1_555
O7 C16 1_555 1_555
O8 C17 1_555 1_555
N1 C3 1_555 1_555
C1 H1 1_555 1_555
C2 C1 1_555 1_555
H2 C2 1_555 1_555
C3 C2 1_555 1_555
C4 C3 1_555 1_555
C5 C4 1_555 1_555
H3 C5 1_555 1_555
C6 C5 1_555 1_555
C7 O1 1_555 1_555
H4 C7 1_555 1_555
H5 C7 1_555 1_555
C8 O2 1_555 1_555
C9 C8 1_555 1_555
H6 C9 1_555 1_555
C10 C4 1_555 1_555
C11 C1 1_555 1_555
H7 C11 1_555 1_555
C12 O3 1_555 1_555
H8 C12 1_555 1_555
H9 C12 1_555 1_555
C13 C11 1_555 1_555
C14 C13 1_555 1_555
C15 C14 1_555 1_555
C16 C15 1_555 1_555
C17 C16 1_555 1_555
C18 C13 1_555 1_555
H10 C18 1_555 1_555
C19 O6 1_555 1_555
H11 C19 1_555 1_555
H12 C19 1_555 1_555
H13 C19 1_555 1_555
C20 O7 1_555 1_555
H14 C20 1_555 1_555
H15 C20 1_555 1_555
H16 C20 1_555 1_555
C21 O8 1_555 1_555
H17 C21 1_555 1_555
H18 C21 1_555 1_555
H19 C21 1_555 1_555
C22 C1 1_555 1_555
C23 O5 1_555 1_555
H20 C23 1_555 1_555
H21 C23 1_555 1_555
C24 C23 1_555 1_555
C25 C24 1_555 1_555
H22 C25 1_555 1_555
C26 C25 1_555 1_555
H23 C26 1_555 1_555
C27 C26 1_555 1_555
H24 C27 1_555 1_555
C28 C27 1_555 1_555
H25 C28 1_555 1_555
C29 C24 1_555 1_555
H26 C29 1_555 1_555
C2 C12 1_555 1_555
C6 C8 1_555 1_555
C9 C10 1_555 1_555
C10 C11 1_555 1_555
C17 C18 1_555 1_555
C28 C29 1_555 1_555

#END
