
#######################################################################
#
#                 Cambridge Crystallographic Data Centre
#                                CCDC 
#
#######################################################################
#
# If this CIF has been generated from an entry in the Cambridge 
# Structural Database, then it will include bibliographic, chemical, 
# crystal, experimental, refinement or atomic coordinate data resulting 
# from the CCDC's data processing and validation procedures.
#
#######################################################################

data_IXIKEH
_chemical_formula_moiety         'C29 H25 Cl2 N1 O8'
_chemical_name_systematic        
'benzyl 5-(2,6-dichloro-3,4,5-trimethoxyphenyl)-3,3a,4,5-tetrahydro[1,3]dioxolo[6,7]naphtho[1,2-c][1,2]oxazole-4-carboxylate'
_symmetry_cell_setting           monoclinic
_symmetry_space_group_name_H-M   'P 21'
_symmetry_Int_Tables_number      4
_space_group_name_Hall           'P 2yb'
loop_
_symmetry_equiv_pos_site_id
_symmetry_equiv_pos_as_xyz
1 x,y,z
2 -x,1/2+y,-z
_cell_length_a                   12.0304(8)
_cell_length_b                   6.8640(5)
_cell_length_c                   16.3501(11)
_cell_angle_alpha                90
_cell_angle_beta                 95.232(6)
_cell_angle_gamma                90
_cell_volume                     1344.51
_exptl_crystal_colour            colorless
_exptl_crystal_description       block
_cell_formula_units_Z            2
loop_
_atom_site_label
_atom_site_type_symbol
_atom_site_fract_x
_atom_site_fract_y
_atom_site_fract_z
Cl1 Cl -0.31659(12) -0.2975(2) -0.29493(9)
Cl2 Cl -0.04999(14) 0.3100(2) -0.18376(9)
O1 O -0.1306(3) 0.2099(7) -0.0291(2)
O2 O -0.3672(3) -0.3095(7) -0.1280(2)
C1 C -0.2493(4) -0.1535(9) -0.2181(3)
C2 C -0.2695(4) 0.2101(9) -0.3953(3)
H1 H -0.2662 0.2963 -0.3513
C3 C -0.2857(4) -0.1773(10) -0.1404(3)
C4 C -0.2157(4) -0.0910(8) -0.4576(3)
O3 O -0.0614(4) -0.5359(7) -0.4841(3)
N1 N -0.1414(4) -0.3902(9) -0.5104(3)
C5 C -0.1213(4) 0.0130(8) -0.3181(3)
H2 H -0.0827 0.1387 -0.3129
O4 O -0.2731(4) -0.0878(8) 0.0021(2)
O5 O 0.1133(4) -0.0190(9) -0.2440(4)
C6 C -0.0753(4) -0.3206(8) -0.3751(3)
H3 H -0.1180 -0.3904 -0.3361
C7 C -0.3362(5) 0.2457(9) -0.4661(4)
O6 O -0.4025(4) 0.4056(8) -0.4836(3)
C8 C -0.1336(4) 0.1106(9) -0.1696(3)
C9 C -0.1704(4) -0.0138(8) -0.2355(3)
C10 C 0.0047(5) -0.4597(10) -0.4127(4)
H4 H 0.0700 -0.3913 -0.4285
H5 H 0.0284 -0.5632 -0.3747
C11 C -0.2862(5) -0.0519(10) -0.5294(3)
H6 H -0.2941 -0.1390 -0.5732
C12 C -0.0285(4) -0.1346(8) -0.3372(3)
H7 H 0.0136 -0.0726 -0.3786
C13 C -0.1494(4) -0.2708(9) -0.4512(3)
O7 O 0.0686(5) -0.3220(9) -0.2282(3)
C14 C -0.2428(5) -0.0594(11) -0.0763(3)
C15 C -0.2063(4) 0.0382(8) -0.3919(3)
C16 C -0.3419(5) 0.1209(10) -0.5310(4)
C17 C -0.0438(6) 0.1349(13) 0.0272(4)
H8 H 0.0203 0.1060 -0.0016
H9 H -0.0690 0.0181 0.0519
H10 H -0.0242 0.2300 0.0691
C18 C 0.0548(5) -0.1741(11) -0.2635(3)
C19 C -0.3259(6) -0.4855(11) -0.0883(6)
H11 H -0.2668 -0.5380 -0.1173
H12 H -0.3853 -0.5789 -0.0883
H13 H -0.2979 -0.4571 -0.0327
C20 C 0.2747(6) 0.2869(12) -0.2235(4)
H14 H 0.2030 0.3368 -0.2225
O8 O -0.4129(4) 0.1974(9) -0.5945(3)
C21 C 0.3567(7) 0.4037(14) -0.2481(5)
H15 H 0.3417 0.5323 -0.2632
C22 C 0.4855(7) 0.1448(19) -0.2286(6)
H16 H 0.5578 0.0985 -0.2308
C23 C 0.2951(6) 0.0972(11) -0.2002(4)
C24 C 0.4592(8) 0.330(2) -0.2502(6)
H17 H 0.5149 0.4102 -0.2674
C25 C -0.1675(5) 0.0855(10) -0.0905(3)
C26 C -0.4393(7) 0.3885(13) -0.5684(5)
H18 H -0.4024 0.4848 -0.5999
H19 H -0.5192 0.4101 -0.5769
C27 C 0.4003(7) 0.0218(15) -0.2024(5)
H20 H 0.4156 -0.1066 -0.1872
C28 C 0.2005(6) -0.0260(15) -0.1758(5)
H21 H 0.2252 -0.1591 -0.1658
H22 H 0.1727 0.0245 -0.1262
C29 C -0.3751(7) -0.0005(18) 0.0175(5)
H23 H -0.4285 -0.0187 -0.0292
H24 H -0.3638 0.1363 0.0272
H25 H -0.4025 -0.0597 0.0649
loop_
_geom_bond_atom_site_label_1
_geom_bond_atom_site_label_2
_geom_bond_site_symmetry_1
_geom_bond_site_symmetry_2
Cl1 C1 1_555 1_555
Cl2 C8 1_555 1_555
O1 C17 1_555 1_555
O2 C3 1_555 1_555
C1 C3 1_555 1_555
C2 H1 1_555 1_555
C3 C14 1_555 1_555
C4 C11 1_555 1_555
O3 N1 1_555 1_555
N1 C13 1_555 1_555
C5 H2 1_555 1_555
O4 C14 1_555 1_555
O5 C18 1_555 1_555
C6 H3 1_555 1_555
C7 C2 1_555 1_555
O6 C7 1_555 1_555
C8 C9 1_555 1_555
C9 C1 1_555 1_555
C10 O3 1_555 1_555
H4 C10 1_555 1_555
H5 C10 1_555 1_555
C11 H6 1_555 1_555
C12 C5 1_555 1_555
H7 C12 1_555 1_555
C13 C4 1_555 1_555
O7 C18 1_555 1_555
C14 C25 1_555 1_555
C15 C2 1_555 1_555
C16 C7 1_555 1_555
C17 H8 1_555 1_555
H9 C17 1_555 1_555
H10 C17 1_555 1_555
C18 C12 1_555 1_555
C19 O2 1_555 1_555
H11 C19 1_555 1_555
H12 C19 1_555 1_555
H13 C19 1_555 1_555
C20 H14 1_555 1_555
O8 C16 1_555 1_555
C21 C20 1_555 1_555
H15 C21 1_555 1_555
C22 H16 1_555 1_555
C23 C20 1_555 1_555
C24 C21 1_555 1_555
H17 C24 1_555 1_555
C25 O1 1_555 1_555
C26 O6 1_555 1_555
H18 C26 1_555 1_555
H19 C26 1_555 1_555
C27 C22 1_555 1_555
H20 C27 1_555 1_555
C28 O5 1_555 1_555
H21 C28 1_555 1_555
H22 C28 1_555 1_555
C29 O4 1_555 1_555
H23 C29 1_555 1_555
H24 C29 1_555 1_555
H25 C29 1_555 1_555
C4 C15 1_555 1_555
C5 C9 1_555 1_555
C5 C15 1_555 1_555
C6 C10 1_555 1_555
C6 C12 1_555 1_555
C6 C13 1_555 1_555
C8 C25 1_555 1_555
C11 C16 1_555 1_555
O8 C26 1_555 1_555
C22 C24 1_555 1_555
C23 C27 1_555 1_555
C23 C28 1_555 1_555

#END
