
#######################################################################
#
#                 Cambridge Crystallographic Data Centre
#                                CCDC 
#
#######################################################################
#
# If this CIF has been generated from an entry in the Cambridge 
# Structural Database, then it will include bibliographic, chemical, 
# crystal, experimental, refinement or atomic coordinate data resulting 
# from the CCDC's data processing and validation procedures.
#
#######################################################################

data_IXIMAE
_chemical_formula_moiety         '0.67(C4 H8 O2),C21 H31 N1 O4'
_chemical_name_systematic        
'(3aS,4R,5S,6R,6aS,9aR,10R,10aS)-4-ethenyl-5-hydroxy-4,6,10,11-tetramethyloctahydro-6a,10-propanocyclopenta[4,5]cycloocta[1,2-d][1,3]oxazole-2,9(3H,4H)-dione ethyl acetate solvate'
_symmetry_cell_setting           orthorhombic
_symmetry_space_group_name_H-M   'P 21 21 21'
_symmetry_Int_Tables_number      19
_space_group_name_Hall           'P 2ac 2ab'
loop_
_symmetry_equiv_pos_site_id
_symmetry_equiv_pos_as_xyz
1 x,y,z
2 1/2-x,-y,1/2+z
3 -x,1/2+y,1/2-z
4 1/2+x,1/2-y,-z
_cell_length_a                   13.43550(10)
_cell_length_b                   18.7591(2)
_cell_length_c                   27.5359(3)
_cell_angle_alpha                90
_cell_angle_beta                 90
_cell_angle_gamma                90
_cell_volume                     6940.09
_cell_formula_units_Z            12
loop_
_atom_site_label
_atom_site_type_symbol
_atom_site_fract_x
_atom_site_fract_y
_atom_site_fract_z
C1 C 1.1824(2) 0.15583(17) 0.01380(10)
C2 C 1.1689(3) 0.07945(17) 0.00306(12)
H1 H 1.2126 0.0507 0.0231
H2 H 1.1835 0.0697 -0.0308
C3 C 1.0597(3) 0.06276(16) 0.01432(12)
H3 H 1.0537 0.0393 0.0456
H4 H 1.0315 0.0321 -0.0105
C4 C 1.0063(2) 0.13583(14) 0.01500(10)
C5 C 1.08783(19) 0.18441(14) 0.03821(9)
H5 H 1.0920 0.1711 0.0726
C6 C 1.07055(19) 0.26639(13) 0.03673(9)
C7 C 1.1594(2) 0.30486(15) 0.05966(10)
H6 H 1.1443 0.3546 0.0630
H7 H 1.2169 0.2992 0.0393
H8 H 1.1728 0.2848 0.0911
C8 C 1.0585(2) 0.28751(14) -0.01763(10)
H9 H 1.1216 0.2758 -0.0336
C9 C 1.0401(3) 0.36702(16) -0.02680(11)
H10 H 1.0497 0.3773 -0.0606
H11 H 1.0858 0.3947 -0.0078
H12 H 0.9731 0.3789 -0.0177
C10 C 0.9786(2) 0.24291(16) -0.04257(10)
H13 H 0.9770 0.2553 -0.0768
H14 H 0.9143 0.2551 -0.0288
C11 C 0.9942(2) 0.16225(16) -0.03781(11)
H15 H 1.0531 0.1490 -0.0561
H16 H 0.9378 0.1380 -0.0523
C12 C 0.9051(2) 0.13112(14) 0.04210(10)
H17 H 0.8693 0.1755 0.0351
C13 C 0.8409(3) 0.0696(2) 0.02160(14)
H18 H 0.8359 0.0743 -0.0130
H19 H 0.7756 0.0716 0.0357
H20 H 0.8714 0.0248 0.0294
C14 C 0.9125(2) 0.12524(14) 0.09880(10)
H21 H 0.9810 0.1114 0.1067
C15 C 0.8888(2) 0.19508(14) 0.12774(10)
C16 C 0.7857(2) 0.22240(16) 0.11508(11)
H22 H 0.7788 0.2392 0.0835
C17 C 0.7113(4) 0.2258(5) 0.1395(2)
H23 H 0.7123 0.2101 0.1716
H24 H 0.6530 0.2442 0.1263
C18 C 0.8961(3) 0.17648(16) 0.18206(11)
H25 H 0.8795 0.2177 0.2011
H26 H 0.9627 0.1616 0.1895
H27 H 0.8505 0.1386 0.1895
C19 C 0.96986(19) 0.25210(13) 0.11779(9)
H28 H 1.0350 0.2321 0.1263
C20 C 0.9556(2) 0.37557(14) 0.12028(10)
C21 C 0.9760(2) 0.28416(12) 0.06576(9)
H29 H 0.9179 0.2681 0.0472
N1 N 0.95384(19) 0.31627(11) 0.14624(8)
O1 O 1.25626(17) 0.18916(14) 0.00324(10)
O2 O 0.84865(18) 0.07191(11) 0.11764(8)
H102 H 0.7976 0.0703 0.1014
O3 O 0.9457(2) 0.43684(11) 0.13444(8)
O4 O 0.96868(15) 0.36098(9) 0.07276(6)
C22 C 1.0854(2) 0.69659(14) 0.02582(10)
H30 H 1.1119 0.6890 0.0586
C23 C 1.1666(2) 0.67163(18) -0.00999(12)
C24 C 1.1638(3) 0.5913(2) -0.01064(15)
H31 H 1.2196 0.5719 0.0074
H32 H 1.1669 0.5737 -0.0437
C25 C 1.0662(3) 0.57018(16) 0.01299(13)
H33 H 1.0782 0.5495 0.0448
H34 H 1.0317 0.5353 -0.0069
C26 C 1.0035(2) 0.63874(15) 0.01769(10)
C27 C 0.9567(2) 0.65691(15) -0.03232(10)
H35 H 1.0051 0.6471 -0.0576
H36 H 0.8999 0.6260 -0.0377
C28 C 0.9231(2) 0.73370(16) -0.03666(11)
H37 H 0.8698 0.7421 -0.0136
H38 H 0.8965 0.7413 -0.0690
C29 C 1.0055(2) 0.78772(16) -0.02757(11)
H39 H 1.0574 0.7779 -0.0517
C30 C 0.9678(3) 0.86366(19) -0.03803(13)
H40 H 0.9463 0.8668 -0.0712
H41 H 1.0207 0.8972 -0.0325
H42 H 0.9131 0.8744 -0.0169
C31 C 1.0539(2) 0.77641(14) 0.02275(10)
C32 C 1.1450(2) 0.82471(17) 0.02973(12)
H43 H 1.1240 0.8736 0.0312
H44 H 1.1900 0.8184 0.0030
H45 H 1.1782 0.8123 0.0594
C33 C 0.9222(2) 0.63194(14) 0.05769(10)
H46 H 0.8782 0.6733 0.0544
C34 C 0.8585(3) 0.56559(17) 0.04864(12)
H47 H 0.8406 0.5633 0.0149
H48 H 0.7992 0.5681 0.0681
H49 H 0.8957 0.5238 0.0573
C35 C 0.9649(2) 0.63368(14) 0.11052(10)
H50 H 1.0361 0.6226 0.1087
C36 C 0.9531(2) 0.70415(14) 0.13977(10)
C37 C 0.8448(3) 0.72361(16) 0.14409(12)
H51 H 0.8135 0.7408 0.1164
C38 C 0.7939(6) 0.7187(4) 0.1814(3)
H52 H 0.8223 0.7017 0.2100
H53 H 0.7272 0.7319 0.1809
C39 C 1.0017(4) 0.69205(18) 0.18947(12)
H54 H 1.0003 0.7356 0.2077
H55 H 1.0694 0.6771 0.1850
H56 H 0.9658 0.6558 0.2068
C40 C 1.0126(2) 0.76638(13) 0.11599(9)
H57 H 1.0830 0.7528 0.1147
C41 C 0.9767(2) 0.88812(14) 0.11588(10)
C42 C 0.9802(2) 0.79161(13) 0.06448(9)
H58 H 0.9168 0.7685 0.0566
N2 N 1.0044(2) 0.83248(12) 0.14316(9)
O5 O 1.22220(17) 0.70745(14) -0.03355(10)
O6 O 0.9187(2) 0.58102(10) 0.14065(8)
H103 H 0.9432 0.5419 0.1349
O7 O 0.96552(18) 0.94922(10) 0.12865(8)
O8 O 0.96244(15) 0.86724(9) 0.06954(7)
C43 C 0.2969(2) 0.10937(14) 0.20545(9)
H59 H 0.2784 0.1139 0.2397
C44 C 0.2698(3) 0.17989(17) 0.18118(12)
C45 C 0.3516(3) 0.23274(17) 0.19049(15)
H60 H 0.3743 0.2537 0.1603
H61 H 0.3285 0.2706 0.2117
C46 C 0.4344(3) 0.19121(18) 0.21436(14)
H62 H 0.4349 0.1996 0.2491
H63 H 0.4984 0.2051 0.2011
C47 C 0.4128(2) 0.11190(16) 0.20335(10)
C48 C 0.4412(2) 0.09611(19) 0.15083(11)
H64 H 0.5130 0.0915 0.1488
H65 H 0.4219 0.1364 0.1308
C49 C 0.3937(2) 0.02880(17) 0.13009(10)
H66 H 0.4193 -0.0123 0.1475
H67 H 0.4129 0.0240 0.0963
C50 C 0.2795(2) 0.02882(15) 0.13347(10)
H68 H 0.2562 0.0696 0.1143
C51 C 0.2377(3) -0.03799(17) 0.10896(10)
H69 H 0.2592 -0.0394 0.0757
H70 H 0.1663 -0.0368 0.1101
H71 H 0.2614 -0.0796 0.1256
C52 C 0.2444(2) 0.04165(14) 0.18610(9)
C53 C 0.1308(2) 0.05171(16) 0.18942(11)
H72 H 0.1128 0.0635 0.2222
H73 H 0.0981 0.0083 0.1800
H74 H 0.1107 0.0895 0.1681
C54 C 0.4687(2) 0.06148(17) 0.23965(11)
H75 H 0.4633 0.0131 0.2265
C55 C 0.5796(3) 0.0798(2) 0.24084(15)
H76 H 0.6032 0.0871 0.2083
H77 H 0.6158 0.0412 0.2555
H78 H 0.5895 0.1224 0.2595
C56 C 0.4222(2) 0.05950(17) 0.29189(10)
H79 H 0.3777 0.1007 0.2949
C57 C 0.3609(2) -0.00797(16) 0.30452(10)
C58 C 0.4187(3) -0.0753(2) 0.29741(13)
H80 H 0.3856 -0.1035 0.2748
C59 C 0.4840(12) -0.1024(6) 0.3089(6)
H81 H 0.5260 -0.0815 0.3317
H82 H 0.4991 -0.1471 0.2963
C60 C 0.3290(3) -0.0022(2) 0.35852(12)
H83 H 0.2874 -0.0420 0.3668
H84 H 0.2927 0.0413 0.3634
H85 H 0.3871 -0.0024 0.3788
C61 C 0.2624(2) -0.00824(14) 0.27467(9)
H86 H 0.2286 0.0375 0.2796
C62 C 0.1615(2) -0.10222(14) 0.25017(10)
C63 C 0.27308(19) -0.02147(13) 0.21933(9)
H87 H 0.3421 -0.0350 0.2124
N3 N 0.1943(2) -0.06531(13) 0.28819(8)
O9 O 0.1947(2) 0.19321(13) 0.15884(11)
O10 O 0.49729(19) 0.06624(15) 0.32841(9)
H104 H 0.5067 0.1086 0.3343
O11 O 0.09731(19) -0.14921(11) 0.24921(7)
O12 O 0.20875(16) -0.08259(10) 0.20951(6)
C64 C 0.3357(7) 0.7658(4) 0.1763(3)
H88 H 0.3108 0.7271 0.1570
H89 H 0.3041 0.8094 0.1664
H90 H 0.3216 0.7569 0.2099
C65 C 0.4458(7) 0.7721(3) 0.16930(16)
C66 C 0.5881(8) 0.8478(6) 0.1582(3)
H91 H 0.6278 0.8160 0.1781
H92 H 0.5990 0.8350 0.1245
C67 C 0.6180(9) 0.9126(8) 0.1651(6)
H93 H 0.6461 0.9168 0.1970
H94 H 0.5626 0.9446 0.1621
H95 H 0.6675 0.9245 0.1413
O15 O 0.5011(4) 0.7210(2) 0.16266(13)
O16 O 0.4763(5) 0.8367(2) 0.1707(2)
C68 C 0.8076(5) 0.0108(4) 0.8891(2)
H96 H 0.7815 0.0063 0.9214
H97 H 0.8121 0.0603 0.8806
H98 H 0.8726 -0.0104 0.8877
C69 C 0.7438(5) -0.0242(4) 0.8561(2)
C70 C 0.6517(6) -0.0082(7) 0.7823(3)
H99 H 0.6286 -0.0549 0.7811
C71 C 0.6268(7) 0.0405(6) 0.7490(3)
H100 H 0.6513 0.0868 0.7514
H101 H 0.5850 0.0282 0.7234
O13 O 0.7174(5) -0.0874(3) 0.8578(2)
O14 O 0.7146(3) 0.0162(2) 0.81900(14)
loop_
_geom_bond_atom_site_label_1
_geom_bond_atom_site_label_2
_geom_bond_site_symmetry_1
_geom_bond_site_symmetry_2
C1 C2 1_555 1_555
C2 H1 1_555 1_555
H2 C2 1_555 1_555
C3 C2 1_555 1_555
H3 C3 1_555 1_555
H4 C3 1_555 1_555
C4 C3 1_555 1_555
C5 C1 1_555 1_555
H5 C5 1_555 1_555
C6 C5 1_555 1_555
C7 C6 1_555 1_555
H6 C7 1_555 1_555
H7 C7 1_555 1_555
H8 C7 1_555 1_555
C8 C6 1_555 1_555
H9 C8 1_555 1_555
C9 C8 1_555 1_555
H10 C9 1_555 1_555
H11 C9 1_555 1_555
H12 C9 1_555 1_555
C10 C8 1_555 1_555
H13 C10 1_555 1_555
H14 C10 1_555 1_555
C11 C4 1_555 1_555
H15 C11 1_555 1_555
H16 C11 1_555 1_555
C12 C4 1_555 1_555
H17 C12 1_555 1_555
C13 C12 1_555 1_555
H18 C13 1_555 1_555
H19 C13 1_555 1_555
H20 C13 1_555 1_555
C14 C12 1_555 1_555
H21 C14 1_555 1_555
C15 C14 1_555 1_555
C16 C15 1_555 1_555
H22 C16 1_555 1_555
C17 C16 1_555 1_555
H23 C17 1_555 1_555
H24 C17 1_555 1_555
C18 C15 1_555 1_555
H25 C18 1_555 1_555
H26 C18 1_555 1_555
H27 C18 1_555 1_555
C19 C15 1_555 1_555
H28 C19 1_555 1_555
C20 N1 1_555 1_555
C21 C6 1_555 1_555
H29 C21 1_555 1_555
C22 H30 1_555 1_555
C23 C22 1_555 1_555
C24 C23 1_555 1_555
H31 C24 1_555 1_555
H32 C24 1_555 1_555
C25 C24 1_555 1_555
H33 C25 1_555 1_555
H34 C25 1_555 1_555
C26 C22 1_555 1_555
C27 C26 1_555 1_555
H35 C27 1_555 1_555
H36 C27 1_555 1_555
C28 C27 1_555 1_555
H37 C28 1_555 1_555
H38 C28 1_555 1_555
C29 C28 1_555 1_555
H39 C29 1_555 1_555
C30 C29 1_555 1_555
H40 C30 1_555 1_555
H41 C30 1_555 1_555
H42 C30 1_555 1_555
C31 C22 1_555 1_555
C32 C31 1_555 1_555
H43 C32 1_555 1_555
H44 C32 1_555 1_555
H45 C32 1_555 1_555
C33 C26 1_555 1_555
H46 C33 1_555 1_555
C34 C33 1_555 1_555
H47 C34 1_555 1_555
H48 C34 1_555 1_555
H49 C34 1_555 1_555
C35 C33 1_555 1_555
H50 C35 1_555 1_555
C36 C35 1_555 1_555
C37 C36 1_555 1_555
H51 C37 1_555 1_555
C38 C37 1_555 1_555
H52 C38 1_555 1_555
H53 C38 1_555 1_555
C39 C36 1_555 1_555
H54 C39 1_555 1_555
H55 C39 1_555 1_555
H56 C39 1_555 1_555
C40 C36 1_555 1_555
H57 C40 1_555 1_555
C41 N2 1_555 1_555
C42 C31 1_555 1_555
H58 C42 1_555 1_555
C43 H59 1_555 1_555
C44 C43 1_555 1_555
C45 C44 1_555 1_555
H60 C45 1_555 1_555
H61 C45 1_555 1_555
C46 C45 1_555 1_555
H62 C46 1_555 1_555
H63 C46 1_555 1_555
C47 C43 1_555 1_555
C48 C47 1_555 1_555
H64 C48 1_555 1_555
H65 C48 1_555 1_555
C49 C48 1_555 1_555
H66 C49 1_555 1_555
H67 C49 1_555 1_555
C50 C49 1_555 1_555
H68 C50 1_555 1_555
C51 C50 1_555 1_555
H69 C51 1_555 1_555
H70 C51 1_555 1_555
H71 C51 1_555 1_555
C52 C43 1_555 1_555
C53 C52 1_555 1_555
H72 C53 1_555 1_555
H73 C53 1_555 1_555
H74 C53 1_555 1_555
C54 C47 1_555 1_555
H75 C54 1_555 1_555
C55 C54 1_555 1_555
H76 C55 1_555 1_555
H77 C55 1_555 1_555
H78 C55 1_555 1_555
C56 C54 1_555 1_555
H79 C56 1_555 1_555
C57 C56 1_555 1_555
C58 C57 1_555 1_555
H80 C58 1_555 1_555
C59 C58 1_555 1_555
H81 C59 1_555 1_555
H82 C59 1_555 1_555
C60 C57 1_555 1_555
H83 C60 1_555 1_555
H84 C60 1_555 1_555
H85 C60 1_555 1_555
C61 C57 1_555 1_555
H86 C61 1_555 1_555
C62 N3 1_555 1_555
C63 C52 1_555 1_555
H87 C63 1_555 1_555
C64 H88 1_555 1_555
H89 C64 1_555 1_555
H90 C64 1_555 1_555
C65 C64 1_555 1_555
C66 H91 1_555 1_555
H92 C66 1_555 1_555
C67 C66 1_555 1_555
H93 C67 1_555 1_555
H94 C67 1_555 1_555
H95 C67 1_555 1_555
C68 H96 1_555 1_555
H97 C68 1_555 1_555
H98 C68 1_555 1_555
C69 C68 1_555 1_555
C70 H99 1_555 1_555
C71 C70 1_555 1_555
H100 C71 1_555 1_555
H101 C71 1_555 1_555
N1 C19 1_555 1_555
N2 C40 1_555 1_555
N3 C61 1_555 1_555
O1 C1 1_555 1_555
O2 C14 1_555 1_555
H102 O2 1_555 1_555
O3 C20 1_555 1_555
O4 C20 1_555 1_555
O5 C23 1_555 1_555
O6 C35 1_555 1_555
H103 O6 1_555 1_555
O7 C41 1_555 1_555
O8 C41 1_555 1_555
O9 C44 1_555 1_555
O10 C56 1_555 1_555
H104 O10 1_555 1_555
O11 C62 1_555 1_555
O12 C62 1_555 1_555
O13 C69 1_555 1_555
O14 C69 1_555 1_555
O15 C65 1_555 1_555
O16 C65 1_555 1_555
C4 C5 1_555 1_555
C10 C11 1_555 1_555
C19 C21 1_555 1_555
C21 O4 1_555 1_555
C25 C26 1_555 1_555
C29 C31 1_555 1_555
C40 C42 1_555 1_555
C42 O8 1_555 1_555
C46 C47 1_555 1_555
C50 C52 1_555 1_555
C61 C63 1_555 1_555
C63 O12 1_555 1_555
C66 O16 1_555 1_555
C70 O14 1_555 1_555

#END
