
#######################################################################
#
#                 Cambridge Crystallographic Data Centre
#                                CCDC 
#
#######################################################################
#
# If this CIF has been generated from an entry in the Cambridge 
# Structural Database, then it will include bibliographic, chemical, 
# crystal, experimental, refinement or atomic coordinate data resulting 
# from the CCDC's data processing and validation procedures.
#
#######################################################################

data_IXIVER
_chemical_formula_moiety         'C12 H13 Cl1 N2 O1'
_chemical_name_systematic        
8-Chloro-3a-methyl-2,3,3a,4-tetrahydropyrrolo[1,2-a]quinazolin-5(1H)-one
_symmetry_cell_setting           triclinic
_symmetry_space_group_name_H-M   'P -1'
_symmetry_Int_Tables_number      2
_space_group_name_Hall           '-P 1'
loop_
_symmetry_equiv_pos_site_id
_symmetry_equiv_pos_as_xyz
1 x,y,z
2 -x,-y,-z
_cell_length_a                   6.994(4)
_cell_length_b                   9.367(5)
_cell_length_c                   9.613(5)
_cell_angle_alpha                95.637(7)
_cell_angle_beta                 102.969(10)
_cell_angle_gamma                111.225(10)
_cell_volume                     560.803
_exptl_crystal_colour            colorless
_exptl_crystal_description       block
_chemical_melting_point          '452-454 K'
_cell_formula_units_Z            2
loop_
_atom_site_label
_atom_site_type_symbol
_atom_site_fract_x
_atom_site_fract_y
_atom_site_fract_z
Cl1 Cl 0.25740(7) 0.66309(7) 0.57207(6)
O1 O 1.26897(19) 0.81032(14) 0.92530(14)
N1 N 1.3019(2) 1.05260(16) 0.89243(16)
H1 H 1.437(3) 1.095(2) 0.950(2)
N2 N 0.9955(2) 1.10227(17) 0.79984(17)
C1 C 1.1902(3) 0.89782(19) 0.87087(17)
C2 C 1.2222(3) 1.15309(19) 0.81221(18)
C3 C 1.3114(3) 1.3196(2) 0.8991(2)
H2 H 1.3406 1.3209 1.0028
H3 H 1.4419 1.3839 0.8785
C4 C 1.1349(4) 1.3762(2) 0.8473(3)
H4 H 1.1606 1.4331 0.7698
H5 H 1.1280 1.4447 0.9268
C5 C 0.9271(3) 1.2308(2) 0.7921(2)
H6 H 0.8334 1.2281 0.8534
H7 H 0.8529 1.2273 0.6929
C6 C 0.8674(3) 0.94720(19) 0.75934(17)
C7 C 0.9634(2) 0.83949(19) 0.78526(17)
C8 C 0.8390(3) 0.6805(2) 0.74323(19)
H8 H 0.9032 0.6101 0.7602
C9 C 0.6224(3) 0.6244(2) 0.6769(2)
H9 H 0.5407 0.5177 0.6466
C10 C 0.5305(3) 0.7319(2) 0.65681(18)
C11 C 0.6459(3) 0.8904(2) 0.69699(18)
H10 H 0.5782 0.9591 0.6831
C12 C 1.2638(3) 1.1459(2) 0.6628(2)
H11 H 1.1935 1.0402 0.6091
H12 H 1.4148 1.1813 0.6749
H13 H 1.2093 1.2116 0.6105
loop_
_geom_bond_atom_site_label_1
_geom_bond_atom_site_label_2
_geom_bond_site_symmetry_1
_geom_bond_site_symmetry_2
Cl1 C10 1_555 1_555
O1 C1 1_555 1_555
N1 H1 1_555 1_555
N2 C2 1_555 1_555
C1 N1 1_555 1_555
C2 N1 1_555 1_555
C3 C2 1_555 1_555
H2 C3 1_555 1_555
H3 C3 1_555 1_555
C4 C3 1_555 1_555
H4 C4 1_555 1_555
H5 C4 1_555 1_555
C5 N2 1_555 1_555
H6 C5 1_555 1_555
H7 C5 1_555 1_555
C6 N2 1_555 1_555
C7 C1 1_555 1_555
C8 C7 1_555 1_555
H8 C8 1_555 1_555
C9 C8 1_555 1_555
H9 C9 1_555 1_555
C10 C9 1_555 1_555
C11 C6 1_555 1_555
H10 C11 1_555 1_555
C12 C2 1_555 1_555
H11 C12 1_555 1_555
H12 C12 1_555 1_555
H13 C12 1_555 1_555
C4 C5 1_555 1_555
C6 C7 1_555 1_555
C10 C11 1_555 1_555

#END
