
#######################################################################
#
#                 Cambridge Crystallographic Data Centre
#                                CCDC 
#
#######################################################################
#
# If this CIF has been generated from an entry in the Cambridge 
# Structural Database, then it will include bibliographic, chemical, 
# crystal, experimental, refinement or atomic coordinate data resulting 
# from the CCDC's data processing and validation procedures.
#
#######################################################################

data_IXODOP
_chemical_formula_moiety         'C36 H26 O2 P2 S3,H2 O1'
_chemical_name_systematic        
"2,2':5',2''-Terthiene-5,5''-diylbis(diphenylphosphine) dioxide monohydrate"
_symmetry_cell_setting           monoclinic
_symmetry_space_group_name_H-M   'C 2/c'
_symmetry_Int_Tables_number      15
_space_group_name_Hall           '-C 2yn'
loop_
_symmetry_equiv_pos_site_id
_symmetry_equiv_pos_as_xyz
1 x,y,z
2 -x,y,1/2-z
3 1/2+x,1/2+y,z
4 1/2-x,1/2+y,1/2-z
5 -x,-y,-z
6 x,-y,1/2+z
7 1/2-x,1/2-y,-z
8 1/2+x,1/2-y,1/2+z
_cell_length_a                   18.327(4)
_cell_length_b                   9.6335(19)
_cell_length_c                   18.711(4)
_cell_angle_alpha                90
_cell_angle_beta                 103.74(3)
_cell_angle_gamma                90
_cell_volume                     3208.95
_cell_formula_units_Z            4
loop_
_atom_site_label
_atom_site_type_symbol
_atom_site_fract_x
_atom_site_fract_y
_atom_site_fract_z
H14 H 0.471(8) 0.187(16) 0.223(9)
O2 O 0.5000 0.1493(10) 0.2500
H14A H 0.529(8) 0.187(16) 0.277(9)
C1 C -0.0994(3) 0.1189(7) 0.3196(3)
C2 C -0.0906(4) 0.2249(9) 0.2787(4)
H1 H -0.1029 0.2230 0.2276
C3 C -0.0606(4) 0.3418(8) 0.3202(5)
H2 H -0.0512 0.4260 0.2998
C4 C -0.0469(3) 0.3175(7) 0.3933(4)
C5 C -0.0329(7) 0.4437(17) 0.4296(9)
C6 C -0.0106(7) 0.3881(13) 0.4687(8)
C9 C -0.2194(3) -0.0673(6) 0.3291(3)
C10 C -0.2718(3) 0.0377(7) 0.3198(3)
H3 H -0.2659 0.1157 0.2924
C11 C -0.3331(4) 0.0284(9) 0.3509(4)
H4 H -0.3687 0.0991 0.3439
C12 C -0.3408(4) -0.0857(10) 0.3919(4)
H5 H -0.3818 -0.0920 0.4130
C13 C -0.2893(4) -0.1904(9) 0.4023(4)
H6 H -0.2953 -0.2675 0.4303
C14 C -0.2283(4) -0.1818(7) 0.3713(4)
H7 H -0.1930 -0.2530 0.3786
C15 C -0.1649(3) -0.0568(6) 0.1949(3)
C16 C -0.1077(4) -0.0516(9) 0.1578(4)
H8 H -0.0581 -0.0406 0.1837
C17 C -0.1249(5) -0.0627(10) 0.0824(4)
H9 H -0.0866 -0.0600 0.0576
C18 C -0.1977(4) -0.0776(8) 0.0434(4)
H10 H -0.2089 -0.0853 -0.0076
C19 C -0.2535(4) -0.0811(7) 0.0798(4)
H11 H -0.3030 -0.0909 0.0533
C20 C -0.2380(3) -0.0704(6) 0.1558(4)
H12 H -0.2768 -0.0725 0.1801
O1 O -0.0822(2) -0.1676(5) 0.3225(2)
P1 P -0.13680(8) -0.05800(17) 0.29367(9)
S1 S -0.07166(11) 0.15332(18) 0.40952(9)
S2 S -0.00939(18) 0.5684(4) 0.4750(2)
C1D C 0.0994(3) 0.8811(7) 0.6804(3)
C2D C 0.0906(4) 0.7751(9) 0.7213(4)
H1D H 0.1029 0.7770 0.7724
C3D C 0.0606(4) 0.6582(8) 0.6798(5)
H2D H 0.0512 0.5740 0.7002
C4D C 0.0469(3) 0.6825(7) 0.6067(4)
C5D C 0.0329(7) 0.5563(17) 0.5704(9)
C6D C 0.0106(7) 0.6119(13) 0.5313(8)
C9D C 0.2194(3) 1.0673(6) 0.6709(3)
C10D C 0.2718(3) 0.9623(7) 0.6802(3)
H3D H 0.2659 0.8843 0.7076
C11D C 0.3331(4) 0.9716(9) 0.6491(4)
H4D H 0.3687 0.9009 0.6561
C12D C 0.3408(4) 1.0857(10) 0.6081(4)
H5D H 0.3818 1.0920 0.5870
C13D C 0.2893(4) 1.1904(9) 0.5977(4)
H6D H 0.2953 1.2675 0.5697
C14D C 0.2283(4) 1.1818(7) 0.6287(4)
H7D H 0.1930 1.2530 0.6214
C15D C 0.1649(3) 1.0568(6) 0.8051(3)
C16D C 0.1077(4) 1.0516(9) 0.8422(4)
H8D H 0.0581 1.0406 0.8163
C17D C 0.1249(5) 1.0627(10) 0.9176(4)
H9D H 0.0866 1.0600 0.9424
C18D C 0.1977(4) 1.0776(8) 0.9566(4)
H10D H 0.2089 1.0853 1.0076
C19D C 0.2535(4) 1.0811(7) 0.9202(4)
H11D H 0.3030 1.0909 0.9467
C20D C 0.2380(3) 1.0704(6) 0.8442(4)
H12D H 0.2768 1.0725 0.8199
O1D O 0.0822(2) 1.1676(5) 0.6775(2)
P1D P 0.13680(8) 1.05800(17) 0.70633(9)
S1D S 0.07166(11) 0.84668(18) 0.59048(9)
S2D S 0.00939(18) 0.4316(4) 0.5250(2)
C7? C 0.0208(7) 0.3315(16) 0.5361(7)
C8? C 0.0444(7) 0.4240(15) 0.5905(7)
H13? H 0.474(5) 0.213(10) 0.274(5)
loop_
_geom_bond_atom_site_label_1
_geom_bond_atom_site_label_2
_geom_bond_site_symmetry_1
_geom_bond_site_symmetry_2
C1 C2 1_555 1_555
C2 H1 1_555 1_555
C3 C2 1_555 1_555
H2 C3 1_555 1_555
C4 C3 1_555 1_555
C5 C4 1_555 1_555
C6 C4 1_555 1_555
C9 C10 1_555 1_555
C10 H3 1_555 1_555
C11 C10 1_555 1_555
H4 C11 1_555 1_555
C12 C11 1_555 1_555
H5 C12 1_555 1_555
C13 C12 1_555 1_555
H6 C13 1_555 1_555
C14 C9 1_555 1_555
H7 C14 1_555 1_555
C15 C16 1_555 1_555
C16 H8 1_555 1_555
C17 C16 1_555 1_555
H9 C17 1_555 1_555
C18 C17 1_555 1_555
H10 C18 1_555 1_555
C19 C18 1_555 1_555
H11 C19 1_555 1_555
C20 C15 1_555 1_555
H12 C20 1_555 1_555
H14 O2 1_555 1_555
O1 P1 1_555 1_555
O2 H14A 1_555 1_555
P1 C1 1_555 1_555
S1 C1 1_555 1_555
S2 C5 1_555 1_555
C1D C2D 1_555 1_555
C2D H1D 1_555 1_555
C3D C2D 1_555 1_555
H2D C3D 1_555 1_555
C4D C3D 1_555 1_555
C5D S2 1_555 1_555
C6D S2 1_555 1_555
C9D C10D 1_555 1_555
C10D H3D 1_555 1_555
C11D C10D 1_555 1_555
H4D C11D 1_555 1_555
C12D C11D 1_555 1_555
H5D C12D 1_555 1_555
C13D C12D 1_555 1_555
H6D C13D 1_555 1_555
C14D C9D 1_555 1_555
H7D C14D 1_555 1_555
C15D C16D 1_555 1_555
C16D H8D 1_555 1_555
C17D C16D 1_555 1_555
H9D C17D 1_555 1_555
C18D C17D 1_555 1_555
H10D C18D 1_555 1_555
C19D C18D 1_555 1_555
H11D C19D 1_555 1_555
C20D C15D 1_555 1_555
H12D C20D 1_555 1_555
O1D P1D 1_555 1_555
P1D C1D 1_555 1_555
S1D C1D 1_555 1_555
S2D C5 1_555 1_555
C4 S1 1_555 1_555
C5 C6 1_555 1_555
C6 S2 1_555 1_555
C6 S2D 1_555 1_555
C9 P1 1_555 1_555
C13 C14 1_555 1_555
C15 P1 1_555 1_555
C19 C20 1_555 1_555
S2 S2D 1_555 1_555
C4D C5D 1_555 1_555
C4D C6D 1_555 1_555
C4D S1D 1_555 1_555
C5D C6D 1_555 1_555
C5D S2D 1_555 1_555
C6D S2D 1_555 1_555
C9D P1D 1_555 1_555
C13D C14D 1_555 1_555
C15D P1D 1_555 1_555
C19D C20D 1_555 1_555

#END
