
#######################################################################
#
#                 Cambridge Crystallographic Data Centre
#                                CCDC 
#
#######################################################################
#
# If this CIF has been generated from an entry in the Cambridge 
# Structural Database, then it will include bibliographic, chemical, 
# crystal, experimental, refinement or atomic coordinate data resulting 
# from the CCDC's data processing and validation procedures.
#
#######################################################################

data_IXOJOU01
_chemical_formula_moiety         'C12 H13 N1 O3'
_chemical_name_systematic        
'4-(((1Z)-1-Methyl-3-oxobut-1-enyl)amino)benzoic acid'
_symmetry_cell_setting           monoclinic
_symmetry_space_group_name_H-M   'P 21'
_symmetry_Int_Tables_number      4
_space_group_name_Hall           'P 2yb'
loop_
_symmetry_equiv_pos_site_id
_symmetry_equiv_pos_as_xyz
1 x,y,z
2 -x,1/2+y,-z
_cell_length_a                   7.8992(5)
_cell_length_b                   8.7619(6)
_cell_length_c                   16.2214(12)
_cell_angle_alpha                90
_cell_angle_beta                 90.504(4)
_cell_angle_gamma                90
_cell_volume                     1122.67
_exptl_crystal_colour            yellow
_chemical_melting_point          182deg.C
_cell_formula_units_Z            4
loop_
_atom_site_label
_atom_site_type_symbol
_atom_site_fract_x
_atom_site_fract_y
_atom_site_fract_z
O1 O 0.0997(2) 0.9100(2) 0.0600(1)
O2 O -0.2137(3) 1.4587(3) 0.4737(1)
O3 O -0.1800(3) 1.6166(3) 0.3682(1)
N1 N 0.0857(3) 0.9892(3) 0.2160(1)
C1 C 0.2103(4) 0.6697(4) 0.0216(2)
C2 C 0.1580(3) 0.7850(3) 0.0844(2)
C3 C 0.1815(3) 0.7506(3) 0.1689(2)
C4 C 0.1486(3) 0.8496(3) 0.2333(2)
C5 C 0.1900(4) 0.8043(4) 0.3196(2)
C6 C 0.0302(3) 1.1081(3) 0.2664(1)
C7 C -0.0305(3) 1.0896(3) 0.3461(2)
C8 C -0.0915(3) 1.2151(4) 0.3891(2)
C9 C -0.0945(3) 1.3580(3) 0.3538(2)
C10 C -0.0335(3) 1.3767(3) 0.2744(2)
C11 C 0.0279(3) 1.2534(3) 0.2312(2)
C12 C -0.1653(3) 1.4915(3) 0.3984(2)
H1 H -0.2700 1.5294 0.4920
H2 H 0.0810(40) 1.0070(50) 0.1590(20)
H3 H 0.1274 0.6660 -0.0219
H4 H 0.2191 0.5711 0.0471
H5 H 0.3181 0.6980 -0.0007
H6 H 0.2222 0.6540 0.1823
H7 H 0.2311 0.8915 0.3495
H8 H 0.2756 0.7265 0.3193
H9 H 0.0901 0.7657 0.3457
H10 H -0.0304 0.9935 0.3705
H11 H -0.1308 1.2023 0.4425
H12 H -0.0340 1.4730 0.2503
H13 H 0.0681 1.2672 0.1780
O4 O 0.6187(3) 1.6482(2) -0.4340(1)
O5 O 0.2005(3) 1.0699(3) -0.0713(1)
O6 O 0.2640(3) 1.2341(3) 0.0289(1)
N2 N 0.4999(3) 1.6184(3) -0.2831(1)
C13 C 0.6898(3) 1.8941(2) -0.4855(1)
C14 C 0.6237(3) 1.7892(2) -0.4204(1)
C15 C 0.5707(3) 1.8537(2) -0.3448(1)
C16 C 0.5138(3) 1.7711(3) -0.2783(2)
C17 C 0.4651(4) 1.8536(4) -0.2016(2)
C18 C 0.4479(3) 1.5122(3) -0.2230(1)
C19 C 0.3534(3) 1.3867(3) -0.2486(1)
C20 C 0.2964(3) 1.2813(3) -0.1919(1)
C21 C 0.3325(3) 1.3012(3) -0.1082(1)
C22 C 0.4348(3) 1.4222(3) -0.0845(1)
C23 C 0.4937(3) 1.5262(3) -0.1408(1)
C24 C 0.2638(3) 1.1993(3) -0.0435(2)
H14 H 0.1623 1.0206 -0.0327
H15 H 0.5210(40) 1.5870(50) -0.3420(20)
H16 H 0.6534 1.8587 -0.5388
H17 H 0.8113 1.8956 -0.4830
H18 H 0.6471 1.9952 -0.4764
H19 H 0.5745 1.9594 -0.3398
H20 H 0.3666 1.8065 -0.1785
H21 H 0.4405 1.9583 -0.2146
H22 H 0.5568 1.8493 -0.1625
H23 H 0.3283 1.3737 -0.3042
H24 H 0.2340 1.1971 -0.2094
H25 H 0.4644 1.4332 -0.0292
H26 H 0.5638 1.6056 -0.1237
H27? H 0.7640 1.8386 -0.5212
H28? H 0.7510 1.9764 -0.4600
H29? H 0.5968 1.9345 -0.5171
loop_
_geom_bond_atom_site_label_1
_geom_bond_atom_site_label_2
_geom_bond_site_symmetry_1
_geom_bond_site_symmetry_2
O1 C2 1_555 1_555
O2 C12 1_555 1_555
O3 C12 1_555 1_555
N1 C4 1_555 1_555
C1 C2 1_555 1_555
C2 C3 1_555 1_555
C3 C4 1_555 1_555
C4 C5 1_555 1_555
C5 H7 1_555 1_555
C6 N1 1_555 1_555
C7 C6 1_555 1_555
C8 C7 1_555 1_555
C9 C8 1_555 1_555
C10 C9 1_555 1_555
C11 C6 1_555 1_555
C12 C9 1_555 1_555
H1 O2 1_555 1_555
H2 N1 1_555 1_555
H3 C1 1_555 1_555
H4 C1 1_555 1_555
H5 C1 1_555 1_555
H6 C3 1_555 1_555
H8 C5 1_555 1_555
H9 C5 1_555 1_555
H10 C7 1_555 1_555
H11 C8 1_555 1_555
H12 C10 1_555 1_555
H13 C11 1_555 1_555
O4 C14 1_555 1_555
O5 C24 1_555 1_555
O6 C24 1_555 1_555
N2 C16 1_555 1_555
C13 C14 1_555 1_555
C14 C15 1_555 1_555
C15 C16 1_555 1_555
C16 C17 1_555 1_555
C17 H20 1_555 1_555
C18 N2 1_555 1_555
C19 C18 1_555 1_555
C20 C19 1_555 1_555
C21 C20 1_555 1_555
C22 C21 1_555 1_555
C23 C18 1_555 1_555
C24 C21 1_555 1_555
H14 O5 1_555 1_555
H15 N2 1_555 1_555
H16 C13 1_555 1_555
H17 C13 1_555 1_555
H18 C13 1_555 1_555
H19 C15 1_555 1_555
H21 C17 1_555 1_555
H22 C17 1_555 1_555
H23 C19 1_555 1_555
H24 C20 1_555 1_555
H25 C22 1_555 1_555
H26 C23 1_555 1_555
C10 C11 1_555 1_555
C22 C23 1_555 1_555

#END
