
#######################################################################
#
#                 Cambridge Crystallographic Data Centre
#                                CCDC 
#
#######################################################################
#
# If this CIF has been generated from an entry in the Cambridge 
# Structural Database, then it will include bibliographic, chemical, 
# crystal, experimental, refinement or atomic coordinate data resulting 
# from the CCDC's data processing and validation procedures.
#
#######################################################################

data_IXOMOZ
_chemical_formula_moiety         'C12 H8 Br1 N4 S1 1+,Br3 1-'
_chemical_name_systematic        
"3-(bromomethyl)-10H-[1,3]thiazolo[3',2':2,3][1,2,4]triazino[5,6-b]indol-4-ium tribromide"
_symmetry_cell_setting           monoclinic
_symmetry_space_group_name_H-M   'P 21/c'
_symmetry_Int_Tables_number      14
_space_group_name_Hall           '-P 2ybc'
loop_
_symmetry_equiv_pos_site_id
_symmetry_equiv_pos_as_xyz
1 x,y,z
2 -x,1/2+y,1/2-z
3 -x,-y,-z
4 x,1/2-y,1/2+z
_cell_length_a                   7.6733(10)
_cell_length_b                   28.395(4)
_cell_length_c                   7.6038(11)
_cell_angle_alpha                90
_cell_angle_beta                 100.750(4)
_cell_angle_gamma                90
_cell_volume                     1627.67
_exptl_crystal_colour            orange
_exptl_crystal_description       block
_cell_formula_units_Z            4
loop_
_atom_site_label
_atom_site_type_symbol
_atom_site_fract_x
_atom_site_fract_y
_atom_site_fract_z
Br1 Br -0.1223(3) 0.23733(5) 0.4756(2)
S1 S -0.1990(6) 0.06263(12) 0.3681(5)
N1 N 0.0083(16) 0.0434(3) 0.6872(15)
C1 C -0.091(2) 0.0733(4) 0.5823(18)
C2 C -0.292(2) 0.1926(4) 0.5340(19)
H1 H -0.2982 0.1956 0.6597
H2 H -0.4083 0.1999 0.4648
C3 C -0.247(2) 0.1444(5) 0.4982(19)
N2 N -0.1309(16) 0.1187(3) 0.6324(15)
C4 C 0.026(2) 0.1096(4) 0.9052(19)
C5 C 0.108(2) 0.1131(4) 1.0903(16)
C6 C 0.112(2) 0.1475(5) 1.2177(17)
H3 H 0.0529 0.1759 1.1903
C7 C 0.207(2) 0.1390(5) 1.3867(18)
H4 H 0.2117 0.1623 1.4735
C8 C 0.294(2) 0.0970(5) 1.432(2)
H5 H 0.3605 0.0925 1.5458
C9 C 0.062(2) 0.0614(4) 0.8487(18)
C10 C -0.2875(19) 0.1182(4) 0.3540(19)
N3 N 0.1661(16) 0.0393(3) 0.9844(15)
H6 H 0.2089 0.0114 0.9803
C11 C 0.1948(18) 0.0699(4) 1.1392(19)
C12 C 0.282(2) 0.0617(5) 1.3058(19)
H7 H 0.3334 0.0325 1.3363
N4 N -0.0691(16) 0.1384(3) 0.7956(14)
Br2 Br 0.3236(3) 0.27744(6) 1.3689(3)
Br3 Br 0.4643(2) 0.35294(5) 1.38534(19)
Br4 Br 0.6075(2) 0.44114(5) 1.4000(2)
H8? H -0.2489 0.1344 0.2559
H9? H -0.4156 0.1154 0.3239
loop_
_geom_bond_atom_site_label_1
_geom_bond_atom_site_label_2
_geom_bond_site_symmetry_1
_geom_bond_site_symmetry_2
Br1 C2 1_555 1_555
S1 C1 1_555 1_555
N1 C1 1_555 1_555
C1 N2 1_555 1_555
C2 H1 1_555 1_555
H2 C2 1_555 1_555
C3 C2 1_555 1_555
N2 C3 1_555 1_555
C4 C5 1_555 1_555
C5 C6 1_555 1_555
C6 H3 1_555 1_555
C7 C6 1_555 1_555
H4 C7 1_555 1_555
C8 C7 1_555 1_555
H5 C8 1_555 1_555
C9 N1 1_555 1_555
C10 S1 1_555 1_555
N3 C9 1_555 1_555
H6 N3 1_555 1_555
C11 C5 1_555 1_555
C12 C8 1_555 1_555
H7 C12 1_555 1_555
N4 N2 1_555 1_555
Br2 Br3 1_555 1_555
Br3 Br4 1_555 1_555
C3 C10 1_555 1_555
C4 C9 1_555 1_555
C4 N4 1_555 1_555
N3 C11 1_555 1_555
C11 C12 1_555 1_555

#END
