
#######################################################################
#
#                 Cambridge Crystallographic Data Centre
#                                CCDC 
#
#######################################################################
#
# If this CIF has been generated from an entry in the Cambridge 
# Structural Database, then it will include bibliographic, chemical, 
# crystal, experimental, refinement or atomic coordinate data resulting 
# from the CCDC's data processing and validation procedures.
#
#######################################################################

data_IXOMIT
_chemical_formula_moiety         'C13 H6 Br1 F3 N2 O1 S1'
_chemical_name_systematic        
3-(4-bromophenyl)-7-(trifluoromethyl)-5H-[1,3]thiazolo[3,2-a]pyrimidin-5-one
_symmetry_cell_setting           orthorhombic
_symmetry_space_group_name_H-M   'P n a 21'
_symmetry_Int_Tables_number      33
_space_group_name_Hall           'P 2c -2n'
loop_
_symmetry_equiv_pos_site_id
_symmetry_equiv_pos_as_xyz
1 x,y,z
2 -x,-y,1/2+z
3 1/2-x,1/2+y,1/2+z
4 1/2+x,1/2-y,z
_cell_length_a                   19.0872(13)
_cell_length_b                   16.0167(11)
_cell_length_c                   4.3455(3)
_cell_angle_alpha                90
_cell_angle_beta                 90
_cell_angle_gamma                90
_cell_volume                     1328.48
_exptl_crystal_colour            colorless
_exptl_crystal_description       block
_cell_formula_units_Z            4
loop_
_atom_site_label
_atom_site_type_symbol
_atom_site_fract_x
_atom_site_fract_y
_atom_site_fract_z
Br1 Br 0.34667(2) 0.94138(3) 0.13339(17)
S1 S 0.72550(5) 0.71580(7) 0.7963(3)
F1 F 0.73462(13) 0.39457(16) 0.5581(10)
F2 F 0.6711(4) 0.3919(2) 0.9534(8)
F3 F 0.63171(14) 0.35269(15) 0.5249(8)
O1 O 0.53246(13) 0.62333(14) 0.1629(8)
N1 N 0.61684(12) 0.65885(16) 0.5181(6)
N2 N 0.69356(15) 0.55489(18) 0.7225(7)
C1 C 0.6716(3) 0.4092(3) 0.6642(12)
C2 C 0.64920(17) 0.4979(2) 0.5970(10)
C3 C 0.59235(18) 0.5157(2) 0.4249(10)
H1 H 0.5640 0.4726 0.3539
C4 C 0.57534(16) 0.6000(2) 0.3507(9)
C5 C 0.60964(16) 0.7467(2) 0.5127(8)
C6 C 0.54553(16) 0.79056(19) 0.4090(8)
C7 C 0.55149(18) 0.8613(2) 0.2292(8)
H2 H 0.5954 0.8785 0.1614
C8 C 0.49247(19) 0.9066(2) 0.1495(11)
H3 H 0.4964 0.9540 0.0271
C9 C 0.42788(18) 0.8807(2) 0.2538(9)
C10 C 0.47990(17) 0.7662(2) 0.5155(9)
H4 H 0.4757 0.7193 0.6402
C11 C 0.42070(17) 0.8117(2) 0.4364(10)
H5 H 0.3767 0.7955 0.5067
C12 C 0.67543(16) 0.6319(2) 0.6751(9)
C13 C 0.66411(16) 0.7845(2) 0.6430(12)
H6 H 0.6689 0.8423 0.6514
loop_
_geom_bond_atom_site_label_1
_geom_bond_atom_site_label_2
_geom_bond_site_symmetry_1
_geom_bond_site_symmetry_2
Br1 C9 1_555 1_555
S1 C12 1_555 1_555
F1 C1 1_555 1_555
F2 C1 1_555 1_555
F3 C1 1_555 1_555
O1 C4 1_555 1_555
N1 C4 1_555 1_555
N2 C2 1_555 1_555
C1 C2 1_555 1_555
C2 C3 1_555 1_555
C3 H1 1_555 1_555
C4 C3 1_555 1_555
C5 N1 1_555 1_555
C6 C5 1_555 1_555
C7 C6 1_555 1_555
H2 C7 1_555 1_555
C8 C7 1_555 1_555
H3 C8 1_555 1_555
C9 C8 1_555 1_555
C10 C6 1_555 1_555
H4 C10 1_555 1_555
C11 C9 1_555 1_555
H5 C11 1_555 1_555
C12 N1 1_555 1_555
C13 S1 1_555 1_555
H6 C13 1_555 1_555
N2 C12 1_555 1_555
C5 C13 1_555 1_555
C10 C11 1_555 1_555

#END
