
#######################################################################
#
#                 Cambridge Crystallographic Data Centre
#                                CCDC 
#
#######################################################################
#
# If this CIF has been generated from an entry in the Cambridge 
# Structural Database, then it will include bibliographic, chemical, 
# crystal, experimental, refinement or atomic coordinate data resulting 
# from the CCDC's data processing and validation procedures.
#
#######################################################################

data_IXOTOG02
_chemical_formula_moiety         'C21 H18 N2 O1 S1'
_chemical_name_systematic        
1-(4-ethoxybenzylidene)-N-phenyl-1H-pyrrolo[1,2-c][1,3]thiazol-3-imine
_symmetry_cell_setting           monoclinic
_symmetry_space_group_name_H-M   'P 21/c'
_symmetry_Int_Tables_number      14
_space_group_name_Hall           '-P 2ybc'
loop_
_symmetry_equiv_pos_site_id
_symmetry_equiv_pos_as_xyz
1 x,y,z
2 -x,1/2+y,1/2-z
3 -x,-y,-z
4 x,1/2-y,1/2+z
_cell_length_a                   15.1797(3)
_cell_length_b                   10.6272(2)
_cell_length_c                   10.6698(2)
_cell_angle_alpha                90
_cell_angle_beta                 95.9795(18)
_cell_angle_gamma                90
_cell_volume                     1711.86
_exptl_crystal_colour            yellow
_exptl_crystal_description       prism
_cell_formula_units_Z            4
loop_
_atom_site_label
_atom_site_type_symbol
_atom_site_fract_x
_atom_site_fract_y
_atom_site_fract_z
S1 S 0.21275(2) 0.00130(3) 0.13253(3)
N1 N 0.29877(8) 0.09955(12) -0.04002(11)
O1 O -0.19002(7) 0.09762(10) 0.36216(11)
C1 C 0.31541(10) 0.02515(14) 0.06729(14)
C2 C 0.36191(10) -0.21125(14) 0.20905(15)
H1 H 0.3189 -0.2308 0.1434
C3 C 0.15485(10) 0.10782(14) 0.02414(14)
C4 C 0.01624(10) 0.04044(15) 0.21629(15)
H2 H 0.0661 -0.0110 0.2256
N2 N 0.39229(8) -0.01165(11) 0.10709(12)
C5 C 0.07223(10) 0.15159(14) 0.02861(14)
H3 H 0.0527 0.2055 -0.0371
C6 C -0.12278(10) 0.10268(14) 0.28659(15)
C7 C -0.04779(10) 0.02693(15) 0.29965(15)
H4 H -0.0404 -0.0325 0.3638
C8 C 0.40597(9) -0.09603(14) 0.21038(14)
C9 C 0.21353(10) 0.14424(14) -0.06883(14)
C10 C 0.00775(9) 0.12931(14) 0.11871(14)
C11 C 0.29960(11) 0.20867(15) -0.21512(15)
H5 H 0.3179 0.2474 -0.2862
C12 C 0.21229(11) 0.21274(14) -0.17775(15)
H6 H 0.1637 0.2540 -0.2193
C13 C -0.06960(10) 0.20300(15) 0.10731(15)
H7 H -0.0780 0.2615 0.0423
C14 C 0.38245(10) -0.29671(15) 0.30613(15)
H8 H 0.3528 -0.3734 0.3056
C15 C -0.13332(10) 0.19103(15) 0.18963(16)
H9 H -0.1834 0.2420 0.1805
C16 C 0.47046(10) -0.06715(15) 0.30895(14)
H10 H 0.5000 0.0096 0.3100
C17 C 0.35207(10) 0.13886(14) -0.12992(14)
H11 H 0.4119 0.1212 -0.1319
C18 C 0.44708(10) -0.26823(16) 0.40414(15)
H12 H 0.4612 -0.3260 0.4686
C19 C -0.19014(10) -0.00076(15) 0.45472(15)
H13 H -0.1427 0.0121 0.5216
H14 H -0.1821 -0.0822 0.4164
C20 C 0.49045(10) -0.15326(16) 0.40540(15)
H15 H 0.5332 -0.1338 0.4714
C21 C -0.27872(11) 0.00550(16) 0.50610(16)
H16 H -0.3251 -0.0047 0.4384
H17 H -0.2850 0.0856 0.5458
H18 H -0.2826 -0.0604 0.5668
loop_
_geom_bond_atom_site_label_1
_geom_bond_atom_site_label_2
_geom_bond_site_symmetry_1
_geom_bond_site_symmetry_2
S1 C1 1_555 1_555
N1 C1 1_555 1_555
O1 C6 1_555 1_555
C1 N2 1_555 1_555
C2 H1 1_555 1_555
C3 S1 1_555 1_555
C4 H2 1_555 1_555
N2 C8 1_555 1_555
C5 C3 1_555 1_555
H3 C5 1_555 1_555
C6 C7 1_555 1_555
C7 C4 1_555 1_555
H4 C7 1_555 1_555
C8 C2 1_555 1_555
C9 N1 1_555 1_555
C10 C4 1_555 1_555
C11 H5 1_555 1_555
C12 C9 1_555 1_555
H6 C12 1_555 1_555
C13 C10 1_555 1_555
H7 C13 1_555 1_555
C14 C2 1_555 1_555
H8 C14 1_555 1_555
C15 C6 1_555 1_555
H9 C15 1_555 1_555
C16 C8 1_555 1_555
H10 C16 1_555 1_555
C17 N1 1_555 1_555
H11 C17 1_555 1_555
C18 C14 1_555 1_555
H12 C18 1_555 1_555
C19 O1 1_555 1_555
H13 C19 1_555 1_555
H14 C19 1_555 1_555
C20 C16 1_555 1_555
H15 C20 1_555 1_555
C21 C19 1_555 1_555
H16 C21 1_555 1_555
H17 C21 1_555 1_555
H18 C21 1_555 1_555
C3 C9 1_555 1_555
C5 C10 1_555 1_555
C11 C12 1_555 1_555
C11 C17 1_555 1_555
C13 C15 1_555 1_555
C18 C20 1_555 1_555

#END
