
#######################################################################
#
#                 Cambridge Crystallographic Data Centre
#                                CCDC 
#
#######################################################################
#
# If this CIF has been generated from an entry in the Cambridge 
# Structural Database, then it will include bibliographic, chemical, 
# crystal, experimental, refinement or atomic coordinate data resulting 
# from the CCDC's data processing and validation procedures.
#
#######################################################################

data_IXOTIA
_chemical_formula_moiety         'C60,2(C50 H20),4(C2 H2 Cl4)'
_chemical_name_systematic        
'C60fullerene bis(pentaindenocorannulene) tetrachloroethane solvate'
_symmetry_cell_setting           monoclinic
_symmetry_space_group_name_H-M   'P 21/c'
_symmetry_Int_Tables_number      14
_space_group_name_Hall           '-P 2ybc'
loop_
_symmetry_equiv_pos_site_id
_symmetry_equiv_pos_as_xyz
1 x,y,z
2 -x,1/2+y,1/2-z
3 -x,-y,-z
4 x,1/2-y,1/2+z
_cell_length_a                   13.718(3)
_cell_length_b                   33.562(7)
_cell_length_c                   23.809(5)
_cell_angle_alpha                90
_cell_angle_beta                 106.00(3)
_cell_angle_gamma                90
_cell_volume                     10537.1
_exptl_crystal_colour            'red brown'
_exptl_crystal_description       plate
_cell_formula_units_Z            4
_exptl_crystal_recrystallization_method 'tetrachloroethane / bromoform'
loop_
_atom_site_label
_atom_site_type_symbol
_atom_site_fract_x
_atom_site_fract_y
_atom_site_fract_z
C61 C 0.5287(7) 0.1483(3) 0.1851(4)
C62 C 0.5686(7) 0.1831(3) 0.1669(4)
C63 C 0.6353(7) 0.1709(3) 0.1330(4)
C64 C 0.6364(7) 0.1288(3) 0.1324(4)
C65 C 0.5678(7) 0.1152(3) 0.1633(4)
C66 C 0.5195(6) 0.1469(2) 0.2418(5)
C67 C 0.5337(7) 0.1821(3) 0.2793(4)
C68 C 0.5726(7) 0.2159(3) 0.2603(4)
C69 C 0.5975(7) 0.2144(3) 0.2047(4)
C70 C 0.6820(7) 0.2393(3) 0.2061(4)
C71 C 0.7514(6) 0.2271(3) 0.1725(4)
C72 C 0.7279(7) 0.1905(3) 0.1405(4)
C73 C 0.8167(6) 0.1709(3) 0.1354(4)
C74 C 0.8193(7) 0.1291(3) 0.1343(4)
C75 C 0.7239(7) 0.1081(3) 0.1358(4)
C76 C 0.7450(7) 0.0708(3) 0.1645(4)
C77 C 0.6827(7) 0.0574(3) 0.1977(4)
C78 C 0.5964(7) 0.0820(3) 0.1992(4)
C79 C 0.5709(7) 0.0770(3) 0.2540(4)
C80 C 0.5313(6) 0.1103(3) 0.2753(4)
C81 C 0.5253(6) 0.1239(3) 0.3340(4)
C82 C 0.5240(6) 0.1653(3) 0.3351(4)
C83 C 0.5212(6) 0.1847(3) 0.3859(4)
H1 H 0.5230 0.2130 0.3872
C84 C 0.5156(6) 0.1637(3) 0.4351(4)
H2 H 0.5103 0.1773 0.4691
C85 C 0.5180(6) 0.1215(3) 0.4337(4)
H3 H 0.5172 0.1068 0.4676
C86 C 0.5215(6) 0.1017(3) 0.3837(5)
H4 H 0.5214 0.0734 0.3827
C87 C 0.6247(7) 0.2529(3) 0.2884(4)
C88 C 0.6930(7) 0.2664(3) 0.2547(4)
C89 C 0.7473(8) 0.3004(3) 0.2731(4)
H5 H 0.7943 0.3094 0.2531
C90 C 0.7350(8) 0.3224(3) 0.3210(5)
H6 H 0.7723 0.3463 0.3327
C91 C 0.6694(9) 0.3092(3) 0.3502(5)
H7 H 0.6613 0.3245 0.3822
C92 C 0.6149(7) 0.2752(3) 0.3363(4)
H8 H 0.5708 0.2666 0.3585
C93 C 0.8567(7) 0.2360(3) 0.1756(4)
C94 C 0.8967(7) 0.2024(3) 0.1522(4)
C95 C 0.9962(7) 0.2030(3) 0.1484(4)
H9 H 1.0243 0.1803 0.1347
C96 C 1.0531(8) 0.2370(3) 0.1649(5)
H10 H 1.1195 0.2388 0.1601
C97 C 1.0132(8) 0.2681(4) 0.1881(5)
H11 H 1.0554 0.2905 0.2018
C98 C 0.9151(7) 0.2689(3) 0.1929(4)
H12 H 0.8894 0.2916 0.2079
C99 C 0.8925(7) 0.0970(3) 0.1434(4)
C100 C 0.8500(7) 0.0614(3) 0.1640(4)
C101 C 0.9086(8) 0.0280(3) 0.1749(5)
H13 H 0.8838 0.0047 0.1890
C102 C 1.0046(8) 0.0277(4) 0.1658(6)
H14 H 1.0427 0.0036 0.1714
C103 C 1.0438(8) 0.0606(4) 0.1495(5)
H15 H 1.1107 0.0594 0.1453
C104 C 0.9911(8) 0.0972(4) 0.1380(5)
H16 H 1.0209 0.1205 0.1272
C105 C 0.6910(7) 0.0282(3) 0.2461(4)
C106 C 0.6263(7) 0.0401(3) 0.2795(4)
C107 C 0.6212(7) 0.0170(3) 0.3268(5)
H17 H 0.5762 0.0250 0.3487
C108 C 0.6786(8) -0.0172(3) 0.3437(5)
H18 H 0.6729 -0.0328 0.3759
C109 C 0.7453(8) -0.0274(3) 0.3109(5)
H19 H 0.7883 -0.0499 0.3225
C110 C 0.7510(8) -0.0060(3) 0.2621(5)
H20 H 0.7949 -0.0144 0.2398
C111 C 0.2978(9) 0.1745(4) 0.0277(6)
C112 C 0.3586(9) 0.1883(4) -0.0030(5)
C113 C 0.4036(10) 0.1551(4) -0.0252(5)
C114 C 0.3621(10) 0.1207(4) -0.0080(5)
C115 C 0.2952(9) 0.1318(4) 0.0278(6)
C116 C 0.2936(7) 0.1917(4) 0.0806(5)
C117 C 0.3488(7) 0.2302(3) 0.0986(5)
C118 C 0.4115(7) 0.2430(3) 0.0652(4)
C119 C 0.4256(8) 0.2206(3) 0.0182(4)
C120 C 0.5229(9) 0.2216(4) 0.0106(5)
C121 C 0.5651(9) 0.1901(3) -0.0112(4)
C122 C 0.5053(11) 0.1557(4) -0.0248(4)
C123 C 0.5648(10) 0.1179(4) -0.0163(5)
C124 C 0.5243(8) 0.0856(3) 0.0023(5)
C125 C 0.4190(9) 0.0867(4) 0.0101(5)
C126 C 0.4110(8) 0.0605(3) 0.0563(5)
C127 C 0.3469(8) 0.0716(4) 0.0887(6)
C128 C 0.2924(7) 0.1105(4) 0.0763(5)
C129 C 0.2815(7) 0.1282(4) 0.1270(6)
C130 C 0.2816(8) 0.1710(4) 0.1301(6)
C131 C 0.3006(7) 0.2000(3) 0.1770(5)
C132 C 0.3389(7) 0.2345(3) 0.1572(5)
C133 C 0.3588(8) 0.2684(3) 0.1946(5)
H21 H 0.3829 0.2924 0.1819
C134 C 0.3435(8) 0.2667(3) 0.2476(5)
H22 H 0.3563 0.2896 0.2718
C135 C 0.3099(7) 0.2325(4) 0.2680(5)
H23 H 0.3019 0.2318 0.3064
C136 C 0.2880(8) 0.1996(4) 0.2329(5)
H24 H 0.2638 0.1761 0.2469
C137 C 0.5002(8) 0.2710(3) 0.0784(5)
C138 C 0.5694(10) 0.2588(3) 0.0464(5)
C139 C 0.6578(9) 0.2791(3) 0.0537(5)
H25 H 0.7058 0.2706 0.0340
C140 C 0.6780(8) 0.3125(4) 0.0898(5)
H26 H 0.7398 0.3266 0.0948
C141 C 0.6110(9) 0.3247(4) 0.1174(5)
H27 H 0.6255 0.3481 0.1406
C142 C 0.5204(9) 0.3045(3) 0.1135(5)
H28 H 0.4744 0.3135 0.1342
C143 C 0.6711(10) 0.1759(3) -0.0054(5)
C144 C 0.6669(9) 0.1330(4) -0.0113(5)
C145 C 0.7539(10) 0.1132(4) -0.0139(5)
H29 H 0.7517 0.0852 -0.0197
C146 C 0.8454(9) 0.1336(4) -0.0083(5)
H30 H 0.9050 0.1194 -0.0086
C147 C 0.8481(9) 0.1750(4) -0.0022(4)
H31 H 0.9100 0.1889 0.0018
C148 C 0.7604(9) 0.1964(4) -0.0018(5)
H32 H 0.7621 0.2246 0.0008
C149 C 0.5681(10) 0.0476(3) 0.0345(5)
C150 C 0.4978(7) 0.0343(3) 0.0666(4)
C151 C 0.5224(10) 0.0000(4) 0.0986(6)
H33 H 0.4771 -0.0097 0.1193
C152 C 0.6147(8) -0.0221(3) 0.1023(5)
H34 H 0.6306 -0.0458 0.1248
C153 C 0.6797(10) -0.0069(3) 0.0707(5)
H35 H 0.7421 -0.0200 0.0729
C154 C 0.6531(9) 0.0273(4) 0.0362(5)
H36 H 0.6960 0.0362 0.0136
C155 C 0.3367(7) 0.0627(3) 0.1482(5)
C156 C 0.2996(7) 0.0962(3) 0.1708(6)
C157 C 0.2866(8) 0.0942(3) 0.2275(5)
H37 H 0.2639 0.1169 0.2441
C158 C 0.3071(8) 0.0590(3) 0.2586(6)
H38 H 0.2956 0.0572 0.2961
C159 C 0.3436(8) 0.0270(4) 0.2361(6)
H39 H 0.3606 0.0036 0.2594
C160 C 0.3567(9) 0.0270(4) 0.1818(6)
H40 H 0.3789 0.0037 0.1663
C1 C 0.8972(13) 0.2331(6) 0.4110(7)
C2 C 0.9256(13) 0.2286(6) 0.3572(8)
C3 C 1.0351(12) 0.2351(6) 0.3715(8)
C4 C 1.0752(12) 0.2440(7) 0.4330(7)
C5 C 0.9880(12) 0.2422(7) 0.4573(7)
C6 C 1.0025(12) 0.2273(6) 0.5120(8)
C7 C 0.9234(12) 0.2024(6) 0.5245(8)
C8 C 0.8380(15) 0.1936(5) 0.4803(7)
C9 C 0.8252(15) 0.2085(6) 0.4222(7)
C10 C 0.7781(16) 0.1784(5) 0.3797(7)
C11 C 0.8045(16) 0.1739(5) 0.3291(9)
C12 C 0.8816(15) 0.1995(5) 0.3181(9)
C13 C 0.9406(13) 0.1754(5) 0.2885(10)
C14 C 1.0426(13) 0.1821(6) 0.3015(10)
C15 C 1.0908(13) 0.2122(6) 0.3442(9)
C16 C 1.1893(14) 0.1969(6) 0.3755(8)
C17 C 1.2289(15) 0.2054(6) 0.4340(7)
C18 C 1.1674(14) 0.2291(6) 0.4630(8)
C19 C 1.1817(14) 0.2141(6) 0.5218(8)
C20 C 1.1009(12) 0.2128(6) 0.5447(9)
C21 C 1.0835(12) 0.1791(5) 0.5789(10)
C22 C 0.9740(13) 0.1725(5) 0.5657(10)
C23 C 0.9396(13) 0.1339(5) 0.5610(9)
C24 C 0.8491(13) 0.1245(5) 0.5141(8)
C25 C 0.8009(16) 0.1527(5) 0.4753(8)
C26 C 0.7617(16) 0.1442(5) 0.4134(7)
C27 C 0.7717(17) 0.1067(5) 0.3938(8)
C28 C 0.8016(16) 0.1012(5) 0.3403(8)
C29 C 0.8184(16) 0.1338(5) 0.3098(10)
C30 C 0.9025(15) 0.1349(5) 0.2847(11)
C31 C 0.9640(13) 0.1021(5) 0.2895(10)
C32 C 1.0730(13) 0.1092(5) 0.3024(10)
C33 C 1.1080(13) 0.1476(5) 0.3095(10)
C34 C 1.2010(14) 0.1569(5) 0.3543(8)
C35 C 1.2504(16) 0.1283(5) 0.3929(8)
C36 C 1.2916(17) 0.1366(5) 0.4553(8)
C37 C 1.2771(18) 0.1741(5) 0.4741(8)
C38 C 1.2521(16) 0.1806(5) 0.5287(8)
C39 C 1.2333(17) 0.1483(5) 0.5601(10)
C40 C 1.1489(14) 0.1471(5) 0.5860(11)
C41 C 1.1071(13) 0.1071(5) 0.5805(10)
C42 C 1.0057(12) 0.0995(5) 0.5681(10)
C43 C 0.9577(13) 0.0695(6) 0.5258(9)
C44 C 0.8591(14) 0.0840(6) 0.4934(8)
C45 C 0.8232(16) 0.0762(6) 0.4351(7)
C46 C 0.8820(14) 0.0517(6) 0.4056(8)
C47 C 0.8658(14) 0.0662(6) 0.3461(8)
C48 C 0.9469(12) 0.0678(6) 0.3231(9)
C49 C 1.0461(13) 0.0539(6) 0.3561(8)
C50 C 1.1244(13) 0.0788(6) 0.3433(9)
C51 C 1.2085(15) 0.0882(5) 0.3880(8)
C52 C 1.2238(16) 0.0729(6) 0.4466(8)
C53 C 1.2718(18) 0.1030(6) 0.4890(8)
C54 C 1.2453(16) 0.1079(5) 0.5403(9)
C55 C 1.1662(14) 0.0824(5) 0.5517(9)
C56 C 1.1212(13) 0.0545(6) 0.5114(8)
C57 C 1.0133(13) 0.0457(7) 0.4985(8)
C58 C 0.9761(12) 0.0380(7) 0.4360(8)
C59 C 1.0621(13) 0.0390(7) 0.4114(7)
C60 C 1.1528(13) 0.0479(6) 0.4587(8)
C161? C 1.2715(18) 0.1182(6) 0.4187(8)
C162? C 1.2071(16) 0.1009(6) 0.3659(8)
C163? C 1.1624(15) 0.0649(6) 0.3832(8)
C164? C 1.1988(16) 0.0594(6) 0.4458(8)
C165? C 1.2662(17) 0.0933(6) 0.4675(8)
C166? C 1.2669(17) 0.1092(6) 0.5200(9)
C167? C 1.2759(17) 0.1524(5) 0.5276(9)
C168? C 1.2798(18) 0.1760(6) 0.4810(8)
C169? C 1.2756(18) 0.1588(6) 0.4252(8)
C170? C 1.2156(17) 0.1837(6) 0.3788(8)
C171? C 1.1544(15) 0.1677(6) 0.3291(9)
C172? C 1.1494(15) 0.1250(5) 0.3231(10)
C173? C 1.0447(15) 0.1151(5) 0.2925(11)
C174? C 1.0044(15) 0.0811(6) 0.3084(10)
C175? C 1.0639(14) 0.0559(7) 0.3551(9)
C176? C 0.9955(15) 0.0406(7) 0.3865(8)
C177? C 1.0292(15) 0.0347(7) 0.4459(8)
C178? C 1.1341(15) 0.0455(7) 0.4758(9)
C179? C 1.1379(15) 0.0625(7) 0.5324(9)
C180? C 1.2011(16) 0.0937(6) 0.5528(10)
C181? C 1.1702(16) 0.1273(6) 0.5823(10)
C182? C 1.2152(16) 0.1636(5) 0.5659(10)
C183? C 1.1576(15) 0.1975(6) 0.5561(10)
C184? C 1.1616(14) 0.2225(6) 0.5066(8)
C185? C 1.2189(17) 0.2122(6) 0.4705(8)
C186? C 1.1825(15) 0.2173(6) 0.4076(8)
C187? C 1.0890(14) 0.2334(7) 0.3843(8)
C188? C 1.0218(14) 0.2163(6) 0.3317(9)
C189? C 1.0535(15) 0.1843(6) 0.3059(10)
C190? C 0.9863(14) 0.1517(6) 0.2832(11)
C191? C 0.8874(16) 0.1536(6) 0.2855(11)
C192? C 0.8435(17) 0.1171(5) 0.3017(10)
C193? C 0.9020(15) 0.0836(6) 0.3138(10)
C194? C 0.8948(15) 0.0574(6) 0.3613(9)
C195? C 0.8359(17) 0.0675(6) 0.3972(8)
C196? C 0.8710(16) 0.0621(6) 0.4606(8)
C197? C 0.9667(14) 0.0472(7) 0.4830(9)
C198? C 1.0337(15) 0.0624(6) 0.5370(9)
C199? C 1.0043(15) 0.0950(6) 0.5636(11)
C200? C 1.0723(14) 0.1279(6) 0.5870(11)
C201? C 1.0159(14) 0.1650(6) 0.5761(10)
C202? C 1.0544(14) 0.1995(6) 0.5606(10)
C203? C 0.9953(14) 0.2247(7) 0.5144(9)
C204? C 1.0613(14) 0.2403(6) 0.4818(8)
C205? C 1.0268(14) 0.2445(7) 0.4227(8)
C206? C 0.9217(14) 0.2351(7) 0.3922(8)
C207? C 0.9178(14) 0.2189(6) 0.3349(9)
C208? C 0.8547(16) 0.1873(6) 0.3144(10)
C209? C 0.7900(18) 0.1712(6) 0.3476(9)
C210? C 0.7812(17) 0.1282(5) 0.3396(9)
C211? C 0.7796(18) 0.1048(6) 0.3868(8)
C212? C 0.7821(18) 0.1216(6) 0.4430(8)
C213? C 0.8414(18) 0.0963(6) 0.4894(8)
C214? C 0.9039(15) 0.1122(6) 0.5398(9)
C215? C 0.9105(15) 0.1557(6) 0.5462(9)
C216? C 0.8553(17) 0.1790(6) 0.5024(8)
C217? C 0.8949(15) 0.2162(6) 0.4861(8)
C218? C 0.8587(16) 0.2199(6) 0.4228(8)
C219? C 0.7902(17) 0.1868(6) 0.4007(8)
C220? C 0.7852(18) 0.1622(6) 0.4504(8)
C221? C 0.8256(16) 0.1675(5) 0.4935(8)
C222? C 0.8099(16) 0.1250(5) 0.4863(8)
C223? C 0.7713(17) 0.1176(5) 0.4235(7)
C224? C 0.7618(17) 0.1547(5) 0.3916(7)
C225? C 0.7973(16) 0.1857(5) 0.4360(7)
C226? C 0.8498(14) 0.2169(6) 0.4228(7)
C227? C 0.9351(13) 0.2332(6) 0.4683(7)
C228? C 0.9622(13) 0.2156(6) 0.5226(8)
C229? C 0.9082(13) 0.1817(6) 0.5352(9)
C230? C 0.9782(13) 0.1538(5) 0.5719(10)
C231? C 0.9642(13) 0.1138(5) 0.5654(9)
C232? C 0.8780(14) 0.0992(6) 0.5206(9)
C233? C 0.9113(14) 0.0633(6) 0.4968(8)
C234? C 0.8735(15) 0.0563(7) 0.4382(7)
C235? C 0.8033(16) 0.0842(6) 0.4009(8)
C236? C 0.8270(15) 0.0851(6) 0.3454(8)
C237? C 0.8174(16) 0.1201(5) 0.3142(9)
C238? C 0.7857(17) 0.1559(5) 0.3397(9)
C239? C 0.8398(16) 0.1900(5) 0.3261(9)
C240? C 0.8721(14) 0.2190(6) 0.3671(8)
C241? C 0.9711(13) 0.2374(7) 0.3774(8)
C242? C 1.0104(12) 0.2456(7) 0.4400(7)
C243? C 1.1116(13) 0.2393(7) 0.4658(8)
C244? C 1.1404(13) 0.2206(6) 0.5233(8)
C245? C 1.0697(12) 0.2089(6) 0.5503(9)
C246? C 1.0781(12) 0.1715(5) 0.5819(9)
C247? C 1.1601(14) 0.1478(5) 0.5855(10)
C248? C 1.1466(13) 0.1050(5) 0.5775(10)
C249? C 1.0518(12) 0.0890(6) 0.5672(10)
C250? C 1.0183(13) 0.0578(7) 0.5248(9)
C251? C 1.0847(13) 0.0429(7) 0.4962(8)
C252? C 1.0442(12) 0.0348(7) 0.4337(7)
C253? C 0.9443(13) 0.0425(7) 0.4073(8)
C254? C 0.9141(13) 0.0593(6) 0.3487(8)
C255? C 0.9853(12) 0.0705(6) 0.3211(9)
C256? C 0.9773(13) 0.1079(5) 0.2885(10)
C257? C 0.8962(15) 0.1319(5) 0.2875(11)
C258? C 0.9063(14) 0.1749(5) 0.2923(10)
C259? C 1.0015(13) 0.1918(6) 0.3037(10)
C260? C 1.0352(13) 0.2236(7) 0.3461(9)
C261? C 1.1416(14) 0.2178(6) 0.3763(8)
C262? C 1.1815(15) 0.2247(7) 0.4346(7)
C263? C 1.2516(16) 0.1972(6) 0.4717(8)
C264? C 1.2295(14) 0.1953(5) 0.5276(8)
C265? C 1.2365(16) 0.1600(5) 0.5566(9)
C266? C 1.2708(17) 0.1242(5) 0.5329(8)
C267? C 1.2178(15) 0.0898(5) 0.5476(9)
C268? C 1.1849(14) 0.0608(6) 0.5064(8)
C269? C 1.2055(15) 0.0631(6) 0.4501(7)
C270? C 1.1203(13) 0.0467(7) 0.4051(7)
C271? C 1.0923(13) 0.0650(6) 0.3514(8)
C272? C 1.1468(13) 0.0987(6) 0.3375(9)
C273? C 1.0765(14) 0.1264(5) 0.3002(10)
C274? C 1.0898(13) 0.1669(5) 0.3067(10)
C275? C 1.1765(14) 0.1822(6) 0.3524(8)
C276? C 1.2413(16) 0.1561(5) 0.3872(8)
C277? C 1.2858(17) 0.1635(5) 0.4493(7)
C278? C 1.2912(17) 0.1256(5) 0.4796(7)
C279? C 1.2579(16) 0.0944(5) 0.4360(7)
C280? C 1.2304(16) 0.1132(5) 0.3785(8)
C281? C 0.9636(14) 0.2266(7) 0.3451(9)
C282? C 0.8639(15) 0.2112(6) 0.3422(9)
C283? C 0.8496(16) 0.1756(6) 0.3053(9)
C284? C 0.9382(15) 0.1689(6) 0.2847(10)
C285? C 1.0094(14) 0.2008(6) 0.3105(10)
C286? C 1.1099(15) 0.1921(6) 0.3276(9)
C287? C 1.1734(16) 0.2102(6) 0.3812(8)
C288? C 1.1294(15) 0.2342(7) 0.4140(8)
C289? C 1.0225(14) 0.2420(7) 0.3965(8)
C290? C 0.9836(14) 0.2430(7) 0.4472(8)
C291? C 0.8901(15) 0.2284(7) 0.4450(8)
C292? C 0.8295(17) 0.2116(7) 0.3909(8)
C293? C 0.7753(18) 0.1778(6) 0.4064(8)
C294? C 0.7609(19) 0.1450(6) 0.3711(9)
C295? C 0.7999(18) 0.1437(6) 0.3201(9)
C296? C 0.8333(16) 0.1033(6) 0.3150(9)
C297? C 0.9167(15) 0.0964(6) 0.2950(10)
C298? C 0.9710(15) 0.1308(6) 0.2808(11)
C299? C 1.0788(15) 0.1225(6) 0.2981(10)
C300? C 1.1452(16) 0.1522(6) 0.3217(9)
C301? C 1.2328(17) 0.1454(6) 0.3711(9)
C302? C 1.2491(18) 0.1810(6) 0.4082(8)
C303? C 1.2775(18) 0.1758(6) 0.4677(8)
C304? C 1.2309(15) 0.2013(6) 0.5026(8)
C305? C 1.1598(15) 0.2289(7) 0.4773(8)
C306? C 1.0702(14) 0.2355(7) 0.4972(8)
C307? C 1.0579(15) 0.2140(6) 0.5432(9)
C308? C 0.9591(15) 0.1975(6) 0.5413(9)
C309? C 0.8790(16) 0.2043(7) 0.4935(8)
C310? C 0.8076(18) 0.1732(6) 0.4693(9)
C311? C 0.8184(17) 0.1366(6) 0.4963(9)
C312? C 0.8015(18) 0.1014(6) 0.4586(8)
C313? C 0.7771(19) 0.1065(6) 0.3994(8)
C314? C 0.8193(16) 0.0799(6) 0.3639(9)
C315? C 0.8899(15) 0.0517(7) 0.3893(8)
C316? C 0.9799(15) 0.0443(7) 0.3692(8)
C317? C 0.9922(15) 0.0674(7) 0.3244(10)
C318? C 1.0908(15) 0.0826(6) 0.3237(9)
C319? C 1.1729(17) 0.0768(7) 0.3718(8)
C320? C 1.2456(18) 0.1080(6) 0.3961(8)
C321? C 1.2762(18) 0.1048(6) 0.4594(8)
C322? C 1.2918(19) 0.1370(6) 0.4957(9)
C323? C 1.2535(17) 0.1383(6) 0.5465(9)
C324? C 1.2187(16) 0.1783(6) 0.5526(9)
C325? C 1.1339(14) 0.1842(6) 0.5707(10)
C326? C 1.0803(15) 0.1504(6) 0.5867(11)
C327? C 0.9721(15) 0.1591(6) 0.5704(10)
C328? C 0.9052(16) 0.1294(6) 0.5465(9)
C329? C 0.9404(15) 0.0895(6) 0.5395(9)
C330? C 0.8765(16) 0.0718(6) 0.4860(9)
C331? C 0.9215(15) 0.0484(7) 0.4528(8)
C332? C 1.0287(15) 0.0396(7) 0.4702(8)
C333? C 1.0673(14) 0.0384(8) 0.4192(8)
C334? C 1.1616(16) 0.0532(7) 0.4210(8)
C335? C 1.2236(17) 0.0708(6) 0.4756(8)
C336? C 1.1865(16) 0.0721(6) 0.5228(9)
C337? C 1.2041(16) 0.1060(6) 0.5625(10)
C338? C 1.1123(15) 0.1123(6) 0.5806(10)
C339? C 1.0415(14) 0.0804(6) 0.5561(10)
C340? C 1.0890(15) 0.0546(7) 0.5219(9)
loop_
_geom_bond_atom_site_label_1
_geom_bond_atom_site_label_2
_geom_bond_site_symmetry_1
_geom_bond_site_symmetry_2
C1 C2 1_555 1_555
C2 C3 1_555 1_555
C3 C4 1_555 1_555
C4 C5 1_555 1_555
C5 C1 1_555 1_555
C6 C5 1_555 1_555
C7 C6 1_555 1_555
C8 C7 1_555 1_555
C9 C1 1_555 1_555
C10 C9 1_555 1_555
C11 C10 1_555 1_555
C12 C2 1_555 1_555
C13 C12 1_555 1_555
C14 C13 1_555 1_555
C15 C3 1_555 1_555
C16 C15 1_555 1_555
C17 C16 1_555 1_555
C18 C4 1_555 1_555
C19 C18 1_555 1_555
C20 C6 1_555 1_555
C21 C20 1_555 1_555
C22 C7 1_555 1_555
C23 C22 1_555 1_555
C24 C23 1_555 1_555
C25 C8 1_555 1_555
C26 C10 1_555 1_555
C27 C26 1_555 1_555
C28 C27 1_555 1_555
C29 C11 1_555 1_555
C30 C13 1_555 1_555
C31 C30 1_555 1_555
C32 C31 1_555 1_555
C33 C14 1_555 1_555
C34 C16 1_555 1_555
C35 C34 1_555 1_555
C36 C35 1_555 1_555
C37 C17 1_555 1_555
C38 C19 1_555 1_555
C39 C38 1_555 1_555
C40 C21 1_555 1_555
C41 C40 1_555 1_555
C42 C23 1_555 1_555
C43 C42 1_555 1_555
C44 C24 1_555 1_555
C45 C27 1_555 1_555
C46 C45 1_555 1_555
C47 C28 1_555 1_555
C48 C31 1_555 1_555
C49 C48 1_555 1_555
C50 C32 1_555 1_555
C51 C35 1_555 1_555
C52 C51 1_555 1_555
C53 C36 1_555 1_555
C54 C39 1_555 1_555
C55 C41 1_555 1_555
C56 C55 1_555 1_555
C57 C43 1_555 1_555
C58 C46 1_555 1_555
C59 C49 1_555 1_555
C60 C52 1_555 1_555
C61 C62 1_555 1_555
C62 C63 1_555 1_555
C63 C64 1_555 1_555
C64 C65 1_555 1_555
C65 C61 1_555 1_555
C66 C61 1_555 1_555
C67 C66 1_555 1_555
C68 C67 1_555 1_555
C69 C62 1_555 1_555
C70 C69 1_555 1_555
C71 C70 1_555 1_555
C72 C63 1_555 1_555
C73 C72 1_555 1_555
C74 C73 1_555 1_555
C75 C64 1_555 1_555
C76 C75 1_555 1_555
C77 C76 1_555 1_555
C78 C65 1_555 1_555
C79 C78 1_555 1_555
C80 C66 1_555 1_555
C81 C80 1_555 1_555
C82 C67 1_555 1_555
C83 C82 1_555 1_555
H1 C83 1_555 1_555
C84 C83 1_555 1_555
H2 C84 1_555 1_555
C85 C84 1_555 1_555
H3 C85 1_555 1_555
C86 C81 1_555 1_555
H4 C86 1_555 1_555
C87 C68 1_555 1_555
C88 C70 1_555 1_555
C89 C88 1_555 1_555
H5 C89 1_555 1_555
C90 C89 1_555 1_555
H6 C90 1_555 1_555
C91 C90 1_555 1_555
H7 C91 1_555 1_555
C92 C87 1_555 1_555
H8 C92 1_555 1_555
C93 C71 1_555 1_555
C94 C73 1_555 1_555
C95 C94 1_555 1_555
H9 C95 1_555 1_555
C96 C95 1_555 1_555
H10 C96 1_555 1_555
C97 C96 1_555 1_555
H11 C97 1_555 1_555
C98 C93 1_555 1_555
H12 C98 1_555 1_555
C99 C74 1_555 1_555
C100 C76 1_555 1_555
C101 C100 1_555 1_555
H13 C101 1_555 1_555
C102 C101 1_555 1_555
H14 C102 1_555 1_555
C103 C102 1_555 1_555
H15 C103 1_555 1_555
C104 C99 1_555 1_555
H16 C104 1_555 1_555
C105 C77 1_555 1_555
C106 C79 1_555 1_555
C107 C106 1_555 1_555
H17 C107 1_555 1_555
C108 C107 1_555 1_555
H18 C108 1_555 1_555
C109 C108 1_555 1_555
H19 C109 1_555 1_555
C110 C105 1_555 1_555
H20 C110 1_555 1_555
C111 C112 1_555 1_555
C112 C113 1_555 1_555
C113 C114 1_555 1_555
C114 C115 1_555 1_555
C115 C111 1_555 1_555
C116 C111 1_555 1_555
C117 C116 1_555 1_555
C118 C117 1_555 1_555
C119 C112 1_555 1_555
C120 C119 1_555 1_555
C121 C120 1_555 1_555
C122 C113 1_555 1_555
C123 C122 1_555 1_555
C124 C123 1_555 1_555
C125 C114 1_555 1_555
C126 C125 1_555 1_555
C127 C126 1_555 1_555
C128 C115 1_555 1_555
C129 C128 1_555 1_555
C130 C116 1_555 1_555
C131 C130 1_555 1_555
C132 C117 1_555 1_555
C133 C132 1_555 1_555
H21 C133 1_555 1_555
C134 C133 1_555 1_555
H22 C134 1_555 1_555
C135 C134 1_555 1_555
H23 C135 1_555 1_555
C136 C131 1_555 1_555
H24 C136 1_555 1_555
C137 C118 1_555 1_555
C138 C120 1_555 1_555
C139 C138 1_555 1_555
H25 C139 1_555 1_555
C140 C139 1_555 1_555
H26 C140 1_555 1_555
C141 C140 1_555 1_555
H27 C141 1_555 1_555
C142 C137 1_555 1_555
H28 C142 1_555 1_555
C143 C121 1_555 1_555
C144 C123 1_555 1_555
C145 C144 1_555 1_555
H29 C145 1_555 1_555
C146 C145 1_555 1_555
H30 C146 1_555 1_555
C147 C146 1_555 1_555
H31 C147 1_555 1_555
C148 C143 1_555 1_555
H32 C148 1_555 1_555
C149 C124 1_555 1_555
C150 C126 1_555 1_555
C151 C150 1_555 1_555
H33 C151 1_555 1_555
C152 C151 1_555 1_555
H34 C152 1_555 1_555
C153 C152 1_555 1_555
H35 C153 1_555 1_555
C154 C149 1_555 1_555
H36 C154 1_555 1_555
C155 C127 1_555 1_555
C156 C129 1_555 1_555
C157 C156 1_555 1_555
H37 C157 1_555 1_555
C158 C157 1_555 1_555
H38 C158 1_555 1_555
C159 C158 1_555 1_555
H39 C159 1_555 1_555
C160 C155 1_555 1_555
H40 C160 1_555 1_555
C8 C9 1_555 1_555
C11 C12 1_555 1_555
C14 C15 1_555 1_555
C17 C18 1_555 1_555
C19 C20 1_555 1_555
C21 C22 1_555 1_555
C24 C25 1_555 1_555
C25 C26 1_555 1_555
C28 C29 1_555 1_555
C29 C30 1_555 1_555
C32 C33 1_555 1_555
C33 C34 1_555 1_555
C36 C37 1_555 1_555
C37 C38 1_555 1_555
C39 C40 1_555 1_555
C41 C42 1_555 1_555
C43 C44 1_555 1_555
C44 C45 1_555 1_555
C46 C47 1_555 1_555
C47 C48 1_555 1_555
C49 C50 1_555 1_555
C50 C51 1_555 1_555
C52 C53 1_555 1_555
C53 C54 1_555 1_555
C54 C55 1_555 1_555
C56 C57 1_555 1_555
C56 C60 1_555 1_555
C57 C58 1_555 1_555
C58 C59 1_555 1_555
C59 C60 1_555 1_555
C68 C69 1_555 1_555
C71 C72 1_555 1_555
C74 C75 1_555 1_555
C77 C78 1_555 1_555
C79 C80 1_555 1_555
C81 C82 1_555 1_555
C85 C86 1_555 1_555
C87 C88 1_555 1_555
C91 C92 1_555 1_555
C93 C94 1_555 1_555
C97 C98 1_555 1_555
C99 C100 1_555 1_555
C103 C104 1_555 1_555
C105 C106 1_555 1_555
C109 C110 1_555 1_555
C118 C119 1_555 1_555
C121 C122 1_555 1_555
C124 C125 1_555 1_555
C127 C128 1_555 1_555
C129 C130 1_555 1_555
C131 C132 1_555 1_555
C135 C136 1_555 1_555
C137 C138 1_555 1_555
C141 C142 1_555 1_555
C143 C144 1_555 1_555
C147 C148 1_555 1_555
C149 C150 1_555 1_555
C153 C154 1_555 1_555
C155 C156 1_555 1_555
C159 C160 1_555 1_555

#END
