
#######################################################################
#
#                 Cambridge Crystallographic Data Centre
#                                CCDC 
#
#######################################################################
#
# If this CIF has been generated from an entry in the Cambridge 
# Structural Database, then it will include bibliographic, chemical, 
# crystal, experimental, refinement or atomic coordinate data resulting 
# from the CCDC's data processing and validation procedures.
#
#######################################################################

data_IXOZEC02
_chemical_formula_moiety         'C16 H8 Cl1 F3 O1 S1'
_chemical_name_systematic        
7-chloro-3-phenyl-2-((trifluoromethyl)sulfanyl)-1H-inden-1-one
_symmetry_cell_setting           triclinic
_symmetry_space_group_name_H-M   'P -1'
_symmetry_Int_Tables_number      2
_space_group_name_Hall           '-P 1'
loop_
_symmetry_equiv_pos_site_id
_symmetry_equiv_pos_as_xyz
1 x,y,z
2 -x,-y,-z
_cell_length_a                   7.645(2)
_cell_length_b                   8.606(2)
_cell_length_c                   12.108(3)
_cell_angle_alpha                78.348(4)
_cell_angle_beta                 77.915(4)
_cell_angle_gamma                73.193(4)
_cell_volume                     737.131
_exptl_crystal_colour            yellow
_exptl_crystal_description       Block
_cell_formula_units_Z            2
loop_
_atom_site_label
_atom_site_type_symbol
_atom_site_fract_x
_atom_site_fract_y
_atom_site_fract_z
Cl1 Cl 0.29942(11) 0.12025(10) 0.72953(6)
S1 S 0.15983(9) 0.58045(7) 0.28243(6)
O1 O 0.2267(3) 0.4358(2) 0.53996(18)
F1 F 0.5126(3) 0.5279(3) 0.2884(3)
F2 F 0.4061(4) 0.7047(3) 0.1524(3)
F3 F 0.4582(4) 0.4477(3) 0.1497(3)
C1 C 0.2164(3) 0.1035(3) 0.41633(19)
C2 C 0.2258(3) -0.0607(3) 0.4199(2)
H1 H 0.2072 -0.0980 0.3574
C3 C 0.2641(4) -0.1688(3) 0.5203(3)
H2 H 0.2732 -0.2798 0.5238
C4 C 0.2885(4) -0.1144(3) 0.6136(2)
H3 H 0.3141 -0.1882 0.6794
C5 C 0.2748(3) 0.0532(3) 0.6096(2)
C6 C 0.2409(3) 0.1593(3) 0.5112(2)
C7 C 0.2206(3) 0.3412(3) 0.4798(2)
C8 C 0.1873(3) 0.3808(3) 0.3587(2)
C9 C 0.1782(3) 0.2449(3) 0.32241(19)
C10 C 0.1337(3) 0.2321(3) 0.2130(2)
C11 C 0.2440(4) 0.1104(4) 0.1485(3)
H4 H 0.3474 0.0366 0.1750
C12 C 0.2000(6) 0.0992(4) 0.0460(3)
H5 H 0.2755 0.0196 0.0028
C13 C 0.0455(5) 0.2048(5) 0.0076(3)
H6 H 0.0156 0.1957 -0.0611
C14 C -0.0659(4) 0.3246(4) 0.0705(3)
H7 H -0.1711 0.3956 0.0443
C15 C -0.0219(4) 0.3396(3) 0.1722(2)
H8 H -0.0964 0.4217 0.2136
C16 C 0.3939(5) 0.5638(4) 0.2154(3)
loop_
_geom_bond_atom_site_label_1
_geom_bond_atom_site_label_2
_geom_bond_site_symmetry_1
_geom_bond_site_symmetry_2
Cl1 C5 1_555 1_555
S1 C8 1_555 1_555
O1 C7 1_555 1_555
F1 C16 1_555 1_555
F2 C16 1_555 1_555
F3 C16 1_555 1_555
C1 C2 1_555 1_555
C2 H1 1_555 1_555
C3 C2 1_555 1_555
H2 C3 1_555 1_555
C4 C3 1_555 1_555
H3 C4 1_555 1_555
C5 C4 1_555 1_555
C6 C1 1_555 1_555
C7 C6 1_555 1_555
C8 C7 1_555 1_555
C9 C1 1_555 1_555
C10 C9 1_555 1_555
C11 C10 1_555 1_555
H4 C11 1_555 1_555
C12 C11 1_555 1_555
H5 C12 1_555 1_555
C13 C12 1_555 1_555
H6 C13 1_555 1_555
C14 C13 1_555 1_555
H7 C14 1_555 1_555
C15 C10 1_555 1_555
H8 C15 1_555 1_555
C16 S1 1_555 1_555
C5 C6 1_555 1_555
C8 C9 1_555 1_555
C14 C15 1_555 1_555

#END
