
#######################################################################
#
#                 Cambridge Crystallographic Data Centre
#                                CCDC 
#
#######################################################################
#
# If this CIF has been generated from an entry in the Cambridge 
# Structural Database, then it will include bibliographic, chemical, 
# crystal, experimental, refinement or atomic coordinate data resulting 
# from the CCDC's data processing and validation procedures.
#
#######################################################################

data_IXUCUB02
_chemical_formula_moiety         'C23 H23 N3 O4'
_chemical_name_systematic        
6-benzoyl-7-butyl-5-(4-nitrophenyl)-2,3-dihydro-1H,5H-pyrazolo[1,2-a]pyrazol-1-one
_symmetry_cell_setting           monoclinic
_symmetry_space_group_name_H-M   'P 21/c'
_symmetry_Int_Tables_number      14
_space_group_name_Hall           '-P 2ybc'
loop_
_symmetry_equiv_pos_site_id
_symmetry_equiv_pos_as_xyz
1 x,y,z
2 -x,1/2+y,1/2-z
3 -x,-y,-z
4 x,1/2-y,1/2+z
_cell_length_a                   12.52(3)
_cell_length_b                   8.083(19)
_cell_length_c                   20.44(5)
_cell_angle_alpha                90
_cell_angle_beta                 99.19(3)
_cell_angle_gamma                90
_cell_volume                     2041.96
_exptl_crystal_description       block
_cell_formula_units_Z            4
loop_
_atom_site_label
_atom_site_type_symbol
_atom_site_fract_x
_atom_site_fract_y
_atom_site_fract_z
O1 O -0.3579(3) 0.5173(5) 0.2798(2)
O2 O 0.15350(18) -0.3210(3) 0.50536(10)
N1 N -0.3244(3) 0.4301(5) 0.2412(3)
O3 O -0.3610(2) 0.4236(4) 0.1820(2)
C1 C 0.3752(3) -0.0048(8) 0.57747(19)
H1 H 0.3909 -0.1245 0.5751
H2 H 0.4351 0.0563 0.5621
N2 N 0.09035(18) -0.1207(3) 0.43189(11)
O4 O 0.15433(17) 0.1971(3) 0.27014(10)
N3 N -0.00948(18) -0.0782(3) 0.39267(11)
C2 C 0.2728(3) 0.0322(5) 0.53239(15)
H3 H 0.2586 0.1526 0.5335
H4 H 0.2125 -0.0253 0.5489
C3 C 0.0834(3) -0.2617(4) 0.46537(14)
C4 C 0.0218(2) 0.0082(4) 0.33611(13)
H5 H 0.0324 -0.0736 0.3010
C5 C -0.0646(2) 0.1256(3) 0.30970(14)
C6 C 0.1288(2) 0.0771(4) 0.36679(14)
C7 C 0.2743(2) -0.0190(4) 0.46197(14)
H6 H 0.3251 0.0535 0.4429
H7 H 0.3021 -0.1337 0.4617
C8 C -0.1188(2) 0.1102(4) 0.24745(15)
H8 H -0.0974 0.0270 0.2193
C9 C -0.2328(2) 0.3242(5) 0.2646(2)
C10 C 0.1829(2) 0.1917(4) 0.32901(14)
C11 C 0.1678(2) -0.0116(4) 0.41937(14)
C12 C -0.1814(3) 0.3446(5) 0.3271(2)
H9 H -0.2043 0.4271 0.3549
C13 C -0.0278(3) -0.3215(4) 0.44518(16)
H10 H -0.0743 -0.2907 0.4781
H11 H -0.0293 -0.4431 0.4395
C14 C -0.2026(3) 0.2101(5) 0.22413(18)
H12 H -0.2393 0.1994 0.1799
C15 C 0.3380(2) 0.4877(3) 0.44837(10)
H13 H 0.3336 0.5378 0.4899
C16 C 0.25983(15) 0.3742(3) 0.42129(10)
H14 H 0.2021 0.3467 0.4443
C17 C 0.26618(14) 0.3010(2) 0.36050(10)
C18 C 0.35066(18) 0.3412(3) 0.32680(10)
H15 H 0.3550 0.2912 0.2853
C19 C 0.42880(16) 0.4547(3) 0.35387(13)
H16 H 0.4865 0.4822 0.3308
C20 C 0.42245(17) 0.5280(3) 0.41466(14)
H17 H 0.4759 0.6056 0.4332
C21 C -0.0963(3) 0.2451(4) 0.34951(16)
H18 H -0.0584 0.2588 0.3933
C22 C -0.0631(3) -0.2360(4) 0.38085(16)
H19 H -0.0386 -0.2958 0.3437
H20 H -0.1428 -0.2232 0.3716
C23 C 0.3712(4) 0.0403(10) 0.6468(2)
H21 H 0.3721 0.1610 0.6512
H22 H 0.4341 -0.0066 0.6755
H23 H 0.3047 -0.0036 0.6598
loop_
_geom_bond_atom_site_label_1
_geom_bond_atom_site_label_2
_geom_bond_site_symmetry_1
_geom_bond_site_symmetry_2
O1 N1 1_555 1_555
O2 C3 1_555 1_555
N1 O3 1_555 1_555
C1 H1 1_555 1_555
H2 C1 1_555 1_555
N2 N3 1_555 1_555
O4 C10 1_555 1_555
N3 C4 1_555 1_555
C2 C1 1_555 1_555
H3 C2 1_555 1_555
H4 C2 1_555 1_555
C3 N2 1_555 1_555
C4 H5 1_555 1_555
C5 C4 1_555 1_555
C6 C4 1_555 1_555
C7 C2 1_555 1_555
H6 C7 1_555 1_555
H7 C7 1_555 1_555
C8 C5 1_555 1_555
H8 C8 1_555 1_555
C9 N1 1_555 1_555
C10 C6 1_555 1_555
C11 N2 1_555 1_555
C12 C9 1_555 1_555
H9 C12 1_555 1_555
C13 C3 1_555 1_555
H10 C13 1_555 1_555
H11 C13 1_555 1_555
C14 C8 1_555 1_555
H12 C14 1_555 1_555
C15 H13 1_555 1_555
C16 C15 1_555 1_555
H14 C16 1_555 1_555
C17 C10 1_555 1_555
C18 C17 1_555 1_555
H15 C18 1_555 1_555
C19 C18 1_555 1_555
H16 C19 1_555 1_555
C20 C15 1_555 1_555
H17 C20 1_555 1_555
C21 C5 1_555 1_555
H18 C21 1_555 1_555
C22 N3 1_555 1_555
H19 C22 1_555 1_555
H20 C22 1_555 1_555
C23 C1 1_555 1_555
H21 C23 1_555 1_555
H22 C23 1_555 1_555
H23 C23 1_555 1_555
C6 C11 1_555 1_555
C7 C11 1_555 1_555
C9 C14 1_555 1_555
C12 C21 1_555 1_555
C13 C22 1_555 1_555
C16 C17 1_555 1_555
C19 C20 1_555 1_555

#END
