
#######################################################################
#
#                 Cambridge Crystallographic Data Centre
#                                CCDC 
#
#######################################################################
#
# If this CIF has been generated from an entry in the Cambridge 
# Structural Database, then it will include bibliographic, chemical, 
# crystal, experimental, refinement or atomic coordinate data resulting 
# from the CCDC's data processing and validation procedures.
#
#######################################################################

data_IXUFIR
_chemical_formula_moiety         'C16 H13 Br1 O2'
_chemical_name_systematic        2-(4-Bromophenyl)-7-methoxy-2H-chromene
_symmetry_cell_setting           monoclinic
_symmetry_space_group_name_H-M   'P 21/c'
_symmetry_Int_Tables_number      14
_space_group_name_Hall           '-P 2ybc'
loop_
_symmetry_equiv_pos_site_id
_symmetry_equiv_pos_as_xyz
1 x,y,z
2 -x,1/2+y,1/2-z
3 -x,-y,-z
4 x,1/2-y,1/2+z
_cell_length_a                   12.8071(3)
_cell_length_b                   8.6945(3)
_cell_length_c                   11.5190(3)
_cell_angle_alpha                90
_cell_angle_beta                 93.4240(10)
_cell_angle_gamma                90
_cell_volume                     1280.37
_exptl_crystal_colour            colorless
_exptl_crystal_description       plates
_cell_formula_units_Z            4
loop_
_atom_site_label
_atom_site_type_symbol
_atom_site_fract_x
_atom_site_fract_y
_atom_site_fract_z
Br1 Br 0.646703(14) 0.11852(2) 0.266203(17)
O1 O 0.04204(11) 0.64747(15) 0.22968(12)
O2 O 0.17061(9) 0.24024(14) -0.00178(11)
C1 C 0.15980(13) 0.3952(2) 0.01753(16)
C2 C 0.23949(14) 0.4476(2) -0.16590(17)
H1 H 0.2500 0.5159 -0.2285
C3 C 0.25674(13) 0.1946(2) -0.07260(16)
H2 H 0.2389 0.0909 -0.1058
C4 C 0.10896(13) 0.4374(2) 0.11598(16)
H3 H 0.0871 0.3618 0.1689
C5 C 0.26813(14) 0.3010(2) -0.17280(16)
H4 H 0.2960 0.2637 -0.2420
C6 C 0.19204(13) 0.5031(2) -0.06198(16)
C7 C 0.09075(14) 0.5928(2) 0.13532(16)
C8 C 0.17264(14) 0.6579(2) -0.03984(17)
H5 H 0.1941 0.7336 -0.0929
C9 C 0.12280(14) 0.7033(2) 0.05773(17)
H6 H 0.1105 0.8092 0.0717
C10 C 0.00597(15) 0.5371(2) 0.30954(16)
H7 H -0.0399 0.4630 0.2677
H8 H -0.0329 0.5896 0.3687
H9 H 0.0660 0.4830 0.3472
C11 C 0.42986(14) 0.2914(2) 0.01874(17)
H10 H 0.4212 0.3832 -0.0256
C12 C 0.45768(14) 0.0214(2) 0.14517(16)
H11 H 0.4681 -0.0717 0.1875
C13 C 0.52872(14) 0.1406(2) 0.15886(16)
C14 C 0.35541(13) 0.1757(2) 0.00609(15)
C15 C 0.51709(14) 0.2744(2) 0.09568(17)
H12 H 0.5678 0.3539 0.1044
C16 C 0.37121(14) 0.0402(2) 0.06872(16)
H13 H 0.3218 -0.0409 0.0588
loop_
_geom_bond_atom_site_label_1
_geom_bond_atom_site_label_2
_geom_bond_site_symmetry_1
_geom_bond_site_symmetry_2
Br1 C13 1_555 1_555
O1 C7 1_555 1_555
O2 C1 1_555 1_555
C1 C4 1_555 1_555
C2 H1 1_555 1_555
C3 O2 1_555 1_555
H2 C3 1_555 1_555
C4 H3 1_555 1_555
C5 C2 1_555 1_555
H4 C5 1_555 1_555
C6 C1 1_555 1_555
C7 C4 1_555 1_555
C8 C6 1_555 1_555
H5 C8 1_555 1_555
C9 C7 1_555 1_555
H6 C9 1_555 1_555
C10 O1 1_555 1_555
H7 C10 1_555 1_555
H8 C10 1_555 1_555
H9 C10 1_555 1_555
C11 H10 1_555 1_555
C12 H11 1_555 1_555
C13 C12 1_555 1_555
C14 C3 1_555 1_555
C15 C11 1_555 1_555
H12 C15 1_555 1_555
C16 C12 1_555 1_555
H13 C16 1_555 1_555
C2 C6 1_555 1_555
C3 C5 1_555 1_555
C8 C9 1_555 1_555
C11 C14 1_555 1_555
C13 C15 1_555 1_555
C14 C16 1_555 1_555

#END
