
#######################################################################
#
#                 Cambridge Crystallographic Data Centre
#                                CCDC 
#
#######################################################################
#
# If this CIF has been generated from an entry in the Cambridge 
# Structural Database, then it will include bibliographic, chemical, 
# crystal, experimental, refinement or atomic coordinate data resulting 
# from the CCDC's data processing and validation procedures.
#
#######################################################################

data_IXUJAO
_chemical_formula_moiety         'C50 H20,C1 H1 Br3'
_chemical_name_systematic        'Pentaindenocorannulene bromoform solvate'
_symmetry_cell_setting           orthorhombic
_symmetry_space_group_name_H-M   'P n m a'
_symmetry_Int_Tables_number      62
_space_group_name_Hall           '-P 2ac 2n'
loop_
_symmetry_equiv_pos_site_id
_symmetry_equiv_pos_as_xyz
1 x,y,z
2 1/2-x,-y,1/2+z
3 1/2+x,1/2-y,1/2-z
4 -x,1/2+y,-z
5 -x,-y,-z
6 1/2+x,y,1/2-z
7 1/2-x,1/2+y,1/2+z
8 x,1/2-y,z
_cell_length_a                   8.4980(17)
_cell_length_b                   17.885(4)
_cell_length_c                   21.953(4)
_cell_angle_alpha                90
_cell_angle_beta                 90
_cell_angle_gamma                90
_cell_volume                     3336.56
_exptl_crystal_colour            orange
_exptl_crystal_description       block
_cell_formula_units_Z            4
_exptl_crystal_recrystallization_method bromoform
loop_
_atom_site_label
_atom_site_type_symbol
_atom_site_fract_x
_atom_site_fract_y
_atom_site_fract_z
Br1 Br 0.51741(8) 0.66200(3) 0.35185(3)
Br2 Br 0.22027(10) 0.7500 0.30308(4)
C1 C 0.3908(8) 0.7500 0.3608(3)
H1 H 0.3450 0.7500 0.4028
Br1G Br 0.51741(8) 0.83800(3) 0.35185(3)
C2 C 0.5843(7) 0.7500 0.6890(3)
C3 C 0.5867(5) 0.6854(2) 0.7271(2)
C4 C 0.5901(5) 0.7100(2) 0.78929(18)
C5 C 0.4917(7) 0.7500 0.6377(3)
C6 C 0.4138(5) 0.6831(2) 0.61606(19)
C7 C 0.4149(5) 0.6196(2) 0.65362(19)
C8 C 0.4948(5) 0.6251(2) 0.71182(19)
C9 C 0.4201(5) 0.5787(2) 0.75733(19)
C10 C 0.4241(5) 0.6026(2) 0.81831(19)
C11 C 0.5018(5) 0.6729(2) 0.83152(19)
C12 C 0.4272(5) 0.7111(2) 0.88201(18)
C13 C 0.3306(5) 0.6519(2) 0.91157(19)
C14 C 0.3287(5) 0.5873(2) 0.87362(19)
C15 C 0.2468(5) 0.5232(3) 0.8924(2)
H2 H 0.2452 0.4798 0.8675
C16 C 0.1690(5) 0.5239(3) 0.9474(2)
H3 H 0.1130 0.4808 0.9603
C17 C 0.1716(5) 0.5875(3) 0.9843(2)
H4 H 0.1176 0.5867 1.0222
C18 C 0.2498(5) 0.6503(2) 0.96723(19)
H5 H 0.2497 0.6931 0.9929
C19 C 0.3180(5) 0.5272(2) 0.72185(19)
C20 C 0.3154(5) 0.5521(2) 0.65966(19)
C21 C 0.2289(5) 0.5129(2) 0.6171(2)
H6 H 0.2276 0.5286 0.5758
C22 C 0.1431(5) 0.4497(2) 0.6352(2)
H7 H 0.0830 0.4229 0.6060
C23 C 0.1449(5) 0.4260(2) 0.6952(2)
H8 H 0.0853 0.3835 0.7068
C24 C 0.2336(5) 0.4642(2) 0.7385(2)
H9 H 0.2362 0.4470 0.7794
C25 C 0.3124(5) 0.7100(2) 0.56591(18)
C26 C 0.2234(5) 0.6717(2) 0.5220(2)
H10 H 0.2236 0.6185 0.5213
C27 C 0.1354(5) 0.7111(3) 0.47980(19)
H11 H 0.0743 0.6848 0.4505
C3G C 0.5867(5) 0.8146(2) 0.7271(2)
C4G C 0.5901(5) 0.7900(2) 0.78929(18)
C6G C 0.4138(5) 0.8169(2) 0.61606(19)
C7G C 0.4149(5) 0.8804(2) 0.65362(19)
C8G C 0.4948(5) 0.8749(2) 0.71182(19)
C9G C 0.4201(5) 0.9213(2) 0.75733(19)
C10G C 0.4241(5) 0.8974(2) 0.81831(19)
C11G C 0.5018(5) 0.8271(2) 0.83152(19)
C12G C 0.4272(5) 0.7889(2) 0.88201(18)
C13G C 0.3306(5) 0.8481(2) 0.91157(19)
C14G C 0.3287(5) 0.9127(2) 0.87362(19)
C15G C 0.2468(5) 0.9768(3) 0.8924(2)
H2G H 0.2452 1.0202 0.8675
C16G C 0.1690(5) 0.9761(3) 0.9474(2)
H3G H 0.1130 1.0192 0.9603
C17G C 0.1716(5) 0.9125(3) 0.9843(2)
H4G H 0.1176 0.9133 1.0222
C18G C 0.2498(5) 0.8497(2) 0.96723(19)
H5G H 0.2497 0.8069 0.9929
C19G C 0.3180(5) 0.9728(2) 0.72185(19)
C20G C 0.3154(5) 0.9479(2) 0.65966(19)
C21G C 0.2289(5) 0.9871(2) 0.6171(2)
H6G H 0.2276 0.9714 0.5758
C22G C 0.1431(5) 1.0503(2) 0.6352(2)
H7G H 0.0830 1.0771 0.6060
C23G C 0.1449(5) 1.0740(2) 0.6952(2)
H8G H 0.0853 1.1165 0.7068
C24G C 0.2336(5) 1.0358(2) 0.7385(2)
H9G H 0.2362 1.0530 0.7794
C25G C 0.3124(5) 0.7900(2) 0.56591(18)
C26G C 0.2234(5) 0.8283(2) 0.5220(2)
H10G H 0.2236 0.8815 0.5213
C27G C 0.1354(5) 0.7889(3) 0.47980(19)
H11G H 0.0743 0.8152 0.4505
loop_
_geom_bond_atom_site_label_1
_geom_bond_atom_site_label_2
_geom_bond_site_symmetry_1
_geom_bond_site_symmetry_2
Br1 C1 1_555 1_555
Br2 C1 1_555 1_555
C1 H1 1_555 1_555
C2 C3 1_555 1_555
C3 C4 1_555 1_555
C4 C11 1_555 1_555
C5 C2 1_555 1_555
C6 C5 1_555 1_555
C7 C6 1_555 1_555
C8 C3 1_555 1_555
C9 C8 1_555 1_555
C10 C9 1_555 1_555
C11 C10 1_555 1_555
C12 C11 1_555 1_555
C13 C12 1_555 1_555
C14 C10 1_555 1_555
C15 C14 1_555 1_555
H2 C15 1_555 1_555
C16 C15 1_555 1_555
H3 C16 1_555 1_555
C17 C16 1_555 1_555
H4 C17 1_555 1_555
C18 C13 1_555 1_555
H5 C18 1_555 1_555
C19 C9 1_555 1_555
C20 C7 1_555 1_555
C21 C20 1_555 1_555
H6 C21 1_555 1_555
C22 C21 1_555 1_555
H7 C22 1_555 1_555
C23 C22 1_555 1_555
H8 C23 1_555 1_555
C24 C19 1_555 1_555
H9 C24 1_555 1_555
C25 C6 1_555 1_555
C26 C25 1_555 1_555
H10 C26 1_555 1_555
C27 C26 1_555 1_555
H11 C27 1_555 1_555
Br1G C1 1_555 1_555
C3G C2 1_555 1_555
C4G C4 1_555 1_555
C6G C5 1_555 1_555
C7G C6G 1_555 1_555
C8G C3G 1_555 1_555
C9G C8G 1_555 1_555
C10G C9G 1_555 1_555
C11G C4G 1_555 1_555
C12G C12 1_555 1_555
C13G C12G 1_555 1_555
C14G C10G 1_555 1_555
C15G C14G 1_555 1_555
H2G C15G 1_555 1_555
C16G C15G 1_555 1_555
H3G C16G 1_555 1_555
C17G C16G 1_555 1_555
H4G C17G 1_555 1_555
C18G C13G 1_555 1_555
H5G C18G 1_555 1_555
C19G C9G 1_555 1_555
C20G C7G 1_555 1_555
C21G C20G 1_555 1_555
H6G C21G 1_555 1_555
C22G C21G 1_555 1_555
H7G C22G 1_555 1_555
C23G C22G 1_555 1_555
H8G C23G 1_555 1_555
C24G C19G 1_555 1_555
H9G C24G 1_555 1_555
C25G C25 1_555 1_555
C26G C25G 1_555 1_555
H10G C26G 1_555 1_555
C27G C27 1_555 1_555
H11G C27G 1_555 1_555
C7 C8 1_555 1_555
C13 C14 1_555 1_555
C17 C18 1_555 1_555
C19 C20 1_555 1_555
C23 C24 1_555 1_555
C3G C4G 1_555 1_555
C6G C25G 1_555 1_555
C7G C8G 1_555 1_555
C10G C11G 1_555 1_555
C11G C12G 1_555 1_555
C13G C14G 1_555 1_555
C17G C18G 1_555 1_555
C19G C20G 1_555 1_555
C23G C24G 1_555 1_555
C26G C27G 1_555 1_555

#END
