
#######################################################################
#
#                 Cambridge Crystallographic Data Centre
#                                CCDC 
#
#######################################################################
#
# If this CIF has been generated from an entry in the Cambridge 
# Structural Database, then it will include bibliographic, chemical, 
# crystal, experimental, refinement or atomic coordinate data resulting 
# from the CCDC's data processing and validation procedures.
#
#######################################################################

data_IXUQOH
_chemical_formula_moiety         'C30 H29 F6 N1 O8 S2 Sr1'
_chemical_name_systematic        
(2,3-Benzo-10-aza-1,4,7,13-tetraoxacyclopentadeca-2-ene)-bis(4,4,4-trifluoro-1-(2-thienyl)-1,3-butanedionato-O,O')-strontium
_symmetry_cell_setting           monoclinic
_symmetry_space_group_name_H-M   'P 21/c'
_symmetry_Int_Tables_number      14
_space_group_name_Hall           '-P 2ybc'
loop_
_symmetry_equiv_pos_site_id
_symmetry_equiv_pos_as_xyz
1 x,y,z
2 x,1/2-y,1/2+z
3 -x,-y,-z
4 -x,1/2+y,1/2-z
_cell_length_a                   10.719(2)
_cell_length_b                   32.230(6)
_cell_length_c                   20.335(4)
_cell_angle_alpha                90
_cell_angle_beta                 103.87(3)
_cell_angle_gamma                90
_cell_volume                     6820.36
_exptl_crystal_description       prismatic
_chemical_melting_point          178-180deg.C
_cell_formula_units_Z            8
_exptl_crystal_recrystallization_method ethanol
loop_
_atom_site_label
_atom_site_type_symbol
_atom_site_fract_x
_atom_site_fract_y
_atom_site_fract_z
Sr1 Sr 0.49248(7) 0.31162(2) -0.44564(3)
N1 N 0.7143(6) 0.35358(15) -0.3823(3)
S1 S 0.1196(2) 0.21344(7) -0.55870(13)
S2 S 0.0511(2) 0.27662(7) -0.39507(11)
O1 O 0.2945(5) 0.36000(14) -0.5055(2)
O2 O 0.4651(5) 0.38937(12) -0.3964(2)
O3 O 0.6346(4) 0.35018(12) -0.5263(2)
O4 O 0.3974(4) 0.31777(12) -0.5875(2)
O5 O 0.3654(4) 0.25063(11) -0.4975(2)
O6 O 0.6387(4) 0.25415(12) -0.4644(2)
O7 O 0.3151(4) 0.30102(13) -0.3859(2)
O8 O 0.5783(4) 0.29091(13) -0.3241(2)
F1 F 0.7060(5) 0.2439(2) -0.2148(3)
F2 F 0.7171(5) 0.30667(15) -0.1934(3)
F3 F 0.5920(5) 0.2685(2) -0.1552(2)
F4 F 0.8233(4) 0.22101(13) -0.5193(3)
F5 F 0.8053(5) 0.18632(14) -0.4339(2)
F6 F 0.7291(5) 0.16337(13) -0.5326(3)
C1 C 0.2084(7) 0.3445(2) -0.5619(4)
C2 C 0.0790(8) 0.3476(2) -0.5720(4)
H1 H 0.0423(8) 0.3601(2) -0.5399(4)
C3 C 0.0036(10) 0.3319(3) -0.6311(5)
H2 H -0.0853(10) 0.3338(3) -0.6386(5)
C4 C 0.0547(9) 0.3136(2) -0.6791(5)
H3 H 0.0023(9) 0.3048(2) -0.7201(5)
C5 C 0.1877(9) 0.3084(2) -0.6653(4)
H4 H 0.2245(9) 0.2947(2) -0.6962(4)
C6 C 0.2651(7) 0.3236(2) -0.6056(3)
C7 C 0.4687(7) 0.3407(2) -0.6268(4)
H5 H 0.4461(7) 0.3699(2) -0.6277(4)
H6 H 0.4498(7) 0.3305(2) -0.6730(4)
C8 C 0.6112(7) 0.3350(2) -0.5932(4)
H7 H 0.6337(7) 0.3058(2) -0.5928(4)
H8 H 0.6631(7) 0.3500(2) -0.6184(4)
C9 C 0.7681(7) 0.3493(2) -0.4950(4)
H9 H 0.8162(7) 0.3627(2) -0.5238(4)
H10 H 0.7976(7) 0.3208(2) -0.4877(4)
C10 C 0.7884(7) 0.3716(2) -0.4287(4)
H11 H 0.8791(7) 0.3710(2) -0.4064(4)
H12 H 0.7636(7) 0.4004(2) -0.4373(4)
C11 C 0.6848(7) 0.3844(2) -0.3373(4)
H13 H 0.7613(7) 0.4009(2) -0.3200(4)
H14 H 0.6642(7) 0.3703(2) -0.2991(4)
C12 C 0.5777(8) 0.4128(2) -0.3671(4)
H15 H 0.5607(8) 0.4310(2) -0.3322(4)
H16 H 0.6010(8) 0.4299(2) -0.4015(4)
C13 C 0.3615(9) 0.4149(2) -0.4289(5)
H17 H 0.3866(9) 0.4318(2) -0.4631(5)
H18 H 0.3377(9) 0.4333(2) -0.3962(5)
C14 C 0.2488(8) 0.3878(2) -0.4615(4)
H19 H 0.2188(8) 0.3724(2) -0.4273(4)
H20 H 0.1785(8) 0.4045(2) -0.4871(4)
C15 C 0.0432(7) 0.1746(2) -0.6079(4)
H21 H -0.0455(7) 0.1712(2) -0.6200(4)
C16 C 0.1255(9) 0.1497(2) -0.6269(4)
H22 H 0.0952(9) 0.1269(2) -0.6542(4)
C17 C 0.2606(5) 0.15715(15) -0.6063(3)
H23 H 0.3273(5) 0.14211(15) -0.6168(3)
C18 C 0.2678(6) 0.1949(2) -0.5639(3)
C19 C 0.3814(6) 0.2186(2) -0.5257(3)
C20 C 0.5050(6) 0.2014(2) -0.5257(3)
H24 H 0.5075(6) 0.1762(2) -0.5475(3)
C21 C 0.6199(7) 0.2199(2) -0.4953(3)
C22 C 0.7430(7) 0.1974(2) -0.4946(4)
C23 C -0.0622(7) 0.2718(2) -0.3490(4)
H25 H -0.1484(7) 0.2662(2) -0.3680(4)
C24 C -0.0137(8) 0.2770(2) -0.2831(4)
H26 H -0.0629(8) 0.2768(2) -0.2511(4)
C25 C 0.1210(7) 0.2828(2) -0.2667(4)
H27 H 0.1702(7) 0.2856(2) -0.2225(4)
C26 C 0.1726(6) 0.2841(2) -0.3231(3)
C27 C 0.3033(6) 0.2907(2) -0.3294(3)
C28 C 0.4055(7) 0.2850(2) -0.2697(3)
H28 H 0.3855(7) 0.2810(2) -0.2281(3)
C29 C 0.5335(7) 0.2855(2) -0.2730(3)
C30 C 0.6349(8) 0.2767(2) -0.2090(4)
Sr2? Sr 0.41737(7) 0.43010(2) -0.83616(3)
N2? N 0.1793(6) 0.39731(15) -0.8844(3)
S3? S 0.7035(3) 0.46893(9) -0.5439(2)
S4? S 0.8207(3) 0.43357(10) -0.6389(2)
S5? S 0.7955(4) 0.52860(9) -0.7381(2)
S6? S 0.6637(4) 0.60443(10) -0.7495(2)
O9? O 0.6118(4) 0.37961(11) -0.8516(2)
O10? O 0.3944(4) 0.34626(11) -0.8296(2)
O11? O 0.3322(5) 0.42123(12) -0.9731(2)
O12? O 0.5821(4) 0.44906(12) -0.9213(2)
O13? O 0.5608(4) 0.41849(11) -0.7164(2)
O14? O 0.2887(4) 0.43674(13) -0.7450(2)
O15? O 0.5523(5) 0.49251(11) -0.7999(3)
O16? O 0.2892(5) 0.49657(12) -0.8692(3)
F7? F 0.1001(6) 0.5507(2) -0.8499(4)
F8? F 0.1465(7) 0.5598(2) -0.9367(4)
F9? F 0.2068(6) 0.59919(13) -0.8624(4)
F10? F 0.1483(6) 0.4983(2) -0.7001(3)
F11? F 0.2565(5) 0.4918(2) -0.6038(3)
F12? F 0.1387(5) 0.4444(2) -0.6527(3)
C31? C 0.7057(7) 0.4392(2) -0.8862(3)
C32? C 0.8166(8) 0.4633(2) -0.8841(5)
H29? H 0.8102(8) 0.4861(2) -0.9129(5)
C33? C 0.9324(7) 0.4547(2) -0.8416(4)
H30? H 1.0010(7) 0.4727(2) -0.8398(4)
C34? C 0.9496(8) 0.4210(2) -0.8027(4)
H31? H 1.0300(8) 0.4152(2) -0.7748(4)
C35? C 0.8453(7) 0.3940(2) -0.8038(4)
H32? H 0.8578(7) 0.3701(2) -0.7772(4)
C36? C 0.7238(7) 0.4028(2) -0.8445(3)
C37? C 0.6184(6) 0.3410(2) -0.8146(4)
H33? H 0.6879(6) 0.3238(2) -0.8222(4)
H34? H 0.6329(6) 0.3463(2) -0.7664(4)
C38? C 0.4958(7) 0.3205(2) -0.8398(4)
H35? H 0.4836(7) 0.3146(2) -0.8877(4)
H36? H 0.4948(7) 0.2944(2) -0.8163(4)
C39? C 0.2753(8) 0.3274(2) -0.8575(4)
H37? H 0.2674(8) 0.3019(2) -0.8335(4)
H38? H 0.2682(8) 0.3207(2) -0.9048(4)
C40? C 0.1697(7) 0.3578(2) -0.8510(4)
H39? H 0.0866(7) 0.3454(2) -0.8706(4)
H40? H 0.1748(7) 0.3628(2) -0.8034(4)
C41? C 0.1368(7) 0.3947(2) -0.9595(4)
H41? H 0.0440(7) 0.3971(2) -0.9733(4)
H42? H 0.1607(7) 0.3679(2) -0.9744(4)
C42? C 0.1978(7) 0.4291(2) -0.9929(4)
H43? H 0.1673(7) 0.4280(2) -1.0418(4)
H44? H 0.1779(7) 0.4562(2) -0.9772(4)
C43? C 0.4035(8) 0.4422(2) -1.0160(4)
H45? H 0.3900(8) 0.4720(2) -1.0150(4)
H46? H 0.3746(8) 0.4327(2) -1.0624(4)
C44? C 0.5423(7) 0.4323(2) -0.9892(3)
H47? H 0.5551(7) 0.4025(2) -0.9884(3)
H48? H 0.5927(7) 0.4445(2) -1.0180(3)
C45? C 0.9085(7) 0.4492(2) -0.5723(4)
H49? H 0.9975(7) 0.4470(2) -0.5632(4)
C46? C 0.8452(9) 0.4671(2) -0.5259(4)
H50? H 0.8920(9) 0.4776(2) -0.4847(4)
C47? C 0.6948(7) 0.4478(2) -0.6168(3)
C48? C 0.5628(7) 0.4407(2) -0.6658(3)
C49? C 0.4545(6) 0.4592(2) -0.6506(3)
H51? H 0.4673(6) 0.4758(2) -0.6121(3)
C50? C 0.3301(7) 0.4544(2) -0.6889(3)
C51? C 0.2212(8) 0.4722(3) -0.6604(5)
C52? C 0.8011(9) 0.6038(2) -0.7168(4)
H52? H 0.8410(9) 0.6287(2) -0.7012(4)
C53? C 0.8749(9) 0.5679(2) -0.7078(5)
H53? H 0.9618(9) 0.5672(2) -0.6863(5)
C54? C 0.6653(7) 0.5538(2) -0.7616(3)
C55? C 0.5393(7) 0.5315(2) -0.7961(3)
C56? C 0.4206(7) 0.5527(2) -0.8204(3)
H54? H 0.4191(7) 0.5812(2) -0.8137(3)
C57? C 0.3113(8) 0.5341(2) -0.8522(4)
C58? C 0.1929(9) 0.5604(2) -0.8707(5)
loop_
_geom_bond_atom_site_label_1
_geom_bond_atom_site_label_2
_geom_bond_site_symmetry_1
_geom_bond_site_symmetry_2
Sr1 N1 1_555 1_555
N1 C10 1_555 1_555
S1 C15 1_555 1_555
S2 C23 1_555 1_555
O1 Sr1 1_555 1_555
O2 Sr1 1_555 1_555
O3 Sr1 1_555 1_555
O4 Sr1 1_555 1_555
O5 Sr1 1_555 1_555
O6 Sr1 1_555 1_555
O7 Sr1 1_555 1_555
O8 Sr1 1_555 1_555
F1 C30 1_555 1_555
F2 C30 1_555 1_555
F3 C30 1_555 1_555
F4 C22 1_555 1_555
F5 C22 1_555 1_555
F6 C22 1_555 1_555
C1 O1 1_555 1_555
C2 C1 1_555 1_555
H1 C2 1_555 1_555
C3 C2 1_555 1_555
H2 C3 1_555 1_555
C4 C3 1_555 1_555
H3 C4 1_555 1_555
C5 C4 1_555 1_555
H4 C5 1_555 1_555
C6 O4 1_555 1_555
C7 O4 1_555 1_555
H5 C7 1_555 1_555
H6 C7 1_555 1_555
C8 O3 1_555 1_555
H7 C8 1_555 1_555
H8 C8 1_555 1_555
C9 O3 1_555 1_555
H9 C9 1_555 1_555
H10 C9 1_555 1_555
C10 C9 1_555 1_555
H11 C10 1_555 1_555
H12 C10 1_555 1_555
C11 N1 1_555 1_555
H13 C11 1_555 1_555
H14 C11 1_555 1_555
C12 O2 1_555 1_555
H15 C12 1_555 1_555
H16 C12 1_555 1_555
C13 O2 1_555 1_555
H17 C13 1_555 1_555
H18 C13 1_555 1_555
C14 O1 1_555 1_555
H19 C14 1_555 1_555
H20 C14 1_555 1_555
C15 H21 1_555 1_555
C16 C15 1_555 1_555
H22 C16 1_555 1_555
C17 C16 1_555 1_555
H23 C17 1_555 1_555
C18 S1 1_555 1_555
C19 O5 1_555 1_555
C20 C19 1_555 1_555
H24 C20 1_555 1_555
C21 O6 1_555 1_555
C22 C21 1_555 1_555
C23 H25 1_555 1_555
C24 C23 1_555 1_555
H26 C24 1_555 1_555
C25 C24 1_555 1_555
H27 C25 1_555 1_555
C26 S2 1_555 1_555
C27 O7 1_555 1_555
C28 C27 1_555 1_555
H28 C28 1_555 1_555
C29 O8 1_555 1_555
C30 C29 1_555 1_555
C1 C6 1_555 1_555
C5 C6 1_555 1_555
C7 C8 1_555 1_555
C11 C12 1_555 1_555
C13 C14 1_555 1_555
C17 C18 1_555 1_555
C18 C19 1_555 1_555
C20 C21 1_555 1_555
C25 C26 1_555 1_555
C26 C27 1_555 1_555
C28 C29 1_555 1_555

#END
