
#######################################################################
#
#                 Cambridge Crystallographic Data Centre
#                                CCDC 
#
#######################################################################
#
# If this CIF has been generated from an entry in the Cambridge 
# Structural Database, then it will include bibliographic, chemical, 
# crystal, experimental, refinement or atomic coordinate data resulting 
# from the CCDC's data processing and validation procedures.
#
#######################################################################

data_IXUQAT
_chemical_formula_moiety         'C16 H22 O8'
_chemical_name_systematic        
2,2,2',2'-Tetramethyl-3a,6,6',6a',7,8a-hexahydro-3a'H-spiro(1,3-dioxolo(4,5)furo(3,2-b)pyran-5,5'-furo(2,3-d)(1,3)dioxol)-6'-ol
_symmetry_cell_setting           orthorhombic
_symmetry_space_group_name_H-M   'P 21 21 21'
_symmetry_Int_Tables_number      19
_space_group_name_Hall           'P 2ac 2ab'
loop_
_symmetry_equiv_pos_site_id
_symmetry_equiv_pos_as_xyz
1 x,y,z
2 1/2-x,-y,1/2+z
3 -x,1/2+y,1/2-z
4 1/2+x,1/2-y,-z
_cell_length_a                   5.5760(11)
_cell_length_b                   16.682(3)
_cell_length_c                   17.832(4)
_cell_angle_alpha                90
_cell_angle_beta                 90
_cell_angle_gamma                90
_cell_volume                     1658.71
_exptl_crystal_colour            colorless
_exptl_crystal_description       prismatic
_chemical_melting_point          141-142deg.C
_cell_formula_units_Z            4
_exptl_crystal_recrystallization_method 'diethyl ether'
loop_
_atom_site_label
_atom_site_type_symbol
_atom_site_fract_x
_atom_site_fract_y
_atom_site_fract_z
O1 O 0.2286(4) 0.75633(11) 0.07584(11)
O2 O -0.0974(3) 0.80998(11) 0.13612(12)
O3 O -0.1471(5) 0.71819(12) 0.25914(12)
H1 H -0.2367 0.7566 0.2651
O4 O 0.1566(3) 0.63450(11) 0.13717(11)
O5 O -0.1782(3) 0.54908(11) 0.13848(11)
O6 O 0.1757(4) 0.37084(11) 0.16286(12)
O7 O -0.1546(4) 0.42001(12) 0.00828(12)
O8 O 0.1298(5) 0.32640(15) 0.03778(13)
C1 C 0.0646(5) 0.69329(17) 0.08410(16)
H2 H 0.0281 0.6684 0.0356
C2 C -0.1610(5) 0.72846(16) 0.12002(16)
H3 H -0.2978 0.7258 0.0856
C3 C -0.2078(5) 0.67811(18) 0.19169(16)
H4 H -0.3748 0.6599 0.1932
C4 C -0.0372(5) 0.60657(17) 0.18201(17)
C5 C 0.0670(6) 0.56916(19) 0.25249(19)
H5 H -0.0627 0.5507 0.2844
H6 H 0.1566 0.6094 0.2799
C6 C 0.2311(7) 0.49910(19) 0.23433(17)
H7 H 0.3835 0.5184 0.2153
H8 H 0.2609 0.4674 0.2790
C7 C 0.1087(5) 0.45045(16) 0.17724(17)
C8 C -0.0756(5) 0.47393(16) 0.13665(17)
C9 C -0.1726(6) 0.40801(17) 0.08741(17)
H9 H -0.3352 0.3924 0.1022
C10 C 0.0126(7) 0.34121(18) 0.1056(2)
H10 H -0.0694 0.2927 0.1231
C11 C 0.0610(6) 0.3843(2) -0.01865(18)
C12 C 0.0044(8) 0.3400(3) -0.0914(2)
H11 H 0.1479 0.3156 -0.1104
H12 H -0.0570 0.3773 -0.1277
H13 H -0.1135 0.2993 -0.0819
C13 C 0.2539(8) 0.4470(3) -0.0269(2)
H14 H 0.3982 0.4223 -0.0451
H15 H 0.2845 0.4713 0.0210
H16 H 0.2021 0.4872 -0.0618
C14 C 0.1546(5) 0.82347(17) 0.12247(18)
C15 C 0.1814(8) 0.89849(19) 0.0755(3)
H17 H 0.3483 0.9082 0.0660
H18 H 0.1142 0.9433 0.1020
H19 H 0.0986 0.8915 0.0288
C16 C 0.2956(6) 0.8242(2) 0.1953(2)
H20 H 0.4621 0.8333 0.1847
H21 H 0.2772 0.7735 0.2202
H22 H 0.2364 0.8662 0.2271
loop_
_geom_bond_atom_site_label_1
_geom_bond_atom_site_label_2
_geom_bond_site_symmetry_1
_geom_bond_site_symmetry_2
O1 C1 1_555 1_555
O2 C2 1_555 1_555
O3 H1 1_555 1_555
O4 C1 1_555 1_555
O5 C4 1_555 1_555
O6 C7 1_555 1_555
O7 C9 1_555 1_555
O8 C10 1_555 1_555
C1 H2 1_555 1_555
C2 C1 1_555 1_555
H3 C2 1_555 1_555
C3 O3 1_555 1_555
H4 C3 1_555 1_555
C4 O4 1_555 1_555
C5 C4 1_555 1_555
H5 C5 1_555 1_555
H6 C5 1_555 1_555
C6 C5 1_555 1_555
H7 C6 1_555 1_555
H8 C6 1_555 1_555
C7 C6 1_555 1_555
C8 O5 1_555 1_555
C9 C8 1_555 1_555
H9 C9 1_555 1_555
C10 O6 1_555 1_555
H10 C10 1_555 1_555
C11 O7 1_555 1_555
C12 C11 1_555 1_555
H11 C12 1_555 1_555
H12 C12 1_555 1_555
H13 C12 1_555 1_555
C13 C11 1_555 1_555
H14 C13 1_555 1_555
H15 C13 1_555 1_555
H16 C13 1_555 1_555
C14 O1 1_555 1_555
C15 C14 1_555 1_555
H17 C15 1_555 1_555
H18 C15 1_555 1_555
H19 C15 1_555 1_555
C16 C14 1_555 1_555
H20 C16 1_555 1_555
H21 C16 1_555 1_555
H22 C16 1_555 1_555
O2 C14 1_555 1_555
O8 C11 1_555 1_555
C2 C3 1_555 1_555
C3 C4 1_555 1_555
C7 C8 1_555 1_555
C9 C10 1_555 1_555

#END
