
#######################################################################
#
#                 Cambridge Crystallographic Data Centre
#                                CCDC 
#
#######################################################################
#
# If this CIF has been generated from an entry in the Cambridge 
# Structural Database, then it will include bibliographic, chemical, 
# crystal, experimental, refinement or atomic coordinate data resulting 
# from the CCDC's data processing and validation procedures.
#
#######################################################################

data_IXUYOQ
_chemical_formula_moiety         'C14 H19 N1 O3'
_chemical_name_systematic        'Benzyl ((1S,3S)-3-hydroxycyclohexyl)carbamate'
_symmetry_cell_setting           monoclinic
_symmetry_space_group_name_H-M   'P 21'
_symmetry_Int_Tables_number      4
_space_group_name_Hall           'P 2yb'
loop_
_symmetry_equiv_pos_site_id
_symmetry_equiv_pos_as_xyz
1 x,y,z
2 -x,1/2+y,-z
_cell_length_a                   5.785(4)
_cell_length_b                   9.432(7)
_cell_length_c                   23.319(17)
_cell_angle_alpha                90
_cell_angle_beta                 94.81(4)
_cell_angle_gamma                90
_cell_volume                     1267.9
_exptl_crystal_colour            colorless
_exptl_crystal_description       platelet
_cell_formula_units_Z            4
_exptl_crystal_recrystallization_method 'dichloromethane/ethyl acetate'
loop_
_atom_site_label
_atom_site_type_symbol
_atom_site_fract_x
_atom_site_fract_y
_atom_site_fract_z
C1 C 0.9260(4) 0.0058(2) 1.08240(9)
H1 H 0.9108 -0.0930 1.0682
H2 H 0.8037 0.0222 1.1089
C2 C 1.1629(4) 0.0248(2) 1.11511(9)
H3 H 1.1682 -0.0340 1.1509
C3 C 1.2115(4) 0.1782(2) 1.13223(9)
H4 H 1.3752 0.1872 1.1479
H5 H 1.1120 0.2051 1.1630
C4 C 1.1661(4) 0.2803(2) 1.08140(10)
H6 H 1.1843 0.3792 1.0953
H7 H 1.2816 0.2634 1.0531
C5 C 0.9228(4) 0.2600(2) 1.05225(9)
H8 H 0.8986 0.3253 1.0190
H9 H 0.8067 0.2829 1.0797
C6 C 0.8898(4) 0.1072(2) 1.03168(9)
H10 H 1.0092 0.0860 1.0043
N1 N 0.6609(3) 0.08248(19) 1.00216(7)
H11 H 0.5549 0.0384 1.0204
C7 C 0.6088(3) 0.1251(2) 0.94819(9)
O1 O 0.7436(2) 0.18796(16) 0.91876(6)
O2 O 0.3884(2) 0.09260(17) 0.92904(6)
C8 C 0.3106(4) 0.1437(2) 0.87165(9)
H12 H 0.3817 0.2374 0.8656
H13 H 0.1402 0.1565 0.8690
C9 C 0.3726(4) 0.0437(2) 0.82475(9)
C10 C 0.5731(4) 0.0602(2) 0.79656(9)
H14 H 0.6783 0.1347 0.8075
C11 C 0.6204(4) -0.0308(3) 0.75275(10)
H15 H 0.7577 -0.0182 0.7336
C12 C 0.4704(4) -0.1399(3) 0.73642(10)
H16 H 0.5051 -0.2026 0.7064
C13 C 0.2689(4) -0.1581(3) 0.76389(10)
H17 H 0.1649 -0.2331 0.7528
C14 C 0.2201(4) -0.0659(2) 0.80775(10)
H18 H 0.0814 -0.0776 0.8264
O3 O 1.3424(2) -0.02301(16) 1.08097(6)
H19 H 1.3363 -0.1117 1.0779
C15 C 0.8181(3) 0.2968(2) 0.42495(9)
H20 H 0.6718 0.2879 0.4000
H21 H 0.8249 0.3941 0.4409
C16 C 1.0218(3) 0.2754(2) 0.38854(9)
H22 H 0.9965 0.3350 0.3531
C17 C 1.0461(4) 0.1216(2) 0.37064(9)
H23 H 1.1923 0.1104 0.3518
H24 H 0.9161 0.0970 0.3420
C18 C 1.0473(4) 0.0186(2) 0.42127(9)
H25 H 1.0539 -0.0801 0.4071
H26 H 1.1863 0.0356 0.4481
C19 C 0.8290(4) 0.0392(2) 0.45265(10)
H27 H 0.8311 -0.0273 0.4855
H28 H 0.6906 0.0178 0.4262
C20 C 0.8140(3) 0.1911(2) 0.47447(8)
H29 H 0.9507 0.2098 0.5026
N2 N 0.6017(3) 0.21588(18) 0.50310(7)
H30 H 0.4866 0.2620 0.4844
C21 C 0.5764(3) 0.1711(2) 0.55634(9)
O4 O 0.7245(2) 0.11067(16) 0.58832(6)
O5 O 0.3609(2) 0.20197(16) 0.57156(6)
C22 C 0.2982(4) 0.1473(2) 0.62591(9)
H31 H 0.4034 0.0680 0.6380
H32 H 0.1383 0.1093 0.6208
C23 C 0.3110(3) 0.2582(2) 0.67281(9)
C24 C 0.5000(4) 0.3486(2) 0.68247(9)
H33 H 0.6222 0.3453 0.6577
C25 C 0.5114(4) 0.4437(2) 0.72806(9)
H34 H 0.6402 0.5060 0.7341
C26 C 0.3360(4) 0.4479(3) 0.76470(10)
H35 H 0.3456 0.5113 0.7965
C27 C 0.1459(4) 0.3591(3) 0.75489(10)
H36 H 0.0244 0.3620 0.7799
C28 C 0.1327(4) 0.2661(2) 0.70870(9)
H37 H 0.0001 0.2073 0.7016
O6 O 1.2363(2) 0.31690(16) 0.41930(6)
H38 H 1.2491 0.4056 0.4184
loop_
_geom_bond_atom_site_label_1
_geom_bond_atom_site_label_2
_geom_bond_site_symmetry_1
_geom_bond_site_symmetry_2
C1 H1 1_555 1_555
H2 C1 1_555 1_555
C2 C1 1_555 1_555
H3 C2 1_555 1_555
C3 C2 1_555 1_555
H4 C3 1_555 1_555
H5 C3 1_555 1_555
C4 C3 1_555 1_555
H6 C4 1_555 1_555
H7 C4 1_555 1_555
C5 C4 1_555 1_555
H8 C5 1_555 1_555
H9 C5 1_555 1_555
C6 C1 1_555 1_555
H10 C6 1_555 1_555
N1 C6 1_555 1_555
H11 N1 1_555 1_555
C7 N1 1_555 1_555
O1 C7 1_555 1_555
O2 C7 1_555 1_555
C8 O2 1_555 1_555
H12 C8 1_555 1_555
H13 C8 1_555 1_555
C9 C8 1_555 1_555
C10 C9 1_555 1_555
H14 C10 1_555 1_555
C11 C10 1_555 1_555
H15 C11 1_555 1_555
C12 C11 1_555 1_555
H16 C12 1_555 1_555
C13 C12 1_555 1_555
H17 C13 1_555 1_555
C14 C9 1_555 1_555
H18 C14 1_555 1_555
O3 C2 1_555 1_555
H19 O3 1_555 1_555
C15 H20 1_555 1_555
H21 C15 1_555 1_555
C16 C15 1_555 1_555
H22 C16 1_555 1_555
C17 C16 1_555 1_555
H23 C17 1_555 1_555
H24 C17 1_555 1_555
C18 C17 1_555 1_555
H25 C18 1_555 1_555
H26 C18 1_555 1_555
C19 C18 1_555 1_555
H27 C19 1_555 1_555
H28 C19 1_555 1_555
C20 C15 1_555 1_555
H29 C20 1_555 1_555
N2 C20 1_555 1_555
H30 N2 1_555 1_555
C21 N2 1_555 1_555
O4 C21 1_555 1_555
O5 C21 1_555 1_555
C22 O5 1_555 1_555
H31 C22 1_555 1_555
H32 C22 1_555 1_555
C23 C22 1_555 1_555
C24 C23 1_555 1_555
H33 C24 1_555 1_555
C25 C24 1_555 1_555
H34 C25 1_555 1_555
C26 C25 1_555 1_555
H35 C26 1_555 1_555
C27 C26 1_555 1_555
H36 C27 1_555 1_555
C28 C23 1_555 1_555
H37 C28 1_555 1_555
O6 C16 1_555 1_555
H38 O6 1_555 1_555
C5 C6 1_555 1_555
C13 C14 1_555 1_555
C19 C20 1_555 1_555
C27 C28 1_555 1_555

#END
