
#######################################################################
#
#                 Cambridge Crystallographic Data Centre
#                                CCDC 
#
#######################################################################
#
# If this CIF has been generated from an entry in the Cambridge 
# Structural Database, then it will include bibliographic, chemical, 
# crystal, experimental, refinement or atomic coordinate data resulting 
# from the CCDC's data processing and validation procedures.
#
#######################################################################

data_IXUYUW
_chemical_formula_moiety         'C14 H19 N1 O3'
_chemical_name_systematic        'Benzyl ((1R,3S)-3-hydroxycyclohexyl)carbamate'
_symmetry_cell_setting           monoclinic
_symmetry_space_group_name_H-M   'P 21'
_symmetry_Int_Tables_number      4
_space_group_name_Hall           'P 2yb'
loop_
_symmetry_equiv_pos_site_id
_symmetry_equiv_pos_as_xyz
1 x,y,z
2 -x,1/2+y,-z
_cell_length_a                   11.374(5)
_cell_length_b                   4.862(2)
_cell_length_c                   12.272(6)
_cell_angle_alpha                90
_cell_angle_beta                 101.72(2)
_cell_angle_gamma                90
_cell_volume                     664.498
_exptl_crystal_colour            colorless
_exptl_crystal_description       platelet
_cell_formula_units_Z            2
_exptl_crystal_recrystallization_method 'methanol/ethyl acetate'
loop_
_atom_site_label
_atom_site_type_symbol
_atom_site_fract_x
_atom_site_fract_y
_atom_site_fract_z
C1 C 0.08600(12) 0.3409(3) 0.22891(11)
H1 H 0.1557 0.4513 0.2176
H2 H 0.0995 0.1478 0.2090
C2 C -0.02807(13) 0.4495(3) 0.15421(11)
H3 H -0.0379 0.6448 0.1763
C3 C -0.13811(13) 0.2936(4) 0.17177(12)
H4 H -0.1339 0.1015 0.1461
H5 H -0.2109 0.3793 0.1267
C4 C -0.14757(13) 0.2937(4) 0.29439(12)
H6 H -0.1643 0.4829 0.3168
H7 H -0.2156 0.1754 0.3040
C5 C -0.03224(12) 0.1893(3) 0.36982(11)
H8 H -0.0394 0.2046 0.4486
H9 H -0.0201 -0.0069 0.3536
C6 C 0.07512(12) 0.3567(3) 0.35104(10)
H10 H 0.0599 0.5533 0.3678
N1 N 0.18460(10) 0.2710(3) 0.42726(10)
H11 H 0.1978 0.0948 0.4408
C7 C 0.26535(12) 0.4549(3) 0.47705(11)
O1 O 0.25794(9) 0.7041(2) 0.46498(9)
O2 O 0.35732(8) 0.3298(2) 0.54558(8)
C8 C 0.45275(14) 0.5020(4) 0.60496(13)
H12 H 0.4204 0.6847 0.6191
H13 H 0.5147 0.5285 0.5598
C9 C 0.50727(13) 0.3666(3) 0.71320(12)
C10 C 0.62357(15) 0.4308(5) 0.76537(14)
H14 H 0.6685 0.5566 0.7308
C11 C 0.67580(14) 0.3162(5) 0.86648(13)
H15 H 0.7551 0.3669 0.9016
C12 C 0.61336(17) 0.1291(4) 0.91639(14)
H16 H 0.6494 0.0477 0.9855
C13 C 0.4982(2) 0.0611(6) 0.86521(17)
H17 H 0.4546 -0.0694 0.8988
C14 C 0.44507(17) 0.1814(5) 0.76476(16)
H18 H 0.3647 0.1353 0.7311
O3 O -0.01991(11) 0.4510(3) 0.03954(8)
H19 H -0.0085 0.2899 0.0192
loop_
_geom_bond_atom_site_label_1
_geom_bond_atom_site_label_2
_geom_bond_site_symmetry_1
_geom_bond_site_symmetry_2
C1 H1 1_555 1_555
H2 C1 1_555 1_555
C2 C1 1_555 1_555
H3 C2 1_555 1_555
C3 C2 1_555 1_555
H4 C3 1_555 1_555
H5 C3 1_555 1_555
C4 C3 1_555 1_555
H6 C4 1_555 1_555
H7 C4 1_555 1_555
C5 C4 1_555 1_555
H8 C5 1_555 1_555
H9 C5 1_555 1_555
C6 C1 1_555 1_555
H10 C6 1_555 1_555
N1 C6 1_555 1_555
H11 N1 1_555 1_555
C7 N1 1_555 1_555
O1 C7 1_555 1_555
O2 C7 1_555 1_555
C8 O2 1_555 1_555
H12 C8 1_555 1_555
H13 C8 1_555 1_555
C9 C8 1_555 1_555
C10 C9 1_555 1_555
H14 C10 1_555 1_555
C11 C10 1_555 1_555
H15 C11 1_555 1_555
C12 C11 1_555 1_555
H16 C12 1_555 1_555
C13 C12 1_555 1_555
H17 C13 1_555 1_555
C14 C9 1_555 1_555
H18 C14 1_555 1_555
O3 C2 1_555 1_555
H19 O3 1_555 1_555
C5 C6 1_555 1_555
C13 C14 1_555 1_555

#END
