
#######################################################################
#
#                 Cambridge Crystallographic Data Centre
#                                CCDC 
#
#######################################################################
#
# If this CIF has been generated from an entry in the Cambridge 
# Structural Database, then it will include bibliographic, chemical, 
# crystal, experimental, refinement or atomic coordinate data resulting 
# from the CCDC's data processing and validation procedures.
#
#######################################################################

data_IXUZEH
_chemical_formula_moiety         'C9 H18 O6,C1 H4 O1'
_chemical_name_systematic        
'3,3,6,6,9,9-Hexamethyl-1,2,4,5,7,8-hexoxonane methanol solvate'
_symmetry_cell_setting           rhombohedral
_symmetry_space_group_name_H-M   'R -3 c'
_symmetry_Int_Tables_number      167
_space_group_name_Hall           '-R 3 2"c'
loop_
_symmetry_equiv_pos_site_id
_symmetry_equiv_pos_as_xyz
1 x,y,z
2 -y,x-y,z
3 -x+y,-x,z
4 y,x,1/2-z
5 x-y,-y,1/2-z
6 -x,-x+y,1/2-z
7 2/3+x,1/3+y,1/3+z
8 2/3-y,1/3+x-y,1/3+z
9 2/3-x+y,1/3-x,1/3+z
10 2/3+y,1/3+x,5/6-z
11 2/3+x-y,1/3-y,5/6-z
12 2/3-x,1/3-x+y,5/6-z
13 1/3+x,2/3+y,2/3+z
14 1/3-y,2/3+x-y,2/3+z
15 1/3-x+y,2/3-x,2/3+z
16 1/3+y,2/3+x,1/6-z
17 1/3+x-y,2/3-y,1/6-z
18 1/3-x,2/3-x+y,1/6-z
19 -x,-y,-z
20 y,-x+y,-z
21 x-y,x,-z
22 -y,-x,1/2+z
23 -x+y,y,1/2+z
24 x,x-y,1/2+z
25 1/3-x,2/3-y,2/3-z
26 1/3+y,2/3-x+y,2/3-z
27 1/3+x-y,2/3+x,2/3-z
28 1/3-y,2/3-x,1/6+z
29 1/3-x+y,2/3+y,1/6+z
30 1/3+x,2/3+x-y,1/6+z
31 2/3-x,1/3-y,1/3-z
32 2/3+y,1/3-x+y,1/3-z
33 2/3+x-y,1/3+x,1/3-z
34 2/3-y,1/3-x,5/6+z
35 2/3-x+y,1/3+y,5/6+z
36 2/3+x,1/3+x-y,5/6+z
_cell_length_a                   11.8111(7)
_cell_length_b                   11.8111(7)
_cell_length_c                   16.8071(13)
_cell_angle_alpha                90
_cell_angle_beta                 90
_cell_angle_gamma                120
_cell_volume                     2030.51
_exptl_crystal_colour            colorless
_exptl_crystal_description       block
_cell_formula_units_Z            6
loop_
_atom_site_label
_atom_site_type_symbol
_atom_site_fract_x
_atom_site_fract_y
_atom_site_fract_z
O1 O 0.15061(9) 0.04859(9) 0.21787(6)
C1 C 0.16724(16) 0.16724(16) 0.2500
C2 C 0.25910(18) 0.21462(19) 0.32081(14)
H1 H 0.2674 0.2948 0.3403
H2 H 0.3434 0.2293 0.3048
H3 H 0.2247 0.1498 0.3621
O1D O 0.10202(13) -0.04859(9) 0.28213(6)
O1B O -0.10202(13) -0.15061(9) 0.21787(6)
O1E O -0.15061(9) -0.10202(13) 0.28213(6)
O1A O -0.04859(9) 0.10202(13) 0.21787(6)
O1C O 0.04859(9) 0.15061(9) 0.28213(6)
C1B C 0.00000(23) -0.16724(16) 0.2500
C1A C -0.16724(16) 0.00000(23) 0.2500
C2C C 0.21462(19) 0.25910(18) 0.17919(14)
C2E C -0.25910(18) -0.04448(26) 0.17919(14)
C2A C -0.21462(19) 0.04448(26) 0.32081(14)
C2D C 0.04448(26) -0.21462(19) 0.17919(14)
C2B C -0.04448(26) -0.25910(18) 0.32081(14)
H1C H 0.2948 0.2674 0.1597
H1E H -0.2674 0.0274 0.1597
H1A H -0.2948 -0.0274 0.3403
H1D H -0.0274 -0.2948 0.1597
H1B H 0.0274 -0.2674 0.3403
H2C H 0.2293 0.3434 0.1952
H2E H -0.3434 -0.1141 0.1952
H2A H -0.2293 0.1141 0.3048
H2D H 0.1141 -0.2293 0.1952
H2B H -0.1141 -0.3434 0.3048
H3C H 0.1498 0.2247 0.1379
H3E H -0.2247 -0.0749 0.1379
H3A H -0.1498 0.0749 0.3621
H3D H 0.0749 -0.1498 0.1379
H3B H -0.0749 -0.2247 0.3621
O2? O -0.024(4) 0.073(3) 0.0529(15)
O3? O 0.068(2) 0.0921(18) 0.0544(10)
C3? C 0.0000 0.0000 0.0000
loop_
_geom_bond_atom_site_label_1
_geom_bond_atom_site_label_2
_geom_bond_site_symmetry_1
_geom_bond_site_symmetry_2
O1 C1 1_555 1_555
C1 C2 1_555 1_555
C2 H1 1_555 1_555
H2 C2 1_555 1_555
H3 C2 1_555 1_555
O1D O1 1_555 1_555
O1B O1E 1_555 1_555
O1E C1A 1_555 1_555
O1A O1C 1_555 1_555
O1C C1 1_555 1_555
C1B O1D 1_555 1_555
C1A O1A 1_555 1_555
C2C C1 1_555 1_555
C2E C1A 1_555 1_555
C2A C1A 1_555 1_555
C2D C1B 1_555 1_555
C2B C1B 1_555 1_555
H1C C2C 1_555 1_555
H1E C2E 1_555 1_555
H1A C2A 1_555 1_555
H1D C2D 1_555 1_555
H1B C2B 1_555 1_555
H2C C2C 1_555 1_555
H2E C2E 1_555 1_555
H2A C2A 1_555 1_555
H2D C2D 1_555 1_555
H2B C2B 1_555 1_555
H3C C2C 1_555 1_555
H3E C2E 1_555 1_555
H3A C2A 1_555 1_555
H3D C2D 1_555 1_555
H3B C2B 1_555 1_555
O1B C1B 1_555 1_555

#END
