
#######################################################################
#
#                 Cambridge Crystallographic Data Centre
#                                CCDC 
#
#######################################################################
#
# If this CIF has been generated from an entry in the Cambridge 
# Structural Database, then it will include bibliographic, chemical, 
# crystal, experimental, refinement or atomic coordinate data resulting 
# from the CCDC's data processing and validation procedures.
#
#######################################################################

data_IXUZIL
_chemical_formula_moiety         'C14 H26 O8'
_chemical_name_systematic        
'6-(3,6,6,9,9-Pentamethyl-1,2,4,5,7,8-hexoxonan-3-yl)hexanoic acid'
_symmetry_cell_setting           triclinic
_symmetry_space_group_name_H-M   'P -1'
_symmetry_Int_Tables_number      2
_space_group_name_Hall           '-P 1'
loop_
_symmetry_equiv_pos_site_id
_symmetry_equiv_pos_as_xyz
1 x,y,z
2 -x,-y,-z
_cell_length_a                   5.951(5)
_cell_length_b                   11.882(7)
_cell_length_c                   12.470(9)
_cell_angle_alpha                97.56(3)
_cell_angle_beta                 93.92(2)
_cell_angle_gamma                98.934(16)
_cell_volume                     859.925
_exptl_crystal_colour            colorless
_exptl_crystal_description       plate
_cell_formula_units_Z            2
loop_
_atom_site_label
_atom_site_type_symbol
_atom_site_fract_x
_atom_site_fract_y
_atom_site_fract_z
O1 O 0.2172(3) 0.30966(16) 0.25284(14)
O2 O 0.3111(3) 0.20208(17) 0.23779(13)
O3 O -0.0186(3) 0.10980(15) 0.30718(15)
O4 O 0.1224(3) 0.10721(14) 0.40728(14)
O5 O 0.1015(3) 0.30386(15) 0.46086(13)
O6 O 0.3416(3) 0.33089(14) 0.43938(13)
O7 O 0.8641(4) 0.38360(17) 1.06822(16)
H1 H 0.9775 0.4328 1.0690
O8 O 0.7523(4) 0.45826(18) 0.92317(16)
C1 C 0.3502(5) 0.3831(2) 0.3429(2)
C2 C 0.1231(6) 0.1086(3) 0.2209(2)
C3 C 0.0649(5) 0.1906(2) 0.4889(2)
C4 C 0.2425(5) 0.4903(2) 0.3501(2)
H2 H 0.0836 0.4710 0.3605
H3 H 0.2577 0.5231 0.2840
H4 H 0.3177 0.5451 0.4102
C5 C 0.6025(5) 0.4059(2) 0.3270(2)
H5 H 0.6619 0.3350 0.3225
H6 H 0.6821 0.4589 0.3874
H7 H 0.6235 0.4384 0.2612
C6 C -0.0421(5) 0.1135(2) 0.1244(2)
H8 H -0.1115 0.1811 0.1375
H9 H -0.1583 0.0463 0.1139
H10 H 0.0389 0.1161 0.0605
C7 C 0.2440(5) 0.0044(2) 0.2081(2)
H11 H 0.3456 0.0066 0.2718
H12 H 0.3297 0.0057 0.1456
H13 H 0.1328 -0.0647 0.1987
C8 C -0.1889(4) 0.1695(2) 0.5058(2)
H14 H -0.2759 0.1830 0.4424
H15 H -0.2168 0.2209 0.5677
H16 H -0.2336 0.0914 0.5179
C9 C 0.2178(4) 0.1757(2) 0.58686(19)
H17 H 0.1836 0.0964 0.5999
H18 H 0.3753 0.1897 0.5697
C10 C 0.1953(5) 0.2538(2) 0.6905(2)
H19 H 0.0413 0.2357 0.7115
H20 H 0.2187 0.3330 0.6766
C11 C 0.3652(5) 0.2423(2) 0.7845(2)
H21 H 0.3574 0.1614 0.7914
H22 H 0.5185 0.2712 0.7679
C12 C 0.3206(5) 0.3072(2) 0.8925(2)
H23 H 0.3149 0.3865 0.8833
H24 H 0.1718 0.2739 0.9115
C13 C 0.4967(5) 0.3062(3) 0.9865(2)
H25 H 0.4295 0.3238 1.0541
H26 H 0.5336 0.2292 0.9835
C14 C 0.7162(6) 0.3907(3) 0.9873(2)
loop_
_geom_bond_atom_site_label_1
_geom_bond_atom_site_label_2
_geom_bond_site_symmetry_1
_geom_bond_site_symmetry_2
O1 O2 1_555 1_555
O2 C2 1_555 1_555
O3 O4 1_555 1_555
O4 C3 1_555 1_555
O5 O6 1_555 1_555
O6 C1 1_555 1_555
O7 H1 1_555 1_555
O8 C14 1_555 1_555
C1 O1 1_555 1_555
C2 O3 1_555 1_555
C3 O5 1_555 1_555
C4 C1 1_555 1_555
H2 C4 1_555 1_555
H3 C4 1_555 1_555
H4 C4 1_555 1_555
C5 C1 1_555 1_555
H5 C5 1_555 1_555
H6 C5 1_555 1_555
H7 C5 1_555 1_555
C6 C2 1_555 1_555
H8 C6 1_555 1_555
H9 C6 1_555 1_555
H10 C6 1_555 1_555
C7 C2 1_555 1_555
H11 C7 1_555 1_555
H12 C7 1_555 1_555
H13 C7 1_555 1_555
C8 C3 1_555 1_555
H14 C8 1_555 1_555
H15 C8 1_555 1_555
H16 C8 1_555 1_555
C9 C3 1_555 1_555
H17 C9 1_555 1_555
H18 C9 1_555 1_555
C10 C9 1_555 1_555
H19 C10 1_555 1_555
H20 C10 1_555 1_555
C11 C10 1_555 1_555
H21 C11 1_555 1_555
H22 C11 1_555 1_555
C12 C11 1_555 1_555
H23 C12 1_555 1_555
H24 C12 1_555 1_555
C13 C12 1_555 1_555
H25 C13 1_555 1_555
H26 C13 1_555 1_555
C14 O7 1_555 1_555
C13 C14 1_555 1_555

#END
