
#######################################################################
#
#                 Cambridge Crystallographic Data Centre
#                                CCDC 
#
#######################################################################
#
# If this CIF has been generated from an entry in the Cambridge 
# Structural Database, then it will include bibliographic, chemical, 
# crystal, experimental, refinement or atomic coordinate data resulting 
# from the CCDC's data processing and validation procedures.
#
#######################################################################

data_IYADIW
_chemical_formula_moiety         'C41 H32 Cl4 N8 O4,2(C5 H12 O1)'
_chemical_name_systematic        
"4,4'-(Methylenebis(3-(3,5-dichlorophenyl)-1-methyl-2,4-dioxo-1,3,7-triazaspiro[4.4]nonane-7,9-diyl))dibenzonitrile t-butyl methyl ether solvate"
_symmetry_cell_setting           triclinic
_symmetry_space_group_name_H-M   'P -1'
_symmetry_Int_Tables_number      2
_space_group_name_Hall           '-P 1'
loop_
_symmetry_equiv_pos_site_id
_symmetry_equiv_pos_as_xyz
1 x,y,z
2 -x,-y,-z
_cell_length_a                   10.2210
_cell_length_b                   11.5090
_cell_length_c                   22.2260
_cell_angle_alpha                85.3700
_cell_angle_beta                 85.9700
_cell_angle_gamma                87.5600
_cell_volume                     2597.76
_cell_formula_units_Z            2
loop_
_atom_site_label
_atom_site_type_symbol
_atom_site_fract_x
_atom_site_fract_y
_atom_site_fract_z
Cl1 Cl 0.889570 0.127250 0.375350
Cl2 Cl 1.321860 0.012110 0.493290
Cl3 Cl 0.628240 1.141190 0.936130
Cl4 Cl 0.106300 1.136600 0.971620
O1 O 1.093230 0.439950 0.553730
O2 O 0.797300 0.168410 0.626870
O3 O 0.214810 0.878010 0.796610
O4 O 0.513800 0.698020 0.922410
N1 N 0.919230 0.445890 0.625120
N2 N 0.956520 0.285820 0.577510
N3 N 0.676320 0.414490 0.734630
N4 N 0.484530 0.289180 0.355780
N5 N 0.310260 0.692490 0.802770
N6 N 0.367040 0.815830 0.867700
N7 N 0.506110 0.449760 0.809320
N8 N 0.006570 0.584980 1.150160
C1 C 0.999500 0.397390 0.582260
C2 C 0.850490 0.259480 0.618450
C3 C 0.813580 0.371040 0.648950
C4 C 0.799840 0.350370 0.718260
C5 C 0.589290 0.389810 0.689220
C6 C 0.674420 0.421830 0.631150
C7 C 1.006790 0.213990 0.530500
C8 C 1.128080 0.159180 0.534690
C9 C 1.172740 0.089960 0.488580
C10 C 1.103310 0.078190 0.439350
C11 C 0.982130 0.136650 0.436230
C12 C 0.933940 0.206890 0.482860
C13 C 0.630220 0.387650 0.572600
C14 C 0.539260 0.301320 0.568610
C15 C 0.503220 0.273490 0.513160
C16 C 0.557990 0.333100 0.459950
C17 C 0.646830 0.419250 0.463340
C18 C 0.682310 0.447840 0.519090
C19 C 0.515950 0.305610 0.402360
C20 C 0.938760 0.564460 0.642810
C21 C 0.624780 0.380400 0.797160
C22 C 0.290610 0.803430 0.819110
C23 C 0.437660 0.714850 0.882680
C24 C 0.402080 0.624790 0.839860
C25 C 0.523390 0.575960 0.805280
C26 C 0.448490 0.420420 0.870580
C27 C 0.337320 0.514240 0.874290
C28 C 0.369840 0.920850 0.896280
C29 C 0.485600 0.968580 0.901440
C30 C 0.483160 1.075280 0.929830
C31 C 0.365110 1.124630 0.952330
C32 C 0.256210 1.072580 0.945380
C33 C 0.251280 0.970460 0.919200
C34 C 0.270740 0.532270 0.936380
C35 C 0.158750 0.604820 0.939990
C36 C 0.089820 0.621080 0.995230
C37 C 0.135110 0.564480 1.046800
C38 C 0.245300 0.490740 1.044550
C39 C 0.313380 0.474860 0.988880
C40 C 0.062910 0.577410 1.104450
C41 C 0.248470 0.647790 0.752600
H1 H 0.880900 0.384500 0.738600
H2 H 0.794400 0.258500 0.732200
H3 H 0.565400 0.297600 0.692900
H4 H 0.498300 0.441000 0.692400
H5 H 0.673700 0.514600 0.620900
H6 H 1.186900 0.169800 0.573300
H7 H 1.141900 0.026100 0.402200
H8 H 0.837800 0.251500 0.480700
H9 H 0.495800 0.260600 0.610200
H10 H 0.433600 0.206400 0.511100
H11 H 0.689100 0.464000 0.421400
H12 H 0.752400 0.514500 0.521900
H13 H 0.863800 0.588300 0.677200
H14 H 1.033100 0.570200 0.659500
H15 H 0.930600 0.627500 0.603800
H16 H 0.605700 0.288800 0.801800
H17 H 0.696500 0.396900 0.828600
H18 H 0.611000 0.596000 0.826300
H19 H 0.531300 0.610700 0.759000
H20 H 0.411700 0.333600 0.876300
H21 H 0.515600 0.429500 0.904900
H22 H 0.253500 0.487700 0.852100
H23 H 0.579000 0.929000 0.883000
H24 H 0.358000 1.201300 0.976500
H25 H 0.161100 0.927200 0.914500
H26 H 0.123900 0.646800 0.898200
H27 H 0.001600 0.675500 0.997700
H28 H 0.278500 0.445500 1.085900
H29 H 0.402100 0.420200 0.986600
H30 H 0.277500 0.558800 0.748600
H31 H 0.143000 0.656700 0.760700
H32 H 0.277300 0.699000 0.711500
O5 O 0.692810 0.841370 0.810950
C42 C 0.838960 0.779680 0.742900
C43 C 0.867640 0.972990 0.776500
C44 C 0.857420 0.804000 0.865500
C45 C 0.816870 0.858760 0.792710
C46 C 0.613110 0.923830 0.749170
H33 H 0.946100 0.778200 0.729500
H34 H 0.827200 0.686600 0.765500
H35 H 0.782900 0.796300 0.710700
H36 H 0.968800 0.959400 0.771000
H37 H 0.817700 1.009400 0.744500
H38 H 0.846300 1.018600 0.820800
H39 H 0.965000 0.814500 0.872000
H40 H 0.811600 0.865900 0.902200
H41 H 0.832200 0.722300 0.880500
H42 H 0.515000 0.907600 0.754600
H43 H 0.643900 1.004000 0.744500
H44 H 0.656100 0.873200 0.708300
O6 O 0.322500 0.180220 0.672490
C47 C 0.209650 0.341360 0.703280
C48 C 0.300700 0.208530 0.781440
C49 C 0.102850 0.154370 0.721980
C50 C 0.232300 0.216790 0.722790
C51 C 0.385580 0.046790 0.666430
H45 H 0.143000 0.381900 0.736200
H46 H 0.300800 0.386600 0.699600
H47 H 0.168000 0.352600 0.659800
H48 H 0.234000 0.237400 0.817400
H49 H 0.338200 0.122400 0.792600
H50 H 0.383600 0.267300 0.776600
H51 H 0.037300 0.178200 0.758600
H52 H 0.059600 0.171600 0.679800
H53 H 0.124000 0.058600 0.727900
H54 H 0.449800 0.044100 0.626600
H55 H 0.442400 0.023100 0.705700
H56 H 0.309700 -0.012900 0.666400
loop_
_geom_bond_atom_site_label_1
_geom_bond_atom_site_label_2
_geom_bond_site_symmetry_1
_geom_bond_site_symmetry_2
Cl1 C11 1_555 1_555
Cl2 C9 1_555 1_555
Cl3 C30 1_555 1_555
Cl4 C32 1_555 1_555
O1 C1 1_555 1_555
O2 C2 1_555 1_555
O3 C22 1_555 1_555
O4 C23 1_555 1_555
N1 C1 1_555 1_555
N2 C1 1_555 1_555
N3 C4 1_555 1_555
N4 C19 1_555 1_555
N5 C22 1_555 1_555
N6 C22 1_555 1_555
N7 C21 1_555 1_555
N8 C40 1_555 1_555
C2 N2 1_555 1_555
C3 N1 1_555 1_555
C4 C3 1_555 1_555
C5 N3 1_555 1_555
C6 C3 1_555 1_555
C7 N2 1_555 1_555
C8 C7 1_555 1_555
C9 C8 1_555 1_555
C10 C9 1_555 1_555
C11 C10 1_555 1_555
C12 C7 1_555 1_555
C13 C6 1_555 1_555
C14 C13 1_555 1_555
C15 C14 1_555 1_555
C16 C15 1_555 1_555
C17 C16 1_555 1_555
C18 C13 1_555 1_555
C19 C16 1_555 1_555
C20 N1 1_555 1_555
C21 N3 1_555 1_555
C23 N6 1_555 1_555
C24 N5 1_555 1_555
C25 N7 1_555 1_555
C26 N7 1_555 1_555
C27 C24 1_555 1_555
C28 N6 1_555 1_555
C29 C28 1_555 1_555
C30 C29 1_555 1_555
C31 C30 1_555 1_555
C32 C31 1_555 1_555
C33 C28 1_555 1_555
C34 C27 1_555 1_555
C35 C34 1_555 1_555
C36 C35 1_555 1_555
C37 C36 1_555 1_555
C38 C37 1_555 1_555
C39 C34 1_555 1_555
C40 C37 1_555 1_555
C41 N5 1_555 1_555
H1 C4 1_555 1_555
H2 C4 1_555 1_555
H3 C5 1_555 1_555
H4 C5 1_555 1_555
H5 C6 1_555 1_555
H6 C8 1_555 1_555
H7 C10 1_555 1_555
H8 C12 1_555 1_555
H9 C14 1_555 1_555
H10 C15 1_555 1_555
H11 C17 1_555 1_555
H12 C18 1_555 1_555
H13 C20 1_555 1_555
H14 C20 1_555 1_555
H15 C20 1_555 1_555
H16 C21 1_555 1_555
H17 C21 1_555 1_555
H18 C25 1_555 1_555
H19 C25 1_555 1_555
H20 C26 1_555 1_555
H21 C26 1_555 1_555
H22 C27 1_555 1_555
H23 C29 1_555 1_555
H24 C31 1_555 1_555
H25 C33 1_555 1_555
H26 C35 1_555 1_555
H27 C36 1_555 1_555
H28 C38 1_555 1_555
H29 C39 1_555 1_555
H30 C41 1_555 1_555
H31 C41 1_555 1_555
H32 C41 1_555 1_555
O5 C45 1_555 1_555
C42 C45 1_555 1_555
C43 C45 1_555 1_555
C44 C45 1_555 1_555
C46 O5 1_555 1_555
H33 C42 1_555 1_555
H34 C42 1_555 1_555
H35 C42 1_555 1_555
H36 C43 1_555 1_555
H37 C43 1_555 1_555
H38 C43 1_555 1_555
H39 C44 1_555 1_555
H40 C44 1_555 1_555
H41 C44 1_555 1_555
H42 C46 1_555 1_555
H43 C46 1_555 1_555
H44 C46 1_555 1_555
O6 C50 1_555 1_555
C47 C50 1_555 1_555
C48 C50 1_555 1_555
C49 C50 1_555 1_555
C51 O6 1_555 1_555
H45 C47 1_555 1_555
H46 C47 1_555 1_555
H47 C47 1_555 1_555
H48 C48 1_555 1_555
H49 C48 1_555 1_555
H50 C48 1_555 1_555
H51 C49 1_555 1_555
H52 C49 1_555 1_555
H53 C49 1_555 1_555
H54 C51 1_555 1_555
H55 C51 1_555 1_555
H56 C51 1_555 1_555
C2 C3 1_555 1_555
C5 C6 1_555 1_555
C11 C12 1_555 1_555
C17 C18 1_555 1_555
C23 C24 1_555 1_555
C24 C25 1_555 1_555
C26 C27 1_555 1_555
C32 C33 1_555 1_555
C38 C39 1_555 1_555

#END
