
#######################################################################
#
#                 Cambridge Crystallographic Data Centre
#                                CCDC 
#
#######################################################################
#
# If this CIF has been generated from an entry in the Cambridge 
# Structural Database, then it will include bibliographic, chemical, 
# crystal, experimental, refinement or atomic coordinate data resulting 
# from the CCDC's data processing and validation procedures.
#
#######################################################################

data_IYAFEV
_chemical_name_common            
"(5-methyl-2-oxo-1,3-dioxol-4-yl)methyl 2-ethoxy-1-((2'-(5-oxo-4,5-dihydro-1,2,4-oxadiazol-3-yl)biphenyl-4-yl)methyl)-1H-benzimidazole-7-carboxylate toluene solvate"
_chemical_formula_moiety         'C30 H24 N4 O8,0.5(C7 H8)'
_chemical_name_systematic        'Azilsartan medoxomil toluene solvate'
_symmetry_cell_setting           triclinic
_symmetry_space_group_name_H-M   'P -1'
_symmetry_Int_Tables_number      2
_space_group_name_Hall           '-P 1'
loop_
_symmetry_equiv_pos_site_id
_symmetry_equiv_pos_as_xyz
1 x,y,z
2 -x,-y,-z
_cell_length_a                   11.8159(3)
_cell_length_b                   13.6418(2)
_cell_length_c                   19.8791(4)
_cell_angle_alpha                94.1150(10)
_cell_angle_beta                 94.863(2)
_cell_angle_gamma                103.192(2)
_cell_volume                     3094.79
_exptl_crystal_colour            colorless
_exptl_crystal_description       plate
_cell_formula_units_Z            4
loop_
_atom_site_label
_atom_site_type_symbol
_atom_site_fract_x
_atom_site_fract_y
_atom_site_fract_z
C31 C 1.0552(3) 0.8317(2) 0.31032(17)
C32 C 0.9206(2) 0.80060(18) 0.22337(14)
C33 C 0.8399(2) 0.81832(18) 0.16750(13)
C34 C 0.8552(3) 0.7870(2) 0.10150(15)
H25 H 0.9136 0.7531 0.0938
C35 C 0.7851(3) 0.8055(2) 0.04740(16)
H26 H 0.7951 0.7837 0.0034
C36 C 0.7008(4) 0.8562(3) 0.05900(16)
H27 H 0.6536 0.8694 0.0225
C37 C 0.6843(3) 0.8884(2) 0.12420(15)
H28 H 0.6261 0.9229 0.1307
C38 C 0.7529(2) 0.87041(19) 0.18033(13)
C39 C 0.7323(2) 0.90655(18) 0.24926(13)
C40 C 0.7171(2) 0.84446(19) 0.30221(14)
H29 H 0.7223 0.7776 0.2951
C41 C 0.7248(2) 1.00602(19) 0.26251(13)
H30 H 0.7349 1.0491 0.2282
C42 C 0.6944(2) 0.88101(19) 0.36492(13)
H31 H 0.6837 0.8379 0.3992
C43 C 0.7029(2) 1.04212(19) 0.32503(13)
H32 H 0.6984 1.1092 0.3323
C44 C 0.6872(2) 0.98006(17) 0.37790(12)
C45 C 0.6632(2) 1.01951(19) 0.44650(12)
H33 H 0.6084 0.9668 0.4652
H34 H 0.7353 1.0360 0.4766
C46 C 0.8376(3) 1.3111(3) 0.5342(2)
H35 H 0.8215 1.3159 0.5812
H36 H 0.8093 1.3631 0.5119
C47 C 0.6733(3) 1.2040(2) 0.46977(12)
C48 C 0.5105(2) 1.11916(17) 0.41066(11)
C49 C 0.5140(2) 1.22250(17) 0.42044(12)
C50 C 0.4248(2) 1.2605(2) 0.39093(15)
H37 H 0.4247 1.3285 0.3986
C51 C 0.3356(3) 1.1943(2) 0.34968(17)
H38 H 0.2757 1.2188 0.3287
C52 C 0.3335(2) 1.0930(2) 0.33898(15)
H39 H 0.2731 1.0511 0.3100
C53 C 0.4192(2) 1.05159(18) 0.37028(12)
C54 C 0.4078(2) 0.94116(19) 0.36256(12)
C55 C 0.3480(3) 0.79240(19) 0.28871(14)
H40 H 0.2852 0.7630 0.3149
H41 H 0.4168 0.7691 0.3036
C56 C 0.3138(3) 0.7620(2) 0.21631(14)
C57 C 0.3581(3) 0.7141(2) 0.16962(15)
C58 C 0.4618(4) 0.6713(3) 0.1674(2)
H42 H 0.5048 0.6821 0.2115
H43 H 0.5106 0.7038 0.1353
H44 H 0.4374 0.6000 0.1538
C59 C 0.1981(4) 0.7442(3) 0.12205(17)
C60 C 0.9212(6) 1.3598(5) 0.4862(3)
H45 H 0.9855 1.3277 0.4858
H46 H 0.9499 1.4304 0.5009
H47 H 0.8812 1.3523 0.4414
H48 H 0.999(3) 0.940(2) 0.2682(14)
N5 N 0.9915(2) 0.87535(17) 0.26673(12)
N6 N 0.9330(2) 0.71193(16) 0.23499(13)
N7 N 0.61535(19) 1.10917(15) 0.44429(9)
N8 N 0.6178(2) 1.27491(15) 0.45834(10)
O9 O 1.1284(2) 0.86906(16) 0.35665(13)
O10 O 1.02032(19) 0.73047(13) 0.29196(11)
O11 O 0.7784(2) 1.21308(16) 0.50157(12)
O12 O 0.42597(17) 0.89023(13) 0.40722(9)
O13 O 0.37243(17) 0.90151(12) 0.29834(8)
O14 O 0.2855(2) 0.70216(19) 0.10932(11)
O15 O 0.2109(2) 0.78256(18) 0.18773(10)
O16 O 0.1186(3) 0.7486(3) 0.08199(14)
C1 C 0.7490(3) 0.5535(2) 0.51861(15)
C2 C 0.6382(2) 0.55679(19) 0.42403(13)
C3 C 0.5549(2) 0.52155(19) 0.36319(13)
C4 C 0.4487(3) 0.5501(2) 0.36198(17)
H1 H 0.4358 0.5940 0.3970
C5 C 0.3635(3) 0.5135(3) 0.30915(19)
H2 H 0.2932 0.5334 0.3081
C6 C 0.3815(3) 0.4478(3) 0.25781(17)
H3 H 0.3226 0.4216 0.2228
C7 C 0.4874(3) 0.4203(2) 0.25820(14)
H4 H 0.4990 0.3763 0.2229
C8 C 0.5771(2) 0.45732(19) 0.31039(12)
C9 C 0.6914(2) 0.42914(17) 0.30785(11)
C10 C 0.7963(2) 0.50173(18) 0.32029(13)
H5 H 0.7951 0.5690 0.3310
C11 C 0.6970(2) 0.33033(18) 0.29093(12)
H6 H 0.6282 0.2803 0.2815
C12 C 0.9023(2) 0.47598(18) 0.31712(13)
C13 C 0.8030(2) 0.30471(17) 0.28788(12)
H7 H 0.8042 0.2378 0.2759
C14 C 0.9073(2) 0.37656(16) 0.30229(10)
C15 C 1.0256(2) 0.35009(17) 0.30551(12)
H8 H 1.0807 0.4033 0.2874
H9 H 1.0533 0.3483 0.3527
C16 C 1.0855(4) 0.1099(3) 0.46830(18)
H10 H 1.1624 0.1534 0.4711
H11 H 1.0890 0.0504 0.4907
H12 H 1.0346 0.1450 0.4899
C17 C 1.0403(3) 0.0805(2) 0.39649(14)
H13 H 1.0920 0.0462 0.3739
H14 H 0.9634 0.0351 0.3931
C18 C 1.0258(2) 0.16616(18) 0.29803(12)
C19 C 1.0089(2) 0.12304(17) 0.19201(12)
C20 C 1.0135(2) 0.22680(16) 0.19904(11)
C21 C 0.9942(3) 0.06975(19) 0.12920(14)
H15 H 0.9938 0.0013 0.1247
C22 C 0.9801(3) 0.1217(2) 0.07274(14)
H16 H 0.9679 0.0871 0.0297
C23 C 0.9838(3) 0.22338(19) 0.07928(13)
H17 H 0.9739 0.2557 0.0403
C24 C 1.0018(2) 0.27964(17) 0.14199(12)
C25 C 1.0127(2) 0.39059(18) 0.14520(12)
C26 C 0.9395(3) 0.51954(19) 0.09791(16)
H18 H 1.0074 0.5533 0.0772
H19 H 0.9444 0.5505 0.1439
C27 C 0.8327(3) 0.52958(19) 0.05904(13)
C28 C 0.7313(3) 0.5338(3) 0.07659(16)
C29 C 0.6806(5) 0.5329(5) 0.1420(2)
H20 H 0.7372 0.5240 0.1773
H21 H 0.6124 0.4783 0.1393
H22 H 0.6595 0.5959 0.1520
C30 C 0.7274(4) 0.5490(3) -0.03349(18)
H23 H 0.664(2) 0.427(2) 0.4635(14)
H24 H 0.978(3) 0.525(3) 0.3252(16)
N1 N 0.6777(2) 0.49481(18) 0.46646(10)
N2 N 0.6786(3) 0.65053(18) 0.44491(15)
N3 N 1.02485(17) 0.25401(13) 0.26862(9)
N4 N 1.01780(18) 0.08686(14) 0.25613(10)
O1 O 0.8020(2) 0.53093(18) 0.56698(11)
O2 O 0.7509(2) 0.65040(15) 0.50651(12)
O3 O 1.03379(17) 0.17219(13) 0.36509(9)
O4 O 1.08062(18) 0.45369(13) 0.18312(10)
O5 O 0.93645(17) 0.41312(12) 0.09870(9)
O6 O 0.6612(2) 0.54456(19) 0.01832(13)
O7 O 0.8339(2) 0.54046(16) -0.00977(10)
O8 O 0.6969(3) 0.5626(3) -0.08952(14)
C61? C 0.9698(7) 1.3273(7) 0.5306(5)
H49? H 0.9840 1.3021 0.4865
H50? H 1.0019 1.2918 0.5645
H51? H 1.0061 1.3982 0.5385
C62? C 0.3485(8) 0.1223(10) 0.1635(5)
H52? H 0.2842 0.0915 0.1846
C63? C 0.4489(9) 0.0853(7) 0.1678(4)
H53? H 0.4517 0.0297 0.1918
C64? C 0.5451(6) 0.1314(4) 0.1363(3)
H54? H 0.6123 0.1066 0.1391
C65? C 0.5410(6) 0.2146(4) 0.1004(3)
C66? C 0.4406(8) 0.2516(5) 0.0961(4)
H55? H 0.4378 0.3072 0.0722
C67? C 0.3444(7) 0.2055(9) 0.1277(5)
H56? H 0.2772 0.2303 0.1248
C68? C 0.4553(6) 0.1675(5) 0.1251(3)
C69? C 0.6333(5) 0.1698(7) 0.1113(4)
H57? H 0.6979 0.1439 0.1229
C70? C 0.5378(6) 0.1316(4) 0.1361(2)
H58? H 0.5327 0.0770 0.1621
C71? C 0.6464(7) 0.2420(8) 0.0713(6)
H59? H 0.7145 0.2626 0.0506
C72? C 0.4439(8) 0.2452(4) 0.0971(3)
H60? H 0.3796 0.2738 0.0976
C73? C 0.5552(10) 0.2847(5) 0.0618(5)
H61? H 0.5588 0.3376 0.0344
H62? H 0.6370 0.2588 0.0233
H63? H 0.6860 0.1820 0.0655
H64? H 0.7065 0.2951 0.0948
H65? H 0.3225 0.0605 0.1574
H66? H 0.2780 0.1510 0.1293
H67? H 0.3470 0.1645 0.2015
C74? C 0.3399(17) 0.133(3) 0.1562(15)
C75? C 0.6526(15) 0.240(2) 0.0681(12)
H68? H 0.5000 0.0000 0.0000
C76? C 0.6495(19) 0.134(2) 0.0239(14)
H69? H 0.7101 0.0993 0.0333
H70? H 0.6810 0.2058 0.0333
H71? H 0.6192 0.1194 -0.0230
C77? C 0.5378(6) 0.1316(4) 0.1361(2)
H72? H 0.5911 0.1884 0.1577
C78? C 0.4609(9) 0.0899(6) 0.1680(3)
H73? H 0.4648 0.0996 0.2150
C79? C 0.3637(9) 0.0246(7) 0.1272(6)
H74? H 0.2905 0.0137 0.1431
C80? C 0.3725(10) -0.0163(4) 0.0741(6)
H75? H 0.3121 -0.0688 0.0536
C81? C 0.5534(7) 0.1006(6) 0.0674(3)
C82? C 0.4825(10) 0.0171(5) 0.0394(4)
loop_
_geom_bond_atom_site_label_1
_geom_bond_atom_site_label_2
_geom_bond_site_symmetry_1
_geom_bond_site_symmetry_2
C1 N1 1_555 1_555
C2 C3 1_555 1_555
C3 C4 1_555 1_555
C4 H1 1_555 1_555
C5 C4 1_555 1_555
H2 C5 1_555 1_555
C6 C5 1_555 1_555
H3 C6 1_555 1_555
C7 C6 1_555 1_555
H4 C7 1_555 1_555
C8 C3 1_555 1_555
C9 C8 1_555 1_555
C10 C9 1_555 1_555
H5 C10 1_555 1_555
C11 C9 1_555 1_555
H6 C11 1_555 1_555
C12 C10 1_555 1_555
C13 C11 1_555 1_555
H7 C13 1_555 1_555
C14 C12 1_555 1_555
C15 C14 1_555 1_555
H8 C15 1_555 1_555
H9 C15 1_555 1_555
C16 H10 1_555 1_555
H11 C16 1_555 1_555
H12 C16 1_555 1_555
C17 C16 1_555 1_555
H13 C17 1_555 1_555
H14 C17 1_555 1_555
C18 N3 1_555 1_555
C19 C20 1_555 1_555
C20 C24 1_555 1_555
C21 C19 1_555 1_555
H15 C21 1_555 1_555
C22 C21 1_555 1_555
H16 C22 1_555 1_555
C23 C22 1_555 1_555
H17 C23 1_555 1_555
C24 C23 1_555 1_555
C25 C24 1_555 1_555
C26 H18 1_555 1_555
H19 C26 1_555 1_555
C27 C26 1_555 1_555
C28 C27 1_555 1_555
C29 C28 1_555 1_555
H20 C29 1_555 1_555
H21 C29 1_555 1_555
H22 C29 1_555 1_555
C30 O6 1_555 1_555
H23 N1 1_555 1_555
H24 C12 1_555 1_555
N1 C2 1_555 1_555
N2 C2 1_555 1_555
N3 C15 1_555 1_555
N4 C18 1_555 1_555
O1 C1 1_555 1_555
O2 C1 1_555 1_555
O3 C17 1_555 1_555
O4 C25 1_555 1_555
O5 C25 1_555 1_555
O6 C28 1_555 1_555
O7 C27 1_555 1_555
O8 C30 1_555 1_555
C31 N5 1_555 1_555
C32 C33 1_555 1_555
C33 C34 1_555 1_555
C34 H25 1_555 1_555
C35 C34 1_555 1_555
H26 C35 1_555 1_555
C36 C35 1_555 1_555
H27 C36 1_555 1_555
C37 C36 1_555 1_555
H28 C37 1_555 1_555
C38 C33 1_555 1_555
C39 C38 1_555 1_555
C40 C39 1_555 1_555
H29 C40 1_555 1_555
C41 C39 1_555 1_555
H30 C41 1_555 1_555
C42 C40 1_555 1_555
H31 C42 1_555 1_555
C43 C41 1_555 1_555
H32 C43 1_555 1_555
C44 C42 1_555 1_555
C45 C44 1_555 1_555
H33 C45 1_555 1_555
H34 C45 1_555 1_555
C46 H35 1_555 1_555
H36 C46 1_555 1_555
C47 N7 1_555 1_555
C48 C49 1_555 1_555
C49 C50 1_555 1_555
C50 H37 1_555 1_555
C51 C50 1_555 1_555
H38 C51 1_555 1_555
C52 C51 1_555 1_555
H39 C52 1_555 1_555
C53 C48 1_555 1_555
C54 C53 1_555 1_555
C55 H40 1_555 1_555
H41 C55 1_555 1_555
C56 C55 1_555 1_555
C57 C56 1_555 1_555
C58 C57 1_555 1_555
H42 C58 1_555 1_555
H43 C58 1_555 1_555
H44 C58 1_555 1_555
C59 O14 1_555 1_555
C60 C46 1_555 1_555
H45 C60 1_555 1_555
H46 C60 1_555 1_555
H47 C60 1_555 1_555
H48 N5 1_555 1_555
N5 C32 1_555 1_555
N6 C32 1_555 1_555
N7 C45 1_555 1_555
N8 C47 1_555 1_555
O9 C31 1_555 1_555
O10 C31 1_555 1_555
O11 C46 1_555 1_555
O12 C54 1_555 1_555
O13 C54 1_555 1_555
O14 C57 1_555 1_555
O15 C56 1_555 1_555
O16 C59 1_555 1_555
C7 C8 1_555 1_555
C13 C14 1_555 1_555
C18 O3 1_555 1_555
C19 N4 1_555 1_555
C20 N3 1_555 1_555
C26 O5 1_555 1_555
C30 O7 1_555 1_555
N2 O2 1_555 1_555
C37 C38 1_555 1_555
C43 C44 1_555 1_555
C47 O11 1_555 1_555
C48 N7 1_555 1_555
C49 N8 1_555 1_555
C52 C53 1_555 1_555
C55 O13 1_555 1_555
C59 O15 1_555 1_555
N6 O10 1_555 1_555

#END
