
#######################################################################
#
#                 Cambridge Crystallographic Data Centre
#                                CCDC 
#
#######################################################################
#
# If this CIF has been generated from an entry in the Cambridge 
# Structural Database, then it will include bibliographic, chemical, 
# crystal, experimental, refinement or atomic coordinate data resulting 
# from the CCDC's data processing and validation procedures.
#
#######################################################################

data_IYAFAR
_chemical_name_common            
"(5-methyl-2-oxo-1,3-dioxol-4-yl)methyl 2-ethoxy-1-((2'-(5-oxo-4,5-dihydro-1,2,4-oxadiazol-3-yl)biphenyl-4-yl)methyl)-1H-benzimidazole-7-carboxylate chloroform solvate"
_chemical_formula_moiety         'C30 H24 N4 O8,C1 H1 Cl3'
_chemical_name_systematic        'Azilsartan medoxomil chloroform solvate'
_symmetry_cell_setting           triclinic
_symmetry_space_group_name_H-M   'P -1'
_symmetry_Int_Tables_number      2
_space_group_name_Hall           '-P 1'
loop_
_symmetry_equiv_pos_site_id
_symmetry_equiv_pos_as_xyz
1 x,y,z
2 -x,-y,-z
_cell_length_a                   12.171(2)
_cell_length_b                   13.534(2)
_cell_length_c                   19.769(3)
_cell_angle_alpha                92.250(3)
_cell_angle_beta                 96.380(3)
_cell_angle_gamma                102.595(3)
_cell_volume                     3151.58
_exptl_crystal_colour            colorless
_exptl_crystal_description       block
_cell_formula_units_Z            4
loop_
_atom_site_label
_atom_site_type_symbol
_atom_site_fract_x
_atom_site_fract_y
_atom_site_fract_z
C1 C 0.2405(4) -0.0420(4) 0.4742(3)
C2 C 0.3510(4) -0.0518(3) 0.5699(2)
C3 C 0.4334(4) -0.0198(3) 0.6305(2)
C4 C 0.5385(4) -0.0452(3) 0.6312(2)
H1 H 0.5510 -0.0874 0.5960
C5 C 0.6234(4) -0.0085(4) 0.6831(3)
H2 H 0.6934 -0.0254 0.6827
C6 C 0.6059(4) 0.0527(4) 0.7355(2)
H3 H 0.6639 0.0778 0.7707
C7 C 0.5020(4) 0.0772(3) 0.7360(2)
H4 H 0.4909 0.1189 0.7720
C8 C 0.4133(3) 0.0415(3) 0.68454(19)
C9 C 0.3009(3) 0.0668(3) 0.68837(17)
C10 C 0.2922(3) 0.1655(3) 0.70239(18)
H5 H 0.3575 0.2172 0.7085
C11 C 0.1896(3) 0.1885(3) 0.70746(18)
H6 H 0.1866 0.2557 0.7165
C12 C 0.0899(3) 0.1148(2) 0.69963(16)
C13 C 0.0986(4) 0.0153(3) 0.68694(19)
H7 H 0.0335 -0.0365 0.6825
C14 C 0.2014(4) -0.0079(3) 0.6808(2)
H8 H 0.2044 -0.0751 0.6715
C15 C -0.0253(3) 0.1379(3) 0.70159(18)
H9 H -0.0600 0.1397 0.6552
H10 H -0.0727 0.0833 0.7225
C16 C -0.0787(5) 0.3875(4) 0.5357(2)
H11 H -0.0214 0.3665 0.5126
H12 H -0.0968 0.4465 0.5158
H13 H -0.1456 0.3336 0.5311
C17 C -0.0361(4) 0.4120(3) 0.6089(2)
H14 H 0.0398 0.4548 0.6139
H15 H -0.0850 0.4481 0.6304
C18 C -0.0225(3) 0.3225(3) 0.7084(2)
C19 C -0.0063(3) 0.2599(3) 0.80886(17)
C20 C 0.0026(3) 0.3650(3) 0.81472(19)
C21 C 0.0219(4) 0.4176(3) 0.8776(2)
H16 H 0.0263 0.4871 0.8812
C22 C 0.0346(4) 0.3647(3) 0.9346(2)
H17 H 0.0490 0.3990 0.9775
C23 C 0.0263(4) 0.2612(3) 0.92919(19)
H18 H 0.0351 0.2276 0.9689
C24 C 0.0053(3) 0.2052(3) 0.86702(18)
C25 C -0.0040(3) 0.0943(3) 0.86516(19)
C26 C 0.0747(4) -0.0356(3) 0.9136(2)
H19 H 0.0120 -0.0724 0.9354
H20 H 0.0677 -0.0642 0.8672
C27 C 0.1815(4) -0.0443(3) 0.9505(2)
C28 C 0.2781(4) -0.0556(3) 0.9303(2)
C29 C 0.3194(5) -0.0604(4) 0.8637(3)
H21 H 0.3275 -0.1281 0.8530
H22 H 0.3917 -0.0139 0.8651
H23 H 0.2663 -0.0424 0.8295
C30 C 0.2972(6) -0.0589(4) 1.0420(3)
H24 H 0.321(3) 0.078(3) 0.5320(18)
N1 N 0.3098(3) 0.0124(3) 0.52818(16)
N2 N 0.3149(4) -0.1452(3) 0.5478(2)
N3 N -0.0226(3) 0.2338(2) 0.73899(14)
N4 N -0.0095(3) 0.4030(2) 0.75025(15)
O1 O 0.1880(3) -0.0166(3) 0.42644(17)
O2 O 0.2419(3) -0.1406(3) 0.48547(18)
O3 O -0.0347(2) 0.31847(19) 0.64060(13)
O4 O -0.0691(3) 0.0311(2) 0.82786(14)
O5 O 0.0720(2) 0.07127(18) 0.91354(13)
O6 O 0.1916(3) -0.0450(2) 1.02143(15)
O7 O 0.3510(3) -0.0656(2) 0.98723(19)
O8 O 0.3339(5) -0.0628(4) 1.0998(2)
C31 C -0.0478(4) 0.6610(3) 0.6910(2)
C32 C 0.0812(3) 0.6892(3) 0.78118(19)
C33 C 0.1598(3) 0.6703(3) 0.83877(19)
C34 C 0.1411(4) 0.6968(3) 0.9044(2)
H25 H 0.0823 0.7287 0.9108
C35 C 0.2092(4) 0.6762(3) 0.9602(2)
H26 H 0.1971 0.6945 1.0041
C36 C 0.2947(4) 0.6286(4) 0.9501(2)
H27 H 0.3412 0.6149 0.9876
C37 C 0.3131(4) 0.6006(3) 0.8849(2)
H28 H 0.3712 0.5675 0.8793
C38 C 0.2468(3) 0.6206(3) 0.82820(19)
C39 C 0.2678(3) 0.5888(3) 0.75851(19)
C40 C 0.2762(4) 0.6542(3) 0.7054(2)
H29 H 0.2679 0.7203 0.7129
C41 C 0.2968(4) 0.6221(3) 0.6419(2)
H30 H 0.3042 0.6675 0.6077
C42 C 0.3066(3) 0.5234(3) 0.62820(18)
C43 C 0.2992(3) 0.4589(3) 0.6814(2)
H31 H 0.3066 0.3926 0.6738
C44 C 0.2809(3) 0.4917(3) 0.7451(2)
H32 H 0.2774 0.4472 0.7799
C45 C 0.3233(4) 0.4880(3) 0.55777(19)
H33 H 0.2509 0.4732 0.5292
H34 H 0.3736 0.5423 0.5383
C46 C 0.0754(9) 0.1421(8) 0.5196(5)
C47 C 0.1452(5) 0.1953(5) 0.4789(4)
H35 H 0.1011 0.2034 0.4364
H36 H 0.2004 0.1568 0.4685
C48 C 0.3113(4) 0.3022(3) 0.53420(19)
C49 C 0.4769(3) 0.3867(3) 0.58315(17)
C50 C 0.4742(3) 0.2826(3) 0.57279(18)
C51 C 0.5669(3) 0.2448(3) 0.5945(2)
H37 H 0.5656 0.1763 0.5867
C52 C 0.6616(4) 0.3100(3) 0.6280(2)
H38 H 0.7247 0.2851 0.6435
C53 C 0.6644(4) 0.4119(3) 0.6390(2)
H39 H 0.7296 0.4539 0.6622
C54 C 0.5739(3) 0.4541(3) 0.61674(18)
C55 C 0.5849(3) 0.5653(3) 0.62469(19)
C56 C 0.6621(4) 0.7121(3) 0.6959(2)
H40 H 0.5961 0.7371 0.6788
H41 H 0.7242 0.7412 0.6707
C57 C 0.6935(4) 0.7412(3) 0.7692(2)
C58 C 0.6442(4) 0.7819(3) 0.8154(2)
C59 C 0.5379(4) 0.8132(4) 0.8171(3)
H42 H 0.4963 0.8029 0.7723
H43 H 0.5530 0.8837 0.8320
H44 H 0.4940 0.7736 0.8481
C60 C 0.8089(4) 0.7584(4) 0.8650(2)
H45 H 0.005(3) 0.556(3) 0.7395(19)
N5 N 0.0118(3) 0.6163(3) 0.73780(17)
N6 N 0.0715(3) 0.7795(2) 0.76646(18)
N7 N 0.3708(3) 0.3981(2) 0.55741(14)
N8 N 0.3675(3) 0.2310(2) 0.54172(15)
O9 O -0.1174(3) 0.6261(2) 0.64350(17)
O10 O -0.0122(3) 0.7630(2) 0.70739(15)
O11 O 0.2043(3) 0.2938(2) 0.50860(16)
O12 O 0.5550(3) 0.6177(2) 0.58244(14)
O13 O 0.6374(3) 0.6030(2) 0.68698(13)
O14 O 0.7978(3) 0.7264(2) 0.79897(14)
O15 O 0.7164(3) 0.7939(2) 0.87642(14)
O16 O 0.8862(3) 0.7556(3) 0.90642(17)
C62 C 0.6646(4) 0.7496(4) 0.0426(2)
H46 H 0.7332 0.7823 0.0234
Cl1 Cl 0.55961(13) 0.81321(11) 0.01687(8)
Cl2 Cl 0.69591(14) 0.76166(17) 0.13088(8)
Cl3 Cl 0.6265(2) 0.62583(14) 0.00991(12)
C63 C 0.3276(6) 0.5821(5) 0.1797(3)
H47 H 0.3007 0.5721 0.2244
Cl4 Cl 0.2376(2) 0.49423(16) 0.12286(14)
Cl5 Cl 0.3120(2) 0.70202(16) 0.15716(14)
Cl6 Cl 0.4612(2) 0.5728(3) 0.1885(2)
C61? C 0.0225(11) 0.1732(10) 0.4765(6)
loop_
_geom_bond_atom_site_label_1
_geom_bond_atom_site_label_2
_geom_bond_site_symmetry_1
_geom_bond_site_symmetry_2
C1 N1 1_555 1_555
C2 C3 1_555 1_555
C3 C4 1_555 1_555
C4 H1 1_555 1_555
C5 C4 1_555 1_555
H2 C5 1_555 1_555
C6 C5 1_555 1_555
H3 C6 1_555 1_555
C7 C6 1_555 1_555
H4 C7 1_555 1_555
C8 C3 1_555 1_555
C9 C8 1_555 1_555
C10 C9 1_555 1_555
H5 C10 1_555 1_555
C11 C10 1_555 1_555
H6 C11 1_555 1_555
C12 C11 1_555 1_555
C13 C12 1_555 1_555
H7 C13 1_555 1_555
C14 C9 1_555 1_555
H8 C14 1_555 1_555
C15 C12 1_555 1_555
H9 C15 1_555 1_555
H10 C15 1_555 1_555
C16 H11 1_555 1_555
H12 C16 1_555 1_555
H13 C16 1_555 1_555
C17 C16 1_555 1_555
H14 C17 1_555 1_555
H15 C17 1_555 1_555
C18 N3 1_555 1_555
C19 C20 1_555 1_555
C20 C21 1_555 1_555
C21 H16 1_555 1_555
C22 C21 1_555 1_555
H17 C22 1_555 1_555
C23 C22 1_555 1_555
H18 C23 1_555 1_555
C24 C19 1_555 1_555
C25 C24 1_555 1_555
C26 H19 1_555 1_555
H20 C26 1_555 1_555
C27 C26 1_555 1_555
C28 C27 1_555 1_555
C29 C28 1_555 1_555
H21 C29 1_555 1_555
H22 C29 1_555 1_555
H23 C29 1_555 1_555
C30 O6 1_555 1_555
H24 N1 1_555 1_555
N1 C2 1_555 1_555
N2 C2 1_555 1_555
N3 C15 1_555 1_555
N4 C18 1_555 1_555
O1 C1 1_555 1_555
O2 C1 1_555 1_555
O3 C17 1_555 1_555
O4 C25 1_555 1_555
O5 C25 1_555 1_555
O6 C27 1_555 1_555
O7 C28 1_555 1_555
O8 C30 1_555 1_555
C31 N5 1_555 1_555
C32 C33 1_555 1_555
C33 C34 1_555 1_555
C34 H25 1_555 1_555
C35 C34 1_555 1_555
H26 C35 1_555 1_555
C36 C35 1_555 1_555
H27 C36 1_555 1_555
C37 C36 1_555 1_555
H28 C37 1_555 1_555
C38 C33 1_555 1_555
C39 C38 1_555 1_555
C40 C39 1_555 1_555
H29 C40 1_555 1_555
C41 C40 1_555 1_555
H30 C41 1_555 1_555
C42 C41 1_555 1_555
C43 C42 1_555 1_555
H31 C43 1_555 1_555
C44 C39 1_555 1_555
H32 C44 1_555 1_555
C45 C42 1_555 1_555
H33 C45 1_555 1_555
H34 C45 1_555 1_555
C46 C47 1_555 1_555
C47 H35 1_555 1_555
H36 C47 1_555 1_555
C48 N7 1_555 1_555
C49 C50 1_555 1_555
C50 C51 1_555 1_555
C51 H37 1_555 1_555
C52 C51 1_555 1_555
H38 C52 1_555 1_555
C53 C52 1_555 1_555
H39 C53 1_555 1_555
C54 C49 1_555 1_555
C55 C54 1_555 1_555
C56 H40 1_555 1_555
H41 C56 1_555 1_555
C57 C56 1_555 1_555
C58 C57 1_555 1_555
C59 C58 1_555 1_555
H42 C59 1_555 1_555
H43 C59 1_555 1_555
H44 C59 1_555 1_555
C60 O14 1_555 1_555
H45 N5 1_555 1_555
N5 C32 1_555 1_555
N6 C32 1_555 1_555
N7 C45 1_555 1_555
N8 C48 1_555 1_555
O9 C31 1_555 1_555
O10 C31 1_555 1_555
O11 C47 1_555 1_555
O12 C55 1_555 1_555
O13 C55 1_555 1_555
O14 C57 1_555 1_555
O15 C58 1_555 1_555
O16 C60 1_555 1_555
C62 H46 1_555 1_555
Cl1 C62 1_555 1_555
Cl2 C62 1_555 1_555
Cl3 C62 1_555 1_555
C63 H47 1_555 1_555
Cl4 C63 1_555 1_555
Cl5 C63 1_555 1_555
Cl6 C63 1_555 1_555
C7 C8 1_555 1_555
C13 C14 1_555 1_555
C18 O3 1_555 1_555
C19 N3 1_555 1_555
C20 N4 1_555 1_555
C23 C24 1_555 1_555
C26 O5 1_555 1_555
C30 O7 1_555 1_555
N2 O2 1_555 1_555
C37 C38 1_555 1_555
C43 C44 1_555 1_555
C48 O11 1_555 1_555
C49 N7 1_555 1_555
C50 N8 1_555 1_555
C53 C54 1_555 1_555
C56 O13 1_555 1_555
C60 O15 1_555 1_555
N6 O10 1_555 1_555

#END
