
#######################################################################
#
#                 Cambridge Crystallographic Data Centre
#                                CCDC 
#
#######################################################################
#
# If this CIF has been generated from an entry in the Cambridge 
# Structural Database, then it will include bibliographic, chemical, 
# crystal, experimental, refinement or atomic coordinate data resulting 
# from the CCDC's data processing and validation procedures.
#
#######################################################################

data_IYEBUJ03
_chemical_formula_moiety         'C42 H36 O4'
_chemical_name_systematic        
25,27-bis(benzyloxy)-26,28-dihydroxycalix[4]arene
_symmetry_cell_setting           triclinic
_symmetry_space_group_name_H-M   'P -1'
_symmetry_Int_Tables_number      2
_space_group_name_Hall           '-P 1'
loop_
_symmetry_equiv_pos_site_id
_symmetry_equiv_pos_as_xyz
1 x,y,z
2 -x,-y,-z
_cell_length_a                   10.3663(3)
_cell_length_b                   12.4432(4)
_cell_length_c                   14.2636(4)
_cell_angle_alpha                74.0080(10)
_cell_angle_beta                 73.6920(10)
_cell_angle_gamma                65.4610(10)
_cell_volume                     1579.52
_exptl_crystal_colour            colorless
_exptl_crystal_description       block
_cell_formula_units_Z            2
_exptl_crystal_recrystallization_method dichloromethane
loop_
_atom_site_label
_atom_site_type_symbol
_atom_site_fract_x
_atom_site_fract_y
_atom_site_fract_z
O1 O 0.09589(8) 0.88644(6) 0.24608(5)
O2 O 0.41873(8) 0.77812(7) 0.21754(6)
O3 O 0.51051(8) 0.84023(6) 0.34761(6)
O4 O 0.20187(9) 0.88008(8) 0.40525(6)
C1 C 0.08151(11) 0.77497(9) 0.28132(8)
C2 C 0.16075(11) 0.68398(9) 0.22588(8)
C3 C 0.13876(12) 0.57553(10) 0.26077(9)
C4 C 0.04329(12) 0.55855(10) 0.34854(9)
C5 C -0.02749(12) 0.64789(10) 0.40500(9)
C6 C -0.00852(11) 0.75800(10) 0.37295(8)
C7 C 0.49470(11) 0.66708(9) 0.19411(7)
C8 C 0.63542(11) 0.59726(9) 0.21110(7)
C9 C 0.70530(12) 0.48800(10) 0.17828(8)
C10 C 0.63774(13) 0.44575(10) 0.13336(8)
C11 C 0.49737(12) 0.51467(10) 0.11990(8)
C12 C 0.42457(11) 0.62564(9) 0.14896(7)
C13 C 0.54796(11) 0.72999(9) 0.41326(8)
C14 C 0.47986(11) 0.72461(10) 0.51271(8)
C15 C 0.52660(12) 0.61426(10) 0.57670(8)
C16 C 0.63322(12) 0.51403(10) 0.54129(9)
C17 C 0.69287(11) 0.52057(10) 0.44090(8)
C18 C 0.65083(11) 0.62936(9) 0.37470(8)
C19 C 0.13659(11) 0.84275(9) 0.49792(8)
C20 C 0.00355(11) 0.82858(9) 0.51876(8)
C21 C -0.05388(12) 0.79219(10) 0.61752(9)
C22 C 0.01663(13) 0.77101(11) 0.69387(9)
C23 C 0.14852(13) 0.78495(10) 0.67135(8)
C24 C 0.21107(12) 0.81912(9) 0.57410(8)
C25 C 0.27129(11) 0.69963(10) 0.13329(8)
C26 C 0.71119(11) 0.63721(10) 0.26398(8)
C27 C 0.35621(12) 0.83242(10) 0.54984(9)
C28 C -0.07826(11) 0.85332(10) 0.43742(8)
C29 C 0.00019(12) 0.96553(9) 0.17925(8)
C30 C 0.05524(11) 1.06241(9) 0.11779(7)
C31 C 0.19488(12) 1.05401(10) 0.11200(9)
C32 C 0.24188(13) 1.14505(11) 0.05343(10)
C33 C 0.15023(14) 1.24545(11) 0.00129(9)
C34 C 0.01109(14) 1.25416(11) 0.00667(10)
C35 C -0.03639(13) 1.16286(10) 0.06450(9)
C36 C 0.60130(12) 0.90508(10) 0.34144(9)
C37 C 0.56476(11) 1.01548(9) 0.26295(8)
C38 C 0.62849(13) 1.01021(11) 0.16379(9)
C39 C 0.59545(15) 1.11249(12) 0.09127(10)
C40 C 0.49973(16) 1.22103(12) 0.11709(10)
C41 C 0.43523(15) 1.22740(11) 0.21516(11)
C42 C 0.46677(13) 1.12457(11) 0.28790(9)
H1 H 0.4585(18) 0.7983(14) 0.2544(12)
H2 H 0.1517(19) 0.8952(15) 0.3597(13)
H3 H 0.1935(15) 0.5107(12) 0.2218(10)
H4 H 0.0265(16) 0.4828(13) 0.3700(11)
H5 H -0.0941(16) 0.6365(13) 0.4683(11)
H6 H 0.8045(16) 0.4403(12) 0.1881(10)
H7 H 0.6909(16) 0.3670(13) 0.1104(11)
H8 H 0.4474(16) 0.4842(12) 0.0901(10)
H9 H 0.4785(16) 0.6093(12) 0.6488(11)
H10 H 0.6642(16) 0.4378(13) 0.5863(11)
H11 H 0.7646(15) 0.4481(13) 0.4148(10)
H12 H -0.1501(17) 0.7849(14) 0.6337(11)
H13 H -0.0256(17) 0.7479(13) 0.7636(12)
H14 H 0.2004(16) 0.7702(13) 0.7240(11)
H15 H 0.2595(15) 0.7851(12) 0.1109(10)
H16 H 0.2554(16) 0.6727(13) 0.0777(11)
H17 H 0.7057(15) 0.7214(12) 0.2315(10)
H18 H 0.8142(16) 0.5837(12) 0.2555(10)
H19 H 0.3713(16) 0.8414(13) 0.6123(11)
H20 H 0.3500(15) 0.9069(12) 0.4994(10)
H21 H -0.0860(15) 0.9330(12) 0.3959(10)
H22 H -0.1777(17) 0.8550(13) 0.4702(11)
H23 H -0.0971(17) 0.9997(13) 0.2187(11)
H24 H -0.0032(15) 0.9177(12) 0.1350(10)
H25 H 0.2576(16) 0.9845(13) 0.1488(10)
H26 H 0.3404(17) 1.1383(13) 0.0504(11)
H27 H 0.1799(17) 1.3102(14) -0.0374(11)
H28 H -0.0544(18) 1.3252(15) -0.0279(12)
H29 H -0.1382(16) 1.1700(12) 0.0697(10)
H30 H 0.7047(16) 0.8505(13) 0.3250(10)
H31 H 0.5834(15) 0.9273(12) 0.4076(10)
H32 H 0.6967(18) 0.9326(15) 0.1457(12)
H33 H 0.6360(19) 1.1070(15) 0.0212(14)
H34 H 0.4752(19) 1.2912(16) 0.0655(13)
H35 H 0.3689(19) 1.3039(16) 0.2339(12)
H36 H 0.4198(16) 1.1295(13) 0.3578(11)
loop_
_geom_bond_atom_site_label_1
_geom_bond_atom_site_label_2
_geom_bond_site_symmetry_1
_geom_bond_site_symmetry_2
O1 C1 1_555 1_555
O2 C7 1_555 1_555
O3 C13 1_555 1_555
O4 C19 1_555 1_555
C1 C2 1_555 1_555
C2 C3 1_555 1_555
C3 C4 1_555 1_555
C4 C5 1_555 1_555
C5 C6 1_555 1_555
C6 C1 1_555 1_555
C7 C8 1_555 1_555
C8 C9 1_555 1_555
C9 C10 1_555 1_555
C10 C11 1_555 1_555
C11 C12 1_555 1_555
C12 C7 1_555 1_555
C13 C14 1_555 1_555
C14 C15 1_555 1_555
C15 C16 1_555 1_555
C16 C17 1_555 1_555
C17 C18 1_555 1_555
C18 C13 1_555 1_555
C19 C20 1_555 1_555
C20 C21 1_555 1_555
C21 C22 1_555 1_555
C22 C23 1_555 1_555
C23 C24 1_555 1_555
C24 C19 1_555 1_555
C25 C2 1_555 1_555
C26 C8 1_555 1_555
C27 C14 1_555 1_555
C28 C6 1_555 1_555
C29 O1 1_555 1_555
C30 C29 1_555 1_555
C31 C30 1_555 1_555
C32 C31 1_555 1_555
C33 C32 1_555 1_555
C34 C33 1_555 1_555
C35 C30 1_555 1_555
C36 O3 1_555 1_555
C37 C36 1_555 1_555
C38 C37 1_555 1_555
C39 C38 1_555 1_555
C40 C39 1_555 1_555
C41 C40 1_555 1_555
C42 C37 1_555 1_555
H1 O2 1_555 1_555
H2 O4 1_555 1_555
H3 C3 1_555 1_555
H4 C4 1_555 1_555
H5 C5 1_555 1_555
H6 C9 1_555 1_555
H7 C10 1_555 1_555
H8 C11 1_555 1_555
H9 C15 1_555 1_555
H10 C16 1_555 1_555
H11 C17 1_555 1_555
H12 C21 1_555 1_555
H13 C22 1_555 1_555
H14 C23 1_555 1_555
H15 C25 1_555 1_555
H16 C25 1_555 1_555
H17 C26 1_555 1_555
H18 C26 1_555 1_555
H19 C27 1_555 1_555
H20 C27 1_555 1_555
H21 C28 1_555 1_555
H22 C28 1_555 1_555
H23 C29 1_555 1_555
H24 C29 1_555 1_555
H25 C31 1_555 1_555
H26 C32 1_555 1_555
H27 C33 1_555 1_555
H28 C34 1_555 1_555
H29 C35 1_555 1_555
H30 C36 1_555 1_555
H31 C36 1_555 1_555
H32 C38 1_555 1_555
H33 C39 1_555 1_555
H34 C40 1_555 1_555
H35 C41 1_555 1_555
H36 C42 1_555 1_555
C12 C25 1_555 1_555
C18 C26 1_555 1_555
C20 C28 1_555 1_555
C24 C27 1_555 1_555
C34 C35 1_555 1_555
C41 C42 1_555 1_555

#END
