
#######################################################################
#
#                 Cambridge Crystallographic Data Centre
#                                CCDC 
#
#######################################################################
#
# If this CIF has been generated from an entry in the Cambridge 
# Structural Database, then it will include bibliographic, chemical, 
# crystal, experimental, refinement or atomic coordinate data resulting 
# from the CCDC's data processing and validation procedures.
#
#######################################################################

data_IYEFOJ02
_chemical_formula_moiety         'C36 H30 N1 P2 1+,C7 H5 N4 1-,C2 H3 N1'
_chemical_name_systematic        
'bis(triphenylphosphino)iminium 5-phenyltetrazol-1-ide acetonitrile solvate'
_symmetry_cell_setting           monoclinic
_symmetry_space_group_name_H-M   'P c'
_symmetry_Int_Tables_number      7
_space_group_name_Hall           'P -2yc'
loop_
_symmetry_equiv_pos_site_id
_symmetry_equiv_pos_as_xyz
1 x,y,z
2 x,-y,1/2+z
_cell_length_a                   10.1537(6)
_cell_length_b                   9.6892(7)
_cell_length_c                   19.2381(13)
_cell_angle_alpha                90
_cell_angle_beta                 94.323(3)
_cell_angle_gamma                90
_cell_volume                     1887.28
_exptl_crystal_colour            colorless
_exptl_crystal_description       block
_cell_formula_units_Z            2
loop_
_atom_site_label
_atom_site_type_symbol
_atom_site_fract_x
_atom_site_fract_y
_atom_site_fract_z
P1 P -0.09124(3) 0.16017(3) 0.305124(16)
P2 P 0.07766(3) 0.28055(3) 0.200859(16)
N1 N -0.05187(10) 0.22781(11) 0.23421(6)
C1 C -0.22054(12) 0.26197(13) 0.33986(7)
C2 C -0.24379(14) 0.25411(15) 0.41081(7)
H1 H -0.1860 0.2026 0.4421
C3 C -0.35240(15) 0.32253(16) 0.43512(8)
H2 H -0.3684 0.3181 0.4831
C4 C -0.43695(14) 0.39704(15) 0.38911(9)
H3 H -0.5120 0.4415 0.4056
C5 C -0.41284(13) 0.40720(14) 0.31916(8)
H4 H -0.4703 0.4601 0.2883
C6 C -0.30403(12) 0.33965(13) 0.29389(7)
H5 H -0.2872 0.3466 0.2461
C7 C -0.15968(12) -0.00978(13) 0.28788(7)
C8 C -0.16675(13) -0.06162(14) 0.21972(7)
H6 H -0.1324 -0.0092 0.1835
C9 C -0.22406(14) -0.19012(15) 0.20500(7)
H7 H -0.2301 -0.2244 0.1586
C10 C -0.27263(13) -0.26848(14) 0.25845(8)
H8 H -0.3107 -0.3565 0.2484
C11 C -0.26549(13) -0.21803(14) 0.32631(7)
H9 H -0.2984 -0.2719 0.3624
C12 C -0.21021(13) -0.08849(14) 0.34164(7)
H10 H -0.2066 -0.0536 0.3879
C13 C 0.04170(12) 0.14574(13) 0.37216(6)
C14 C 0.09598(13) 0.01834(14) 0.39300(7)
H11 H 0.0579 -0.0649 0.3747
C15 C 0.20661(14) 0.01398(16) 0.44094(8)
H12 H 0.2433 -0.0724 0.4555
C16 C 0.26276(14) 0.13564(17) 0.46721(8)
H13 H 0.3388 0.1321 0.4991
C17 C 0.20855(14) 0.26278(16) 0.44721(7)
H14 H 0.2473 0.3456 0.4655
C18 C 0.09738(13) 0.26818(14) 0.40029(7)
H15 H 0.0591 0.3548 0.3873
C19 C 0.03375(12) 0.30972(14) 0.10935(7)
C20 C -0.09962(14) 0.32146(19) 0.08653(8)
H16 H -0.1657 0.3056 0.1180
C21 C -0.13563(16) 0.3565(2) 0.01739(8)
H17 H -0.2263 0.3657 0.0020
C22 C -0.03924(16) 0.37825(19) -0.02908(8)
H18 H -0.0642 0.4014 -0.0762
C23 C 0.09380(15) 0.36605(16) -0.00667(8)
H19 H 0.1595 0.3808 -0.0385
C24 C 0.13079(13) 0.33215(14) 0.06247(7)
H20 H 0.2216 0.3242 0.0778
C25 C 0.21779(12) 0.16488(13) 0.20916(7)
C26 C 0.22731(14) 0.05745(14) 0.16043(7)
H21 H 0.1631 0.0491 0.1221
C27 C 0.33123(15) -0.03658(15) 0.16863(9)
H22 H 0.3377 -0.1093 0.1360
C28 C 0.42555(14) -0.02404(15) 0.22459(9)
H23 H 0.4970 -0.0874 0.2295
C29 C 0.41594(14) 0.08083(15) 0.27350(8)
H24 H 0.4799 0.0878 0.3120
C30 C 0.31250(13) 0.17561(14) 0.26593(7)
H25 H 0.3061 0.2474 0.2992
C31 C 0.13070(12) 0.44707(13) 0.23650(6)
C32 C 0.25701(12) 0.50007(13) 0.22676(7)
H26 H 0.3179 0.4473 0.2026
C33 C 0.29245(13) 0.63050(14) 0.25265(8)
H27 H 0.3782 0.6659 0.2468
C34 C 0.20216(14) 0.70901(14) 0.28708(8)
H28 H 0.2270 0.7972 0.3053
C35 C 0.07598(13) 0.65852(14) 0.29481(7)
H29 H 0.0140 0.7134 0.3171
C36 C 0.03996(12) 0.52723(14) 0.26994(7)
H30 H -0.0460 0.4925 0.2758
N2 N 0.41348(11) 0.46500(13) 0.54367(6)
N3 N 0.42592(12) 0.35007(13) 0.58347(7)
N4 N 0.50985(13) 0.37367(15) 0.63801(7)
N5 N 0.55477(12) 0.50490(15) 0.63581(7)
C37 C 0.49385(12) 0.55783(14) 0.57699(7)
C38 C 0.51513(13) 0.69822(15) 0.55056(8)
C39 C 0.57130(15) 0.80124(17) 0.59449(10)
H31 H 0.5913 0.7825 0.6426
C40 C 0.59789(17) 0.93106(18) 0.56772(12)
H32 H 0.6364 1.0003 0.5977
C41 C 0.56876(17) 0.95995(18) 0.49801(13)
H33 H 0.5889 1.0481 0.4800
C42 C 0.50995(17) 0.85994(18) 0.45416(10)
H34 H 0.4884 0.8803 0.4064
C43 C 0.48256(15) 0.72940(16) 0.48044(8)
H35 H 0.4416 0.6615 0.4505
N6 N -0.06199(15) 0.91775(17) 0.04894(7)
C44 C 0.0570(2) 0.6967(2) 0.09877(9)
H36 H 0.1519 0.7033 0.0929
H37 H 0.0208 0.6151 0.0741
H38 H 0.0430 0.6890 0.1485
C45 C -0.00966(15) 0.82069(17) 0.07009(7)
loop_
_geom_bond_atom_site_label_1
_geom_bond_atom_site_label_2
_geom_bond_site_symmetry_1
_geom_bond_site_symmetry_2
P1 N1 1_555 1_555
P2 N1 1_555 1_555
C1 P1 1_555 1_555
C2 C1 1_555 1_555
H1 C2 1_555 1_555
C3 C2 1_555 1_555
H2 C3 1_555 1_555
C4 C3 1_555 1_555
H3 C4 1_555 1_555
C5 C4 1_555 1_555
H4 C5 1_555 1_555
C6 C1 1_555 1_555
H5 C6 1_555 1_555
C7 P1 1_555 1_555
C8 C7 1_555 1_555
H6 C8 1_555 1_555
C9 C8 1_555 1_555
H7 C9 1_555 1_555
C10 C9 1_555 1_555
H8 C10 1_555 1_555
C11 C10 1_555 1_555
H9 C11 1_555 1_555
C12 C7 1_555 1_555
H10 C12 1_555 1_555
C13 P1 1_555 1_555
C14 C13 1_555 1_555
H11 C14 1_555 1_555
C15 C14 1_555 1_555
H12 C15 1_555 1_555
C16 C15 1_555 1_555
H13 C16 1_555 1_555
C17 C16 1_555 1_555
H14 C17 1_555 1_555
C18 C13 1_555 1_555
H15 C18 1_555 1_555
C19 P2 1_555 1_555
C20 C19 1_555 1_555
H16 C20 1_555 1_555
C21 C20 1_555 1_555
H17 C21 1_555 1_555
C22 C21 1_555 1_555
H18 C22 1_555 1_555
C23 C22 1_555 1_555
H19 C23 1_555 1_555
C24 C19 1_555 1_555
H20 C24 1_555 1_555
C25 P2 1_555 1_555
C26 C25 1_555 1_555
H21 C26 1_555 1_555
C27 C26 1_555 1_555
H22 C27 1_555 1_555
C28 C27 1_555 1_555
H23 C28 1_555 1_555
C29 C28 1_555 1_555
H24 C29 1_555 1_555
C30 C25 1_555 1_555
H25 C30 1_555 1_555
C31 P2 1_555 1_555
C32 C31 1_555 1_555
H26 C32 1_555 1_555
C33 C32 1_555 1_555
H27 C33 1_555 1_555
C34 C33 1_555 1_555
H28 C34 1_555 1_555
C35 C34 1_555 1_555
H29 C35 1_555 1_555
C36 C31 1_555 1_555
H30 C36 1_555 1_555
N2 N3 1_555 1_555
N3 N4 1_555 1_555
N4 N5 1_555 1_555
N5 C37 1_555 1_555
C37 N2 1_555 1_555
C38 C37 1_555 1_555
C39 C38 1_555 1_555
H31 C39 1_555 1_555
C40 C39 1_555 1_555
H32 C40 1_555 1_555
C41 C40 1_555 1_555
H33 C41 1_555 1_555
C42 C41 1_555 1_555
H34 C42 1_555 1_555
C43 C38 1_555 1_555
H35 C43 1_555 1_555
N6 C45 1_555 1_555
C44 H36 1_555 1_555
H37 C44 1_555 1_555
H38 C44 1_555 1_555
C45 C44 1_555 1_555
C5 C6 1_555 1_555
C11 C12 1_555 1_555
C17 C18 1_555 1_555
C23 C24 1_555 1_555
C29 C30 1_555 1_555
C35 C36 1_555 1_555
C42 C43 1_555 1_555

#END
