
#######################################################################
#
#                 Cambridge Crystallographic Data Centre
#                                CCDC 
#
#######################################################################
#
# If this CIF has been generated from an entry in the Cambridge 
# Structural Database, then it will include bibliographic, chemical, 
# crystal, experimental, refinement or atomic coordinate data resulting 
# from the CCDC's data processing and validation procedures.
#
#######################################################################

data_IYEFUP02
_chemical_formula_moiety         'C24 H18 N16 Si1'
_chemical_name_systematic        
bis(azido)-(2,2'-bipyridine)-bis(5-phenyltetrazolato)-silicon
_symmetry_cell_setting           monoclinic
_symmetry_space_group_name_H-M   'C 2/c'
_symmetry_Int_Tables_number      15
_space_group_name_Hall           '-C 2yn'
loop_
_symmetry_equiv_pos_site_id
_symmetry_equiv_pos_as_xyz
1 x,y,z
2 -x,y,1/2-z
3 1/2+x,1/2+y,z
4 1/2-x,1/2+y,1/2-z
5 -x,-y,-z
6 x,-y,1/2+z
7 1/2-x,1/2-y,-z
8 1/2+x,1/2-y,1/2+z
_cell_length_a                   22.7377(5)
_cell_length_b                   10.3383(2)
_cell_length_c                   10.6088(2)
_cell_angle_alpha                90
_cell_angle_beta                 99.2180(10)
_cell_angle_gamma                90
_cell_volume                     2461.6
_exptl_crystal_colour            colorless
_exptl_crystal_description       needle
_cell_formula_units_Z            4
loop_
_atom_site_label
_atom_site_type_symbol
_atom_site_fract_x
_atom_site_fract_y
_atom_site_fract_z
Si1 Si 0.0000 0.1309 0.2500
N1 N -0.0654(3) -0.2115(5) 0.2792(4)
N2 N -0.0481(4) -0.1118(6) 0.3084(6)
N3 N -0.0284(5) -0.0046(7) 0.3478(10)
N4 N -0.0301(7) 0.2480(8) 0.3445(14)
C1 C -0.0247(2) 0.3781(6) 0.3123(5)
C2 C -0.0634(3) 0.2323(4) 0.4453(6)
H1 H -0.0675 0.1471 0.4763
C3 C -0.09040(18) 0.3323(4) 0.5022(4)
H2 H -0.1122 0.3154 0.5697
C4 C -0.08492(18) 0.4562(5) 0.4586(4)
H3 H -0.1046 0.5252 0.4938
C5 C -0.0512(2) 0.4818(4) 0.3644(4)
H4 H -0.0463 0.5678 0.3362
C6 C -0.1487(6) 0.0706(11) 0.0066(13)
N5 N -0.0706(4) 0.1246(7) 0.1337(10)
N6 N -0.09479(17) 0.2318(4) 0.0796(3)
N7 N -0.14395(16) 0.1994(4) 0.0021(3)
N8 N -0.1033(3) 0.0199(5) 0.0924(5)
C7 C -0.20170(7) 0.0316(2) -0.07238(19)
C8 C -0.26023(8) 0.07349(17) -0.07943(19)
H5 H -0.2692 0.1441 -0.0285
C9 C -0.30562(7) 0.0120(2) -0.1610(2)
H6 H -0.3456 0.0406 -0.1658
C10 C -0.29247(8) -0.0914(2) -0.23551(19)
C11 C -0.23394(9) -0.13326(17) -0.22847(19)
H7 H -0.2250 -0.2039 -0.2794
C12 C -0.18856(7) -0.0717(2) -0.1469(2)
H8 H -0.1486 -0.1003 -0.1421
N1A N 0.0654(3) -0.2115(5) 0.2208(4)
N2A N 0.0481(4) -0.1118(6) 0.1916(6)
N3A N 0.0284(5) -0.0046(7) 0.1522(10)
N4A N 0.0301(7) 0.2480(8) 0.1555(14)
C1A C 0.0247(2) 0.3781(6) 0.1877(5)
C2A C 0.0634(3) 0.2323(4) 0.0547(6)
H1A H 0.0675 0.1471 0.0237
C3A C 0.09040(18) 0.3323(4) -0.0022(4)
H2A H 0.1122 0.3154 -0.0697
C4A C 0.08492(18) 0.4562(5) 0.0414(4)
H3A H 0.1046 0.5252 0.0062
C5A C 0.0512(2) 0.4818(4) 0.1356(4)
H4A H 0.0463 0.5678 0.1638
C6A C 0.1487(6) 0.0706(11) 0.4934(13)
N5A N 0.0706(4) 0.1246(7) 0.3663(10)
N6A N 0.09479(17) 0.2318(4) 0.4204(3)
N7A N 0.14395(16) 0.1994(4) 0.4979(3)
N8A N 0.1033(3) 0.0199(5) 0.4076(5)
C7A C 0.20170(7) 0.0316(2) 0.57238(19)
C8A C 0.26023(8) 0.07349(17) 0.57943(19)
H5A H 0.2692 0.1441 0.5285
C9A C 0.30562(7) 0.0120(2) 0.6610(2)
H6A H 0.3456 0.0406 0.6658
C10A C 0.29247(8) -0.0914(2) 0.73551(19)
C11A C 0.23394(9) -0.13326(17) 0.72847(19)
H7A H 0.2250 -0.2039 0.7794
C12A C 0.18856(7) -0.0717(2) 0.6469(2)
H8A H 0.1486 -0.1003 0.6421
Si2? Si 0.0000 0.1101 0.2500
N9? N -0.0673(3) -0.1883(6) 0.3191(5)
N10? N -0.0483(4) -0.0850(8) 0.3318(6)
N11? N -0.0305(6) 0.0221(9) 0.3548(13)
N12? N -0.0273(8) 0.2793(9) 0.3404(16)
C13? C -0.0583(3) 0.2679(6) 0.4296(7)
H9? H -0.0646 0.1858 0.4654
C14? C -0.0826(2) 0.3787(6) 0.4726(5)
H10? H -0.1066 0.3745 0.5379
C15? C -0.0712(2) 0.4953(5) 0.4189(5)
H11? H -0.0884 0.5725 0.4452
C16? C -0.0344(2) 0.5001(5) 0.3260(5)
H12? H -0.0250 0.5808 0.2913
C17? C -0.0117(3) 0.3864(7) 0.2846(6)
C18? C -0.1543(7) 0.0996(13) 0.0191(15)
N13? N -0.0760(4) 0.1428(8) 0.1355(11)
N14? N -0.10571(18) 0.2542(4) 0.1147(4)
N15? N -0.15566(18) 0.2294(4) 0.0366(4)
N16? N -0.1058(4) 0.0438(6) 0.0739(7)
H13? H -0.2683 -0.2843 -0.0478
H14? H -0.1978 -0.1512 0.0742
H15? H -0.2653 -0.2822 -0.0780
H16? H -0.3235 -0.1334 -0.2913
H17? H -0.3319 -0.1734 -0.2335
H18? H -0.2328 0.1527 -0.1682
H19? H -0.2058 0.0972 -0.2236
C19? C -0.1998(4) -0.0001(10) -0.0575(10)
C20? C -0.2394(4) 0.0644(7) -0.1499(8)
C21? C -0.2886(3) -0.0001(8) -0.2154(8)
H20? H -0.3156 0.0440 -0.2786
C22? C -0.2982(4) -0.1293(8) -0.1886(9)
C23? C -0.2587(6) -0.1939(8) -0.0963(12)
C24? C -0.2095(6) -0.1293(11) -0.0307(12)
H21? H -0.1824 -0.1734 0.0324
C25? C -0.1952(2) -0.0145(4) -0.0632(4)
C26? C -0.21850(15) 0.0198(3) -0.1879(3)
C27? C -0.26040(16) -0.0592(3) -0.2604(3)
H22? H -0.2763 -0.0358 -0.3456
C28? C -0.27897(17) -0.1726(3) -0.2082(4)
H23? H -0.3076 -0.2266 -0.2577
C29? C -0.2556(3) -0.2068(4) -0.0835(4)
C30? C -0.2137(3) -0.1278(5) -0.0110(4)
loop_
_geom_bond_atom_site_label_1
_geom_bond_atom_site_label_2
_geom_bond_site_symmetry_1
_geom_bond_site_symmetry_2
Si1 N3 1_555 1_555
N1 N2 1_555 1_555
N2 N3 1_555 1_555
N4 Si1 1_555 1_555
C1 N4 1_555 1_555
C2 N4 1_555 1_555
H1 C2 1_555 1_555
C3 C2 1_555 1_555
H2 C3 1_555 1_555
C4 C3 1_555 1_555
H3 C4 1_555 1_555
C5 C1 1_555 1_555
H4 C5 1_555 1_555
C6 N7 1_555 1_555
N5 Si1 1_555 1_555
N6 N5 1_555 1_555
N7 N6 1_555 1_555
N8 C6 1_555 1_555
C7 C6 1_555 1_555
C8 C7 1_555 1_555
H5 C8 1_555 1_555
C9 C8 1_555 1_555
H6 C9 1_555 1_555
C10 C9 1_555 1_555
C11 C10 1_555 1_555
H7 C11 1_555 1_555
C12 C7 1_555 1_555
H8 C12 1_555 1_555
N1A N2A 1_555 1_555
N2A N3A 1_555 1_555
N3A Si1 1_555 1_555
N4A Si1 1_555 1_555
C1A C1 1_555 1_555
C2A N4A 1_555 1_555
H1A C2A 1_555 1_555
C3A C2A 1_555 1_555
H2A C3A 1_555 1_555
C4A C3A 1_555 1_555
H3A C4A 1_555 1_555
C5A C1A 1_555 1_555
H4A C5A 1_555 1_555
C6A N7A 1_555 1_555
N5A Si1 1_555 1_555
N6A N5A 1_555 1_555
N7A N6A 1_555 1_555
N8A C6A 1_555 1_555
C7A C6A 1_555 1_555
C8A C7A 1_555 1_555
H5A C8A 1_555 1_555
C9A C8A 1_555 1_555
H6A C9A 1_555 1_555
C10A C9A 1_555 1_555
C11A C10A 1_555 1_555
H7A C11A 1_555 1_555
C12A C7A 1_555 1_555
H8A C12A 1_555 1_555
C4 C5 1_555 1_555
N5 N8 1_555 1_555
C11 C12 1_555 1_555
N4A C1A 1_555 1_555
C4A C5A 1_555 1_555
N5A N8A 1_555 1_555
C11A C12A 1_555 1_555

#END
