
#######################################################################
#
#                 Cambridge Crystallographic Data Centre
#                                CCDC 
#
#######################################################################
#
# If this CIF has been generated from an entry in the Cambridge 
# Structural Database, then it will include bibliographic, chemical, 
# crystal, experimental, refinement or atomic coordinate data resulting 
# from the CCDC's data processing and validation procedures.
#
#######################################################################

data_IYEGEA02
_chemical_formula_moiety         'C26 H18 N16 Si1,C2 H3 N1'
_chemical_name_systematic        
'bis(azido)-(1,10-phenanthroline)-bis(5-phenyltetrazolato)-silicon acetonitrile solvate'
_symmetry_cell_setting           triclinic
_symmetry_space_group_name_H-M   'P 1'
_symmetry_Int_Tables_number      1
_space_group_name_Hall           'P 1'
loop_
_symmetry_equiv_pos_site_id
_symmetry_equiv_pos_as_xyz
1 x,y,z
_cell_length_a                   11.1045(3)
_cell_length_b                   11.9991(4)
_cell_length_c                   12.7949(4)
_cell_angle_alpha                96.0600(10)
_cell_angle_beta                 108.5450(10)
_cell_angle_gamma                111.1680(10)
_cell_volume                     1459.66
_exptl_crystal_colour            colorless
_exptl_crystal_description       block
_cell_formula_units_Z            2
loop_
_atom_site_label
_atom_site_type_symbol
_atom_site_fract_x
_atom_site_fract_y
_atom_site_fract_z
Si1 Si 0.44735(7) 1.01569(6) 0.22631(5)
N1 N 0.3453(3) 0.8248(2) 0.0204(2)
N2 N 0.3552(2) 0.8546(2) 0.1285(2)
N3 N 0.3097(3) 0.7539(2) 0.1657(2)
N4 N 0.2723(3) 0.6572(3) 0.0844(2)
N5 N 0.5267(2) 1.2496(2) 0.3785(2)
N6 N 0.5669(2) 1.1727(2) 0.32930(19)
N7 N 0.7049(2) 1.2198(2) 0.3600(2)
N8 N 0.7580(3) 1.3292(2) 0.4309(2)
N9 N 0.3536(2) 1.0778(2) 0.1230(2)
N10 N 0.2694(3) 1.1129(2) 0.1371(2)
N11 N 0.1871(3) 1.1468(3) 0.1431(3)
N12 N 0.3383(2) 0.9874(2) 0.3063(2)
N13 N 0.2187(3) 0.9081(2) 0.2729(2)
N14 N 0.1073(3) 0.8382(3) 0.2502(2)
N15 N 0.5664(2) 0.9506(2) 0.32561(19)
N16 N 0.5840(2) 1.0434(2) 0.15613(19)
C1 C 0.2954(3) 0.7019(3) -0.0029(2)
C2 C 0.2772(3) 0.6212(3) -0.1081(2)
C3 C 0.2672(3) 0.5010(3) -0.1089(2)
H1 H 0.2666 0.4699 -0.0438
C4 C 0.2584(3) 0.4280(3) -0.2047(2)
H2 H 0.2516 0.3467 -0.2050
C5 C 0.2596(3) 0.4723(3) -0.2997(3)
H3 H 0.2571 0.4229 -0.3641
C6 C 0.2644(4) 0.5919(3) -0.3009(3)
H4 H 0.2599 0.6209 -0.3677
C7 C 0.2758(4) 0.6659(3) -0.2050(3)
H5 H 0.2827 0.7472 -0.2047
C8 C 0.6479(3) 1.3456(3) 0.4405(2)
C9 C 0.6645(3) 1.4570(3) 0.5153(2)
C10 C 0.7988(4) 1.5482(3) 0.5777(3)
H6 H 0.8774 1.5385 0.5709
C11 C 0.8177(5) 1.6541(4) 0.6506(3)
H7 H 0.9092 1.7165 0.6934
C12 C 0.7041(4) 1.6673(3) 0.6600(3)
H8 H 0.7173 1.7386 0.7105
C13 C 0.5710(4) 1.5786(3) 0.5972(3)
H9 H 0.4926 1.5893 0.6031
C14 C 0.5516(4) 1.4725(3) 0.5246(3)
H10 H 0.4597 1.4109 0.4815
C15 C 0.5530(3) 0.9066(3) 0.4142(2)
H11 H 0.4824 0.9106 0.4390
C16 C 0.6404(3) 0.8546(3) 0.4718(2)
H12 H 0.6281 0.8233 0.5346
C17 C 0.7452(3) 0.8484(3) 0.4376(2)
H13 H 0.8043 0.8124 0.4760
C18 C 0.7622(3) 0.8966(3) 0.3449(2)
C19 C 0.8668(3) 0.8990(3) 0.3013(3)
H14 H 0.9291 0.8636 0.3343
C20 C 0.8786(3) 0.9513(3) 0.2132(3)
H15 H 0.9500 0.9531 0.1868
C21 C 0.7846(3) 1.0034(3) 0.1601(2)
C22 C 0.7897(3) 1.0621(3) 0.0692(2)
H16 H 0.8594 1.0697 0.0390
C23 C 0.6920(3) 1.1072(3) 0.0262(2)
H17 H 0.6943 1.1462 -0.0344
C24 C 0.5894(3) 1.0968(2) 0.0699(2)
H18 H 0.5223 1.1280 0.0380
C25 C 0.6797(3) 0.9985(2) 0.1994(2)
C26 C 0.6699(3) 0.9468(2) 0.2926(2)
Si2 Si 0.34942(6) 0.04038(6) 0.66215(5)
N17 N 0.2694(2) -0.1942(2) 0.5133(2)
N18 N 0.2289(2) -0.1158(2) 0.56126(19)
N19 N 0.0903(2) -0.1643(2) 0.5311(2)
N20 N 0.0376(3) -0.2751(2) 0.4631(2)
N21 N 0.4659(3) 0.2256(2) 0.8727(2)
N22 N 0.4470(2) 0.2011(2) 0.76226(19)
N23 N 0.5064(3) 0.3028(2) 0.7313(2)
N24 N 0.5703(3) 0.3961(2) 0.8233(2)
N25 N 0.4416(2) -0.0232(2) 0.76507(19)
N26 N 0.5301(2) -0.0541(2) 0.7537(2)
N27 N 0.6149(3) -0.0842(3) 0.7494(2)
N28 N 0.4578(2) 0.0682(2) 0.5815(2)
N29 N 0.5785(2) 0.1440(2) 0.61405(19)
N30 N 0.6897(3) 0.2129(3) 0.6371(2)
N31 N 0.2324(2) 0.1080(2) 0.56505(19)
N32 N 0.2164(2) 0.0163(2) 0.73576(18)
C27 C 0.1487(3) -0.2917(3) 0.4526(2)
C28 C 0.1337(3) -0.4035(3) 0.3811(2)
C29 C 0.0058(3) -0.5054(3) 0.3346(3)
H19 H -0.0692 -0.5052 0.3551
C30 C -0.0136(4) -0.6063(3) 0.2591(3)
H20 H -0.1021 -0.6752 0.2277
C31 C 0.0943(4) -0.6095(3) 0.2280(3)
H21 H 0.0796 -0.6789 0.1742
C32 C 0.2227(4) -0.5104(3) 0.2765(3)
H22 H 0.2980 -0.5125 0.2574
C33 C 0.2441(4) -0.4076(3) 0.3528(3)
H23 H 0.3336 -0.3400 0.3858
C34 C 0.5439(3) 0.3456(3) 0.9085(2)
C35 C 0.5923(3) 0.4156(2) 1.0265(2)
C36 C 0.7218(3) 0.5165(3) 1.0768(2)
H24 H 0.7794 0.5403 1.0347
C37 C 0.7671(3) 0.5823(3) 1.1880(2)
H25 H 0.8560 0.6506 1.2222
C38 C 0.6816(4) 0.5479(3) 1.2497(2)
H26 H 0.7132 0.5916 1.3265
C39 C 0.5515(4) 0.4504(3) 1.1988(3)
H27 H 0.4914 0.4297 1.2393
C40 C 0.5077(3) 0.3820(3) 1.0880(3)
H28 H 0.4199 0.3123 1.0547
C41 C 0.2482(3) 0.1538(3) 0.4766(2)
H29 H 0.3194 0.1508 0.4520
C42 C 0.1595(3) 0.2061(3) 0.4203(2)
H30 H 0.1705 0.2367 0.3568
C43 C 0.0575(3) 0.2139(3) 0.4550(2)
H31 H -0.0001 0.2514 0.4173
C44 C 0.0393(3) 0.1653(3) 0.5478(2)
C45 C -0.0641(3) 0.1654(3) 0.5934(2)
H32 H -0.1262 0.2012 0.5609
C46 C -0.0734(3) 0.1152(3) 0.6817(3)
H33 H -0.1428 0.1161 0.7097
C47 C 0.0182(3) 0.0605(3) 0.7345(2)
C48 C 0.0133(3) 0.0037(3) 0.8240(2)
H34 H -0.0555 -0.0019 0.8548
C49 C 0.1089(3) -0.0441(3) 0.8673(2)
H35 H 0.1054 -0.0838 0.9274
C50 C 0.2120(3) -0.0342(3) 0.8226(2)
H36 H 0.2798 -0.0644 0.8553
C51 C 0.1199(3) 0.0613(2) 0.6915(2)
C52 C 0.1300(3) 0.1138(2) 0.5984(2)
N33 N 0.9176(4) 0.2536(4) 0.9209(3)
C53 C 0.9184(4) 0.3436(4) 0.8964(3)
C54 C 0.9212(4) 0.4584(4) 0.8629(5)
H37 H 0.9596 0.4690 0.8036
H38 H 0.9799 0.5289 0.9293
H39 H 0.8259 0.4533 0.8335
N34 N 0.8883(4) 0.8127(4) 0.9730(3)
C55 C 0.7712(4) 0.7653(3) 0.9522(2)
C56 C 0.6231(3) 0.7043(3) 0.9268(3)
H40 H 0.5838 0.6232 0.8740
H41 H 0.5767 0.7544 0.8920
H42 H 0.6083 0.6938 0.9974
loop_
_geom_bond_atom_site_label_1
_geom_bond_atom_site_label_2
_geom_bond_site_symmetry_1
_geom_bond_site_symmetry_2
Si1 N2 1_555 1_555
N1 N2 1_555 1_555
N2 N3 1_555 1_555
N3 N4 1_555 1_555
N4 C1 1_555 1_555
N5 N6 1_555 1_555
N6 Si1 1_555 1_555
N7 N6 1_555 1_555
N8 N7 1_555 1_555
N9 Si1 1_555 1_555
N10 N9 1_555 1_555
N11 N10 1_555 1_555
N12 Si1 1_555 1_555
N13 N12 1_555 1_555
N14 N13 1_555 1_555
N15 Si1 1_555 1_555
N16 Si1 1_555 1_555
C1 N1 1_555 1_555
C2 C1 1_555 1_555
C3 C2 1_555 1_555
H1 C3 1_555 1_555
C4 C3 1_555 1_555
H2 C4 1_555 1_555
C5 C4 1_555 1_555
H3 C5 1_555 1_555
C6 C5 1_555 1_555
H4 C6 1_555 1_555
C7 C2 1_555 1_555
H5 C7 1_555 1_555
C8 N5 1_555 1_555
C9 C8 1_555 1_555
C10 C9 1_555 1_555
H6 C10 1_555 1_555
C11 C10 1_555 1_555
H7 C11 1_555 1_555
C12 C11 1_555 1_555
H8 C12 1_555 1_555
C13 C12 1_555 1_555
H9 C13 1_555 1_555
C14 C9 1_555 1_555
H10 C14 1_555 1_555
C15 N15 1_555 1_555
H11 C15 1_555 1_555
C16 C15 1_555 1_555
H12 C16 1_555 1_555
C17 C16 1_555 1_555
H13 C17 1_555 1_555
C18 C17 1_555 1_555
C19 C18 1_555 1_555
H14 C19 1_555 1_555
C20 C19 1_555 1_555
H15 C20 1_555 1_555
C21 C20 1_555 1_555
C22 C21 1_555 1_555
H16 C22 1_555 1_555
C23 C22 1_555 1_555
H17 C23 1_555 1_555
C24 N16 1_555 1_555
H18 C24 1_555 1_555
C25 N16 1_555 1_555
C26 N15 1_555 1_555
Si2 N18 1_555 1_555
N17 N18 1_555 1_555
N18 N19 1_555 1_555
N19 N20 1_555 1_555
N20 C27 1_555 1_555
N21 N22 1_555 1_555
N22 Si2 1_555 1_555
N23 N22 1_555 1_555
N24 N23 1_555 1_555
N25 Si2 1_555 1_555
N26 N25 1_555 1_555
N27 N26 1_555 1_555
N28 Si2 1_555 1_555
N29 N28 1_555 1_555
N30 N29 1_555 1_555
N31 Si2 1_555 1_555
N32 Si2 1_555 1_555
C27 N17 1_555 1_555
C28 C27 1_555 1_555
C29 C28 1_555 1_555
H19 C29 1_555 1_555
C30 C29 1_555 1_555
H20 C30 1_555 1_555
C31 C30 1_555 1_555
H21 C31 1_555 1_555
C32 C31 1_555 1_555
H22 C32 1_555 1_555
C33 C28 1_555 1_555
H23 C33 1_555 1_555
C34 N21 1_555 1_555
C35 C34 1_555 1_555
C36 C35 1_555 1_555
H24 C36 1_555 1_555
C37 C36 1_555 1_555
H25 C37 1_555 1_555
C38 C37 1_555 1_555
H26 C38 1_555 1_555
C39 C38 1_555 1_555
H27 C39 1_555 1_555
C40 C35 1_555 1_555
H28 C40 1_555 1_555
C41 N31 1_555 1_555
H29 C41 1_555 1_555
C42 C41 1_555 1_555
H30 C42 1_555 1_555
C43 C42 1_555 1_555
H31 C43 1_555 1_555
C44 C43 1_555 1_555
C45 C44 1_555 1_555
H32 C45 1_555 1_555
C46 C45 1_555 1_555
H33 C46 1_555 1_555
C47 C46 1_555 1_555
C48 C47 1_555 1_555
H34 C48 1_555 1_555
C49 C48 1_555 1_555
H35 C49 1_555 1_555
C50 N32 1_555 1_555
H36 C50 1_555 1_555
C51 N32 1_555 1_555
C52 N31 1_555 1_555
N33 C53 1_555 1_555
C53 C54 1_555 1_555
C54 H37 1_555 1_555
H38 C54 1_555 1_555
H39 C54 1_555 1_555
N34 C55 1_555 1_555
C55 C56 1_555 1_555
C56 H40 1_555 1_555
H41 C56 1_555 1_555
H42 C56 1_555 1_555
N8 C8 1_555 1_555
C6 C7 1_555 1_555
C13 C14 1_555 1_555
C18 C26 1_555 1_555
C21 C25 1_555 1_555
C23 C24 1_555 1_555
C25 C26 1_555 1_555
N24 C34 1_555 1_555
C32 C33 1_555 1_555
C39 C40 1_555 1_555
C44 C52 1_555 1_555
C47 C51 1_555 1_555
C49 C50 1_555 1_555
C51 C52 1_555 1_555

#END
