
#######################################################################
#
#                 Cambridge Crystallographic Data Centre
#                                CCDC 
#
#######################################################################
#
# If this CIF has been generated from an entry in the Cambridge 
# Structural Database, then it will include bibliographic, chemical, 
# crystal, experimental, refinement or atomic coordinate data resulting 
# from the CCDC's data processing and validation procedures.
#
#######################################################################

data_IYEQOT
_chemical_formula_moiety         'C18 H20 N2 O3'
_chemical_name_systematic        
15-t-Butyl-12-methyl-12,15-diazatetracyclo[7.5.1.0^2,7^.0^10,14^]pentadeca-2,4,6-triene-8,11,13-trione
_symmetry_cell_setting           triclinic
_symmetry_space_group_name_H-M   'P -1'
_symmetry_Int_Tables_number      2
_space_group_name_Hall           '-P 1'
loop_
_symmetry_equiv_pos_site_id
_symmetry_equiv_pos_as_xyz
1 x,y,z
2 -x,-y,-z
_cell_length_a                   8.4105(10)
_cell_length_b                   13.2110(15)
_cell_length_c                   14.3414(16)
_cell_angle_alpha                86.521(2)
_cell_angle_beta                 80.026(2)
_cell_angle_gamma                87.690(2)
_cell_volume                     1565.79
_exptl_crystal_colour            colorless
_exptl_crystal_description       block
_cell_formula_units_Z            4
loop_
_atom_site_label
_atom_site_type_symbol
_atom_site_fract_x
_atom_site_fract_y
_atom_site_fract_z
N1 N 0.79245(14) 0.60684(8) 0.17669(8)
N2 N 1.21752(14) 0.67694(9) 0.27641(8)
O1 O 0.93664(14) 0.39537(8) 0.28805(8)
O2 O 1.10179(13) 0.83725(8) 0.28887(8)
O3 O 1.28603(13) 0.51281(8) 0.23695(8)
C1 C 0.93613(17) 0.53982(10) 0.17840(10)
H1 H 0.9475 0.4901 0.1276
C2 C 0.90991(17) 0.48603(10) 0.27613(10)
C3 C 0.84903(17) 0.55360(10) 0.35469(10)
C4 C 0.8317(2) 0.51683(12) 0.44941(11)
H2 H 0.8552 0.4474 0.4642
C5 C 0.7803(2) 0.58210(13) 0.52157(11)
H3 H 0.7686 0.5575 0.5859
C6 C 0.7459(2) 0.68341(13) 0.49954(11)
H4 H 0.7121 0.7281 0.5491
C7 C 0.76032(18) 0.72023(11) 0.40553(10)
H5 H 0.7351 0.7896 0.3912
C8 C 0.81179(16) 0.65542(10) 0.33241(10)
C9 C 0.82884(16) 0.69279(10) 0.22914(9)
H6 H 0.7555 0.7529 0.2205
C10 C 1.01033(17) 0.71630(10) 0.18780(9)
H7 H 1.0180 0.7629 0.1297
C11 C 1.10945(17) 0.75416(10) 0.25650(10)
C12 C 1.20694(17) 0.59025(10) 0.22791(10)
C13 C 1.08389(17) 0.61147(10) 0.16306(9)
H8 H 1.1386 0.6129 0.0953
C14 C 1.33309(19) 0.68610(12) 0.34043(11)
H9 H 1.3827 0.7525 0.3286
H10 H 1.4171 0.6325 0.3294
H11 H 1.2770 0.6794 0.4062
C15 C 0.73463(17) 0.62349(10) 0.08416(10)
C16 C 0.59403(18) 0.70092(12) 0.09573(11)
H12 H 0.5160 0.6817 0.1524
H13 H 0.5412 0.7027 0.0399
H14 H 0.6346 0.7682 0.1023
C17 C 0.86346(19) 0.66113(12) 0.00106(10)
H15 H 0.8952 0.7293 0.0124
H16 H 0.8191 0.6633 -0.0579
H17 H 0.9582 0.6148 -0.0043
C18 C 0.6713(2) 0.52208(12) 0.06234(12)
H18 H 0.7577 0.4698 0.0605
H19 H 0.6353 0.5289 0.0008
H20 H 0.5803 0.5026 0.1118
N3 N 0.81503(14) 0.10385(8) 0.30821(8)
N4 N 0.75518(15) 0.08605(9) 0.02860(8)
O4 O 0.57097(14) -0.09566(8) 0.26408(9)
O5 O 0.73288(14) 0.25978(8) 0.02998(8)
O6 O 0.83658(16) -0.08101(8) 0.04943(8)
C19 C 0.79476(17) 0.01209(10) 0.25909(10)
H21 H 0.8505 -0.0479 0.2866
C20 C 0.61816(17) -0.00928(10) 0.25860(9)
C21 C 0.50983(17) 0.08139(10) 0.25199(9)
C22 C 0.34411(18) 0.07135(12) 0.25496(10)
H22 H 0.2995 0.0059 0.2603
C23 C 0.24528(18) 0.15729(13) 0.25005(11)
H23 H 0.1325 0.1508 0.2526
C24 C 0.31074(19) 0.25312(12) 0.24142(11)
H24 H 0.2424 0.3117 0.2374
C25 C 0.47498(18) 0.26397(11) 0.23865(10)
H25 H 0.5188 0.3297 0.2321
C26 C 0.57575(16) 0.17819(10) 0.24550(9)
C27 C 0.75448(16) 0.18578(10) 0.24802(9)
H26 H 0.7796 0.2540 0.2674
C28 C 0.85777(17) 0.16072(10) 0.15034(10)
H27 H 0.9627 0.1962 0.1402
C29 C 0.77490(17) 0.17947(11) 0.06464(10)
C30 C 0.82543(18) 0.00571(11) 0.07466(10)
C31 C 0.88665(17) 0.04517(10) 0.15821(10)
H28 H 1.0047 0.0286 0.1537
C32 C 0.6805(2) 0.07581(12) -0.05450(11)
H29 H 0.7469 0.1085 -0.1102
H30 H 0.5725 0.1083 -0.0445
H31 H 0.6718 0.0037 -0.0647
C33 C 0.77826(17) 0.10669(10) 0.41364(9)
C34 C 0.8075(2) 0.00052(11) 0.45700(11)
H32 H 0.7258 -0.0449 0.4438
H33 H 0.8003 0.0035 0.5257
H34 H 0.9152 -0.0252 0.4293
C35 C 0.89799(19) 0.17863(11) 0.44195(11)
H35 H 1.0084 0.1520 0.4225
H36 H 0.8763 0.1841 0.5109
H37 H 0.8859 0.2458 0.4106
C36 C 0.60670(19) 0.14316(14) 0.45407(11)
H38 H 0.5891 0.2132 0.4306
H39 H 0.5923 0.1401 0.5235
H40 H 0.5288 0.0995 0.4340
loop_
_geom_bond_atom_site_label_1
_geom_bond_atom_site_label_2
_geom_bond_site_symmetry_1
_geom_bond_site_symmetry_2
N1 C1 1_555 1_555
N2 C11 1_555 1_555
N3 C19 1_555 1_555
N4 C29 1_555 1_555
O1 C2 1_555 1_555
O2 C11 1_555 1_555
O3 C12 1_555 1_555
O4 C20 1_555 1_555
O5 C29 1_555 1_555
O6 C30 1_555 1_555
C1 H1 1_555 1_555
C2 C1 1_555 1_555
C3 C2 1_555 1_555
C4 C3 1_555 1_555
H2 C4 1_555 1_555
C5 C4 1_555 1_555
H3 C5 1_555 1_555
C6 C5 1_555 1_555
H4 C6 1_555 1_555
C7 C6 1_555 1_555
H5 C7 1_555 1_555
C8 C3 1_555 1_555
C9 N1 1_555 1_555
H6 C9 1_555 1_555
C10 C9 1_555 1_555
H7 C10 1_555 1_555
C11 C10 1_555 1_555
C12 N2 1_555 1_555
C13 C1 1_555 1_555
H8 C13 1_555 1_555
C14 N2 1_555 1_555
H9 C14 1_555 1_555
H10 C14 1_555 1_555
H11 C14 1_555 1_555
C15 N1 1_555 1_555
C16 C15 1_555 1_555
H12 C16 1_555 1_555
H13 C16 1_555 1_555
H14 C16 1_555 1_555
C17 C15 1_555 1_555
H15 C17 1_555 1_555
H16 C17 1_555 1_555
H17 C17 1_555 1_555
C18 C15 1_555 1_555
H18 C18 1_555 1_555
H19 C18 1_555 1_555
H20 C18 1_555 1_555
C19 H21 1_555 1_555
C20 C19 1_555 1_555
C21 C20 1_555 1_555
C22 C21 1_555 1_555
H22 C22 1_555 1_555
C23 C22 1_555 1_555
H23 C23 1_555 1_555
C24 C23 1_555 1_555
H24 C24 1_555 1_555
C25 C24 1_555 1_555
H25 C25 1_555 1_555
C26 C21 1_555 1_555
C27 N3 1_555 1_555
H26 C27 1_555 1_555
C28 C27 1_555 1_555
H27 C28 1_555 1_555
C29 C28 1_555 1_555
C30 N4 1_555 1_555
C31 C19 1_555 1_555
H28 C31 1_555 1_555
C32 N4 1_555 1_555
H29 C32 1_555 1_555
H30 C32 1_555 1_555
H31 C32 1_555 1_555
C33 N3 1_555 1_555
C34 C33 1_555 1_555
H32 C34 1_555 1_555
H33 C34 1_555 1_555
H34 C34 1_555 1_555
C35 C33 1_555 1_555
H35 C35 1_555 1_555
H36 C35 1_555 1_555
H37 C35 1_555 1_555
C36 C33 1_555 1_555
H38 C36 1_555 1_555
H39 C36 1_555 1_555
H40 C36 1_555 1_555
C7 C8 1_555 1_555
C8 C9 1_555 1_555
C10 C13 1_555 1_555
C12 C13 1_555 1_555
C25 C26 1_555 1_555
C26 C27 1_555 1_555
C28 C31 1_555 1_555
C30 C31 1_555 1_555

#END
