
#######################################################################
#
#                 Cambridge Crystallographic Data Centre
#                                CCDC 
#
#######################################################################
#
# If this CIF has been generated from an entry in the Cambridge 
# Structural Database, then it will include bibliographic, chemical, 
# crystal, experimental, refinement or atomic coordinate data resulting 
# from the CCDC's data processing and validation procedures.
#
#######################################################################

data_IYIBID
_chemical_formula_moiety         'C19 H17 N5,C1 H4 O1'
_chemical_name_systematic        
'6-amino-2-methyl-8-phenyl-2,3,8,8a-tetrahydroisoquinoline-5,7,7(1H)-tricarbonitrile methanol solvate'
_symmetry_cell_setting           monoclinic
_symmetry_space_group_name_H-M   'P 21/c'
_symmetry_Int_Tables_number      14
_space_group_name_Hall           '-P 2ybc'
loop_
_symmetry_equiv_pos_site_id
_symmetry_equiv_pos_as_xyz
1 x,y,z
2 -x,1/2+y,1/2-z
3 -x,-y,-z
4 x,1/2-y,1/2+z
_cell_length_a                   11.789(5)
_cell_length_b                   11.593(4)
_cell_length_c                   17.470(3)
_cell_angle_alpha                90
_cell_angle_beta                 123.68(2)
_cell_angle_gamma                90
_cell_volume                     1986.85
_exptl_crystal_colour            'light yellow'
_exptl_crystal_description       block
_cell_formula_units_Z            4
loop_
_atom_site_label
_atom_site_type_symbol
_atom_site_fract_x
_atom_site_fract_y
_atom_site_fract_z
N1 N 0.0712(4) 0.8591(3) 0.3369(3)
N2 N 0.3979(5) 0.9579(4) 0.3024(4)
N3 N 0.0965(4) 1.1107(3) 0.1999(3)
H1 H 0.0493 1.1703 0.1698
H2 H 0.1713 1.1189 0.2530
N4 N -0.2120(5) 1.1474(4) -0.0142(4)
N5 N -0.1975(4) 0.6378(3) -0.0078(3)
C1 C 0.1105(5) 0.8798(4) 0.2924(4)
C2 C 0.1444(4) 0.9042(4) 0.2246(3)
C3 C 0.2874(5) 0.9376(4) 0.2719(4)
C4 C 0.0529(5) 1.0038(4) 0.1638(4)
C5 C -0.0601(5) 0.9785(4) 0.0830(4)
C6 C -0.1436(5) 1.0730(5) 0.0293(4)
C7 C -0.2082(5) 0.8425(5) -0.0387(4)
H3 H -0.2529 0.9055 -0.0769
C8 C -0.2571(5) 0.7261(5) -0.0771(4)
H4 H -0.3555 0.7237 -0.1084
H5 H -0.2356 0.7106 -0.1223
C9 C -0.2285(5) 0.5232(5) -0.0510(4)
H6 H -0.3255 0.5141 -0.0916
H7 H -0.1926 0.4649 -0.0042
H8 H -0.1877 0.5159 -0.0854
C10 C -0.0526(5) 0.6550(4) 0.0530(3)
H9 H -0.0124 0.6612 0.0175
H10 H -0.0116 0.5896 0.0942
C11 C -0.0250(4) 0.7653(4) 0.1087(3)
H11 H -0.0557 0.7528 0.1499
C12 C 0.1244(4) 0.7956(4) 0.1669(3)
H12 H 0.1493 0.8181 0.1240
C13 C 0.2200(4) 0.6991(4) 0.2246(3)
C14 C 0.3355(4) 0.6824(4) 0.2243(3)
H13 H 0.3521 0.7290 0.1882
C15 C 0.4258(5) 0.5968(5) 0.2772(4)
H14 H 0.5036 0.5861 0.2767
C16 C 0.4035(6) 0.5272(5) 0.3307(4)
H15 H 0.4660 0.4700 0.3669
C17 C 0.2888(6) 0.5423(5) 0.3302(5)
H16 H 0.2725 0.4954 0.3663
C18 C -0.1051(5) 0.8629(4) 0.0462(3)
C19 C 0.1973(5) 0.6265(4) 0.2769(4)
H17 H 0.1181 0.6347 0.2759
C20 C 0.4166(10) 0.1983(9) 0.4271(8)
H18 H 0.4848 0.1569 0.4809
H19 H 0.4123 0.2764 0.4435
H20 H 0.4397 0.1978 0.3823
O1 O 0.2849(4) 0.1432(4) 0.3886(3)
H21 H 0.250(5) 0.139(4) 0.416(3)
loop_
_geom_bond_atom_site_label_1
_geom_bond_atom_site_label_2
_geom_bond_site_symmetry_1
_geom_bond_site_symmetry_2
N1 C1 1_555 1_555
N2 C3 1_555 1_555
N3 H1 1_555 1_555
H2 N3 1_555 1_555
N4 C6 1_555 1_555
N5 C8 1_555 1_555
C1 C2 1_555 1_555
C2 C3 1_555 1_555
C4 N3 1_555 1_555
C5 C4 1_555 1_555
C6 C5 1_555 1_555
C7 H3 1_555 1_555
C8 C7 1_555 1_555
H4 C8 1_555 1_555
H5 C8 1_555 1_555
C9 N5 1_555 1_555
H6 C9 1_555 1_555
H7 C9 1_555 1_555
H8 C9 1_555 1_555
C10 N5 1_555 1_555
H9 C10 1_555 1_555
H10 C10 1_555 1_555
C11 C10 1_555 1_555
H11 C11 1_555 1_555
C12 C2 1_555 1_555
H12 C12 1_555 1_555
C13 C12 1_555 1_555
C14 C13 1_555 1_555
H13 C14 1_555 1_555
C15 C14 1_555 1_555
H14 C15 1_555 1_555
C16 C15 1_555 1_555
H15 C16 1_555 1_555
C17 C16 1_555 1_555
H16 C17 1_555 1_555
C18 C5 1_555 1_555
C19 C13 1_555 1_555
H17 C19 1_555 1_555
C20 H18 1_555 1_555
H19 C20 1_555 1_555
H20 C20 1_555 1_555
O1 C20 1_555 1_555
H21 O1 1_555 1_555
C2 C4 1_555 1_555
C7 C18 1_555 1_555
C11 C12 1_555 1_555
C11 C18 1_555 1_555
C17 C19 1_555 1_555

#END
