
#######################################################################
#
#                 Cambridge Crystallographic Data Centre
#                                CCDC 
#
#######################################################################
#
# If this CIF has been generated from an entry in the Cambridge 
# Structural Database, then it will include bibliographic, chemical, 
# crystal, experimental, refinement or atomic coordinate data resulting 
# from the CCDC's data processing and validation procedures.
#
#######################################################################

data_IYICIC
_chemical_formula_moiety         'C25 H18 Br2 O10'
_chemical_name_systematic        
1-(2-Bromo-4,5-methylenedioxy-3-methoxybenzoyloxy)-2-(2-bromo-3,4-methylenedioxy-5-methoxybenzoyloxymethyl)benzene
_symmetry_cell_setting           monoclinic
_symmetry_space_group_name_H-M   'P 21/c'
_symmetry_Int_Tables_number      14
_space_group_name_Hall           '-P 2ybc'
loop_
_symmetry_equiv_pos_site_id
_symmetry_equiv_pos_as_xyz
1 x,y,z
2 x,1/2-y,1/2+z
3 -x,-y,-z
4 -x,1/2+y,1/2-z
_cell_length_a                   9.442(4)
_cell_length_b                   29.93(1)
_cell_length_c                   8.869(3)
_cell_angle_alpha                90
_cell_angle_beta                 100.21(2)
_cell_angle_gamma                90
_cell_volume                     2466.68
_exptl_crystal_colour            colorless
_exptl_crystal_description       prismatic
_cell_formula_units_Z            4
loop_
_atom_site_label
_atom_site_type_symbol
_atom_site_fract_x
_atom_site_fract_y
_atom_site_fract_z
Br1 Br 1.01030(8) 0.13310(3) 0.49099(9)
Br2 Br 0.63342(9) 0.04650(3) -0.03548(10)
O1 O 0.9298(5) 0.0890(2) -0.0661(6)
O2 O 1.0450(5) 0.1554(2) 0.0200(6)
O3 O 0.9283(6) 0.2209(2) 0.1950(6)
O4 O 0.4069(6) 0.0991(3) 0.1003(7)
O5 O 0.4694(5) 0.1530(2) 0.2734(6)
O6 O 0.7449(7) 0.1601(2) 0.598(1)
O7 O 0.5460(5) 0.1196(2) 0.5777(6)
O8 O 0.6278(6) -0.0265(2) 0.3478(7)
O9 O 0.8536(6) -0.0290(2) 0.2779(7)
O10 O 1.0623(5) 0.0502(2) 0.3382(6)
C1 C 0.4636(8) 0.1570(2) 0.6044(8)
C2 C 0.4876(10) 0.1775(3) 0.7468(9)
C3 C 0.395(1) 0.2126(3) 0.7689(9)
C4 C 0.287(1) 0.2266(3) 0.653(1)
C5 C 0.2676(8) 0.2054(2) 0.5112(8)
C6 C 0.3566(7) 0.1701(2) 0.4843(8)
C7 C 0.3365(8) 0.1471(3) 0.3338(9)
C8 C 0.4928(8) 0.1251(3) 0.1612(8)
C9 C 0.6413(7) 0.1340(2) 0.1226(7)
C10 C 0.7108(7) 0.1735(2) 0.1757(7)
C11 C 0.8478(7) 0.1845(2) 0.1468(7)
C12 C 0.9105(7) 0.1535(3) 0.0599(7)
C13 C 0.8419(7) 0.1141(3) 0.0105(7)
C14 C 0.7062(8) 0.1028(3) 0.0377(8)
C15 C 1.0558(9) 0.1146(4) -0.066(1)
C16 C 0.873(1) 0.2507(3) 0.296(1)
C17 C 0.6859(8) 0.1263(3) 0.5621(9)
C18 C 0.7418(7) 0.0856(2) 0.4922(7)
C19 C 0.6536(7) 0.0481(2) 0.4603(9)
C20 C 0.7000(7) 0.0123(2) 0.3894(9)
C21 C 0.8342(8) 0.0119(3) 0.3455(8)
C22 C 0.9278(7) 0.0476(2) 0.3749(8)
C23 C 0.8797(7) 0.0850(2) 0.4521(7)
C24 C 1.1022(10) 0.0180(3) 0.2354(10)
C25 C 0.7214(10) -0.0543(3) 0.279(1)
H1 H 0.5643 0.1684 0.8271
H2 H 0.4027 0.2263 0.8691
H3 H 0.2252 0.2517 0.6694
H4 H 0.1898 0.2155 0.4321
H5 H 0.2552 0.1584 0.2645
H6 H 0.3194 0.1151 0.3456
H7 H 0.6621 0.1950 0.2330
H8 H 0.8578 0.2357 0.3883
H9 H 0.7786 0.2623 0.2483
H10 H 0.9334 0.2758 0.3248
H11 H 1.0668 0.1219 -0.1694
H12 H 1.1398 0.0982 -0.0203
H13 H 0.5580 0.0476 0.4883
H14 H 0.7418 -0.0818 0.3386
H15 H 0.6753 -0.0631 0.1786
H16 H 1.0960 -0.0116 0.2747
H17 H 1.1971 0.0228 0.2174
H18 H 1.0374 0.0194 0.1377
loop_
_geom_bond_atom_site_label_1
_geom_bond_atom_site_label_2
_geom_bond_site_symmetry_1
_geom_bond_site_symmetry_2
Br1 C23 1_555 1_555
Br2 C14 1_555 1_555
O1 C13 1_555 1_555
O2 C12 1_555 1_555
O3 C11 1_555 1_555
O4 C8 1_555 1_555
O5 C7 1_555 1_555
O6 C17 1_555 1_555
O7 C1 1_555 1_555
O8 C20 1_555 1_555
O9 C21 1_555 1_555
O10 C22 1_555 1_555
C1 C2 1_555 1_555
C2 C3 1_555 1_555
C3 C4 1_555 1_555
C4 C5 1_555 1_555
C5 C6 1_555 1_555
C6 C1 1_555 1_555
C7 C6 1_555 1_555
C8 O5 1_555 1_555
C9 C8 1_555 1_555
C10 C9 1_555 1_555
C11 C10 1_555 1_555
C12 C11 1_555 1_555
C13 C12 1_555 1_555
C14 C9 1_555 1_555
C15 O1 1_555 1_555
C16 O3 1_555 1_555
C17 O7 1_555 1_555
C18 C17 1_555 1_555
C19 C18 1_555 1_555
C20 C19 1_555 1_555
C21 C20 1_555 1_555
C22 C21 1_555 1_555
C23 C18 1_555 1_555
C24 O10 1_555 1_555
C25 O8 1_555 1_555
H1 C2 1_555 1_555
H2 C3 1_555 1_555
H3 C4 1_555 1_555
H4 C5 1_555 1_555
H5 C7 1_555 1_555
H6 C7 1_555 1_555
H7 C10 1_555 1_555
H8 C16 1_555 1_555
H9 C16 1_555 1_555
H10 C16 1_555 1_555
H11 C15 1_555 1_555
H12 C15 1_555 1_555
H13 C19 1_555 1_555
H14 C25 1_555 1_555
H15 C25 1_555 1_555
H16 C24 1_555 1_555
H17 C24 1_555 1_555
H18 C24 1_555 1_555
O2 C15 1_555 1_555
O9 C25 1_555 1_555
C13 C14 1_555 1_555
C22 C23 1_555 1_555

#END
