
#######################################################################
#
#                 Cambridge Crystallographic Data Centre
#                                CCDC 
#
#######################################################################
#
# If this CIF has been generated from an entry in the Cambridge 
# Structural Database, then it will include bibliographic, chemical, 
# crystal, experimental, refinement or atomic coordinate data resulting 
# from the CCDC's data processing and validation procedures.
#
#######################################################################

data_IYIGOO
_chemical_formula_moiety         'C26 H22 N1 O1 1+,Br1 1-'
_chemical_name_systematic        
'5-(4-methylbenzoyl)-2-(4-methylphenyl)-1-phenylpyridinium bromide'
_symmetry_cell_setting           monoclinic
_symmetry_space_group_name_H-M   'P n'
_symmetry_Int_Tables_number      7
_space_group_name_Hall           'P -2yac'
loop_
_symmetry_equiv_pos_site_id
_symmetry_equiv_pos_as_xyz
1 x,y,z
2 1/2+x,-y,1/2+z
_cell_length_a                   7.2250(14)
_cell_length_b                   13.697(3)
_cell_length_c                   22.058(4)
_cell_angle_alpha                90
_cell_angle_beta                 99.11(3)
_cell_angle_gamma                90
_cell_volume                     2155.34
_exptl_crystal_colour            colorless
_exptl_crystal_description       prism
_cell_formula_units_Z            4
loop_
_atom_site_label
_atom_site_type_symbol
_atom_site_fract_x
_atom_site_fract_y
_atom_site_fract_z
Br1 Br 0.37017(5) 0.46439(4) 0.29733(3)
N1 N 0.8884(5) 0.4250(3) 0.31124(16)
C1 C 0.8384(6) 0.5222(3) 0.2984(2)
C2 C 0.7809(7) 0.5466(3) 0.2378(2)
H1 H 0.7433 0.6104 0.2281
C3 C 0.7773(7) 0.4804(4) 0.1918(2)
H2 H 0.7304 0.4982 0.1516
C4 C 0.8424(7) 0.3873(3) 0.2044(2)
C5 C 0.8971(7) 0.3621(3) 0.2650(2)
H3 H 0.9417 0.2993 0.2742
C6 C 0.9254(6) 0.3870(3) 0.37307(19)
C7 C 1.0936(7) 0.3406(3) 0.3926(2)
H4 H 1.1843 0.3359 0.3672
C8 C 1.1234(7) 0.3016(4) 0.4505(2)
H5 H 1.2374 0.2714 0.4646
C9 C 0.9907(8) 0.3058(4) 0.4882(2)
H6 H 1.0129 0.2772 0.5269
C10 C 0.8206(8) 0.3538(3) 0.4679(2)
H7 H 0.7301 0.3581 0.4934
C11 C 0.7878(7) 0.3946(3) 0.4099(2)
H8 H 0.6755 0.4265 0.3959
C12 C 0.8568(7) 0.5961(3) 0.34733(19)
C13 C 1.0125(7) 0.6029(3) 0.3925(2)
H9 H 1.1059 0.5557 0.3958
C14 C 1.0273(9) 0.6794(4) 0.4321(3)
H10 H 1.1317 0.6820 0.4627
C15 C 0.8949(11) 0.7548(4) 0.4297(2)
C16 C 0.7437(9) 0.7450(4) 0.3841(2)
H11 H 0.6529 0.7937 0.3803
C17 C 0.7169(8) 0.6683(3) 0.3437(2)
H12 H 0.6089 0.6641 0.3146
C18 C 0.9148(12) 0.8391(4) 0.4730(3)
H13 H 1.0149 0.8264 0.5062
H14 H 0.7999 0.8480 0.4890
H15 H 0.9425 0.8970 0.4517
C19 C 0.8421(8) 0.3146(4) 0.1529(2)
O1 O 0.7094(6) 0.3146(3) 0.11289(19)
C20 C 1.0080(7) 0.2517(4) 0.1520(2)
C21 C 1.1827(8) 0.2743(4) 0.1826(2)
H16 H 1.1996 0.3297 0.2073
C22 C 1.3347(8) 0.2149(4) 0.1770(3)
H17 H 1.4526 0.2311 0.1981
C23 C 1.3141(9) 0.1325(4) 0.1409(2)
C24 C 1.1376(9) 0.1085(4) 0.1105(3)
H18 H 1.1210 0.0520 0.0868
C25 C 0.9874(8) 0.1672(4) 0.1150(2)
H19 H 0.8701 0.1513 0.0934
C26 C 1.4805(10) 0.0667(5) 0.1337(3)
H20 H 1.5939 0.0952 0.1550
H21 H 1.4895 0.0603 0.0909
H22 H 1.4626 0.0035 0.1506
Br2 Br 0.57394(5) 0.77547(3) 0.17635(3)
N2 N 1.0500(5) 0.8120(3) 0.16273(15)
C27 C 1.1068(6) 0.7167(3) 0.1764(2)
C28 C 1.1648(6) 0.6936(4) 0.2377(2)
H23 H 1.2066 0.6307 0.2482
C29 C 1.1619(7) 0.7617(4) 0.2833(2)
H24 H 1.2040 0.7452 0.3240
C30 C 1.0953(7) 0.8560(3) 0.2681(2)
C31 C 1.0392(7) 0.8781(3) 0.2073(2)
H25 H 0.9926 0.9401 0.1966
C32 C 1.0151(6) 0.8473(3) 0.0996(2)
C33 C 0.8455(7) 0.8918(3) 0.0793(2)
H26 H 0.7505 0.8929 0.1032
C34 C 0.8219(9) 0.9358(4) 0.0206(2)
H27 H 0.7100 0.9673 0.0055
C35 C 0.9634(10) 0.9323(4) -0.0139(3)
H28 H 0.9465 0.9609 -0.0526
C36 C 1.1274(8) 0.8878(4) 0.0077(2)
H29 H 1.2213 0.8858 -0.0166
C37 C 1.1590(7) 0.8450(3) 0.0654(2)
H30 H 1.2732 0.8158 0.0805
C38 C 1.0984(7) 0.6397(3) 0.1294(2)
C39 C 0.9427(7) 0.6262(4) 0.0845(2)
H31 H 0.8450 0.6711 0.0805
C40 C 0.9322(8) 0.5463(4) 0.0456(2)
H32 H 0.8264 0.5375 0.0161
C41 C 1.0755(8) 0.4803(3) 0.0501(2)
C42 C 1.2300(8) 0.4937(4) 0.0942(3)
H33 H 1.3281 0.4491 0.0975
C43 C 1.2423(7) 0.5731(3) 0.1340(2)
H34 H 1.3480 0.5811 0.1637
C44 C 1.0702(10) 0.3962(4) 0.0068(3)
H35 H 0.9442 0.3722 -0.0029
H36 H 1.1504 0.3451 0.0256
H37 H 1.1128 0.4172 -0.0301
C45 C 1.0896(7) 0.9291(4) 0.3193(2)
O2 O 1.2245(6) 0.9304(3) 0.36028(18)
C46 C 0.9292(8) 0.9931(4) 0.3187(2)
C47 C 0.7527(7) 0.9683(3) 0.2896(2)
H38 H 0.7371 0.9118 0.2661
C48 C 0.5972(9) 1.0257(4) 0.2946(2)
H39 H 0.4794 1.0067 0.2748
C49 C 0.6167(8) 1.1107(4) 0.3285(2)
C50 C 0.7987(9) 1.1342(4) 0.3586(2)
H40 H 0.8161 1.1914 0.3816
C51 C 0.9485(8) 1.0764(4) 0.3552(2)
H41 H 1.0650 1.0925 0.3773
C52 C 0.4528(9) 1.1761(4) 0.3346(3)
H42 H 0.4671 1.2372 0.3146
H43 H 0.4481 1.1874 0.3773
H44 H 0.3387 1.1452 0.3159
loop_
_geom_bond_atom_site_label_1
_geom_bond_atom_site_label_2
_geom_bond_site_symmetry_1
_geom_bond_site_symmetry_2
N1 C1 1_555 1_555
C1 C2 1_555 1_555
C2 H1 1_555 1_555
C3 C2 1_555 1_555
H2 C3 1_555 1_555
C4 C3 1_555 1_555
C5 N1 1_555 1_555
H3 C5 1_555 1_555
C6 N1 1_555 1_555
C7 C6 1_555 1_555
H4 C7 1_555 1_555
C8 C7 1_555 1_555
H5 C8 1_555 1_555
C9 C8 1_555 1_555
H6 C9 1_555 1_555
C10 C9 1_555 1_555
H7 C10 1_555 1_555
C11 C6 1_555 1_555
H8 C11 1_555 1_555
C12 C1 1_555 1_555
C13 C12 1_555 1_555
H9 C13 1_555 1_555
C14 C13 1_555 1_555
H10 C14 1_555 1_555
C15 C14 1_555 1_555
C16 C15 1_555 1_555
H11 C16 1_555 1_555
C17 C12 1_555 1_555
H12 C17 1_555 1_555
C18 C15 1_555 1_555
H13 C18 1_555 1_555
H14 C18 1_555 1_555
H15 C18 1_555 1_555
C19 C4 1_555 1_555
O1 C19 1_555 1_555
C20 C19 1_555 1_555
C21 C20 1_555 1_555
H16 C21 1_555 1_555
C22 C21 1_555 1_555
H17 C22 1_555 1_555
C23 C22 1_555 1_555
C24 C23 1_555 1_555
H18 C24 1_555 1_555
C25 C20 1_555 1_555
H19 C25 1_555 1_555
C26 C23 1_555 1_555
H20 C26 1_555 1_555
H21 C26 1_555 1_555
H22 C26 1_555 1_555
N2 C27 1_555 1_555
C27 C28 1_555 1_555
C28 H23 1_555 1_555
C29 C28 1_555 1_555
H24 C29 1_555 1_555
C30 C29 1_555 1_555
C31 N2 1_555 1_555
H25 C31 1_555 1_555
C32 N2 1_555 1_555
C33 C32 1_555 1_555
H26 C33 1_555 1_555
C34 C33 1_555 1_555
H27 C34 1_555 1_555
C35 C34 1_555 1_555
H28 C35 1_555 1_555
C36 C35 1_555 1_555
H29 C36 1_555 1_555
C37 C32 1_555 1_555
H30 C37 1_555 1_555
C38 C27 1_555 1_555
C39 C38 1_555 1_555
H31 C39 1_555 1_555
C40 C39 1_555 1_555
H32 C40 1_555 1_555
C41 C40 1_555 1_555
C42 C41 1_555 1_555
H33 C42 1_555 1_555
C43 C38 1_555 1_555
H34 C43 1_555 1_555
C44 C41 1_555 1_555
H35 C44 1_555 1_555
H36 C44 1_555 1_555
H37 C44 1_555 1_555
C45 C30 1_555 1_555
O2 C45 1_555 1_555
C46 C45 1_555 1_555
C47 C46 1_555 1_555
H38 C47 1_555 1_555
C48 C47 1_555 1_555
H39 C48 1_555 1_555
C49 C48 1_555 1_555
C50 C49 1_555 1_555
H40 C50 1_555 1_555
C51 C46 1_555 1_555
H41 C51 1_555 1_555
C52 C49 1_555 1_555
H42 C52 1_555 1_555
H43 C52 1_555 1_555
H44 C52 1_555 1_555
C4 C5 1_555 1_555
C10 C11 1_555 1_555
C16 C17 1_555 1_555
C24 C25 1_555 1_555
C30 C31 1_555 1_555
C36 C37 1_555 1_555
C42 C43 1_555 1_555
C50 C51 1_555 1_555

#END
