
#######################################################################
#
#                 Cambridge Crystallographic Data Centre
#                                CCDC 
#
#######################################################################
#
# If this CIF has been generated from an entry in the Cambridge 
# Structural Database, then it will include bibliographic, chemical, 
# crystal, experimental, refinement or atomic coordinate data resulting 
# from the CCDC's data processing and validation procedures.
#
#######################################################################

data_IYITUG
_chemical_formula_moiety         'C23 H29 N1 O2'
_chemical_name_systematic        
1-(4-Hexyl-2-hydroxy-9-methyl-9H-carbazol-3-yl)-2-methylpropan-1-one
_symmetry_cell_setting           triclinic
_symmetry_space_group_name_H-M   'P -1'
_symmetry_Int_Tables_number      2
_space_group_name_Hall           '-P 1'
loop_
_symmetry_equiv_pos_site_id
_symmetry_equiv_pos_as_xyz
1 x,y,z
2 -x,-y,-z
_cell_length_a                   10.4555(8)
_cell_length_b                   12.6948(10)
_cell_length_c                   15.6289(12)
_cell_angle_alpha                83.9870(10)
_cell_angle_beta                 80.6280(10)
_cell_angle_gamma                89.6730(10)
_cell_volume                     2035.34
_exptl_crystal_colour            colorless
_exptl_crystal_description       prismatic
_cell_formula_units_Z            4
loop_
_atom_site_label
_atom_site_type_symbol
_atom_site_fract_x
_atom_site_fract_y
_atom_site_fract_z
N1 N 0.49701(17) -0.01013(13) 0.27400(12)
O1 O 0.29911(16) 0.07841(11) 0.01644(10)
H1 H 0.2846 0.0145 0.0206
O2 O 0.24824(15) 0.36223(12) 0.05325(10)
C1 C 0.50963(18) 0.15890(16) 0.30707(13)
C2 C 0.5424(2) 0.23535(17) 0.35834(14)
H3 H 0.5211 0.3059 0.3462
C3 C 0.6067(2) 0.2049(2) 0.42713(15)
H4 H 0.6281 0.2556 0.4614
C4 C 0.6398(2) 0.1007(2) 0.44613(16)
H5 H 0.6856 0.0828 0.4918
C5 C 0.6064(2) 0.0232(2) 0.39871(15)
H6 H 0.6274 -0.0472 0.4121
C6 C 0.5402(2) 0.05327(17) 0.33025(14)
C7 C 0.44257(18) 0.05355(15) 0.21304(13)
C8 C 0.44813(17) 0.15977(14) 0.23058(13)
C9 C 0.40446(18) 0.23952(14) 0.17329(12)
C10 C 0.35840(18) 0.20975(14) 0.10012(13)
C11 C 0.35114(18) 0.10233(15) 0.08697(13)
C12 C 0.39261(19) 0.02323(15) 0.14288(14)
H7 H 0.3872 -0.0477 0.1337
C13 C 0.32354(18) 0.29286(15) 0.03283(13)
C14 C 0.3932(2) 0.29385(18) -0.05945(14)
H8 H 0.3889 0.2224 -0.0773
C15 C 0.5301(3) 0.3222(4) -0.0622(2)
H9 H 0.5804 0.3025 -0.1150
H10 H 0.5612 0.2854 -0.0129
H11 H 0.5380 0.3972 -0.0603
C16 C 0.3383(3) 0.3685(3) -0.12211(19)
H12 H 0.3469 0.4395 -0.1075
H13 H 0.2483 0.3519 -0.1197
H14 H 0.3840 0.3629 -0.1799
C17 C 0.5095(3) -0.12362(18) 0.2758(2)
H15 H 0.4447 -0.1511 0.2468
H16 H 0.4980 -0.1549 0.3352
H17 H 0.5940 -0.1403 0.2466
C18 C 0.4123(2) 0.35293(15) 0.19249(13)
H18 H 0.4109 0.3993 0.1392
H19 H 0.4940 0.3645 0.2121
C19 C 0.3014(2) 0.38159(16) 0.26164(14)
H20 H 0.2205 0.3753 0.2397
H21 H 0.2983 0.3309 0.3129
C20 C 0.3118(2) 0.49110(17) 0.28802(14)
H22 H 0.3119 0.5419 0.2371
H23 H 0.3942 0.4982 0.3080
C21 C 0.2041(2) 0.51839(19) 0.35894(15)
H24 H 0.1221 0.5140 0.3381
H25 H 0.2019 0.4659 0.4090
C22 C 0.2172(3) 0.6269(2) 0.38797(18)
H26 H 0.2983 0.6309 0.4101
H27 H 0.2210 0.6794 0.3378
C23 C 0.1079(3) 0.6534(3) 0.45735(19)
H28 H 0.0279 0.6545 0.4346
H29 H 0.1238 0.7218 0.4749
H30 H 0.1023 0.6010 0.5068
N2 N -0.12858(16) 0.48504(12) 0.26396(11)
O3 O 0.19574(14) 0.57909(11) 0.00897(10)
H2 H 0.2057 0.5148 0.0108
O4 O 0.22650(15) 0.86160(12) 0.05554(10)
C24 C -0.15982(18) 0.65331(15) 0.30027(12)
C25 C -0.2193(2) 0.72850(16) 0.35240(13)
H31 H -0.1944 0.7994 0.3405
C26 C -0.3147(2) 0.69668(18) 0.42134(14)
H32 H -0.3541 0.7468 0.4560
C27 C -0.3532(2) 0.5924(2) 0.44031(15)
H33 H -0.4188 0.5734 0.4871
C28 C -0.2963(2) 0.51552(18) 0.39113(15)
H34 H -0.3221 0.4449 0.4041
C29 C -0.1999(2) 0.54713(16) 0.32203(13)
C30 C -0.04575(18) 0.55037(14) 0.20376(13)
C31 C -0.06100(17) 0.65566(14) 0.22314(12)
C32 C 0.00970(18) 0.73657(14) 0.16766(12)
C33 C 0.09402(17) 0.70890(14) 0.09465(12)
C34 C 0.10808(18) 0.60184(15) 0.07944(13)
C35 C 0.03918(19) 0.52206(15) 0.13334(13)
H35 H 0.0496 0.4516 0.1226
C36 C 0.16337(18) 0.79376(14) 0.03097(13)
C37 C 0.1450(2) 0.79945(17) -0.06250(13)
H36 H 0.1678 0.7304 -0.0830
C38 C 0.0071(3) 0.8184(3) -0.0691(2)
H37 H -0.0456 0.7639 -0.0330
H38 H -0.0051 0.8175 -0.1286
H39 H -0.0176 0.8861 -0.0499
C39 C 0.2280(3) 0.8814(3) -0.12153(18)
H40 H 0.2184 0.8754 -0.1809
H41 H 0.3170 0.8709 -0.1151
H42 H 0.2017 0.9507 -0.1065
C40 C -0.1403(3) 0.37213(18) 0.26395(18)
H43 H -0.2102 0.3564 0.2342
H44 H -0.1576 0.3395 0.3230
H45 H -0.0609 0.3452 0.2347
C41 C -0.0103(2) 0.84946(14) 0.18848(12)
H46 H -0.1019 0.8605 0.2076
H47 H 0.0170 0.8969 0.1359
C42 C 0.0643(2) 0.87666(15) 0.25853(13)
H48 H 0.0410 0.8261 0.3096
H49 H 0.1563 0.8695 0.2378
C43 C 0.0401(2) 0.98663(17) 0.28464(15)
H50 H -0.0522 0.9944 0.3037
H51 H 0.0655 1.0372 0.2338
C44 C 0.1110(2) 1.01369(18) 0.35611(14)
H52 H 0.2033 1.0057 0.3373
H53 H 0.0851 0.9635 0.4072
C45 C 0.0865(3) 1.1247(2) 0.38144(18)
H54 H 0.1106 1.1749 0.3302
H55 H -0.0054 1.1323 0.4018
C46 C 0.1601(3) 1.1510(2) 0.45096(18)
H56 H 0.1372 1.1013 0.5018
H57 H 0.1389 1.2213 0.4656
H58 H 0.2515 1.1473 0.4301
loop_
_geom_bond_atom_site_label_1
_geom_bond_atom_site_label_2
_geom_bond_site_symmetry_1
_geom_bond_site_symmetry_2
N1 C6 1_555 1_555
N2 C29 1_555 1_555
O1 H1 1_555 1_555
O2 C13 1_555 1_555
O3 H2 1_555 1_555
O4 C36 1_555 1_555
C1 C2 1_555 1_555
C2 H3 1_555 1_555
C3 C2 1_555 1_555
H4 C3 1_555 1_555
C4 C3 1_555 1_555
H5 C4 1_555 1_555
C5 C4 1_555 1_555
H6 C5 1_555 1_555
C6 C1 1_555 1_555
C7 N1 1_555 1_555
C8 C1 1_555 1_555
C9 C8 1_555 1_555
C10 C9 1_555 1_555
C11 O1 1_555 1_555
C12 C7 1_555 1_555
H7 C12 1_555 1_555
C13 C10 1_555 1_555
C14 C13 1_555 1_555
H8 C14 1_555 1_555
C15 C14 1_555 1_555
H9 C15 1_555 1_555
H10 C15 1_555 1_555
H11 C15 1_555 1_555
C16 C14 1_555 1_555
H12 C16 1_555 1_555
H13 C16 1_555 1_555
H14 C16 1_555 1_555
C17 N1 1_555 1_555
H15 C17 1_555 1_555
H16 C17 1_555 1_555
H17 C17 1_555 1_555
C18 C9 1_555 1_555
H18 C18 1_555 1_555
H19 C18 1_555 1_555
C19 C18 1_555 1_555
H20 C19 1_555 1_555
H21 C19 1_555 1_555
C20 C19 1_555 1_555
H22 C20 1_555 1_555
H23 C20 1_555 1_555
C21 C20 1_555 1_555
H24 C21 1_555 1_555
H25 C21 1_555 1_555
C22 C21 1_555 1_555
H26 C22 1_555 1_555
H27 C22 1_555 1_555
C23 C22 1_555 1_555
H28 C23 1_555 1_555
H29 C23 1_555 1_555
H30 C23 1_555 1_555
C24 C25 1_555 1_555
C25 H31 1_555 1_555
C26 C25 1_555 1_555
H32 C26 1_555 1_555
C27 C26 1_555 1_555
H33 C27 1_555 1_555
C28 C27 1_555 1_555
H34 C28 1_555 1_555
C29 C24 1_555 1_555
C30 N2 1_555 1_555
C31 C24 1_555 1_555
C32 C31 1_555 1_555
C33 C32 1_555 1_555
C34 O3 1_555 1_555
C35 C30 1_555 1_555
H35 C35 1_555 1_555
C36 C33 1_555 1_555
C37 C36 1_555 1_555
H36 C37 1_555 1_555
C38 C37 1_555 1_555
H37 C38 1_555 1_555
H38 C38 1_555 1_555
H39 C38 1_555 1_555
C39 C37 1_555 1_555
H40 C39 1_555 1_555
H41 C39 1_555 1_555
H42 C39 1_555 1_555
C40 N2 1_555 1_555
H43 C40 1_555 1_555
H44 C40 1_555 1_555
H45 C40 1_555 1_555
C41 C32 1_555 1_555
H46 C41 1_555 1_555
H47 C41 1_555 1_555
C42 C41 1_555 1_555
H48 C42 1_555 1_555
H49 C42 1_555 1_555
C43 C42 1_555 1_555
H50 C43 1_555 1_555
H51 C43 1_555 1_555
C44 C43 1_555 1_555
H52 C44 1_555 1_555
H53 C44 1_555 1_555
C45 C44 1_555 1_555
H54 C45 1_555 1_555
H55 C45 1_555 1_555
C46 C45 1_555 1_555
H56 C46 1_555 1_555
H57 C46 1_555 1_555
H58 C46 1_555 1_555
C5 C6 1_555 1_555
C7 C8 1_555 1_555
C10 C11 1_555 1_555
C11 C12 1_555 1_555
C28 C29 1_555 1_555
C30 C31 1_555 1_555
C33 C34 1_555 1_555
C34 C35 1_555 1_555

#END
