
#######################################################################
#
#                 Cambridge Crystallographic Data Centre
#                                CCDC 
#
#######################################################################
#
# If this CIF has been generated from an entry in the Cambridge 
# Structural Database, then it will include bibliographic, chemical, 
# crystal, experimental, refinement or atomic coordinate data resulting 
# from the CCDC's data processing and validation procedures.
#
#######################################################################

data_IYITIU
_chemical_formula_moiety         'C20 H17 N1 O1'
_chemical_name_systematic        3-Methoxy-9-methyl-5-phenyl-9H-carbazole
_symmetry_cell_setting           orthorhombic
_symmetry_space_group_name_H-M   'P 21 21 21'
_symmetry_Int_Tables_number      19
_space_group_name_Hall           'P 2ac 2ab'
loop_
_symmetry_equiv_pos_site_id
_symmetry_equiv_pos_as_xyz
1 x,y,z
2 1/2-x,-y,1/2+z
3 -x,1/2+y,1/2-z
4 1/2+x,1/2-y,-z
_cell_length_a                   5.8247(5)
_cell_length_b                   13.4193(12)
_cell_length_c                   19.1930(17)
_cell_angle_alpha                90
_cell_angle_beta                 90
_cell_angle_gamma                90
_cell_volume                     1500.19
_exptl_crystal_colour            colorless
_exptl_crystal_description       prismatic
_cell_formula_units_Z            4
loop_
_atom_site_label
_atom_site_type_symbol
_atom_site_fract_x
_atom_site_fract_y
_atom_site_fract_z
N1 N 0.6526(3) 1.06843(10) 0.21374(7)
O1 O 1.0713(3) 1.10318(9) -0.04077(6)
C1 C 0.9107(3) 0.94511(10) 0.19209(7)
C2 C 1.0203(3) 0.85417(10) 0.20610(7)
C3 C 0.9717(3) 0.80813(11) 0.26925(8)
H1 H 1.0425 0.7479 0.2798
C4 C 0.8208(3) 0.84945(13) 0.31684(8)
H2 H 0.7963 0.8171 0.3590
C5 C 0.7069(3) 0.93624(13) 0.30366(9)
H3 H 0.6033 0.9628 0.3355
C6 C 0.7525(3) 0.98334(11) 0.24053(8)
C7 C 0.7423(3) 1.08541(11) 0.14852(8)
C8 C 0.9056(3) 1.01188(10) 0.13251(8)
C9 C 1.0202(3) 1.01526(11) 0.06891(7)
H4 H 1.1287 0.9671 0.0575
C10 C 0.9693(3) 1.09172(11) 0.02302(8)
C11 C 0.8068(3) 1.16345(12) 0.03968(9)
H5 H 0.7753 1.2139 0.0079
C12 C 0.6924(4) 1.16163(12) 0.10141(10)
H6 H 0.5836 1.2100 0.1120
C13 C 1.2700(4) 1.04753(16) -0.05478(10)
H7 H 1.3789 1.0569 -0.0178
H8 H 1.3360 1.0694 -0.0980
H9 H 1.2310 0.9782 -0.0581
C14 C 0.4580(4) 1.12054(15) 0.24349(11)
H10 H 0.3194 1.0983 0.2214
H11 H 0.4759 1.1909 0.2363
H12 H 0.4499 1.1069 0.2925
C15 C 1.1769(3) 0.80505(11) 0.15555(8)
C16 C 1.1272(3) 0.71109(11) 0.13005(8)
H13 H 0.9954 0.6782 0.1449
C17 C 1.2717(4) 0.66560(12) 0.08260(9)
H14 H 1.2366 0.6024 0.0658
C18 C 1.4662(3) 0.71306(13) 0.06027(9)
H15 H 1.5613 0.6828 0.0276
C19 C 1.5206(3) 0.80566(13) 0.08617(9)
H16 H 1.6544 0.8375 0.0719
C20 C 1.3765(3) 0.85110(11) 0.13327(8)
H17 H 1.4138 0.9139 0.1504
loop_
_geom_bond_atom_site_label_1
_geom_bond_atom_site_label_2
_geom_bond_site_symmetry_1
_geom_bond_site_symmetry_2
N1 C6 1_555 1_555
O1 C10 1_555 1_555
C1 C2 1_555 1_555
C2 C3 1_555 1_555
C3 H1 1_555 1_555
C4 C3 1_555 1_555
H2 C4 1_555 1_555
C5 C4 1_555 1_555
H3 C5 1_555 1_555
C6 C1 1_555 1_555
C7 N1 1_555 1_555
C8 C1 1_555 1_555
C9 C8 1_555 1_555
H4 C9 1_555 1_555
C10 C9 1_555 1_555
C11 C10 1_555 1_555
H5 C11 1_555 1_555
C12 C7 1_555 1_555
H6 C12 1_555 1_555
C13 O1 1_555 1_555
H7 C13 1_555 1_555
H8 C13 1_555 1_555
H9 C13 1_555 1_555
C14 N1 1_555 1_555
H10 C14 1_555 1_555
H11 C14 1_555 1_555
H12 C14 1_555 1_555
C15 C2 1_555 1_555
C16 C15 1_555 1_555
H13 C16 1_555 1_555
C17 C16 1_555 1_555
H14 C17 1_555 1_555
C18 C17 1_555 1_555
H15 C18 1_555 1_555
C19 C18 1_555 1_555
H16 C19 1_555 1_555
C20 C15 1_555 1_555
H17 C20 1_555 1_555
C5 C6 1_555 1_555
C7 C8 1_555 1_555
C11 C12 1_555 1_555
C19 C20 1_555 1_555

#END
