
#######################################################################
#
#                 Cambridge Crystallographic Data Centre
#                                CCDC 
#
#######################################################################
#
# If this CIF has been generated from an entry in the Cambridge 
# Structural Database, then it will include bibliographic, chemical, 
# crystal, experimental, refinement or atomic coordinate data resulting 
# from the CCDC's data processing and validation procedures.
#
#######################################################################

data_IYIVOC
_chemical_formula_moiety         'C17 H20 O4'
_chemical_name_systematic        't-Butyl 4-allyl-2-oxochromane-3-carboxylate'
_symmetry_cell_setting           orthorhombic
_symmetry_space_group_name_H-M   'P 21 21 21'
_symmetry_Int_Tables_number      19
_space_group_name_Hall           'P 2ac 2ab'
loop_
_symmetry_equiv_pos_site_id
_symmetry_equiv_pos_as_xyz
1 x,y,z
2 1/2-x,-y,1/2+z
3 -x,1/2+y,1/2-z
4 1/2+x,1/2-y,-z
_cell_length_a                   8.5637(13)
_cell_length_b                   12.1843(18)
_cell_length_c                   15.300(2)
_cell_angle_alpha                90
_cell_angle_beta                 90
_cell_angle_gamma                90
_cell_volume                     1596.44
_exptl_crystal_colour            colorless
_exptl_crystal_description       block
_cell_formula_units_Z            4
loop_
_atom_site_label
_atom_site_type_symbol
_atom_site_fract_x
_atom_site_fract_y
_atom_site_fract_z
O1 O 0.50914(13) 0.53888(9) 0.56987(7)
O2 O 0.57641(14) 0.66614(9) 0.66449(8)
O3 O 0.13826(14) 0.50902(11) 0.75930(8)
O4 O 0.20533(12) 0.61480(9) 0.64346(7)
C1 C 0.39511(19) 0.36738(13) 0.61932(10)
C2 C 0.3220(2) 0.26914(15) 0.59675(13)
H1 H 0.2967 0.2173 0.6409
C3 C 0.2862(3) 0.24659(18) 0.51062(14)
H2 H 0.2376 0.1790 0.4958
C4 C 0.3207(3) 0.32181(18) 0.44601(13)
H3 H 0.2948 0.3058 0.3870
C5 C 0.3923(2) 0.42009(15) 0.46625(11)
H4 H 0.4155 0.4723 0.4220
C6 C 0.42931(18) 0.44040(12) 0.55245(11)
C7 C 0.50313(18) 0.58388(12) 0.65082(10)
C8 C 0.40716(18) 0.52402(12) 0.71886(10)
H5 H 0.4421 0.5489 0.7780
C9 C 0.43551(19) 0.39960(12) 0.71192(10)
H6 H 0.3628 0.3610 0.7528
C10 C 0.60433(19) 0.36942(13) 0.73615(10)
H7 H 0.6193 0.2894 0.7285
H8 H 0.6769 0.4076 0.6960
C11 C 0.6429(2) 0.39996(14) 0.82795(11)
H9 H 0.5842 0.3655 0.8730
C12 C 0.7502(2) 0.46992(15) 0.85204(13)
H10 H 0.8117 0.5063 0.8093
H11 H 0.7668 0.4844 0.9123
C13 C 0.23341(19) 0.54801(12) 0.71019(10)
C14 C 0.04278(18) 0.64489(14) 0.61759(12)
C15 C -0.0473(2) 0.54116(16) 0.59502(13)
H12 H -0.0615 0.4968 0.6479
H13 H 0.0111 0.4988 0.5515
H14 H -0.1497 0.5610 0.5711
C16 C 0.0700(2) 0.71406(16) 0.53645(13)
H15 H 0.1339 0.7780 0.5516
H16 H -0.0306 0.7387 0.5131
H17 H 0.1244 0.6701 0.4923
C17 C -0.0319(2) 0.71187(16) 0.68997(13)
H18 H -0.0421 0.6665 0.7425
H19 H -0.1354 0.7367 0.6712
H20 H 0.0337 0.7757 0.7029
loop_
_geom_bond_atom_site_label_1
_geom_bond_atom_site_label_2
_geom_bond_site_symmetry_1
_geom_bond_site_symmetry_2
O1 C6 1_555 1_555
O2 C7 1_555 1_555
O3 C13 1_555 1_555
O4 C13 1_555 1_555
C1 C2 1_555 1_555
C2 H1 1_555 1_555
C3 C2 1_555 1_555
H2 C3 1_555 1_555
C4 C3 1_555 1_555
H3 C4 1_555 1_555
C5 C4 1_555 1_555
H4 C5 1_555 1_555
C6 C1 1_555 1_555
C7 O1 1_555 1_555
C8 C7 1_555 1_555
H5 C8 1_555 1_555
C9 C1 1_555 1_555
H6 C9 1_555 1_555
C10 C9 1_555 1_555
H7 C10 1_555 1_555
H8 C10 1_555 1_555
C11 C10 1_555 1_555
H9 C11 1_555 1_555
C12 C11 1_555 1_555
H10 C12 1_555 1_555
H11 C12 1_555 1_555
C13 C8 1_555 1_555
C14 O4 1_555 1_555
C15 C14 1_555 1_555
H12 C15 1_555 1_555
H13 C15 1_555 1_555
H14 C15 1_555 1_555
C16 C14 1_555 1_555
H15 C16 1_555 1_555
H16 C16 1_555 1_555
H17 C16 1_555 1_555
C17 C14 1_555 1_555
H18 C17 1_555 1_555
H19 C17 1_555 1_555
H20 C17 1_555 1_555
C5 C6 1_555 1_555
C8 C9 1_555 1_555

#END
