
#######################################################################
#
#                 Cambridge Crystallographic Data Centre
#                                CCDC 
#
#######################################################################
#
# If this CIF has been generated from an entry in the Cambridge 
# Structural Database, then it will include bibliographic, chemical, 
# crystal, experimental, refinement or atomic coordinate data resulting 
# from the CCDC's data processing and validation procedures.
#
#######################################################################

data_IYIWET
_chemical_formula_moiety         'C15 H10 F2 N2 O5'
_chemical_name_systematic        
'Methyl 2-fluoro-3-((2-fluoro-3-nitrobenzoyl)amino)benzoate'
_symmetry_cell_setting           monoclinic
_symmetry_space_group_name_H-M   'P c'
_symmetry_Int_Tables_number      7
_space_group_name_Hall           'P -2yc'
loop_
_symmetry_equiv_pos_site_id
_symmetry_equiv_pos_as_xyz
1 x,y,z
2 x,-y,1/2+z
_cell_length_a                   4.8822(5)
_cell_length_b                   14.1165(15)
_cell_length_c                   10.0699(11)
_cell_angle_alpha                90
_cell_angle_beta                 93.890(2)
_cell_angle_gamma                90
_cell_volume                     692.414
_exptl_crystal_colour            colorless
_exptl_crystal_description       rod
_cell_formula_units_Z            2
loop_
_atom_site_label
_atom_site_type_symbol
_atom_site_fract_x
_atom_site_fract_y
_atom_site_fract_z
O1 O 0.5007(5) 0.19668(17) 0.5287(3)
O2 O -0.1994(9) -0.1941(2) 0.6794(4)
O3 O 0.0470(11) -0.2923(2) 0.5657(6)
O4 O -0.4454(8) 0.3590(2) 0.8562(4)
O5 O -0.3495(8) 0.5045(2) 0.8471(4)
F1 F -0.1322(4) 0.23843(14) 0.7459(2)
F2 F -0.1468(4) -0.01370(15) 0.6486(2)
N1 N -0.3140(7) 0.4233(2) 0.8157(4)
N2 N 0.0764(7) 0.1334(2) 0.5309(3)
H1 H -0.086(11) 0.143(3) 0.536(5)
C1 C -0.0393(6) 0.3131(2) 0.6834(3)
C2 C -0.1171(7) 0.4045(2) 0.7157(4)
C3 C -0.0090(8) 0.4821(3) 0.6537(4)
H2 H -0.0650 0.5436 0.6755
C4 C 0.1808(9) 0.4695(2) 0.5600(4)
H3 H 0.2572 0.5221 0.5190
C5 C 0.2580(8) 0.3788(3) 0.5269(4)
H4 H 0.3867 0.3703 0.4625
C6 C 0.1484(7) 0.2994(2) 0.5872(4)
C7 C 0.2585(7) 0.2047(2) 0.5483(4)
C8 C 0.1531(7) 0.0400(2) 0.4956(4)
C9 C 0.3392(8) 0.0221(3) 0.4006(4)
H5 H 0.4155 0.0726 0.3547
C10 C 0.4130(8) -0.0709(3) 0.3734(4)
H6 H 0.5415 -0.0833 0.3102
C11 C 0.2978(8) -0.1441(3) 0.4389(5)
H7 H 0.3503 -0.2066 0.4205
C12 C 0.1041(8) -0.1286(3) 0.5326(4)
C13 C 0.0343(7) -0.0348(2) 0.5596(4)
C14 C -0.0150(9) -0.2128(3) 0.5951(5)
C15 C -0.3203(17) -0.2756(4) 0.7391(7)
H8 H -0.3891 -0.3189 0.6698
H9 H -0.4706 -0.2554 0.7906
H10 H -0.1826 -0.3074 0.7970
loop_
_geom_bond_atom_site_label_1
_geom_bond_atom_site_label_2
_geom_bond_site_symmetry_1
_geom_bond_site_symmetry_2
O1 C7 1_555 1_555
O2 C14 1_555 1_555
O3 C14 1_555 1_555
O4 N1 1_555 1_555
O5 N1 1_555 1_555
F1 C1 1_555 1_555
F2 C13 1_555 1_555
N1 C2 1_555 1_555
N2 H1 1_555 1_555
C1 C2 1_555 1_555
C2 C3 1_555 1_555
C3 H2 1_555 1_555
C4 C3 1_555 1_555
H3 C4 1_555 1_555
C5 C4 1_555 1_555
H4 C5 1_555 1_555
C6 C1 1_555 1_555
C7 N2 1_555 1_555
C8 N2 1_555 1_555
C9 C8 1_555 1_555
H5 C9 1_555 1_555
C10 C9 1_555 1_555
H6 C10 1_555 1_555
C11 C10 1_555 1_555
H7 C11 1_555 1_555
C12 C11 1_555 1_555
C13 C8 1_555 1_555
C14 C12 1_555 1_555
C15 O2 1_555 1_555
H8 C15 1_555 1_555
H9 C15 1_555 1_555
H10 C15 1_555 1_555
C5 C6 1_555 1_555
C6 C7 1_555 1_555
C12 C13 1_555 1_555

#END
