
#######################################################################
#
#                 Cambridge Crystallographic Data Centre
#                                CCDC 
#
#######################################################################
#
# If this CIF has been generated from an entry in the Cambridge 
# Structural Database, then it will include bibliographic, chemical, 
# crystal, experimental, refinement or atomic coordinate data resulting 
# from the CCDC's data processing and validation procedures.
#
#######################################################################

data_IYIXIZ
_chemical_formula_moiety         'C30 H25 N2 1+,H2 O1,Cl1 1-'
_chemical_name_systematic        
'2-methyl-1,3-bis(2-naphthylmethyl)-1H-benzimidazol-3-ium chloride monohydrate'
_chemical_properties_biological  'in vitro anti-tumor activity investigated'
_symmetry_cell_setting           triclinic
_symmetry_space_group_name_H-M   'P -1'
_symmetry_Int_Tables_number      2
_space_group_name_Hall           '-P 1'
loop_
_symmetry_equiv_pos_site_id
_symmetry_equiv_pos_as_xyz
1 x,y,z
2 -x,-y,-z
_cell_length_a                   10.1897(17)
_cell_length_b                   10.4212(17)
_cell_length_c                   11.4397(19)
_cell_angle_alpha                80.323(2)
_cell_angle_beta                 86.985(2)
_cell_angle_gamma                76.344(2)
_cell_volume                     1163.53
_exptl_crystal_colour            yellow
_exptl_crystal_description       block
_cell_formula_units_Z            2
loop_
_atom_site_label
_atom_site_type_symbol
_atom_site_fract_x
_atom_site_fract_y
_atom_site_fract_z
Cl1 Cl 0.18069(4) 0.46292(4) 0.16431(3)
O1 O 0.04273(14) 0.31412(12) 0.00145(12)
H1 H -0.027(3) 0.374(3) -0.044(2)
H2 H 0.071(3) 0.365(3) 0.043(2)
N1 N 0.50390(13) 0.78240(12) 0.07926(11)
N2 N 0.30419(12) 0.91759(12) 0.06995(10)
C1 C 0.37846(16) 0.80419(14) 0.03810(13)
C2 C 0.33000(18) 0.71614(16) -0.03055(14)
H3 H 0.2977 0.6487 0.0231
H4 H 0.4030 0.6742 -0.0779
H5 H 0.2580 0.7685 -0.0812
C3 C 0.51127(15) 0.88496(14) 0.14116(12)
C4 C 0.61661(16) 0.90804(16) 0.20102(13)
H6 H 0.7014 0.8497 0.2063
C5 C 0.58781(17) 1.02283(17) 0.25218(14)
H7 H 0.6551 1.0420 0.2936
C6 C 0.46007(17) 1.11128(17) 0.24346(14)
H8 H 0.4456 1.1879 0.2784
C7 C 0.35562(16) 1.08794(15) 0.18477(13)
H9 H 0.2709 1.1464 0.1791
C8 C 0.38441(14) 0.97150(14) 0.13432(12)
C9 C 0.61799(17) 0.66876(15) 0.06673(14)
H10 H 0.6995 0.7014 0.0485
H11 H 0.6014 0.6271 0.0009
C10 C 0.63939(16) 0.56485(14) 0.17832(13)
C11 C 0.53413(15) 0.52428(14) 0.24114(13)
H12 H 0.4464 0.5602 0.2145
C12 C 0.55675(15) 0.42840(14) 0.34612(13)
C13 C 0.44881(16) 0.38780(15) 0.41427(13)
H13 H 0.3604 0.4229 0.3891
C14 C 0.47384(17) 0.29719(15) 0.51706(14)
H14 H 0.4025 0.2704 0.5605
C15 C 0.60752(17) 0.24437(16) 0.55714(14)
H15 H 0.6235 0.1835 0.6272
C16 C 0.71341(17) 0.28200(15) 0.49376(13)
H16 H 0.8009 0.2469 0.5214
C17 C 0.69146(15) 0.37413(14) 0.38600(13)
C18 C 0.79833(16) 0.41545(15) 0.31732(14)
H17 H 0.8870 0.3789 0.3412
C19 C 0.77323(16) 0.50800(15) 0.21674(14)
H18 H 0.8448 0.5339 0.1730
C20 C 0.15893(15) 0.97423(16) 0.05070(13)
H19 H 0.1282 0.9326 -0.0091
H20 H 0.1443 1.0693 0.0213
C21 C 0.07675(15) 0.95293(15) 0.16382(13)
C22 C 0.06315(15) 0.82816(16) 0.21299(13)
H21 H 0.1054 0.7552 0.1770
C23 C -0.01477(15) 0.80785(15) 0.31871(13)
C24 C -0.03273(16) 0.67986(16) 0.36973(15)
H22 H 0.0047 0.6063 0.3328
C25 C -0.10489(17) 0.66372(17) 0.47307(15)
H23 H -0.1169 0.5792 0.5055
C26 C -0.16156(16) 0.77367(16) 0.53138(14)
H24 H -0.2074 0.7606 0.6032
C27 C -0.14912(16) 0.89888(16) 0.48253(14)
H25 H -0.1890 0.9712 0.5202
C28 C -0.07546(15) 0.92005(15) 0.37405(13)
C29 C -0.06204(16) 1.04821(16) 0.31965(15)
H26 H -0.1041 1.1225 0.3540
C30 C 0.01146(16) 1.06506(16) 0.21780(14)
H27 H 0.0190 1.1504 0.1833
loop_
_geom_bond_atom_site_label_1
_geom_bond_atom_site_label_2
_geom_bond_site_symmetry_1
_geom_bond_site_symmetry_2
O1 H1 1_555 1_555
H2 O1 1_555 1_555
N1 C1 1_555 1_555
N2 C1 1_555 1_555
C1 C2 1_555 1_555
C2 H3 1_555 1_555
H4 C2 1_555 1_555
H5 C2 1_555 1_555
C3 N1 1_555 1_555
C4 C3 1_555 1_555
H6 C4 1_555 1_555
C5 C4 1_555 1_555
H7 C5 1_555 1_555
C6 C5 1_555 1_555
H8 C6 1_555 1_555
C7 C6 1_555 1_555
H9 C7 1_555 1_555
C8 N2 1_555 1_555
C9 N1 1_555 1_555
H10 C9 1_555 1_555
H11 C9 1_555 1_555
C10 C9 1_555 1_555
C11 C10 1_555 1_555
H12 C11 1_555 1_555
C12 C11 1_555 1_555
C13 C12 1_555 1_555
H13 C13 1_555 1_555
C14 C13 1_555 1_555
H14 C14 1_555 1_555
C15 C14 1_555 1_555
H15 C15 1_555 1_555
C16 C15 1_555 1_555
H16 C16 1_555 1_555
C17 C12 1_555 1_555
C18 C17 1_555 1_555
H17 C18 1_555 1_555
C19 C10 1_555 1_555
H18 C19 1_555 1_555
C20 N2 1_555 1_555
H19 C20 1_555 1_555
H20 C20 1_555 1_555
C21 C20 1_555 1_555
C22 C21 1_555 1_555
H21 C22 1_555 1_555
C23 C22 1_555 1_555
C24 C23 1_555 1_555
H22 C24 1_555 1_555
C25 C24 1_555 1_555
H23 C25 1_555 1_555
C26 C25 1_555 1_555
H24 C26 1_555 1_555
C27 C26 1_555 1_555
H25 C27 1_555 1_555
C28 C23 1_555 1_555
C29 C28 1_555 1_555
H26 C29 1_555 1_555
C30 C21 1_555 1_555
H27 C30 1_555 1_555
C3 C8 1_555 1_555
C7 C8 1_555 1_555
C16 C17 1_555 1_555
C18 C19 1_555 1_555
C27 C28 1_555 1_555
C29 C30 1_555 1_555

#END
