
#######################################################################
#
#                 Cambridge Crystallographic Data Centre
#                                CCDC 
#
#######################################################################
#
# If this CIF has been generated from an entry in the Cambridge 
# Structural Database, then it will include bibliographic, chemical, 
# crystal, experimental, refinement or atomic coordinate data resulting 
# from the CCDC's data processing and validation procedures.
#
#######################################################################

data_IYIXOF
_chemical_formula_moiety         'C32 H29 N2 O1 1+,Br1 1-'
_chemical_name_systematic        
'2-(2-methoxyethyl)-1,3-bis(2-naphthylmethyl)-1H-benzimidazol-3-ium bromide'
_chemical_properties_biological  'in vitro anti-tumor activity investigated'
_symmetry_cell_setting           triclinic
_symmetry_space_group_name_H-M   'P -1'
_symmetry_Int_Tables_number      2
_space_group_name_Hall           '-P 1'
loop_
_symmetry_equiv_pos_site_id
_symmetry_equiv_pos_as_xyz
1 x,y,z
2 -x,-y,-z
_cell_length_a                   8.8985(8)
_cell_length_b                   17.1053(15)
_cell_length_c                   18.9826(16)
_cell_angle_alpha                63.486(4)
_cell_angle_beta                 88.991(4)
_cell_angle_gamma                88.822(4)
_cell_volume                     2584.82
_exptl_crystal_colour            colorless
_exptl_crystal_description       plate
_cell_formula_units_Z            4
loop_
_atom_site_label
_atom_site_type_symbol
_atom_site_fract_x
_atom_site_fract_y
_atom_site_fract_z
Br1 Br 0.53033(7) 0.34514(4) 0.00737(4)
Br2 Br 0.97019(7) 0.84231(4) 0.01111(4)
O1 O 0.3631(6) -0.0561(3) 0.7287(3)
N1 N 0.2944(6) 0.0189(3) 0.8737(3)
N2 N 0.5087(6) -0.0505(3) 0.8878(3)
C1 C 0.3621(7) -0.0526(4) 0.8740(3)
C2 C 0.1354(7) 0.0456(4) 0.8589(4)
H1 H 0.0993 0.0655 0.8979
H2 H 0.0750 -0.0053 0.8657
C3 C 0.1132(7) 0.1189(4) 0.7762(3)
C4 C 0.2033(8) 0.1313(4) 0.7153(4)
H3 H 0.2872 0.0930 0.7240
C5 C 0.1801(8) 0.1990(4) 0.6379(4)
C6 C 0.2741(11) 0.2107(5) 0.5752(4)
H4 H 0.3564 0.1715 0.5833
C7 C 0.2506(11) 0.2780(5) 0.5015(4)
H5 H 0.3163 0.2850 0.4591
C8 C 0.1305(10) 0.3359(5) 0.4890(4)
H6 H 0.1149 0.3835 0.4386
C9 C 0.0369(10) 0.3238(5) 0.5492(4)
H7 H -0.0459 0.3629 0.5402
C10 C 0.0576(8) 0.2545(5) 0.6255(4)
C11 C -0.0385(10) 0.2400(5) 0.6901(4)
H8 H -0.1246 0.2766 0.6825
C12 C -0.0104(9) 0.1750(5) 0.7626(4)
H9 H -0.0761 0.1675 0.8051
C13 C 0.4001(7) 0.0681(4) 0.8886(3)
C14 C 0.3851(8) 0.1430(4) 0.8985(3)
H10 H 0.2915 0.1732 0.8915
C15 C 0.5128(8) 0.1717(4) 0.9192(4)
H11 H 0.5083 0.2239 0.9252
C16 C 0.6507(8) 0.1249(4) 0.9315(3)
H12 H 0.7359 0.1452 0.9476
C17 C 0.6643(7) 0.0510(4) 0.9208(3)
H13 H 0.7578 0.0208 0.9277
C18 C 0.5361(7) 0.0219(4) 0.8994(3)
C19 C 0.6248(8) -0.1150(4) 0.8932(3)
H14 H 0.5772 -0.1728 0.9123
H15 H 0.6990 -0.1192 0.9331
C20 C 0.7082(7) -0.0953(4) 0.8165(4)
C21 C 0.7487(8) -0.1640(5) 0.8010(4)
H16 H 0.7170 -0.2212 0.8360
C22 C 0.8371(10) -0.1513(6) 0.7337(4)
C23 C 0.8812(11) -0.2236(7) 0.7184(5)
H17 H 0.8542 -0.2812 0.7549
C24 C 0.9617(13) -0.2107(8) 0.6521(6)
H18 H 0.9882 -0.2587 0.6417
C25 C 1.0036(16) -0.1272(10) 0.6005(7)
H19 H 1.0595 -0.1191 0.5547
C26 C 0.9684(14) -0.0540(8) 0.6119(5)
H20 H 1.0022 0.0025 0.5761
C27 C 0.8781(9) -0.0673(6) 0.6806(4)
C28 C 0.8381(10) 0.0030(6) 0.6973(4)
H21 H 0.8704 0.0603 0.6628
C29 C 0.7513(8) -0.0105(5) 0.7640(4)
H22 H 0.7219 0.0377 0.7736
C30 C 0.2867(8) -0.1223(4) 0.8630(4)
H23 H 0.1945 -0.1390 0.8961
H24 H 0.3540 -0.1742 0.8814
C31 C 0.2454(13) -0.0960(6) 0.7798(5)
H25 H 0.2156 -0.1484 0.7742
H26 H 0.1579 -0.0554 0.7657
C32 C 0.3468(17) -0.0332(7) 0.6517(5)
H27 H 0.2868 -0.0770 0.6454
H28 H 0.4459 -0.0296 0.6272
H29 H 0.2956 0.0238 0.6263
O2 O 0.1496(6) 0.4521(3) 0.7219(3)
N3 N -0.0034(6) 0.4529(3) 0.8865(3)
N4 N 0.2113(6) 0.5197(3) 0.8690(3)
C33 C 0.1438(7) 0.4497(4) 0.8688(3)
C34 C -0.1189(8) 0.3899(4) 0.8928(4)
H30 H -0.1902 0.3836 0.9356
H31 H -0.0703 0.3323 0.9074
C35 C -0.2052(7) 0.4160(4) 0.8183(4)
C36 C -0.2576(8) 0.3538(4) 0.8013(4)
H32 H -0.2314 0.2946 0.8345
C37 C -0.3511(9) 0.3731(6) 0.7355(4)
C38 C -0.4083(12) 0.3079(7) 0.7181(5)
H33 H -0.3852 0.2482 0.7508
C39 C -0.4987(13) 0.3314(8) 0.6530(5)
H34 H -0.5422 0.2875 0.6426
C40 C -0.5260(12) 0.4187(8) 0.6029(5)
H35 H -0.5818 0.4338 0.5563
C41 C -0.4749(11) 0.4833(7) 0.6190(5)
H36 H -0.5013 0.5424 0.5855
C42 C -0.3827(9) 0.4635(5) 0.6850(4)
C43 C -0.3287(9) 0.5271(5) 0.7033(4)
H37 H -0.3524 0.5869 0.6707
C44 C -0.2421(9) 0.5050(5) 0.7675(4)
H38 H -0.2052 0.5497 0.7791
C45 C -0.0316(7) 0.5257(4) 0.8993(3)
C46 C -0.1609(7) 0.5541(4) 0.9241(3)
H39 H -0.2536 0.5244 0.9327
C47 C -0.1461(8) 0.6278(4) 0.9352(3)
H40 H -0.2314 0.6493 0.9523
C48 C -0.0093(8) 0.6724(4) 0.9223(3)
H41 H -0.0046 0.7235 0.9300
C49 C 0.1183(7) 0.6428(4) 0.8985(3)
H42 H 0.2112 0.6722 0.8897
C50 C 0.1044(7) 0.5684(4) 0.8880(3)
C51 C 0.3683(7) 0.5456(4) 0.8523(4)
H43 H 0.4296 0.4960 0.8538
H44 H 0.4058 0.5606 0.8935
C52 C 0.3864(7) 0.6234(4) 0.7725(4)
C53 C 0.3136(8) 0.6282(4) 0.7073(4)
H45 H 0.2497 0.5820 0.7127
C54 C 0.3316(8) 0.7003(4) 0.6325(4)
C55 C 0.2598(11) 0.7076(5) 0.5638(5)
H46 H 0.1981 0.6613 0.5674
C56 C 0.2761(11) 0.7788(5) 0.4927(4)
H47 H 0.2248 0.7824 0.4479
C57 C 0.3690(9) 0.8463(5) 0.4866(4)
H48 H 0.3794 0.8963 0.4372
C58 C 0.4450(10) 0.8425(5) 0.5496(4)
H49 H 0.5081 0.8893 0.5434
C59 C 0.4311(8) 0.7686(5) 0.6255(4)
C60 C 0.4999(12) 0.7635(5) 0.6924(5)
H50 H 0.5617 0.8099 0.6885
C61 C 0.4806(11) 0.6932(5) 0.7637(4)
H51 H 0.5310 0.6909 0.8083
C62 C 0.2207(8) 0.3786(4) 0.8560(4)
H52 H 0.2052 0.3224 0.9033
H53 H 0.3301 0.3897 0.8502
C63 C 0.1670(12) 0.3700(5) 0.7849(5)
H54 H 0.2409 0.3351 0.7708
H55 H 0.0699 0.3393 0.7972
C64 C 0.0917(13) 0.4526(6) 0.6535(5)
H56 H 0.1613 0.4212 0.6342
H57 H 0.0794 0.5130 0.6130
H58 H -0.0060 0.4238 0.6654
loop_
_geom_bond_atom_site_label_1
_geom_bond_atom_site_label_2
_geom_bond_site_symmetry_1
_geom_bond_site_symmetry_2
O1 C31 1_555 1_555
N1 C1 1_555 1_555
N2 C1 1_555 1_555
C1 C30 1_555 1_555
C2 N1 1_555 1_555
H1 C2 1_555 1_555
H2 C2 1_555 1_555
C3 C2 1_555 1_555
C4 C3 1_555 1_555
H3 C4 1_555 1_555
C5 C4 1_555 1_555
C6 C5 1_555 1_555
H4 C6 1_555 1_555
C7 C6 1_555 1_555
H5 C7 1_555 1_555
C8 C7 1_555 1_555
H6 C8 1_555 1_555
C9 C8 1_555 1_555
H7 C9 1_555 1_555
C10 C5 1_555 1_555
C11 C10 1_555 1_555
H8 C11 1_555 1_555
C12 C3 1_555 1_555
H9 C12 1_555 1_555
C13 N1 1_555 1_555
C14 C13 1_555 1_555
H10 C14 1_555 1_555
C15 C14 1_555 1_555
H11 C15 1_555 1_555
C16 C15 1_555 1_555
H12 C16 1_555 1_555
C17 C16 1_555 1_555
H13 C17 1_555 1_555
C18 N2 1_555 1_555
C19 N2 1_555 1_555
H14 C19 1_555 1_555
H15 C19 1_555 1_555
C20 C19 1_555 1_555
C21 C20 1_555 1_555
H16 C21 1_555 1_555
C22 C21 1_555 1_555
C23 C22 1_555 1_555
H17 C23 1_555 1_555
C24 C23 1_555 1_555
H18 C24 1_555 1_555
C25 C24 1_555 1_555
H19 C25 1_555 1_555
C26 C25 1_555 1_555
H20 C26 1_555 1_555
C27 C22 1_555 1_555
C28 C27 1_555 1_555
H21 C28 1_555 1_555
C29 C20 1_555 1_555
H22 C29 1_555 1_555
C30 H23 1_555 1_555
H24 C30 1_555 1_555
C31 C30 1_555 1_555
H25 C31 1_555 1_555
H26 C31 1_555 1_555
C32 O1 1_555 1_555
H27 C32 1_555 1_555
H28 C32 1_555 1_555
H29 C32 1_555 1_555
O2 C63 1_555 1_555
N3 C33 1_555 1_555
N4 C33 1_555 1_555
C33 C62 1_555 1_555
C34 N3 1_555 1_555
H30 C34 1_555 1_555
H31 C34 1_555 1_555
C35 C34 1_555 1_555
C36 C35 1_555 1_555
H32 C36 1_555 1_555
C37 C36 1_555 1_555
C38 C37 1_555 1_555
H33 C38 1_555 1_555
C39 C38 1_555 1_555
H34 C39 1_555 1_555
C40 C39 1_555 1_555
H35 C40 1_555 1_555
C41 C40 1_555 1_555
H36 C41 1_555 1_555
C42 C37 1_555 1_555
C43 C42 1_555 1_555
H37 C43 1_555 1_555
C44 C35 1_555 1_555
H38 C44 1_555 1_555
C45 N3 1_555 1_555
C46 C45 1_555 1_555
H39 C46 1_555 1_555
C47 C46 1_555 1_555
H40 C47 1_555 1_555
C48 C47 1_555 1_555
H41 C48 1_555 1_555
C49 C48 1_555 1_555
H42 C49 1_555 1_555
C50 N4 1_555 1_555
C51 N4 1_555 1_555
H43 C51 1_555 1_555
H44 C51 1_555 1_555
C52 C51 1_555 1_555
C53 C52 1_555 1_555
H45 C53 1_555 1_555
C54 C53 1_555 1_555
C55 C54 1_555 1_555
H46 C55 1_555 1_555
C56 C55 1_555 1_555
H47 C56 1_555 1_555
C57 C56 1_555 1_555
H48 C57 1_555 1_555
C58 C57 1_555 1_555
H49 C58 1_555 1_555
C59 C54 1_555 1_555
C60 C59 1_555 1_555
H50 C60 1_555 1_555
C61 C52 1_555 1_555
H51 C61 1_555 1_555
C62 H52 1_555 1_555
H53 C62 1_555 1_555
C63 C62 1_555 1_555
H54 C63 1_555 1_555
H55 C63 1_555 1_555
C64 O2 1_555 1_555
H56 C64 1_555 1_555
H57 C64 1_555 1_555
H58 C64 1_555 1_555
C9 C10 1_555 1_555
C11 C12 1_555 1_555
C13 C18 1_555 1_555
C17 C18 1_555 1_555
C26 C27 1_555 1_555
C28 C29 1_555 1_555
C41 C42 1_555 1_555
C43 C44 1_555 1_555
C45 C50 1_555 1_555
C49 C50 1_555 1_555
C58 C59 1_555 1_555
C60 C61 1_555 1_555

#END
