
#######################################################################
#
#                 Cambridge Crystallographic Data Centre
#                                CCDC 
#
#######################################################################
#
# If this CIF has been generated from an entry in the Cambridge 
# Structural Database, then it will include bibliographic, chemical, 
# crystal, experimental, refinement or atomic coordinate data resulting 
# from the CCDC's data processing and validation procedures.
#
#######################################################################

data_IYIYEW
_chemical_formula_moiety         'C32 H29 N2 O1 1+,Br1 1-'
_chemical_name_systematic        
'2-(3-hydroxypropyl)-1,3-bis(2-naphthylmethyl)-1H-benzimidazol-3-ium bromide'
_chemical_properties_biological  'anti-tumour activity'
_symmetry_cell_setting           triclinic
_symmetry_space_group_name_H-M   'P -1'
_symmetry_Int_Tables_number      2
_space_group_name_Hall           '-P 1'
loop_
_symmetry_equiv_pos_site_id
_symmetry_equiv_pos_as_xyz
1 x,y,z
2 -x,-y,-z
_cell_length_a                   10.3959(6)
_cell_length_b                   10.4438(6)
_cell_length_c                   12.8557(7)
_cell_angle_alpha                67.842(2)
_cell_angle_beta                 76.321(2)
_cell_angle_gamma                79.887(2)
_cell_volume                     1250.23
_exptl_crystal_colour            colorless
_exptl_crystal_description       block
_chemical_melting_point          '229-231 deg.C'
_cell_formula_units_Z            2
loop_
_atom_site_label
_atom_site_type_symbol
_atom_site_fract_x
_atom_site_fract_y
_atom_site_fract_z
Br1 Br 0.324864(14) 0.789960(15) 0.479547(13)
O1 O 0.52737(14) 0.99809(16) 0.27950(12)
N1 N 0.88243(12) 0.71724(13) 0.57263(10)
N2 N 0.72991(12) 0.59027(13) 0.58366(10)
C1 C 0.75989(14) 0.72082(15) 0.55333(12)
C2 C 0.93340(14) 0.57895(15) 0.61730(12)
C3 C 0.83572(14) 0.49811(15) 0.62539(12)
C4 C 0.85162(15) 0.35357(16) 0.66929(12)
H1 H 0.7848 0.2990 0.6742
C5 C 0.97055(16) 0.29420(16) 0.70529(13)
H2 H 0.9855 0.1959 0.7370
C6 C 1.07003(15) 0.37568(17) 0.69616(13)
H3 H 1.1504 0.3307 0.7217
C7 C 1.05431(15) 0.51922(16) 0.65119(12)
H4 H 1.1222 0.5739 0.6438
C8 C 0.94765(15) 0.83717(16) 0.56292(13)
H5 H 0.9039 0.9237 0.5142
H6 H 1.0420 0.8282 0.5256
C9 C 0.94049(15) 0.84654(15) 0.67917(13)
C10 C 0.82583(15) 0.90212(16) 0.73136(13)
H7 H 0.7512 0.9336 0.6944
C11 C 0.81670(16) 0.91341(16) 0.83941(13)
C12 C 0.69959(17) 0.97330(18) 0.89335(15)
H8 H 0.6246 1.0068 0.8570
C13 C 0.69426(18) 0.98305(18) 0.99765(15)
H9 H 0.6155 1.0231 1.0333
C14 C 0.80502(18) 0.93401(18) 1.05227(14)
H10 H 0.8005 0.9420 1.1243
C15 C 0.91900(17) 0.87504(17) 1.00283(13)
H11 H 0.9924 0.8414 1.0412
C16 C 0.92854(16) 0.86373(16) 0.89470(13)
C17 C 1.04555(15) 0.80586(16) 0.83941(13)
H12 H 1.1204 0.7716 0.8759
C18 C 1.05220(15) 0.79856(16) 0.73422(13)
H13 H 1.1321 0.7611 0.6977
C19 C 0.60136(14) 0.54611(16) 0.58836(13)
H14 H 0.6168 0.4586 0.5723
H15 H 0.5568 0.6176 0.5284
C20 C 0.51124(14) 0.52397(15) 0.70371(13)
C21 C 0.50620(15) 0.60663(15) 0.76616(13)
H16 H 0.5656 0.6767 0.7391
C22 C 0.41432(14) 0.58988(15) 0.87014(13)
C23 C 0.40825(16) 0.67370(16) 0.93632(13)
H17 H 0.4683 0.7428 0.9116
C24 C 0.31687(16) 0.65603(17) 1.03537(13)
H18 H 0.3140 0.7127 1.0790
C25 C 0.22698(16) 0.55412(18) 1.07304(13)
H19 H 0.1629 0.5436 1.1413
C26 C 0.23122(16) 0.47044(18) 1.01224(14)
H20 H 0.1709 0.4013 1.0391
C27 C 0.32504(15) 0.48591(16) 0.90910(13)
C28 C 0.33432(17) 0.39959(18) 0.84475(15)
H21 H 0.2767 0.3280 0.8711
C29 C 0.42487(17) 0.41753(17) 0.74517(14)
H22 H 0.4298 0.3581 0.7035
C30 C 0.67417(14) 0.84859(15) 0.50034(12)
H23 H 0.6733 0.9174 0.5365
H24 H 0.5819 0.8251 0.5146
C31 C 0.72408(16) 0.91332(17) 0.37051(13)
H25 H 0.8130 0.9447 0.3570
H26 H 0.7340 0.8410 0.3360
C32 C 0.63248(15) 1.03516(17) 0.31111(13)
H27 H 0.5944 1.0885 0.3625
H28 H 0.6858 1.0971 0.2416
H29 H 0.478(2) 0.940(3) 0.339(2)
loop_
_geom_bond_atom_site_label_1
_geom_bond_atom_site_label_2
_geom_bond_site_symmetry_1
_geom_bond_site_symmetry_2
O1 C32 1_555 1_555
N1 C1 1_555 1_555
N2 C1 1_555 1_555
C1 C30 1_555 1_555
C2 N1 1_555 1_555
C3 N2 1_555 1_555
C4 C3 1_555 1_555
H1 C4 1_555 1_555
C5 C4 1_555 1_555
H2 C5 1_555 1_555
C6 C5 1_555 1_555
H3 C6 1_555 1_555
C7 C2 1_555 1_555
H4 C7 1_555 1_555
C8 N1 1_555 1_555
H5 C8 1_555 1_555
H6 C8 1_555 1_555
C9 C8 1_555 1_555
C10 C9 1_555 1_555
H7 C10 1_555 1_555
C11 C10 1_555 1_555
C12 C11 1_555 1_555
H8 C12 1_555 1_555
C13 C12 1_555 1_555
H9 C13 1_555 1_555
C14 C13 1_555 1_555
H10 C14 1_555 1_555
C15 C14 1_555 1_555
H11 C15 1_555 1_555
C16 C11 1_555 1_555
C17 C16 1_555 1_555
H12 C17 1_555 1_555
C18 C9 1_555 1_555
H13 C18 1_555 1_555
C19 N2 1_555 1_555
H14 C19 1_555 1_555
H15 C19 1_555 1_555
C20 C19 1_555 1_555
C21 C20 1_555 1_555
H16 C21 1_555 1_555
C22 C21 1_555 1_555
C23 C22 1_555 1_555
H17 C23 1_555 1_555
C24 C23 1_555 1_555
H18 C24 1_555 1_555
C25 C24 1_555 1_555
H19 C25 1_555 1_555
C26 C25 1_555 1_555
H20 C26 1_555 1_555
C27 C22 1_555 1_555
C28 C27 1_555 1_555
H21 C28 1_555 1_555
C29 C20 1_555 1_555
H22 C29 1_555 1_555
C30 H23 1_555 1_555
H24 C30 1_555 1_555
C31 C30 1_555 1_555
H25 C31 1_555 1_555
H26 C31 1_555 1_555
C32 C31 1_555 1_555
H27 C32 1_555 1_555
H28 C32 1_555 1_555
H29 O1 1_555 1_555
C2 C3 1_555 1_555
C6 C7 1_555 1_555
C15 C16 1_555 1_555
C17 C18 1_555 1_555
C26 C27 1_555 1_555
C28 C29 1_555 1_555

#END
