
#######################################################################
#
#                 Cambridge Crystallographic Data Centre
#                                CCDC 
#
#######################################################################
#
# If this CIF has been generated from an entry in the Cambridge 
# Structural Database, then it will include bibliographic, chemical, 
# crystal, experimental, refinement or atomic coordinate data resulting 
# from the CCDC's data processing and validation procedures.
#
#######################################################################

data_IYIYOF
_chemical_formula_moiety         'C13 H17 N3 O7'
_chemical_name_systematic        
'Methyl N-(2,4-dinitrophenyl)-3-hydroxy-D-leucinate'
_symmetry_cell_setting           orthorhombic
_symmetry_space_group_name_H-M   'P 21 21 21'
_symmetry_Int_Tables_number      19
_space_group_name_Hall           'P 2ac 2ab'
loop_
_symmetry_equiv_pos_site_id
_symmetry_equiv_pos_as_xyz
1 x,y,z
2 1/2+x,1/2-y,-z
3 -x,1/2+y,1/2-z
4 1/2-x,-y,1/2+z
_cell_length_a                   6.8458(2)
_cell_length_b                   8.1555(3)
_cell_length_c                   27.3235(9)
_cell_angle_alpha                90
_cell_angle_beta                 90
_cell_angle_gamma                90
_cell_volume                     1525.5
_exptl_crystal_colour            yellow
_exptl_crystal_description       prism
_cell_formula_units_Z            4
loop_
_atom_site_label
_atom_site_type_symbol
_atom_site_fract_x
_atom_site_fract_y
_atom_site_fract_z
C1 C 0.44867(17) 0.33436(15) 0.40436(4)
C2 C 0.55618(19) 0.45467(14) 0.37124(4)
H1 H 0.4654 0.5434 0.3602
C3 C 0.73367(18) 0.53044(14) 0.39911(4)
H2 H 0.8264 0.5763 0.3744
C4 C 0.6818(2) 0.66627(16) 0.43516(5)
H3 H 0.5972 0.6187 0.4614
C5 C 0.5707(3) 0.80555(17) 0.41058(6)
H4 H 0.6445 0.8444 0.3821
H5 H 0.5537 0.8958 0.4339
H6 H 0.4423 0.7660 0.3999
C6 C 0.8679(2) 0.73208(19) 0.45884(5)
H7 H 0.9515 0.7810 0.4337
H8 H 0.9379 0.6420 0.4748
H9 H 0.8338 0.8155 0.4832
C7 C 0.68735(17) 0.41945(15) 0.28730(4)
C8 C 0.75065(17) 0.31957(15) 0.24739(4)
C9 C 0.82043(18) 0.38627(15) 0.20398(4)
H10 H 0.8623 0.3169 0.1781
C10 C 0.82808(18) 0.55330(16) 0.19901(4)
C11 C 0.76446(17) 0.65847(15) 0.23628(4)
H11 H 0.7688 0.7740 0.2319
C12 C 0.69589(17) 0.59253(15) 0.27902(4)
H12 H 0.6524 0.6644 0.3041
C13 C 0.2522(2) 0.30768(18) 0.47426(5)
H13 H 0.1663 0.2308 0.4570
H14 H 0.1745 0.3751 0.4967
H15 H 0.3501 0.2463 0.4929
N1 N 0.74731(14) 0.14247(12) 0.24977(4)
N2 N 0.91117(15) 0.62213(13) 0.15472(4)
N3 N 0.62148(16) 0.35909(14) 0.32953(4)
O1 O 0.45564(13) 0.18840(11) 0.39919(3)
O2 O 0.34961(14) 0.41281(11) 0.43890(3)
O3 O 0.83029(14) 0.40287(11) 0.42476(3)
O4 O 0.70527(13) 0.07422(10) 0.28900(3)
O5 O 0.78585(14) 0.06401(11) 0.21257(3)
O6 O 0.96394(16) 0.53077(12) 0.12202(3)
O7 O 0.92641(13) 0.77379(11) 0.15258(3)
H16 H 0.618(2) 0.261(2) 0.3319(6)
H17 H 0.901(3) 0.362(3) 0.4044(8)
loop_
_geom_bond_atom_site_label_1
_geom_bond_atom_site_label_2
_geom_bond_site_symmetry_1
_geom_bond_site_symmetry_2
C1 C2 1_555 1_555
C2 H1 1_555 1_555
C3 C2 1_555 1_555
H2 C3 1_555 1_555
C4 C3 1_555 1_555
H3 C4 1_555 1_555
C5 C4 1_555 1_555
H4 C5 1_555 1_555
H5 C5 1_555 1_555
H6 C5 1_555 1_555
C6 C4 1_555 1_555
H7 C6 1_555 1_555
H8 C6 1_555 1_555
H9 C6 1_555 1_555
C7 C8 1_555 1_555
C8 C9 1_555 1_555
C9 H10 1_555 1_555
C10 C9 1_555 1_555
C11 C10 1_555 1_555
H11 C11 1_555 1_555
C12 C7 1_555 1_555
H12 C12 1_555 1_555
C13 H13 1_555 1_555
H14 C13 1_555 1_555
H15 C13 1_555 1_555
N1 C8 1_555 1_555
N2 C10 1_555 1_555
N3 C2 1_555 1_555
O1 C1 1_555 1_555
O2 C1 1_555 1_555
O3 C3 1_555 1_555
O4 N1 1_555 1_555
O5 N1 1_555 1_555
O6 N2 1_555 1_555
O7 N2 1_555 1_555
H16 N3 1_555 1_555
H17 O3 1_555 1_555
C7 N3 1_555 1_555
C11 C12 1_555 1_555
C13 O2 1_555 1_555

#END
