
#######################################################################
#
#                 Cambridge Crystallographic Data Centre
#                                CCDC 
#
#######################################################################
#
# If this CIF has been generated from an entry in the Cambridge 
# Structural Database, then it will include bibliographic, chemical, 
# crystal, experimental, refinement or atomic coordinate data resulting 
# from the CCDC's data processing and validation procedures.
#
#######################################################################

data_IYIYOG
_chemical_formula_moiety         'C30 H27 N4 O1 1+,H2 O1,Cl1 1-'
_chemical_name_systematic        
'2-(3-hydroxypropyl)-1,3-bis(quinolin-2-ylmethyl)-1H-3,1-benzimidazol-3-ium chloride monohydrate'
_chemical_properties_biological  'anti-tumour activity'
_symmetry_cell_setting           monoclinic
_symmetry_space_group_name_H-M   'P 21/c'
_symmetry_Int_Tables_number      14
_space_group_name_Hall           '-P 2ybc'
loop_
_symmetry_equiv_pos_site_id
_symmetry_equiv_pos_as_xyz
1 x,y,z
2 -x,1/2+y,1/2-z
3 -x,-y,-z
4 x,1/2-y,1/2+z
_cell_length_a                   13.0575(11)
_cell_length_b                   19.4079(13)
_cell_length_c                   10.2667(8)
_cell_angle_alpha                90
_cell_angle_beta                 90.609(3)
_cell_angle_gamma                90
_cell_volume                     2601.63
_exptl_crystal_colour            colorless
_exptl_crystal_description       block
_chemical_melting_point          '256-260 deg.C'
_cell_formula_units_Z            4
loop_
_atom_site_label
_atom_site_type_symbol
_atom_site_fract_x
_atom_site_fract_y
_atom_site_fract_z
Cl1 Cl 0.98843(3) 0.221893(18) 0.31341(3)
O1 O 0.86415(8) 0.38892(5) -0.04197(10)
H1 H 0.9035 0.3647 -0.0872
N1 N 0.86570(8) 0.42217(6) 0.47705(11)
N2 N 0.88082(8) 0.51467(6) 0.35804(11)
N3 N 0.67448(9) 0.34814(6) 0.47013(11)
N4 N 0.69488(9) 0.54306(6) 0.26811(11)
C1 C 0.87596(9) 0.44539(7) 0.35495(13)
C2 C 0.86164(9) 0.47800(7) 0.56185(13)
C3 C 0.85257(10) 0.48077(8) 0.69680(14)
H2 H 0.8471 0.4403 0.7484
C4 C 0.85199(11) 0.54592(9) 0.75096(16)
H3 H 0.8460 0.5504 0.8427
C5 C 0.85999(11) 0.60539(9) 0.67510(17)
H4 H 0.8589 0.6491 0.7167
C6 C 0.86940(11) 0.60245(8) 0.54103(17)
H5 H 0.8749 0.6429 0.4894
C7 C 0.87036(10) 0.53682(7) 0.48615(14)
C8 C 0.85542(10) 0.35035(7) 0.51962(14)
H6 H 0.9016 0.3420 0.5950
H7 H 0.8762 0.3192 0.4482
C9 C 0.74582(10) 0.33423(7) 0.55783(13)
C10 C 0.57530(10) 0.33290(7) 0.50080(14)
C11 C 0.49749(11) 0.34749(8) 0.40792(15)
H8 H 0.5148 0.3677 0.3268
C12 C 0.39745(12) 0.33265(8) 0.43451(17)
H9 H 0.3458 0.3428 0.3715
C13 C 0.36996(12) 0.30257(8) 0.55383(17)
H10 H 0.3002 0.2924 0.5707
C14 C 0.44340(11) 0.28804(8) 0.64529(16)
H11 H 0.4243 0.2680 0.7259
C15 C 0.54786(11) 0.30254(7) 0.62132(14)
C16 C 0.62765(11) 0.28859(7) 0.71145(14)
H12 H 0.6127 0.2682 0.7932
C17 C 0.72640(11) 0.30448(7) 0.68055(14)
H13 H 0.7808 0.2957 0.7404
C18 C 0.87681(11) 0.56017(8) 0.24508(15)
H14 H 0.9166 0.5395 0.1734
H15 H 0.9087 0.6049 0.2679
C19 C 0.76731(10) 0.57206(7) 0.19940(14)
C20 C 0.59606(10) 0.54955(7) 0.22364(14)
C21 C 0.51780(11) 0.51838(8) 0.29689(15)
H16 H 0.5342 0.4958 0.3765
C22 C 0.41839(11) 0.52062(8) 0.25361(16)
H17 H 0.3662 0.4993 0.3033
C23 C 0.39272(12) 0.55417(8) 0.13626(16)
H18 H 0.3235 0.5548 0.1066
C24 C 0.46678(12) 0.58585(8) 0.06463(15)
H19 H 0.4486 0.6088 -0.0140
C25 C 0.57057(11) 0.58477(7) 0.10681(14)
C26 C 0.65137(12) 0.61668(8) 0.03905(15)
H20 H 0.6374 0.6421 -0.0383
C27 C 0.74953(11) 0.61095(7) 0.08498(14)
H21 H 0.8046 0.6326 0.0411
C28 C 0.88582(10) 0.40242(7) 0.23682(13)
H22 H 0.9200 0.3587 0.2615
H23 H 0.9310 0.4266 0.1749
C29 C 0.78459(10) 0.38513(7) 0.16642(13)
H24 H 0.7408 0.3570 0.2239
H25 H 0.7474 0.4281 0.1446
C30 C 0.80756(11) 0.34561(7) 0.04323(14)
H26 H 0.8479 0.3038 0.0645
H27 H 0.7428 0.3311 0.0003
O2 O 0.12373(9) 0.26695(6) 0.07555(12)
H28 H 0.0826(18) 0.2724(12) 0.007(2)
H29 H 0.0828(17) 0.2568(11) 0.139(2)
loop_
_geom_bond_atom_site_label_1
_geom_bond_atom_site_label_2
_geom_bond_site_symmetry_1
_geom_bond_site_symmetry_2
O1 H1 1_555 1_555
N1 C1 1_555 1_555
N2 C1 1_555 1_555
N3 C9 1_555 1_555
N4 C19 1_555 1_555
C1 C28 1_555 1_555
C2 N1 1_555 1_555
C3 C2 1_555 1_555
H2 C3 1_555 1_555
C4 C3 1_555 1_555
H3 C4 1_555 1_555
C5 C4 1_555 1_555
H4 C5 1_555 1_555
C6 C5 1_555 1_555
H5 C6 1_555 1_555
C7 N2 1_555 1_555
C8 N1 1_555 1_555
H6 C8 1_555 1_555
H7 C8 1_555 1_555
C9 C8 1_555 1_555
C10 N3 1_555 1_555
C11 C10 1_555 1_555
H8 C11 1_555 1_555
C12 C11 1_555 1_555
H9 C12 1_555 1_555
C13 C12 1_555 1_555
H10 C13 1_555 1_555
C14 C13 1_555 1_555
H11 C14 1_555 1_555
C15 C10 1_555 1_555
C16 C15 1_555 1_555
H12 C16 1_555 1_555
C17 C9 1_555 1_555
H13 C17 1_555 1_555
C18 N2 1_555 1_555
H14 C18 1_555 1_555
H15 C18 1_555 1_555
C19 C18 1_555 1_555
C20 N4 1_555 1_555
C21 C20 1_555 1_555
H16 C21 1_555 1_555
C22 C21 1_555 1_555
H17 C22 1_555 1_555
C23 C22 1_555 1_555
H18 C23 1_555 1_555
C24 C23 1_555 1_555
H19 C24 1_555 1_555
C25 C20 1_555 1_555
C26 C25 1_555 1_555
H20 C26 1_555 1_555
C27 C19 1_555 1_555
H21 C27 1_555 1_555
C28 H22 1_555 1_555
H23 C28 1_555 1_555
C29 C28 1_555 1_555
H24 C29 1_555 1_555
H25 C29 1_555 1_555
C30 O1 1_555 1_555
H26 C30 1_555 1_555
H27 C30 1_555 1_555
O2 H28 1_555 1_555
H29 O2 1_555 1_555
C2 C7 1_555 1_555
C6 C7 1_555 1_555
C14 C15 1_555 1_555
C16 C17 1_555 1_555
C24 C25 1_555 1_555
C26 C27 1_555 1_555
C29 C30 1_555 1_555

#END
