
#######################################################################
#
#                 Cambridge Crystallographic Data Centre
#                                CCDC 
#
#######################################################################
#
# If this CIF has been generated from an entry in the Cambridge 
# Structural Database, then it will include bibliographic, chemical, 
# crystal, experimental, refinement or atomic coordinate data resulting 
# from the CCDC's data processing and validation procedures.
#
#######################################################################

data_IYIYEV
_chemical_formula_moiety         'C19 H21 N3 O7,H2 O1'
_chemical_name_systematic        
'Methyl 4-((2,4-dinitrophenyl)amino)-3-hydroxy-2-methyl-5-phenylpentanoate monohydrate'
_symmetry_cell_setting           orthorhombic
_symmetry_space_group_name_H-M   'P 21 21 21'
_symmetry_Int_Tables_number      19
_space_group_name_Hall           'P 2ac 2ab'
loop_
_symmetry_equiv_pos_site_id
_symmetry_equiv_pos_as_xyz
1 x,y,z
2 1/2+x,1/2-y,-z
3 -x,1/2+y,1/2-z
4 1/2-x,-y,1/2+z
_cell_length_a                   7.9106(2)
_cell_length_b                   11.5982(3)
_cell_length_c                   22.2085(6)
_cell_angle_alpha                90
_cell_angle_beta                 90
_cell_angle_gamma                90
_cell_volume                     2037.6
_exptl_crystal_colour            yellow
_exptl_crystal_description       prism
_cell_formula_units_Z            4
loop_
_atom_site_label
_atom_site_type_symbol
_atom_site_fract_x
_atom_site_fract_y
_atom_site_fract_z
C1 C 0.16868(15) -0.05282(10) 0.02128(5)
C2 C 0.07809(15) 0.05777(10) 0.00567(5)
H1 H 0.1571 0.1232 0.0138
C3 C -0.07893(14) 0.07420(10) 0.04556(5)
H2 H -0.1561 0.0066 0.0404
C4 C -0.02824(15) 0.08457(10) 0.11219(6)
H3 H 0.0654 0.0287 0.1203
C5 C -0.17494(17) 0.05749(11) 0.15538(6)
H4 H -0.1441 0.0820 0.1966
H5 H -0.2764 0.1014 0.1430
C6 C -0.21504(16) -0.06969(11) 0.15536(5)
C7 C -0.36103(17) -0.11318(12) 0.12903(6)
H6 H -0.4420 -0.0617 0.1124
C8 C -0.38966(19) -0.23137(14) 0.12680(6)
H7 H -0.4899 -0.2603 0.1087
C9 C -0.2724(2) -0.30667(12) 0.15083(6)
H8 H -0.2916 -0.3875 0.1490
C10 C -0.12733(18) -0.26450(12) 0.17748(6)
H9 H -0.0468 -0.3163 0.1941
C11 C -0.09931(16) -0.14734(12) 0.17998(5)
H10 H 0.0003 -0.1190 0.1987
C12 C 0.03594(19) 0.05891(12) -0.06145(6)
H11 H 0.1397 0.0479 -0.0848
H12 H -0.0153 0.1331 -0.0721
H13 H -0.0436 -0.0035 -0.0705
C13 C 0.13937(17) -0.25324(11) 0.03844(7)
H14 H 0.2318 -0.2708 0.0106
H15 H 0.0532 -0.3137 0.0359
H16 H 0.1835 -0.2496 0.0796
C14 C 0.17324(16) 0.23023(10) 0.15373(5)
C15 C 0.28105(15) 0.14608(10) 0.17943(5)
H17 H 0.2520 0.0670 0.1755
C16 C 0.42515(16) 0.17469(11) 0.20966(5)
H18 H 0.4945 0.1160 0.2264
C17 C 0.47044(16) 0.29038(11) 0.21585(5)
C18 C 0.36945(16) 0.37615(10) 0.19351(5)
H19 H 0.3997 0.4548 0.1989
C19 C 0.22262(16) 0.34714(10) 0.16304(5)
N1 N 0.03578(14) 0.20050(9) 0.12196(5)
N2 N 0.62584(14) 0.31965(10) 0.24670(5)
N3 N 0.12427(15) 0.44326(9) 0.14008(5)
O1 O 0.31888(10) -0.06044(7) 0.03100(4)
O2 O 0.06468(11) -0.14284(7) 0.02254(4)
O3 O -0.16458(11) 0.17641(7) 0.02739(4)
O4 O 0.70891(13) 0.24167(9) 0.26955(5)
O5 O 0.66858(13) 0.42200(9) 0.24846(5)
O6 O 0.18132(15) 0.54078(8) 0.14534(6)
O7 O -0.01205(15) 0.42443(9) 0.11542(6)
H20 H -0.024(2) 0.2572(17) 0.1098(8)
H21 H -0.268(3) 0.1642(16) 0.0294(8)
O8 O 0.0055(2) 0.35374(15) -0.0335(2)
H22 H -0.042(3) 0.418(2) -0.0272(10)
H23 H -0.051(3) 0.306(2) -0.0160(10)
O9? O 0.0270(14) 0.3690(12) 0.0013(19)
loop_
_geom_bond_atom_site_label_1
_geom_bond_atom_site_label_2
_geom_bond_site_symmetry_1
_geom_bond_site_symmetry_2
C1 C2 1_555 1_555
C2 H1 1_555 1_555
C3 C2 1_555 1_555
H2 C3 1_555 1_555
C4 C3 1_555 1_555
H3 C4 1_555 1_555
C5 C4 1_555 1_555
H4 C5 1_555 1_555
H5 C5 1_555 1_555
C6 C5 1_555 1_555
C7 C6 1_555 1_555
H6 C7 1_555 1_555
C8 C7 1_555 1_555
H7 C8 1_555 1_555
C9 C8 1_555 1_555
H8 C9 1_555 1_555
C10 C9 1_555 1_555
H9 C10 1_555 1_555
C11 C6 1_555 1_555
H10 C11 1_555 1_555
C12 C2 1_555 1_555
H11 C12 1_555 1_555
H12 C12 1_555 1_555
H13 C12 1_555 1_555
C13 H14 1_555 1_555
H15 C13 1_555 1_555
H16 C13 1_555 1_555
C14 C15 1_555 1_555
C15 H17 1_555 1_555
C16 C15 1_555 1_555
H18 C16 1_555 1_555
C17 C16 1_555 1_555
C18 C17 1_555 1_555
H19 C18 1_555 1_555
C19 C14 1_555 1_555
N1 C4 1_555 1_555
N2 C17 1_555 1_555
N3 C19 1_555 1_555
O1 C1 1_555 1_555
O2 C1 1_555 1_555
O3 C3 1_555 1_555
O4 N2 1_555 1_555
O5 N2 1_555 1_555
O6 N3 1_555 1_555
O7 N3 1_555 1_555
O8 H22 1_555 1_555
H20 N1 1_555 1_555
H21 O3 1_555 1_555
H23 O8 1_555 1_555
C10 C11 1_555 1_555
C13 O2 1_555 1_555
C14 N1 1_555 1_555
C18 C19 1_555 1_555

#END
