
#######################################################################
#
#                 Cambridge Crystallographic Data Centre
#                                CCDC 
#
#######################################################################
#
# If this CIF has been generated from an entry in the Cambridge 
# Structural Database, then it will include bibliographic, chemical, 
# crystal, experimental, refinement or atomic coordinate data resulting 
# from the CCDC's data processing and validation procedures.
#
#######################################################################

data_IYIYOE
_chemical_formula_moiety         'C9 H4 Cl2 F1 N1'
_chemical_name_systematic        4,7-Dichloro-8-fluoroquinoline
_symmetry_cell_setting           orthorhombic
_symmetry_space_group_name_H-M   'P n a 21'
_symmetry_Int_Tables_number      33
_space_group_name_Hall           'P 2c -2n'
loop_
_symmetry_equiv_pos_site_id
_symmetry_equiv_pos_as_xyz
1 x,y,z
2 -x,-y,1/2+z
3 1/2+x,1/2-y,z
4 1/2-x,1/2+y,1/2+z
_cell_length_a                   23.335(4)
_cell_length_b                   3.772(1)
_cell_length_c                   9.601(2)
_cell_angle_alpha                90
_cell_angle_beta                 90
_cell_angle_gamma                90
_cell_volume                     845.076
_exptl_crystal_colour            colorless
_exptl_crystal_description       plate
_cell_formula_units_Z            4
loop_
_atom_site_label
_atom_site_type_symbol
_atom_site_fract_x
_atom_site_fract_y
_atom_site_fract_z
Cl1 Cl 0.11990(4) 0.4692(2) 0.94156(10)
Cl2 Cl 0.19867(4) 0.7425(2) 0.24202(12)
F2 F 0.08894(8) 0.3888(5) 0.28514(18)
N1 N 0.03652(11) 0.2247(7) 0.5262(3)
C1 C 0.01202(14) 0.1510(9) 0.6457(3)
H1 H -0.0247 0.0435 0.6436
C2 C 0.03653(15) 0.2205(9) 0.7770(3)
H2 H 0.0171 0.1563 0.8600
C3 C 0.08866(16) 0.3824(9) 0.7821(3)
C4 C 0.17199(15) 0.6421(9) 0.6499(4)
H3 H 0.1916 0.7061 0.7339
C5 C 0.19638(14) 0.7136(8) 0.5251(4)
H4 H 0.2331 0.8210 0.5220
C6 C 0.16832(14) 0.6320(9) 0.4013(3)
C7 C 0.11602(13) 0.4717(8) 0.4042(3)
C8 C 0.08867(13) 0.3856(8) 0.5309(3)
C9 C 0.11776(14) 0.4735(8) 0.6575(4)
F1? F 0.1942(5) 0.747(3) 0.7797(12)
loop_
_geom_bond_atom_site_label_1
_geom_bond_atom_site_label_2
_geom_bond_site_symmetry_1
_geom_bond_site_symmetry_2
Cl1 C3 1_555 1_555
Cl2 C6 1_555 1_555
F2 C7 1_555 1_555
N1 C1 1_555 1_555
C1 H1 1_555 1_555
C2 C1 1_555 1_555
H2 C2 1_555 1_555
C3 C2 1_555 1_555
C4 H3 1_555 1_555
C5 C4 1_555 1_555
H4 C5 1_555 1_555
C6 C5 1_555 1_555
C7 C6 1_555 1_555
C8 N1 1_555 1_555
C9 C3 1_555 1_555
C4 C9 1_555 1_555
C7 C8 1_555 1_555
C8 C9 1_555 1_555

#END
