
#######################################################################
#
#                 Cambridge Crystallographic Data Centre
#                                CCDC 
#
#######################################################################
#
# If this CIF has been generated from an entry in the Cambridge 
# Structural Database, then it will include bibliographic, chemical, 
# crystal, experimental, refinement or atomic coordinate data resulting 
# from the CCDC's data processing and validation procedures.
#
#######################################################################

data_IYIYIA
_chemical_formula_moiety         'C31 H28 N3 O1 1+,Br1 1-'
_chemical_name_systematic        
'2-(3-hydroxypropyl)-1-(2-naphthylmethyl)-3-(quinolin-2-ylmethyl)-1H-benzimidazol-3-ium bromide'
_chemical_properties_biological  'anti-tumour activity'
_symmetry_cell_setting           triclinic
_symmetry_space_group_name_H-M   'P -1'
_symmetry_Int_Tables_number      2
_space_group_name_Hall           '-P 1'
loop_
_symmetry_equiv_pos_site_id
_symmetry_equiv_pos_as_xyz
1 x,y,z
2 -x,-y,-z
_cell_length_a                   10.4596(3)
_cell_length_b                   10.4601(3)
_cell_length_c                   12.7946(4)
_cell_angle_alpha                113.0640(10)
_cell_angle_beta                 97.215(2)
_cell_angle_gamma                99.6430(10)
_cell_volume                     1241.21
_exptl_crystal_colour            brown
_exptl_crystal_description       plate
_chemical_melting_point          '246-250 deg.C'
_cell_formula_units_Z            2
loop_
_atom_site_label
_atom_site_type_symbol
_atom_site_fract_x
_atom_site_fract_y
_atom_site_fract_z
Br1 Br 0.319977(18) 0.22426(2) 0.010651(17)
O1 O 0.5448(2) 0.2590(3) 1.22307(17)
H1 H 0.4992 0.2563 1.1630
N1 N 0.87498(15) 0.21007(17) 0.92041(13)
N2 N 0.72723(15) 0.33327(17) 0.91470(13)
N3 N 0.51604(16) 0.14425(17) 0.74480(14)
C1 C 0.75460(18) 0.2274(2) 0.94094(15)
C2 C 0.92595(18) 0.3069(2) 0.87768(16)
C3 C 1.04537(19) 0.3327(2) 0.84336(17)
H2 H 1.1117 0.2824 0.8491
C4 C 1.0618(2) 0.4355(2) 0.80047(17)
H3 H 1.1414 0.4555 0.7753
C5 C 0.9648(2) 0.5114(2) 0.79287(17)
H4 H 0.9799 0.5801 0.7617
C6 C 0.84758(19) 0.4882(2) 0.82977(16)
H5 H 0.7823 0.5403 0.8263
C7 C 0.83107(18) 0.3843(2) 0.87215(15)
C8 C 0.59983(18) 0.3731(2) 0.90990(17)
H6 H 0.6142 0.4735 0.9197
H7 H 0.5604 0.3664 0.9745
C9 C 0.50485(18) 0.2765(2) 0.79544(16)
C10 C 0.42695(19) 0.0533(2) 0.64328(17)
C11 C 0.4400(2) -0.0882(2) 0.58528(18)
H8 H 0.5096 -0.1192 0.6166
C12 C 0.3529(2) -0.1807(2) 0.48408(19)
H9 H 0.3624 -0.2757 0.4455
C13 C 0.2488(2) -0.1366(2) 0.43629(18)
H10 H 0.1885 -0.2024 0.3664
C14 C 0.2343(2) -0.0001(2) 0.48975(18)
H11 H 0.1643 0.0289 0.4568
C15 C 0.3234(2) 0.0983(2) 0.59429(18)
C16 C 0.3171(2) 0.2424(2) 0.65191(19)
H12 H 0.2498 0.2768 0.6214
C17 C 0.4074(2) 0.3322(2) 0.75100(19)
H13 H 0.4053 0.4298 0.7895
C18 C 0.94034(19) 0.1003(2) 0.93279(17)
H14 H 0.8978 0.0624 0.9830
H15 H 1.0347 0.1453 0.9715
C19 C 0.93215(19) -0.0225(2) 0.81649(17)
C20 C 0.8188(2) -0.1288(2) 0.76459(18)
H16 H 0.7442 -0.1229 0.8001
C21 C 0.8106(2) -0.2475(2) 0.65873(18)
C22 C 0.6945(2) -0.3604(2) 0.6044(2)
H17 H 0.6191 -0.3565 0.6389
C23 C 0.6905(2) -0.4748(2) 0.5027(2)
H18 H 0.6120 -0.5492 0.4665
C24 C 0.8024(2) -0.4825(2) 0.45167(19)
H19 H 0.7992 -0.5632 0.3820
C25 C 0.9150(2) -0.3757(2) 0.50088(18)
H20 H 0.9891 -0.3821 0.4647
C26 C 0.9227(2) -0.2549(2) 0.60576(17)
C27 C 1.0382(2) -0.1423(2) 0.66055(18)
H21 H 1.1132 -0.1451 0.6255
C28 C 1.0432(2) -0.0296(2) 0.76319(18)
H22 H 1.1219 0.0447 0.7991
C29 C 0.67045(18) 0.1505(2) 0.99338(16)
H23 H 0.6655 0.0467 0.9540
H24 H 0.5794 0.1646 0.9816
C30 C 0.7271(2) 0.2050(3) 1.12471(19)
H25 H 0.8039 0.1639 1.1347
H26 H 0.7601 0.3102 1.1583
C31 C 0.6307(2) 0.1696(3) 1.19176(19)
H27 H 0.5773 0.0706 1.1447
H28 H 0.6814 0.1715 1.2634
loop_
_geom_bond_atom_site_label_1
_geom_bond_atom_site_label_2
_geom_bond_site_symmetry_1
_geom_bond_site_symmetry_2
O1 H1 1_555 1_555
N1 C1 1_555 1_555
N2 C1 1_555 1_555
N3 C9 1_555 1_555
C1 C29 1_555 1_555
C2 N1 1_555 1_555
C3 C2 1_555 1_555
H2 C3 1_555 1_555
C4 C3 1_555 1_555
H3 C4 1_555 1_555
C5 C4 1_555 1_555
H4 C5 1_555 1_555
C6 C5 1_555 1_555
H5 C6 1_555 1_555
C7 N2 1_555 1_555
C8 N2 1_555 1_555
H6 C8 1_555 1_555
H7 C8 1_555 1_555
C9 C8 1_555 1_555
C10 N3 1_555 1_555
C11 C10 1_555 1_555
H8 C11 1_555 1_555
C12 C11 1_555 1_555
H9 C12 1_555 1_555
C13 C12 1_555 1_555
H10 C13 1_555 1_555
C14 C13 1_555 1_555
H11 C14 1_555 1_555
C15 C10 1_555 1_555
C16 C15 1_555 1_555
H12 C16 1_555 1_555
C17 C9 1_555 1_555
H13 C17 1_555 1_555
C18 N1 1_555 1_555
H14 C18 1_555 1_555
H15 C18 1_555 1_555
C19 C18 1_555 1_555
C20 C19 1_555 1_555
H16 C20 1_555 1_555
C21 C20 1_555 1_555
C22 C21 1_555 1_555
H17 C22 1_555 1_555
C23 C22 1_555 1_555
H18 C23 1_555 1_555
C24 C23 1_555 1_555
H19 C24 1_555 1_555
C25 C24 1_555 1_555
H20 C25 1_555 1_555
C26 C21 1_555 1_555
C27 C26 1_555 1_555
H21 C27 1_555 1_555
C28 C19 1_555 1_555
H22 C28 1_555 1_555
C29 H23 1_555 1_555
H24 C29 1_555 1_555
C30 C29 1_555 1_555
H25 C30 1_555 1_555
H26 C30 1_555 1_555
C31 O1 1_555 1_555
H27 C31 1_555 1_555
H28 C31 1_555 1_555
C2 C7 1_555 1_555
C6 C7 1_555 1_555
C14 C15 1_555 1_555
C16 C17 1_555 1_555
C25 C26 1_555 1_555
C27 C28 1_555 1_555
C30 C31 1_555 1_555

#END
