
#######################################################################
#
#                 Cambridge Crystallographic Data Centre
#                                CCDC 
#
#######################################################################
#
# If this CIF has been generated from an entry in the Cambridge 
# Structural Database, then it will include bibliographic, chemical, 
# crystal, experimental, refinement or atomic coordinate data resulting 
# from the CCDC's data processing and validation procedures.
#
#######################################################################

data_IYIZAT
_chemical_formula_moiety         'C28 H23 N4 1+,4(H2 O1),Cl1 1-'
_chemical_name_systematic        
'2-methyl-1,3-bis(quinolin-2-ylmethyl)-1H-3,1-benzimidazol-3-ium chloride tetrahydrate'
_chemical_properties_biological  'anti-tumour activity'
_symmetry_cell_setting           orthorhombic
_symmetry_space_group_name_H-M   'P b c a'
_symmetry_Int_Tables_number      61
_space_group_name_Hall           '-P 2ac 2ab'
loop_
_symmetry_equiv_pos_site_id
_symmetry_equiv_pos_as_xyz
1 x,y,z
2 1/2-x,-y,1/2+z
3 -x,1/2+y,1/2-z
4 1/2+x,1/2-y,-z
5 -x,-y,-z
6 1/2+x,y,1/2-z
7 x,1/2-y,1/2+z
8 1/2-x,1/2+y,z
_cell_length_a                   14.5122(2)
_cell_length_b                   14.0615(2)
_cell_length_c                   24.8411(3)
_cell_angle_alpha                90
_cell_angle_beta                 90
_cell_angle_gamma                90
_cell_volume                     5069.16
_exptl_crystal_colour            colorless
_exptl_crystal_description       plate
_chemical_melting_point          '279-282 deg.C'
_cell_formula_units_Z            8
loop_
_atom_site_label
_atom_site_type_symbol
_atom_site_fract_x
_atom_site_fract_y
_atom_site_fract_z
Cl1 Cl 0.11758(3) 0.54786(3) 0.112041(16)
O1 O 0.23589(5) 0.71801(6) 0.46104(3)
H1 H 0.1998 0.7594 0.4763
H2 H 0.2664 0.6872 0.4856
O2 O 0.92083(6) 0.51273(8) 0.06112(3)
H3 H 0.9760 0.5209 0.0741
H4 H 0.8811 0.5126 0.0873
O3 O 0.11548(6) 0.64801(7) 0.00009(3)
H5 H 0.1190 0.6218 0.0317
H6 H 0.1016 0.6050 -0.0238
O4 O 0.85829(8) 0.61949(8) 0.97256(3)
H7 H 0.8626 0.5824 0.9446
H8 H 0.8826 0.5916 1.0004
N1 N 0.55882(10) 0.87916(9) 0.41417(5)
N2 N 0.41964(10) 0.93787(9) 0.41773(5)
N3 N 0.57822(10) 0.82924(9) 0.30872(5)
N4 N 0.20610(10) 1.01381(9) 0.35257(5)
C1 C 0.43082(13) 0.76441(11) 0.39482(7)
H9 H 0.4155 0.7624 0.3564
H10 H 0.3750 0.7533 0.4161
H11 H 0.4764 0.7150 0.4030
C2 C 0.46946(12) 0.85891(11) 0.40841(6)
C3 C 0.56855(12) 0.97531(11) 0.42731(6)
C4 C 0.64609(12) 1.03063(12) 0.43739(6)
H12 H 0.7067 1.0053 0.4356
C5 C 0.62943(13) 1.12509(12) 0.45018(6)
H13 H 0.6803 1.1659 0.4571
C6 C 0.53992(13) 1.16232(12) 0.45325(7)
H14 H 0.5319 1.2273 0.4625
C7 C 0.46303(13) 1.10708(11) 0.44315(6)
H15 H 0.4023 1.1321 0.4452
C8 C 0.48003(12) 1.01270(11) 0.42984(6)
C9 C 0.63537(12) 0.81648(11) 0.39996(6)
H16 H 0.6232 0.7520 0.4143
H17 H 0.6925 0.8404 0.4170
C10 C 0.64939(12) 0.81039(10) 0.33950(6)
C11 C 0.73629(12) 0.78032(11) 0.32000(7)
H18 H 0.7862 0.7695 0.3440
C12 C 0.74667(12) 0.76720(11) 0.26588(7)
H19 H 0.8041 0.7464 0.2518
C13 C 0.67202(12) 0.78455(11) 0.23093(6)
C14 C 0.67636(13) 0.77100(11) 0.17436(7)
H20 H 0.7312 0.7472 0.1584
C15 C 0.60225(13) 0.79195(11) 0.14266(7)
H21 H 0.6064 0.7839 0.1048
C16 C 0.51974(13) 0.82541(11) 0.16561(7)
H22 H 0.4686 0.8399 0.1432
C17 C 0.51288(13) 0.83711(11) 0.22036(7)
H23 H 0.4566 0.8588 0.2356
C18 C 0.58827(12) 0.81737(10) 0.25409(6)
C19 C 0.31986(12) 0.94886(12) 0.41170(6)
H24 H 0.2975 0.9954 0.4386
H25 H 0.2897 0.8872 0.4193
C20 C 0.29155(12) 0.98211(11) 0.35571(6)
C21 C 0.35086(12) 0.97496(11) 0.31078(6)
H26 H 0.4127 0.9542 0.3150
C22 C 0.31745(12) 0.99858(11) 0.26098(6)
H27 H 0.3562 0.9941 0.2302
C23 C 0.22556(12) 1.02955(10) 0.25537(6)
C24 C 0.18575(12) 1.05307(11) 0.20485(6)
H28 H 0.2207 1.0459 0.1728
C25 C 0.09721(12) 1.08606(11) 0.20225(6)
H29 H 0.0709 1.1019 0.1684
C26 C 0.04465(12) 1.09665(11) 0.24984(7)
H30 H -0.0164 1.1208 0.2477
C27 C 0.08057(12) 1.07258(11) 0.29915(6)
H31 H 0.0440 1.0789 0.3307
C28 C 0.17190(12) 1.03841(10) 0.30297(6)
loop_
_geom_bond_atom_site_label_1
_geom_bond_atom_site_label_2
_geom_bond_site_symmetry_1
_geom_bond_site_symmetry_2
O1 H1 1_555 1_555
H2 O1 1_555 1_555
O2 H3 1_555 1_555
H4 O2 1_555 1_555
O3 H5 1_555 1_555
H6 O3 1_555 1_555
O4 H7 1_555 1_555
H8 O4 1_555 1_555
N1 C2 1_555 1_555
N2 C2 1_555 1_555
N3 C10 1_555 1_555
N4 C20 1_555 1_555
C1 H9 1_555 1_555
H10 C1 1_555 1_555
H11 C1 1_555 1_555
C2 C1 1_555 1_555
C3 N1 1_555 1_555
C4 C3 1_555 1_555
H12 C4 1_555 1_555
C5 C4 1_555 1_555
H13 C5 1_555 1_555
C6 C5 1_555 1_555
H14 C6 1_555 1_555
C7 C6 1_555 1_555
H15 C7 1_555 1_555
C8 N2 1_555 1_555
C9 N1 1_555 1_555
H16 C9 1_555 1_555
H17 C9 1_555 1_555
C10 C9 1_555 1_555
C11 C10 1_555 1_555
H18 C11 1_555 1_555
C12 C11 1_555 1_555
H19 C12 1_555 1_555
C13 C12 1_555 1_555
C14 C13 1_555 1_555
H20 C14 1_555 1_555
C15 C14 1_555 1_555
H21 C15 1_555 1_555
C16 C15 1_555 1_555
H22 C16 1_555 1_555
C17 C16 1_555 1_555
H23 C17 1_555 1_555
C18 N3 1_555 1_555
C19 N2 1_555 1_555
H24 C19 1_555 1_555
H25 C19 1_555 1_555
C20 C19 1_555 1_555
C21 C20 1_555 1_555
H26 C21 1_555 1_555
C22 C21 1_555 1_555
H27 C22 1_555 1_555
C23 C22 1_555 1_555
C24 C23 1_555 1_555
H28 C24 1_555 1_555
C25 C24 1_555 1_555
H29 C25 1_555 1_555
C26 C25 1_555 1_555
H30 C26 1_555 1_555
C27 C26 1_555 1_555
H31 C27 1_555 1_555
C28 N4 1_555 1_555
C3 C8 1_555 1_555
C7 C8 1_555 1_555
C13 C18 1_555 1_555
C17 C18 1_555 1_555
C23 C28 1_555 1_555
C27 C28 1_555 1_555

#END
