
#######################################################################
#
#                 Cambridge Crystallographic Data Centre
#                                CCDC 
#
#######################################################################
#
# If this CIF has been generated from an entry in the Cambridge 
# Structural Database, then it will include bibliographic, chemical, 
# crystal, experimental, refinement or atomic coordinate data resulting 
# from the CCDC's data processing and validation procedures.
#
#######################################################################

data_IYIZEX
_chemical_formula_moiety         'C33 H33 N4 O3 1+,C3 H8 O1,H2 O1,Cl1 1-'
_chemical_name_systematic        
'2-((2-(2-methoxyethoxy)ethoxy)methyl)-1,3-bis(quinolin-2-ylmethyl)-1H-3,1-benzimidazol-3-ium chloride propan-2-ol solvate monohydrate'
_chemical_properties_biological  'anti-tumour activity'
_symmetry_cell_setting           monoclinic
_symmetry_space_group_name_H-M   'P 21/n'
_symmetry_Int_Tables_number      14
_space_group_name_Hall           '-P 2yn'
loop_
_symmetry_equiv_pos_site_id
_symmetry_equiv_pos_as_xyz
1 x,y,z
2 1/2-x,1/2+y,1/2-z
3 -x,-y,-z
4 1/2+x,1/2-y,1/2+z
_cell_length_a                   13.3734(5)
_cell_length_b                   12.2699(6)
_cell_length_c                   21.1045(9)
_cell_angle_alpha                90
_cell_angle_beta                 90.419(2)
_cell_angle_gamma                90
_cell_volume                     3462.95
_exptl_crystal_colour            colorless
_exptl_crystal_description       plate
_chemical_melting_point          '203-206 deg.C'
_cell_formula_units_Z            4
loop_
_atom_site_label
_atom_site_type_symbol
_atom_site_fract_x
_atom_site_fract_y
_atom_site_fract_z
O1 O 0.89315(15) 0.60022(15) 0.96796(12)
H1 H 0.910(2) 0.5455(18) 0.9464(12)
H2 H 0.927(2) 0.602(3) 1.0023(10)
Cl1 Cl 0.04040(4) 0.63909(5) 0.08835(3)
O2 O 0.68175(10) -0.04413(12) -0.05448(7)
O3 O 0.53858(11) 0.13947(12) -0.05913(7)
O4 O 0.38879(11) 0.29265(12) -0.00816(8)
N1 N 0.83862(11) -0.07747(13) 0.06461(7)
N2 N 0.82640(11) 0.08803(13) 0.02748(7)
N3 N 0.71891(12) -0.12065(13) 0.16559(8)
N4 N 0.68460(12) 0.22196(14) 0.08801(8)
C1 C 0.77826(14) -0.00664(16) 0.03541(9)
C2 C 0.92877(14) -0.02638(16) 0.07841(9)
C3 C 1.01534(14) -0.06402(17) 0.10821(9)
H3 H 1.0199 -0.1354 0.1254
C4 C 1.09450(15) 0.00881(18) 0.11130(9)
H4 H 1.1549 -0.0129 0.1316
C5 C 1.08768(15) 0.11371(18) 0.08519(9)
H5 H 1.1439 0.1608 0.0880
C6 C 1.00190(14) 0.15070(17) 0.05556(9)
H6 H 0.9977 0.2216 0.0376
C7 C 0.92187(14) 0.07842(16) 0.05344(9)
C8 C 0.81632(15) -0.19148(16) 0.07892(10)
H7 H 0.8792 -0.2341 0.0783
H8 H 0.7715 -0.2211 0.0456
C9 C 0.76711(14) -0.20511(16) 0.14280(9)
C10 C 0.77196(15) -0.30828(17) 0.17232(10)
H9 H 0.8097 -0.3658 0.1542
C11 C 0.72119(15) -0.32337(18) 0.22735(10)
H10 H 0.7227 -0.3922 0.2480
C12 C 0.66634(14) -0.23624(17) 0.25359(9)
C13 C 0.60957(17) -0.24496(19) 0.30987(10)
H11 H 0.6066 -0.3127 0.3316
C14 C 0.55934(17) -0.1574(2) 0.33308(10)
H12 H 0.5213 -0.1645 0.3707
C15 C 0.56330(16) -0.05647(19) 0.30185(10)
H13 H 0.5287 0.0045 0.3187
C16 C 0.61695(16) -0.04575(17) 0.24720(10)
H14 H 0.6191 0.0228 0.2263
C17 C 0.66886(14) -0.13489(16) 0.22171(9)
C18 C 0.78686(15) 0.18539(16) -0.00382(10)
H15 H 0.7373 0.1630 -0.0364
H16 H 0.8421 0.2232 -0.0257
C19 C 0.73782(14) 0.26399(16) 0.04152(9)
C20 C 0.74784(15) 0.37707(17) 0.03040(10)
H17 H 0.7881 0.4030 -0.0033
C21 C 0.69881(16) 0.44835(18) 0.06874(10)
H18 H 0.7042 0.5246 0.0618
C22 C 0.63975(15) 0.40776(17) 0.11902(10)
C23 C 0.58460(16) 0.47546(19) 0.16068(11)
H19 H 0.5853 0.5522 0.1549
C24 C 0.53064(18) 0.4314(2) 0.20891(11)
H20 H 0.4949 0.4776 0.2369
C25 C 0.52765(17) 0.3179(2) 0.21738(11)
H21 H 0.4905 0.2879 0.2514
C26 C 0.57783(16) 0.25024(19) 0.17702(10)
H22 H 0.5736 0.1735 0.1825
C27 C 0.63597(14) 0.29349(17) 0.12717(9)
C28 C 0.67464(14) -0.02793(17) 0.01230(9)
H23 H 0.6468 -0.0936 0.0330
H24 H 0.6307 0.0349 0.0217
C29 C 0.58613(15) -0.04323(19) -0.08574(11)
H25 H 0.5342 -0.0672 -0.0556
H26 H 0.5870 -0.0957 -0.1214
C30 C 0.55955(17) 0.0677(2) -0.11057(11)
H27 H 0.6158 0.0970 -0.1356
H28 H 0.5002 0.0624 -0.1387
C31 C 0.51948(16) 0.24829(18) -0.08021(11)
H29 H 0.4657 0.2479 -0.1127
H30 H 0.5805 0.2790 -0.0996
C32 C 0.48871(15) 0.31700(18) -0.02514(11)
H31 H 0.5338 0.3029 0.0114
H32 H 0.4942 0.3951 -0.0365
C33 C 0.36217(18) 0.3424(2) 0.05047(12)
H33 H 0.4003 0.3085 0.0851
H34 H 0.2905 0.3323 0.0578
H35 H 0.3775 0.4204 0.0488
O5 O 0.2235(2) 0.7439(2) 0.16227(12)
H36 H 0.1693 0.7241 0.1455
C34 C 0.2442(5) 0.6777(5) 0.2154(2)
H37 H 0.1829 0.6837 0.2420
C35 C 0.2554(6) 0.5669(6) 0.2056(4)
H38 H 0.2091 0.5430 0.1722
H39 H 0.2409 0.5276 0.2449
H40 H 0.3243 0.5515 0.1927
C36 C 0.3223(7) 0.7352(6) 0.2526(3)
H41 H 0.3402 0.8031 0.2311
H42 H 0.3816 0.6887 0.2564
H43 H 0.2968 0.7518 0.2949
loop_
_geom_bond_atom_site_label_1
_geom_bond_atom_site_label_2
_geom_bond_site_symmetry_1
_geom_bond_site_symmetry_2
O1 H1 1_555 1_555
H2 O1 1_555 1_555
O2 C28 1_555 1_555
O3 C30 1_555 1_555
O4 C32 1_555 1_555
N1 C1 1_555 1_555
N2 C1 1_555 1_555
N3 C9 1_555 1_555
N4 C19 1_555 1_555
C1 C28 1_555 1_555
C2 N1 1_555 1_555
C3 C2 1_555 1_555
H3 C3 1_555 1_555
C4 C3 1_555 1_555
H4 C4 1_555 1_555
C5 C4 1_555 1_555
H5 C5 1_555 1_555
C6 C5 1_555 1_555
H6 C6 1_555 1_555
C7 N2 1_555 1_555
C8 N1 1_555 1_555
H7 C8 1_555 1_555
H8 C8 1_555 1_555
C9 C8 1_555 1_555
C10 C9 1_555 1_555
H9 C10 1_555 1_555
C11 C10 1_555 1_555
H10 C11 1_555 1_555
C12 C11 1_555 1_555
C13 C12 1_555 1_555
H11 C13 1_555 1_555
C14 C13 1_555 1_555
H12 C14 1_555 1_555
C15 C14 1_555 1_555
H13 C15 1_555 1_555
C16 C15 1_555 1_555
H14 C16 1_555 1_555
C17 N3 1_555 1_555
C18 N2 1_555 1_555
H15 C18 1_555 1_555
H16 C18 1_555 1_555
C19 C18 1_555 1_555
C20 C19 1_555 1_555
H17 C20 1_555 1_555
C21 C20 1_555 1_555
H18 C21 1_555 1_555
C22 C21 1_555 1_555
C23 C22 1_555 1_555
H19 C23 1_555 1_555
C24 C23 1_555 1_555
H20 C24 1_555 1_555
C25 C24 1_555 1_555
H21 C25 1_555 1_555
C26 C25 1_555 1_555
H22 C26 1_555 1_555
C27 N4 1_555 1_555
C28 H23 1_555 1_555
H24 C28 1_555 1_555
C29 O2 1_555 1_555
H25 C29 1_555 1_555
H26 C29 1_555 1_555
C30 C29 1_555 1_555
H27 C30 1_555 1_555
H28 C30 1_555 1_555
C31 O3 1_555 1_555
H29 C31 1_555 1_555
H30 C31 1_555 1_555
C32 C31 1_555 1_555
H31 C32 1_555 1_555
H32 C32 1_555 1_555
C33 O4 1_555 1_555
H33 C33 1_555 1_555
H34 C33 1_555 1_555
H35 C33 1_555 1_555
O5 H36 1_555 1_555
C34 O5 1_555 1_555
H37 C34 1_555 1_555
C35 C34 1_555 1_555
H38 C35 1_555 1_555
H39 C35 1_555 1_555
H40 C35 1_555 1_555
C36 C34 1_555 1_555
H41 C36 1_555 1_555
H42 C36 1_555 1_555
H43 C36 1_555 1_555
C2 C7 1_555 1_555
C6 C7 1_555 1_555
C12 C17 1_555 1_555
C16 C17 1_555 1_555
C22 C27 1_555 1_555
C26 C27 1_555 1_555

#END
