
#######################################################################
#
#                 Cambridge Crystallographic Data Centre
#                                CCDC 
#
#######################################################################
#
# If this CIF has been generated from an entry in the Cambridge 
# Structural Database, then it will include bibliographic, chemical, 
# crystal, experimental, refinement or atomic coordinate data resulting 
# from the CCDC's data processing and validation procedures.
#
#######################################################################

data_IYODOQ
_chemical_name_common            
'2,4,6,8,10,12-hexamethyl-2,4,6,8,10,12-hexaaza-1,5,9(4,6)-tripyrimidina-3,7,11(2,6)-tripyridinacyclododecaphane unknown solvate'
_chemical_formula_moiety         'C33 H33 N15'
_chemical_name_systematic        
'2,8,14,20,26,32-Hexamethyl-2,4,6,8,14,16,18,20,26,28,30,32,37,39,41-pentadecaazaheptacyclo[31.3.1.1^3,7^.1^9,13^.1^15,19^.1^21,25^.1^27,31^]dotetraconta-1(37),3(42),4,6,9(41),10,12,15(40),16,18,21(39),22,24,27(38),28,30,33,35-octadecaene unknown solvate'
_symmetry_cell_setting           rhombohedral
_symmetry_space_group_name_H-M   'R -3'
_symmetry_Int_Tables_number      148
_space_group_name_Hall           '-R 3'
loop_
_symmetry_equiv_pos_site_id
_symmetry_equiv_pos_as_xyz
1 x,y,z
2 -y,x-y,z
3 -x+y,-x,z
4 2/3+x,1/3+y,1/3+z
5 2/3-y,1/3+x-y,1/3+z
6 2/3-x+y,1/3-x,1/3+z
7 1/3+x,2/3+y,2/3+z
8 1/3-y,2/3+x-y,2/3+z
9 1/3-x+y,2/3-x,2/3+z
10 -x,-y,-z
11 y,-x+y,-z
12 x-y,x,-z
13 1/3-x,2/3-y,2/3-z
14 1/3+y,2/3-x+y,2/3-z
15 1/3+x-y,2/3+x,2/3-z
16 2/3-x,1/3-y,1/3-z
17 2/3+y,1/3-x+y,1/3-z
18 2/3+x-y,1/3+x,1/3-z
_cell_length_a                   15.180(2)
_cell_length_b                   15.180(2)
_cell_length_c                   27.583(6)
_cell_angle_alpha                90
_cell_angle_beta                 90
_cell_angle_gamma                120
_cell_volume                     5504.47
_exptl_crystal_colour            colorless
_exptl_crystal_description       block
_cell_formula_units_Z            6
loop_
_atom_site_label
_atom_site_type_symbol
_atom_site_fract_x
_atom_site_fract_y
_atom_site_fract_z
N1 N 0.86338(18) 0.79954(17) 0.06454(8)
N2 N 0.54629(17) 0.51700(17) 0.07985(8)
N3 N 1.00437(18) 0.77074(17) 0.05662(8)
N4 N 0.70121(18) 0.66785(16) 0.08397(9)
N5 N 0.99087(18) 0.61460(19) 0.07154(9)
C1 C 0.6340(2) 0.5712(2) 0.10416(10)
C2 C 0.9435(2) 0.6728(2) 0.06970(9)
C3 C 0.9594(2) 0.8268(2) 0.05486(10)
H1 H 1.0018 0.8956 0.0454
C4 C 0.4913(2) 0.3887(2) 0.14123(10)
H2 H 0.4398 0.3255 0.1538
C5 C 0.6559(2) 0.5379(2) 0.14663(10)
H3 H 0.7193 0.5775 0.1626
C6 C 0.8408(2) 0.6329(2) 0.07827(10)
H4 H 0.7977 0.5628 0.0854
C7 C 0.8030(2) 0.7001(2) 0.07606(9)
C8 C 0.5823(2) 0.4448(2) 0.16539(10)
H5 H 0.5946 0.4201 0.1947
C9 C 0.4769(2) 0.4270(2) 0.09771(10)
C10 C 0.6580(2) 0.7289(2) 0.06659(11)
H6 H 0.7125 0.7937 0.0539
H7 H 0.6237 0.7420 0.0934
H8 H 0.6088 0.6921 0.0408
C11 C 1.0839(2) 0.6455(2) 0.04411(12)
H9 H 1.1067 0.5962 0.0493
H10 H 1.1368 0.7129 0.0550
H11 H 1.0706 0.6482 0.0095
N1A N 0.20046(17) 0.06384(25) 0.06454(8)
N1B N 0.93616(25) 0.13662(18) 0.06454(8)
N2A N 0.48300(17) 0.02929(24) 0.07985(8)
N2B N 0.97071(24) 0.45371(17) 0.07985(8)
N3A N 0.22926(17) 0.23363(25) 0.05662(8)
N3B N 0.76637(25) -0.00437(18) 0.05662(8)
N4A N 0.33215(16) 0.03336(24) 0.08397(9)
N4B N 0.96664(24) 0.29879(18) 0.08397(9)
N5A N 0.38540(19) 0.37627(26) 0.07154(9)
N5B N 0.62373(26) 0.00913(18) 0.07154(9)
C1A C 0.4288(2) 0.0628(3) 0.10416(10)
C1B C 0.9372(3) 0.3660(2) 0.10416(10)
C2A C 0.3272(2) 0.2707(3) 0.06970(9)
C2B C 0.7293(3) 0.0565(2) 0.06970(9)
C3A C 0.1732(2) 0.1326(3) 0.05486(10)
C3B C 0.8674(3) 0.0406(2) 0.05486(10)
H1A H 0.1044 0.1062 0.0454
H1B H 0.8938 -0.0018 0.0454
C4A C 0.6113(2) 0.1026(3) 0.14123(10)
C4B C 0.8974(3) 0.5087(2) 0.14123(10)
H2A H 0.6745 0.1143 0.1538
H2B H 0.8857 0.5602 0.1538
C5A C 0.4621(2) 0.1180(3) 0.14663(10)
C5B C 0.8820(3) 0.3441(2) 0.14663(10)
H3A H 0.4225 0.1418 0.1626
H3B H 0.8582 0.2807 0.1626
C6A C 0.3671(2) 0.2079(3) 0.07827(10)
C6B C 0.7921(3) 0.1592(2) 0.07827(10)
H4A H 0.4372 0.2349 0.0854
H4B H 0.7651 0.2023 0.0854
C7A C 0.2999(2) 0.1029(3) 0.07606(9)
C7B C 0.8971(3) 0.1970(2) 0.07606(9)
C8A C 0.5552(2) 0.1375(3) 0.16539(10)
C8B C 0.8625(3) 0.4177(2) 0.16539(10)
H5A H 0.5799 0.1745 0.1947
H5B H 0.8255 0.4054 0.1947
C9A C 0.5730(2) 0.0499(3) 0.09771(10)
C9B C 0.9501(3) 0.5231(2) 0.09771(10)
C10A C 0.2711(2) -0.0709(3) 0.06659(11)
C10B C 1.0709(3) 0.3420(2) 0.06659(11)
H6A H 0.2063 -0.0812 0.0539
H6B H 1.0812 0.2875 0.0539
H7A H 0.2580 -0.1183 0.0934
H7B H 1.1183 0.3763 0.0934
H8A H 0.3079 -0.0833 0.0408
H8B H 1.0833 0.3912 0.0408
C11A C 0.3545(2) 0.4384(3) 0.04411(12)
C11B C 0.5616(3) -0.0839(2) 0.04411(12)
H9A H 0.4038 0.5105 0.0493
H9B H 0.4895 -0.1067 0.0493
H10A H 0.2871 0.4239 0.0550
H10B H 0.5761 -0.1368 0.0550
H11A H 0.3518 0.4224 0.0095
H11B H 0.5776 -0.0706 0.0095
loop_
_geom_bond_atom_site_label_1
_geom_bond_atom_site_label_2
_geom_bond_site_symmetry_1
_geom_bond_site_symmetry_2
N1 C3 1_555 1_555
N2 C1 1_555 1_555
N3 C2 1_555 1_555
N4 C1 1_555 1_555
N5 C2 1_555 1_555
C1 C5 1_555 1_555
C2 C6 1_555 1_555
C3 N3 1_555 1_555
H1 C3 1_555 1_555
C4 H2 1_555 1_555
C5 H3 1_555 1_555
C6 H4 1_555 1_555
C7 N1 1_555 1_555
C8 C4 1_555 1_555
H5 C8 1_555 1_555
C9 N2 1_555 1_555
C10 N4 1_555 1_555
H6 C10 1_555 1_555
H7 C10 1_555 1_555
H8 C10 1_555 1_555
C11 N5 1_555 1_555
H9 C11 1_555 1_555
H10 C11 1_555 1_555
H11 C11 1_555 1_555
N1A C3A 1_555 1_555
N1B C3B 1_555 1_555
N2A C1A 1_555 1_555
N2B C1B 1_555 1_555
N3A C2A 1_555 1_555
N3B C2B 1_555 1_555
N4A C1A 1_555 1_555
N4B C1B 1_555 1_555
N5A C9 1_555 1_555
N5B C2B 1_555 1_555
C1A C5A 1_555 1_555
C1B C5B 1_555 1_555
C2A N5A 1_555 1_555
C2B C6B 1_555 1_555
C3A N3A 1_555 1_555
C3B N3B 1_555 1_555
H1A C3A 1_555 1_555
H1B C3B 1_555 1_555
C4A H2A 1_555 1_555
C4B H2B 1_555 1_555
C5A H3A 1_555 1_555
C5B H3B 1_555 1_555
C6A C2A 1_555 1_555
C6B H4B 1_555 1_555
H4A C6A 1_555 1_555
C7A N1A 1_555 1_555
C7B N1B 1_555 1_555
C8A C4A 1_555 1_555
C8B C4B 1_555 1_555
H5A C8A 1_555 1_555
H5B C8B 1_555 1_555
C9A N2A 1_555 1_555
C9B N5 1_555 1_555
C10A N4A 1_555 1_555
C10B N4B 1_555 1_555
H6A C10A 1_555 1_555
H6B C10B 1_555 1_555
H7A C10A 1_555 1_555
H7B C10B 1_555 1_555
H8A C10A 1_555 1_555
H8B C10B 1_555 1_555
C11A N5A 1_555 1_555
C11B N5B 1_555 1_555
H9A C11A 1_555 1_555
H9B C11B 1_555 1_555
H10A C11A 1_555 1_555
H10B C11B 1_555 1_555
H11A C11A 1_555 1_555
H11B C11B 1_555 1_555
N4 C7 1_555 1_555
C4 C9 1_555 1_555
C5 C8 1_555 1_555
C6 C7 1_555 1_555
N2B C9B 1_555 1_555
N4A C7A 1_555 1_555
N4B C7B 1_555 1_555
N5B C9A 1_555 1_555
C4A C9A 1_555 1_555
C4B C9B 1_555 1_555
C5A C8A 1_555 1_555
C5B C8B 1_555 1_555
C6A C7A 1_555 1_555
C6B C7B 1_555 1_555

#END
