
#######################################################################
#
#                 Cambridge Crystallographic Data Centre
#                                CCDC 
#
#######################################################################
#
# If this CIF has been generated from an entry in the Cambridge 
# Structural Database, then it will include bibliographic, chemical, 
# crystal, experimental, refinement or atomic coordinate data resulting 
# from the CCDC's data processing and validation procedures.
#
#######################################################################

data_IYODUW
_chemical_name_common            
'bis(2,4,6,8,10,12-hexamethyl-2,4,6,8,10,12-hexaaza-1,5,9(4,6)-tripyrimidina-3,7,11(2,6)-tripyridinacyclododecaphane) C60fullerene unknown solvate'
_chemical_formula_moiety         '2(C33 H33 N15),C60'
_chemical_name_systematic        
'bis(2,8,14,20,26,32-Hexamethyl-2,4,6,8,14,16,18,20,26,28,30,32,37,39,41-pentadecaazaheptacyclo[31.3.1.1^3,7^.1^9,13^.1^15,19^.1^21,25^.1^27,31^]dotetraconta-1(37),3(42),4,6,9(41),10,12,15(40),16,18,21(39),22,24,27(38),28,30,33,35-octadecaene) C60fullerene unknown solvate'
_symmetry_cell_setting           rhombohedral
_symmetry_space_group_name_H-M   'R -3 c'
_symmetry_Int_Tables_number      167
_space_group_name_Hall           '-R 3 2"c'
loop_
_symmetry_equiv_pos_site_id
_symmetry_equiv_pos_as_xyz
1 x,y,z
2 -y,x-y,z
3 -x+y,-x,z
4 y,x,1/2-z
5 x-y,-y,1/2-z
6 -x,-x+y,1/2-z
7 2/3+x,1/3+y,1/3+z
8 2/3-y,1/3+x-y,1/3+z
9 2/3-x+y,1/3-x,1/3+z
10 2/3+y,1/3+x,5/6-z
11 2/3+x-y,1/3-y,5/6-z
12 2/3-x,1/3-x+y,5/6-z
13 1/3+x,2/3+y,2/3+z
14 1/3-y,2/3+x-y,2/3+z
15 1/3-x+y,2/3-x,2/3+z
16 1/3+y,2/3+x,1/6-z
17 1/3+x-y,2/3-y,1/6-z
18 1/3-x,2/3-x+y,1/6-z
19 -x,-y,-z
20 y,-x+y,-z
21 x-y,x,-z
22 -y,-x,1/2+z
23 -x+y,y,1/2+z
24 x,x-y,1/2+z
25 1/3-x,2/3-y,2/3-z
26 1/3+y,2/3-x+y,2/3-z
27 1/3+x-y,2/3+x,2/3-z
28 1/3-y,2/3-x,1/6+z
29 1/3-x+y,2/3+y,1/6+z
30 1/3+x,2/3+x-y,1/6+z
31 2/3-x,1/3-y,1/3-z
32 2/3+y,1/3-x+y,1/3-z
33 2/3+x-y,1/3+x,1/3-z
34 2/3-y,1/3-x,5/6+z
35 2/3-x+y,1/3+y,5/6+z
36 2/3+x,1/3+x-y,5/6+z
_cell_length_a                   15.117(2)
_cell_length_b                   15.117(2)
_cell_length_c                   88.648(18)
_cell_angle_alpha                90
_cell_angle_beta                 90
_cell_angle_gamma                120
_cell_volume                     17544.1
_exptl_crystal_colour            purple
_exptl_crystal_description       prism
_cell_formula_units_Z            6
loop_
_atom_site_label
_atom_site_type_symbol
_atom_site_fract_x
_atom_site_fract_y
_atom_site_fract_z
N1 N 1.3395(3) 1.0529(3) 0.05616(4)
N2 N 1.2042(3) 0.7406(3) 0.05004(4)
N3 N 1.3500(3) 0.9101(3) 0.04977(4)
N4 N 1.0431(3) 0.7112(2) 0.05619(4)
N5 N 0.8808(2) 0.6929(2) 0.05692(4)
C11 C 1.4329(4) 1.1163(4) 0.04734(7)
H1 H 1.4851 1.0989 0.0501
H2 H 1.4582 1.1886 0.0495
H3 H 1.4174 1.1037 0.0366
C12 C 1.2912(3) 0.9480(3) 0.05487(4)
C13 C 1.1867(3) 0.8844(3) 0.05752(4)
H4 H 1.1456 0.9111 0.0611
C14 C 1.1452(3) 0.7807(3) 0.05472(4)
C15 C 1.3022(3) 0.8100(3) 0.04773(5)
H5 H 1.3436 0.7837 0.0441
C16 C 0.9989(4) 0.6131(4) 0.04789(7)
H6 H 1.0404 0.5810 0.0497
H7 H 0.9981 0.6258 0.0371
H8 H 0.9290 0.5676 0.0514
C17 C 0.9733(3) 0.7342(3) 0.06342(4)
C18 C 0.9980(3) 0.7919(3) 0.07663(4)
H9 H 1.0647 0.8221 0.0808
C19 C 0.9216(3) 0.8034(4) 0.08340(4)
H10 H 0.9355 0.8412 0.0925
C20 C 0.8263(3) 0.7608(3) 0.07709(4)
H11 H 0.7735 0.7676 0.0818
C21 C 1.2929(3) 1.1016(3) 0.06357(4)
N1B N 0.7134(4) 0.6605(3) 0.05616(4)
N1A N 0.9471(3) 1.2866(4) 0.05616(4)
N2B N 0.5364(4) 0.7958(3) 0.05004(4)
N2A N 1.2594(3) 1.4636(4) 0.05004(4)
N3B N 0.5601(4) 0.6500(3) 0.04977(4)
N3A N 1.0899(3) 1.4399(4) 0.04977(4)
N4B N 0.6681(4) 0.9569(3) 0.05619(4)
N4A N 1.2888(2) 1.3319(4) 0.05619(4)
N5B N 0.8121(3) 1.1192(2) 0.05692(4)
N5A N 1.3071(2) 1.1879(3) 0.05692(4)
C11B C 0.6834(6) 0.5671(4) 0.04734(7)
C11A C 0.8837(4) 1.3166(6) 0.04734(7)
H1B H 0.6138 0.5149 0.0501
H1A H 0.9011 1.3862 0.0501
H2B H 0.7304 0.5418 0.0495
H2A H 0.8114 1.2696 0.0495
H3B H 0.6863 0.5826 0.0366
H3A H 0.8963 1.3137 0.0366
C12B C 0.6568(4) 0.7088(3) 0.05487(4)
C12A C 1.0520(3) 1.3432(4) 0.05487(4)
C13A C 1.1156(3) 1.3023(4) 0.05752(4)
C13B C 0.6977(4) 0.8133(3) 0.05752(4)
H4A H 1.0889 1.2345 0.0611
H4B H 0.7655 0.8544 0.0611
C14B C 0.6355(4) 0.8548(3) 0.05472(4)
C14A C 1.2193(3) 1.3645(4) 0.05472(4)
C15B C 0.5078(4) 0.6978(3) 0.04773(5)
C15A C 1.1900(3) 1.4922(4) 0.04773(5)
H5A H 1.2163 1.5599 0.0441
H5B H 0.4401 0.6564 0.0441
C16B C 0.6142(6) 1.0011(4) 0.04789(7)
C16A C 1.3869(4) 1.3858(6) 0.04789(7)
H6B H 0.5406 0.9596 0.0497
H6A H 1.4190 1.4594 0.0497
H7B H 0.6277 1.0019 0.0371
H7A H 1.3742 1.3723 0.0371
H8B H 0.6386 1.0710 0.0514
H8A H 1.4324 1.3614 0.0514
C17B C 0.7609(4) 1.0267(3) 0.06342(4)
C17A C 1.2658(3) 1.2391(4) 0.06342(4)
C18A C 1.2081(3) 1.2061(4) 0.07663(4)
C18B C 0.7939(4) 1.0020(3) 0.07663(4)
H9A H 1.1779 1.2426 0.0808
H9B H 0.7574 0.9353 0.0808
C19A C 1.1966(4) 1.1182(5) 0.08340(4)
C19B C 0.8818(5) 1.0784(3) 0.08340(4)
H10A H 1.1588 1.0943 0.0925
H10B H 0.9057 1.0645 0.0925
C20A C 1.2392(3) 1.0655(4) 0.07709(4)
C20B C 0.9345(4) 1.1737(3) 0.07709(4)
H11A H 1.2324 1.0059 0.0818
H11B H 0.9941 1.2265 0.0818
C21B C 0.8087(4) 0.7071(3) 0.06357(4)
C21A C 0.8984(3) 1.1913(4) 0.06357(4)
C1 C 0.8629(5) 1.0924(5) 0.02107(6)
C2 C 0.8406(4) 1.1047(4) 0.00656(6)
C3 C 0.7756(3) 1.0176(4) -0.00216(6)
C4 C 0.9186(3) 1.1822(4) -0.00175(7)
C5 C 0.9020(4) 1.1424(5) -0.01818(6)
C6 C 0.8185(4) 1.0453(5) -0.01834(6)
C7 C 0.9703(4) 1.1550(3) 0.02699(4)
C8 C 0.9880(3) 1.0873(3) 0.03667(4)
C9 C 0.8999(3) 0.9856(3) 0.03663(4)
C10 C 0.8206(4) 0.9832(4) 0.02713(4)
C1T C 0.7705(7) 0.8629(5) -0.02107(6)
C1S C 1.0924(5) 1.2295(7) -0.02107(6)
C1B C 1.2295(7) 1.1371(5) 0.02107(6)
C1R C 1.1371(5) 0.9076(5) -0.02107(6)
C1A C 0.9076(5) 0.7705(7) 0.02107(6)
C2T C 0.7359(6) 0.8406(4) -0.00656(6)
C2S C 1.1047(4) 1.2641(6) -0.00656(6)
C2B C 1.2641(6) 1.1594(4) 0.00656(6)
C2R C 1.1594(4) 0.8953(4) -0.00656(6)
C2A C 0.8953(4) 0.7359(6) 0.00656(6)
C3S C 1.0176(4) 1.2420(5) 0.00216(6)
C3B C 1.2420(5) 1.2244(3) -0.00216(6)
C3R C 1.2244(3) 0.9824(4) 0.00216(6)
C3A C 0.9824(4) 0.7580(5) -0.00216(6)
C3T C 0.7580(5) 0.7756(3) 0.00216(6)
C4T C 0.7364(5) 0.9186(3) 0.00175(7)
C4A C 0.8178(4) 0.7364(5) -0.00175(7)
C4B C 1.2636(5) 1.0814(3) -0.00175(7)
C4S C 1.1822(4) 1.2636(5) 0.00175(7)
C4R C 1.0814(3) 0.8178(4) 0.00175(7)
C5A C 0.8576(5) 0.7596(6) -0.01818(6)
C5B C 1.2404(6) 1.0980(4) -0.01818(6)
C5T C 0.7596(6) 0.9020(4) 0.01818(6)
C5S C 1.1424(5) 1.2404(6) 0.01818(6)
C5R C 1.0980(4) 0.8576(5) 0.01818(6)
C6B C 1.2268(6) 1.1815(4) -0.01834(6)
C6R C 1.1815(4) 0.9547(5) 0.01834(6)
C6A C 0.9547(5) 0.7732(6) -0.01834(6)
C6T C 0.7732(6) 0.8185(4) 0.01834(6)
C6S C 1.0453(5) 1.2268(6) 0.01834(6)
C7T C 0.8153(5) 0.9703(4) -0.02699(4)
C7S C 1.1550(3) 1.1847(5) -0.02699(4)
C7B C 1.1847(5) 1.0297(4) 0.02699(4)
C7R C 1.0297(4) 0.8450(3) -0.02699(4)
C7A C 0.8450(3) 0.8153(5) 0.02699(4)
C8R C 1.0120(3) 0.9127(3) -0.03667(4)
C8S C 1.0873(3) 1.0993(4) -0.03667(4)
C8T C 0.9007(4) 0.9880(3) -0.03667(4)
C8A C 0.9127(3) 0.9007(4) 0.03667(4)
C8B C 1.0993(4) 1.0120(3) 0.03667(4)
C9T C 0.9143(4) 0.8999(3) -0.03663(4)
C9R C 1.1001(3) 1.0144(3) -0.03663(4)
C9S C 0.9856(3) 1.0857(4) -0.03663(4)
C9B C 1.0857(4) 1.1001(3) 0.03663(4)
C9A C 1.0144(3) 0.9143(4) 0.03663(4)
C10T C 0.8374(6) 0.8206(4) -0.02713(4)
C10S C 0.9832(4) 1.1626(6) -0.02713(4)
C10R C 1.1794(4) 1.0168(4) -0.02713(4)
C10B C 1.1626(6) 1.1794(4) 0.02713(4)
C10A C 1.0168(4) 0.8374(6) 0.02713(4)
C22? C 0.8344(8) 0.4735(8) 0.01491(12)
C23? C 1.2684(8) 0.7573(8) 0.01048(12)
C24? C 1.1537(10) 0.6320(10) 0.01529(14)
C25? C 0.803(2) 0.470(2) 0.0833
C26? C 0.7240(14) 0.3907 0.0833
loop_
_geom_bond_atom_site_label_1
_geom_bond_atom_site_label_2
_geom_bond_site_symmetry_1
_geom_bond_site_symmetry_2
N1 C11 1_555 1_555
N2 C14 1_555 1_555
N3 C12 1_555 1_555
N4 C14 1_555 1_555
N5 C17 1_555 1_555
C1 C2 1_555 1_555
C2 C3 1_555 1_555
C3 C6 1_555 1_555
C4 C2 1_555 1_555
C5 C4 1_555 1_555
C6 C5 1_555 1_555
C7 C1 1_555 1_555
C8 C7 1_555 1_555
C9 C8 1_555 1_555
C10 C1 1_555 1_555
C11 H1 1_555 1_555
H2 C11 1_555 1_555
H3 C11 1_555 1_555
C12 N1 1_555 1_555
C13 C12 1_555 1_555
H4 C13 1_555 1_555
C14 C13 1_555 1_555
C15 N2 1_555 1_555
H5 C15 1_555 1_555
C16 N4 1_555 1_555
H6 C16 1_555 1_555
H7 C16 1_555 1_555
H8 C16 1_555 1_555
C17 N4 1_555 1_555
C18 C17 1_555 1_555
H9 C18 1_555 1_555
C19 C18 1_555 1_555
H10 C19 1_555 1_555
C20 C19 1_555 1_555
H11 C20 1_555 1_555
C21 N1 1_555 1_555
N1B C11B 1_555 1_555
N1A C11A 1_555 1_555
N2B C14B 1_555 1_555
N2A C14A 1_555 1_555
N3B C12B 1_555 1_555
N3A C12A 1_555 1_555
N4B C14B 1_555 1_555
N4A C14A 1_555 1_555
N5B C17B 1_555 1_555
N5A C21 1_555 1_555
C1T C2T 1_555 1_555
C1S C2S 1_555 1_555
C1B C2B 1_555 1_555
C1R C2R 1_555 1_555
C1A C2A 1_555 1_555
C2T C3T 1_555 1_555
C2S C3S 1_555 1_555
C2B C3B 1_555 1_555
C2R C3R 1_555 1_555
C2A C3A 1_555 1_555
C3S C4 1_555 1_555
C3B C4S 1_555 1_555
C3R C4B 1_555 1_555
C3A C4R 1_555 1_555
C3T C4A 1_555 1_555
C4T C3 1_555 1_555
C4A C2A 1_555 1_555
C4B C2B 1_555 1_555
C4S C2S 1_555 1_555
C4R C2R 1_555 1_555
C5A C4A 1_555 1_555
C5B C4B 1_555 1_555
C5T C10 1_555 1_555
C5S C4S 1_555 1_555
C5R C4R 1_555 1_555
C6B C3B 1_555 1_555
C6R C3R 1_555 1_555
C6A C3A 1_555 1_555
C6T C3T 1_555 1_555
C6S C7 1_555 1_555
C7T C6 1_555 1_555
C7S C1S 1_555 1_555
C7B C1B 1_555 1_555
C7R C1R 1_555 1_555
C7A C1A 1_555 1_555
C8R C7R 1_555 1_555
C8S C7S 1_555 1_555
C8T C7T 1_555 1_555
C8A C9 1_555 1_555
C8B C7B 1_555 1_555
C9T C8R 1_555 1_555
C9R C8R 1_555 1_555
C9S C8S 1_555 1_555
C9B C8 1_555 1_555
C9A C8A 1_555 1_555
C10T C1T 1_555 1_555
C10S C5 1_555 1_555
C10R C1R 1_555 1_555
C10B C1B 1_555 1_555
C10A C1A 1_555 1_555
C11B H1B 1_555 1_555
C11A H1A 1_555 1_555
H2B C11B 1_555 1_555
H2A C11A 1_555 1_555
H3B C11B 1_555 1_555
H3A C11A 1_555 1_555
C12B N1B 1_555 1_555
C12A N1A 1_555 1_555
C13A C12A 1_555 1_555
C13B C12B 1_555 1_555
H4A C13A 1_555 1_555
H4B C13B 1_555 1_555
C14B C13B 1_555 1_555
C14A C13A 1_555 1_555
C15B N2B 1_555 1_555
C15A N2A 1_555 1_555
H5A C15A 1_555 1_555
H5B C15B 1_555 1_555
C16B N4B 1_555 1_555
C16A N4A 1_555 1_555
H6B C16B 1_555 1_555
H6A C16A 1_555 1_555
H7B C16B 1_555 1_555
H7A C16A 1_555 1_555
H8B C16B 1_555 1_555
H8A C16A 1_555 1_555
C17B N4B 1_555 1_555
C17A N4A 1_555 1_555
C18A C17A 1_555 1_555
C18B C17B 1_555 1_555
H9A C18A 1_555 1_555
H9B C18B 1_555 1_555
C19A C18A 1_555 1_555
C19B C18B 1_555 1_555
H10A C19A 1_555 1_555
H10B C19B 1_555 1_555
C20A C21 1_555 1_555
C20B C19B 1_555 1_555
H11A C20A 1_555 1_555
H11B C20B 1_555 1_555
C21B N5 1_555 1_555
C21A N1A 1_555 1_555
N3 C15 1_555 1_555
C9 C10 1_555 1_555
C20 C21B 1_555 1_555
N1B C21B 1_555 1_555
N3B C15B 1_555 1_555
N3A C15A 1_555 1_555
N5B C21A 1_555 1_555
N5A C17A 1_555 1_555
C1T C7T 1_555 1_555
C1S C10S 1_555 1_555
C2T C4T 1_555 1_555
C3S C6S 1_555 1_555
C4T C5T 1_555 1_555
C5A C6A 1_555 1_555
C5A C10T 1_555 1_555
C5B C6B 1_555 1_555
C5B C10R 1_555 1_555
C5T C6T 1_555 1_555
C5S C6S 1_555 1_555
C5S C10B 1_555 1_555
C5R C6R 1_555 1_555
C5R C10A 1_555 1_555
C6B C7S 1_555 1_555
C6R C7B 1_555 1_555
C6A C7R 1_555 1_555
C6T C7A 1_555 1_555
C7A C8A 1_555 1_555
C8S C9R 1_555 1_555
C8T C9T 1_555 1_555
C8T C9S 1_555 1_555
C8B C9B 1_555 1_555
C8B C9A 1_555 1_555
C9T C10T 1_555 1_555
C9R C10R 1_555 1_555
C9S C10S 1_555 1_555
C9B C10B 1_555 1_555
C9A C10A 1_555 1_555
C19A C20A 1_555 1_555
C20B C21A 1_555 1_555

#END
