
#######################################################################
#
#                 Cambridge Crystallographic Data Centre
#                                CCDC 
#
#######################################################################
#
# If this CIF has been generated from an entry in the Cambridge 
# Structural Database, then it will include bibliographic, chemical, 
# crystal, experimental, refinement or atomic coordinate data resulting 
# from the CCDC's data processing and validation procedures.
#
#######################################################################

data_IYODEG
_chemical_formula_moiety         'C20 H29 N3 O2'
_chemical_name_systematic        
7-(Dimethylamino)-4-(isobutylamino)-3-((isobutylimino)methyl)-2H-chromen-2-one
_symmetry_cell_setting           monoclinic
_symmetry_space_group_name_H-M   'P n'
_symmetry_Int_Tables_number      7
_space_group_name_Hall           'P -2yac'
loop_
_symmetry_equiv_pos_site_id
_symmetry_equiv_pos_as_xyz
1 x,y,z
2 1/2+x,-y,1/2+z
_cell_length_a                   5.0310(10)
_cell_length_b                   12.153(2)
_cell_length_c                   15.766(3)
_cell_angle_alpha                90
_cell_angle_beta                 95.05(3)
_cell_angle_gamma                90
_cell_volume                     960.219
_exptl_crystal_colour            yellow
_exptl_crystal_description       prismatic
_cell_formula_units_Z            2
loop_
_atom_site_label
_atom_site_type_symbol
_atom_site_fract_x
_atom_site_fract_y
_atom_site_fract_z
O1 O 0.7138(5) 0.51310(19) 0.63221(16)
O2 O 0.6028(5) 0.4012(2) 0.73220(17)
N1 N -0.0120(6) 0.2532(2) 0.5924(2)
N2 N 0.1223(6) 0.3770(3) 0.4629(2)
H1 H 0.030(12) 0.309(4) 0.493(4)
N3 N 0.9912(6) 0.7826(3) 0.4439(2)
C1 C 0.5492(7) 0.4317(3) 0.6588(3)
C2 C 0.3410(7) 0.3901(3) 0.5999(2)
C3 C 0.3079(7) 0.4272(3) 0.5151(2)
C4 C 0.4780(6) 0.5175(3) 0.4907(2)
C5 C 0.6750(7) 0.5568(3) 0.5510(2)
C6 C 0.4618(7) 0.5740(3) 0.4122(3)
H2 H 0.3294 0.5522 0.3688
C7 C 0.6294(7) 0.6592(3) 0.3960(2)
H3 H 0.6112 0.6938 0.3418
C8 C 0.8273(7) 0.6963(3) 0.4579(2)
C9 C 0.8465(7) 0.6421(3) 0.5370(2)
H4 H 0.9774 0.6642 0.5808
C10 C 0.1754(8) 0.3068(3) 0.6344(3)
H5 H 0.2086 0.2905 0.6933
C11 C -0.1563(8) 0.1724(3) 0.6400(3)
H6 H -0.3365 0.2011 0.6479
H7 H -0.0608 0.1620 0.6971
C12 C -0.1823(9) 0.0633(3) 0.5954(3)
H8 H -0.0008 0.0392 0.5817
C13 C -0.2937(11) -0.0234(4) 0.6524(3)
H9 H -0.1716 -0.0330 0.7038
H10 H -0.3128 -0.0934 0.6215
H11 H -0.4685 0.0004 0.6684
C14 C -0.3601(13) 0.0729(5) 0.5124(4)
H12 H -0.5455 0.0839 0.5251
H13 H -0.3469 0.0054 0.4791
H14 H -0.3023 0.1357 0.4797
C15 C 0.0427(8) 0.3928(3) 0.3715(2)
H15 H 0.2036 0.3958 0.3396
H16 H -0.0543 0.4633 0.3627
C16 C -0.1342(8) 0.2990(3) 0.3387(3)
H17 H -0.2820 0.2917 0.3768
C17 C 0.0163(11) 0.1904(4) 0.3403(4)
H18 H 0.1606 0.1951 0.3026
H19 H -0.1065 0.1311 0.3208
H20 H 0.0916 0.1748 0.3985
C18 C -0.2573(10) 0.3259(4) 0.2499(3)
H21 H -0.3576 0.3950 0.2513
H22 H -0.3780 0.2664 0.2296
H23 H -0.1158 0.3339 0.2114
C19 C 0.9886(9) 0.8312(3) 0.3596(3)
H24 H 1.0218 0.7739 0.3181
H25 H 1.1280 0.8875 0.3597
H26 H 0.8141 0.8649 0.3442
C20 C 1.1947(8) 0.8163(3) 0.5100(3)
H27 H 1.1115 0.8312 0.5627
H28 H 1.2831 0.8831 0.4918
H29 H 1.3268 0.7574 0.5199
loop_
_geom_bond_atom_site_label_1
_geom_bond_atom_site_label_2
_geom_bond_site_symmetry_1
_geom_bond_site_symmetry_2
O1 C1 1_555 1_555
O2 C1 1_555 1_555
N1 C10 1_555 1_555
N2 H1 1_555 1_555
N3 C8 1_555 1_555
C1 C2 1_555 1_555
C2 C3 1_555 1_555
C3 N2 1_555 1_555
C4 C3 1_555 1_555
C5 O1 1_555 1_555
C6 C4 1_555 1_555
H2 C6 1_555 1_555
C7 C6 1_555 1_555
H3 C7 1_555 1_555
C8 C7 1_555 1_555
C9 C5 1_555 1_555
H4 C9 1_555 1_555
C10 C2 1_555 1_555
H5 C10 1_555 1_555
C11 N1 1_555 1_555
H6 C11 1_555 1_555
H7 C11 1_555 1_555
C12 C11 1_555 1_555
H8 C12 1_555 1_555
C13 C12 1_555 1_555
H9 C13 1_555 1_555
H10 C13 1_555 1_555
H11 C13 1_555 1_555
C14 C12 1_555 1_555
H12 C14 1_555 1_555
H13 C14 1_555 1_555
H14 C14 1_555 1_555
C15 N2 1_555 1_555
H15 C15 1_555 1_555
H16 C15 1_555 1_555
C16 C15 1_555 1_555
H17 C16 1_555 1_555
C17 C16 1_555 1_555
H18 C17 1_555 1_555
H19 C17 1_555 1_555
H20 C17 1_555 1_555
C18 C16 1_555 1_555
H21 C18 1_555 1_555
H22 C18 1_555 1_555
H23 C18 1_555 1_555
C19 N3 1_555 1_555
H24 C19 1_555 1_555
H25 C19 1_555 1_555
H26 C19 1_555 1_555
C20 N3 1_555 1_555
H27 C20 1_555 1_555
H28 C20 1_555 1_555
H29 C20 1_555 1_555
C4 C5 1_555 1_555
C8 C9 1_555 1_555

#END
