
#######################################################################
#
#                 Cambridge Crystallographic Data Centre
#                                CCDC 
#
#######################################################################
#
# If this CIF has been generated from an entry in the Cambridge 
# Structural Database, then it will include bibliographic, chemical, 
# crystal, experimental, refinement or atomic coordinate data resulting 
# from the CCDC's data processing and validation procedures.
#
#######################################################################

data_IYOGAF
_chemical_formula_moiety         'C17 H14 F1 N1 S1'
_chemical_name_systematic        
4-(4-Fluorobenzylidene)-2,7-dimethyl-4H-3,1-benzothiazine
_symmetry_cell_setting           monoclinic
_symmetry_space_group_name_H-M   'P 21/c'
_symmetry_Int_Tables_number      14
_space_group_name_Hall           '-P 2ybc'
loop_
_symmetry_equiv_pos_site_id
_symmetry_equiv_pos_as_xyz
1 x,y,z
2 -x,1/2+y,1/2-z
3 -x,-y,-z
4 x,1/2-y,1/2+z
_cell_length_a                   7.036(2)
_cell_length_b                   27.191(9)
_cell_length_c                   7.800(3)
_cell_angle_alpha                90
_cell_angle_beta                 108.730(4)
_cell_angle_gamma                90
_cell_volume                     1413.24
_exptl_crystal_colour            orange
_exptl_crystal_description       prism
_cell_formula_units_Z            4
loop_
_atom_site_label
_atom_site_type_symbol
_atom_site_fract_x
_atom_site_fract_y
_atom_site_fract_z
S1 S 0.30672(7) 0.561600(17) 0.25690(7)
N1 N -0.0711(2) 0.52699(5) 0.1996(2)
C1 C 0.1157(3) 0.52141(6) 0.2728(2)
C2 C -0.1514(3) 0.56694(6) 0.0834(2)
C3 C -0.3537(3) 0.56338(6) -0.0161(2)
H1 H -0.4243 0.5356 -0.0019
C4 C -0.4541(3) 0.59949(7) -0.1351(2)
C5 C -0.3432(3) 0.64001(7) -0.1561(3)
H2 H -0.4056 0.6646 -0.2374
C6 C -0.1431(3) 0.64435(7) -0.0589(3)
H3 H -0.0729 0.6718 -0.0767
C7 C -0.0417(2) 0.60862(6) 0.0661(2)
C8 C 0.1690(3) 0.61584(6) 0.1790(2)
C9 C 0.2512(3) 0.66053(7) 0.2224(3)
H4 H 0.1633 0.6865 0.1777
C10 C 0.4549(3) 0.67552(6) 0.3277(2)
C11 C 0.6259(3) 0.64835(7) 0.3383(3)
H5 H 0.6129 0.6186 0.2767
C12 C 0.8145(3) 0.66480(8) 0.4387(3)
H6 H 0.9281 0.6464 0.4452
C13 C 0.8310(3) 0.70854(8) 0.5281(3)
C14 C 0.6685(3) 0.73702(7) 0.5204(3)
H7 H 0.6839 0.7668 0.5820
C15 C 0.4811(3) 0.72036(7) 0.4190(3)
H8 H 0.3692 0.7395 0.4112
C16 C 0.1991(3) 0.47705(7) 0.3875(3)
H9 H 0.2102 0.4839 0.5111
H10 H 0.3293 0.4694 0.3797
H11 H 0.1110 0.4496 0.3448
C17 C -0.6741(3) 0.59543(9) -0.2395(3)
H12 H -0.7215 0.5634 -0.2215
H13 H -0.6943 0.6004 -0.3660
H14 H -0.7468 0.6200 -0.1976
F1 F 1.0169(2) 0.72436(5) 0.6281(2)
loop_
_geom_bond_atom_site_label_1
_geom_bond_atom_site_label_2
_geom_bond_site_symmetry_1
_geom_bond_site_symmetry_2
S1 C1 1_555 1_555
N1 C1 1_555 1_555
C1 C16 1_555 1_555
C2 N1 1_555 1_555
C3 C2 1_555 1_555
H1 C3 1_555 1_555
C4 C3 1_555 1_555
C5 C4 1_555 1_555
H2 C5 1_555 1_555
C6 C5 1_555 1_555
H3 C6 1_555 1_555
C7 C2 1_555 1_555
C8 S1 1_555 1_555
C9 C8 1_555 1_555
H4 C9 1_555 1_555
C10 C9 1_555 1_555
C11 C10 1_555 1_555
H5 C11 1_555 1_555
C12 C11 1_555 1_555
H6 C12 1_555 1_555
C13 C12 1_555 1_555
C14 C13 1_555 1_555
H7 C14 1_555 1_555
C15 C10 1_555 1_555
H8 C15 1_555 1_555
C16 H9 1_555 1_555
H10 C16 1_555 1_555
H11 C16 1_555 1_555
C17 C4 1_555 1_555
H12 C17 1_555 1_555
H13 C17 1_555 1_555
H14 C17 1_555 1_555
F1 C13 1_555 1_555
C6 C7 1_555 1_555
C7 C8 1_555 1_555
C14 C15 1_555 1_555

#END
