
#######################################################################
#
#                 Cambridge Crystallographic Data Centre
#                                CCDC 
#
#######################################################################
#
# If this CIF has been generated from an entry in the Cambridge 
# Structural Database, then it will include bibliographic, chemical, 
# crystal, experimental, refinement or atomic coordinate data resulting 
# from the CCDC's data processing and validation procedures.
#
#######################################################################

data_IYOHOV
_chemical_formula_moiety         'C24 H28 N4 O2'
_chemical_name_systematic        
N-(3-(4-(2-methoxyphenyl)piperazin-1-yl)propyl)quinoline-2-carboxamide
_symmetry_cell_setting           triclinic
_symmetry_space_group_name_H-M   'P -1'
_symmetry_Int_Tables_number      2
_space_group_name_Hall           '-P 1'
loop_
_symmetry_equiv_pos_site_id
_symmetry_equiv_pos_as_xyz
1 x,y,z
2 -x,-y,-z
_cell_length_a                   10.251(2)
_cell_length_b                   10.838(2)
_cell_length_c                   11.637(2)
_cell_angle_alpha                90.21(3)
_cell_angle_beta                 111.82(3)
_cell_angle_gamma                113.72(3)
_cell_volume                     1080.86
_exptl_crystal_colour            colorless
_cell_formula_units_Z            2
_exptl_crystal_recrystallization_method dichloromethane/cyclohexane
loop_
_atom_site_label
_atom_site_type_symbol
_atom_site_fract_x
_atom_site_fract_y
_atom_site_fract_z
O1 O 0.14893(16) 0.03211(15) 0.87853(14)
N1 N 0.41845(17) 0.10415(15) 1.08371(15)
N2 N 0.5858(2) 0.33037(17) 1.49987(15)
C1 C 0.2913(2) -0.02340(18) 1.06521(17)
C2 C 0.1506(2) -0.0614(2) 0.95763(18)
N3 N 0.7997(2) 0.53082(18) 1.43753(17)
N4 N 0.6749(2) 0.37038(18) 1.18705(17)
C3 C 0.4739(2) 0.2299(2) 1.52791(18)
C4 C 0.7862(3) 0.5621(2) 1.5416(2)
C5 C 0.3001(3) -0.1185(2) 1.1432(2)
H1 H 0.3917(3) -0.0962(2) 1.2145(2)
C6 C 0.5714(2) 0.1207(2) 1.17235(19)
H2 H 0.5769(2) 0.1267(2) 1.25732(19)
H3 H 0.5873(2) 0.0417(2) 1.15414(19)
C7 C 0.6628(3) 0.4523(2) 1.57168(18)
O2 O 0.8714(2) 0.67429(18) 1.61299(17)
C8 C 0.3947(2) 0.2249(2) 1.1066(2)
H4 H 0.2938(2) 0.2139(2) 1.0458(2)
H5 H 0.3966(2) 0.2351(2) 1.1901(2)
C9 C 0.0262(3) -0.1880(2) 0.9334(2)
H6 H -0.0667(3) -0.2111(2) 0.8632(2)
C10 C 0.1759(3) -0.2463(2) 1.1178(2)
H7 H 0.1852(3) -0.3085(2) 1.1716(2)
C11 C 0.5221(3) 0.3506(2) 1.0954(2)
H8 H 0.5054(3) 0.4304(2) 1.1091(2)
H9 H 0.5183(3) 0.3408(2) 1.0112(2)
C12 C 0.3926(3) 0.0989(2) 1.4538(2)
H10 H 0.4144(3) 0.0819(2) 1.3862(2)
C13 C 0.6971(3) 0.2487(2) 1.1626(2)
H11 H 0.6955(3) 0.2399(2) 1.0791(2)
H12 H 0.7983(3) 0.2596(2) 1.2229(2)
C14 C 0.4393(3) 0.2530(3) 1.6303(2)
C15 C 0.5255(4) 0.3850(3) 1.7039(3)
H13 H 0.5070(4) 0.4044(3) 1.7726(3)
C16 C 0.3235(3) 0.1434(3) 1.6535(3)
H14 H 0.3005(3) 0.1579(3) 1.7210(3)
C17 C 0.2816(3) -0.0044(3) 1.4794(2)
H15 H 0.2293(3) -0.0909(3) 1.4295(2)
C18 C 0.2456(3) 0.0186(3) 1.5799(3)
H16 H 0.1685(3) -0.0517(3) 1.5958(3)
C19 C 0.0399(3) -0.2810(3) 1.0139(3)
H17 H -0.0433(3) -0.3666(3) 0.9971(3)
C20 C 0.9145(3) 0.6286(2) 1.3983(3)
H18 H 0.9984(3) 0.7141(2) 1.4542(3)
C21 C 0.0042(3) 0.0035(3) 0.7762(2)
H19 H 0.0181(3) 0.0759(3) 0.7281(2)
H20 H -0.0311(3) -0.0816(3) 0.7233(2)
H21 H -0.0718(3) -0.0031(3) 0.8081(2)
C22 C 0.6349(3) 0.4839(3) 1.6757(2)
H22 H 0.6911(3) 0.5715(3) 1.7240(2)
C23 C 0.8191(7) 0.4850(7) 1.1845(7)
H23 H 0.8645(7) 0.4451(7) 1.1445(7)
H24 H 0.7867(7) 0.5450(7) 1.1313(7)
C24 C 0.9301(5) 0.5613(4) 1.2940(5)
H25 H 1.0053(5) 0.6350(4) 1.2727(5)
H26 H 0.9815(5) 0.5049(4) 1.3330(5)
H27 H 0.7391(2) 0.45057(18) 1.39212(17)
C25? C 0.7739(9) 0.5067(8) 1.1728(9)
H28? H 0.8510(9) 0.4938(8) 1.1513(9)
H29? H 0.7075(9) 0.5255(8) 1.0976(9)
C26? C 0.8466(7) 0.6145(5) 1.2476(5)
H30? H 0.7801(7) 0.6616(5) 1.2260(5)
H31? H 0.9352(7) 0.6682(5) 1.2282(5)
loop_
_geom_bond_atom_site_label_1
_geom_bond_atom_site_label_2
_geom_bond_site_symmetry_1
_geom_bond_site_symmetry_2
O1 C2 1_555 1_555
N1 C1 1_555 1_555
N2 C3 1_555 1_555
C1 C2 1_555 1_555
C2 C9 1_555 1_555
N3 C4 1_555 1_555
N4 C11 1_555 1_555
C3 C12 1_555 1_555
C4 C7 1_555 1_555
C5 C1 1_555 1_555
H1 C5 1_555 1_555
C6 N1 1_555 1_555
H2 C6 1_555 1_555
H3 C6 1_555 1_555
C7 N2 1_555 1_555
O2 C4 1_555 1_555
C8 N1 1_555 1_555
H4 C8 1_555 1_555
H5 C8 1_555 1_555
C9 H6 1_555 1_555
C10 C5 1_555 1_555
H7 C10 1_555 1_555
C11 C8 1_555 1_555
H8 C11 1_555 1_555
H9 C11 1_555 1_555
C12 H10 1_555 1_555
C13 N4 1_555 1_555
H11 C13 1_555 1_555
H12 C13 1_555 1_555
C14 C3 1_555 1_555
C15 C14 1_555 1_555
H13 C15 1_555 1_555
C16 C14 1_555 1_555
H14 C16 1_555 1_555
C17 C12 1_555 1_555
H15 C17 1_555 1_555
C18 C16 1_555 1_555
H16 C18 1_555 1_555
C19 C9 1_555 1_555
H17 C19 1_555 1_555
C20 N3 1_555 1_555
H18 C20 1_555 1_555
C21 O1 1_555 1_555
H19 C21 1_555 1_555
H20 C21 1_555 1_555
H21 C21 1_555 1_555
C22 C7 1_555 1_555
H22 C22 1_555 1_555
C23 N4 1_555 1_555
H23 C23 1_555 1_555
H24 C23 1_555 1_555
C24 C20 1_555 1_555
H25 C24 1_555 1_555
H26 C24 1_555 1_555
H27 N3 1_555 1_555
C6 C13 1_555 1_555
C10 C19 1_555 1_555
C15 C22 1_555 1_555
C17 C18 1_555 1_555
C23 C24 1_555 1_555

#END
