
#######################################################################
#
#                 Cambridge Crystallographic Data Centre
#                                CCDC 
#
#######################################################################
#
# If this CIF has been generated from an entry in the Cambridge 
# Structural Database, then it will include bibliographic, chemical, 
# crystal, experimental, refinement or atomic coordinate data resulting 
# from the CCDC's data processing and validation procedures.
#
#######################################################################

data_IYOHAG
_chemical_formula_moiety         'C20 H22 N2 O2'
_chemical_name_systematic        6'-Methoxycinchonan-9-one
_symmetry_cell_setting           monoclinic
_symmetry_space_group_name_H-M   'P 21'
_symmetry_Int_Tables_number      4
_space_group_name_Hall           'P 2yb'
loop_
_symmetry_equiv_pos_site_id
_symmetry_equiv_pos_as_xyz
1 x,y,z
2 -x,1/2+y,-z
_cell_length_a                   8.293(2)
_cell_length_b                   8.115(2)
_cell_length_c                   12.531(3)
_cell_angle_alpha                90
_cell_angle_beta                 95.021(4)
_cell_angle_gamma                90
_cell_volume                     840.071
_exptl_crystal_colour            colorless
_exptl_crystal_description       plate
_cell_formula_units_Z            2
loop_
_atom_site_label
_atom_site_type_symbol
_atom_site_fract_x
_atom_site_fract_y
_atom_site_fract_z
C1 C 0.3165(4) 1.0585(4) 0.4495(3)
C2 C 0.4591(4) 1.1485(5) 0.4850(3)
H1 H 0.4618 1.2099 0.5497
C3 C 0.5903(4) 1.1481(5) 0.4281(3)
H2 H 0.6846 1.2074 0.4539
C4 C 0.5882(4) 1.0598(4) 0.3302(3)
C5 C 0.4524(4) 0.9739(4) 0.2920(2)
H3 H 0.4513 0.9157 0.2261
C6 C 0.3138(4) 0.9720(4) 0.3510(2)
C7 C 0.1692(4) 0.8810(4) 0.3194(2)
C8 C 0.0464(4) 0.8815(4) 0.3849(2)
H4 H -0.0479 0.8173 0.3672
C9 C 0.0598(4) 0.9773(4) 0.4788(3)
H5 H -0.0294 0.9791 0.5215
C10 C 0.7314(4) 0.9771(5) 0.1852(3)
H6 H 0.7107 0.8607 0.1998
H7 H 0.8385 0.9886 0.1587
H8 H 0.6487 1.0181 0.1310
C11 C 0.1482(4) 0.8016(4) 0.2098(3)
C12 C 0.0700(4) 0.6300(4) 0.1973(2)
H9 H -0.0481 0.6437 0.2054
C13 C 0.0855(4) 0.5560(4) 0.0862(3)
H10 H 0.1523 0.6287 0.0444
H11 H -0.0229 0.5453 0.0469
C14 C 0.1652(4) 0.3861(4) 0.1005(3)
H12 H 0.1759 0.3343 0.0290
C15 C 0.3334(4) 0.4037(5) 0.1630(3)
H13 H 0.3779 0.2908 0.1782
C16 C 0.3077(4) 0.4874(4) 0.2706(3)
H14 H 0.3532 0.4159 0.3298
H15 H 0.3680 0.5928 0.2753
C17 C 0.0452(4) 0.3627(4) 0.2763(3)
H16 H -0.0700 0.3840 0.2864
H17 H 0.0887 0.2869 0.3337
C18 C 0.0587(5) 0.2807(4) 0.1655(3)
H18 H 0.1060 0.1692 0.1753
H19 H -0.0503 0.2698 0.1271
C19 C 0.4530(5) 0.4982(6) 0.1037(3)
H20 H 0.4229 0.6069 0.0821
C20 C 0.5911(6) 0.4480(9) 0.0793(4)
H21 H 0.6273 0.3402 0.0990
H22 H 0.6577 0.5184 0.0414
N1 N 0.1895(3) 1.0651(4) 0.5111(2)
N2 N 0.1364(3) 0.5200(3) 0.2845(2)
O1 O 0.7259(3) 1.0692(3) 0.28031(19)
O2 O 0.1873(3) 0.8755(3) 0.13231(17)
loop_
_geom_bond_atom_site_label_1
_geom_bond_atom_site_label_2
_geom_bond_site_symmetry_1
_geom_bond_site_symmetry_2
C1 C2 1_555 1_555
C2 H1 1_555 1_555
C3 C2 1_555 1_555
H2 C3 1_555 1_555
C4 C3 1_555 1_555
C5 C4 1_555 1_555
H3 C5 1_555 1_555
C6 C1 1_555 1_555
C7 C6 1_555 1_555
C8 C7 1_555 1_555
H4 C8 1_555 1_555
C9 C8 1_555 1_555
H5 C9 1_555 1_555
C10 H6 1_555 1_555
H7 C10 1_555 1_555
H8 C10 1_555 1_555
C11 C7 1_555 1_555
C12 C11 1_555 1_555
H9 C12 1_555 1_555
C13 C12 1_555 1_555
H10 C13 1_555 1_555
H11 C13 1_555 1_555
C14 C13 1_555 1_555
H12 C14 1_555 1_555
C15 C14 1_555 1_555
H13 C15 1_555 1_555
C16 C15 1_555 1_555
H14 C16 1_555 1_555
H15 C16 1_555 1_555
C17 H16 1_555 1_555
H17 C17 1_555 1_555
C18 C14 1_555 1_555
H18 C18 1_555 1_555
H19 C18 1_555 1_555
C19 C15 1_555 1_555
H20 C19 1_555 1_555
C20 C19 1_555 1_555
H21 C20 1_555 1_555
H22 C20 1_555 1_555
N1 C1 1_555 1_555
N2 C12 1_555 1_555
O1 C4 1_555 1_555
O2 C11 1_555 1_555
C5 C6 1_555 1_555
C9 N1 1_555 1_555
C10 O1 1_555 1_555
C16 N2 1_555 1_555
C17 C18 1_555 1_555
C17 N2 1_555 1_555

#END
