
#######################################################################
#
#                 Cambridge Crystallographic Data Centre
#                                CCDC 
#
#######################################################################
#
# If this CIF has been generated from an entry in the Cambridge 
# Structural Database, then it will include bibliographic, chemical, 
# crystal, experimental, refinement or atomic coordinate data resulting 
# from the CCDC's data processing and validation procedures.
#
#######################################################################

data_IYOXAX
_chemical_formula_moiety         'C18 H24 O1'
_chemical_name_systematic        
(Z)-4,4-dimethyl-1-(2-methylene-3,4-dihydronaphthalen-1(2H)-ylidene)pentan-2-ol
_symmetry_cell_setting           rhombohedral
_symmetry_space_group_name_H-M   'R -3'
_symmetry_Int_Tables_number      148
_space_group_name_Hall           '-R 3'
loop_
_symmetry_equiv_pos_site_id
_symmetry_equiv_pos_as_xyz
1 x,y,z
2 -y,x-y,z
3 -x+y,-x,z
4 1/3+x,2/3+y,2/3+z
5 1/3-y,2/3+x-y,2/3+z
6 1/3-x+y,2/3-x,2/3+z
7 2/3+x,1/3+y,1/3+z
8 2/3-y,1/3+x-y,1/3+z
9 2/3-x+y,1/3-x,1/3+z
10 -x,-y,-z
11 y,-x+y,-z
12 x-y,x,-z
13 2/3-x,1/3-y,1/3-z
14 2/3+y,1/3-x+y,1/3-z
15 2/3+x-y,1/3+x,1/3-z
16 1/3-x,2/3-y,2/3-z
17 1/3+y,2/3-x+y,2/3-z
18 1/3+x-y,2/3+x,2/3-z
_cell_length_a                   26.159(6)
_cell_length_b                   26.159(6)
_cell_length_c                   11.684(3)
_cell_angle_alpha                90
_cell_angle_beta                 90
_cell_angle_gamma                120
_cell_volume                     6924.12
_exptl_crystal_colour            white
_exptl_crystal_description       Prism
_chemical_melting_point          '169 deg.C'
_cell_formula_units_Z            18
_chemical_properties_physical    acid-sensitive
_exptl_crystal_recrystallization_method 'ethyl acetate/petroleum ether'
loop_
_atom_site_label
_atom_site_type_symbol
_atom_site_fract_x
_atom_site_fract_y
_atom_site_fract_z
O1 O 0.40215(4) 0.77939(4) 0.12054(8)
H1 H 0.3698(3) 0.7695(5) 0.1485(11)
C1 C 0.35816(5) 0.90476(5) -0.00185(10)
C2 C 0.31266(5) 0.91505(5) 0.03421(11)
C3 C 0.42818(5) 0.88112(5) 0.10160(10)
H2 H 0.45483(5) 0.89249(5) 0.16198(10)
C4 C 0.40513(5) 0.91617(5) 0.08291(10)
C5 C 0.41732(5) 0.82625(5) 0.03946(10)
H3 H 0.38548(5) 0.81460(5) -0.01651(10)
C6 C 0.35783(6) 0.88682(5) -0.11417(11)
H4 H 0.38838(6) 0.88127(5) -0.13971(11)
C7 C 0.47169(6) 0.79819(5) -0.11986(11)
C8 C 0.47439(5) 0.83845(5) -0.02098(10)
H5 H 0.49301(5) 0.87846(5) -0.05036(10)
H6 H 0.50056(5) 0.83762(5) 0.03687(10)
C9 C 0.42417(6) 0.97023(6) 0.15393(11)
C10 C 0.31248(7) 0.87714(6) -0.18841(13)
H7 H 0.31252(7) 0.86459(6) -0.26286(13)
C11 C 0.26784(6) 0.90538(6) -0.04189(14)
H8 H 0.23772(6) 0.91203(6) -0.01814(14)
C12 C 0.31578(6) 0.93772(6) 0.15341(12)
H9 H 0.28844(6) 0.95238(6) 0.16108(12)
H10 H 0.30456(6) 0.90589(6) 0.20793(12)
C13 C 0.26727(7) 0.88605(7) -0.15226(14)
H11 H 0.23664(7) 0.87909(7) -0.20184(14)
C14 C 0.37803(7) 0.98697(7) 0.17861(15)
H12 H 0.38060(7) 0.99799(7) 0.25857(15)
H13 H 0.38621(7) 1.02120(7) 0.13294(15)
C15 C 0.53527(7) 0.82127(8) -0.16030(15)
H14 H 0.5520(2) 0.8615(2) -0.1848(10)
H15 H 0.55829(16) 0.8192(5) -0.0984(4)
H16 H 0.53537(9) 0.7976(4) -0.2230(7)
C16 C 0.44566(9) 0.73411(7) -0.08217(14)
H17 H 0.4685(3) 0.73199(9) -0.0200(7)
H18 H 0.4056(2) 0.71904(18) -0.0576(10)
H19 H 0.4465(5) 0.71096(12) -0.1452(3)
C17 C 0.43568(8) 0.80161(8) -0.21969(12)
H20 H 0.39534(13) 0.7856(5) -0.1964(3)
H21 H 0.4516(3) 0.84206(10) -0.2422(7)
H22 H 0.4375(4) 0.7793(4) -0.2831(4)
C18 C 0.47965(8) 1.00369(8) 0.18874(17)
H23 H 0.4909(9) 1.0399(9) 0.2366(15)
H24 H 0.5098(9) 0.9962(9) 0.1597(16)
loop_
_geom_bond_atom_site_label_1
_geom_bond_atom_site_label_2
_geom_bond_site_symmetry_1
_geom_bond_site_symmetry_2
O1 H1 1_555 1_555
C1 C2 1_555 1_555
C2 C11 1_555 1_555
C3 H2 1_555 1_555
C4 C1 1_555 1_555
C5 O1 1_555 1_555
H3 C5 1_555 1_555
C6 C1 1_555 1_555
H4 C6 1_555 1_555
C7 C8 1_555 1_555
C8 C5 1_555 1_555
H5 C8 1_555 1_555
H6 C8 1_555 1_555
C9 C4 1_555 1_555
C10 C6 1_555 1_555
H7 C10 1_555 1_555
C11 H8 1_555 1_555
C12 C2 1_555 1_555
H9 C12 1_555 1_555
H10 C12 1_555 1_555
C13 C10 1_555 1_555
H11 C13 1_555 1_555
C14 C9 1_555 1_555
H12 C14 1_555 1_555
H13 C14 1_555 1_555
C15 C7 1_555 1_555
H14 C15 1_555 1_555
H15 C15 1_555 1_555
H16 C15 1_555 1_555
C16 C7 1_555 1_555
H17 C16 1_555 1_555
H18 C16 1_555 1_555
H19 C16 1_555 1_555
C17 C7 1_555 1_555
H20 C17 1_555 1_555
H21 C17 1_555 1_555
H22 C17 1_555 1_555
C18 C9 1_555 1_555
H23 C18 1_555 1_555
H24 C18 1_555 1_555
C3 C4 1_555 1_555
C3 C5 1_555 1_555
C11 C13 1_555 1_555
C12 C14 1_555 1_555

#END
