
#######################################################################
#
#                 Cambridge Crystallographic Data Centre
#                                CCDC 
#
#######################################################################
#
# If this CIF has been generated from an entry in the Cambridge 
# Structural Database, then it will include bibliographic, chemical, 
# crystal, experimental, refinement or atomic coordinate data resulting 
# from the CCDC's data processing and validation procedures.
#
#######################################################################

data_IYOYAW
_chemical_formula_moiety         'C16 H33 N1 O5 Si1'
_chemical_name_systematic        
(2S,3R,4R,5S,6S)-2-(Dimethyl(t-butyl)siloxymethyl)-3,4-O-isopropylidene-3,4,5,6-tetrahydroxyazepane
_symmetry_cell_setting           monoclinic
_symmetry_space_group_name_H-M   'P 21'
_symmetry_Int_Tables_number      4
_space_group_name_Hall           'P 2yb'
loop_
_symmetry_equiv_pos_site_id
_symmetry_equiv_pos_as_xyz
1 x,y,z
2 -x,1/2+y,-z
_cell_length_a                   7.575(5)
_cell_length_b                   13.478(6)
_cell_length_c                   10.641(6)
_cell_angle_alpha                90
_cell_angle_beta                 109.04(5)
_cell_angle_gamma                90
_cell_volume                     1026.97
_exptl_crystal_colour            colorless
_exptl_crystal_description       block
_cell_formula_units_Z            2
loop_
_atom_site_label
_atom_site_type_symbol
_atom_site_fract_x
_atom_site_fract_y
_atom_site_fract_z
Si1 Si -0.1229(2) 0.09884(15) 0.57246(13)
N1 N 0.0598(4) 0.0639(2) 0.9768(3)
C1 C -0.0930(6) 0.1897(3) 1.0867(4)
C2 C -0.0061(6) 0.2881(3) 1.0633(4)
C3 C 0.0753(5) 0.2817(3) 0.9533(4)
C4 C 0.2486(5) 0.2151(3) 0.9902(4)
C5 C 0.2152(4) 0.1085(3) 0.9442(4)
C6 C 0.1821(5) 0.0919(3) 0.7976(4)
C7 C 0.0295(6) 0.0974(3) 1.1017(4)
C8 C 0.017(1) 0.0834(7) 0.4614(6)
C9 C -0.2228(13) -0.0259(7) 0.5921(9)
C10 C -0.3127(9) 0.1922(6) 0.5181(6)
C11 C -0.4482(11) 0.1678(8) 0.3765(7)
C12 C -0.4160(11) 0.2044(9) 0.6116(9)
C13 C -0.2218(17) 0.2944(8) 0.5114(11)
C14 C 0.3363(6) 0.3698(3) 0.9460(5)
C15 C 0.3806(7) 0.4225(4) 0.8351(5)
C16 C 0.4450(6) 0.4091(3) 1.0837(5)
O1 O -0.2602(4) 0.1681(2) 0.9809(4)
O2 O -0.1503(4) 0.3604(2) 1.0388(4)
O3 O 0.1390(4) 0.3752(2) 0.9242(3)
O4 O 0.3727(4) 0.2658(2) 0.9350(3)
O5 O 0.0076(4) 0.1361(2) 0.7199(3)
H1 H -0.3479 0.2284 0.9631
H2 H -0.0950 0.4136 1.0187
H3 H -0.0454 0.0636 0.9072
H4 H -0.1141 0.2019 1.1735
H5 H 0.1019 0.3065 1.1432
H6 H -0.0284 0.2551 0.8760
H7 H 0.3004 0.2061 1.0890
H8 H 0.3363 0.0754 0.9942
H9 H 0.2865 0.1231 0.7728
H10 H 0.1787 0.0192 0.7791
H11 H 0.1545 0.1125 1.1682
H12 H -0.0305 0.0421 1.1358
H13 H -0.0660 0.0595 0.3722
H14 H 0.1160 0.0316 0.4999
H15 H 0.0761 0.1469 0.4518
H16 H -0.3040 -0.0505 0.5027
H17 H -0.2999 -0.0199 0.6521
H18 H -0.1193 -0.0743 0.6304
H19 H -0.5495 0.2190 0.3499
H20 H -0.5053 0.1010 0.3782
H21 H -0.3778 0.1676 0.3125
H22 H -0.4795 0.1369 0.6181
H23 H -0.3320 0.2207 0.7016
H24 H -0.5170 0.2540 0.5794
H25 H -0.3219 0.3468 0.4832
H26 H -0.1346 0.3121 0.6024
H27 H -0.1521 0.2918 0.4475
H28 H 0.3564 0.4949 0.8395
H29 H 0.5148 0.4114 0.8444
H30 H 0.2998 0.3954 0.7475
H31 H 0.4166 0.4811 1.0885
H32 H 0.4062 0.3717 1.1517
H33 H 0.5812 0.3998 1.1006
loop_
_geom_bond_atom_site_label_1
_geom_bond_atom_site_label_2
_geom_bond_site_symmetry_1
_geom_bond_site_symmetry_2
Si1 C8 1_555 1_555
N1 C5 1_555 1_555
C1 C2 1_555 1_555
C2 C3 1_555 1_555
C3 C4 1_555 1_555
C4 C5 1_555 1_555
C5 C6 1_555 1_555
C6 O5 1_555 1_555
C7 N1 1_555 1_555
C8 H13 1_555 1_555
C9 Si1 1_555 1_555
C10 Si1 1_555 1_555
C11 C10 1_555 1_555
C12 C10 1_555 1_555
C13 C10 1_555 1_555
C14 C15 1_555 1_555
C15 H28 1_555 1_555
C16 C14 1_555 1_555
O1 C1 1_555 1_555
O2 C2 1_555 1_555
O3 C3 1_555 1_555
O4 C4 1_555 1_555
O5 Si1 1_555 1_555
H1 O1 1_555 1_555
H2 O2 1_555 1_555
H3 N1 1_555 1_555
H4 C1 1_555 1_555
H5 C2 1_555 1_555
H6 C3 1_555 1_555
H7 C4 1_555 1_555
H8 C5 1_555 1_555
H9 C6 1_555 1_555
H10 C6 1_555 1_555
H11 C7 1_555 1_555
H12 C7 1_555 1_555
H14 C8 1_555 1_555
H15 C8 1_555 1_555
H16 C9 1_555 1_555
H17 C9 1_555 1_555
H18 C9 1_555 1_555
H19 C11 1_555 1_555
H20 C11 1_555 1_555
H21 C11 1_555 1_555
H22 C12 1_555 1_555
H23 C12 1_555 1_555
H24 C12 1_555 1_555
H25 C13 1_555 1_555
H26 C13 1_555 1_555
H27 C13 1_555 1_555
H29 C15 1_555 1_555
H30 C15 1_555 1_555
H31 C16 1_555 1_555
H32 C16 1_555 1_555
H33 C16 1_555 1_555
C1 C7 1_555 1_555
C14 O4 1_555 1_555
C14 O3 1_555 1_555

#END
