
#######################################################################
#
#                 Cambridge Crystallographic Data Centre
#                                CCDC 
#
#######################################################################
#
# If this CIF has been generated from an entry in the Cambridge 
# Structural Database, then it will include bibliographic, chemical, 
# crystal, experimental, refinement or atomic coordinate data resulting 
# from the CCDC's data processing and validation procedures.
#
#######################################################################

data_IYUBAH
_chemical_formula_moiety         'C15 H11 F3 N2 O1'
_chemical_name_systematic        
(E)-N'-(2,2,2-Trifluoro-1-phenylethylidene)benzohydrazide
_symmetry_cell_setting           monoclinic
_symmetry_space_group_name_H-M   'P 21/c'
_symmetry_Int_Tables_number      14
_space_group_name_Hall           '-P 2ybc'
loop_
_symmetry_equiv_pos_site_id
_symmetry_equiv_pos_as_xyz
1 x,y,z
2 -x,1/2+y,1/2-z
3 -x,-y,-z
4 x,1/2-y,1/2+z
_cell_length_a                   5.7064(5)
_cell_length_b                   17.0772(13)
_cell_length_c                   14.1572(9)
_cell_angle_alpha                90
_cell_angle_beta                 94.665(7)
_cell_angle_gamma                90
_cell_volume                     1375.04
_exptl_crystal_colour            colorless
_exptl_crystal_description       block
_chemical_melting_point          '416 K'
_cell_formula_units_Z            4
loop_
_atom_site_label
_atom_site_type_symbol
_atom_site_fract_x
_atom_site_fract_y
_atom_site_fract_z
F1 F 0.3542(5) 0.39150(16) 0.15183(14)
F2 F -0.0064(5) 0.40545(16) 0.10815(17)
F3 F 0.2369(4) 0.49363(14) 0.08066(13)
O1 O 0.2213(3) 0.44242(12) 0.55335(12)
N1 N 0.1984(4) 0.46861(13) 0.39843(15)
H1 H 0.1196 0.5108 0.4061
N2 N 0.2326(4) 0.44294(14) 0.30928(15)
C1 C 0.4595(5) 0.29930(18) 0.52058(19)
H2 H 0.3414 0.2947 0.5618
C2 C 0.6241(6) 0.24043(19) 0.5166(2)
H3 H 0.6152 0.1961 0.5543
C3 C 0.8016(5) 0.24725(19) 0.4566(2)
H4 H 0.9129 0.2077 0.4536
C4 C 0.8128(5) 0.31305(18) 0.4011(2)
H5 H 0.9335 0.3180 0.3611
C5 C 0.6477(5) 0.37189(17) 0.4038(2)
H6 H 0.6564 0.4159 0.3656
C6 C 0.4681(4) 0.36492(16) 0.46410(18)
C7 C 0.2897(5) 0.42716(16) 0.47566(19)
C8 C 0.1411(5) 0.48145(18) 0.23825(19)
C9 C 0.1805(7) 0.4424(2) 0.1462(2)
C10 C 0.0077(5) 0.55592(18) 0.23540(18)
C11 C -0.2103(6) 0.5619(2) 0.1841(2)
H7 H -0.2749 0.5186 0.1518
C12 C -0.3297(6) 0.6315(3) 0.1813(3)
H8 H -0.4752 0.6351 0.1469
C13 C -0.2388(7) 0.6956(2) 0.2282(3)
H9 H -0.3211 0.7426 0.2253
C14 C -0.0257(7) 0.6905(2) 0.2795(2)
H10 H 0.0363 0.7341 0.3119
C15 C 0.0981(6) 0.62088(18) 0.2835(2)
H11 H 0.2427 0.6178 0.3186
loop_
_geom_bond_atom_site_label_1
_geom_bond_atom_site_label_2
_geom_bond_site_symmetry_1
_geom_bond_site_symmetry_2
F1 C9 1_555 1_555
F2 C9 1_555 1_555
F3 C9 1_555 1_555
O1 C7 1_555 1_555
N1 H1 1_555 1_555
N2 N1 1_555 1_555
C1 H2 1_555 1_555
C2 C1 1_555 1_555
H3 C2 1_555 1_555
C3 C2 1_555 1_555
H4 C3 1_555 1_555
C4 C3 1_555 1_555
H5 C4 1_555 1_555
C5 C4 1_555 1_555
H6 C5 1_555 1_555
C6 C1 1_555 1_555
C7 N1 1_555 1_555
C8 N2 1_555 1_555
C9 C8 1_555 1_555
C10 C8 1_555 1_555
C11 C10 1_555 1_555
H7 C11 1_555 1_555
C12 C11 1_555 1_555
H8 C12 1_555 1_555
C13 C12 1_555 1_555
H9 C13 1_555 1_555
C14 C13 1_555 1_555
H10 C14 1_555 1_555
C15 C10 1_555 1_555
H11 C15 1_555 1_555
C5 C6 1_555 1_555
C6 C7 1_555 1_555
C14 C15 1_555 1_555

#END
