
#######################################################################
#
#                 Cambridge Crystallographic Data Centre
#                                CCDC 
#
#######################################################################
#
# If this CIF has been generated from an entry in the Cambridge 
# Structural Database, then it will include bibliographic, chemical, 
# crystal, experimental, refinement or atomic coordinate data resulting 
# from the CCDC's data processing and validation procedures.
#
#######################################################################

data_IYUNOG
_chemical_formula_moiety         'C21 H20 Cl1 F3 N2 O1'
_chemical_name_systematic        
N-(4-Trifluoromethylbenzoyl)-N-phenyl-N'-cyclohexylchloroformamidine
_symmetry_cell_setting           triclinic
_symmetry_space_group_name_H-M   'P -1'
_symmetry_Int_Tables_number      2
_space_group_name_Hall           '-P 1'
loop_
_symmetry_equiv_pos_site_id
_symmetry_equiv_pos_as_xyz
1 x,y,z
2 -x,-y,-z
_cell_length_a                   5.9765(12)
_cell_length_b                   12.421(3)
_cell_length_c                   13.768(3)
_cell_angle_alpha                81.27(3)
_cell_angle_beta                 86.25(3)
_cell_angle_gamma                84.71(3)
_cell_volume                     1004.54
_chemical_melting_point          73.6-74.3deg.C
_cell_formula_units_Z            2
_exptl_crystal_recrystallization_method tetrahydrofuran/n-hexane
loop_
_atom_site_label
_atom_site_type_symbol
_atom_site_fract_x
_atom_site_fract_y
_atom_site_fract_z
C1 C 0.6369(8) 0.7916(3) 0.4408(3)
C2 C 0.6156(8) 0.6736(3) 0.5987(3)
C3 C 0.3988(8) 0.7115(4) 0.6301(4)
H1 H 0.2926 0.7411 0.5849
C4 C 0.3468(10) 0.7037(4) 0.7306(4)
H2 H 0.2043 0.7283 0.7536
C5 C 0.5067(13) 0.6594(4) 0.7961(4)
H3 H 0.4720 0.6547 0.8634
C6 C 0.7182(10) 0.6220(4) 0.7628(4)
H4 H 0.8235 0.5913 0.8081
C7 C 0.7746(9) 0.6291(3) 0.6658(3)
H5 H 0.9182 0.6045 0.6441
C8 C 0.5085(8) 0.9235(3) 0.3080(3)
H6 H 0.5782 0.9750 0.3415
C9 C 0.6308(9) 0.9164(4) 0.2116(4)
H7 H 0.5737 0.8597 0.1812
H8 H 0.7895 0.8970 0.2214
C10 C 0.6012(12) 1.0263(4) 0.1431(4)
H9 H 0.6748 1.0808 0.1700
H10 H 0.6738 1.0185 0.0792
C11 C 0.3548(14) 1.0655(5) 0.1306(5)
H11 H 0.3440 1.1370 0.0906
H12 H 0.2852 1.0155 0.0965
C12 C 0.2298(10) 1.0725(4) 0.2289(5)
H13 H 0.0713 1.0925 0.2190
H14 H 0.2877 1.1286 0.2599
C13 C 0.2584(8) 0.9624(4) 0.2957(4)
H15 H 0.1857 0.9083 0.2679
H16 H 0.1854 0.9691 0.3598
C14 C 0.7485(7) 0.5951(4) 0.4489(3)
C15 C 0.8358(7) 0.6172(3) 0.3460(3)
C16 C 1.0331(7) 0.6672(3) 0.3228(3)
H17 H 1.1079 0.6909 0.3718
C17 C 1.1173(8) 0.6816(3) 0.2286(3)
H18 H 1.2531 0.7131 0.2140
C18 C 1.0073(9) 0.6508(4) 0.1541(3)
C19 C 0.8090(9) 0.5999(4) 0.1780(4)
H19 H 0.7327 0.5776 0.1288
C20 C 0.7265(8) 0.5827(3) 0.2720(3)
H20 H 0.5953 0.5475 0.2873
C21 C 1.0998(15) 0.6688(6) 0.0554(5)
Cl1 Cl 0.7856(2) 0.88585(10) 0.49147(9)
F1 F 1.1788(14) 0.7546(5) 0.0251(3)
F2 F 0.9637(10) 0.6634(6) -0.0130(3)
F3 F 1.2569(11) 0.5948(5) 0.0341(3)
N1 N 0.5265(7) 0.8146(3) 0.3682(3)
N2 N 0.6738(6) 0.6867(3) 0.4960(2)
O1 O 0.7415(5) 0.5035(2) 0.4935(2)
loop_
_geom_bond_atom_site_label_1
_geom_bond_atom_site_label_2
_geom_bond_site_symmetry_1
_geom_bond_site_symmetry_2
C1 Cl1 1_555 1_555
C2 C3 1_555 1_555
C3 H1 1_555 1_555
C4 C3 1_555 1_555
H2 C4 1_555 1_555
C5 C4 1_555 1_555
H3 C5 1_555 1_555
C6 C5 1_555 1_555
H4 C6 1_555 1_555
C7 C2 1_555 1_555
H5 C7 1_555 1_555
C8 H6 1_555 1_555
C9 C8 1_555 1_555
H7 C9 1_555 1_555
H8 C9 1_555 1_555
C10 C9 1_555 1_555
H9 C10 1_555 1_555
H10 C10 1_555 1_555
C11 C10 1_555 1_555
H11 C11 1_555 1_555
H12 C11 1_555 1_555
C12 C11 1_555 1_555
H13 C12 1_555 1_555
H14 C12 1_555 1_555
C13 C8 1_555 1_555
H15 C13 1_555 1_555
H16 C13 1_555 1_555
C14 C15 1_555 1_555
C15 C16 1_555 1_555
C16 H17 1_555 1_555
C17 C16 1_555 1_555
H18 C17 1_555 1_555
C18 C17 1_555 1_555
C19 C18 1_555 1_555
H19 C19 1_555 1_555
C20 C15 1_555 1_555
H20 C20 1_555 1_555
C21 C18 1_555 1_555
F1 C21 1_555 1_555
F2 C21 1_555 1_555
F3 C21 1_555 1_555
N1 C1 1_555 1_555
N2 C1 1_555 1_555
O1 C14 1_555 1_555
C2 N2 1_555 1_555
C6 C7 1_555 1_555
C8 N1 1_555 1_555
C12 C13 1_555 1_555
C14 N2 1_555 1_555
C19 C20 1_555 1_555

#END
