
#######################################################################
#
#                 Cambridge Crystallographic Data Centre
#                                CCDC 
#
#######################################################################
#
# If this CIF has been generated from an entry in the Cambridge 
# Structural Database, then it will include bibliographic, chemical, 
# crystal, experimental, refinement or atomic coordinate data resulting 
# from the CCDC's data processing and validation procedures.
#
#######################################################################

data_IYUNUM
_chemical_formula_moiety         'C22 H24 N2 O1 S1'
_chemical_name_systematic        
5-Benzoyl-2-isopropylimino-3-isopropyl-4-phenylthiazoline
_symmetry_cell_setting           monoclinic
_symmetry_space_group_name_H-M   'P 21/c'
_symmetry_Int_Tables_number      14
_space_group_name_Hall           '-P 2ybc'
loop_
_symmetry_equiv_pos_site_id
_symmetry_equiv_pos_as_xyz
1 x,y,z
2 -x,1/2+y,1/2-z
3 -x,-y,-z
4 x,1/2-y,1/2+z
_cell_length_a                   10.780(2)
_cell_length_b                   11.792(2)
_cell_length_c                   16.146(3)
_cell_angle_alpha                90
_cell_angle_beta                 99.50(3)
_cell_angle_gamma                90
_cell_volume                     2024.3
_cell_formula_units_Z            4
loop_
_atom_site_label
_atom_site_type_symbol
_atom_site_fract_x
_atom_site_fract_y
_atom_site_fract_z
C1 C 0.25544(14) 0.95510(13) 0.97385(9)
C2 C 0.35010(16) 0.79884(13) 1.04926(9)
C3 C 0.26266(15) 0.99656(13) 1.05336(9)
C4 C 0.20387(16) 1.01349(14) 0.89417(9)
C5 C 0.09174(18) 0.97752(16) 0.84571(11)
H1 H 0.0500 0.9149 0.8627
C6 C 0.0417(2) 1.03363(19) 0.77274(12)
H2 H -0.0337 1.0097 0.7411
C7 C 0.1054(2) 1.1262(2) 0.74720(13)
H3 H 0.0721 1.1645 0.6982
C8 C 0.2162(2) 1.16157(18) 0.79316(12)
H4 H 0.2583 1.2233 0.7751
C9 C 0.26674(18) 1.10561(14) 0.86708(11)
H5 H 0.3424 1.1299 0.8982
C10 C 0.44892(19) 0.65638(15) 1.14003(10)
H6 H 0.4762 0.7208 1.1770
C11 C 0.5625(2) 0.58398(17) 1.13143(12)
H7 H 0.5366 0.5214 1.0945
H8 H 0.5996 0.5557 1.1856
H9 H 0.6230 0.6290 1.1087
C12 C 0.3495(2) 0.58973(18) 1.17614(13)
H10 H 0.2812 0.6391 1.1829
H11 H 0.3858 0.5589 1.2297
H12 H 0.3189 0.5291 1.1386
C13 C 0.31296(17) 0.78629(15) 0.89116(9)
H13 H 0.2786 0.8371 0.8450
C14 C 0.2343(2) 0.67932(17) 0.88074(12)
H14 H 0.2716 0.6233 0.9203
H15 H 0.2305 0.6507 0.8247
H16 H 0.1508 0.6961 0.8906
C15 C 0.45068(19) 0.76644(18) 0.88447(12)
H17 H 0.4951 0.8373 0.8909
H18 H 0.4564 0.7345 0.8305
H19 H 0.4873 0.7150 0.9278
C16 C 0.22750(18) 1.10417(14) 1.08716(11)
C17 C 0.15771(17) 1.19417(14) 1.03427(10)
C18 C 0.04488(18) 1.17485(16) 0.98147(11)
H20 H 0.0106 1.1023 0.9771
C19 C -0.0170(2) 1.26226(18) 0.93528(13)
H21 H -0.0929 1.2486 0.9000
C20 C 0.0336(2) 1.37027(18) 0.94144(14)
H22 H -0.0074 1.4291 0.9096
C21 C 0.1456(2) 1.39086(17) 0.99502(14)
H23 H 0.1795 1.4636 0.9995
C22 C 0.2063(2) 1.30410(15) 1.04126(12)
H24 H 0.2808 1.3185 1.0778
N1 N 0.39510(15) 0.69927(11) 1.05639(8)
N2 N 0.30119(13) 0.84631(11) 0.97055(7)
O1 O 0.25848(16) 1.12094(11) 1.16310(8)
S1 S 0.33648(5) 0.89945(4) 1.12876(2)
loop_
_geom_bond_atom_site_label_1
_geom_bond_atom_site_label_2
_geom_bond_site_symmetry_1
_geom_bond_site_symmetry_2
C1 C3 1_555 1_555
C2 N1 1_555 1_555
C3 C16 1_555 1_555
C4 C1 1_555 1_555
C5 C4 1_555 1_555
H1 C5 1_555 1_555
C6 C5 1_555 1_555
H2 C6 1_555 1_555
C7 C6 1_555 1_555
H3 C7 1_555 1_555
C8 C7 1_555 1_555
H4 C8 1_555 1_555
C9 C4 1_555 1_555
H5 C9 1_555 1_555
C10 H6 1_555 1_555
C11 C10 1_555 1_555
H7 C11 1_555 1_555
H8 C11 1_555 1_555
H9 C11 1_555 1_555
C12 C10 1_555 1_555
H10 C12 1_555 1_555
H11 C12 1_555 1_555
H12 C12 1_555 1_555
C13 H13 1_555 1_555
C14 C13 1_555 1_555
H14 C14 1_555 1_555
H15 C14 1_555 1_555
H16 C14 1_555 1_555
C15 C13 1_555 1_555
H17 C15 1_555 1_555
H18 C15 1_555 1_555
H19 C15 1_555 1_555
C16 C17 1_555 1_555
C17 C18 1_555 1_555
C18 H20 1_555 1_555
C19 C18 1_555 1_555
H21 C19 1_555 1_555
C20 C19 1_555 1_555
H22 C20 1_555 1_555
C21 C20 1_555 1_555
H23 C21 1_555 1_555
C22 C17 1_555 1_555
H24 C22 1_555 1_555
N1 C10 1_555 1_555
N2 C1 1_555 1_555
O1 C16 1_555 1_555
S1 C2 1_555 1_555
C2 N2 1_555 1_555
C3 S1 1_555 1_555
C8 C9 1_555 1_555
C13 N2 1_555 1_555
C21 C22 1_555 1_555

#END
