
#######################################################################
#
#                 Cambridge Crystallographic Data Centre
#                                CCDC 
#
#######################################################################
#
# If this CIF has been generated from an entry in the Cambridge 
# Structural Database, then it will include bibliographic, chemical, 
# crystal, experimental, refinement or atomic coordinate data resulting 
# from the CCDC's data processing and validation procedures.
#
#######################################################################

data_IYUTED
_chemical_formula_moiety         'C10 H12 O3'
_chemical_name_systematic        1-(3,4-dimethoxyphenyl)ethanone
_symmetry_cell_setting           monoclinic
_symmetry_space_group_name_H-M   'P 21/c'
_symmetry_Int_Tables_number      14
_space_group_name_Hall           '-P 2ybc'
loop_
_symmetry_equiv_pos_site_id
_symmetry_equiv_pos_as_xyz
1 x,y,z
2 -x,1/2+y,1/2-z
3 -x,-y,-z
4 x,1/2-y,1/2+z
_cell_length_a                   7.9543(7)
_cell_length_b                   13.3271(11)
_cell_length_c                   8.8107(7)
_cell_angle_alpha                90
_cell_angle_beta                 92.761(3)
_cell_angle_gamma                90
_cell_volume                     932.918
_exptl_crystal_colour            colorless
_exptl_crystal_description       PLATE
_cell_formula_units_Z            4
loop_
_atom_site_label
_atom_site_type_symbol
_atom_site_fract_x
_atom_site_fract_y
_atom_site_fract_z
O1 O 0.96346(14) 0.59482(10) 0.63260(13)
O2 O 0.55355(12) 0.52425(8) 0.17851(10)
O3 O 0.28281(12) 0.61821(8) 0.23518(11)
C1 C 0.7983(2) 0.65151(14) 0.83175(17)
H1 H 0.7053 0.6122 0.8703
H2 H 0.7707 0.7231 0.8360
H3 H 0.9011 0.6385 0.8944
C2 C 0.82541(19) 0.62201(11) 0.67004(16)
C3 C 0.67942(17) 0.62562(10) 0.55786(15)
C4 C 0.69107(17) 0.57335(10) 0.41998(14)
H4 H 0.7914 0.5382 0.3995
C5 C 0.55772(17) 0.57306(10) 0.31485(14)
C6 C 0.40893(17) 0.62552(10) 0.34497(15)
C7 C 0.39924(18) 0.67871(11) 0.47885(16)
H5 H 0.3006 0.7158 0.4982
C8 C 0.53410(18) 0.67777(11) 0.58520(16)
H6 H 0.5261 0.7135 0.6779
C9 C 0.69905(19) 0.46789(12) 0.14399(16)
H7 H 0.6803 0.4353 0.0449
H8 H 0.7207 0.4167 0.2224
H9 H 0.7963 0.5129 0.1410
C10 C 0.12522(19) 0.66319(14) 0.26553(19)
H10 H 0.0433 0.6485 0.1818
H11 H 0.1395 0.7360 0.2752
H12 H 0.0846 0.6360 0.3604
loop_
_geom_bond_atom_site_label_1
_geom_bond_atom_site_label_2
_geom_bond_site_symmetry_1
_geom_bond_site_symmetry_2
O1 C2 1_555 1_555
O2 C5 1_555 1_555
O3 C6 1_555 1_555
C1 H1 1_555 1_555
H2 C1 1_555 1_555
H3 C1 1_555 1_555
C2 C1 1_555 1_555
C3 C2 1_555 1_555
C4 C3 1_555 1_555
H4 C4 1_555 1_555
C5 C4 1_555 1_555
C6 C5 1_555 1_555
C7 C6 1_555 1_555
H5 C7 1_555 1_555
C8 C3 1_555 1_555
H6 C8 1_555 1_555
C9 O2 1_555 1_555
H7 C9 1_555 1_555
H8 C9 1_555 1_555
H9 C9 1_555 1_555
C10 O3 1_555 1_555
H10 C10 1_555 1_555
H11 C10 1_555 1_555
H12 C10 1_555 1_555
C7 C8 1_555 1_555

#END
