
#######################################################################
#
#                 Cambridge Crystallographic Data Centre
#                                CCDC 
#
#######################################################################
#
# If this CIF has been generated from an entry in the Cambridge 
# Structural Database, then it will include bibliographic, chemical, 
# crystal, experimental, refinement or atomic coordinate data resulting 
# from the CCDC's data processing and validation procedures.
#
#######################################################################

data_IYUZAF
_chemical_formula_moiety         'C128 H168 O12,C8 H16,C2 H3 N1'
_chemical_name_systematic        
"(M)-2,8,14,20-tetra-n-hexyl-5,11,17,23-tetrakis(3,5-di-tert-butyl-8-hydroxy-8-methylnona-3,4-diene-1,6-diyn-1-yl)-4,24:6,10:12,16:18,22-O,O'-tetramethylenecalix[4]resorcinarene trans-(S,S)-1,2-dimethylcyclohexane clathrate acetonitrile solvate"
_symmetry_cell_setting           orthorhombic
_symmetry_space_group_name_H-M   'P 21 21 21'
_symmetry_Int_Tables_number      19
_space_group_name_Hall           'P 2ac 2ab'
loop_
_symmetry_equiv_pos_site_id
_symmetry_equiv_pos_as_xyz
1 x,y,z
2 1/2-x,-y,1/2+z
3 -x,1/2+y,1/2-z
4 1/2+x,1/2-y,-z
_cell_length_a                   15.4866(6)
_cell_length_b                   18.2434(6)
_cell_length_c                   46.5748(16)
_cell_angle_alpha                90
_cell_angle_beta                 90
_cell_angle_gamma                90
_cell_volume                     13158.7
_exptl_crystal_colour            colorless
_exptl_crystal_description       plate
_cell_formula_units_Z            4
_exptl_crystal_recrystallization_method 
acetonitrile/(S,S)-trans-1,2-dimethylcyclohexane/water
loop_
_atom_site_label
_atom_site_type_symbol
_atom_site_fract_x
_atom_site_fract_y
_atom_site_fract_z
O1 O 0.3342(2) 0.40672(19) 0.65210(8)
O2 O 0.8192(2) 0.6719(2) 0.72204(8)
O3 O 0.4377(2) 0.75817(19) 0.66513(8)
O4 O 0.8217(2) 0.4105(2) 0.71962(8)
O5 O 0.4373(2) 0.31905(19) 0.66570(8)
O6 O 0.7178(2) 0.76036(19) 0.70711(8)
O7 O 0.3400(2) 0.66780(19) 0.64973(8)
O8 O 0.7214(2) 0.32169(19) 0.70410(8)
O9 O 0.6742(3) 0.6030(2) 0.52434(11)
H1 H 0.7191 0.6190 0.5312
O10 O 0.8218(3) 0.6244(3) 0.55511(11)
H2 H 0.8428 0.5832 0.5542
O11 O 0.6955(3) 0.4537(3) 0.52146(12)
H3 H 0.6830 0.4967 0.5185
O12 O 0.8605(3) 0.4725(3) 0.54219(12)
H4 H 0.8157 0.4581 0.5347
C1 C 0.5187(3) 0.3948(3) 0.73337(12)
H5 H 0.4983 0.4181 0.7498
C2 C 0.3560(3) 0.4719(3) 0.69671(11)
C3 C 0.4922(3) 0.3436(3) 0.68704(11)
C4 C 0.3470(3) 0.6034(3) 0.66585(11)
C5 C 0.4916(3) 0.7358(3) 0.68745(12)
C6 C 0.6328(3) 0.7362(3) 0.70843(12)
C7 C 0.6018(3) 0.7002(3) 0.73260(12)
C8 C 0.7822(3) 0.4755(3) 0.72892(11)
C9 C 0.3549(3) 0.6058(3) 0.69553(11)
C10 C 0.4751(4) 0.4236(3) 0.52308(12)
C11 C 0.3451(3) 0.4727(3) 0.66677(11)
C12 C 0.5784(3) 0.7545(3) 0.68552(12)
C13 C 0.4608(3) 0.3786(3) 0.71155(12)
C14 C 0.6067(3) 0.3773(3) 0.73172(12)
C15 C 0.6112(3) 0.7911(3) 0.66072(12)
C16 C 0.3658(3) 0.4002(3) 0.71304(12)
H6 H 0.3330 0.3628 0.7026
C17 C 0.4105(4) 0.3700(3) 0.64437(12)
H7 H 0.4560 0.4057 0.6413
H8 H 0.4012 0.3442 0.6264
C18 C 0.3290(3) 0.5366(3) 0.56352(11)
C19 C 0.6275(3) 0.6764(3) 0.78651(11)
H9 H 0.5903 0.6338 0.7884
H10 H 0.5926 0.7198 0.7897
C20 C 0.7097(3) 0.4727(3) 0.74652(11)
C21 C 0.6704(3) 0.3997(3) 0.75525(12)
H11 H 0.7174 0.3636 0.7548
C22 C 0.5799(3) 0.3270(3) 0.68406(12)
C23 C 0.3611(3) 0.5399(3) 0.71021(11)
H12 H 0.3691 0.5412 0.7300
C24 C 0.3340(3) 0.5340(3) 0.59448(11)
C25 C 0.3374(3) 0.5351(3) 0.62038(11)
C26 C 0.5138(3) 0.6827(3) 0.73357(11)
H13 H 0.4924 0.6583 0.7496
C27 C 0.4570(3) 0.7005(3) 0.71145(11)
C28 C 0.3429(3) 0.5369(3) 0.65118(11)
C29 C 1.0097(3) 0.5460(3) 0.66095(12)
C30 C 0.3178(3) 0.6799(3) 0.74047(12)
H14 H 0.3360 0.6373 0.7513
H15 H 0.3353 0.7233 0.7510
C31 C 0.7831(3) 0.3750(3) 0.69590(12)
H16 H 0.8277 0.3516 0.6845
H17 H 0.7551 0.4115 0.6839
C32 C 0.7802(3) 0.6066(3) 0.72995(12)
C33 C 0.3860(3) 0.4271(3) 0.53239(12)
C34 C 0.6365(3) 0.3442(3) 0.70672(12)
C35 C 0.9445(3) 0.5453(3) 0.68274(12)
C36 C 0.5490(4) 0.4173(3) 0.51558(13)
C37 C 0.8183(3) 0.5420(3) 0.72008(11)
C38 C 0.3602(3) 0.4821(3) 0.54834(12)
C39 C 0.7814(3) 0.7096(3) 0.69827(13)
H18 H 0.8262 0.7353 0.6878
H19 H 0.7554 0.6742 0.6854
C40 C 0.3303(3) 0.4029(3) 0.74389(12)
H20 H 0.3430 0.3566 0.7533
H21 H 0.3602 0.4412 0.7544
C41 C 0.8312(4) 0.2440(3) 0.59611(13)
C42 C 0.8892(3) 0.5429(3) 0.70060(12)
C43 C 0.4177(4) 0.7049(3) 0.64364(12)
H22 H 0.4129 0.7290 0.6251
H23 H 0.4644 0.6696 0.6425
C44 C 0.7486(4) 0.2393(3) 0.60280(13)
C45 C 0.6371(4) 0.8191(3) 0.63907(12)
C46 C 0.6344(3) 0.3990(3) 0.78545(12)
H24 H 0.6082 0.3517 0.7892
H25 H 0.5899 0.4361 0.7871
C47 C 1.0194(3) 0.6066(4) 0.64551(13)
C48 C 0.6735(3) 0.5390(3) 0.75497(11)
H26 H 0.6241 0.5380 0.7663
C49 C 0.6652(3) 0.6788(3) 0.75622(12)
H27 H 0.7109 0.7160 0.7563
C50 C 0.6663(4) 0.2336(3) 0.61008(13)
C51 C 0.2195(4) 0.6792(4) 0.73743(13)
H28 H 0.2015 0.7237 0.7277
H29 H 0.2030 0.6381 0.7254
C52 C 0.2846(3) 0.6037(3) 0.55007(12)
C53 C 0.3254(4) 0.3653(3) 0.52287(13)
C54 C 0.7046(4) 0.4135(3) 0.80769(12)
H30 H 0.7452 0.3731 0.8073
H31 H 0.7357 0.4574 0.8021
C55 C 0.7072(3) 0.6065(3) 0.74733(11)
C56 C 0.3624(3) 0.6794(3) 0.71103(11)
H32 H 0.3327 0.7158 0.6991
C57 C 0.5253(4) 0.8926(3) 0.55541(13)
C58 C 0.6732(4) 0.8549(3) 0.61422(13)
C59 C 1.0296(3) 0.6656(4) 0.63002(13)
C60 C 0.7512(4) 0.9038(3) 0.61916(13)
C61 C 0.8901(4) 0.6780(4) 0.55506(13)
C62 C 0.6117(4) 0.7770(3) 0.54540(13)
C63 C 0.9391(4) 0.6734(4) 0.58203(13)
C64 C 0.8993(4) 0.1908(3) 0.60748(13)
C65 C 0.2342(4) 0.4168(3) 0.74559(13)
H33 H 0.2042 0.3749 0.7375
H34 H 0.2205 0.4591 0.7338
C66 C 1.0667(4) 0.4783(4) 0.65726(13)
C67 C 0.6114(4) 0.2947(3) 0.65783(13)
C68 C 0.5952(4) 0.8369(3) 0.56467(13)
C69 C 0.9812(4) 0.6707(4) 0.60363(13)
C70 C 0.6386(4) 0.4075(3) 0.50555(14)
C71 C 0.6198(4) 0.7250(3) 0.52972(14)
C72 C 0.8858(4) 0.3525(4) 0.56256(15)
C73 C 0.3269(4) 0.6732(3) 0.56144(13)
H35 H 0.3244 0.6734 0.5820
H36 H 0.2969 0.7152 0.5541
H37 H 0.3861 0.6747 0.5554
C74 C 0.5992(4) 0.1923(4) 0.59223(14)
C75 C 0.6288(4) 0.6610(3) 0.51008(14)
C76 C 0.6389(4) 0.2691(3) 0.63619(13)
C77 C 1.0885(4) 0.7295(3) 0.63889(14)
C78 C 0.6367(4) 0.8441(3) 0.58914(13)
C79 C 0.7800(4) 0.9389(3) 0.59101(14)
H38 H 0.7992 0.9014 0.5780
H39 H 0.8266 0.9724 0.5947
H40 H 0.7325 0.9650 0.5826
C80 C 0.4398(4) 0.8512(4) 0.55101(14)
H41 H 0.4474 0.8140 0.5366
H42 H 0.3959 0.8849 0.5449
H43 H 0.4226 0.8287 0.5688
C81 C 1.1209(4) 0.4687(4) 0.68431(14)
H44 H 1.1597 0.5095 0.6863
H45 H 1.1536 0.4241 0.6830
H46 H 1.0836 0.4665 0.7008
C82 C 0.8597(4) 0.3029(4) 0.57744(14)
C83 C 0.6990(4) 0.6727(4) 0.80911(13)
H47 H 0.7373 0.6324 0.8043
H48 H 0.7325 0.7175 0.8081
C84 C 0.8247(4) 0.8579(4) 0.63164(16)
H49 H 0.8067 0.8369 0.6496
H50 H 0.8742 0.8884 0.6347
H51 H 0.8392 0.8193 0.6185
C85 C 1.1283(4) 0.7137(4) 0.66814(14)
H52 H 1.0834 0.7103 0.6823
H53 H 1.1671 0.7526 0.6732
H54 H 1.1594 0.6682 0.6674
C86 C 0.1720(4) 0.6737(4) 0.76571(13)
H55 H 0.2014 0.7034 0.7800
H56 H 0.1727 0.6233 0.7723
C87 C 0.7264(4) 0.9637(4) 0.64063(13)
H57 H 0.6796 0.9922 0.6330
H58 H 0.7752 0.9950 0.6440
H59 H 0.7088 0.9416 0.6584
C88 C 0.1895(3) 0.6010(4) 0.55844(14)
H60 H 0.1634 0.5579 0.5504
H61 H 0.1607 0.6438 0.5512
H62 H 0.1845 0.5997 0.5790
C89 C 0.2917(4) 0.6010(4) 0.51714(13)
H63 H 0.3515 0.5992 0.5117
H64 H 0.2654 0.6439 0.5091
H65 H 0.2627 0.5581 0.5101
C90 C 0.1996(4) 0.4303(4) 0.77579(15)
H66 H 0.2129 0.3880 0.7876
H67 H 0.2294 0.4721 0.7839
C91 C 0.8566(4) 0.1356(4) 0.62815(16)
H68 H 0.8336 0.1613 0.6444
H69 H 0.8988 0.1007 0.6345
H70 H 0.8107 0.1105 0.6184
C92 C 0.9209(4) 0.4119(4) 0.54459(16)
C93 C 0.3604(4) 0.2926(4) 0.53447(17)
H71 H 0.4170 0.2839 0.5268
H72 H 0.3226 0.2534 0.5289
H73 H 0.3635 0.2948 0.5550
C94 C 0.9388(4) 0.1490(4) 0.58231(15)
H74 H 0.8941 0.1235 0.5721
H75 H 0.9803 0.1143 0.5894
H76 H 0.9669 0.1829 0.5696
C95 C 1.1261(4) 0.4867(4) 0.63157(15)
H77 H 1.0923 0.4956 0.6146
H78 H 1.1592 0.4426 0.6291
H79 H 1.1645 0.5273 0.6347
C96 C 0.5550(5) 0.9286(4) 0.52745(15)
H80 H 0.6066 0.9565 0.5309
H81 H 0.5105 0.9606 0.5205
H82 H 0.5667 0.8915 0.5134
C97 C 0.6731(4) 0.4231(4) 0.83801(13)
H83 H 0.6454 0.3781 0.8442
H84 H 0.6298 0.4616 0.8383
C98 C 0.7440(5) 0.4423(4) 0.85929(14)
H85 H 0.7904 0.4070 0.8574
H86 H 0.7671 0.4901 0.8544
C99 C 0.5538(4) 0.1369(4) 0.61086(15)
H87 H 0.5948 0.1015 0.6177
H88 H 0.5099 0.1126 0.5998
H89 H 0.5276 0.1614 0.6269
C100 C 0.9694(5) 0.2322(4) 0.62330(16)
H90 H 0.9962 0.2665 0.6105
H91 H 1.0119 0.1983 0.6303
H92 H 0.9444 0.2582 0.6392
C101 C 0.2347(4) 0.3785(4) 0.53388(17)
H93 H 0.2357 0.3823 0.5544
H94 H 0.1983 0.3383 0.5283
H95 H 0.2126 0.4232 0.5258
C102 C 0.6419(4) 0.1546(4) 0.56655(15)
H96 H 0.6742 0.1899 0.5557
H97 H 0.5983 0.1332 0.5545
H98 H 0.6801 0.1168 0.5733
C103 C 0.5130(4) 0.9512(4) 0.57853(15)
H99 H 0.4916 0.9288 0.5958
H100 H 0.4724 0.9872 0.5719
H101 H 0.5674 0.9745 0.5824
C104 C 0.6687(5) 0.6625(4) 0.83953(13)
H102 H 0.6494 0.6123 0.8421
H103 H 0.6199 0.6946 0.8431
C105 C 0.7415(5) 0.6795(5) 0.86141(16)
H104 H 0.7884 0.6452 0.8583
H105 H 0.7636 0.7283 0.8574
C106 C 1.1593(4) 0.7383(4) 0.61636(14)
H106 H 1.1973 0.6968 0.6170
H107 H 1.1916 0.7822 0.6202
H108 H 1.1336 0.7416 0.5976
C107 C 0.5398(4) 0.6308(4) 0.50347(17)
H109 H 0.5452 0.5880 0.4916
H110 H 0.5066 0.6673 0.4935
H111 H 0.5112 0.6181 0.5211
C108 C 1.0341(4) 0.7986(4) 0.64056(16)
H112 H 1.0086 0.8082 0.6222
H113 H 1.0699 0.8392 0.6460
H114 H 0.9893 0.7922 0.6546
C109 C 0.6774(5) 0.6839(4) 0.48308(15)
H115 H 0.7343 0.7003 0.4882
H116 H 0.6468 0.7230 0.4737
H117 H 0.6817 0.6428 0.4703
C110 C 0.1044(5) 0.4441(5) 0.7771(2)
H118 H 0.0915 0.4701 0.7947
H119 H 0.0886 0.4758 0.7612
C111 C 0.3246(5) 0.3620(5) 0.49027(16)
H120 H 0.3047 0.4080 0.4827
H121 H 0.2867 0.3235 0.4841
H122 H 0.3820 0.3525 0.4834
C112 C 1.0094(4) 0.4106(4) 0.65344(18)
H123 H 0.9751 0.4035 0.6704
H124 H 1.0450 0.3683 0.6503
H125 H 0.9721 0.4176 0.6372
C113 C 0.8457(5) 0.7517(4) 0.55266(16)
H126 H 0.8180 0.7556 0.5343
H127 H 0.8877 0.7901 0.5546
H128 H 0.8033 0.7563 0.5676
C114 C 0.9480(5) 0.6641(4) 0.53023(14)
H129 H 0.9760 0.6176 0.5326
H130 H 0.9907 0.7021 0.5292
H131 H 0.9147 0.6637 0.5129
C115 C 0.7151(6) 0.4435(5) 0.88982(16)
H132 H 0.6905 0.3962 0.8946
H133 H 0.6700 0.4800 0.8920
C116 C 0.5315(5) 0.2465(5) 0.58149(18)
H134 H 0.5032 0.2689 0.5976
H135 H 0.4896 0.2211 0.5700
H136 H 0.5590 0.2836 0.5701
C117 C 0.9423(7) 0.3818(5) 0.51542(19)
H137 H 0.8902 0.3661 0.5061
H138 H 0.9807 0.3408 0.5174
H139 H 0.9696 0.4192 0.5041
C118 C 0.7167(6) 0.6761(5) 0.89154(16)
H140 H 0.6980 0.6268 0.8962
H141 H 0.6686 0.7091 0.8949
C119 C 0.9973(5) 0.4459(5) 0.5588(2)
H142 H 1.0178 0.4861 0.5473
H143 H 1.0423 0.4100 0.5607
H144 H 0.9812 0.4636 0.5774
C120 C 0.6692(5) 0.3298(4) 0.5115(2)
H145 H 0.7301 0.3264 0.5078
H146 H 0.6389 0.2963 0.4992
H147 H 0.6579 0.3176 0.5312
C121 C 0.6434(5) 0.4264(5) 0.47403(17)
H148 H 0.6256 0.4763 0.4713
H149 H 0.6060 0.3945 0.4634
H150 H 0.7017 0.4205 0.4674
C122 C 0.7913(6) 0.6972(6) 0.9109(2)
H151 H 0.8173 0.7416 0.9040
H152 H 0.8335 0.6586 0.9109
H153 H 0.7704 0.7047 0.9301
C123 C 0.7885(7) 0.4608(7) 0.9108(2)
H154 H 0.8156 0.5061 0.9054
H155 H 0.8304 0.4220 0.9103
H156 H 0.7656 0.4652 0.9299
C124 C 0.0526(9) 0.3805(9) 0.7759(4)
H157 H 0.0716 0.3461 0.7905
H158 H 0.0592 0.3573 0.7573
C125 C -0.0413(9) 0.3991(15) 0.7808(4)
H159 H -0.0551 0.4437 0.7709
H160 H -0.0516 0.4053 0.8009
H161 H -0.0769 0.3601 0.7736
C126 C 0.0757(8) 0.7004(11) 0.7628(3)
H162 H 0.0752 0.7492 0.7545
H163 H 0.0453 0.6681 0.7497
C127 C 0.0285(9) 0.7021(11) 0.7912(3)
H164 H 0.0604 0.7329 0.8045
H165 H 0.0274 0.6529 0.7991
C128 C -0.0636(10) 0.7303(17) 0.7891(5)
H166 H -0.0969 0.6981 0.7772
H167 H -0.0634 0.7786 0.7809
H168 H -0.0887 0.7322 0.8080
N1 N 0.5497(4) 0.0368(4) 0.71068(13)
C134 C 0.5960(5) 0.0718(4) 0.69846(15)
C135 C 0.6598(7) 0.1180(5) 0.68330(16)
H185 H 0.7189 0.0920 0.6832
H186 H 0.6653 0.1676 0.6937
H187 H 0.6398 0.1265 0.6625
C136 C 0.7531(12) 0.4811(8) 0.6212(2)
H188 H 0.8125 0.4740 0.6153
H189 H 0.7395 0.4448 0.6358
C137 C 0.5854(11) 0.5576(7) 0.6143(3)
H190 H 0.5265 0.5566 0.6220
C138 C 0.5959(9) 0.4764(7) 0.6014(3)
H191 H 0.5788 0.4395 0.6153
H192 H 0.5619 0.4703 0.5841
C139 C 0.6061(9) 0.5358(6) 0.6703(2)
H193 H 0.5508 0.5566 0.6748
H194 H 0.6455 0.5448 0.6858
H195 H 0.6001 0.4839 0.6675
C140 C 0.5822(10) 0.6206(8) 0.5942(3)
H196 H 0.6396 0.6392 0.5913
H197 H 0.5466 0.6585 0.6022
H198 H 0.5586 0.6050 0.5762
C141 C 0.7407(10) 0.5635(9) 0.6344(4)
H199 H 0.7763 0.5699 0.6514
H200 H 0.7572 0.6002 0.6203
C142 C 0.6416(9) 0.5714(8) 0.6423(3)
H201 H 0.6347 0.6240 0.6458
C143 C 0.6914(9) 0.4717(11) 0.5949(3)
H202 H 0.7055 0.5091 0.5809
H203 H 0.7030 0.4245 0.5862
H169? H 0.1942 0.6317 0.7761
H170? H 0.1850 0.7171 0.7770
H171? H 0.0944 0.4846 0.7640
H172? H 0.0781 0.4015 0.7681
C129? C 0.0751(9) 0.6663(12) 0.7636(4)
H173? H 0.0526 0.7074 0.7527
H174? H 0.0615 0.6219 0.7531
C130? C 0.0301(12) 0.6639(14) 0.7923(5)
H175? H 0.0517 0.7035 0.8042
H176? H 0.0441 0.6180 0.8017
C131? C -0.0669(12) 0.6705(19) 0.7898(5)
H177? H -0.0883 0.6332 0.7771
H178? H -0.0815 0.7179 0.7823
H179? H -0.0925 0.6647 0.8084
C132? C -0.0442(11) 0.4694(18) 0.7990(5)
H180? H -0.0573 0.5016 0.7833
H181? H -0.0654 0.4904 0.8166
H182? H -0.0713 0.4228 0.7959
C133? C 0.0530(9) 0.4592(12) 0.8011(3)
H183? H 0.0760 0.5034 0.8098
H184? H 0.0628 0.4198 0.8147
loop_
_geom_bond_atom_site_label_1
_geom_bond_atom_site_label_2
_geom_bond_site_symmetry_1
_geom_bond_site_symmetry_2
O1 C11 1_555 1_555
O2 C32 1_555 1_555
O3 C5 1_555 1_555
O4 C8 1_555 1_555
O5 C3 1_555 1_555
O6 C6 1_555 1_555
O7 C4 1_555 1_555
O8 C31 1_555 1_555
O9 H1 1_555 1_555
O10 H2 1_555 1_555
O11 H3 1_555 1_555
O12 H4 1_555 1_555
C1 H5 1_555 1_555
C2 C11 1_555 1_555
C3 C13 1_555 1_555
C4 C9 1_555 1_555
C5 C12 1_555 1_555
C6 C7 1_555 1_555
C7 C26 1_555 1_555
C8 C20 1_555 1_555
C9 C23 1_555 1_555
C10 C33 1_555 1_555
C11 C28 1_555 1_555
C12 C6 1_555 1_555
C13 C1 1_555 1_555
C14 C1 1_555 1_555
C15 C12 1_555 1_555
C16 C2 1_555 1_555
H6 C16 1_555 1_555
C17 O1 1_555 1_555
H7 C17 1_555 1_555
H8 C17 1_555 1_555
C18 C24 1_555 1_555
C19 H9 1_555 1_555
H10 C19 1_555 1_555
C20 C21 1_555 1_555
C21 C14 1_555 1_555
H11 C21 1_555 1_555
C22 C3 1_555 1_555
C23 C2 1_555 1_555
H12 C23 1_555 1_555
C24 C25 1_555 1_555
C25 C28 1_555 1_555
C26 H13 1_555 1_555
C27 C5 1_555 1_555
C28 C4 1_555 1_555
C29 C35 1_555 1_555
C30 H14 1_555 1_555
H15 C30 1_555 1_555
C31 O4 1_555 1_555
H16 C31 1_555 1_555
H17 C31 1_555 1_555
C32 C37 1_555 1_555
C33 C38 1_555 1_555
C34 O8 1_555 1_555
C35 C42 1_555 1_555
C36 C10 1_555 1_555
C37 C8 1_555 1_555
C38 C18 1_555 1_555
C39 O2 1_555 1_555
H18 C39 1_555 1_555
H19 C39 1_555 1_555
C40 C16 1_555 1_555
H20 C40 1_555 1_555
H21 C40 1_555 1_555
C41 C44 1_555 1_555
C42 C37 1_555 1_555
C43 O3 1_555 1_555
H22 C43 1_555 1_555
H23 C43 1_555 1_555
C44 C50 1_555 1_555
C45 C15 1_555 1_555
C46 C21 1_555 1_555
H24 C46 1_555 1_555
H25 C46 1_555 1_555
C47 C29 1_555 1_555
C48 C20 1_555 1_555
H26 C48 1_555 1_555
C49 C7 1_555 1_555
H27 C49 1_555 1_555
C50 C74 1_555 1_555
C51 C30 1_555 1_555
H28 C51 1_555 1_555
H29 C51 1_555 1_555
C52 C18 1_555 1_555
C53 C33 1_555 1_555
C54 C46 1_555 1_555
H30 C54 1_555 1_555
H31 C54 1_555 1_555
C55 C32 1_555 1_555
C56 C9 1_555 1_555
H32 C56 1_555 1_555
C57 C68 1_555 1_555
C58 C45 1_555 1_555
C59 C47 1_555 1_555
C60 C58 1_555 1_555
C61 O10 1_555 1_555
C62 C68 1_555 1_555
C63 C61 1_555 1_555
C64 C41 1_555 1_555
C65 C40 1_555 1_555
H33 C65 1_555 1_555
H34 C65 1_555 1_555
C66 C29 1_555 1_555
C67 C22 1_555 1_555
C68 C78 1_555 1_555
C69 C59 1_555 1_555
C70 O11 1_555 1_555
C71 C62 1_555 1_555
C72 C82 1_555 1_555
C73 C52 1_555 1_555
H35 C73 1_555 1_555
H36 C73 1_555 1_555
H37 C73 1_555 1_555
C74 C99 1_555 1_555
C75 O9 1_555 1_555
C76 C50 1_555 1_555
C77 C59 1_555 1_555
C78 C58 1_555 1_555
C79 C60 1_555 1_555
H38 C79 1_555 1_555
H39 C79 1_555 1_555
H40 C79 1_555 1_555
C80 C57 1_555 1_555
H41 C80 1_555 1_555
H42 C80 1_555 1_555
H43 C80 1_555 1_555
C81 C66 1_555 1_555
H44 C81 1_555 1_555
H45 C81 1_555 1_555
H46 C81 1_555 1_555
C82 C41 1_555 1_555
C83 C19 1_555 1_555
H47 C83 1_555 1_555
H48 C83 1_555 1_555
C84 C60 1_555 1_555
H49 C84 1_555 1_555
H50 C84 1_555 1_555
H51 C84 1_555 1_555
C85 C77 1_555 1_555
H52 C85 1_555 1_555
H53 C85 1_555 1_555
H54 C85 1_555 1_555
C86 C51 1_555 1_555
H55 C86 1_555 1_555
H56 C86 1_555 1_555
C87 C60 1_555 1_555
H57 C87 1_555 1_555
H58 C87 1_555 1_555
H59 C87 1_555 1_555
C88 C52 1_555 1_555
H60 C88 1_555 1_555
H61 C88 1_555 1_555
H62 C88 1_555 1_555
C89 C52 1_555 1_555
H63 C89 1_555 1_555
H64 C89 1_555 1_555
H65 C89 1_555 1_555
C90 C65 1_555 1_555
H66 C90 1_555 1_555
H67 C90 1_555 1_555
C91 C64 1_555 1_555
H68 C91 1_555 1_555
H69 C91 1_555 1_555
H70 C91 1_555 1_555
C92 O12 1_555 1_555
C93 C53 1_555 1_555
H71 C93 1_555 1_555
H72 C93 1_555 1_555
H73 C93 1_555 1_555
C94 C64 1_555 1_555
H74 C94 1_555 1_555
H75 C94 1_555 1_555
H76 C94 1_555 1_555
C95 C66 1_555 1_555
H77 C95 1_555 1_555
H78 C95 1_555 1_555
H79 C95 1_555 1_555
C96 C57 1_555 1_555
H80 C96 1_555 1_555
H81 C96 1_555 1_555
H82 C96 1_555 1_555
C97 C54 1_555 1_555
H83 C97 1_555 1_555
H84 C97 1_555 1_555
C98 C97 1_555 1_555
H85 C98 1_555 1_555
H86 C98 1_555 1_555
C99 H87 1_555 1_555
H88 C99 1_555 1_555
H89 C99 1_555 1_555
C100 C64 1_555 1_555
H90 C100 1_555 1_555
H91 C100 1_555 1_555
H92 C100 1_555 1_555
C101 C53 1_555 1_555
H93 C101 1_555 1_555
H94 C101 1_555 1_555
H95 C101 1_555 1_555
C102 C74 1_555 1_555
H96 C102 1_555 1_555
H97 C102 1_555 1_555
H98 C102 1_555 1_555
C103 C57 1_555 1_555
H99 C103 1_555 1_555
H100 C103 1_555 1_555
H101 C103 1_555 1_555
C104 C83 1_555 1_555
H102 C104 1_555 1_555
H103 C104 1_555 1_555
C105 C104 1_555 1_555
H104 C105 1_555 1_555
H105 C105 1_555 1_555
C106 C77 1_555 1_555
H106 C106 1_555 1_555
H107 C106 1_555 1_555
H108 C106 1_555 1_555
C107 C75 1_555 1_555
H109 C107 1_555 1_555
H110 C107 1_555 1_555
H111 C107 1_555 1_555
C108 C77 1_555 1_555
H112 C108 1_555 1_555
H113 C108 1_555 1_555
H114 C108 1_555 1_555
C109 C75 1_555 1_555
H115 C109 1_555 1_555
H116 C109 1_555 1_555
H117 C109 1_555 1_555
C110 C90 1_555 1_555
H118 C110 1_555 1_555
H119 C110 1_555 1_555
C111 C53 1_555 1_555
H120 C111 1_555 1_555
H121 C111 1_555 1_555
H122 C111 1_555 1_555
C112 C66 1_555 1_555
H123 C112 1_555 1_555
H124 C112 1_555 1_555
H125 C112 1_555 1_555
C113 C61 1_555 1_555
H126 C113 1_555 1_555
H127 C113 1_555 1_555
H128 C113 1_555 1_555
C114 C61 1_555 1_555
H129 C114 1_555 1_555
H130 C114 1_555 1_555
H131 C114 1_555 1_555
C115 C98 1_555 1_555
H132 C115 1_555 1_555
H133 C115 1_555 1_555
C116 C74 1_555 1_555
H134 C116 1_555 1_555
H135 C116 1_555 1_555
H136 C116 1_555 1_555
C117 C92 1_555 1_555
H137 C117 1_555 1_555
H138 C117 1_555 1_555
H139 C117 1_555 1_555
C118 C105 1_555 1_555
H140 C118 1_555 1_555
H141 C118 1_555 1_555
C119 C92 1_555 1_555
H142 C119 1_555 1_555
H143 C119 1_555 1_555
H144 C119 1_555 1_555
C120 C70 1_555 1_555
H145 C120 1_555 1_555
H146 C120 1_555 1_555
H147 C120 1_555 1_555
C121 C70 1_555 1_555
H148 C121 1_555 1_555
H149 C121 1_555 1_555
H150 C121 1_555 1_555
C122 C118 1_555 1_555
H151 C122 1_555 1_555
H152 C122 1_555 1_555
H153 C122 1_555 1_555
C123 C115 1_555 1_555
H154 C123 1_555 1_555
H155 C123 1_555 1_555
H156 C123 1_555 1_555
C124 C110 1_555 1_555
H157 C124 1_555 1_555
H158 C124 1_555 1_555
C125 C124 1_555 1_555
H159 C125 1_555 1_555
H160 C125 1_555 1_555
H161 C125 1_555 1_555
C126 C86 1_555 1_555
H162 C126 1_555 1_555
H163 C126 1_555 1_555
C127 C126 1_555 1_555
H164 C127 1_555 1_555
H165 C127 1_555 1_555
C128 C127 1_555 1_555
H166 C128 1_555 1_555
H167 C128 1_555 1_555
H168 C128 1_555 1_555
N1 C134 1_555 1_555
C134 C135 1_555 1_555
C135 H185 1_555 1_555
H186 C135 1_555 1_555
H187 C135 1_555 1_555
C136 H188 1_555 1_555
H189 C136 1_555 1_555
C137 H190 1_555 1_555
C138 C137 1_555 1_555
H191 C138 1_555 1_555
H192 C138 1_555 1_555
C139 H193 1_555 1_555
H194 C139 1_555 1_555
H195 C139 1_555 1_555
C140 C137 1_555 1_555
H196 C140 1_555 1_555
H197 C140 1_555 1_555
H198 C140 1_555 1_555
C141 C136 1_555 1_555
H199 C141 1_555 1_555
H200 C141 1_555 1_555
C142 C137 1_555 1_555
H201 C142 1_555 1_555
C143 C136 1_555 1_555
H202 C143 1_555 1_555
H203 C143 1_555 1_555
O5 C17 1_555 1_555
O6 C39 1_555 1_555
O7 C43 1_555 1_555
C13 C16 1_555 1_555
C14 C34 1_555 1_555
C19 C49 1_555 1_555
C22 C34 1_555 1_555
C26 C27 1_555 1_555
C27 C56 1_555 1_555
C30 C56 1_555 1_555
C36 C70 1_555 1_555
C48 C55 1_555 1_555
C49 C55 1_555 1_555
C63 C69 1_555 1_555
C67 C76 1_555 1_555
C71 C75 1_555 1_555
C72 C92 1_555 1_555
C138 C143 1_555 1_555
C139 C142 1_555 1_555
C141 C142 1_555 1_555

#END
