
#######################################################################
#
#                 Cambridge Crystallographic Data Centre
#                                CCDC 
#
#######################################################################
#
# If this CIF has been generated from an entry in the Cambridge 
# Structural Database, then it will include bibliographic, chemical, 
# crystal, experimental, refinement or atomic coordinate data resulting 
# from the CCDC's data processing and validation procedures.
#
#######################################################################

data_IYUZEJ
_chemical_formula_moiety         'C128 H168 O12,C8 H16,C2 H3 N1'
_chemical_name_systematic        
"(P)-2,8,14,20-tetra-n-hexyl-5,11,17,23-tetrakis(3,5-di-tert-butyl-8-hydroxy-8-methylnona-3,4-diene-1,6-diyn-1-yl)-4,24:6,10:12,16:18,22-O,O'-tetramethylenecalix[4]resorcinarene cis-1,2-dimethylcyclohexane clathrate acetonitrile solvate"
_symmetry_cell_setting           orthorhombic
_symmetry_space_group_name_H-M   'P 21 21 21'
_symmetry_Int_Tables_number      19
_space_group_name_Hall           'P 2ac 2ab'
loop_
_symmetry_equiv_pos_site_id
_symmetry_equiv_pos_as_xyz
1 x,y,z
2 1/2+x,1/2-y,-z
3 -x,1/2+y,1/2-z
4 1/2-x,-y,1/2+z
_cell_length_a                   15.4841(5)
_cell_length_b                   18.2541(5)
_cell_length_c                   46.5230(14)
_cell_angle_alpha                90
_cell_angle_beta                 90
_cell_angle_gamma                90
_cell_volume                     13149.6
_exptl_crystal_colour            colorless
_exptl_crystal_description       plate
_cell_formula_units_Z            4
_exptl_crystal_recrystallization_method 
acetonitrile/cis-1,2-dimethylcyclohexane/water
loop_
_atom_site_label
_atom_site_type_symbol
_atom_site_fract_x
_atom_site_fract_y
_atom_site_fract_z
O1 O 0.69461(15) 0.54495(14) 0.01730(7)
H1 H 0.671(3) 0.4983(18) 0.0185(12)
O2 O 0.86117(15) 0.52665(12) 0.03879(6)
H2 H 0.815(2) 0.551(2) 0.0298(10)
O3 O 0.82236(15) 0.37794(12) 0.05498(5)
H3 H 0.840(3) 0.4242(16) 0.0528(10)
O4 O 0.66718(15) 0.39896(11) 0.02724(6)
H4 H 0.716(2) 0.381(2) 0.0351(10)
O5 O 0.34013(13) 0.32653(10) 0.14957(4)
O6 O 0.33190(13) 0.58726(10) 0.15140(4)
O7 O 0.43380(13) 0.67602(10) 0.16513(4)
O8 O 0.71836(13) 0.67392(10) 0.20332(5)
O9 O 0.81901(13) 0.58452(11) 0.21866(5)
O10 O 0.81843(13) 0.32308(10) 0.22300(5)
O11 O 0.71733(13) 0.23431(10) 0.20812(5)
O12 O 0.43855(13) 0.23655(10) 0.16520(4)
C1 C 0.1994(2) 0.56419(19) 0.27581(8)
H5 H 0.2333 0.5226 0.2836
H6 H 0.2149 0.6078 0.2874
C2 C 0.2313(2) 0.57802(17) 0.24527(7)
H7 H 0.2005 0.6210 0.2373
H8 H 0.2169 0.5351 0.2332
C3 C 0.32860(19) 0.59187(14) 0.24369(6)
H9 H 0.3591 0.5524 0.2542
H10 H 0.3419 0.6388 0.2534
C4 C 0.1702(2) 0.3191(2) 0.26549(7)
H11 H 0.1687 0.3709 0.2718
H12 H 0.2015 0.2905 0.2803
C5 C 0.2187(2) 0.31394(19) 0.23709(7)
H13 H 0.2015 0.3558 0.2248
H14 H 0.2010 0.2684 0.2271
C6 C 0.31671(19) 0.31405(15) 0.24028(6)
H15 H 0.3348 0.2698 0.2510
H16 H 0.3346 0.3575 0.2515
C7 C 0.6657(3) 0.3351(2) 0.34018(8)
H17 H 0.6162 0.3023 0.3442
H18 H 0.6470 0.3863 0.3433
C8 C 0.6961(2) 0.32507(19) 0.30983(7)
H19 H 0.7311 0.2798 0.3089
H20 H 0.7344 0.3666 0.3048
C9 C 0.62517(19) 0.32017(15) 0.28725(6)
H21 H 0.5867 0.3633 0.2889
H22 H 0.5901 0.2756 0.2907
C10 C 0.7863(5) 0.5375(4) 0.41048(11)
H23 H 0.8141 0.4912 0.4052
H24 H 0.7629 0.5335 0.4300
H25 H 0.8288 0.5772 0.4098
C11 C 0.7135(3) 0.5537(3) 0.38961(9)
H26 H 0.6685 0.5155 0.3916
H27 H 0.6871 0.6014 0.3947
C12 C 0.7426(3) 0.5564(2) 0.35864(8)
H28 H 0.7688 0.5087 0.3535
H29 H 0.7879 0.5943 0.3567
C13 C 0.6702(2) 0.57303(18) 0.33746(7)
H30 H 0.6279 0.5323 0.3378
H31 H 0.6398 0.6181 0.3436
C14 C 0.7030(2) 0.58324(17) 0.30708(7)
H32 H 0.7354 0.5388 0.3013
H33 H 0.7439 0.6249 0.3068
C15 C 0.63207(19) 0.59744(15) 0.28494(6)
H34 H 0.6049 0.6455 0.2889
H35 H 0.5870 0.5593 0.2867
C16 C 0.66838(18) 0.59694(14) 0.25429(6)
H36 H 0.7161 0.6338 0.2536
C17 C 0.70727(17) 0.52320(14) 0.24594(6)
C18 C 0.67072(17) 0.45720(15) 0.25492(6)
H37 H 0.6201 0.4585 0.2664
C19 C 0.70588(18) 0.38940(15) 0.24759(6)
C20 C 0.66379(18) 0.31736(14) 0.25691(6)
H38 H 0.7106 0.2796 0.2573
C21 C 0.60082(18) 0.29467(13) 0.23326(6)
C22 C 0.51325(18) 0.31226(14) 0.23393(6)
H39 H 0.4909 0.3371 0.2503
C23 C 0.45703(18) 0.29462(14) 0.21136(6)
C24 C 0.36213(18) 0.31528(15) 0.21098(6)
H40 H 0.3323 0.2781 0.1987
C25 C 0.35367(16) 0.38851(15) 0.19542(6)
C26 C 0.35925(16) 0.45509(15) 0.20988(6)
H41 H 0.3674 0.4543 0.2301
C27 C 0.35356(16) 0.52251(14) 0.19626(6)
C28 C 0.36276(18) 0.59493(14) 0.21262(6)
H42 H 0.3286 0.6328 0.2021
C29 C 0.45765(18) 0.61702(13) 0.21110(6)
C30 C 0.51615(18) 0.60059(14) 0.23283(6)
H43 H 0.4956 0.5765 0.2496
C31 C 0.60390(18) 0.61796(13) 0.23112(6)
C32 C 0.63347(18) 0.65177(14) 0.20600(6)
C33 C 0.57717(18) 0.66885(14) 0.18346(6)
C34 C 0.48902(18) 0.65195(13) 0.18656(6)
C35 C 0.40865(19) 0.62490(15) 0.14374(6)
H44 H 0.3994 0.6510 0.1253
H45 H 0.4557 0.5889 0.1408
C36 C 0.34337(16) 0.52216(15) 0.16627(6)
C37 C 0.34108(16) 0.45730(16) 0.15066(6)
C38 C 0.34635(17) 0.39046(15) 0.16552(6)
C39 C 0.41861(19) 0.28950(15) 0.14382(6)
H46 H 0.4661 0.3257 0.1427
H47 H 0.4144 0.2649 0.1249
C40 C 0.49136(19) 0.25877(14) 0.18768(6)
C41 C 0.57873(19) 0.23989(14) 0.18620(6)
C42 C 0.63251(18) 0.25814(14) 0.20924(6)
C43 C 0.7818(2) 0.28513(16) 0.19945(7)
H48 H 0.8281 0.2586 0.1891
H49 H 0.7560 0.3210 0.1860
C44 C 0.77893(18) 0.38882(15) 0.23028(6)
C45 C 0.81629(17) 0.45368(16) 0.22001(6)
C46 C 0.77948(18) 0.52045(15) 0.22822(6)
C47 C 0.77979(19) 0.61965(16) 0.19495(7)
H50 H 0.7505 0.5824 0.1829
H51 H 0.8251 0.6430 0.1831
C48 C 0.60806(18) 0.70148(14) 0.15749(7)
C49 C 0.63503(19) 0.72746(15) 0.13542(7)
C50 C 0.6641(2) 0.76203(15) 0.10943(7)
C51 C 0.5976(2) 0.80548(17) 0.09192(7)
C52 C 0.5288(3) 0.7519(2) 0.08097(9)
H52 H 0.4856 0.7787 0.0697
H53 H 0.5007 0.7281 0.0974
H54 H 0.5562 0.7147 0.0688
C53 C 0.6403(2) 0.8434(2) 0.06648(8)
H55 H 0.5961 0.8681 0.0549
H56 H 0.6701 0.8069 0.0546
H57 H 0.6820 0.8795 0.0735
C54 C 0.5535(2) 0.8624(2) 0.11076(8)
H58 H 0.5967 0.8967 0.1182
H59 H 0.5246 0.8379 0.1269
H60 H 0.5107 0.8892 0.0994
C55 C 0.7455(2) 0.75532(15) 0.10199(7)
C56 C 0.8277(2) 0.75021(16) 0.09508(7)
C57 C 0.8961(2) 0.80392(17) 0.10697(7)
C58 C 0.8539(2) 0.85783(19) 0.12771(8)
H61 H 0.8282 0.8309 0.1438
H62 H 0.8089 0.8854 0.1176
H63 H 0.8977 0.8918 0.1351
C59 C 0.9366(2) 0.8455(2) 0.08184(8)
H64 H 0.9817 0.8783 0.0891
H65 H 0.8921 0.8743 0.0720
H66 H 0.9621 0.8105 0.0683
C60 C 0.9655(3) 0.7600(2) 0.12283(8)
H67 H 1.0089 0.7935 0.1307
H68 H 0.9933 0.7259 0.1094
H69 H 0.9388 0.7323 0.1385
C61 C 0.8570(2) 0.69226(17) 0.07624(7)
C62 C 0.8834(2) 0.64443(18) 0.06092(7)
C63 C 0.9198(2) 0.58700(18) 0.04196(8)
C64 C 0.9401(3) 0.6199(2) 0.01268(9)
H70 H 0.9618 0.5814 -0.0001
H71 H 0.9840 0.6581 0.0148
H72 H 0.8874 0.6412 0.0045
C65 C 0.9995(2) 0.5543(2) 0.05583(10)
H73 H 0.9839 0.5326 0.0744
H74 H 1.0427 0.5927 0.0588
H75 H 1.0235 0.5163 0.0433
C66 C 0.88730(18) 0.45148(16) 0.20064(6)
C67 C 0.94321(18) 0.44951(17) 0.18269(7)
C68 C 1.00864(17) 0.44884(18) 0.16103(6)
C69 C 1.06437(19) 0.51793(18) 0.15724(7)
C70 C 1.1224(2) 0.5092(2) 0.13103(8)
H76 H 1.0867 0.5029 0.1138
H77 H 1.1594 0.4661 0.1335
H78 H 1.1586 0.5529 0.1289
C71 C 1.0050(2) 0.5844(2) 0.15357(10)
H79 H 0.9679 0.5771 0.1367
H80 H 1.0401 0.6285 0.1508
H81 H 0.9691 0.5901 0.1708
C72 C 1.1193(2) 0.52724(19) 0.18438(8)
H82 H 1.1540 0.5719 0.1828
H83 H 1.1576 0.4849 0.1866
H84 H 1.0815 0.5309 0.2012
C73 C 1.01906(18) 0.38954(19) 0.14557(7)
C74 C 1.02930(18) 0.33075(18) 0.12969(7)
C75 C 1.08909(19) 0.26652(18) 0.13805(7)
C76 C 1.1293(2) 0.2810(2) 0.16736(8)
H85 H 1.0836 0.2849 0.1819
H86 H 1.1621 0.3269 0.1667
H87 H 1.1681 0.2406 0.1724
C77 C 1.1598(2) 0.25938(19) 0.11534(8)
H88 H 1.1983 0.2188 0.1204
H89 H 1.1930 0.3050 0.1144
H90 H 1.1334 0.2497 0.0966
C78 C 1.0350(2) 0.1968(2) 0.13912(9)
H91 H 1.0087 0.1882 0.1203
H92 H 0.9895 0.2022 0.1536
H93 H 1.0720 0.1552 0.1442
C79 C 0.98093(19) 0.32621(17) 0.10339(7)
C80 C 0.9384(2) 0.32551(18) 0.08172(7)
C81 C 0.8883(2) 0.32249(17) 0.05490(7)
C82 C 0.9476(3) 0.3350(2) 0.02937(8)
H94 H 0.9135 0.3350 0.0116
H95 H 0.9907 0.2957 0.0285
H96 H 0.9769 0.3822 0.0315
C83 C 0.8412(2) 0.24959(19) 0.05278(8)
H97 H 0.8003 0.2451 0.0688
H98 H 0.8831 0.2095 0.0537
H99 H 0.8097 0.2472 0.0345
C84 C 0.33555(16) 0.45845(15) 0.11987(6)
C85 C 0.33203(17) 0.46054(15) 0.09396(6)
C86 C 0.32747(17) 0.45924(16) 0.06315(6)
C87 C 0.28243(19) 0.39287(16) 0.04909(6)
C88 C 0.3247(2) 0.32242(16) 0.06014(7)
H100 H 0.2951 0.2799 0.0518
H101 H 0.3202 0.3206 0.0811
H102 H 0.3856 0.3217 0.0545
C89 C 0.2888(2) 0.39667(19) 0.01631(7)
H103 H 0.3497 0.3981 0.0106
H104 H 0.2596 0.4410 0.0094
H105 H 0.2612 0.3534 0.0079
C90 C 0.18684(19) 0.39585(17) 0.05790(7)
H106 H 0.1575 0.3514 0.0512
H107 H 0.1596 0.4389 0.0492
H108 H 0.1825 0.3991 0.0789
C91 C 0.35941(18) 0.51398(16) 0.04819(6)
C92 C 0.3848(2) 0.56882(16) 0.03218(6)
C93 C 0.3229(2) 0.63127(18) 0.02320(7)
C94 C 0.2325(2) 0.6177(2) 0.03461(10)
H109 H 0.1941 0.6569 0.0281
H110 H 0.2339 0.6168 0.0557
H111 H 0.2114 0.5705 0.0274
C95 C 0.3210(3) 0.6352(3) -0.00964(9)
H112 H 0.2996 0.5887 -0.0174
H113 H 0.3794 0.6443 -0.0169
H114 H 0.2827 0.6750 -0.0157
C96 C 0.3581(2) 0.70358(19) 0.03503(10)
H115 H 0.4166 0.7117 0.0277
H116 H 0.3596 0.7014 0.0561
H117 H 0.3206 0.7439 0.0289
C97 C 0.4732(2) 0.57386(17) 0.02245(7)
C98 C 0.5458(2) 0.58088(17) 0.01434(7)
C99 C 0.6343(2) 0.59129(17) 0.00294(8)
C100 C 0.6647(3) 0.6691(2) 0.00902(11)
H118 H 0.6651 0.6776 0.0298
H119 H 0.6254 0.7040 -0.0002
H120 H 0.7231 0.6757 0.0014
C101 C 0.6344(3) 0.5742(3) -0.02906(9)
H121 H 0.6923 0.5828 -0.0369
H122 H 0.5928 0.6059 -0.0389
H123 H 0.6183 0.5228 -0.0320
C102 C 0.61226(19) 0.20442(14) 0.16122(7)
C103 C 0.63837(19) 0.17706(15) 0.13947(6)
C104 C 0.67372(19) 0.14305(15) 0.11432(6)
C105 C 0.7532(2) 0.09383(16) 0.11862(7)
C106 C 0.8265(2) 0.14032(19) 0.13115(8)
H124 H 0.8772 0.1093 0.1345
H125 H 0.8077 0.1620 0.1494
H126 H 0.8414 0.1794 0.1176
C107 C 0.7286(2) 0.03366(17) 0.14024(7)
H127 H 0.6836 0.0024 0.1319
H128 H 0.7068 0.0563 0.1579
H129 H 0.7795 0.0039 0.1447
C108 C 0.7812(2) 0.05930(18) 0.09039(8)
H130 H 0.8326 0.0291 0.0936
H131 H 0.7946 0.0979 0.0765
H132 H 0.7344 0.0286 0.0829
C109 C 0.6367(2) 0.15425(15) 0.08933(7)
C110 C 0.5938(2) 0.16207(15) 0.06513(7)
C111 C 0.5251(2) 0.10622(16) 0.05569(7)
C112 C 0.4387(2) 0.14654(18) 0.05162(8)
H133 H 0.4210 0.1686 0.0699
H134 H 0.3945 0.1117 0.0453
H135 H 0.4455 0.1850 0.0371
C113 C 0.5548(3) 0.07140(18) 0.02735(8)
H136 H 0.5651 0.1099 0.0131
H137 H 0.5100 0.0380 0.0203
H138 H 0.6083 0.0440 0.0306
C114 C 0.5132(2) 0.0466(2) 0.07850(8)
H139 H 0.5679 0.0207 0.0814
H140 H 0.4689 0.0119 0.0721
H141 H 0.4951 0.0691 0.0966
C115 C 0.6086(2) 0.22337(16) 0.04652(7)
C116 C 0.6163(2) 0.27552(16) 0.03109(7)
C117 C 0.6247(2) 0.34073(16) 0.01225(7)
C118 C 0.6752(3) 0.3212(2) -0.01474(8)
H142 H 0.6784 0.3642 -0.0274
H143 H 0.6460 0.2811 -0.0248
H144 H 0.7337 0.3059 -0.0094
C119 C 0.5352(2) 0.37018(18) 0.00506(8)
H145 H 0.5057 0.3845 0.0228
H146 H 0.5017 0.3321 -0.0047
H147 H 0.5407 0.4129 -0.0076
C120 C -0.0445(5) 0.5993(10) 0.2807(3)
H148 H -0.0778 0.6438 0.2767
H149 H -0.0547 0.5838 0.3006
H150 H -0.0626 0.5603 0.2676
C121 C 0.0515(5) 0.6149(6) 0.2765(2)
H151 H 0.0612 0.6328 0.2567
H152 H 0.0697 0.6540 0.2899
C122 C 0.1055(6) 0.5479(9) 0.2815(3)
H153 H 0.0859 0.5080 0.2687
H154 H 0.0983 0.5313 0.3016
C123 C -0.0633(6) 0.2600(10) 0.2892(2)
H155 H -0.0980 0.2942 0.2778
H156 H -0.0876 0.2561 0.3086
H157 H -0.0638 0.2116 0.2800
C124 C 0.0283(6) 0.2875(9) 0.2910(2)
H158 H 0.0606 0.2559 0.3045
H159 H 0.0274 0.3376 0.2992
C125 C 0.0765(5) 0.2898(7) 0.2628(2)
H160 H 0.0443 0.3213 0.2492
H161 H 0.0784 0.2398 0.2547
C126 C 0.7911(6) 0.3004(6) 0.41227(18)
H162 H 0.8416 0.3310 0.4081
H163 H 0.8061 0.2487 0.4094
H164 H 0.7731 0.3081 0.4322
C127 C 0.7184(4) 0.3208(3) 0.39241(10)
H165 H 0.6997 0.3715 0.3968
H166 H 0.6688 0.2879 0.3960
C128 C 0.7437(4) 0.3160(4) 0.36072(12)
H167 H 0.7641 0.2657 0.3565
H168 H 0.7919 0.3502 0.3569
C138 C 0.6067(4) 0.4325(3) 0.16889(13)
H196 H 0.6103 0.3812 0.1627
H197 H 0.5471 0.4439 0.1743
H198 H 0.6448 0.4401 0.1854
C139 C 0.6341(3) 0.4815(2) 0.14472(10)
H199 H 0.6262 0.5328 0.1518
C140 C 0.5783(3) 0.4748(3) 0.11764(10)
C141 C 0.5976(3) 0.5353(3) 0.09628(10)
H200 H 0.5822 0.5835 0.1046
H201 H 0.5635 0.5280 0.0785
C142 C 0.6969(4) 0.5326(3) 0.08927(12)
H202 H 0.7093 0.4872 0.0784
H203 H 0.7115 0.5746 0.0767
C143 C 0.7533(3) 0.5348(3) 0.11501(12)
H204 H 0.7479 0.5832 0.1244
H205 H 0.8142 0.5285 0.1090
C144 C 0.7294(3) 0.4748(3) 0.13641(11)
H206 H 0.7659 0.4793 0.1538
H207 H 0.7401 0.4262 0.1277
C145 C 0.5871(5) 0.3943(4) 0.10056(16)
H208 H 0.5459 0.3927 0.0846
H209 H 0.5747 0.3544 0.1140
H210 H 0.6460 0.3889 0.0931
N1 N 0.5520(2) 0.9595(2) 0.21065(7)
C147 C 0.5989(3) 0.92394(18) 0.19839(8)
C148 C 0.6625(4) 0.8779(2) 0.18338(8)
H216 H 0.7183 0.9031 0.1828
H217 H 0.6427 0.8685 0.1637
H218 H 0.6688 0.8312 0.1936
H169? H 0.2120 0.6066 0.2884
H170? H 0.2269 0.5199 0.2841
H171? H 0.1857 0.2759 0.2773
H172? H 0.1911 0.3631 0.2758
H173? H 0.6190 0.3719 0.3384
H174? H 0.6361 0.2884 0.3446
C129? C -0.0453(7) 0.5268(12) 0.2991(3)
H175? H -0.0589 0.4744 0.2987
H176? H -0.0666 0.5499 0.2814
H177? H -0.0731 0.5496 0.3158
C130? C 0.0533(6) 0.5372(8) 0.3012(2)
H178? H 0.0655 0.5783 0.3145
H179? H 0.0789 0.4924 0.3096
C131? C 0.0979(9) 0.5528(12) 0.2722(3)
H180? H 0.0724 0.5974 0.2636
H181? H 0.0872 0.5114 0.2590
C132? C -0.0678(8) 0.3176(11) 0.2902(3)
H182? H -0.0930 0.3657 0.2859
H183? H -0.0915 0.2991 0.3083
H184? H -0.0817 0.2834 0.2747
C133? C 0.0297(8) 0.3249(9) 0.2928(3)
H185? H 0.0438 0.3716 0.3026
H186? H 0.0524 0.2843 0.3048
C134? C 0.0730(7) 0.3233(7) 0.2637(3)
H187? H 0.0514 0.2805 0.2528
H188? H 0.0566 0.3680 0.2529
C135? C 0.8065(16) 0.289(2) 0.4014(4)
H189? H 0.8594 0.2605 0.3990
H190? H 0.7741 0.2710 0.4180
H191? H 0.8216 0.3408 0.4045
C136? C 0.7511(10) 0.2826(8) 0.3744(3)
H192? H 0.7880 0.2668 0.3582
H193? H 0.7068 0.2442 0.3775
C137? C 0.7066(10) 0.3537(8) 0.3664(2)
H194? H 0.6638 0.3682 0.3812
H195? H 0.7488 0.3938 0.3638
H211? H 0.5890 0.4267 0.1085
H212? H 0.5165 0.4769 0.1231
C146? C 0.7520(6) 0.3946(5) 0.12788(18)
H213? H 0.7131 0.3607 0.1379
H214? H 0.8118 0.3839 0.1333
H215? H 0.7453 0.3885 0.1071
loop_
_geom_bond_atom_site_label_1
_geom_bond_atom_site_label_2
_geom_bond_site_symmetry_1
_geom_bond_site_symmetry_2
O1 H1 1_555 1_555
O2 H2 1_555 1_555
O3 H3 1_555 1_555
O4 H4 1_555 1_555
O5 C38 1_555 1_555
O6 C35 1_555 1_555
O7 C34 1_555 1_555
O8 C32 1_555 1_555
O9 C46 1_555 1_555
O10 C43 1_555 1_555
O11 C42 1_555 1_555
O12 C39 1_555 1_555
C1 H5 1_555 1_555
H6 C1 1_555 1_555
C2 C1 1_555 1_555
H7 C2 1_555 1_555
H8 C2 1_555 1_555
C3 C2 1_555 1_555
H9 C3 1_555 1_555
H10 C3 1_555 1_555
C4 H11 1_555 1_555
H12 C4 1_555 1_555
C5 C4 1_555 1_555
H13 C5 1_555 1_555
H14 C5 1_555 1_555
C6 C5 1_555 1_555
H15 C6 1_555 1_555
H16 C6 1_555 1_555
C7 H17 1_555 1_555
H18 C7 1_555 1_555
C8 C7 1_555 1_555
H19 C8 1_555 1_555
H20 C8 1_555 1_555
C9 C8 1_555 1_555
H21 C9 1_555 1_555
H22 C9 1_555 1_555
C10 H23 1_555 1_555
H24 C10 1_555 1_555
H25 C10 1_555 1_555
C11 C10 1_555 1_555
H26 C11 1_555 1_555
H27 C11 1_555 1_555
C12 C11 1_555 1_555
H28 C12 1_555 1_555
H29 C12 1_555 1_555
C13 C12 1_555 1_555
H30 C13 1_555 1_555
H31 C13 1_555 1_555
C14 C13 1_555 1_555
H32 C14 1_555 1_555
H33 C14 1_555 1_555
C15 C14 1_555 1_555
H34 C15 1_555 1_555
H35 C15 1_555 1_555
C16 C15 1_555 1_555
H36 C16 1_555 1_555
C17 C16 1_555 1_555
C18 C17 1_555 1_555
H37 C18 1_555 1_555
C19 C18 1_555 1_555
C20 C9 1_555 1_555
H38 C20 1_555 1_555
C21 C20 1_555 1_555
C22 C21 1_555 1_555
H39 C22 1_555 1_555
C23 C22 1_555 1_555
C24 C6 1_555 1_555
H40 C24 1_555 1_555
C25 C24 1_555 1_555
C26 C25 1_555 1_555
H41 C26 1_555 1_555
C27 C26 1_555 1_555
C28 C3 1_555 1_555
H42 C28 1_555 1_555
C29 C28 1_555 1_555
C30 C29 1_555 1_555
H43 C30 1_555 1_555
C31 C16 1_555 1_555
C32 C31 1_555 1_555
C33 C32 1_555 1_555
C34 C29 1_555 1_555
C35 O7 1_555 1_555
H44 C35 1_555 1_555
H45 C35 1_555 1_555
C36 O6 1_555 1_555
C37 C36 1_555 1_555
C38 C25 1_555 1_555
C39 O5 1_555 1_555
H46 C39 1_555 1_555
H47 C39 1_555 1_555
C40 O12 1_555 1_555
C41 C40 1_555 1_555
C42 C21 1_555 1_555
C43 O11 1_555 1_555
H48 C43 1_555 1_555
H49 C43 1_555 1_555
C44 O10 1_555 1_555
C45 C44 1_555 1_555
C46 C17 1_555 1_555
C47 O8 1_555 1_555
H50 C47 1_555 1_555
H51 C47 1_555 1_555
C48 C33 1_555 1_555
C49 C48 1_555 1_555
C50 C49 1_555 1_555
C51 C50 1_555 1_555
C52 C51 1_555 1_555
H52 C52 1_555 1_555
H53 C52 1_555 1_555
H54 C52 1_555 1_555
C53 C51 1_555 1_555
H55 C53 1_555 1_555
H56 C53 1_555 1_555
H57 C53 1_555 1_555
C54 C51 1_555 1_555
H58 C54 1_555 1_555
H59 C54 1_555 1_555
H60 C54 1_555 1_555
C55 C50 1_555 1_555
C56 C55 1_555 1_555
C57 C56 1_555 1_555
C58 C57 1_555 1_555
H61 C58 1_555 1_555
H62 C58 1_555 1_555
H63 C58 1_555 1_555
C59 C57 1_555 1_555
H64 C59 1_555 1_555
H65 C59 1_555 1_555
H66 C59 1_555 1_555
C60 C57 1_555 1_555
H67 C60 1_555 1_555
H68 C60 1_555 1_555
H69 C60 1_555 1_555
C61 C56 1_555 1_555
C62 C61 1_555 1_555
C63 O2 1_555 1_555
C64 C63 1_555 1_555
H70 C64 1_555 1_555
H71 C64 1_555 1_555
H72 C64 1_555 1_555
C65 C63 1_555 1_555
H73 C65 1_555 1_555
H74 C65 1_555 1_555
H75 C65 1_555 1_555
C66 C45 1_555 1_555
C67 C66 1_555 1_555
C68 C67 1_555 1_555
C69 C68 1_555 1_555
C70 C69 1_555 1_555
H76 C70 1_555 1_555
H77 C70 1_555 1_555
H78 C70 1_555 1_555
C71 C69 1_555 1_555
H79 C71 1_555 1_555
H80 C71 1_555 1_555
H81 C71 1_555 1_555
C72 C69 1_555 1_555
H82 C72 1_555 1_555
H83 C72 1_555 1_555
H84 C72 1_555 1_555
C73 C68 1_555 1_555
C74 C73 1_555 1_555
C75 C74 1_555 1_555
C76 C75 1_555 1_555
H85 C76 1_555 1_555
H86 C76 1_555 1_555
H87 C76 1_555 1_555
C77 C75 1_555 1_555
H88 C77 1_555 1_555
H89 C77 1_555 1_555
H90 C77 1_555 1_555
C78 C75 1_555 1_555
H91 C78 1_555 1_555
H92 C78 1_555 1_555
H93 C78 1_555 1_555
C79 C74 1_555 1_555
C80 C79 1_555 1_555
C81 O3 1_555 1_555
C82 C81 1_555 1_555
H94 C82 1_555 1_555
H95 C82 1_555 1_555
H96 C82 1_555 1_555
C83 C81 1_555 1_555
H97 C83 1_555 1_555
H98 C83 1_555 1_555
H99 C83 1_555 1_555
C84 C37 1_555 1_555
C85 C84 1_555 1_555
C86 C85 1_555 1_555
C87 C86 1_555 1_555
C88 C87 1_555 1_555
H100 C88 1_555 1_555
H101 C88 1_555 1_555
H102 C88 1_555 1_555
C89 C87 1_555 1_555
H103 C89 1_555 1_555
H104 C89 1_555 1_555
H105 C89 1_555 1_555
C90 C87 1_555 1_555
H106 C90 1_555 1_555
H107 C90 1_555 1_555
H108 C90 1_555 1_555
C91 C86 1_555 1_555
C92 C91 1_555 1_555
C93 C92 1_555 1_555
C94 C93 1_555 1_555
H109 C94 1_555 1_555
H110 C94 1_555 1_555
H111 C94 1_555 1_555
C95 C93 1_555 1_555
H112 C95 1_555 1_555
H113 C95 1_555 1_555
H114 C95 1_555 1_555
C96 C93 1_555 1_555
H115 C96 1_555 1_555
H116 C96 1_555 1_555
H117 C96 1_555 1_555
C97 C92 1_555 1_555
C98 C97 1_555 1_555
C99 O1 1_555 1_555
C100 C99 1_555 1_555
H118 C100 1_555 1_555
H119 C100 1_555 1_555
H120 C100 1_555 1_555
C101 C99 1_555 1_555
H121 C101 1_555 1_555
H122 C101 1_555 1_555
H123 C101 1_555 1_555
C102 C41 1_555 1_555
C103 C102 1_555 1_555
C104 C103 1_555 1_555
C105 C104 1_555 1_555
C106 C105 1_555 1_555
H124 C106 1_555 1_555
H125 C106 1_555 1_555
H126 C106 1_555 1_555
C107 C105 1_555 1_555
H127 C107 1_555 1_555
H128 C107 1_555 1_555
H129 C107 1_555 1_555
C108 C105 1_555 1_555
H130 C108 1_555 1_555
H131 C108 1_555 1_555
H132 C108 1_555 1_555
C109 C104 1_555 1_555
C110 C109 1_555 1_555
C111 C110 1_555 1_555
C112 C111 1_555 1_555
H133 C112 1_555 1_555
H134 C112 1_555 1_555
H135 C112 1_555 1_555
C113 C111 1_555 1_555
H136 C113 1_555 1_555
H137 C113 1_555 1_555
H138 C113 1_555 1_555
C114 C111 1_555 1_555
H139 C114 1_555 1_555
H140 C114 1_555 1_555
H141 C114 1_555 1_555
C115 C110 1_555 1_555
C116 C115 1_555 1_555
C117 O4 1_555 1_555
C118 C117 1_555 1_555
H142 C118 1_555 1_555
H143 C118 1_555 1_555
H144 C118 1_555 1_555
C119 C117 1_555 1_555
H145 C119 1_555 1_555
H146 C119 1_555 1_555
H147 C119 1_555 1_555
C120 H148 1_555 1_555
H149 C120 1_555 1_555
H150 C120 1_555 1_555
C121 C120 1_555 1_555
H151 C121 1_555 1_555
H152 C121 1_555 1_555
C122 C1 1_555 1_555
H153 C122 1_555 1_555
H154 C122 1_555 1_555
C123 H155 1_555 1_555
H156 C123 1_555 1_555
H157 C123 1_555 1_555
C124 C123 1_555 1_555
H158 C124 1_555 1_555
H159 C124 1_555 1_555
C125 C4 1_555 1_555
H160 C125 1_555 1_555
H161 C125 1_555 1_555
C126 H162 1_555 1_555
H163 C126 1_555 1_555
H164 C126 1_555 1_555
C127 C126 1_555 1_555
H165 C127 1_555 1_555
H166 C127 1_555 1_555
C128 C7 1_555 1_555
H167 C128 1_555 1_555
H168 C128 1_555 1_555
C138 H196 1_555 1_555
H197 C138 1_555 1_555
H198 C138 1_555 1_555
C139 C138 1_555 1_555
H199 C139 1_555 1_555
C140 C139 1_555 1_555
C141 C140 1_555 1_555
H200 C141 1_555 1_555
H201 C141 1_555 1_555
C142 C141 1_555 1_555
H202 C142 1_555 1_555
H203 C142 1_555 1_555
C143 C142 1_555 1_555
H204 C143 1_555 1_555
H205 C143 1_555 1_555
C144 C139 1_555 1_555
H206 C144 1_555 1_555
H207 C144 1_555 1_555
C145 C140 1_555 1_555
H208 C145 1_555 1_555
H209 C145 1_555 1_555
H210 C145 1_555 1_555
N1 C147 1_555 1_555
C147 C148 1_555 1_555
C148 H216 1_555 1_555
H217 C148 1_555 1_555
H218 C148 1_555 1_555
O9 C47 1_555 1_555
C19 C20 1_555 1_555
C19 C44 1_555 1_555
C23 C24 1_555 1_555
C23 C40 1_555 1_555
C27 C28 1_555 1_555
C27 C36 1_555 1_555
C30 C31 1_555 1_555
C33 C34 1_555 1_555
C37 C38 1_555 1_555
C41 C42 1_555 1_555
C45 C46 1_555 1_555
C62 C63 1_555 1_555
C80 C81 1_555 1_555
C98 C99 1_555 1_555
C116 C117 1_555 1_555
C121 C122 1_555 1_555
C124 C125 1_555 1_555
C127 C128 1_555 1_555
C143 C144 1_555 1_555

#END
