
#######################################################################
#
#                 Cambridge Crystallographic Data Centre
#                                CCDC 
#
#######################################################################
#
# If this CIF has been generated from an entry in the Cambridge 
# Structural Database, then it will include bibliographic, chemical, 
# crystal, experimental, refinement or atomic coordinate data resulting 
# from the CCDC's data processing and validation procedures.
#
#######################################################################

data_IZABOC
_chemical_formula_moiety         'C36 H36 N24 O12,C4 H8 O2,8(H2 O1)'
_chemical_name_systematic        
'cucurbit[6]uril 1,4-dioxane solvate octahydrate'
_symmetry_cell_setting           orthorhombic
_symmetry_space_group_name_H-M   'C c m 21'
_symmetry_Int_Tables_number      36
_space_group_name_Hall           'C 2n -2c'
loop_
_symmetry_equiv_pos_site_id
_symmetry_equiv_pos_as_xyz
1 x,y,z
2 -x,-y,1/2+z
3 -x,y,1/2+z
4 x,-y,z
5 1/2+x,1/2+y,z
6 1/2-x,1/2-y,1/2+z
7 1/2-x,1/2+y,1/2+z
8 1/2+x,1/2-y,z
_cell_length_a                   15.7430(12)
_cell_length_b                   19.6789(15)
_cell_length_c                   15.8962(12)
_cell_angle_alpha                90
_cell_angle_beta                 90
_cell_angle_gamma                90
_cell_volume                     4924.72
_exptl_crystal_colour            colorless
_exptl_crystal_description       block
_cell_formula_units_Z            4
_exptl_crystal_recrystallization_method water/dioxane
loop_
_atom_site_label
_atom_site_type_symbol
_atom_site_fract_x
_atom_site_fract_y
_atom_site_fract_z
O1 O 0.7125(4) 0.5000 -0.1184(5)
O2 O 0.6364(3) 0.3366(3) -0.0462(3)
O3 O 0.4758(3) 0.3332(3) 0.0974(3)
O4 O 0.3955(4) 0.5000 0.1711(4)
O5 O 0.9806(4) 0.5000 0.1649(5)
O6 O 0.9047(3) 0.3346(3) 0.2337(3)
O7 O 0.7481(3) 0.3358(3) 0.3788(3)
O8 O 0.6777(4) 0.5000 0.4393(4)
N1 N 0.8302(3) 0.4431(3) -0.0639(3)
N2 N 0.7811(4) 0.3309(3) -0.0248(3)
N3 N 0.6947(3) 0.2711(3) 0.0594(4)
N4 N 0.5808(3) 0.2691(3) 0.1610(4)
N5 N 0.4980(4) 0.3331(3) 0.2414(3)
N6 N 0.4471(3) 0.4432(3) 0.2869(3)
N7 N 0.9392(4) 0.4442(3) 0.0449(4)
N8 N 0.8847(4) 0.3342(3) 0.0917(4)
N9 N 0.8041(4) 0.2675(3) 0.1692(5)
N10 N 0.6884(3) 0.2718(3) 0.2717(4)
N11 N 0.6048(4) 0.3317(3) 0.3540(3)
N12 N 0.5559(4) 0.4443(3) 0.3958(4)
C1 C 0.7820(6) 0.5000 -0.0849(5)
C2 C 0.8061(4) 0.3761(3) -0.0915(4)
H1 H 0.8546 0.3556 -0.1221
H2 H 0.7584 0.3804 -0.1317
C3 C 0.6973(4) 0.3168(3) -0.0067(4)
C4 C 0.6175(5) 0.2403(4) 0.0859(4)
H3 H 0.5921 0.2036 0.0564
C5 C 0.5147(4) 0.3144(3) 0.1588(4)
C6 C 0.4260(4) 0.3753(4) 0.2615(5)
H4 H 0.3885 0.3777 0.2116
H5 H 0.3935 0.3534 0.3073
C7 C 0.4275(6) 0.5000 0.2420(6)
C8 C 0.9543(6) 0.5000 0.0937(6)
C9 C 0.9588(4) 0.3752(4) 0.0706(4)
H6 H 0.9968 0.3770 0.1202
H7 H 0.9903 0.3525 0.0246
C10 C 0.8673(4) 0.3147(3) 0.1713(5)
C11 C 0.7667(4) 0.2379(4) 0.2442(4)
H8 H 0.8087 0.2399 0.2904
H9 H 0.7541 0.1894 0.2331
C12 C 0.6873(4) 0.3152(4) 0.3387(4)
C13 C 0.5795(5) 0.3755(4) 0.4231(4)
H10 H 0.6269 0.3788 0.4638
H11 H 0.5306 0.3547 0.4525
C14 C 0.6051(6) 0.5000 0.4131(6)
C15 C 0.9159(4) 0.4606(3) -0.0409(4)
H12 H 0.9579 0.4420 -0.0820
C16 C 0.8393(4) 0.2936(3) 0.0302(4)
H13 H 0.8793 0.2648 -0.0032
C17 C 0.7798(4) 0.2497(4) 0.0842(4)
H14 H 0.7888 0.2002 0.0732
C18 C 0.6053(5) 0.2500(4) 0.2456(4)
H15 H 0.5969 0.2003 0.2557
C19 C 0.5458(4) 0.2936(4) 0.3025(4)
H16 H 0.5077 0.2645 0.3375
C20 C 0.4688(4) 0.4612(4) 0.3728(4)
H17 H 0.4270 0.4423 0.4140
O2C O 0.6364(3) 0.6634(3) -0.0462(3)
O3C O 0.4758(3) 0.6668(3) 0.0974(3)
O6C O 0.9047(3) 0.6654(3) 0.2337(3)
O7C O 0.7481(3) 0.6642(3) 0.3788(3)
N1C N 0.8302(3) 0.5569(3) -0.0639(3)
N2C N 0.7811(4) 0.6691(3) -0.0248(3)
N3C N 0.6947(3) 0.7289(3) 0.0594(4)
N4C N 0.5808(3) 0.7309(3) 0.1610(4)
N5C N 0.4980(4) 0.6669(3) 0.2414(3)
N6C N 0.4471(3) 0.5568(3) 0.2869(3)
N7C N 0.9392(4) 0.5558(3) 0.0449(4)
N8C N 0.8847(4) 0.6658(3) 0.0917(4)
N9C N 0.8041(4) 0.7325(3) 0.1692(5)
N10C N 0.6884(3) 0.7282(3) 0.2717(4)
N11C N 0.6048(4) 0.6683(3) 0.3540(3)
N12C N 0.5559(4) 0.5557(3) 0.3958(4)
C2C C 0.8061(4) 0.6239(3) -0.0915(4)
H1C H 0.8546 0.6444 -0.1221
H2C H 0.7584 0.6196 -0.1317
C3C C 0.6973(4) 0.6832(3) -0.0067(4)
C4C C 0.6175(5) 0.7597(4) 0.0859(4)
H3C H 0.5921 0.7964 0.0564
C5C C 0.5147(4) 0.6856(3) 0.1588(4)
C6C C 0.4260(4) 0.6247(4) 0.2615(5)
H4C H 0.3885 0.6223 0.2116
H5C H 0.3935 0.6466 0.3073
C9C C 0.9588(4) 0.6248(4) 0.0706(4)
H6C H 0.9968 0.6230 0.1202
H7C H 0.9903 0.6475 0.0246
C10C C 0.8673(4) 0.6853(3) 0.1713(5)
C11C C 0.7667(4) 0.7621(4) 0.2442(4)
H8C H 0.8087 0.7601 0.2904
H9C H 0.7541 0.8106 0.2331
C12C C 0.6873(4) 0.6848(4) 0.3387(4)
C13C C 0.5795(5) 0.6245(4) 0.4231(4)
H10C H 0.6269 0.6212 0.4638
H11C H 0.5306 0.6453 0.4525
C15C C 0.9159(4) 0.5394(3) -0.0409(4)
H12C H 0.9579 0.5580 -0.0820
C16C C 0.8393(4) 0.7064(3) 0.0302(4)
H13C H 0.8793 0.7352 -0.0032
C17C C 0.7798(4) 0.7503(4) 0.0842(4)
H14C H 0.7888 0.7998 0.0732
C18C C 0.6053(5) 0.7500(4) 0.2456(4)
H15C H 0.5969 0.7997 0.2557
C19C C 0.5458(4) 0.7064(4) 0.3025(4)
H16C H 0.5077 0.7355 0.3375
C20C C 0.4688(4) 0.5388(4) 0.3728(4)
H17C H 0.4270 0.5577 0.4140
O9 O 0.6650(15) 0.4326(7) 0.1819(13)
C21 C 0.7463(8) 0.4632(6) 0.2078(9)
H18 H 0.7605 0.4471 0.2651
H19 H 0.7915 0.4471 0.1694
C22 C 0.6301(9) 0.4632(6) 0.1184(8)
H20 H 0.5703 0.4477 0.1146
H21 H 0.6592 0.4477 0.0667
O9C O 0.6650(15) 0.5674(7) 0.1819(13)
C21C C 0.7463(8) 0.5368(6) 0.2078(9)
H18C H 0.7605 0.5529 0.2651
H19C H 0.7915 0.5529 0.1694
C22C C 0.6301(9) 0.5368(6) 0.1184(8)
H20C H 0.5703 0.5523 0.1146
H21C H 0.6592 0.5523 0.0667
O11 O 0.9397(5) 0.3388(3) 0.4005(4)
O12 O 0.2394(9) 0.4170(5) 0.1564(13)
O14 O 0.1598(9) 0.4506(9) -0.0303(10)
O16 O 0.0904(9) 0.4175(6) 0.2579(9)
O10? O 0.7139(12) 0.4323(8) 0.1419(12)
H22? H 0.8058 0.4478 0.2142
H23? H 0.7148 0.4478 0.2582
H24? H 0.6139 0.4470 0.0616
H25? H 0.5863 0.4470 0.1584
O13? O 0.2635(10) 0.4188(8) 0.1022(17)
O15? O 0.1684(8) 0.4113(7) 0.0013(8)
O17? O 0.1285(11) 0.4148(8) 0.2206(10)
loop_
_geom_bond_atom_site_label_1
_geom_bond_atom_site_label_2
_geom_bond_site_symmetry_1
_geom_bond_site_symmetry_2
O1 C1 1_555 1_555
O2 C3 1_555 1_555
O3 C5 1_555 1_555
O4 C7 1_555 1_555
O5 C8 1_555 1_555
O6 C10 1_555 1_555
O7 C12 1_555 1_555
O8 C14 1_555 1_555
N1 C1 1_555 1_555
N2 C2 1_555 1_555
N3 C3 1_555 1_555
N4 C4 1_555 1_555
N5 C5 1_555 1_555
N6 C6 1_555 1_555
N7 C8 1_555 1_555
N8 C9 1_555 1_555
N9 C10 1_555 1_555
N10 C11 1_555 1_555
N11 C12 1_555 1_555
N12 C13 1_555 1_555
C1 N1C 1_555 1_555
C2 N1 1_555 1_555
H1 C2 1_555 1_555
H2 C2 1_555 1_555
C3 N2 1_555 1_555
C4 N3 1_555 1_555
H3 C4 1_555 1_555
C5 N4 1_555 1_555
C6 N5 1_555 1_555
H4 C6 1_555 1_555
H5 C6 1_555 1_555
C7 N6 1_555 1_555
C8 N7C 1_555 1_555
C9 N7 1_555 1_555
H6 C9 1_555 1_555
H7 C9 1_555 1_555
C10 N8 1_555 1_555
C11 N9 1_555 1_555
H8 C11 1_555 1_555
H9 C11 1_555 1_555
C12 N10 1_555 1_555
C13 N11 1_555 1_555
H10 C13 1_555 1_555
H11 C13 1_555 1_555
C14 N12 1_555 1_555
C15 N1 1_555 1_555
H12 C15 1_555 1_555
C16 N2 1_555 1_555
H13 C16 1_555 1_555
C17 N3 1_555 1_555
H14 C17 1_555 1_555
C18 N4 1_555 1_555
H15 C18 1_555 1_555
C19 N5 1_555 1_555
H16 C19 1_555 1_555
C20 N6 1_555 1_555
H17 C20 1_555 1_555
O9 C21 1_555 1_555
C21 H18 1_555 1_555
H19 C21 1_555 1_555
C22 O9 1_555 1_555
H20 C22 1_555 1_555
H21 C22 1_555 1_555
O2C C3C 1_555 1_555
O3C C5C 1_555 1_555
O6C C10C 1_555 1_555
O7C C12C 1_555 1_555
N1C C2C 1_555 1_555
N2C C2C 1_555 1_555
N3C C3C 1_555 1_555
N4C C4C 1_555 1_555
N5C C5C 1_555 1_555
N6C C7 1_555 1_555
N7C C9C 1_555 1_555
N8C C9C 1_555 1_555
N9C C10C 1_555 1_555
N10C C11C 1_555 1_555
N11C C12C 1_555 1_555
N12C C14 1_555 1_555
C2C H1C 1_555 1_555
H2C C2C 1_555 1_555
C3C N2C 1_555 1_555
C4C N3C 1_555 1_555
H3C C4C 1_555 1_555
C5C N4C 1_555 1_555
C6C N5C 1_555 1_555
H4C C6C 1_555 1_555
H5C C6C 1_555 1_555
C9C H6C 1_555 1_555
H7C C9C 1_555 1_555
C10C N8C 1_555 1_555
C11C N9C 1_555 1_555
H8C C11C 1_555 1_555
H9C C11C 1_555 1_555
C12C N10C 1_555 1_555
C13C N11C 1_555 1_555
H10C C13C 1_555 1_555
H11C C13C 1_555 1_555
C15C C15 1_555 1_555
H12C C15C 1_555 1_555
C16C N2C 1_555 1_555
H13C C16C 1_555 1_555
C17C N3C 1_555 1_555
H14C C17C 1_555 1_555
C18C N4C 1_555 1_555
H15C C18C 1_555 1_555
C19C N5C 1_555 1_555
H16C C19C 1_555 1_555
C20C C20 1_555 1_555
H17C C20C 1_555 1_555
O9C C21C 1_555 1_555
C21C C21 1_555 1_555
H18C C21C 1_555 1_555
H19C C21C 1_555 1_555
C22C C22 1_555 1_555
H20C C22C 1_555 1_555
H21C C22C 1_555 1_555
N7 C15 1_555 1_555
N8 C16 1_555 1_555
N9 C17 1_555 1_555
N10 C18 1_555 1_555
N11 C19 1_555 1_555
N12 C20 1_555 1_555
C16 C17 1_555 1_555
C18 C19 1_555 1_555
N1C C15C 1_555 1_555
N6C C6C 1_555 1_555
N6C C20C 1_555 1_555
N7C C15C 1_555 1_555
N8C C16C 1_555 1_555
N9C C17C 1_555 1_555
N10C C18C 1_555 1_555
N11C C19C 1_555 1_555
N12C C13C 1_555 1_555
N12C C20C 1_555 1_555
C16C C17C 1_555 1_555
C18C C19C 1_555 1_555
O9C C22C 1_555 1_555

#END
