
#######################################################################
#
#                 Cambridge Crystallographic Data Centre
#                                CCDC 
#
#######################################################################
#
# If this CIF has been generated from an entry in the Cambridge 
# Structural Database, then it will include bibliographic, chemical, 
# crystal, experimental, refinement or atomic coordinate data resulting 
# from the CCDC's data processing and validation procedures.
#
#######################################################################

data_IZAHIC
_chemical_formula_moiety         'C11 H9 N2 O4 1+,H2 O1,Cl1 1-'
_chemical_name_systematic        
'1-(2,5-dicarboxyphenyl)-1H-imidazol-3-ium chloride monohydrate'
_symmetry_cell_setting           monoclinic
_symmetry_space_group_name_H-M   'P 21/c'
_symmetry_Int_Tables_number      14
_space_group_name_Hall           '-P 2ybc'
loop_
_symmetry_equiv_pos_site_id
_symmetry_equiv_pos_as_xyz
1 x,y,z
2 -x,1/2+y,1/2-z
3 -x,-y,-z
4 x,1/2-y,1/2+z
_cell_length_a                   6.98145(13)
_cell_length_b                   21.3099(4)
_cell_length_c                   8.10016(14)
_cell_angle_alpha                90
_cell_angle_beta                 97.9679(17)
_cell_angle_gamma                90
_cell_volume                     1193.46
_exptl_crystal_colour            colorless
_exptl_crystal_description       block
_cell_formula_units_Z            4
loop_
_atom_site_label
_atom_site_type_symbol
_atom_site_fract_x
_atom_site_fract_y
_atom_site_fract_z
O1 O 1.45938(15) 0.42056(5) 0.02355(14)
O2 O 1.23411(15) 0.34559(5) -0.00074(13)
H1 H 1.305623 0.329581 -0.061101
O3 O 0.85032(15) 0.62257(5) 0.37927(13)
O4 O 0.65540(15) 0.54213(5) 0.41921(13)
H2 H 0.592119 0.569684 0.457185
N1 N 0.95534(16) 0.35195(5) 0.19588(14)
N2 N 0.81568(17) 0.26591(6) 0.10904(15)
H3 H 0.736(3) 0.2374(9) 0.052(2)
C1 C 1.3054(2) 0.40056(6) 0.05328(17)
C2 C 1.17599(19) 0.43869(6) 0.14820(16)
C3 C 1.22519(19) 0.50185(7) 0.17137(17)
H4 H 1.338652 0.516791 0.137404
C4 C 1.1071(2) 0.54249(6) 0.24428(17)
H5 H 1.143(3) 0.5861(9) 0.262(2)
C5 C 0.93551(19) 0.52094(6) 0.29458(16)
C6 C 0.88617(19) 0.45761(6) 0.27772(16)
H6 H 0.773847 0.442670 0.313741
C7 C 1.00710(19) 0.41737(6) 0.20649(16)
C8 C 0.8112(2) 0.56735(6) 0.36839(17)
C9 C 1.0560(2) 0.30372(7) 0.28303(17)
H7 H 1.163663 0.307674 0.363928
C10 C 0.9681(2) 0.24992(7) 0.22816(18)
H8 H 1.003622 0.209576 0.263975
C11 C 0.80951(19) 0.32776(7) 0.09144(17)
H9 H 0.719579 0.350266 0.019176
Cl1 Cl 0.44320(4) 0.65668(2) 0.55702(4)
O5 O 0.53263(15) 0.70687(5) 0.18916(12)
H10 H 0.542508 0.692621 0.288094
H11 H 0.528305 0.746712 0.191778
loop_
_geom_bond_atom_site_label_1
_geom_bond_atom_site_label_2
_geom_bond_site_symmetry_1
_geom_bond_site_symmetry_2
O1 C1 1_555 1_555
O2 H1 1_555 1_555
O3 C8 1_555 1_555
O4 H2 1_555 1_555
N1 C7 1_555 1_555
N2 H3 1_555 1_555
C1 O2 1_555 1_555
C2 C1 1_555 1_555
C3 C2 1_555 1_555
H4 C3 1_555 1_555
C4 C3 1_555 1_555
H5 C4 1_555 1_555
C5 C4 1_555 1_555
C6 C5 1_555 1_555
H6 C6 1_555 1_555
C7 C2 1_555 1_555
C8 O4 1_555 1_555
C9 N1 1_555 1_555
H7 C9 1_555 1_555
C10 N2 1_555 1_555
H8 C10 1_555 1_555
C11 N1 1_555 1_555
H9 C11 1_555 1_555
O5 H10 1_555 1_555
H11 O5 1_555 1_555
N2 C11 1_555 1_555
C5 C8 1_555 1_555
C6 C7 1_555 1_555
C9 C10 1_555 1_555

#END
