
#######################################################################
#
#                 Cambridge Crystallographic Data Centre
#                                CCDC 
#
#######################################################################
#
# If this CIF has been generated from an entry in the Cambridge 
# Structural Database, then it will include bibliographic, chemical, 
# crystal, experimental, refinement or atomic coordinate data resulting 
# from the CCDC's data processing and validation procedures.
#
#######################################################################

data_IZANUU
_chemical_formula_moiety         'C22 H22 O7'
_chemical_name_systematic        
5-(3,4,5-trimethoxyphenyl)-5,8,8a,9-tetrahydrofuro[2',3':6,7]naphtho[2,3-d][1,3]dioxol-7(5aH)-one
_symmetry_cell_setting           orthorhombic
_symmetry_space_group_name_H-M   'P c a 21'
_symmetry_Int_Tables_number      29
_space_group_name_Hall           'P 2c -2ac'
loop_
_symmetry_equiv_pos_site_id
_symmetry_equiv_pos_as_xyz
1 x,y,z
2 -x,-y,1/2+z
3 1/2-x,y,1/2+z
4 1/2+x,-y,z
_cell_length_a                   15.8269(2)
_cell_length_b                   5.82087(13)
_cell_length_c                   20.8138(4)
_cell_angle_alpha                90
_cell_angle_beta                 90
_cell_angle_gamma                90
_cell_volume                     1917.5
_exptl_crystal_colour            'light yellow'
_exptl_crystal_description       block
_cell_formula_units_Z            4
loop_
_atom_site_label
_atom_site_type_symbol
_atom_site_fract_x
_atom_site_fract_y
_atom_site_fract_z
O1 O -1.1209(2) 0.8037(6) 0.19112(15)
O2 O -1.21295(18) 0.7705(5) 0.10576(16)
O3 O -0.94421(17) -0.1531(5) -0.03213(13)
O4 O -0.8504(2) -0.4379(6) -0.0295(2)
O5 O -1.2418(2) -0.0499(6) -0.17823(15)
O6 O -1.16210(19) 0.2568(5) -0.25163(12)
O7 O -1.0471(2) 0.5411(6) -0.20253(12)
C1 C -0.9313(2) -0.0134(7) 0.07193(18)
H1 H -0.9733 -0.1166 0.0910
C2 C -0.9266(2) 0.1976(7) 0.11268(19)
H2 H -0.8785 0.2895 0.0995
H3 H -0.9184 0.1536 0.1572
C3 C -1.0072(2) 0.3407(6) 0.10685(16)
C4 C -1.0220(2) 0.5045(7) 0.15474(18)
H4 H -0.9848 0.5227 0.1890
C5 C -1.0930(2) 0.6368(7) 0.14953(16)
C6 C -1.1901(3) 0.9097(8) 0.1584(2)
H5 H -1.2377 0.9262 0.1874
H6 H -1.1738 1.0612 0.1435
C7 C -1.1478(2) 0.6152(7) 0.09903(16)
C8 C -1.1361(2) 0.4557(7) 0.05171(17)
H7 H -1.1743 0.4414 0.0180
C9 C -1.0637(2) 0.3126(6) 0.05561(15)
C10 C -1.0537(2) 0.1194(6) 0.00555(16)
H8 H -1.0860 -0.0129 0.0212
C11 C -0.96148(19) 0.0505(6) 0.00553(16)
H9 H -0.9274 0.1783 -0.0108
C12 C -0.8786(3) -0.2704(7) -0.0050(2)
C13 C -0.8533(2) -0.1529(7) 0.0572(2)
H10 H -0.8418 -0.2638 0.0909
H11 H -0.8043 -0.0554 0.0513
C14 C -1.0863(2) 0.1748(6) -0.06144(15)
C15 C -1.1516(2) 0.0405(7) -0.08657(18)
H12 H -1.1772 -0.0708 -0.0611
C16 C -1.1786(2) 0.0730(7) -0.14974(18)
C17 C -1.1398(2) 0.2363(7) -0.18781(16)
C18 C -1.0773(2) 0.3774(7) -0.16190(16)
C19 C -1.0506(2) 0.3459(6) -0.09879(17)
H13 H -1.0087 0.4398 -0.0817
C20 C -1.2937(4) -0.1882(12) -0.1389(3)
H14 H -1.3353 -0.2638 -0.1649
H15 H -1.3215 -0.0935 -0.1075
H16 H -1.2597 -0.3011 -0.1174
C21 C -1.2236(3) 0.4257(9) -0.2636(2)
H17 H -1.2077 0.5661 -0.2426
H18 H -1.2772 0.3748 -0.2474
H19 H -1.2278 0.4517 -0.3091
C22 C -0.9845(3) 0.6974(8) -0.1802(2)
H20 H -1.0088 0.7966 -0.1483
H21 H -0.9642 0.7879 -0.2155
H22 H -0.9384 0.6131 -0.1617
loop_
_geom_bond_atom_site_label_1
_geom_bond_atom_site_label_2
_geom_bond_site_symmetry_1
_geom_bond_site_symmetry_2
O1 C5 1_555 1_555
O2 C6 1_555 1_555
O3 C11 1_555 1_555
O4 C12 1_555 1_555
O5 C16 1_555 1_555
O6 C17 1_555 1_555
O7 C18 1_555 1_555
C1 H1 1_555 1_555
C2 C1 1_555 1_555
H2 C2 1_555 1_555
H3 C2 1_555 1_555
C3 C2 1_555 1_555
C4 C3 1_555 1_555
H4 C4 1_555 1_555
C5 C4 1_555 1_555
C6 O1 1_555 1_555
H5 C6 1_555 1_555
H6 C6 1_555 1_555
C7 O2 1_555 1_555
C8 C7 1_555 1_555
H7 C8 1_555 1_555
C9 C3 1_555 1_555
C10 C9 1_555 1_555
H8 C10 1_555 1_555
C11 C1 1_555 1_555
H9 C11 1_555 1_555
C12 O3 1_555 1_555
C13 C1 1_555 1_555
H10 C13 1_555 1_555
H11 C13 1_555 1_555
C14 C10 1_555 1_555
C15 C14 1_555 1_555
H12 C15 1_555 1_555
C16 C15 1_555 1_555
C17 C16 1_555 1_555
C18 C17 1_555 1_555
C19 C14 1_555 1_555
H13 C19 1_555 1_555
C20 O5 1_555 1_555
H14 C20 1_555 1_555
H15 C20 1_555 1_555
H16 C20 1_555 1_555
C21 O6 1_555 1_555
H17 C21 1_555 1_555
H18 C21 1_555 1_555
H19 C21 1_555 1_555
C22 O7 1_555 1_555
H20 C22 1_555 1_555
H21 C22 1_555 1_555
H22 C22 1_555 1_555
C5 C7 1_555 1_555
C8 C9 1_555 1_555
C10 C11 1_555 1_555
C12 C13 1_555 1_555
C18 C19 1_555 1_555

#END
