
#######################################################################
#
#                 Cambridge Crystallographic Data Centre
#                                CCDC 
#
#######################################################################
#
# If this CIF has been generated from an entry in the Cambridge 
# Structural Database, then it will include bibliographic, chemical, 
# crystal, experimental, refinement or atomic coordinate data resulting 
# from the CCDC's data processing and validation procedures.
#
#######################################################################

data_IZAPII
_chemical_formula_moiety         'C15 H13 Cl1 N2 O1'
_chemical_name_systematic        
6-Chloro-3-(4-methylphenyl)-3,4-dihydroquinazolin-2(1H)-one
_symmetry_cell_setting           monoclinic
_symmetry_space_group_name_H-M   'C 2/c'
_symmetry_Int_Tables_number      15
_space_group_name_Hall           '-C 2yn'
loop_
_symmetry_equiv_pos_site_id
_symmetry_equiv_pos_as_xyz
1 x,y,z
2 1/2+x,1/2+y,z
3 x,-y,1/2+z
4 1/2+x,1/2-y,1/2+z
5 -x,-y,-z
6 1/2-x,1/2-y,-z
7 -x,y,1/2-z
8 1/2-x,1/2+y,1/2-z
_cell_length_a                   19.006(6)
_cell_length_b                   12.836(3)
_cell_length_c                   11.484(4)
_cell_angle_alpha                90
_cell_angle_beta                 107.764(7)
_cell_angle_gamma                90
_cell_volume                     2668.07
_exptl_crystal_colour            colorless
_exptl_crystal_description       block
_chemical_melting_point          '487-488 K'
_cell_formula_units_Z            8
_exptl_crystal_recrystallization_method acetone
loop_
_atom_site_label
_atom_site_type_symbol
_atom_site_fract_x
_atom_site_fract_y
_atom_site_fract_z
Cl1 Cl 0.06459(4) 0.50104(6) 0.92336(7)
O1 O 0.30906(8) 0.64026(11) 0.49356(14)
N1 N 0.23341(12) 0.66181(15) 0.60960(19)
N2 N 0.29200(10) 0.50357(12) 0.60830(16)
C1 C 0.27980(12) 0.60371(15) 0.56696(18)
C2 C 0.2646(2) 0.4590(2) 0.7013(3)
H1 H 0.3060 0.4528 0.7782
H2 H 0.2460 0.3879 0.6759
C3 C 0.20393(14) 0.52170(16) 0.7257(2)
C4 C 0.19219(12) 0.62397(15) 0.68232(18)
C5 C 0.16274(13) 0.48371(17) 0.79741(19)
H3 H 0.1684 0.4134 0.8246
C6 C 0.11359(11) 0.54813(18) 0.82912(19)
C7 C 0.10279(12) 0.65033(18) 0.7885(2)
H4 H 0.0691 0.6941 0.8118
C8 C 0.14182(11) 0.68760(16) 0.71339(18)
H5 H 0.1341 0.7569 0.6831
C9 C 0.34149(11) 0.44097(15) 0.56518(18)
C10 C 0.41670(13) 0.45703(19) 0.6083(2)
H6 H 0.4363 0.5083 0.6693
C11 C 0.46379(14) 0.3986(2) 0.5629(3)
H7 H 0.5155 0.4103 0.5937
C12 C 0.43735(14) 0.3241(2) 0.4742(2)
C13 C 0.36183(14) 0.3078(2) 0.4336(2)
H8 H 0.3422 0.2565 0.3728
C14 C 0.31386(12) 0.36436(17) 0.4794(2)
H9 H 0.2623 0.3503 0.4518
C15 C 0.48889(19) 0.2615(3) 0.4238(3)
H10 H 0.5317 0.3042 0.4243
H11 H 0.4628 0.2400 0.3398
H12 H 0.5056 0.1995 0.4746
H13 H 0.2222(14) 0.719(2) 0.578(2)
loop_
_geom_bond_atom_site_label_1
_geom_bond_atom_site_label_2
_geom_bond_site_symmetry_1
_geom_bond_site_symmetry_2
Cl1 C6 1_555 1_555
O1 C1 1_555 1_555
N1 C1 1_555 1_555
N2 C1 1_555 1_555
C2 N2 1_555 1_555
H1 C2 1_555 1_555
H2 C2 1_555 1_555
C3 C2 1_555 1_555
C4 N1 1_555 1_555
C5 C3 1_555 1_555
H3 C5 1_555 1_555
C6 C5 1_555 1_555
C7 C6 1_555 1_555
H4 C7 1_555 1_555
C8 C4 1_555 1_555
H5 C8 1_555 1_555
C9 N2 1_555 1_555
C10 C9 1_555 1_555
H6 C10 1_555 1_555
C11 C10 1_555 1_555
H7 C11 1_555 1_555
C12 C11 1_555 1_555
C13 C12 1_555 1_555
H8 C13 1_555 1_555
C14 C9 1_555 1_555
H9 C14 1_555 1_555
C15 C12 1_555 1_555
H10 C15 1_555 1_555
H11 C15 1_555 1_555
H12 C15 1_555 1_555
H13 N1 1_555 1_555
C3 C4 1_555 1_555
C7 C8 1_555 1_555
C13 C14 1_555 1_555

#END
