
#######################################################################
#
#                 Cambridge Crystallographic Data Centre
#                                CCDC 
#
#######################################################################
#
# If this CIF has been generated from an entry in the Cambridge 
# Structural Database, then it will include bibliographic, chemical, 
# crystal, experimental, refinement or atomic coordinate data resulting 
# from the CCDC's data processing and validation procedures.
#
#######################################################################

data_IZAZUG
_chemical_compound_source        'root extract of Mimosa diplotricha'
_chemical_name_common            'diplomeroterpenoid A dihydrate'
_chemical_formula_moiety         'C37 H42 O9,2(H2 O1)'
_chemical_name_systematic        
'1-((8a-(5-hydroxy-7-methoxy-4-oxo-4H-chromen-2-yl)-6-methoxy-2-methyl-5,8-dioxo-1,4,4a,5,8,8a-hexahydronaphthalen-1-yl)methyl)-1,5,5-trimethyl-1,2,3,5,6,7,8,8a-octahydronaphthalene-2-carboxylic acid dihydrate'
_chemical_properties_biological  
'potent inhibitory activity on protein farnesyl transferase; anti-proliferative activity against human hepatoblastoma HepG2 cells'
_symmetry_cell_setting           orthorhombic
_symmetry_space_group_name_H-M   'P 21 21 21'
_symmetry_Int_Tables_number      19
_space_group_name_Hall           'P 2ac 2ab'
loop_
_symmetry_equiv_pos_site_id
_symmetry_equiv_pos_as_xyz
1 x,y,z
2 1/2-x,-y,1/2+z
3 -x,1/2+y,1/2-z
4 1/2+x,1/2-y,-z
_cell_length_a                   10.4620(11)
_cell_length_b                   12.5584(8)
_cell_length_c                   26.2046(19)
_cell_angle_alpha                90
_cell_angle_beta                 90
_cell_angle_gamma                90
_cell_volume                     3442.92
_cell_formula_units_Z            4
loop_
_atom_site_label
_atom_site_type_symbol
_atom_site_fract_x
_atom_site_fract_y
_atom_site_fract_z
O1 O 0.5344(8) 0.8930(5) 0.2302(3)
O2 O 0.4279(8) 0.9321(5) 0.1597(3)
H1 H 0.4735 0.9852 0.1606
O3 O 0.7992(8) 0.7564(6) -0.0038(3)
O4 O 0.9630(8) 0.6016(8) 0.0022(3)
O5 O 0.7010(7) 0.4413(5) 0.1270(2)
O6 O 0.4440(7) 0.5423(6) -0.0887(2)
O7 O 0.3007(9) 0.3802(8) -0.1028(3)
O8 O 0.2125(9) 0.1530(7) 0.0349(3)
O9 O 0.4772(6) 0.4551(4) 0.0607(2)
C1 C 0.1865(11) 0.5470(7) 0.1382(4)
H2 H 0.1253 0.5923 0.1207
H3 H 0.2505 0.5253 0.1135
C2 C 0.1176(12) 0.4482(8) 0.1582(4)
H4 H 0.1784 0.4001 0.1741
H5 H 0.0762 0.4109 0.1304
C3 C 0.0167(11) 0.4847(9) 0.1979(4)
H6 H -0.0442 0.5315 0.1813
H7 H -0.0296 0.4229 0.2102
C4 C 0.0748(10) 0.5418(7) 0.2425(4)
C5 C 0.1598(9) 0.6334(7) 0.2246(3)
C6 C 0.1610(10) 0.7246(8) 0.2502(4)
H8 H 0.1011 0.7334 0.2760
C7 C 0.2513(10) 0.8137(7) 0.2404(4)
H9 H 0.2840 0.8403 0.2727
H10 H 0.2064 0.8714 0.2236
C8 C 0.3647(9) 0.7768(6) 0.2065(3)
H11 H 0.4131 0.7249 0.2267
C9 C 0.3112(9) 0.7155(6) 0.1595(3)
C10 C 0.2517(9) 0.6114(6) 0.1809(3)
H12 H 0.3217 0.5679 0.1944
C11 C 0.2134(10) 0.7834(8) 0.1301(4)
H13 H 0.1432 0.8007 0.1522
H14 H 0.1825 0.7441 0.1012
H15 H 0.2536 0.8478 0.1186
C12 C 0.4196(9) 0.6925(6) 0.1201(3)
H16 H 0.4576 0.7604 0.1111
H17 H 0.3791 0.6652 0.0895
C13 C 0.4519(11) 0.8726(6) 0.1991(4)
C14 C 0.1527(12) 0.4631(9) 0.2756(5)
H18 H 0.2239 0.4367 0.2563
H19 H 0.0990 0.4047 0.2856
H20 H 0.1834 0.4992 0.3055
C15 C -0.0374(12) 0.5821(9) 0.2755(5)
H21 H -0.0895 0.6296 0.2557
H22 H -0.0046 0.6191 0.3047
H23 H -0.0880 0.5226 0.2865
C16 C 0.7782(11) 0.6931(8) 0.0282(3)
C17 C 0.8630(11) 0.5974(8) 0.0342(4)
C18 C 0.8364(10) 0.5158(9) 0.0671(3)
H24 H 0.8949 0.4604 0.0702
C19 C 0.7187(9) 0.5126(7) 0.0976(3)
C20 C 0.6161(9) 0.5958(6) 0.0845(3)
C21 C 0.5324(9) 0.6146(5) 0.1336(3)
H25 H 0.4957 0.5462 0.1441
C22 C 0.6223(9) 0.6523(6) 0.1751(3)
C23 C 0.7103(10) 0.7228(7) 0.1630(3)
H26 H 0.7647 0.7455 0.1889
C24 C 0.7304(12) 0.7694(8) 0.1110(3)
H27 H 0.8215 0.7768 0.1051
H28 H 0.6933 0.8402 0.1103
C25 C 0.6718(9) 0.7029(6) 0.0668(3)
H29 H 0.6027 0.7445 0.0513
C26 C 0.6161(10) 0.6006(6) 0.2262(3)
H30 H 0.6784 0.6323 0.2483
H31 H 0.6335 0.5259 0.2227
H32 H 0.5323 0.6102 0.2404
C27 C 1.0432(14) 0.5045(15) -0.0009(5)
H33 H 1.1114 0.5159 -0.0247
H34 H 0.9918 0.4456 -0.0120
H35 H 1.0783 0.4890 0.0322
C28 C 0.5364(9) 0.5456(6) 0.0425(3)
C29 C 0.5248(9) 0.5765(6) -0.0058(3)
H36 H 0.5645 0.6390 -0.0162
C30 C 0.4523(10) 0.5155(7) -0.0426(3)
C31 C 0.3898(9) 0.4226(6) -0.0221(3)
C32 C 0.3144(11) 0.3561(8) -0.0539(4)
C33 C 0.2560(12) 0.2673(9) -0.0328(4)
H37 H 0.2057 0.2237 -0.0532
C34 C 0.2717(11) 0.2422(8) 0.0192(4)
C35 C 0.3456(10) 0.3072(7) 0.0507(4)
H38 H 0.3556 0.2928 0.0853
C36 C 0.4042(9) 0.3955(6) 0.0276(3)
C37 C 0.2243(15) 0.1248(11) 0.0869(5)
H39 H 0.1774 0.0604 0.0932
H40 H 0.1908 0.1810 0.1078
H41 H 0.3129 0.1137 0.0949
H42 H 0.322(19) 0.295(16) -0.122(6)
O10 O 0.5232(11) 0.8187(7) 0.3307(4)
H43 H 0.522(11) 0.809(9) 0.295(4)
H44 H 0.524(19) 0.796(14) 0.350(6)
O11 O 0.5494(12) 0.1141(8) 0.1447(5)
H45 H 0.518(11) 0.189(10) 0.158(4)
H46 H 0.575(12) 0.107(9) 0.168(3)
loop_
_geom_bond_atom_site_label_1
_geom_bond_atom_site_label_2
_geom_bond_site_symmetry_1
_geom_bond_site_symmetry_2
O1 C13 1_555 1_555
O2 H1 1_555 1_555
O3 C16 1_555 1_555
O4 C17 1_555 1_555
O5 C19 1_555 1_555
O6 C30 1_555 1_555
O7 C32 1_555 1_555
O8 C34 1_555 1_555
O9 C28 1_555 1_555
C1 H2 1_555 1_555
H3 C1 1_555 1_555
C2 C1 1_555 1_555
H4 C2 1_555 1_555
H5 C2 1_555 1_555
C3 C2 1_555 1_555
H6 C3 1_555 1_555
H7 C3 1_555 1_555
C4 C3 1_555 1_555
C5 C4 1_555 1_555
C6 C5 1_555 1_555
H8 C6 1_555 1_555
C7 C6 1_555 1_555
H9 C7 1_555 1_555
H10 C7 1_555 1_555
C8 C7 1_555 1_555
H11 C8 1_555 1_555
C9 C8 1_555 1_555
C10 C1 1_555 1_555
H12 C10 1_555 1_555
C11 C9 1_555 1_555
H13 C11 1_555 1_555
H14 C11 1_555 1_555
H15 C11 1_555 1_555
C12 C9 1_555 1_555
H16 C12 1_555 1_555
H17 C12 1_555 1_555
C13 O2 1_555 1_555
C14 C4 1_555 1_555
H18 C14 1_555 1_555
H19 C14 1_555 1_555
H20 C14 1_555 1_555
C15 C4 1_555 1_555
H21 C15 1_555 1_555
H22 C15 1_555 1_555
H23 C15 1_555 1_555
C16 C17 1_555 1_555
C17 C18 1_555 1_555
C18 H24 1_555 1_555
C19 C18 1_555 1_555
C20 C19 1_555 1_555
C21 C12 1_555 1_555
H25 C21 1_555 1_555
C22 C21 1_555 1_555
C23 C22 1_555 1_555
H26 C23 1_555 1_555
C24 C23 1_555 1_555
H27 C24 1_555 1_555
H28 C24 1_555 1_555
C25 C16 1_555 1_555
H29 C25 1_555 1_555
C26 C22 1_555 1_555
H30 C26 1_555 1_555
H31 C26 1_555 1_555
H32 C26 1_555 1_555
C27 O4 1_555 1_555
H33 C27 1_555 1_555
H34 C27 1_555 1_555
H35 C27 1_555 1_555
C28 C20 1_555 1_555
C29 C28 1_555 1_555
H36 C29 1_555 1_555
C30 C29 1_555 1_555
C31 C30 1_555 1_555
C32 C31 1_555 1_555
C33 C32 1_555 1_555
H37 C33 1_555 1_555
C34 C33 1_555 1_555
C35 C34 1_555 1_555
H38 C35 1_555 1_555
C36 O9 1_555 1_555
C37 O8 1_555 1_555
H39 C37 1_555 1_555
H40 C37 1_555 1_555
H41 C37 1_555 1_555
H42 O7 1_555 1_555
O10 H43 1_555 1_555
H44 O10 1_555 1_555
O11 H45 1_555 1_555
H46 O11 1_555 1_555
C5 C10 1_555 1_555
C8 C13 1_555 1_555
C9 C10 1_555 1_555
C20 C21 1_555 1_555
C20 C25 1_555 1_555
C24 C25 1_555 1_555
C31 C36 1_555 1_555
C35 C36 1_555 1_555

#END
