
#######################################################################
#
#                 Cambridge Crystallographic Data Centre
#                                CCDC 
#
#######################################################################
#
# If this CIF has been generated from an entry in the Cambridge 
# Structural Database, then it will include bibliographic, chemical, 
# crystal, experimental, refinement or atomic coordinate data resulting 
# from the CCDC's data processing and validation procedures.
#
#######################################################################

data_IZEBOG
_chemical_name_common            
"(2S,4S,5R,6S,8R,9R,2''S)-8-angeloyloxy-4,9-dihydroxy-2,9-expoxy-5-(2-methylbutanoyloxy)germacran-6,12-olide unknown solvate"
_chemical_formula_moiety         'C25 H36 O9'
_chemical_name_systematic        
'1,9-dihydroxy-9,13-dimethyl-8-((2-methylbutanoyl)oxy)-4-methylene-5-oxo-6,14-dioxatricyclo[9.2.1.0^3,7^]tetradec-2-yl 2-methylbut-2-enoate unknown solvate'
_symmetry_cell_setting           trigonal
_symmetry_space_group_name_H-M   'P 32 2 1'
_symmetry_Int_Tables_number      154
_space_group_name_Hall           'P 32 2"'
loop_
_symmetry_equiv_pos_site_id
_symmetry_equiv_pos_as_xyz
1 x,y,z
2 -y,x-y,2/3+z
3 -x+y,-x,1/3+z
4 x-y,-y,1/3-z
5 -x,-x+y,2/3-z
6 y,x,-z
_cell_length_a                   18.4959(2)
_cell_length_b                   18.4959(2)
_cell_length_c                   28.8516(5)
_cell_angle_alpha                90
_cell_angle_beta                 90
_cell_angle_gamma                120
_cell_volume                     8547.74
_exptl_crystal_colour            colorless
_exptl_crystal_description       prism
_cell_formula_units_Z            12
loop_
_atom_site_label
_atom_site_type_symbol
_atom_site_fract_x
_atom_site_fract_y
_atom_site_fract_z
O1 O 0.2308(2) 0.5986(3) 0.17797(12)
O2 O 0.1294(3) 0.4668(4) 0.15140(14)
H1 H 0.1541 0.4771 0.1258
O3 O 0.2208(3) 0.4005(4) 0.19215(17)
O4 O 0.2996(4) 0.3905(6) 0.1357(2)
O5 O 0.4628(3) 0.6138(6) 0.16919(16)
O6 O 0.5133(4) 0.5276(6) 0.1798(2)
O7 O 0.5077(2) 0.7629(4) 0.19600(13)
O8 O 0.5814(2) 0.7593(3) 0.25628(14)
O9 O 0.3692(3) 0.7751(5) 0.17905(16)
H2 H 0.3417 0.7345 0.1612
C1 C 0.5796(3) 0.7859(5) 0.2200(2)
C2 C 0.6548(4) 0.8583(6) 0.1966(3)
H3 H 0.6414 0.8650 0.1638
C3 C 0.7228(5) 0.8400(9) 0.1982(5)
H4 H 0.7281 0.8204 0.2292
H5 H 0.7767 0.8890 0.1892
C4 C 0.6913(8) 0.7679(7) 0.1608(5)
H6 H 0.6941 0.7204 0.1737
H7 H 0.7268 0.7885 0.1332
H8 H 0.6335 0.7502 0.1523
C5 C 0.6859(6) 0.9431(6) 0.2251(4)
H9 H 0.6975 0.9348 0.2572
H10 H 0.6424 0.9585 0.2247
H11 H 0.7369 0.9877 0.2109
C6 C 0.2483(6) 0.3560(7) 0.1664(3)
C7 C 0.2088(6) 0.2688(7) 0.1816(4)
C8 C 0.2338(9) 0.2178(11) 0.1662(6)
H12 H 0.2050 0.1625 0.1781
C9 C 0.3054(13) 0.2376(15) 0.1307(5)
H13 H 0.2818 0.2034 0.1029
H14 H 0.3461 0.2251 0.1448
H15 H 0.3331 0.2968 0.1223
C10 C 0.1407(5) 0.2404(6) 0.2164(5)
H16 H 0.1125 0.1795 0.2192
H17 H 0.1004 0.2569 0.2064
H18 H 0.1642 0.2660 0.2464
C11 C 0.1399(3) 0.5747(4) 0.24026(17)
H19 H 0.1407 0.5895 0.2733
H20 H 0.0873 0.5655 0.2260
C12 C 0.2162(3) 0.6432(4) 0.21438(17)
H21 H 0.2015 0.6836 0.2003
C13 C 0.2931(3) 0.6908(4) 0.24600(17)
H22 H 0.2826 0.7271 0.2667
H23 H 0.2972 0.6493 0.2658
C14 C 0.3786(4) 0.7452(5) 0.22266(19)
C15 C 0.4306(3) 0.7004(5) 0.21735(17)
H24 H 0.4423 0.6851 0.2485
C16 C 0.3943(4) 0.6245(6) 0.18527(17)
H25 H 0.3660 0.6337 0.1583
C17 C 0.3328(3) 0.5422(5) 0.21027(17)
H26 H 0.3153 0.5552 0.2405
C18 C 0.2554(4) 0.4872(5) 0.18066(18)
H27 H 0.2725 0.4951 0.1473
C19 C 0.1878(3) 0.5096(4) 0.18677(18)
C20 C 0.1488(3) 0.4986(4) 0.23526(18)
H28 H 0.1914 0.5037 0.2584
C21 C 0.3851(4) 0.5009(6) 0.2191(2)
C22 C 0.4602(5) 0.5478(9) 0.1883(3)
C23 C 0.3746(5) 0.4455(6) 0.2495(3)
H29 H 0.4166 0.4309 0.2540
H30 H 0.3249 0.4191 0.2674
C24 C 0.0706(4) 0.4165(4) 0.2440(2)
H31 H 0.0827 0.3709 0.2405
H32 H 0.0276 0.4092 0.2216
H33 H 0.0505 0.4159 0.2755
C25 C 0.4282(4) 0.8213(5) 0.2535(2)
H34 H 0.4371 0.8032 0.2839
H35 H 0.3971 0.8510 0.2574
H36 H 0.4823 0.8586 0.2391
O10 O 0.2036(3) 0.8484(3) 0.08421(12)
O11 O 0.1794(3) 0.9608(4) 0.08671(15)
H37 H 0.2041 0.9698 0.1123
O12 O 0.4043(4) 1.1327(3) 0.0457(3)
O13 O 0.2935(3) 1.0281(3) 0.01044(18)
O14 O 0.4507(2) 0.9267(2) 0.05364(13)
O15 O 0.3966(3) 0.7695(2) 0.06252(12)
O16 O 0.4451(5) 0.7684(4) -0.00781(14)
O17 O 0.2493(3) 0.7316(3) 0.11285(14)
H38 H 0.2636 0.7818 0.1179
O18 O 0.5528(3) 1.0195(3) 0.0084(2)
C26 C 0.0801(5) 0.7817(5) 0.0403(3)
H39 H 0.0357 0.7808 0.0600
H40 H 0.0539 0.7396 0.0155
C27 C 0.1398(4) 0.7664(5) 0.0688(2)
H41 H 0.1095 0.7320 0.0965
C28 C 0.1743(5) 0.7217(4) 0.0418(2)
H42 H 0.1919 0.7487 0.0110
H43 H 0.1288 0.6636 0.0366
C29 C 0.2499(4) 0.7186(4) 0.0640(2)
C30 C 0.3325(4) 0.7864(3) 0.04368(16)
H44 H 0.3306 0.7794 0.0092
C31 C 0.3596(3) 0.8775(3) 0.05469(16)
H45 H 0.3392 0.8810 0.0863
C32 C 0.3296(4) 0.9192(3) 0.01908(18)
H46 H 0.2863 0.8753 -0.0014
C33 C 0.2933(4) 0.9683(3) 0.04228(18)
H47 H 0.3283 0.9985 0.0698
C34 C 0.2019(4) 0.9122(4) 0.05815(17)
C35 C 0.1379(4) 0.8705(4) 0.01983(19)
H48 H 0.1671 0.8644 -0.0078
C36 C 0.4071(4) 0.9721(3) -0.0087(2)
C37 C 0.4783(4) 0.9788(4) 0.0164(2)
C38 C 0.4141(6) 1.0059(4) -0.0499(2)
H49 H 0.4672 1.0361 -0.0643
H50 H 0.3659 1.0001 -0.0652
C39 C 0.0907(5) 0.9155(6) 0.0041(3)
H51 H 0.0521 0.8838 -0.0211
H52 H 0.1308 0.9717 -0.0070
H53 H 0.0591 0.9196 0.0302
C40 C 0.2409(6) 0.6333(4) 0.0546(3)
H54 H 0.2388 0.6240 0.0211
H55 H 0.1894 0.5898 0.0689
H56 H 0.2889 0.6315 0.0677
C41 C 0.4475(5) 0.7614(4) 0.03301(17)
C42 C 0.5012(6) 0.7355(4) 0.0578(2)
H57 H 0.5050 0.7513 0.0912
C43 C 0.5896(6) 0.7805(5) 0.0361(3)
H58 H 0.6237 0.7587 0.0503
H59 H 0.5853 0.7682 0.0025
C44 C 0.6332(7) 0.8749(6) 0.0432(4)
H60 H 0.6264 0.8870 0.0755
H61 H 0.6085 0.8987 0.0226
H62 H 0.6928 0.8997 0.0362
C45 C 0.4614(7) 0.6406(5) 0.0537(2)
H63 H 0.4590 0.6252 0.0210
H64 H 0.4047 0.6137 0.0665
H65 H 0.4950 0.6223 0.0710
C46 C 0.3510(7) 1.1106(7) 0.0147(4)
C47 C 0.3326(8) 1.1509(7) -0.0279(4)
C48 C 0.3581(9) 1.2410(10) -0.0347(5)
H66 H 0.3399 1.2681 -0.0558
C49 C 0.4235(10) 1.2743(9) 0.0040(5)
H67 H 0.3968 1.2491 0.0335
H68 H 0.4489 1.3351 0.0060
H69 H 0.4669 1.2602 -0.0029
C50 C 0.2828(10) 1.1016(10) -0.0710(4)
H70 H 0.3083 1.0706 -0.0840
H71 H 0.2837 1.1406 -0.0944
H72 H 0.2250 1.0625 -0.0622
loop_
_geom_bond_atom_site_label_1
_geom_bond_atom_site_label_2
_geom_bond_site_symmetry_1
_geom_bond_site_symmetry_2
O1 C12 1_555 1_555
O2 H1 1_555 1_555
O3 C6 1_555 1_555
O4 C6 1_555 1_555
O5 C16 1_555 1_555
O6 C22 1_555 1_555
O7 C1 1_555 1_555
O8 C1 1_555 1_555
O9 H2 1_555 1_555
C1 C2 1_555 1_555
C2 H3 1_555 1_555
C3 C2 1_555 1_555
H4 C3 1_555 1_555
H5 C3 1_555 1_555
C4 C3 1_555 1_555
H6 C4 1_555 1_555
H7 C4 1_555 1_555
H8 C4 1_555 1_555
C5 C2 1_555 1_555
H9 C5 1_555 1_555
H10 C5 1_555 1_555
H11 C5 1_555 1_555
C6 C7 1_555 1_555
C7 C8 1_555 1_555
C8 H12 1_555 1_555
C9 C8 1_555 1_555
H13 C9 1_555 1_555
H14 C9 1_555 1_555
H15 C9 1_555 1_555
C10 C7 1_555 1_555
H16 C10 1_555 1_555
H17 C10 1_555 1_555
H18 C10 1_555 1_555
C11 H19 1_555 1_555
H20 C11 1_555 1_555
C12 C11 1_555 1_555
H21 C12 1_555 1_555
C13 C12 1_555 1_555
H22 C13 1_555 1_555
H23 C13 1_555 1_555
C14 O9 1_555 1_555
C15 O7 1_555 1_555
H24 C15 1_555 1_555
C16 C15 1_555 1_555
H25 C16 1_555 1_555
C17 C16 1_555 1_555
H26 C17 1_555 1_555
C18 O3 1_555 1_555
H27 C18 1_555 1_555
C19 O1 1_555 1_555
C20 C11 1_555 1_555
H28 C20 1_555 1_555
C21 C17 1_555 1_555
C22 O5 1_555 1_555
C23 C21 1_555 1_555
H29 C23 1_555 1_555
H30 C23 1_555 1_555
C24 C20 1_555 1_555
H31 C24 1_555 1_555
H32 C24 1_555 1_555
H33 C24 1_555 1_555
C25 C14 1_555 1_555
H34 C25 1_555 1_555
H35 C25 1_555 1_555
H36 C25 1_555 1_555
O10 C27 1_555 1_555
O11 H37 1_555 1_555
O12 C46 1_555 1_555
O13 C33 1_555 1_555
O14 C31 1_555 1_555
O15 C30 1_555 1_555
O16 C41 1_555 1_555
O17 H38 1_555 1_555
O18 C37 1_555 1_555
C26 H39 1_555 1_555
H40 C26 1_555 1_555
C27 C26 1_555 1_555
H41 C27 1_555 1_555
C28 C27 1_555 1_555
H42 C28 1_555 1_555
H43 C28 1_555 1_555
C29 O17 1_555 1_555
C30 C29 1_555 1_555
H44 C30 1_555 1_555
C31 C30 1_555 1_555
H45 C31 1_555 1_555
C32 C31 1_555 1_555
H46 C32 1_555 1_555
C33 C32 1_555 1_555
H47 C33 1_555 1_555
C34 O10 1_555 1_555
C35 C26 1_555 1_555
H48 C35 1_555 1_555
C36 C32 1_555 1_555
C37 O14 1_555 1_555
C38 C36 1_555 1_555
H49 C38 1_555 1_555
H50 C38 1_555 1_555
C39 C35 1_555 1_555
H51 C39 1_555 1_555
H52 C39 1_555 1_555
H53 C39 1_555 1_555
C40 C29 1_555 1_555
H54 C40 1_555 1_555
H55 C40 1_555 1_555
H56 C40 1_555 1_555
C41 O15 1_555 1_555
C42 C41 1_555 1_555
H57 C42 1_555 1_555
C43 C42 1_555 1_555
H58 C43 1_555 1_555
H59 C43 1_555 1_555
C44 C43 1_555 1_555
H60 C44 1_555 1_555
H61 C44 1_555 1_555
H62 C44 1_555 1_555
C45 C42 1_555 1_555
H63 C45 1_555 1_555
H64 C45 1_555 1_555
H65 C45 1_555 1_555
C46 O13 1_555 1_555
C47 C46 1_555 1_555
C48 C47 1_555 1_555
H66 C48 1_555 1_555
C49 C48 1_555 1_555
H67 C49 1_555 1_555
H68 C49 1_555 1_555
H69 C49 1_555 1_555
C50 C47 1_555 1_555
H70 C50 1_555 1_555
H71 C50 1_555 1_555
H72 C50 1_555 1_555
O2 C19 1_555 1_555
C13 C14 1_555 1_555
C14 C15 1_555 1_555
C17 C18 1_555 1_555
C18 C19 1_555 1_555
C19 C20 1_555 1_555
C21 C22 1_555 1_555
O11 C34 1_555 1_555
C28 C29 1_555 1_555
C33 C34 1_555 1_555
C34 C35 1_555 1_555
C36 C37 1_555 1_555

#END
