
#######################################################################
#
#                 Cambridge Crystallographic Data Centre
#                                CCDC 
#
#######################################################################
#
# If this CIF has been generated from an entry in the Cambridge 
# Structural Database, then it will include bibliographic, chemical, 
# crystal, experimental, refinement or atomic coordinate data resulting 
# from the CCDC's data processing and validation procedures.
#
#######################################################################

data_IZECUN
_chemical_compound_source        'Carpesium cernuum'
_chemical_name_common            'cernuumolide I'
_chemical_formula_moiety         'C23 H34 O8'
_chemical_name_systematic        
'10-hydroxy-6,10-dimethyl-3-methylene-2,5-dioxododecahydrocyclodeca[b]furan-4,11-diyl bis(2-methylpropanoate)'
_chemical_properties_biological  
'tested for anti-cancer activity against A549, HCT116, MDA-MB-231 and BEL7404 cell lines'
_symmetry_cell_setting           orthorhombic
_symmetry_space_group_name_H-M   'P 21 21 21'
_symmetry_Int_Tables_number      19
_space_group_name_Hall           'P 2ac 2ab'
loop_
_symmetry_equiv_pos_site_id
_symmetry_equiv_pos_as_xyz
1 x,y,z
2 1/2+x,1/2-y,-z
3 -x,1/2+y,1/2-z
4 1/2-x,-y,1/2+z
_cell_length_a                   5.71560(10)
_cell_length_b                   18.5622(2)
_cell_length_c                   23.1270(3)
_cell_angle_alpha                90
_cell_angle_beta                 90
_cell_angle_gamma                90
_cell_volume                     2453.64
_exptl_crystal_colour            colorless
_exptl_crystal_description       block
_cell_formula_units_Z            4
loop_
_atom_site_label
_atom_site_type_symbol
_atom_site_fract_x
_atom_site_fract_y
_atom_site_fract_z
O1 O -0.7217(3) -0.07089(10) 0.27457(8)
H1 H -0.7363 -0.0382 0.2981
O2 O -0.3628(3) 0.00095(9) 0.33207(7)
O3 O 0.0065(3) 0.03997(12) 0.33460(9)
O4 O -0.3767(3) 0.08393(8) 0.24404(8)
O5 O -0.2162(5) 0.19302(10) 0.23910(12)
O6 O -0.3036(3) 0.04763(9) 0.10329(7)
O7 O -0.1348(5) 0.04193(15) 0.01666(9)
O8 O -0.4028(4) -0.08983(11) 0.08832(9)
C1 C -0.1583(6) -0.20282(14) 0.15677(12)
H2 H -0.0496 -0.2429 0.1567
H3 H -0.2965 -0.2178 0.1356
C2 C -0.1866(4) 0.03989(13) 0.35501(10)
C3 C -0.2848(6) 0.06528(15) 0.04683(12)
C4 C -0.2289(6) -0.18727(14) 0.21914(13)
H4 H -0.1070 -0.1587 0.2372
H5 H -0.2388 -0.2325 0.2399
C5 C -0.2661(5) 0.08307(16) 0.40624(11)
H6 H -0.3557 0.0513 0.4318
C6 C -0.4764(8) 0.11619(19) 0.02935(14)
H7 H -0.6208 0.0984 0.0472
C7 C -0.4624(5) -0.14738(13) 0.22537(11)
H8 H -0.4827 -0.1167 0.1918
H9 H -0.5873 -0.1828 0.2248
C8 C -0.4272(6) 0.14333(18) 0.38564(15)
H10 H -0.4751 0.1719 0.4181
H11 H -0.5626 0.1228 0.3674
H12 H -0.3454 0.1731 0.3584
C9 C -0.5159(16) 0.1163(4) -0.0344(2)
H13 H -0.3731 0.1289 -0.0538
H14 H -0.6348 0.1509 -0.0439
H15 H -0.5653 0.0693 -0.0466
C10 C -0.4915(4) -0.10122(12) 0.27926(10)
C11 C -0.0582(7) 0.1121(2) 0.43977(13)
H16 H 0.0359 0.0726 0.4532
H17 H -0.1129 0.1394 0.4723
H18 H 0.0338 0.1425 0.4151
C12 C -0.4277(14) 0.1889(2) 0.0555(2)
H19 H -0.4204 0.1846 0.0969
H20 H -0.5506 0.2217 0.0452
H21 H -0.2811 0.2068 0.0413
C13 C -0.3129(4) -0.03906(12) 0.28022(9)
H22 H -0.1547 -0.0591 0.2829
C14 C -0.3280(4) 0.01051(11) 0.22628(9)
H23 H -0.4565 -0.0063 0.2017
C15 C -0.1015(4) 0.01375(12) 0.18944(9)
H24 H 0.0159 -0.0189 0.2058
C16 C -0.1357(4) -0.00310(12) 0.12514(10)
H25 H 0.0133 0.0052 0.1053
C17 C -0.2168(5) -0.07968(13) 0.11148(10)
C18 C -0.0459(5) -0.13987(14) 0.12479(12)
H26 H 0.0807 -0.1204 0.1487
C19 C -0.0224(5) 0.09046(13) 0.19676(10)
C20 C -0.2043(5) 0.13000(13) 0.22841(11)
C21 C 0.1713(5) 0.12126(17) 0.17809(13)
H27 H 0.1971 0.1700 0.1848
H28 H 0.2822 0.0942 0.1582
C22 C 0.0576(7) -0.16410(19) 0.06627(16)
H29 H -0.0627 -0.1862 0.0434
H30 H 0.1812 -0.1981 0.0729
H31 H 0.1188 -0.1230 0.0461
C23 C -0.4729(6) -0.14647(16) 0.33405(13)
H32 H -0.5154 -0.1177 0.3669
H33 H -0.3150 -0.1632 0.3385
H34 H -0.5766 -0.1870 0.3313
loop_
_geom_bond_atom_site_label_1
_geom_bond_atom_site_label_2
_geom_bond_site_symmetry_1
_geom_bond_site_symmetry_2
O1 H1 1_555 1_555
O2 C2 1_555 1_555
O3 C2 1_555 1_555
O4 C14 1_555 1_555
O5 C20 1_555 1_555
O6 C3 1_555 1_555
O7 C3 1_555 1_555
O8 C17 1_555 1_555
C1 H2 1_555 1_555
H3 C1 1_555 1_555
C2 C5 1_555 1_555
C3 C6 1_555 1_555
C4 C1 1_555 1_555
H4 C4 1_555 1_555
H5 C4 1_555 1_555
C5 H6 1_555 1_555
C6 H7 1_555 1_555
C7 C4 1_555 1_555
H8 C7 1_555 1_555
H9 C7 1_555 1_555
C8 C5 1_555 1_555
H10 C8 1_555 1_555
H11 C8 1_555 1_555
H12 C8 1_555 1_555
C9 C6 1_555 1_555
H13 C9 1_555 1_555
H14 C9 1_555 1_555
H15 C9 1_555 1_555
C10 O1 1_555 1_555
C11 C5 1_555 1_555
H16 C11 1_555 1_555
H17 C11 1_555 1_555
H18 C11 1_555 1_555
C12 C6 1_555 1_555
H19 C12 1_555 1_555
H20 C12 1_555 1_555
H21 C12 1_555 1_555
C13 O2 1_555 1_555
H22 C13 1_555 1_555
C14 C13 1_555 1_555
H23 C14 1_555 1_555
C15 C14 1_555 1_555
H24 C15 1_555 1_555
C16 O6 1_555 1_555
H25 C16 1_555 1_555
C17 C16 1_555 1_555
C18 C1 1_555 1_555
H26 C18 1_555 1_555
C19 C15 1_555 1_555
C20 O4 1_555 1_555
C21 C19 1_555 1_555
H27 C21 1_555 1_555
H28 C21 1_555 1_555
C22 C18 1_555 1_555
H29 C22 1_555 1_555
H30 C22 1_555 1_555
H31 C22 1_555 1_555
C23 C10 1_555 1_555
H32 C23 1_555 1_555
H33 C23 1_555 1_555
H34 C23 1_555 1_555
C7 C10 1_555 1_555
C10 C13 1_555 1_555
C15 C16 1_555 1_555
C17 C18 1_555 1_555
C19 C20 1_555 1_555

#END
