
#######################################################################
#
#                 Cambridge Crystallographic Data Centre
#                                CCDC 
#
#######################################################################
#
# If this CIF has been generated from an entry in the Cambridge 
# Structural Database, then it will include bibliographic, chemical, 
# crystal, experimental, refinement or atomic coordinate data resulting 
# from the CCDC's data processing and validation procedures.
#
#######################################################################

data_IZECOG
_chemical_formula_moiety         'C26 H30 F1 N1 O4'
_chemical_name_systematic        
4-((4-Fluorobenzyl)oxy)-3,7-dimethoxy-17-methyl-7,8-didehydromorphinan-6-ol
_symmetry_cell_setting           triclinic
_symmetry_space_group_name_H-M   'P 1'
_symmetry_Int_Tables_number      1
_space_group_name_Hall           'P 1'
loop_
_symmetry_equiv_pos_site_id
_symmetry_equiv_pos_as_xyz
1 x,y,z
_cell_length_a                   7.72360(10)
_cell_length_b                   8.72820(10)
_cell_length_c                   9.9342(2)
_cell_angle_alpha                81.1760(10)
_cell_angle_beta                 67.43
_cell_angle_gamma                64.5770(10)
_cell_volume                     558.468
_exptl_crystal_colour            colorless
_exptl_crystal_description       block
_cell_formula_units_Z            1
loop_
_atom_site_label
_atom_site_type_symbol
_atom_site_fract_x
_atom_site_fract_y
_atom_site_fract_z
N1 N -0.2713(2) 0.85341(17) 0.46727(14)
O1 O 0.11278(16) 0.72911(14) 0.82997(10)
O2 O 0.0554(2) 1.02333(16) 0.92864(12)
O3 O 0.55346(19) 0.59872(17) 0.53346(13)
O4 O 0.67246(17) 0.57000(16) 0.22282(12)
C1 C 0.0886(2) 0.8680(2) 0.73937(15)
C2 C 0.0536(2) 1.0242(2) 0.79093(16)
C3 C 0.0121(2) 1.1670(2) 0.70659(16)
H1 H -0.0006 1.2705 0.7372
C4 C -0.0108(2) 1.1580(2) 0.57663(16)
H2 H -0.0441 1.2574 0.5203
C5 C 0.0139(2) 1.00674(19) 0.52676(15)
C6 C 0.0743(2) 0.85684(19) 0.60440(15)
C7 C 0.0860(2) 0.69182(19) 0.55618(14)
C8 C 0.0976(2) 0.70030(19) 0.39662(15)
H3 H 0.0731 0.6020 0.3808
C9 C -0.0730(2) 0.8593(2) 0.37286(15)
H4 H -0.0616 0.8570 0.2694
C10 C -0.0355(2) 1.0129(2) 0.39163(15)
H5 H 0.0795 1.0199 0.3047
H6 H -0.1593 1.1174 0.3960
C11 C 0.2688(2) 0.5285(2) 0.56407(16)
H7 H 0.2656 0.5147 0.6657
H8 H 0.2518 0.4310 0.5401
C12 C 0.4798(3) 0.5218(2) 0.46278(18)
H9 H 0.5766 0.3995 0.4449
C13 C 0.4764(2) 0.5995(2) 0.31767(17)
C14 C 0.3063(2) 0.6803(2) 0.28722(15)
H10 H 0.3161 0.7274 0.1932
C15 C -0.1223(2) 0.6822(2) 0.64967(15)
H11 H -0.1227 0.5768 0.6248
H12 H -0.1406 0.6785 0.7542
C16 C -0.2990(2) 0.8350(2) 0.62301(15)
H13 H -0.4292 0.8220 0.6784
H14 H -0.3086 0.9389 0.6592
C17 C -0.0158(3) 1.1854(3) 0.99232(19)
H15 H 0.0772 1.2401 0.9360
H16 H -0.0194 1.1708 1.0930
H17 H -0.1540 1.2566 0.9916
C18 C 0.6911(3) 0.6286(3) 0.07738(18)
H18 H 0.6309 0.5775 0.0363
H19 H 0.8364 0.5959 0.0173
H20 H 0.6188 0.7524 0.0789
C19 C -0.4460(3) 0.9962(2) 0.44510(19)
H21 H -0.5700 0.9743 0.4936
H22 H -0.4211 1.0108 0.3405
H23 H -0.4646 1.0996 0.4863
C20 C 0.2919(3) 0.6686(2) 0.87125(18)
H24 H 0.2743 0.7513 0.9385
H25 H 0.4153 0.6558 0.7836
C21 C 0.3180(2) 0.5009(2) 0.94465(16)
C22 C 0.1867(2) 0.4907(2) 1.08534(16)
H26 H 0.0749 0.5908 1.1337
C23 C 0.2165(3) 0.3370(2) 1.15566(16)
H27 H 0.1273 0.3303 1.2518
C24 C 0.3784(3) 0.1942(2) 1.08266(19)
C25 C 0.5110(3) 0.1966(2) 0.9438(2)
H28 H 0.6213 0.0955 0.8962
C26 C 0.4780(3) 0.3529(2) 0.87507(17)
H29 H 0.5670 0.3582 0.7785
F1 F 0.40792(19) 0.04272(15) 1.15186(14)
H30 H 0.613(4) 0.655(3) 0.473(3)
loop_
_geom_bond_atom_site_label_1
_geom_bond_atom_site_label_2
_geom_bond_site_symmetry_1
_geom_bond_site_symmetry_2
N1 C9 1_555 1_555
O1 C1 1_555 1_555
O2 C2 1_555 1_555
O3 C12 1_555 1_555
O4 C13 1_555 1_555
C1 C2 1_555 1_555
C2 C3 1_555 1_555
C3 H1 1_555 1_555
C4 C3 1_555 1_555
H2 C4 1_555 1_555
C5 C4 1_555 1_555
C6 C1 1_555 1_555
C7 C6 1_555 1_555
C8 C7 1_555 1_555
H3 C8 1_555 1_555
C9 C8 1_555 1_555
H4 C9 1_555 1_555
C10 C5 1_555 1_555
H5 C10 1_555 1_555
H6 C10 1_555 1_555
C11 C7 1_555 1_555
H7 C11 1_555 1_555
H8 C11 1_555 1_555
C12 C11 1_555 1_555
H9 C12 1_555 1_555
C13 C12 1_555 1_555
C14 C8 1_555 1_555
H10 C14 1_555 1_555
C15 C7 1_555 1_555
H11 C15 1_555 1_555
H12 C15 1_555 1_555
C16 N1 1_555 1_555
H13 C16 1_555 1_555
H14 C16 1_555 1_555
C17 O2 1_555 1_555
H15 C17 1_555 1_555
H16 C17 1_555 1_555
H17 C17 1_555 1_555
C18 O4 1_555 1_555
H18 C18 1_555 1_555
H19 C18 1_555 1_555
H20 C18 1_555 1_555
C19 N1 1_555 1_555
H21 C19 1_555 1_555
H22 C19 1_555 1_555
H23 C19 1_555 1_555
C20 O1 1_555 1_555
H24 C20 1_555 1_555
H25 C20 1_555 1_555
C21 C20 1_555 1_555
C22 C21 1_555 1_555
H26 C22 1_555 1_555
C23 C22 1_555 1_555
H27 C23 1_555 1_555
C24 C23 1_555 1_555
C25 C24 1_555 1_555
H28 C25 1_555 1_555
C26 C21 1_555 1_555
H29 C26 1_555 1_555
F1 C24 1_555 1_555
H30 O3 1_555 1_555
C5 C6 1_555 1_555
C9 C10 1_555 1_555
C13 C14 1_555 1_555
C15 C16 1_555 1_555
C25 C26 1_555 1_555

#END
