
#######################################################################
#
#                 Cambridge Crystallographic Data Centre
#                                CCDC 
#
#######################################################################
#
# If this CIF has been generated from an entry in the Cambridge 
# Structural Database, then it will include bibliographic, chemical, 
# crystal, experimental, refinement or atomic coordinate data resulting 
# from the CCDC's data processing and validation procedures.
#
#######################################################################

data_IZECIB
_chemical_compound_source        'Carpesium cernuum'
_chemical_name_common            'cernuumolide F dihydrate'
_chemical_formula_moiety         'C20 H28 O8,2(H2 O1)'
_chemical_name_systematic        
'1,2,9-trihydroxy-9,13-dimethyl-4-methylene-5-oxo-6,14-dioxatricyclo[9.2.1.0^3,7^]tetradec-8-yl 2-methylbut-2-enoate dihydrate'
_chemical_properties_biological  
'tested for anti-cancer activity against A549, HCT116, MDA-MB-231 and BEL7404 cell lines'
_symmetry_cell_setting           orthorhombic
_symmetry_space_group_name_H-M   'P 21 21 21'
_symmetry_Int_Tables_number      19
_space_group_name_Hall           'P 2ac 2ab'
loop_
_symmetry_equiv_pos_site_id
_symmetry_equiv_pos_as_xyz
1 x,y,z
2 1/2+x,1/2-y,-z
3 -x,1/2+y,1/2-z
4 1/2-x,-y,1/2+z
_cell_length_a                   10.3232(2)
_cell_length_b                   11.0194(2)
_cell_length_c                   19.2565(3)
_cell_angle_alpha                90
_cell_angle_beta                 90
_cell_angle_gamma                90
_cell_volume                     2190.53
_exptl_crystal_colour            colorless
_exptl_crystal_description       block
_cell_formula_units_Z            4
loop_
_atom_site_label
_atom_site_type_symbol
_atom_site_fract_x
_atom_site_fract_y
_atom_site_fract_z
O1 O 0.13772(15) -0.33591(15) 0.15727(7)
O2 O 0.05620(15) -0.52713(15) 0.13775(9)
H1 H 0.0746 -0.5650 0.1743
O3 O 0.01414(16) -0.41224(15) 0.02162(9)
H2 H -0.0307 -0.4669 0.0402
O4 O 0.08608(15) -0.14492(15) -0.02459(8)
O5 O 0.12102(17) -0.15886(18) -0.13857(9)
O6 O 0.17092(17) 0.02223(15) 0.05562(11)
O7 O 0.2824(2) 0.05529(19) -0.04207(12)
O8 O 0.15127(17) -0.07226(18) 0.18361(10)
H3 H 0.1622 -0.0154 0.2120
C1 C 0.3136(2) -0.4301(3) 0.21203(13)
H4 H 0.4068 -0.4187 0.2222
H5 H 0.2734 -0.4775 0.2500
C2 C 0.2453(2) -0.3083(2) 0.20225(11)
H6 H 0.2117 -0.2795 0.2481
C3 C 0.3335(2) -0.2106(2) 0.17091(12)
H7 H 0.3797 -0.2467 0.1309
H8 H 0.3996 -0.1889 0.2060
C4 C 0.2684(2) -0.0927(2) 0.14619(13)
C5 C 0.2348(2) -0.0923(2) 0.06753(12)
H9 H 0.3170 -0.0947 0.0401
C6 C 0.1426(2) -0.1909(2) 0.04021(11)
H10 H 0.0732 -0.2085 0.0750
C7 C 0.2148(2) -0.30911(18) 0.01983(11)
H11 H 0.3039 -0.3081 0.0401
C8 C 0.1443(2) -0.4246(2) 0.04272(11)
H12 H 0.1830 -0.4950 0.0174
C9 C 0.1577(2) -0.4477(2) 0.12106(11)
C10 C 0.2938(2) -0.4916(2) 0.14204(13)
H13 H 0.3572 -0.4552 0.1087
C11 C 0.2233(2) -0.2994(2) -0.05807(11)
C12 C 0.1415(2) -0.1962(2) -0.08044(12)
C13 C 0.2883(3) -0.3688(2) -0.10175(14)
H14 H 0.2839 -0.3537 -0.1503
H15 H 0.3395 -0.4340 -0.0847
C14 C 0.3138(3) -0.6283(2) 0.14131(16)
H16 H 0.4052 -0.6466 0.1502
H17 H 0.2890 -0.6607 0.0958
H18 H 0.2602 -0.6657 0.1774
C15 C 0.3633(3) 0.0128(3) 0.15811(15)
H19 H 0.3259 0.0879 0.1397
H20 H 0.4451 -0.0044 0.1343
H21 H 0.3794 0.0221 0.2080
C16 C 0.1970(3) 0.0831(2) -0.00212(19)
C17 C 0.1023(5) 0.1896(4) 0.0001(2)
C18 C 0.0969(4) 0.2634(4) -0.0546(2)
H22 H 0.0369 0.3284 -0.0502
C19 C 0.1692(12) 0.2608(9) -0.1212(4)
H23 H 0.1088 0.2727 -0.1598
H24 H 0.2126 0.1821 -0.1263
H25 H 0.2341 0.3257 -0.1214
C20 C 0.0013(11) 0.2034(12) 0.0578(4)
H26 H -0.0624 0.1378 0.0542
H27 H -0.0425 0.2818 0.0530
H28 H 0.0444 0.1993 0.1031
O9 O -0.05764(19) -0.1705(2) 0.25041(10)
H36 H 0.0042 -0.1482 0.2242
H37 H -0.0725 -0.2456 0.2442
O10 O 0.35188(17) -0.09684(17) -0.21237(8)
H38 H 0.4087 -0.0670 -0.1854
H39 H 0.2840 -0.1135 -0.1893
C21? C 0.1320(9) 0.1868(8) -0.0369(5)
C22? C 0.0418(9) 0.2341(8) 0.0035(5)
H29? H -0.0114 0.2943 -0.0174
C23? C 0.012(2) 0.205(3) 0.0794(7)
H30? H -0.0292 0.1246 0.0824
H31? H -0.0477 0.2662 0.0982
H32? H 0.0920 0.2048 0.1064
C24? C 0.160(2) 0.2391(18) -0.1040(10)
H33? H 0.2534 0.2549 -0.1077
H34? H 0.1126 0.3155 -0.1093
H35? H 0.1339 0.1825 -0.1406
loop_
_geom_bond_atom_site_label_1
_geom_bond_atom_site_label_2
_geom_bond_site_symmetry_1
_geom_bond_site_symmetry_2
O1 C2 1_555 1_555
O2 H1 1_555 1_555
O3 H2 1_555 1_555
O4 C6 1_555 1_555
O5 C12 1_555 1_555
O6 C5 1_555 1_555
O7 C16 1_555 1_555
O8 H3 1_555 1_555
C1 H4 1_555 1_555
H5 C1 1_555 1_555
C2 C1 1_555 1_555
H6 C2 1_555 1_555
C3 C2 1_555 1_555
H7 C3 1_555 1_555
H8 C3 1_555 1_555
C4 O8 1_555 1_555
C5 C4 1_555 1_555
H9 C5 1_555 1_555
C6 C5 1_555 1_555
H10 C6 1_555 1_555
C7 C6 1_555 1_555
H11 C7 1_555 1_555
C8 O3 1_555 1_555
H12 C8 1_555 1_555
C9 O1 1_555 1_555
C10 C1 1_555 1_555
H13 C10 1_555 1_555
C11 C7 1_555 1_555
C12 O4 1_555 1_555
C13 C11 1_555 1_555
H14 C13 1_555 1_555
H15 C13 1_555 1_555
C14 C10 1_555 1_555
H16 C14 1_555 1_555
H17 C14 1_555 1_555
H18 C14 1_555 1_555
C15 C4 1_555 1_555
H19 C15 1_555 1_555
H20 C15 1_555 1_555
H21 C15 1_555 1_555
C16 O6 1_555 1_555
C17 C16 1_555 1_555
C18 C17 1_555 1_555
H22 C18 1_555 1_555
C19 C18 1_555 1_555
H23 C19 1_555 1_555
H24 C19 1_555 1_555
H25 C19 1_555 1_555
C20 C17 1_555 1_555
H26 C20 1_555 1_555
H27 C20 1_555 1_555
H28 C20 1_555 1_555
O9 H36 1_555 1_555
H37 O9 1_555 1_555
O10 H38 1_555 1_555
H39 O10 1_555 1_555
O2 C9 1_555 1_555
C3 C4 1_555 1_555
C7 C8 1_555 1_555
C8 C9 1_555 1_555
C9 C10 1_555 1_555
C11 C12 1_555 1_555

#END
