
#######################################################################
#
#                 Cambridge Crystallographic Data Centre
#                                CCDC 
#
#######################################################################
#
# If this CIF has been generated from an entry in the Cambridge 
# Structural Database, then it will include bibliographic, chemical, 
# crystal, experimental, refinement or atomic coordinate data resulting 
# from the CCDC's data processing and validation procedures.
#
#######################################################################

data_IZECOH
_chemical_compound_source        'Carpesium cernuum'
_chemical_name_common            
(2R,4S,5R,6S,8R,9S,2''S)-8-angeloyloxy-4,9-dihydroxy-2,9-epoxy-5-(2-methylbutanoyloxy)germacran-6,12-olide
_chemical_formula_moiety         'C25 H36 O9'
_chemical_name_systematic        
'1,9-dihydroxy-9,13-dimethyl-8-((2-methylbutanoyl)oxy)-4-methylene-5-oxo-6,14-dioxatricyclo[9.2.1.0^3,7^]tetradec-2-yl 2-methylbut-2-enoate'
_symmetry_cell_setting           orthorhombic
_symmetry_space_group_name_H-M   'P 21 21 21'
_symmetry_Int_Tables_number      19
_space_group_name_Hall           'P 2ac 2ab'
loop_
_symmetry_equiv_pos_site_id
_symmetry_equiv_pos_as_xyz
1 x,y,z
2 1/2+x,1/2-y,-z
3 -x,1/2+y,1/2-z
4 1/2-x,-y,1/2+z
_cell_length_a                   9.1352(6)
_cell_length_b                   13.4879(10)
_cell_length_c                   20.6303(14)
_cell_angle_alpha                90
_cell_angle_beta                 90
_cell_angle_gamma                90
_cell_volume                     2541.96
_exptl_crystal_colour            colorless
_exptl_crystal_description       block
_cell_formula_units_Z            4
loop_
_atom_site_label
_atom_site_type_symbol
_atom_site_fract_x
_atom_site_fract_y
_atom_site_fract_z
O1 O 1.1378(3) 0.2815(2) 0.94779(13)
O2 O 1.1367(3) 0.2046(3) 0.74623(14)
H1 H 1.0811 0.1666 0.7274
O3 O 0.8685(3) 0.1743(2) 0.79687(13)
O4 O 0.6938(3) 0.2048(2) 0.87048(13)
O5 O 0.8241(3) 0.3620(2) 0.78957(14)
O6 O 0.6316(4) 0.4627(3) 0.78911(19)
O7 O 1.0452(3) 0.5423(2) 0.94716(13)
O8 O 1.0457(3) 0.6054(2) 0.84729(14)
O9 O 1.0504(3) 0.3880(2) 1.02603(12)
H2 H 1.0916 0.3636 1.0576
C1 C 1.3822(4) 0.3412(3) 0.9324(2)
H3 H 1.4737 0.3140 0.9482
H4 H 1.4021 0.3830 0.8952
C2 C 0.7309(4) 0.1680(3) 0.8196(2)
C3 C 1.0393(4) 0.6173(3) 0.9052(2)
C4 C 1.2731(4) 0.2572(3) 0.9145(2)
H5 H 1.3105 0.1936 0.9305
C5 C 0.6321(5) 0.1115(4) 0.7743(2)
H6 H 0.5396 0.0999 0.7971
C6 C 1.0270(6) 0.7179(4) 0.9351(3)
C7 C 1.2510(4) 0.2514(3) 0.8417(2)
H7 H 1.3408 0.2258 0.8230
H8 H 1.2396 0.3187 0.8259
C8 C 0.6932(6) 0.0121(4) 0.7559(3)
H9 H 0.6293 -0.0188 0.7243
H10 H 0.7884 0.0211 0.7359
C9 C 1.0080(10) 0.7348(5) 0.9972(3)
H11 H 1.0067 0.8019 1.0076
C10 C 1.1243(4) 0.1902(3) 0.8142(2)
C11 C 0.7081(8) -0.0537(5) 0.8124(3)
H12 H 0.7365 -0.1187 0.7982
H13 H 0.6161 -0.0576 0.8348
H14 H 0.7813 -0.0277 0.8411
C12 C 0.9882(15) 0.6696(7) 1.0539(3)
H15 H 0.9736 0.6027 1.0396
H16 H 0.9044 0.6911 1.0783
H17 H 1.0738 0.6728 1.0809
C13 C 0.9725(4) 0.2280(4) 0.83671(19)
H18 H 0.9578 0.2094 0.8822
C14 C 0.5973(6) 0.1777(5) 0.7138(3)
H19 H 0.5685 0.2427 0.7280
H20 H 0.5192 0.1483 0.6894
H21 H 0.6830 0.1828 0.6871
C15 C 1.0394(9) 0.8016(4) 0.8871(3)
H22 H 0.9582 0.7991 0.8576
H23 H 1.1293 0.7952 0.8633
H24 H 1.0387 0.8637 0.9098
C16 C 0.9502(4) 0.3405(3) 0.82969(19)
H25 H 1.0371 0.3685 0.8087
C17 C 0.9260(4) 0.3953(3) 0.89507(19)
H26 H 0.8967 0.3460 0.9274
C18 C 1.0696(4) 0.4460(3) 0.91946(18)
H27 H 1.1375 0.4525 0.8829
C19 C 1.1413(4) 0.3807(3) 0.97191(18)
C20 C 1.3038(5) 0.3993(3) 0.98538(19)
H28 H 1.3270 0.3671 1.0267
C21 C 0.7956(5) 0.4597(4) 0.8811(2)
C22 C 0.7388(5) 0.4321(4) 0.8168(3)
C23 C 0.7264(6) 0.5254(5) 0.9186(3)
C24 C 1.3535(5) 0.5070(4) 0.9907(2)
H29 H 1.3428 0.5389 0.9493
H30 H 1.4543 0.5091 1.0037
H31 H 1.2946 0.5407 1.0223
C25 C 1.1403(5) 0.0806(3) 0.8322(2)
H32 H 1.0619 0.0434 0.8130
H33 H 1.1368 0.0736 0.8785
H34 H 1.2323 0.0561 0.8164
loop_
_geom_bond_atom_site_label_1
_geom_bond_atom_site_label_2
_geom_bond_site_symmetry_1
_geom_bond_site_symmetry_2
O1 C4 1_555 1_555
O2 H1 1_555 1_555
O3 C2 1_555 1_555
O4 C2 1_555 1_555
O5 C16 1_555 1_555
O6 C22 1_555 1_555
O7 C3 1_555 1_555
O8 C3 1_555 1_555
O9 H2 1_555 1_555
C1 H3 1_555 1_555
H4 C1 1_555 1_555
C2 C5 1_555 1_555
C3 C6 1_555 1_555
C4 C1 1_555 1_555
H5 C4 1_555 1_555
C5 H6 1_555 1_555
C6 C9 1_555 1_555
C7 C4 1_555 1_555
H7 C7 1_555 1_555
H8 C7 1_555 1_555
C8 C5 1_555 1_555
H9 C8 1_555 1_555
H10 C8 1_555 1_555
C9 H11 1_555 1_555
C10 O2 1_555 1_555
C11 C8 1_555 1_555
H12 C11 1_555 1_555
H13 C11 1_555 1_555
H14 C11 1_555 1_555
C12 C9 1_555 1_555
H15 C12 1_555 1_555
H16 C12 1_555 1_555
H17 C12 1_555 1_555
C13 O3 1_555 1_555
H18 C13 1_555 1_555
C14 C5 1_555 1_555
H19 C14 1_555 1_555
H20 C14 1_555 1_555
H21 C14 1_555 1_555
C15 C6 1_555 1_555
H22 C15 1_555 1_555
H23 C15 1_555 1_555
H24 C15 1_555 1_555
C16 C13 1_555 1_555
H25 C16 1_555 1_555
C17 C16 1_555 1_555
H26 C17 1_555 1_555
C18 O7 1_555 1_555
H27 C18 1_555 1_555
C19 O1 1_555 1_555
C20 C1 1_555 1_555
H28 C20 1_555 1_555
C21 C17 1_555 1_555
C22 O5 1_555 1_555
C23 C21 1_555 1_555
C24 C20 1_555 1_555
H29 C24 1_555 1_555
H30 C24 1_555 1_555
H31 C24 1_555 1_555
C25 C10 1_555 1_555
H32 C25 1_555 1_555
H33 C25 1_555 1_555
H34 C25 1_555 1_555
O9 C19 1_555 1_555
C7 C10 1_555 1_555
C10 C13 1_555 1_555
C17 C18 1_555 1_555
C18 C19 1_555 1_555
C19 C20 1_555 1_555
C21 C22 1_555 1_555

#END
