
#######################################################################
#
#                 Cambridge Crystallographic Data Centre
#                                CCDC 
#
#######################################################################
#
# If this CIF has been generated from an entry in the Cambridge 
# Structural Database, then it will include bibliographic, chemical, 
# crystal, experimental, refinement or atomic coordinate data resulting 
# from the CCDC's data processing and validation procedures.
#
#######################################################################

data_IZECAT
_chemical_compound_source        'Carpesium cernuum'
_chemical_name_common            
"(2S,4S,5R,6S,8R,9R,2''R)-8-angeloyloxy-4,9-dihydroxy-2,9-expoxy-5-(2-methylbutanoyloxy)germacran-6,12-olide unknown solvate"
_chemical_formula_moiety         'C25 H36 O9'
_chemical_name_systematic        
'1,9-dihydroxy-9,13-dimethyl-8-((2-methylbutanoyl)oxy)-4-methylene-5-oxo-6,14-dioxatricyclo[9.2.1.0^3,7^]tetradec-2-yl 2-methylbut-2-enoate unknown solvate'
_symmetry_cell_setting           trigonal
_symmetry_space_group_name_H-M   'P 32 2 1'
_symmetry_Int_Tables_number      154
_space_group_name_Hall           'P 32 2"'
loop_
_symmetry_equiv_pos_site_id
_symmetry_equiv_pos_as_xyz
1 x,y,z
2 -y,x-y,2/3+z
3 -x+y,-x,1/3+z
4 x-y,-y,1/3-z
5 -x,-x+y,2/3-z
6 y,x,-z
_cell_length_a                   18.4580(2)
_cell_length_b                   18.4580(2)
_cell_length_c                   28.8647(4)
_cell_angle_alpha                90
_cell_angle_beta                 90
_cell_angle_gamma                120
_cell_volume                     8516.61
_exptl_crystal_colour            colorless
_exptl_crystal_description       prism
_cell_formula_units_Z            12
loop_
_atom_site_label
_atom_site_type_symbol
_atom_site_fract_x
_atom_site_fract_y
_atom_site_fract_z
O1 O -0.35757(15) 0.23498(15) 0.51096(8)
O2 O -0.33113(16) 0.13213(16) 0.48380(9)
H1 H -0.3814 0.0939 0.4851
O3 O -0.17399(16) 0.21620(16) 0.52606(9)
O4 O -0.08020(19) 0.2967(2) 0.47171(11)
O5 O -0.13116(18) 0.46316(16) 0.50415(9)
O6 O 0.00334(19) 0.50590(19) 0.51866(11)
O7 O -0.23524(17) 0.51289(15) 0.52668(8)
O8 O -0.15960(18) 0.59151(17) 0.58705(9)
O9 O -0.38770(18) 0.37574(18) 0.51123(9)
H2 H -0.4110 0.3252 0.5034
C1 C -0.1861(2) 0.5861(2) 0.54825(12)
C2 C -0.1672(2) 0.6587(2) 0.51671(12)
H3 H -0.2148 0.6408 0.4945
C3 C -0.1570(3) 0.7336(3) 0.54351(15)
H4 H -0.1383 0.7816 0.5220
H5 H -0.1128 0.7491 0.5672
C4 C -0.2368(3) 0.7179(3) 0.56723(17)
H6 H -0.2817 0.6995 0.5443
H7 H -0.2278 0.7696 0.5820
H8 H -0.2526 0.6744 0.5908
C5 C -0.0885(3) 0.6780(3) 0.48910(15)
H9 H -0.0403 0.6998 0.5101
H10 H -0.0783 0.7198 0.4652
H11 H -0.0965 0.6266 0.4744
C6 C -0.1017(3) 0.2437(3) 0.50129(15)
C7 C -0.0568(3) 0.2008(3) 0.51634(18)
C8 C 0.0211(3) 0.2249(4) 0.5018(2)
H12 H 0.0439 0.1920 0.5127
C9 C 0.0768(4) 0.2962(6) 0.4710(2)
H13 H 0.1353 0.3170 0.4797
H14 H 0.0637 0.3412 0.4744
H15 H 0.0681 0.2771 0.4388
C10 C -0.1006(3) 0.1286(3) 0.5482(2)
H16 H -0.1182 0.1462 0.5761
H17 H -0.0627 0.1082 0.5571
H18 H -0.1499 0.0838 0.5327
C11 C -0.4286(2) 0.1454(2) 0.57303(13)
H19 H -0.4738 0.0940 0.5585
H20 H -0.4425 0.1466 0.6061
C12 C -0.4157(2) 0.2237(2) 0.54754(12)
H21 H -0.4700 0.2119 0.5334
C13 C -0.3836(2) 0.3002(2) 0.57899(12)
H22 H -0.3385 0.3025 0.5985
H23 H -0.4297 0.2914 0.6000
C14 C -0.3499(2) 0.3860(2) 0.55583(12)
C15 C -0.2540(2) 0.4355(2) 0.54995(12)
H24 H -0.2267 0.4487 0.5811
C16 C -0.2148(2) 0.3964(2) 0.51938(12)
H25 H -0.2511 0.3694 0.4917
C17 C -0.1985(2) 0.3324(2) 0.54480(12)
H26 H -0.2312 0.3145 0.5743
C18 C -0.2221(2) 0.2554(2) 0.51389(13)
H27 H -0.2111 0.2736 0.4808
C19 C -0.3147(2) 0.1897(2) 0.51958(12)
C20 C -0.3437(2) 0.1503(2) 0.56784(12)
H28 H -0.3047 0.1909 0.5913
C21 C -0.1073(2) 0.3820(2) 0.55528(13)
C22 C -0.0694(2) 0.4563(2) 0.52517(13)
C23 C -0.0624(3) 0.3684(3) 0.58645(15)
H29 H -0.0043 0.4072 0.5897
H30 H -0.0884 0.3200 0.6055
C24 C -0.3471(3) 0.0674(2) 0.57537(14)
H31 H -0.3626 0.0496 0.6076
H32 H -0.2922 0.0737 0.5688
H33 H -0.3889 0.0252 0.5546
C25 C -0.3745(3) 0.4392(2) 0.58578(13)
H34 H -0.3527 0.4945 0.5717
H35 H -0.3510 0.4453 0.6169
H36 H -0.4356 0.4116 0.5878
O10 O 0.20749(16) 0.35309(18) 0.58177(8)
O11 O 0.1815(2) 0.2167(2) 0.58023(10)
H37 H 0.1376 0.1765 0.5912
O12 O 0.4109(2) 0.2729(3) 0.61483(14)
O13 O 0.29988(17) 0.26352(19) 0.65390(10)
O14 O 0.45706(16) 0.52342(18) 0.61027(9)
O15 O 0.40479(16) 0.62607(17) 0.60274(8)
O16 O 0.45075(19) 0.67688(19) 0.67385(9)
O17 O 0.25357(18) 0.5148(2) 0.55256(9)
H38 H 0.2972 0.5144 0.5448
O18 O 0.56096(18) 0.5334(2) 0.65472(11)
C26 C 0.0852(2) 0.2962(3) 0.62613(13)
H39 H 0.0415 0.2520 0.6065
H40 H 0.0579 0.3118 0.6506
C27 C 0.1440(2) 0.3716(3) 0.59750(13)
H41 H 0.1130 0.3753 0.5700
C28 C 0.1806(2) 0.4527(3) 0.62402(13)
H42 H 0.1986 0.4437 0.6548
H43 H 0.1356 0.4661 0.6293
C29 C 0.2556(2) 0.5300(3) 0.60158(13)
C30 C 0.3398(2) 0.5472(2) 0.62209(12)
H44 H 0.3384 0.5527 0.6565
C31 C 0.3649(2) 0.4813(2) 0.61058(12)
H45 H 0.3429 0.4569 0.5793
C32 C 0.3361(2) 0.4103(2) 0.64651(12)
H46 H 0.2935 0.4114 0.6675
C33 C 0.2980(2) 0.3235(3) 0.62291(13)
H47 H 0.3319 0.3286 0.5948
C34 C 0.2067(2) 0.2887(3) 0.60824(12)
C35 C 0.1421(3) 0.2675(3) 0.64699(13)
H48 H 0.1712 0.3036 0.6744
C36 C 0.4150(2) 0.4354(3) 0.67347(13)
C37 C 0.4859(2) 0.5001(3) 0.64764(14)
C38 C 0.4252(3) 0.4089(3) 0.71426(14)
H49 H 0.4796 0.4321 0.7273
H50 H 0.3782 0.3667 0.7305
C39 C 0.0967(3) 0.1763(3) 0.66263(17)
H51 H 0.0639 0.1704 0.6905
H52 H 0.1378 0.1589 0.6695
H53 H 0.0593 0.1410 0.6379
C40 C 0.2467(3) 0.6074(3) 0.61007(16)
H54 H 0.2925 0.6560 0.5946
H55 H 0.2489 0.6182 0.6434
H56 H 0.1931 0.5974 0.5976
C41 C 0.4576(2) 0.6848(2) 0.63253(13)
C42 C 0.5262(3) 0.7601(3) 0.60787(13)
H57 H 0.5123 0.7566 0.5742
C43 C 0.5358(3) 0.8407(3) 0.62752(15)
H58 H 0.5485 0.8432 0.6610
H59 H 0.5841 0.8885 0.6123
C44 C 0.4598(4) 0.8498(4) 0.62135(19)
H60 H 0.4499 0.8529 0.5882
H61 H 0.4691 0.9011 0.6367
H62 H 0.4111 0.8015 0.6351
C45 C 0.6068(3) 0.7565(4) 0.61390(19)
H63 H 0.6192 0.7574 0.6470
H64 H 0.6532 0.8048 0.5986
H65 H 0.5996 0.7048 0.6000
C46 C 0.3604(3) 0.2429(3) 0.64549(17)
C47 C 0.3589(3) 0.1801(3) 0.67763(18)
C48 C 0.3242(4) 0.1633(5) 0.7161(3)
H66 H 0.3308 0.1213 0.7312
C49 C 0.2760(4) 0.1895(4) 0.7449(2)
H67 H 0.2615 0.2253 0.7267
H68 H 0.3096 0.2207 0.7718
H69 H 0.2247 0.1400 0.7555
C50 C 0.4124(6) 0.1428(8) 0.6607(4)
H70 H 0.4718 0.1852 0.6629
H71 H 0.3984 0.1248 0.6284
H72 H 0.4011 0.0945 0.6800
loop_
_geom_bond_atom_site_label_1
_geom_bond_atom_site_label_2
_geom_bond_site_symmetry_1
_geom_bond_site_symmetry_2
O1 C12 1_555 1_555
O2 H1 1_555 1_555
O3 C6 1_555 1_555
O4 C6 1_555 1_555
O5 C16 1_555 1_555
O6 C22 1_555 1_555
O7 C1 1_555 1_555
O8 C1 1_555 1_555
O9 H2 1_555 1_555
C1 C2 1_555 1_555
C2 H3 1_555 1_555
C3 C2 1_555 1_555
H4 C3 1_555 1_555
H5 C3 1_555 1_555
C4 C3 1_555 1_555
H6 C4 1_555 1_555
H7 C4 1_555 1_555
H8 C4 1_555 1_555
C5 C2 1_555 1_555
H9 C5 1_555 1_555
H10 C5 1_555 1_555
H11 C5 1_555 1_555
C6 C7 1_555 1_555
C7 C8 1_555 1_555
C8 H12 1_555 1_555
C9 C8 1_555 1_555
H13 C9 1_555 1_555
H14 C9 1_555 1_555
H15 C9 1_555 1_555
C10 C7 1_555 1_555
H16 C10 1_555 1_555
H17 C10 1_555 1_555
H18 C10 1_555 1_555
C11 H19 1_555 1_555
H20 C11 1_555 1_555
C12 C11 1_555 1_555
H21 C12 1_555 1_555
C13 C12 1_555 1_555
H22 C13 1_555 1_555
H23 C13 1_555 1_555
C14 O9 1_555 1_555
C15 O7 1_555 1_555
H24 C15 1_555 1_555
C16 C15 1_555 1_555
H25 C16 1_555 1_555
C17 C16 1_555 1_555
H26 C17 1_555 1_555
C18 O3 1_555 1_555
H27 C18 1_555 1_555
C19 O1 1_555 1_555
C20 C11 1_555 1_555
H28 C20 1_555 1_555
C21 C17 1_555 1_555
C22 O5 1_555 1_555
C23 C21 1_555 1_555
H29 C23 1_555 1_555
H30 C23 1_555 1_555
C24 C20 1_555 1_555
H31 C24 1_555 1_555
H32 C24 1_555 1_555
H33 C24 1_555 1_555
C25 C14 1_555 1_555
H34 C25 1_555 1_555
H35 C25 1_555 1_555
H36 C25 1_555 1_555
O10 C27 1_555 1_555
O11 H37 1_555 1_555
O12 C46 1_555 1_555
O13 C33 1_555 1_555
O14 C31 1_555 1_555
O15 C30 1_555 1_555
O16 C41 1_555 1_555
O17 H38 1_555 1_555
O18 C37 1_555 1_555
C26 H39 1_555 1_555
H40 C26 1_555 1_555
C27 C26 1_555 1_555
H41 C27 1_555 1_555
C28 C27 1_555 1_555
H42 C28 1_555 1_555
H43 C28 1_555 1_555
C29 O17 1_555 1_555
C30 C29 1_555 1_555
H44 C30 1_555 1_555
C31 C30 1_555 1_555
H45 C31 1_555 1_555
C32 C31 1_555 1_555
H46 C32 1_555 1_555
C33 C32 1_555 1_555
H47 C33 1_555 1_555
C34 O10 1_555 1_555
C35 C26 1_555 1_555
H48 C35 1_555 1_555
C36 C32 1_555 1_555
C37 O14 1_555 1_555
C38 C36 1_555 1_555
H49 C38 1_555 1_555
H50 C38 1_555 1_555
C39 C35 1_555 1_555
H51 C39 1_555 1_555
H52 C39 1_555 1_555
H53 C39 1_555 1_555
C40 C29 1_555 1_555
H54 C40 1_555 1_555
H55 C40 1_555 1_555
H56 C40 1_555 1_555
C41 O15 1_555 1_555
C42 C41 1_555 1_555
H57 C42 1_555 1_555
C43 C42 1_555 1_555
H58 C43 1_555 1_555
H59 C43 1_555 1_555
C44 C43 1_555 1_555
H60 C44 1_555 1_555
H61 C44 1_555 1_555
H62 C44 1_555 1_555
C45 C42 1_555 1_555
H63 C45 1_555 1_555
H64 C45 1_555 1_555
H65 C45 1_555 1_555
C46 O13 1_555 1_555
C47 C46 1_555 1_555
C48 C47 1_555 1_555
H66 C48 1_555 1_555
C49 C48 1_555 1_555
H67 C49 1_555 1_555
H68 C49 1_555 1_555
H69 C49 1_555 1_555
C50 C47 1_555 1_555
H70 C50 1_555 1_555
H71 C50 1_555 1_555
H72 C50 1_555 1_555
O2 C19 1_555 1_555
C13 C14 1_555 1_555
C14 C15 1_555 1_555
C17 C18 1_555 1_555
C18 C19 1_555 1_555
C19 C20 1_555 1_555
C21 C22 1_555 1_555
O11 C34 1_555 1_555
C28 C29 1_555 1_555
C33 C34 1_555 1_555
C34 C35 1_555 1_555
C36 C37 1_555 1_555

#END
