
#######################################################################
#
#                 Cambridge Crystallographic Data Centre
#                                CCDC 
#
#######################################################################
#
# If this CIF has been generated from an entry in the Cambridge 
# Structural Database, then it will include bibliographic, chemical, 
# crystal, experimental, refinement or atomic coordinate data resulting 
# from the CCDC's data processing and validation procedures.
#
#######################################################################

data_IZEDIC
_chemical_compound_source        'Carpesium cernuum'
_chemical_name_common            'cernuumolide B unknown solvate'
_chemical_formula_moiety         'C26 H40 O10'
_chemical_name_systematic        
'4,10-dihydroxy-3-(methoxymethyl)-6,10-dimethyl-5-((3-methylbutanoyl)oxy)-2,9-dioxododecahydrocyclodeca[b]furan-11-yl 2-methylbut-2-enoate unknown solvate'
_chemical_properties_biological  
'tested for anti-cancer activity against A549, HCT116, MDA-MB-231 and BEL7404 cell lines'
_symmetry_cell_setting           hexagonal
_symmetry_space_group_name_H-M   'P 61'
_symmetry_Int_Tables_number      169
_space_group_name_Hall           'P 61'
loop_
_symmetry_equiv_pos_site_id
_symmetry_equiv_pos_as_xyz
1 x,y,z
2 x-y,x,1/6+z
3 -y,x-y,1/3+z
4 -x,-y,1/2+z
5 -x+y,-x,2/3+z
6 y,-x+y,5/6+z
_cell_length_a                   22.8955(3)
_cell_length_b                   22.8955(3)
_cell_length_c                   9.7127(2)
_cell_angle_alpha                90
_cell_angle_beta                 90
_cell_angle_gamma                120
_cell_volume                     4409.31
_exptl_crystal_colour            colorless
_exptl_crystal_description       prism
_cell_formula_units_Z            6
loop_
_atom_site_label
_atom_site_type_symbol
_atom_site_fract_x
_atom_site_fract_y
_atom_site_fract_z
O1 O 0.77595(11) 0.41687(13) 0.0760(3)
O2 O 0.94411(12) 0.49998(14) -0.0467(3)
H1 H 0.9638 0.5321 -0.1024
O3 O 0.95482(13) 0.60197(13) 0.1367(3)
O4 O 0.8832(2) 0.63767(19) 0.1941(5)
O5 O 0.94138(11) 0.53610(12) 0.3847(3)
O6 O 0.91850(12) 0.50771(15) 0.6048(3)
O7 O 0.98076(11) 0.39739(11) 0.2592(3)
H2 H 1.0137 0.4215 0.2078
O8 O 0.89929(13) 0.28553(13) 0.0962(3)
O9 O 0.9093(2) 0.22385(19) 0.2651(6)
O10 O 0.77909(11) 0.38278(12) 0.4599(3)
C1 C 0.78688(19) 0.3019(2) -0.0081(4)
H3 H 0.7952 0.2709 -0.0652
H4 H 0.7389 0.2888 -0.0206
C2 C 0.82995(18) 0.3729(2) -0.0653(4)
H5 H 0.8775 0.3834 -0.0679
H6 H 0.8158 0.3735 -0.1613
C3 C 0.82662(16) 0.42763(19) 0.0141(4)
C4 C 0.88685(16) 0.50043(19) 0.0091(4)
C5 C 0.90378(16) 0.53208(17) 0.1541(4)
H7 H 0.8626 0.5289 0.1972
C6 C 0.93559(15) 0.50377(16) 0.2518(3)
H8 H 0.9815 0.5158 0.2177
C7 C 0.89410(14) 0.42755(15) 0.2791(3)
H9 H 0.8464 0.4115 0.2511
C8 C 0.91972(15) 0.38818(16) 0.1968(3)
H10 H 0.9299 0.4063 0.1007
C9 C 0.86973(16) 0.31280(17) 0.1910(4)
H11 H 0.8677 0.2934 0.2843
C10 C 0.79700(16) 0.28966(18) 0.1444(4)
H12 H 0.7801 0.3143 0.2020
C11 C 0.89600(15) 0.42127(16) 0.4350(4)
H13 H 0.9316 0.4097 0.4579
C12 C 0.91878(15) 0.49125(18) 0.4874(4)
C13 C 0.83000(16) 0.36859(19) 0.5016(4)
H14 H 0.8185 0.3227 0.4715
H15 H 0.8344 0.3709 0.6031
C14 C 0.75236(19) 0.21364(19) 0.1763(6)
H16 H 0.7635 0.1875 0.1125
H17 H 0.7048 0.2004 0.1656
H18 H 0.7605 0.2048 0.2711
C15 C 0.8644(2) 0.5392(2) -0.0854(4)
H19 H 0.9022 0.5851 -0.0995
H20 H 0.8267 0.5413 -0.0428
H21 H 0.8501 0.5161 -0.1743
C16 C 0.71625(19) 0.3360(2) 0.5159(5)
H22 H 0.7017 0.2912 0.4776
H23 H 0.6830 0.3495 0.4929
H24 H 0.7202 0.3347 0.6161
C17 C 0.9385(3) 0.6504(3) 0.1564(7)
C18 C 0.9996(4) 0.7184(3) 0.1242(10)
C19 C 0.9958(6) 0.7671(5) 0.0768(13)
H25 H 1.0363 0.8065 0.0505
C20 C 0.9345(5) 0.7666(6) 0.0605(15)
H26 H 0.9173 0.7517 -0.0328
H27 H 0.9419 0.8121 0.0755
H28 H 0.9017 0.7356 0.1276
C21 C 1.0738(4) 0.7203(4) 0.1533(13)
H29 H 1.0739 0.7043 0.2468
H30 H 1.1113 0.7666 0.1433
H31 H 1.0791 0.6911 0.0866
C22 C 0.9186(3) 0.2435(3) 0.1489(8)
C23 C 0.9522(4) 0.2249(4) 0.0404(9)
H32 H 0.9686 0.2592 -0.0335
H33 H 0.9191 0.1810 -0.0004
C24 C 1.0111(4) 0.2200(5) 0.0998(12)
H34 H 0.9961 0.1891 0.1812
C25 C 1.0629(5) 0.2898(6) 0.1423(15)
H35 H 1.0575 0.2960 0.2403
H36 H 1.0572 0.3227 0.0881
H37 H 1.1081 0.2963 0.1264
C26 C 1.0358(6) 0.1903(7) -0.0194(17)
H38 H 0.9991 0.1455 -0.0453
H39 H 1.0745 0.1868 0.0127
H40 H 1.0491 0.2203 -0.0995
loop_
_geom_bond_atom_site_label_1
_geom_bond_atom_site_label_2
_geom_bond_site_symmetry_1
_geom_bond_site_symmetry_2
O1 C3 1_555 1_555
O2 H1 1_555 1_555
O3 C5 1_555 1_555
O4 C17 1_555 1_555
O5 C6 1_555 1_555
O6 C12 1_555 1_555
O7 H2 1_555 1_555
O8 C9 1_555 1_555
O9 C22 1_555 1_555
O10 C13 1_555 1_555
C1 H3 1_555 1_555
H4 C1 1_555 1_555
C2 C1 1_555 1_555
H5 C2 1_555 1_555
H6 C2 1_555 1_555
C3 C2 1_555 1_555
C4 O2 1_555 1_555
C5 C4 1_555 1_555
H7 C5 1_555 1_555
C6 C5 1_555 1_555
H8 C6 1_555 1_555
C7 C6 1_555 1_555
H9 C7 1_555 1_555
C8 O7 1_555 1_555
H10 C8 1_555 1_555
C9 C8 1_555 1_555
H11 C9 1_555 1_555
C10 C1 1_555 1_555
H12 C10 1_555 1_555
C11 C7 1_555 1_555
H13 C11 1_555 1_555
C12 O5 1_555 1_555
C13 C11 1_555 1_555
H14 C13 1_555 1_555
H15 C13 1_555 1_555
C14 C10 1_555 1_555
H16 C14 1_555 1_555
H17 C14 1_555 1_555
H18 C14 1_555 1_555
C15 C4 1_555 1_555
H19 C15 1_555 1_555
H20 C15 1_555 1_555
H21 C15 1_555 1_555
C16 O10 1_555 1_555
H22 C16 1_555 1_555
H23 C16 1_555 1_555
H24 C16 1_555 1_555
C17 O3 1_555 1_555
C18 C17 1_555 1_555
C19 C18 1_555 1_555
H25 C19 1_555 1_555
C20 C19 1_555 1_555
H26 C20 1_555 1_555
H27 C20 1_555 1_555
H28 C20 1_555 1_555
C21 C18 1_555 1_555
H29 C21 1_555 1_555
H30 C21 1_555 1_555
H31 C21 1_555 1_555
C22 O8 1_555 1_555
C23 C22 1_555 1_555
H32 C23 1_555 1_555
H33 C23 1_555 1_555
C24 C23 1_555 1_555
H34 C24 1_555 1_555
C25 C24 1_555 1_555
H35 C25 1_555 1_555
H36 C25 1_555 1_555
H37 C25 1_555 1_555
C26 C24 1_555 1_555
H38 C26 1_555 1_555
H39 C26 1_555 1_555
H40 C26 1_555 1_555
C3 C4 1_555 1_555
C7 C8 1_555 1_555
C9 C10 1_555 1_555
C11 C12 1_555 1_555

#END
