
#######################################################################
#
#                 Cambridge Crystallographic Data Centre
#                                CCDC 
#
#######################################################################
#
# If this CIF has been generated from an entry in the Cambridge 
# Structural Database, then it will include bibliographic, chemical, 
# crystal, experimental, refinement or atomic coordinate data resulting 
# from the CCDC's data processing and validation procedures.
#
#######################################################################

data_IZEDEY
_chemical_compound_source        'Carpesium cernuum'
_chemical_name_common            'cernuumolide H'
_chemical_formula_moiety         'C24 H34 O9'
_chemical_name_systematic        
'4,10-dihydroxy-11-(isobutyryloxy)-6,10-dimethyl-3-methylene-2,9-dioxododecahydrocyclodeca[b]furan-5-yl 2-methylbut-2-enoate'
_chemical_properties_biological  
'tested for anti-cancer activity against A549, HCT116, MDA-MB-231 and BEL7404 cell lines'
_symmetry_cell_setting           orthorhombic
_symmetry_space_group_name_H-M   'P 21 21 21'
_symmetry_Int_Tables_number      19
_space_group_name_Hall           'P 2ac 2ab'
loop_
_symmetry_equiv_pos_site_id
_symmetry_equiv_pos_as_xyz
1 x,y,z
2 1/2+x,1/2-y,-z
3 -x,1/2+y,1/2-z
4 1/2-x,-y,1/2+z
_cell_length_a                   9.8736(3)
_cell_length_b                   18.0856(6)
_cell_length_c                   27.7795(9)
_cell_angle_alpha                90
_cell_angle_beta                 90
_cell_angle_gamma                90
_cell_volume                     4960.58
_exptl_crystal_colour            colorless
_exptl_crystal_description       block
_cell_formula_units_Z            8
loop_
_atom_site_label
_atom_site_type_symbol
_atom_site_fract_x
_atom_site_fract_y
_atom_site_fract_z
O1 O -0.5649(5) -0.3539(2) -0.25937(18)
O2 O -0.4324(5) -0.5189(2) -0.21238(17)
H1 H -0.4027 -0.5335 -0.1865
O3 O -0.5903(5) -0.4753(2) -0.13106(16)
O4 O -0.6636(8) -0.3709(3) -0.09667(18)
O5 O -0.8433(4) -0.5004(2) -0.16590(14)
O6 O -1.0640(5) -0.4942(3) -0.17093(18)
O7 O -0.7631(4) -0.61730(19) -0.27842(15)
H2 H -0.8126 -0.6188 -0.2547
O8 O -0.6225(5) -0.5770(2) -0.35968(16)
O9 O -0.7797(9) -0.6128(4) -0.4120(2)
C1 C -0.5145(9) -0.4304(4) -0.3470(3)
H3 H -0.5016 -0.3781 -0.3534
H4 H -0.4688 -0.4572 -0.3726
C2 C -0.4430(7) -0.4483(4) -0.3004(3)
H5 H -0.3492 -0.4329 -0.3030
H6 H -0.4439 -0.5015 -0.2958
C3 C -0.5053(6) -0.4117(3) -0.2559(3)
C4 C -0.4872(6) -0.4467(3) -0.2066(2)
C5 C -0.6228(6) -0.4490(3) -0.1791(2)
H7 H -0.6624 -0.3993 -0.1774
C6 C -0.7274(6) -0.5041(3) -0.1969(2)
H8 H -0.6887 -0.5538 -0.1947
C7 C -0.7779(6) -0.4917(3) -0.2491(2)
H9 H -0.7560 -0.4409 -0.2587
C8 C -0.7089(6) -0.5446(3) -0.2836(2)
H10 H -0.6135 -0.5472 -0.2740
C9 C -0.7112(7) -0.5229(3) -0.3371(2)
H11 H -0.8032 -0.5301 -0.3495
C10 C -0.6635(8) -0.4464(4) -0.3512(2)
H12 H -0.7106 -0.4112 -0.3302
C11 C -0.9274(6) -0.4978(3) -0.2429(2)
C12 C -0.9556(7) -0.4974(3) -0.1912(2)
C13 C -1.0251(7) -0.5033(4) -0.2746(3)
H13 H -1.1146 -0.5072 -0.2644
H14 H -1.0050 -0.5035 -0.3073
C14 C -0.7054(10) -0.4283(5) -0.4037(3)
H15 H -0.6655 -0.4637 -0.4251
H16 H -0.6745 -0.3796 -0.4119
H17 H -0.8023 -0.4304 -0.4065
C15 C -0.3844(7) -0.3972(4) -0.1795(3)
H18 H -0.3787 -0.4128 -0.1465
H19 H -0.4139 -0.3467 -0.1808
H20 H -0.2970 -0.4015 -0.1943
C16 C -0.6209(10) -0.4320(4) -0.0934(3)
C17 C -0.5933(19) -0.4725(6) -0.0459(4)
H21 H -0.5152 -0.5001 -0.0582
C18 C -0.6822(19) -0.5392(9) -0.0407(5)
H22 H -0.7735 -0.5266 -0.0494
H23 H -0.6800 -0.5561 -0.0080
H24 H -0.6501 -0.5778 -0.0616
C19 C -0.516(2) -0.4281(9) -0.0140(4)
H25 H -0.4351 -0.4119 -0.0299
H26 H -0.4930 -0.4564 0.0140
H27 H -0.5687 -0.3858 -0.0046
C20 C -0.6681(11) -0.6217(4) -0.3947(3)
C21 C -0.5707(11) -0.6815(4) -0.4061(4)
C22 C -0.5798(15) -0.7226(6) -0.4434(5)
H28 H -0.5150 -0.7596 -0.4464
C23 C -0.6795(19) -0.7179(8) -0.4814(4)
H29 H -0.6345 -0.7115 -0.5118
H30 H -0.7383 -0.6766 -0.4756
H31 H -0.7319 -0.7626 -0.4822
C24 C -0.4581(12) -0.6939(6) -0.3682(5)
H32 H -0.4068 -0.6492 -0.3643
H33 H -0.3993 -0.7329 -0.3788
H34 H -0.4984 -0.7073 -0.3380
C25 C -0.9146(7) -0.2784(3) -0.1867(2)
C26 C -0.9581(13) -0.2519(5) -0.1388(3)
H35 H -0.8771 -0.2728 -0.1237
C27 C -0.9217(13) -0.1810(7) -0.1250(4)
H36 H -0.8874 -0.1545 -0.1523
H37 H -0.8530 -0.1836 -0.1006
H38 H -0.9996 -0.1557 -0.1124
C28 C -1.0445(16) -0.3042(7) -0.1140(4)
H39 H -1.1367 -0.2970 -0.1239
H40 H -1.0373 -0.2966 -0.0799
H41 H -1.0166 -0.3537 -0.1217
C29 C -0.7607(11) -0.0773(4) -0.4901(3)
C30 C -0.8221(11) -0.0105(5) -0.5120(3)
C31 C -0.7785(11) 0.0140(6) -0.5548(4)
H42 H -0.8152 0.0587 -0.5649
C32 C -0.6808(12) -0.0198(7) -0.5881(4)
H43 H -0.6430 0.0178 -0.6085
H44 H -0.7260 -0.0561 -0.6075
H45 H -0.6096 -0.0430 -0.5701
C33 C -0.9265(15) 0.0307(7) -0.4830(5)
H46 H -0.9974 -0.0026 -0.4737
H47 H -0.9639 0.0699 -0.5022
H48 H -0.8847 0.0511 -0.4548
O10 O -0.9628(6) -0.3358(3) -0.3494(2)
O11 O -1.0811(4) -0.1686(2) -0.30142(17)
H49 H -1.1632 -0.1694 -0.3058
O12 O -0.9236(4) -0.22346(19) -0.21997(14)
O13 O -0.8830(6) -0.3402(2) -0.19774(17)
O14 O -0.6778(5) -0.1893(2) -0.25453(15)
O15 O -0.4566(5) -0.1927(3) -0.2586(2)
O16 O -0.7245(4) -0.07278(19) -0.36833(16)
H50 H -0.7782 -0.0386 -0.3648
O17 O -0.8422(5) -0.1030(2) -0.45399(16)
O18 O -0.6583(8) -0.1060(3) -0.5010(2)
C34 C -1.0328(11) -0.2236(7) -0.4264(5)
H51 H -1.0516 -0.1713 -0.4306
H52 H -1.0809 -0.2489 -0.4520
C35 C -1.0932(11) -0.2423(10) -0.3871(4)
H53 H -1.1663 -0.2753 -0.3963
H54 H -1.1354 -0.1979 -0.3746
C36 C -1.0227(7) -0.2780(5) -0.3456(3)
C37 C -1.0328(6) -0.2415(3) -0.2964(2)
C38 C -0.8965(6) -0.2430(3) -0.2697(2)
H55 H -0.8573 -0.2928 -0.2713
C39 C -0.7920(6) -0.1856(3) -0.2866(2)
H56 H -0.8325 -0.1362 -0.2843
C40 C -0.7403(6) -0.1973(3) -0.3384(2)
H57 H -0.7664 -0.2469 -0.3493
C41 C -0.7967(6) -0.1400(3) -0.3735(2)
H58 H -0.8910 -0.1305 -0.3645
C42 C -0.7958(7) -0.1655(3) -0.4260(2)
H59 H -0.7019 -0.1759 -0.4352
C43 C -0.8808(10) -0.2331(4) -0.4381(3)
H60 H -0.8478 -0.2733 -0.4176
C44 C -0.5883(7) -0.1948(3) -0.3312(3)
C45 C -0.5631(8) -0.1926(3) -0.2790(3)
C46 C -0.4871(9) -0.1943(5) -0.3615(3)
H61 H -0.3985 -0.1925 -0.3502
H62 H -0.5036 -0.1957 -0.3945
C47 C -0.8510(19) -0.2563(6) -0.4908(3)
H63 H -0.8500 -0.2132 -0.5110
H64 H -0.9201 -0.2897 -0.5017
H65 H -0.7644 -0.2804 -0.4924
C48 C -1.1405(6) -0.2885(3) -0.2690(3)
H66 H -1.1593 -0.2661 -0.2384
H67 H -1.1062 -0.3376 -0.2641
H68 H -1.2222 -0.2908 -0.2877
loop_
_geom_bond_atom_site_label_1
_geom_bond_atom_site_label_2
_geom_bond_site_symmetry_1
_geom_bond_site_symmetry_2
O1 C3 1_555 1_555
O2 H1 1_555 1_555
O3 C5 1_555 1_555
O4 C16 1_555 1_555
O5 C6 1_555 1_555
O6 C12 1_555 1_555
O7 H2 1_555 1_555
O8 C9 1_555 1_555
O9 C20 1_555 1_555
C1 H3 1_555 1_555
H4 C1 1_555 1_555
C2 C1 1_555 1_555
H5 C2 1_555 1_555
H6 C2 1_555 1_555
C3 C2 1_555 1_555
C4 O2 1_555 1_555
C5 C4 1_555 1_555
H7 C5 1_555 1_555
C6 C5 1_555 1_555
H8 C6 1_555 1_555
C7 C6 1_555 1_555
H9 C7 1_555 1_555
C8 O7 1_555 1_555
H10 C8 1_555 1_555
C9 C8 1_555 1_555
H11 C9 1_555 1_555
C10 C1 1_555 1_555
H12 C10 1_555 1_555
C11 C7 1_555 1_555
C12 O5 1_555 1_555
C13 C11 1_555 1_555
H13 C13 1_555 1_555
H14 C13 1_555 1_555
C14 C10 1_555 1_555
H15 C14 1_555 1_555
H16 C14 1_555 1_555
H17 C14 1_555 1_555
C15 C4 1_555 1_555
H18 C15 1_555 1_555
H19 C15 1_555 1_555
H20 C15 1_555 1_555
C16 O3 1_555 1_555
C17 C16 1_555 1_555
H21 C17 1_555 1_555
C18 C17 1_555 1_555
H22 C18 1_555 1_555
H23 C18 1_555 1_555
H24 C18 1_555 1_555
C19 C17 1_555 1_555
H25 C19 1_555 1_555
H26 C19 1_555 1_555
H27 C19 1_555 1_555
C20 O8 1_555 1_555
C21 C20 1_555 1_555
C22 C21 1_555 1_555
H28 C22 1_555 1_555
C23 C22 1_555 1_555
H29 C23 1_555 1_555
H30 C23 1_555 1_555
H31 C23 1_555 1_555
C24 C21 1_555 1_555
H32 C24 1_555 1_555
H33 C24 1_555 1_555
H34 C24 1_555 1_555
C25 C26 1_555 1_555
C26 H35 1_555 1_555
C27 C26 1_555 1_555
H36 C27 1_555 1_555
H37 C27 1_555 1_555
H38 C27 1_555 1_555
C28 C26 1_555 1_555
H39 C28 1_555 1_555
H40 C28 1_555 1_555
H41 C28 1_555 1_555
C29 C30 1_555 1_555
C30 C31 1_555 1_555
C31 H42 1_555 1_555
C32 C31 1_555 1_555
H43 C32 1_555 1_555
H44 C32 1_555 1_555
H45 C32 1_555 1_555
C33 C30 1_555 1_555
H46 C33 1_555 1_555
H47 C33 1_555 1_555
H48 C33 1_555 1_555
O10 C36 1_555 1_555
O11 H49 1_555 1_555
O12 C25 1_555 1_555
O13 C25 1_555 1_555
O14 C39 1_555 1_555
O15 C45 1_555 1_555
O16 H50 1_555 1_555
O17 C29 1_555 1_555
O18 C29 1_555 1_555
C34 H51 1_555 1_555
H52 C34 1_555 1_555
C35 C34 1_555 1_555
H53 C35 1_555 1_555
H54 C35 1_555 1_555
C36 C35 1_555 1_555
C37 O11 1_555 1_555
C38 O12 1_555 1_555
H55 C38 1_555 1_555
C39 C38 1_555 1_555
H56 C39 1_555 1_555
C40 C39 1_555 1_555
H57 C40 1_555 1_555
C41 O16 1_555 1_555
H58 C41 1_555 1_555
C42 O17 1_555 1_555
H59 C42 1_555 1_555
C43 C34 1_555 1_555
H60 C43 1_555 1_555
C44 C40 1_555 1_555
C45 O14 1_555 1_555
C46 C44 1_555 1_555
H61 C46 1_555 1_555
H62 C46 1_555 1_555
C47 C43 1_555 1_555
H63 C47 1_555 1_555
H64 C47 1_555 1_555
H65 C47 1_555 1_555
C48 C37 1_555 1_555
H66 C48 1_555 1_555
H67 C48 1_555 1_555
H68 C48 1_555 1_555
C3 C4 1_555 1_555
C7 C8 1_555 1_555
C9 C10 1_555 1_555
C11 C12 1_555 1_555
C36 C37 1_555 1_555
C37 C38 1_555 1_555
C40 C41 1_555 1_555
C41 C42 1_555 1_555
C42 C43 1_555 1_555
C44 C45 1_555 1_555

#END
