
#######################################################################
#
#                 Cambridge Crystallographic Data Centre
#                                CCDC 
#
#######################################################################
#
# If this CIF has been generated from an entry in the Cambridge 
# Structural Database, then it will include bibliographic, chemical, 
# crystal, experimental, refinement or atomic coordinate data resulting 
# from the CCDC's data processing and validation procedures.
#
#######################################################################

data_IZEDAU
_chemical_compound_source        'Carpesium cernuum'
_chemical_name_common            'cernuumolide A'
_chemical_formula_moiety         'C25 H38 O10'
_chemical_name_systematic        
'4,10-dihydroxy-11-(isobutyryloxy)-3-(methoxymethyl)-6,10-dimethyl-2,9-dioxododecahydrocyclodeca[b]furan-5-yl 2-methylbut-2-enoate'
_chemical_properties_biological  
'tested for anti-cancer activity against A549, HCT116, MDA-MB-231 and BEL7404 cell lines'
_symmetry_cell_setting           monoclinic
_symmetry_space_group_name_H-M   'P 21'
_symmetry_Int_Tables_number      4
_space_group_name_Hall           'P 2yb'
loop_
_symmetry_equiv_pos_site_id
_symmetry_equiv_pos_as_xyz
1 x,y,z
2 -x,1/2+y,-z
_cell_length_a                   9.1262(4)
_cell_length_b                   11.2141(5)
_cell_length_c                   13.5183(6)
_cell_angle_alpha                90
_cell_angle_beta                 99.968(3)
_cell_angle_gamma                90
_cell_volume                     1362.61
_exptl_crystal_colour            colorless
_exptl_crystal_description       block
_cell_formula_units_Z            2
loop_
_atom_site_label
_atom_site_type_symbol
_atom_site_fract_x
_atom_site_fract_y
_atom_site_fract_z
O1 O 0.1738(3) 0.6256(3) 0.2716(2)
O2 O 0.2032(2) 0.3444(2) 0.16166(19)
H1 H 0.1458 0.2992 0.1264
O3 O 0.0948(2) 0.4888(2) -0.01635(17)
O4 O -0.0355(4) 0.6568(3) -0.0480(3)
O5 O 0.3523(2) 0.6075(3) -0.02101(17)
O6 O 0.5141(4) 0.7344(4) -0.0670(3)
O7 O 0.6386(2) 0.4135(2) 0.18091(17)
H2 H 0.6060 0.3506 0.1551
O8 O 0.6516(2) 0.4088(2) 0.37945(16)
O9 O 0.8877(3) 0.4734(3) 0.4042(2)
O10 O 0.5549(4) 0.8195(3) 0.1721(4)
C1 C 0.3782(4) 0.5139(5) 0.4276(3)
H3 H 0.3230 0.5694 0.4622
H4 H 0.4263 0.4576 0.4774
C2 C 0.2653(4) 0.4444(4) 0.3516(3)
H5 H 0.3149 0.3770 0.3269
H6 H 0.1877 0.4135 0.3853
C3 C 0.1953(3) 0.5197(4) 0.2639(2)
C4 C 0.1379(3) 0.4583(3) 0.1620(2)
C5 C 0.1780(3) 0.5355(3) 0.0772(2)
H7 H 0.1499 0.6186 0.0863
C6 C 0.3400(3) 0.5290(3) 0.0631(2)
H8 H 0.3638 0.4471 0.0460
C7 C 0.4587(3) 0.5741(3) 0.1506(2)
H9 H 0.4142 0.6340 0.1891
C8 C 0.5250(3) 0.4730(2) 0.22131(19)
H10 H 0.4462 0.4158 0.2280
C9 C 0.5967(3) 0.5161(3) 0.3261(2)
H11 H 0.6823 0.5663 0.3192
C10 C 0.5000(4) 0.5840(4) 0.3890(3)
H12 H 0.4504 0.6480 0.3463
C11 C 0.5722(3) 0.6345(3) 0.0955(3)
H13 H 0.6452 0.5742 0.0841
C12 C 0.4810(4) 0.6665(4) -0.0050(3)
C13 C 0.6566(4) 0.7404(4) 0.1463(4)
H14 H 0.7243 0.7146 0.2058
H15 H 0.7142 0.7780 0.1009
C14 C 0.5988(6) 0.6444(6) 0.4787(4)
H16 H 0.6574 0.5851 0.5188
H17 H 0.5372 0.6851 0.5188
H18 H 0.6635 0.7009 0.4546
C15 C -0.0322(3) 0.4498(5) 0.1544(3)
H19 H -0.0730 0.4030 0.0967
H20 H -0.0745 0.5284 0.1478
H21 H -0.0550 0.4127 0.2139
C16 C 0.6222(10) 0.9187(6) 0.2271(7)
H22 H 0.6901 0.9565 0.1901
H23 H 0.6753 0.8922 0.2908
H24 H 0.5468 0.9747 0.2376
C17 C -0.0085(4) 0.5574(3) -0.0720(3)
C18 C -0.0854(6) 0.4896(5) -0.1624(4)
H25 H -0.0054 0.4502 -0.1898
C19 C -0.1747(13) 0.3944(8) -0.1338(8)
H26 H -0.1246 0.3588 -0.0726
H27 H -0.1901 0.3353 -0.1859
H28 H -0.2690 0.4254 -0.1237
C20 C -0.1592(11) 0.5691(7) -0.2441(5)
H29 H -0.2143 0.5217 -0.2970
H30 H -0.0852 0.6146 -0.2700
H31 H -0.2258 0.6222 -0.2180
C21 C 0.8001(3) 0.3949(3) 0.4053(2)
C22 C 0.8380(4) 0.2662(4) 0.4269(3)
C23 C 0.9355(5) 0.2347(5) 0.5034(4)
H32 H 0.9593 0.1540 0.5091
C24 C 1.0109(6) 0.3124(7) 0.5806(5)
H33 H 1.1165 0.3024 0.5861
H34 H 0.9818 0.2928 0.6435
H35 H 0.9848 0.3937 0.5636
C25 C 0.7584(8) 0.1756(5) 0.3523(4)
H36 H 0.6535 0.1780 0.3533
H37 H 0.7958 0.0971 0.3705
H38 H 0.7757 0.1945 0.2860
loop_
_geom_bond_atom_site_label_1
_geom_bond_atom_site_label_2
_geom_bond_site_symmetry_1
_geom_bond_site_symmetry_2
O1 C3 1_555 1_555
O2 H1 1_555 1_555
O3 C5 1_555 1_555
O4 C17 1_555 1_555
O5 C6 1_555 1_555
O6 C12 1_555 1_555
O7 H2 1_555 1_555
O8 C9 1_555 1_555
O9 C21 1_555 1_555
O10 C13 1_555 1_555
C1 H3 1_555 1_555
H4 C1 1_555 1_555
C2 C1 1_555 1_555
H5 C2 1_555 1_555
H6 C2 1_555 1_555
C3 C2 1_555 1_555
C4 O2 1_555 1_555
C5 C4 1_555 1_555
H7 C5 1_555 1_555
C6 C5 1_555 1_555
H8 C6 1_555 1_555
C7 C6 1_555 1_555
H9 C7 1_555 1_555
C8 O7 1_555 1_555
H10 C8 1_555 1_555
C9 C8 1_555 1_555
H11 C9 1_555 1_555
C10 C1 1_555 1_555
H12 C10 1_555 1_555
C11 C7 1_555 1_555
H13 C11 1_555 1_555
C12 O5 1_555 1_555
C13 C11 1_555 1_555
H14 C13 1_555 1_555
H15 C13 1_555 1_555
C14 C10 1_555 1_555
H16 C14 1_555 1_555
H17 C14 1_555 1_555
H18 C14 1_555 1_555
C15 C4 1_555 1_555
H19 C15 1_555 1_555
H20 C15 1_555 1_555
H21 C15 1_555 1_555
C16 O10 1_555 1_555
H22 C16 1_555 1_555
H23 C16 1_555 1_555
H24 C16 1_555 1_555
C17 O3 1_555 1_555
C18 C17 1_555 1_555
H25 C18 1_555 1_555
C19 C18 1_555 1_555
H26 C19 1_555 1_555
H27 C19 1_555 1_555
H28 C19 1_555 1_555
C20 C18 1_555 1_555
H29 C20 1_555 1_555
H30 C20 1_555 1_555
H31 C20 1_555 1_555
C21 O8 1_555 1_555
C22 C21 1_555 1_555
C23 C22 1_555 1_555
H32 C23 1_555 1_555
C24 C23 1_555 1_555
H33 C24 1_555 1_555
H34 C24 1_555 1_555
H35 C24 1_555 1_555
C25 C22 1_555 1_555
H36 C25 1_555 1_555
H37 C25 1_555 1_555
H38 C25 1_555 1_555
C3 C4 1_555 1_555
C7 C8 1_555 1_555
C9 C10 1_555 1_555
C11 C12 1_555 1_555

#END
