
#######################################################################
#
#                 Cambridge Crystallographic Data Centre
#                                CCDC 
#
#######################################################################
#
# If this CIF has been generated from an entry in the Cambridge 
# Structural Database, then it will include bibliographic, chemical, 
# crystal, experimental, refinement or atomic coordinate data resulting 
# from the CCDC's data processing and validation procedures.
#
#######################################################################

data_IZEDUM
_chemical_formula_moiety         'C7 H7 N3 O2'
_chemical_name_systematic        '2-Nitrobenzaldehyde hydrazone'
_symmetry_cell_setting           orthorhombic
_symmetry_space_group_name_H-M   'P 21 21 21'
_symmetry_Int_Tables_number      19
_space_group_name_Hall           'P 2ac 2ab'
loop_
_symmetry_equiv_pos_site_id
_symmetry_equiv_pos_as_xyz
1 x,y,z
2 1/2-x,-y,1/2+z
3 -x,1/2+y,1/2-z
4 1/2+x,1/2-y,-z
_cell_length_a                   3.6675(2)
_cell_length_b                   13.9380(10)
_cell_length_c                   28.796(2)
_cell_angle_alpha                90
_cell_angle_beta                 90
_cell_angle_gamma                90
_cell_volume                     1471.98
_exptl_crystal_colour            yellow
_exptl_crystal_description       needle
_chemical_melting_point          '348-349 K'
_cell_formula_units_Z            8
_exptl_crystal_recrystallization_method ethanol
loop_
_atom_site_label
_atom_site_type_symbol
_atom_site_fract_x
_atom_site_fract_y
_atom_site_fract_z
O1 O 0.3788(8) 0.57305(19) 0.21737(8)
O2 O 0.1489(7) 0.43544(18) 0.19754(8)
N1 N 0.3021(8) 0.4885(2) 0.22558(10)
N2 N 0.3380(8) 0.6613(2) 0.34288(9)
N3 N 0.1967(9) 0.7536(2) 0.34051(10)
C1 C 0.3873(9) 0.5054(2) 0.31038(12)
C2 C 0.4042(9) 0.4481(3) 0.27080(12)
C3 C 0.5208(10) 0.3539(2) 0.27126(12)
C4 C 0.6352(10) 0.3139(3) 0.31273(13)
C5 C 0.6296(9) 0.3696(3) 0.35277(12)
C6 C 0.5031(10) 0.4625(2) 0.35167(12)
C7 C 0.2417(9) 0.6037(2) 0.31072(11)
H1 H 0.0775 0.6241 0.2872
H2 H -0.0402 0.7507 0.3272
H3 H 0.2128 0.7844 0.3699
H4 H 0.5224 0.3171 0.2435
H5 H 0.7165 0.2493 0.3138
H6 H 0.7141 0.3433 0.3812
H7 H 0.4944 0.4984 0.3797
O3 O 0.5167(8) 0.97131(18) 0.54339(8)
O4 O 0.7442(7) 1.11511(18) 0.54211(8)
N4 N 0.5886(8) 1.0468(2) 0.52335(10)
N5 N 0.5040(9) 0.8109(2) 0.43403(9)
N6 N 0.6363(9) 0.7219(2) 0.44723(9)
C8 C 0.4771(9) 0.9795(2) 0.44440(11)
C9 C 0.4795(10) 1.0581(2) 0.47445(11)
C10 C 0.3720(9) 1.1491(3) 0.46149(12)
C11 C 0.2427(9) 1.1631(3) 0.41685(11)
C12 C 0.2295(9) 1.0874(3) 0.38627(12)
C13 C 0.3488(9) 0.9972(3) 0.39936(11)
C14 C 0.6137(9) 0.8837(3) 0.45700(11)
H8 H 0.7813 0.8761 0.4819
H9 H 0.8664 0.7266 0.4622
H10 H 0.6226 0.6786 0.4218
H11 H 0.3864 1.2011 0.4828
H12 H 0.1632 1.2249 0.4073
H13 H 0.1374 1.0971 0.3558
H14 H 0.3438 0.9463 0.3774
loop_
_geom_bond_atom_site_label_1
_geom_bond_atom_site_label_2
_geom_bond_site_symmetry_1
_geom_bond_site_symmetry_2
O1 N1 1_555 1_555
O2 N1 1_555 1_555
N1 C2 1_555 1_555
N2 N3 1_555 1_555
N3 H2 1_555 1_555
C1 C2 1_555 1_555
C2 C3 1_555 1_555
C3 C4 1_555 1_555
C4 C5 1_555 1_555
C5 C6 1_555 1_555
C6 C1 1_555 1_555
C7 N2 1_555 1_555
O3 N4 1_555 1_555
O4 N4 1_555 1_555
N4 C9 1_555 1_555
N5 N6 1_555 1_555
N6 H9 1_555 1_555
C8 C9 1_555 1_555
C9 C10 1_555 1_555
C10 C11 1_555 1_555
C11 C12 1_555 1_555
C12 C13 1_555 1_555
C13 C8 1_555 1_555
C14 N5 1_555 1_555
H1 C7 1_555 1_555
H3 N3 1_555 1_555
H4 C3 1_555 1_555
H5 C4 1_555 1_555
H6 C5 1_555 1_555
H7 C6 1_555 1_555
H8 C14 1_555 1_555
H10 N6 1_555 1_555
H11 C10 1_555 1_555
H12 C11 1_555 1_555
H13 C12 1_555 1_555
H14 C13 1_555 1_555
C1 C7 1_555 1_555
C8 C14 1_555 1_555

#END
