
#######################################################################
#
#                 Cambridge Crystallographic Data Centre
#                                CCDC 
#
#######################################################################
#
# If this CIF has been generated from an entry in the Cambridge 
# Structural Database, then it will include bibliographic, chemical, 
# crystal, experimental, refinement or atomic coordinate data resulting 
# from the CCDC's data processing and validation procedures.
#
#######################################################################

data_IZEDOI
_chemical_compound_source        'Streptomyces sp. HK-2006-1'
_chemical_formula_moiety         'C36 H60 O15,C3 H6 O1,2(C1 H1 Cl3),0.5(H2 O1)'
_chemical_name_systematic        
'aldgamycin J acetone chloroform solvate hemihydrate'
_chemical_properties_biological  
'tested for antimicrobial activity against Gram-positive Staphylococcus aureus 209P, Gram-negative Escherichia coli ATCC0111 and two fungi, Candida albicans FIM709 and Aspergillus niger R330'
_symmetry_cell_setting           triclinic
_symmetry_space_group_name_H-M   'P 1'
_symmetry_Int_Tables_number      1
_space_group_name_Hall           'P 1'
loop_
_symmetry_equiv_pos_site_id
_symmetry_equiv_pos_as_xyz
1 x,y,z
_cell_length_a                   10.7117(4)
_cell_length_b                   12.1870(6)
_cell_length_c                   20.8493(11)
_cell_angle_alpha                75.701(4)
_cell_angle_beta                 77.228(4)
_cell_angle_gamma                89.855(4)
_cell_volume                     2568.26
_exptl_crystal_colour            colorless
_cell_formula_units_Z            2
loop_
_atom_site_label
_atom_site_type_symbol
_atom_site_fract_x
_atom_site_fract_y
_atom_site_fract_z
O1 O 0.5741(6) 0.3292(4) 0.3867(3)
O2 O 0.5176(6) 0.3083(5) 0.2927(3)
O3 O -0.0719(5) 0.2077(5) 0.5758(3)
H1 H -0.0889 0.2679 0.5523
O4 O 0.0600(6) 0.3865(5) 0.4930(4)
O5 O 0.4993(6) 0.5787(5) 0.4834(3)
O6 O 0.0898(5) -0.0876(4) 0.4817(3)
O7 O -0.1170(5) -0.1071(4) 0.4702(3)
O8 O 0.1058(5) -0.3267(4) 0.5120(3)
H2 H 0.1595 -0.2943 0.5244
O9 O -0.0667(6) -0.3871(4) 0.4518(3)
H3 H 0.0007 -0.3515 0.4304
O10 O -0.2058(5) -0.4258(5) 0.6357(3)
H4 H -0.1524 -0.4035 0.6531
O11 O 0.6299(6) 0.6711(5) 0.2967(3)
O12 O 0.6723(6) 0.8595(5) 0.2810(3)
O13 O 0.6131(7) 0.7062(6) 0.1593(4)
O14 O 0.7530(7) 0.9060(6) 0.1057(3)
O15 O 0.6542(9) 1.1020(6) 0.1401(4)
H5 H 0.6727 1.0940 0.1013
C1 C 0.5141(8) 0.2752(6) 0.3528(4)
C2 C 0.4435(8) 0.1697(6) 0.3979(4)
H6 H 0.4531 0.1453 0.4424
C3 C 0.3662(7) 0.1091(7) 0.3755(4)
H7 H 0.3573 0.1351 0.3310
C4 C 0.2923(7) 0.0000(6) 0.4190(4)
H8 H 0.3155 -0.0200 0.4632
C5 C 0.1472(7) 0.0123(6) 0.4299(3)
H9 H 0.1213 0.0122 0.3877
C6 C 0.0990(7) 0.1222(6) 0.4529(4)
H10 H 0.1588 0.1861 0.4259
C7 C 0.1053(8) 0.1033(6) 0.5279(4)
H11 H 0.1925 0.0862 0.5312
H12 H 0.0510 0.0364 0.5539
C8 C 0.0660(7) 0.2006(6) 0.5635(4)
C9 C 0.1293(7) 0.3147(6) 0.5150(4)
C10 C 0.2726(7) 0.3292(7) 0.5010(4)
H13 H 0.3090 0.3351 0.4533
H14 H 0.3061 0.2637 0.5275
C11 C 0.3104(8) 0.4362(7) 0.5195(4)
H15 H 0.2667 0.4999 0.4980
H16 H 0.2847 0.4259 0.5683
C12 C 0.4537(7) 0.4603(6) 0.4959(4)
H17 H 0.5070 0.4025 0.5162
C13 C 0.5095(7) 0.5283(6) 0.4265(4)
H18 H 0.4491 0.5530 0.3974
C14 C 0.6460(8) 0.5159(6) 0.3905(4)
H19 H 0.6958 0.4878 0.4248
C15 C 0.6519(8) 0.4309(6) 0.3459(4)
H20 H 0.6185 0.4643 0.3057
C16 C 0.7897(9) 0.3958(9) 0.3242(6)
H21 H 0.8250 0.3709 0.3636
H22 H 0.8412 0.4595 0.2932
H23 H 0.7891 0.3352 0.3024
C17 C 0.3310(8) -0.0931(7) 0.3824(5)
H24 H 0.3169 -0.0700 0.3372
H25 H 0.2803 -0.1616 0.4068
H26 H 0.4200 -0.1062 0.3801
C18 C -0.0328(8) 0.1484(7) 0.4394(5)
H27 H -0.0290 0.1598 0.3918
H28 H -0.0600 0.2158 0.4532
H29 H -0.0926 0.0861 0.4648
C19 C 0.1016(10) 0.1753(8) 0.6314(5)
H30 H 0.0735 0.2341 0.6537
H31 H 0.1930 0.1717 0.6249
H32 H 0.0611 0.1038 0.6590
C20 C 0.7061(8) 0.6302(6) 0.3464(4)
H33 H 0.7068 0.6833 0.3741
H34 H 0.7937 0.6222 0.3237
C21 C 0.0041(7) -0.1552(6) 0.4653(4)
H35 H 0.0370 -0.1654 0.4196
C22 C -0.0079(7) -0.2703(6) 0.5192(4)
H36 H -0.0294 -0.2565 0.5646
C23 C -0.1143(7) -0.3493(6) 0.5126(4)
C24 C -0.2342(7) -0.2878(7) 0.5050(4)
H37 H -0.2770 -0.2756 0.5486
H38 H -0.2918 -0.3351 0.4919
C25 C -0.2086(8) -0.1739(6) 0.4525(4)
H39 H -0.1748 -0.1852 0.4070
C26 C -0.3259(9) -0.1084(7) 0.4533(5)
H40 H -0.3634 -0.1049 0.4990
H41 H -0.3863 -0.1450 0.4365
H42 H -0.3037 -0.0330 0.4250
C27 C -0.1415(7) -0.4549(6) 0.5740(4)
H43 H -0.0603 -0.4881 0.5802
C28 C -0.2293(9) -0.5438(7) 0.5641(5)
H44 H -0.2391 -0.6098 0.6015
H45 H -0.1926 -0.5641 0.5225
H46 H -0.3116 -0.5137 0.5619
C29 C 0.6785(8) 0.7703(7) 0.2485(4)
H47 H 0.7677 0.7620 0.2266
C30 C 0.5968(9) 0.7888(8) 0.1966(4)
H48 H 0.5067 0.7836 0.2209
C31 C 0.6253(10) 0.9064(8) 0.1466(5)
H49 H 0.5627 0.9215 0.1181
C32 C 0.6246(11) 0.9966(8) 0.1860(5)
H50 H 0.5376 0.9970 0.2134
C33 C 0.7141(10) 0.9680(8) 0.2336(5)
H51 H 0.8002 0.9619 0.2068
C34 C 0.7219(13) 1.0533(9) 0.2751(5)
H52 H 0.6430 1.0487 0.3084
H53 H 0.7362 1.1284 0.2455
H54 H 0.7915 1.0367 0.2975
C35 C 0.5128(13) 0.6197(11) 0.1776(7)
H55 H 0.5357 0.5654 0.1512
H56 H 0.4350 0.6531 0.1690
H57 H 0.5003 0.5824 0.2251
C36 C 0.7591(14) 0.9475(9) 0.0354(5)
H58 H 0.8436 0.9393 0.0101
H59 H 0.7404 1.0262 0.0259
H60 H 0.6976 0.9053 0.0225
O16 O 0.8935(5) -0.0275(5) 0.7980(3)
O17 O 0.7559(8) 0.0022(6) 0.8899(3)
O18 O 0.4176(5) 0.0972(4) 0.6057(3)
H61 H 0.3919 0.0305 0.6159
O19 O 0.4776(6) -0.0807(5) 0.6874(4)
O20 O 0.9077(6) -0.2732(4) 0.6983(3)
O21 O 0.4957(5) 0.3932(4) 0.6984(3)
O22 O 0.2790(5) 0.4116(4) 0.7108(3)
O23 O 0.5390(5) 0.6342(4) 0.6665(3)
H62 H 0.6009 0.5946 0.6626
O24 O 0.3121(5) 0.6927(4) 0.7281(3)
H63 H 0.3851 0.7035 0.7323
O25 O 0.3323(6) 0.7330(5) 0.5445(3)
H64 H 0.3246 0.6638 0.5515
O26 O 0.8716(6) -0.3774(5) 0.8843(3)
O27 O 0.9280(7) -0.5605(5) 0.9046(3)
O28 O 0.7064(7) -0.4270(6) 1.0199(4)
O29 O 0.8513(8) -0.5797(7) 1.0789(3)
O30 O 0.8802(10) -0.7945(8) 1.0565(4)
H65 H 0.8264 -0.8057 1.0925
C37 C 0.8052(9) 0.0315(7) 0.8305(4)
C38 C 0.7798(8) 0.1384(6) 0.7839(4)
H66 H 0.8315 0.1630 0.7403
C39 C 0.6836(8) 0.1981(7) 0.8045(4)
H67 H 0.6353 0.1721 0.8488
C40 C 0.6464(7) 0.3066(6) 0.7607(4)
H68 H 0.7067 0.3242 0.7162
C41 C 0.5105(7) 0.2946(6) 0.7502(4)
H69 H 0.4484 0.2945 0.7925
C42 C 0.4846(7) 0.1871(6) 0.7280(4)
H70 H 0.5233 0.1238 0.7545
C43 C 0.5496(8) 0.2039(6) 0.6529(4)
H71 H 0.6396 0.2237 0.6478
H72 H 0.5139 0.2693 0.6276
C44 C 0.5427(7) 0.1043(6) 0.6167(3)
C45 C 0.5650(7) -0.0086(6) 0.6647(4)
C46 C 0.6965(8) -0.0242(7) 0.6797(5)
H73 H 0.6909 -0.0303 0.7275
H74 H 0.7532 0.0410 0.6534
C47 C 0.7508(8) -0.1323(7) 0.6613(4)
H75 H 0.6880 -0.1956 0.6817
H76 H 0.7703 -0.1216 0.6124
C48 C 0.8691(8) -0.1566(7) 0.6872(4)
H77 H 0.9389 -0.0979 0.6686
C49 C 0.8631(7) -0.2250(7) 0.7571(4)
H78 H 0.7773 -0.2516 0.7850
C50 C 0.9645(7) -0.2146(7) 0.7946(4)
H79 H 1.0444 -0.1847 0.7614
C51 C 0.9282(9) -0.1332(7) 0.8414(4)
H80 H 0.8523 -0.1662 0.8769
C52 C 1.0290(11) -0.1035(9) 0.8743(6)
H81 H 1.1068 -0.0780 0.8405
H82 H 1.0443 -0.1692 0.9075
H83 H 1.0009 -0.0443 0.8962
C53 C 0.6588(9) 0.4033(7) 0.7951(5)
H84 H 0.6010 0.3867 0.8390
H85 H 0.6380 0.4733 0.7675
H86 H 0.7452 0.4100 0.8002
C54 C 0.3389(8) 0.1579(7) 0.7421(5)
H87 H 0.2990 0.1617 0.7875
H88 H 0.3253 0.0827 0.7375
H89 H 0.3021 0.2112 0.7102
C55 C 0.6406(8) 0.1298(7) 0.5492(4)
H90 H 0.6152 0.0887 0.5199
H91 H 0.7231 0.1071 0.5568
H92 H 0.6454 0.2096 0.5281
C56 C 0.9865(8) -0.3306(7) 0.8366(4)
H93 H 1.0143 -0.3804 0.8069
H94 H 1.0534 -0.3240 0.8603
C57 C 0.3998(7) 0.4620(6) 0.7138(4)
H95 H 0.3952 0.4742 0.7590
C58 C 0.4275(7) 0.5742(6) 0.6597(4)
H96 H 0.4439 0.5596 0.6145
C59 C 0.3179(7) 0.6552(6) 0.6665(4)
C60 C 0.1920(7) 0.5914(6) 0.6757(4)
H97 H 0.1861 0.5784 0.6324
H98 H 0.1228 0.6387 0.6887
C61 C 0.1728(7) 0.4780(6) 0.7286(4)
H99 H 0.1699 0.4905 0.7736
C62 C 0.0528(8) 0.4116(8) 0.7306(5)
H100 H 0.0534 0.4036 0.6859
H101 H -0.0210 0.4511 0.7460
H102 H 0.0495 0.3380 0.7612
C63 C 0.3420(8) 0.7621(6) 0.6064(4)
H103 H 0.4275 0.7966 0.6007
C64 C 0.2425(8) 0.8483(6) 0.6164(4)
H104 H 0.2667 0.9169 0.5811
H105 H 0.2370 0.8643 0.6598
H106 H 0.1607 0.8186 0.6148
C65 C 0.8863(10) -0.4716(7) 0.9345(4)
H107 H 0.9490 -0.4533 0.9587
C66 C 0.7558(10) -0.5098(8) 0.9849(5)
H108 H 0.6937 -0.5283 0.9604
C67 C 0.7739(11) -0.6146(8) 1.0384(5)
H109 H 0.6902 -0.6456 1.0673
C68 C 0.8418(10) -0.7065(8) 1.0070(5)
H110 H 0.7824 -0.7397 0.9864
C69 C 0.9637(11) -0.6569(8) 0.9512(5)
H111 H 1.0292 -0.6331 0.9719
C70 C 1.0162(12) -0.7406(9) 0.9123(6)
H112 H 0.9552 -0.7575 0.8880
H113 H 1.0324 -0.8089 0.9432
H114 H 1.0948 -0.7094 0.8806
C71 C 0.6280(11) -0.3488(11) 0.9870(6)
H115 H 0.6722 -0.3165 0.9407
H116 H 0.6093 -0.2896 1.0101
H117 H 0.5494 -0.3874 0.9878
C72 C 0.799(2) -0.6054(13) 1.1491(6)
H118 H 0.7222 -0.5653 1.1578
H119 H 0.8598 -0.5830 1.1716
H120 H 0.7785 -0.6855 1.1659
O31 O 0.4724(10) 0.2314(10) 0.1829(5)
H121 H 0.5329 0.1893 0.1916
H122 H 0.4788 0.2510 0.1402
C73 C 0.3572(14) 0.2136(15) 0.9930(7)
H123 H 0.2922 0.1989 1.0358
Cl1 Cl 0.5050(5) 0.2007(7) 1.0098(3)
Cl2 Cl 0.3313(5) 0.1127(5) 0.9462(2)
Cl3 Cl 0.3398(5) 0.3484(4) 0.9429(2)
C74 C 0.4125(14) 0.7682(12) 0.8559(6)
H124 H 0.3714 0.8021 0.8186
Cl4 Cl 0.5098(3) 0.6639(3) 0.83242(15)
Cl5 Cl 0.5065(5) 0.8768(3) 0.86996(19)
Cl6 Cl 0.2916(3) 0.7101(3) 0.92917(16)
C75 C 0.1359(13) 0.5373(14) 0.3184(7)
H125 H 0.0590 0.5134 0.3550
Cl7 Cl 0.2238(9) 0.4211(4) 0.3097(3)
Cl8 Cl 0.0901(4) 0.6007(4) 0.2409(2)
Cl9 Cl 0.2270(3) 0.6391(4) 0.3371(2)
C76 C 0.1507(15) 0.0290(12) 0.1886(7)
H126 H 0.1806 0.0954 0.2007
Cl10 Cl 0.2828(5) -0.0419(6) 0.1573(3)
Cl11 Cl 0.0585(5) -0.0663(5) 0.2632(2)
Cl12 Cl 0.0565(3) 0.0728(3) 0.12951(16)
C77 C 0.1116(10) 0.3878(9) 0.0961(6)
H127 H 0.0894 0.3273 0.0780
H128 H 0.1167 0.4586 0.0626
H129 H 0.0473 0.3899 0.1359
C78 C 0.2290(10) 0.3698(10) 0.1131(6)
C79 C 0.3143(14) 0.4701(13) 0.1041(9)
H130 H 0.2794 0.5366 0.0806
H131 H 0.3977 0.4605 0.0781
H132 H 0.3215 0.4783 0.1478
O32 O 0.2561(11) 0.2742(8) 0.1376(6)
C80 C 0.8815(10) 0.6831(9) 0.0806(5)
H133 H 0.8588 0.6253 0.0606
H134 H 0.8458 0.7529 0.0620
H135 H 0.8484 0.6605 0.1289
C81 C 1.0081(11) 0.6979(9) 0.0673(6)
C82 C 1.0673(17) 0.8006(14) 0.0786(10)
H136 H 1.0983 0.8545 0.0357
H137 H 1.1374 0.7790 0.1000
H138 H 1.0042 0.8340 0.1073
O33 O 1.0814(9) 0.6306(8) 0.0452(7)
loop_
_geom_bond_atom_site_label_1
_geom_bond_atom_site_label_2
_geom_bond_site_symmetry_1
_geom_bond_site_symmetry_2
O1 C1 1_555 1_555
O2 C1 1_555 1_555
O3 H1 1_555 1_555
O4 C9 1_555 1_555
O5 C12 1_555 1_555
O6 C5 1_555 1_555
O7 C21 1_555 1_555
O8 H2 1_555 1_555
O9 H3 1_555 1_555
O10 H4 1_555 1_555
O11 C20 1_555 1_555
O12 C29 1_555 1_555
O13 C30 1_555 1_555
O14 C31 1_555 1_555
O15 H5 1_555 1_555
C1 C2 1_555 1_555
C2 H6 1_555 1_555
C3 C2 1_555 1_555
H7 C3 1_555 1_555
C4 C3 1_555 1_555
H8 C4 1_555 1_555
C5 C4 1_555 1_555
H9 C5 1_555 1_555
C6 C5 1_555 1_555
H10 C6 1_555 1_555
C7 C6 1_555 1_555
H11 C7 1_555 1_555
H12 C7 1_555 1_555
C8 O3 1_555 1_555
C9 C8 1_555 1_555
C10 C9 1_555 1_555
H13 C10 1_555 1_555
H14 C10 1_555 1_555
C11 C10 1_555 1_555
H15 C11 1_555 1_555
H16 C11 1_555 1_555
C12 C11 1_555 1_555
H17 C12 1_555 1_555
C13 O5 1_555 1_555
H18 C13 1_555 1_555
C14 C13 1_555 1_555
H19 C14 1_555 1_555
C15 O1 1_555 1_555
H20 C15 1_555 1_555
C16 C15 1_555 1_555
H21 C16 1_555 1_555
H22 C16 1_555 1_555
H23 C16 1_555 1_555
C17 C4 1_555 1_555
H24 C17 1_555 1_555
H25 C17 1_555 1_555
H26 C17 1_555 1_555
C18 C6 1_555 1_555
H27 C18 1_555 1_555
H28 C18 1_555 1_555
H29 C18 1_555 1_555
C19 C8 1_555 1_555
H30 C19 1_555 1_555
H31 C19 1_555 1_555
H32 C19 1_555 1_555
C20 C14 1_555 1_555
H33 C20 1_555 1_555
H34 C20 1_555 1_555
C21 O6 1_555 1_555
H35 C21 1_555 1_555
C22 O8 1_555 1_555
H36 C22 1_555 1_555
C23 O9 1_555 1_555
C24 C23 1_555 1_555
H37 C24 1_555 1_555
H38 C24 1_555 1_555
C25 O7 1_555 1_555
H39 C25 1_555 1_555
C26 C25 1_555 1_555
H40 C26 1_555 1_555
H41 C26 1_555 1_555
H42 C26 1_555 1_555
C27 O10 1_555 1_555
H43 C27 1_555 1_555
C28 C27 1_555 1_555
H44 C28 1_555 1_555
H45 C28 1_555 1_555
H46 C28 1_555 1_555
C29 O11 1_555 1_555
H47 C29 1_555 1_555
C30 C29 1_555 1_555
H48 C30 1_555 1_555
C31 C30 1_555 1_555
H49 C31 1_555 1_555
C32 O15 1_555 1_555
H50 C32 1_555 1_555
C33 O12 1_555 1_555
H51 C33 1_555 1_555
C34 C33 1_555 1_555
H52 C34 1_555 1_555
H53 C34 1_555 1_555
H54 C34 1_555 1_555
C35 O13 1_555 1_555
H55 C35 1_555 1_555
H56 C35 1_555 1_555
H57 C35 1_555 1_555
C36 O14 1_555 1_555
H58 C36 1_555 1_555
H59 C36 1_555 1_555
H60 C36 1_555 1_555
O16 C37 1_555 1_555
O17 C37 1_555 1_555
O18 H61 1_555 1_555
O19 C45 1_555 1_555
O20 C48 1_555 1_555
O21 C41 1_555 1_555
O22 C57 1_555 1_555
O23 H62 1_555 1_555
O24 H63 1_555 1_555
O25 H64 1_555 1_555
O26 C56 1_555 1_555
O27 C65 1_555 1_555
O28 C66 1_555 1_555
O29 C67 1_555 1_555
O30 H65 1_555 1_555
C37 C38 1_555 1_555
C38 H66 1_555 1_555
C39 C38 1_555 1_555
H67 C39 1_555 1_555
C40 C39 1_555 1_555
H68 C40 1_555 1_555
C41 C40 1_555 1_555
H69 C41 1_555 1_555
C42 C41 1_555 1_555
H70 C42 1_555 1_555
C43 C42 1_555 1_555
H71 C43 1_555 1_555
H72 C43 1_555 1_555
C44 O18 1_555 1_555
C45 C44 1_555 1_555
C46 C45 1_555 1_555
H73 C46 1_555 1_555
H74 C46 1_555 1_555
C47 C46 1_555 1_555
H75 C47 1_555 1_555
H76 C47 1_555 1_555
C48 C47 1_555 1_555
H77 C48 1_555 1_555
C49 O20 1_555 1_555
H78 C49 1_555 1_555
C50 C49 1_555 1_555
H79 C50 1_555 1_555
C51 O16 1_555 1_555
H80 C51 1_555 1_555
C52 C51 1_555 1_555
H81 C52 1_555 1_555
H82 C52 1_555 1_555
H83 C52 1_555 1_555
C53 C40 1_555 1_555
H84 C53 1_555 1_555
H85 C53 1_555 1_555
H86 C53 1_555 1_555
C54 C42 1_555 1_555
H87 C54 1_555 1_555
H88 C54 1_555 1_555
H89 C54 1_555 1_555
C55 C44 1_555 1_555
H90 C55 1_555 1_555
H91 C55 1_555 1_555
H92 C55 1_555 1_555
C56 C50 1_555 1_555
H93 C56 1_555 1_555
H94 C56 1_555 1_555
C57 O21 1_555 1_555
H95 C57 1_555 1_555
C58 O23 1_555 1_555
H96 C58 1_555 1_555
C59 O24 1_555 1_555
C60 C59 1_555 1_555
H97 C60 1_555 1_555
H98 C60 1_555 1_555
C61 O22 1_555 1_555
H99 C61 1_555 1_555
C62 C61 1_555 1_555
H100 C62 1_555 1_555
H101 C62 1_555 1_555
H102 C62 1_555 1_555
C63 O25 1_555 1_555
H103 C63 1_555 1_555
C64 C63 1_555 1_555
H104 C64 1_555 1_555
H105 C64 1_555 1_555
H106 C64 1_555 1_555
C65 O26 1_555 1_555
H107 C65 1_555 1_555
C66 C65 1_555 1_555
H108 C66 1_555 1_555
C67 C66 1_555 1_555
H109 C67 1_555 1_555
C68 O30 1_555 1_555
H110 C68 1_555 1_555
C69 O27 1_555 1_555
H111 C69 1_555 1_555
C70 C69 1_555 1_555
H112 C70 1_555 1_555
H113 C70 1_555 1_555
H114 C70 1_555 1_555
C71 O28 1_555 1_555
H115 C71 1_555 1_555
H116 C71 1_555 1_555
H117 C71 1_555 1_555
C72 O29 1_555 1_555
H118 C72 1_555 1_555
H119 C72 1_555 1_555
H120 C72 1_555 1_555
O31 H121 1_555 1_555
H122 O31 1_555 1_555
C73 H123 1_555 1_555
Cl1 C73 1_555 1_555
Cl2 C73 1_555 1_555
Cl3 C73 1_555 1_555
C74 H124 1_555 1_555
Cl4 C74 1_555 1_555
Cl5 C74 1_555 1_555
Cl6 C74 1_555 1_555
C75 H125 1_555 1_555
Cl7 C75 1_555 1_555
Cl8 C75 1_555 1_555
Cl9 C75 1_555 1_555
C76 H126 1_555 1_555
Cl10 C76 1_555 1_555
Cl11 C76 1_555 1_555
Cl12 C76 1_555 1_555
C77 H127 1_555 1_555
H128 C77 1_555 1_555
H129 C77 1_555 1_555
C78 C77 1_555 1_555
C79 C78 1_555 1_555
H130 C79 1_555 1_555
H131 C79 1_555 1_555
H132 C79 1_555 1_555
O32 C78 1_555 1_555
C80 H133 1_555 1_555
H134 C80 1_555 1_555
H135 C80 1_555 1_555
C81 C80 1_555 1_555
C82 C81 1_555 1_555
H136 C82 1_555 1_555
H137 C82 1_555 1_555
H138 C82 1_555 1_555
O33 C81 1_555 1_555
C7 C8 1_555 1_555
C12 C13 1_555 1_555
C14 C15 1_555 1_555
C21 C22 1_555 1_555
C22 C23 1_555 1_555
C23 C27 1_555 1_555
C24 C25 1_555 1_555
C31 C32 1_555 1_555
C32 C33 1_555 1_555
C43 C44 1_555 1_555
C48 C49 1_555 1_555
C50 C51 1_555 1_555
C57 C58 1_555 1_555
C58 C59 1_555 1_555
C59 C63 1_555 1_555
C60 C61 1_555 1_555
C67 C68 1_555 1_555
C68 C69 1_555 1_555

#END
