
#######################################################################
#
#                 Cambridge Crystallographic Data Centre
#                                CCDC 
#
#######################################################################
#
# If this CIF has been generated from an entry in the Cambridge 
# Structural Database, then it will include bibliographic, chemical, 
# crystal, experimental, refinement or atomic coordinate data resulting 
# from the CCDC's data processing and validation procedures.
#
#######################################################################

data_IZEFIC
_chemical_formula_moiety         'C15 H15 Cl1 N2'
_chemical_name_systematic        
trans-4-Chloro-N-(4-(dimethylamino)benzylidene)aniline
_symmetry_cell_setting           monoclinic
_symmetry_space_group_name_H-M   'P 21/c'
_symmetry_Int_Tables_number      14
_space_group_name_Hall           '-P 2ybc'
loop_
_symmetry_equiv_pos_site_id
_symmetry_equiv_pos_as_xyz
1 x,y,z
2 x,1/2-y,1/2+z
3 -x,-y,-z
4 -x,1/2+y,1/2-z
_cell_length_a                   9.852(6)
_cell_length_b                   16.268(9)
_cell_length_c                   9.512(6)
_cell_angle_alpha                90
_cell_angle_beta                 119.904(6)
_cell_angle_gamma                90
_cell_volume                     1321.54
_exptl_crystal_colour            colorless
_exptl_crystal_description       'thin plate'
_chemical_melting_point          '378 K'
_cell_formula_units_Z            4
_exptl_crystal_recrystallization_method acetone
loop_
_atom_site_label
_atom_site_type_symbol
_atom_site_fract_x
_atom_site_fract_y
_atom_site_fract_z
Cl1 Cl 0.89087(6) 0.37831(4) 0.21784(6)
N1 N 0.60073(17) 0.38891(8) 0.63361(17)
N2 N 0.18129(18) 0.37376(10) 0.97868(17)
C1 C 0.40283(18) 0.35404(9) 0.69945(19)
C2 C 0.47823(19) 0.38991(10) 0.8534(2)
H1 H 0.5813 0.4108 0.8951
C3 C 0.40763(19) 0.39577(10) 0.94605(19)
H2 H 0.4632 0.4197 1.0509
C4 C 0.25288(19) 0.36664(9) 0.88783(19)
C5 C 0.17790(19) 0.32941(10) 0.7333(2)
H3 H 0.0748 0.3084 0.6905
C6 C 0.2521(2) 0.32317(10) 0.6435(2)
H4 H 0.1993 0.2971 0.5405
C7 C 0.47312(19) 0.35135(10) 0.5968(2)
H5 H 0.4226 0.3206 0.4989
C8 C 0.66290(18) 0.38361(9) 0.52806(19)
C9 C 0.66878(19) 0.31082(10) 0.4542(2)
H6 H 0.6249 0.2620 0.4696
C10 C 0.7380(2) 0.30911(11) 0.3584(2)
H7 H 0.7420 0.2593 0.3083
C11 C 0.80115(19) 0.38026(11) 0.3362(2)
C12 C 0.7964(2) 0.45362(10) 0.4078(2)
H8 H 0.8390 0.5025 0.3906
C13 C 0.7288(2) 0.45433(10) 0.5045(2)
H9 H 0.7272 0.5040 0.5561
C14 C 0.0142(2) 0.36234(16) 0.9064(3)
H10 H -0.0407 0.4069 0.8292
H11 H -0.0143 0.3629 0.9914
H12 H -0.0157 0.3095 0.8495
C15 C 0.2598(3) 0.41126(16) 1.1376(2)
H13 H 0.3671 0.3903 1.1992
H14 H 0.2032 0.3979 1.1951
H15 H 0.2621 0.4710 1.1263
loop_
_geom_bond_atom_site_label_1
_geom_bond_atom_site_label_2
_geom_bond_site_symmetry_1
_geom_bond_site_symmetry_2
Cl1 C11 1_555 1_555
N1 C7 1_555 1_555
N2 C4 1_555 1_555
C1 C2 1_555 1_555
C2 H1 1_555 1_555
C3 C2 1_555 1_555
H2 C3 1_555 1_555
C4 C3 1_555 1_555
C5 C4 1_555 1_555
H3 C5 1_555 1_555
C6 C1 1_555 1_555
H4 C6 1_555 1_555
C7 C1 1_555 1_555
H5 C7 1_555 1_555
C8 N1 1_555 1_555
C9 C8 1_555 1_555
H6 C9 1_555 1_555
C10 C9 1_555 1_555
H7 C10 1_555 1_555
C11 C10 1_555 1_555
C12 C11 1_555 1_555
H8 C12 1_555 1_555
C13 C8 1_555 1_555
H9 C13 1_555 1_555
C14 N2 1_555 1_555
H10 C14 1_555 1_555
H11 C14 1_555 1_555
H12 C14 1_555 1_555
C15 N2 1_555 1_555
H13 C15 1_555 1_555
H14 C15 1_555 1_555
H15 C15 1_555 1_555
C5 C6 1_555 1_555
C12 C13 1_555 1_555

#END
