
#######################################################################
#
#                 Cambridge Crystallographic Data Centre
#                                CCDC 
#
#######################################################################
#
# If this CIF has been generated from an entry in the Cambridge 
# Structural Database, then it will include bibliographic, chemical, 
# crystal, experimental, refinement or atomic coordinate data resulting 
# from the CCDC's data processing and validation procedures.
#
#######################################################################

data_IZENAD
_chemical_formula_moiety         'C58 H58 B2 N2'
_chemical_name_systematic        
4,4'-bis(4-(dimesitylboryl)phenyl)-2,2'-bipyridine
_symmetry_cell_setting           monoclinic
_symmetry_space_group_name_H-M   'P 21/n'
_symmetry_Int_Tables_number      14
_space_group_name_Hall           '-P 2yn'
loop_
_symmetry_equiv_pos_site_id
_symmetry_equiv_pos_as_xyz
1 x,y,z
2 1/2-x,1/2+y,1/2-z
3 -x,-y,-z
4 1/2+x,1/2-y,1/2+z
_cell_length_a                   8.2468(2)
_cell_length_b                   23.8015(5)
_cell_length_c                   11.9624(2)
_cell_angle_alpha                90
_cell_angle_beta                 95.434(2)
_cell_angle_gamma                90
_cell_volume                     2337.5
_cell_formula_units_Z            2
loop_
_atom_site_label
_atom_site_type_symbol
_atom_site_fract_x
_atom_site_fract_y
_atom_site_fract_z
B1 B 0.2434(3) 0.2030(1) 0.4569(2)
N1 N -0.1396(2) -0.0390(1) 0.9045(1)
C1 C -0.1994(3) -0.0371(1) 0.7967(2)
C2 C -0.1548(3) 0.0025(1) 0.7214(2)
C3 C -0.0425(2) 0.0434(1) 0.7571(2)
C4 C 0.0182(2) 0.0426(1) 0.8693(2)
C5 C -0.0322(2) 0.0011(1) 0.9400(2)
C6 C 0.0185(2) 0.0852(1) 0.6785(2)
C7 C 0.0838(3) 0.0666(1) 0.5823(2)
C8 C 0.1531(3) 0.1039(1) 0.5131(2)
C9 C 0.1542(2) 0.1618(1) 0.5334(2)
C10 C 0.0811(2) 0.1799(1) 0.6274(2)
C11 C 0.0175(2) 0.1425(1) 0.7003(2)
C12 C 0.3955(2) 0.1777(1) 0.4035(2)
C13 C 0.5186(2) 0.1478(1) 0.4692(2)
C14 C 0.6373(3) 0.1187(1) 0.4180(2)
C15 C 0.6416(3) 0.1179(1) 0.3026(2)
C16 C 0.5254(2) 0.1490(1) 0.2381(2)
C17 C 0.4042(2) 0.1789(1) 0.2861(2)
C18 C 0.5312(3) 0.1481(1) 0.5963(2)
C19 C 0.7698(3) 0.0849(1) 0.2493(2)
C20 C 0.2794(3) 0.2096(1) 0.2089(2)
C21 C 0.1752(2) 0.2640(1) 0.4383(2)
C22 C 0.2764(2) 0.3113(1) 0.4618(2)
C23 C 0.2136(3) 0.3652(1) 0.4486(2)
C24 C 0.0520(3) 0.3756(1) 0.4106(2)
C25 C -0.0463(3) 0.3296(1) 0.3866(2)
C26 C 0.0104(2) 0.2747(1) 0.3998(2)
C27 C 0.4525(3) 0.3043(1) 0.5053(2)
C28 C -0.0138(3) 0.4344(1) 0.3966(3)
C29 C -0.1076(3) 0.2280(1) 0.3678(2)
B1B B -0.2434(3) -0.2030(1) 1.5431(2)
N1B N 0.1396(2) 0.0390(1) 1.0955(1)
C1B C 0.1994(3) 0.0371(1) 1.2033(2)
C2B C 0.1548(3) -0.0025(1) 1.2786(2)
C3B C 0.0425(2) -0.0434(1) 1.2429(2)
C4B C -0.0182(2) -0.0426(1) 1.1307(2)
C5B C 0.0322(2) -0.0011(1) 1.0600(2)
C6B C -0.0185(2) -0.0852(1) 1.3215(2)
C7B C -0.0838(3) -0.0666(1) 1.4177(2)
C8B C -0.1531(3) -0.1039(1) 1.4869(2)
C9B C -0.1542(2) -0.1618(1) 1.4666(2)
C10B C -0.0811(2) -0.1799(1) 1.3726(2)
C11B C -0.0175(2) -0.1425(1) 1.2997(2)
C12B C -0.3955(2) -0.1777(1) 1.5965(2)
C13B C -0.5186(2) -0.1478(1) 1.5308(2)
C14B C -0.6373(3) -0.1187(1) 1.5820(2)
C15B C -0.6416(3) -0.1179(1) 1.6974(2)
C16B C -0.5254(2) -0.1490(1) 1.7619(2)
C17B C -0.4042(2) -0.1789(1) 1.7139(2)
C18B C -0.5312(3) -0.1481(1) 1.4037(2)
C19B C -0.7698(3) -0.0849(1) 1.7507(2)
C20B C -0.2794(3) -0.2096(1) 1.7911(2)
C21B C -0.1752(2) -0.2640(1) 1.5617(2)
C22B C -0.2764(2) -0.3113(1) 1.5382(2)
C23B C -0.2136(3) -0.3652(1) 1.5514(2)
C24B C -0.0520(3) -0.3756(1) 1.5894(2)
C25B C 0.0463(3) -0.3296(1) 1.6134(2)
C26B C -0.0104(2) -0.2747(1) 1.6002(2)
C27B C -0.4525(3) -0.3043(1) 1.4947(2)
C28B C 0.0138(3) -0.4344(1) 1.6034(3)
C29B C 0.1076(3) -0.2280(1) 1.6322(2)
loop_
_geom_bond_atom_site_label_1
_geom_bond_atom_site_label_2
_geom_bond_site_symmetry_1
_geom_bond_site_symmetry_2
B1 C9 1_555 1_555
N1 C1 1_555 1_555
C1 C2 1_555 1_555
C2 C3 1_555 1_555
C3 C4 1_555 1_555
C4 C5 1_555 1_555
C5 N1 1_555 1_555
C6 C3 1_555 1_555
C7 C6 1_555 1_555
C8 C7 1_555 1_555
C9 C8 1_555 1_555
C10 C9 1_555 1_555
C11 C6 1_555 1_555
C12 B1 1_555 1_555
C13 C12 1_555 1_555
C14 C13 1_555 1_555
C15 C14 1_555 1_555
C16 C15 1_555 1_555
C17 C12 1_555 1_555
C18 C13 1_555 1_555
C19 C15 1_555 1_555
C20 C17 1_555 1_555
C21 B1 1_555 1_555
C22 C21 1_555 1_555
C23 C22 1_555 1_555
C24 C23 1_555 1_555
C25 C24 1_555 1_555
C26 C21 1_555 1_555
C27 C22 1_555 1_555
C28 C24 1_555 1_555
C29 C26 1_555 1_555
B1B C9B 1_555 1_555
N1B C1B 1_555 1_555
C1B C2B 1_555 1_555
C2B C3B 1_555 1_555
C3B C4B 1_555 1_555
C4B C5B 1_555 1_555
C5B C5 1_555 1_555
C6B C3B 1_555 1_555
C7B C6B 1_555 1_555
C8B C7B 1_555 1_555
C9B C8B 1_555 1_555
C10B C9B 1_555 1_555
C11B C6B 1_555 1_555
C12B B1B 1_555 1_555
C13B C12B 1_555 1_555
C14B C13B 1_555 1_555
C15B C14B 1_555 1_555
C16B C15B 1_555 1_555
C17B C12B 1_555 1_555
C18B C13B 1_555 1_555
C19B C15B 1_555 1_555
C20B C17B 1_555 1_555
C21B B1B 1_555 1_555
C22B C21B 1_555 1_555
C23B C22B 1_555 1_555
C24B C23B 1_555 1_555
C25B C24B 1_555 1_555
C26B C21B 1_555 1_555
C27B C22B 1_555 1_555
C28B C24B 1_555 1_555
C29B C26B 1_555 1_555
C10 C11 1_555 1_555
C16 C17 1_555 1_555
C25 C26 1_555 1_555
N1B C5B 1_555 1_555
C10B C11B 1_555 1_555
C16B C17B 1_555 1_555
C25B C26B 1_555 1_555

#END
