
#######################################################################
#
#                 Cambridge Crystallographic Data Centre
#                                CCDC 
#
#######################################################################
#
# If this CIF has been generated from an entry in the Cambridge 
# Structural Database, then it will include bibliographic, chemical, 
# crystal, experimental, refinement or atomic coordinate data resulting 
# from the CCDC's data processing and validation procedures.
#
#######################################################################

data_IZEPIN
_chemical_compound_source        'basidiomycete Agrocybe salicacola'
_chemical_name_common            Agrocybone
_chemical_formula_moiety         'C30 H36 O5'
_chemical_name_systematic        
21'-(Hydroxymethyl)-6',9',9',18',21'-pentamethyl-2',24'-dioxaspiro[cyclopropane-1,17'-heptacyclo[14.6.1.1^3,6^.0^1,19^.0^4,16^.0^5,13^.0^7,11^]tetracosane]-5'(13'),10',18'-triene-12',23'-dione
_chemical_properties_biological  
'weak antiviral activity against respiratory syncytial virus'
_symmetry_cell_setting           orthorhombic
_symmetry_space_group_name_H-M   'P 21 21 21'
_symmetry_Int_Tables_number      19
_space_group_name_Hall           'P 2ac 2ab'
loop_
_symmetry_equiv_pos_site_id
_symmetry_equiv_pos_as_xyz
1 x,y,z
2 1/2-x,-y,1/2+z
3 -x,1/2+y,1/2-z
4 1/2+x,1/2-y,-z
_cell_length_a                   8.3247(6)
_cell_length_b                   14.3395(10)
_cell_length_c                   21.4178(15)
_cell_angle_alpha                90
_cell_angle_beta                 90
_cell_angle_gamma                90
_cell_volume                     2556.69
_exptl_crystal_colour            colorless
_exptl_crystal_description       needles
_cell_formula_units_Z            4
loop_
_atom_site_label
_atom_site_type_symbol
_atom_site_fract_x
_atom_site_fract_y
_atom_site_fract_z
O1 O 0.7610(2) 0.5396(1) 0.6413(1)
O2 O 0.8692(1) 0.3569(1) 0.7313(1)
O3 O 0.9281(2) 0.3593(1) 0.8350(1)
O4 O 0.4841(2) 0.6391(1) 0.8476(1)
O5 O 0.8370(2) 0.1360(1) 0.6123(1)
C1 C 0.8584(2) 0.4997(1) 0.6729(1)
C2 C 0.5754(2) 0.5720(1) 0.8444(1)
C3 C 0.8364(2) 0.5103(1) 0.8178(1)
C4 C 0.4192(2) 0.4586(1) 0.9104(1)
C5 C 0.5407(2) 0.4809(1) 0.8737(1)
C6 C 1.1742(2) 0.4492(1) 0.6524(1)
C7 C 1.0601(2) 0.3847(1) 0.6452(1)
C8 C 0.7270(2) 0.5768(1) 0.8088(1)
C9 C 0.9811(2) 0.3892(1) 0.7762(1)
C10 C 0.8902(2) 0.3961(1) 0.6695(1)
C11 C 0.8235(2) 0.4296(1) 0.8624(1)
C12 C 0.8449(3) 0.1954(2) 0.5604(1)
C13 C 0.6487(2) 0.3979(1) 0.8627(1)
C14 C 0.9828(2) 0.4960(1) 0.7789(1)
C15 C 0.9750(2) 0.5484(1) 0.7167(1)
C16 C 0.4237(2) 0.3580(1) 0.9315(1)
C17 C 0.8962(2) 0.2948(1) 0.5763(1)
C18 C 0.7843(2) 0.3398(1) 0.6256(1)
C19 C 1.0619(2) 0.2963(1) 0.6077(1)
C20 C 0.5943(2) 0.3298(1) 0.9137(1)
C21 C 1.1417(2) 0.5404(1) 0.6847(1)
C22 C 0.3030(4) 0.3011(2) 0.8917(2)
C23 C 0.3860(5) 0.3480(2) 0.9991(1)
C24 C 0.8967(3) 0.3524(2) 0.5168(1)
C25 C 0.9185(2) 0.6485(1) 0.7306(1)
C26 C 0.8917(3) 0.4533(1) 0.9262(1)
C27 C 0.7531(2) 0.6526(1) 0.7614(1)
C28 C 1.3411(2) 0.4320(2) 0.6268(1)
C29 C 1.2804(3) 0.5902(2) 0.7158(1)
C30 C 1.2170(3) 0.6261(1) 0.6553(1)
H1 H 0.7467 0.1381 0.6275
H2 H 0.3393 0.5004 0.9222
H3 H 1.0888 0.3649 0.7674
H4 H 0.7401 0.1973 0.5406
H5 H 0.9202 0.1695 0.5305
H6 H 0.6231 0.3710 0.8218
H7 H 1.0775 0.5167 0.8023
H8 H 0.7063 0.3800 0.6054
H9 H 0.7270 0.2919 0.6486
H10 H 1.0763 0.2423 0.6345
H11 H 1.1471 0.2974 0.5768
H12 H 0.5961 0.2662 0.8982
H13 H 0.6648 0.3338 0.9497
H14 H 0.1956 0.3215 0.9007
H15 H 0.3130 0.2361 0.9016
H16 H 0.3254 0.3105 0.8482
H17 H 0.2792 0.3705 1.0069
H18 H 0.4615 0.3836 1.0232
H19 H 0.3929 0.2835 1.0108
H20 H 0.7888 0.3590 0.5016
H21 H 0.9610 0.3218 0.4857
H22 H 0.9408 0.4130 0.5253
H23 H 0.9962 0.6784 0.7578
H24 H 0.9153 0.6834 0.6918
H25 H 0.9894 0.4881 0.9213
H26 H 0.9137 0.3968 0.9487
H27 H 0.8152 0.4900 0.9491
H28 H 0.7405 0.7127 0.7816
H29 H 0.6712 0.6477 0.7293
H30 H 1.3340 0.3937 0.5901
H31 H 1.4049 0.4008 0.6577
H32 H 1.3903 0.4905 0.6162
H33 H 1.2576 0.6260 0.7532
H34 H 1.3843 0.5597 0.7155
H35 H 1.2826 0.6173 0.6184
H36 H 1.1558 0.6836 0.6561
loop_
_geom_bond_atom_site_label_1
_geom_bond_atom_site_label_2
_geom_bond_site_symmetry_1
_geom_bond_site_symmetry_2
O1 C1 1_555 1_555
O2 C9 1_555 1_555
O3 C9 1_555 1_555
O4 C2 1_555 1_555
O5 C12 1_555 1_555
C1 C10 1_555 1_555
C2 C5 1_555 1_555
C3 C8 1_555 1_555
C4 C5 1_555 1_555
C5 C13 1_555 1_555
C6 C7 1_555 1_555
C7 C10 1_555 1_555
C8 C2 1_555 1_555
C9 C14 1_555 1_555
C10 O2 1_555 1_555
C11 O3 1_555 1_555
C12 C17 1_555 1_555
C13 C11 1_555 1_555
C14 C3 1_555 1_555
C15 C1 1_555 1_555
C16 C4 1_555 1_555
C17 C18 1_555 1_555
C18 C10 1_555 1_555
C19 C7 1_555 1_555
C20 C13 1_555 1_555
C21 C6 1_555 1_555
C22 C16 1_555 1_555
C23 C16 1_555 1_555
C24 C17 1_555 1_555
C25 C15 1_555 1_555
C26 C11 1_555 1_555
C27 C8 1_555 1_555
C28 C6 1_555 1_555
C29 C21 1_555 1_555
C30 C21 1_555 1_555
H1 O5 1_555 1_555
H2 C4 1_555 1_555
H3 C9 1_555 1_555
H4 C12 1_555 1_555
H5 C12 1_555 1_555
H6 C13 1_555 1_555
H7 C14 1_555 1_555
H8 C18 1_555 1_555
H9 C18 1_555 1_555
H10 C19 1_555 1_555
H11 C19 1_555 1_555
H12 C20 1_555 1_555
H13 C20 1_555 1_555
H14 C22 1_555 1_555
H15 C22 1_555 1_555
H16 C22 1_555 1_555
H17 C23 1_555 1_555
H18 C23 1_555 1_555
H19 C23 1_555 1_555
H20 C24 1_555 1_555
H21 C24 1_555 1_555
H22 C24 1_555 1_555
H23 C25 1_555 1_555
H24 C25 1_555 1_555
H25 C26 1_555 1_555
H26 C26 1_555 1_555
H27 C26 1_555 1_555
H28 C27 1_555 1_555
H29 C27 1_555 1_555
H30 C28 1_555 1_555
H31 C28 1_555 1_555
H32 C28 1_555 1_555
H33 C29 1_555 1_555
H34 C29 1_555 1_555
H35 C30 1_555 1_555
H36 C30 1_555 1_555
C3 C11 1_555 1_555
C14 C15 1_555 1_555
C15 C21 1_555 1_555
C16 C20 1_555 1_555
C17 C19 1_555 1_555
C25 C27 1_555 1_555
C29 C30 1_555 1_555

#END
