
#######################################################################
#
#                 Cambridge Crystallographic Data Centre
#                                CCDC 
#
#######################################################################
#
# If this CIF has been generated from an entry in the Cambridge 
# Structural Database, then it will include bibliographic, chemical, 
# crystal, experimental, refinement or atomic coordinate data resulting 
# from the CCDC's data processing and validation procedures.
#
#######################################################################

data_IZEQAH
_chemical_formula_moiety         'C12 H14 N2 O3'
_chemical_name_systematic        
2-amino-5,6-dimethoxy-3-methylisoquinolin-1(2H)-one
_symmetry_cell_setting           monoclinic
_symmetry_space_group_name_H-M   'P 21/n'
_symmetry_Int_Tables_number      14
_space_group_name_Hall           '-P 2yn'
loop_
_symmetry_equiv_pos_site_id
_symmetry_equiv_pos_as_xyz
1 x,y,z
2 1/2-x,1/2+y,1/2-z
3 -x,-y,-z
4 1/2+x,1/2-y,1/2+z
_cell_length_a                   15.2093(9)
_cell_length_b                   4.0297(2)
_cell_length_c                   18.2902(11)
_cell_angle_alpha                90
_cell_angle_beta                 90.067(3)
_cell_angle_gamma                90
_cell_volume                     1120.99
_exptl_crystal_colour            colorless
_exptl_crystal_description       Columnar
_cell_formula_units_Z            4
loop_
_atom_site_label
_atom_site_type_symbol
_atom_site_fract_x
_atom_site_fract_y
_atom_site_fract_z
C1 C 0.51570(13) 0.2379(5) 0.62750(11)
C2 C 0.38482(13) 0.5253(5) 0.67220(11)
C3 C 0.41593(13) 0.5302(5) 0.74109(11)
H1 H 0.3825 0.6336 0.7786
C4 C 0.49866(12) 0.3816(5) 0.75857(10)
C5 C 0.53168(12) 0.3722(5) 0.83012(10)
C6 C 0.61122(13) 0.2199(5) 0.84522(11)
C7 C 0.65980(13) 0.0758(5) 0.78883(11)
H2 H 0.7145 -0.0282 0.7991
C8 C 0.62829(12) 0.0848(5) 0.71836(11)
H3 H 0.6616 -0.0136 0.6801
C9 C 0.54834(12) 0.2362(5) 0.70225(10)
C10 C 0.71618(16) 0.0564(7) 0.93572(13)
H4 H 0.7101 -0.1794 0.9236
H5 H 0.7268 0.0806 0.9883
H6 H 0.7658 0.1504 0.9085
C11 C 0.29751(15) 0.6668(7) 0.65093(13)
H7 H 0.2702 0.7709 0.6937
H8 H 0.2594 0.4887 0.6327
H9 H 0.3057 0.8333 0.6125
C12 C 0.43364(16) 0.3132(7) 0.92875(12)
H10 H 0.3882 0.2086 0.8985
H11 H 0.4057 0.4409 0.9680
H12 H 0.4714 0.1415 0.9501
N1 N 0.43500(11) 0.3826(5) 0.61680(9)
N2 N 0.39795(13) 0.3716(6) 0.54524(10)
H13 H 0.4267 0.2740 0.5095
H14 H 0.3463 0.4623 0.5368
O1 O 0.55605(11) 0.1144(5) 0.57482(8)
O2 O 0.48530(10) 0.5289(4) 0.88479(7)
O3 O 0.63763(10) 0.2270(4) 0.91639(8)
loop_
_geom_bond_atom_site_label_1
_geom_bond_atom_site_label_2
_geom_bond_site_symmetry_1
_geom_bond_site_symmetry_2
C1 C9 1_555 1_555
C2 C3 1_555 1_555
C3 H1 1_555 1_555
C4 C3 1_555 1_555
C5 C4 1_555 1_555
C6 C5 1_555 1_555
C7 C6 1_555 1_555
H2 C7 1_555 1_555
C8 C7 1_555 1_555
H3 C8 1_555 1_555
C9 C4 1_555 1_555
C10 H4 1_555 1_555
H5 C10 1_555 1_555
H6 C10 1_555 1_555
C11 C2 1_555 1_555
H7 C11 1_555 1_555
H8 C11 1_555 1_555
H9 C11 1_555 1_555
C12 H10 1_555 1_555
H11 C12 1_555 1_555
H12 C12 1_555 1_555
N1 C1 1_555 1_555
N2 N1 1_555 1_555
H13 N2 1_555 1_555
H14 N2 1_555 1_555
O1 C1 1_555 1_555
O2 C5 1_555 1_555
O3 C6 1_555 1_555
C2 N1 1_555 1_555
C8 C9 1_555 1_555
C10 O3 1_555 1_555
C12 O2 1_555 1_555

#END
