
#######################################################################
#
#                 Cambridge Crystallographic Data Centre
#                                CCDC 
#
#######################################################################
#
# If this CIF has been generated from an entry in the Cambridge 
# Structural Database, then it will include bibliographic, chemical, 
# crystal, experimental, refinement or atomic coordinate data resulting 
# from the CCDC's data processing and validation procedures.
#
#######################################################################

data_IZEQIP
_chemical_formula_moiety         'C23 H26 N2 O3'
_chemical_name_systematic        
6-(cyclopentoxy)-7-methoxy-1-(4-methoxyphenyl)-4-methyl-5H-2,3-benzodiazepine
_symmetry_cell_setting           triclinic
_symmetry_space_group_name_H-M   'P -1'
_symmetry_Int_Tables_number      2
_space_group_name_Hall           '-P 1'
loop_
_symmetry_equiv_pos_site_id
_symmetry_equiv_pos_as_xyz
1 x,y,z
2 -x,-y,-z
_cell_length_a                   8.4384(6)
_cell_length_b                   11.0458(8)
_cell_length_c                   12.1243(8)
_cell_angle_alpha                70.841(2)
_cell_angle_beta                 77.317(2)
_cell_angle_gamma                86.918(2)
_cell_volume                     1041.25
_exptl_crystal_colour            'pale yellow'
_cell_formula_units_Z            2
loop_
_atom_site_label
_atom_site_type_symbol
_atom_site_fract_x
_atom_site_fract_y
_atom_site_fract_z
C6 C 1.2958(8) 0.2579(8) 0.0196(8)
H10 H 1.4043 0.2505 0.0354
H11 H 1.2985 0.3179 -0.0598
C7 C 1.1780(10) 0.2973(8) 0.1119(7)
H12 H 1.1801 0.3895 0.0948
H13 H 1.1982 0.2552 0.1913
C8 C 1.0109(13) 0.2486(17) 0.0979(14)
H14 H 0.9366 0.3168 0.0681
C9 C 1.0554(10) 0.1599(9) 0.0258(10)
H15 H 0.9866 0.0834 0.0596
H16 H 1.0463 0.2019 -0.0564
C10 C 1.2272(10) 0.1285(7) 0.0335(8)
H17 H 1.2823 0.0966 -0.0303
H18 H 1.2344 0.0659 0.1100
C11 C 0.62024(18) -0.06352(15) 0.33986(15)
C12 C 0.59533(19) -0.20278(15) 0.37042(15)
C13 C 0.46134(19) -0.24927(15) 0.33229(16)
C14 C 0.3808(2) -0.36454(15) 0.40070(17)
H19 H 0.4094 -0.4112 0.4724
C15 C 0.2593(2) -0.41208(16) 0.36547(17)
H20 H 0.2067 -0.4893 0.4134
C16 C 0.2164(2) -0.34486(17) 0.25936(18)
C17 C -0.0011(3) -0.4894(2) 0.2916(2)
H21 H 0.0652 -0.5630 0.3141
H22 H -0.0774 -0.5062 0.2499
H23 H -0.0588 -0.4715 0.3619
C18 C 0.4154(2) -0.18216(17) 0.22575(17)
H24 H 0.4663 -0.1040 0.1785
C19 C 0.2960(2) -0.22895(18) 0.18881(17)
H25 H 0.2683 -0.1832 0.1165
C20 C 0.91157(19) -0.18157(15) 0.42041(16)
C21 C 0.91673(19) -0.10252(16) 0.29272(16)
H26 H 0.9025 -0.1564 0.2464
H27 H 1.0196 -0.0561 0.2570
C22 C 0.49003(19) 0.01712(16) 0.35113(16)
H28 H 0.3849 -0.0172 0.3779
C23 C 0.5137(2) 0.14703(16) 0.32344(17)
H29 H 0.4251 0.1993 0.3329
C24 C 0.6694(2) 0.19976(15) 0.28149(16)
C25 C 0.80273(19) 0.12052(15) 0.26735(14)
C26 C 0.77800(18) -0.01075(15) 0.29724(14)
C27 C 0.5723(3) 0.41093(18) 0.2612(3)
H30 H 0.5082 0.4107 0.2049
H31 H 0.6133 0.4961 0.2435
H32 H 0.5061 0.3829 0.3406
C28 C 1.0401(2) -0.16005(18) 0.47926(19)
H33 H 1.0041 -0.1952 0.5645
H34 H 1.0612 -0.0697 0.4572
H35 H 1.1378 -0.2014 0.4540
N1 N 0.68183(17) -0.29164(13) 0.42731(14)
N2 N 0.79740(17) -0.26256(13) 0.48212(14)
O1 O 0.95893(13) 0.17063(11) 0.23124(11)
O2 O 0.09884(18) -0.38228(14) 0.21593(14)
O3 O 0.70483(16) 0.32639(11) 0.25315(14)
C1? C 1.2806(8) 0.1971(9) 0.0715(8)
H1? H 1.3932 0.2208 0.0330
H2? H 1.2739 0.1351 0.1506
C2? C 1.1650(12) 0.3234(8) 0.0732(9)
H3? H 1.1859 0.3632 0.1291
H4? H 1.1756 0.3868 -0.0056
C3? C 1.0017(13) 0.2516(18) 0.1162(14)
H5? H 0.9164 0.3151 0.1029
C4? C 1.0180(10) 0.1862(11) 0.0262(12)
H6? H 0.9848 0.2423 -0.0449
H7? H 0.9497 0.1094 0.0578
C5? C 1.1924(10) 0.1521(9) -0.0039(8)
H8? H 1.2379 0.1939 -0.0881
H9? H 1.2023 0.0602 0.0135
loop_
_geom_bond_atom_site_label_1
_geom_bond_atom_site_label_2
_geom_bond_site_symmetry_1
_geom_bond_site_symmetry_2
C6 H10 1_555 1_555
H11 C6 1_555 1_555
C7 C6 1_555 1_555
H12 C7 1_555 1_555
H13 C7 1_555 1_555
C8 C7 1_555 1_555
H14 C8 1_555 1_555
C9 C8 1_555 1_555
H15 C9 1_555 1_555
H16 C9 1_555 1_555
C10 C6 1_555 1_555
H17 C10 1_555 1_555
H18 C10 1_555 1_555
C11 C12 1_555 1_555
C12 C13 1_555 1_555
C13 C14 1_555 1_555
C14 H19 1_555 1_555
C15 C14 1_555 1_555
H20 C15 1_555 1_555
C16 C15 1_555 1_555
C17 H21 1_555 1_555
H22 C17 1_555 1_555
H23 C17 1_555 1_555
C18 C13 1_555 1_555
H24 C18 1_555 1_555
C19 C16 1_555 1_555
H25 C19 1_555 1_555
C20 C21 1_555 1_555
C21 H26 1_555 1_555
H27 C21 1_555 1_555
C22 C11 1_555 1_555
H28 C22 1_555 1_555
C23 C22 1_555 1_555
H29 C23 1_555 1_555
C24 C23 1_555 1_555
C25 C24 1_555 1_555
C26 C11 1_555 1_555
C27 H30 1_555 1_555
H31 C27 1_555 1_555
H32 C27 1_555 1_555
C28 C20 1_555 1_555
H33 C28 1_555 1_555
H34 C28 1_555 1_555
H35 C28 1_555 1_555
N1 C12 1_555 1_555
N2 C20 1_555 1_555
O1 C8 1_555 1_555
O2 C16 1_555 1_555
O3 C24 1_555 1_555
C9 C10 1_555 1_555
C17 O2 1_555 1_555
C18 C19 1_555 1_555
C21 C26 1_555 1_555
C25 C26 1_555 1_555
C25 O1 1_555 1_555
C27 O3 1_555 1_555
N1 N2 1_555 1_555

#END
