
#######################################################################
#
#                 Cambridge Crystallographic Data Centre
#                                CCDC 
#
#######################################################################
#
# If this CIF has been generated from an entry in the Cambridge 
# Structural Database, then it will include bibliographic, chemical, 
# crystal, experimental, refinement or atomic coordinate data resulting 
# from the CCDC's data processing and validation procedures.
#
#######################################################################

data_IZEQOV
_chemical_formula_moiety         'C19 H20 N2 O2'
_chemical_name_systematic        
6,7-dimethoxy-4-methyl-1-(4-methylphenyl)-5H-2,3-benzodiazepine
_symmetry_cell_setting           monoclinic
_symmetry_space_group_name_H-M   'P 21/c'
_symmetry_Int_Tables_number      14
_space_group_name_Hall           '-P 2ybc'
loop_
_symmetry_equiv_pos_site_id
_symmetry_equiv_pos_as_xyz
1 x,y,z
2 -x,1/2+y,1/2-z
3 -x,-y,-z
4 x,1/2-y,1/2+z
_cell_length_a                   7.1877(5)
_cell_length_b                   25.1688(16)
_cell_length_c                   9.8090(6)
_cell_angle_alpha                90
_cell_angle_beta                 110.284(4)
_cell_angle_gamma                90
_cell_volume                     1664.46
_exptl_crystal_colour            colorless
_exptl_crystal_description       Tabular
_cell_formula_units_Z            4
loop_
_atom_site_label
_atom_site_type_symbol
_atom_site_fract_x
_atom_site_fract_y
_atom_site_fract_z
O1 O 0.1945(2) 0.08053(5) -0.04593(16)
O2 O 0.5916(2) 0.08987(5) 0.07628(14)
N1 N 0.74318(19) 0.23876(6) 0.42711(15)
N2 N 0.6785(2) 0.28080(6) 0.32984(15)
C1 C 0.2240(4) 0.47043(9) -0.0983(3)
H1 H 0.0964 0.4773 -0.0910
H2 H 0.2104 0.4670 -0.1988
H3 H 0.3120 0.4994 -0.0557
C2 C 0.3077(3) 0.41963(7) -0.0189(2)
C3 C 0.3023(2) 0.37269(7) -0.09371(19)
H4 H 0.2514 0.3729 -0.1948
C4 C 0.3707(2) 0.32575(7) -0.02188(17)
H5 H 0.3631 0.2947 -0.0749
C5 C 0.4511(2) 0.32416(6) 0.12945(17)
C6 C 0.5307(2) 0.27431(7) 0.20902(17)
C7 C 0.4390(2) 0.22339(6) 0.14647(16)
C8 C 0.5585(2) 0.17885(7) 0.14934(16)
C9 C 0.4717(2) 0.13206(7) 0.08315(18)
C10 C 0.2659(3) 0.12840(7) 0.01568(18)
C11 C -0.0153(4) 0.07530(10) -0.1108(3)
H6 H -0.0759 0.0832 -0.0400
H7 H -0.0477 0.0396 -0.1453
H8 H -0.0637 0.0996 -0.1908
C12 C 0.5895(4) 0.04568(9) 0.1665(3)
H9 H 0.6335 0.0569 0.2662
H10 H 0.6765 0.0185 0.1546
H11 H 0.4571 0.0319 0.1393
C13 C 0.7780(2) 0.18414(7) 0.23160(18)
H12 H 0.8470 0.1517 0.2248
H13 H 0.8334 0.2133 0.1933
C14 C 0.7959(2) 0.19481(8) 0.38676(18)
C15 C 0.2344(2) 0.21870(7) 0.07830(17)
H14 H 0.1543 0.2480 0.0757
C16 C 0.1476(2) 0.17194(7) 0.01470(19)
H15 H 0.0105 0.1696 -0.0286
C17 C 0.3862(3) 0.41774(8) 0.1311(2)
H16 H 0.3913 0.4487 0.1839
C18 C 0.4574(3) 0.37104(7) 0.2045(2)
H17 H 0.5100 0.3711 0.3055
C19 C 0.8616(3) 0.15171(9) 0.4987(2)
H18 H 0.8594 0.1648 0.5900
H19 H 0.9940 0.1409 0.5092
H20 H 0.7737 0.1219 0.4684
loop_
_geom_bond_atom_site_label_1
_geom_bond_atom_site_label_2
_geom_bond_site_symmetry_1
_geom_bond_site_symmetry_2
O1 C10 1_555 1_555
O2 C9 1_555 1_555
N1 N2 1_555 1_555
N2 C6 1_555 1_555
C1 H1 1_555 1_555
H2 C1 1_555 1_555
H3 C1 1_555 1_555
C2 C1 1_555 1_555
C3 C2 1_555 1_555
H4 C3 1_555 1_555
C4 C3 1_555 1_555
H5 C4 1_555 1_555
C5 C4 1_555 1_555
C6 C5 1_555 1_555
C7 C6 1_555 1_555
C8 C7 1_555 1_555
C9 C8 1_555 1_555
C10 C9 1_555 1_555
C11 O1 1_555 1_555
H6 C11 1_555 1_555
H7 C11 1_555 1_555
H8 C11 1_555 1_555
C12 O2 1_555 1_555
H9 C12 1_555 1_555
H10 C12 1_555 1_555
H11 C12 1_555 1_555
C13 C8 1_555 1_555
H12 C13 1_555 1_555
H13 C13 1_555 1_555
C14 N1 1_555 1_555
C15 C7 1_555 1_555
H14 C15 1_555 1_555
C16 C10 1_555 1_555
H15 C16 1_555 1_555
C17 C2 1_555 1_555
H16 C17 1_555 1_555
C18 C5 1_555 1_555
H17 C18 1_555 1_555
C19 C14 1_555 1_555
H18 C19 1_555 1_555
H19 C19 1_555 1_555
H20 C19 1_555 1_555
C13 C14 1_555 1_555
C15 C16 1_555 1_555
C17 C18 1_555 1_555

#END
