
#######################################################################
#
#                 Cambridge Crystallographic Data Centre
#                                CCDC 
#
#######################################################################
#
# If this CIF has been generated from an entry in the Cambridge 
# Structural Database, then it will include bibliographic, chemical, 
# crystal, experimental, refinement or atomic coordinate data resulting 
# from the CCDC's data processing and validation procedures.
#
#######################################################################

data_IZEQAG
_chemical_formula_moiety         'C24 H15 F6 N3 S1'
_chemical_name_systematic        
1-[2-Methyl-5-(2-cyanophenyl)-3-thienyl]-2-(2-cyano-1,5-dimethyl-4-pyrryl)perfluorocyclopentene
_symmetry_cell_setting           triclinic
_symmetry_space_group_name_H-M   'P -1'
_symmetry_Int_Tables_number      2
_space_group_name_Hall           '-P 1'
loop_
_symmetry_equiv_pos_site_id
_symmetry_equiv_pos_as_xyz
1 x,y,z
2 -x,-y,-z
_cell_length_a                   9.0882(13)
_cell_length_b                   9.1285(12)
_cell_length_c                   15.097(3)
_cell_angle_alpha                76.237(7)
_cell_angle_beta                 85.251(8)
_cell_angle_gamma                63.686(7)
_cell_volume                     1090.08
_exptl_crystal_colour            colorless
_exptl_crystal_description       block
_cell_formula_units_Z            2
loop_
_atom_site_label
_atom_site_type_symbol
_atom_site_fract_x
_atom_site_fract_y
_atom_site_fract_z
S1 S 0.46992(5) 0.28420(5) 0.19501(3)
F1 F 0.28664(12) 0.83551(12) 0.34862(7)
F2 F 0.44082(10) 0.82157(12) 0.23102(7)
F3 F 0.14315(12) 1.14684(12) 0.26446(8)
F4 F 0.22624(12) 1.09011(13) 0.13235(7)
F5 F -0.10226(11) 1.08072(12) 0.25946(8)
F6 F -0.06545(12) 1.13071(12) 0.11323(7)
N1 N 0.73278(18) 0.3898(2) 0.45409(11)
N2 N -0.19282(14) 0.63475(16) 0.18007(9)
N3 N -0.49375(17) 0.79982(18) 0.01011(10)
C1 C 0.49303(17) 0.29536(19) 0.30589(11)
C2 C 0.40816(17) 0.45660(19) 0.31647(11)
H1 H 0.4076 0.4892 0.3718
C3 C 0.31997(17) 0.57126(18) 0.23479(11)
C4 C 0.34200(17) 0.49561(19) 0.16283(11)
C5 C 0.59222(17) 0.13867(19) 0.37142(11)
C6 C 0.69921(18) 0.1297(2) 0.43745(11)
C7 C 0.79731(19) -0.0244(2) 0.49511(12)
H2 H 0.8694 -0.0294 0.5390
C8 C 0.7895(2) -0.1694(2) 0.48822(13)
H3 H 0.8571 -0.2739 0.5268
C9 C 0.6829(2) -0.1618(2) 0.42501(13)
H4 H 0.6757 -0.2608 0.4211
C10 C 0.58651(19) -0.0097(2) 0.36732(12)
H5 H 0.5147 -0.0066 0.3239
C11 C 0.71574(19) 0.2760(2) 0.44573(11)
C12 C 0.27333(19) 0.5728(2) 0.06703(11)
H6 H 0.3509 0.5107 0.0251
H7 H 0.2557 0.6900 0.0505
H8 H 0.1686 0.5679 0.0629
C13 C 0.21672(18) 0.75153(19) 0.22736(11)
C14 C 0.28411(18) 0.85686(19) 0.25588(11)
C15 C 0.16639(19) 1.0386(2) 0.21198(11)
C16 C 0.00706(18) 1.02735(19) 0.19313(11)
C17 C 0.05924(18) 0.84508(18) 0.19709(11)
C18 C -0.05837(17) 0.78992(19) 0.17421(11)
C19 C -0.07354(17) 0.64639(19) 0.22269(11)
C20 C -0.25602(18) 0.7696(2) 0.10604(11)
C21 C -0.17658(18) 0.8689(2) 0.10160(11)
H9 H -0.1970 0.9706 0.0583
C22 C 0.00830(18) 0.5271(2) 0.30973(11)
H10 H -0.0715 0.4965 0.3472
H11 H 0.0512 0.5805 0.3430
H12 H 0.0989 0.4260 0.2961
C23 C -0.2432(2) 0.4994(2) 0.20562(13)
H13 H -0.3233 0.5152 0.1603
H14 H -0.2933 0.5006 0.2657
H15 H -0.1470 0.3915 0.2081
C24 C -0.38688(19) 0.7889(2) 0.05122(12)
loop_
_geom_bond_atom_site_label_1
_geom_bond_atom_site_label_2
_geom_bond_site_symmetry_1
_geom_bond_site_symmetry_2
S1 C1 1_555 1_555
F1 C14 1_555 1_555
F2 C14 1_555 1_555
F3 C15 1_555 1_555
F4 C15 1_555 1_555
F5 C16 1_555 1_555
F6 C16 1_555 1_555
N1 C11 1_555 1_555
N2 C19 1_555 1_555
N3 C24 1_555 1_555
C1 C2 1_555 1_555
C2 H1 1_555 1_555
C3 C2 1_555 1_555
C4 S1 1_555 1_555
C5 C1 1_555 1_555
C6 C5 1_555 1_555
C7 C6 1_555 1_555
H2 C7 1_555 1_555
C8 C7 1_555 1_555
H3 C8 1_555 1_555
C9 C8 1_555 1_555
H4 C9 1_555 1_555
C10 C5 1_555 1_555
H5 C10 1_555 1_555
C11 C6 1_555 1_555
C12 C4 1_555 1_555
H6 C12 1_555 1_555
H7 C12 1_555 1_555
H8 C12 1_555 1_555
C13 C3 1_555 1_555
C14 C13 1_555 1_555
C15 C14 1_555 1_555
C16 C15 1_555 1_555
C17 C13 1_555 1_555
C18 C17 1_555 1_555
C19 C18 1_555 1_555
C20 N2 1_555 1_555
C21 C18 1_555 1_555
H9 C21 1_555 1_555
C22 C19 1_555 1_555
H10 C22 1_555 1_555
H11 C22 1_555 1_555
H12 C22 1_555 1_555
C23 N2 1_555 1_555
H13 C23 1_555 1_555
H14 C23 1_555 1_555
H15 C23 1_555 1_555
C24 C20 1_555 1_555
C3 C4 1_555 1_555
C9 C10 1_555 1_555
C16 C17 1_555 1_555
C20 C21 1_555 1_555

#END
