
#######################################################################
#
#                 Cambridge Crystallographic Data Centre
#                                CCDC 
#
#######################################################################
#
# If this CIF has been generated from an entry in the Cambridge 
# Structural Database, then it will include bibliographic, chemical, 
# crystal, experimental, refinement or atomic coordinate data resulting 
# from the CCDC's data processing and validation procedures.
#
#######################################################################

data_IZEQUA
_chemical_formula_moiety         'C16 H12 N4 O4'
_chemical_name_systematic        
1-Methyl-3-((4-nitrophenyl)hydrazono)quinoline-2,4(1H,3H)-dione
_symmetry_cell_setting           triclinic
_symmetry_space_group_name_H-M   'P -1'
_symmetry_Int_Tables_number      2
_space_group_name_Hall           '-P 1'
loop_
_symmetry_equiv_pos_site_id
_symmetry_equiv_pos_as_xyz
1 x,y,z
2 -x,-y,-z
_cell_length_a                   7.8700(14)
_cell_length_b                   8.0484(15)
_cell_length_c                   11.469(2)
_cell_angle_alpha                94.770(2)
_cell_angle_beta                 92.856(3)
_cell_angle_gamma                95.972(2)
_cell_volume                     718.758
_exptl_crystal_colour            yellow
_exptl_crystal_description       block
_cell_formula_units_Z            2
loop_
_atom_site_label
_atom_site_type_symbol
_atom_site_fract_x
_atom_site_fract_y
_atom_site_fract_z
C1 C 0.8450(3) 0.4096(3) 0.5882(2)
C2 C 0.8268(3) 0.5840(3) 0.6294(2)
C3 C 0.6781(3) 0.6171(3) 0.4431(2)
C4 C 0.6902(3) 0.4499(3) 0.4010(2)
C5 C 0.7729(3) 0.3375(3) 0.4719(2)
C6 C 0.5995(3) 0.7215(4) 0.3721(2)
H1 H 0.5920 0.8324 0.3996
C7 C 0.5331(3) 0.6634(4) 0.2621(3)
H2 H 0.4807 0.7348 0.2155
C8 C 0.5435(3) 0.4988(5) 0.2199(2)
H3 H 0.4985 0.4598 0.1449
C9 C 0.6204(3) 0.3929(3) 0.2888(2)
H4 H 0.6259 0.2821 0.2604
C10 C 0.7217(4) 0.8517(3) 0.5989(2)
H5 H 0.7618 0.8720 0.6797
H6 H 0.6027 0.8678 0.5913
H7 H 0.7860 0.9283 0.5535
C11 C 1.0641(3) 0.2436(3) 0.8232(2)
C12 C 1.0777(3) 0.0803(3) 0.7801(2)
H8 H 1.0362 0.0423 0.7042
C13 C 1.1524(3) -0.0249(3) 0.8497(2)
H9 H 1.1593 -0.1359 0.8222
C14 C 1.2169(3) 0.0341(3) 0.9602(2)
C15 C 1.2061(3) 0.1975(3) 1.0032(2)
H10 H 1.2505 0.2359 1.0784
C16 C 1.1300(3) 0.3026(3) 0.9346(2)
H11 H 1.1224 0.4131 0.9627
N1 N 0.7442(2) 0.6796(2) 0.55631(17)
N2 N 0.9202(2) 0.3046(2) 0.65071(18)
N3 N 0.9855(2) 0.3547(2) 0.75549(17)
H12 H 0.9804 0.4564 0.7835
N4 N 1.2980(3) -0.0773(4) 1.0342(2)
O1 O 0.8851(2) 0.6436(2) 0.72844(15)
O2 O 0.7830(3) 0.1904(2) 0.43668(15)
O3 O 1.2941(3) -0.2261(3) 0.99960(19)
O4 O 1.3684(3) -0.0180(3) 1.12808(19)
loop_
_geom_bond_atom_site_label_1
_geom_bond_atom_site_label_2
_geom_bond_site_symmetry_1
_geom_bond_site_symmetry_2
C1 C2 1_555 1_555
C2 N1 1_555 1_555
C3 C4 1_555 1_555
C4 C5 1_555 1_555
C5 C1 1_555 1_555
C6 C3 1_555 1_555
H1 C6 1_555 1_555
C7 C6 1_555 1_555
H2 C7 1_555 1_555
C8 C7 1_555 1_555
H3 C8 1_555 1_555
C9 C4 1_555 1_555
H4 C9 1_555 1_555
C10 H5 1_555 1_555
H6 C10 1_555 1_555
H7 C10 1_555 1_555
C11 C12 1_555 1_555
C12 H8 1_555 1_555
C13 C12 1_555 1_555
H9 C13 1_555 1_555
C14 C13 1_555 1_555
C15 C14 1_555 1_555
H10 C15 1_555 1_555
C16 C11 1_555 1_555
H11 C16 1_555 1_555
N1 C3 1_555 1_555
N2 C1 1_555 1_555
N3 C11 1_555 1_555
H12 N3 1_555 1_555
N4 C14 1_555 1_555
O1 C2 1_555 1_555
O2 C5 1_555 1_555
O3 N4 1_555 1_555
O4 N4 1_555 1_555
C8 C9 1_555 1_555
C10 N1 1_555 1_555
C15 C16 1_555 1_555
N2 N3 1_555 1_555

#END
