
#######################################################################
#
#                 Cambridge Crystallographic Data Centre
#                                CCDC 
#
#######################################################################
#
# If this CIF has been generated from an entry in the Cambridge 
# Structural Database, then it will include bibliographic, chemical, 
# crystal, experimental, refinement or atomic coordinate data resulting 
# from the CCDC's data processing and validation procedures.
#
#######################################################################

data_IZEREM
_chemical_compound_source        'mushroom amanita muscaria'
_chemical_formula_moiety         'C28 H31 N1 O3 S2'
_chemical_name_systematic        
'ethyl 9-benzyl-3-t-butyl-6-(3-methylphenyl)-4-oxo-2-sulfanylidene-1-thia-3-azaspiro[4.4]non-7-ene-7-carboxylate'
_symmetry_cell_setting           triclinic
_symmetry_space_group_name_H-M   'P -1'
_symmetry_Int_Tables_number      2
_space_group_name_Hall           '-P 1'
loop_
_symmetry_equiv_pos_site_id
_symmetry_equiv_pos_as_xyz
1 x,y,z
2 -x,-y,-z
_cell_length_a                   10.588(2)
_cell_length_b                   10.777(2)
_cell_length_c                   12.326(3)
_cell_angle_alpha                76.88(3)
_cell_angle_beta                 77.78(3)
_cell_angle_gamma                72.35(3)
_cell_volume                     1289.73
_exptl_crystal_colour            yellow
_exptl_crystal_description       prism
_chemical_melting_point          '283 K'
_cell_formula_units_Z            2
_chemical_properties_physical    ', Hygroscopic'
_exptl_crystal_recrystallization_method hexane/ether
_exptl_crystal_preparation       ', Luminescent'
loop_
_atom_site_label
_atom_site_type_symbol
_atom_site_fract_x
_atom_site_fract_y
_atom_site_fract_z
S1 S 0.30040(4) 1.09331(4) 0.06764(3)
S2 S 0.22519(4) 1.37504(4) -0.02228(3)
O1 O 0.08919(11) 1.12654(12) 0.34662(9)
O2 O 0.17644(12) 0.66438(12) 0.40273(9)
O3 O 0.34651(11) 0.64455(12) 0.49427(9)
N1 N 0.18678(12) 1.26351(13) 0.20146(10)
C1 C 0.27768(15) 1.02685(16) 0.21678(12)
C2 C 0.23162(16) 0.89710(16) 0.24663(12)
H1 H 0.1328 0.9189 0.2736
C3 C 0.30452(15) 0.82065(16) 0.34405(12)
C4 C 0.39629(15) 0.87392(17) 0.35906(12)
H2 H 0.4519 0.8361 0.4158
C5 C 0.40374(15) 0.99911(16) 0.27810(12)
H3 H 0.3874 1.0711 0.3224
C6 C 0.53993(15) 0.98921(18) 0.20074(12)
H4 H 0.5598 0.9145 0.1601
H5 H 0.5342 1.0712 0.1439
C7 C 0.65285(16) 0.96908(17) 0.26500(12)
C8 C 0.75257(18) 0.85034(19) 0.27578(15)
H6 H 0.7494 0.7801 0.2427
C9 C 0.85705(19) 0.8334(2) 0.33461(17)
H7 H 0.9249 0.7519 0.3409
C10 C 0.86283(18) 0.9339(2) 0.38386(14)
H8 H 0.9333 0.9213 0.4252
C11 C 0.76555(17) 1.0531(2) 0.37279(14)
H9 H 0.7698 1.1233 0.4054
C12 C 0.66139(17) 1.07022(19) 0.31395(14)
H10 H 0.5947 1.1524 0.3070
C13 C 0.17194(15) 1.14032(16) 0.26457(12)
C14 C 0.23305(14) 1.25693(17) 0.08838(12)
C15 C 0.14523(16) 1.39012(17) 0.25037(13)
C16 C 0.12924(19) 1.35681(19) 0.37940(13)
H11 H 0.0505 1.3226 0.4087
H12 H 0.1176 1.4368 0.4097
H13 H 0.2095 1.2897 0.4023
C17 C 0.25860(19) 1.45756(19) 0.21027(15)
H14 H 0.3427 1.3955 0.2307
H15 H 0.2379 1.5353 0.2461
H16 H 0.2680 1.4852 0.1282
C18 C 0.01426(18) 1.4777(2) 0.21323(16)
H17 H 0.0274 1.5038 0.1310
H18 H -0.0148 1.5569 0.2482
H19 H -0.0544 1.4291 0.2365
C19 C 0.26393(16) 0.82253(17) 0.14723(13)
C20 C 0.39333(16) 0.74826(18) 0.11296(14)
H20 H 0.4635 0.7389 0.1536
C21 C 0.41975(17) 0.68776(19) 0.01916(14)
H21 H 0.5078 0.6366 -0.0041
C22 C 0.31782(17) 0.70219(19) -0.04003(14)
H22 H 0.3377 0.6620 -0.1049
C23 C 0.18725(17) 0.77358(18) -0.00782(14)
C24 C 0.16272(17) 0.83333(17) 0.08751(14)
H23 H 0.0741 0.8826 0.1118
C25 C 0.0767(2) 0.7882(2) -0.07170(16)
H24 H 0.0910 0.8438 -0.1456
H25 H -0.0095 0.8295 -0.0294
H26 H 0.0761 0.7008 -0.0820
C26 C 0.26775(15) 0.70278(16) 0.41388(12)
C27 C 0.31710(18) 0.52871(19) 0.57036(14)
H27 H 0.3623 0.4483 0.5367
H28 H 0.2193 0.5384 0.5853
C28 C 0.3679(2) 0.5182(2) 0.67785(15)
H29 H 0.4642 0.5115 0.6616
H30 H 0.3524 0.4392 0.7305
H31 H 0.3202 0.5969 0.7117
loop_
_geom_bond_atom_site_label_1
_geom_bond_atom_site_label_2
_geom_bond_site_symmetry_1
_geom_bond_site_symmetry_2
S1 C1 1_555 1_555
S2 C14 1_555 1_555
O1 C13 1_555 1_555
O2 C26 1_555 1_555
O3 C26 1_555 1_555
N1 C13 1_555 1_555
C1 C2 1_555 1_555
C2 H1 1_555 1_555
C3 C2 1_555 1_555
C4 C3 1_555 1_555
H2 C4 1_555 1_555
C5 C1 1_555 1_555
H3 C5 1_555 1_555
C6 C5 1_555 1_555
H4 C6 1_555 1_555
H5 C6 1_555 1_555
C7 C6 1_555 1_555
C8 C7 1_555 1_555
H6 C8 1_555 1_555
C9 C8 1_555 1_555
H7 C9 1_555 1_555
C10 C9 1_555 1_555
H8 C10 1_555 1_555
C11 C10 1_555 1_555
H9 C11 1_555 1_555
C12 C7 1_555 1_555
H10 C12 1_555 1_555
C13 C1 1_555 1_555
C14 S1 1_555 1_555
C15 N1 1_555 1_555
C16 C15 1_555 1_555
H11 C16 1_555 1_555
H12 C16 1_555 1_555
H13 C16 1_555 1_555
C17 C15 1_555 1_555
H14 C17 1_555 1_555
H15 C17 1_555 1_555
H16 C17 1_555 1_555
C18 C15 1_555 1_555
H17 C18 1_555 1_555
H18 C18 1_555 1_555
H19 C18 1_555 1_555
C19 C2 1_555 1_555
C20 C19 1_555 1_555
H20 C20 1_555 1_555
C21 C20 1_555 1_555
H21 C21 1_555 1_555
C22 C21 1_555 1_555
H22 C22 1_555 1_555
C23 C22 1_555 1_555
C24 C19 1_555 1_555
H23 C24 1_555 1_555
C25 C23 1_555 1_555
H24 C25 1_555 1_555
H25 C25 1_555 1_555
H26 C25 1_555 1_555
C26 C3 1_555 1_555
C27 O3 1_555 1_555
H27 C27 1_555 1_555
H28 C27 1_555 1_555
C28 C27 1_555 1_555
H29 C28 1_555 1_555
H30 C28 1_555 1_555
H31 C28 1_555 1_555
N1 C14 1_555 1_555
C4 C5 1_555 1_555
C11 C12 1_555 1_555
C23 C24 1_555 1_555

#END
