
#######################################################################
#
#                 Cambridge Crystallographic Data Centre
#                                CCDC 
#
#######################################################################
#
# If this CIF has been generated from an entry in the Cambridge 
# Structural Database, then it will include bibliographic, chemical, 
# crystal, experimental, refinement or atomic coordinate data resulting 
# from the CCDC's data processing and validation procedures.
#
#######################################################################

data_IZESEN
_chemical_formula_moiety         'C12 H9 F2 N1 O4 S1'
_chemical_name_systematic        
'ethyl ((1,3-dioxo-1,3-dihydro-2H-isoindol-2-yl)sulfanyl)(difluoro)acetate'
_symmetry_cell_setting           triclinic
_symmetry_space_group_name_H-M   'P -1'
_symmetry_Int_Tables_number      2
_space_group_name_Hall           '-P 1'
loop_
_symmetry_equiv_pos_site_id
_symmetry_equiv_pos_as_xyz
1 x,y,z
2 -x,-y,-z
_cell_length_a                   7.1774(14)
_cell_length_b                   8.0579(16)
_cell_length_c                   12.458(2)
_cell_angle_alpha                81.991(4)
_cell_angle_beta                 74.263(4)
_cell_angle_gamma                76.487(4)
_cell_volume                     672.076
_exptl_crystal_colour            colorless
_exptl_crystal_description       prismatic
_cell_formula_units_Z            2
loop_
_atom_site_label
_atom_site_type_symbol
_atom_site_fract_x
_atom_site_fract_y
_atom_site_fract_z
S1 S 0.98964(8) 0.54806(7) 0.27645(5)
F1 F 0.6374(2) 0.4836(2) 0.30111(12)
F2 F 0.7130(2) 0.67795(19) 0.16805(13)
N1 N 0.8633(2) 0.6937(2) 0.36995(14)
O1 O 0.7744(2) 0.50395(18) 0.52509(13)
O2 O 0.9230(3) 0.9443(2) 0.25970(14)
O3 O 1.0515(3) 0.3408(3) 0.10331(17)
O4 O 0.7378(3) 0.3422(2) 0.10502(15)
C1 C 0.7796(3) 0.9415(2) 0.46183(17)
C2 C 0.7484(3) 1.1078(3) 0.4920(2)
H1 H 0.7785 1.1970 0.4388
C3 C 0.6708(3) 1.1352(3) 0.6043(2)
H2 H 0.6494 1.2447 0.6269
C4 C 0.6246(3) 1.0028(3) 0.6831(2)
H3 H 0.5719 1.0255 0.7577
C5 C 0.6550(3) 0.8360(3) 0.65380(18)
H4 H 0.6241 0.7470 0.7070
C6 C 0.7336(3) 0.8094(2) 0.54140(16)
C7 C 0.7868(3) 0.6470(2) 0.48604(16)
C8 C 0.8641(3) 0.8724(3) 0.35004(18)
C9 C 0.7906(3) 0.5272(3) 0.21927(18)
C10 C 0.8770(4) 0.3900(3) 0.13476(19)
C11 C 0.8013(5) 0.2093(4) 0.0255(3)
H5 H 0.9089 0.2363 -0.0359
H6 H 0.8476 0.0992 0.0626
C12 C 0.6346(6) 0.2023(7) -0.0162(4)
H7 H 0.5292 0.1748 0.0450
H8 H 0.6734 0.1159 -0.0684
H9 H 0.5903 0.3114 -0.0531
loop_
_geom_bond_atom_site_label_1
_geom_bond_atom_site_label_2
_geom_bond_site_symmetry_1
_geom_bond_site_symmetry_2
S1 N1 1_555 1_555
F1 C9 1_555 1_555
F2 C9 1_555 1_555
N1 C7 1_555 1_555
O1 C7 1_555 1_555
O2 C8 1_555 1_555
O3 C10 1_555 1_555
O4 C10 1_555 1_555
C1 C2 1_555 1_555
C2 H1 1_555 1_555
C3 C2 1_555 1_555
H2 C3 1_555 1_555
C4 C3 1_555 1_555
H3 C4 1_555 1_555
C5 C4 1_555 1_555
H4 C5 1_555 1_555
C6 C1 1_555 1_555
C7 C6 1_555 1_555
C8 N1 1_555 1_555
C9 S1 1_555 1_555
C10 C9 1_555 1_555
C11 O4 1_555 1_555
H5 C11 1_555 1_555
H6 C11 1_555 1_555
C12 C11 1_555 1_555
H7 C12 1_555 1_555
H8 C12 1_555 1_555
H9 C12 1_555 1_555
C1 C8 1_555 1_555
C5 C6 1_555 1_555

#END
