
#######################################################################
#
#                 Cambridge Crystallographic Data Centre
#                                CCDC 
#
#######################################################################
#
# If this CIF has been generated from an entry in the Cambridge 
# Structural Database, then it will include bibliographic, chemical, 
# crystal, experimental, refinement or atomic coordinate data resulting 
# from the CCDC's data processing and validation procedures.
#
#######################################################################

data_IZETUC
_chemical_name_common            Carisoprodol
_chemical_formula_moiety         'C12 H24 N2 O4'
_chemical_name_systematic        
'2-(((Aminocarbonyl)oxy)methyl)-2-methylpentyl (1-methylethyl)carbamate'
_chemical_properties_biological  'skeletal muscle relaxant'
_symmetry_cell_setting           triclinic
_symmetry_space_group_name_H-M   'P -1'
_symmetry_Int_Tables_number      2
_space_group_name_Hall           '-P 1'
loop_
_symmetry_equiv_pos_site_id
_symmetry_equiv_pos_as_xyz
1 x,y,z
2 -x,-y,-z
_cell_length_a                   5.334(3)
_cell_length_b                   10.831(5)
_cell_length_c                   13.114(5)
_cell_angle_alpha                92.66(4)
_cell_angle_beta                 96.03(4)
_cell_angle_gamma                92.70(4)
_cell_volume                     751.594
_exptl_crystal_colour            colorless
_exptl_crystal_description       platelet
_cell_formula_units_Z            2
_exptl_crystal_recrystallization_method acetone
loop_
_atom_site_label
_atom_site_type_symbol
_atom_site_fract_x
_atom_site_fract_y
_atom_site_fract_z
O1 O 0.2841(6) 0.2113(3) 0.5632(2)
O2 O 0.2921(5) 0.2602(3) 0.8270(2)
O3 O -0.0695(7) 0.2540(3) 0.4598(2)
O4 O 0.6201(6) 0.3770(3) 0.9130(2)
N1 N 0.3285(8) 0.3151(3) 0.4219(3)
N2 N 0.2141(8) 0.4133(4) 0.9360(3)
C1 C 0.1266(9) 0.1427(4) 0.6267(3)
C2 C 0.3102(8) 0.0844(4) 0.7082(3)
C3 C 0.4637(8) 0.1854(4) 0.7754(3)
C4 C 0.4872(8) 0.0006(4) 0.6554(3)
C5 C 0.1466(8) 0.0057(4) 0.7741(3)
C6 C 0.2806(9) -0.0470(5) 0.8700(3)
C7 C 0.115(1) -0.1417(5) 0.9197(4)
C8 C 0.158(1) 0.2613(4) 0.4808(4)
C9 C 0.247(1) 0.3757(5) 0.3292(4)
C10 C 0.449(1) 0.3687(6) 0.2579(5)
C11 C 0.183(1) 0.5078(6) 0.3537(4)
C12 C 0.394(1) 0.3509(4) 0.8941(3)
H1 H 0.0195(9) 0.2036(4) 0.6695(3)
H2 H 0.0240(9) 0.0743(4) 0.5831(3)
H3 H 0.5610(8) 0.2422(4) 0.7319(3)
H4 H 0.5871(8) 0.1455(4) 0.8300(3)
H5 H 0.6257(8) -0.0548(4) 0.7116(3)
H6 H 0.3714(8) -0.0640(4) 0.6023(3)
H7 H 0.5836(8) 0.0380(4) 0.6093(3)
H8 H 0.0720(8) -0.0634(4) 0.7256(3)
H9 H 0.0020(8) 0.0514(4) 0.8004(3)
H10 H 0.4589(9) -0.0782(5) 0.8567(3)
H11 H 0.3379(9) 0.0336(5) 0.9248(3)
H12 H 0.056(1) -0.2154(5) 0.8655(4)
H13 H -0.053(1) -0.1074(5) 0.9304(4)
H14 H 0.183(1) -0.1562(5) 0.9877(4)
H15 H 0.074(1) 0.3327(5) 0.2978(4)
H16 H 0.4887(8) 0.3065(3) 0.4464(3)
H17 H 0.2633(8) 0.4781(4) 0.9884(3)
H18 H 0.0766(8) 0.3985(4) 0.9107(3)
H19 H 0.4815 0.2841 0.2420
H20 H 0.4035 0.4081 0.1966
H21 H 0.6046 0.4084 0.2911
H22 H 0.3295 0.5530 0.3835
H23 H 0.1150 0.5430 0.2935
H24 H 0.0599 0.5057 0.4021
loop_
_geom_bond_atom_site_label_1
_geom_bond_atom_site_label_2
_geom_bond_site_symmetry_1
_geom_bond_site_symmetry_2
O1 C1 1_555 1_555
O2 C3 1_555 1_555
O3 C8 1_555 1_555
O4 C12 1_555 1_555
N1 C8 1_555 1_555
N2 C12 1_555 1_555
C1 C2 1_555 1_555
C2 C3 1_555 1_555
C3 H3 1_555 1_555
C4 C2 1_555 1_555
C5 C2 1_555 1_555
C6 C5 1_555 1_555
C7 C6 1_555 1_555
C8 O1 1_555 1_555
C9 N1 1_555 1_555
C10 C9 1_555 1_555
C11 C9 1_555 1_555
C12 O2 1_555 1_555
H1 C1 1_555 1_555
H2 C1 1_555 1_555
H4 C3 1_555 1_555
H5 C4 1_555 1_555
H6 C4 1_555 1_555
H7 C4 1_555 1_555
H8 C5 1_555 1_555
H9 C5 1_555 1_555
H10 C6 1_555 1_555
H11 C6 1_555 1_555
H12 C7 1_555 1_555
H13 C7 1_555 1_555
H14 C7 1_555 1_555
H15 C9 1_555 1_555
H16 N1 1_555 1_555
H17 N2 1_555 1_555
H18 N2 1_555 1_555
H19 C10 1_555 1_555
H20 C10 1_555 1_555
H21 C10 1_555 1_555
H22 C11 1_555 1_555
H23 C11 1_555 1_555
H24 C11 1_555 1_555

#END
