
#######################################################################
#
#                 Cambridge Crystallographic Data Centre
#                                CCDC 
#
#######################################################################
#
# If this CIF has been generated from an entry in the Cambridge 
# Structural Database, then it will include bibliographic, chemical, 
# crystal, experimental, refinement or atomic coordinate data resulting 
# from the CCDC's data processing and validation procedures.
#
#######################################################################

data_IZETAK
_chemical_formula_moiety         'C37 H11 F15 N4 O2,2(C1 H2 Cl2)'
_chemical_name_systematic        
'5-((2-((5-((5-oxo-1,5-dihydro-2H-pyrrol-2-ylidene)(perfluorophenyl)methyl)-1H-pyrrol-2-yl)(perfluorophenyl)methylene)-2H-pyrrol-5-yl)(perfluorophenyl)methylene)-1,5-dihydro-2H-pyrrol-2-one dichloromethane solvate'
_symmetry_cell_setting           monoclinic
_symmetry_space_group_name_H-M   'P 21/n'
_symmetry_Int_Tables_number      14
_space_group_name_Hall           '-P 2yn'
loop_
_symmetry_equiv_pos_site_id
_symmetry_equiv_pos_as_xyz
1 x,y,z
2 1/2-x,1/2+y,1/2-z
3 -x,-y,-z
4 1/2+x,1/2-y,1/2+z
_cell_length_a                   13.646(8)
_cell_length_b                   11.007(7)
_cell_length_c                   26.044(15)
_cell_angle_alpha                90
_cell_angle_beta                 94.703(9)
_cell_angle_gamma                90
_cell_volume                     3898.68
_exptl_crystal_colour            'dark blue'
_exptl_crystal_description       block
_cell_formula_units_Z            4
_chemical_properties_physical    ', Light-sensitive,Photo-sensitive'
loop_
_atom_site_label
_atom_site_type_symbol
_atom_site_fract_x
_atom_site_fract_y
_atom_site_fract_z
O1 O 0.4107(2) 0.8532(3) -0.11304(10)
O2 O 0.56291(18) 0.4989(3) -0.05873(10)
C1 C 0.4864(3) 0.8574(4) -0.08439(14)
C2 C 0.5885(3) 0.8705(4) -0.09671(14)
H1 H 0.6095 0.8759 -0.1297
C3 C 0.6467(3) 0.8734(4) -0.05286(14)
H2 H 0.7147 0.8827 -0.0505
C4 C 0.5867(2) 0.8596(3) -0.00932(13)
C5 C 0.6136(2) 0.8559(3) 0.04205(13)
C6 C 0.5421(2) 0.8368(3) 0.07970(13)
C7 C 0.5560(3) 0.8617(4) 0.13483(14)
H3 H 0.6136 0.8874 0.1532
C8 C 0.4690(3) 0.8402(4) 0.15389(14)
H4 H 0.4545 0.8494 0.1879
C9 C 0.4021(2) 0.7997(3) 0.11103(13)
C10 C 0.3044(2) 0.7680(3) 0.11122(12)
C11 C 0.2463(2) 0.7206(3) 0.06767(12)
C12 C 0.1444(2) 0.7053(3) 0.05952(13)
H5 H 0.0988 0.7203 0.0834
C13 C 0.1233(2) 0.6633(3) 0.00913(13)
H6 H 0.0612 0.6457 -0.0066
C14 C 0.2130(2) 0.6526(3) -0.01336(13)
C15 C 0.2313(2) 0.6167(3) -0.06498(12)
C16 C 0.3188(2) 0.5803(3) -0.08013(12)
C17 C 0.3446(2) 0.5580(3) -0.13259(13)
H7 H 0.3019 0.5636 -0.1622
C18 C 0.4393(3) 0.5285(4) -0.13104(14)
H8 H 0.4742 0.5124 -0.1595
C19 C 0.4798(3) 0.5253(3) -0.07676(14)
C20 C 0.7178(2) 0.8771(3) 0.06173(12)
C21 C 0.7691(2) 0.9794(3) 0.04879(13)
C22 C 0.8661(2) 0.9985(4) 0.06662(15)
C23 C 0.9130(2) 0.9179(4) 0.09976(15)
C24 C 0.8647(3) 0.8161(4) 0.11409(14)
C25 C 0.7690(3) 0.7965(3) 0.09502(14)
C26 C 0.2531(2) 0.7862(3) 0.15915(13)
C27 C 0.2117(2) 0.8951(4) 0.16969(13)
C28 C 0.1582(3) 0.9123(4) 0.21191(14)
C29 C 0.1457(3) 0.8184(4) 0.24430(14)
C30 C 0.1864(3) 0.7064(4) 0.23551(14)
C31 C 0.2397(2) 0.6919(3) 0.19281(13)
C32 C 0.1465(2) 0.6260(3) -0.10549(13)
C33 C 0.0734(3) 0.5387(4) -0.11028(14)
C34 C -0.0016(3) 0.5427(4) -0.14892(15)
C35 C -0.0072(3) 0.6374(5) -0.18363(15)
C36 C 0.0617(3) 0.7271(4) -0.17895(15)
C37 C 0.1377(2) 0.7205(4) -0.14052(14)
N1 N 0.4913(2) 0.8506(3) -0.03136(11)
H9 H 0.4408 0.8417 -0.0140
N2 N 0.45093(19) 0.7990(3) 0.06633(11)
N3 N 0.28517(18) 0.6863(3) 0.02331(10)
H10 H 0.3470 0.6859 0.0190
N4 N 0.40414(19) 0.5586(3) -0.04824(11)
H11 H 0.4086 0.5651 -0.0152
F1 F 0.72540(14) 1.0640(2) 0.01768(9)
F2 F 0.91287(16) 1.0984(2) 0.05273(11)
F3 F 1.00679(15) 0.9375(2) 0.11810(10)
F4 F 0.91219(17) 0.7380(2) 0.14713(9)
F5 F 0.72564(15) 0.6940(2) 0.10850(9)
F6 F 0.22116(16) 0.9895(2) 0.13773(8)
F7 F 0.11664(17) 1.0201(2) 0.21986(9)
F8 F 0.09219(18) 0.8325(3) 0.28499(9)
F9 F 0.17259(18) 0.6138(2) 0.26700(9)
F10 F 0.27670(16) 0.5825(2) 0.18404(8)
F11 F 0.07599(16) 0.4460(2) -0.07708(9)
F12 F -0.06945(18) 0.4544(3) -0.15310(10)
F13 F -0.08087(17) 0.6409(3) -0.22112(9)
F14 F 0.05604(19) 0.8210(3) -0.21195(10)
F15 F 0.20469(16) 0.8088(2) -0.13741(9)
C38 C 0.2286(4) 0.3861(5) 0.0826(2)
H12 H 0.2055 0.4662 0.0914
H13 H 0.2991 0.3918 0.0805
Cl1 Cl 0.1760(7) 0.3490(7) 0.0236(3)
Cl2 Cl 0.20687(12) 0.28714(16) 0.13266(6)
C39 C 0.8630(5) 0.6931(6) 0.2672(2)
H14 H 0.8673 0.6994 0.3045
H15 H 0.9273 0.7118 0.2558
Cl4 Cl 0.7820(6) 0.7931(7) 0.2422(3)
Cl5 Cl 0.8315(3) 0.5465(3) 0.24946(13)
Cl3? Cl 0.1573(5) 0.3273(8) 0.0264(3)
H16? H 0.9186 0.7471 0.2648
H17? H 0.8539 0.6841 0.3036
Cl6? Cl 0.7603(7) 0.7673(11) 0.2392(4)
Cl7? Cl 0.8963(6) 0.5567(5) 0.2458(2)
loop_
_geom_bond_atom_site_label_1
_geom_bond_atom_site_label_2
_geom_bond_site_symmetry_1
_geom_bond_site_symmetry_2
O1 C1 1_555 1_555
O2 C19 1_555 1_555
C1 C2 1_555 1_555
C2 H1 1_555 1_555
C3 C2 1_555 1_555
H2 C3 1_555 1_555
C4 C3 1_555 1_555
C5 C4 1_555 1_555
C6 C5 1_555 1_555
C7 C6 1_555 1_555
H3 C7 1_555 1_555
C8 C7 1_555 1_555
H4 C8 1_555 1_555
C9 C8 1_555 1_555
C10 C9 1_555 1_555
C11 C10 1_555 1_555
C12 C11 1_555 1_555
H5 C12 1_555 1_555
C13 C12 1_555 1_555
H6 C13 1_555 1_555
C14 C13 1_555 1_555
C15 C14 1_555 1_555
C16 C15 1_555 1_555
C17 C16 1_555 1_555
H7 C17 1_555 1_555
C18 C17 1_555 1_555
H8 C18 1_555 1_555
C19 C18 1_555 1_555
C20 C5 1_555 1_555
C21 C20 1_555 1_555
C22 C21 1_555 1_555
C23 C22 1_555 1_555
C24 C23 1_555 1_555
C25 C20 1_555 1_555
C26 C10 1_555 1_555
C27 C26 1_555 1_555
C28 C27 1_555 1_555
C29 C28 1_555 1_555
C30 C29 1_555 1_555
C31 C26 1_555 1_555
C32 C15 1_555 1_555
C33 C32 1_555 1_555
C34 C33 1_555 1_555
C35 C34 1_555 1_555
C36 C35 1_555 1_555
C37 C32 1_555 1_555
N1 C1 1_555 1_555
H9 N1 1_555 1_555
N2 C6 1_555 1_555
N3 C11 1_555 1_555
H10 N3 1_555 1_555
N4 C16 1_555 1_555
H11 N4 1_555 1_555
F1 C21 1_555 1_555
F2 C22 1_555 1_555
F3 C23 1_555 1_555
F4 C24 1_555 1_555
F5 C25 1_555 1_555
F6 C27 1_555 1_555
F7 C28 1_555 1_555
F8 C29 1_555 1_555
F9 C30 1_555 1_555
F10 C31 1_555 1_555
F11 C33 1_555 1_555
F12 C34 1_555 1_555
F13 C35 1_555 1_555
F14 C36 1_555 1_555
F15 C37 1_555 1_555
C38 H12 1_555 1_555
H13 C38 1_555 1_555
Cl1 C38 1_555 1_555
Cl2 C38 1_555 1_555
C39 H14 1_555 1_555
H15 C39 1_555 1_555
Cl4 C39 1_555 1_555
Cl5 C39 1_555 1_555
C4 N1 1_555 1_555
C9 N2 1_555 1_555
C14 N3 1_555 1_555
C19 N4 1_555 1_555
C24 C25 1_555 1_555
C30 C31 1_555 1_555
C36 C37 1_555 1_555

#END
