
#######################################################################
#
#                 Cambridge Crystallographic Data Centre
#                                CCDC 
#
#######################################################################
#
# If this CIF has been generated from an entry in the Cambridge 
# Structural Database, then it will include bibliographic, chemical, 
# crystal, experimental, refinement or atomic coordinate data resulting 
# from the CCDC's data processing and validation procedures.
#
#######################################################################

data_IZEWUG
_chemical_formula_moiety         'C22 H31 N1 O5'
_chemical_name_systematic        
3a-Hydroxy-3-(hydroxymethyl)-2,5,9,11b-tetramethyl-3,3a,5b,7a,8,9,10,11,11a,11b-decahydro-5H-benzo[4',5']indeno[2',1':3,4]furo[2,3-c]pyrrole-1,12(2H,5aH)-dione
_symmetry_cell_setting           triclinic
_symmetry_space_group_name_H-M   'P 1'
_symmetry_Int_Tables_number      1
_space_group_name_Hall           'P 1'
loop_
_symmetry_equiv_pos_site_id
_symmetry_equiv_pos_as_xyz
1 x,y,z
_cell_length_a                   6.941(5)
_cell_length_b                   10.504(7)
_cell_length_c                   15.712(15)
_cell_angle_alpha                72.04(4)
_cell_angle_beta                 85.43(4)
_cell_angle_gamma                72.02(10)
_cell_volume                     1036.35
_exptl_crystal_colour            colorless
_exptl_crystal_description       plate
_cell_formula_units_Z            2
loop_
_atom_site_label
_atom_site_type_symbol
_atom_site_fract_x
_atom_site_fract_y
_atom_site_fract_z
O1 O 0.8507(8) 0.2421(6) 0.5198(4)
O2 O 0.4033(9) 0.0541(7) 0.4483(5)
H1 H 0.3792 0.1416 0.4307
O3 O 0.6283(9) -0.1458(6) 0.5839(5)
H2 H 0.6176 -0.2032 0.5587
O4 O 0.9626(8) -0.2212(6) 0.5730(4)
O5 O 0.5096(7) 0.0935(7) 0.6534(4)
N1 N 0.8077(9) 0.1070(7) 0.4368(4)
C1 C 0.8357(10) 0.0085(8) 0.5907(5)
C2 C 0.8293(11) 0.1339(8) 0.5134(6)
C3 C 0.7765(13) -0.0259(8) 0.4472(6)
H3 H 0.8898 -0.0816 0.4178
C4 C 0.7943(11) -0.0977(8) 0.5492(6)
C5 C 1.1341(11) -0.1825(8) 0.5895(6)
H4 H 1.1879 -0.1381 0.5305
C6 C 1.0482(10) -0.0724(8) 0.6365(5)
H5 H 1.1344 -0.0086 0.6271
C7 C 0.9982(11) -0.1247(9) 0.7363(6)
H6 H 0.9619 -0.2132 0.7465
C8 C 1.1670(11) -0.1540(9) 0.8013(5)
H7 H 1.2775 -0.2370 0.8083
C9 C 1.1694(11) -0.0702(9) 0.8491(6)
H8 H 1.2791 -0.0986 0.8901
C10 C 1.0112(13) 0.0653(9) 0.8426(5)
H9 H 0.9257 0.0511 0.8969
C11 C 1.1024(14) 0.1833(11) 0.8406(6)
H10 H 1.1879 0.1538 0.8949
H11 H 1.1903 0.1979 0.7879
C12 C 0.9401(15) 0.3208(11) 0.8365(6)
H12 H 0.8620 0.3051 0.8931
C13 C 0.7901(17) 0.3635(11) 0.7584(6)
H13 H 0.6785 0.4475 0.7615
H14 H 0.8605 0.3893 0.7012
C14 C 0.7009(14) 0.2472(10) 0.7590(6)
H15 H 0.6164 0.2284 0.8125
H16 H 0.6137 0.2771 0.7052
C15 C 0.8713(11) 0.1145(8) 0.7600(5)
H17 H 0.9557 0.1409 0.7068
C16 C 0.8071(11) -0.0111(9) 0.7512(5)
C17 C 0.6894(11) 0.0382(8) 0.6636(5)
C18 C 0.8249(13) 0.2042(10) 0.3501(6)
H18 H 0.6919 0.2463 0.3199
H19 H 0.9208 0.1537 0.3136
H20 H 0.8734 0.2780 0.3581
C19 C 0.5765(16) -0.0087(10) 0.4045(8)
H21 H 0.5719 0.0496 0.3412
H22 H 0.5717 -0.1021 0.4049
C20 C 1.2970(12) -0.3166(8) 0.6375(7)
H23 H 1.2474 -0.3606 0.6959
H24 H 1.4194 -0.2938 0.6460
H25 H 1.3287 -0.3816 0.6015
C21 C 1.034(2) 0.4345(14) 0.8331(9)
H26 H 1.1265 0.4031 0.8845
H27 H 0.9266 0.5198 0.8353
H28 H 1.1088 0.4543 0.7775
C22 C 0.6825(12) -0.0665(10) 0.8312(6)
H29 H 0.6309 -0.1369 0.8199
H30 H 0.5686 0.0113 0.8395
H31 H 0.7685 -0.1093 0.8853
O6 O 0.3316(8) 0.3262(5) 0.3603(4)
O7 O -0.3169(8) 0.5160(6) 0.4359(5)
H32 H -0.2373 0.4424 0.4276
O8 O -0.2340(7) 0.7168(6) 0.3019(4)
H33 H -0.2944 0.6571 0.3264
O9 O 0.0276(8) 0.7899(6) 0.3113(4)
O10 O -0.1037(8) 0.4811(6) 0.2264(4)
N2 N 0.1357(10) 0.4597(7) 0.4441(4)
C23 C 0.1207(10) 0.5652(8) 0.2911(6)
C24 C 0.2053(11) 0.4376(9) 0.3689(6)
C25 C -0.0184(12) 0.5923(8) 0.4368(6)
H34 H 0.0344 0.6467 0.4666
C26 C -0.0352(11) 0.6676(8) 0.3351(6)
C27 C 0.2397(11) 0.7522(9) 0.2955(6)
H35 H 0.3144 0.7089 0.3543
C28 C 0.2757(10) 0.6405(8) 0.2475(5)
H36 H 0.4168 0.5751 0.2585
C29 C 0.2195(10) 0.6947(8) 0.1474(5)
H37 H 0.1069 0.7847 0.1363
C30 C 0.3886(10) 0.7200(9) 0.0838(6)
H38 H 0.4232 0.8037 0.0755
C31 C 0.4908(10) 0.6339(8) 0.0392(5)
H39 H 0.5924 0.6602 -0.0002
C32 C 0.4569(11) 0.4967(9) 0.0468(5)
H40 H 0.3899 0.5066 -0.0099
C33 C 0.6569(11) 0.3774(9) 0.0590(6)
H41 H 0.7224 0.3636 0.1162
H42 H 0.7489 0.4044 0.0100
C34 C 0.6258(13) 0.2377(9) 0.0591(6)
H43 H 0.5753 0.2497 -0.0016
C35 C 0.4626(13) 0.2042(10) 0.1283(6)
H44 H 0.4283 0.1231 0.1214
H45 H 0.5208 0.1761 0.1892
C36 C 0.2656(13) 0.3274(9) 0.1197(6)
H46 H 0.1964 0.3495 0.0619
H47 H 0.1728 0.3013 0.1686
C37 C 0.3188(11) 0.4541(8) 0.1250(5)
H48 H 0.4006 0.4237 0.1812
C38 C 0.1367(10) 0.5834(9) 0.1292(5)
C39 C 0.0309(10) 0.5355(8) 0.2171(5)
C40 C 0.2160(13) 0.3626(9) 0.5317(6)
H49 H 0.1298 0.3018 0.5558
H50 H 0.2179 0.4161 0.5727
H51 H 0.3541 0.3050 0.5250
C41 C -0.2126(14) 0.5730(9) 0.4816(7)
H52 H -0.1808 0.5101 0.5435
H53 H -0.3025 0.6650 0.4850
C42 C 0.2896(12) 0.8874(9) 0.2464(6)
H54 H 0.2133 0.9323 0.1896
H55 H 0.4351 0.8660 0.2345
H56 H 0.2527 0.9510 0.2834
C43 C 0.8188(15) 0.1179(11) 0.0795(7)
H57 H 0.9253 0.1442 0.0397
H58 H 0.7966 0.0353 0.0704
H59 H 0.8604 0.0961 0.1419
C44 C -0.0045(11) 0.6384(9) 0.0482(5)
H60 H -0.0465 0.5615 0.0408
H61 H 0.0663 0.6769 -0.0053
H62 H -0.1241 0.7121 0.0571
loop_
_geom_bond_atom_site_label_1
_geom_bond_atom_site_label_2
_geom_bond_site_symmetry_1
_geom_bond_site_symmetry_2
O1 C2 1_555 1_555
O2 H1 1_555 1_555
O3 H2 1_555 1_555
O4 C4 1_555 1_555
O5 C17 1_555 1_555
N1 C2 1_555 1_555
C1 C2 1_555 1_555
C3 N1 1_555 1_555
H3 C3 1_555 1_555
C4 O3 1_555 1_555
C5 O4 1_555 1_555
H4 C5 1_555 1_555
C6 C1 1_555 1_555
H5 C6 1_555 1_555
C7 C6 1_555 1_555
H6 C7 1_555 1_555
C8 C7 1_555 1_555
H7 C8 1_555 1_555
C9 C8 1_555 1_555
H8 C9 1_555 1_555
C10 C9 1_555 1_555
H9 C10 1_555 1_555
C11 C10 1_555 1_555
H10 C11 1_555 1_555
H11 C11 1_555 1_555
C12 C11 1_555 1_555
H12 C12 1_555 1_555
C13 C12 1_555 1_555
H13 C13 1_555 1_555
H14 C13 1_555 1_555
C14 C13 1_555 1_555
H15 C14 1_555 1_555
H16 C14 1_555 1_555
C15 C10 1_555 1_555
H17 C15 1_555 1_555
C16 C7 1_555 1_555
C17 C1 1_555 1_555
C18 N1 1_555 1_555
H18 C18 1_555 1_555
H19 C18 1_555 1_555
H20 C18 1_555 1_555
C19 O2 1_555 1_555
H21 C19 1_555 1_555
H22 C19 1_555 1_555
C20 C5 1_555 1_555
H23 C20 1_555 1_555
H24 C20 1_555 1_555
H25 C20 1_555 1_555
C21 C12 1_555 1_555
H26 C21 1_555 1_555
H27 C21 1_555 1_555
H28 C21 1_555 1_555
C22 C16 1_555 1_555
H29 C22 1_555 1_555
H30 C22 1_555 1_555
H31 C22 1_555 1_555
O6 C24 1_555 1_555
O7 H32 1_555 1_555
O8 H33 1_555 1_555
O9 C26 1_555 1_555
O10 C39 1_555 1_555
N2 C24 1_555 1_555
C23 C24 1_555 1_555
C25 N2 1_555 1_555
H34 C25 1_555 1_555
C26 O8 1_555 1_555
C27 O9 1_555 1_555
H35 C27 1_555 1_555
C28 C23 1_555 1_555
H36 C28 1_555 1_555
C29 C28 1_555 1_555
H37 C29 1_555 1_555
C30 C29 1_555 1_555
H38 C30 1_555 1_555
C31 C30 1_555 1_555
H39 C31 1_555 1_555
C32 C31 1_555 1_555
H40 C32 1_555 1_555
C33 C32 1_555 1_555
H41 C33 1_555 1_555
H42 C33 1_555 1_555
C34 C33 1_555 1_555
H43 C34 1_555 1_555
C35 C34 1_555 1_555
H44 C35 1_555 1_555
H45 C35 1_555 1_555
C36 C35 1_555 1_555
H46 C36 1_555 1_555
H47 C36 1_555 1_555
C37 C32 1_555 1_555
H48 C37 1_555 1_555
C38 C29 1_555 1_555
C39 C23 1_555 1_555
C40 N2 1_555 1_555
H49 C40 1_555 1_555
H50 C40 1_555 1_555
H51 C40 1_555 1_555
C41 O7 1_555 1_555
H52 C41 1_555 1_555
H53 C41 1_555 1_555
C42 C27 1_555 1_555
H54 C42 1_555 1_555
H55 C42 1_555 1_555
H56 C42 1_555 1_555
C43 C34 1_555 1_555
H57 C43 1_555 1_555
H58 C43 1_555 1_555
H59 C43 1_555 1_555
C44 C38 1_555 1_555
H60 C44 1_555 1_555
H61 C44 1_555 1_555
H62 C44 1_555 1_555
C1 C4 1_555 1_555
C3 C4 1_555 1_555
C3 C19 1_555 1_555
C5 C6 1_555 1_555
C14 C15 1_555 1_555
C15 C16 1_555 1_555
C16 C17 1_555 1_555
C23 C26 1_555 1_555
C25 C26 1_555 1_555
C25 C41 1_555 1_555
C27 C28 1_555 1_555
C36 C37 1_555 1_555
C37 C38 1_555 1_555
C38 C39 1_555 1_555

#END
