
#######################################################################
#
#                 Cambridge Crystallographic Data Centre
#                                CCDC 
#
#######################################################################
#
# If this CIF has been generated from an entry in the Cambridge 
# Structural Database, then it will include bibliographic, chemical, 
# crystal, experimental, refinement or atomic coordinate data resulting 
# from the CCDC's data processing and validation procedures.
#
#######################################################################

data_IZEXUH
_chemical_formula_moiety         'C12 H24 B10 O1'
_chemical_name_systematic        
1-(1-Ethoxyethyl)-3-phenyl-1,2-dicarba-closo-dodecaborane
_symmetry_cell_setting           orthorhombic
_symmetry_space_group_name_H-M   'P 21 21 21'
_symmetry_Int_Tables_number      19
_space_group_name_Hall           'P 2ac 2ab'
loop_
_symmetry_equiv_pos_site_id
_symmetry_equiv_pos_as_xyz
1 x,y,z
2 1/2-x,-y,1/2+z
3 -x,1/2+y,1/2-z
4 1/2+x,1/2-y,-z
_cell_length_a                   7.5821(7)
_cell_length_b                   10.1241(9)
_cell_length_c                   23.702(2)
_cell_angle_alpha                90
_cell_angle_beta                 90
_cell_angle_gamma                90
_cell_volume                     1819.41
_exptl_crystal_colour            colorless
_exptl_crystal_description       block
_cell_formula_units_Z            4
loop_
_atom_site_label
_atom_site_type_symbol
_atom_site_fract_x
_atom_site_fract_y
_atom_site_fract_z
O1 O 0.8234(2) 0.56753(19) 0.13475(8)
B1 B 0.4994(4) 0.3794(3) 0.11557(10)
B2 B 0.6139(5) 0.2362(3) 0.09082(13)
H1 H 0.6410 0.2237 0.0455
B3 B 0.7668(5) 0.1839(3) 0.14320(16)
H2 H 0.8931 0.1375 0.1318
B4 B 0.7488(5) 0.2917(3) 0.20145(14)
H3 H 0.8628 0.3170 0.2281
B5 B 0.3820(4) 0.3291(3) 0.17725(12)
H4 H 0.2575 0.3777 0.1888
B6 B 0.3987(5) 0.2201(3) 0.11884(13)
H5 H 0.2847 0.1958 0.0921
B7 B 0.5644(6) 0.1011(3) 0.13567(17)
H6 H 0.5582 -0.0008 0.1196
B8 B 0.6462(6) 0.1374(4) 0.20423(17)
H7 H 0.6930 0.0598 0.2330
B9 B 0.5331(5) 0.2775(4) 0.22942(14)
H8 H 0.5061 0.2933 0.2745
B10 B 0.4194(5) 0.1582(3) 0.18911(14)
H9 H 0.3184 0.0936 0.2078
C1 C 0.7196(3) 0.3465(2) 0.13293(10)
C2 C 0.5841(3) 0.3987(2) 0.18259(9)
H10 H 0.5936 0.5007 0.1983
C3 C 0.4431(3) 0.4995(2) 0.07862(9)
C4 C 0.4002(5) 0.4804(3) 0.02256(10)
H11 H 0.4126 0.3963 0.0072
C5 C 0.3404(5) 0.5800(4) -0.01127(14)
H12 H 0.3119 0.5625 -0.0487
C6 C 0.3225(4) 0.7021(4) 0.00904(16)
H13 H 0.2830 0.7697 -0.0143
C7 C 0.3624(4) 0.7277(3) 0.06406(15)
H14 H 0.3480 0.8126 0.0784
C8 C 0.4247(4) 0.6268(3) 0.09893(11)
H15 H 0.4542 0.6454 0.1362
C9 C 0.8655(3) 0.4421(3) 0.11295(12)
H16 H 0.9755 0.4141 0.1311
C10 C 0.8973(5) 0.4408(4) 0.05111(14)
H17 H 0.9898 0.5020 0.0421
H18 H 0.7913 0.4661 0.0318
H19 H 0.9312 0.3536 0.0395
C11 C 0.9626(5) 0.6526(4) 0.1445(2)
H20 H 1.0248 0.6677 0.1093
H21 H 1.0443 0.6115 0.1706
C12 C 0.9060(5) 0.7789(3) 0.16741(15)
H22 H 1.0069 0.8345 0.1731
H23 H 0.8473 0.7648 0.2028
H24 H 0.8263 0.8206 0.1415
loop_
_geom_bond_atom_site_label_1
_geom_bond_atom_site_label_2
_geom_bond_site_symmetry_1
_geom_bond_site_symmetry_2
O1 C9 1_555 1_555
B1 B2 1_555 1_555
B2 H1 1_555 1_555
B3 B2 1_555 1_555
H2 B3 1_555 1_555
B4 B3 1_555 1_555
H3 B4 1_555 1_555
B5 B1 1_555 1_555
H4 B5 1_555 1_555
B6 B1 1_555 1_555
H5 B6 1_555 1_555
B7 B2 1_555 1_555
H6 B7 1_555 1_555
B8 B3 1_555 1_555
H7 B8 1_555 1_555
B9 B4 1_555 1_555
H8 B9 1_555 1_555
B10 B5 1_555 1_555
H9 B10 1_555 1_555
C1 B1 1_555 1_555
C2 B1 1_555 1_555
H10 C2 1_555 1_555
C3 B1 1_555 1_555
C4 C3 1_555 1_555
H11 C4 1_555 1_555
C5 C4 1_555 1_555
H12 C5 1_555 1_555
C6 C5 1_555 1_555
H13 C6 1_555 1_555
C7 C6 1_555 1_555
H14 C7 1_555 1_555
C8 C3 1_555 1_555
H15 C8 1_555 1_555
C9 C1 1_555 1_555
H16 C9 1_555 1_555
C10 C9 1_555 1_555
H17 C10 1_555 1_555
H18 C10 1_555 1_555
H19 C10 1_555 1_555
C11 O1 1_555 1_555
H20 C11 1_555 1_555
H21 C11 1_555 1_555
C12 C11 1_555 1_555
H22 C12 1_555 1_555
H23 C12 1_555 1_555
H24 C12 1_555 1_555
B2 B6 1_555 1_555
B2 C1 1_555 1_555
B3 B7 1_555 1_555
B3 C1 1_555 1_555
B4 B8 1_555 1_555
B4 C1 1_555 1_555
B4 C2 1_555 1_555
B5 B6 1_555 1_555
B5 B9 1_555 1_555
B5 C2 1_555 1_555
B6 B7 1_555 1_555
B6 B10 1_555 1_555
B7 B8 1_555 1_555
B7 B10 1_555 1_555
B8 B9 1_555 1_555
B8 B10 1_555 1_555
B9 B10 1_555 1_555
B9 C2 1_555 1_555
C1 C2 1_555 1_555
C7 C8 1_555 1_555

#END
