
#######################################################################
#
#                 Cambridge Crystallographic Data Centre
#                                CCDC 
#
#######################################################################
#
# If this CIF has been generated from an entry in the Cambridge 
# Structural Database, then it will include bibliographic, chemical, 
# crystal, experimental, refinement or atomic coordinate data resulting 
# from the CCDC's data processing and validation procedures.
#
#######################################################################

data_IZEYES
_chemical_formula_moiety         'C10 H24 B10 O2'
_chemical_name_systematic        
1,2-bis(Tetrahydrofuran-2-yl)-1,2-dicarba-closo-dodecaborane
_symmetry_cell_setting           monoclinic
_symmetry_space_group_name_H-M   'C 2/c'
_symmetry_Int_Tables_number      15
_space_group_name_Hall           '-C 2yn'
loop_
_symmetry_equiv_pos_site_id
_symmetry_equiv_pos_as_xyz
1 x,y,z
2 -x,y,1/2-z
3 1/2+x,1/2+y,z
4 1/2-x,1/2+y,1/2-z
5 -x,-y,-z
6 x,-y,1/2+z
7 1/2-x,1/2-y,-z
8 1/2+x,1/2-y,1/2+z
_cell_length_a                   28.0596(19)
_cell_length_b                   7.3777(5)
_cell_length_c                   17.1759(12)
_cell_angle_alpha                90
_cell_angle_beta                 112.1270(10)
_cell_angle_gamma                90
_cell_volume                     3293.8
_exptl_crystal_colour            colorless
_exptl_crystal_description       block
_cell_formula_units_Z            8
loop_
_atom_site_label
_atom_site_type_symbol
_atom_site_fract_x
_atom_site_fract_y
_atom_site_fract_z
C1 C 0.15119(12) 0.9699(4) 0.02304(19)
C2 C 0.10947(12) 0.8144(5) 0.0318(2)
C3 C 0.18134(14) 1.0849(5) 0.1003(2)
H1 H 0.1570 1.1357 0.1230
C4 C 0.21316(19) 1.2411(7) 0.0851(3)
H2 H 0.2161 1.2284 0.0308
H3 H 0.1974 1.3572 0.0870
C5 C 0.26421(18) 1.2263(7) 0.1539(3)
H4 H 0.2904 1.1993 0.1316
H5 H 0.2731 1.3390 0.1852
C6 C 0.26021(19) 1.0784(8) 0.2083(3)
H6 H 0.2908 1.0032 0.2252
H7 H 0.2568 1.1271 0.2584
C7 C 0.10763(14) 0.7852(6) 0.1193(2)
H8 H 0.1331 0.8666 0.1584
C8 C 0.05684(17) 0.8216(7) 0.1278(3)
H9 H 0.0598 0.9213 0.1662
H10 H 0.0303 0.8500 0.0737
C9 C 0.0454(3) 0.6510(9) 0.1614(7)
H11 H 0.0437 0.6723 0.2161
H12 H 0.0123 0.6045 0.1241
C10 C 0.0848(3) 0.5221(9) 0.1689(5)
H13 H 0.1001 0.4783 0.2263
H14 H 0.0705 0.4196 0.1322
O1 O 0.21669(11) 0.9758(4) 0.16215(17)
O2 O 0.12236(11) 0.6086(5) 0.1462(2)
B1 B 0.08624(14) 1.0132(6) -0.0207(2)
H15 H 0.0671 1.1179 0.0027
B2 B 0.12748(17) 1.0679(6) -0.0739(3)
H16 H 0.1349 1.2092 -0.0865
B3 B 0.17652(16) 0.8994(7) -0.0479(3)
H17 H 0.2158 0.9303 -0.0437
B4 B 0.16499(15) 0.7429(6) 0.0213(3)
H18 H 0.1966 0.6736 0.0712
B5 B 0.05653(16) 0.8034(7) -0.0602(3)
H19 H 0.0174 0.7716 -0.0639
B6 B 0.06767(17) 0.9617(7) -0.1281(3)
H20 H 0.0359 1.0336 -0.1767
B7 B 0.12333(19) 0.8914(8) -0.1450(3)
H21 H 0.1279 0.9169 -0.2049
B8 B 0.1464(2) 0.6896(7) -0.0860(3)
H22 H 0.1660 0.5829 -0.1073
B9 B 0.10503(19) 0.6371(7) -0.0338(3)
H23 H 0.0976 0.4966 -0.0202
B10 B 0.0794(2) 0.7274(8) -0.1359(3)
H24 H 0.0553 0.6455 -0.1900
loop_
_geom_bond_atom_site_label_1
_geom_bond_atom_site_label_2
_geom_bond_site_symmetry_1
_geom_bond_site_symmetry_2
C1 C2 1_555 1_555
C2 C7 1_555 1_555
C3 C1 1_555 1_555
H1 C3 1_555 1_555
C4 C3 1_555 1_555
H2 C4 1_555 1_555
H3 C4 1_555 1_555
C5 C4 1_555 1_555
H4 C5 1_555 1_555
H5 C5 1_555 1_555
C6 C5 1_555 1_555
H6 C6 1_555 1_555
H7 C6 1_555 1_555
C7 H8 1_555 1_555
C8 C7 1_555 1_555
H9 C8 1_555 1_555
H10 C8 1_555 1_555
C9 C8 1_555 1_555
H11 C9 1_555 1_555
H12 C9 1_555 1_555
C10 C9 1_555 1_555
H13 C10 1_555 1_555
H14 C10 1_555 1_555
O1 C3 1_555 1_555
O2 C7 1_555 1_555
B1 C1 1_555 1_555
H15 B1 1_555 1_555
B2 C1 1_555 1_555
H16 B2 1_555 1_555
B3 C1 1_555 1_555
H17 B3 1_555 1_555
B4 C1 1_555 1_555
H18 B4 1_555 1_555
B5 C2 1_555 1_555
H19 B5 1_555 1_555
B6 B1 1_555 1_555
H20 B6 1_555 1_555
B7 B2 1_555 1_555
H21 B7 1_555 1_555
B8 B3 1_555 1_555
H22 B8 1_555 1_555
B9 C2 1_555 1_555
H23 B9 1_555 1_555
B10 B5 1_555 1_555
H24 B10 1_555 1_555
C2 B1 1_555 1_555
C2 B4 1_555 1_555
C6 O1 1_555 1_555
C10 O2 1_555 1_555
B1 B2 1_555 1_555
B1 B5 1_555 1_555
B2 B3 1_555 1_555
B2 B6 1_555 1_555
B3 B4 1_555 1_555
B3 B7 1_555 1_555
B4 B8 1_555 1_555
B4 B9 1_555 1_555
B5 B6 1_555 1_555
B5 B9 1_555 1_555
B6 B7 1_555 1_555
B6 B10 1_555 1_555
B7 B8 1_555 1_555
B7 B10 1_555 1_555
B8 B9 1_555 1_555
B8 B10 1_555 1_555
B9 B10 1_555 1_555

#END
