
#######################################################################
#
#                 Cambridge Crystallographic Data Centre
#                                CCDC 
#
#######################################################################
#
# If this CIF has been generated from an entry in the Cambridge 
# Structural Database, then it will include bibliographic, chemical, 
# crystal, experimental, refinement or atomic coordinate data resulting 
# from the CCDC's data processing and validation procedures.
#
#######################################################################

data_IZEZUK
_chemical_formula_moiety         'C19 H18 O2'
_chemical_name_systematic        
1-ethyl-8-phenyl-12-oxatricyclo[6.3.1.0^2,7^]dodeca-2,4,6-trien-10-one
_symmetry_cell_setting           orthorhombic
_symmetry_space_group_name_H-M   'P n a 21'
_symmetry_Int_Tables_number      33
_space_group_name_Hall           'P 2c -2n'
loop_
_symmetry_equiv_pos_site_id
_symmetry_equiv_pos_as_xyz
1 x,y,z
2 -x,-y,1/2+z
3 1/2+x,1/2-y,z
4 1/2-x,1/2+y,1/2+z
_cell_length_a                   13.6319(9)
_cell_length_b                   10.0573(12)
_cell_length_c                   21.182(4)
_cell_angle_alpha                90
_cell_angle_beta                 90
_cell_angle_gamma                90
_cell_volume                     2904.05
_exptl_crystal_colour            colorless
_exptl_crystal_description       prismatic
_cell_formula_units_Z            8
loop_
_atom_site_label
_atom_site_type_symbol
_atom_site_fract_x
_atom_site_fract_y
_atom_site_fract_z
O1 O 0.39258(6) 0.38094(8) 0.38836(4)
O2 O 0.64816(7) 0.41953(12) 0.29605(5)
C1 C 0.44641(10) 0.25704(11) 0.37947(6)
C2 C 0.51319(9) 0.27749(14) 0.32190(6)
H1 H 0.5589 0.2013 0.3185
H2 H 0.4724 0.2792 0.2832
C3 C 0.57219(9) 0.40560(13) 0.32581(5)
C4 C 0.53132(9) 0.51995(12) 0.36506(5)
H3 H 0.4957 0.5820 0.3370
H4 H 0.5864 0.5693 0.3845
C5 C 0.46129(8) 0.47169(10) 0.41753(5)
C6 C 0.51655(8) 0.37984(10) 0.46266(5)
C7 C 0.57087(8) 0.40724(11) 0.51641(5)
H5 H 0.5768 0.4954 0.5321
C8 C 0.61677(9) 0.29984(13) 0.54690(5)
H6 H 0.6524 0.3151 0.5848
C9 C 0.61088(8) 0.17105(12) 0.52249(5)
H7 H 0.6436 0.1003 0.5435
C10 C 0.55719(8) 0.14499(11) 0.46735(5)
H8 H 0.5540 0.0579 0.4501
C11 C 0.50869(10) 0.25107(10) 0.43883(6)
C12 C 0.37430(9) 0.14355(12) 0.37027(6)
H9 H 0.4114 0.0590 0.3681
H10 H 0.3405 0.1557 0.3293
C13 C 0.29707(9) 0.13206(12) 0.42224(6)
H11 H 0.3296 0.1290 0.4635
H12 H 0.2589 0.0506 0.4161
H13 H 0.2532 0.2092 0.4205
C14 C 0.40443(9) 0.58262(11) 0.44953(5)
C15 C 0.44188(9) 0.71204(12) 0.45449(6)
H14 H 0.5045 0.7322 0.4373
C16 C 0.38784(11) 0.81141(12) 0.48448(7)
H15 H 0.4140 0.8987 0.4879
C17 C 0.29585(11) 0.78338(13) 0.50945(7)
H16 H 0.2589 0.8514 0.5296
C18 C 0.25805(11) 0.65476(13) 0.50478(7)
H17 H 0.1952 0.6351 0.5218
C19 C 0.31249(9) 0.55490(11) 0.47518(6)
H18 H 0.2866 0.4674 0.4725
O3 O 0.35682(6) 0.61497(8) 0.25835(4)
O4 O 0.09937(7) 0.58450(11) 0.34962(5)
C20 C 0.30355(10) 0.73933(11) 0.26535(6)
C21 C 0.23645(9) 0.72250(13) 0.32365(6)
H19 H 0.2773 0.7226 0.3623
H20 H 0.1911 0.7991 0.3262
C22 C 0.17703(8) 0.59458(12) 0.32131(5)
C23 C 0.21900(9) 0.47739(12) 0.28485(5)
H21 H 0.1644 0.4247 0.2668
H22 H 0.2558 0.4193 0.3142
C24 C 0.28784(8) 0.52222(10) 0.23110(5)
C25 C 0.23063(8) 0.61075(11) 0.18574(5)
C26 C 0.17279(8) 0.57954(13) 0.13352(5)
H23 H 0.1644 0.4901 0.1202
C27 C 0.12744(9) 0.68452(14) 0.10141(5)
H24 H 0.0887 0.6661 0.0652
C28 C 0.13806(9) 0.81569(14) 0.12168(6)
H25 H 0.1074 0.8853 0.0987
C29 C 0.19349(9) 0.84596(12) 0.17556(5)
H26 H 0.1987 0.9347 0.1905
C30 C 0.24065(10) 0.74171(11) 0.20643(6)
C31 C 0.37535(9) 0.85347(12) 0.27314(6)
H27 H 0.4101 0.8429 0.3139
H28 H 0.3381 0.9379 0.2750
C32 C 0.45113(9) 0.86294(12) 0.22032(6)
H29 H 0.4952 0.7860 0.2223
H30 H 0.4893 0.9448 0.2253
H31 H 0.4176 0.8640 0.1794
C33 C 0.34364(8) 0.41052(11) 0.19931(5)
C34 C 0.30528(9) 0.28180(12) 0.19486(6)
H32 H 0.2433 0.2621 0.2130
C35 C 0.35791(11) 0.18213(13) 0.16373(7)
H33 H 0.3311 0.0952 0.1607
C36 C 0.44904(11) 0.20884(12) 0.13727(6)
H34 H 0.4848 0.1406 0.1165
C37 C 0.48735(10) 0.33684(13) 0.14153(6)
H35 H 0.5495 0.3558 0.1234
C38 C 0.43542(9) 0.43742(12) 0.17208(6)
H36 H 0.4622 0.5245 0.1745
loop_
_geom_bond_atom_site_label_1
_geom_bond_atom_site_label_2
_geom_bond_site_symmetry_1
_geom_bond_site_symmetry_2
O1 C1 1_555 1_555
O2 C3 1_555 1_555
C1 C2 1_555 1_555
C2 H1 1_555 1_555
H2 C2 1_555 1_555
C3 C2 1_555 1_555
C4 C3 1_555 1_555
H3 C4 1_555 1_555
H4 C4 1_555 1_555
C5 O1 1_555 1_555
C6 C5 1_555 1_555
C7 C6 1_555 1_555
H5 C7 1_555 1_555
C8 C7 1_555 1_555
H6 C8 1_555 1_555
C9 C8 1_555 1_555
H7 C9 1_555 1_555
C10 C9 1_555 1_555
H8 C10 1_555 1_555
C11 C1 1_555 1_555
C12 C1 1_555 1_555
H9 C12 1_555 1_555
H10 C12 1_555 1_555
C13 C12 1_555 1_555
H11 C13 1_555 1_555
H12 C13 1_555 1_555
H13 C13 1_555 1_555
C14 C5 1_555 1_555
C15 C14 1_555 1_555
H14 C15 1_555 1_555
C16 C15 1_555 1_555
H15 C16 1_555 1_555
C17 C16 1_555 1_555
H16 C17 1_555 1_555
C18 C17 1_555 1_555
H17 C18 1_555 1_555
C19 C14 1_555 1_555
H18 C19 1_555 1_555
O3 C20 1_555 1_555
O4 C22 1_555 1_555
C20 C21 1_555 1_555
C21 H19 1_555 1_555
H20 C21 1_555 1_555
C22 C21 1_555 1_555
C23 C22 1_555 1_555
H21 C23 1_555 1_555
H22 C23 1_555 1_555
C24 O3 1_555 1_555
C25 C24 1_555 1_555
C26 C25 1_555 1_555
H23 C26 1_555 1_555
C27 C26 1_555 1_555
H24 C27 1_555 1_555
C28 C27 1_555 1_555
H25 C28 1_555 1_555
C29 C28 1_555 1_555
H26 C29 1_555 1_555
C30 C20 1_555 1_555
C31 C20 1_555 1_555
H27 C31 1_555 1_555
H28 C31 1_555 1_555
C32 C31 1_555 1_555
H29 C32 1_555 1_555
H30 C32 1_555 1_555
H31 C32 1_555 1_555
C33 C24 1_555 1_555
C34 C33 1_555 1_555
H32 C34 1_555 1_555
C35 C34 1_555 1_555
H33 C35 1_555 1_555
C36 C35 1_555 1_555
H34 C36 1_555 1_555
C37 C36 1_555 1_555
H35 C37 1_555 1_555
C38 C33 1_555 1_555
H36 C38 1_555 1_555
C4 C5 1_555 1_555
C6 C11 1_555 1_555
C10 C11 1_555 1_555
C18 C19 1_555 1_555
C23 C24 1_555 1_555
C25 C30 1_555 1_555
C29 C30 1_555 1_555
C37 C38 1_555 1_555

#END
