
#######################################################################
#
#                 Cambridge Crystallographic Data Centre
#                                CCDC 
#
#######################################################################
#
# If this CIF has been generated from an entry in the Cambridge 
# Structural Database, then it will include bibliographic, chemical, 
# crystal, experimental, refinement or atomic coordinate data resulting 
# from the CCDC's data processing and validation procedures.
#
#######################################################################

data_IZIKAF
_chemical_formula_moiety         'C12 H28 P1 1+,B1 F4 1-'
_chemical_name_systematic        'tri-t-butylphosphonium tetrafluoroborate'
_symmetry_cell_setting           monoclinic
_symmetry_space_group_name_H-M   'P 21/c'
_symmetry_Int_Tables_number      14
_space_group_name_Hall           '-P 2ybc'
loop_
_symmetry_equiv_pos_site_id
_symmetry_equiv_pos_as_xyz
1 x,y,z
2 -x,1/2+y,1/2-z
3 -x,-y,-z
4 x,1/2-y,1/2+z
_cell_length_a                   12.3185(17)
_cell_length_b                   23.883(4)
_cell_length_c                   16.219(3)
_cell_angle_alpha                90
_cell_angle_beta                 90.319(13)
_cell_angle_gamma                90
_cell_volume                     4771.6
_exptl_crystal_colour            colorless
_exptl_crystal_description       prismatic
_cell_formula_units_Z            12
loop_
_atom_site_label
_atom_site_type_symbol
_atom_site_fract_x
_atom_site_fract_y
_atom_site_fract_z
P1 P 0.27000(15) 0.06508(5) 0.35079(11)
H1 H 0.2793 0.0409 0.3010
C1 C 0.4080(6) 0.0980(2) 0.3663(4)
C2 C 0.2270(6) 0.0147(2) 0.4336(4)
C3 C 0.1630(6) 0.1159(3) 0.3195(4)
C4 C 0.4565(6) 0.1130(3) 0.2826(5)
H2 H 0.4174 0.1451 0.2593
H3 H 0.4496 0.0809 0.2452
H4 H 0.5333 0.1225 0.2896
C5 C 0.4011(7) 0.1499(3) 0.4224(5)
H5 H 0.3692 0.1393 0.4753
H6 H 0.3557 0.1784 0.3959
H7 H 0.4742 0.1650 0.4317
C6 C 0.4861(6) 0.0551(3) 0.4040(5)
H8 H 0.5593 0.0711 0.4066
H9 H 0.4869 0.0213 0.3697
H10 H 0.4622 0.0455 0.4597
C7 C 0.2350(7) 0.0397(3) 0.5206(4)
H11 H 0.1939 0.0748 0.5226
H12 H 0.3113 0.0471 0.5342
H13 H 0.2050 0.0132 0.5605
C8 C 0.1094(7) -0.0044(3) 0.4182(5)
H14 H 0.0908 -0.0342 0.4571
H15 H 0.1022 -0.0184 0.3616
H16 H 0.0602 0.0274 0.4259
C9 C 0.2987(7) -0.0384(2) 0.4249(5)
H17 H 0.3747 -0.0287 0.4363
H18 H 0.2921 -0.0531 0.3687
H19 H 0.2747 -0.0669 0.4643
C10 C 0.1103(6) 0.1447(3) 0.3973(5)
H20 H 0.0590 0.1736 0.3791
H21 H 0.1674 0.1619 0.4312
H22 H 0.0718 0.1165 0.4299
C11 C 0.0781(7) 0.0840(3) 0.2690(5)
H23 H 0.0238 0.1103 0.2477
H24 H 0.0426 0.0562 0.3041
H25 H 0.1136 0.0651 0.2228
C12 C 0.2129(8) 0.1601(3) 0.2612(5)
H26 H 0.2472 0.1413 0.2145
H27 H 0.2675 0.1820 0.2913
H28 H 0.1556 0.1851 0.2410
P2 P 0.77438(16) 0.23273(5) 0.14631(12)
H29 H 0.7864 0.2094 0.1967
C13 C 0.7354(7) 0.1807(2) 0.0655(4)
C14 C 0.9121(6) 0.2657(2) 0.1269(4)
C15 C 0.6675(6) 0.2834(2) 0.1781(4)
C16 C 0.8067(7) 0.1280(2) 0.0741(5)
H30 H 0.7780 0.0984 0.0384
H31 H 0.8063 0.1153 0.1315
H32 H 0.8812 0.1369 0.0578
C17 C 0.6180(6) 0.1611(3) 0.0835(5)
H33 H 0.5969 0.1322 0.0435
H34 H 0.5683 0.1930 0.0788
H35 H 0.6145 0.1456 0.1394
C18 C 0.7456(7) 0.2047(3) -0.0224(5)
H36 H 0.8199 0.2181 -0.0309
H37 H 0.6947 0.2358 -0.0294
H38 H 0.7288 0.1753 -0.0627
C19 C 0.9924(7) 0.2222(3) 0.0887(5)
H39 H 1.0649 0.2389 0.0848
H40 H 0.9669 0.2115 0.0336
H41 H 0.9958 0.1888 0.1239
C20 C 0.9066(7) 0.3155(3) 0.0680(5)
H42 H 0.8615 0.3450 0.0922
H43 H 0.8748 0.3035 0.0154
H44 H 0.9799 0.3300 0.0587
C21 C 0.9587(7) 0.2823(3) 0.2104(5)
H45 H 1.0371 0.2881 0.2055
H46 H 0.9447 0.2525 0.2504
H47 H 0.9242 0.3170 0.2290
C22 C 0.6166(7) 0.3113(3) 0.1027(5)
H48 H 0.5644 0.3397 0.1205
H49 H 0.5791 0.2830 0.0693
H50 H 0.6736 0.3290 0.0698
C23 C 0.7148(7) 0.3289(2) 0.2350(5)
H51 H 0.7727 0.3490 0.2062
H52 H 0.7445 0.3115 0.2850
H53 H 0.6574 0.3553 0.2502
C24 C 0.5807(8) 0.2525(3) 0.2292(5)
H54 H 0.5310 0.2799 0.2534
H55 H 0.6162 0.2310 0.2732
H56 H 0.5399 0.2270 0.1933
P3 P 0.24652(16) 0.10114(6) 0.84908(11)
H57 H 0.2485 0.1247 0.7981
C25 C 0.2748(7) 0.1515(2) 0.9338(5)
C26 C 0.1038(6) 0.0727(2) 0.8509(5)
C27 C 0.3523(6) 0.0465(3) 0.8308(5)
C28 C 0.3958(8) 0.1677(3) 0.9290(5)
H58 H 0.4107 0.1844 0.8751
H59 H 0.4406 0.1341 0.9362
H60 H 0.4130 0.1947 0.9725
C29 C 0.2119(7) 0.2063(2) 0.9174(5)
H61 H 0.1341 0.1998 0.9250
H62 H 0.2251 0.2187 0.8607
H63 H 0.2368 0.2352 0.9560
C30 C 0.2449(7) 0.1284(3) 1.0190(4)
H64 H 0.2651 0.1557 1.0615
H65 H 0.2841 0.0933 1.0288
H66 H 0.1666 0.1214 1.0212
C31 C 0.0225(7) 0.1180(3) 0.8838(6)
H67 H -0.0520 0.1041 0.8780
H68 H 0.0307 0.1526 0.8519
H69 H 0.0382 0.1256 0.9421
C32 C 0.0933(7) 0.0214(3) 0.9063(5)
H70 H 0.0180 0.0081 0.9053
H71 H 0.1138 0.0314 0.9629
H72 H 0.1413 -0.0083 0.8863
C33 C 0.0727(7) 0.0602(3) 0.7609(5)
H73 H 0.1101 0.0261 0.7427
H74 H 0.0941 0.0917 0.7259
H75 H -0.0060 0.0546 0.7567
C34 C 0.4542(7) 0.0741(3) 0.7904(5)
H76 H 0.4893 0.0992 0.8303
H77 H 0.4316 0.0956 0.7418
H78 H 0.5054 0.0449 0.7739
C35 C 0.3844(7) 0.0167(3) 0.9122(6)
H79 H 0.3207 -0.0022 0.9351
H80 H 0.4115 0.0444 0.9519
H81 H 0.4413 -0.0109 0.9013
C36 C 0.3110(8) 0.0033(3) 0.7661(5)
H82 H 0.3657 -0.0261 0.7588
H83 H 0.2982 0.0223 0.7133
H84 H 0.2431 -0.0135 0.7853
B1 B 0.2709(8) -0.0291(3) 0.1323(6)
F1 F 0.3414(4) 0.01623(14) 0.1460(3)
F2 F 0.2285(4) -0.04688(15) 0.2095(3)
F3 F 0.1878(4) -0.01264(18) 0.0838(3)
F4 F 0.3291(5) -0.07231(15) 0.0946(3)
B2 B 0.7867(7) 0.1367(3) 0.3633(6)
F5 F 0.7533(5) 0.11829(17) 0.2865(3)
F6 F 0.8524(4) 0.18386(15) 0.3512(3)
F7 F 0.8475(5) 0.09482(17) 0.4015(3)
F8 F 0.6981(4) 0.1502(2) 0.4107(4)
B3 B 0.2911(8) 0.1978(3) 0.6326(6)
F9 F 0.3533(5) 0.23945(17) 0.5936(3)
F10 F 0.2581(6) 0.21408(17) 0.7087(3)
F11 F 0.2024(5) 0.1873(2) 0.5824(4)
F12 F 0.3516(4) 0.14836(14) 0.6362(3)
loop_
_geom_bond_atom_site_label_1
_geom_bond_atom_site_label_2
_geom_bond_site_symmetry_1
_geom_bond_site_symmetry_2
P1 H1 1_555 1_555
C1 P1 1_555 1_555
C2 P1 1_555 1_555
C3 P1 1_555 1_555
C4 C1 1_555 1_555
H2 C4 1_555 1_555
H3 C4 1_555 1_555
H4 C4 1_555 1_555
C5 C1 1_555 1_555
H5 C5 1_555 1_555
H6 C5 1_555 1_555
H7 C5 1_555 1_555
C6 C1 1_555 1_555
H8 C6 1_555 1_555
H9 C6 1_555 1_555
H10 C6 1_555 1_555
C7 C2 1_555 1_555
H11 C7 1_555 1_555
H12 C7 1_555 1_555
H13 C7 1_555 1_555
C8 C2 1_555 1_555
H14 C8 1_555 1_555
H15 C8 1_555 1_555
H16 C8 1_555 1_555
C9 C2 1_555 1_555
H17 C9 1_555 1_555
H18 C9 1_555 1_555
H19 C9 1_555 1_555
C10 C3 1_555 1_555
H20 C10 1_555 1_555
H21 C10 1_555 1_555
H22 C10 1_555 1_555
C11 C3 1_555 1_555
H23 C11 1_555 1_555
H24 C11 1_555 1_555
H25 C11 1_555 1_555
C12 C3 1_555 1_555
H26 C12 1_555 1_555
H27 C12 1_555 1_555
H28 C12 1_555 1_555
P2 H29 1_555 1_555
C13 P2 1_555 1_555
C14 P2 1_555 1_555
C15 P2 1_555 1_555
C16 C13 1_555 1_555
H30 C16 1_555 1_555
H31 C16 1_555 1_555
H32 C16 1_555 1_555
C17 C13 1_555 1_555
H33 C17 1_555 1_555
H34 C17 1_555 1_555
H35 C17 1_555 1_555
C18 C13 1_555 1_555
H36 C18 1_555 1_555
H37 C18 1_555 1_555
H38 C18 1_555 1_555
C19 C14 1_555 1_555
H39 C19 1_555 1_555
H40 C19 1_555 1_555
H41 C19 1_555 1_555
C20 C14 1_555 1_555
H42 C20 1_555 1_555
H43 C20 1_555 1_555
H44 C20 1_555 1_555
C21 C14 1_555 1_555
H45 C21 1_555 1_555
H46 C21 1_555 1_555
H47 C21 1_555 1_555
C22 C15 1_555 1_555
H48 C22 1_555 1_555
H49 C22 1_555 1_555
H50 C22 1_555 1_555
C23 C15 1_555 1_555
H51 C23 1_555 1_555
H52 C23 1_555 1_555
H53 C23 1_555 1_555
C24 C15 1_555 1_555
H54 C24 1_555 1_555
H55 C24 1_555 1_555
H56 C24 1_555 1_555
P3 H57 1_555 1_555
C25 P3 1_555 1_555
C26 P3 1_555 1_555
C27 P3 1_555 1_555
C28 C25 1_555 1_555
H58 C28 1_555 1_555
H59 C28 1_555 1_555
H60 C28 1_555 1_555
C29 C25 1_555 1_555
H61 C29 1_555 1_555
H62 C29 1_555 1_555
H63 C29 1_555 1_555
C30 C25 1_555 1_555
H64 C30 1_555 1_555
H65 C30 1_555 1_555
H66 C30 1_555 1_555
C31 C26 1_555 1_555
H67 C31 1_555 1_555
H68 C31 1_555 1_555
H69 C31 1_555 1_555
C32 C26 1_555 1_555
H70 C32 1_555 1_555
H71 C32 1_555 1_555
H72 C32 1_555 1_555
C33 C26 1_555 1_555
H73 C33 1_555 1_555
H74 C33 1_555 1_555
H75 C33 1_555 1_555
C34 C27 1_555 1_555
H76 C34 1_555 1_555
H77 C34 1_555 1_555
H78 C34 1_555 1_555
C35 C27 1_555 1_555
H79 C35 1_555 1_555
H80 C35 1_555 1_555
H81 C35 1_555 1_555
C36 C27 1_555 1_555
H82 C36 1_555 1_555
H83 C36 1_555 1_555
H84 C36 1_555 1_555
B1 F1 1_555 1_555
F2 B1 1_555 1_555
F3 B1 1_555 1_555
F4 B1 1_555 1_555
B2 F5 1_555 1_555
F6 B2 1_555 1_555
F7 B2 1_555 1_555
F8 B2 1_555 1_555
B3 F9 1_555 1_555
F10 B3 1_555 1_555
F11 B3 1_555 1_555
F12 B3 1_555 1_555

#END
