
#######################################################################
#
#                 Cambridge Crystallographic Data Centre
#                                CCDC 
#
#######################################################################
#
# If this CIF has been generated from an entry in the Cambridge 
# Structural Database, then it will include bibliographic, chemical, 
# crystal, experimental, refinement or atomic coordinate data resulting 
# from the CCDC's data processing and validation procedures.
#
#######################################################################

data_IZIQEO
_chemical_formula_moiety         'C27 H29 N3 O3 S1,0.25(H2 O1)'
_chemical_name_systematic        
'7-Benzotriazol-1-yl-9,9-dibutylfluorene-2-sulfonic acid hydrate'
_symmetry_cell_setting           triclinic
_symmetry_space_group_name_H-M   'P -1'
_symmetry_Int_Tables_number      2
_space_group_name_Hall           '-P 1'
loop_
_symmetry_equiv_pos_site_id
_symmetry_equiv_pos_as_xyz
1 x,y,z
2 -x,-y,-z
_cell_length_a                   9.5199(19)
_cell_length_b                   12.255(3)
_cell_length_c                   25.823(5)
_cell_angle_alpha                79.61(3)
_cell_angle_beta                 85.49(3)
_cell_angle_gamma                77.95(3)
_cell_volume                     2895.35
_exptl_crystal_colour            colorless
_exptl_crystal_description       block
_chemical_melting_point          174deg.C(dec)
_cell_formula_units_Z            4
loop_
_atom_site_label
_atom_site_type_symbol
_atom_site_fract_x
_atom_site_fract_y
_atom_site_fract_z
C1 C 0.1729(9) 0.8860(7) 0.1004(4)
H1 H 0.0963 0.9332 0.0823
C2 C 0.3091(9) 0.8556(6) 0.0749(3)
C3 C 0.4214(8) 0.7881(6) 0.1037(3)
H2 H 0.5123 0.7719 0.0874
C4 C 0.4006(8) 0.7451(6) 0.1556(3)
H3 H 0.4758 0.6959 0.1737
C5 C 0.2677(8) 0.7740(6) 0.1820(3)
C6 C 0.2174(8) 0.7488(7) 0.2360(3)
C7 C 0.2865(11) 0.6859(8) 0.2830(4)
H4 H 0.3833 0.6519 0.281
C8 C 0.2140(12) 0.6760(9) 0.3286(4)
H5 H 0.2562 0.6281 0.3578
C9 C 0.0720(13) 0.7381(9) 0.3332(4)
C10 C 0.0036(10) 0.7946(8) 0.2901(4)
H6 H -0.0933 0.8279 0.2929
C11 C 0.0760(9) 0.8036(8) 0.2414(3)
C12 C 0.0066(12) 0.8628(7) 0.1878(3)
C13 C 0.1583(9) 0.8424(7) 0.1538(3)
N1 N 0.3307(7) 0.9111(5) 0.0229(3)
N2 N 0.2439(8) 1.0111(5) 0.0043(3)
N3 N 0.2825(8) 1.0446(5) -0.0447(3)
C14 C 0.3985(9) 0.9657(6) -0.0581(3)
C15 C 0.4800(11) 0.9611(8) -0.1047(3)
H7 H 0.4599 1.0205 -0.1328
C16 C 0.5892(11) 0.8718(8) -0.1107(4)
H8 H 0.6417 0.8672 -0.1424
C17 C 0.6176(9) 0.7868(7) -0.0661(4)
H9 H 0.6945 0.7271 -0.0691
C18 C 0.5401(9) 0.7844(7) -0.0174(4)
H10 H 0.5604 0.7256 0.0109
C19 C 0.4299(9) 0.8787(6) -0.0158(3)
S1 S -0.0128(4) 0.7347(3) 0.39678(11)
O1 O -0.1590(9) 0.8008(7) 0.3906(3)
O2 O 0.0004(10) 0.6184(8) 0.4213(3)
O3 O 0.0661(11) 0.7928(8) 0.4252(3)
C20 C -0.0222(13) 0.9951(9) 0.1910(5)
H11 H -0.0538 1.0353 0.1567
H12 H -0.1035 1.0093 0.2156
C21 C 0.0799(16) 1.0463(11) 0.2045(6)
H13 H 0.1237 1.082 0.1724
H14 H 0.1543 0.9885 0.2224
C22 C 0.0271(16) 1.1343(11) 0.2394(6)
H15 H -0.0756 1.1621 0.2364
H16 H 0.0457 1.1018 0.2759
C23 C 0.0994(15) 1.2203(11) 0.2230(6)
H17 H 0.0512 1.286 0.2373
H18 H 0.102 1.2379 0.1852
H19 H 0.1957 1.1977 0.235
C24 C -0.1071(11) 0.8031(8) 0.1697(4)
H20 H -0.189 0.811 0.1945
H21 H -0.1399 0.8456 0.1359
C25 C -0.0689(11) 0.6870(8) 0.1643(5)
H22 H -0.0299 0.6469 0.1976
H23 H 0.0106 0.6815 0.1384
C26 C -0.1777(12) 0.6121(9) 0.1486(5)
H24 H -0.2604 0.6182 0.1732
H25 H -0.2122 0.6466 0.1139
C27 C -0.1261(15) 0.5029(11) 0.1480(6)
H26 H -0.1987 0.4695 0.1367
H27 H -0.0986 0.4656 0.1827
H28 H -0.0437 0.4948 0.124
C28 C 0.5904(8) 0.3307(6) 0.1713(3)
H29 H 0.6833 0.2877 0.1709
C29 C 0.5330(8) 0.4018(6) 0.1243(3)
C30 C 0.3952(8) 0.4611(6) 0.1253(3)
H30 H 0.3562 0.5036 0.0943
C31 C 0.3129(8) 0.4591(6) 0.1715(4)
H31 H 0.2209 0.5036 0.1719
C32 C 0.3655(8) 0.3920(7) 0.2169(3)
C33 C 0.3050(9) 0.3750(8) 0.2710(4)
C34 C 0.1730(9) 0.4223(7) 0.2929(4)
H32 H 0.1051 0.4736 0.2721
C35 C 0.1453(11) 0.3916(10) 0.3458(4)
H33 H 0.0577 0.4217 0.3614
C36 C 0.2530(12) 0.3120(10) 0.3774(4)
C37 C 0.3823(9) 0.2681(9) 0.3546(4)
H34 H 0.4525 0.2194 0.3754
C38 C 0.4088(10) 0.2952(7) 0.3018(4)
C39 C 0.5465(8) 0.2601(9) 0.2723(3)
C40 C 0.5070(8) 0.3274(6) 0.2160(3)
N4 N 0.6219(6) 0.4164(5) 0.0779(2)
N5 N 0.6100(7) 0.5192(5) 0.0488(3)
N6 N 0.7095(8) 0.5186(6) 0.0104(3)
C41 C 0.7913(9) 0.4096(7) 0.0167(3)
C42 C 0.9127(8) 0.3644(8) -0.0154(4)
H35 H 0.9476 0.4087 -0.0447
C43 C 0.9730(10) 0.2542(9) -0.0006(4)
H36 H 1.0543 0.2216 -0.0189
C44 C 0.9134(11) 0.1890(8) 0.0423(4)
H37 H 0.9573 0.1132 0.0506
C45 C 0.7950(9) 0.2275(7) 0.0734(3)
H38 H 0.7567 0.1807 0.1008
C46 C 0.7384(7) 0.3422(6) 0.0598(3)
S2 S 0.2054(5) 0.2628(5) 0.44356(19)
O4 O 0.0715(12) 0.3415(9) 0.4581(4)
O5 O 0.2988(15) 0.1740(12) 0.4684(6)
O6 O 0.2286(12) 0.3374(10) 0.4542(4)
C47 C 0.6707(10) 0.3023(10) 0.2894(4)
H39 H 0.7529 0.2839 0.2656
H40 H 0.6959 0.2615 0.3243
C48 C 0.6428(9) 0.4318(10) 0.2908(3)
H41 H 0.6229 0.4724 0.2555
H42 H 0.5571 0.4508 0.3129
C49 C 0.7635(10) 0.4737(13) 0.3108(4)
H43 H 0.7874 0.4294 0.3452
H44 H 0.8474 0.4585 0.2874
C50 C 0.7360(15) 0.5959(14) 0.3156(6)
H45 H 0.8187 0.6125 0.3292
H46 H 0.6541 0.6125 0.3391
H47 H 0.7174 0.6414 0.2815
C51 C 0.5950(10) 0.1355(9) 0.2757(4)
H48 H 0.6184 0.1027 0.3118
H49 H 0.6823 0.1209 0.2539
C52 C 0.4812(14) 0.0745(10) 0.2580(5)
H50 H 0.3907 0.0982 0.2768
H51 H 0.4667 0.1024 0.2209
C53 C 0.5131(13) -0.0546(8) 0.2659(4)
H52 H 0.4523 -0.0784 0.2434
H53 H 0.6122 -0.0802 0.2545
C54 C 0.4923(15) -0.1058(12) 0.3162(6)
H54 H 0.5159 -0.1865 0.318
H55 H 0.3935 -0.0837 0.3274
H56 H 0.5529 -0.0837 0.3388
O7 O 0.0000 0.5000 0.50000
loop_
_geom_bond_atom_site_label_1
_geom_bond_atom_site_label_2
_geom_bond_site_symmetry_1
_geom_bond_site_symmetry_2
C1 H1 1_555 1_555
C2 C1 1_555 1_555
C3 C2 1_555 1_555
H2 C3 1_555 1_555
C4 C3 1_555 1_555
H3 C4 1_555 1_555
C5 C4 1_555 1_555
C6 C5 1_555 1_555
C7 C6 1_555 1_555
H4 C7 1_555 1_555
C8 C7 1_555 1_555
H5 C8 1_555 1_555
C9 C8 1_555 1_555
C10 C9 1_555 1_555
H6 C10 1_555 1_555
C11 C6 1_555 1_555
C12 C11 1_555 1_555
C13 C1 1_555 1_555
N1 C2 1_555 1_555
N2 N1 1_555 1_555
N3 N2 1_555 1_555
C14 N3 1_555 1_555
C15 C14 1_555 1_555
H7 C15 1_555 1_555
C16 C15 1_555 1_555
H8 C16 1_555 1_555
C17 C16 1_555 1_555
H9 C17 1_555 1_555
C18 C17 1_555 1_555
H10 C18 1_555 1_555
C19 N1 1_555 1_555
S1 C9 1_555 1_555
O1 S1 1_555 1_555
O2 S1 1_555 1_555
O3 S1 1_555 1_555
C20 C12 1_555 1_555
H11 C20 1_555 1_555
H12 C20 1_555 1_555
C21 C20 1_555 1_555
H13 C21 1_555 1_555
H14 C21 1_555 1_555
C22 C21 1_555 1_555
H15 C22 1_555 1_555
H16 C22 1_555 1_555
C23 C22 1_555 1_555
H17 C23 1_555 1_555
H18 C23 1_555 1_555
H19 C23 1_555 1_555
C24 C12 1_555 1_555
H20 C24 1_555 1_555
H21 C24 1_555 1_555
C25 C24 1_555 1_555
H22 C25 1_555 1_555
H23 C25 1_555 1_555
C26 C25 1_555 1_555
H24 C26 1_555 1_555
H25 C26 1_555 1_555
C27 C26 1_555 1_555
H26 C27 1_555 1_555
H27 C27 1_555 1_555
H28 C27 1_555 1_555
C28 H29 1_555 1_555
C29 C28 1_555 1_555
C30 C29 1_555 1_555
H30 C30 1_555 1_555
C31 C30 1_555 1_555
H31 C31 1_555 1_555
C32 C31 1_555 1_555
C33 C32 1_555 1_555
C34 C33 1_555 1_555
H32 C34 1_555 1_555
C35 C34 1_555 1_555
H33 C35 1_555 1_555
C36 C35 1_555 1_555
C37 C36 1_555 1_555
H34 C37 1_555 1_555
C38 C33 1_555 1_555
C39 C38 1_555 1_555
C40 C28 1_555 1_555
N4 C29 1_555 1_555
N5 N4 1_555 1_555
N6 N5 1_555 1_555
C41 N6 1_555 1_555
C42 C41 1_555 1_555
H35 C42 1_555 1_555
C43 C42 1_555 1_555
H36 C43 1_555 1_555
C44 C43 1_555 1_555
H37 C44 1_555 1_555
C45 C44 1_555 1_555
H38 C45 1_555 1_555
C46 N4 1_555 1_555
S2 C36 1_555 1_555
O4 S2 1_555 1_555
O5 S2 1_555 1_555
O6 S2 1_555 1_555
C47 C39 1_555 1_555
H39 C47 1_555 1_555
H40 C47 1_555 1_555
C48 C47 1_555 1_555
H41 C48 1_555 1_555
H42 C48 1_555 1_555
C49 C48 1_555 1_555
H43 C49 1_555 1_555
H44 C49 1_555 1_555
C50 C49 1_555 1_555
H45 C50 1_555 1_555
H46 C50 1_555 1_555
H47 C50 1_555 1_555
C51 C39 1_555 1_555
H48 C51 1_555 1_555
H49 C51 1_555 1_555
C52 C51 1_555 1_555
H50 C52 1_555 1_555
H51 C52 1_555 1_555
C53 C52 1_555 1_555
H52 C53 1_555 1_555
H53 C53 1_555 1_555
C54 C53 1_555 1_555
H54 C54 1_555 1_555
H55 C54 1_555 1_555
H56 C54 1_555 1_555
C5 C13 1_555 1_555
C10 C11 1_555 1_555
C12 C13 1_555 1_555
C14 C19 1_555 1_555
C18 C19 1_555 1_555
C32 C40 1_555 1_555
C37 C38 1_555 1_555
C39 C40 1_555 1_555
C41 C46 1_555 1_555
C45 C46 1_555 1_555

#END
