
#######################################################################
#
#                 Cambridge Crystallographic Data Centre
#                                CCDC 
#
#######################################################################
#
# If this CIF has been generated from an entry in the Cambridge 
# Structural Database, then it will include bibliographic, chemical, 
# crystal, experimental, refinement or atomic coordinate data resulting 
# from the CCDC's data processing and validation procedures.
#
#######################################################################

data_IZIQUE
_chemical_formula_moiety         'C26 H22 F2 N2'
_chemical_name_systematic        
7-(4-Fluorobenzylidene)-3-(4-fluorophenyl)-2-phenyl-3,3a,4,5,6,7-hexahydro-2H-indazole
_symmetry_cell_setting           monoclinic
_symmetry_space_group_name_H-M   'P 21/n'
_symmetry_Int_Tables_number      14
_space_group_name_Hall           '-P 2yn'
loop_
_symmetry_equiv_pos_site_id
_symmetry_equiv_pos_as_xyz
1 x,y,z
2 1/2-x,1/2+y,1/2-z
3 -x,-y,-z
4 1/2+x,1/2-y,1/2+z
_cell_length_a                   5.4888(16)
_cell_length_b                   14.587(4)
_cell_length_c                   25.544(8)
_cell_angle_alpha                90
_cell_angle_beta                 94.134(5)
_cell_angle_gamma                90
_cell_volume                     2039.86
_cell_formula_units_Z            4
loop_
_atom_site_label
_atom_site_type_symbol
_atom_site_fract_x
_atom_site_fract_y
_atom_site_fract_z
F1 F 1.6914(3) 0.46343(14) 0.43704(7)
F2 F 0.4457(5) 0.83035(14) -0.04786(8)
N1 N 0.6265(4) 0.52132(14) 0.18548(8)
N2 N 0.4721(4) 0.54283(14) 0.14128(8)
C1 C 1.1624(5) 0.55072(18) 0.36196(11)
H1 H 1.0222 0.5841 0.3675
C2 C 1.3282(6) 0.5322(2) 0.40380(11)
H2 H 1.3014 0.5537 0.4372
C3 C 1.5303(6) 0.4824(2) 0.39578(12)
C4 C 1.5752(6) 0.44965(19) 0.34751(13)
H3 H 1.7146 0.4152 0.3429
C5 C 1.4105(5) 0.46840(18) 0.30548(11)
H4 H 1.4396 0.4460 0.2724
C6 C 1.2009(5) 0.52046(17) 0.31175(10)
C7 C 1.0315(5) 0.53617(18) 0.26526(10)
H5 H 1.0451 0.4944 0.2381
C8 C 0.8607(5) 0.60098(18) 0.25573(10)
C9 C 0.6990(5) 0.59682(18) 0.20757(10)
C10 C 0.8098(6) 0.68070(17) 0.29102(11)
H6 H 0.9576 0.6949 0.3126
H7 H 0.6863 0.6625 0.3143
C11 C 0.7228(6) 0.76759(19) 0.26142(11)
H8 H 0.6732 0.8127 0.2864
H9 H 0.8575 0.7932 0.2436
C12 C 0.5109(6) 0.74878(18) 0.22146(11)
H10 H 0.3743 0.7237 0.2388
H11 H 0.4583 0.8053 0.2042
C13 C 0.5933(5) 0.68110(17) 0.18145(10)
H12 H 0.7204 0.7103 0.1622
C14 C 0.4007(5) 0.64043(17) 0.14142(10)
H13 H 0.2385 0.6463 0.1548
C15 C 0.4014(5) 0.68707(18) 0.08881(10)
C16 C 0.5632(6) 0.6619(2) 0.05299(12)
H14 H 0.6645 0.6116 0.0600
C17 C 0.5790(7) 0.7099(3) 0.00659(13)
H15 H 0.6884 0.6922 -0.0177
C18 C 0.4316(8) 0.7828(3) -0.00247(13)
C19 C 0.2673(8) 0.8086(2) 0.03111(14)
H16 H 0.1651 0.8584 0.0234
C20 C 0.2518(7) 0.7602(2) 0.07734(12)
H17 H 0.1385 0.7777 0.1008
C21 C 0.3011(5) 0.47437(19) 0.12492(10)
C22 C 0.3285(6) 0.3857(2) 0.14308(11)
H18 H 0.4612 0.3704 0.1661
C23 C 0.1592(6) 0.3196(2) 0.12714(12)
H19 H 0.1795 0.2600 0.1396
C24 C -0.0375(6) 0.3402(2) 0.09344(13)
H20 H -0.1523 0.2955 0.0835
C25 C -0.0629(6) 0.4274(2) 0.07467(13)
H21 H -0.1948 0.4419 0.0512
C26 C 0.1052(6) 0.4945(2) 0.09001(12)
H22 H 0.0860 0.5536 0.0767
loop_
_geom_bond_atom_site_label_1
_geom_bond_atom_site_label_2
_geom_bond_site_symmetry_1
_geom_bond_site_symmetry_2
F1 C3 1_555 1_555
F2 C18 1_555 1_555
N1 N2 1_555 1_555
N2 C14 1_555 1_555
C1 H1 1_555 1_555
C2 C1 1_555 1_555
H2 C2 1_555 1_555
C3 C2 1_555 1_555
C4 C3 1_555 1_555
H3 C4 1_555 1_555
C5 C4 1_555 1_555
H4 C5 1_555 1_555
C6 C1 1_555 1_555
C7 C6 1_555 1_555
H5 C7 1_555 1_555
C8 C7 1_555 1_555
C9 N1 1_555 1_555
C10 C8 1_555 1_555
H6 C10 1_555 1_555
H7 C10 1_555 1_555
C11 C10 1_555 1_555
H8 C11 1_555 1_555
H9 C11 1_555 1_555
C12 C11 1_555 1_555
H10 C12 1_555 1_555
H11 C12 1_555 1_555
C13 C9 1_555 1_555
H12 C13 1_555 1_555
C14 C13 1_555 1_555
H13 C14 1_555 1_555
C15 C14 1_555 1_555
C16 C15 1_555 1_555
H14 C16 1_555 1_555
C17 C16 1_555 1_555
H15 C17 1_555 1_555
C18 C17 1_555 1_555
C19 C18 1_555 1_555
H16 C19 1_555 1_555
C20 C15 1_555 1_555
H17 C20 1_555 1_555
C21 N2 1_555 1_555
C22 C21 1_555 1_555
H18 C22 1_555 1_555
C23 C22 1_555 1_555
H19 C23 1_555 1_555
C24 C23 1_555 1_555
H20 C24 1_555 1_555
C25 C24 1_555 1_555
H21 C25 1_555 1_555
C26 C21 1_555 1_555
H22 C26 1_555 1_555
C5 C6 1_555 1_555
C8 C9 1_555 1_555
C12 C13 1_555 1_555
C19 C20 1_555 1_555
C25 C26 1_555 1_555

#END
