
#######################################################################
#
#                 Cambridge Crystallographic Data Centre
#                                CCDC 
#
#######################################################################
#
# If this CIF has been generated from an entry in the Cambridge 
# Structural Database, then it will include bibliographic, chemical, 
# crystal, experimental, refinement or atomic coordinate data resulting 
# from the CCDC's data processing and validation procedures.
#
#######################################################################

data_IZIQAK
_chemical_formula_moiety         'C27 H29 N3'
_chemical_name_systematic        
1-(9,9-Dibutyl-9H-fluoren-2-yl)-1H-benzotriazole
_symmetry_cell_setting           monoclinic
_symmetry_space_group_name_H-M   'P 21/n'
_symmetry_Int_Tables_number      14
_space_group_name_Hall           '-P 2yn'
loop_
_symmetry_equiv_pos_site_id
_symmetry_equiv_pos_as_xyz
1 x,y,z
2 1/2-x,1/2+y,1/2-z
3 -x,-y,-z
4 1/2+x,1/2-y,1/2+z
_cell_length_a                   8.9243(8)
_cell_length_b                   25.137(2)
_cell_length_c                   10.4656(11)
_cell_angle_alpha                90
_cell_angle_beta                 98.781(5)
_cell_angle_gamma                90
_cell_volume                     2320.23
_exptl_crystal_colour            colorless
_exptl_crystal_description       plate
_chemical_melting_point          150-152deg.C
_cell_formula_units_Z            4
loop_
_atom_site_label
_atom_site_type_symbol
_atom_site_fract_x
_atom_site_fract_y
_atom_site_fract_z
C1 C 0.2285(3) 0.14859(13) 0.4227(3)
H1 H 0.1293 0.1555 0.3847
C2 C 0.2573(3) 0.11452(13) 0.5279(3)
C3 C 0.4052(4) 0.10345(14) 0.5861(3)
H2 H 0.4225 0.0806 0.6567
C4 C 0.5262(4) 0.12655(14) 0.5383(3)
H3 H 0.625 0.1189 0.576
C5 C 0.4996(3) 0.16086(13) 0.4350(3)
C6 C 0.6026(4) 0.19104(12) 0.3664(3)
C7 C 0.7599(4) 0.19644(13) 0.3931(3)
H4 H 0.8161 0.1776 0.4605
C8 C 0.8303(4) 0.23046(14) 0.3170(4)
H5 H 0.9348 0.2349 0.3347
C9 C 0.7488(4) 0.25786(14) 0.2157(4)
H6 H 0.7989 0.2803 0.1655
C10 C 0.5909(4) 0.25222(13) 0.1872(3)
H7 H 0.5356 0.2704 0.1182
C11 C 0.5190(4) 0.21899(13) 0.2644(3)
C12 C 0.3473(3) 0.20886(13) 0.2584(3)
C13 C 0.3487(4) 0.17213(12) 0.3749(3)
C14 C 0.2636(3) 0.26158(13) 0.2709(3)
H8 H 0.2685 0.2824 0.1936
H9 H 0.1576 0.2535 0.2726
C15 C 0.3197(4) 0.29588(14) 0.3867(4)
H10 H 0.4198 0.3092 0.3784
H11 H 0.3294 0.2741 0.464
C16 C 0.2173(4) 0.34251(14) 0.4030(4)
H12 H 0.1186 0.3292 0.4155
H13 H 0.2038 0.3635 0.3242
C17 C 0.2779(4) 0.37813(16) 0.5156(4)
H14 H 0.2087 0.4071 0.5204
H15 H 0.375 0.3919 0.5034
H16 H 0.2883 0.358 0.5944
C18 C 0.2780(4) 0.18082(13) 0.1326(3)
H17 H 0.1704 0.1761 0.1342
H18 H 0.2882 0.2043 0.0609
C19 C 0.3443(4) 0.12724(14) 0.1056(3)
H19 H 0.4512 0.1318 0.1007
H20 H 0.3363 0.1037 0.1777
C20 C 0.2691(4) 0.10102(15) -0.0171(4)
H21 H 0.2796 0.1239 -0.0898
H22 H 0.1617 0.0971 -0.0135
C21 C 0.3347(5) 0.04709(16) -0.0398(4)
H23 H 0.2824 0.0323 -0.1188
H24 H 0.3228 0.0239 0.0309
H25 H 0.4405 0.0507 -0.0458
N1 N 0.1344(3) 0.09097(11) 0.5792(3)
N2 N 0.0127(3) 0.12160(11) 0.5983(3)
N3 N -0.0798(3) 0.09249(13) 0.6546(3)
C22 C -0.0196(4) 0.04233(15) 0.6729(3)
C23 C -0.0744(4) -0.00223(17) 0.7286(4)
H26 H -0.1646 -0.0011 0.7627
C24 C 0.0089(5) -0.04784(17) 0.7317(4)
H27 H -0.0252 -0.0783 0.7688
C25 C 0.1455(5) -0.04983(16) 0.6798(4)
H28 H 0.1985 -0.0818 0.6823
C26 C 0.2022(4) -0.00612(14) 0.6259(4)
H29 H 0.2923 -0.0075 0.5915
C27 C 0.1182(4) 0.04055(14) 0.6251(3)
loop_
_geom_bond_atom_site_label_1
_geom_bond_atom_site_label_2
_geom_bond_site_symmetry_1
_geom_bond_site_symmetry_2
C1 H1 1_555 1_555
C2 C1 1_555 1_555
C3 C2 1_555 1_555
H2 C3 1_555 1_555
C4 C3 1_555 1_555
H3 C4 1_555 1_555
C5 C4 1_555 1_555
C6 C5 1_555 1_555
C7 C6 1_555 1_555
H4 C7 1_555 1_555
C8 C7 1_555 1_555
H5 C8 1_555 1_555
C9 C8 1_555 1_555
H6 C9 1_555 1_555
C10 C9 1_555 1_555
H7 C10 1_555 1_555
C11 C6 1_555 1_555
C12 C11 1_555 1_555
C13 C1 1_555 1_555
C14 C12 1_555 1_555
H8 C14 1_555 1_555
H9 C14 1_555 1_555
C15 C14 1_555 1_555
H10 C15 1_555 1_555
H11 C15 1_555 1_555
C16 C15 1_555 1_555
H12 C16 1_555 1_555
H13 C16 1_555 1_555
C17 C16 1_555 1_555
H14 C17 1_555 1_555
H15 C17 1_555 1_555
H16 C17 1_555 1_555
C18 C12 1_555 1_555
H17 C18 1_555 1_555
H18 C18 1_555 1_555
C19 C18 1_555 1_555
H19 C19 1_555 1_555
H20 C19 1_555 1_555
C20 C19 1_555 1_555
H21 C20 1_555 1_555
H22 C20 1_555 1_555
C21 C20 1_555 1_555
H23 C21 1_555 1_555
H24 C21 1_555 1_555
H25 C21 1_555 1_555
N1 C2 1_555 1_555
N2 N1 1_555 1_555
N3 N2 1_555 1_555
C22 N3 1_555 1_555
C23 C22 1_555 1_555
H26 C23 1_555 1_555
C24 C23 1_555 1_555
H27 C24 1_555 1_555
C25 C24 1_555 1_555
H28 C25 1_555 1_555
C26 C25 1_555 1_555
H29 C26 1_555 1_555
C27 N1 1_555 1_555
C5 C13 1_555 1_555
C10 C11 1_555 1_555
C12 C13 1_555 1_555
C22 C27 1_555 1_555
C26 C27 1_555 1_555

#END
