
#######################################################################
#
#                 Cambridge Crystallographic Data Centre
#                                CCDC 
#
#######################################################################
#
# If this CIF has been generated from an entry in the Cambridge 
# Structural Database, then it will include bibliographic, chemical, 
# crystal, experimental, refinement or atomic coordinate data resulting 
# from the CCDC's data processing and validation procedures.
#
#######################################################################

data_IZISOA
_chemical_formula_moiety         'C15 H22 N2 O3'
_chemical_name_systematic        
3-(1-((Allyloxy)amino)ethylidene)-1-cyclohexylpyrrolidine-2,4-dione
_symmetry_cell_setting           monoclinic
_symmetry_space_group_name_H-M   'C 2/c'
_symmetry_Int_Tables_number      15
_space_group_name_Hall           '-C 2yn'
loop_
_symmetry_equiv_pos_site_id
_symmetry_equiv_pos_as_xyz
1 x,y,z
2 -x,y,1/2-z
3 1/2+x,1/2+y,z
4 1/2-x,1/2+y,1/2-z
5 -x,-y,-z
6 x,-y,1/2+z
7 1/2-x,1/2-y,-z
8 1/2+x,1/2-y,1/2+z
_cell_length_a                   32.778(9)
_cell_length_b                   5.1948(14)
_cell_length_c                   18.025(5)
_cell_angle_alpha                90
_cell_angle_beta                 102.734(3)
_cell_angle_gamma                90
_cell_volume                     2993.72
_exptl_crystal_colour            colorless
_exptl_crystal_description       needle
_cell_formula_units_Z            8
loop_
_atom_site_label
_atom_site_type_symbol
_atom_site_fract_x
_atom_site_fract_y
_atom_site_fract_z
C1 C 0.07968(13) 1.0254(11) 0.3756(3)
H1 H 0.0809 1.1999 0.3873
H2 H 0.0549 0.9350 0.3722
C2 C 0.11332(11) 0.9055(10) 0.3636(3)
H3 H 0.1101 0.7311 0.3521
C3 C 0.15495(9) 1.0135(7) 0.36630(18)
H4 H 0.1594 1.0419 0.3155
H5 H 0.1588 1.1747 0.3941
C4 C 0.24848(8) 0.7768(6) 0.37603(15)
C5 C 0.29040(8) 0.8513(5) 0.39099(14)
C6 C 0.32393(8) 0.7421(6) 0.35870(14)
C7 C 0.30736(8) 1.0479(6) 0.44262(16)
C8 C 0.35352(8) 1.0677(7) 0.44419(18)
H6 H 0.3605 1.2354 0.4268
H7 H 0.3702 1.0377 0.4950
C9 C 0.39953(8) 0.8296(6) 0.36925(16)
H8 H 0.3961 0.6809 0.3350
C10 C 0.43499(9) 0.7689(7) 0.43603(18)
H9 H 0.4284 0.6137 0.4609
H10 H 0.4380 0.9085 0.4726
C11 C 0.47627(9) 0.7310(7) 0.4114(2)
H11 H 0.4985 0.7037 0.4561
H12 H 0.4744 0.5787 0.3797
C12 C 0.48670(9) 0.9594(7) 0.3681(2)
H13 H 0.4920 1.1074 0.4017
H14 H 0.5120 0.9241 0.3503
C13 C 0.45183(11) 1.0203(9) 0.3015(2)
H15 H 0.4489 0.8808 0.2650
H16 H 0.4587 1.1754 0.2769
C14 C 0.41039(10) 1.0589(8) 0.3254(2)
H17 H 0.4122 1.2119 0.3568
H18 H 0.3883 1.0855 0.2804
C15 C 0.23064(9) 0.5721(6) 0.32077(18)
H19 H 0.2202 0.4346 0.3469
H20 H 0.2520 0.5072 0.2969
H21 H 0.2082 0.6423 0.2827
N1 N 0.36007(7) 0.8664(5) 0.39228(14)
N2 N 0.22356(7) 0.8972(5) 0.41290(14)
H22 H 0.2329 1.0252 0.4419
O1 O 0.32249(6) 0.5713(4) 0.31114(12)
O2 O 0.28964(6) 1.1861(5) 0.48167(12)
O3 O 0.18243(6) 0.8189(4) 0.40523(12)
loop_
_geom_bond_atom_site_label_1
_geom_bond_atom_site_label_2
_geom_bond_site_symmetry_1
_geom_bond_site_symmetry_2
C1 H1 1_555 1_555
H2 C1 1_555 1_555
C2 C1 1_555 1_555
H3 C2 1_555 1_555
C3 C2 1_555 1_555
H4 C3 1_555 1_555
H5 C3 1_555 1_555
C4 C5 1_555 1_555
C5 C6 1_555 1_555
C6 N1 1_555 1_555
C7 C5 1_555 1_555
C8 C7 1_555 1_555
H6 C8 1_555 1_555
H7 C8 1_555 1_555
C9 H8 1_555 1_555
C10 C9 1_555 1_555
H9 C10 1_555 1_555
H10 C10 1_555 1_555
C11 C10 1_555 1_555
H11 C11 1_555 1_555
H12 C11 1_555 1_555
C12 C11 1_555 1_555
H13 C12 1_555 1_555
H14 C12 1_555 1_555
C13 C12 1_555 1_555
H15 C13 1_555 1_555
H16 C13 1_555 1_555
C14 C9 1_555 1_555
H17 C14 1_555 1_555
H18 C14 1_555 1_555
C15 C4 1_555 1_555
H19 C15 1_555 1_555
H20 C15 1_555 1_555
H21 C15 1_555 1_555
N1 C8 1_555 1_555
N2 C4 1_555 1_555
H22 N2 1_555 1_555
O1 C6 1_555 1_555
O2 C7 1_555 1_555
O3 C3 1_555 1_555
C9 N1 1_555 1_555
C13 C14 1_555 1_555
N2 O3 1_555 1_555

#END
