
#######################################################################
#
#                 Cambridge Crystallographic Data Centre
#                                CCDC 
#
#######################################################################
#
# If this CIF has been generated from an entry in the Cambridge 
# Structural Database, then it will include bibliographic, chemical, 
# crystal, experimental, refinement or atomic coordinate data resulting 
# from the CCDC's data processing and validation procedures.
#
#######################################################################

data_IZOCUX
_chemical_formula_moiety         'C26 H25 F3 N8 O2 S1,H2 O1'
_chemical_name_systematic        
'1,1,1-trifluoro-N-(2,8,14,20-tetramethyl-2,8,14,20,25,26,27-hepta-azapentacyclo[19.3.1.1^3,7^.1^9,13^.1^15,19^]octacosa-1(25),3(28),4,6,9(27),10,12,15(26),16,18,21,23-dodecaen-28-yl)methanesulfonamide monohydrate'
_symmetry_cell_setting           triclinic
_symmetry_space_group_name_H-M   'P -1'
_symmetry_Int_Tables_number      2
_space_group_name_Hall           '-P 1'
loop_
_symmetry_equiv_pos_site_id
_symmetry_equiv_pos_as_xyz
1 x,y,z
2 -x,-y,-z
_cell_length_a                   10.074(3)
_cell_length_b                   11.434(3)
_cell_length_c                   12.631(4)
_cell_angle_alpha                91.555(2)
_cell_angle_beta                 105.460(4)
_cell_angle_gamma                108.834(3)
_cell_volume                     1316.93
_exptl_crystal_colour            colorless
_exptl_crystal_description       block
_cell_formula_units_Z            2
loop_
_atom_site_label
_atom_site_type_symbol
_atom_site_fract_x
_atom_site_fract_y
_atom_site_fract_z
S1 S 0.91475(6) 0.24373(5) 0.14935(5)
F1 F 0.82072(17) 0.00136(13) 0.14490(14)
F2 F 1.0472(2) 0.08189(18) 0.1587(2)
F3 F 0.9687(3) 0.09670(19) 0.29919(14)
O1 O 0.8479(2) 0.21522(19) 0.03314(15)
O2 O 1.0565(2) 0.33355(18) 0.1948(2)
N1 N 0.76050(18) 0.55591(15) 0.21247(13)
N2 N 0.73218(19) 0.49654(16) 0.46124(13)
N3 N 0.6468(2) 0.17503(16) 0.39391(14)
N4 N 0.5832(2) 0.04630(15) 0.23222(15)
N5 N 0.7251(2) 0.42690(16) 0.05587(14)
N6 N 0.7803(2) 0.67597(16) 0.37033(14)
N7 N 0.6965(3) 0.31437(19) 0.54685(16)
N8 N 0.80480(18) 0.26629(16) 0.21012(14)
H1 H 0.8377 0.2926 0.2797
C1 C 0.6535(2) 0.24516(17) 0.15526(15)
C2 C 0.5449(2) 0.14133(18) 0.17320(16)
C3 C 0.3985(2) 0.1270(2) 0.1251(2)
H2 H 0.3254 0.0591 0.1371
C4 C 0.3607(2) 0.2127(2) 0.0596(2)
H3 H 0.2623 0.2029 0.0290
C5 C 0.4679(2) 0.3133(2) 0.03918(18)
H4 H 0.4411 0.3696 -0.0063
C6 C 0.6152(2) 0.33053(18) 0.08626(16)
C7 C 0.7951(2) 0.54230(18) 0.11892(15)
C8 C 0.8964(2) 0.6383(2) 0.08505(17)
H5 H 0.9204 0.6261 0.0204
C9 C 0.9592(2) 0.7516(2) 0.15092(18)
H6 H 1.0270 0.8170 0.1307
C10 C 0.9225(2) 0.76910(19) 0.24703(17)
H7 H 0.9627 0.8456 0.2912
C11 C 0.8226(2) 0.66687(18) 0.27457(16)
C12 C 0.6783(2) 0.56551(18) 0.38950(15)
C13 C 0.5320(2) 0.5316(2) 0.33041(17)
H8 H 0.4988 0.5834 0.2827
C14 C 0.4360(2) 0.4192(2) 0.34358(19)
H9 H 0.3372 0.3932 0.3040
C15 C 0.4898(3) 0.3463(2) 0.4168(2)
H10 H 0.4279 0.2704 0.4279
C16 C 0.6383(2) 0.3886(2) 0.47340(16)
C17 C 0.6873(2) 0.1979(2) 0.50477(17)
C18 C 0.7186(2) 0.1108(2) 0.57377(18)
H11 H 0.7472 0.1284 0.6505
C19 C 0.7051(3) -0.0028(2) 0.5228(2)
H12 H 0.7267 -0.0624 0.5662
C20 C 0.6602(3) -0.02966(19) 0.4088(2)
H13 H 0.6503 -0.1063 0.3746
C21 C 0.6303(2) 0.06377(18) 0.34685(17)
C22 C 0.5157(3) -0.0807(2) 0.1749(2)
H14 H 0.5863 -0.1224 0.1902
H15 H 0.4827 -0.0782 0.0966
H16 H 0.4337 -0.1250 0.2003
C23 C 0.7255(3) 0.4166(2) -0.05970(17)
H17 H 0.6953 0.4807 -0.0954
H18 H 0.6588 0.3365 -0.0969
H19 H 0.8225 0.4258 -0.0627
C24 C 0.8845(3) 0.7622(3) 0.4658(2)
H20 H 0.8480 0.7477 0.5290
H21 H 0.8969 0.8462 0.4504
H22 H 0.9771 0.7495 0.4811
C25 C 0.7829(3) 0.3673(2) 0.65899(19)
H23 H 0.7920 0.4533 0.6694
H24 H 0.8786 0.3610 0.6723
H25 H 0.7357 0.3228 0.7098
C26 C 0.9387(3) 0.0972(2) 0.1912(2)
O3 O 0.9497(3) 0.4121(3) 0.4083(3)
H26 H 0.9026 0.4457 0.4383
H27 H 1.0397 0.4191 0.4248
loop_
_geom_bond_atom_site_label_1
_geom_bond_atom_site_label_2
_geom_bond_site_symmetry_1
_geom_bond_site_symmetry_2
S1 O1 1_555 1_555
F1 C26 1_555 1_555
F2 C26 1_555 1_555
F3 C26 1_555 1_555
O2 S1 1_555 1_555
N1 C7 1_555 1_555
N2 C12 1_555 1_555
N3 C17 1_555 1_555
N4 C2 1_555 1_555
N5 C6 1_555 1_555
N6 C11 1_555 1_555
N7 C16 1_555 1_555
N8 S1 1_555 1_555
H1 N8 1_555 1_555
C1 N8 1_555 1_555
C2 C1 1_555 1_555
C3 C2 1_555 1_555
H2 C3 1_555 1_555
C4 C3 1_555 1_555
H3 C4 1_555 1_555
C5 C4 1_555 1_555
H4 C5 1_555 1_555
C6 C1 1_555 1_555
C7 N5 1_555 1_555
C8 C7 1_555 1_555
H5 C8 1_555 1_555
C9 C8 1_555 1_555
H6 C9 1_555 1_555
C10 C9 1_555 1_555
H7 C10 1_555 1_555
C11 N1 1_555 1_555
C12 N6 1_555 1_555
C13 C12 1_555 1_555
H8 C13 1_555 1_555
C14 C13 1_555 1_555
H9 C14 1_555 1_555
C15 C14 1_555 1_555
H10 C15 1_555 1_555
C16 N2 1_555 1_555
C17 N7 1_555 1_555
C18 C17 1_555 1_555
H11 C18 1_555 1_555
C19 C18 1_555 1_555
H12 C19 1_555 1_555
C20 C19 1_555 1_555
H13 C20 1_555 1_555
C21 N3 1_555 1_555
C22 N4 1_555 1_555
H14 C22 1_555 1_555
H15 C22 1_555 1_555
H16 C22 1_555 1_555
C23 N5 1_555 1_555
H17 C23 1_555 1_555
H18 C23 1_555 1_555
H19 C23 1_555 1_555
C24 N6 1_555 1_555
H20 C24 1_555 1_555
H21 C24 1_555 1_555
H22 C24 1_555 1_555
C25 N7 1_555 1_555
H23 C25 1_555 1_555
H24 C25 1_555 1_555
H25 C25 1_555 1_555
C26 S1 1_555 1_555
O3 H26 1_555 1_555
H27 O3 1_555 1_555
N4 C21 1_555 1_555
C5 C6 1_555 1_555
C10 C11 1_555 1_555
C15 C16 1_555 1_555
C20 C21 1_555 1_555

#END
