
#######################################################################
#
#                 Cambridge Crystallographic Data Centre
#                                CCDC 
#
#######################################################################
#
# If this CIF has been generated from an entry in the Cambridge 
# Structural Database, then it will include bibliographic, chemical, 
# crystal, experimental, refinement or atomic coordinate data resulting 
# from the CCDC's data processing and validation procedures.
#
#######################################################################

data_IZOCOR01
_chemical_formula_moiety         'C32 H28 N8 O3 S1'
_chemical_name_systematic        
'2-(2,8,14,20-tetramethyl-2,8,14,20,25,26,27-hepta-azapentacyclo[19.3.1.1^3,7^.1^9,13^.1^15,19^]octacosa-1(25),3(28),4,6,9(27),10,12,15(26),16,18,21,23-dodecaen-28-yl)-1,2-benzothiazol-3(2H)-one 1,1-dioxide'
_symmetry_cell_setting           monoclinic
_symmetry_space_group_name_H-M   'P 21/c'
_symmetry_Int_Tables_number      14
_space_group_name_Hall           '-P 2ybc'
loop_
_symmetry_equiv_pos_site_id
_symmetry_equiv_pos_as_xyz
1 x,y,z
2 -x,1/2+y,1/2-z
3 -x,-y,-z
4 x,1/2-y,1/2+z
_cell_length_a                   12.910(3)
_cell_length_b                   10.520(2)
_cell_length_c                   20.591(5)
_cell_angle_alpha                90
_cell_angle_beta                 91.871(3)
_cell_angle_gamma                90
_cell_volume                     2795.04
_exptl_crystal_colour            yellow
_exptl_crystal_description       block
_cell_formula_units_Z            4
loop_
_atom_site_label
_atom_site_type_symbol
_atom_site_fract_x
_atom_site_fract_y
_atom_site_fract_z
S1 S 0.76011(3) 0.85804(4) 0.46215(2)
O1 O 0.84218(9) 0.98974(13) 0.62483(6)
O2 O 0.82071(11) 0.74937(12) 0.44594(6)
O3 O 0.65785(10) 0.86861(14) 0.43448(6)
N1 N 0.75464(10) 0.87653(14) 0.54341(6)
N2 N 0.62374(11) 1.06835(13) 0.59110(7)
N3 N 0.66549(11) 1.07372(13) 0.69996(7)
N4 N 0.71633(11) 1.05627(14) 0.80750(7)
N5 N 0.79196(11) 0.85854(14) 0.78291(7)
N6 N 0.87196(11) 0.66728(14) 0.75216(7)
N7 N 0.79388(11) 0.63975(13) 0.65027(7)
N8 N 0.69950(12) 0.61889(14) 0.55493(7)
C1 C 0.66117(12) 0.84252(16) 0.57516(7)
C2 C 0.63330(13) 0.71452(16) 0.57980(8)
C3 C 0.54073(14) 0.68312(17) 0.60809(8)
H1 H 0.5206 0.5984 0.6105
C4 C 0.47829(14) 0.77661(18) 0.63269(8)
H2 H 0.4168 0.7544 0.6521
C5 C 0.50641(13) 0.90319(18) 0.62871(8)
H3 H 0.4643 0.9656 0.6459
C6 C 0.59732(12) 0.93740(16) 0.59907(7)
C7 C 0.65396(13) 1.13930(16) 0.64478(8)
C8 C 0.67560(16) 1.26909(17) 0.64073(9)
H4 H 0.6634 1.3142 0.6024
C9 C 0.71572(17) 1.32747(18) 0.69590(10)
H5 H 0.7322 1.4135 0.6946
C10 C 0.73191(15) 1.26075(18) 0.75292(9)
H6 H 0.7596 1.2998 0.7901
C11 C 0.70503(13) 1.13213(16) 0.75269(8)
C12 C 0.70540(13) 0.92157(16) 0.79702(8)
C13 C 0.60906(14) 0.86735(18) 0.80022(8)
H7 H 0.5516 0.9155 0.8108
C14 C 0.59993(14) 0.73842(18) 0.78713(9)
H8 H 0.5360 0.6980 0.7890
C15 C 0.68700(14) 0.67139(17) 0.77130(8)
H9 H 0.6830 0.5849 0.7623
C16 C 0.78114(13) 0.73533(16) 0.76898(8)
C17 C 0.87412(13) 0.61243(15) 0.69042(9)
C18 C 0.95385(14) 0.53082(17) 0.67232(10)
H10 H 1.0094 0.5123 0.7006
C19 C 0.94670(15) 0.47903(18) 0.61075(10)
H11 H 0.9992 0.4257 0.5971
C20 C 0.86375(15) 0.50439(17) 0.56897(9)
H12 H 0.8587 0.4688 0.5277
C21 C 0.78722(13) 0.58638(15) 0.59159(8)
C22 C 0.59840(14) 1.12983(18) 0.52929(9)
H13 H 0.5820 1.0664 0.4971
H14 H 0.6567 1.1789 0.5159
H15 H 0.5398 1.1848 0.5341
C23 C 0.78601(15) 1.0971(2) 0.86030(9)
H16 H 0.8479 1.1319 0.8428
H17 H 0.8036 1.0256 0.8875
H18 H 0.7525 1.1608 0.8856
C24 C 0.96937(15) 0.7002(2) 0.78547(10)
H19 H 1.0110 0.6252 0.7911
H20 H 0.9556 0.7360 0.8272
H21 H 1.0058 0.7612 0.7601
C25 C 0.66144(17) 0.5427(2) 0.50035(10)
H22 H 0.7057 0.5544 0.4642
H23 H 0.5922 0.5686 0.4882
H24 H 0.6613 0.4546 0.5126
C26 C 0.82186(12) 0.97338(16) 0.56834(8)
C27 C 0.86481(12) 1.04430(16) 0.51277(9)
C28 C 0.92959(14) 1.14922(17) 0.51701(10)
H25 H 0.9482 1.1849 0.5570
C29 C 0.96582(14) 1.19952(19) 0.45969(11)
H26 H 1.0084 1.2709 0.4613
C30 C 0.93953(15) 1.14497(19) 0.40000(10)
H27 H 0.9664 1.1792 0.3625
C31 C 0.87412(14) 1.04069(19) 0.39513(9)
H28 H 0.8563 1.0040 0.3552
C32 C 0.83667(13) 0.99386(16) 0.45268(8)
loop_
_geom_bond_atom_site_label_1
_geom_bond_atom_site_label_2
_geom_bond_site_symmetry_1
_geom_bond_site_symmetry_2
S1 O2 1_555 1_555
O1 C26 1_555 1_555
O3 S1 1_555 1_555
N1 S1 1_555 1_555
N2 C6 1_555 1_555
N3 C7 1_555 1_555
N4 C11 1_555 1_555
N5 C12 1_555 1_555
N6 C16 1_555 1_555
N7 C17 1_555 1_555
N8 C2 1_555 1_555
C1 N1 1_555 1_555
C2 C1 1_555 1_555
C3 C2 1_555 1_555
H1 C3 1_555 1_555
C4 C3 1_555 1_555
H2 C4 1_555 1_555
C5 C4 1_555 1_555
H3 C5 1_555 1_555
C6 C1 1_555 1_555
C7 N2 1_555 1_555
C8 C7 1_555 1_555
H4 C8 1_555 1_555
C9 C8 1_555 1_555
H5 C9 1_555 1_555
C10 C9 1_555 1_555
H6 C10 1_555 1_555
C11 N3 1_555 1_555
C12 N4 1_555 1_555
C13 C12 1_555 1_555
H7 C13 1_555 1_555
C14 C13 1_555 1_555
H8 C14 1_555 1_555
C15 C14 1_555 1_555
H9 C15 1_555 1_555
C16 N5 1_555 1_555
C17 N6 1_555 1_555
C18 C17 1_555 1_555
H10 C18 1_555 1_555
C19 C18 1_555 1_555
H11 C19 1_555 1_555
C20 C19 1_555 1_555
H12 C20 1_555 1_555
C21 N7 1_555 1_555
C22 N2 1_555 1_555
H13 C22 1_555 1_555
H14 C22 1_555 1_555
H15 C22 1_555 1_555
C23 N4 1_555 1_555
H16 C23 1_555 1_555
H17 C23 1_555 1_555
H18 C23 1_555 1_555
C24 N6 1_555 1_555
H19 C24 1_555 1_555
H20 C24 1_555 1_555
H21 C24 1_555 1_555
C25 N8 1_555 1_555
H22 C25 1_555 1_555
H23 C25 1_555 1_555
H24 C25 1_555 1_555
C26 N1 1_555 1_555
C27 C26 1_555 1_555
C28 C27 1_555 1_555
H25 C28 1_555 1_555
C29 C28 1_555 1_555
H26 C29 1_555 1_555
C30 C29 1_555 1_555
H27 C30 1_555 1_555
C31 C30 1_555 1_555
H28 C31 1_555 1_555
C32 S1 1_555 1_555
N8 C21 1_555 1_555
C5 C6 1_555 1_555
C10 C11 1_555 1_555
C15 C16 1_555 1_555
C20 C21 1_555 1_555
C27 C32 1_555 1_555
C31 C32 1_555 1_555

#END
