
#######################################################################
#
#                 Cambridge Crystallographic Data Centre
#                                CCDC 
#
#######################################################################
#
# If this CIF has been generated from an entry in the Cambridge 
# Structural Database, then it will include bibliographic, chemical, 
# crystal, experimental, refinement or atomic coordinate data resulting 
# from the CCDC's data processing and validation procedures.
#
#######################################################################

data_IZODAE
_chemical_formula_moiety         'C32 H28 N8 O3 S1'
_chemical_name_systematic        
28-((1,1-dioxido-1,2-benzothiazol-3-yl)oxy)-2,8,14,20-tetramethyl-2,8,14,20,25,26,27-hepta-azapentacyclo[19.3.1.1^3,7^.1^9,13^.1^15,19^]octacosa-1(25),3(28),4,6,9(27),10,12,15(26),16,18,21,23-dodecaene
_symmetry_cell_setting           triclinic
_symmetry_space_group_name_H-M   'P -1'
_symmetry_Int_Tables_number      2
_space_group_name_Hall           '-P 1'
loop_
_symmetry_equiv_pos_site_id
_symmetry_equiv_pos_as_xyz
1 x,y,z
2 -x,-y,-z
_cell_length_a                   14.185(3)
_cell_length_b                   15.666(4)
_cell_length_c                   16.155(4)
_cell_angle_alpha                103.785(3)
_cell_angle_beta                 96.266(3)
_cell_angle_gamma                98.736(3)
_cell_volume                     3406.42
_exptl_crystal_colour            yellow
_exptl_crystal_description       block
_cell_formula_units_Z            4
loop_
_atom_site_label
_atom_site_type_symbol
_atom_site_fract_x
_atom_site_fract_y
_atom_site_fract_z
S1 S 0.27345(4) 0.68192(4) 0.60602(3)
O1 O 0.22340(10) 0.53300(10) 0.38440(9)
O2 O 0.26067(15) 0.77237(13) 0.61625(13)
O3 O 0.26129(13) 0.64252(14) 0.67608(10)
N1 N 0.11079(14) 0.38465(13) 0.41530(12)
N2 N 0.14324(14) 0.64780(11) 0.30220(12)
N3 N 0.15456(12) 0.57039(11) 0.16469(11)
N4 N 0.15722(14) 0.48403(12) 0.02853(11)
N5 N 0.16770(12) 0.36059(11) 0.08626(10)
N6 N 0.18896(15) 0.24756(13) 0.15424(12)
N7 N 0.15383(12) 0.31265(11) 0.28821(11)
N8 N 0.20226(12) 0.61818(12) 0.51712(11)
C1 C 0.06773(14) 0.43836(14) 0.36719(12)
C2 C 0.12254(13) 0.51425(13) 0.35556(11)
C3 C 0.08403(14) 0.56886(12) 0.31071(12)
C4 C -0.01360(14) 0.54687(13) 0.27720(13)
H1 H -0.0411 0.5829 0.2471
C5 C -0.06979(14) 0.47165(14) 0.28856(13)
H2 H -0.1351 0.4572 0.2662
C6 C -0.02890(14) 0.41758(14) 0.33326(13)
H3 H -0.0670 0.3668 0.3404
C7 C 0.1565(2) 0.72863(16) 0.37081(16)
H4 H 0.1284 0.7730 0.3500
H5 H 0.2243 0.7505 0.3903
H6 H 0.1258 0.7162 0.4178
C8 C 0.17792(14) 0.64781(13) 0.22581(14)
C9 C 0.23534(17) 0.72389(15) 0.21454(17)
H7 H 0.2533 0.7760 0.2590
C10 C 0.26432(17) 0.71888(16) 0.13523(18)
H8 H 0.3013 0.7688 0.1254
C11 C 0.23906(16) 0.64038(16) 0.06985(16)
H9 H 0.2574 0.6368 0.0158
C12 C 0.18465(14) 0.56641(14) 0.08855(13)
C13 C 0.2058(2) 0.4637(2) -0.04619(17)
H10 H 0.1931 0.5026 -0.0822
H11 H 0.1825 0.4027 -0.0781
H12 H 0.2740 0.4725 -0.0278
C14 C 0.11075(15) 0.41106(13) 0.05724(12)
C15 C 0.01238(16) 0.39798(15) 0.05581(14)
H13 H -0.0246 0.4342 0.0341
C16 C -0.02994(16) 0.32938(16) 0.08773(16)
H14 H -0.0963 0.3181 0.0870
C17 C 0.02748(16) 0.27813(14) 0.12050(15)
H15 H 0.0010 0.2323 0.1432
C18 C 0.12624(15) 0.29688(13) 0.11870(12)
C19 C 0.24733(19) 0.19797(17) 0.09999(16)
H16 H 0.2225 0.1351 0.0884
H17 H 0.3127 0.2108 0.1288
H18 H 0.2456 0.2151 0.0467
C20 C 0.19254(14) 0.24856(13) 0.24036(13)
C21 C 0.23498(16) 0.18733(14) 0.27530(15)
H19 H 0.2631 0.1442 0.2417
C22 C 0.23315(17) 0.19378(14) 0.36194(15)
H20 H 0.2602 0.1536 0.3868
C23 C 0.19265(15) 0.25763(14) 0.41236(14)
H21 H 0.1916 0.2616 0.4706
C24 C 0.15259(14) 0.31704(14) 0.37160(13)
C25 C 0.08512(19) 0.38804(19) 0.50059(15)
H22 H 0.0578 0.4404 0.5201
H23 H 0.1418 0.3904 0.5400
H24 H 0.0388 0.3356 0.4980
C26 C 0.25570(14) 0.58556(13) 0.46263(12)
C27 C 0.36136(14) 0.60810(13) 0.48782(12)
C28 C 0.43410(15) 0.58003(16) 0.44348(14)
H25 H 0.4202 0.5425 0.3879
C29 C 0.52853(16) 0.61004(18) 0.48507(16)
H26 H 0.5787 0.5923 0.4567
C30 C 0.54962(16) 0.66562(17) 0.56771(16)
H27 H 0.6136 0.6838 0.5941
C31 C 0.47710(16) 0.69475(15) 0.61209(15)
H28 H 0.4909 0.7326 0.6675
C32 C 0.38385(15) 0.66494(14) 0.57003(13)
S2 S 0.68080(4) 0.59953(4) 0.28062(3)
O4 O 0.52063(10) 0.74245(9) 0.20792(9)
O5 O 0.73961(12) 0.55853(12) 0.22248(11)
O6 O 0.71400(11) 0.62072(11) 0.37107(10)
N9 N 0.59417(14) 0.86871(13) 0.36568(11)
N10 N 0.56216(14) 0.77033(12) 0.05131(11)
N11 N 0.43556(12) 0.84143(11) 0.02631(11)
N12 N 0.31368(14) 0.92170(13) 0.01210(13)
N13 N 0.31589(12) 0.95601(11) 0.16276(12)
N14 N 0.31663(13) 0.97775(12) 0.31164(13)
N15 N 0.45256(12) 0.91987(11) 0.34337(10)
N16 N 0.65572(12) 0.69130(12) 0.25509(11)
C33 C 0.61445(14) 0.88757(14) 0.28662(13)
C34 C 0.57907(13) 0.82356(13) 0.20839(12)
C35 C 0.59600(15) 0.83869(14) 0.12997(13)
C36 C 0.64870(16) 0.92099(16) 0.12944(15)
H29 H 0.6599 0.9331 0.0774
C37 C 0.68459(17) 0.98496(16) 0.20626(16)
H30 H 0.7203 1.0396 0.2054
C38 C 0.66777(16) 0.96836(15) 0.28426(15)
H31 H 0.6925 1.0118 0.3354
C39 C 0.6052(2) 0.68984(17) 0.03808(16)
H32 H 0.6626 0.7005 0.0793
H33 H 0.6214 0.6752 -0.0192
H34 H 0.5600 0.6410 0.0454
C40 C 0.47713(16) 0.77024(14) 0.00136(13)
C41 C 0.43673(19) 0.69980(17) -0.07129(14)
H35 H 0.4655 0.6500 -0.0871
C42 C 0.35267(19) 0.70730(18) -0.11822(15)
H36 H 0.3247 0.6620 -0.1671
C43 C 0.30911(17) 0.78039(17) -0.09431(14)
H37 H 0.2527 0.7856 -0.1264
C44 C 0.35335(15) 0.84660(14) -0.01949(13)
C45 C 0.20911(19) 0.9147(2) -0.0094(2)
H38 H 0.1924 0.9063 -0.0704
H39 H 0.1904 0.9686 0.0208
H40 H 0.1761 0.8647 0.0073
C46 C 0.35656(15) 0.97544(14) 0.09692(14)
C47 C 0.43764(16) 1.04050(14) 0.10636(15)
H41 H 0.4617 1.0540 0.0588
C48 C 0.48160(16) 1.08483(14) 0.18999(15)
H42 H 0.5368 1.1284 0.1993
C49 C 0.44332(15) 1.06410(13) 0.25859(15)
H43 H 0.4724 1.0927 0.3149
C50 C 0.35981(15) 0.99915(13) 0.24202(14)
C51 C 0.21088(17) 0.95973(17) 0.30148(19)
H44 H 0.1855 0.9918 0.2631
H45 H 0.1906 0.9788 0.3566
H46 H 0.1874 0.8968 0.2780
C52 C 0.36953(15) 0.93947(13) 0.36673(13)
C53 C 0.33692(17) 0.92269(15) 0.44125(15)
H47 H 0.2784 0.9361 0.4562
C54 C 0.39497(19) 0.88557(15) 0.49126(14)
H48 H 0.3749 0.8730 0.5407
C55 C 0.48261(19) 0.86656(15) 0.46950(14)
H49 H 0.5224 0.8424 0.5037
C56 C 0.50861(15) 0.88537(13) 0.39372(12)
C57 C 0.67091(19) 0.85077(17) 0.42311(15)
H50 H 0.7279 0.8494 0.3962
H51 H 0.6508 0.7941 0.4349
H52 H 0.6846 0.8970 0.4761
C58 C 0.56429(14) 0.68159(13) 0.23322(12)
C59 C 0.50275(14) 0.59584(13) 0.23148(12)
C60 C 0.40399(16) 0.56727(15) 0.20860(14)
H53 H 0.3646 0.6046 0.1922
C61 C 0.36572(18) 0.48088(15) 0.21094(15)
H54 H 0.2996 0.4600 0.1961
C62 C 0.42508(19) 0.42525(15) 0.23517(15)
H55 H 0.3978 0.3675 0.2356
C63 C 0.52426(17) 0.45379(14) 0.25870(13)
H56 H 0.5639 0.4168 0.2754
C64 C 0.56092(14) 0.53958(13) 0.25599(12)
loop_
_geom_bond_atom_site_label_1
_geom_bond_atom_site_label_2
_geom_bond_site_symmetry_1
_geom_bond_site_symmetry_2
S1 O2 1_555 1_555
O1 C2 1_555 1_555
O3 S1 1_555 1_555
N1 C1 1_555 1_555
N2 C3 1_555 1_555
N3 C8 1_555 1_555
N4 C12 1_555 1_555
N5 C14 1_555 1_555
N6 C18 1_555 1_555
N7 C20 1_555 1_555
N8 S1 1_555 1_555
C1 C2 1_555 1_555
C2 C3 1_555 1_555
C3 C4 1_555 1_555
C4 H1 1_555 1_555
C5 C4 1_555 1_555
H2 C5 1_555 1_555
C6 C1 1_555 1_555
H3 C6 1_555 1_555
C7 N2 1_555 1_555
H4 C7 1_555 1_555
H5 C7 1_555 1_555
H6 C7 1_555 1_555
C8 N2 1_555 1_555
C9 C8 1_555 1_555
H7 C9 1_555 1_555
C10 C9 1_555 1_555
H8 C10 1_555 1_555
C11 C10 1_555 1_555
H9 C11 1_555 1_555
C12 N3 1_555 1_555
C13 N4 1_555 1_555
H10 C13 1_555 1_555
H11 C13 1_555 1_555
H12 C13 1_555 1_555
C14 N4 1_555 1_555
C15 C14 1_555 1_555
H13 C15 1_555 1_555
C16 C15 1_555 1_555
H14 C16 1_555 1_555
C17 C16 1_555 1_555
H15 C17 1_555 1_555
C18 N5 1_555 1_555
C19 N6 1_555 1_555
H16 C19 1_555 1_555
H17 C19 1_555 1_555
H18 C19 1_555 1_555
C20 N6 1_555 1_555
C21 C20 1_555 1_555
H19 C21 1_555 1_555
C22 C21 1_555 1_555
H20 C22 1_555 1_555
C23 C22 1_555 1_555
H21 C23 1_555 1_555
C24 N1 1_555 1_555
C25 N1 1_555 1_555
H22 C25 1_555 1_555
H23 C25 1_555 1_555
H24 C25 1_555 1_555
C26 O1 1_555 1_555
C27 C26 1_555 1_555
C28 C27 1_555 1_555
H25 C28 1_555 1_555
C29 C28 1_555 1_555
H26 C29 1_555 1_555
C30 C29 1_555 1_555
H27 C30 1_555 1_555
C31 C30 1_555 1_555
H28 C31 1_555 1_555
C32 S1 1_555 1_555
S2 O5 1_555 1_555
O4 C34 1_555 1_555
O6 S2 1_555 1_555
N9 C33 1_555 1_555
N10 C35 1_555 1_555
N11 C40 1_555 1_555
N12 C44 1_555 1_555
N13 C46 1_555 1_555
N14 C50 1_555 1_555
N15 C52 1_555 1_555
N16 S2 1_555 1_555
C33 C34 1_555 1_555
C34 C35 1_555 1_555
C35 C36 1_555 1_555
C36 H29 1_555 1_555
C37 C36 1_555 1_555
H30 C37 1_555 1_555
C38 C33 1_555 1_555
H31 C38 1_555 1_555
C39 N10 1_555 1_555
H32 C39 1_555 1_555
H33 C39 1_555 1_555
H34 C39 1_555 1_555
C40 N10 1_555 1_555
C41 C40 1_555 1_555
H35 C41 1_555 1_555
C42 C41 1_555 1_555
H36 C42 1_555 1_555
C43 C42 1_555 1_555
H37 C43 1_555 1_555
C44 N11 1_555 1_555
C45 N12 1_555 1_555
H38 C45 1_555 1_555
H39 C45 1_555 1_555
H40 C45 1_555 1_555
C46 N12 1_555 1_555
C47 C46 1_555 1_555
H41 C47 1_555 1_555
C48 C47 1_555 1_555
H42 C48 1_555 1_555
C49 C48 1_555 1_555
H43 C49 1_555 1_555
C50 N13 1_555 1_555
C51 N14 1_555 1_555
H44 C51 1_555 1_555
H45 C51 1_555 1_555
H46 C51 1_555 1_555
C52 N14 1_555 1_555
C53 C52 1_555 1_555
H47 C53 1_555 1_555
C54 C53 1_555 1_555
H48 C54 1_555 1_555
C55 C54 1_555 1_555
H49 C55 1_555 1_555
C56 N9 1_555 1_555
C57 N9 1_555 1_555
H50 C57 1_555 1_555
H51 C57 1_555 1_555
H52 C57 1_555 1_555
C58 O4 1_555 1_555
C59 C58 1_555 1_555
C60 C59 1_555 1_555
H53 C60 1_555 1_555
C61 C60 1_555 1_555
H54 C61 1_555 1_555
C62 C61 1_555 1_555
H55 C62 1_555 1_555
C63 C62 1_555 1_555
H56 C63 1_555 1_555
C64 S2 1_555 1_555
N7 C24 1_555 1_555
N8 C26 1_555 1_555
C5 C6 1_555 1_555
C11 C12 1_555 1_555
C17 C18 1_555 1_555
C23 C24 1_555 1_555
C27 C32 1_555 1_555
C31 C32 1_555 1_555
N15 C56 1_555 1_555
N16 C58 1_555 1_555
C37 C38 1_555 1_555
C43 C44 1_555 1_555
C49 C50 1_555 1_555
C55 C56 1_555 1_555
C59 C64 1_555 1_555
C63 C64 1_555 1_555

#END
