
#######################################################################
#
#                 Cambridge Crystallographic Data Centre
#                                CCDC 
#
#######################################################################
#
# If this CIF has been generated from an entry in the Cambridge 
# Structural Database, then it will include bibliographic, chemical, 
# crystal, experimental, refinement or atomic coordinate data resulting 
# from the CCDC's data processing and validation procedures.
#
#######################################################################

data_IZOKIT
_chemical_name_common            
'5,11,17,23-tetrakis((benzylazaniumyl)methyl)-C-methylcalix(4)resorcinarene tetrachloride methanol unknown solvate'
_chemical_formula_moiety         'C64 H72 N4 O8 4+,C1 H4 O1,4(Cl1 1-)'
_chemical_name_systematic        
'2,8,14,20-tetramethyl-5,11,17,23-tetrakis((benzylazaniumyl)methyl)-4,6,10,12,16,18,22,24-octahydroxycalix(4)arene tetrachloride methanol unknown solvate'
_symmetry_cell_setting           monoclinic
_symmetry_space_group_name_H-M   'I 2/c'
_symmetry_Int_Tables_number      15
_space_group_name_Hall           '-I 2yc'
loop_
_symmetry_equiv_pos_site_id
_symmetry_equiv_pos_as_xyz
1 x,y,z
2 -x,y,1/2-z
3 1/2+x,1/2+y,1/2+z
4 1/2-x,1/2+y,-z
5 -x,-y,-z
6 x,-y,1/2+z
7 1/2-x,1/2-y,1/2-z
8 1/2+x,1/2-y,z
_cell_length_a                   22.8758(17)
_cell_length_b                   14.3374(11)
_cell_length_c                   24.4403(15)
_cell_angle_alpha                90
_cell_angle_beta                 106.470(7)
_cell_angle_gamma                90
_cell_volume                     7687.01
_exptl_crystal_colour            colorless
_exptl_crystal_description       needle
_cell_formula_units_Z            4
loop_
_atom_site_label
_atom_site_type_symbol
_atom_site_fract_x
_atom_site_fract_y
_atom_site_fract_z
Cl1 Cl 0.48398(10) 1.10662(18) 0.57748(10)
Cl2 Cl 0.6443(2) 1.0919(3) 0.73808(14)
O1 O 0.4975(2) 0.8728(4) 0.5391(2)
H1 H 0.5136 0.8709 0.5120
O2 O 0.69259(19) 0.8768(3) 0.6758(2)
H2 H 0.7056 0.8789 0.7116
O3 O 0.70592(19) 0.9075(3) 0.7880(2)
H3 H 0.6972 0.9643 0.7823
O4 O 0.6055(2) 0.9178(4) 0.9337(2)
H4 H 0.5752 0.8953 0.9421
N1 N 0.6231(3) 1.0424(4) 0.6123(3)
H5 H 0.5846 1.0605 0.6109
H6 H 0.6435 1.0313 0.6495
N2 N 0.6308(3) 1.0784(4) 0.8678(3)
H7 H 0.6039 1.0664 0.8880
H8 H 0.6104 1.0734 0.8301
C1 C 0.5168(3) 0.7715(5) 0.6184(3)
C2 C 0.5373(3) 0.8396(5) 0.5874(3)
C3 C 0.5975(3) 0.8746(5) 0.6090(3)
C4 C 0.6360(3) 0.8398(4) 0.6600(3)
C5 C 0.6158(3) 0.7714(4) 0.6907(3)
C6 C 0.5555(3) 0.7397(4) 0.6688(2)
H9 H 0.5409 0.6941 0.6898
C7 C 0.6199(3) 0.9532(5) 0.5791(3)
H10 H 0.6608 0.9377 0.5755
H11 H 0.5919 0.9613 0.5403
C8 C 0.6545(3) 1.1201(5) 0.5915(3)
H12 H 0.6508 1.1778 0.6125
H13 H 0.6342 1.1310 0.5506
C9 C 0.7209(3) 1.0998(4) 0.5994(3)
C10 C 0.7400(3) 1.0733(5) 0.5528(3)
H14 H 0.7111 1.0676 0.5163
C11 C 0.8012(4) 1.0550(5) 0.5590(4)
H15 H 0.8144 1.0361 0.5272
C12 C 0.8431(4) 1.0650(6) 0.6132(4)
H16 H 0.8852 1.0531 0.6185
C13 C 0.8230(5) 1.0917(7) 0.6577(4)
H17 H 0.8515 1.0982 0.6942
C14 C 0.7622(4) 1.1097(6) 0.6514(3)
H18 H 0.7492 1.1288 0.6833
C15 C 0.6574(3) 0.7324(5) 0.7472(3)
H19 H 0.7001 0.7503 0.7487
C16 C 0.6557(3) 0.6277(4) 0.7492(3)
H20 H 0.6809 0.6059 0.7864
H21 H 0.6715 0.6020 0.7190
H22 H 0.6136 0.6068 0.7433
C17 C 0.6431(3) 0.7800(5) 0.7977(3)
C18 C 0.6662(3) 0.8670(5) 0.8154(3)
C19 C 0.6540(3) 0.9136(5) 0.8614(3)
C20 C 0.6156(3) 0.8681(5) 0.8886(3)
C21 C 0.5895(3) 0.7816(5) 0.8713(3)
C22 C 0.6043(3) 0.7400(5) 0.8264(3)
H23 H 0.5872 0.6805 0.8142
C23 C 0.6802(3) 1.0056(5) 0.8826(3)
H24 H 0.7128 1.0219 0.8649
H25 H 0.6983 1.0031 0.9245
C24 C 0.6539(3) 1.1771(5) 0.8796(3)
H26 H 0.6805 1.1917 0.8551
H27 H 0.6188 1.2205 0.8691
C25 C 0.6883(3) 1.1931(4) 0.9398(3)
C26 C 0.6627(5) 1.2108(6) 0.9823(3)
H28 H 0.6197 1.2158 0.9745
C27 C 0.7025(4) 1.2220(7) 1.0405(4)
H29 H 0.6872 1.2357 1.0719
C28 C 0.7633(4) 1.2113(6) 1.0463(4)
H30 H 0.7893 1.2168 1.0841
C29 C 0.7916(5) 1.1942(7) 1.0063(4)
H31 H 0.8344 1.1875 1.0135
C30 C 0.7513(4) 1.1880(6) 0.9548(4)
H32 H 0.7684 1.1787 0.9240
C31 C 0.5488(3) 0.7330(5) 0.9039(3)
H33 H 0.5646 0.7512 0.9450
C32 C 0.5501(3) 0.6283(5) 0.9011(3)
H34 H 0.5303 0.6078 0.8620
H35 H 0.5284 0.6021 0.9269
H36 H 0.5925 0.6066 0.9127
O1A O 0.5025(2) 0.8728(4) 0.9609(2)
H1A H 0.4864 0.8709 0.9880
O2A O 0.30741(19) 0.8768(3) 0.8242(2)
H2A H 0.2944 0.8789 0.7884
O3A O 0.29408(19) 0.9075(3) 0.7120(2)
H3A H 0.3028 0.9643 0.7177
O4A O 0.3945(2) 0.9178(4) 0.5663(2)
H4A H 0.4248 0.8953 0.5579
N1A N 0.3769(3) 1.0424(4) 0.8877(3)
H5A H 0.4154 1.0605 0.8891
H6A H 0.3565 1.0313 0.8505
N2A N 0.3692(3) 1.0784(4) 0.6322(3)
H7A H 0.3961 1.0664 0.6120
H8A H 0.3896 1.0734 0.6699
C1A C 0.4832(3) 0.7715(5) 0.8816(3)
C2A C 0.4627(3) 0.8396(5) 0.9126(3)
C3A C 0.4025(3) 0.8746(5) 0.8910(3)
C4A C 0.3640(3) 0.8398(4) 0.8400(3)
C5A C 0.3842(3) 0.7714(4) 0.8093(3)
C6A C 0.4445(3) 0.7397(4) 0.8312(2)
H9A H 0.4591 0.6941 0.8102
C7A C 0.3801(3) 0.9532(5) 0.9209(3)
H10A H 0.3392 0.9377 0.9245
H11A H 0.4081 0.9613 0.9597
C8A C 0.3455(3) 1.1201(5) 0.9085(3)
H12A H 0.3492 1.1778 0.8875
H13A H 0.3658 1.1310 0.9494
C9A C 0.2791(3) 1.0998(4) 0.9006(3)
C10A C 0.2600(3) 1.0733(5) 0.9472(3)
H14A H 0.2889 1.0676 0.9837
C11A C 0.1988(4) 1.0550(5) 0.9410(4)
H15A H 0.1856 1.0361 0.9728
C12A C 0.1569(4) 1.0650(6) 0.8868(4)
H16A H 0.1148 1.0531 0.8815
C13A C 0.1770(5) 1.0917(7) 0.8423(4)
H17A H 0.1485 1.0982 0.8058
C14A C 0.2378(4) 1.1097(6) 0.8486(3)
H18A H 0.2508 1.1288 0.8167
C15A C 0.3426(3) 0.7324(5) 0.7528(3)
H19A H 0.2999 0.7503 0.7513
C16A C 0.3443(3) 0.6277(4) 0.7508(3)
H20A H 0.3191 0.6059 0.7136
H21A H 0.3285 0.6020 0.7810
H22A H 0.3864 0.6068 0.7567
C17A C 0.3569(3) 0.7800(5) 0.7023(3)
C18A C 0.3338(3) 0.8670(5) 0.6846(3)
C19A C 0.3460(3) 0.9136(5) 0.6386(3)
C20A C 0.3844(3) 0.8681(5) 0.6114(3)
C21A C 0.4105(3) 0.7816(5) 0.6287(3)
C22A C 0.3957(3) 0.7400(5) 0.6736(3)
H23A H 0.4128 0.6805 0.6858
C23A C 0.3198(3) 1.0056(5) 0.6174(3)
H24A H 0.2872 1.0219 0.6351
H25A H 0.3017 1.0031 0.5755
C24A C 0.3461(3) 1.1771(5) 0.6204(3)
H26A H 0.3195 1.1917 0.6449
H27A H 0.3812 1.2205 0.6309
C25A C 0.3117(3) 1.1931(4) 0.5602(3)
C26A C 0.3373(5) 1.2108(6) 0.5177(3)
H28A H 0.3803 1.2158 0.5255
C27A C 0.2975(4) 1.2220(7) 0.4595(4)
H29A H 0.3128 1.2357 0.4281
C28A C 0.2367(4) 1.2113(6) 0.4537(4)
H30A H 0.2107 1.2168 0.4159
C29A C 0.2084(5) 1.1942(7) 0.4937(4)
H31A H 0.1656 1.1875 0.4865
C30A C 0.2487(4) 1.1880(6) 0.5452(4)
H32A H 0.2316 1.1787 0.5760
C31A C 0.4512(3) 0.7330(5) 0.5961(3)
H33A H 0.4354 0.7512 0.5550
C32A C 0.4499(3) 0.6283(5) 0.5989(3)
H34A H 0.4697 0.6078 0.6380
H35A H 0.4716 0.6021 0.5731
H36A H 0.4075 0.6066 0.5873
Cl3? Cl 0.5064(2) 1.1124(4) 0.6462(2)
Cl4? Cl 0.6894(4) 1.0971(4) 0.7587(3)
O5? O 0.5475(8) 1.0234(12) 0.7709(7)
H37? H 0.5500 1.0551 0.7427
C33? C 0.5032(9) 0.9539(12) 0.7381(9)
H38? H 0.4858 0.9762 0.6990
H39? H 0.4705 0.9451 0.7563
H40? H 0.5241 0.8943 0.7375
loop_
_geom_bond_atom_site_label_1
_geom_bond_atom_site_label_2
_geom_bond_site_symmetry_1
_geom_bond_site_symmetry_2
O1 H1 1_555 1_555
O2 H2 1_555 1_555
O3 H3 1_555 1_555
O4 H4 1_555 1_555
N1 H5 1_555 1_555
H6 N1 1_555 1_555
N2 H7 1_555 1_555
H8 N2 1_555 1_555
C1 C2 1_555 1_555
C2 O1 1_555 1_555
C3 C2 1_555 1_555
C4 O2 1_555 1_555
C5 C4 1_555 1_555
C6 C1 1_555 1_555
H9 C6 1_555 1_555
C7 N1 1_555 1_555
H10 C7 1_555 1_555
H11 C7 1_555 1_555
C8 N1 1_555 1_555
H12 C8 1_555 1_555
H13 C8 1_555 1_555
C9 C8 1_555 1_555
C10 C9 1_555 1_555
H14 C10 1_555 1_555
C11 C10 1_555 1_555
H15 C11 1_555 1_555
C12 C11 1_555 1_555
H16 C12 1_555 1_555
C13 C12 1_555 1_555
H17 C13 1_555 1_555
C14 C9 1_555 1_555
H18 C14 1_555 1_555
C15 C5 1_555 1_555
H19 C15 1_555 1_555
C16 C15 1_555 1_555
H20 C16 1_555 1_555
H21 C16 1_555 1_555
H22 C16 1_555 1_555
C17 C15 1_555 1_555
C18 O3 1_555 1_555
C19 C18 1_555 1_555
C20 O4 1_555 1_555
C21 C20 1_555 1_555
C22 C17 1_555 1_555
H23 C22 1_555 1_555
C23 N2 1_555 1_555
H24 C23 1_555 1_555
H25 C23 1_555 1_555
C24 N2 1_555 1_555
H26 C24 1_555 1_555
H27 C24 1_555 1_555
C25 C24 1_555 1_555
C26 C25 1_555 1_555
H28 C26 1_555 1_555
C27 C26 1_555 1_555
H29 C27 1_555 1_555
C28 C27 1_555 1_555
H30 C28 1_555 1_555
C29 C28 1_555 1_555
H31 C29 1_555 1_555
C30 C25 1_555 1_555
H32 C30 1_555 1_555
C31 C21 1_555 1_555
H33 C31 1_555 1_555
C32 C31 1_555 1_555
H34 C32 1_555 1_555
H35 C32 1_555 1_555
H36 C32 1_555 1_555
O1A H1A 1_555 1_555
O2A H2A 1_555 1_555
O3A H3A 1_555 1_555
O4A H4A 1_555 1_555
N1A H5A 1_555 1_555
H6A N1A 1_555 1_555
N2A H7A 1_555 1_555
H8A N2A 1_555 1_555
C1A C31 1_555 1_555
C2A O1A 1_555 1_555
C3A C2A 1_555 1_555
C4A O2A 1_555 1_555
C5A C4A 1_555 1_555
C6A C1A 1_555 1_555
H9A C6A 1_555 1_555
C7A N1A 1_555 1_555
H10A C7A 1_555 1_555
H11A C7A 1_555 1_555
C8A N1A 1_555 1_555
H12A C8A 1_555 1_555
H13A C8A 1_555 1_555
C9A C8A 1_555 1_555
C10A C9A 1_555 1_555
H14A C10A 1_555 1_555
C11A C10A 1_555 1_555
H15A C11A 1_555 1_555
C12A C11A 1_555 1_555
H16A C12A 1_555 1_555
C13A C12A 1_555 1_555
H17A C13A 1_555 1_555
C14A C9A 1_555 1_555
H18A C14A 1_555 1_555
C15A C5A 1_555 1_555
H19A C15A 1_555 1_555
C16A C15A 1_555 1_555
H20A C16A 1_555 1_555
H21A C16A 1_555 1_555
H22A C16A 1_555 1_555
C17A C15A 1_555 1_555
C18A O3A 1_555 1_555
C19A C18A 1_555 1_555
C20A O4A 1_555 1_555
C21A C20A 1_555 1_555
C22A C17A 1_555 1_555
H23A C22A 1_555 1_555
C23A N2A 1_555 1_555
H24A C23A 1_555 1_555
H25A C23A 1_555 1_555
C24A N2A 1_555 1_555
H26A C24A 1_555 1_555
H27A C24A 1_555 1_555
C25A C24A 1_555 1_555
C26A C25A 1_555 1_555
H28A C26A 1_555 1_555
C27A C26A 1_555 1_555
H29A C27A 1_555 1_555
C28A C27A 1_555 1_555
H30A C28A 1_555 1_555
C29A C28A 1_555 1_555
H31A C29A 1_555 1_555
C30A C25A 1_555 1_555
H32A C30A 1_555 1_555
C31A C1 1_555 1_555
H33A C31A 1_555 1_555
C32A C31A 1_555 1_555
H34A C32A 1_555 1_555
H35A C32A 1_555 1_555
H36A C32A 1_555 1_555
C3 C4 1_555 1_555
C3 C7 1_555 1_555
C5 C6 1_555 1_555
C13 C14 1_555 1_555
C17 C18 1_555 1_555
C19 C20 1_555 1_555
C19 C23 1_555 1_555
C21 C22 1_555 1_555
C29 C30 1_555 1_555
C1A C2A 1_555 1_555
C3A C4A 1_555 1_555
C3A C7A 1_555 1_555
C5A C6A 1_555 1_555
C13A C14A 1_555 1_555
C17A C18A 1_555 1_555
C19A C20A 1_555 1_555
C19A C23A 1_555 1_555
C21A C22A 1_555 1_555
C21A C31A 1_555 1_555
C29A C30A 1_555 1_555

#END
