
#######################################################################
#
#                 Cambridge Crystallographic Data Centre
#                                CCDC 
#
#######################################################################
#
# If this CIF has been generated from an entry in the Cambridge 
# Structural Database, then it will include bibliographic, chemical, 
# crystal, experimental, refinement or atomic coordinate data resulting 
# from the CCDC's data processing and validation procedures.
#
#######################################################################

data_IZOKUF
_chemical_name_common            
'5,11,17,23-tetrakis((benzylazaniumyl)methyl)-C-methylcalix(4)resorcinarene tetrachloride chloroform 1,4-dioxane solvate monohydrate'
_chemical_formula_moiety         
'C64 H72 N4 O8 4+,2(C4 H8 O2),2(C1 H1 Cl3),H2 O1,4(Cl1 1-)'
_chemical_name_systematic        
'2,8,14,20-tetramethyl-5,11,17,23-tetrakis((benzylazaniumyl)methyl)-4,6,10,12,16,18,22,24-octahydroxycalix(4)arene tetrachloride chloroform 1,4-dioxane solvate monohydrate'
_symmetry_cell_setting           monoclinic
_symmetry_space_group_name_H-M   'C 2/c'
_symmetry_Int_Tables_number      15
_space_group_name_Hall           '-C 2yn'
loop_
_symmetry_equiv_pos_site_id
_symmetry_equiv_pos_as_xyz
1 x,y,z
2 -x,y,1/2-z
3 1/2+x,1/2+y,z
4 1/2-x,1/2+y,1/2-z
5 -x,-y,-z
6 x,-y,1/2+z
7 1/2-x,1/2-y,-z
8 1/2+x,1/2-y,1/2+z
_cell_length_a                   13.7422(8)
_cell_length_b                   19.7476(11)
_cell_length_c                   27.692(2)
_cell_angle_alpha                90
_cell_angle_beta                 92.959(6)
_cell_angle_gamma                90
_cell_volume                     7504.91
_exptl_crystal_colour            colorless
_exptl_crystal_description       plate
_cell_formula_units_Z            4
loop_
_atom_site_label
_atom_site_type_symbol
_atom_site_fract_x
_atom_site_fract_y
_atom_site_fract_z
O1 O 0.2750(2) 0.49038(15) 0.36086(11)
H1 H 0.2359 0.5045 0.3388
O2 O 0.6061(2) 0.51272(16) 0.41785(11)
H2 H 0.6149 0.4716 0.4115
O3 O 0.7896(2) 0.53049(16) 0.38540(11)
H3 H 0.7382 0.5257 0.4002
O4 O 0.8541(2) 0.51176(15) 0.21840(11)
H4 H 0.8592 0.4699 0.2231
N1 N 0.8575(3) 0.40396(18) 0.33155(14)
H5 H 0.8093 0.4105 0.3524
H6 H 0.8301 0.3850 0.3042
N2 N 0.4385(3) 0.37706(18) 0.38297(14)
H7 H 0.4181 0.3885 0.3523
H8 H 0.5031 0.3671 0.3829
C1 C 0.7361(3) 0.5925(2) 0.24234(15)
C2 C 0.8027(3) 0.5407(2) 0.25507(16)
C3 C 0.8205(3) 0.5209(2) 0.30292(16)
C4 C 0.7665(3) 0.5512(2) 0.33873(17)
C5 C 0.6959(3) 0.6010(2) 0.32757(16)
C6 C 0.6829(3) 0.6196(2) 0.27894(16)
H9 H 0.6350 0.6528 0.2705
C7 C 0.8995(3) 0.4719(2) 0.31897(17)
H10 H 0.9366 0.4904 0.3476
H11 H 0.9452 0.4661 0.2928
C8 C 0.9309(3) 0.3553(2) 0.35409(18)
H12 H 0.8985 0.3115 0.3598
H13 H 0.9828 0.3473 0.3313
C9 C 0.9759(3) 0.3808(2) 0.40067(18)
C10 C 0.9261(4) 0.3763(3) 0.44359(19)
H14 H 0.8635 0.3558 0.4430
C11 C 0.9664(4) 0.4010(3) 0.4865(2)
H15 H 0.9326 0.3970 0.5154
C12 C 1.0581(4) 0.4321(3) 0.4869(2)
H16 H 1.0863 0.4496 0.5164
C13 C 1.1076(4) 0.4376(3) 0.4453(2)
H17 H 1.1695 0.4590 0.4460
C14 C 1.0672(4) 0.4121(3) 0.4024(2)
H18 H 1.1019 0.4158 0.3738
C15 C 0.6349(3) 0.6329(2) 0.36617(16)
H19 H 0.6690 0.6233 0.3982
C16 C 0.6269(3) 0.7096(2) 0.36136(16)
H20 H 0.6922 0.7296 0.3636
H21 H 0.5886 0.7275 0.3874
H22 H 0.5947 0.7210 0.3300
C17 C 0.5364(3) 0.5979(2) 0.36590(15)
C18 C 0.5261(3) 0.5368(2) 0.39035(16)
C19 C 0.4380(3) 0.5023(2) 0.38883(16)
C20 C 0.3588(3) 0.5283(2) 0.36155(16)
C21 C 0.3646(3) 0.5902(2) 0.33711(15)
C22 C 0.4543(3) 0.6229(2) 0.33944(15)
H23 H 0.4603 0.6643 0.3223
C23 C 0.4248(3) 0.4372(2) 0.41572(16)
H24 H 0.3586 0.4359 0.4283
H25 H 0.4727 0.4349 0.4436
C24 C 0.3843(4) 0.3155(2) 0.39772(19)
H26 H 0.3140 0.3211 0.3888
H27 H 0.3917 0.3100 0.4333
C25 C 0.4224(3) 0.2528(2) 0.37326(18)
C26 C 0.3886(3) 0.2357(2) 0.32679(18)
H28 H 0.3383 0.2616 0.3108
C27 C 0.4283(4) 0.1809(2) 0.30386(19)
H29 H 0.4065 0.1700 0.2717
C28 C 0.4991(3) 0.1421(2) 0.3271(2)
H30 H 0.5252 0.1040 0.3114
C29 C 0.5316(4) 0.1587(3) 0.3729(2)
H31 H 0.5806 0.1319 0.3890
C30 C 0.4939(4) 0.2143(3) 0.39618(19)
H32 H 0.5175 0.2257 0.4280
C31 C 0.2751(3) 0.6196(2) 0.30940(16)
H33 H 0.2168 0.6037 0.3264
C32 C 0.2721(3) 0.6975(2) 0.31000(17)
H34 H 0.3261 0.7154 0.2920
H35 H 0.2782 0.7136 0.3435
H36 H 0.2101 0.7132 0.2948
O1A O 0.7250(2) 0.49038(15) 0.13914(11)
H1A H 0.7641 0.5045 0.1612
O2A O 0.3939(2) 0.51272(16) 0.08215(11)
H2A H 0.3851 0.4716 0.0885
O3A O 0.2104(2) 0.53049(16) 0.11460(11)
H3A H 0.2618 0.5257 0.0998
O4A O 0.1459(2) 0.51176(15) 0.28160(11)
H4A H 0.1408 0.4699 0.2769
N1A N 0.1425(3) 0.40396(18) 0.16845(14)
H5A H 0.1907 0.4105 0.1476
H6A H 0.1699 0.3850 0.1958
N2A N 0.5615(3) 0.37706(18) 0.11703(14)
H7A H 0.5819 0.3885 0.1477
H8A H 0.4969 0.3671 0.1171
C1A C 0.2639(3) 0.5925(2) 0.25766(15)
C2A C 0.1973(3) 0.5407(2) 0.24493(16)
C3A C 0.1795(3) 0.5209(2) 0.19708(16)
C4A C 0.2335(3) 0.5512(2) 0.16127(17)
C5A C 0.3041(3) 0.6010(2) 0.17243(16)
C6A C 0.3171(3) 0.6196(2) 0.22106(16)
H9A H 0.3650 0.6528 0.2295
C7A C 0.1005(3) 0.4719(2) 0.18103(17)
H10A H 0.0634 0.4904 0.1524
H11A H 0.0548 0.4661 0.2072
C8A C 0.0691(3) 0.3553(2) 0.14591(18)
H12A H 0.1015 0.3115 0.1402
H13A H 0.0172 0.3473 0.1687
C9A C 0.0241(3) 0.3808(2) 0.09933(18)
C10A C 0.0739(4) 0.3763(3) 0.05641(19)
H14A H 0.1365 0.3558 0.0570
C11A C 0.0336(4) 0.4010(3) 0.0135(2)
H15A H 0.0674 0.3970 -0.0154
C12A C -0.0581(4) 0.4321(3) 0.0131(2)
H16A H -0.0863 0.4496 -0.0164
C13A C -0.1076(4) 0.4376(3) 0.0547(2)
H17A H -0.1695 0.4590 0.0540
C14A C -0.0672(4) 0.4121(3) 0.0976(2)
H18A H -0.1019 0.4158 0.1262
C15A C 0.3651(3) 0.6329(2) 0.13383(16)
H19A H 0.3310 0.6233 0.1018
C16A C 0.3731(3) 0.7096(2) 0.13864(16)
H20A H 0.3078 0.7296 0.1364
H21A H 0.4114 0.7275 0.1126
H22A H 0.4053 0.7210 0.1700
C17A C 0.4636(3) 0.5979(2) 0.13410(15)
C18A C 0.4739(3) 0.5368(2) 0.10965(16)
C19A C 0.5620(3) 0.5023(2) 0.11117(16)
C20A C 0.6412(3) 0.5283(2) 0.13845(16)
C21A C 0.6354(3) 0.5902(2) 0.16289(15)
C22A C 0.5457(3) 0.6229(2) 0.16056(15)
H23A H 0.5397 0.6643 0.1777
C23A C 0.5752(3) 0.4372(2) 0.08428(16)
H24A H 0.6414 0.4359 0.0717
H25A H 0.5273 0.4349 0.0564
C24A C 0.6157(4) 0.3155(2) 0.10228(19)
H26A H 0.6860 0.3211 0.1112
H27A H 0.6083 0.3100 0.0667
C25A C 0.5776(3) 0.2528(2) 0.12674(18)
C26A C 0.6114(3) 0.2357(2) 0.17321(18)
H28A H 0.6617 0.2616 0.1892
C27A C 0.5717(4) 0.1809(2) 0.19614(19)
H29A H 0.5935 0.1700 0.2283
C28A C 0.5009(3) 0.1421(2) 0.1729(2)
H30A H 0.4748 0.1040 0.1886
C29A C 0.4684(4) 0.1587(3) 0.1271(2)
H31A H 0.4194 0.1319 0.1110
C30A C 0.5061(4) 0.2143(3) 0.10382(19)
H32A H 0.4825 0.2257 0.0720
C31A C 0.7249(3) 0.6196(2) 0.19060(16)
H33A H 0.7832 0.6037 0.1736
C32A C 0.7279(3) 0.6975(2) 0.19000(17)
H34A H 0.6739 0.7154 0.2080
H35A H 0.7218 0.7136 0.1565
H36A H 0.7899 0.7132 0.2052
O5 O 0.6697(3) 0.7076(2) 0.48683(14)
C33 C 0.7663(4) 0.6869(3) 0.4797(2)
H37 H 0.7837 0.6989 0.4465
H38 H 0.7713 0.6371 0.4832
C34 C 0.6633(4) 0.7791(3) 0.4839(2)
H39 H 0.5960 0.7935 0.4899
H40 H 0.6779 0.7939 0.4509
O5F O 0.8303(3) 0.7924(2) 0.51317(14)
C33F C 0.7337(4) 0.8131(3) 0.5203(2)
H37F H 0.7163 0.8011 0.5535
H38F H 0.7287 0.8629 0.5168
C34F C 0.8367(4) 0.7209(3) 0.5161(2)
H39F H 0.9040 0.7065 0.5101
H40F H 0.8221 0.7061 0.5491
Cl1 Cl 0.74320(11) 0.29575(9) 0.55499(5)
Cl2 Cl 0.54807(10) 0.33262(8) 0.52144(5)
Cl3 Cl 0.70305(12) 0.43123(8) 0.52003(6)
C35 C 0.6726(4) 0.3452(3) 0.5138(2)
H41 H 0.6870 0.3306 0.4803
Cl4 Cl 0.83944(9) 0.36080(6) 0.22335(5)
Cl5 Cl 0.66537(8) 0.36836(6) 0.39053(4)
O6 O 0.5000 0.7508(3) 0.2500
H42? H 0.4451 0.7644 0.2509
H43? H 0.5449 0.7792 0.2620
O7? O 0.4437(5) 0.3855(4) 0.2865(2)
O8? O 0.5715(5) 0.4324(4) 0.2169(3)
C36? C 0.4087(8) 0.4283(7) 0.2473(5)
H44? H 0.3544 0.4566 0.2579
H45? H 0.3839 0.3999 0.2199
C37? C 0.4910(7) 0.4737(5) 0.2311(4)
H46? H 0.4671 0.5020 0.2034
H47? H 0.5130 0.5042 0.2578
C38? C 0.6054(10) 0.3924(7) 0.2572(5)
H48? H 0.6267 0.4224 0.2844
H49? H 0.6620 0.3650 0.2482
C39? C 0.5258(7) 0.3464(5) 0.2727(4)
H50? H 0.5055 0.3157 0.2458
H51? H 0.5504 0.3184 0.3004
loop_
_geom_bond_atom_site_label_1
_geom_bond_atom_site_label_2
_geom_bond_site_symmetry_1
_geom_bond_site_symmetry_2
O1 H1 1_555 1_555
O2 H2 1_555 1_555
O3 H3 1_555 1_555
O4 H4 1_555 1_555
N1 H5 1_555 1_555
H6 N1 1_555 1_555
N2 H7 1_555 1_555
H8 N2 1_555 1_555
C1 C2 1_555 1_555
C2 O4 1_555 1_555
C3 C2 1_555 1_555
C4 O3 1_555 1_555
C5 C4 1_555 1_555
C6 C1 1_555 1_555
H9 C6 1_555 1_555
C7 N1 1_555 1_555
H10 C7 1_555 1_555
H11 C7 1_555 1_555
C8 N1 1_555 1_555
H12 C8 1_555 1_555
H13 C8 1_555 1_555
C9 C8 1_555 1_555
C10 C9 1_555 1_555
H14 C10 1_555 1_555
C11 C10 1_555 1_555
H15 C11 1_555 1_555
C12 C11 1_555 1_555
H16 C12 1_555 1_555
C13 C12 1_555 1_555
H17 C13 1_555 1_555
C14 C9 1_555 1_555
H18 C14 1_555 1_555
C15 C5 1_555 1_555
H19 C15 1_555 1_555
C16 C15 1_555 1_555
H20 C16 1_555 1_555
H21 C16 1_555 1_555
H22 C16 1_555 1_555
C17 C15 1_555 1_555
C18 O2 1_555 1_555
C19 C18 1_555 1_555
C20 O1 1_555 1_555
C21 C20 1_555 1_555
C22 C17 1_555 1_555
H23 C22 1_555 1_555
C23 N2 1_555 1_555
H24 C23 1_555 1_555
H25 C23 1_555 1_555
C24 N2 1_555 1_555
H26 C24 1_555 1_555
H27 C24 1_555 1_555
C25 C24 1_555 1_555
C26 C25 1_555 1_555
H28 C26 1_555 1_555
C27 C26 1_555 1_555
H29 C27 1_555 1_555
C28 C27 1_555 1_555
H30 C28 1_555 1_555
C29 C28 1_555 1_555
H31 C29 1_555 1_555
C30 C25 1_555 1_555
H32 C30 1_555 1_555
C31 C21 1_555 1_555
H33 C31 1_555 1_555
C32 C31 1_555 1_555
H34 C32 1_555 1_555
H35 C32 1_555 1_555
H36 C32 1_555 1_555
O5 C33 1_555 1_555
C33 H37 1_555 1_555
H38 C33 1_555 1_555
C34 O5 1_555 1_555
H39 C34 1_555 1_555
H40 C34 1_555 1_555
Cl1 C35 1_555 1_555
Cl2 C35 1_555 1_555
Cl3 C35 1_555 1_555
C35 H41 1_555 1_555
O1A H1A 1_555 1_555
O2A H2A 1_555 1_555
O3A H3A 1_555 1_555
O4A H4A 1_555 1_555
N1A H5A 1_555 1_555
H6A N1A 1_555 1_555
N2A H7A 1_555 1_555
H8A N2A 1_555 1_555
C1A C31 1_555 1_555
C2A O4A 1_555 1_555
C3A C2A 1_555 1_555
C4A O3A 1_555 1_555
C5A C4A 1_555 1_555
C6A C1A 1_555 1_555
H9A C6A 1_555 1_555
C7A N1A 1_555 1_555
H10A C7A 1_555 1_555
H11A C7A 1_555 1_555
C8A N1A 1_555 1_555
H12A C8A 1_555 1_555
H13A C8A 1_555 1_555
C9A C8A 1_555 1_555
C10A C9A 1_555 1_555
H14A C10A 1_555 1_555
C11A C10A 1_555 1_555
H15A C11A 1_555 1_555
C12A C11A 1_555 1_555
H16A C12A 1_555 1_555
C13A C12A 1_555 1_555
H17A C13A 1_555 1_555
C14A C9A 1_555 1_555
H18A C14A 1_555 1_555
C15A C5A 1_555 1_555
H19A C15A 1_555 1_555
C16A C15A 1_555 1_555
H20A C16A 1_555 1_555
H21A C16A 1_555 1_555
H22A C16A 1_555 1_555
C17A C15A 1_555 1_555
C18A O2A 1_555 1_555
C19A C18A 1_555 1_555
C20A O1A 1_555 1_555
C21A C20A 1_555 1_555
C22A C17A 1_555 1_555
H23A C22A 1_555 1_555
C23A N2A 1_555 1_555
H24A C23A 1_555 1_555
H25A C23A 1_555 1_555
C24A N2A 1_555 1_555
H26A C24A 1_555 1_555
H27A C24A 1_555 1_555
C25A C24A 1_555 1_555
C26A C25A 1_555 1_555
H28A C26A 1_555 1_555
C27A C26A 1_555 1_555
H29A C27A 1_555 1_555
C28A C27A 1_555 1_555
H30A C28A 1_555 1_555
C29A C28A 1_555 1_555
H31A C29A 1_555 1_555
C30A C25A 1_555 1_555
H32A C30A 1_555 1_555
C31A C1 1_555 1_555
H33A C31A 1_555 1_555
C32A C31A 1_555 1_555
H34A C32A 1_555 1_555
H35A C32A 1_555 1_555
H36A C32A 1_555 1_555
O5F C33F 1_555 1_555
C33F C34 1_555 1_555
H37F C33F 1_555 1_555
H38F C33F 1_555 1_555
C34F C33 1_555 1_555
H39F C34F 1_555 1_555
H40F C34F 1_555 1_555
C3 C4 1_555 1_555
C3 C7 1_555 1_555
C5 C6 1_555 1_555
C13 C14 1_555 1_555
C17 C18 1_555 1_555
C19 C20 1_555 1_555
C19 C23 1_555 1_555
C21 C22 1_555 1_555
C29 C30 1_555 1_555
C1A C2A 1_555 1_555
C3A C4A 1_555 1_555
C3A C7A 1_555 1_555
C5A C6A 1_555 1_555
C13A C14A 1_555 1_555
C17A C18A 1_555 1_555
C19A C20A 1_555 1_555
C19A C23A 1_555 1_555
C21A C22A 1_555 1_555
C21A C31A 1_555 1_555
C29A C30A 1_555 1_555
O5F C34F 1_555 1_555

#END
