
#######################################################################
#
#                 Cambridge Crystallographic Data Centre
#                                CCDC 
#
#######################################################################
#
# If this CIF has been generated from an entry in the Cambridge 
# Structural Database, then it will include bibliographic, chemical, 
# crystal, experimental, refinement or atomic coordinate data resulting 
# from the CCDC's data processing and validation procedures.
#
#######################################################################

data_IZOVUQ
_chemical_formula_moiety         'C10 H17 F3 N3 O2 P1'
_chemical_name_systematic        
N-(bis(pyrrolidin-1-yl)phosphoryl)-2,2,2-trifluoroacetamide
_symmetry_cell_setting           triclinic
_symmetry_space_group_name_H-M   'P -1'
_symmetry_Int_Tables_number      2
_space_group_name_Hall           '-P 1'
loop_
_symmetry_equiv_pos_site_id
_symmetry_equiv_pos_as_xyz
1 x,y,z
2 -x,-y,-z
_cell_length_a                   10.4182(5)
_cell_length_b                   10.8139(4)
_cell_length_c                   12.5689(5)
_cell_angle_alpha                89.2540(10)
_cell_angle_beta                 80.445(2)
_cell_angle_gamma                72.8130(10)
_cell_volume                     1333.05
_exptl_crystal_colour            colorless
_exptl_crystal_description       BLOCK
_cell_formula_units_Z            4
loop_
_atom_site_label
_atom_site_type_symbol
_atom_site_fract_x
_atom_site_fract_y
_atom_site_fract_z
P1 P 0.58695(5) 0.34917(5) 0.36585(4)
F1 F 0.10559(13) 0.31362(12) 0.44981(10)
F2 F 0.19784(16) 0.32016(14) 0.58961(10)
F3 F 0.15142(13) 0.48598(11) 0.49146(11)
O1 O 0.36225(16) 0.20496(15) 0.36406(13)
O2 O 0.62298(14) 0.46606(13) 0.39284(10)
N1 N 0.42300(18) 0.37513(16) 0.42724(13)
H1 H 0.397(2) 0.4379(19) 0.4771(16)
N2 N 0.58339(18) 0.31507(19) 0.24112(14)
N3 N 0.6888(2) 0.22033(17) 0.40776(16)
C1 C 0.1962(2) 0.35709(19) 0.48807(16)
C2 C 0.3387(2) 0.30301(19) 0.41878(15)
C3 C 0.7157(17) 0.249(3) 0.1727(11)
H2 H 0.7448 0.1549 0.1855
H3 H 0.7877 0.2866 0.1857
C4 C 0.6829(5) 0.2745(5) 0.0595(3)
H4 H 0.7383 0.2024 0.0082
H5 H 0.6991 0.3562 0.0332
C5 C 0.5324(5) 0.2842(5) 0.0740(3)
H6 H 0.5188 0.1973 0.0785
H7 H 0.4902 0.3300 0.0140
C6 C 0.4740(6) 0.3619(5) 0.1805(4)
H8 H 0.4541 0.4561 0.1698
H9 H 0.3899 0.3435 0.2164
C7 C 0.6731(4) 0.0862(3) 0.4085(3)
H10 H 0.6706 0.0558 0.3352
H11 H 0.5895 0.0831 0.4577
C8 C 0.7997(3) 0.0070(3) 0.4493(2)
H12 H 0.8807 -0.0119 0.3915
H13 H 0.7888 -0.0755 0.4784
C9 C 0.8107(4) 0.0968(4) 0.5390(4)
H14 H 0.9045 0.0730 0.5553
H15 H 0.7463 0.0943 0.6059
C10 C 0.7723(13) 0.2307(9) 0.4888(8)
H16 H 0.7198 0.2986 0.5447
H17 H 0.8551 0.2525 0.4545
P2 P 0.17465(5) 0.31649(4) 0.97344(4)
F4 F -0.09315(15) 0.44996(12) 0.73419(10)
F5 F -0.20002(14) 0.32993(16) 0.82293(12)
F6 F -0.07195(17) 0.26112(13) 0.67077(11)
O3 O 0.11631(16) 0.16257(13) 0.78945(11)
O4 O 0.16693(14) 0.44310(12) 1.02150(11)
N4 N 0.04448(17) 0.34384(15) 0.90201(13)
H34 H -0.021(2) 0.4133(18) 0.9179(18)
N5 N 0.15329(18) 0.20938(16) 1.06075(13)
N6 N 0.31616(18) 0.25470(16) 0.89087(13)
C19 C -0.0827(2) 0.32818(19) 0.76069(16)
C20 C 0.0388(2) 0.26849(18) 0.81943(15)
C21 C 0.0870(2) 0.1080(2) 1.04914(16)
H35 H 0.1372 0.0473 0.9875
H36 H -0.0085 0.1468 1.0383
C22 C 0.0928(3) 0.0395(2) 1.15590(17)
H37 H 0.0117 0.0092 1.1775
H38 H 0.1760 -0.0356 1.1507
C23 C 0.0953(3) 0.1430(2) 1.23532(18)
H39 H 0.1330 0.1039 1.2995
H40 H 0.0029 0.2032 1.2590
C24 C 0.1884(3) 0.2116(2) 1.16972(17)
H41 H 0.1690 0.3015 1.1979
H42 H 0.2856 0.1644 1.1697
C25 C 0.3599(7) 0.3208(6) 0.7955(5)
H43 H 0.4122 0.3782 0.8138
H44 H 0.2804 0.3733 0.7647
C26 C 0.4489(5) 0.2125(4) 0.7168(3)
H45 H 0.4010 0.2070 0.6561
H46 H 0.5344 0.2323 0.6870
C27 C 0.4724(5) 0.1230(4) 0.7541(4)
H47 H 0.5718 0.0935 0.7542
H48 H 0.4516 0.0594 0.7089
C28 C 0.4003(8) 0.1195(8) 0.8681(6)
H49 H 0.3432 0.0603 0.8727
H50 H 0.4661 0.0922 0.9186
C11? C 0.7023(16) 0.258(3) 0.1558(11)
H18? H 0.7568 0.1717 0.1752
H19? H 0.7616 0.3151 0.1419
C12? C 0.6352(6) 0.2480(5) 0.0587(4)
H20? H 0.7020 0.2323 -0.0092
H21? H 0.5910 0.1782 0.0665
C13? C 0.5322(5) 0.3786(5) 0.0623(3)
H22? H 0.4610 0.3780 0.0192
H23? H 0.5758 0.4454 0.0352
C14? C 0.4719(7) 0.4025(5) 0.1840(4)
H24? H 0.4528 0.4947 0.2059
H25? H 0.3865 0.3782 0.2010
C15? C 0.6939(14) 0.0935(10) 0.3714(8)
H26? H 0.7811 0.0476 0.3248
H27? H 0.6158 0.0931 0.3362
C16? C 0.6825(10) 0.0460(8) 0.4842(7)
H28? H 0.7047 -0.0496 0.4836
H29? H 0.5894 0.0843 0.5251
C17? C 0.7840(13) 0.0898(14) 0.5319(11)
H30? H 0.8776 0.0330 0.5059
H31? H 0.7651 0.0889 0.6117
C18? C 0.768(4) 0.227(3) 0.495(2)
H32? H 0.7161 0.2929 0.5519
H33? H 0.8569 0.2411 0.4663
C29? C 0.3634(7) 0.3427(6) 0.8095(5)
H51? H 0.3815 0.4150 0.8458
H52? H 0.2947 0.3787 0.7626
C30? C 0.4939(5) 0.2539(4) 0.7449(3)
H53? H 0.5729 0.2838 0.7533
H54? H 0.4872 0.2527 0.6672
C31? C 0.5119(5) 0.1064(4) 0.7939(4)
H55? H 0.5187 0.0435 0.7352
H56? H 0.5962 0.0778 0.8257
C32? C 0.3866(8) 0.1129(8) 0.8811(7)
H57? H 0.3287 0.0644 0.8573
H58? H 0.4140 0.0790 0.9501
loop_
_geom_bond_atom_site_label_1
_geom_bond_atom_site_label_2
_geom_bond_site_symmetry_1
_geom_bond_site_symmetry_2
P1 O2 1_555 1_555
F1 C1 1_555 1_555
F2 C1 1_555 1_555
F3 C1 1_555 1_555
O1 C2 1_555 1_555
N1 P1 1_555 1_555
H1 N1 1_555 1_555
N2 P1 1_555 1_555
N3 P1 1_555 1_555
C1 C2 1_555 1_555
C2 N1 1_555 1_555
C3 N2 1_555 1_555
H2 C3 1_555 1_555
H3 C3 1_555 1_555
C4 C3 1_555 1_555
H4 C4 1_555 1_555
H5 C4 1_555 1_555
C5 C4 1_555 1_555
H6 C5 1_555 1_555
H7 C5 1_555 1_555
C6 N2 1_555 1_555
H8 C6 1_555 1_555
H9 C6 1_555 1_555
C7 N3 1_555 1_555
H10 C7 1_555 1_555
H11 C7 1_555 1_555
C8 C7 1_555 1_555
H12 C8 1_555 1_555
H13 C8 1_555 1_555
C9 C8 1_555 1_555
H14 C9 1_555 1_555
H15 C9 1_555 1_555
C10 N3 1_555 1_555
H16 C10 1_555 1_555
H17 C10 1_555 1_555
P2 O4 1_555 1_555
F4 C19 1_555 1_555
F5 C19 1_555 1_555
F6 C19 1_555 1_555
O3 C20 1_555 1_555
N4 P2 1_555 1_555
H34 N4 1_555 1_555
N5 P2 1_555 1_555
N6 P2 1_555 1_555
C19 C20 1_555 1_555
C20 N4 1_555 1_555
C21 N5 1_555 1_555
H35 C21 1_555 1_555
H36 C21 1_555 1_555
C22 C21 1_555 1_555
H37 C22 1_555 1_555
H38 C22 1_555 1_555
C23 C22 1_555 1_555
H39 C23 1_555 1_555
H40 C23 1_555 1_555
C24 N5 1_555 1_555
H41 C24 1_555 1_555
H42 C24 1_555 1_555
C25 N6 1_555 1_555
H43 C25 1_555 1_555
H44 C25 1_555 1_555
C26 C25 1_555 1_555
H45 C26 1_555 1_555
H46 C26 1_555 1_555
C27 C26 1_555 1_555
H47 C27 1_555 1_555
H48 C27 1_555 1_555
C28 N6 1_555 1_555
H49 C28 1_555 1_555
H50 C28 1_555 1_555
C5 C6 1_555 1_555
C9 C10 1_555 1_555
C23 C24 1_555 1_555
C27 C28 1_555 1_555

#END
