
#######################################################################
#
#                 Cambridge Crystallographic Data Centre
#                                CCDC 
#
#######################################################################
#
# If this CIF has been generated from an entry in the Cambridge 
# Structural Database, then it will include bibliographic, chemical, 
# crystal, experimental, refinement or atomic coordinate data resulting 
# from the CCDC's data processing and validation procedures.
#
#######################################################################

data_IZOWEB
_chemical_formula_moiety         'C10 H21 F3 N3 O2 P1'
_chemical_name_systematic        
N-(bis(t-butylamino)phosphoryl)-2,2,2-trifluoroacetamide
_symmetry_cell_setting           monoclinic
_symmetry_space_group_name_H-M   'P 2/n'
_symmetry_Int_Tables_number      13
_space_group_name_Hall           '-P 2yac'
loop_
_symmetry_equiv_pos_site_id
_symmetry_equiv_pos_as_xyz
1 x,y,z
2 1/2-x,y,1/2-z
3 -x,-y,-z
4 1/2+x,-y,1/2+z
_cell_length_a                   12.3170(5)
_cell_length_b                   15.7146(6)
_cell_length_c                   15.6866(7)
_cell_angle_alpha                90
_cell_angle_beta                 90.443(2)
_cell_angle_gamma                90
_cell_volume                     3036.16
_exptl_crystal_colour            colorless
_exptl_crystal_description       BLOCK
_cell_formula_units_Z            8
loop_
_atom_site_label
_atom_site_type_symbol
_atom_site_fract_x
_atom_site_fract_y
_atom_site_fract_z
P1 P -0.20695(7) 0.94960(6) 0.10688(5)
C1 C 0.0519(5) 1.0210(4) 0.2504(4)
F1 F 0.0556(4) 0.9702(4) 0.3127(3)
F2 F 0.0003(4) 1.0845(4) 0.2906(3)
F3 F 0.1413(4) 1.0614(4) 0.2351(3)
N1 N -0.1104(2) 0.96404(19) 0.18482(18)
H1 H -0.130(3) 0.960(3) 0.2373(15)
N2 N -0.1619(3) 0.86577(19) 0.05775(19)
H2 H -0.109(2) 0.843(3) 0.082(2)
N3 N -0.2003(2) 1.02594(19) 0.03803(18)
H3 H -0.150(3) 1.020(3) 0.002(2)
O1 O 0.0339(2) 0.9934(3) 0.10033(17)
O2 O -0.3119(2) 0.94425(18) 0.15119(15)
C2 C -0.0084(3) 0.9879(3) 0.1697(2)
C3 C -0.2206(3) 0.8130(2) -0.0066(2)
C4 C -0.1334(4) 0.7684(3) -0.0572(3)
H4 H -0.0925 0.8105 -0.0901
H5 H -0.1671 0.7273 -0.0962
H6 H -0.0840 0.7386 -0.0181
C5 C -0.2892(4) 0.7492(3) 0.0428(3)
H7 H -0.3410 0.7800 0.0787
H8 H -0.2418 0.7141 0.0789
H9 H -0.3290 0.7127 0.0027
C6 C -0.2923(4) 0.8668(3) -0.0628(3)
H10 H -0.3448 0.8974 -0.0275
H11 H -0.3312 0.8303 -0.1034
H12 H -0.2477 0.9078 -0.0939
C7 C -0.2529(3) 1.1104(2) 0.0413(3)
C8 C -0.3724(3) 1.1024(3) 0.0190(3)
H13 H -0.4078 1.0649 0.0603
H14 H -0.3803 1.0784 -0.0384
H15 H -0.4064 1.1588 0.0207
C9 C -0.2403(5) 1.1475(3) 0.1309(4)
H16 H -0.2794 1.1117 0.1716
H17 H -0.2702 1.2053 0.1320
H18 H -0.1631 1.1492 0.1467
C10 C -0.1965(4) 1.1656(3) -0.0245(4)
H19 H -0.2038 1.1394 -0.0810
H20 H -0.1194 1.1709 -0.0096
H21 H -0.2300 1.2222 -0.0254
P2 P 0.53668(7) 0.53073(5) 0.13958(5)
F7 F 0.8227(3) 0.5264(3) -0.0482(2)
F8 F 0.7835(3) 0.4017(3) -0.0116(2)
F9 F 0.9178(3) 0.4618(3) 0.0452(2)
O3 O 0.7839(2) 0.5343(2) 0.15657(17)
O4 O 0.43403(18) 0.52393(16) 0.09140(15)
N4 N 0.6380(2) 0.5170(2) 0.06753(18)
H22 H 0.624(3) 0.505(3) 0.0137(15)
N5 N 0.5629(2) 0.62295(19) 0.18246(19)
H23 H 0.6294(19) 0.625(3) 0.198(3)
N6 N 0.5501(2) 0.45905(19) 0.21330(19)
H24 H 0.589(3) 0.474(3) 0.256(2)
C12 C 0.8168(5) 0.4772(5) 0.0188(4)
C13 C 0.7439(3) 0.5143(3) 0.0882(2)
C14 C 0.4823(3) 0.6765(2) 0.2287(2)
C15 C 0.4065(4) 0.7182(3) 0.1646(3)
H25 H 0.4490 0.7512 0.1237
H26 H 0.3564 0.7562 0.1945
H27 H 0.3650 0.6743 0.1343
C16 C 0.4168(4) 0.6244(3) 0.2920(3)
H28 H 0.4663 0.5964 0.3324
H29 H 0.3744 0.5813 0.2613
H30 H 0.3676 0.6621 0.3231
C17 C 0.5477(4) 0.7441(3) 0.2759(3)
H31 H 0.5908 0.7767 0.2351
H32 H 0.5962 0.7166 0.3174
H33 H 0.4982 0.7825 0.3058
C18 C 0.5122(3) 0.3693(2) 0.2089(3)
C19 C 0.3894(3) 0.3669(2) 0.2239(3)
H34 H 0.3732 0.3931 0.2790
H35 H 0.3644 0.3077 0.2238
H36 H 0.3521 0.3985 0.1784
C20 C 0.5380(4) 0.3299(3) 0.1218(3)
H37 H 0.6163 0.3330 0.1117
H38 H 0.4993 0.3613 0.0769
H39 H 0.5147 0.2703 0.1210
C21 C 0.5703(4) 0.3205(3) 0.2785(4)
H40 H 0.5577 0.3482 0.3335
H41 H 0.6483 0.3194 0.2668
H42 H 0.5425 0.2621 0.2803
C11? C 0.0680(9) 0.9852(7) 0.2424(7)
F4? F 0.0324(8) 0.9487(8) 0.3084(6)
F5? F 0.0752(8) 1.0662(6) 0.2568(5)
F6? F 0.1625(6) 0.9594(6) 0.2343(5)
F10? F 0.7827(8) 0.5422(7) -0.0586(6)
F11? F 0.8350(9) 0.4390(7) 0.0026(7)
F12? F 0.9123(6) 0.5480(7) 0.0246(6)
C22? C 0.8173(12) 0.5187(10) 0.0152(9)
loop_
_geom_bond_atom_site_label_1
_geom_bond_atom_site_label_2
_geom_bond_site_symmetry_1
_geom_bond_site_symmetry_2
P1 N1 1_555 1_555
C1 F1 1_555 1_555
F2 C1 1_555 1_555
F3 C1 1_555 1_555
N1 H1 1_555 1_555
N2 P1 1_555 1_555
H2 N2 1_555 1_555
N3 P1 1_555 1_555
H3 N3 1_555 1_555
O1 C2 1_555 1_555
O2 P1 1_555 1_555
C2 C1 1_555 1_555
C3 N2 1_555 1_555
C4 C3 1_555 1_555
H4 C4 1_555 1_555
H5 C4 1_555 1_555
H6 C4 1_555 1_555
C5 C3 1_555 1_555
H7 C5 1_555 1_555
H8 C5 1_555 1_555
H9 C5 1_555 1_555
C6 C3 1_555 1_555
H10 C6 1_555 1_555
H11 C6 1_555 1_555
H12 C6 1_555 1_555
C7 N3 1_555 1_555
C8 C7 1_555 1_555
H13 C8 1_555 1_555
H14 C8 1_555 1_555
H15 C8 1_555 1_555
C9 C7 1_555 1_555
H16 C9 1_555 1_555
H17 C9 1_555 1_555
H18 C9 1_555 1_555
C10 C7 1_555 1_555
H19 C10 1_555 1_555
H20 C10 1_555 1_555
H21 C10 1_555 1_555
P2 O4 1_555 1_555
F7 C12 1_555 1_555
F8 C12 1_555 1_555
F9 C12 1_555 1_555
O3 C13 1_555 1_555
N4 P2 1_555 1_555
H22 N4 1_555 1_555
N5 P2 1_555 1_555
H23 N5 1_555 1_555
N6 P2 1_555 1_555
H24 N6 1_555 1_555
C12 C13 1_555 1_555
C13 N4 1_555 1_555
C14 N5 1_555 1_555
C15 C14 1_555 1_555
H25 C15 1_555 1_555
H26 C15 1_555 1_555
H27 C15 1_555 1_555
C16 C14 1_555 1_555
H28 C16 1_555 1_555
H29 C16 1_555 1_555
H30 C16 1_555 1_555
C17 C14 1_555 1_555
H31 C17 1_555 1_555
H32 C17 1_555 1_555
H33 C17 1_555 1_555
C18 N6 1_555 1_555
C19 C18 1_555 1_555
H34 C19 1_555 1_555
H35 C19 1_555 1_555
H36 C19 1_555 1_555
C20 C18 1_555 1_555
H37 C20 1_555 1_555
H38 C20 1_555 1_555
H39 C20 1_555 1_555
C21 C18 1_555 1_555
H40 C21 1_555 1_555
H41 C21 1_555 1_555
H42 C21 1_555 1_555
N1 C2 1_555 1_555

#END
