
#######################################################################
#
#                 Cambridge Crystallographic Data Centre
#                                CCDC 
#
#######################################################################
#
# If this CIF has been generated from an entry in the Cambridge 
# Structural Database, then it will include bibliographic, chemical, 
# crystal, experimental, refinement or atomic coordinate data resulting 
# from the CCDC's data processing and validation procedures.
#
#######################################################################

data_IZOXOL09
_chemical_formula_moiety         'C7 H5 Br1 N3 Se4'
_chemical_name_systematic        
8-Bromo-4-ethyl-4H-bis(1,2,3)diselenazolo(4,5-b:5',4'-e)pyridin-3-yl
_symmetry_cell_setting           tetragonal
_symmetry_space_group_name_H-M   'P -4 21 m'
_symmetry_Int_Tables_number      113
_space_group_name_Hall           'P -4 2ab'
loop_
_symmetry_equiv_pos_site_id
_symmetry_equiv_pos_as_xyz
1 x,y,z
2 -x,-y,z
3 y,-x,-z
4 -y,x,-z
5 1/2-x,1/2+y,-z
6 1/2+x,1/2-y,-z
7 1/2-y,1/2-x,z
8 1/2+y,1/2+x,z
_cell_length_a                   16.3109(14)
_cell_length_b                   16.3109(14)
_cell_length_c                   4.1753(7)
_cell_angle_alpha                90
_cell_angle_beta                 90
_cell_angle_gamma                90
_cell_volume                     1110.82
_exptl_crystal_colour            black
_exptl_crystal_description       needle
_cell_formula_units_Z            4
loop_
_atom_site_label
_atom_site_type_symbol
_atom_site_fract_x
_atom_site_fract_y
_atom_site_fract_z
Se1 Se 0.43865(4) 0.60296(4) 0.76067(19)
Se2 Se 0.47646(4) 0.72849(4) 0.5213(2)
Br1 Br 0.41904(4) 0.91904(4) 0.3520(3)
C1 C 0.3473(3) 0.8473(3) 0.572(2)
C2 C 0.3745(3) 0.7699(4) 0.6514(16)
C3 C 0.3225(4) 0.7159(4) 0.8320(16)
N1 N 0.3397(3) 0.6403(3) 0.9044(14)
N2 N 0.2473(3) 0.7473(3) 0.9348(19)
C4 C 0.1965(4) 0.6965(4) 1.145(2)
H1 H 0.2318 0.6636 1.2804
C5 C 0.1389(4) 0.6389(4) 0.970(3)
H2 H 0.1080 0.6080 1.1237
H3 H 0.1701 0.6003 0.8381
Se1G Se 0.10296(4) 0.93865(4) 0.76067(19)
Se2G Se 0.22849(4) 0.97646(4) 0.5213(2)
C2G C 0.2699(4) 0.8745(3) 0.6514(16)
C3G C 0.2159(4) 0.8225(4) 0.8320(16)
N1G N 0.1403(3) 0.8397(3) 0.9044(14)
H1G H 0.1636 0.7318 1.2804
H3G H 0.1003 0.6701 0.8381
loop_
_geom_bond_atom_site_label_1
_geom_bond_atom_site_label_2
_geom_bond_site_symmetry_1
_geom_bond_site_symmetry_2
Se1 Se2 1_555 1_555
Se2 C2 1_555 1_555
Br1 C1 1_555 1_555
C1 C2 1_555 1_555
C2 C3 1_555 1_555
C3 N1 1_555 1_555
N1 Se1 1_555 1_555
N2 C3 1_555 1_555
C4 N2 1_555 1_555
H1 C4 1_555 1_555
C5 C4 1_555 1_555
H2 C5 1_555 1_555
H3 C5 1_555 1_555
Se1G Se2G 1_555 1_555
Se2G C2G 1_555 1_555
C2G C1 1_555 1_555
C3G N2 1_555 1_555
N1G Se1G 1_555 1_555
H1G C4 1_555 1_555
H3G C5 1_555 1_555
C2G C3G 1_555 1_555
C3G N1G 1_555 1_555

#END
