
#######################################################################
#
#                 Cambridge Crystallographic Data Centre
#                                CCDC 
#
#######################################################################
#
# If this CIF has been generated from an entry in the Cambridge 
# Structural Database, then it will include bibliographic, chemical, 
# crystal, experimental, refinement or atomic coordinate data resulting 
# from the CCDC's data processing and validation procedures.
#
#######################################################################

data_IZOXIF
_chemical_compound_source        'Daldinia eschscholzii'
_chemical_name_common            'Dalmanol A'
_chemical_formula_moiety         'C20 H14 O6,H2 O1'
_chemical_name_systematic        
'1,3,10,11-Tetrahydroxy-12-methyl-11,12-dihydro-4H-naphtho[2,1,8-mna]xanthen-4-one monohydrate'
_chemical_properties_biological  
'tested for cytotoxicity against Mouse spleen cells'
_symmetry_cell_setting           triclinic
_symmetry_space_group_name_H-M   'P -1'
_symmetry_Int_Tables_number      2
_space_group_name_Hall           '-P 1'
loop_
_symmetry_equiv_pos_site_id
_symmetry_equiv_pos_as_xyz
1 x,y,z
2 -x,-y,-z
_cell_length_a                   7.7060(15)
_cell_length_b                   9.3970(19)
_cell_length_c                   12.156(2)
_cell_angle_alpha                80.64(3)
_cell_angle_beta                 78.70(3)
_cell_angle_gamma                71.62(3)
_cell_volume                     814.332
_chemical_melting_point          124-126deg.C
_cell_formula_units_Z            2
loop_
_atom_site_label
_atom_site_type_symbol
_atom_site_fract_x
_atom_site_fract_y
_atom_site_fract_z
O1 O -0.0417(3) 0.8784(2) 0.46169(15)
H1 H 0.0208 0.9206 0.4129
C1 C -0.5866(4) 0.8754(4) 0.6779(2)
H2 H -0.7081 0.8940 0.7217
H3 H -0.5381 0.7704 0.6670
H4 H -0.5937 0.9348 0.6059
O2 O 0.0764(2) 0.42907(19) 0.72101(14)
C2 C -0.4582(3) 0.9188(3) 0.74077(19)
H5 H -0.5074 1.0271 0.7480
O3 O -0.2077(2) 0.38242(19) 1.09380(14)
C3 C -0.2640(3) 0.8895(3) 0.6715(2)
H6 H -0.2782 0.9186 0.5919
O4 O -0.1622(2) 0.97890(18) 0.69993(14)
H7 H -0.1087 1.0142 0.6420
C4 C -0.1477(3) 0.7258(3) 0.68303(19)
O5 O -0.4805(3) 0.5931(2) 1.17571(14)
H8 H -0.4005 0.5113 1.1753
C5 C 0.0062(3) 0.6627(3) 0.59759(19)
C6 C 0.0603(3) 0.7364(3) 0.4904(2)
O6 O -0.7262(2) 1.02152(18) 0.92742(14)
H9 H -0.7991 1.0422 0.9855
C7 C 0.2122(4) 0.6636(3) 0.4177(2)
H10 H 0.2471 0.7145 0.3488
C8 C 0.3129(4) 0.5167(3) 0.4458(2)
H11 H 0.4149 0.4698 0.3956
C9 C 0.2644(4) 0.4384(3) 0.5472(2)
H12 H 0.3305 0.3386 0.5656
C10 C 0.1144(3) 0.5128(3) 0.6209(2)
C11 C -0.0613(3) 0.4894(3) 0.80349(19)
C12 C -0.0730(3) 0.4024(3) 0.9030(2)
H13 H 0.0050 0.3042 0.9100
C13 C -0.2033(3) 0.4595(3) 0.9973(2)
C14 C -0.3313(3) 0.6092(3) 0.98213(19)
C15 C -0.4685(3) 0.6699(3) 1.07201(19)
C16 C -0.5967(3) 0.8083(3) 1.0547(2)
H14 H -0.6855 0.8478 1.1143
C17 C -0.5935(3) 0.8888(3) 0.94862(19)
C18 C -0.4568(3) 0.8361(3) 0.85754(19)
C19 C -0.3268(3) 0.6970(3) 0.87585(19)
C20 C -0.1803(3) 0.6393(3) 0.78288(19)
O7 O -0.9906(2) 1.10443(19) 1.10777(14)
H15 H -0.9858 1.0491 1.1705
H16 H -1.0784 1.1858 1.1015
loop_
_geom_bond_atom_site_label_1
_geom_bond_atom_site_label_2
_geom_bond_site_symmetry_1
_geom_bond_site_symmetry_2
O1 H1 1_555 1_555
C1 H2 1_555 1_555
H3 C1 1_555 1_555
H4 C1 1_555 1_555
O2 C10 1_555 1_555
C2 C1 1_555 1_555
H5 C2 1_555 1_555
O3 C13 1_555 1_555
C3 C2 1_555 1_555
H6 C3 1_555 1_555
O4 C3 1_555 1_555
H7 O4 1_555 1_555
C4 C3 1_555 1_555
O5 H8 1_555 1_555
C5 C4 1_555 1_555
C6 O1 1_555 1_555
O6 H9 1_555 1_555
C7 C6 1_555 1_555
H10 C7 1_555 1_555
C8 C7 1_555 1_555
H11 C8 1_555 1_555
C9 C8 1_555 1_555
H12 C9 1_555 1_555
C10 C5 1_555 1_555
C11 O2 1_555 1_555
C12 C11 1_555 1_555
H13 C12 1_555 1_555
C13 C12 1_555 1_555
C14 C13 1_555 1_555
C15 O5 1_555 1_555
C16 C15 1_555 1_555
H14 C16 1_555 1_555
C17 O6 1_555 1_555
C18 C2 1_555 1_555
C19 C14 1_555 1_555
C20 C4 1_555 1_555
O7 H15 1_555 1_555
H16 O7 1_555 1_555
C5 C6 1_555 1_555
C9 C10 1_555 1_555
C11 C20 1_555 1_555
C14 C15 1_555 1_555
C16 C17 1_555 1_555
C17 C18 1_555 1_555
C18 C19 1_555 1_555
C19 C20 1_555 1_555

#END
