
#######################################################################
#
#                 Cambridge Crystallographic Data Centre
#                                CCDC 
#
#######################################################################
#
# If this CIF has been generated from an entry in the Cambridge 
# Structural Database, then it will include bibliographic, chemical, 
# crystal, experimental, refinement or atomic coordinate data resulting 
# from the CCDC's data processing and validation procedures.
#
#######################################################################

data_IZUBUA
_chemical_formula_moiety         'C34 H24 N2 S2'
_chemical_name_systematic        
3,7-Diphenyl-4,6-bis(2-thienyl)-2-(p-tolyl)-1H-pyrrolo(3,2-c)pyridine
_symmetry_cell_setting           orthorhombic
_symmetry_space_group_name_H-M   'P 21 21 21'
_symmetry_Int_Tables_number      19
_space_group_name_Hall           'P 2ac 2ab'
loop_
_symmetry_equiv_pos_site_id
_symmetry_equiv_pos_as_xyz
1 x,y,z
2 1/2-x,-y,1/2+z
3 -x,1/2+y,1/2-z
4 1/2+x,1/2-y,-z
_cell_length_a                   10.014(2)
_cell_length_b                   13.707(3)
_cell_length_c                   19.626(4)
_cell_angle_alpha                90
_cell_angle_beta                 90
_cell_angle_gamma                90
_cell_volume                     2693.9
_exptl_crystal_description       block
_chemical_melting_point          '294-295 deg.C'
_cell_formula_units_Z            4
_exptl_crystal_recrystallization_method dichloromethane
loop_
_atom_site_label
_atom_site_type_symbol
_atom_site_fract_x
_atom_site_fract_y
_atom_site_fract_z
S1 S 0.02717(9) 0.21134(7) 0.02782(4)
S2 S -0.16759(11) -0.01575(7) -0.09370(4)
N1 N -0.2141(2) 0.07760(16) 0.02938(11)
N2 N -0.5309(3) 0.11733(18) 0.15811(12)
C1 C -0.2106(3) 0.1403(2) 0.08164(14)
C2 C -0.3260(3) 0.1576(2) 0.12208(13)
C3 C -0.4347(3) 0.0949(2) 0.11081(12)
C4 C -0.4399(3) 0.0252(2) 0.05791(12)
C5 C -0.3264(3) 0.0246(2) 0.01591(13)
C6 C -0.3651(3) 0.2262(2) 0.17446(13)
C7 C -0.4914(3) 0.1987(2) 0.19491(12)
C8 C -0.0787(3) 0.1845(2) 0.09469(14)
C9 C -0.0172(3) 0.2074(3) 0.15505(15)
H1 H -0.0566 0.1975 0.1974
C10 C 0.1096(4) 0.2471(3) 0.1469(2)
H2 H 0.1628 0.2666 0.1832
C11 C 0.1477(4) 0.2543(3) 0.08200(19)
H3 H 0.2294 0.2795 0.0679
C12 C -0.3146(3) -0.0308(2) -0.04825(13)
C13 C -0.4009(3) -0.0907(2) -0.08344(14)
H4 H -0.4844 -0.1088 -0.0670
C14 C -0.3502(4) -0.1217(2) -0.14665(15)
H5 H -0.3969 -0.1616 -0.1766
C15 C -0.2264(4) -0.0870(2) -0.15903(15)
H6 H -0.1783 -0.1003 -0.1985
C16 C -0.5610(3) -0.0356(2) 0.04772(13)
C17 C -0.6786(3) 0.0072(2) 0.02397(14)
H7 H -0.6819 0.0742 0.0167
C18 C -0.7907(4) -0.0497(3) 0.01110(16)
H8 H -0.8685 -0.0208 -0.0050
C19 C -0.7868(4) -0.1489(3) 0.02223(16)
H9 H -0.8616 -0.1870 0.0132
C20 C -0.6724(4) -0.1915(2) 0.04659(15)
H10 H -0.6705 -0.2584 0.0540
C21 C -0.5594(4) -0.1362(2) 0.06036(13)
H11 H -0.4832 -0.1657 0.0779
C22 C -0.2921(3) 0.3135(2) 0.19827(13)
C23 C -0.2762(3) 0.3355(2) 0.26754(14)
H12 H -0.3147 0.2951 0.3001
C24 C -0.2044(3) 0.4164(2) 0.28835(16)
H13 H -0.1970 0.4303 0.3346
C25 C -0.1440(4) 0.4759(2) 0.24185(18)
H14 H -0.0928 0.5287 0.2561
C26 C -0.1606(4) 0.4561(2) 0.17202(18)
H15 H -0.1221 0.4968 0.1395
C27 C -0.2336(3) 0.3768(2) 0.15220(15)
H16 H -0.2444 0.3649 0.1059
C28 C -0.5832(3) 0.2405(2) 0.24574(14)
C29 C -0.6086(3) 0.3411(2) 0.24844(14)
H17 H -0.5618 0.3830 0.2198
C30 C -0.7017(3) 0.3789(2) 0.29293(15)
H18 H -0.7167 0.4458 0.2935
C31 C -0.7733(3) 0.3199(3) 0.33659(15)
C32 C -0.7455(3) 0.2204(3) 0.33568(14)
H19 H -0.7902 0.1792 0.3657
C33 C -0.6531(3) 0.1816(2) 0.29123(13)
H20 H -0.6372 0.1147 0.2916
C34 C -0.8795(3) 0.3597(2) 0.38332(15)
H21 H -0.9175 0.3073 0.4093
H22 H -0.9481 0.3905 0.3567
H23 H -0.8405 0.4067 0.4137
H24 H -0.608(3) 0.090(2) 0.1624(13)
loop_
_geom_bond_atom_site_label_1
_geom_bond_atom_site_label_2
_geom_bond_site_symmetry_1
_geom_bond_site_symmetry_2
S1 C8 1_555 1_555
S2 C12 1_555 1_555
N1 C1 1_555 1_555
N2 C3 1_555 1_555
C1 C2 1_555 1_555
C2 C3 1_555 1_555
C3 C4 1_555 1_555
C4 C5 1_555 1_555
C5 N1 1_555 1_555
C6 C2 1_555 1_555
C7 N2 1_555 1_555
C8 C1 1_555 1_555
C9 C8 1_555 1_555
H1 C9 1_555 1_555
C10 C9 1_555 1_555
H2 C10 1_555 1_555
C11 S1 1_555 1_555
H3 C11 1_555 1_555
C12 C5 1_555 1_555
C13 C12 1_555 1_555
H4 C13 1_555 1_555
C14 C13 1_555 1_555
H5 C14 1_555 1_555
C15 S2 1_555 1_555
H6 C15 1_555 1_555
C16 C4 1_555 1_555
C17 C16 1_555 1_555
H7 C17 1_555 1_555
C18 C17 1_555 1_555
H8 C18 1_555 1_555
C19 C18 1_555 1_555
H9 C19 1_555 1_555
C20 C19 1_555 1_555
H10 C20 1_555 1_555
C21 C16 1_555 1_555
H11 C21 1_555 1_555
C22 C6 1_555 1_555
C23 C22 1_555 1_555
H12 C23 1_555 1_555
C24 C23 1_555 1_555
H13 C24 1_555 1_555
C25 C24 1_555 1_555
H14 C25 1_555 1_555
C26 C25 1_555 1_555
H15 C26 1_555 1_555
C27 C22 1_555 1_555
H16 C27 1_555 1_555
C28 C7 1_555 1_555
C29 C28 1_555 1_555
H17 C29 1_555 1_555
C30 C29 1_555 1_555
H18 C30 1_555 1_555
C31 C30 1_555 1_555
C32 C31 1_555 1_555
H19 C32 1_555 1_555
C33 C28 1_555 1_555
H20 C33 1_555 1_555
C34 C31 1_555 1_555
H21 C34 1_555 1_555
H22 C34 1_555 1_555
H23 C34 1_555 1_555
H24 N2 1_555 1_555
C6 C7 1_555 1_555
C10 C11 1_555 1_555
C14 C15 1_555 1_555
C20 C21 1_555 1_555
C26 C27 1_555 1_555
C32 C33 1_555 1_555

#END
