
#######################################################################
#
#                 Cambridge Crystallographic Data Centre
#                                CCDC 
#
#######################################################################
#
# If this CIF has been generated from an entry in the Cambridge 
# Structural Database, then it will include bibliographic, chemical, 
# crystal, experimental, refinement or atomic coordinate data resulting 
# from the CCDC's data processing and validation procedures.
#
#######################################################################

data_IZUBOU
_chemical_formula_moiety         'C24 H27 N1 O1'
_chemical_name_systematic        
1-(2-Benzyl-5-isopropyl-4-phenyl-1H-pyrrol-3-yl)-2-methylpropan-1-one
_symmetry_cell_setting           monoclinic
_symmetry_space_group_name_H-M   'P 21/n'
_symmetry_Int_Tables_number      14
_space_group_name_Hall           '-P 2yn'
loop_
_symmetry_equiv_pos_site_id
_symmetry_equiv_pos_as_xyz
1 x,y,z
2 1/2+x,1/2-y,1/2+z
3 -x,-y,-z
4 1/2-x,1/2+y,1/2-z
_cell_length_a                   10.114(2)
_cell_length_b                   10.915(2)
_cell_length_c                   19.170(4)
_cell_angle_alpha                90
_cell_angle_beta                 96.44(3)
_cell_angle_gamma                90
_cell_volume                     2102.91
_exptl_crystal_colour            colorless
_exptl_crystal_description       block
_chemical_melting_point          '187 deg.C'
_cell_formula_units_Z            4
loop_
_atom_site_label
_atom_site_type_symbol
_atom_site_fract_x
_atom_site_fract_y
_atom_site_fract_z
O1 O 0.67791(14) 0.00933(11) 0.15964(7)
N1 N 0.65230(17) 0.29958(17) 0.30147(9)
C1 C 0.5366(2) 0.26011(17) 0.32703(9)
C2 C 0.48939(18) 0.16307(17) 0.28702(9)
C3 C 0.58107(18) 0.14188(16) 0.23560(9)
C4 C 0.68048(18) 0.22867(18) 0.24663(9)
C5 C 0.79451(18) 0.26000(18) 0.20595(10)
H1 H 0.8341 0.1847 0.1912
H2 H 0.8618 0.3033 0.2365
C6 C 0.75366(18) 0.3379(2) 0.14221(10)
C7 C 0.7636(2) 0.2961(2) 0.07532(12)
H3 H 0.7951 0.2174 0.0688
C8 C 0.7274(3) 0.3699(3) 0.01731(13)
H4 H 0.7344 0.3403 -0.0276
C9 C 0.6816(3) 0.4856(3) 0.02612(14)
H5 H 0.6577 0.5353 -0.0127
C10 C 0.6709(2) 0.5279(2) 0.09198(14)
H6 H 0.6393 0.6067 0.0983
C11 C 0.7069(2) 0.4545(2) 0.14909(11)
H7 H 0.6994 0.4848 0.1938
C12 C 0.37387(19) 0.08722(17) 0.30153(8)
C13 C 0.2454(2) 0.13025(18) 0.29044(9)
H8 H 0.2301 0.2094 0.2735
C14 C 0.1379(2) 0.0580(2) 0.30410(11)
H9 H 0.0518 0.0888 0.2959
C15 C 0.1585(2) -0.0579(2) 0.32955(11)
H10 H 0.0869 -0.1069 0.3382
C16 C 0.2858(2) -0.10141(19) 0.34227(10)
H11 H 0.3006 -0.1799 0.3604
C17 C 0.3927(2) -0.02990(19) 0.32849(10)
H12 H 0.4785 -0.0610 0.3375
C18 C 0.4909(2) 0.31537(19) 0.39176(10)
H13 H 0.4023 0.2821 0.3962
C19 C 0.5795(3) 0.2780(2) 0.45698(11)
H14 H 0.5469 0.3138 0.4975
H15 H 0.6686 0.3060 0.4537
H16 H 0.5794 0.1903 0.4612
C20 C 0.4767(3) 0.4530(2) 0.38666(12)
H17 H 0.4462 0.4840 0.4289
H18 H 0.4135 0.4735 0.3472
H19 H 0.5613 0.4889 0.3806
C21 C 0.5747(2) 0.05012(16) 0.17991(9)
C22 C 0.4421(2) 0.0115(2) 0.14312(10)
H20 H 0.3763 0.0137 0.1769
C23 C 0.4440(3) -0.1155(2) 0.11249(12)
H21 H 0.3571 -0.1356 0.0900
H22 H 0.4692 -0.1734 0.1493
H23 H 0.5071 -0.1185 0.0786
C24 C 0.4021(3) 0.1034(2) 0.08568(14)
H24 H 0.3172 0.0809 0.0616
H25 H 0.4675 0.1043 0.0531
H26 H 0.3961 0.1834 0.1059
H27 H 0.6993(18) 0.3651(16) 0.3161(9)
loop_
_geom_bond_atom_site_label_1
_geom_bond_atom_site_label_2
_geom_bond_site_symmetry_1
_geom_bond_site_symmetry_2
O1 C21 1_555 1_555
N1 C1 1_555 1_555
C1 C2 1_555 1_555
C2 C3 1_555 1_555
C3 C4 1_555 1_555
C4 N1 1_555 1_555
C5 C4 1_555 1_555
H1 C5 1_555 1_555
H2 C5 1_555 1_555
C6 C5 1_555 1_555
C7 C6 1_555 1_555
H3 C7 1_555 1_555
C8 C7 1_555 1_555
H4 C8 1_555 1_555
C9 C8 1_555 1_555
H5 C9 1_555 1_555
C10 C9 1_555 1_555
H6 C10 1_555 1_555
C11 C6 1_555 1_555
H7 C11 1_555 1_555
C12 C2 1_555 1_555
C13 C12 1_555 1_555
H8 C13 1_555 1_555
C14 C13 1_555 1_555
H9 C14 1_555 1_555
C15 C14 1_555 1_555
H10 C15 1_555 1_555
C16 C15 1_555 1_555
H11 C16 1_555 1_555
C17 C12 1_555 1_555
H12 C17 1_555 1_555
C18 C1 1_555 1_555
H13 C18 1_555 1_555
C19 C18 1_555 1_555
H14 C19 1_555 1_555
H15 C19 1_555 1_555
H16 C19 1_555 1_555
C20 C18 1_555 1_555
H17 C20 1_555 1_555
H18 C20 1_555 1_555
H19 C20 1_555 1_555
C21 C3 1_555 1_555
C22 C21 1_555 1_555
H20 C22 1_555 1_555
C23 C22 1_555 1_555
H21 C23 1_555 1_555
H22 C23 1_555 1_555
H23 C23 1_555 1_555
C24 C22 1_555 1_555
H24 C24 1_555 1_555
H25 C24 1_555 1_555
H26 C24 1_555 1_555
H27 N1 1_555 1_555
C10 C11 1_555 1_555
C16 C17 1_555 1_555

#END
