
#######################################################################
#
#                 Cambridge Crystallographic Data Centre
#                                CCDC 
#
#######################################################################
#
# If this CIF has been generated from an entry in the Cambridge 
# Structural Database, then it will include bibliographic, chemical, 
# crystal, experimental, refinement or atomic coordinate data resulting 
# from the CCDC's data processing and validation procedures.
#
#######################################################################

data_IZUBIO
_chemical_formula_moiety         'C31 H20 N2 S3'
_chemical_name_systematic        
3,7-Diphenyl-2,4,6-tris(2-thienyl)-1H-pyrrolo(3,2-c)pyridine
_symmetry_cell_setting           monoclinic
_symmetry_space_group_name_H-M   'P 21/n'
_symmetry_Int_Tables_number      14
_space_group_name_Hall           '-P 2yn'
loop_
_symmetry_equiv_pos_site_id
_symmetry_equiv_pos_as_xyz
1 x,y,z
2 1/2+x,1/2-y,1/2+z
3 -x,-y,-z
4 1/2-x,1/2+y,1/2-z
_cell_length_a                   12.612(3)
_cell_length_b                   14.778(3)
_cell_length_c                   14.257(3)
_cell_angle_alpha                90
_cell_angle_beta                 104.05(3)
_cell_angle_gamma                90
_cell_volume                     2577.73
_exptl_crystal_colour            colorless
_exptl_crystal_description       block
_chemical_melting_point          '214-215 deg.C'
_cell_formula_units_Z            4
loop_
_atom_site_label
_atom_site_type_symbol
_atom_site_fract_x
_atom_site_fract_y
_atom_site_fract_z
S1 S 0.01672(8) 0.00818(5) 0.22102(5)
S2 S 0.24328(8) 0.23581(6) 0.18314(6)
S3 S 0.37749(11) -0.09195(8) -0.27908(9)
C2 C 0.53680(12) 0.02109(11) -0.18107(11)
N1 N 0.14628(17) 0.05655(13) 0.09714(13)
N2 N 0.28711(19) -0.07122(15) -0.09470(17)
C3 C 0.2082(2) 0.10027(16) 0.04791(16)
C4 C 0.2583(2) 0.05349(15) -0.01584(17)
C5 C 0.2338(2) -0.03925(16) -0.02870(16)
C6 C 0.16926(19) -0.08655(15) 0.02077(16)
C7 C 0.12665(19) -0.03378(16) 0.08498(16)
C8 C 0.3346(2) 0.07457(15) -0.07380(17)
C9 C 0.3501(2) -0.00363(15) -0.12048(18)
C10 C 0.4175(2) -0.02243(16) -0.18686(18)
C11 C 0.5628(3) -0.0304(2) -0.2657(3)
H1 H 0.6293 -0.0231 -0.2820
C12 C 0.4869(3) -0.0858(2) -0.3150(3)
H2 H 0.4971 -0.1190 -0.3675
C13 C 0.2208(2) 0.19820(16) 0.06743(18)
C14 C 0.2162(2) 0.27038(16) 0.0016(2)
H3 H 0.2029 0.2645 -0.0652
C15 C 0.2351(3) 0.3535(2) 0.0533(3)
H4 H 0.2362 0.4093 0.0234
C16 C 0.2511(3) 0.3437(2) 0.1489(3)
H5 H 0.2651 0.3919 0.1921
C17 C 0.0564(2) -0.06831(16) 0.14581(16)
C18 C 0.0130(2) -0.15250(18) 0.15468(17)
H6 H 0.0245 -0.2031 0.1197
C19 C -0.0518(2) -0.1527(2) 0.2242(2)
H7 H -0.0869 -0.2038 0.2399
C20 C -0.0564(3) -0.0714(2) 0.2641(2)
H8 H -0.0954 -0.0597 0.3104
C21 C 0.3893(2) 0.16292(16) -0.08035(18)
C22 C 0.3750(2) 0.20695(18) -0.1692(2)
H9 H 0.3332 0.1800 -0.2250
C23 C 0.4227(3) 0.29060(19) -0.1746(2)
H10 H 0.4131 0.3200 -0.2338
C24 C 0.4846(3) 0.3298(2) -0.0913(2)
H11 H 0.5167 0.3861 -0.0943
C25 C 0.4989(2) 0.28640(19) -0.0046(2)
H12 H 0.5403 0.3136 0.0513
C26 C 0.4525(2) 0.20249(17) 0.00103(19)
H13 H 0.4642 0.1728 0.0602
C27 C 0.1539(2) -0.18599(15) 0.00551(17)
C28 C 0.2307(2) -0.24509(18) 0.0576(2)
H14 H 0.2912 -0.2231 0.1029
C29 C 0.2171(3) -0.3387(2) 0.0420(3)
H15 H 0.2682 -0.3788 0.0775
C30 C 0.1306(3) -0.3704(2) -0.0241(3)
H16 H 0.1217 -0.4324 -0.0338
C31 C 0.0551(3) -0.3118(2) -0.0775(2)
H17 H -0.0038 -0.3344 -0.1241
C32 C 0.0659(2) -0.22039(16) -0.06266(18)
H18 H 0.0139 -0.1812 -0.0986
H19 H 0.293(2) -0.1167(15) -0.1056(17)
S4? S 0.53680(12) 0.02109(11) -0.18107(11)
C1? C 0.37749(11) -0.09195(8) -0.27908(9)
loop_
_geom_bond_atom_site_label_1
_geom_bond_atom_site_label_2
_geom_bond_site_symmetry_1
_geom_bond_site_symmetry_2
S1 C17 1_555 1_555
S2 C13 1_555 1_555
S3 C10 1_555 1_555
C2 C10 1_555 1_555
N1 C3 1_555 1_555
N2 C5 1_555 1_555
C3 C4 1_555 1_555
C4 C5 1_555 1_555
C5 C6 1_555 1_555
C6 C7 1_555 1_555
C7 N1 1_555 1_555
C8 C4 1_555 1_555
C9 N2 1_555 1_555
C10 C9 1_555 1_555
C11 C2 1_555 1_555
H1 C11 1_555 1_555
C12 S3 1_555 1_555
H2 C12 1_555 1_555
C13 C3 1_555 1_555
C14 C13 1_555 1_555
H3 C14 1_555 1_555
C15 C14 1_555 1_555
H4 C15 1_555 1_555
C16 S2 1_555 1_555
H5 C16 1_555 1_555
C17 C7 1_555 1_555
C18 C17 1_555 1_555
H6 C18 1_555 1_555
C19 C18 1_555 1_555
H7 C19 1_555 1_555
C20 S1 1_555 1_555
H8 C20 1_555 1_555
C21 C8 1_555 1_555
C22 C21 1_555 1_555
H9 C22 1_555 1_555
C23 C22 1_555 1_555
H10 C23 1_555 1_555
C24 C23 1_555 1_555
H11 C24 1_555 1_555
C25 C24 1_555 1_555
H12 C25 1_555 1_555
C26 C21 1_555 1_555
H13 C26 1_555 1_555
C27 C6 1_555 1_555
C28 C27 1_555 1_555
H14 C28 1_555 1_555
C29 C28 1_555 1_555
H15 C29 1_555 1_555
C30 C29 1_555 1_555
H16 C30 1_555 1_555
C31 C30 1_555 1_555
H17 C31 1_555 1_555
C32 C27 1_555 1_555
H18 C32 1_555 1_555
H19 N2 1_555 1_555
C8 C9 1_555 1_555
C11 C12 1_555 1_555
C15 C16 1_555 1_555
C19 C20 1_555 1_555
C25 C26 1_555 1_555
C31 C32 1_555 1_555

#END
