
#######################################################################
#
#                 Cambridge Crystallographic Data Centre
#                                CCDC 
#
#######################################################################
#
# If this CIF has been generated from an entry in the Cambridge 
# Structural Database, then it will include bibliographic, chemical, 
# crystal, experimental, refinement or atomic coordinate data resulting 
# from the CCDC's data processing and validation procedures.
#
#######################################################################

data_IZUJAQ
_chemical_formula_moiety         'C49 H44 Si1'
_chemical_name_systematic        
tri-isopropyl((13-(4-(1-naphthyl)phenyl)pentacen-6-yl)ethynyl)silane
_symmetry_cell_setting           triclinic
_symmetry_space_group_name_H-M   'P -1'
_symmetry_Int_Tables_number      2
_space_group_name_Hall           '-P 1'
loop_
_symmetry_equiv_pos_site_id
_symmetry_equiv_pos_as_xyz
1 x,y,z
2 -x,-y,-z
_cell_length_a                   8.7000(6)
_cell_length_b                   13.7195(9)
_cell_length_c                   16.1219(11)
_cell_angle_alpha                102.755(6)
_cell_angle_beta                 100.911(6)
_cell_angle_gamma                94.442(5)
_cell_volume                     1828.55
_exptl_crystal_colour            'dark red'
_exptl_crystal_description       plate
_cell_formula_units_Z            2
_exptl_crystal_recrystallization_method dichloromethane/methanol
loop_
_atom_site_label
_atom_site_type_symbol
_atom_site_fract_x
_atom_site_fract_y
_atom_site_fract_z
C1 C 0.3138(2) 0.21142(13) 0.37044(11)
C2 C 0.2140(2) 0.19012(13) 0.30383(11)
C3 C 0.1149(2) 0.26857(15) 0.14620(12)
H1 H 0.2278 0.2820 0.1477
C4 C 0.0689(3) 0.36324(16) 0.20108(16)
H2 H -0.0426 0.3548 0.1986
H3 H 0.0956 0.4202 0.1788
H4 H 0.1248 0.3742 0.2603
C5 C 0.0294(3) 0.25046(19) 0.05091(14)
H5 H 0.0584 0.1904 0.0175
H6 H 0.0586 0.3068 0.0284
H7 H -0.0826 0.2429 0.0471
C6 C -0.1249(2) 0.12576(15) 0.19598(12)
H8 H -0.1702 0.1895 0.2016
C7 C -0.1543(3) 0.08357(18) 0.27271(14)
H9 H -0.1161 0.0192 0.2685
H10 H -0.2654 0.0759 0.2715
H11 H -0.0999 0.1291 0.3263
C8 C -0.2165(2) 0.05619(19) 0.10947(14)
H12 H -0.1936 0.0822 0.0619
H13 H -0.3276 0.0531 0.1080
H14 H -0.1854 -0.0101 0.1044
C9 C 0.1703(2) 0.04544(15) 0.13256(12)
H15 H 0.1061 0.0255 0.0732
C10 C 0.3405(2) 0.07434(19) 0.12602(16)
H16 H 0.3441 0.1287 0.0975
H17 H 0.3779 0.0173 0.0931
H18 H 0.4063 0.0951 0.1834
C11 C 0.1603(3) -0.04559(16) 0.17237(16)
H19 H 0.2143 -0.0265 0.2324
H20 H 0.2088 -0.0985 0.1413
H21 H 0.0517 -0.0689 0.1684
C12 C 0.4351(2) 0.23570(13) 0.44796(11)
C13 C 0.4449(2) 0.32760(13) 0.50973(11)
C14 C 0.3312(2) 0.39490(13) 0.49951(11)
H22 H 0.2508 0.3789 0.4499
C15 C 0.3361(2) 0.48321(13) 0.56079(12)
C16 C 0.2205(2) 0.55141(15) 0.55095(13)
H23 H 0.1386 0.5356 0.5020
C17 C 0.2290(2) 0.63840(16) 0.61181(15)
H24 H 0.1526 0.6813 0.6045
C18 C 0.3541(3) 0.66476(16) 0.68703(14)
H25 H 0.3592 0.7251 0.7280
C19 C 0.4661(2) 0.60259(15) 0.69941(13)
H26 H 0.5466 0.6208 0.7490
C20 C 0.4622(2) 0.50967(13) 0.63753(12)
C21 C 0.5757(2) 0.44506(13) 0.64793(11)
H27 H 0.6574 0.4628 0.6970
C22 C 0.5712(2) 0.35339(13) 0.58658(11)
C23 C 0.6841(2) 0.28588(13) 0.59875(11)
C24 C 0.6686(2) 0.19141(13) 0.54001(11)
C25 C 0.7688(2) 0.11789(14) 0.55471(12)
H28 H 0.8507 0.1335 0.6037
C26 C 0.7493(2) 0.02335(14) 0.49871(12)
C27 C 0.8465(2) -0.05290(15) 0.51567(13)
H29 H 0.9245 -0.0394 0.5663
C28 C 0.8265(2) -0.14401(15) 0.45913(15)
H30 H 0.8908 -0.1923 0.4713
C29 C 0.7077(3) -0.16692(15) 0.38102(14)
H31 H 0.6963 -0.2296 0.3423
C30 C 0.6111(2) -0.09783(15) 0.36284(13)
H32 H 0.5331 -0.1141 0.3121
C31 C 0.6277(2) -0.00056(13) 0.42058(11)
C32 C 0.5282(2) 0.07094(14) 0.40471(11)
H33 H 0.4496 0.0555 0.3543
C33 C 0.5429(2) 0.16564(13) 0.46248(11)
C34 C 0.8180(2) 0.31333(13) 0.67682(11)
C35 C 0.8014(3) 0.28971(19) 0.75407(14)
H34 H 0.7058 0.2573 0.7576
C36 C 0.9250(3) 0.3136(2) 0.82632(15)
H35 H 0.9119 0.2945 0.8767
C37 C 1.0668(2) 0.36492(15) 0.82510(13)
C38 C 1.0838(2) 0.38747(19) 0.74773(14)
H36 H 1.1794 0.4201 0.7443
C39 C 0.9610(2) 0.36228(17) 0.67482(13)
H37 H 0.9756 0.3788 0.6237
C40 C 1.1918(2) 0.39592(15) 0.90759(13)
C41 C 1.1905(2) 0.48298(15) 0.96863(13)
H38 H 1.1159 0.5255 0.9560
C42 C 1.2972(3) 0.51036(19) 1.04933(15)
H39 H 1.2927 0.5701 1.0889
C43 C 1.4096(3) 0.44805(18) 1.06997(15)
H40 H 1.4800 0.4652 1.1236
C44 C 1.4155(2) 0.35928(16) 1.00910(13)
C45 C 1.5290(3) 0.29372(19) 1.02552(16)
H41 H 1.5997 0.3099 1.0790
C46 C 1.5394(3) 0.2078(2) 0.96644(19)
H42 H 1.6161 0.1667 0.9795
C47 C 1.4335(3) 0.1823(2) 0.88631(17)
H43 H 1.4408 0.1239 0.8459
C48 C 1.3188(2) 0.24122(15) 0.86553(13)
H44 H 1.2486 0.2221 0.8119
C49 C 1.3071(2) 0.33152(16) 0.92594(13)
Si1 Si 0.08904(5) 0.15620(3) 0.19368(3)
loop_
_geom_bond_atom_site_label_1
_geom_bond_atom_site_label_2
_geom_bond_site_symmetry_1
_geom_bond_site_symmetry_2
C1 C2 1_555 1_555
C2 Si1 1_555 1_555
C3 H1 1_555 1_555
C4 C3 1_555 1_555
H2 C4 1_555 1_555
H3 C4 1_555 1_555
H4 C4 1_555 1_555
C5 C3 1_555 1_555
H5 C5 1_555 1_555
H6 C5 1_555 1_555
H7 C5 1_555 1_555
C6 H8 1_555 1_555
C7 C6 1_555 1_555
H9 C7 1_555 1_555
H10 C7 1_555 1_555
H11 C7 1_555 1_555
C8 C6 1_555 1_555
H12 C8 1_555 1_555
H13 C8 1_555 1_555
H14 C8 1_555 1_555
C9 H15 1_555 1_555
C10 C9 1_555 1_555
H16 C10 1_555 1_555
H17 C10 1_555 1_555
H18 C10 1_555 1_555
C11 C9 1_555 1_555
H19 C11 1_555 1_555
H20 C11 1_555 1_555
H21 C11 1_555 1_555
C12 C1 1_555 1_555
C13 C12 1_555 1_555
C14 C13 1_555 1_555
H22 C14 1_555 1_555
C15 C14 1_555 1_555
C16 C15 1_555 1_555
H23 C16 1_555 1_555
C17 C16 1_555 1_555
H24 C17 1_555 1_555
C18 C17 1_555 1_555
H25 C18 1_555 1_555
C19 C18 1_555 1_555
H26 C19 1_555 1_555
C20 C15 1_555 1_555
C21 C20 1_555 1_555
H27 C21 1_555 1_555
C22 C13 1_555 1_555
C23 C22 1_555 1_555
C24 C23 1_555 1_555
C25 C24 1_555 1_555
H28 C25 1_555 1_555
C26 C25 1_555 1_555
C27 C26 1_555 1_555
H29 C27 1_555 1_555
C28 C27 1_555 1_555
H30 C28 1_555 1_555
C29 C28 1_555 1_555
H31 C29 1_555 1_555
C30 C29 1_555 1_555
H32 C30 1_555 1_555
C31 C26 1_555 1_555
C32 C31 1_555 1_555
H33 C32 1_555 1_555
C33 C12 1_555 1_555
C34 C23 1_555 1_555
C35 C34 1_555 1_555
H34 C35 1_555 1_555
C36 C35 1_555 1_555
H35 C36 1_555 1_555
C37 C36 1_555 1_555
C38 C37 1_555 1_555
H36 C38 1_555 1_555
C39 C34 1_555 1_555
H37 C39 1_555 1_555
C40 C37 1_555 1_555
C41 C40 1_555 1_555
H38 C41 1_555 1_555
C42 C41 1_555 1_555
H39 C42 1_555 1_555
C43 C42 1_555 1_555
H40 C43 1_555 1_555
C44 C43 1_555 1_555
C45 C44 1_555 1_555
H41 C45 1_555 1_555
C46 C45 1_555 1_555
H42 C46 1_555 1_555
C47 C46 1_555 1_555
H43 C47 1_555 1_555
C48 C47 1_555 1_555
H44 C48 1_555 1_555
C49 C40 1_555 1_555
Si1 C3 1_555 1_555
C6 Si1 1_555 1_555
C9 Si1 1_555 1_555
C19 C20 1_555 1_555
C21 C22 1_555 1_555
C24 C33 1_555 1_555
C30 C31 1_555 1_555
C32 C33 1_555 1_555
C38 C39 1_555 1_555
C44 C49 1_555 1_555
C48 C49 1_555 1_555

#END
