
#######################################################################
#
#                 Cambridge Crystallographic Data Centre
#                                CCDC 
#
#######################################################################
#
# If this CIF has been generated from an entry in the Cambridge 
# Structural Database, then it will include bibliographic, chemical, 
# crystal, experimental, refinement or atomic coordinate data resulting 
# from the CCDC's data processing and validation procedures.
#
#######################################################################

data_IZUJOE
_chemical_formula_moiety         'C44 H36 Si1'
_chemical_name_systematic        
((13-(9-anthryl)pentacen-6-yl)ethynyl)(triethyl)silane
_symmetry_cell_setting           monoclinic
_symmetry_space_group_name_H-M   'P 21/c'
_symmetry_Int_Tables_number      14
_space_group_name_Hall           '-P 2ybc'
loop_
_symmetry_equiv_pos_site_id
_symmetry_equiv_pos_as_xyz
1 x,y,z
2 -x,1/2+y,1/2-z
3 -x,-y,-z
4 x,1/2-y,1/2+z
_cell_length_a                   16.1928(4)
_cell_length_b                   8.8734(2)
_cell_length_c                   23.4480(8)
_cell_angle_alpha                90
_cell_angle_beta                 107.485(3)
_cell_angle_gamma                90
_cell_volume                     3213.46
_exptl_crystal_colour            'metallic black'
_exptl_crystal_description       rhombohedral
_cell_formula_units_Z            4
_exptl_crystal_recrystallization_method dichloromethane/acetone
loop_
_atom_site_label
_atom_site_type_symbol
_atom_site_fract_x
_atom_site_fract_y
_atom_site_fract_z
Si1 Si 0.12709(4) 0.50774(6) 0.34155(2)
C1 C 0.32584(12) 0.7937(2) 0.53437(8)
C2 C 0.17750(12) 0.8145(2) 0.54141(8)
C3 C 0.35475(11) 0.9003(2) 0.58298(8)
C4 C 0.29706(11) 0.9536(2) 0.61301(8)
C5 C 0.20842(12) 0.9123(2) 0.59279(8)
C6 C 0.47275(12) 0.7765(2) 0.52711(8)
C7 C 0.44144(12) 0.9500(2) 0.59843(8)
H1 H 0.4600 1.0227 0.6281
C8 C 0.38702(12) 0.7317(2) 0.50923(8)
H2 H 0.3692 0.6584 0.4797
C9 C 0.02967(12) 0.8397(2) 0.54642(8)
C10 C 0.20535(12) 0.6628(2) 0.46134(8)
C11 C 0.23668(12) 0.7560(2) 0.51336(8)
C12 C 0.14799(12) 0.9678(2) 0.62017(8)
H3 H 0.1676 1.0275 0.6542
C13 C 0.32862(11) 1.0545(2) 0.66628(8)
C14 C 0.49973(12) 0.8943(2) 0.57107(8)
C15 C 0.40162(12) 1.0913(2) 0.77360(8)
C16 C 0.08843(12) 0.7813(2) 0.52016(8)
H4 H 0.0685 0.7179 0.4873
C17 C 0.40114(12) 0.8394(2) 0.73001(8)
H5 H 0.3847 0.7741 0.6975
C18 C 0.33462(12) 1.3053(2) 0.71231(9)
C19 C -0.00213(12) 0.9993(2) 0.62354(9)
H6 H 0.0165 1.0611 0.6570
C20 C 0.06026(12) 0.9362(2) 0.59793(8)
C21 C 0.30947(11) 1.2099(2) 0.66026(8)
C22 C -0.11736(13) 0.8737(3) 0.54916(9)
H7 H -0.1763 0.8538 0.5335
C23 C -0.08783(13) 0.9704(2) 0.59968(9)
H8 H -0.1275 1.0139 0.6164
C24 C 0.64384(13) 0.8864(3) 0.56007(9)
H9 H 0.7000 0.9240 0.5695
C25 C 0.31327(13) 1.4613(2) 0.70518(10)
H10 H 0.3289 1.5243 0.7384
C26 C 0.37587(11) 0.9944(2) 0.72200(8)
C27 C 0.53631(13) 0.7117(2) 0.50311(9)
H11 H 0.5208 0.6325 0.4760
C28 C 0.58700(12) 0.9488(2) 0.58540(9)
H12 H 0.6047 1.0278 0.6124
C29 C -0.06147(12) 0.8105(2) 0.52357(9)
H13 H -0.0823 0.7472 0.4907
C30 C 0.26494(12) 1.2772(2) 0.60436(9)
H14 H 0.2482 1.2174 0.5702
C31 C 0.37916(12) 1.2433(2) 0.76736(9)
H15 H 0.3944 1.3049 0.8010
C32 C 0.45109(14) 1.0290(3) 0.82965(9)
H16 H 0.4675 1.0904 0.8633
C33 C 0.24645(13) 1.4267(2) 0.59977(10)
H17 H 0.2176 1.4680 0.5627
C34 C 0.19460(14) 0.3453(3) 0.33202(9)
H18 H 0.2503 0.3833 0.3309
H19 H 0.2049 0.2804 0.3667
C35 C 0.47438(15) 0.8823(3) 0.83446(9)
H20 H 0.5076 0.8440 0.8711
C36 C 0.27078(14) 1.5198(2) 0.65101(10)
H21 H 0.2575 1.6220 0.6475
C37 C 0.44851(13) 0.7864(2) 0.78396(9)
H22 H 0.4644 0.6854 0.7880
C38 C 0.17649(13) 0.5905(2) 0.41609(9)
C39 C 0.61891(13) 0.7645(3) 0.51934(10)
H23 H 0.6594 0.7203 0.5036
C40 C -0.03491(16) 0.5357(3) 0.36853(13)
H24 H -0.0337 0.6393 0.3570
H25 H -0.0083 0.5264 0.4109
H26 H -0.0938 0.5017 0.3584
C41 C 0.01391(14) 0.4412(3) 0.33618(10)
H27 H -0.0195 0.4370 0.2943
H28 H 0.0178 0.3393 0.3518
C42 C 0.15524(16) 0.2513(3) 0.27612(11)
H29 H 0.1495 0.3121 0.2413
H30 H 0.0992 0.2157 0.2760
H31 H 0.1922 0.1669 0.2758
C43 C 0.12123(16) 0.6627(3) 0.28715(10)
H32 H 0.0961 0.6228 0.2471
H33 H 0.0821 0.7392 0.2935
C44 C 0.2064(2) 0.7375(4) 0.29001(15)
H34 H 0.1967 0.8140 0.2598
H35 H 0.2457 0.6634 0.2834
H36 H 0.2307 0.7823 0.3287
loop_
_geom_bond_atom_site_label_1
_geom_bond_atom_site_label_2
_geom_bond_site_symmetry_1
_geom_bond_site_symmetry_2
Si1 C34 1_555 1_555
C1 C3 1_555 1_555
C2 C5 1_555 1_555
C3 C4 1_555 1_555
C4 C5 1_555 1_555
C5 C12 1_555 1_555
C6 C8 1_555 1_555
C7 C3 1_555 1_555
H1 C7 1_555 1_555
C8 C1 1_555 1_555
H2 C8 1_555 1_555
C9 C16 1_555 1_555
C10 C11 1_555 1_555
C11 C1 1_555 1_555
C12 H3 1_555 1_555
C13 C4 1_555 1_555
C14 C6 1_555 1_555
C15 C26 1_555 1_555
C16 C2 1_555 1_555
H4 C16 1_555 1_555
C17 H5 1_555 1_555
C18 C21 1_555 1_555
C19 H6 1_555 1_555
C20 C9 1_555 1_555
C21 C13 1_555 1_555
C22 H7 1_555 1_555
C23 C19 1_555 1_555
H8 C23 1_555 1_555
C24 H9 1_555 1_555
C25 C18 1_555 1_555
H10 C25 1_555 1_555
C26 C13 1_555 1_555
C27 C6 1_555 1_555
H11 C27 1_555 1_555
C28 C14 1_555 1_555
H12 C28 1_555 1_555
C29 C9 1_555 1_555
H13 C29 1_555 1_555
C30 C21 1_555 1_555
H14 C30 1_555 1_555
C31 C15 1_555 1_555
H15 C31 1_555 1_555
C32 C15 1_555 1_555
H16 C32 1_555 1_555
C33 C30 1_555 1_555
H17 C33 1_555 1_555
C34 H18 1_555 1_555
H19 C34 1_555 1_555
C35 C32 1_555 1_555
H20 C35 1_555 1_555
C36 C25 1_555 1_555
H21 C36 1_555 1_555
C37 C17 1_555 1_555
H22 C37 1_555 1_555
C38 Si1 1_555 1_555
C39 C24 1_555 1_555
H23 C39 1_555 1_555
C40 H24 1_555 1_555
H25 C40 1_555 1_555
H26 C40 1_555 1_555
C41 Si1 1_555 1_555
H27 C41 1_555 1_555
H28 C41 1_555 1_555
C42 C34 1_555 1_555
H29 C42 1_555 1_555
H30 C42 1_555 1_555
H31 C42 1_555 1_555
C43 Si1 1_555 1_555
H32 C43 1_555 1_555
H33 C43 1_555 1_555
C44 C43 1_555 1_555
H34 C44 1_555 1_555
H35 C44 1_555 1_555
H36 C44 1_555 1_555
C2 C11 1_555 1_555
C7 C14 1_555 1_555
C10 C38 1_555 1_555
C12 C20 1_555 1_555
C17 C26 1_555 1_555
C18 C31 1_555 1_555
C19 C20 1_555 1_555
C22 C23 1_555 1_555
C22 C29 1_555 1_555
C24 C28 1_555 1_555
C27 C39 1_555 1_555
C33 C36 1_555 1_555
C35 C37 1_555 1_555
C40 C41 1_555 1_555

#END
