
#######################################################################
#
#                 Cambridge Crystallographic Data Centre
#                                CCDC 
#
#######################################################################
#
# If this CIF has been generated from an entry in the Cambridge 
# Structural Database, then it will include bibliographic, chemical, 
# crystal, experimental, refinement or atomic coordinate data resulting 
# from the CCDC's data processing and validation procedures.
#
#######################################################################

data_IZUKAR
_chemical_name_common            '7-O-acetyl vibsanin B'
_chemical_formula_moiety         'C27 H38 O6'
_chemical_name_systematic        
'11-acetoxy-7-(hydroxymethyl)-4,11-dimethyl-4-(4-methylpent-3-en-1-yl)-8-oxocycloundeca-2,6,9-trien-1-yl 3-methylbut-2-enoate'
_chemical_properties_biological  'antiproliferative activity'
_symmetry_cell_setting           orthorhombic
_symmetry_space_group_name_H-M   'P 21 21 2'
_symmetry_Int_Tables_number      18
_space_group_name_Hall           'P 2 2ab'
loop_
_symmetry_equiv_pos_site_id
_symmetry_equiv_pos_as_xyz
1 x,y,z
2 1/2+x,1/2-y,-z
3 1/2-x,1/2+y,-z
4 -x,-y,z
_cell_length_a                   18.321(3)
_cell_length_b                   24.700(4)
_cell_length_c                   5.7670(8)
_cell_angle_alpha                90
_cell_angle_beta                 90
_cell_angle_gamma                90
_cell_volume                     2609.73
_exptl_crystal_colour            colorless
_exptl_crystal_description       prism
_cell_formula_units_Z            4
_chemical_properties_physical    ', Light-sensitive,Photo-sensitive'
loop_
_atom_site_label
_atom_site_type_symbol
_atom_site_fract_x
_atom_site_fract_y
_atom_site_fract_z
O1 O 0.86477(6) 0.57830(5) 0.7994(2)
O2 O 0.88748(6) 0.69626(5) 0.82367(19)
O3 O 0.91745(7) 0.76528(6) 0.5868(2)
O4 O 0.69019(7) 0.75401(5) 0.0634(2)
C1 C 0.31766(14) 0.63847(13) 0.7248(5)
H1 H 0.3525 0.6508 0.6070
H2 H 0.3040 0.6690 0.8240
H3 H 0.2740 0.6240 0.6485
C2 C 0.35192(10) 0.59534(7) 0.8686(4)
C3 C 0.41726(10) 0.57462(7) 0.8290(4)
H4 H 0.4330 0.5480 0.9368
C4 C 0.47009(9) 0.58722(8) 0.6375(4)
H5 H 0.4551 0.6210 0.5586
H6 H 0.4694 0.5576 0.5219
C5 C 0.54743(9) 0.59378(7) 0.7339(3)
H7 H 0.5578 0.5623 0.8351
H8 H 0.5481 0.6265 0.8332
C6 C 0.61049(8) 0.59872(7) 0.5568(3)
C7 C 0.67907(9) 0.61056(7) 0.6929(3)
H9 H 0.6728 0.6291 0.8358
C8 C 0.74690(9) 0.59796(7) 0.6355(3)
H10 H 0.7554 0.5743 0.5083
C9 C 0.81073(9) 0.62030(6) 0.7678(3)
H11 H 0.7937 0.6332 0.9230
C10 C 0.85156(9) 0.54243(7) 0.9742(3)
C11 C 0.89980(10) 0.49535(8) 0.9476(4)
H12 H 0.9270 0.4932 0.8077
C12 C 0.90937(10) 0.45526(8) 1.0994(4)
C13 C 0.87634(13) 0.45220(9) 1.3348(4)
H13 H 0.8545 0.4872 1.3744
H14 H 0.9142 0.4432 1.4484
H15 H 0.8385 0.4241 1.3367
C14 C 0.95652(15) 0.40727(11) 1.0348(5)
H16 H 0.9767 0.4127 0.8791
H17 H 0.9269 0.3742 1.0368
H18 H 0.9965 0.4038 1.1467
C15 C 0.84780(9) 0.66777(7) 0.6376(3)
C16 C 0.91937(9) 0.74432(7) 0.7737(3)
C17 C 0.95757(11) 0.76703(8) 0.9817(3)
H19 H 1.0069 0.7519 0.9913
H20 H 0.9303 0.7575 1.1221
H21 H 0.9605 0.8065 0.9680
C18 C 0.78519(9) 0.70276(7) 0.5536(3)
H22 H 0.7549 0.7186 0.6688
C19 C 0.76877(9) 0.71332(6) 0.3336(3)
H23 H 0.8032 0.7043 0.2167
C20 C 0.69940(9) 0.73841(7) 0.2642(3)
C21 C 0.63816(9) 0.74356(7) 0.4370(3)
C22 C 0.59474(9) 0.70184(7) 0.4869(3)
H24 H 0.5577 0.7080 0.5990
C23 C 0.59861(9) 0.64622(7) 0.3837(3)
H25 H 0.6389 0.6457 0.2694
H26 H 0.5527 0.6395 0.2979
C24 C 0.30579(12) 0.57722(9) 1.0708(5)
H27 H 0.3326 0.5502 1.1613
H28 H 0.2603 0.5613 1.0131
H29 H 0.2945 0.6084 1.1694
C25 C 0.61845(9) 0.54640(7) 0.4143(3)
H30 H 0.6594 0.5501 0.3063
H31 H 0.5734 0.5399 0.3268
H32 H 0.6275 0.5159 0.5189
C26 C 0.89996(9) 0.64881(7) 0.4501(3)
H33 H 0.9167 0.6800 0.3597
H34 H 0.8749 0.6232 0.3475
H35 H 0.9420 0.6309 0.5218
O5 O 0.80577(7) 0.55006(5) 1.1203(2)
C27 C 0.62090(17) 0.79810(12) 0.5239(5)
H36 H 0.6114 0.8225 0.3912
H37 H 0.5761 0.7965 0.6198
O6 O 0.67941(10) 0.81933(7) 0.6593(3)
H38 H 0.6840 0.8009 0.7808
C28? C 0.6411(4) 0.8023(3) 0.5599(12)
H39? H 0.6921 0.8112 0.6016
H40? H 0.6233 0.8303 0.4506
O7? O 0.5971(2) 0.80240(16) 0.7625(7)
H41? H 0.6202 0.7881 0.8724
loop_
_geom_bond_atom_site_label_1
_geom_bond_atom_site_label_2
_geom_bond_site_symmetry_1
_geom_bond_site_symmetry_2
O1 C9 1_555 1_555
O2 C15 1_555 1_555
O3 C16 1_555 1_555
O4 C20 1_555 1_555
C1 H1 1_555 1_555
H2 C1 1_555 1_555
H3 C1 1_555 1_555
C2 C1 1_555 1_555
C3 C2 1_555 1_555
H4 C3 1_555 1_555
C4 C3 1_555 1_555
H5 C4 1_555 1_555
H6 C4 1_555 1_555
C5 C4 1_555 1_555
H7 C5 1_555 1_555
H8 C5 1_555 1_555
C6 C5 1_555 1_555
C7 C6 1_555 1_555
H9 C7 1_555 1_555
C8 C7 1_555 1_555
H10 C8 1_555 1_555
C9 C8 1_555 1_555
H11 C9 1_555 1_555
C10 O1 1_555 1_555
C11 C10 1_555 1_555
H12 C11 1_555 1_555
C12 C11 1_555 1_555
C13 C12 1_555 1_555
H13 C13 1_555 1_555
H14 C13 1_555 1_555
H15 C13 1_555 1_555
C14 C12 1_555 1_555
H16 C14 1_555 1_555
H17 C14 1_555 1_555
H18 C14 1_555 1_555
C15 C9 1_555 1_555
C16 O2 1_555 1_555
C17 C16 1_555 1_555
H19 C17 1_555 1_555
H20 C17 1_555 1_555
H21 C17 1_555 1_555
C18 C15 1_555 1_555
H22 C18 1_555 1_555
C19 C18 1_555 1_555
H23 C19 1_555 1_555
C20 C19 1_555 1_555
C21 C20 1_555 1_555
C22 C21 1_555 1_555
H24 C22 1_555 1_555
C23 C6 1_555 1_555
H25 C23 1_555 1_555
H26 C23 1_555 1_555
C24 C2 1_555 1_555
H27 C24 1_555 1_555
H28 C24 1_555 1_555
H29 C24 1_555 1_555
C25 C6 1_555 1_555
H30 C25 1_555 1_555
H31 C25 1_555 1_555
H32 C25 1_555 1_555
C26 C15 1_555 1_555
H33 C26 1_555 1_555
H34 C26 1_555 1_555
H35 C26 1_555 1_555
O5 C10 1_555 1_555
C27 C21 1_555 1_555
H36 C27 1_555 1_555
H37 C27 1_555 1_555
O6 C27 1_555 1_555
H38 O6 1_555 1_555
C22 C23 1_555 1_555

#END
