
#######################################################################
#
#                 Cambridge Crystallographic Data Centre
#                                CCDC 
#
#######################################################################
#
# If this CIF has been generated from an entry in the Cambridge 
# Structural Database, then it will include bibliographic, chemical, 
# crystal, experimental, refinement or atomic coordinate data resulting 
# from the CCDC's data processing and validation procedures.
#
#######################################################################

data_IZUNOH
_chemical_formula_moiety         'C30 H25 B1 N2 S3'
_chemical_name_systematic        
3,4,4-tris(2-thienyl)-8-(2,4,6-trimethylphenyl)-4-bora-3a,4a-diaza-s-indacene
_symmetry_cell_setting           monoclinic
_symmetry_space_group_name_H-M   'C 2/c'
_symmetry_Int_Tables_number      15
_space_group_name_Hall           '-C 2yn'
loop_
_symmetry_equiv_pos_site_id
_symmetry_equiv_pos_as_xyz
1 x,y,z
2 -x,y,1/2-z
3 1/2+x,1/2+y,z
4 1/2-x,1/2+y,1/2-z
5 -x,-y,-z
6 x,-y,1/2+z
7 1/2-x,1/2-y,-z
8 1/2+x,1/2-y,1/2+z
_cell_length_a                   17.2235(18)
_cell_length_b                   21.909(2)
_cell_length_c                   16.217(3)
_cell_angle_alpha                90
_cell_angle_beta                 115.963(3)
_cell_angle_gamma                90
_cell_volume                     5501.88
_cell_formula_units_Z            8
loop_
_atom_site_label
_atom_site_type_symbol
_atom_site_fract_x
_atom_site_fract_y
_atom_site_fract_z
B1 B 0.3098(2) 0.42332(16) 0.9067(2)
N1 N 0.22771(13) 0.38060(11) 0.87864(15)
N2 N 0.32890(14) 0.42299(11) 0.82017(16)
C1 C 0.19405(18) 0.35582(14) 0.9326(2)
C2 C 0.12400(19) 0.31839(15) 0.8792(2)
H1 H 0.0905 0.2957 0.9001
C3 C 0.11382(19) 0.32130(14) 0.7911(2)
H2 H 0.0717 0.3012 0.7410
C4 C 0.17776(17) 0.35976(13) 0.78952(19)
C5 C 0.19565(16) 0.37549(13) 0.71630(19)
C6 C 0.27031(18) 0.40759(13) 0.73143(19)
C7 C 0.3054(2) 0.42419(15) 0.6712(2)
H3 H 0.2795 0.4195 0.6078
C8 C 0.3851(2) 0.44860(18) 0.7235(2)
H4 H 0.4238 0.4635 0.7026
C9 C 0.3972(2) 0.44688(17) 0.8141(2)
H5 H 0.4466 0.4606 0.8639
C10 C 0.13569(18) 0.35633(15) 0.6208(2)
C11 C 0.0583(2) 0.38880(17) 0.5729(2)
C12 C 0.0043(2) 0.3698(2) 0.4843(3)
H6 H -0.0473 0.3906 0.4520
C13 C 0.0238(3) 0.3222(2) 0.4429(3)
C14 C 0.0998(3) 0.29148(18) 0.4904(3)
H7 H 0.1130 0.2588 0.4623
C15 C 0.1580(2) 0.30762(16) 0.5797(2)
C16 C 0.0346(2) 0.44251(18) 0.6147(3)
H8 H -0.0202 0.4584 0.5718
H9 H 0.0779 0.4736 0.6295
H10 H 0.0309 0.4298 0.6696
C17 C -0.0364(3) 0.3019(3) 0.3453(3)
H11 H -0.0866 0.3276 0.3211
H12 H -0.0537 0.2604 0.3463
H13 H -0.0068 0.3050 0.3073
C18 C 0.2409(3) 0.27320(17) 0.6296(3)
H14 H 0.2726 0.2904 0.6896
H15 H 0.2749 0.2760 0.5960
H16 H 0.2284 0.2311 0.6352
C19 C 0.2850(2) 0.49220(16) 0.9187(2)
S1 S 0.1826(3) 0.5187(3) 0.8737(4)
C20 C 0.3289(10) 0.5494(11) 0.9482(13)
H17 H 0.3889 0.5519 0.9751
C21 C 0.2779(19) 0.6012(13) 0.935(2)
H18 H 0.2977 0.6411 0.9490
C22 C 0.1950(10) 0.5832(10) 0.8970(13)
H19 H 0.1495 0.6097 0.8867
C23 C 0.39171(18) 0.39534(15) 0.9916(2)
S2 S 0.43741(12) 0.32941(9) 0.98007(14)
C24 C 0.4356(13) 0.4143(9) 1.0830(12)
H20 H 0.4248 0.4498 1.1077
C25 C 0.5055(5) 0.3659(6) 1.1358(6)
H21 H 0.5401 0.3668 1.1987
C26 C 0.5096(10) 0.3252(9) 1.0827(10)
H22 H 0.5517 0.2949 1.1023
C27 C 0.22340(19) 0.3670(2) 1.0298(2)
S3 S 0.2340(3) 0.4371(3) 1.0788(3)
C28 C 0.2398(18) 0.3212(12) 1.0948(18)
H23 H 0.2403 0.2794 1.0852
C29 C 0.2573(11) 0.3542(11) 1.1882(13)
H24 H 0.2684 0.3338 1.2425
C30 C 0.2542(8) 0.4170(5) 1.1791(9)
H25? H 0.2630 0.4440 1.2266
S4? S 0.2372(13) 0.3095(8) 1.1026(11)
C31? C 0.238(2) 0.4190(18) 1.078(3)
H26? H 0.2342 0.4591 1.0576
C32? C 0.2665(14) 0.3934(12) 1.1834(16)
C33? C 0.269(2) 0.335(2) 1.183(3)
H27? H 0.2929 0.3119 1.2363
C34? C 0.199(2) 0.5167(16) 0.883(2)
C35? C 0.2200(12) 0.5940(10) 0.9050(15)
C36? C 0.307(3) 0.601(2) 0.954(3)
C37? C 0.4163(15) 0.3297(13) 1.0078(17)
C38? C 0.507(4) 0.325(3) 1.107(4)
C39? C 0.511(4) 0.3964(19) 1.140(4)
H28? H 0.1464 0.4966 0.8545
H29? H 0.1791 0.6250 0.8869
H30? H 0.3314 0.6383 0.9789
H31? H 0.3870 0.2972 0.9702
H32? H 0.5442 0.2926 1.1353
H33? H 0.5579 0.4145 1.1869
S5? S 0.3600(6) 0.5451(4) 0.9646(7)
S6? S 0.4436(19) 0.4224(14) 1.0938(17)
loop_
_geom_bond_atom_site_label_1
_geom_bond_atom_site_label_2
_geom_bond_site_symmetry_1
_geom_bond_site_symmetry_2
B1 N1 1_555 1_555
N1 C1 1_555 1_555
N2 B1 1_555 1_555
C1 C2 1_555 1_555
C2 H1 1_555 1_555
C3 C2 1_555 1_555
H2 C3 1_555 1_555
C4 N1 1_555 1_555
C5 C4 1_555 1_555
C6 N2 1_555 1_555
C7 C6 1_555 1_555
H3 C7 1_555 1_555
C8 C7 1_555 1_555
H4 C8 1_555 1_555
C9 N2 1_555 1_555
H5 C9 1_555 1_555
C10 C5 1_555 1_555
C11 C10 1_555 1_555
C12 C11 1_555 1_555
H6 C12 1_555 1_555
C13 C12 1_555 1_555
C14 C13 1_555 1_555
H7 C14 1_555 1_555
C15 C10 1_555 1_555
C16 C11 1_555 1_555
H8 C16 1_555 1_555
H9 C16 1_555 1_555
H10 C16 1_555 1_555
C17 C13 1_555 1_555
H11 C17 1_555 1_555
H12 C17 1_555 1_555
H13 C17 1_555 1_555
C18 C15 1_555 1_555
H14 C18 1_555 1_555
H15 C18 1_555 1_555
H16 C18 1_555 1_555
C19 B1 1_555 1_555
S1 C19 1_555 1_555
C20 C19 1_555 1_555
H17 C20 1_555 1_555
C21 C20 1_555 1_555
H18 C21 1_555 1_555
C22 S1 1_555 1_555
H19 C22 1_555 1_555
C23 B1 1_555 1_555
S2 C23 1_555 1_555
C24 C23 1_555 1_555
H20 C24 1_555 1_555
C25 C24 1_555 1_555
H21 C25 1_555 1_555
C26 S2 1_555 1_555
H22 C26 1_555 1_555
C27 C1 1_555 1_555
S3 C27 1_555 1_555
C28 C27 1_555 1_555
H23 C28 1_555 1_555
C29 C28 1_555 1_555
H24 C29 1_555 1_555
C30 S3 1_555 1_555
C3 C4 1_555 1_555
C5 C6 1_555 1_555
C8 C9 1_555 1_555
C14 C15 1_555 1_555
C21 C22 1_555 1_555
C25 C26 1_555 1_555
C29 C30 1_555 1_555

#END
