
#######################################################################
#
#                 Cambridge Crystallographic Data Centre
#                                CCDC 
#
#######################################################################
#
# If this CIF has been generated from an entry in the Cambridge 
# Structural Database, then it will include bibliographic, chemical, 
# crystal, experimental, refinement or atomic coordinate data resulting 
# from the CCDC's data processing and validation procedures.
#
#######################################################################

data_IZUNUO
_chemical_formula_moiety         'C20 H18 Br1 N1 O5 S1'
_chemical_name_systematic        
'ethyl 3-(3-bromo-5-(2-((2-cyanophenoxy)sulfonyl)ethyl)phenyl)acrylate'
_symmetry_cell_setting           triclinic
_symmetry_space_group_name_H-M   'P -1'
_symmetry_Int_Tables_number      2
_space_group_name_Hall           '-P 1'
loop_
_symmetry_equiv_pos_site_id
_symmetry_equiv_pos_as_xyz
1 x,y,z
2 -x,-y,-z
_cell_length_a                   7.88851(18)
_cell_length_b                   8.9545(2)
_cell_length_c                   14.9033(3)
_cell_angle_alpha                92.1745(19)
_cell_angle_beta                 99.8465(19)
_cell_angle_gamma                107.839(2)
_cell_volume                     982.768
_exptl_crystal_colour            colorless
_exptl_crystal_description       block
_cell_formula_units_Z            2
_exptl_crystal_recrystallization_method Ethanol
loop_
_atom_site_label
_atom_site_type_symbol
_atom_site_fract_x
_atom_site_fract_y
_atom_site_fract_z
Br1 Br 0.81147(3) 0.25093(3) 0.59089(2)
S1 S 0.78755(7) 0.71212(6) 0.17574(3)
O1 O -0.28851(18) 0.12858(16) 0.27938(9)
O2 O -0.21076(19) -0.01256(17) 0.39051(10)
O3 O 0.9551(2) 0.82202(17) 0.22038(10)
O4 O 0.8248(2) 0.61266(17) 0.09331(10)
O5 O 0.6441(2) 0.7704(2) 0.14065(12)
C1 C 0.5967(3) 0.4738(2) 0.38362(13)
C2 C 0.1529(3) 0.1766(2) 0.40652(13)
H1 H 0.1198 0.0944 0.4449
C3 C 0.6502(3) 0.3052(2) 0.49774(13)
C4 C 0.4678(3) 0.2222(2) 0.48442(13)
H2 H 0.4253 0.1364 0.5191
C5 C 0.4128(3) 0.3924(2) 0.36980(13)
H3 H 0.3307 0.4233 0.3259
C6 C 0.3466(3) 0.2652(2) 0.41976(13)
C7 C -0.1677(3) 0.0936(2) 0.34320(13)
C8 C 0.7175(3) 0.4297(2) 0.44808(13)
H4 H 0.8440 0.4842 0.4578
C9 C -0.4756(3) 0.0282(3) 0.27271(15)
H5 H -0.5143 0.0362 0.3320
H6 H -0.4860 -0.0831 0.2571
C10 C 0.0184(3) 0.1975(2) 0.34727(14)
H7 H 0.0423 0.2791 0.3077
N1 N 1.2181(4) 0.5357(3) 0.18840(17)
C11 C 0.8898(3) 0.7762(3) -0.02924(15)
H8 H 0.7686 0.7790 -0.0410
C12 C 0.7134(3) 0.5541(2) 0.24191(15)
H9 H 0.6059 0.4725 0.2055
H10 H 0.8106 0.5059 0.2584
C13 C 0.6647(3) 0.6108(2) 0.32869(14)
H11 H 0.7730 0.6902 0.3660
H12 H 0.5697 0.6614 0.3124
C14 C 0.9470(3) 0.6976(2) 0.04049(14)
C15 C -0.5929(3) 0.0815(3) 0.19987(16)
H13 H -0.5562 0.0699 0.1411
H14 H -0.5796 0.1924 0.2152
H15 H -0.7199 0.0173 0.1955
C16 C 1.1767(3) 0.6061(3) 0.13139(16)
C17 C 1.2441(3) 0.7677(3) 0.00412(16)
H16 H 1.3652 0.7647 0.0152
C18 C 1.1227(3) 0.6914(2) 0.05864(14)
C19 C 1.1866(3) 0.8470(3) -0.06569(16)
H17 H 1.2688 0.8993 -0.1028
C20 C 1.0123(3) 0.8516(3) -0.08233(16)
H18 H 0.9749 0.9072 -0.1309
loop_
_geom_bond_atom_site_label_1
_geom_bond_atom_site_label_2
_geom_bond_site_symmetry_1
_geom_bond_site_symmetry_2
Br1 C3 1_555 1_555
S1 O3 1_555 1_555
O1 C7 1_555 1_555
O2 C7 1_555 1_555
O4 S1 1_555 1_555
O5 S1 1_555 1_555
C1 C5 1_555 1_555
C2 H1 1_555 1_555
C3 C4 1_555 1_555
C4 H2 1_555 1_555
C5 H3 1_555 1_555
C6 C2 1_555 1_555
C7 C10 1_555 1_555
C8 C1 1_555 1_555
H4 C8 1_555 1_555
C9 O1 1_555 1_555
H5 C9 1_555 1_555
H6 C9 1_555 1_555
C10 C2 1_555 1_555
H7 C10 1_555 1_555
N1 C16 1_555 1_555
C11 H8 1_555 1_555
C12 S1 1_555 1_555
H9 C12 1_555 1_555
H10 C12 1_555 1_555
C13 C1 1_555 1_555
H11 C13 1_555 1_555
H12 C13 1_555 1_555
C14 O4 1_555 1_555
C15 C9 1_555 1_555
H13 C15 1_555 1_555
H14 C15 1_555 1_555
H15 C15 1_555 1_555
C16 C18 1_555 1_555
C17 H16 1_555 1_555
C18 C14 1_555 1_555
C19 C17 1_555 1_555
H17 C19 1_555 1_555
C20 C11 1_555 1_555
H18 C20 1_555 1_555
C3 C8 1_555 1_555
C4 C6 1_555 1_555
C5 C6 1_555 1_555
C11 C14 1_555 1_555
C12 C13 1_555 1_555
C17 C18 1_555 1_555
C19 C20 1_555 1_555

#END
