
#######################################################################
#
#                 Cambridge Crystallographic Data Centre
#                                CCDC 
#
#######################################################################
#
# If this CIF has been generated from an entry in the Cambridge 
# Structural Database, then it will include bibliographic, chemical, 
# crystal, experimental, refinement or atomic coordinate data resulting 
# from the CCDC's data processing and validation procedures.
#
#######################################################################

data_IZUPAW
_chemical_formula_moiety         'C25 H26 N2 O6 S1'
_chemical_name_systematic        
'ethyl 3-(3-(2-((2-cyanophenoxy)sulfonyl)ethyl)-5-(3-(dimethylamino)-3-oxoprop-1-en-1-yl)phenyl)acrylate'
_symmetry_cell_setting           triclinic
_symmetry_space_group_name_H-M   'P -1'
_symmetry_Int_Tables_number      2
_space_group_name_Hall           '-P 1'
loop_
_symmetry_equiv_pos_site_id
_symmetry_equiv_pos_as_xyz
1 x,y,z
2 -x,-y,-z
_cell_length_a                   8.3702(10)
_cell_length_b                   12.3731(11)
_cell_length_c                   13.2427(8)
_cell_angle_alpha                108.688(7)
_cell_angle_beta                 105.715(8)
_cell_angle_gamma                98.948(9)
_cell_volume                     1205.65
_exptl_crystal_colour            colorless
_exptl_crystal_description       plate
_cell_formula_units_Z            2
_exptl_crystal_recrystallization_method Ethanol
loop_
_atom_site_label
_atom_site_type_symbol
_atom_site_fract_x
_atom_site_fract_y
_atom_site_fract_z
S1 S 1.08257(10) 0.69391(7) 1.00292(6)
O1 O 1.2130(3) 0.76645(18) 0.96272(17)
O2 O 0.7338(3) 0.59925(19) 0.23675(18)
O3 O 0.4942(3) 0.4462(2) 0.15877(18)
O4 O 1.0349(3) 0.7770(2) 1.08483(18)
O5 O 1.1644(3) 0.6112(2) 1.03392(19)
O6 O 0.3323(3) -0.0039(2) 0.64985(19)
N1 N 0.1437(4) -0.0943(2) 0.4715(2)
C1 C 0.6318(4) 0.4026(3) 0.4820(2)
C2 C 0.7692(4) 0.4825(3) 0.5784(3)
H1 H 0.8321 0.5495 0.5751
C3 C 0.4852(4) 0.1776(3) 0.5996(3)
H2 H 0.5249 0.1722 0.6700
C4 C 0.5878(4) 0.4204(3) 0.3736(3)
H3 H 0.4883 0.3686 0.3157
C5 C 1.2572(4) 0.8908(3) 1.0064(3)
C6 C 0.5773(4) 0.2821(3) 0.5882(3)
C7 C 0.6749(4) 0.5021(3) 0.3505(3)
H4 H 0.7743 0.5561 0.4067
C8 C 0.5370(4) 0.3037(3) 0.4881(3)
H5 H 0.4454 0.2509 0.4246
C9 C 0.6197(4) 0.5105(3) 0.2383(3)
C10 C 1.1796(4) 0.9475(3) 0.9391(3)
C11 C 0.8117(4) 0.4626(3) 0.6779(3)
N2 N 0.9377(5) 0.8269(3) 0.7460(3)
C12 C 0.7154(4) 0.3624(3) 0.6815(3)
H6 H 0.7442 0.3489 0.7485
C13 C 1.4362(5) 1.0752(3) 1.1475(3)
H7 H 1.5214 1.1187 1.2178
C14 C 0.3534(4) 0.0910(3) 0.5222(3)
H8 H 0.3087 0.0903 0.4496
C15 C 0.7001(5) 0.6172(3) 0.1296(3)
H9 H 0.6396 0.5422 0.0667
H10 H 0.8084 0.6466 0.1215
C16 C 0.2767(4) -0.0062(3) 0.5525(3)
C17 C 1.3619(5) 1.1328(3) 1.0806(3)
H11 H 1.3998 1.2147 1.1059
C18 C 0.9075(4) 0.6189(3) 0.8755(3)
H12 H 0.8215 0.5672 0.8879
H13 H 0.8555 0.6760 0.8528
C19 C 0.9624(4) 0.5458(3) 0.7809(3)
H14 H 1.0309 0.5988 0.7588
H15 H 1.0344 0.5003 0.8093
C20 C 1.3840(4) 0.9535(3) 1.1099(3)
H16 H 1.4341 0.9145 1.1542
C21 C 0.5949(5) 0.7031(3) 0.1269(3)
H17 H 0.5765 0.7156 0.0571
H18 H 0.6543 0.7769 0.1898
H19 H 0.4859 0.6724 0.1319
C22 C 1.2341(5) 1.0710(3) 0.9784(3)
H20 H 1.1835 1.1106 0.9350
C23 C 1.0459(5) 0.8800(3) 0.8304(3)
C24 C 0.0611(5) -0.1879(3) 0.4995(3)
H21 H 0.0942 -0.2587 0.4679
H22 H -0.0617 -0.2030 0.4685
H23 H 0.0963 -0.1638 0.5804
C25 C 0.0754(5) -0.1064(3) 0.3536(3)
H24 H -0.0083 -0.0620 0.3460
H25 H 0.0221 -0.1884 0.3061
H26 H 0.1675 -0.0770 0.3312
loop_
_geom_bond_atom_site_label_1
_geom_bond_atom_site_label_2
_geom_bond_site_symmetry_1
_geom_bond_site_symmetry_2
S1 O1 1_555 1_555
O1 C5 1_555 1_555
O2 C9 1_555 1_555
O3 C9 1_555 1_555
O4 S1 1_555 1_555
O5 S1 1_555 1_555
O6 C16 1_555 1_555
N1 C16 1_555 1_555
C1 C2 1_555 1_555
C2 H1 1_555 1_555
C3 H2 1_555 1_555
C4 C1 1_555 1_555
H3 C4 1_555 1_555
C5 C10 1_555 1_555
C6 C3 1_555 1_555
C7 C4 1_555 1_555
H4 C7 1_555 1_555
C8 C1 1_555 1_555
H5 C8 1_555 1_555
C9 C7 1_555 1_555
C10 C22 1_555 1_555
C11 C2 1_555 1_555
N2 C23 1_555 1_555
C12 C6 1_555 1_555
H6 C12 1_555 1_555
C13 H7 1_555 1_555
C14 C3 1_555 1_555
H8 C14 1_555 1_555
C15 O2 1_555 1_555
H9 C15 1_555 1_555
H10 C15 1_555 1_555
C16 C14 1_555 1_555
C17 C13 1_555 1_555
H11 C17 1_555 1_555
C18 S1 1_555 1_555
H12 C18 1_555 1_555
H13 C18 1_555 1_555
C19 C11 1_555 1_555
H14 C19 1_555 1_555
H15 C19 1_555 1_555
C20 C5 1_555 1_555
H16 C20 1_555 1_555
C21 C15 1_555 1_555
H17 C21 1_555 1_555
H18 C21 1_555 1_555
H19 C21 1_555 1_555
C22 C17 1_555 1_555
H20 C22 1_555 1_555
C23 C10 1_555 1_555
C24 N1 1_555 1_555
H21 C24 1_555 1_555
H22 C24 1_555 1_555
H23 C24 1_555 1_555
C25 N1 1_555 1_555
H24 C25 1_555 1_555
H25 C25 1_555 1_555
H26 C25 1_555 1_555
C6 C8 1_555 1_555
C11 C12 1_555 1_555
C13 C20 1_555 1_555
C18 C19 1_555 1_555

#END
