
#######################################################################
#
#                 Cambridge Crystallographic Data Centre
#                                CCDC 
#
#######################################################################
#
# If this CIF has been generated from an entry in the Cambridge 
# Structural Database, then it will include bibliographic, chemical, 
# crystal, experimental, refinement or atomic coordinate data resulting 
# from the CCDC's data processing and validation procedures.
#
#######################################################################

data_IZUXUX
_chemical_formula_moiety         'C24 H30 N3 O1 1+,F6 P1 1-'
_chemical_name_systematic        
'1-(3-(((2,6-Diisopropylphenyl)imino)methyl)-4-hydroxybenzyl)-3-methyl-1H-imidazol-3-ium hexafluorophosphate'
_symmetry_cell_setting           monoclinic
_symmetry_space_group_name_H-M   'P 21/c'
_symmetry_Int_Tables_number      14
_space_group_name_Hall           '-P 2ybc'
loop_
_symmetry_equiv_pos_site_id
_symmetry_equiv_pos_as_xyz
1 x,y,z
2 -x,1/2+y,1/2-z
3 -x,-y,-z
4 x,1/2-y,1/2+z
_cell_length_a                   14.965(3)
_cell_length_b                   9.7123(17)
_cell_length_c                   19.323(3)
_cell_angle_alpha                90
_cell_angle_beta                 108.912(2)
_cell_angle_gamma                90
_cell_volume                     2656.88
_exptl_crystal_colour            colorless
_exptl_crystal_description       prism
_cell_formula_units_Z            4
loop_
_atom_site_label
_atom_site_type_symbol
_atom_site_fract_x
_atom_site_fract_y
_atom_site_fract_z
N1 N 0.12924(12) 0.02061(18) 0.36513(10)
N2 N 0.48961(14) 0.3587(2) 0.62725(10)
N3 N 0.61884(15) 0.4729(2) 0.65211(13)
O1 O 0.10250(13) 0.29021(17) 0.36669(11)
H1 H 0.0944 0.2122 0.3496
C1 C 0.6937(2) 0.5721(4) 0.6877(2)
H2 H 0.6788 0.6598 0.6638
H3 H 0.7528 0.5398 0.6843
H4 H 0.6985 0.5816 0.7382
C2 C 0.54543(18) 0.4474(3) 0.67261(14)
H5 H 0.5343 0.4860 0.7131
C3 C 0.6095(2) 0.3967(4) 0.59103(18)
H6 H 0.6518 0.3945 0.5648
C4 C 0.5299(2) 0.3264(4) 0.57551(16)
H7 H 0.5059 0.2661 0.5365
C5 C 0.40150(19) 0.3027(3) 0.63375(13)
H8 H 0.3824 0.3580 0.6684
H9 H 0.4128 0.2098 0.6529
C6 C 0.32276(17) 0.3004(3) 0.56207(12)
C7 C 0.27328(19) 0.4177(3) 0.53135(15)
H10 H 0.2899 0.5016 0.5553
C8 C 0.20069(18) 0.4131(3) 0.46670(15)
H11 H 0.1687 0.4936 0.4472
C9 C 0.17410(16) 0.2896(2) 0.42970(13)
C10 C 0.22270(15) 0.1698(2) 0.45947(11)
C11 C 0.29618(17) 0.1776(2) 0.52527(13)
H12 H 0.3285 0.0976 0.5452
C12 C 0.19663(16) 0.0364(2) 0.42470(12)
H13 H 0.2308 -0.0407 0.4470
C13 C 0.10855(14) -0.1160(2) 0.33723(11)
C14 C 0.05306(16) -0.2017(2) 0.36433(13)
C15 C 0.03539(18) -0.3337(3) 0.33546(16)
H14 H -0.0006 -0.3934 0.3532
C16 C 0.06913(19) -0.3780(3) 0.28206(16)
H15 H 0.0574 -0.4676 0.2645
C17 C 0.12030(19) -0.2905(3) 0.25417(14)
H16 H 0.1423 -0.3211 0.2170
C18 C 0.14008(16) -0.1571(2) 0.28005(13)
C19 C 0.0108(2) -0.1538(3) 0.42179(17)
H17 H 0.0328 -0.0593 0.4352
C20 C 0.0417(4) -0.2372(5) 0.4897(2)
H18 H 0.0207 -0.3304 0.4786
H19 H 0.0150 -0.1997 0.5246
H20 H 0.1094 -0.2354 0.5098
C21 C -0.0962(3) -0.1489(5) 0.3903(2)
H21 H -0.1205 -0.2409 0.3808
H22 H -0.1145 -0.0974 0.3455
H23 H -0.1212 -0.1054 0.4247
C22 C 0.1952(2) -0.0592(3) 0.24861(16)
H24 H 0.1763 0.0345 0.2567
C23 C 0.2995(2) -0.0717(4) 0.2885(2)
H25 H 0.3110 -0.0640 0.3402
H26 H 0.3324 0.0004 0.2729
H27 H 0.3215 -0.1595 0.2779
C24 C 0.1735(3) -0.0774(4) 0.16625(17)
H28 H 0.2024 -0.1606 0.1571
H29 H 0.1981 -0.0003 0.1471
H30 H 0.1064 -0.0826 0.1428
P1 P 0.43449(6) 0.81279(8) 0.62261(4)
F1 F 0.5243(7) 0.8141(11) 0.6865(5)
F2 F 0.3429(6) 0.8087(8) 0.5564(4)
F3 F 0.4749(8) 0.6972(9) 0.5856(3)
F4 F 0.3801(8) 0.9146(9) 0.6559(3)
F5 F 0.3996(6) 0.6950(9) 0.6638(6)
F6 F 0.4713(5) 0.9276(9) 0.5867(7)
F7? F 0.4632(7) 0.9628(5) 0.6518(5)
F8? F 0.4045(8) 0.6727(6) 0.6013(9)
F9? F 0.3990(13) 0.8755(12) 0.5430(4)
F10? F 0.4963(9) 0.7725(11) 0.7006(4)
F11? F 0.3437(9) 0.8445(16) 0.6331(13)
F12? F 0.5279(6) 0.7878(14) 0.6046(5)
loop_
_geom_bond_atom_site_label_1
_geom_bond_atom_site_label_2
_geom_bond_site_symmetry_1
_geom_bond_site_symmetry_2
N1 C12 1_555 1_555
N2 C2 1_555 1_555
N3 C1 1_555 1_555
O1 H1 1_555 1_555
P1 F1 1_555 1_555
F2 P1 1_555 1_555
F3 P1 1_555 1_555
F4 P1 1_555 1_555
F5 P1 1_555 1_555
F6 P1 1_555 1_555
C1 H2 1_555 1_555
H3 C1 1_555 1_555
H4 C1 1_555 1_555
C2 N3 1_555 1_555
H5 C2 1_555 1_555
C3 N3 1_555 1_555
H6 C3 1_555 1_555
C4 N2 1_555 1_555
H7 C4 1_555 1_555
C5 N2 1_555 1_555
H8 C5 1_555 1_555
H9 C5 1_555 1_555
C6 C5 1_555 1_555
C7 C6 1_555 1_555
H10 C7 1_555 1_555
C8 C7 1_555 1_555
H11 C8 1_555 1_555
C9 O1 1_555 1_555
C10 C9 1_555 1_555
C11 C6 1_555 1_555
H12 C11 1_555 1_555
C12 C10 1_555 1_555
H13 C12 1_555 1_555
C13 N1 1_555 1_555
C14 C13 1_555 1_555
C15 C14 1_555 1_555
H14 C15 1_555 1_555
C16 C15 1_555 1_555
H15 C16 1_555 1_555
C17 C16 1_555 1_555
H16 C17 1_555 1_555
C18 C13 1_555 1_555
C19 C14 1_555 1_555
H17 C19 1_555 1_555
C20 C19 1_555 1_555
H18 C20 1_555 1_555
H19 C20 1_555 1_555
H20 C20 1_555 1_555
C21 C19 1_555 1_555
H21 C21 1_555 1_555
H22 C21 1_555 1_555
H23 C21 1_555 1_555
C22 C18 1_555 1_555
H24 C22 1_555 1_555
C23 C22 1_555 1_555
H25 C23 1_555 1_555
H26 C23 1_555 1_555
H27 C23 1_555 1_555
C24 C22 1_555 1_555
H28 C24 1_555 1_555
H29 C24 1_555 1_555
H30 C24 1_555 1_555
C3 C4 1_555 1_555
C8 C9 1_555 1_555
C10 C11 1_555 1_555
C17 C18 1_555 1_555

#END
