
#######################################################################
#
#                 Cambridge Crystallographic Data Centre
#                                CCDC 
#
#######################################################################
#
# If this CIF has been generated from an entry in the Cambridge 
# Structural Database, then it will include bibliographic, chemical, 
# crystal, experimental, refinement or atomic coordinate data resulting 
# from the CCDC's data processing and validation procedures.
#
#######################################################################

data_IZUYEH
_chemical_formula_moiety         'C15 H20 N2 O4 S1'
_chemical_name_systematic        'Ethyl 2-diazo-3-(p-tolylsulfonyl)hexanoate'
_symmetry_cell_setting           monoclinic
_symmetry_space_group_name_H-M   'P 21/n'
_symmetry_Int_Tables_number      14
_space_group_name_Hall           '-P 2yn'
loop_
_symmetry_equiv_pos_site_id
_symmetry_equiv_pos_as_xyz
1 x,y,z
2 1/2+x,1/2-y,1/2+z
3 -x,-y,-z
4 1/2-x,1/2+y,1/2-z
_cell_length_a                   11.602(2)
_cell_length_b                   10.937(2)
_cell_length_c                   13.353(3)
_cell_angle_alpha                90
_cell_angle_beta                 91.68(3)
_cell_angle_gamma                90
_cell_volume                     1693.65
_exptl_crystal_colour            yellow
_exptl_crystal_description       Block
_cell_formula_units_Z            4
loop_
_atom_site_label
_atom_site_type_symbol
_atom_site_fract_x
_atom_site_fract_y
_atom_site_fract_z
S1 S 0.26564(4) 0.15141(4) 0.30826(4)
O1 O 0.25270(12) 0.03066(11) 0.34988(10)
O2 O 0.37048(10) 0.21809(13) 0.32944(10)
O3 O 0.00985(11) 0.33385(12) 0.18994(10)
O4 O -0.11821(12) 0.17936(14) 0.19390(12)
N1 N -0.00334(14) 0.09041(18) 0.35423(12)
N2 N -0.0384(2) 0.0053(2) 0.38879(17)
C1 C 0.24088(14) 0.14265(16) 0.17790(14)
C2 C 0.18123(15) 0.04445(17) 0.13526(15)
H1 H 0.1582 -0.0204 0.1750
C3 C 0.15651(17) 0.04381(19) 0.03384(17)
H2 H 0.1167 -0.0222 0.0058
C4 C 0.18926(18) 0.1387(2) -0.02722(15)
C5 C 0.25077(18) 0.23492(19) 0.01704(17)
H3 H 0.2754 0.2988 -0.0230
C6 C 0.27607(16) 0.23810(17) 0.11810(16)
H4 H 0.3165 0.3038 0.1461
C7 C 0.1597(2) 0.1403(2) -0.13778(16)
H5 H 0.1182 0.0672 -0.1557
H6 H 0.2294 0.1442 -0.1747
H7 H 0.1128 0.2104 -0.1534
C8 C 0.0864(2) 0.3627(2) 0.61958(15)
H8 H 0.0334 0.4237 0.6418
H9 H 0.1636 0.3856 0.6395
H10 H 0.0680 0.2853 0.6491
C9 C 0.07730(17) 0.35223(19) 0.50659(14)
H11 H 0.0944 0.4310 0.4772
H12 H -0.0012 0.3308 0.4868
C10 C 0.15880(15) 0.25713(16) 0.46593(13)
H13 H 0.1435 0.1790 0.4972
H14 H 0.2375 0.2802 0.4837
C11 C 0.14681(13) 0.24293(15) 0.35178(12)
H15 H 0.1546 0.3246 0.3226
C12 C 0.03501(14) 0.19155(16) 0.31333(13)
C13 C -0.03397(16) 0.23217(19) 0.22740(14)
C14 C -0.0425(2) 0.3817(2) 0.09771(17)
H16 H -0.0738 0.3148 0.0578
H17 H 0.0158 0.4224 0.0592
C15 C -0.1344(2) 0.4681(2) 0.11934(17)
H18 H -0.1675 0.4989 0.0576
H19 H -0.1033 0.5347 0.1583
H20 H -0.1928 0.4274 0.1563
loop_
_geom_bond_atom_site_label_1
_geom_bond_atom_site_label_2
_geom_bond_site_symmetry_1
_geom_bond_site_symmetry_2
S1 O1 1_555 1_555
O2 S1 1_555 1_555
O3 C13 1_555 1_555
O4 C13 1_555 1_555
N1 N2 1_555 1_555
C1 S1 1_555 1_555
C2 C1 1_555 1_555
H1 C2 1_555 1_555
C3 C2 1_555 1_555
H2 C3 1_555 1_555
C4 C3 1_555 1_555
C5 C4 1_555 1_555
H3 C5 1_555 1_555
C6 C1 1_555 1_555
H4 C6 1_555 1_555
C7 C4 1_555 1_555
H5 C7 1_555 1_555
H6 C7 1_555 1_555
H7 C7 1_555 1_555
C8 H8 1_555 1_555
H9 C8 1_555 1_555
H10 C8 1_555 1_555
C9 C8 1_555 1_555
H11 C9 1_555 1_555
H12 C9 1_555 1_555
C10 C9 1_555 1_555
H13 C10 1_555 1_555
H14 C10 1_555 1_555
C11 S1 1_555 1_555
H15 C11 1_555 1_555
C12 N1 1_555 1_555
C13 C12 1_555 1_555
C14 O3 1_555 1_555
H16 C14 1_555 1_555
H17 C14 1_555 1_555
C15 C14 1_555 1_555
H18 C15 1_555 1_555
H19 C15 1_555 1_555
H20 C15 1_555 1_555
C5 C6 1_555 1_555
C10 C11 1_555 1_555
C11 C12 1_555 1_555

#END
