
#######################################################################
#
#                 Cambridge Crystallographic Data Centre
#                                CCDC 
#
#######################################################################
#
# If this CIF has been generated from an entry in the Cambridge 
# Structural Database, then it will include bibliographic, chemical, 
# crystal, experimental, refinement or atomic coordinate data resulting 
# from the CCDC's data processing and validation procedures.
#
#######################################################################

data_IZUZUZ02
_chemical_name_common            
'2,4,6,8,10,12-hexanitro-2,4,6,8,10,12-hexaazaisowurtzitane 2,4,6-trinitrotoluene'
_chemical_formula_moiety         'C6 H6 N12 O12,C7 H5 N3 O6'
_chemical_name_systematic        
'1,3,4,7,8,10-hexanitrooctahydro-1H-5,2,6-(epiminomethanetriylimino)imidazo[4,5-b]pyrazine 2-methyl-1,3,5-trinitrobenzene'
_symmetry_cell_setting           orthorhombic
_symmetry_space_group_name_H-M   'P b c a'
_symmetry_Int_Tables_number      61
_space_group_name_Hall           '-P 2ac 2ab'
loop_
_symmetry_equiv_pos_site_id
_symmetry_equiv_pos_as_xyz
1 x,y,z
2 1/2-x,-y,1/2+z
3 -x,1/2+y,1/2-z
4 1/2+x,1/2-y,-z
5 -x,-y,-z
6 1/2+x,y,1/2-z
7 x,1/2-y,1/2+z
8 1/2-x,1/2+y,z
_cell_length_a                   9.6268(12)
_cell_length_b                   19.292(2)
_cell_length_c                   24.606(3)
_cell_angle_alpha                90
_cell_angle_beta                 90
_cell_angle_gamma                90
_cell_volume                     4569.83
_exptl_crystal_colour            colorless
_exptl_crystal_description       block
_cell_formula_units_Z            8
loop_
_atom_site_label
_atom_site_type_symbol
_atom_site_fract_x
_atom_site_fract_y
_atom_site_fract_z
O1 O 0.02614(15) -0.10647(8) 0.16428(6)
O2 O -0.04591(15) -0.05470(8) 0.09188(6)
O3 O 0.31514(16) 0.01626(9) 0.28479(6)
O4 O 0.47238(15) 0.08483(8) 0.25284(6)
O5 O 0.49894(15) 0.12575(8) 0.06203(7)
O6 O 0.30617(16) 0.12351(8) 0.01735(6)
N1 N 0.03599(17) -0.06144(9) 0.12907(7)
N2 N 0.36905(18) 0.04879(9) 0.24800(7)
N3 N 0.37837(18) 0.10824(9) 0.05653(7)
C1 C 0.1531(2) -0.01270(10) 0.13390(8)
C2 C 0.2001(2) -0.00280(10) 0.18601(8)
H1 H 0.1598 -0.0260 0.2152
C3 C 0.3084(2) 0.04245(10) 0.19361(8)
C4 C 0.3662(2) 0.07882(10) 0.15143(8)
H2 H 0.4382 0.1101 0.1572
C5 C 0.3135(2) 0.06718(10) 0.10026(8)
C6 C 0.2095(2) 0.01915(10) 0.08796(8)
C7 C 0.1731(2) -0.00084(11) 0.03095(8)
H3 H 0.0992 -0.0342 0.0315
H4 H 0.2530 -0.0206 0.0135
H5 H 0.1437 0.0395 0.0113
O7 O 0.84233(15) 0.01114(7) 0.61805(6)
O8 O 0.99619(15) 0.03926(7) 0.55752(6)
O9 O 1.09176(14) 0.16850(7) 0.73785(6)
O10 O 0.99180(14) 0.07354(7) 0.71062(6)
O11 O 1.28856(15) 0.24741(8) 0.62856(6)
O12 O 1.25775(14) 0.15132(7) 0.58418(6)
O13 O 0.71786(15) 0.31157(8) 0.74845(6)
O14 O 0.55173(14) 0.28609(7) 0.69235(6)
O15 O 0.93515(16) 0.39631(7) 0.62619(6)
O16 O 0.82125(16) 0.36948(7) 0.55247(6)
O17 O 0.67348(14) 0.25306(7) 0.49544(5)
O18 O 0.52606(14) 0.22014(8) 0.55663(6)
N4 N 0.91245(17) 0.05201(8) 0.59305(7)
N5 N 0.99924(16) 0.13599(9) 0.71568(6)
N6 N 1.21892(17) 0.20106(9) 0.60978(7)
N7 N 0.67215(16) 0.28872(8) 0.70635(7)
N8 N 0.89839(17) 0.35731(9) 0.59007(7)
N9 N 0.64182(16) 0.23329(8) 0.54064(7)
N10 N 0.89265(16) 0.12213(8) 0.60470(7)
N11 N 0.88948(16) 0.17345(8) 0.69530(6)
N12 N 1.07514(16) 0.20140(8) 0.62233(6)
N13 N 0.76966(16) 0.26542(8) 0.66693(6)
N14 N 0.95597(17) 0.29180(8) 0.59144(6)
N15 N 0.74930(16) 0.22346(9) 0.57699(6)
C8 C 1.01706(19) 0.26604(10) 0.64172(8)
H6 H 1.0893 0.2973 0.6554
C9 C 0.90629(19) 0.24817(10) 0.68724(8)
H7 H 0.9266 0.2721 0.7214
C10 C 0.98172(19) 0.17289(10) 0.58046(8)
H8 H 1.0346 0.1530 0.5502
C11 C 0.89109(19) 0.23560(10) 0.56115(8)
H9 H 0.8991 0.2428 0.5218
C12 C 0.80898(19) 0.14322(10) 0.65016(7)
H10 H 0.7495 0.1053 0.6628
C13 C 0.7207(2) 0.20766(10) 0.63251(8)
H11 H 0.6214 0.1992 0.6381
loop_
_geom_bond_atom_site_label_1
_geom_bond_atom_site_label_2
_geom_bond_site_symmetry_1
_geom_bond_site_symmetry_2
O1 N1 1_555 1_555
O2 N1 1_555 1_555
O3 N2 1_555 1_555
O4 N2 1_555 1_555
O5 N3 1_555 1_555
O6 N3 1_555 1_555
N1 C1 1_555 1_555
N2 C3 1_555 1_555
N3 C5 1_555 1_555
C1 C2 1_555 1_555
C2 H1 1_555 1_555
C3 C2 1_555 1_555
C4 C3 1_555 1_555
H2 C4 1_555 1_555
C5 C4 1_555 1_555
C6 C1 1_555 1_555
C7 C6 1_555 1_555
H3 C7 1_555 1_555
H4 C7 1_555 1_555
H5 C7 1_555 1_555
O7 N4 1_555 1_555
O8 N4 1_555 1_555
O9 N5 1_555 1_555
O10 N5 1_555 1_555
O11 N6 1_555 1_555
O12 N6 1_555 1_555
O13 N7 1_555 1_555
O14 N7 1_555 1_555
O15 N8 1_555 1_555
O16 N8 1_555 1_555
O17 N9 1_555 1_555
O18 N9 1_555 1_555
N4 N10 1_555 1_555
N5 N11 1_555 1_555
N6 N12 1_555 1_555
N7 N13 1_555 1_555
N8 N14 1_555 1_555
N9 N15 1_555 1_555
N10 C10 1_555 1_555
N11 C9 1_555 1_555
N12 C8 1_555 1_555
N13 C9 1_555 1_555
N14 C8 1_555 1_555
N15 C11 1_555 1_555
C8 H6 1_555 1_555
C9 C8 1_555 1_555
H7 C9 1_555 1_555
C10 N12 1_555 1_555
H8 C10 1_555 1_555
C11 N14 1_555 1_555
H9 C11 1_555 1_555
C12 N10 1_555 1_555
H10 C12 1_555 1_555
C13 N13 1_555 1_555
H11 C13 1_555 1_555
C5 C6 1_555 1_555
N11 C12 1_555 1_555
N15 C13 1_555 1_555
C10 C11 1_555 1_555
C12 C13 1_555 1_555

#END
