
#######################################################################
#
#                 Cambridge Crystallographic Data Centre
#                                CCDC 
#
#######################################################################
#
# If this CIF has been generated from an entry in the Cambridge 
# Structural Database, then it will include bibliographic, chemical, 
# crystal, experimental, refinement or atomic coordinate data resulting 
# from the CCDC's data processing and validation procedures.
#
#######################################################################

data_JABCUN
_chemical_formula_moiety         'C28 H23 N1 O5'
_chemical_name_systematic        
'methyl 1-(4-methylphenyl)-2,3-dioxo-4,6-diphenyl-2,3,6,7-tetrahydropyrano[4,3-b]pyrrole-7a(1H)-carboxylate'
_symmetry_cell_setting           triclinic
_symmetry_space_group_name_H-M   'P -1'
_symmetry_Int_Tables_number      2
_space_group_name_Hall           '-P 1'
loop_
_symmetry_equiv_pos_site_id
_symmetry_equiv_pos_as_xyz
1 x,y,z
2 -x,-y,-z
_cell_length_a                   9.8601(16)
_cell_length_b                   10.858(2)
_cell_length_c                   11.841(2)
_cell_angle_alpha                80.663(15)
_cell_angle_beta                 83.183(14)
_cell_angle_gamma                67.847(17)
_cell_volume                     1156.27
_exptl_crystal_colour            yellow
_exptl_crystal_description       plate
_cell_formula_units_Z            2
loop_
_atom_site_label
_atom_site_type_symbol
_atom_site_fract_x
_atom_site_fract_y
_atom_site_fract_z
O1 O 0.02897(12) 0.54605(12) 0.15009(10)
O2 O -0.17104(14) 0.71955(15) 0.47020(11)
O3 O -0.39000(12) 0.57555(14) 0.26747(11)
N1 N -0.19184(13) 0.41638(15) 0.43804(11)
C1 C -0.14803(16) 0.45081(17) 0.31743(13)
C2 C -0.04470(15) 0.62214(17) 0.23116(14)
C3 C -0.12765(15) 0.58077(17) 0.31803(14)
C4 C 0.19569(17) 0.32841(17) 0.11803(13)
O4 O -0.24968(14) 0.51046(15) 0.60499(11)
C5 C 0.04099(17) 0.40635(18) 0.15640(14)
H1 H -0.0238 0.4026 0.1014
C6 C -0.16972(16) 0.62301(19) 0.42979(15)
C7 C -0.20974(16) 0.51217(19) 0.50406(15)
C8 C -0.00469(16) 0.35053(18) 0.27444(13)
H2 H -0.0165 0.2666 0.2703
H3 H 0.0706 0.3331 0.3271
C9 C -0.23430(16) 0.30361(18) 0.47840(14)
C10 C -0.27516(19) 0.4689(2) 0.24482(15)
O5 O -0.27094(15) 0.39453(18) 0.17949(13)
C11 C -0.03025(17) 0.75363(18) 0.21164(14)
C12 C -0.37658(18) 0.3142(2) 0.46943(18)
H4 H -0.4430 0.3920 0.4325
C13 C 0.2243(2) 0.2466(2) 0.03408(16)
H5 H 0.1471 0.2408 -0.0002
C14 C -0.1442(2) 0.8664(2) 0.24227(17)
H6 H -0.2296 0.8581 0.2794
C15 C 0.0946(2) 0.7684(2) 0.15392(16)
H7 H 0.1721 0.6940 0.1312
C16 C -0.4194(2) 0.2093(2) 0.51533(19)
H8 H -0.5150 0.2163 0.5079
C17 C -0.3239(2) 0.0934(2) 0.57228(17)
C18 C -0.1365(2) 0.1885(2) 0.53128(16)
H9 H -0.0399 0.1804 0.5360
C19 C 0.31232(19) 0.3345(2) 0.16837(18)
H10 H 0.2945 0.3884 0.2261
C20 C -0.1818(2) 0.0853(2) 0.57724(18)
H11 H -0.1145 0.0072 0.6130
C21 C 0.4536(2) 0.2617(2) 0.1338(2)
H12 H 0.5312 0.2679 0.1671
C22 C -0.3725(3) -0.0186(2) 0.6279(2)
H13 H -0.4755 0.0066 0.6195
H14 H -0.3545 -0.0364 0.7079
H15 H -0.3187 -0.0977 0.5920
C23 C 0.4812(2) 0.1808(2) 0.0515(2)
H16 H 0.5774 0.1303 0.0295
C24 C -0.1334(3) 0.9912(2) 0.21852(19)
H17 H -0.2103 1.0664 0.2407
C25 C 0.1032(3) 0.8935(3) 0.1303(2)
H18 H 0.1872 0.9031 0.0919
C26 C -0.5235(2) 0.6033(3) 0.2119(2)
H19 H -0.5005 0.5948 0.1318
H20 H -0.5898 0.6928 0.2208
H21 H -0.5686 0.5407 0.2463
C27 C 0.3668(3) 0.1732(2) 0.0005(2)
H22 H 0.3858 0.1184 -0.0567
C28 C -0.0094(3) 1.0037(3) 0.1624(2)
H23 H -0.0016 1.0876 0.1461
loop_
_geom_bond_atom_site_label_1
_geom_bond_atom_site_label_2
_geom_bond_site_symmetry_1
_geom_bond_site_symmetry_2
O1 C2 1_555 1_555
O2 C6 1_555 1_555
O3 C10 1_555 1_555
N1 C1 1_555 1_555
C1 C3 1_555 1_555
C2 C3 1_555 1_555
C3 C6 1_555 1_555
C4 C5 1_555 1_555
O4 C7 1_555 1_555
C5 O1 1_555 1_555
H1 C5 1_555 1_555
C6 C7 1_555 1_555
C7 N1 1_555 1_555
C8 C1 1_555 1_555
H2 C8 1_555 1_555
H3 C8 1_555 1_555
C9 N1 1_555 1_555
C10 C1 1_555 1_555
O5 C10 1_555 1_555
C11 C2 1_555 1_555
C12 C9 1_555 1_555
H4 C12 1_555 1_555
C13 C4 1_555 1_555
H5 C13 1_555 1_555
C14 C11 1_555 1_555
H6 C14 1_555 1_555
C15 C11 1_555 1_555
H7 C15 1_555 1_555
C16 C12 1_555 1_555
H8 C16 1_555 1_555
C17 C16 1_555 1_555
C18 C9 1_555 1_555
H9 C18 1_555 1_555
C19 C4 1_555 1_555
H10 C19 1_555 1_555
C20 C17 1_555 1_555
H11 C20 1_555 1_555
C21 C19 1_555 1_555
H12 C21 1_555 1_555
C22 C17 1_555 1_555
H13 C22 1_555 1_555
H14 C22 1_555 1_555
H15 C22 1_555 1_555
C23 C21 1_555 1_555
H16 C23 1_555 1_555
C24 C14 1_555 1_555
H17 C24 1_555 1_555
C25 C15 1_555 1_555
H18 C25 1_555 1_555
C26 O3 1_555 1_555
H19 C26 1_555 1_555
H20 C26 1_555 1_555
H21 C26 1_555 1_555
C27 C13 1_555 1_555
H22 C27 1_555 1_555
C28 C24 1_555 1_555
H23 C28 1_555 1_555
C5 C8 1_555 1_555
C18 C20 1_555 1_555
C23 C27 1_555 1_555
C25 C28 1_555 1_555

#END
