
#######################################################################
#
#                 Cambridge Crystallographic Data Centre
#                                CCDC 
#
#######################################################################
#
# If this CIF has been generated from an entry in the Cambridge 
# Structural Database, then it will include bibliographic, chemical, 
# crystal, experimental, refinement or atomic coordinate data resulting 
# from the CCDC's data processing and validation procedures.
#
#######################################################################

data_JABQOV
_chemical_formula_moiety         'C29 H29 F1 O3'
_chemical_name_systematic        
'4-fluorophenyl 4-((4-(octyloxy)phenyl)ethynyl)benzoate'
_symmetry_cell_setting           orthorhombic
_symmetry_space_group_name_H-M   'P c a 21'
_symmetry_Int_Tables_number      29
_space_group_name_Hall           'P 2c -2ac'
loop_
_symmetry_equiv_pos_site_id
_symmetry_equiv_pos_as_xyz
1 x,y,z
2 -x,-y,1/2+z
3 1/2-x,y,1/2+z
4 1/2+x,-y,z
_cell_length_a                   5.9834(4)
_cell_length_b                   7.2529(5)
_cell_length_c                   55.184(4)
_cell_angle_alpha                90
_cell_angle_beta                 90
_cell_angle_gamma                90
_cell_volume                     2394.82
_exptl_crystal_colour            colorless
_exptl_crystal_description       plate
_cell_formula_units_Z            4
_exptl_crystal_recrystallization_method Methanol/dichloromethane
loop_
_atom_site_label
_atom_site_type_symbol
_atom_site_fract_x
_atom_site_fract_y
_atom_site_fract_z
F1 F 0.9874(2) 0.2587(2) 0.73957(3)
O1 O 0.7023(2) 0.2272(2) 0.64545(2)
O2 O 1.0037(2) 0.3718(2) 0.62976(3)
O3 O -0.0201(2) 0.2729(2) 0.42075(3)
C1 C 0.9198(4) 0.2540(3) 0.71604(4)
C2 C 0.7185(4) 0.3320(3) 0.71002(4)
H1 H 0.6274 0.3883 0.7220
C3 C 0.6508(3) 0.3269(3) 0.68589(4)
H2 H 0.5127 0.3805 0.6811
C4 C 0.7861(3) 0.2432(3) 0.66901(4)
C5 C 0.9883(3) 0.1652(3) 0.67531(4)
H3 H 1.0797 0.1085 0.6634
C6 C 1.0565(3) 0.1706(3) 0.69938(4)
H4 H 1.1948 0.1177 0.7042
C7 C 0.8260(3) 0.2981(3) 0.62684(4)
C8 C 0.7125(3) 0.2712(3) 0.60316(4)
C9 C 0.5010(3) 0.1917(3) 0.60115(4)
H5 H 0.4252 0.1496 0.6152
C10 C 0.4022(3) 0.1745(3) 0.57864(3)
H6 H 0.2593 0.1184 0.5773
C11 C 0.5095(3) 0.2383(3) 0.55783(4)
C12 C 0.7233(3) 0.3163(3) 0.56003(4)
H7 H 0.7997 0.3585 0.5460
C13 C 0.8229(3) 0.3317(3) 0.58250(4)
H8 H 0.9679 0.3841 0.5838
C14 C 0.4005(3) 0.2344(3) 0.53485(4)
C15 C 0.3096(3) 0.2412(3) 0.51539(4)
C16 C 0.2160(3) 0.2482(3) 0.49155(4)
C17 C 0.0101(3) 0.1666(3) 0.48601(4)
H9 H -0.0734 0.1085 0.4985
C18 C -0.0741(3) 0.1691(3) 0.46255(4)
H10 H -0.2130 0.1119 0.4590
C19 C 0.0472(3) 0.2563(3) 0.44439(4)
C20 C 0.2502(3) 0.3407(3) 0.44970(4)
H11 H 0.3311 0.4018 0.4372
C21 C 0.3342(3) 0.3362(3) 0.47286(4)
H12 H 0.4736 0.3932 0.4763
C22 C -0.2360(3) 0.2044(3) 0.41374(4)
H13 H -0.3515 0.2440 0.4255
H14 H -0.2350 0.0681 0.4130
C23 C -0.2826(3) 0.2852(3) 0.38896(4)
H15 H -0.1532 0.2601 0.3783
H16 H -0.2974 0.4207 0.3905
C24 C -0.4932(3) 0.2091(3) 0.37705(4)
H17 H -0.6243 0.2390 0.3873
H18 H -0.4818 0.0732 0.3760
C25 C -0.5284(3) 0.2884(3) 0.35173(4)
H19 H -0.5483 0.4236 0.3531
H20 H -0.3924 0.2657 0.3420
C26 C -0.7284(4) 0.2077(3) 0.33854(4)
H21 H -0.8650 0.2338 0.3481
H22 H -0.7108 0.0721 0.3377
C27 C -0.7594(4) 0.2831(4) 0.31288(4)
H23 H -0.7824 0.4181 0.3138
H24 H -0.6212 0.2605 0.3035
C28 C -0.9551(4) 0.1965(4) 0.29971(4)
H25 H -1.0935 0.2213 0.3090
H26 H -0.9334 0.0613 0.2992
C29 C -0.9857(5) 0.2670(6) 0.27393(5)
H27 H -0.8570 0.2303 0.2641
H28 H -0.9974 0.4018 0.2741
H29 H -1.1224 0.2144 0.2670
loop_
_geom_bond_atom_site_label_1
_geom_bond_atom_site_label_2
_geom_bond_site_symmetry_1
_geom_bond_site_symmetry_2
F1 C1 1_555 1_555
O1 C4 1_555 1_555
O2 C7 1_555 1_555
O3 C19 1_555 1_555
C1 C2 1_555 1_555
C2 H1 1_555 1_555
C3 C2 1_555 1_555
H2 C3 1_555 1_555
C4 C3 1_555 1_555
C5 C4 1_555 1_555
H3 C5 1_555 1_555
C6 C1 1_555 1_555
H4 C6 1_555 1_555
C7 O1 1_555 1_555
C8 C7 1_555 1_555
C9 C8 1_555 1_555
H5 C9 1_555 1_555
C10 C9 1_555 1_555
H6 C10 1_555 1_555
C11 C10 1_555 1_555
C12 C11 1_555 1_555
H7 C12 1_555 1_555
C13 C8 1_555 1_555
H8 C13 1_555 1_555
C14 C11 1_555 1_555
C15 C14 1_555 1_555
C16 C15 1_555 1_555
C17 C16 1_555 1_555
H9 C17 1_555 1_555
C18 C17 1_555 1_555
H10 C18 1_555 1_555
C19 C18 1_555 1_555
C20 C19 1_555 1_555
H11 C20 1_555 1_555
C21 C16 1_555 1_555
H12 C21 1_555 1_555
C22 O3 1_555 1_555
H13 C22 1_555 1_555
H14 C22 1_555 1_555
C23 C22 1_555 1_555
H15 C23 1_555 1_555
H16 C23 1_555 1_555
C24 C23 1_555 1_555
H17 C24 1_555 1_555
H18 C24 1_555 1_555
C25 C24 1_555 1_555
H19 C25 1_555 1_555
H20 C25 1_555 1_555
C26 C25 1_555 1_555
H21 C26 1_555 1_555
H22 C26 1_555 1_555
C27 C26 1_555 1_555
H23 C27 1_555 1_555
H24 C27 1_555 1_555
C28 C27 1_555 1_555
H25 C28 1_555 1_555
H26 C28 1_555 1_555
C29 C28 1_555 1_555
H27 C29 1_555 1_555
H28 C29 1_555 1_555
H29 C29 1_555 1_555
C5 C6 1_555 1_555
C12 C13 1_555 1_555
C20 C21 1_555 1_555

#END
