
#######################################################################
#
#                 Cambridge Crystallographic Data Centre
#                                CCDC 
#
#######################################################################
#
# If this CIF has been generated from an entry in the Cambridge 
# Structural Database, then it will include bibliographic, chemical, 
# crystal, experimental, refinement or atomic coordinate data resulting 
# from the CCDC's data processing and validation procedures.
#
#######################################################################

data_JABRIO
_chemical_formula_moiety         'C13 H4 F8 N2 O1 S1'
_chemical_name_systematic        
2-Pentafluoroethyl-3-trifluoromethyl-9-thia-1,4a-diazafluoren-4-one
_symmetry_cell_setting           monoclinic
_symmetry_space_group_name_H-M   'P 21'
_symmetry_Int_Tables_number      4
_space_group_name_Hall           'P 2yb'
loop_
_symmetry_equiv_pos_site_id
_symmetry_equiv_pos_as_xyz
1 x,y,z
2 -x,1/2+y,-z
_cell_length_a                   9.7280(10)
_cell_length_b                   6.8790(10)
_cell_length_c                   10.5810(10)
_cell_angle_alpha                90
_cell_angle_beta                 97.040(10)
_cell_angle_gamma                90
_cell_volume                     702.731
_exptl_crystal_colour            'bright yellow'
_chemical_melting_point          149-150deg.C
_cell_formula_units_Z            2
_exptl_crystal_recrystallization_method 'ethyl acetate/hexane'
loop_
_atom_site_label
_atom_site_type_symbol
_atom_site_fract_x
_atom_site_fract_y
_atom_site_fract_z
S1 S 0.65862(13) 0.0935(5) 0.82168(12)
N1 N 0.4241(4) 0.0899(15) 0.9107(4)
N2 N 0.4099(4) 0.0980(19) 0.6866(4)
C1 C 0.5236(5) 0.0925(18) 1.0202(4)
C2 C 0.5023(7) 0.095(2) 1.1471(5)
C3 C 0.6171(7) 0.093(2) 1.2381(6)
C4 C 0.7507(7) 0.101(2) 1.2031(6)
C5 C 0.7719(6) 0.094(2) 1.0769(6)
C6 C 0.6584(5) 0.0917(19) 0.9868(5)
C7 C 0.4805(5) 0.1026(17) 0.7998(5)
C8 C 0.2774(5) 0.0960(19) 0.9117(5)
C9 C 0.2005(5) 0.091(2) 0.7847(6)
C10 C 0.2710(5) 0.093(2) 0.6809(5)
C11 C 0.0440(6) 0.094(3) 0.7828(7)
C12 C 0.2019(7) 0.099(3) 0.5434(7)
C13 C 0.2866(10) 0.081(4) 0.4388(7)
O1 O 0.2290(4) 0.096(2) 1.0110(4)
F1 F 0.0048(9) 0.2410(16) 0.8506(12)
F2 F -0.0001(11) -0.0535(15) 0.8378(18)
F3 F -0.0223(5) 0.146(3) 0.6802(6)
F4 F 0.1234(13) 0.257(2) 0.5199(11)
F5 F 0.1197(11) -0.063(2) 0.5231(8)
F6 F 0.2077(5) 0.095(3) 0.3284(4)
F7 F 0.3587(11) 0.2693(15) 0.4516(9)
F8 F 0.3734(8) -0.043(2) 0.4397(8)
H1 H 0.422(7) 0.119(17) 1.170(6)
H2 H 0.609(9) 0.07(2) 1.320(8)
H3 H 0.826(7) 0.144(12) 1.275(7)
H4 H 0.861(6) 0.119(15) 1.056(5)
loop_
_geom_bond_atom_site_label_1
_geom_bond_atom_site_label_2
_geom_bond_site_symmetry_1
_geom_bond_site_symmetry_2
S1 C6 1_555 1_555
N1 C1 1_555 1_555
N2 C7 1_555 1_555
C1 C2 1_555 1_555
C2 C3 1_555 1_555
C3 C4 1_555 1_555
C4 C5 1_555 1_555
C5 C6 1_555 1_555
C6 C1 1_555 1_555
C7 S1 1_555 1_555
C8 N1 1_555 1_555
C9 C8 1_555 1_555
C10 N2 1_555 1_555
C11 C9 1_555 1_555
C12 C10 1_555 1_555
C13 C12 1_555 1_555
O1 C8 1_555 1_555
F1 C11 1_555 1_555
F2 C11 1_555 1_555
F3 C11 1_555 1_555
F4 C12 1_555 1_555
F5 C12 1_555 1_555
F6 C13 1_555 1_555
F7 C13 1_555 1_555
F8 C13 1_555 1_555
H1 C2 1_555 1_555
H2 C3 1_555 1_555
H3 C4 1_555 1_555
H4 C5 1_555 1_555
N1 C7 1_555 1_555
C9 C10 1_555 1_555

#END
