
#######################################################################
#
#                 Cambridge Crystallographic Data Centre
#                                CCDC 
#
#######################################################################
#
# If this CIF has been generated from an entry in the Cambridge 
# Structural Database, then it will include bibliographic, chemical, 
# crystal, experimental, refinement or atomic coordinate data resulting 
# from the CCDC's data processing and validation procedures.
#
#######################################################################

data_JABREK
_chemical_formula_moiety         'C26 H14 F8 N2'
_chemical_name_systematic        
4-(Naphthalen-1-ylamino)-2-pentafluoroethyl-3-trifluoromethylbenzo(h)quinoline
_symmetry_cell_setting           monoclinic
_symmetry_space_group_name_H-M   'C 2/c'
_symmetry_Int_Tables_number      15
_space_group_name_Hall           '-C 2yn'
loop_
_symmetry_equiv_pos_site_id
_symmetry_equiv_pos_as_xyz
1 x,y,z
2 1/2+x,1/2+y,z
3 -x,y,1/2-z
4 1/2-x,1/2+y,1/2-z
5 -x,-y,-z
6 1/2-x,1/2-y,-z
7 x,-y,1/2+z
8 1/2+x,1/2-y,1/2+z
_cell_length_a                   11.837(3)
_cell_length_b                   23.255(4)
_cell_length_c                   16.650(4)
_cell_angle_alpha                90
_cell_angle_beta                 107.670(10)
_cell_angle_gamma                90
_cell_volume                     4367
_exptl_crystal_colour            yellow
_exptl_crystal_description       prism
_chemical_melting_point          146-148deg.C
_cell_formula_units_Z            8
loop_
_atom_site_label
_atom_site_type_symbol
_atom_site_fract_x
_atom_site_fract_y
_atom_site_fract_z
F1 F 0.4605(2) 0.15476(9) -0.17379(12)
F2 F 0.63283(18) 0.13735(9) -0.08108(15)
F3 F 0.5327(3) 0.05842(9) -0.00689(19)
F4 F 0.3603(2) 0.07678(10) -0.09363(16)
F5 F 0.5016(3) 0.04705(10) -0.13902(18)
F6 F 0.6526(2) 0.30665(10) -0.05552(16)
F7 F 0.4932(2) 0.30999(11) -0.15507(14)
F8 F 0.6079(3) 0.23830(10) -0.14195(19)
N1 N 0.4485(2) 0.16296(10) 0.02410(15)
N2 N 0.4571(3) 0.34215(12) 0.0025(2)
H1 H 0.459(3) 0.3531(16) -0.044(2)
C1 C 0.4876(3) 0.18670(12) -0.03406(18)
C2 C 0.4998(3) 0.24674(13) -0.04250(19)
C3 C 0.4584(3) 0.28255(13) 0.00987(19)
C4 C 0.4117(3) 0.25765(14) 0.0710(2)
C5 C 0.3594(3) 0.29022(19) 0.1238(3)
H2 H 0.354(3) 0.3310(16) 0.118(2)
C6 C 0.3196(4) 0.2634(2) 0.1816(3)
H3 H 0.287(3) 0.2837(16) 0.210(2)
C7 C 0.3272(3) 0.2028(2) 0.1944(2)
C8 C 0.2896(4) 0.1752(3) 0.2576(3)
H4 H 0.262(4) 0.1972(19) 0.291(3)
C9 C 0.2969(4) 0.1172(3) 0.2666(3)
H5 H 0.274(4) 0.0997(19) 0.313(3)
C10 C 0.3410(4) 0.0837(2) 0.2143(3)
H6 H 0.344(4) 0.0404(19) 0.223(3)
C11 C 0.3791(3) 0.10924(19) 0.1529(2)
H7 H 0.415(3) 0.0863(14) 0.117(2)
C12 C 0.3730(3) 0.16915(16) 0.1417(2)
C13 C 0.4135(3) 0.19748(14) 0.07839(19)
C14 C 0.5145(3) 0.37984(13) 0.0710(2)
C15 C 0.4644(3) 0.43523(12) 0.0721(2)
C16 C 0.3592(3) 0.45335(16) 0.0107(3)
H8 H 0.318(3) 0.4269(15) -0.034(2)
C17 C 0.3158(4) 0.50733(18) 0.0135(4)
H9 H 0.246(4) 0.5187(17) -0.029(2)
C18 C 0.3752(5) 0.54560(18) 0.0761(4)
H10 H 0.342(3) 0.5835(18) 0.076(2)
C19 C 0.4750(5) 0.53035(16) 0.1362(3)
H11 H 0.526(4) 0.5541(19) 0.183(3)
C20 C 0.5235(3) 0.47385(13) 0.1367(2)
C21 C 0.6270(4) 0.45566(18) 0.1991(3)
H12 H 0.668(3) 0.4802(16) 0.247(2)
C22 C 0.6713(4) 0.4021(2) 0.1962(3)
H13 H 0.743(3) 0.3892(15) 0.240(2)
C23 C 0.6154(3) 0.36405(16) 0.1311(2)
H14 H 0.647(3) 0.3281(14) 0.1272(19)
C24 C 0.5151(3) 0.14153(13) -0.0914(2)
C25 C 0.4760(4) 0.08023(16) -0.0811(3)
C26 C 0.5622(4) 0.27379(15) -0.0990(2)
loop_
_geom_bond_atom_site_label_1
_geom_bond_atom_site_label_2
_geom_bond_site_symmetry_1
_geom_bond_site_symmetry_2
F1 C24 1_555 1_555
F2 C24 1_555 1_555
F3 C25 1_555 1_555
F4 C25 1_555 1_555
F5 C25 1_555 1_555
F6 C26 1_555 1_555
F7 C26 1_555 1_555
F8 C26 1_555 1_555
N1 C1 1_555 1_555
N2 H1 1_555 1_555
C1 C2 1_555 1_555
C2 C3 1_555 1_555
C3 N2 1_555 1_555
C4 C3 1_555 1_555
C5 C4 1_555 1_555
H2 C5 1_555 1_555
C6 C5 1_555 1_555
H3 C6 1_555 1_555
C7 C6 1_555 1_555
C8 C7 1_555 1_555
H4 C8 1_555 1_555
C9 C8 1_555 1_555
H5 C9 1_555 1_555
C10 C9 1_555 1_555
H6 C10 1_555 1_555
C11 C10 1_555 1_555
H7 C11 1_555 1_555
C12 C7 1_555 1_555
C13 N1 1_555 1_555
C14 N2 1_555 1_555
C15 C14 1_555 1_555
C16 C15 1_555 1_555
H8 C16 1_555 1_555
C17 C16 1_555 1_555
H9 C17 1_555 1_555
C18 C17 1_555 1_555
H10 C18 1_555 1_555
C19 C18 1_555 1_555
H11 C19 1_555 1_555
C20 C15 1_555 1_555
C21 C20 1_555 1_555
H12 C21 1_555 1_555
C22 C21 1_555 1_555
H13 C22 1_555 1_555
C23 C14 1_555 1_555
H14 C23 1_555 1_555
C24 C1 1_555 1_555
C25 C24 1_555 1_555
C26 C2 1_555 1_555
C4 C13 1_555 1_555
C11 C12 1_555 1_555
C12 C13 1_555 1_555
C19 C20 1_555 1_555
C22 C23 1_555 1_555

#END
