
#######################################################################
#
#                 Cambridge Crystallographic Data Centre
#                                CCDC 
#
#######################################################################
#
# If this CIF has been generated from an entry in the Cambridge 
# Structural Database, then it will include bibliographic, chemical, 
# crystal, experimental, refinement or atomic coordinate data resulting 
# from the CCDC's data processing and validation procedures.
#
#######################################################################

data_JABTEO
_chemical_formula_moiety         'C22 H16 N2 O2'
_chemical_name_systematic        
2-(2-(2-hydroxyphenyl)vinyl)-3-phenylquinazolin-4(3H)-one
_symmetry_cell_setting           triclinic
_symmetry_space_group_name_H-M   'P -1'
_symmetry_Int_Tables_number      2
_space_group_name_Hall           '-P 1'
loop_
_symmetry_equiv_pos_site_id
_symmetry_equiv_pos_as_xyz
1 x,y,z
2 -x,-y,-z
_cell_length_a                   8.8760(18)
_cell_length_b                   9.6168(14)
_cell_length_c                   10.734(2)
_cell_angle_alpha                91.142(15)
_cell_angle_beta                 113.02(2)
_cell_angle_gamma                98.448(14)
_cell_volume                     831.11
_exptl_crystal_colour            yellow
_exptl_crystal_description       prism
_cell_formula_units_Z            2
loop_
_atom_site_label
_atom_site_type_symbol
_atom_site_fract_x
_atom_site_fract_y
_atom_site_fract_z
N1 N 0.20028(11) 0.14476(10) 0.21182(10)
O1 O -0.42648(11) 0.18816(9) -0.31534(10)
C1 C 0.03775(14) 0.13730(12) 0.11588(12)
N2 N -0.08891(12) 0.06114(11) 0.12708(10)
O2 O 0.37627(10) 0.10402(9) 0.42183(9)
C2 C 0.23544(15) 0.07971(13) 0.33268(12)
C3 C 0.09716(15) -0.01458(13) 0.34007(12)
C4 C 0.12080(16) -0.10058(13) 0.44730(13)
H1 H 0.2260 -0.0962 0.5159
C5 C -0.01067(17) -0.19082(14) 0.45113(14)
H2 H 0.0050 -0.2495 0.5214
C6 C -0.16866(17) -0.19504(14) 0.34957(14)
H3 H -0.2580 -0.2557 0.3538
C7 C -0.19487(16) -0.11138(14) 0.24351(14)
H4 H -0.3011 -0.1153 0.1766
C8 C -0.06042(15) -0.01998(13) 0.23681(13)
C9 C 0.34059(14) 0.22248(13) 0.19130(12)
C10 C 0.36544(16) 0.36728(14) 0.19938(14)
H5 H 0.2950 0.4164 0.2211
C11 C 0.49606(19) 0.43878(17) 0.17498(16)
H6 H 0.5133 0.5368 0.1787
C12 C 0.60118(19) 0.3648(2) 0.14498(17)
H7 H 0.6885 0.4133 0.1275
C13 C 0.57794(17) 0.2199(2) 0.14071(17)
H8 H 0.6511 0.1710 0.1228
C14 C 0.44567(16) 0.14721(16) 0.16312(14)
H9 H 0.4280 0.0492 0.1592
C15 C 0.01246(14) 0.21917(13) -0.00152(12)
H10 H 0.1052 0.2579 -0.0171
C16 C -0.13505(15) 0.24151(12) -0.08720(12)
H11 H -0.2276 0.2012 -0.0721
C17 C -0.16220(14) 0.32520(13) -0.20376(12)
C18 C -0.04064(15) 0.43445(14) -0.20530(14)
H12 H 0.0578 0.4578 -0.1286
C19 C -0.06366(17) 0.50831(15) -0.31826(15)
H13 H 0.0192 0.5800 -0.3178
C20 C -0.21003(17) 0.47551(15) -0.43197(15)
H14 H -0.2254 0.5249 -0.5084
C21 C -0.33361(16) 0.36990(13) -0.43284(13)
H15 H -0.4326 0.3488 -0.5094
C22 C -0.31014(14) 0.29506(13) -0.31939(13)
H16 H -0.500(2) 0.1591(17) -0.4038(19)
loop_
_geom_bond_atom_site_label_1
_geom_bond_atom_site_label_2
_geom_bond_site_symmetry_1
_geom_bond_site_symmetry_2
N1 C1 1_555 1_555
O1 C22 1_555 1_555
C1 N2 1_555 1_555
N2 C8 1_555 1_555
O2 C2 1_555 1_555
C2 N1 1_555 1_555
C3 C2 1_555 1_555
C4 C3 1_555 1_555
H1 C4 1_555 1_555
C5 C4 1_555 1_555
H2 C5 1_555 1_555
C6 C5 1_555 1_555
H3 C6 1_555 1_555
C7 C6 1_555 1_555
H4 C7 1_555 1_555
C8 C3 1_555 1_555
C9 N1 1_555 1_555
C10 C9 1_555 1_555
H5 C10 1_555 1_555
C11 C10 1_555 1_555
H6 C11 1_555 1_555
C12 C11 1_555 1_555
H7 C12 1_555 1_555
C13 C12 1_555 1_555
H8 C13 1_555 1_555
C14 C9 1_555 1_555
H9 C14 1_555 1_555
C15 C1 1_555 1_555
H10 C15 1_555 1_555
C16 C15 1_555 1_555
H11 C16 1_555 1_555
C17 C16 1_555 1_555
C18 C17 1_555 1_555
H12 C18 1_555 1_555
C19 C18 1_555 1_555
H13 C19 1_555 1_555
C20 C19 1_555 1_555
H14 C20 1_555 1_555
C21 C20 1_555 1_555
H15 C21 1_555 1_555
C22 C17 1_555 1_555
H16 O1 1_555 1_555
C7 C8 1_555 1_555
C13 C14 1_555 1_555
C21 C22 1_555 1_555

#END
