
#######################################################################
#
#                 Cambridge Crystallographic Data Centre
#                                CCDC 
#
#######################################################################
#
# If this CIF has been generated from an entry in the Cambridge 
# Structural Database, then it will include bibliographic, chemical, 
# crystal, experimental, refinement or atomic coordinate data resulting 
# from the CCDC's data processing and validation procedures.
#
#######################################################################

data_JABYIX01
_chemical_name_common            
"bis(2,4,6,8,10,12-hexanitro-2,4,6,8,10,12-hexa-azaisowurtzitane) N,N'-dimethyl-N,N'-dinitromethanediamine"
_chemical_formula_moiety         '2(C6 H6 N12 O12),C3 H8 N4 O4'
_chemical_name_systematic        
"bis(2,4,6,8,10,12-hexanitro-2,4,6,8,10,12-hexa-azatetracyclo[5.5.0.0^3,11^.0^5,9^]dodecane) N,N'-dimethyl-N,N'-dinitromethanediamine"
_symmetry_cell_setting           monoclinic
_symmetry_space_group_name_H-M   'P 21/c'
_symmetry_Int_Tables_number      14
_space_group_name_Hall           '-P 2ybc'
loop_
_symmetry_equiv_pos_site_id
_symmetry_equiv_pos_as_xyz
1 x,y,z
2 -x,1/2+y,1/2-z
3 -x,-y,-z
4 x,1/2-y,1/2+z
_cell_length_a                   13.022(2)
_cell_length_b                   22.619(4)
_cell_length_c                   12.962(2)
_cell_angle_alpha                90
_cell_angle_beta                 104.648(3)
_cell_angle_gamma                90
_cell_volume                     3693.8
_exptl_crystal_colour            colorless
_exptl_crystal_description       prism
_chemical_melting_point          '54.4 deg.C'
_cell_formula_units_Z            4
loop_
_atom_site_label
_atom_site_type_symbol
_atom_site_fract_x
_atom_site_fract_y
_atom_site_fract_z
N1 N 0.27949(13) 0.57126(8) 0.84168(13)
N2 N 0.22413(13) 0.65440(8) 0.91634(12)
N3 N 0.35554(13) 0.71519(7) 0.86665(12)
N4 N 0.18650(12) 0.70678(7) 0.73063(12)
N5 N 0.23564(12) 0.62481(7) 0.66041(12)
N6 N 0.27940(18) 0.51432(9) 0.88636(15)
N7 N 0.19090(16) 0.64798(9) 1.01218(15)
N8 N 0.38192(14) 0.76973(8) 0.91977(15)
N9 N 0.12421(14) 0.74430(9) 0.77459(14)
N10 N 0.19379(14) 0.62615(7) 0.54718(13)
N11 N 0.48429(13) 0.58936(8) 0.74803(15)
N12 N 0.41137(12) 0.62643(7) 0.78233(13)
O1 O 0.19213(15) 0.49391(8) 0.88507(15)
O2 O 0.36461(16) 0.48988(8) 0.91473(16)
O3 O 0.11618(13) 0.61559(9) 1.00919(13)
O4 O 0.23799(16) 0.67817(9) 1.08653(14)
O5 O 0.39772(14) 0.76834(7) 1.01622(13)
O6 O 0.39086(13) 0.81164(7) 0.86470(13)
O7 O 0.03776(12) 0.72437(8) 0.77841(14)
O8 O 0.16002(14) 0.79304(8) 0.80235(15)
O9 O 0.53779(14) 0.55730(8) 0.81596(15)
O10 O 0.48996(12) 0.59525(7) 0.65662(13)
O11 O 0.09789(12) 0.62598(8) 0.51358(12)
O12 O 0.25877(12) 0.62345(7) 0.49479(11)
C1 C 0.37577(15) 0.60764(9) 0.87448(15)
H1 H 0.4321 0.5866 0.9258
C2 C 0.33826(15) 0.66403(9) 0.92688(15)
H2 H 0.3770 0.6677 1.0020
C3 C 0.33614(14) 0.65894(8) 0.70079(15)
H3 H 0.3674 0.6697 0.6421
C4 C 0.30257(14) 0.71559(9) 0.75410(15)
H4 H 0.3197 0.7516 0.7198
C5 C 0.18778(16) 0.60994(10) 0.83297(16)
H5 H 0.1261 0.5881 0.8432
C6 C 0.16172(15) 0.64353(9) 0.72151(15)
H6 H 0.0881 0.6368 0.6816
N13 N 0.22717(12) 0.42093(7) 0.65818(13)
N14 N 0.09428(12) 0.36564(7) 0.71547(13)
N15 N 0.27620(12) 0.35012(8) 0.81696(12)
N16 N 0.29907(12) 0.27604(7) 0.70228(13)
N17 N 0.12036(13) 0.28433(7) 0.59572(13)
N18 N 0.24736(12) 0.35049(7) 0.54451(12)
N19 N 0.23276(15) 0.47917(8) 0.61967(14)
N20 N 0.04123(14) 0.40340(9) 0.77274(17)
N21 N 0.32718(15) 0.34353(8) 0.92705(14)
N22 N 0.36585(15) 0.22667(8) 0.73978(14)
N23 N 0.06957(14) 0.23741(8) 0.53234(14)
N24 N 0.29629(16) 0.31311(9) 0.48934(14)
O13 O 0.31985(13) 0.49697(7) 0.61649(14)
O14 O 0.15051(13) 0.50724(7) 0.60096(16)
O15 O 0.03871(16) 0.38761(9) 0.86083(16)
O16 O -0.00020(14) 0.44742(8) 0.72514(16)
O17 O 0.42385(13) 0.34222(9) 0.95118(13)
O18 O 0.27011(14) 0.34274(9) 0.98763(13)
O19 O 0.46068(12) 0.23704(8) 0.76594(14)
O20 O 0.32251(14) 0.17908(7) 0.73530(14)
O21 O 0.08124(14) 0.18894(7) 0.57225(13)
O22 O 0.01564(15) 0.25048(8) 0.44380(13)
O23 O 0.39257(14) 0.31519(9) 0.51012(16)
O24 O 0.23797(14) 0.28138(8) 0.42225(13)
C7 C 0.33763(14) 0.33484(9) 0.74100(15)
H7 H 0.4141 0.3348 0.7743
C8 C 0.30712(15) 0.37935(9) 0.64247(15)
H8 H 0.3698 0.3999 0.6316
C9 C 0.12231(15) 0.39143(9) 0.62440(16)
H9 H 0.0676 0.4193 0.5875
C10 C 0.13669(15) 0.34012(8) 0.54806(15)
H10 H 0.0880 0.3446 0.4773
C11 C 0.16913(15) 0.32368(9) 0.77784(15)
H11 H 0.1433 0.3081 0.8372
C12 C 0.18586(15) 0.27222(9) 0.70152(15)
H12 H 0.1688 0.2337 0.7274
N25 N 0.15486(18) 0.44656(10) 0.30792(18)
N26 N 0.18351(15) 0.47772(9) 0.23088(15)
N27 N 0.33916(13) 0.54278(9) 0.27847(14)
N28 N 0.38118(14) 0.56039(8) 0.19896(15)
O25 O 0.1895(2) 0.46274(11) 0.40041(16)
O26 O 0.09656(19) 0.40340(10) 0.28215(18)
O27 O 0.32514(13) 0.55893(8) 0.10661(13)
O28 O 0.47527(13) 0.57583(8) 0.22320(14)
C13 C 0.1378(3) 0.45974(17) 0.1216(2)
H13 H 0.1472 0.4179 0.1150
H14 H 0.1726 0.4804 0.0752
H15 H 0.0635 0.4690 0.1021
C14 C 0.22449(16) 0.53759(10) 0.25722(18)
H16 H 0.1923 0.5636 0.1985
H17 H 0.2027 0.5511 0.3195
C15 C 0.40838(18) 0.54023(11) 0.38648(18)
H18 H 0.4700 0.5169 0.3864
H19 H 0.3707 0.5226 0.4334
H20 H 0.4299 0.5795 0.4106
loop_
_geom_bond_atom_site_label_1
_geom_bond_atom_site_label_2
_geom_bond_site_symmetry_1
_geom_bond_site_symmetry_2
N1 N6 1_555 1_555
N2 N7 1_555 1_555
N3 N8 1_555 1_555
N4 N9 1_555 1_555
N5 N10 1_555 1_555
N6 O1 1_555 1_555
N7 O3 1_555 1_555
N8 O5 1_555 1_555
N9 O7 1_555 1_555
N10 O11 1_555 1_555
N11 N12 1_555 1_555
N12 C1 1_555 1_555
O2 N6 1_555 1_555
O4 N7 1_555 1_555
O6 N8 1_555 1_555
O8 N9 1_555 1_555
O9 N11 1_555 1_555
O10 N11 1_555 1_555
O12 N10 1_555 1_555
C1 N1 1_555 1_555
H1 C1 1_555 1_555
C2 N2 1_555 1_555
H2 C2 1_555 1_555
C3 N5 1_555 1_555
H3 C3 1_555 1_555
C4 N3 1_555 1_555
H4 C4 1_555 1_555
C5 N1 1_555 1_555
H5 C5 1_555 1_555
C6 N4 1_555 1_555
H6 C6 1_555 1_555
N13 N19 1_555 1_555
N14 N20 1_555 1_555
N15 N21 1_555 1_555
N16 N22 1_555 1_555
N17 N23 1_555 1_555
N18 N24 1_555 1_555
N19 O13 1_555 1_555
N20 O15 1_555 1_555
N21 O17 1_555 1_555
N22 O19 1_555 1_555
N23 O21 1_555 1_555
N24 O23 1_555 1_555
O14 N19 1_555 1_555
O16 N20 1_555 1_555
O18 N21 1_555 1_555
O20 N22 1_555 1_555
O22 N23 1_555 1_555
O24 N24 1_555 1_555
C7 N15 1_555 1_555
H7 C7 1_555 1_555
C8 N13 1_555 1_555
H8 C8 1_555 1_555
C9 N13 1_555 1_555
H9 C9 1_555 1_555
C10 N17 1_555 1_555
H10 C10 1_555 1_555
C11 N14 1_555 1_555
H11 C11 1_555 1_555
C12 N16 1_555 1_555
H12 C12 1_555 1_555
N25 N26 1_555 1_555
N26 C13 1_555 1_555
N27 N28 1_555 1_555
N28 O27 1_555 1_555
O25 N25 1_555 1_555
O26 N25 1_555 1_555
O28 N28 1_555 1_555
C13 H13 1_555 1_555
H14 C13 1_555 1_555
H15 C13 1_555 1_555
C14 N26 1_555 1_555
H16 C14 1_555 1_555
H17 C14 1_555 1_555
C15 N27 1_555 1_555
H18 C15 1_555 1_555
H19 C15 1_555 1_555
H20 C15 1_555 1_555
N2 C5 1_555 1_555
N3 C2 1_555 1_555
N4 C4 1_555 1_555
N5 C6 1_555 1_555
N12 C3 1_555 1_555
C1 C2 1_555 1_555
C3 C4 1_555 1_555
C5 C6 1_555 1_555
N14 C9 1_555 1_555
N15 C11 1_555 1_555
N16 C7 1_555 1_555
N17 C12 1_555 1_555
N18 C8 1_555 1_555
N18 C10 1_555 1_555
C7 C8 1_555 1_555
C9 C10 1_555 1_555
C11 C12 1_555 1_555
N27 C14 1_555 1_555

#END
