
#######################################################################
#
#                 Cambridge Crystallographic Data Centre
#                                CCDC 
#
#######################################################################
#
# If this CIF has been generated from an entry in the Cambridge 
# Structural Database, then it will include bibliographic, chemical, 
# crystal, experimental, refinement or atomic coordinate data resulting 
# from the CCDC's data processing and validation procedures.
#
#######################################################################

data_JACTIT
_chemical_name_common            
'5,10-Dimethyl-15,15,20,20-tetraethyl-5alpha,10alpha-bis(4-methoxycarbonylmethoxyphenyl)calix[4]pyrrole ethanol unknown solvate'
_chemical_formula_moiety         'C48 H56 N4 O6,C2 H6 O1'
_chemical_name_systematic        
"Dimethyl 2,2'-((15,15,20,20-tetraethyl-5,10-dimethyl-5,10,15,20,22,24-hexahydroporphyrin-5,10-diyl)bis(4,1-phenyleneoxy))diacetate ethanol unknown solvate"
_symmetry_cell_setting           triclinic
_symmetry_space_group_name_H-M   'P -1'
_symmetry_Int_Tables_number      2
_space_group_name_Hall           '-P 1'
loop_
_symmetry_equiv_pos_site_id
_symmetry_equiv_pos_as_xyz
1 x,y,z
2 -x,-y,-z
_cell_length_a                   13.745(3)
_cell_length_b                   19.362(5)
_cell_length_c                   20.506(5)
_cell_angle_alpha                63.257(4)
_cell_angle_beta                 71.584(4)
_cell_angle_gamma                84.433(4)
_cell_volume                     4617.38
_chemical_melting_point          '220.2-220.4 deg.C'
_cell_formula_units_Z            4
loop_
_atom_site_label
_atom_site_type_symbol
_atom_site_fract_x
_atom_site_fract_y
_atom_site_fract_z
C1 C 0.7994(3) 0.1424(2) 0.3938(2)
C2 C 0.7755(3) 0.0708(2) 0.4079(3)
H1 H 0.7619 0.0275 0.4553
C3 C 0.7741(3) 0.0718(2) 0.3380(2)
H2 H 0.7586 0.0299 0.3319
C4 C 0.8000(3) 0.1460(2) 0.2821(2)
C5 C 0.8127(3) 0.1804(2) 0.1967(2)
C6 C 0.7995(3) 0.1143(2) 0.1769(3)
H3 H 0.8155 0.1343 0.1223
H4 H 0.7298 0.0934 0.2013
H5 H 0.8450 0.0743 0.1948
C7 C 0.9200(3) 0.2158(2) 0.1499(2)
C8 C 0.9448(3) 0.2712(3) 0.0719(2)
H6 H 0.8926 0.2892 0.0494
C9 C 1.0437(3) 0.2989(2) 0.0286(2)
H7 H 1.0571 0.3362 -0.0221
C10 C 1.1243(3) 0.2721(2) 0.0594(2)
C11 C 1.1035(3) 0.2169(2) 0.1353(2)
H8 H 1.1565 0.1976 0.1567
C12 C 1.0015(3) 0.1908(2) 0.1789(2)
H9 H 0.9881 0.1549 0.2301
C13 C 1.3037(3) 0.2690(3) 0.0395(3)
H10 H 1.3669 0.2879 -0.0028
H11 H 1.2969 0.2135 0.0575
C14 C 1.3132(3) 0.2838(3) 0.1039(3)
C15 C 1.2615(4) 0.3554(3) 0.1747(3)
H12 H 1.2137 0.3180 0.2201
H13 H 1.2411 0.4067 0.1668
H14 H 1.3289 0.3489 0.1806
C16 C 0.7297(3) 0.2360(2) 0.1792(2)
C17 C 0.6330(3) 0.2244(2) 0.1776(2)
H15 H 0.6061 0.1784 0.1846
C18 C 0.5821(3) 0.2938(2) 0.1635(2)
H16 H 0.5159 0.3014 0.1597
C19 C 0.6460(3) 0.3482(2) 0.1564(2)
C20 C 0.6408(3) 0.4342(2) 0.1302(2)
C21 C 0.7090(3) 0.4766(2) 0.0454(2)
H17 H 0.7106 0.5318 0.0303
H18 H 0.7787 0.4601 0.0420
C22 C 0.6733(4) 0.4624(3) -0.0105(3)
H19 H 0.6643 0.4076 0.0070
H20 H 0.7238 0.4844 -0.0602
H21 H 0.6093 0.4861 -0.0138
C23 C 0.5258(3) 0.4553(2) 0.1372(2)
H22 H 0.5012 0.4378 0.1074
H23 H 0.4842 0.4284 0.1904
C24 C 0.5127(3) 0.5426(2) 0.1089(3)
H24 H 0.5395 0.5607 0.1368
H25 H 0.4412 0.5527 0.1170
H26 H 0.5494 0.5692 0.0551
C25 C 0.6777(3) 0.4579(2) 0.1783(2)
C26 C 0.7531(3) 0.5103(2) 0.1607(2)
H27 H 0.7947 0.5421 0.1117
C27 C 0.7569(3) 0.5081(2) 0.2299(2)
H28 H 0.8021 0.5378 0.2338
C28 C 0.6840(3) 0.4556(2) 0.2895(2)
C29 C 0.6481(3) 0.4316(2) 0.3745(2)
C30 C 0.5370(3) 0.4515(2) 0.3978(2)
H29 H 0.4954 0.4167 0.3939
H30 H 0.5174 0.4403 0.4514
C31 C 0.5091(4) 0.5314(3) 0.3550(3)
H31 H 0.5505 0.5673 0.3568
H32 H 0.4379 0.5368 0.3778
H33 H 0.5207 0.5421 0.3026
C32 C 0.7194(4) 0.4768(3) 0.3902(2)
H34 H 0.7895 0.4633 0.3732
H35 H 0.7159 0.5318 0.3591
C33 C 0.6944(4) 0.4620(3) 0.4739(3)
H36 H 0.6507 0.5009 0.4822
H37 H 0.7570 0.4640 0.4846
H38 H 0.6600 0.4118 0.5072
C34 C 0.6594(3) 0.3451(2) 0.4198(2)
C35 C 0.6020(3) 0.2923(2) 0.4919(2)
H39 H 0.5402 0.3015 0.5216
C36 C 0.6517(3) 0.2238(2) 0.5124(2)
H40 H 0.6294 0.1794 0.5586
C37 C 0.7391(3) 0.2318(2) 0.4537(2)
C38 C 0.8184(3) 0.1745(2) 0.4442(2)
C39 C 0.8053(3) 0.1076(3) 0.5255(2)
H41 H 0.7401 0.0803 0.5443
H42 H 0.8085 0.1284 0.5594
H43 H 0.8593 0.0726 0.5231
C40 C 0.9301(3) 0.2074(2) 0.4132(2)
C41 C 0.9572(3) 0.2704(2) 0.4188(2)
H44 H 0.9066 0.2995 0.4355
C42 C 1.0630(3) 0.2914(2) 0.3990(2)
H45 H 1.0813 0.3339 0.4031
C43 C 1.1371(3) 0.2492(2) 0.3739(2)
C44 C 1.1108(3) 0.1881(2) 0.3660(2)
H46 H 1.1620 0.1601 0.3483
C45 C 1.0091(3) 0.1672(3) 0.3839(2)
H47 H 0.9925 0.1262 0.3767
C46 C 1.3125(3) 0.2199(2) 0.3533(3)
H48 H 1.3236 0.2154 0.3063
H49 H 1.2905 0.1693 0.3963
C47 C 1.4102(3) 0.2491(2) 0.3533(2)
C48 C 1.5725(3) 0.2082(3) 0.3665(3)
H50 H 1.6053 0.2498 0.3172
H51 H 1.6131 0.1636 0.3745
H52 H 1.5662 0.2239 0.4058
N1 N 0.8142(2) 0.18856(18) 0.31630(17)
H53 H 0.8302 0.2374 0.2930
N2 N 0.7364(2) 0.31210(17) 0.16603(17)
H54 H 0.7893 0.3342 0.1641
N3 N 0.6372(2) 0.42366(18) 0.25829(17)
H55 H 0.5893 0.3875 0.2846
N4 N 0.7419(2) 0.30736(17) 0.39710(17)
H56 H 0.7894 0.3274 0.3537
O1 O 1.2210(2) 0.30306(17) 0.01151(16)
O2 O 1.3614(3) 0.2444(2) 0.1460(2)
O3 O 1.2630(2) 0.34420(17) 0.10963(17)
O4 O 1.2365(2) 0.27393(17) 0.35906(17)
O5 O 1.4324(2) 0.31453(18) 0.33778(18)
O6 O 1.4726(2) 0.18955(16) 0.36920(17)
C49 C 0.1820(3) 0.9577(2) 0.0723(2)
C50 C 0.2136(3) 0.9856(2) -0.0062(2)
H57 H 0.1948 1.0316 -0.0408
C51 C 0.2789(3) 0.9327(2) -0.0252(2)
H58 H 0.3114 0.9379 -0.0745
C52 C 0.2869(3) 0.8718(2) 0.0418(2)
C53 C 0.3461(3) 0.7982(2) 0.0541(2)
C54 C 0.3983(3) 0.8008(2) -0.0254(2)
H59 H 0.4334 0.7540 -0.0196
H60 H 0.4467 0.8445 -0.0563
H61 H 0.3473 0.8054 -0.0499
C55 C 0.4345(3) 0.7965(2) 0.0859(2)
C56 C 0.4750(3) 0.7255(2) 0.1253(2)
H62 H 0.4412 0.6794 0.1388
C57 C 0.5623(3) 0.7227(2) 0.1441(2)
H63 H 0.5858 0.6750 0.1717
C58 C 0.6164(3) 0.7902(2) 0.1227(2)
C59 C 0.5790(3) 0.8601(2) 0.0852(2)
H64 H 0.6142 0.9057 0.0714
C60 C 0.4885(3) 0.8633(2) 0.0674(2)
H65 H 0.4634 0.9113 0.0427
C61 C 0.7508(3) 0.7192(3) 0.1690(3)
H66 H 0.7515 0.6896 0.1413
H67 H 0.7080 0.6905 0.2215
C62 C 0.8606(3) 0.7309(2) 0.1675(3)
C63 C 1.0189(3) 0.7990(3) 0.0990(3)
H68 H 1.0225 0.8138 0.1371
H69 H 1.0529 0.8387 0.0488
H70 H 1.0519 0.7512 0.1065
C64 C 0.2765(3) 0.7278(2) 0.1025(2)
C65 C 0.2364(3) 0.6789(2) 0.0832(2)
H71 H 0.2483 0.6843 0.0339
C66 C 0.1743(3) 0.6198(2) 0.1517(2)
H72 H 0.1378 0.5800 0.1545
C67 C 0.1761(3) 0.6296(2) 0.2125(2)
C68 C 0.1357(3) 0.5812(2) 0.2981(2)
C69 C 0.2261(3) 0.5380(3) 0.3280(3)
H73 H 0.2781 0.5764 0.3153
H74 H 0.2006 0.5100 0.3835
C70 C 0.2765(4) 0.4813(3) 0.2964(3)
H75 H 0.2270 0.4411 0.3113
H76 H 0.3325 0.4589 0.3164
H77 H 0.3020 0.5082 0.2414
C71 C 0.0521(3) 0.5231(2) 0.3168(2)
H78 H 0.0012 0.5507 0.2919
H79 H 0.0824 0.4875 0.2954
C72 C -0.0014(4) 0.4767(3) 0.4017(3)
H80 H 0.0453 0.4709 0.4299
H81 H -0.0237 0.4266 0.4115
H82 H -0.0598 0.5033 0.4176
C73 C 0.0922(3) 0.6324(2) 0.3372(2)
C74 C 0.1134(3) 0.6422(2) 0.3941(2)
H83 H 0.1641 0.6182 0.4168
C75 C 0.0460(3) 0.6939(2) 0.4116(2)
H84 H 0.0442 0.7108 0.4478
C76 C -0.0178(3) 0.7160(2) 0.3663(2)
C77 C -0.1048(3) 0.7709(2) 0.3602(2)
C78 C -0.1145(4) 0.8052(3) 0.4150(3)
H85 H -0.0520 0.8357 0.3991
H86 H -0.1219 0.7636 0.4659
C79 C -0.2107(6) 0.8591(3) 0.4188(3)
H87 H -0.2161 0.8895 0.3681
H88 H -0.2010 0.8929 0.4392
H89 H -0.2725 0.8271 0.4512
C80 C -0.2076(3) 0.7221(3) 0.3797(3)
H90 H -0.2627 0.7572 0.3716
H91 H -0.1956 0.6992 0.3446
C81 C -0.2411(4) 0.6584(3) 0.4617(3)
H92 H -0.1866 0.6238 0.4703
H93 H -0.3009 0.6302 0.4696
H94 H -0.2570 0.6809 0.4967
C82 C -0.0796(3) 0.8338(2) 0.2789(2)
C83 C -0.1392(3) 0.8705(2) 0.2312(2)
H95 H -0.2061 0.8555 0.2398
C84 C -0.0800(3) 0.9353(2) 0.1666(2)
H96 H -0.1023 0.9707 0.1259
C85 C 0.0161(3) 0.9376(2) 0.1738(2)
C86 C 0.1088(3) 0.9899(2) 0.1232(2)
C87 C 0.0756(3) 1.0684(2) 0.0703(2)
H97 H 0.1354 1.1010 0.0338
H98 H 0.0352 1.0931 0.1006
H99 H 0.0354 1.0598 0.0436
C88 C 0.1642(3) 1.0084(2) 0.1691(2)
C89 C 0.1092(3) 1.0114(2) 0.2385(2)
H100 H 0.0387 1.0000 0.2581
C90 C 0.1573(3) 1.0305(2) 0.2776(2)
H101 H 0.1196 1.0309 0.3240
C91 C 0.2620(3) 1.0495(2) 0.2485(2)
C92 C 0.3165(3) 1.0491(2) 0.1797(2)
H102 H 0.3864 1.0630 0.1589
C93 C 0.2678(3) 1.0282(2) 0.1414(2)
H103 H 0.3060 1.0274 0.0954
C94 C 0.4132(3) 1.0786(2) 0.2690(3)
H104 H 0.4324 1.0980 0.2996
H105 H 0.4385 1.1162 0.2156
C95 C 0.4609(3) 1.0018(3) 0.2798(3)
C96 C 0.6163(4) 0.9457(3) 0.2471(4)
H106 H 0.6207 0.9193 0.2984
H107 H 0.6842 0.9603 0.2113
H108 H 0.5822 0.9119 0.2374
N5 N 0.2273(2) 0.88845(17) 0.10017(17)
H109 H 0.2193 0.8592 0.1480
N6 N 0.2380(2) 0.69787(18) 0.18193(17)
H110 H 0.2501 0.7179 0.2086
N7 N 0.0117(2) 0.67793(18) 0.32114(18)
H111 H -0.0163 0.6820 0.2876
N8 N 0.0122(2) 0.87292(18) 0.24355(17)
H112 H 0.0632 0.8597 0.2617
O7 O 0.7097(2) 0.79210(16) 0.13466(18)
O8 O 0.8955(2) 0.68355(18) 0.21612(18)
O9 O 0.9123(2) 0.78899(17) 0.10618(17)
O10 O 0.3022(2) 1.06852(17) 0.29218(16)
O11 O 0.5588(2) 1.01424(18) 0.2385(2)
O12 O 0.4181(3) 0.93915(19) 0.3183(2)
C97 C 0.3029(4) 0.8257(3) 0.2813(3)
H113 H 0.3408 0.8707 0.2365
H114 H 0.2713 0.8413 0.3217
C98 C 0.3732(4) 0.7684(3) 0.3051(3)
H115 H 0.3375 0.7250 0.3518
H116 H 0.4256 0.7897 0.3136
H117 H 0.4041 0.7516 0.2660
O13 O 0.2229(2) 0.80203(17) 0.26298(16)
H118 H 0.1759 0.7788 0.3024
C99 C 0.9884(3) 0.3829(3) 0.1992(3)
H119 H 1.0258 0.3363 0.2056
H120 H 1.0060 0.4044 0.2288
C100 C 1.0211(4) 0.4388(4) 0.1182(3)
H121 H 0.9764 0.4328 0.0931
H122 H 1.0902 0.4300 0.0943
H123 H 1.0180 0.4904 0.1139
O14 O 0.8810(2) 0.36268(17) 0.22894(16)
H124 H 0.8717 0.3170 0.2399
loop_
_geom_bond_atom_site_label_1
_geom_bond_atom_site_label_2
_geom_bond_site_symmetry_1
_geom_bond_site_symmetry_2
C1 C2 1_555 1_555
C2 H1 1_555 1_555
C3 C2 1_555 1_555
H2 C3 1_555 1_555
C4 C3 1_555 1_555
C5 C4 1_555 1_555
C6 C5 1_555 1_555
H3 C6 1_555 1_555
H4 C6 1_555 1_555
H5 C6 1_555 1_555
C7 C5 1_555 1_555
C8 C7 1_555 1_555
H6 C8 1_555 1_555
C9 C8 1_555 1_555
H7 C9 1_555 1_555
C10 C9 1_555 1_555
C11 C10 1_555 1_555
H8 C11 1_555 1_555
C12 C7 1_555 1_555
H9 C12 1_555 1_555
C13 H10 1_555 1_555
H11 C13 1_555 1_555
C14 C13 1_555 1_555
C15 H12 1_555 1_555
H13 C15 1_555 1_555
H14 C15 1_555 1_555
C16 C5 1_555 1_555
C17 C16 1_555 1_555
H15 C17 1_555 1_555
C18 C17 1_555 1_555
H16 C18 1_555 1_555
C19 C18 1_555 1_555
C20 C19 1_555 1_555
C21 C20 1_555 1_555
H17 C21 1_555 1_555
H18 C21 1_555 1_555
C22 C21 1_555 1_555
H19 C22 1_555 1_555
H20 C22 1_555 1_555
H21 C22 1_555 1_555
C23 C20 1_555 1_555
H22 C23 1_555 1_555
H23 C23 1_555 1_555
C24 C23 1_555 1_555
H24 C24 1_555 1_555
H25 C24 1_555 1_555
H26 C24 1_555 1_555
C25 C20 1_555 1_555
C26 C25 1_555 1_555
H27 C26 1_555 1_555
C27 C26 1_555 1_555
H28 C27 1_555 1_555
C28 C27 1_555 1_555
C29 C28 1_555 1_555
C30 C29 1_555 1_555
H29 C30 1_555 1_555
H30 C30 1_555 1_555
C31 C30 1_555 1_555
H31 C31 1_555 1_555
H32 C31 1_555 1_555
H33 C31 1_555 1_555
C32 C29 1_555 1_555
H34 C32 1_555 1_555
H35 C32 1_555 1_555
C33 C32 1_555 1_555
H36 C33 1_555 1_555
H37 C33 1_555 1_555
H38 C33 1_555 1_555
C34 C29 1_555 1_555
C35 C34 1_555 1_555
H39 C35 1_555 1_555
C36 C35 1_555 1_555
H40 C36 1_555 1_555
C37 C36 1_555 1_555
C38 C1 1_555 1_555
C39 C38 1_555 1_555
H41 C39 1_555 1_555
H42 C39 1_555 1_555
H43 C39 1_555 1_555
C40 C38 1_555 1_555
C41 C40 1_555 1_555
H44 C41 1_555 1_555
C42 C41 1_555 1_555
H45 C42 1_555 1_555
C43 C42 1_555 1_555
C44 C43 1_555 1_555
H46 C44 1_555 1_555
C45 C40 1_555 1_555
H47 C45 1_555 1_555
C46 H48 1_555 1_555
H49 C46 1_555 1_555
C47 C46 1_555 1_555
C48 H50 1_555 1_555
H51 C48 1_555 1_555
H52 C48 1_555 1_555
N1 C1 1_555 1_555
H53 N1 1_555 1_555
N2 C16 1_555 1_555
H54 N2 1_555 1_555
N3 C25 1_555 1_555
H55 N3 1_555 1_555
N4 C34 1_555 1_555
H56 N4 1_555 1_555
O1 C10 1_555 1_555
O2 C14 1_555 1_555
O3 C14 1_555 1_555
O4 C43 1_555 1_555
O5 C47 1_555 1_555
O6 C47 1_555 1_555
C49 C50 1_555 1_555
C50 H57 1_555 1_555
C51 C50 1_555 1_555
H58 C51 1_555 1_555
C52 C51 1_555 1_555
C53 C52 1_555 1_555
C54 C53 1_555 1_555
H59 C54 1_555 1_555
H60 C54 1_555 1_555
H61 C54 1_555 1_555
C55 C53 1_555 1_555
C56 C55 1_555 1_555
H62 C56 1_555 1_555
C57 C56 1_555 1_555
H63 C57 1_555 1_555
C58 C57 1_555 1_555
C59 C58 1_555 1_555
H64 C59 1_555 1_555
C60 C55 1_555 1_555
H65 C60 1_555 1_555
C61 H66 1_555 1_555
H67 C61 1_555 1_555
C62 C61 1_555 1_555
C63 H68 1_555 1_555
H69 C63 1_555 1_555
H70 C63 1_555 1_555
C64 C53 1_555 1_555
C65 C64 1_555 1_555
H71 C65 1_555 1_555
C66 C65 1_555 1_555
H72 C66 1_555 1_555
C67 C66 1_555 1_555
C68 C67 1_555 1_555
C69 C68 1_555 1_555
H73 C69 1_555 1_555
H74 C69 1_555 1_555
C70 C69 1_555 1_555
H75 C70 1_555 1_555
H76 C70 1_555 1_555
H77 C70 1_555 1_555
C71 C68 1_555 1_555
H78 C71 1_555 1_555
H79 C71 1_555 1_555
C72 C71 1_555 1_555
H80 C72 1_555 1_555
H81 C72 1_555 1_555
H82 C72 1_555 1_555
C73 C68 1_555 1_555
C74 C73 1_555 1_555
H83 C74 1_555 1_555
C75 C74 1_555 1_555
H84 C75 1_555 1_555
C76 C75 1_555 1_555
C77 C76 1_555 1_555
C78 C77 1_555 1_555
H85 C78 1_555 1_555
H86 C78 1_555 1_555
C79 C78 1_555 1_555
H87 C79 1_555 1_555
H88 C79 1_555 1_555
H89 C79 1_555 1_555
C80 C77 1_555 1_555
H90 C80 1_555 1_555
H91 C80 1_555 1_555
C81 C80 1_555 1_555
H92 C81 1_555 1_555
H93 C81 1_555 1_555
H94 C81 1_555 1_555
C82 C77 1_555 1_555
C83 C82 1_555 1_555
H95 C83 1_555 1_555
C84 C83 1_555 1_555
H96 C84 1_555 1_555
C85 C84 1_555 1_555
C86 C49 1_555 1_555
C87 C86 1_555 1_555
H97 C87 1_555 1_555
H98 C87 1_555 1_555
H99 C87 1_555 1_555
C88 C86 1_555 1_555
C89 C88 1_555 1_555
H100 C89 1_555 1_555
C90 C89 1_555 1_555
H101 C90 1_555 1_555
C91 C90 1_555 1_555
C92 C91 1_555 1_555
H102 C92 1_555 1_555
C93 C88 1_555 1_555
H103 C93 1_555 1_555
C94 H104 1_555 1_555
H105 C94 1_555 1_555
C95 C94 1_555 1_555
C96 H106 1_555 1_555
H107 C96 1_555 1_555
H108 C96 1_555 1_555
N5 C49 1_555 1_555
H109 N5 1_555 1_555
N6 C64 1_555 1_555
H110 N6 1_555 1_555
N7 C73 1_555 1_555
H111 N7 1_555 1_555
N8 C82 1_555 1_555
H112 N8 1_555 1_555
O7 C58 1_555 1_555
O8 C62 1_555 1_555
O9 C62 1_555 1_555
O10 C91 1_555 1_555
O11 C95 1_555 1_555
O12 C95 1_555 1_555
C97 H113 1_555 1_555
H114 C97 1_555 1_555
C98 C97 1_555 1_555
H115 C98 1_555 1_555
H116 C98 1_555 1_555
H117 C98 1_555 1_555
O13 C97 1_555 1_555
H118 O13 1_555 1_555
C99 H119 1_555 1_555
H120 C99 1_555 1_555
C100 C99 1_555 1_555
H121 C100 1_555 1_555
H122 C100 1_555 1_555
H123 C100 1_555 1_555
O14 C99 1_555 1_555
H124 O14 1_555 1_555
C4 N1 1_555 1_555
C11 C12 1_555 1_555
C13 O1 1_555 1_555
C15 O3 1_555 1_555
C19 N2 1_555 1_555
C28 N3 1_555 1_555
C37 C38 1_555 1_555
C37 N4 1_555 1_555
C44 C45 1_555 1_555
C46 O4 1_555 1_555
C48 O6 1_555 1_555
C52 N5 1_555 1_555
C59 C60 1_555 1_555
C61 O7 1_555 1_555
C63 O9 1_555 1_555
C67 N6 1_555 1_555
C76 N7 1_555 1_555
C85 C86 1_555 1_555
C85 N8 1_555 1_555
C92 C93 1_555 1_555
C94 O10 1_555 1_555
C96 O11 1_555 1_555

#END
