
#######################################################################
#
#                 Cambridge Crystallographic Data Centre
#                                CCDC 
#
#######################################################################
#
# If this CIF has been generated from an entry in the Cambridge 
# Structural Database, then it will include bibliographic, chemical, 
# crystal, experimental, refinement or atomic coordinate data resulting 
# from the CCDC's data processing and validation procedures.
#
#######################################################################

data_JACZAO
_chemical_formula_moiety         'C20 H16 N6,0.5(C6 N4)'
_chemical_name_systematic        
'3-(2,2,3,3,-Tetracyano-4\b-ethylcyclobut-1-yl)-2-N-methylanilino-propenenitrile tetracyanoethylene solvate'
_symmetry_cell_setting           monoclinic
_symmetry_space_group_name_H-M   'P 21/n'
_symmetry_Int_Tables_number      14
_space_group_name_Hall           '-P 2yn'
loop_
_symmetry_equiv_pos_site_id
_symmetry_equiv_pos_as_xyz
1 x,y,z
2 1/2-x,1/2+y,1/2-z
3 -x,-y,-z
4 1/2+x,1/2-y,1/2+z
_cell_length_a                   15.106(3)
_cell_length_b                   6.741(2)
_cell_length_c                   21.250(4)
_cell_angle_alpha                90
_cell_angle_beta                 97.19(1)
_cell_angle_gamma                90
_cell_volume                     2146.86
_exptl_crystal_colour            maroon
_chemical_melting_point          128-130deg.C
_cell_formula_units_Z            4
loop_
_atom_site_label
_atom_site_type_symbol
_atom_site_fract_x
_atom_site_fract_y
_atom_site_fract_z
C1 C 0.8569(8) 0.041(2) 0.1441(5)
C2 C 0.7853(8) -0.090(2) 0.1363(6)
C3 C 0.7659(8) -0.207(2) 0.1847(6)
C4 C 0.8168(8) -0.195(2) 0.2417(6)
C5 C 0.8898(8) -0.070(2) 0.2526(5)
C6 C 0.9095(7) 0.045(2) 0.2022(5)
C7 C 1.0477(7) 0.180(2) 0.1719(5)
C8 C 1.0562(7) -0.003(2) 0.1377(6)
C9 C 1.1032(7) 0.330(2) 0.1633(5)
C10 C 1.1717(7) 0.319(2) 0.1193(5)
C11 C 1.1521(6) 0.442(2) 0.0579(5)
C12 C 1.1164(7) 0.335(2) -0.0026(5)
C13 C 1.1098(8) 0.471(2) -0.0597(6)
C14 C 1.2522(7) 0.516(2) 0.0656(5)
C15 C 1.3098(7) 0.403(2) 0.0274(5)
C16 C 1.2617(7) 0.729(2) 0.0554(5)
C17 C 1.2607(7) 0.440(2) 0.1368(5)
C18 C 1.3411(7) 0.321(2) 0.1572(6)
C19 C 1.2546(7) 0.607(2) 0.1816(5)
C20 C 0.9736(9) 0.359(2) 0.2493(6)
N1 N 0.9831(6) 0.177(2) 0.2127(4)
N2 N 1.0627(7) -0.140(2) 0.1084(5)
N3 N 1.3513(6) 0.317(2) -0.0026(5)
N4 N 1.2639(7) 0.895(2) 0.0471(5)
N5 N 1.4011(6) 0.224(2) 0.1681(5)
N6 N 1.2479(7) 0.734(2) 0.2141(5)
H1 H 0.871 0.137 0.106
H2 H 0.744 -0.098 0.091
H3 H 0.710 -0.308 0.178
H4 H 0.800 -0.288 0.280
H5 H 0.930 -0.062 0.299
H6 H 1.097 0.466 0.190
H7 H 1.187 0.167 0.108
H8 H 1.108 0.564 0.066
H9 H 1.050 0.276 0.002
H10 H 1.161 0.213 -0.010
H11 H 1.068 0.400 -0.099
H12 H 1.084 0.598 -0.052
H13 H 1.176 0.493 -0.073
H14 H 1.015 0.475 0.233
H15 H 0.901 0.404 0.242
H16 H 0.995 0.331 0.299
C21 C 0.5140(9) 0.995(2) 0.0313(5)
C22 C 0.4877(7) 0.825(2) 0.0677(6)
C23 C 0.5676(8) 1.146(2) 0.0630(6)
N7 N 0.4673(7) 0.700(2) 0.0963(5)
N8 N 0.6123(9) 1.264(2) 0.0887(6)
C21B C 0.4860(9) 1.005(2) -0.0313(5)
C22B C 0.5123(7) 1.175(2) -0.0677(6)
C23B C 0.4324(8) 0.854(2) -0.0630(6)
N7B N 0.5327(7) 1.300(2) -0.0963(5)
N8B N 0.3877(9) 0.736(2) -0.0887(6)
loop_
_geom_bond_atom_site_label_1
_geom_bond_atom_site_label_2
_geom_bond_site_symmetry_1
_geom_bond_site_symmetry_2
C1 C2 1_555 1_555
C2 C3 1_555 1_555
C3 C4 1_555 1_555
C4 C5 1_555 1_555
C5 C6 1_555 1_555
C6 C1 1_555 1_555
C7 C8 1_555 1_555
C8 N2 1_555 1_555
C9 C7 1_555 1_555
C10 C9 1_555 1_555
C11 C10 1_555 1_555
C12 C11 1_555 1_555
C13 C12 1_555 1_555
C14 C11 1_555 1_555
C15 C14 1_555 1_555
C16 C14 1_555 1_555
C17 C10 1_555 1_555
C18 C17 1_555 1_555
C19 C17 1_555 1_555
C20 N1 1_555 1_555
C21 C22 1_555 1_555
C22 N7 1_555 1_555
C23 C21 1_555 1_555
N1 C6 1_555 1_555
N3 C15 1_555 1_555
N4 C16 1_555 1_555
N5 C18 1_555 1_555
N6 C19 1_555 1_555
N8 C23 1_555 1_555
H1 C1 1_555 1_555
H2 C2 1_555 1_555
H3 C3 1_555 1_555
H4 C4 1_555 1_555
H5 C5 1_555 1_555
H6 C9 1_555 1_555
H7 C10 1_555 1_555
H8 C11 1_555 1_555
H9 C12 1_555 1_555
H10 C12 1_555 1_555
H11 C13 1_555 1_555
H12 C13 1_555 1_555
H13 C13 1_555 1_555
H14 C20 1_555 1_555
H15 C20 1_555 1_555
H16 C20 1_555 1_555
C21B C21 1_555 1_555
C22B C21B 1_555 1_555
C23B C21B 1_555 1_555
N7B C22B 1_555 1_555
N8B C23B 1_555 1_555
C7 N1 1_555 1_555
C14 C17 1_555 1_555

#END
