
#######################################################################
#
#                 Cambridge Crystallographic Data Centre
#                                CCDC 
#
#######################################################################
#
# If this CIF has been generated from an entry in the Cambridge 
# Structural Database, then it will include bibliographic, chemical, 
# crystal, experimental, refinement or atomic coordinate data resulting 
# from the CCDC's data processing and validation procedures.
#
#######################################################################

data_JADNUA
_chemical_formula_moiety         'C8 H10 O3'
_chemical_name_systematic        3,4-dimethoxyphenol
_symmetry_cell_setting           orthorhombic
_symmetry_space_group_name_H-M   'P b c a'
_symmetry_Int_Tables_number      61
_space_group_name_Hall           '-P 2ac 2ab'
loop_
_symmetry_equiv_pos_site_id
_symmetry_equiv_pos_as_xyz
1 x,y,z
2 1/2-x,-y,1/2+z
3 -x,1/2+y,1/2-z
4 1/2+x,1/2-y,-z
5 -x,-y,-z
6 1/2+x,y,1/2-z
7 x,1/2-y,1/2+z
8 1/2-x,1/2+y,z
_cell_length_a                   8.7477(4)
_cell_length_b                   13.8218(7)
_cell_length_c                   26.6422(13)
_cell_angle_alpha                90
_cell_angle_beta                 90
_cell_angle_gamma                90
_cell_volume                     3221.28
_exptl_crystal_colour            brown
_exptl_crystal_description       block
_cell_formula_units_Z            16
loop_
_atom_site_label
_atom_site_type_symbol
_atom_site_fract_x
_atom_site_fract_y
_atom_site_fract_z
O1 O 0.31642(12) 0.55792(6) 0.46341(4)
H1 H 0.2656(18) 0.6010(10) 0.4472(6)
O2 O 0.41171(10) 0.21648(5) 0.45901(3)
O3 O 0.23732(11) 0.19341(6) 0.38304(3)
C1 C 0.29128(13) 0.46989(8) 0.44100(4)
C2 C 0.36772(12) 0.39078(7) 0.46188(4)
H2 H 0.4337 0.3994 0.4899
C3 C 0.34642(12) 0.29982(7) 0.44142(4)
C4 C 0.25063(13) 0.28729(8) 0.39961(4)
C5 C 0.17669(14) 0.36617(8) 0.37932(4)
H3 H 0.1123 0.3579 0.3509
C6 C 0.19567(14) 0.45826(8) 0.40017(5)
H4 H 0.1433 0.5123 0.3864
C7 C 0.49570(17) 0.22270(9) 0.50473(5)
H5 H 0.5365 0.1588 0.5133
H6 H 0.5803 0.2685 0.5006
H7 H 0.4280 0.2451 0.5317
C8 C 0.1208(2) 0.17531(11) 0.34658(6)
H8 H 0.1214 0.1066 0.3375
H9 H 0.0209 0.1924 0.3607
H10 H 0.1402 0.2145 0.3166
O4 O 0.27270(14) 0.84893(7) 0.72098(4)
H11 H 0.319(2) 0.8911(12) 0.7029(7)
O5 O 0.06921(10) 0.52789(6) 0.71498(3)
O6 O 0.20065(12) 0.49211(7) 0.63132(3)
C9 C 0.26184(15) 0.76288(9) 0.69618(5)
C10 C 0.17021(14) 0.69220(9) 0.71881(5)
H12 H 0.1198 0.7055 0.7496
C11 C 0.15354(13) 0.60291(8) 0.69608(4)
C12 C 0.22572(14) 0.58329(9) 0.65010(4)
C13 C 0.31638(15) 0.65389(10) 0.62848(5)
H13 H 0.3660 0.6411 0.5975
C14 C 0.33589(15) 0.74365(10) 0.65161(5)
H14 H 0.3998 0.7912 0.6367
C15 C 0.01260(18) 0.53863(10) 0.76497(5)
H15 H -0.0456 0.4808 0.7744
H16 H 0.0986 0.5469 0.7881
H17 H -0.0540 0.5955 0.7667
C16 C 0.2624(2) 0.47148(13) 0.58306(6)
H18 H 0.2374 0.4048 0.5737
H19 H 0.2187 0.5161 0.5583
H20 H 0.3737 0.4794 0.5839
loop_
_geom_bond_atom_site_label_1
_geom_bond_atom_site_label_2
_geom_bond_site_symmetry_1
_geom_bond_site_symmetry_2
O1 H1 1_555 1_555
O2 C3 1_555 1_555
O3 C4 1_555 1_555
C1 O1 1_555 1_555
C2 C1 1_555 1_555
H2 C2 1_555 1_555
C3 C2 1_555 1_555
C4 C3 1_555 1_555
C5 C4 1_555 1_555
H3 C5 1_555 1_555
C6 C1 1_555 1_555
H4 C6 1_555 1_555
C7 O2 1_555 1_555
H5 C7 1_555 1_555
H6 C7 1_555 1_555
H7 C7 1_555 1_555
C8 O3 1_555 1_555
H8 C8 1_555 1_555
H9 C8 1_555 1_555
H10 C8 1_555 1_555
O4 H11 1_555 1_555
O5 C11 1_555 1_555
O6 C12 1_555 1_555
C9 O4 1_555 1_555
C10 C9 1_555 1_555
H12 C10 1_555 1_555
C11 C10 1_555 1_555
C12 C11 1_555 1_555
C13 C12 1_555 1_555
H13 C13 1_555 1_555
C14 C9 1_555 1_555
H14 C14 1_555 1_555
C15 O5 1_555 1_555
H15 C15 1_555 1_555
H16 C15 1_555 1_555
H17 C15 1_555 1_555
C16 O6 1_555 1_555
H18 C16 1_555 1_555
H19 C16 1_555 1_555
H20 C16 1_555 1_555
C5 C6 1_555 1_555
C13 C14 1_555 1_555

#END
