
#######################################################################
#
#                 Cambridge Crystallographic Data Centre
#                                CCDC 
#
#######################################################################
#
# If this CIF has been generated from an entry in the Cambridge 
# Structural Database, then it will include bibliographic, chemical, 
# crystal, experimental, refinement or atomic coordinate data resulting 
# from the CCDC's data processing and validation procedures.
#
#######################################################################

data_JADQUB
_chemical_formula_moiety         'C14 H14 N2'
_chemical_name_systematic        1,6-bis(Cyanomethyl)cyclodeca-3,8-diyne
_symmetry_cell_setting           monoclinic
_symmetry_space_group_name_H-M   'P 21/n'
_symmetry_Int_Tables_number      14
_space_group_name_Hall           '-P 2yn'
loop_
_symmetry_equiv_pos_site_id
_symmetry_equiv_pos_as_xyz
1 x,y,z
2 1/2-x,1/2+y,1/2-z
3 -x,-y,-z
4 1/2+x,1/2-y,1/2+z
_cell_length_a                   6.7497(2)
_cell_length_b                   8.7005(3)
_cell_length_c                   10.0577(3)
_cell_angle_alpha                90
_cell_angle_beta                 102.062(1)
_cell_angle_gamma                90
_cell_volume                     577.606
_exptl_crystal_colour            colorless
_exptl_crystal_description       polyhedron
_chemical_melting_point          93-95deg.C
_cell_formula_units_Z            2
_exptl_crystal_recrystallization_method 'petroleum ether/diethyl ether'
loop_
_atom_site_label
_atom_site_type_symbol
_atom_site_fract_x
_atom_site_fract_y
_atom_site_fract_z
C1 C 0.28639(16) -0.07231(11) 0.17527(10)
H1 H 0.435(2) -0.0569(14) 0.2050(13)
H2 H 0.233(2) -0.0845(14) 0.2584(14)
C2 C 0.19525(14) 0.06439(10) 0.10129(9)
C3 C 0.10794(13) 0.16431(10) 0.03169(9)
C4 C -0.02434(14) 0.27132(11) -0.05872(10)
H3 H 0.025(2) 0.2831(14) -0.1442(13)
H4 H -0.015(2) 0.3769(15) -0.0178(13)
C5 C 0.24818(14) -0.22191(10) 0.09152(9)
H5 H 0.3219(17) -0.3036(13) 0.1489(11)
C6 C 0.33561(15) -0.20765(12) -0.03694(10)
H6 H 0.263(2) -0.1312(16) -0.0982(13)
H7 H 0.477(2) -0.1755(14) -0.0118(13)
C7 C 0.33085(15) -0.35345(13) -0.11039(10)
N1 N 0.32683(17) -0.46741(14) -0.16675(11)
C5B C -0.24818(14) 0.22191(10) -0.09152(9)
C1B C -0.28639(16) 0.07231(11) -0.17527(10)
H1B H -0.435(2) 0.0569(14) -0.2050(13)
H2B H -0.233(2) 0.0845(14) -0.2584(14)
C2B C -0.19525(14) -0.06439(10) -0.10129(9)
C3B C -0.10794(13) -0.16431(10) -0.03169(9)
C4B C 0.02434(14) -0.27132(11) 0.05872(10)
H3B H -0.025(2) -0.2831(14) 0.1442(13)
H4B H 0.015(2) -0.3769(15) 0.0178(13)
H5B H -0.3219(17) 0.3036(13) -0.1489(11)
C6B C -0.33561(15) 0.20765(12) 0.03694(10)
H6B H -0.263(2) 0.1312(16) 0.0982(13)
H7B H -0.477(2) 0.1755(14) 0.0118(13)
C7B C -0.33085(15) 0.35345(13) 0.11039(10)
N1B N -0.32683(17) 0.46741(14) 0.16675(11)
loop_
_geom_bond_atom_site_label_1
_geom_bond_atom_site_label_2
_geom_bond_site_symmetry_1
_geom_bond_site_symmetry_2
C1 H1 1_555 1_555
H2 C1 1_555 1_555
C2 C1 1_555 1_555
C3 C2 1_555 1_555
C4 C3 1_555 1_555
H3 C4 1_555 1_555
H4 C4 1_555 1_555
C5 C1 1_555 1_555
H5 C5 1_555 1_555
C6 C5 1_555 1_555
H6 C6 1_555 1_555
H7 C6 1_555 1_555
C7 C6 1_555 1_555
N1 C7 1_555 1_555
C5B C4 1_555 1_555
C1B C5B 1_555 1_555
H1B C1B 1_555 1_555
H2B C1B 1_555 1_555
C2B C1B 1_555 1_555
C3B C2B 1_555 1_555
C4B C5 1_555 1_555
H3B C4B 1_555 1_555
H4B C4B 1_555 1_555
H5B C5B 1_555 1_555
C6B C5B 1_555 1_555
H6B C6B 1_555 1_555
H7B C6B 1_555 1_555
C7B C6B 1_555 1_555
N1B C7B 1_555 1_555
C3B C4B 1_555 1_555

#END
