
#######################################################################
#
#                 Cambridge Crystallographic Data Centre
#                                CCDC 
#
#######################################################################
#
# If this CIF has been generated from an entry in the Cambridge 
# Structural Database, then it will include bibliographic, chemical, 
# crystal, experimental, refinement or atomic coordinate data resulting 
# from the CCDC's data processing and validation procedures.
#
#######################################################################

data_JADREO
_chemical_name_common            
3-(2-chloro-4-mesylbenzoyl)-2-phenylthiobicyclo[3.2.1]oct-2-en-4-one
_chemical_formula_moiety         'C22 H19 Cl1 O4 S2'
_chemical_name_systematic        
3-(2-chloro-4-(methylsulfonyl)benzoyl)-4-(phenylsulfanyl)bicyclo[3.2.1]oct-3-en-2-one
_symmetry_cell_setting           monoclinic
_symmetry_space_group_name_H-M   'P 21/c'
_symmetry_Int_Tables_number      14
_space_group_name_Hall           '-P 2ybc'
loop_
_symmetry_equiv_pos_site_id
_symmetry_equiv_pos_as_xyz
1 x,y,z
2 -x,1/2+y,1/2-z
3 -x,-y,-z
4 x,1/2-y,1/2+z
_cell_length_a                   15.5111(8)
_cell_length_b                   10.7218(6)
_cell_length_c                   12.0169(6)
_cell_angle_alpha                90
_cell_angle_beta                 91.449(3)
_cell_angle_gamma                90
_cell_volume                     1997.85
_exptl_crystal_colour            colorless
_exptl_crystal_description       block
_cell_formula_units_Z            4
loop_
_atom_site_label
_atom_site_type_symbol
_atom_site_fract_x
_atom_site_fract_y
_atom_site_fract_z
Cl1 Cl 0.22882(6) 0.40049(9) 0.83242(9)
S1 S -0.08667(6) 0.26508(9) 0.95779(9)
S2 S 0.41445(6) 0.12501(8) 0.64532(8)
O1 O -0.16416(16) 0.2346(3) 0.8963(2)
O2 O -0.07793(17) 0.3867(2) 1.0065(3)
O3 O 0.24478(16) 0.0592(2) 0.6713(2)
O4 O 0.14394(16) 0.3801(3) 0.5647(3)
C1 C -0.0691(2) 0.1524(4) 1.0616(3)
H1 H -0.1083 0.1674 1.1228
H2 H -0.0093 0.1576 1.0895
H3 H -0.0799 0.0692 1.0304
C2 C 0.0015(2) 0.2413(3) 0.8691(3)
C3 C 0.0716(2) 0.3211(3) 0.8792(3)
H4 H 0.0715 0.3884 0.9305
C4 C 0.1417(2) 0.3002(3) 0.8126(3)
C5 C 0.1442(2) 0.2011(3) 0.7389(3)
C6 C 0.0730(2) 0.1218(3) 0.7314(3)
H5 H 0.0736 0.0530 0.6816
C7 C 0.0013(2) 0.1420(3) 0.7954(3)
H6 H -0.0473 0.0883 0.7890
C8 C 0.2214(2) 0.1671(3) 0.6715(3)
C9 C 0.2696(2) 0.2642(3) 0.6103(3)
C10 C 0.3565(2) 0.2546(3) 0.5982(3)
C11 C 0.4045(2) 0.3595(4) 0.5419(3)
H7 H 0.4656 0.3361 0.5274
C12 C 0.3542(4) 0.3935(5) 0.4330(3)
H8 H 0.3347 0.3191 0.3906
H9 H 0.3870 0.4499 0.3845
C13 C 0.2767(3) 0.4631(4) 0.4939(5)
H10 H 0.2407 0.5144 0.4411
C14 C 0.3207(4) 0.5376(5) 0.5754(5)
H11 H 0.2838 0.5499 0.6405
H12 H 0.3341 0.6204 0.5438
C15 C 0.3992(3) 0.4753(4) 0.6092(4)
H13 H 0.3983 0.4548 0.6895
H14 H 0.4495 0.5295 0.5958
C16 C 0.2224(2) 0.3702(4) 0.5594(4)
C17 C 0.5234(2) 0.1795(3) 0.6555(3)
C18 C 0.5496(3) 0.2579(3) 0.7411(3)
H15 H 0.5085 0.2892 0.7914
C19 C 0.6355(3) 0.2910(4) 0.7538(4)
H16 H 0.6536 0.3460 0.8118
C20 C 0.6948(3) 0.2430(4) 0.6807(4)
H17 H 0.7540 0.2643 0.6896
C21 C 0.6690(3) 0.1654(4) 0.5962(4)
H18 H 0.7103 0.1336 0.5465
C22 C 0.5831(2) 0.1329(3) 0.5825(3)
H19 H 0.5652 0.0791 0.5236
loop_
_geom_bond_atom_site_label_1
_geom_bond_atom_site_label_2
_geom_bond_site_symmetry_1
_geom_bond_site_symmetry_2
Cl1 C4 1_555 1_555
S1 O1 1_555 1_555
S2 C10 1_555 1_555
O2 S1 1_555 1_555
O3 C8 1_555 1_555
O4 C16 1_555 1_555
C1 S1 1_555 1_555
H1 C1 1_555 1_555
H2 C1 1_555 1_555
H3 C1 1_555 1_555
C2 S1 1_555 1_555
C3 C2 1_555 1_555
H4 C3 1_555 1_555
C4 C3 1_555 1_555
C5 C4 1_555 1_555
C6 C5 1_555 1_555
H5 C6 1_555 1_555
C7 C2 1_555 1_555
H6 C7 1_555 1_555
C8 C5 1_555 1_555
C9 C8 1_555 1_555
C10 C9 1_555 1_555
C11 C10 1_555 1_555
H7 C11 1_555 1_555
C12 C11 1_555 1_555
H8 C12 1_555 1_555
H9 C12 1_555 1_555
C13 C12 1_555 1_555
H10 C13 1_555 1_555
C14 C13 1_555 1_555
H11 C14 1_555 1_555
H12 C14 1_555 1_555
C15 C11 1_555 1_555
H13 C15 1_555 1_555
H14 C15 1_555 1_555
C16 C9 1_555 1_555
C17 S2 1_555 1_555
C18 C17 1_555 1_555
H15 C18 1_555 1_555
C19 C18 1_555 1_555
H16 C19 1_555 1_555
C20 C19 1_555 1_555
H17 C20 1_555 1_555
C21 C20 1_555 1_555
H18 C21 1_555 1_555
C22 C17 1_555 1_555
H19 C22 1_555 1_555
C6 C7 1_555 1_555
C13 C16 1_555 1_555
C14 C15 1_555 1_555
C21 C22 1_555 1_555

#END
