
#######################################################################
#
#                 Cambridge Crystallographic Data Centre
#                                CCDC 
#
#######################################################################
#
# If this CIF has been generated from an entry in the Cambridge 
# Structural Database, then it will include bibliographic, chemical, 
# crystal, experimental, refinement or atomic coordinate data resulting 
# from the CCDC's data processing and validation procedures.
#
#######################################################################

data_JADSAL
_chemical_name_common            
"N-(3-(dimethylamino)propyl)-N-(N,N,N',N'-tetramethyl-formamidinio)-N',N',N'',N''-tetramethyl-guanidinium bis(tetraphenylborate)"
_chemical_formula_moiety         'C15 H36 N6 2+,2(C24 H20 B1 1-)'
_chemical_name_systematic        
'((3-(dimethylamino)propyl)imino)bis((dimethylamino)-N,N-dimethylmethaniminium) bis(tetraphenylborate)'
_symmetry_cell_setting           monoclinic
_symmetry_space_group_name_H-M   'C c'
_symmetry_Int_Tables_number      9
_space_group_name_Hall           'C -2yc'
loop_
_symmetry_equiv_pos_site_id
_symmetry_equiv_pos_as_xyz
1 x,y,z
2 x,-y,1/2+z
3 1/2+x,1/2+y,z
4 1/2+x,1/2-y,1/2+z
_cell_length_a                   17.1964(5)
_cell_length_b                   17.6641(7)
_cell_length_c                   17.4751(6)
_cell_angle_alpha                90
_cell_angle_beta                 98.752(1)
_cell_angle_gamma                90
_cell_volume                     5246.41
_exptl_crystal_colour            colorless
_exptl_crystal_description       block
_cell_formula_units_Z            4
loop_
_atom_site_label
_atom_site_type_symbol
_atom_site_fract_x
_atom_site_fract_y
_atom_site_fract_z
N1 N 0.54916(10) 0.40299(10) 0.24976(10)
N2 N 0.45346(11) 0.34306(10) 0.30784(11)
N3 N 0.45873(11) 0.21150(10) 0.19896(11)
N4 N 0.53339(11) 0.14313(11) 0.29688(11)
N5 N 0.56111(10) 0.27259(10) 0.27842(10)
N6 N 0.65631(11) 0.24425(11) 0.12663(11)
C1 C 0.52041(12) 0.34173(12) 0.27826(12)
C2 C 0.43782(14) 0.29283(14) 0.37052(14)
H1 H 0.4096 0.2478 0.3484
H2 H 0.4057 0.3196 0.4036
H3 H 0.4877 0.2775 0.4014
C3 C 0.38691(14) 0.39186(14) 0.27671(15)
H4 H 0.3968 0.4146 0.2280
H5 H 0.3808 0.4320 0.3141
H6 H 0.3387 0.3616 0.2673
C4 C 0.52999(14) 0.47987(12) 0.27348(14)
H7 H 0.4923 0.5032 0.2325
H8 H 0.5781 0.5104 0.2824
H9 H 0.5068 0.4772 0.3213
C5 C 0.60081(13) 0.40206(13) 0.19034(13)
H10 H 0.6084 0.3497 0.1744
H11 H 0.6518 0.4242 0.2114
H12 H 0.5767 0.4316 0.1455
C6 C 0.51696(12) 0.20783(12) 0.25854(12)
C7 C 0.38500(15) 0.16881(15) 0.19791(15)
H13 H 0.3841 0.1458 0.2488
H14 H 0.3817 0.1290 0.1585
H15 H 0.3401 0.2032 0.1858
C8 C 0.46021(14) 0.26164(14) 0.13219(13)
H16 H 0.4312 0.3082 0.1394
H17 H 0.4356 0.2360 0.0849
H18 H 0.5148 0.2742 0.1277
C9 C 0.56851(15) 0.13745(14) 0.37887(14)
H19 H 0.6212 0.1153 0.3828
H20 H 0.5354 0.1052 0.4063
H21 H 0.5723 0.1880 0.4021
C10 C 0.51657(17) 0.06897(13) 0.25923(16)
H22 H 0.4707 0.0462 0.2773
H23 H 0.5622 0.0356 0.2724
H24 H 0.5057 0.0758 0.2030
C11 C 0.64786(12) 0.27091(13) 0.30879(13)
H25 H 0.6544 0.2568 0.3642
H26 H 0.6686 0.3229 0.3058
C12 C 0.69866(13) 0.21784(13) 0.26843(13)
H27 H 0.6704 0.1691 0.2591
H28 H 0.7478 0.2077 0.3045
C13 C 0.72112(13) 0.24477(13) 0.19158(13)
H29 H 0.7421 0.2969 0.1984
H30 H 0.7639 0.2120 0.1783
C14 C 0.68101(15) 0.28608(14) 0.06149(14)
H31 H 0.7288 0.2630 0.0476
H32 H 0.6917 0.3389 0.0766
H33 H 0.6390 0.2842 0.0169
C15 C 0.63482(15) 0.16667(14) 0.10226(15)
H34 H 0.6812 0.1403 0.0892
H35 H 0.5938 0.1679 0.0567
H36 H 0.6151 0.1399 0.1445
B1 B 0.29633(14) -0.00569(13) 0.41254(14)
C16 C 0.33345(12) 0.05140(12) 0.48320(13)
C17 C 0.34030(14) 0.03221(13) 0.56111(13)
H37 H 0.3211 -0.0156 0.5746
C18 C 0.37429(15) 0.08026(13) 0.62042(13)
H38 H 0.3786 0.0645 0.6729
C19 C 0.40168(14) 0.15091(13) 0.60279(13)
H39 H 0.4238 0.1844 0.6428
C20 C 0.39638(14) 0.17187(13) 0.52606(13)
H40 H 0.4155 0.2199 0.5130
C21 C 0.36316(14) 0.12288(13) 0.46788(13)
H41 H 0.3605 0.1385 0.4155
C22 C 0.24858(13) 0.04641(12) 0.34214(13)
C23 C 0.19759(13) 0.10448(12) 0.35885(14)
H42 H 0.1922 0.1133 0.4114
C24 C 0.15475(14) 0.14951(13) 0.30210(14)
H43 H 0.1208 0.1877 0.3162
C25 C 0.16175(13) 0.13849(13) 0.22473(14)
H44 H 0.1324 0.1687 0.1856
C26 C 0.21206(14) 0.08288(14) 0.20540(13)
H45 H 0.2178 0.0751 0.1528
C27 C 0.25439(13) 0.03814(12) 0.26329(13)
H46 H 0.2886 0.0004 0.2486
C28 C 0.23664(13) -0.06677(12) 0.44542(12)
C29 C 0.15612(13) -0.05335(13) 0.44582(13)
H47 H 0.1340 -0.0074 0.4241
C30 C 0.10721(14) -0.10448(14) 0.47665(14)
H48 H 0.0531 -0.0929 0.4757
C31 C 0.13767(14) -0.17220(14) 0.50867(13)
H49 H 0.1047 -0.2075 0.5293
C32 C 0.21682(14) -0.18749(13) 0.50998(13)
H50 H 0.2386 -0.2333 0.5322
C33 C 0.26451(14) -0.13592(12) 0.47879(12)
H51 H 0.3185 -0.1480 0.4801
C34 C 0.36745(13) -0.05447(12) 0.38311(12)
C35 C 0.34968(13) -0.11383(13) 0.32968(13)
H52 H 0.2960 -0.1231 0.3096
C36 C 0.40666(13) -0.15960(12) 0.30481(12)
H53 H 0.3917 -0.1991 0.2686
C37 C 0.48566(13) -0.14740(13) 0.33310(13)
H54 H 0.5251 -0.1780 0.3160
C38 C 0.50604(14) -0.09022(14) 0.38638(14)
H55 H 0.5598 -0.0815 0.4064
C39 C 0.44791(13) -0.04539(13) 0.41076(13)
H56 H 0.4634 -0.0068 0.4479
B2 B 0.80503(15) 0.00432(14) 0.52652(14)
C40 C 0.73194(13) 0.05104(12) 0.55564(11)
C41 C 0.65402(13) 0.02539(13) 0.54487(13)
H57 H 0.6413 -0.0197 0.5160
C42 C 0.59422(14) 0.06346(15) 0.57499(13)
H58 H 0.5422 0.0438 0.5669
C43 C 0.61052(14) 0.12989(14) 0.61668(13)
H59 H 0.5701 0.1561 0.6372
C44 C 0.68678(14) 0.15728(13) 0.62787(13)
H60 H 0.6988 0.2030 0.6557
C45 C 0.74583(13) 0.11816(13) 0.59849(12)
H61 H 0.7979 0.1377 0.6078
C46 C 0.86800(13) 0.06551(12) 0.49821(12)
C47 C 0.84134(13) 0.13320(13) 0.45996(12)
H62 H 0.7866 0.1440 0.4528
C48 C 0.89142(14) 0.18477(13) 0.43229(13)
H63 H 0.8706 0.2297 0.4072
C49 C 0.97173(15) 0.17088(14) 0.44126(14)
H64 H 1.0063 0.2057 0.4221
C50 C 1.00057(14) 0.10506(14) 0.47875(14)
H65 H 1.0553 0.0945 0.4854
C51 C 0.94928(13) 0.05445(13) 0.50663(13)
H66 H 0.9707 0.0102 0.5327
C52 C 0.76945(12) -0.04893(13) 0.45171(12)
C53 C 0.73887(13) -0.01733(13) 0.37920(12)
H67 H 0.7429 0.0358 0.3723
C54 C 0.70306(13) -0.06078(14) 0.31746(13)
H68 H 0.6831 -0.0371 0.2697
C55 C 0.69626(13) -0.13857(14) 0.32521(13)
H69 H 0.6709 -0.1683 0.2834
C56 C 0.72690(14) -0.17218(13) 0.39466(13)
H70 H 0.7237 -0.2255 0.4005
C57 C 0.76263(13) -0.12778(13) 0.45626(13)
H71 H 0.7833 -0.1522 0.5034
C58 C 0.84769(12) -0.04918(12) 0.59834(13)
C59 C 0.90731(13) -0.10152(13) 0.58859(14)
H72 H 0.9228 -0.1061 0.5389
C60 C 0.94459(13) -0.14677(13) 0.64832(14)
H73 H 0.9848 -0.1809 0.6389
C61 C 0.92316(14) -0.14212(12) 0.72185(14)
H74 H 0.9489 -0.1724 0.7630
C62 C 0.86401(14) -0.09282(13) 0.73399(13)
H75 H 0.8482 -0.0895 0.7837
C63 C 0.82717(13) -0.04758(12) 0.67306(13)
H76 H 0.7864 -0.0143 0.6828
loop_
_geom_bond_atom_site_label_1
_geom_bond_atom_site_label_2
_geom_bond_site_symmetry_1
_geom_bond_site_symmetry_2
N1 C1 1_555 1_555
N2 C1 1_555 1_555
N3 C6 1_555 1_555
N4 C6 1_555 1_555
N5 C1 1_555 1_555
N6 C13 1_555 1_555
C2 N2 1_555 1_555
H1 C2 1_555 1_555
H2 C2 1_555 1_555
H3 C2 1_555 1_555
C3 N2 1_555 1_555
H4 C3 1_555 1_555
H5 C3 1_555 1_555
H6 C3 1_555 1_555
C4 N1 1_555 1_555
H7 C4 1_555 1_555
H8 C4 1_555 1_555
H9 C4 1_555 1_555
C5 N1 1_555 1_555
H10 C5 1_555 1_555
H11 C5 1_555 1_555
H12 C5 1_555 1_555
C6 N5 1_555 1_555
C7 N3 1_555 1_555
H13 C7 1_555 1_555
H14 C7 1_555 1_555
H15 C7 1_555 1_555
C8 N3 1_555 1_555
H16 C8 1_555 1_555
H17 C8 1_555 1_555
H18 C8 1_555 1_555
C9 N4 1_555 1_555
H19 C9 1_555 1_555
H20 C9 1_555 1_555
H21 C9 1_555 1_555
C10 N4 1_555 1_555
H22 C10 1_555 1_555
H23 C10 1_555 1_555
H24 C10 1_555 1_555
C11 N5 1_555 1_555
H25 C11 1_555 1_555
H26 C11 1_555 1_555
C12 C11 1_555 1_555
H27 C12 1_555 1_555
H28 C12 1_555 1_555
C13 C12 1_555 1_555
H29 C13 1_555 1_555
H30 C13 1_555 1_555
C14 N6 1_555 1_555
H31 C14 1_555 1_555
H32 C14 1_555 1_555
H33 C14 1_555 1_555
C15 N6 1_555 1_555
H34 C15 1_555 1_555
H35 C15 1_555 1_555
H36 C15 1_555 1_555
B1 C16 1_555 1_555
C16 C17 1_555 1_555
C17 H37 1_555 1_555
C18 C17 1_555 1_555
H38 C18 1_555 1_555
C19 C18 1_555 1_555
H39 C19 1_555 1_555
C20 C19 1_555 1_555
H40 C20 1_555 1_555
C21 C16 1_555 1_555
H41 C21 1_555 1_555
C22 B1 1_555 1_555
C23 C22 1_555 1_555
H42 C23 1_555 1_555
C24 C23 1_555 1_555
H43 C24 1_555 1_555
C25 C24 1_555 1_555
H44 C25 1_555 1_555
C26 C25 1_555 1_555
H45 C26 1_555 1_555
C27 C22 1_555 1_555
H46 C27 1_555 1_555
C28 B1 1_555 1_555
C29 C28 1_555 1_555
H47 C29 1_555 1_555
C30 C29 1_555 1_555
H48 C30 1_555 1_555
C31 C30 1_555 1_555
H49 C31 1_555 1_555
C32 C31 1_555 1_555
H50 C32 1_555 1_555
C33 C28 1_555 1_555
H51 C33 1_555 1_555
C34 B1 1_555 1_555
C35 C34 1_555 1_555
H52 C35 1_555 1_555
C36 C35 1_555 1_555
H53 C36 1_555 1_555
C37 C36 1_555 1_555
H54 C37 1_555 1_555
C38 C37 1_555 1_555
H55 C38 1_555 1_555
C39 C34 1_555 1_555
H56 C39 1_555 1_555
B2 C40 1_555 1_555
C40 C41 1_555 1_555
C41 H57 1_555 1_555
C42 C41 1_555 1_555
H58 C42 1_555 1_555
C43 C42 1_555 1_555
H59 C43 1_555 1_555
C44 C43 1_555 1_555
H60 C44 1_555 1_555
C45 C40 1_555 1_555
H61 C45 1_555 1_555
C46 B2 1_555 1_555
C47 C46 1_555 1_555
H62 C47 1_555 1_555
C48 C47 1_555 1_555
H63 C48 1_555 1_555
C49 C48 1_555 1_555
H64 C49 1_555 1_555
C50 C49 1_555 1_555
H65 C50 1_555 1_555
C51 C46 1_555 1_555
H66 C51 1_555 1_555
C52 B2 1_555 1_555
C53 C52 1_555 1_555
H67 C53 1_555 1_555
C54 C53 1_555 1_555
H68 C54 1_555 1_555
C55 C54 1_555 1_555
H69 C55 1_555 1_555
C56 C55 1_555 1_555
H70 C56 1_555 1_555
C57 C52 1_555 1_555
H71 C57 1_555 1_555
C58 B2 1_555 1_555
C59 C58 1_555 1_555
H72 C59 1_555 1_555
C60 C59 1_555 1_555
H73 C60 1_555 1_555
C61 C60 1_555 1_555
H74 C61 1_555 1_555
C62 C61 1_555 1_555
H75 C62 1_555 1_555
C63 C58 1_555 1_555
H76 C63 1_555 1_555
C20 C21 1_555 1_555
C26 C27 1_555 1_555
C32 C33 1_555 1_555
C38 C39 1_555 1_555
C44 C45 1_555 1_555
C50 C51 1_555 1_555
C56 C57 1_555 1_555
C62 C63 1_555 1_555

#END
