
#######################################################################
#
#                 Cambridge Crystallographic Data Centre
#                                CCDC 
#
#######################################################################
#
# If this CIF has been generated from an entry in the Cambridge 
# Structural Database, then it will include bibliographic, chemical, 
# crystal, experimental, refinement or atomic coordinate data resulting 
# from the CCDC's data processing and validation procedures.
#
#######################################################################

data_JADTIR
_chemical_formula_moiety         'C25 H42 O4,0.5(C1 H4 O1)'
_chemical_name_systematic        
'Methyl 3\a,12\a-dihydroxy-5\b-cholan-24-oate hemimethanol clathrate'
_symmetry_cell_setting           monoclinic
_symmetry_space_group_name_H-M   'P 21'
_symmetry_Int_Tables_number      4
_space_group_name_Hall           'P 2yb'
loop_
_symmetry_equiv_pos_site_id
_symmetry_equiv_pos_as_xyz
1 x,y,z
2 -x,1/2+y,-z
_cell_length_a                   16.543(3)
_cell_length_b                   12.109(3)
_cell_length_c                   12.477(1)
_cell_angle_alpha                90
_cell_angle_beta                 102.12(1)
_cell_angle_gamma                90
_cell_volume                     2443.67
_exptl_crystal_colour            colorless
_cell_formula_units_Z            4
loop_
_atom_site_label
_atom_site_type_symbol
_atom_site_fract_x
_atom_site_fract_y
_atom_site_fract_z
C1 C 0.4716(4) 1.0746(6) 0.6720(6)
C2 C 0.5041(4) 1.0427(6) 0.7897(5)
C3 C 0.5702(4) 0.9542(6) 0.7940(6)
C4 C 0.5325(4) 0.8539(6) 0.7311(6)
C5 C 0.4919(4) 0.8826(7) 0.6125(5)
C6 C 0.4547(5) 0.7801(7) 0.5483(6)
C7 C 0.3729(4) 0.7444(6) 0.5793(6)
C8 C 0.3109(4) 0.8383(6) 0.5633(5)
C9 C 0.3484(4) 0.9404(5) 0.6310(5)
C10 C 0.4294(4) 0.9791(6) 0.6000(5)
C11 C 0.2842(4) 1.0314(5) 0.6264(5)
C12 C 0.2013(4) 0.9963(5) 0.6526(5)
C13 C 0.1655(4) 0.8977(6) 0.5798(5)
C14 C 0.2304(4) 0.8070(5) 0.5963(5)
C15 C 0.1839(5) 0.7039(6) 0.5403(6)
C16 C 0.0949(5) 0.7199(7) 0.5567(7)
C17 C 0.0922(4) 0.8352(6) 0.6118(5)
C18 C 0.1401(5) 0.9383(7) 0.4603(5)
C19 C 0.4128(5) 1.0201(7) 0.4804(6)
C20 C 0.0038(4) 0.8831(8) 0.5873(6)
C21 C 0.0022(5) 1.0004(7) 0.6380(7)
C22 C -0.0562(5) 0.8049(8) 0.6391(8)
C23 C -0.1441(6) 0.8322(12) 0.6034(10)
C24 C -0.1986(5) 0.7598(10) 0.6519(9)
O1 O 0.6067(3) 0.9219(5) 0.9052(4)
O2 O 0.2136(3) 0.9623(4) 0.7660(3)
O3 O -0.2651(8) 0.7741(20) 0.6335(16)
O4 O -0.1705(4) 0.6953(8) 0.7321(7)
C25 C -0.2284(6) 0.6287(10) 0.7748(8)
H1 H 0.5200 1.1015 0.6405
H2 H 0.4314 1.1358 0.6676
H3 H 0.4584 1.0074 0.8246
H4 H 0.5277 1.1047 0.8393
H5 H 0.6146 0.9858 0.7565
H6 H 0.4891 0.8139 0.7685
H7 H 0.5760 0.7868 0.7324
H8 H 0.5394 0.9072 0.5807
H9 H 0.4977 0.7113 0.5633
H10 H 0.4466 0.7900 0.4667
H11 H 0.3833 0.7140 0.6580
H12 H 0.3478 0.6731 0.5327
H13 H 0.3002 0.8497 0.4819
H14 H 0.3623 0.9132 0.7107
H15 H 0.2724 1.0593 0.5488
H16 H 0.3082 1.0882 0.6774
H17 H 0.1632 1.0584 0.6380
H18 H 0.2527 0.7884 0.6761
H19 H 0.2081 0.6286 0.5759
H20 H 0.1858 0.6951 0.4601
H21 H 0.0775 0.6533 0.6006
H22 H 0.0538 0.7136 0.4816
H23 H 0.1005 0.8325 0.6952
H24 H 0.1083 0.8764 0.4116
H25 H 0.1913 0.9530 0.4305
H26 H 0.105 1.0030 0.4558
H27 H 0.3805 0.9608 0.4281
H28 H 0.4663 1.0318 0.4563
H29 H 0.3799 1.0873 0.4733
H30 H -0.0188 0.8848 0.5023
H31 H -0.0538 1.0325 0.6213
H32 H 0.0422 1.0489 0.6112
H33 H 0.0210 0.9925 0.7209
H34 H -0.0415 0.8086 0.7212
H35 H -0.0466 0.7206 0.6215
H36 H -0.1564 0.8255 0.5133
H37 H -0.1522 0.9109 0.6151
H38 H 0.6252 0.9897 0.9505
H39 H 0.2051 1.0266 0.8122
H40 H -0.1995 0.5627 0.8213
H41 H -0.2695 0.5896 0.7112
H42 H -0.2607 0.6689 0.8189
C26 C 0.0937(5) 0.3983(7) 0.7646(5)
C27 C 0.1565(5) 0.3045(7) 0.7952(6)
C28 C 0.1256(5) 0.2220(7) 0.8687(6)
C29 C 0.1057(5) 0.2761(7) 0.9686(6)
C30 C 0.0450(4) 0.3723(7) 0.9398(6)
C31 C 0.0262(4) 0.4244(7) 1.0446(6)
C32 C 0.1001(4) 0.4913(7) 1.1066(5)
C33 C 0.1302(3) 0.5760(6) 1.0352(5)
C34 C 0.1490(3) 0.5249(5) 0.9307(4)
C35 C 0.0731(4) 0.4588(6) 0.8645(5)
C36 C 0.1840(4) 0.6097(6) 0.8620(5)
C37 C 0.2607(4) 0.6720(6) 0.9254(5)
C38 C 0.2421(4) 0.7247(5) 1.0304(5)
C39 C 0.2093(4) 0.6346(5) 1.0967(4)
C40 C 0.2088(4) 0.6888(6) 1.2073(5)
C41 C 0.2862(4) 0.7661(7) 1.2254(5)
C42 C 0.3189(4) 0.7635(6) 1.1178(5)
C43 C 0.1816(4) 0.8213(6) 0.9973(6)
C44 C 0.0007(4) 0.5389(8) 0.8175(6)
C45 C 0.3653(4) 0.8712(6) 1.0994(5)
C46 C 0.3868(5) 0.8742(8) 0.9874(6)
C47 C 0.4453(4) 0.8753(7) 1.1894(5)
C48 C 0.4924(5) 0.9833(7) 1.1963(7)
C49 C 0.5799(4) 0.9717(7) 1.2613(6)
O5 O 0.1837(4) 0.1331(5) 0.9010(5)
O6 O 0.3292(2) 0.5974(4) 0.9550(3)
O7 O 0.6384(4) 1.0059(7) 1.2357(5)
O8 O 0.5829(3) 0.9207(7) 1.3535(5)
C50 C 0.6652(6) 0.8989(12) 1.4193(9)
H43 H 0.0415 0.3629 0.7174
H44 H 0.1160 0.4504 0.7162
H45 H 0.2117 0.3322 0.8351
H46 H 0.1679 0.2630 0.7266
H47 H 0.0725 0.1856 0.8232
H48 H 0.1582 0.2985 1.0193
H49 H 0.0815 0.2131 1.0144
H50 H -0.0088 0.3338 0.9009
H51 H 0.0089 0.3621 1.0940
H52 H -0.0245 0.4714 1.0223
H53 H 0.1477 0.4347 1.1338
H54 H 0.0866 0.5253 1.1716
H55 H 0.0834 0.6267 1.0157
H56 H 0.1956 0.4655 0.9590
H57 H 0.1389 0.6591 0.8303
H58 H 0.1996 0.5652 0.7969
H59 H 0.2751 0.7294 0.8775
H60 H 0.2467 0.5637 1.1078
H61 H 0.2142 0.6276 1.2686
H62 H 0.1564 0.7268 1.2065
H63 H 0.3298 0.7361 1.2893
H64 H 0.2700 0.8397 1.2427
H65 H 0.3662 0.7093 1.1116
H66 H 0.1684 0.8534 1.0656
H67 H 0.1280 0.7899 0.9515
H68 H 0.2060 0.8735 0.9561
H69 H 0.0166 0.5903 0.7653
H70 H -0.0185 0.5749 0.8774
H71 H -0.0491 0.4917 0.7738
H72 H 0.3288 0.9322 1.1035
H73 H 0.3363 0.8743 0.9262
H74 H 0.4158 0.7955 0.9736
H75 H 0.4257 0.9297 0.9794
H76 H 0.4842 0.8103 1.1763
H77 H 0.4321 0.8577 1.2634
H78 H 0.4609 1.0386 1.2263
H79 H 0.4928 1.0039 1.1162
H80 H 0.2373 0.1650 0.9451
H81 H 0.3405 0.5615 0.8873
H82 H 0.6726 0.9311 1.4945
H83 H 0.7101 0.9262 1.3835
H84 H 0.6772 0.8135 1.4321
C51 C 0.3857(7) 0.2064(11) 0.9460(10)
O9 O 0.3336(4) 0.2224(6) 1.0145(5)
H85 H 0.3997 0.1164 0.9424
H86 H 0.4414 0.2378 0.9716
H87 H 0.3625 0.2237 0.8692
H88 H 0.3463 0.2950 1.0527
loop_
_geom_bond_atom_site_label_1
_geom_bond_atom_site_label_2
_geom_bond_site_symmetry_1
_geom_bond_site_symmetry_2
C1 C2 1_555 1_555
C2 C3 1_555 1_555
C3 C4 1_555 1_555
C4 C5 1_555 1_555
C5 C6 1_555 1_555
C6 C7 1_555 1_555
C7 C8 1_555 1_555
C8 C9 1_555 1_555
C9 C10 1_555 1_555
C10 C1 1_555 1_555
C11 C9 1_555 1_555
C12 C11 1_555 1_555
C13 C12 1_555 1_555
C14 C8 1_555 1_555
C15 C14 1_555 1_555
C16 C15 1_555 1_555
C17 C13 1_555 1_555
C18 C13 1_555 1_555
C19 C10 1_555 1_555
C20 C17 1_555 1_555
C21 C20 1_555 1_555
C22 C20 1_555 1_555
C23 C22 1_555 1_555
C24 C23 1_555 1_555
O1 C3 1_555 1_555
O2 C12 1_555 1_555
O3 C24 1_555 1_555
O4 C24 1_555 1_555
C25 O4 1_555 1_555
C26 C27 1_555 1_555
C27 C28 1_555 1_555
C28 C29 1_555 1_555
C29 C30 1_555 1_555
C30 C31 1_555 1_555
C31 C32 1_555 1_555
C32 C33 1_555 1_555
C33 C34 1_555 1_555
C34 C35 1_555 1_555
C35 C26 1_555 1_555
C36 C34 1_555 1_555
C37 C36 1_555 1_555
C38 C37 1_555 1_555
C39 C33 1_555 1_555
C40 C39 1_555 1_555
C41 C40 1_555 1_555
C42 C38 1_555 1_555
C43 C38 1_555 1_555
C44 C35 1_555 1_555
C45 C42 1_555 1_555
C46 C45 1_555 1_555
C47 C45 1_555 1_555
C48 C47 1_555 1_555
C49 C48 1_555 1_555
O5 C28 1_555 1_555
O6 C37 1_555 1_555
O7 C49 1_555 1_555
O8 C49 1_555 1_555
C50 O8 1_555 1_555
C51 O9 1_555 1_555
O9 H88 1_555 1_555
H1 C1 1_555 1_555
H2 C1 1_555 1_555
H3 C2 1_555 1_555
H4 C2 1_555 1_555
H5 C3 1_555 1_555
H6 C4 1_555 1_555
H7 C4 1_555 1_555
H8 C5 1_555 1_555
H9 C6 1_555 1_555
H10 C6 1_555 1_555
H11 C7 1_555 1_555
H12 C7 1_555 1_555
H13 C8 1_555 1_555
H14 C9 1_555 1_555
H15 C11 1_555 1_555
H16 C11 1_555 1_555
H17 C12 1_555 1_555
H18 C14 1_555 1_555
H19 C15 1_555 1_555
H20 C15 1_555 1_555
H21 C16 1_555 1_555
H22 C16 1_555 1_555
H23 C17 1_555 1_555
H24 C18 1_555 1_555
H25 C18 1_555 1_555
H26 C18 1_555 1_555
H27 C19 1_555 1_555
H28 C19 1_555 1_555
H29 C19 1_555 1_555
H30 C20 1_555 1_555
H31 C21 1_555 1_555
H32 C21 1_555 1_555
H33 C21 1_555 1_555
H34 C22 1_555 1_555
H35 C22 1_555 1_555
H36 C23 1_555 1_555
H37 C23 1_555 1_555
H38 O1 1_555 1_555
H39 O2 1_555 1_555
H40 C25 1_555 1_555
H41 C25 1_555 1_555
H42 C25 1_555 1_555
H43 C26 1_555 1_555
H44 C26 1_555 1_555
H45 C27 1_555 1_555
H46 C27 1_555 1_555
H47 C28 1_555 1_555
H48 C29 1_555 1_555
H49 C29 1_555 1_555
H50 C30 1_555 1_555
H51 C31 1_555 1_555
H52 C31 1_555 1_555
H53 C32 1_555 1_555
H54 C32 1_555 1_555
H55 C33 1_555 1_555
H56 C34 1_555 1_555
H57 C36 1_555 1_555
H58 C36 1_555 1_555
H59 C37 1_555 1_555
H60 C39 1_555 1_555
H61 C40 1_555 1_555
H62 C40 1_555 1_555
H63 C41 1_555 1_555
H64 C41 1_555 1_555
H65 C42 1_555 1_555
H66 C43 1_555 1_555
H67 C43 1_555 1_555
H68 C43 1_555 1_555
H69 C44 1_555 1_555
H70 C44 1_555 1_555
H71 C44 1_555 1_555
H72 C45 1_555 1_555
H73 C46 1_555 1_555
H74 C46 1_555 1_555
H75 C46 1_555 1_555
H76 C47 1_555 1_555
H77 C47 1_555 1_555
H78 C48 1_555 1_555
H79 C48 1_555 1_555
H80 O5 1_555 1_555
H81 O6 1_555 1_555
H82 C50 1_555 1_555
H83 C50 1_555 1_555
H84 C50 1_555 1_555
H85 C51 1_555 1_555
H86 C51 1_555 1_555
H87 C51 1_555 1_555
C5 C10 1_555 1_555
C13 C14 1_555 1_555
C16 C17 1_555 1_555
C30 C35 1_555 1_555
C38 C39 1_555 1_555
C41 C42 1_555 1_555

#END
