
#######################################################################
#
#                 Cambridge Crystallographic Data Centre
#                                CCDC 
#
#######################################################################
#
# If this CIF has been generated from an entry in the Cambridge 
# Structural Database, then it will include bibliographic, chemical, 
# crystal, experimental, refinement or atomic coordinate data resulting 
# from the CCDC's data processing and validation procedures.
#
#######################################################################

data_JAFKIL
_chemical_formula_moiety         'I1 1-,C19 H21 N2 O1 S1 1+'
_chemical_name_systematic        
'trans-2-(p-(N-Methyl-N-hydroxyethylamino)styryl)-N-methylbenzothiazolinium iodide'
_symmetry_cell_setting           triclinic
_symmetry_space_group_name_H-M   'P -1'
_symmetry_Int_Tables_number      2
_space_group_name_Hall           '-P 1'
loop_
_symmetry_equiv_pos_site_id
_symmetry_equiv_pos_as_xyz
1 x,y,z
2 -x,-y,-z
_cell_length_a                   7.5429(7)
_cell_length_b                   10.9459(10)
_cell_length_c                   12.1974(11)
_cell_angle_alpha                76.360(2)
_cell_angle_beta                 78.100(2)
_cell_angle_gamma                74.491(2)
_cell_volume                     931.943
_exptl_crystal_colour            black
_exptl_crystal_description       sheet
_cell_formula_units_Z            2
_exptl_crystal_recrystallization_method dmf/ether
loop_
_atom_site_label
_atom_site_type_symbol
_atom_site_fract_x
_atom_site_fract_y
_atom_site_fract_z
I1 I 0.36530(4) 0.78629(2) 0.24936(2)
S1 S 0.97039(16) 0.53879(9) 0.24018(8)
O1 O 0.1133(4) 1.0810(3) 0.7118(2)
H1 H 0.0033 1.1119 0.7057
N1 N 0.9511(4) 0.3134(3) 0.3523(2)
N2 N 0.3278(4) 0.8374(3) 0.8390(2)
C1 C 1.0586(4) 0.2930(3) 0.2467(3)
C2 C 1.1353(5) 0.1755(4) 0.2122(3)
H2 H 1.1197 0.0982 0.2604
C3 C 1.2355(5) 0.1774(4) 0.1039(3)
H3 H 1.2882 0.0999 0.0786
C4 C 1.2594(5) 0.2919(4) 0.0320(3)
H4 H 1.3275 0.2900 -0.0407
C5 C 1.1841(5) 0.4084(4) 0.0661(3)
H5 H 1.2011 0.4854 0.0178
C6 C 1.0815(5) 0.4078(3) 0.1750(3)
C7 C 0.9079(6) 0.2081(4) 0.4390(3)
H6 H 1.0023 0.1779 0.4875
H7 H 0.9030 0.1392 0.4043
H8 H 0.7895 0.2363 0.4837
C8 C 0.8937(5) 0.4377(3) 0.3623(3)
C9 C 0.7851(5) 0.4838(4) 0.4604(3)
H9 H 0.7472 0.4243 0.5231
C10 C 0.7350(5) 0.6095(3) 0.4662(3)
H10 H 0.7739 0.6664 0.4017
C11 C 0.6278(5) 0.6655(3) 0.5611(3)
C12 C 0.5533(5) 0.5938(3) 0.6616(3)
H11 H 0.5711 0.5052 0.6676
C13 C 0.4539(5) 0.6494(3) 0.7528(3)
H12 H 0.4058 0.5980 0.8183
C14 C 0.4243(5) 0.7834(3) 0.7479(3)
C15 C 0.4973(5) 0.8567(3) 0.6458(3)
H13 H 0.4786 0.9455 0.6391
C16 C 0.5959(5) 0.7993(3) 0.5559(3)
H14 H 0.6428 0.8503 0.4897
C17 C 0.2515(6) 0.7583(4) 0.9419(3)
H15 H 0.1665 0.7175 0.9235
H16 H 0.1868 0.8118 0.9965
H17 H 0.3508 0.6934 0.9737
C18 C 0.3202(5) 0.9703(3) 0.8465(3)
H18 H 0.4182 1.0008 0.7905
H19 H 0.3442 0.9708 0.9215
C19 C 0.1367(6) 1.0620(4) 0.8269(3)
H20 H 0.0362 1.0271 0.8762
H21 H 0.1325 1.1441 0.8458
loop_
_geom_bond_atom_site_label_1
_geom_bond_atom_site_label_2
_geom_bond_site_symmetry_1
_geom_bond_site_symmetry_2
S1 C6 1_555 1_555
O1 H1 1_555 1_555
N1 C1 1_555 1_555
N2 C14 1_555 1_555
C1 C2 1_555 1_555
C2 H2 1_555 1_555
C3 C2 1_555 1_555
H3 C3 1_555 1_555
C4 C3 1_555 1_555
H4 C4 1_555 1_555
C5 C4 1_555 1_555
H5 C5 1_555 1_555
C6 C1 1_555 1_555
C7 N1 1_555 1_555
H6 C7 1_555 1_555
H7 C7 1_555 1_555
H8 C7 1_555 1_555
C8 S1 1_555 1_555
C9 C8 1_555 1_555
H9 C9 1_555 1_555
C10 C9 1_555 1_555
H10 C10 1_555 1_555
C11 C10 1_555 1_555
C12 C11 1_555 1_555
H11 C12 1_555 1_555
C13 C12 1_555 1_555
H12 C13 1_555 1_555
C14 C13 1_555 1_555
C15 C14 1_555 1_555
H13 C15 1_555 1_555
C16 C11 1_555 1_555
H14 C16 1_555 1_555
C17 N2 1_555 1_555
H15 C17 1_555 1_555
H16 C17 1_555 1_555
H17 C17 1_555 1_555
C18 N2 1_555 1_555
H18 C18 1_555 1_555
H19 C18 1_555 1_555
C19 O1 1_555 1_555
H20 C19 1_555 1_555
H21 C19 1_555 1_555
N1 C8 1_555 1_555
C5 C6 1_555 1_555
C15 C16 1_555 1_555
C18 C19 1_555 1_555

#END
