
#######################################################################
#
#                 Cambridge Crystallographic Data Centre
#                                CCDC 
#
#######################################################################
#
# If this CIF has been generated from an entry in the Cambridge 
# Structural Database, then it will include bibliographic, chemical, 
# crystal, experimental, refinement or atomic coordinate data resulting 
# from the CCDC's data processing and validation procedures.
#
#######################################################################

data_JAFMEL
_chemical_formula_moiety         'C22 H20 O5'
_chemical_name_systematic        
'Ethyl 4-(4-methoxyphenyl)-6-methyl-2-oxo-3-phenyl-2H-pyran-5-carboxylate'
_symmetry_cell_setting           monoclinic
_symmetry_space_group_name_H-M   'P 21/c'
_symmetry_Int_Tables_number      14
_space_group_name_Hall           '-P 2ybc'
loop_
_symmetry_equiv_pos_site_id
_symmetry_equiv_pos_as_xyz
1 x,y,z
2 -x,1/2+y,1/2-z
3 -x,-y,-z
4 x,1/2-y,1/2+z
_cell_length_a                   10.9313(6)
_cell_length_b                   18.7544(11)
_cell_length_c                   9.2937(7)
_cell_angle_alpha                90
_cell_angle_beta                 105.181(6)
_cell_angle_gamma                90
_cell_volume                     1838.81
_exptl_crystal_colour            colorless
_exptl_crystal_description       block
_cell_formula_units_Z            4
loop_
_atom_site_label
_atom_site_type_symbol
_atom_site_fract_x
_atom_site_fract_y
_atom_site_fract_z
O1 O 0.24412(14) 0.15887(10) -0.0388(2)
O2 O 0.40380(13) 0.16182(8) 0.16164(17)
O3 O 0.79658(17) 0.11529(13) 0.3530(2)
O4 O 0.81503(14) 0.18330(10) 0.16418(18)
O5 O 0.95683(13) 0.01779(9) -0.24405(17)
C1 C 0.3566(2) 0.15102(11) 0.0097(3)
C2 C 0.44651(18) 0.12962(10) -0.0733(2)
C3 C 0.57188(18) 0.12396(10) -0.0012(2)
C4 C 0.61384(18) 0.14176(11) 0.1559(2)
C5 C 0.5294(2) 0.15929(11) 0.2322(2)
C6 C 0.39120(18) 0.11442(11) -0.2342(2)
C7 C 0.31810(19) 0.16613(12) -0.3257(3)
H1 H 0.3057 0.2100 -0.2852
C8 C 0.2642(2) 0.15355(14) -0.4738(3)
H2 H 0.2167 0.1890 -0.5330
C9 C 0.2803(2) 0.08850(15) -0.5354(3)
H3 H 0.2436 0.0798 -0.6359
C10 C 0.3510(2) 0.03664(14) -0.4473(3)
H4 H 0.3615 -0.0074 -0.4885
C11 C 0.4068(2) 0.04910(12) -0.2980(3)
H5 H 0.4550 0.0136 -0.2397
C12 C 0.66811(17) 0.09743(11) -0.0752(2)
C13 C 0.69871(19) 0.13225(11) -0.1915(2)
H6 H 0.6538 0.1730 -0.2308
C14 C 0.79474(19) 0.10815(12) -0.2515(2)
H7 H 0.8147 0.1330 -0.3289
C15 C 0.86088(18) 0.04662(12) -0.1952(2)
C16 C 0.82837(19) 0.00976(12) -0.0819(2)
H8 H 0.8700 -0.0325 -0.0464
C17 C 0.73461(18) 0.03527(11) -0.0212(2)
H9 H 0.7154 0.0107 0.0570
C18 C 1.0164(2) 0.06112(16) -0.3319(3)
H10 H 0.9569 0.0716 -0.4254
H11 H 1.0878 0.0361 -0.3496
H12 H 1.0447 0.1048 -0.2799
C19 C 0.7508(2) 0.14410(13) 0.2364(3)
C20 C 0.9530(2) 0.1819(2) 0.2235(4)
H13 H 0.9773 0.2106 0.3133
H14 H 0.9811 0.1334 0.2491
C21 C 1.0104(3) 0.2083(3) 0.1183(4)
H15 H 0.9884 0.1789 0.0308
H16 H 1.1007 0.2082 0.1587
H17 H 0.9818 0.2562 0.0925
C22 C 0.5532(2) 0.17874(14) 0.3923(3)
H18 H 0.4984 0.2174 0.4024
H19 H 0.6400 0.1931 0.4302
H20 H 0.5366 0.1383 0.4475
loop_
_geom_bond_atom_site_label_1
_geom_bond_atom_site_label_2
_geom_bond_site_symmetry_1
_geom_bond_site_symmetry_2
O1 C1 1_555 1_555
O2 C1 1_555 1_555
O3 C19 1_555 1_555
O4 C19 1_555 1_555
O5 C15 1_555 1_555
C1 C2 1_555 1_555
C2 C3 1_555 1_555
C3 C4 1_555 1_555
C4 C5 1_555 1_555
C5 O2 1_555 1_555
C6 C2 1_555 1_555
C7 C6 1_555 1_555
H1 C7 1_555 1_555
C8 C7 1_555 1_555
H2 C8 1_555 1_555
C9 C8 1_555 1_555
H3 C9 1_555 1_555
C10 C9 1_555 1_555
H4 C10 1_555 1_555
C11 C6 1_555 1_555
H5 C11 1_555 1_555
C12 C3 1_555 1_555
C13 C12 1_555 1_555
H6 C13 1_555 1_555
C14 C13 1_555 1_555
H7 C14 1_555 1_555
C15 C14 1_555 1_555
C16 C15 1_555 1_555
H8 C16 1_555 1_555
C17 C12 1_555 1_555
H9 C17 1_555 1_555
C18 O5 1_555 1_555
H10 C18 1_555 1_555
H11 C18 1_555 1_555
H12 C18 1_555 1_555
C19 C4 1_555 1_555
C20 O4 1_555 1_555
H13 C20 1_555 1_555
H14 C20 1_555 1_555
C21 C20 1_555 1_555
H15 C21 1_555 1_555
H16 C21 1_555 1_555
H17 C21 1_555 1_555
C22 C5 1_555 1_555
H18 C22 1_555 1_555
H19 C22 1_555 1_555
H20 C22 1_555 1_555
C10 C11 1_555 1_555
C16 C17 1_555 1_555

#END
