
#######################################################################
#
#                 Cambridge Crystallographic Data Centre
#                                CCDC 
#
#######################################################################
#
# If this CIF has been generated from an entry in the Cambridge 
# Structural Database, then it will include bibliographic, chemical, 
# crystal, experimental, refinement or atomic coordinate data resulting 
# from the CCDC's data processing and validation procedures.
#
#######################################################################

data_JAFMOV
_chemical_name_common            
't-Butyl 2-methyl-5-phenyl-4-(2-thienyl)-3-furoate'
_chemical_formula_moiety         'C20 H20 O3 S1'
_chemical_name_systematic        
't-Butyl 2-methyl-5-phenyl-4-(thiophen-2-yl)furan-3-carboxylate'
_symmetry_cell_setting           orthorhombic
_symmetry_space_group_name_H-M   'P 21 21 21'
_symmetry_Int_Tables_number      19
_space_group_name_Hall           'P 2ac 2ab'
loop_
_symmetry_equiv_pos_site_id
_symmetry_equiv_pos_as_xyz
1 x,y,z
2 1/2-x,-y,1/2+z
3 1/2+x,1/2-y,-z
4 -x,1/2+y,1/2-z
_cell_length_a                   9.2716(5)
_cell_length_b                   11.6329(6)
_cell_length_c                   17.2262(9)
_cell_angle_alpha                90
_cell_angle_beta                 90
_cell_angle_gamma                90
_cell_volume                     1857.94
_exptl_crystal_colour            colorless
_exptl_crystal_description       block
_cell_formula_units_Z            4
loop_
_atom_site_label
_atom_site_type_symbol
_atom_site_fract_x
_atom_site_fract_y
_atom_site_fract_z
O1 O 1.1852(3) 0.5870(2) 0.06365(13)
O2 O 1.3401(3) 0.6125(3) 0.29439(16)
O3 O 1.1368(3) 0.7161(2) 0.30848(14)
C1 C 0.9964(5) 0.5987(4) -0.0603(2)
H1 H 1.0950 0.5917 -0.0688
C2 C 0.9022(6) 0.5910(5) -0.1219(3)
H2 H 0.9383 0.5772 -0.1714
C3 C 0.7573(5) 0.6034(4) -0.1117(3)
H3 H 0.6947 0.5997 -0.1539
C4 C 0.7057(5) 0.6213(3) -0.0385(2)
H4 H 0.6069 0.6284 -0.0305
C5 C 0.7985(4) 0.6291(3) 0.0237(2)
H5 H 0.7614 0.6428 0.0730
C6 C 0.9459(4) 0.6168(3) 0.01425(19)
C7 C 1.0455(4) 0.6219(3) 0.07976(19)
C8 C 1.0365(3) 0.6509(3) 0.15624(19)
C9 C 1.1775(4) 0.6317(3) 0.18901(19)
C10 C 1.2627(4) 0.5938(3) 0.1302(2)
C11 C 1.2282(4) 0.6512(3) 0.2688(2)
C12 C 1.1593(5) 0.7469(3) 0.3905(2)
C13 C 1.2940(6) 0.8189(5) 0.3984(3)
H6 H 1.2914 0.8805 0.3613
H7 H 1.3772 0.7718 0.3889
H8 H 1.2991 0.8502 0.4498
C14 C 1.1617(8) 0.6409(4) 0.4396(3)
H9 H 1.2449 0.5956 0.4267
H10 H 1.0760 0.5967 0.4302
H11 H 1.1658 0.6621 0.4934
C15 C 1.0258(6) 0.8190(5) 0.4074(3)
H12 H 0.9413 0.7716 0.4034
H13 H 1.0196 0.8807 0.3706
H14 H 1.0322 0.8500 0.4589
C16 C 1.4191(4) 0.5665(4) 0.1238(3)
H15 H 1.4651 0.6217 0.0906
H16 H 1.4307 0.4909 0.1022
H17 H 1.4625 0.5691 0.1743
S1 S 0.8633(2) 0.83613(17) 0.19101(17)
C17 C 0.9119(15) 0.6977(13) 0.1973(14)
C18 C 0.810(2) 0.6392(12) 0.2425(12)
H18 H 0.8119 0.5614 0.2547
C19 C 0.6949(10) 0.7243(8) 0.2682(5)
H19 H 0.6156 0.7057 0.2989
C20 C 0.7228(13) 0.8283(8) 0.2412(7)
H20 H 0.6641 0.8914 0.2510
S2? S 0.8058(13) 0.6093(7) 0.2504(7)
C21? C 0.897(4) 0.690(3) 0.194(3)
C22? C 0.829(2) 0.8004(17) 0.1967(14)
H21? H 0.8548 0.8645 0.1677
C23? C 0.710(3) 0.795(2) 0.2529(15)
H22? H 0.6531 0.8565 0.2687
C24? C 0.698(3) 0.6784(15) 0.2796(14)
H23? H 0.6259 0.6526 0.3127
loop_
_geom_bond_atom_site_label_1
_geom_bond_atom_site_label_2
_geom_bond_site_symmetry_1
_geom_bond_site_symmetry_2
O1 C7 1_555 1_555
O2 C11 1_555 1_555
O3 C11 1_555 1_555
C1 H1 1_555 1_555
C2 C1 1_555 1_555
H2 C2 1_555 1_555
C3 C2 1_555 1_555
H3 C3 1_555 1_555
C4 C3 1_555 1_555
H4 C4 1_555 1_555
C5 C4 1_555 1_555
H5 C5 1_555 1_555
C6 C1 1_555 1_555
C7 C6 1_555 1_555
C8 C7 1_555 1_555
C9 C8 1_555 1_555
C10 O1 1_555 1_555
C11 C9 1_555 1_555
C12 O3 1_555 1_555
C13 C12 1_555 1_555
H6 C13 1_555 1_555
H7 C13 1_555 1_555
H8 C13 1_555 1_555
C14 C12 1_555 1_555
H9 C14 1_555 1_555
H10 C14 1_555 1_555
H11 C14 1_555 1_555
C15 C12 1_555 1_555
H12 C15 1_555 1_555
H13 C15 1_555 1_555
H14 C15 1_555 1_555
C16 C10 1_555 1_555
H15 C16 1_555 1_555
H16 C16 1_555 1_555
H17 C16 1_555 1_555
S1 C17 1_555 1_555
C17 C8 1_555 1_555
C18 C17 1_555 1_555
H18 C18 1_555 1_555
C19 C18 1_555 1_555
H19 C19 1_555 1_555
C20 S1 1_555 1_555
H20 C20 1_555 1_555
C5 C6 1_555 1_555
C9 C10 1_555 1_555
C19 C20 1_555 1_555

#END
