
#######################################################################
#
#                 Cambridge Crystallographic Data Centre
#                                CCDC 
#
#######################################################################
#
# If this CIF has been generated from an entry in the Cambridge 
# Structural Database, then it will include bibliographic, chemical, 
# crystal, experimental, refinement or atomic coordinate data resulting 
# from the CCDC's data processing and validation procedures.
#
#######################################################################

data_JAFTOC
_chemical_formula_moiety         'C19 H19 N1 O8'
_chemical_name_systematic        
6,6-Dimethyl-3,5,7,10,19,22-hexaoxa-23-azapentacyclo[19.2.1.0^2,9^.0^4,8^.0^12,17^]tetracosa-1(23),12,14,16-tetraene-11,18-dione
_symmetry_cell_setting           monoclinic
_symmetry_space_group_name_H-M   'P 21'
_symmetry_Int_Tables_number      4
_space_group_name_Hall           'P 2yb'
loop_
_symmetry_equiv_pos_site_id
_symmetry_equiv_pos_as_xyz
1 x,y,z
2 -x,1/2+y,-z
_cell_length_a                   7.7477(17)
_cell_length_b                   11.018(2)
_cell_length_c                   21.427(5)
_cell_angle_alpha                90
_cell_angle_beta                 90.865(4)
_cell_angle_gamma                90
_cell_volume                     1828.89
_exptl_crystal_colour            colorless
_chemical_melting_point          '449-451 K'
_cell_formula_units_Z            4
loop_
_atom_site_label
_atom_site_type_symbol
_atom_site_fract_x
_atom_site_fract_y
_atom_site_fract_z
O1 O 0.9943(7) 0.2158(6) 0.69975(18)
O2 O 1.1788(6) 0.2889(5) 0.62908(18)
O3 O 0.8585(5) 0.3080(4) 0.50716(15)
O4 O 0.9432(6) 0.4698(5) 0.45223(19)
O5 O 0.3680(6) 0.3997(6) 0.3674(2)
O6 O 0.5377(5) 0.4441(4) 0.44775(18)
O7 O 0.7678(6) 0.2910(6) 0.6397(2)
O8 O 0.5615(7) 0.6338(5) 0.5450(3)
N1 N 0.7144(8) 0.5817(7) 0.5716(3)
C1 C 1.2638(13) 0.1102(8) 0.6877(4)
H1 H 1.2592 0.0736 0.7284
H2 H 1.3820 0.1219 0.6765
H3 H 1.2080 0.0580 0.6578
C2 C 1.2496(12) 0.3139(9) 0.7365(3)
H4 H 1.1824 0.3870 0.7381
H5 H 1.3660 0.3334 0.7255
H6 H 1.2494 0.2752 0.7767
C3 C 1.1733(10) 0.2303(7) 0.6888(3)
C4 C 1.0352(8) 0.2445(6) 0.5935(3)
H7 H 1.0650 0.1787 0.5648
C5 C 0.9055(10) 0.2073(8) 0.6428(3)
H8 H 0.8642 0.1243 0.6355
C6 C 0.9530(8) 0.3526(6) 0.5614(3)
H9 H 1.0390 0.4136 0.5501
C7 C 0.8322(8) 0.3992(7) 0.6106(3)
H10 H 0.8984 0.4463 0.6415
C8 C 0.6866(8) 0.4732(8) 0.5871(3)
C9 C 0.5052(9) 0.4327(9) 0.5763(3)
H11 H 0.4451 0.4217 0.6153
H12 H 0.4999 0.3581 0.5524
C10 C 0.4324(9) 0.5403(8) 0.5390(3)
H13 H 0.3263 0.5684 0.5588
C11 C 0.3947(8) 0.5145(8) 0.4726(3)
H14 H 0.2881 0.4689 0.4685
H15 H 0.3817 0.5898 0.4496
C12 C 0.5031(8) 0.3897(7) 0.3938(3)
C13 C 0.6478(8) 0.3163(6) 0.3703(3)
C14 C 0.6179(9) 0.2529(7) 0.3147(3)
H16 H 0.5102 0.2587 0.2952
C15 C 0.7412(10) 0.1831(7) 0.2882(3)
H17 H 0.7178 0.1426 0.2509
C16 C 0.8992(9) 0.1725(7) 0.3163(3)
H18 H 0.9838 0.1245 0.2984
C17 C 0.9334(8) 0.2328(7) 0.3712(3)
H19 H 1.0415 0.2250 0.3902
C18 C 0.8099(7) 0.3049(5) 0.3988(2)
C19 C 0.8722(7) 0.3743(6) 0.4548(2)
O9 O 0.7901(5) 0.5503(4) 0.88523(17)
O10 O 0.9767(5) 0.5129(4) 0.80930(16)
O11 O 1.2052(5) 0.5732(5) 0.87282(18)
O12 O 1.1090(5) 0.5698(4) 1.00693(16)
O13 O 1.0105(6) 0.7227(4) 1.06475(17)
O14 O 1.5972(7) 0.6091(8) 1.1447(3)
O15 O 1.4279(6) 0.6850(5) 1.0707(2)
O16 O 1.4168(7) 0.8926(6) 0.9831(3)
N2 N 1.2602(8) 0.8484(6) 0.9571(3)
C20 C 0.7003(10) 0.5915(8) 0.7809(3)
H20 H 0.5797 0.5892 0.7905
H21 H 0.7157 0.5676 0.7382
H22 H 0.7433 0.6725 0.7868
C21 C 0.7355(12) 0.3781(8) 0.8177(3)
H23 H 0.8005 0.3281 0.8462
H24 H 0.7515 0.3497 0.7758
H25 H 0.6153 0.3742 0.8277
C22 C 0.7967(9) 0.5066(6) 0.8229(2)
C23 C 1.0715(8) 0.4898(6) 0.8648(2)
H26 H 1.1149 0.4063 0.8657
C24 C 0.9420(8) 0.5121(6) 0.9171(2)
H27 H 0.9237 0.4404 0.9432
C25 C 1.1383(8) 0.6752(6) 0.9069(3)
H28 H 1.0733 0.7284 0.8784
C26 C 1.0160(8) 0.6180(6) 0.9532(3)
H29 H 0.9256 0.6750 0.9657
C27 C 1.2876(8) 0.7435(7) 0.9347(3)
C28 C 1.4684(9) 0.7008(9) 0.9403(4)
H30 H 1.5250 0.7011 0.9002
H31 H 1.4751 0.6201 0.9582
C29 C 1.5441(10) 0.7946(10) 0.9836(4)
H32 H 1.6522 0.8248 0.9662
C30 C 1.5770(10) 0.7527(11) 1.0484(4)
H33 H 1.6785 0.7012 1.0496
H34 H 1.5986 0.8220 1.0753
C31 C 1.4575(10) 0.6163(8) 1.1204(3)
C32 C 1.3046(9) 0.5532(7) 1.1437(3)
C33 C 1.3269(13) 0.4878(9) 1.1996(4)
H35 H 1.4363 0.4821 1.2178
C34 C 1.1906(14) 0.4325(8) 1.2276(3)
H36 H 1.2079 0.3921 1.2653
C35 C 1.0306(12) 0.4357(8) 1.2014(3)
H37 H 0.9390 0.3970 1.2206
C36 C 1.0046(10) 0.4968(7) 1.1460(3)
H38 H 0.8950 0.4981 1.1277
C37 C 1.1400(8) 0.5567(6) 1.1168(3)
C38 C 1.0854(7) 0.6294(6) 1.0612(2)
loop_
_geom_bond_atom_site_label_1
_geom_bond_atom_site_label_2
_geom_bond_site_symmetry_1
_geom_bond_site_symmetry_2
O1 C3 1_555 1_555
O2 C3 1_555 1_555
O3 C6 1_555 1_555
O4 C19 1_555 1_555
O5 C12 1_555 1_555
O6 C11 1_555 1_555
O7 C5 1_555 1_555
O8 N1 1_555 1_555
N1 C8 1_555 1_555
C1 H1 1_555 1_555
H2 C1 1_555 1_555
H3 C1 1_555 1_555
C2 H4 1_555 1_555
H5 C2 1_555 1_555
H6 C2 1_555 1_555
C3 C1 1_555 1_555
C4 O2 1_555 1_555
H7 C4 1_555 1_555
C5 O1 1_555 1_555
H8 C5 1_555 1_555
C6 C4 1_555 1_555
H9 C6 1_555 1_555
C7 O7 1_555 1_555
H10 C7 1_555 1_555
C8 C7 1_555 1_555
C9 C8 1_555 1_555
H11 C9 1_555 1_555
H12 C9 1_555 1_555
C10 O8 1_555 1_555
H13 C10 1_555 1_555
C11 C10 1_555 1_555
H14 C11 1_555 1_555
H15 C11 1_555 1_555
C12 O6 1_555 1_555
C13 C12 1_555 1_555
C14 C13 1_555 1_555
H16 C14 1_555 1_555
C15 C14 1_555 1_555
H17 C15 1_555 1_555
C16 C15 1_555 1_555
H18 C16 1_555 1_555
C17 C16 1_555 1_555
H19 C17 1_555 1_555
C18 C13 1_555 1_555
C19 O3 1_555 1_555
O9 C22 1_555 1_555
O10 C22 1_555 1_555
O11 C23 1_555 1_555
O12 C26 1_555 1_555
O13 C38 1_555 1_555
O14 C31 1_555 1_555
O15 C30 1_555 1_555
O16 N2 1_555 1_555
N2 C27 1_555 1_555
C20 H20 1_555 1_555
H21 C20 1_555 1_555
H22 C20 1_555 1_555
C21 H23 1_555 1_555
H24 C21 1_555 1_555
H25 C21 1_555 1_555
C22 C20 1_555 1_555
C23 O10 1_555 1_555
H26 C23 1_555 1_555
C24 O9 1_555 1_555
H27 C24 1_555 1_555
C25 O11 1_555 1_555
H28 C25 1_555 1_555
C26 C24 1_555 1_555
H29 C26 1_555 1_555
C27 C25 1_555 1_555
C28 C27 1_555 1_555
H30 C28 1_555 1_555
H31 C28 1_555 1_555
C29 O16 1_555 1_555
H32 C29 1_555 1_555
C30 C29 1_555 1_555
H33 C30 1_555 1_555
H34 C30 1_555 1_555
C31 O15 1_555 1_555
C32 C31 1_555 1_555
C33 C32 1_555 1_555
H35 C33 1_555 1_555
C34 C33 1_555 1_555
H36 C34 1_555 1_555
C35 C34 1_555 1_555
H37 C35 1_555 1_555
C36 C35 1_555 1_555
H38 C36 1_555 1_555
C37 C32 1_555 1_555
C38 O12 1_555 1_555
C2 C3 1_555 1_555
C4 C5 1_555 1_555
C6 C7 1_555 1_555
C9 C10 1_555 1_555
C17 C18 1_555 1_555
C18 C19 1_555 1_555
C21 C22 1_555 1_555
C23 C24 1_555 1_555
C25 C26 1_555 1_555
C28 C29 1_555 1_555
C36 C37 1_555 1_555
C37 C38 1_555 1_555

#END
