
#######################################################################
#
#                 Cambridge Crystallographic Data Centre
#                                CCDC 
#
#######################################################################
#
# If this CIF has been generated from an entry in the Cambridge 
# Structural Database, then it will include bibliographic, chemical, 
# crystal, experimental, refinement or atomic coordinate data resulting 
# from the CCDC's data processing and validation procedures.
#
#######################################################################

data_JAFTUI
_chemical_formula_moiety         'C22 H25 N1 O8'
_chemical_name_systematic        
6,6-Dimethyl-3,5,7,10,19,25-hexaoxa-26-azapentacyclo[22.2.1.0^2,9^.0^4,8^.0^12,17^]heptacosa-1(26),12,14,16-tetraene-11,18-dione
_symmetry_cell_setting           monoclinic
_symmetry_space_group_name_H-M   'C 2'
_symmetry_Int_Tables_number      5
_space_group_name_Hall           'C 2y'
loop_
_symmetry_equiv_pos_site_id
_symmetry_equiv_pos_as_xyz
1 x,y,z
2 -x,y,-z
3 1/2+x,1/2+y,z
4 1/2-x,1/2+y,-z
_cell_length_a                   21.5800(14)
_cell_length_b                   7.9030(4)
_cell_length_c                   12.3258(7)
_cell_angle_alpha                90
_cell_angle_beta                 92.122(4)
_cell_angle_gamma                90
_cell_volume                     2100.68
_exptl_crystal_colour            colorless
_chemical_melting_point          '500-502 K'
_cell_formula_units_Z            4
_exptl_crystal_recrystallization_method chloroform/hexane
loop_
_atom_site_label
_atom_site_type_symbol
_atom_site_fract_x
_atom_site_fract_y
_atom_site_fract_z
O1 O 0.08770(8) 0.6476(2) 0.93006(14)
O2 O 0.27316(7) 0.5887(2) 0.79488(12)
O3 O 0.41590(9) 0.4302(2) 0.57724(13)
O4 O 0.16355(9) 0.4416(2) 0.91095(15)
O5 O 0.12370(8) 0.7841(2) 0.78550(14)
O6 O 0.29658(8) 0.5991(3) 0.61813(13)
O7 O 0.42024(10) 0.6760(3) 0.48577(14)
O8 O 0.27210(10) 0.0484(2) 0.81280(17)
N1 N 0.23921(11) 0.1856(3) 0.85703(19)
C1 C 0.47884(11) 0.7549(3) 0.7123(2)
H1 H 0.5112 0.7584 0.6645
C2 C 0.31191(10) 0.6155(2) 0.71289(17)
C3 C 0.48632(12) 0.8257(3) 0.8142(2)
H2 H 0.5239 0.8757 0.8350
C4 C 0.37417(10) 0.6751(2) 0.75283(17)
C5 C 0.42304(10) 0.6782(3) 0.68059(17)
C6 C 0.41824(10) 0.5989(3) 0.56949(18)
C7 C 0.07715(12) 0.7953(3) 0.8649(2)
C8 C 0.38211(11) 0.7486(3) 0.85529(18)
H3 H 0.3497 0.7478 0.9030
C9 C 0.17607(11) 0.4235(3) 0.79853(19)
H4 H 0.1365 0.4140 0.7572
C10 C 0.43819(12) 0.8228(3) 0.88605(19)
H5 H 0.4436 0.8707 0.9547
C11 C 0.15210(11) 0.6126(3) 0.93396(18)
H6 H 0.1714 0.6458 1.0040
C12 C 0.21358(11) 0.2682(3) 0.7789(2)
C13 C 0.20756(10) 0.5900(3) 0.76701(18)
H7 H 0.1996 0.6169 0.6901
C14 C 0.27324(13) 0.0667(3) 0.6948(2)
H8 H 0.2618 -0.0411 0.6601
C15 C 0.33783(12) 0.1181(3) 0.6619(2)
H9 H 0.3685 0.0513 0.7024
H10 H 0.3448 0.2362 0.6800
C16 C 0.41228(15) 0.3383(4) 0.4745(2)
H11 H 0.4489 0.3611 0.4336
H12 H 0.3762 0.3751 0.4316
C17 C 0.17776(11) 0.7181(3) 0.8401(2)
H13 H 0.2066 0.8067 0.8653
C18 C 0.34589(14) 0.0924(4) 0.5409(2)
H14 H 0.3128 0.1520 0.5017
H15 H 0.3411 -0.0271 0.5248
C19 C 0.01407(14) 0.7825(4) 0.8094(3)
H16 H 0.0118 0.6810 0.7667
H17 H 0.0072 0.8789 0.7631
H18 H -0.0171 0.7793 0.8630
C20 C 0.22316(14) 0.1986(4) 0.6680(2)
H19 H 0.2377 0.2847 0.6189
H20 H 0.1857 0.1472 0.6371
C21 C 0.40775(14) 0.1515(3) 0.4977(2)
H21 H 0.4405 0.1215 0.5503
H22 H 0.4153 0.0901 0.4314
C22 C 0.08650(17) 0.9543(4) 0.9322(3)
H23 H 0.0538 0.9639 0.9825
H24 H 0.0859 1.0512 0.8852
H25 H 0.1257 0.9485 0.9714
loop_
_geom_bond_atom_site_label_1
_geom_bond_atom_site_label_2
_geom_bond_site_symmetry_1
_geom_bond_site_symmetry_2
O1 C7 1_555 1_555
O2 C2 1_555 1_555
O3 C6 1_555 1_555
O4 C9 1_555 1_555
O5 C7 1_555 1_555
O6 C2 1_555 1_555
O7 C6 1_555 1_555
O8 N1 1_555 1_555
N1 C12 1_555 1_555
C1 H1 1_555 1_555
C2 C4 1_555 1_555
C3 C1 1_555 1_555
H2 C3 1_555 1_555
C4 C5 1_555 1_555
C5 C1 1_555 1_555
C6 C5 1_555 1_555
C7 C19 1_555 1_555
C8 C4 1_555 1_555
H3 C8 1_555 1_555
C9 H4 1_555 1_555
C10 C3 1_555 1_555
H5 C10 1_555 1_555
C11 O1 1_555 1_555
H6 C11 1_555 1_555
C12 C9 1_555 1_555
C13 O2 1_555 1_555
H7 C13 1_555 1_555
C14 O8 1_555 1_555
H8 C14 1_555 1_555
C15 C14 1_555 1_555
H9 C15 1_555 1_555
H10 C15 1_555 1_555
C16 O3 1_555 1_555
H11 C16 1_555 1_555
H12 C16 1_555 1_555
C17 O5 1_555 1_555
H13 C17 1_555 1_555
C18 C15 1_555 1_555
H14 C18 1_555 1_555
H15 C18 1_555 1_555
C19 H16 1_555 1_555
H17 C19 1_555 1_555
H18 C19 1_555 1_555
C20 C12 1_555 1_555
H19 C20 1_555 1_555
H20 C20 1_555 1_555
C21 C16 1_555 1_555
H21 C21 1_555 1_555
H22 C21 1_555 1_555
C22 C7 1_555 1_555
H23 C22 1_555 1_555
H24 C22 1_555 1_555
H25 C22 1_555 1_555
O4 C11 1_555 1_555
C8 C10 1_555 1_555
C9 C13 1_555 1_555
C11 C17 1_555 1_555
C13 C17 1_555 1_555
C14 C20 1_555 1_555
C18 C21 1_555 1_555

#END
