
#######################################################################
#
#                 Cambridge Crystallographic Data Centre
#                                CCDC 
#
#######################################################################
#
# If this CIF has been generated from an entry in the Cambridge 
# Structural Database, then it will include bibliographic, chemical, 
# crystal, experimental, refinement or atomic coordinate data resulting 
# from the CCDC's data processing and validation procedures.
#
#######################################################################

data_JAFVEU
_chemical_formula_moiety         'C25 H17 N1'
_chemical_name_systematic        3,4-Diphenylbenzo[h]quinoline
_symmetry_cell_setting           triclinic
_symmetry_space_group_name_H-M   'P -1'
_symmetry_Int_Tables_number      2
_space_group_name_Hall           '-P 1'
loop_
_symmetry_equiv_pos_site_id
_symmetry_equiv_pos_as_xyz
1 x,y,z
2 -x,-y,-z
_cell_length_a                   8.6366(11)
_cell_length_b                   9.9502(13)
_cell_length_c                   11.2433(15)
_cell_angle_alpha                101.660(2)
_cell_angle_beta                 94.005(2)
_cell_angle_gamma                111.536(2)
_cell_volume                     869.132
_exptl_crystal_colour            colorless
_exptl_crystal_description       prism
_cell_formula_units_Z            2
loop_
_atom_site_label
_atom_site_type_symbol
_atom_site_fract_x
_atom_site_fract_y
_atom_site_fract_z
C1 C 0.03504(16) 0.86147(14) 0.06458(12)
H1 H -0.0440 0.9073 0.0637
C2 C 0.03196(15) 0.77851(13) 0.15275(11)
C3 C -0.09529(15) 0.76474(14) 0.23742(11)
C4 C -0.09782(18) 0.89183(15) 0.31503(13)
H2 H -0.0169 0.9872 0.3148
C5 C -0.2178(2) 0.88037(18) 0.39289(14)
H3 H -0.2171 0.9678 0.4465
C6 C -0.33767(18) 0.74341(19) 0.39287(13)
H4 H -0.4202 0.7362 0.4455
C7 C -0.33724(17) 0.61632(17) 0.31576(13)
H5 H -0.4201 0.5216 0.3152
C8 C -0.21641(16) 0.62651(15) 0.23932(12)
H6 H -0.2161 0.5384 0.1877
C9 C 0.14864(15) 0.71229(13) 0.15584(11)
C10 C 0.15212(15) 0.62100(14) 0.24598(11)
C11 C 0.20628(17) 0.68660(16) 0.37103(12)
H7 H 0.2438 0.7916 0.4006
C12 C 0.20553(19) 0.59885(19) 0.45264(13)
H8 H 0.2444 0.6443 0.5378
C13 C 0.14865(18) 0.44576(19) 0.41087(15)
H9 H 0.1472 0.3861 0.4673
C14 C 0.09398(18) 0.37980(16) 0.28705(14)
H10 H 0.0536 0.2745 0.2581
C15 C 0.09810(16) 0.46745(14) 0.20489(13)
H11 H 0.0635 0.4219 0.1194
C16 C 0.26532(15) 0.73377(13) 0.07176(11)
C17 C 0.39640(16) 0.67701(14) 0.07307(12)
H12 H 0.4060 0.6230 0.1319
C18 C 0.50586(16) 0.69923(15) -0.00794(13)
H13 H 0.5921 0.6617 -0.0041
C19 C 0.49516(16) 0.77791(14) -0.09956(12)
C20 C 0.60757(17) 0.79857(16) -0.18590(14)
H14 H 0.6916 0.7582 -0.1843
C21 C 0.59729(18) 0.87571(17) -0.27176(14)
H15 H 0.6732 0.8878 -0.3297
C22 C 0.47524(18) 0.93697(16) -0.27451(13)
H16 H 0.4696 0.9914 -0.3339
C23 C 0.36323(17) 0.91889(15) -0.19187(12)
H17 H 0.2807 0.9608 -0.1947
C24 C 0.37027(15) 0.83874(13) -0.10318(12)
C25 C 0.25506(15) 0.81765(13) -0.01429(11)
N1 N 0.13924(13) 0.88070(11) -0.01712(10)
loop_
_geom_bond_atom_site_label_1
_geom_bond_atom_site_label_2
_geom_bond_site_symmetry_1
_geom_bond_site_symmetry_2
C1 H1 1_555 1_555
C2 C1 1_555 1_555
C3 C2 1_555 1_555
C4 C3 1_555 1_555
H2 C4 1_555 1_555
C5 C4 1_555 1_555
H3 C5 1_555 1_555
C6 C5 1_555 1_555
H4 C6 1_555 1_555
C7 C6 1_555 1_555
H5 C7 1_555 1_555
C8 C3 1_555 1_555
H6 C8 1_555 1_555
C9 C2 1_555 1_555
C10 C9 1_555 1_555
C11 C10 1_555 1_555
H7 C11 1_555 1_555
C12 C11 1_555 1_555
H8 C12 1_555 1_555
C13 C12 1_555 1_555
H9 C13 1_555 1_555
C14 C13 1_555 1_555
H10 C14 1_555 1_555
C15 C10 1_555 1_555
H11 C15 1_555 1_555
C16 C9 1_555 1_555
C17 C16 1_555 1_555
H12 C17 1_555 1_555
C18 C17 1_555 1_555
H13 C18 1_555 1_555
C19 C18 1_555 1_555
C20 C19 1_555 1_555
H14 C20 1_555 1_555
C21 C20 1_555 1_555
H15 C21 1_555 1_555
C22 C21 1_555 1_555
H16 C22 1_555 1_555
C23 C22 1_555 1_555
H17 C23 1_555 1_555
C24 C19 1_555 1_555
C25 C16 1_555 1_555
N1 C1 1_555 1_555
C7 C8 1_555 1_555
C14 C15 1_555 1_555
C23 C24 1_555 1_555
C24 C25 1_555 1_555
C25 N1 1_555 1_555

#END
