
#######################################################################
#
#                 Cambridge Crystallographic Data Centre
#                                CCDC 
#
#######################################################################
#
# If this CIF has been generated from an entry in the Cambridge 
# Structural Database, then it will include bibliographic, chemical, 
# crystal, experimental, refinement or atomic coordinate data resulting 
# from the CCDC's data processing and validation procedures.
#
#######################################################################

data_JAFVIY
_chemical_formula_moiety         'C16 H13 N1'
_chemical_name_systematic        3-Methyl-4-phenylquinoline
_symmetry_cell_setting           triclinic
_symmetry_space_group_name_H-M   'P -1'
_symmetry_Int_Tables_number      2
_space_group_name_Hall           '-P 1'
loop_
_symmetry_equiv_pos_site_id
_symmetry_equiv_pos_as_xyz
1 x,y,z
2 -x,-y,-z
_cell_length_a                   7.8347(5)
_cell_length_b                   8.6813(5)
_cell_length_c                   9.1755(8)
_cell_angle_alpha                82.727(3)
_cell_angle_beta                 73.371(3)
_cell_angle_gamma                78.005(2)
_cell_volume                     583.417
_exptl_crystal_colour            colorless
_exptl_crystal_description       Lamellar
_cell_formula_units_Z            2
loop_
_atom_site_label
_atom_site_type_symbol
_atom_site_fract_x
_atom_site_fract_y
_atom_site_fract_z
N1 N -0.1207(3) 0.3061(2) 0.6664(2)
C1 C 0.2181(4) 0.4174(4) 0.8131(3)
H1 H 0.2247 0.4555 0.9036
C2 C 0.0584(3) 0.3879(3) 0.8033(3)
H2 H -0.0459 0.4055 0.8874
C3 C 0.0449(3) 0.3317(3) 0.6712(3)
C4 C 0.2026(3) 0.3020(2) 0.5468(2)
C5 C 0.1872(3) 0.2401(3) 0.4157(3)
C6 C 0.3517(3) 0.2030(3) 0.2852(3)
C7 C 0.3996(4) 0.3165(4) 0.1689(3)
H3 H 0.3277 0.4193 0.1717
C8 C 0.5526(4) 0.2815(4) 0.0477(3)
H4 H 0.5841 0.3600 -0.0321
C9 C 0.6578(3) 0.1338(3) 0.0434(3)
H5 H 0.7586 0.1079 -0.0417
C10 C -0.1274(3) 0.2517(3) 0.5418(3)
H6 H -0.2420 0.2351 0.5380
C11 C 0.0204(3) 0.2150(3) 0.4120(3)
C12 C 0.6168(4) 0.0247(4) 0.1620(4)
H7 H 0.6931 -0.0759 0.1620
C13 C 0.4644(4) 0.0591(3) 0.2829(4)
H8 H 0.4377 -0.0182 0.3651
C14 C 0.3659(3) 0.3346(3) 0.5606(3)
H9 H 0.4722 0.3163 0.4785
C15 C 0.3745(4) 0.3918(4) 0.6895(3)
H10 H 0.4855 0.4145 0.6961
C16 C -0.0134(4) 0.1514(4) 0.2801(4)
H11 H 0.0489 0.2037 0.1845
H12 H -0.1438 0.1716 0.2896
H13 H 0.0326 0.0375 0.2800
loop_
_geom_bond_atom_site_label_1
_geom_bond_atom_site_label_2
_geom_bond_site_symmetry_1
_geom_bond_site_symmetry_2
N1 C3 1_555 1_555
C1 H1 1_555 1_555
C2 C1 1_555 1_555
H2 C2 1_555 1_555
C3 C2 1_555 1_555
C4 C3 1_555 1_555
C5 C4 1_555 1_555
C6 C5 1_555 1_555
C7 C6 1_555 1_555
H3 C7 1_555 1_555
C8 C7 1_555 1_555
H4 C8 1_555 1_555
C9 C8 1_555 1_555
H5 C9 1_555 1_555
C10 N1 1_555 1_555
H6 C10 1_555 1_555
C11 C5 1_555 1_555
C12 C9 1_555 1_555
H7 C12 1_555 1_555
C13 C6 1_555 1_555
H8 C13 1_555 1_555
C14 C4 1_555 1_555
H9 C14 1_555 1_555
C15 C1 1_555 1_555
H10 C15 1_555 1_555
C16 C11 1_555 1_555
H11 C16 1_555 1_555
H12 C16 1_555 1_555
H13 C16 1_555 1_555
C10 C11 1_555 1_555
C12 C13 1_555 1_555
C14 C15 1_555 1_555

#END
