
#######################################################################
#
#                 Cambridge Crystallographic Data Centre
#                                CCDC 
#
#######################################################################
#
# If this CIF has been generated from an entry in the Cambridge 
# Structural Database, then it will include bibliographic, chemical, 
# crystal, experimental, refinement or atomic coordinate data resulting 
# from the CCDC's data processing and validation procedures.
#
#######################################################################

data_JAFXAS
_chemical_formula_moiety         'C16 H10 F5 N2 1+,Br1 1-'
_chemical_name_systematic        
'3-(Pentafluorobenzyl)-1-phenyl-1H-imidazol-3-ium bromide'
_symmetry_cell_setting           orthorhombic
_symmetry_space_group_name_H-M   'P b c a'
_symmetry_Int_Tables_number      61
_space_group_name_Hall           '-P 2ac 2ab'
loop_
_symmetry_equiv_pos_site_id
_symmetry_equiv_pos_as_xyz
1 x,y,z
2 1/2-x,-y,1/2+z
3 -x,1/2+y,1/2-z
4 1/2+x,1/2-y,-z
5 -x,-y,-z
6 1/2+x,y,1/2-z
7 x,1/2-y,1/2+z
8 1/2-x,1/2+y,z
_cell_length_a                   15.0112(8)
_cell_length_b                   7.5164(4)
_cell_length_c                   26.1872(14)
_cell_angle_alpha                90
_cell_angle_beta                 90
_cell_angle_gamma                90
_cell_volume                     2954.71
_exptl_crystal_colour            colorless
_exptl_crystal_description       plate
_cell_formula_units_Z            8
loop_
_atom_site_label
_atom_site_type_symbol
_atom_site_fract_x
_atom_site_fract_y
_atom_site_fract_z
Br1 Br 0.91308(2) -0.00271(5) 0.342726(13)
C1 C 0.2987(2) 0.0965(5) 0.70082(14)
H1 H 0.2387 0.1175 0.6910
C2 C 0.4232(2) 0.0866(5) 0.74565(14)
H2 H 0.4646 0.0997 0.7728
C3 C 0.4400(2) 0.0178(5) 0.69933(14)
H3 H 0.4955 -0.0272 0.6876
C4 C 0.2854(2) 0.2064(4) 0.78912(13)
C5 C 0.1928(2) 0.2133(5) 0.78740(14)
H4 H 0.1617 0.1718 0.7581
C6 C 0.1463(3) 0.2815(5) 0.82890(15)
H5 H 0.0831 0.2865 0.8280
C7 C 0.1916(3) 0.3423(5) 0.87183(14)
H6 H 0.1596 0.3901 0.9000
C8 C 0.2839(3) 0.3329(5) 0.87330(15)
H7 H 0.3148 0.3732 0.9027
C9 C 0.3314(3) 0.2650(5) 0.83212(14)
H8 H 0.3946 0.2586 0.8333
C10 C 0.3451(2) -0.0454(5) 0.61997(14)
H9 H 0.2806 -0.0685 0.6158
H10 H 0.3767 -0.1603 0.6162
C11 C 0.3754(2) 0.0784(5) 0.57825(13)
C12 C 0.3160(2) 0.1726(5) 0.54865(14)
C13 C 0.3423(3) 0.2822(5) 0.50866(14)
C14 C 0.4319(3) 0.2973(5) 0.49746(14)
C15 C 0.4934(2) 0.2053(5) 0.52600(15)
C16 C 0.4648(2) 0.0974(5) 0.56546(14)
N1 N 0.33409(19) 0.1348(4) 0.74627(11)
N2 N 0.36119(19) 0.0244(4) 0.67169(11)
F1 F 0.22797(14) 0.1590(3) 0.55746(8)
F2 F 0.28198(16) 0.3730(3) 0.48132(8)
F3 F 0.45824(18) 0.3987(3) 0.45838(9)
F4 F 0.58050(15) 0.2177(4) 0.51484(9)
F5 F 0.52662(15) 0.0054(3) 0.59189(9)
loop_
_geom_bond_atom_site_label_1
_geom_bond_atom_site_label_2
_geom_bond_site_symmetry_1
_geom_bond_site_symmetry_2
C1 H1 1_555 1_555
C2 H2 1_555 1_555
C3 C2 1_555 1_555
H3 C3 1_555 1_555
C4 C5 1_555 1_555
C5 H4 1_555 1_555
C6 C5 1_555 1_555
H5 C6 1_555 1_555
C7 C6 1_555 1_555
H6 C7 1_555 1_555
C8 C7 1_555 1_555
H7 C8 1_555 1_555
C9 C4 1_555 1_555
H8 C9 1_555 1_555
C10 H9 1_555 1_555
H10 C10 1_555 1_555
C11 C10 1_555 1_555
C12 C11 1_555 1_555
C13 C12 1_555 1_555
C14 C13 1_555 1_555
C15 C14 1_555 1_555
C16 C11 1_555 1_555
N1 C1 1_555 1_555
N2 C1 1_555 1_555
F1 C12 1_555 1_555
F2 C13 1_555 1_555
F3 C14 1_555 1_555
F4 C15 1_555 1_555
F5 C16 1_555 1_555
C2 N1 1_555 1_555
C3 N2 1_555 1_555
C4 N1 1_555 1_555
C8 C9 1_555 1_555
C10 N2 1_555 1_555
C15 C16 1_555 1_555

#END
