
#######################################################################
#
#                 Cambridge Crystallographic Data Centre
#                                CCDC 
#
#######################################################################
#
# If this CIF has been generated from an entry in the Cambridge 
# Structural Database, then it will include bibliographic, chemical, 
# crystal, experimental, refinement or atomic coordinate data resulting 
# from the CCDC's data processing and validation procedures.
#
#######################################################################

data_JAFXUK
_chemical_formula_moiety         'C20 H20 Be1 N2 O4,C1 H4 O1'
_chemical_name_systematic        
'bis(3-(4-Pyridyl)-2,4-pentanedionato)-beryllium methanol solvate'
_symmetry_cell_setting           triclinic
_symmetry_space_group_name_H-M   'P -1'
_symmetry_Int_Tables_number      2
_space_group_name_Hall           '-P 1'
loop_
_symmetry_equiv_pos_site_id
_symmetry_equiv_pos_as_xyz
1 x,y,z
2 -x,-y,-z
_cell_length_a                   9.6272(3)
_cell_length_b                   10.6028(3)
_cell_length_c                   11.3100(5)
_cell_angle_alpha                94.020(2)
_cell_angle_beta                 114.8270(10)
_cell_angle_gamma                102.1680(10)
_cell_volume                     1007.73
_exptl_crystal_colour            colorless
_exptl_crystal_description       prism
_cell_formula_units_Z            2
loop_
_atom_site_label
_atom_site_type_symbol
_atom_site_fract_x
_atom_site_fract_y
_atom_site_fract_z
Be1 Be 0.1054(2) 0.3955(2) 0.2881(2)
O1 O -0.05255(12) 0.27616(10) 0.22934(9)
O2 O 0.14709(11) 0.42033(9) 0.16590(9)
O3 O 0.24827(11) 0.36053(9) 0.40759(9)
O4 O 0.07771(12) 0.52518(10) 0.34641(9)
N1 N -0.30004(15) 0.00030(12) -0.37142(11)
N2 N 0.57513(14) 0.76108(12) 0.95621(11)
C1 C -0.1213(2) 0.21429(13) 0.10990(12)
C2 C -0.06519(15) 0.24400(12) 0.01605(12)
C3 C 0.06843(15) 0.35067(13) 0.05013(12)
C4 C 0.1225(2) 0.39113(14) -0.05100(13)
H1 H 0.2143(2) 0.46491(14) -0.01049(13)
H2 H 0.1489(2) 0.31947(14) -0.08594(13)
H3 H 0.0389(2) 0.41492(14) -0.12150(13)
C5 C -0.2667(2) 0.10503(14) 0.07674(14)
H4 H -0.2857(2) 0.10040(14) 0.15334(14)
H5 H -0.3564(2) 0.12170(14) 0.00596(14)
H6 H -0.2511(2) 0.02336(14) 0.04982(14)
C6 C -0.1600(2) -0.00733(14) -0.28011(13)
H7 H -0.1117(2) -0.06979(14) -0.30230(13)
C7 C -0.0797(2) 0.07089(14) -0.15514(13)
H8 H 0.0209(2) 0.06124(14) -0.09305(13)
C8 C -0.14564(15) 0.16251(12) -0.11933(12)
C9 C -0.2911(2) 0.17172(15) -0.21503(13)
H9 H -0.3419(2) 0.23385(15) -0.19627(13)
C10 C -0.3626(2) 0.0896(2) -0.33762(14)
H10 H -0.4627(2) 0.0977(2) -0.40220(14)
C11 C 0.32374(15) 0.43119(12) 0.52347(12)
C12 C 0.28698(15) 0.54538(12) 0.55878(12)
C13 C 0.1631(2) 0.58794(13) 0.46531(12)
C14 C 0.1225(2) 0.71015(14) 0.49884(14)
H11 H 0.0353(2) 0.72288(14) 0.42270(14)
H12 H 0.0933(2) 0.70177(14) 0.56989(14)
H13 H 0.2130(2) 0.78405(14) 0.52576(14)
C15 C 0.4571(2) 0.38633(14) 0.62154(13)
H14 H 0.4652(2) 0.30745(14) 0.58075(13)
H15 H 0.5547(2) 0.45336(14) 0.65091(13)
H16 H 0.4370(2) 0.36956(14) 0.69601(13)
C16 C 0.4588(2) 0.65327(14) 0.92904(13)
H17 H 0.4409(2) 0.62370(14) 1.00104(13)
C17 C 0.3609(2) 0.58134(14) 0.80232(13)
H18 H 0.2794(2) 0.50394(14) 0.78845(13)
C18 C 0.38365(15) 0.62198(12) 0.69615(12)
C19 C 0.5041(2) 0.73440(14) 0.72371(14)
H19 H 0.5252(2) 0.76591(14) 0.65380(14)
C20 C 0.5955(2) 0.80010(15) 0.85347(14)
H20 H 0.6774(2) 0.87822(15) 0.87012(14)
O5 O 0.2523(5) 0.2085(2) 0.7582(2)
C21 C 0.2208(2) 0.0973(2) 0.6671(2)
H21 H 0.3092(2) 0.1990(2) 0.8404(2)
H22 H 0.1994(2) 0.1172(2) 0.5802(2)
H23 H 0.1340(2) 0.0173(2) 0.6630(2)
H24 H 0.3189(2) 0.0574(2) 0.6963(2)
O6? O 0.3488(16) 0.1724(14) 0.7776(7)
loop_
_geom_bond_atom_site_label_1
_geom_bond_atom_site_label_2
_geom_bond_site_symmetry_1
_geom_bond_site_symmetry_2
Be1 O1 1_555 1_555
O1 C1 1_555 1_555
O2 Be1 1_555 1_555
O3 Be1 1_555 1_555
O4 Be1 1_555 1_555
N1 C6 1_555 1_555
N2 C16 1_555 1_555
C1 C2 1_555 1_555
C2 C3 1_555 1_555
C3 O2 1_555 1_555
C4 C3 1_555 1_555
H1 C4 1_555 1_555
H2 C4 1_555 1_555
H3 C4 1_555 1_555
C5 C1 1_555 1_555
H4 C5 1_555 1_555
H5 C5 1_555 1_555
H6 C5 1_555 1_555
C6 H7 1_555 1_555
C7 C6 1_555 1_555
H8 C7 1_555 1_555
C8 C2 1_555 1_555
C9 C8 1_555 1_555
H9 C9 1_555 1_555
C10 N1 1_555 1_555
H10 C10 1_555 1_555
C11 O3 1_555 1_555
C12 C11 1_555 1_555
C13 O4 1_555 1_555
C14 C13 1_555 1_555
H11 C14 1_555 1_555
H12 C14 1_555 1_555
H13 C14 1_555 1_555
C15 C11 1_555 1_555
H14 C15 1_555 1_555
H15 C15 1_555 1_555
H16 C15 1_555 1_555
C16 H17 1_555 1_555
C17 C16 1_555 1_555
H18 C17 1_555 1_555
C18 C12 1_555 1_555
C19 C18 1_555 1_555
H19 C19 1_555 1_555
C20 N2 1_555 1_555
H20 C20 1_555 1_555
O5 C21 1_555 1_555
C21 H22 1_555 1_555
H21 O5 1_555 1_555
H23 C21 1_555 1_555
H24 C21 1_555 1_555
C7 C8 1_555 1_555
C9 C10 1_555 1_555
C12 C13 1_555 1_555
C17 C18 1_555 1_555
C19 C20 1_555 1_555

#END
