
#######################################################################
#
#                 Cambridge Crystallographic Data Centre
#                                CCDC 
#
#######################################################################
#
# If this CIF has been generated from an entry in the Cambridge 
# Structural Database, then it will include bibliographic, chemical, 
# crystal, experimental, refinement or atomic coordinate data resulting 
# from the CCDC's data processing and validation procedures.
#
#######################################################################

data_JAGFUS
_chemical_formula_moiety         'C54 H42 S3,3(C7 H8)'
_chemical_name_systematic        
'10,28,43-Trithiadecacyclo(18.18.13^13,35^.1^4,8^.1^12,16^.1^17,21^.1^22,26^.1^30,34^.1^37,41^.1^45,49^)heptapentaconta-1,3(57),4,6,8(56),12,14,16(55),17,19,21(54),22,24,26(53),30,32,34(52),35,37,39,41(51),45,49-tetracosaene tritoluene clathrate'
_symmetry_cell_setting           orthorhombic
_symmetry_space_group_name_H-M   'P b c n'
_symmetry_Int_Tables_number      60
_space_group_name_Hall           '-P 2n 2ab'
loop_
_symmetry_equiv_pos_site_id
_symmetry_equiv_pos_as_xyz
1 x,y,z
2 1/2-x,1/2-y,1/2+z
3 1/2+x,1/2-y,-z
4 -x,y,1/2-z
5 -x,-y,-z
6 1/2+x,1/2+y,1/2-z
7 1/2-x,1/2+y,z
8 x,-y,1/2+z
_cell_length_a                   10.432(2)
_cell_length_b                   24.040(2)
_cell_length_c                   23.143(2)
_cell_angle_alpha                90
_cell_angle_beta                 90
_cell_angle_gamma                90
_cell_volume                     5803.92
_cell_formula_units_Z            4
loop_
_atom_site_label
_atom_site_type_symbol
_atom_site_fract_x
_atom_site_fract_y
_atom_site_fract_z
C1 C 0.34682(84) -0.01701(37) 0.16241(39)
C2 C 0.28273(81) 0.00114(40) 0.21174(39)
C3 C 0.23283(82) -0.03715(36) 0.25133(41)
C4 C 0.24933(81) -0.09372(33) 0.24129(38)
C5 C 0.31160(82) -0.11225(35) 0.19168(39)
C6 C 0.36059(84) -0.07395(38) 0.15294(41)
C7 C 0.39660(99) 0.02285(38) 0.11974(39)
C8 C 0.51492(91) 0.01470(36) 0.09348(38)
C9 C 0.55926(93) 0.04968(38) 0.05023(37)
C10 C 0.4863(10) 0.09475(43) 0.03390(41)
C11 C 0.3695(10) 0.10378(41) 0.05906(45)
C12 C 0.32420(96) 0.06866(39) 0.10244(41)
C13 C 0.15883(84) -0.01771(38) 0.30285(36)
C14 C 0.19128(89) 0.03164(37) 0.33066(38)
C15 C 0.12196(97) 0.05005(40) 0.37795(39)
C16 C 0.01989(95) 0.01902(47) 0.39752(43)
C17 C -0.0127(10) -0.02975(49) 0.37116(47)
C18 C 0.05436(87) -0.04776(42) 0.32379(40)
C19 C 0.32000(82) -0.17292(37) 0.17897(40)
C20 C 0.34234(80) -0.21084(35) 0.22261(40)
C21 C 0.34651(89) -0.26725(41) 0.21136(48)
C22 C 0.32872(96) -0.28655(40) 0.15618(51)
C23 C 0.30512(95) -0.24951(44) 0.11225(48)
C24 C 0.30163(92) -0.19288(41) 0.12345(43)
C25 C 0.36933(95) -0.30854(37) 0.26038(47)
S1 S 0.50000 -0.35604(15) 0.25000
C26 C 0.1631(10) 0.10275(43) 0.40657(43)
C27 C 0.68503(91) 0.03752(39) 0.02107(40)
S2 S 0.20276(27) 0.09372(13) 0.48302(12)
H1 H 0.2715(8) 0.0452(4) 0.2195(4)
H2 H 0.2135(8) -0.1235(3) 0.2722(4)
H3 H 0.4102(8) -0.0884(4) 0.1148(4)
H4 H 0.5739(9) -0.0198(4) 0.1071(4)
H5 H 0.5214(10) 0.1230(4) 0.0012(4)
H6 H 0.3117(10) 0.1385(4) 0.0451(4)
H7 H 0.2329(10) 0.0770(4) 0.1227(4)
H8 H 0.2714(9) 0.0558(4) 0.3152(4)
H9 H -0.0350(9) 0.0334(5) 0.4341(4)
H10 H -0.0915(10) -0.0542(5) 0.3876(5)
H11 H 0.0259(9) -0.0857(4) 0.3024(4)
H12 H 0.3568(8) -0.1962(3) 0.2662(4)
H13 H 0.3332(10) -0.3306(4) 0.1473(5)
H14 H 0.2892(9) -0.2645(4) 0.0689(5)
H15 H 0.2844(9) -0.1640(4) 0.0885(4)
H16 H 0.3880(9) -0.2850(4) 0.2993(5)
H17 H 0.2829(9) -0.3327(4) 0.2659(5)
H18 H 0.2468(11) 0.1184(4) 0.3844(4)
H19 H 0.0862(11) 0.1326(4) 0.4031(4)
H20 H 0.7304(9) 0.0040(4) 0.0444(4)
H21 H 0.6645(9) 0.0242(4) -0.0225(4)
C25C C 0.63067(95) -0.30854(37) 0.23962(47)
S2C S 0.79724(27) 0.09372(13) 0.01698(12)
C27C C 0.31497(91) 0.03752(39) 0.47893(40)
C21C C 0.65349(89) -0.26725(41) 0.28864(48)
H16C H 0.6120(9) -0.2850(4) 0.2007(5)
H17C H 0.7171(9) -0.3327(4) 0.2341(5)
C26C C 0.8369(10) 0.10275(43) 0.09343(43)
C9C C 0.44074(93) 0.04968(38) 0.44977(37)
H20C H 0.2696(9) 0.0040(4) 0.4556(4)
H21C H 0.3355(9) 0.0242(4) 0.5225(4)
C20C C 0.65766(80) -0.21084(35) 0.27739(40)
C22C C 0.67128(96) -0.28655(40) 0.34382(51)
C15C C 0.87804(97) 0.05005(40) 0.12205(39)
H18C H 0.7532(11) 0.1184(4) 0.1156(4)
H19C H 0.9138(11) 0.1326(4) 0.0969(4)
C8C C 0.48508(91) 0.01470(36) 0.40652(38)
C10C C 0.5137(10) 0.09475(43) 0.46610(41)
C19C C 0.68000(82) -0.17292(37) 0.32103(40)
H12C H 0.6432(8) -0.1962(3) 0.2338(4)
C23C C 0.69488(95) -0.24951(44) 0.38775(48)
H13C H 0.6668(10) -0.3306(4) 0.3527(5)
C14C C 0.80872(89) 0.03164(37) 0.16934(38)
C16C C 0.98011(95) 0.01902(47) 0.10248(43)
C7C C 0.60340(99) 0.02285(38) 0.38026(39)
H4C H 0.4261(9) -0.0198(4) 0.3929(4)
C11C C 0.6305(10) 0.10378(41) 0.44094(45)
H5C H 0.4786(10) 0.1230(4) 0.4988(4)
C5C C 0.68840(82) -0.11225(35) 0.30832(39)
C24C C 0.69837(92) -0.19288(41) 0.37655(43)
H14C H 0.7108(9) -0.2645(4) 0.4311(5)
C13C C 0.84117(84) -0.01771(38) 0.19715(36)
H8C H 0.7286(9) 0.0558(4) 0.1848(4)
C17C C 1.0127(10) -0.02975(49) 0.12884(47)
H9C H 1.0350(9) 0.0334(5) 0.0659(4)
C1C C 0.65318(84) -0.01701(37) 0.33759(39)
C12C C 0.67580(96) 0.06866(39) 0.39756(41)
H6C H 0.6883(10) 0.1385(4) 0.4549(4)
C4C C 0.75067(81) -0.09372(33) 0.25871(38)
C6C C 0.63941(84) -0.07395(38) 0.34706(41)
H15C H 0.7156(9) -0.1640(4) 0.4115(4)
C3C C 0.76717(82) -0.03715(36) 0.24867(41)
C18C C 0.94564(87) -0.04776(42) 0.17621(40)
H10C H 1.0915(10) -0.0542(5) 0.1124(5)
C2C C 0.71727(81) 0.00114(40) 0.28826(39)
H7C H 0.7671(10) 0.0770(4) 0.3773(4)
H2C H 0.7865(8) -0.1235(3) 0.2278(4)
H3C H 0.5898(8) -0.0884(4) 0.3852(4)
H11C H 0.9741(9) -0.0857(4) 0.1976(4)
H1C H 0.7285(8) 0.0452(4) 0.2805(4)
C28 C 0.0086(18) 0.2338(7) 0.9722(7)
C29 C 0.1173(18) 0.2075(8) 0.9485(7)
C30 C 0.2176(14) 0.2483(6) 0.9343(6)
C31 C 0.3207(16) 0.2218(7) 0.9085(7)
C32 C 0.3424(16) 0.1635(7) 0.8942(7)
C33 C 0.2450(19) 0.1317(7) 0.9102(7)
C34 C 0.1279(14) 0.1531(6) 0.9388(6)
C35? C 0.0069(14) 0.2727(5) 0.7787(5)
C36? C 0.0137(14) 0.3211(6) 0.8099(6)
C37? C 0.0077(13) 0.3718(5) 0.7802(4)
C38? C 0.0121(25) 0.2073(9) 0.7824(9)
loop_
_geom_bond_atom_site_label_1
_geom_bond_atom_site_label_2
_geom_bond_site_symmetry_1
_geom_bond_site_symmetry_2
C1 C2 1_555 1_555
C2 C3 1_555 1_555
C3 C4 1_555 1_555
C4 C5 1_555 1_555
C5 C6 1_555 1_555
C6 C1 1_555 1_555
C7 C1 1_555 1_555
C8 C7 1_555 1_555
C9 C8 1_555 1_555
C10 C9 1_555 1_555
C11 C10 1_555 1_555
C12 C7 1_555 1_555
C13 C3 1_555 1_555
C14 C13 1_555 1_555
C15 C14 1_555 1_555
C16 C15 1_555 1_555
C17 C16 1_555 1_555
C18 C13 1_555 1_555
C19 C5 1_555 1_555
C20 C19 1_555 1_555
C21 C20 1_555 1_555
C22 C21 1_555 1_555
C23 C22 1_555 1_555
C24 C19 1_555 1_555
C25 C21 1_555 1_555
S1 C25 1_555 1_555
C26 C15 1_555 1_555
C27 C9 1_555 1_555
S2 C26 1_555 1_555
H1 C2 1_555 1_555
H2 C4 1_555 1_555
H3 C6 1_555 1_555
H4 C8 1_555 1_555
H5 C10 1_555 1_555
H6 C11 1_555 1_555
H7 C12 1_555 1_555
H8 C14 1_555 1_555
H9 C16 1_555 1_555
H10 C17 1_555 1_555
H11 C18 1_555 1_555
H12 C20 1_555 1_555
H13 C22 1_555 1_555
H14 C23 1_555 1_555
H15 C24 1_555 1_555
H16 C25 1_555 1_555
H17 C25 1_555 1_555
H18 C26 1_555 1_555
H19 C26 1_555 1_555
H20 C27 1_555 1_555
H21 C27 1_555 1_555
C28 C29 1_555 1_555
C29 C30 1_555 1_555
C30 C31 1_555 1_555
C31 C32 1_555 1_555
C32 C33 1_555 1_555
C33 C34 1_555 1_555
C34 C29 1_555 1_555
C25C S1 1_555 1_555
S2C C27 1_555 1_555
C27C S2 1_555 1_555
C21C C25C 1_555 1_555
H16C C25C 1_555 1_555
H17C C25C 1_555 1_555
C26C S2C 1_555 1_555
C9C C27C 1_555 1_555
H20C C27C 1_555 1_555
H21C C27C 1_555 1_555
C20C C21C 1_555 1_555
C22C C21C 1_555 1_555
C15C C26C 1_555 1_555
H18C C26C 1_555 1_555
H19C C26C 1_555 1_555
C8C C9C 1_555 1_555
C10C C9C 1_555 1_555
C19C C20C 1_555 1_555
H12C C20C 1_555 1_555
C23C C22C 1_555 1_555
H13C C22C 1_555 1_555
C14C C15C 1_555 1_555
C16C C15C 1_555 1_555
C7C C8C 1_555 1_555
H4C C8C 1_555 1_555
C11C C10C 1_555 1_555
H5C C10C 1_555 1_555
C5C C19C 1_555 1_555
C24C C19C 1_555 1_555
H14C C23C 1_555 1_555
C13C C14C 1_555 1_555
H8C C14C 1_555 1_555
C17C C16C 1_555 1_555
H9C C16C 1_555 1_555
C1C C7C 1_555 1_555
C12C C7C 1_555 1_555
H6C C11C 1_555 1_555
C4C C5C 1_555 1_555
C6C C5C 1_555 1_555
H15C C24C 1_555 1_555
C3C C13C 1_555 1_555
C18C C13C 1_555 1_555
H10C C17C 1_555 1_555
C2C C1C 1_555 1_555
H7C C12C 1_555 1_555
H2C C4C 1_555 1_555
H3C C6C 1_555 1_555
H11C C18C 1_555 1_555
H1C C2C 1_555 1_555
C11 C12 1_555 1_555
C17 C18 1_555 1_555
C23 C24 1_555 1_555
C23C C24C 1_555 1_555
C11C C12C 1_555 1_555
C17C C18C 1_555 1_555
C1C C6C 1_555 1_555
C4C C3C 1_555 1_555
C3C C2C 1_555 1_555

#END
