
#######################################################################
#
#                 Cambridge Crystallographic Data Centre
#                                CCDC 
#
#######################################################################
#
# If this CIF has been generated from an entry in the Cambridge 
# Structural Database, then it will include bibliographic, chemical, 
# crystal, experimental, refinement or atomic coordinate data resulting 
# from the CCDC's data processing and validation procedures.
#
#######################################################################

data_JAGHUX
_chemical_formula_moiety         'C18 H17 N3 O4,C2 H6 O1 S1'
_chemical_name_systematic        
'2-Amino-7,7-dimethyl-4-(4-nitrophenyl)-5-oxo-5,6,7,8-tetrahydro-4H-chromene-3-carbonitrile dimethyl sulfoxide solvate'
_symmetry_cell_setting           triclinic
_symmetry_space_group_name_H-M   'P -1'
_symmetry_Int_Tables_number      2
_space_group_name_Hall           '-P 1'
loop_
_symmetry_equiv_pos_site_id
_symmetry_equiv_pos_as_xyz
1 x,y,z
2 -x,-y,-z
_cell_length_a                   8.2171(7)
_cell_length_b                   9.2238(7)
_cell_length_c                   14.5585(11)
_cell_angle_alpha                74.895(6)
_cell_angle_beta                 87.392(6)
_cell_angle_gamma                78.552(7)
_cell_volume                     1044.09
_exptl_crystal_colour            white
_exptl_crystal_description       Block
_cell_formula_units_Z            2
loop_
_atom_site_label
_atom_site_type_symbol
_atom_site_fract_x
_atom_site_fract_y
_atom_site_fract_z
O1 O -0.5343(2) 0.4141(2) 0.14384(14)
C1 C -0.1974(3) 0.2766(3) 0.10613(19)
H1 H -0.1244 0.2926 0.0508
O2 O 0.0272(3) 0.4636(2) 0.12089(17)
C2 C -0.3535(3) 0.2342(3) 0.07724(19)
C3 C -0.5073(3) 0.2964(3) 0.10072(19)
C4 C -0.1056(3) 0.1478(3) 0.1853(2)
C5 C -0.2466(3) 0.4243(3) 0.13447(19)
C6 C -0.4022(3) 0.4809(3) 0.15407(19)
N1 N -0.6512(3) 0.2595(3) 0.08655(18)
H2 H -0.6529 0.1876 0.0592
H3 H -0.7424 0.3076 0.1047
C7 C -0.4577(4) 0.6191(3) 0.1903(2)
H4 H -0.5437 0.6001 0.2373
H5 H -0.5059 0.7040 0.1381
C8 C -0.1167(4) 0.5099(3) 0.1408(2)
C9 C -0.3346(3) 0.1179(3) 0.0287(2)
C10 C -0.1686(4) 0.6590(3) 0.1684(2)
H6 H -0.1953 0.7412 0.1111
H7 H -0.0754 0.6777 0.1992
N2 N -0.3174(3) 0.0242(3) -0.01150(19)
C11 C -0.1544(4) 0.1273(3) 0.2790(2)
H8 H -0.2445 0.1949 0.2947
C12 C 0.0594(4) -0.0911(3) 0.3256(2)
C13 C 0.0283(4) 0.0454(3) 0.1632(2)
H9 H 0.0631 0.0580 0.1005
N3 N 0.1470(4) -0.2197(3) 0.3996(3)
C14 C 0.1107(4) -0.0752(3) 0.2332(2)
H10 H 0.1994 -0.1445 0.2178
C15 C -0.3173(4) 0.6636(3) 0.2348(2)
O3 O 0.2608(4) -0.3091(3) 0.3764(2)
C16 C -0.0723(4) 0.0083(3) 0.3499(2)
H11 H -0.1056 -0.0041 0.4129
C17 C -0.3755(5) 0.8252(3) 0.2477(3)
H12 H -0.4048 0.8956 0.1869
H13 H -0.2876 0.8544 0.2758
H14 H -0.4705 0.8270 0.2886
O4 O 0.1021(4) -0.2309(4) 0.4816(2)
C18 C -0.2692(5) 0.5531(4) 0.3319(2)
H15 H -0.3634 0.5561 0.3734
H16 H -0.1804 0.5826 0.3589
H17 H -0.2337 0.4511 0.3246
O5 O -0.653(3) 0.035(2) 0.4069(19)
C19 C -0.808(3) 0.333(2) 0.3428(18)
H18 H -0.8754 0.3070 0.2991
H19 H -0.7717 0.4259 0.3123
H20 H -0.8730 0.3457 0.3977
C20 C -0.6055(18) 0.2523(15) 0.4773(8)
H21 H -0.5354 0.1763 0.5246
H22 H -0.7126 0.2795 0.5041
H23 H -0.5565 0.3414 0.4564
S1 S -0.6279(4) 0.1780(5) 0.3794(2)
O6? O -0.6983(14) 0.0368(14) 0.4371(8)
C21? C -0.813(3) 0.291(2) 0.3344(13)
H24? H -0.8149 0.2528 0.2791
H25? H -0.7880 0.3916 0.3160
H26? H -0.9199 0.2947 0.3644
C22? C -0.544(2) 0.258(2) 0.4397(16)
H27? H -0.4616 0.1878 0.4824
H28? H -0.6030 0.3332 0.4705
H29? H -0.4912 0.3086 0.3836
S2? S -0.6653(13) 0.1718(8) 0.4123(10)
loop_
_geom_bond_atom_site_label_1
_geom_bond_atom_site_label_2
_geom_bond_site_symmetry_1
_geom_bond_site_symmetry_2
O1 C3 1_555 1_555
C1 H1 1_555 1_555
O2 C8 1_555 1_555
C2 C1 1_555 1_555
C3 C2 1_555 1_555
C4 C1 1_555 1_555
C5 C1 1_555 1_555
C6 O1 1_555 1_555
N1 C3 1_555 1_555
H2 N1 1_555 1_555
H3 N1 1_555 1_555
C7 C6 1_555 1_555
H4 C7 1_555 1_555
H5 C7 1_555 1_555
C8 C5 1_555 1_555
C9 C2 1_555 1_555
C10 C8 1_555 1_555
H6 C10 1_555 1_555
H7 C10 1_555 1_555
N2 C9 1_555 1_555
C11 C4 1_555 1_555
H8 C11 1_555 1_555
C12 N3 1_555 1_555
C13 C4 1_555 1_555
H9 C13 1_555 1_555
N3 O3 1_555 1_555
C14 C12 1_555 1_555
H10 C14 1_555 1_555
C15 C7 1_555 1_555
C16 C11 1_555 1_555
H11 C16 1_555 1_555
C17 C15 1_555 1_555
H12 C17 1_555 1_555
H13 C17 1_555 1_555
H14 C17 1_555 1_555
O4 N3 1_555 1_555
C18 C15 1_555 1_555
H15 C18 1_555 1_555
H16 C18 1_555 1_555
H17 C18 1_555 1_555
O5 S1 1_555 1_555
C19 H18 1_555 1_555
H19 C19 1_555 1_555
H20 C19 1_555 1_555
C20 H21 1_555 1_555
H22 C20 1_555 1_555
H23 C20 1_555 1_555
S1 C19 1_555 1_555
C5 C6 1_555 1_555
C10 C15 1_555 1_555
C12 C16 1_555 1_555
C13 C14 1_555 1_555
C20 S1 1_555 1_555

#END
