
#######################################################################
#
#                 Cambridge Crystallographic Data Centre
#                                CCDC 
#
#######################################################################
#
# If this CIF has been generated from an entry in the Cambridge 
# Structural Database, then it will include bibliographic, chemical, 
# crystal, experimental, refinement or atomic coordinate data resulting 
# from the CCDC's data processing and validation procedures.
#
#######################################################################

data_JAGJEG01
_chemical_formula_moiety         
'0.67(C10 H8 S8 1+),0.67(C10 H8 S8),0.67(C1 F3 O3 S1 1-)'
_chemical_name_systematic        
'bis(bis(Ethylenedithio)tetrathiafulvalene) trifluoromethanesulfonate'
_symmetry_cell_setting           monoclinic
_symmetry_space_group_name_H-M   'C c'
_symmetry_Int_Tables_number      9
_space_group_name_Hall           'C -2yc'
loop_
_symmetry_equiv_pos_site_id
_symmetry_equiv_pos_as_xyz
1 x,y,z
2 x,-y,1/2+z
3 1/2+x,1/2+y,z
4 1/2+x,1/2-y,1/2+z
_cell_length_a                   35.239(7)
_cell_length_b                   6.5440(13)
_cell_length_c                   14.646(3)
_cell_angle_alpha                90
_cell_angle_beta                 110.26(3)
_cell_angle_gamma                90
_cell_volume                     3168.47
_exptl_crystal_colour            black
_exptl_crystal_description       needle
_cell_formula_units_Z            6
loop_
_atom_site_label
_atom_site_type_symbol
_atom_site_fract_x
_atom_site_fract_y
_atom_site_fract_z
S1 S 0.10042(17) 0.7490(9) -0.2457(6)
S2 S 0.07819(14) 0.2481(8) -0.1998(3)
S3 S 0.18182(17) 0.5907(10) -0.2118(7)
S4 S 0.16364(14) 0.1718(7) -0.1815(4)
S5 S 0.27350(16) 0.4667(8) -0.1885(5)
S6 S 0.25250(14) 0.0377(7) -0.1779(3)
S7 S 0.35774(14) 0.3942(8) -0.1734(4)
S8 S 0.33017(19) -0.1162(9) -0.1789(8)
C1 C 0.0527(7) 0.656(4) -0.246(3)
H1 H 0.0512 0.6724 -0.1817
H2 H 0.0313 0.7382 -0.2909
C2 C 0.0458(6) 0.432(4) -0.276(3)
H3 H 0.0477 0.4190 -0.3404
H4 H 0.0182 0.3974 -0.2823
C3 C 0.1330(5) 0.541(3) -0.2156(19)
C4 C 0.1252(5) 0.347(3) -0.2019(13)
C5 C 0.1981(6) 0.340(3) -0.1946(17)
C6 C 0.2360(6) 0.294(3) -0.1910(15)
C7 C 0.3125(6) 0.293(3) -0.1816(10)
C8 C 0.3010(4) 0.087(3) -0.1798(12)
C9 C 0.3903(7) 0.176(4) -0.159(4)
H5 H 0.4009 0.1803 -0.2113
H6 H 0.4130 0.1975 -0.0989
C10 C 0.3769(8) -0.020(4) -0.155(3)
H7 H 0.3919 -0.0651 -0.0895
H8 H 0.3878 -0.0967 -0.1970
S9 S 0.1526(2) 1.0957(9) 0.0633(7)
S10 S 0.12331(13) 0.5914(8) 0.0418(4)
S11 S 0.22870(14) 0.9472(8) 0.0522(4)
S12 S 0.20711(18) 0.5178(9) 0.0462(7)
S13 S 0.31837(15) 0.8233(7) 0.0593(4)
S14 S 0.29874(17) 0.3917(9) 0.0702(6)
S15 S 0.40514(17) 0.7447(9) 0.1018(8)
S16 S 0.37969(17) 0.2371(8) 0.1097(4)
C11 C 0.1035(7) 0.994(3) 0.031(3)
H9 H 0.0929 1.0380 0.0808
H10 H 0.0873 1.0613 -0.0288
C12 C 0.0971(8) 0.822(4) 0.020(4)
H11 H 0.0818 0.8144 -0.0493
H12 H 0.0772 0.8010 0.0511
C13 C 0.1805(6) 0.886(3) 0.0574(14)
C14 C 0.1718(5) 0.695(3) 0.0513(15)
C15 C 0.2436(6) 0.696(3) 0.0521(13)
C16 C 0.2817(6) 0.643(3) 0.0596(13)
C17 C 0.3587(6) 0.647(3) 0.0836(14)
C18 C 0.3488(5) 0.450(3) 0.0884(11)
C19 C 0.4342(7) 0.542(3) 0.116(3)
H13 H 0.4467 0.5597 0.0668
H14 H 0.4557 0.5663 0.1776
C20 C 0.4280(8) 0.348(4) 0.116(4)
H15 H 0.4481 0.2940 0.1743
H16 H 0.4342 0.2917 0.0614
S17 S 0.48759(16) 0.5916(8) -0.0797(4)
O1 O 0.5075(5) 0.507(3) 0.0157(12)
O2 O 0.4444(4) 0.566(2) -0.1196(9)
O3 O 0.5079(4) 0.554(3) -0.1476(10)
F1 F 0.4762(4) 0.932(2) 0.0007(11)
F2 F 0.5335(3) 0.914(2) -0.0246(11)
F3 F 0.4781(4) 0.964(2) -0.1416(10)
C21 C 0.4923(4) 0.867(3) -0.0589(10)
loop_
_geom_bond_atom_site_label_1
_geom_bond_atom_site_label_2
_geom_bond_site_symmetry_1
_geom_bond_site_symmetry_2
S1 C1 1_555 1_555
S2 C2 1_555 1_555
S3 C3 1_555 1_555
S4 C4 1_555 1_555
S5 C6 1_555 1_555
S6 C6 1_555 1_555
S7 C7 1_555 1_555
S8 C8 1_555 1_555
S9 C11 1_555 1_555
S10 C12 1_555 1_555
S11 C13 1_555 1_555
S12 C14 1_555 1_555
S13 C16 1_555 1_555
S14 C16 1_555 1_555
S15 C17 1_555 1_555
S16 C18 1_555 1_555
S17 O1 1_555 1_555
O2 S17 1_555 1_555
O3 S17 1_555 1_555
F1 C21 1_555 1_555
F2 C21 1_555 1_555
F3 C21 1_555 1_555
C1 H1 1_555 1_555
H2 C1 1_555 1_555
C2 C1 1_555 1_555
H3 C2 1_555 1_555
H4 C2 1_555 1_555
C3 S1 1_555 1_555
C4 S2 1_555 1_555
C5 S3 1_555 1_555
C6 C5 1_555 1_555
C7 S5 1_555 1_555
C8 S6 1_555 1_555
C9 S7 1_555 1_555
H5 C9 1_555 1_555
H6 C9 1_555 1_555
C10 S8 1_555 1_555
H7 C10 1_555 1_555
H8 C10 1_555 1_555
C11 H9 1_555 1_555
H10 C11 1_555 1_555
C12 C11 1_555 1_555
H11 C12 1_555 1_555
H12 C12 1_555 1_555
C13 S9 1_555 1_555
C14 S10 1_555 1_555
C15 S11 1_555 1_555
C16 C15 1_555 1_555
C17 S13 1_555 1_555
C18 S14 1_555 1_555
C19 S15 1_555 1_555
H13 C19 1_555 1_555
H14 C19 1_555 1_555
C20 S16 1_555 1_555
H15 C20 1_555 1_555
H16 C20 1_555 1_555
C21 S17 1_555 1_555
S4 C5 1_555 1_555
S12 C15 1_555 1_555
C3 C4 1_555 1_555
C7 C8 1_555 1_555
C9 C10 1_555 1_555
C13 C14 1_555 1_555
C17 C18 1_555 1_555
C19 C20 1_555 1_555

#END
