
#######################################################################
#
#                 Cambridge Crystallographic Data Centre
#                                CCDC 
#
#######################################################################
#
# If this CIF has been generated from an entry in the Cambridge 
# Structural Database, then it will include bibliographic, chemical, 
# crystal, experimental, refinement or atomic coordinate data resulting 
# from the CCDC's data processing and validation procedures.
#
#######################################################################

data_JAGJAC
_chemical_compound_source        'Cymbidium aloifolium'
_chemical_formula_moiety         'C18 H16 O6'
_chemical_name_systematic        1,2,3,7-Tetramethoxy-5,6-phenanthraquinone
_symmetry_cell_setting           monoclinic
_symmetry_space_group_name_H-M   'P 21/n'
_symmetry_Int_Tables_number      14
_space_group_name_Hall           '-P 2yn'
loop_
_symmetry_equiv_pos_site_id
_symmetry_equiv_pos_as_xyz
1 x,y,z
2 1/2-x,1/2+y,1/2-z
3 -x,-y,-z
4 1/2+x,1/2-y,1/2+z
_cell_length_a                   12.756(2)
_cell_length_b                   15.320(2)
_cell_length_c                   7.9210(10)
_cell_angle_alpha                90
_cell_angle_beta                 97.00(2)
_cell_angle_gamma                90
_cell_volume                     1536.4
_exptl_crystal_colour            'dark red'
_exptl_crystal_description       'rectangular needles'
_cell_formula_units_Z            4
_exptl_crystal_recrystallization_method 'petrol benzene'
loop_
_atom_site_label
_atom_site_type_symbol
_atom_site_fract_x
_atom_site_fract_y
_atom_site_fract_z
C1 C 1.0738(4) 0.3743(3) 0.3883(5)
H1 H 1.0636(4) 0.3222(3) 0.4441(5)
C2 C 0.9810(3) 0.4243(3) 0.3219(5)
C3 C 0.9867(3) 0.5041(2) 0.2370(4)
C4 C 1.0927(3) 0.5379(3) 0.2209(5)
C5 C 1.1901(4) 0.4815(3) 0.2883(5)
C6 C 1.1725(4) 0.3987(3) 0.3742(5)
O1 O 1.2628(3) 0.3561(2) 0.4296(4)
C7 C 1.2538(4) 0.2732(4) 0.5062(6)
H2 H 1.3230(4) 0.2499(4) 0.5400(6)
H3 H 1.2152(4) 0.2344(4) 0.4261(6)
H4 H 1.2170(4) 0.2792(4) 0.6043(6)
O2 O 1.2768(3) 0.5082(2) 0.2706(4)
O3 O 1.1117(2) 0.6074(2) 0.1585(4)
C8 C 0.8828(4) 0.3889(3) 0.3456(5)
H5 H 0.8795(4) 0.3359(3) 0.4019(5)
C9 C 0.7928(4) 0.4312(3) 0.2874(5)
H6 H 0.7283(4) 0.4065(3) 0.3042(5)
C10 C 0.7938(3) 0.5115(3) 0.2023(5)
C11 C 0.8919(3) 0.5496(2) 0.1758(4)
C12 C 0.6980(3) 0.5552(3) 0.1470(5)
C13 C 0.6987(3) 0.6350(3) 0.0693(5)
C14 C 0.7958(3) 0.6724(3) 0.0424(5)
C15 C 0.8893(4) 0.6316(3) 0.0916(5)
H7 H 0.9522(4) 0.6575(3) 0.0698(5)
O4 O 0.7853(2) 0.7512(2) -0.0353(4)
C16 C 0.8787(4) 0.7960(3) -0.0663(6)
H8 H 0.8601(4) 0.8506(3) -0.1215(6)
H9 H 0.9173(4) 0.7610(3) -0.1380(6)
H10 H 0.9218(4) 0.8067(3) 0.0398(6)
O5 O 0.6065(2) 0.6805(2) 0.0259(4)
C17 C 0.5585(4) 0.6727(4) -0.1422(7)
H11 H 0.4951(4) 0.7071(4) -0.1570(7)
H12 H 0.5414(4) 0.6127(4) -0.1664(7)
H13 H 0.6062(4) 0.6932(4) -0.2183(7)
O6 O 0.6062(2) 0.5135(2) 0.1690(4)
C18 C 0.5390(5) 0.5541(4) 0.2727(7)
H14 H 0.4777(5) 0.5184(4) 0.2782(7)
H15 H 0.5177(5) 0.6100(4) 0.2257(7)
H16 H 0.5756(5) 0.5617(4) 0.3850(7)
loop_
_geom_bond_atom_site_label_1
_geom_bond_atom_site_label_2
_geom_bond_site_symmetry_1
_geom_bond_site_symmetry_2
C1 H1 1_555 1_555
C2 C1 1_555 1_555
C3 C2 1_555 1_555
C4 C3 1_555 1_555
C5 C4 1_555 1_555
C6 C1 1_555 1_555
O1 C6 1_555 1_555
C7 O1 1_555 1_555
H2 C7 1_555 1_555
H3 C7 1_555 1_555
H4 C7 1_555 1_555
O2 C5 1_555 1_555
O3 C4 1_555 1_555
C8 C2 1_555 1_555
H5 C8 1_555 1_555
C9 C8 1_555 1_555
H6 C9 1_555 1_555
C10 C9 1_555 1_555
C11 C3 1_555 1_555
C12 C10 1_555 1_555
C13 C12 1_555 1_555
C14 C13 1_555 1_555
C15 C11 1_555 1_555
H7 C15 1_555 1_555
O4 C14 1_555 1_555
C16 O4 1_555 1_555
H8 C16 1_555 1_555
H9 C16 1_555 1_555
H10 C16 1_555 1_555
O5 C13 1_555 1_555
C17 O5 1_555 1_555
H11 C17 1_555 1_555
H12 C17 1_555 1_555
H13 C17 1_555 1_555
O6 C12 1_555 1_555
C18 O6 1_555 1_555
H14 C18 1_555 1_555
H15 C18 1_555 1_555
H16 C18 1_555 1_555
C5 C6 1_555 1_555
C10 C11 1_555 1_555
C14 C15 1_555 1_555

#END
