
#######################################################################
#
#                 Cambridge Crystallographic Data Centre
#                                CCDC 
#
#######################################################################
#
# If this CIF has been generated from an entry in the Cambridge 
# Structural Database, then it will include bibliographic, chemical, 
# crystal, experimental, refinement or atomic coordinate data resulting 
# from the CCDC's data processing and validation procedures.
#
#######################################################################

data_JAGKOU
_chemical_formula_moiety         'C16 H12 N2 O3'
_chemical_name_systematic        
2-Amino-7-methyl-5-oxo-4-phenyl-4H,5H-pyrano[4,3-b]pyran-3-carbonitrile
_symmetry_cell_setting           monoclinic
_symmetry_space_group_name_H-M   'P 21/n'
_symmetry_Int_Tables_number      14
_space_group_name_Hall           '-P 2yn'
loop_
_symmetry_equiv_pos_site_id
_symmetry_equiv_pos_as_xyz
1 x,y,z
2 1/2-x,1/2+y,1/2-z
3 -x,-y,-z
4 1/2+x,1/2-y,1/2+z
_cell_length_a                   10.7357(12)
_cell_length_b                   8.7774(8)
_cell_length_c                   15.0759(16)
_cell_angle_alpha                90
_cell_angle_beta                 103.575(11)
_cell_angle_gamma                90
_cell_volume                     1380.94
_exptl_crystal_colour            white
_exptl_crystal_description       block
_cell_formula_units_Z            4
loop_
_atom_site_label
_atom_site_type_symbol
_atom_site_fract_x
_atom_site_fract_y
_atom_site_fract_z
O1 O 0.38219(15) 0.85333(17) 0.18901(11)
C1 C 0.4133(2) 0.8767(3) 0.28148(16)
C2 C 0.4486(2) 0.7612(3) 0.34180(15)
C3 C 0.4696(2) 0.5999(3) 0.31320(15)
H1 H 0.4247 0.5299 0.3457
C4 C 0.41300(19) 0.5851(2) 0.21297(15)
C5 C 0.3958(2) 0.4360(3) 0.17373(17)
O2 O 0.41315(17) 0.31679(19) 0.21539(12)
O3 O 0.35436(16) 0.42563(18) 0.08019(11)
C6 C 0.3245(2) 0.5515(3) 0.02613(18)
C7 C 0.3337(2) 0.6903(3) 0.06216(16)
H2 H 0.3115 0.7755 0.0252
C8 C 0.37753(19) 0.7060(3) 0.15736(16)
N1 N 0.4033(2) 1.0246(2) 0.30028(15)
H3 H 0.4202 1.0552 0.3560
H4 H 0.3799 1.0891 0.2566
C9 C 0.4783(2) 0.7966(3) 0.43530(19)
N2 N 0.5036(2) 0.8231(3) 0.51244(17)
C10 C 0.6122(2) 0.5603(3) 0.33736(16)
C11 C 0.6951(2) 0.6321(3) 0.29387(17)
H5 H 0.6634 0.7019 0.2477
C12 C 0.8246(3) 0.6019(5) 0.3179(2)
H6 H 0.8794 0.6501 0.2873
C13 C 0.8725(3) 0.5020(5) 0.3862(3)
H7 H 0.9602 0.4837 0.4030
C14 C 0.7934(4) 0.4290(4) 0.4297(3)
H8 H 0.8268 0.3596 0.4758
C15 C 0.6611(3) 0.4572(3) 0.4060(2)
H9 H 0.6068 0.4069 0.4361
C16 C 0.2825(3) 0.5092(4) -0.07204(18)
H10 H 0.2849 0.4004 -0.0781
H11 H 0.3389 0.5551 -0.1053
H12 H 0.1967 0.5449 -0.0961
loop_
_geom_bond_atom_site_label_1
_geom_bond_atom_site_label_2
_geom_bond_site_symmetry_1
_geom_bond_site_symmetry_2
O1 C1 1_555 1_555
C1 C2 1_555 1_555
C2 C3 1_555 1_555
C3 H1 1_555 1_555
C4 C3 1_555 1_555
C5 C4 1_555 1_555
O2 C5 1_555 1_555
O3 C5 1_555 1_555
C6 O3 1_555 1_555
C7 C6 1_555 1_555
H2 C7 1_555 1_555
C8 O1 1_555 1_555
N1 C1 1_555 1_555
H3 N1 1_555 1_555
H4 N1 1_555 1_555
C9 C2 1_555 1_555
N2 C9 1_555 1_555
C10 C3 1_555 1_555
C11 C10 1_555 1_555
H5 C11 1_555 1_555
C12 C11 1_555 1_555
H6 C12 1_555 1_555
C13 C12 1_555 1_555
H7 C13 1_555 1_555
C14 C13 1_555 1_555
H8 C14 1_555 1_555
C15 C10 1_555 1_555
H9 C15 1_555 1_555
C16 C6 1_555 1_555
H10 C16 1_555 1_555
H11 C16 1_555 1_555
H12 C16 1_555 1_555
C4 C8 1_555 1_555
C7 C8 1_555 1_555
C14 C15 1_555 1_555

#END
