
#######################################################################
#
#                 Cambridge Crystallographic Data Centre
#                                CCDC 
#
#######################################################################
#
# If this CIF has been generated from an entry in the Cambridge 
# Structural Database, then it will include bibliographic, chemical, 
# crystal, experimental, refinement or atomic coordinate data resulting 
# from the CCDC's data processing and validation procedures.
#
#######################################################################

data_JAGQIU
_chemical_formula_moiety         'C21 H27 Br1 N2 O3 S1'
_chemical_name_systematic        
'4-methylphenyl (2-(4-bromophenyl)-1-(diisopropylamino)ethylidene)sulfamate'
_symmetry_cell_setting           orthorhombic
_symmetry_space_group_name_H-M   'P n a 21'
_symmetry_Int_Tables_number      33
_space_group_name_Hall           'P 2c -2n'
loop_
_symmetry_equiv_pos_site_id
_symmetry_equiv_pos_as_xyz
1 x,y,z
2 -x,-y,1/2+z
3 1/2-x,1/2+y,1/2+z
4 1/2+x,1/2-y,z
_cell_length_a                   25.4976(2)
_cell_length_b                   9.13380(10)
_cell_length_c                   18.5967(2)
_cell_angle_alpha                90
_cell_angle_beta                 90
_cell_angle_gamma                90
_cell_volume                     4330.99
_exptl_crystal_colour            colorless
_exptl_crystal_description       block
_cell_formula_units_Z            8
loop_
_atom_site_label
_atom_site_type_symbol
_atom_site_fract_x
_atom_site_fract_y
_atom_site_fract_z
Br1 Br 0.18289(2) 1.17787(6) 0.56588(4)
S1 S 0.37697(5) 0.70189(14) 0.28160(9)
C1 C 0.2101(2) 1.0734(5) 0.4858(3)
C2 C 0.2594(2) 1.0087(6) 0.4909(3)
H1 H 0.2807 1.0230 0.5323
C3 C 0.2769(2) 0.9226(6) 0.4340(3)
H2 H 0.3102 0.8766 0.4370
C4 C 0.2461(2) 0.9028(5) 0.3729(3)
C5 C 0.1971(2) 0.9726(6) 0.3686(3)
H3 H 0.1761 0.9608 0.3269
C6 C 0.1794(2) 1.0582(6) 0.4248(4)
H4 H 0.1464 1.1063 0.4217
C7 C 0.2632(2) 0.8008(6) 0.3125(3)
H5 H 0.2326 0.7802 0.2814
H6 H 0.2898 0.8515 0.2828
C8 C 0.2857(2) 0.6579(6) 0.3383(3)
C9 C 0.2778(2) 0.4347(6) 0.4134(3)
H7 H 0.2487 0.3947 0.4436
C10 C 0.3217(3) 0.4687(10) 0.4650(5)
H8 H 0.3104 0.5453 0.4984
H9 H 0.3524 0.5028 0.4380
H10 H 0.3309 0.3802 0.4920
C11 C 0.2909(3) 0.3141(7) 0.3587(5)
H11 H 0.2604 0.2966 0.3278
H12 H 0.2999 0.2237 0.3842
H13 H 0.3207 0.3451 0.3291
C12 C 0.19917(19) 0.5937(6) 0.3894(3)
H14 H 0.1894 0.6845 0.3625
C13 C 0.1869(2) 0.6208(7) 0.4684(4)
H15 H 0.2083 0.7022 0.4862
H16 H 0.1948 0.5323 0.4963
H17 H 0.1497 0.6452 0.4737
C14 C 0.1667(2) 0.4681(7) 0.3582(4)
H18 H 0.1755 0.4550 0.3073
H19 H 0.1293 0.4912 0.3627
H20 H 0.1744 0.3777 0.3845
C15 C 0.4197(2) 0.9549(6) 0.3141(3)
C16 C 0.3982(2) 1.0916(7) 0.3082(4)
H21 H 0.3613 1.1043 0.3109
C17 C 0.4305(3) 1.2107(8) 0.2982(5)
H22 H 0.4157 1.3060 0.2953
C18 C 0.4844(3) 1.1928(7) 0.2923(4)
C19 C 0.5050(2) 1.0529(7) 0.2954(4)
H23 H 0.5417 1.0391 0.2894
C20 C 0.4727(2) 0.9308(7) 0.3074(4)
H24 H 0.4869 0.8350 0.3107
C21 C 0.5203(3) 1.3265(7) 0.2864(5)
H25 H 0.5568 1.2941 0.2826
H26 H 0.5162 1.3878 0.3293
H27 H 0.5109 1.3831 0.2436
N1 N 0.33476(18) 0.6120(5) 0.3250(3)
N2 N 0.25601(16) 0.5693(5) 0.3780(2)
O1 O 0.36128(18) 0.7603(5) 0.2145(3)
O2 O 0.42405(17) 0.6169(5) 0.2809(3)
O3 O 0.38561(15) 0.8389(4) 0.3351(2)
Br2 Br 0.56054(2) 0.68295(6) 0.39898(4)
S2 S 0.36630(5) 0.21273(14) 0.68399(8)
C22 C 0.5330(2) 0.5822(6) 0.4807(3)
C23 C 0.5640(2) 0.5681(6) 0.5403(4)
H28 H 0.5973 0.6143 0.5425
C24 C 0.5455(2) 0.4841(5) 0.5978(3)
H29 H 0.5664 0.4746 0.6399
C25 C 0.4973(2) 0.4146(5) 0.5944(3)
C26 C 0.4663(2) 0.4346(6) 0.5329(3)
H30 H 0.4326 0.3903 0.5306
C27 C 0.4839(2) 0.5178(6) 0.4756(3)
H31 H 0.4629 0.5304 0.4338
C28 C 0.4804(2) 0.3137(5) 0.6546(3)
H32 H 0.4538 0.3645 0.6843
H33 H 0.5111 0.2936 0.6858
C29 C 0.4578(2) 0.1689(5) 0.6289(3)
C30 C 0.5447(2) 0.1072(6) 0.5749(3)
H34 H 0.5552 0.1977 0.6015
C31 C 0.5548(2) 0.1334(8) 0.4957(4)
H35 H 0.5334 0.2159 0.4792
H36 H 0.5455 0.0454 0.4684
H37 H 0.5920 0.1558 0.4884
C32 C 0.5768(2) -0.0203(6) 0.6050(4)
H38 H 0.5691 -0.0321 0.6563
H39 H 0.6143 0.0000 0.5987
H40 H 0.5676 -0.1104 0.5794
C33 C 0.4657(2) -0.0545(6) 0.5537(3)
H41 H 0.4949 -0.0951 0.5239
C34 C 0.4219(3) -0.0188(9) 0.5013(4)
H42 H 0.4088 -0.1096 0.4796
H43 H 0.4353 0.0457 0.4634
H44 H 0.3933 0.0303 0.5269
C35 C 0.4526(3) -0.1719(6) 0.6081(5)
H45 H 0.4385 -0.2579 0.5832
H46 H 0.4263 -0.1344 0.6419
H47 H 0.4843 -0.1993 0.6345
C36 C 0.3238(2) 0.4670(6) 0.6511(3)
C37 C 0.2708(2) 0.4401(6) 0.6506(3)
H48 H 0.2578 0.3435 0.6446
C38 C 0.2366(2) 0.5576(7) 0.6591(4)
H49 H 0.1998 0.5402 0.6600
C39 C 0.2552(3) 0.6997(7) 0.6663(4)
C40 C 0.3084(3) 0.7228(8) 0.6679(4)
H50 H 0.3216 0.8195 0.6733
C41 C 0.3439(3) 0.6040(6) 0.6616(4)
H51 H 0.3807 0.6192 0.6646
C42 C 0.2175(3) 0.8292(8) 0.6682(5)
H52 H 0.1813 0.7932 0.6674
H53 H 0.2237 0.8918 0.6263
H54 H 0.2234 0.8858 0.7123
N3 N 0.40939(16) 0.1240(5) 0.6410(3)
N4 N 0.48735(17) 0.0811(4) 0.5889(2)
O4 O 0.31842(14) 0.1323(5) 0.6811(3)
O5 O 0.38190(16) 0.2621(5) 0.7542(2)
O6 O 0.35997(15) 0.3550(4) 0.6331(2)
loop_
_geom_bond_atom_site_label_1
_geom_bond_atom_site_label_2
_geom_bond_site_symmetry_1
_geom_bond_site_symmetry_2
Br1 C1 1_555 1_555
S1 N1 1_555 1_555
C1 C2 1_555 1_555
C2 H1 1_555 1_555
C3 C2 1_555 1_555
H2 C3 1_555 1_555
C4 C3 1_555 1_555
C5 C4 1_555 1_555
H3 C5 1_555 1_555
C6 C1 1_555 1_555
H4 C6 1_555 1_555
C7 C4 1_555 1_555
H5 C7 1_555 1_555
H6 C7 1_555 1_555
C8 C7 1_555 1_555
C9 H7 1_555 1_555
C10 C9 1_555 1_555
H8 C10 1_555 1_555
H9 C10 1_555 1_555
H10 C10 1_555 1_555
C11 C9 1_555 1_555
H11 C11 1_555 1_555
H12 C11 1_555 1_555
H13 C11 1_555 1_555
C12 H14 1_555 1_555
C13 C12 1_555 1_555
H15 C13 1_555 1_555
H16 C13 1_555 1_555
H17 C13 1_555 1_555
C14 C12 1_555 1_555
H18 C14 1_555 1_555
H19 C14 1_555 1_555
H20 C14 1_555 1_555
C15 C16 1_555 1_555
C16 H21 1_555 1_555
C17 C16 1_555 1_555
H22 C17 1_555 1_555
C18 C17 1_555 1_555
C19 C18 1_555 1_555
H23 C19 1_555 1_555
C20 C15 1_555 1_555
H24 C20 1_555 1_555
C21 C18 1_555 1_555
H25 C21 1_555 1_555
H26 C21 1_555 1_555
H27 C21 1_555 1_555
N1 C8 1_555 1_555
N2 C8 1_555 1_555
O1 S1 1_555 1_555
O2 S1 1_555 1_555
O3 S1 1_555 1_555
Br2 C22 1_555 1_555
S2 N3 1_555 1_555
C22 C23 1_555 1_555
C23 H28 1_555 1_555
C24 C23 1_555 1_555
H29 C24 1_555 1_555
C25 C24 1_555 1_555
C26 C25 1_555 1_555
H30 C26 1_555 1_555
C27 C22 1_555 1_555
H31 C27 1_555 1_555
C28 C25 1_555 1_555
H32 C28 1_555 1_555
H33 C28 1_555 1_555
C29 C28 1_555 1_555
C30 H34 1_555 1_555
C31 C30 1_555 1_555
H35 C31 1_555 1_555
H36 C31 1_555 1_555
H37 C31 1_555 1_555
C32 C30 1_555 1_555
H38 C32 1_555 1_555
H39 C32 1_555 1_555
H40 C32 1_555 1_555
C33 H41 1_555 1_555
C34 C33 1_555 1_555
H42 C34 1_555 1_555
H43 C34 1_555 1_555
H44 C34 1_555 1_555
C35 C33 1_555 1_555
H45 C35 1_555 1_555
H46 C35 1_555 1_555
H47 C35 1_555 1_555
C36 C37 1_555 1_555
C37 H48 1_555 1_555
C38 C37 1_555 1_555
H49 C38 1_555 1_555
C39 C38 1_555 1_555
C40 C39 1_555 1_555
H50 C40 1_555 1_555
C41 C36 1_555 1_555
H51 C41 1_555 1_555
C42 C39 1_555 1_555
H52 C42 1_555 1_555
H53 C42 1_555 1_555
H54 C42 1_555 1_555
N3 C29 1_555 1_555
N4 C29 1_555 1_555
O4 S2 1_555 1_555
O5 S2 1_555 1_555
O6 S2 1_555 1_555
C5 C6 1_555 1_555
C9 N2 1_555 1_555
C12 N2 1_555 1_555
C15 O3 1_555 1_555
C19 C20 1_555 1_555
C26 C27 1_555 1_555
C30 N4 1_555 1_555
C33 N4 1_555 1_555
C36 O6 1_555 1_555
C40 C41 1_555 1_555

#END
