
#######################################################################
#
#                 Cambridge Crystallographic Data Centre
#                                CCDC 
#
#######################################################################
#
# If this CIF has been generated from an entry in the Cambridge 
# Structural Database, then it will include bibliographic, chemical, 
# crystal, experimental, refinement or atomic coordinate data resulting 
# from the CCDC's data processing and validation procedures.
#
#######################################################################

data_JAGQUG
_chemical_formula_moiety         'C22 H30 N2 O3 S1'
_chemical_name_systematic        
'4-methylphenyl (1-(diisopropylamino)-2-(4-methylphenyl)ethylidene)sulfamate'
_symmetry_cell_setting           orthorhombic
_symmetry_space_group_name_H-M   'P 21 21 21'
_symmetry_Int_Tables_number      19
_space_group_name_Hall           'P 2ac 2ab'
loop_
_symmetry_equiv_pos_site_id
_symmetry_equiv_pos_as_xyz
1 x,y,z
2 1/2-x,-y,1/2+z
3 1/2+x,1/2-y,-z
4 -x,1/2+y,1/2-z
_cell_length_a                   8.2809(2)
_cell_length_b                   10.8810(3)
_cell_length_c                   25.0280(6)
_cell_angle_alpha                90
_cell_angle_beta                 90
_cell_angle_gamma                90
_cell_volume                     2255.13
_exptl_crystal_colour            colorless
_exptl_crystal_description       block
_cell_formula_units_Z            4
loop_
_atom_site_label
_atom_site_type_symbol
_atom_site_fract_x
_atom_site_fract_y
_atom_site_fract_z
S1 S -0.15485(7) -0.08721(5) -0.65163(2)
O1 O -0.2565(2) 0.01596(16) -0.64002(7)
O2 O -0.2026(2) -0.16512(17) -0.69449(7)
O3 O -0.1586(2) -0.17764(15) -0.60146(6)
N1 N 0.2471(2) 0.05600(17) -0.68254(7)
N2 N 0.0304(2) -0.05123(18) -0.65178(8)
C1 C 0.1561(6) -0.1922(3) -0.93638(12)
H1 H 0.2516 -0.1555 -0.9531
H2 H 0.0639 -0.1859 -0.9608
H3 H 0.1774 -0.2789 -0.9285
C2 C 0.1181(4) -0.1249(3) -0.88510(10)
C3 C 0.0544(4) -0.0078(3) -0.88504(10)
H4 H 0.0342 0.0321 -0.9181
C4 C 0.0194(3) 0.0530(2) -0.83791(10)
H5 H -0.0255 0.1333 -0.8391
C5 C 0.0490(3) -0.0019(2) -0.78896(9)
C6 C 0.1159(3) -0.1185(2) -0.78873(10)
H6 H 0.1388 -0.1574 -0.7556
C7 C 0.1500(4) -0.1793(2) -0.83588(9)
H7 H 0.1958 -0.2593 -0.8347
C8 C 0.0010(3) 0.0645(2) -0.73768(9)
H8 H 0.0191 0.1537 -0.7425
H9 H -0.1158 0.0518 -0.7314
C9 C 0.0933(3) 0.0220(2) -0.68867(9)
C10 C 0.3295(3) 0.1416(2) -0.72025(9)
H10 H 0.2519 0.1598 -0.7498
C11 C 0.4768(3) 0.0824(3) -0.74507(11)
H11 H 0.4447 0.0074 -0.7639
H12 H 0.5547 0.0618 -0.7170
H13 H 0.5266 0.1398 -0.7704
C12 C 0.3668(4) 0.2626(2) -0.69232(12)
H14 H 0.2670 0.2971 -0.6776
H15 H 0.4134 0.3204 -0.7181
H16 H 0.4440 0.2481 -0.6633
C13 C 0.3450(3) 0.0152(2) -0.63572(9)
H17 H 0.4540 0.0532 -0.6406
C14 C 0.3731(3) -0.1229(2) -0.63531(11)
H18 H 0.2710 -0.1652 -0.6279
H19 H 0.4519 -0.1435 -0.6075
H20 H 0.4145 -0.1489 -0.6702
C15 C 0.2806(4) 0.0653(3) -0.58283(9)
H21 H 0.1767 0.0265 -0.5747
H22 H 0.2659 0.1544 -0.5857
H23 H 0.3578 0.0472 -0.5542
C16 C -0.1191(3) -0.1331(2) -0.54995(10)
C17 C 0.0144(3) -0.1837(2) -0.52550(10)
H24 H 0.0816 -0.2399 -0.5442
C18 C 0.0492(4) -0.1508(2) -0.47285(10)
H25 H 0.1402 -0.1859 -0.4555
C19 C -0.0473(4) -0.0677(2) -0.44556(10)
C20 C -0.1788(4) -0.0174(3) -0.47191(10)
H26 H -0.2451 0.0405 -0.4539
C21 C -0.2157(3) -0.0501(3) -0.52431(10)
H27 H -0.3065 -0.0154 -0.5419
C22 C -0.0114(4) -0.0353(3) -0.38773(11)
H28 H -0.1104 -0.0430 -0.3665
H29 H 0.0283 0.0494 -0.3857
H30 H 0.0709 -0.0913 -0.3737
loop_
_geom_bond_atom_site_label_1
_geom_bond_atom_site_label_2
_geom_bond_site_symmetry_1
_geom_bond_site_symmetry_2
S1 O1 1_555 1_555
O2 S1 1_555 1_555
O3 S1 1_555 1_555
N1 C9 1_555 1_555
N2 S1 1_555 1_555
C1 H1 1_555 1_555
H2 C1 1_555 1_555
H3 C1 1_555 1_555
C2 C1 1_555 1_555
C3 C2 1_555 1_555
H4 C3 1_555 1_555
C4 C3 1_555 1_555
H5 C4 1_555 1_555
C5 C4 1_555 1_555
C6 C5 1_555 1_555
H6 C6 1_555 1_555
C7 C2 1_555 1_555
H7 C7 1_555 1_555
C8 C5 1_555 1_555
H8 C8 1_555 1_555
H9 C8 1_555 1_555
C9 N2 1_555 1_555
C10 N1 1_555 1_555
H10 C10 1_555 1_555
C11 C10 1_555 1_555
H11 C11 1_555 1_555
H12 C11 1_555 1_555
H13 C11 1_555 1_555
C12 C10 1_555 1_555
H14 C12 1_555 1_555
H15 C12 1_555 1_555
H16 C12 1_555 1_555
C13 N1 1_555 1_555
H17 C13 1_555 1_555
C14 C13 1_555 1_555
H18 C14 1_555 1_555
H19 C14 1_555 1_555
H20 C14 1_555 1_555
C15 C13 1_555 1_555
H21 C15 1_555 1_555
H22 C15 1_555 1_555
H23 C15 1_555 1_555
C16 O3 1_555 1_555
C17 C16 1_555 1_555
H24 C17 1_555 1_555
C18 C17 1_555 1_555
H25 C18 1_555 1_555
C19 C18 1_555 1_555
C20 C19 1_555 1_555
H26 C20 1_555 1_555
C21 C16 1_555 1_555
H27 C21 1_555 1_555
C22 C19 1_555 1_555
H28 C22 1_555 1_555
H29 C22 1_555 1_555
H30 C22 1_555 1_555
C6 C7 1_555 1_555
C8 C9 1_555 1_555
C20 C21 1_555 1_555

#END
