
#######################################################################
#
#                 Cambridge Crystallographic Data Centre
#                                CCDC 
#
#######################################################################
#
# If this CIF has been generated from an entry in the Cambridge 
# Structural Database, then it will include bibliographic, chemical, 
# crystal, experimental, refinement or atomic coordinate data resulting 
# from the CCDC's data processing and validation procedures.
#
#######################################################################

data_JAGTUJ
_chemical_formula_moiety         'C28 H21 Br1 N2 O1 S1'
_chemical_name_systematic        
3-(5-bromothiophen-2-yl)-2,2-diphenyl-N-(quinolin-8-yl)propanamide
_symmetry_cell_setting           triclinic
_symmetry_space_group_name_H-M   'P -1'
_symmetry_Int_Tables_number      2
_space_group_name_Hall           '-P 1'
loop_
_symmetry_equiv_pos_site_id
_symmetry_equiv_pos_as_xyz
1 x,y,z
2 -x,-y,-z
_cell_length_a                   8.1995(4)
_cell_length_b                   15.8435(9)
_cell_length_c                   19.7549(11)
_cell_angle_alpha                113.343(3)
_cell_angle_beta                 98.556(4)
_cell_angle_gamma                90.398(4)
_cell_volume                     2323.91
_cell_formula_units_Z            4
loop_
_atom_site_label
_atom_site_type_symbol
_atom_site_fract_x
_atom_site_fract_y
_atom_site_fract_z
Br1 Br 0.50262(6) 0.40468(4) 0.73174(3)
S1 S 0.72758(11) 0.26754(7) 0.63555(5)
O1 O 1.0167(3) 0.23660(17) 0.56034(14)
N1 N 1.0081(4) 0.3400(2) 0.36079(18)
N2 N 0.9596(3) 0.2805(2) 0.46413(18)
C1 C 0.9414(4) 0.2233(2) 0.4984(2)
C2 C 0.8225(4) 0.1370(2) 0.45313(18)
C3 C 0.7605(4) 0.1035(2) 0.51067(19)
H1 H 0.7005 0.0438 0.4828
H2 H 0.8567 0.0947 0.5416
C4 C 0.6528(4) 0.1648(2) 0.56091(19)
C5 C 0.4864(4) 0.1529(3) 0.5548(2)
H3 H 0.4238 0.1013 0.5186
C6 C 0.4164(4) 0.2255(3) 0.6078(2)
H4 H 0.3041 0.2273 0.6104
C7 C 0.5324(5) 0.2921(3) 0.6546(2)
C8 C 0.6759(4) 0.1579(2) 0.40558(18)
C9 C 0.5849(4) 0.2332(2) 0.4391(2)
H5 H 0.6180 0.2719 0.4891
C10 C 0.4469(4) 0.2513(3) 0.3993(2)
H6 H 0.3877 0.3015 0.4228
C11 C 0.3961(5) 0.1957(3) 0.3252(2)
H7 H 0.3012 0.2072 0.2989
C12 C 0.4863(5) 0.1230(3) 0.2902(2)
H8 H 0.4547 0.0860 0.2397
C13 C 0.6243(4) 0.1050(3) 0.3304(2)
H9 H 0.6844 0.0555 0.3060
C14 C 0.9227(4) 0.0607(2) 0.40564(19)
C15 C 0.8568(4) -0.0299(2) 0.3722(2)
H10 H 0.7535 -0.0441 0.3807
C16 C 0.9396(5) -0.0992(3) 0.3271(2)
H11 H 0.8920 -0.1594 0.3055
C17 C 1.0916(5) -0.0808(3) 0.3135(2)
H12 H 1.1473 -0.1276 0.2823
C18 C 1.1600(5) 0.0076(3) 0.3466(3)
H13 H 1.2640 0.0209 0.3382
C19 C 1.0782(4) 0.0775(3) 0.3920(2)
H14 H 1.1278 0.1372 0.4140
C20 C 1.0340(5) 0.3653(3) 0.3073(3)
H15 H 0.9768 0.3323 0.2592
C21 C 1.1447(6) 0.4403(3) 0.3194(3)
H16 H 1.1603 0.4555 0.2798
C22 C 1.2275(5) 0.4896(3) 0.3883(3)
H17 H 1.2988 0.5400 0.3968
C23 C 1.2066(4) 0.4653(2) 0.4473(2)
C24 C 1.2906(4) 0.5098(3) 0.5211(3)
H18 H 1.3634 0.5609 0.5334
C25 C 1.2678(5) 0.4801(3) 0.5740(3)
H19 H 1.3253 0.5109 0.6223
C26 C 1.1581(4) 0.4027(2) 0.5579(2)
H20 H 1.1444 0.3829 0.5953
C27 C 1.0722(4) 0.3572(2) 0.4869(2)
C28 C 1.0935(4) 0.3881(2) 0.4300(2)
H21 H 0.915(4) 0.262(3) 0.417(2)
Br2 Br 0.48583(5) 0.83065(3) 0.23170(2)
S2 S 0.71891(10) 0.86437(7) 0.13366(5)
O2 O 1.0101(3) 0.82072(17) 0.05990(14)
N3 N 1.0021(4) 0.5177(2) -0.1399(2)
N4 N 0.9564(4) 0.6814(2) -0.0369(2)
C29 C 0.9374(4) 0.7727(2) -0.0024(2)
C30 C 0.8211(3) 0.8139(2) -0.04817(18)
C31 C 0.7593(4) 0.9034(2) 0.00851(19)
H22 H 0.8558 0.9432 0.0395
H23 H 0.7010 0.9351 -0.0198
C32 C 0.6496(4) 0.8934(2) 0.05897(19)
C33 C 0.4836(4) 0.9020(2) 0.0534(2)
H24 H 0.4235 0.9177 0.0169
C34 C 0.4101(4) 0.8852(3) 0.1074(2)
H25 H 0.2981 0.8885 0.1106
C35 C 0.5224(4) 0.8639(2) 0.1536(2)
C36 C 0.6750(3) 0.7455(2) -0.09761(18)
C37 C 0.5787(4) 0.7036(2) -0.0654(2)
H26 H 0.6063 0.7155 -0.0149
C38 C 0.4423(4) 0.6444(3) -0.1080(3)
H27 H 0.3793 0.6170 -0.0856
C39 C 0.3989(4) 0.6255(3) -0.1821(3)
H28 H 0.3068 0.5858 -0.2101
C40 C 0.4925(5) 0.6658(3) -0.2148(2)
H29 H 0.4633 0.6540 -0.2652
C41 C 0.6304(4) 0.7240(3) -0.1728(2)
H30 H 0.6947 0.7492 -0.1960
C42 C 0.9279(4) 0.8442(2) -0.09394(18)
C43 C 1.0863(4) 0.8180(3) -0.1021(2)
H31 H 1.1330 0.7813 -0.0786
C44 C 1.1775(5) 0.8452(3) -0.1447(2)
H32 H 1.2847 0.8275 -0.1487
C45 C 1.1110(6) 0.8978(3) -0.1808(2)
H33 H 1.1702 0.9139 -0.2111
C46 C 0.9567(5) 0.9263(3) -0.1717(2)
H34 H 0.9120 0.9637 -0.1950
C47 C 0.8650(5) 0.9012(3) -0.1288(2)
H35 H 0.7603 0.9223 -0.1230
C48 C 1.0223(6) 0.4367(3) -0.1910(3)
H36 H 0.9622 0.4199 -0.2388
C49 C 1.1293(8) 0.3738(4) -0.1779(4)
H37 H 1.1388 0.3171 -0.2161
C50 C 1.2168(7) 0.3966(4) -0.1098(4)
H38 H 1.2883 0.3557 -0.1004
C51 C 1.2011(5) 0.4813(3) -0.0529(3)
C52 C 1.2899(5) 0.5116(4) 0.0198(4)
H39 H 1.3636 0.4737 0.0321
C53 C 1.2699(5) 0.5952(4) 0.0720(3)
H40 H 1.3302 0.6138 0.1199
C54 C 1.1590(4) 0.6556(3) 0.0557(2)
H41 H 1.1471 0.7131 0.0925
C55 C 1.0700(4) 0.6283(2) -0.0145(2)
C56 C 1.0895(4) 0.5408(3) -0.0705(2)
H42 H 0.915(4) 0.658(2) -0.0768(18)
loop_
_geom_bond_atom_site_label_1
_geom_bond_atom_site_label_2
_geom_bond_site_symmetry_1
_geom_bond_site_symmetry_2
Br1 C7 1_555 1_555
S1 C4 1_555 1_555
O1 C1 1_555 1_555
N1 C20 1_555 1_555
N2 C1 1_555 1_555
C1 C2 1_555 1_555
C2 C3 1_555 1_555
C3 H1 1_555 1_555
H2 C3 1_555 1_555
C4 C3 1_555 1_555
C5 C4 1_555 1_555
H3 C5 1_555 1_555
C6 C5 1_555 1_555
H4 C6 1_555 1_555
C7 S1 1_555 1_555
C8 C2 1_555 1_555
C9 C8 1_555 1_555
H5 C9 1_555 1_555
C10 C9 1_555 1_555
H6 C10 1_555 1_555
C11 C10 1_555 1_555
H7 C11 1_555 1_555
C12 C11 1_555 1_555
H8 C12 1_555 1_555
C13 C8 1_555 1_555
H9 C13 1_555 1_555
C14 C2 1_555 1_555
C15 C14 1_555 1_555
H10 C15 1_555 1_555
C16 C15 1_555 1_555
H11 C16 1_555 1_555
C17 C16 1_555 1_555
H12 C17 1_555 1_555
C18 C17 1_555 1_555
H13 C18 1_555 1_555
C19 C14 1_555 1_555
H14 C19 1_555 1_555
C20 H15 1_555 1_555
C21 C20 1_555 1_555
H16 C21 1_555 1_555
C22 C21 1_555 1_555
H17 C22 1_555 1_555
C23 C22 1_555 1_555
C24 C23 1_555 1_555
H18 C24 1_555 1_555
C25 C24 1_555 1_555
H19 C25 1_555 1_555
C26 C25 1_555 1_555
H20 C26 1_555 1_555
C27 N2 1_555 1_555
C28 N1 1_555 1_555
H21 N2 1_555 1_555
Br2 C35 1_555 1_555
S2 C32 1_555 1_555
O2 C29 1_555 1_555
N3 C48 1_555 1_555
N4 C29 1_555 1_555
C29 C30 1_555 1_555
C30 C31 1_555 1_555
C31 H22 1_555 1_555
H23 C31 1_555 1_555
C32 C31 1_555 1_555
C33 C32 1_555 1_555
H24 C33 1_555 1_555
C34 C33 1_555 1_555
H25 C34 1_555 1_555
C35 S2 1_555 1_555
C36 C30 1_555 1_555
C37 C36 1_555 1_555
H26 C37 1_555 1_555
C38 C37 1_555 1_555
H27 C38 1_555 1_555
C39 C38 1_555 1_555
H28 C39 1_555 1_555
C40 C39 1_555 1_555
H29 C40 1_555 1_555
C41 C36 1_555 1_555
H30 C41 1_555 1_555
C42 C30 1_555 1_555
C43 C42 1_555 1_555
H31 C43 1_555 1_555
C44 C43 1_555 1_555
H32 C44 1_555 1_555
C45 C44 1_555 1_555
H33 C45 1_555 1_555
C46 C45 1_555 1_555
H34 C46 1_555 1_555
C47 C42 1_555 1_555
H35 C47 1_555 1_555
C48 H36 1_555 1_555
C49 C48 1_555 1_555
H37 C49 1_555 1_555
C50 C49 1_555 1_555
H38 C50 1_555 1_555
C51 C50 1_555 1_555
C52 C51 1_555 1_555
H39 C52 1_555 1_555
C53 C52 1_555 1_555
H40 C53 1_555 1_555
C54 C53 1_555 1_555
H41 C54 1_555 1_555
C55 N4 1_555 1_555
C56 N3 1_555 1_555
H42 N4 1_555 1_555
C6 C7 1_555 1_555
C12 C13 1_555 1_555
C18 C19 1_555 1_555
C23 C28 1_555 1_555
C26 C27 1_555 1_555
C27 C28 1_555 1_555
C34 C35 1_555 1_555
C40 C41 1_555 1_555
C46 C47 1_555 1_555
C51 C56 1_555 1_555
C54 C55 1_555 1_555
C55 C56 1_555 1_555

#END
