
#######################################################################
#
#                 Cambridge Crystallographic Data Centre
#                                CCDC 
#
#######################################################################
#
# If this CIF has been generated from an entry in the Cambridge 
# Structural Database, then it will include bibliographic, chemical, 
# crystal, experimental, refinement or atomic coordinate data resulting 
# from the CCDC's data processing and validation procedures.
#
#######################################################################

data_JAGTET
_chemical_formula_moiety         'C70 H92 N4 Si4'
_chemical_name_systematic        
1,4,9,12-tetrakis((triisopropylsilyl)ethynyl)quinoxalino[2'',3'':4',5']cyclopenta[1',2',3':5,6]acenaphtho[1,2-b]quinoxaline
_symmetry_cell_setting           triclinic
_symmetry_space_group_name_H-M   'P -1'
_symmetry_Int_Tables_number      2
_space_group_name_Hall           '-P 1'
loop_
_symmetry_equiv_pos_site_id
_symmetry_equiv_pos_as_xyz
1 x,y,z
2 -x,-y,-z
_cell_length_a                   11.423(3)
_cell_length_b                   11.567(3)
_cell_length_c                   13.150(3)
_cell_angle_alpha                86.245(2)
_cell_angle_beta                 79.518(2)
_cell_angle_gamma                72.596(2)
_cell_volume                     1630.18
_exptl_crystal_colour            red
_exptl_crystal_description       block
_cell_formula_units_Z            1
loop_
_atom_site_label
_atom_site_type_symbol
_atom_site_fract_x
_atom_site_fract_y
_atom_site_fract_z
Si1 Si 0.59771(2) 0.71141(2) 0.17526(2)
H1 H 0.6880(13) 0.7109(12) -0.0009(11)
C1 C 0.61950(9) 0.58231(9) 0.26808(7)
Si2 Si 0.81696(3) -0.22940(2) 0.61020(2)
H2 H 0.8871(15) 0.5603(14) -0.0029(13)
C2 C 0.76536(9) -0.07270(9) 0.56146(7)
N1 N 0.78505(7) 0.27540(7) 0.20557(6)
H3 H 0.5031(14) 0.9193(13) 0.3292(11)
C3 C 0.83475(11) 0.59627(12) 0.06203(9)
N2 N 0.83728(7) 0.04350(7) 0.31168(6)
H4 H 0.6300(14) 0.9354(14) 0.3507(12)
C4 C 0.85113(9) 0.17409(8) 0.15946(7)
H5 H 0.9659(13) -0.1966(12) 0.6956(11)
C5 C 0.87849(8) 0.05641(8) 0.21374(7)
H6 H 0.5969(13) 0.8122(13) 0.3793(11)
C6 C 0.76707(8) 0.14935(8) 0.36152(7)
H7 H 0.6773(14) 0.9997(14) 0.1666(12)
C7 C 0.64435(9) 0.48644(8) 0.31376(7)
H8 H 0.5562(14) 0.9773(13) 0.1359(11)
C8 C 0.67162(8) 0.37106(8) 0.36620(7)
H9 H 0.6923(15) 0.9114(14) 0.0737(13)
C9 C 0.74325(9) 0.02575(8) 0.52000(7)
C10 C 0.62903(9) 0.36002(8) 0.47133(7)
C11 C 0.96751(9) 0.02777(8) 0.04494(7)
C12 C 0.74246(8) 0.26383(8) 0.30961(7)
C13 C 0.91015(8) 0.15385(8) 0.04963(7)
C14 C 0.65074(9) 0.24704(9) 0.52156(7)
C15 C 0.95434(9) -0.03771(8) 0.13820(7)
C16 C 0.92235(9) 0.22083(8) -0.04111(7)
C17 C 1.00954(9) -0.16227(8) 0.13590(7)
C18 C 0.71857(9) 0.14157(8) 0.46888(7)
C19 C 0.89182(10) -0.22311(9) 0.72592(8)
C20 C 0.65666(9) 0.83172(9) 0.22072(8)
C21 C 0.67741(11) -0.28963(10) 0.63514(9)
C22 C 0.42617(9) 0.77557(9) 0.16668(8)
C23 C 0.69721(10) 0.64506(9) 0.04987(8)
C24 C 0.59145(10) 0.87680(10) 0.32966(8)
C25 C 0.93796(10) -0.31641(9) 0.50242(8)
C26 C 0.64603(11) 0.93814(10) 0.14311(9)
C27 C 0.35193(11) 0.68371(11) 0.19406(9)
C28 C 0.40421(11) 0.83516(11) 0.06069(9)
C29 C 0.65602(12) 0.54462(11) 0.00934(9)
C30 C 0.81213(12) -0.12757(12) 0.80592(9)
C31 C 0.93657(14) -0.34730(11) 0.77771(10)
C32 C 0.88296(13) -0.32254(12) 0.40561(9)
H10 H 0.3933(12) 0.8405(12) 0.2185(10)
C33 C 1.04704(12) -0.26253(13) 0.47395(11)
H11 H 0.3798(15) 0.6177(14) 0.1438(12)
C34 C 0.57880(13) -0.23188(13) 0.72741(12)
H12 H 0.3599(14) 0.6490(13) 0.2641(12)
C35 C 0.71183(14) -0.42818(11) 0.64430(12)
H13 H 0.5721(15) 0.5714(14) -0.0054(12)
H14 H 0.6624(15) 0.4760(15) 0.0583(13)
H15 H 0.7107(15) 0.5150(14) -0.0584(12)
H16 H 0.9679(14) -0.3976(14) 0.5290(12)
H17 H 0.4297(14) 0.7749(14) 0.0070(12)
H18 H 0.3133(15) 0.8765(14) 0.0609(12)
H19 H 0.8678(15) 0.6587(15) 0.0772(12)
H20 H 0.8439(16) 0.5338(15) 0.1181(13)
H21 H 0.7460(13) 0.7937(12) 0.2228(11)
H22 H 0.6362(15) -0.2650(14) 0.5733(12)
H23 H 0.8592(15) -0.1229(14) 0.8613(12)
H24 H 0.7889(16) -0.0467(16) 0.7741(13)
H25 H 0.7346(17) -0.1492(16) 0.8379(14)
H26 H 0.9937(15) -0.4058(15) 0.7270(13)
H27 H 0.9823(15) -0.3398(14) 0.8346(12)
H28 H 0.8655(16) -0.3793(15) 0.8072(13)
H29 H 0.7510(18) -0.4569(16) 0.7071(15)
H30 H 0.6337(17) -0.4541(16) 0.6506(13)
H31 H 1.1095(16) -0.3072(16) 0.4155(13)
H32 H 1.0886(17) -0.2661(16) 0.5341(14)
H33 H 1.0165(16) -0.1775(16) 0.4517(13)
H34 H 0.9470(16) -0.3687(15) 0.3503(13)
H35 H 0.8470(15) -0.2402(15) 0.3790(12)
H36 H 0.8169(15) -0.3608(14) 0.4202(12)
H37 H 0.5552(17) -0.1422(17) 0.7226(14)
H38 H 0.6145(18) -0.2574(17) 0.7951(15)
H39 H 0.4507(16) 0.8930(15) 0.0396(13)
H40 H 0.6185(13) 0.2407(12) 0.5935(11)
H41 H 0.5855(12) 0.4310(12) 0.5098(10)
H42 H 1.0025(12) -0.2113(12) 0.1990(10)
H43 H 0.8850(12) 0.3068(12) -0.0415(10)
H44 H 0.7708(18) -0.4686(17) 0.5811(15)
H45 H 0.5004(18) -0.2548(17) 0.7341(14)
H46 H 0.2602(15) 0.7269(14) 0.1928(12)
Si1A Si 1.40229(2) -0.71141(2) -0.17526(2)
H1A H 1.3120(13) -0.7109(12) 0.0009(11)
C1A C 1.38050(9) -0.58231(9) -0.26808(7)
Si2A Si 1.18304(3) 0.22940(2) -0.61020(2)
H2A H 1.1129(15) -0.5603(14) 0.0029(13)
C2A C 1.23464(9) 0.07270(9) -0.56146(7)
N1A N 1.21495(7) -0.27540(7) -0.20557(6)
H3A H 1.4969(14) -0.9193(13) -0.3292(11)
C3A C 1.16525(11) -0.59627(12) -0.06203(9)
N2A N 1.16272(7) -0.04350(7) -0.31168(6)
H4A H 1.3700(14) -0.9354(14) -0.3507(12)
C4A C 1.14887(9) -0.17409(8) -0.15946(7)
H5A H 1.0341(13) 0.1966(12) -0.6956(11)
C5A C 1.12151(8) -0.05641(8) -0.21374(7)
H6A H 1.4031(13) -0.8122(13) -0.3793(11)
C6A C 1.23293(8) -0.14935(8) -0.36152(7)
H7A H 1.3227(14) -0.9997(14) -0.1666(12)
C7A C 1.35565(9) -0.48644(8) -0.31376(7)
H8A H 1.4438(14) -0.9773(13) -0.1359(11)
C8A C 1.32838(8) -0.37106(8) -0.36620(7)
H9A H 1.3077(15) -0.9114(14) -0.0737(13)
C9A C 1.25675(9) -0.02575(8) -0.52000(7)
C10A C 1.37097(9) -0.36002(8) -0.47133(7)
C11A C 1.03249(9) -0.02777(8) -0.04494(7)
C12A C 1.25754(8) -0.26383(8) -0.30961(7)
C13A C 1.08985(8) -0.15385(8) -0.04963(7)
C14A C 1.34926(9) -0.24704(9) -0.52156(7)
C15A C 1.04566(9) 0.03771(8) -0.13820(7)
C16A C 1.07765(9) -0.22083(8) 0.04111(7)
C17A C 0.99046(9) 0.16227(8) -0.13590(7)
C18A C 1.28143(9) -0.14157(8) -0.46888(7)
C19A C 1.10818(10) 0.22311(9) -0.72592(8)
C20A C 1.34334(9) -0.83172(9) -0.22072(8)
C21A C 1.32259(11) 0.28963(10) -0.63514(9)
C22A C 1.57383(9) -0.77557(9) -0.16668(8)
C23A C 1.30279(10) -0.64506(9) -0.04987(8)
C24A C 1.40855(10) -0.87680(10) -0.32966(8)
C25A C 1.06204(10) 0.31641(9) -0.50242(8)
C26A C 1.35397(11) -0.93814(10) -0.14311(9)
C27A C 1.64807(11) -0.68371(11) -0.19406(9)
C28A C 1.59579(11) -0.83516(11) -0.06069(9)
C29A C 1.34398(12) -0.54462(11) -0.00934(9)
C30A C 1.18787(12) 0.12757(12) -0.80592(9)
C31A C 1.06343(14) 0.34730(11) -0.77771(10)
C32A C 1.11704(13) 0.32254(12) -0.40561(9)
H10A H 1.6067(12) -0.8405(12) -0.2185(10)
C33A C 0.95296(12) 0.26253(13) -0.47395(11)
H11A H 1.6202(15) -0.6177(14) -0.1438(12)
C34A C 1.42120(13) 0.23188(13) -0.72741(12)
H12A H 1.6401(14) -0.6490(13) -0.2641(12)
C35A C 1.28817(14) 0.42818(11) -0.64430(12)
H13A H 1.4279(15) -0.5714(14) 0.0054(12)
H14A H 1.3376(15) -0.4760(15) -0.0583(13)
H15A H 1.2893(15) -0.5150(14) 0.0584(12)
H16A H 1.0321(14) 0.3976(14) -0.5290(12)
H17A H 1.5703(14) -0.7749(14) -0.0070(12)
H18A H 1.6867(15) -0.8765(14) -0.0609(12)
H19A H 1.1322(15) -0.6587(15) -0.0772(12)
H20A H 1.1561(16) -0.5338(15) -0.1181(13)
H21A H 1.2540(13) -0.7937(12) -0.2228(11)
H22A H 1.3638(15) 0.2650(14) -0.5733(12)
H23A H 1.1408(15) 0.1229(14) -0.8613(12)
H24A H 1.2111(16) 0.0467(16) -0.7741(13)
H25A H 1.2654(17) 0.1492(16) -0.8379(14)
H26A H 1.0063(15) 0.4058(15) -0.7270(13)
H27A H 1.0177(15) 0.3398(14) -0.8346(12)
H28A H 1.1345(16) 0.3793(15) -0.8072(13)
H29A H 1.2490(18) 0.4569(16) -0.7071(15)
H30A H 1.3663(17) 0.4541(16) -0.6506(13)
H31A H 0.8905(16) 0.3072(16) -0.4155(13)
H32A H 0.9114(17) 0.2661(16) -0.5341(14)
H33A H 0.9835(16) 0.1775(16) -0.4517(13)
H34A H 1.0530(16) 0.3687(15) -0.3503(13)
H35A H 1.1530(15) 0.2402(15) -0.3790(12)
H36A H 1.1831(15) 0.3608(14) -0.4202(12)
H37A H 1.4448(17) 0.1422(17) -0.7226(14)
H38A H 1.3855(18) 0.2574(17) -0.7951(15)
H39A H 1.5493(16) -0.8930(15) -0.0396(13)
H40A H 1.3815(13) -0.2407(12) -0.5935(11)
H41A H 1.4145(12) -0.4310(12) -0.5098(10)
H42A H 0.9975(12) 0.2113(12) -0.1990(10)
H43A H 1.1150(12) -0.3068(12) 0.0415(10)
H44A H 1.2292(18) 0.4686(17) -0.5811(15)
H45A H 1.4996(18) 0.2548(17) -0.7341(14)
H46A H 1.7398(15) -0.7269(14) -0.1928(12)
loop_
_geom_bond_atom_site_label_1
_geom_bond_atom_site_label_2
_geom_bond_site_symmetry_1
_geom_bond_site_symmetry_2
Si1 C1 1_555 1_555
H1 C23 1_555 1_555
C1 C7 1_555 1_555
Si2 C2 1_555 1_555
H2 C3 1_555 1_555
C2 C9 1_555 1_555
N1 C4 1_555 1_555
H3 C24 1_555 1_555
C3 C23 1_555 1_555
N2 C5 1_555 1_555
H4 C24 1_555 1_555
C4 C5 1_555 1_555
H5 C19 1_555 1_555
C5 C15 1_555 1_555
H6 C24 1_555 1_555
C6 N2 1_555 1_555
H7 C26 1_555 1_555
C7 C8 1_555 1_555
H8 C26 1_555 1_555
C8 C10 1_555 1_555
H9 C26 1_555 1_555
C9 C18 1_555 1_555
C10 C14 1_555 1_555
C11 C13 1_555 1_555
C12 N1 1_555 1_555
C13 C4 1_555 1_555
C14 C18 1_555 1_555
C15 C11 1_555 1_555
C16 C13 1_555 1_555
C17 C15 1_555 1_555
C18 C6 1_555 1_555
C19 Si2 1_555 1_555
C20 Si1 1_555 1_555
C21 Si2 1_555 1_555
C22 Si1 1_555 1_555
C23 Si1 1_555 1_555
C24 C20 1_555 1_555
C25 Si2 1_555 1_555
C26 C20 1_555 1_555
C27 C22 1_555 1_555
C28 C22 1_555 1_555
C29 C23 1_555 1_555
C30 C19 1_555 1_555
C31 C19 1_555 1_555
C32 C25 1_555 1_555
H10 C22 1_555 1_555
C33 C25 1_555 1_555
H11 C27 1_555 1_555
C34 C21 1_555 1_555
H12 C27 1_555 1_555
C35 C21 1_555 1_555
H13 C29 1_555 1_555
H14 C29 1_555 1_555
H15 C29 1_555 1_555
H16 C25 1_555 1_555
H17 C28 1_555 1_555
H18 C28 1_555 1_555
H19 C3 1_555 1_555
H20 C3 1_555 1_555
H21 C20 1_555 1_555
H22 C21 1_555 1_555
H23 C30 1_555 1_555
H24 C30 1_555 1_555
H25 C30 1_555 1_555
H26 C31 1_555 1_555
H27 C31 1_555 1_555
H28 C31 1_555 1_555
H29 C35 1_555 1_555
H30 C35 1_555 1_555
H31 C33 1_555 1_555
H32 C33 1_555 1_555
H33 C33 1_555 1_555
H34 C32 1_555 1_555
H35 C32 1_555 1_555
H36 C32 1_555 1_555
H37 C34 1_555 1_555
H38 C34 1_555 1_555
H39 C28 1_555 1_555
H40 C14 1_555 1_555
H41 C10 1_555 1_555
H42 C17 1_555 1_555
H43 C16 1_555 1_555
H44 C35 1_555 1_555
H45 C34 1_555 1_555
H46 C27 1_555 1_555
Si1A C1A 1_555 1_555
H1A C23A 1_555 1_555
C1A C7A 1_555 1_555
Si2A C2A 1_555 1_555
H2A C3A 1_555 1_555
C2A C9A 1_555 1_555
N1A C4A 1_555 1_555
H3A C24A 1_555 1_555
C3A C23A 1_555 1_555
N2A C5A 1_555 1_555
H4A C24A 1_555 1_555
C4A C5A 1_555 1_555
H5A C19A 1_555 1_555
C5A C15A 1_555 1_555
H6A C24A 1_555 1_555
C6A N2A 1_555 1_555
H7A C26A 1_555 1_555
C7A C8A 1_555 1_555
H8A C26A 1_555 1_555
C8A C10A 1_555 1_555
H9A C26A 1_555 1_555
C9A C18A 1_555 1_555
C10A C14A 1_555 1_555
C11A C11 1_555 1_555
C12A N1A 1_555 1_555
C13A C4A 1_555 1_555
C14A C18A 1_555 1_555
C15A C11A 1_555 1_555
C16A C17 1_555 1_555
C17A C16 1_555 1_555
C18A C6A 1_555 1_555
C19A Si2A 1_555 1_555
C20A Si1A 1_555 1_555
C21A Si2A 1_555 1_555
C22A Si1A 1_555 1_555
C23A Si1A 1_555 1_555
C24A C20A 1_555 1_555
C25A Si2A 1_555 1_555
C26A C20A 1_555 1_555
C27A C22A 1_555 1_555
C28A C22A 1_555 1_555
C29A C23A 1_555 1_555
C30A C19A 1_555 1_555
C31A C19A 1_555 1_555
C32A C25A 1_555 1_555
H10A C22A 1_555 1_555
C33A C25A 1_555 1_555
H11A C27A 1_555 1_555
C34A C21A 1_555 1_555
H12A C27A 1_555 1_555
C35A C21A 1_555 1_555
H13A C29A 1_555 1_555
H14A C29A 1_555 1_555
H15A C29A 1_555 1_555
H16A C25A 1_555 1_555
H17A C28A 1_555 1_555
H18A C28A 1_555 1_555
H19A C3A 1_555 1_555
H20A C3A 1_555 1_555
H21A C20A 1_555 1_555
H22A C21A 1_555 1_555
H23A C30A 1_555 1_555
H24A C30A 1_555 1_555
H25A C30A 1_555 1_555
H26A C31A 1_555 1_555
H27A C31A 1_555 1_555
H28A C31A 1_555 1_555
H29A C35A 1_555 1_555
H30A C35A 1_555 1_555
H31A C33A 1_555 1_555
H32A C33A 1_555 1_555
H33A C33A 1_555 1_555
H34A C32A 1_555 1_555
H35A C32A 1_555 1_555
H36A C32A 1_555 1_555
H37A C34A 1_555 1_555
H38A C34A 1_555 1_555
H39A C28A 1_555 1_555
H40A C14A 1_555 1_555
H41A C10A 1_555 1_555
H42A C17A 1_555 1_555
H43A C16A 1_555 1_555
H44A C35A 1_555 1_555
H45A C34A 1_555 1_555
H46A C27A 1_555 1_555
C6 C12 1_555 1_555
C8 C12 1_555 1_555
C6A C12A 1_555 1_555
C8A C12A 1_555 1_555
C11A C13A 1_555 1_555
C13A C16A 1_555 1_555
C15A C17A 1_555 1_555

#END
