
#######################################################################
#
#                 Cambridge Crystallographic Data Centre
#                                CCDC 
#
#######################################################################
#
# If this CIF has been generated from an entry in the Cambridge 
# Structural Database, then it will include bibliographic, chemical, 
# crystal, experimental, refinement or atomic coordinate data resulting 
# from the CCDC's data processing and validation procedures.
#
#######################################################################

data_JAHGUX
_chemical_formula_moiety         'C30 H26 N2 O7'
_chemical_name_systematic        
"9-(4-methoxyphenazin-2-yl)-8-oxo-5,5a,6,8,8a,9-hexahydrofuro[3',4':6,7]naphtho[2,3-d][1,3]dioxol-5-yl butyrate unknown solvate"
_chemical_properties_biological  'insecticidal activity'
_symmetry_cell_setting           orthorhombic
_symmetry_space_group_name_H-M   'P 21 21 21'
_symmetry_Int_Tables_number      19
_space_group_name_Hall           'P 2ac 2ab'
loop_
_symmetry_equiv_pos_site_id
_symmetry_equiv_pos_as_xyz
1 x,y,z
2 1/2-x,-y,1/2+z
3 -x,1/2+y,1/2-z
4 1/2+x,1/2-y,-z
_cell_length_a                   16.00(3)
_cell_length_b                   16.51(3)
_cell_length_c                   21.46(4)
_cell_angle_alpha                90
_cell_angle_beta                 90
_cell_angle_gamma                90
_cell_volume                     5668.87
_exptl_crystal_colour            yellow
_exptl_crystal_description       block
_chemical_melting_point          '152-154 deg.C'
_cell_formula_units_Z            8
loop_
_atom_site_label
_atom_site_type_symbol
_atom_site_fract_x
_atom_site_fract_y
_atom_site_fract_z
C1 C 0.2566(4) 0.8968(5) 0.4326(3)
H1 H 0.3051 0.9231 0.4134
C2 C 0.2629(4) 0.9105(4) 0.5015(3)
H2 H 0.2706 0.9684 0.5096
C3 C 0.3344(4) 0.8636(4) 0.5300(4)
C4 C 0.3644(4) 0.8875(5) 0.5884(3)
H3 H 0.3424 0.9322 0.6090
C5 C 0.4272(4) 0.8425(5) 0.6137(3)
C6 C 0.5282(5) 0.7911(6) 0.6735(4)
H4 H 0.5841 0.8129 0.6782
H5 H 0.5157 0.7581 0.7097
C7 C 0.4582(4) 0.7762(5) 0.5865(4)
C8 C 0.4329(5) 0.7527(4) 0.5303(4)
H6 H 0.4566 0.7078 0.5110
C9 C 0.3689(4) 0.7980(4) 0.5003(3)
C10 C 0.3471(4) 0.7749(5) 0.4317(3)
H7 H 0.3447 0.7158 0.4286
C11 C 0.2626(4) 0.8082(4) 0.4184(3)
H8 H 0.2241 0.7810 0.4470
C12 C 0.2249(5) 0.7990(6) 0.3533(4)
C13 C 0.1789(5) 0.9234(6) 0.3955(5)
H9 H 0.1288 0.9186 0.4206
H10 H 0.1844 0.9790 0.3814
C14 C 0.1550(6) 0.9238(6) 0.5799(5)
C15 C 0.0742(5) 0.8856(6) 0.6021(5)
H11 H 0.0411 0.8712 0.5659
H12 H 0.0875 0.8359 0.6240
C16 C 0.0219(7) 0.9370(6) 0.6439(5)
H13 H -0.0224 0.9044 0.6620
H14 H 0.0560 0.9578 0.6777
C17 C -0.0149(9) 1.0050(8) 0.6090(7)
H15 H -0.0073 0.9963 0.5651
H16 H 0.0122 1.0546 0.6209
H17 H -0.0735 1.0086 0.6181
C18 C 0.4143(4) 0.8059(4) 0.3872(3)
C19 C 0.4655(4) 0.8688(4) 0.4022(3)
H18 H 0.4622 0.8920 0.4416
C20 C 0.5237(4) 0.8990(4) 0.3586(3)
C21 C 0.6273(4) 0.9881(4) 0.3314(4)
C22 C 0.6830(5) 1.0517(5) 0.3497(5)
H19 H 0.6815 1.0737 0.3896
C23 C 0.7394(5) 1.0791(6) 0.3053(6)
H20 H 0.7753 1.1214 0.3153
C24 C 0.7433(6) 1.0451(6) 0.2471(6)
H21 H 0.7813 1.0647 0.2180
C25 C 0.6929(6) 0.9839(6) 0.2320(4)
H22 H 0.6976 0.9613 0.1925
C26 C 0.6332(5) 0.9521(5) 0.2728(4)
C27 C 0.5294(4) 0.8631(4) 0.2981(3)
C28 C 0.4748(4) 0.7994(4) 0.2847(3)
C29 C 0.4194(4) 0.7705(4) 0.3272(3)
H23 H 0.3848 0.7273 0.3169
C30 C 0.4193(5) 0.7126(6) 0.2081(4)
H24 H 0.4224 0.6665 0.2353
H25 H 0.4285 0.6955 0.1659
H26 H 0.3649 0.7369 0.2114
N1 N 0.5725(4) 0.9608(3) 0.3760(3)
N2 N 0.5847(3) 0.8895(4) 0.2573(3)
O1 O 0.4697(3) 0.8549(4) 0.6686(3)
O2 O 0.5238(3) 0.7437(4) 0.6191(2)
O3 O 0.2257(3) 0.7474(4) 0.3165(3)
O4 O 0.1763(3) 0.8685(4) 0.3433(2)
O5 O 0.1838(3) 0.8838(3) 0.5287(2)
O6 O 0.1876(4) 0.9800(5) 0.5999(3)
O7 O 0.4807(3) 0.7696(3) 0.2252(2)
C31 C 0.3479(4) 0.2365(4) 0.3531(3)
H27 H 0.3579 0.2588 0.3114
C32 C 0.3758(5) 0.1483(5) 0.3519(3)
H28 H 0.4327 0.1455 0.3351
C33 C 0.3183(4) 0.0964(4) 0.3114(3)
C34 C 0.3491(4) 0.0198(5) 0.2923(3)
H29 H 0.4013 0.0012 0.3049
C35 C 0.2993(5) -0.0246(4) 0.2553(3)
C36 C 0.2457(6) -0.1182(5) 0.1938(4)
H30 H 0.2615 -0.1243 0.1504
H31 H 0.2224 -0.1692 0.2079
C37 C 0.2216(4) 0.0001(4) 0.2370(3)
C38 C 0.1899(4) 0.0728(4) 0.2549(3)
H32 H 0.1373 0.0896 0.2419
C39 C 0.2396(4) 0.1222(4) 0.2941(3)
C40 C 0.2029(4) 0.2049(4) 0.3103(3)
H33 H 0.1455 0.1962 0.3249
C41 C 0.2531(5) 0.2404(4) 0.3649(3)
H34 H 0.2419 0.2058 0.4010
C42 C 0.2402(8) 0.3250(6) 0.3858(4)
C43 C 0.3812(6) 0.2960(6) 0.3990(4)
H35 H 0.3917 0.2703 0.4389
H36 H 0.4328 0.3200 0.3841
C44 C 0.4459(6) 0.1171(6) 0.4480(4)
C45 C 0.4378(6) 0.0729(6) 0.5071(4)
H37 H 0.3799 0.0767 0.5201
H38 H 0.4489 0.0162 0.4985
C46 C 0.4903(6) 0.0968(6) 0.5606(4)
H39 H 0.5483 0.1017 0.5483
H40 H 0.4861 0.0572 0.5939
C47 C 0.4571(7) 0.1753(6) 0.5808(5)
H41 H 0.3975 0.1759 0.5755
H42 H 0.4816 0.2176 0.5562
H43 H 0.4704 0.1837 0.6240
C48 C 0.1990(4) 0.2601(4) 0.2546(3)
C49 C 0.2517(4) 0.2521(4) 0.2057(3)
H44 H 0.2921 0.2116 0.2065
C50 C 0.2468(4) 0.3055(4) 0.1519(3)
C51 C 0.2927(4) 0.3468(4) 0.0589(3)
C52 C 0.3503(5) 0.3425(5) 0.0073(3)
H45 H 0.3916 0.3029 0.0071
C53 C 0.3452(6) 0.3949(5) -0.0407(4)
H46 H 0.3846 0.3929 -0.0725
C54 C 0.2823(8) 0.4513(6) -0.0429(4)
H47 H 0.2791 0.4860 -0.0769
C55 C 0.2266(6) 0.4574(5) 0.0017(5)
H48 H 0.1849 0.4964 -0.0013
C56 C 0.2286(5) 0.4047(5) 0.0555(4)
C57 C 0.1836(4) 0.3655(4) 0.1503(3)
C58 C 0.1261(4) 0.3707(4) 0.2033(4)
C59 C 0.1375(4) 0.3207(4) 0.2525(3)
H49 H 0.1026 0.3267 0.2869
C60 C 0.0160(7) 0.4469(7) 0.2488(6)
H50 H -0.0175 0.3998 0.2570
H51 H -0.0197 0.4920 0.2395
H52 H 0.0493 0.4591 0.2848
N3 N 0.3002(3) 0.2959(3) 0.1069(2)
N4 N 0.1737(4) 0.4140(4) 0.1011(3)
O8 O 0.3168(3) -0.0993(3) 0.2294(3)
O9 O 0.1846(3) -0.0562(3) 0.1994(2)
O10 O 0.1789(5) 0.3670(4) 0.3866(4)
O11 O 0.3159(4) 0.3565(3) 0.4043(3)
O12 O 0.3748(3) 0.1108(3) 0.4148(2)
O13 O 0.5048(4) 0.1566(4) 0.4320(2)
O14 O 0.0692(4) 0.4315(3) 0.1972(3)
loop_
_geom_bond_atom_site_label_1
_geom_bond_atom_site_label_2
_geom_bond_site_symmetry_1
_geom_bond_site_symmetry_2
C1 H1 1_555 1_555
C2 C1 1_555 1_555
H2 C2 1_555 1_555
C3 C2 1_555 1_555
C4 C3 1_555 1_555
H3 C4 1_555 1_555
C5 C4 1_555 1_555
C6 H4 1_555 1_555
H5 C6 1_555 1_555
C7 C5 1_555 1_555
C8 C7 1_555 1_555
H6 C8 1_555 1_555
C9 C3 1_555 1_555
C10 C9 1_555 1_555
H7 C10 1_555 1_555
C11 C1 1_555 1_555
H8 C11 1_555 1_555
C12 C11 1_555 1_555
C13 C1 1_555 1_555
H9 C13 1_555 1_555
H10 C13 1_555 1_555
C14 C15 1_555 1_555
C15 H11 1_555 1_555
H12 C15 1_555 1_555
C16 C15 1_555 1_555
H13 C16 1_555 1_555
H14 C16 1_555 1_555
C17 C16 1_555 1_555
H15 C17 1_555 1_555
H16 C17 1_555 1_555
H17 C17 1_555 1_555
C18 C10 1_555 1_555
C19 C18 1_555 1_555
H18 C19 1_555 1_555
C20 C19 1_555 1_555
C21 C22 1_555 1_555
C22 H19 1_555 1_555
C23 C22 1_555 1_555
H20 C23 1_555 1_555
C24 C23 1_555 1_555
H21 C24 1_555 1_555
C25 C24 1_555 1_555
H22 C25 1_555 1_555
C26 C21 1_555 1_555
C27 C20 1_555 1_555
C28 C27 1_555 1_555
C29 C18 1_555 1_555
H23 C29 1_555 1_555
C30 H24 1_555 1_555
H25 C30 1_555 1_555
H26 C30 1_555 1_555
N1 C20 1_555 1_555
N2 C26 1_555 1_555
O1 C5 1_555 1_555
O2 C6 1_555 1_555
O3 C12 1_555 1_555
O4 C12 1_555 1_555
O5 C2 1_555 1_555
O6 C14 1_555 1_555
O7 C28 1_555 1_555
C31 H27 1_555 1_555
C32 C31 1_555 1_555
H28 C32 1_555 1_555
C33 C32 1_555 1_555
C34 C33 1_555 1_555
H29 C34 1_555 1_555
C35 C34 1_555 1_555
C36 H30 1_555 1_555
H31 C36 1_555 1_555
C37 C35 1_555 1_555
C38 C37 1_555 1_555
H32 C38 1_555 1_555
C39 C33 1_555 1_555
C40 C39 1_555 1_555
H33 C40 1_555 1_555
C41 C31 1_555 1_555
H34 C41 1_555 1_555
C42 C41 1_555 1_555
C43 C31 1_555 1_555
H35 C43 1_555 1_555
H36 C43 1_555 1_555
C44 C45 1_555 1_555
C45 H37 1_555 1_555
H38 C45 1_555 1_555
C46 C45 1_555 1_555
H39 C46 1_555 1_555
H40 C46 1_555 1_555
C47 C46 1_555 1_555
H41 C47 1_555 1_555
H42 C47 1_555 1_555
H43 C47 1_555 1_555
C48 C40 1_555 1_555
C49 C48 1_555 1_555
H44 C49 1_555 1_555
C50 C49 1_555 1_555
C51 C52 1_555 1_555
C52 H45 1_555 1_555
C53 C52 1_555 1_555
H46 C53 1_555 1_555
C54 C53 1_555 1_555
H47 C54 1_555 1_555
C55 C54 1_555 1_555
H48 C55 1_555 1_555
C56 C51 1_555 1_555
C57 C50 1_555 1_555
C58 C57 1_555 1_555
C59 C48 1_555 1_555
H49 C59 1_555 1_555
C60 H50 1_555 1_555
H51 C60 1_555 1_555
H52 C60 1_555 1_555
N3 C50 1_555 1_555
N4 C56 1_555 1_555
O8 C35 1_555 1_555
O9 C36 1_555 1_555
O10 C42 1_555 1_555
O11 C42 1_555 1_555
O12 C32 1_555 1_555
O13 C44 1_555 1_555
O14 C58 1_555 1_555
C6 O1 1_555 1_555
C7 O2 1_555 1_555
C8 C9 1_555 1_555
C10 C11 1_555 1_555
C13 O4 1_555 1_555
C14 O5 1_555 1_555
C21 N1 1_555 1_555
C25 C26 1_555 1_555
C27 N2 1_555 1_555
C28 C29 1_555 1_555
C30 O7 1_555 1_555
C36 O8 1_555 1_555
C37 O9 1_555 1_555
C38 C39 1_555 1_555
C40 C41 1_555 1_555
C43 O11 1_555 1_555
C44 O12 1_555 1_555
C51 N3 1_555 1_555
C55 C56 1_555 1_555
C57 N4 1_555 1_555
C58 C59 1_555 1_555
C60 O14 1_555 1_555

#END
