
#######################################################################
#
#                 Cambridge Crystallographic Data Centre
#                                CCDC 
#
#######################################################################
#
# If this CIF has been generated from an entry in the Cambridge 
# Structural Database, then it will include bibliographic, chemical, 
# crystal, experimental, refinement or atomic coordinate data resulting 
# from the CCDC's data processing and validation procedures.
#
#######################################################################

data_JAHHAE
_chemical_formula_moiety         'C29 H24 N2 O7'
_chemical_name_systematic        
"9-(4-methoxyphenazin-2-yl)-8-oxo-5,5a,6,8,8a,9-hexahydrofuro[3',4':6,7]naphtho[2,3-d][1,3]dioxol-5-yl propionate unknown solvate"
_symmetry_cell_setting           orthorhombic
_symmetry_space_group_name_H-M   'P 21 21 21'
_symmetry_Int_Tables_number      19
_space_group_name_Hall           'P 2ac 2ab'
loop_
_symmetry_equiv_pos_site_id
_symmetry_equiv_pos_as_xyz
1 x,y,z
2 1/2-x,-y,1/2+z
3 -x,1/2+y,1/2-z
4 1/2+x,1/2-y,-z
_cell_length_a                   15.700(5)
_cell_length_b                   16.439(5)
_cell_length_c                   21.217(6)
_cell_angle_alpha                90
_cell_angle_beta                 90
_cell_angle_gamma                90
_cell_volume                     5475.94
_exptl_crystal_colour            yellow
_exptl_crystal_description       block
_chemical_melting_point          '170-172 deg.C'
_cell_formula_units_Z            8
loop_
_atom_site_label
_atom_site_type_symbol
_atom_site_fract_x
_atom_site_fract_y
_atom_site_fract_z
C1 C 0.7460(6) 0.5955(5) 0.4345(4)
H1 H 0.6964 0.5694 0.4150
C2 C 0.7391(5) 0.5831(6) 0.5062(4)
H2 H 0.7303 0.5254 0.5158
C3 C 0.6688(5) 0.6330(5) 0.5339(4)
C4 C 0.6377(6) 0.6101(6) 0.5924(4)
H3 H 0.6598 0.5651 0.6133
C5 C 0.5734(6) 0.6554(6) 0.6188(4)
C6 C 0.4699(6) 0.7076(8) 0.6795(5)
H4 H 0.4126 0.6863 0.6841
H5 H 0.4831 0.7409 0.7159
C7 C 0.5424(6) 0.7217(6) 0.5888(4)
C8 C 0.5679(7) 0.7462(5) 0.5325(5)
H6 H 0.5444 0.7917 0.5132
C9 C 0.6340(5) 0.6988(5) 0.5026(4)
C10 C 0.6551(5) 0.7202(5) 0.4342(4)
H7 H 0.6583 0.7795 0.4307
C11 C 0.7420(6) 0.6856(5) 0.4192(4)
H8 H 0.7822 0.7125 0.4478
C12 C 0.7795(6) 0.6913(8) 0.3553(5)
C13 C 0.8229(6) 0.5706(7) 0.3978(5)
H9 H 0.8739 0.5764 0.4232
H10 H 0.8181 0.5143 0.3844
C14 C 0.8598(8) 0.5648(8) 0.5703(6)
C15 C 0.9403(7) 0.6000(8) 0.5972(6)
H11 H 0.9728 0.6209 0.5619
H12 H 0.9237 0.6466 0.6223
C16 C 0.9977(9) 0.5540(11) 0.6345(8)
H13 H 1.0065 0.5810 0.6741
H14 H 1.0511 0.5491 0.6128
H15 H 0.9744 0.5009 0.6418
C17 C 0.5861(5) 0.6903(5) 0.3901(4)
C18 C 0.5329(5) 0.6272(5) 0.4035(4)
H16 H 0.5358 0.6032 0.4432
C19 C 0.4742(5) 0.5974(5) 0.3598(4)
C20 C 0.3689(6) 0.5094(5) 0.3300(4)
C21 C 0.3099(6) 0.4463(5) 0.3453(5)
H17 H 0.3110 0.4238 0.3855
C22 C 0.2534(6) 0.4186(6) 0.3036(6)
H18 H 0.2143 0.3784 0.3144
C23 C 0.2547(7) 0.4538(7) 0.2397(7)
H19 H 0.2178 0.4337 0.2092
C24 C 0.3078(7) 0.5136(6) 0.2251(5)
H20 H 0.3067 0.5351 0.1845
C25 C 0.3655(5) 0.5456(5) 0.2692(4)
C26 C 0.4707(5) 0.6347(5) 0.2968(4)
C27 C 0.5266(5) 0.7014(5) 0.2840(3)
C28 C 0.5823(5) 0.7276(5) 0.3283(4)
H21 H 0.6188 0.7705 0.3189
C29 C 0.5846(6) 0.7886(6) 0.2070(5)
H22 H 0.5826 0.8345 0.2349
H23 H 0.5733 0.8062 0.1647
H24 H 0.6400 0.7641 0.2089
N1 N 0.4253(4) 0.5369(4) 0.3754(3)
N2 N 0.4172(4) 0.6070(4) 0.2536(3)
O1 O 0.5303(4) 0.6424(5) 0.6735(3)
O2 O 0.4770(4) 0.7543(5) 0.6228(3)
O3 O 0.7773(4) 0.7450(5) 0.3170(4)
O4 O 0.8258(4) 0.6230(6) 0.3449(3)
O5 O 0.8198(4) 0.6112(4) 0.5336(3)
O6 O 0.8379(7) 0.4980(7) 0.5786(6)
O7 O 0.5211(4) 0.7298(4) 0.2258(3)
C30 C 0.8476(6) 0.7394(6) 0.8582(4)
H25 H 0.8584 0.7631 0.8165
C31 C 0.8799(6) 0.6539(6) 0.8563(4)
H26 H 0.9381 0.6533 0.8396
C32 C 0.8226(6) 0.6008(6) 0.8150(4)
C33 C 0.8550(6) 0.5277(6) 0.7940(4)
H27 H 0.9096 0.5110 0.8051
C34 C 0.8056(7) 0.4818(6) 0.7572(5)
C35 C 0.7536(8) 0.3849(7) 0.6942(6)
H28 H 0.7301 0.3344 0.7103
H29 H 0.7691 0.3766 0.6504
C36 C 0.7268(6) 0.5041(6) 0.7390(4)
C37 C 0.6932(6) 0.5760(5) 0.7580(4)
H30 H 0.6393 0.5920 0.7447
C38 C 0.7413(5) 0.6259(5) 0.7983(4)
C39 C 0.7024(6) 0.7077(5) 0.8144(4)
H31 H 0.6441 0.6983 0.8292
C40 C 0.7532(7) 0.7424(6) 0.8686(4)
H32 H 0.7416 0.7075 0.9050
C41 C 0.7376(11) 0.8286(8) 0.8902(5)
C42 C 0.8806(10) 0.7982(7) 0.9056(6)
H33 H 0.8900 0.7719 0.9459
H34 H 0.9335 0.8227 0.8915
C43 C 0.9484(9) 0.6247(8) 0.9535(5)
C44 C 0.9415(10) 0.5795(8) 1.0138(5)
H35 H 0.9759 0.5306 1.0109
H36 H 0.8828 0.5627 1.0195
C45 C 0.9695(13) 0.6278(11) 1.0714(6)
H37 H 1.0263 0.6478 1.0650
H38 H 0.9684 0.5932 1.1079
H39 H 0.9315 0.6728 1.0777
C46 C 0.6982(5) 0.7630(5) 0.7580(4)
C47 C 0.7526(5) 0.7553(4) 0.7080(4)
H40 H 0.7948 0.7156 0.7093
C48 C 0.7463(5) 0.8060(5) 0.6542(4)
C49 C 0.7919(5) 0.8457(5) 0.5569(4)
C50 C 0.8506(6) 0.8398(6) 0.5069(4)
H41 H 0.8938 0.8012 0.5082
C51 C 0.8437(8) 0.8903(7) 0.4576(5)
H42 H 0.8839 0.8867 0.4255
C52 C 0.7796(9) 0.9476(7) 0.4521(5)
H43 H 0.7761 0.9799 0.4162
C53 C 0.7223(8) 0.9563(6) 0.4988(6)
H44 H 0.6797 0.9954 0.4956
C54 C 0.7272(6) 0.9048(5) 0.5539(4)
C55 C 0.6806(5) 0.8669(5) 0.6507(4)
C56 C 0.6259(6) 0.8741(5) 0.7039(5)
C57 C 0.6346(5) 0.8246(6) 0.7550(4)
H45 H 0.5978 0.8312 0.7890
C58 C 0.5153(10) 0.9495(9) 0.7523(7)
H46 H 0.4897 0.8994 0.7657
H47 H 0.4715 0.9878 0.7414
H48 H 0.5493 0.9713 0.7859
N3 N 0.8008(4) 0.7961(4) 0.6065(3)
N4 N 0.6718(5) 0.9146(4) 0.6004(4)
O8 O 0.8251(5) 0.4066(4) 0.7289(4)
O9 O 0.6913(5) 0.4487(4) 0.6989(3)
O10 O 0.6732(7) 0.8679(6) 0.8919(4)
O11 O 0.8133(7) 0.8586(5) 0.9101(4)
O12 O 0.8786(5) 0.6160(4) 0.9191(3)
O13 O 1.0088(5) 0.6636(5) 0.9368(3)
O14 O 0.5678(5) 0.9348(4) 0.6986(4)
loop_
_geom_bond_atom_site_label_1
_geom_bond_atom_site_label_2
_geom_bond_site_symmetry_1
_geom_bond_site_symmetry_2
C1 H1 1_555 1_555
C2 C1 1_555 1_555
H2 C2 1_555 1_555
C3 C2 1_555 1_555
C4 C3 1_555 1_555
H3 C4 1_555 1_555
C5 C4 1_555 1_555
C6 H4 1_555 1_555
H5 C6 1_555 1_555
C7 C5 1_555 1_555
C8 C7 1_555 1_555
H6 C8 1_555 1_555
C9 C3 1_555 1_555
C10 C9 1_555 1_555
H7 C10 1_555 1_555
C11 C1 1_555 1_555
H8 C11 1_555 1_555
C12 C11 1_555 1_555
C13 C1 1_555 1_555
H9 C13 1_555 1_555
H10 C13 1_555 1_555
C14 C15 1_555 1_555
C15 H11 1_555 1_555
H12 C15 1_555 1_555
C16 C15 1_555 1_555
H13 C16 1_555 1_555
H14 C16 1_555 1_555
H15 C16 1_555 1_555
C17 C10 1_555 1_555
C18 C17 1_555 1_555
H16 C18 1_555 1_555
C19 C18 1_555 1_555
C20 C21 1_555 1_555
C21 H17 1_555 1_555
C22 C21 1_555 1_555
H18 C22 1_555 1_555
C23 C22 1_555 1_555
H19 C23 1_555 1_555
C24 C23 1_555 1_555
H20 C24 1_555 1_555
C25 C20 1_555 1_555
C26 C19 1_555 1_555
C27 C26 1_555 1_555
C28 C17 1_555 1_555
H21 C28 1_555 1_555
C29 H22 1_555 1_555
H23 C29 1_555 1_555
H24 C29 1_555 1_555
N1 C19 1_555 1_555
N2 C25 1_555 1_555
O1 C5 1_555 1_555
O2 C6 1_555 1_555
O3 C12 1_555 1_555
O4 C12 1_555 1_555
O5 C2 1_555 1_555
O6 C14 1_555 1_555
O7 C27 1_555 1_555
C30 H25 1_555 1_555
C31 C30 1_555 1_555
H26 C31 1_555 1_555
C32 C31 1_555 1_555
C33 C32 1_555 1_555
H27 C33 1_555 1_555
C34 C33 1_555 1_555
C35 H28 1_555 1_555
H29 C35 1_555 1_555
C36 C34 1_555 1_555
C37 C36 1_555 1_555
H30 C37 1_555 1_555
C38 C32 1_555 1_555
C39 C38 1_555 1_555
H31 C39 1_555 1_555
C40 C30 1_555 1_555
H32 C40 1_555 1_555
C41 C40 1_555 1_555
C42 C30 1_555 1_555
H33 C42 1_555 1_555
H34 C42 1_555 1_555
C43 C44 1_555 1_555
C44 H35 1_555 1_555
H36 C44 1_555 1_555
C45 C44 1_555 1_555
H37 C45 1_555 1_555
H38 C45 1_555 1_555
H39 C45 1_555 1_555
C46 C39 1_555 1_555
C47 C46 1_555 1_555
H40 C47 1_555 1_555
C48 C47 1_555 1_555
C49 C50 1_555 1_555
C50 H41 1_555 1_555
C51 C50 1_555 1_555
H42 C51 1_555 1_555
C52 C51 1_555 1_555
H43 C52 1_555 1_555
C53 C52 1_555 1_555
H44 C53 1_555 1_555
C54 C49 1_555 1_555
C55 C48 1_555 1_555
C56 C55 1_555 1_555
C57 C46 1_555 1_555
H45 C57 1_555 1_555
C58 H46 1_555 1_555
H47 C58 1_555 1_555
H48 C58 1_555 1_555
N3 C48 1_555 1_555
N4 C54 1_555 1_555
O8 C34 1_555 1_555
O9 C35 1_555 1_555
O10 C41 1_555 1_555
O11 C41 1_555 1_555
O12 C31 1_555 1_555
O13 C43 1_555 1_555
O14 C56 1_555 1_555
C6 O1 1_555 1_555
C7 O2 1_555 1_555
C8 C9 1_555 1_555
C10 C11 1_555 1_555
C13 O4 1_555 1_555
C14 O5 1_555 1_555
C20 N1 1_555 1_555
C24 C25 1_555 1_555
C26 N2 1_555 1_555
C27 C28 1_555 1_555
C29 O7 1_555 1_555
C35 O8 1_555 1_555
C36 O9 1_555 1_555
C37 C38 1_555 1_555
C39 C40 1_555 1_555
C42 O11 1_555 1_555
C43 O12 1_555 1_555
C49 N3 1_555 1_555
C53 C54 1_555 1_555
C55 N4 1_555 1_555
C56 C57 1_555 1_555
C58 O14 1_555 1_555

#END
