
#######################################################################
#
#                 Cambridge Crystallographic Data Centre
#                                CCDC 
#
#######################################################################
#
# If this CIF has been generated from an entry in the Cambridge 
# Structural Database, then it will include bibliographic, chemical, 
# crystal, experimental, refinement or atomic coordinate data resulting 
# from the CCDC's data processing and validation procedures.
#
#######################################################################

data_JAHNEO
_chemical_compound_source        'rhizomes of Acorus tatarinowii'
_chemical_name_common            'acortatarinowin H'
_chemical_formula_moiety         'C22 H24 O6'
_chemical_name_systematic        
3-methoxy-6,7-dimethyl-5-(2,4,5-trimethoxyphenyl)-5,6-dihydronaphthalene-1,4-dione
_symmetry_cell_setting           monoclinic
_symmetry_space_group_name_H-M   'P 21/c'
_symmetry_Int_Tables_number      14
_space_group_name_Hall           '-P 2ybc'
loop_
_symmetry_equiv_pos_site_id
_symmetry_equiv_pos_as_xyz
1 x,y,z
2 -x,1/2+y,1/2-z
3 -x,-y,-z
4 x,1/2-y,1/2+z
_cell_length_a                   7.5710(2)
_cell_length_b                   15.1433(4)
_cell_length_c                   18.9868(6)
_cell_angle_alpha                90
_cell_angle_beta                 112.489(3)
_cell_angle_gamma                90
_cell_volume                     2011.29
_exptl_crystal_colour            colorless
_exptl_crystal_description       block
_cell_formula_units_Z            4
loop_
_atom_site_label
_atom_site_type_symbol
_atom_site_fract_x
_atom_site_fract_y
_atom_site_fract_z
O1 O -0.00795(17) -0.54585(8) -0.18519(8)
O2 O 0.64439(15) -0.43927(7) -0.05828(6)
O3 O -0.13398(15) -0.37967(9) -0.17942(7)
O4 O 0.4889(2) -0.27902(8) 0.09666(7)
O5 O 0.30322(17) -0.16913(8) 0.14942(6)
O6 O 0.2108(2) 0.00959(9) -0.06549(8)
C1 C 0.0481(3) -0.63454(13) -0.17584(18)
H1 H 0.1371 -0.6451 -0.1998
H2 H -0.0621 -0.6715 -0.1988
H3 H 0.1078 -0.6479 -0.1225
C2 C 0.1278(2) -0.48246(10) -0.15278(9)
C3 C 0.3239(2) -0.49820(10) -0.12216(9)
H4 H 0.3703 -0.5548 -0.1235
C4 C 0.4500(2) -0.42953(9) -0.08963(8)
C5 C 0.3837(2) -0.34405(9) -0.08564(8)
C6 C 0.1881(2) -0.33025(10) -0.11774(8)
H5 H 0.1413 -0.2737 -0.1165
C7 C 0.0601(2) -0.39705(10) -0.15136(9)
C8 C -0.2189(3) -0.37006(18) -0.25862(13)
H6 H -0.1954 -0.4220 -0.2827
H7 H -0.1654 -0.3196 -0.2738
H8 H -0.3542 -0.3620 -0.2737
C9 C 0.7233(2) -0.52143(11) -0.06699(11)
H9 H 0.6777 -0.5365 -0.1201
H10 H 0.6856 -0.5663 -0.0398
H11 H 0.8602 -0.5171 -0.0469
C10 C 0.5285(2) -0.27178(10) -0.04667(8)
H12 H 0.6300 -0.2989 -0.0029
C11 C 0.6238(2) -0.23327(11) -0.09909(10)
H13 H 0.6384 -0.2813 -0.1310
C12 C 0.5041(3) -0.16194(11) -0.15105(9)
C13 C 0.3903(3) -0.11117(11) -0.12902(9)
H14 H 0.3214 -0.0659 -0.1608
C14 C 0.3722(2) -0.12539(10) -0.05650(9)
C15 C 0.4397(2) -0.19968(9) -0.01608(8)
C16 C 0.4213(2) -0.21441(10) 0.05723(8)
C17 C 0.3171(2) -0.14578(10) 0.08358(8)
C18 C 0.2519(2) -0.07204(11) 0.04380(9)
H15 H 0.1914 -0.0297 0.0622
C19 C 0.2742(2) -0.05699(11) -0.02806(10)
C20 C 0.2170(4) -0.10689(17) 0.18368(12)
H16 H 0.0860 -0.0977 0.1506
H17 H 0.2847 -0.0518 0.1916
H18 H 0.2227 -0.1295 0.2317
C21 C 0.5276(4) -0.14730(16) -0.22522(12)
H19 H 0.6602 -0.1374 -0.2155
H20 H 0.4543 -0.0967 -0.2505
H21 H 0.4836 -0.1984 -0.2570
C22 C 0.8232(3) -0.19760(14) -0.05149(13)
H22 H 0.8135 -0.1537 -0.0167
H23 H 0.8779 -0.1716 -0.0846
H24 H 0.9031 -0.2451 -0.0233
loop_
_geom_bond_atom_site_label_1
_geom_bond_atom_site_label_2
_geom_bond_site_symmetry_1
_geom_bond_site_symmetry_2
O1 C1 1_555 1_555
O2 C4 1_555 1_555
O3 C7 1_555 1_555
O4 C16 1_555 1_555
O5 C17 1_555 1_555
O6 C19 1_555 1_555
C1 H1 1_555 1_555
H2 C1 1_555 1_555
H3 C1 1_555 1_555
C2 O1 1_555 1_555
C3 C2 1_555 1_555
H4 C3 1_555 1_555
C4 C3 1_555 1_555
C5 C4 1_555 1_555
C6 C5 1_555 1_555
H5 C6 1_555 1_555
C7 C2 1_555 1_555
C8 O3 1_555 1_555
H6 C8 1_555 1_555
H7 C8 1_555 1_555
H8 C8 1_555 1_555
C9 O2 1_555 1_555
H9 C9 1_555 1_555
H10 C9 1_555 1_555
H11 C9 1_555 1_555
C10 C5 1_555 1_555
H12 C10 1_555 1_555
C11 C10 1_555 1_555
H13 C11 1_555 1_555
C12 C11 1_555 1_555
C13 C12 1_555 1_555
H14 C13 1_555 1_555
C14 C13 1_555 1_555
C15 C10 1_555 1_555
C16 C15 1_555 1_555
C17 C16 1_555 1_555
C18 C17 1_555 1_555
H15 C18 1_555 1_555
C19 C14 1_555 1_555
C20 O5 1_555 1_555
H16 C20 1_555 1_555
H17 C20 1_555 1_555
H18 C20 1_555 1_555
C21 C12 1_555 1_555
H19 C21 1_555 1_555
H20 C21 1_555 1_555
H21 C21 1_555 1_555
C22 C11 1_555 1_555
H22 C22 1_555 1_555
H23 C22 1_555 1_555
H24 C22 1_555 1_555
C6 C7 1_555 1_555
C14 C15 1_555 1_555
C18 C19 1_555 1_555

#END
