
#######################################################################
#
#                 Cambridge Crystallographic Data Centre
#                                CCDC 
#
#######################################################################
#
# If this CIF has been generated from an entry in the Cambridge 
# Structural Database, then it will include bibliographic, chemical, 
# crystal, experimental, refinement or atomic coordinate data resulting 
# from the CCDC's data processing and validation procedures.
#
#######################################################################

data_JAHPUG
_chemical_formula_moiety         'C23 H15 Cl1 O1'
_chemical_name_systematic        
3-(anthracen-9-yl)-1-(4-chlorophenyl)prop-2-en-1-one
_symmetry_cell_setting           monoclinic
_symmetry_space_group_name_H-M   'P 21/c'
_symmetry_Int_Tables_number      14
_space_group_name_Hall           '-P 2ybc'
loop_
_symmetry_equiv_pos_site_id
_symmetry_equiv_pos_as_xyz
1 x,y,z
2 -x,1/2+y,1/2-z
3 -x,-y,-z
4 x,1/2-y,1/2+z
_cell_length_a                   5.4320(11)
_cell_length_b                   19.431(4)
_cell_length_c                   16.208(3)
_cell_angle_alpha                90
_cell_angle_beta                 95.65(3)
_cell_angle_gamma                90
_cell_volume                     1702.43
_exptl_crystal_colour            orange
_exptl_crystal_description       rodlike
_cell_formula_units_Z            4
_exptl_crystal_recrystallization_method 'ethyl acetate/acetic acid'
_exptl_crystal_preparation       ', Luminescent'
loop_
_atom_site_label
_atom_site_type_symbol
_atom_site_fract_x
_atom_site_fract_y
_atom_site_fract_z
Cl1 Cl 0.8272(3) -0.15341(8) 0.42053(8)
O1 O 1.4019(6) 0.0089(2) 0.7416(2)
C1 C 0.7558(10) 0.1690(2) 0.8638(3)
C2 C 0.6953(10) 0.1857(3) 0.7789(3)
H1 H 0.7873 0.1669 0.7389
C3 C 0.5003(11) 0.2296(3) 0.7552(4)
H2 H 0.4645 0.2404 0.6994
C4 C 0.3538(11) 0.2585(3) 0.8143(3)
H3 H 0.2223 0.2876 0.7976
C5 C 0.4090(10) 0.2430(2) 0.8953(3)
H4 H 0.3089 0.2608 0.9334
C6 C 0.6093(9) 0.2013(2) 0.9247(3)
C7 C 0.6883(11) 0.1914(2) 1.0085(3)
H5 H 0.6046 0.2146 1.0474
C8 C 0.8783(11) 0.1501(3) 1.0366(3)
C9 C 0.9541(11) 0.1435(3) 1.1224(3)
H6 H 0.8694 0.1669 1.1610
C10 C 1.1488(12) 0.1034(3) 1.1479(3)
H7 H 1.1987 0.1005 1.2044
C11 C 1.2789(10) 0.0659(3) 1.0928(3)
H8 H 1.4096 0.0375 1.1122
C12 C 1.2102(10) 0.0720(3) 1.0096(3)
H9 H 1.2940 0.0465 0.9726
C13 C 1.0179(9) 0.1154(2) 0.9785(3)
C14 C 0.9473(9) 0.1245(2) 0.8918(3)
C15 C 1.0980(10) 0.0872(2) 0.8345(3)
H10 H 1.2691 0.0911 0.8439
C16 C 1.0064(10) 0.0479(2) 0.7695(2)
H11 H 0.8370 0.0463 0.7540
C17 C 1.1770(9) 0.0081(3) 0.7242(3)
C18 C 1.0703(9) -0.0341(2) 0.6508(3)
C19 C 1.2149(10) -0.0874(3) 0.6235(3)
H12 H 1.3667 -0.0977 0.6525
C20 C 1.1353(12) -0.1242(3) 0.5550(4)
H13 H 1.2312 -0.1604 0.5383
C21 C 0.9240(11) -0.1095(3) 0.5118(3)
C22 C 0.7727(10) -0.0576(3) 0.5373(3)
H14 H 0.6209 -0.0482 0.5078
C23 C 0.8524(9) -0.0202(3) 0.6077(3)
H15 H 0.7536 0.0149 0.6253
loop_
_geom_bond_atom_site_label_1
_geom_bond_atom_site_label_2
_geom_bond_site_symmetry_1
_geom_bond_site_symmetry_2
Cl1 C21 1_555 1_555
O1 C17 1_555 1_555
C1 C2 1_555 1_555
C2 H1 1_555 1_555
C3 C2 1_555 1_555
H2 C3 1_555 1_555
C4 C3 1_555 1_555
H3 C4 1_555 1_555
C5 C4 1_555 1_555
H4 C5 1_555 1_555
C6 C1 1_555 1_555
C7 C6 1_555 1_555
H5 C7 1_555 1_555
C8 C7 1_555 1_555
C9 C8 1_555 1_555
H6 C9 1_555 1_555
C10 C9 1_555 1_555
H7 C10 1_555 1_555
C11 C10 1_555 1_555
H8 C11 1_555 1_555
C12 C11 1_555 1_555
H9 C12 1_555 1_555
C13 C8 1_555 1_555
C14 C1 1_555 1_555
C15 C14 1_555 1_555
H10 C15 1_555 1_555
C16 C15 1_555 1_555
H11 C16 1_555 1_555
C17 C16 1_555 1_555
C18 C17 1_555 1_555
C19 C18 1_555 1_555
H12 C19 1_555 1_555
C20 C19 1_555 1_555
H13 C20 1_555 1_555
C21 C20 1_555 1_555
C22 C21 1_555 1_555
H14 C22 1_555 1_555
C23 C18 1_555 1_555
H15 C23 1_555 1_555
C5 C6 1_555 1_555
C12 C13 1_555 1_555
C13 C14 1_555 1_555
C22 C23 1_555 1_555

#END
