
#######################################################################
#
#                 Cambridge Crystallographic Data Centre
#                                CCDC 
#
#######################################################################
#
# If this CIF has been generated from an entry in the Cambridge 
# Structural Database, then it will include bibliographic, chemical, 
# crystal, experimental, refinement or atomic coordinate data resulting 
# from the CCDC's data processing and validation procedures.
#
#######################################################################

data_JAJFEI
_chemical_formula_moiety         'C41 H29 N1'
_chemical_name_systematic        
2-(4'-(2,2-diphenylvinyl)biphenyl-4-yl)-3,3-diphenylacrylonitrile
_symmetry_cell_setting           triclinic
_symmetry_space_group_name_H-M   'P -1'
_symmetry_Int_Tables_number      2
_space_group_name_Hall           '-P 1'
loop_
_symmetry_equiv_pos_site_id
_symmetry_equiv_pos_as_xyz
1 x,y,z
2 -x,-y,-z
_cell_length_a                   10.0624(6)
_cell_length_b                   13.1427(8)
_cell_length_c                   13.6764(6)
_cell_angle_alpha                62.654(5)
_cell_angle_beta                 69.260(5)
_cell_angle_gamma                80.176(5)
_cell_volume                     1502.37
_exptl_crystal_colour            colorless
_exptl_crystal_description       plate
_cell_formula_units_Z            2
loop_
_atom_site_label
_atom_site_type_symbol
_atom_site_fract_x
_atom_site_fract_y
_atom_site_fract_z
N1 N 1.24489(16) 0.88638(14) -0.02823(13)
C1 C 1.15805(18) 0.87976(14) 0.05573(14)
C2 C 1.04176(16) 0.86742(13) 0.15892(12)
C3 C 1.04296(16) 0.92052(13) 0.22377(13)
C4 C 0.18479(17) 0.42667(14) 0.35545(14)
H1 H 0.1532 0.3795 0.4366
C5 C 0.10088(16) 0.42663(13) 0.29739(13)
C6 C 1.16922(16) 0.98316(13) 0.19950(12)
C7 C 1.30589(17) 0.93925(15) 0.17632(14)
H2 H 1.3209 0.8661 0.1759
C8 C 1.42154(19) 1.00012(17) 0.15373(15)
H3 H 1.5147 0.9687 0.1378
C9 C 1.4013(2) 1.10644(17) 0.15444(15)
H4 H 1.4802 1.1485 0.1388
C10 C 1.2658(2) 1.15096(15) 0.17801(14)
H5 H 1.2515 1.2242 0.1781
C11 C 1.15028(18) 1.08999(14) 0.20151(13)
H6 H 1.0572 1.1211 0.2192
C12 C 0.91692(16) 0.92070(13) 0.32194(13)
C13 C 0.93382(19) 0.89725(14) 0.42683(14)
H7 H 1.0264 0.8850 0.4340
C14 C 0.8172(2) 0.89166(17) 0.52058(16)
H8 H 0.8299 0.8749 0.5921
C15 C 0.6829(2) 0.91028(18) 0.5109(2)
H9 H 0.6027 0.9040 0.5764
C16 C 0.6644(2) 0.93821(18) 0.4059(2)
H10 H 0.5717 0.9535 0.3987
C17 C 0.78017(18) 0.94388(16) 0.31159(17)
H11 H 0.7671 0.9635 0.2395
C18 C 0.92337(16) 0.79677(13) 0.18190(13)
C19 C 0.86930(17) 0.81580(13) 0.09406(12)
H12 H 0.9121 0.8719 0.0177
C20 C 0.75520(16) 0.75518(13) 0.11547(13)
H13 H 0.7192 0.7715 0.0542
C21 C 0.69163(16) 0.66985(13) 0.22625(13)
C22 C 0.74982(17) 0.64803(14) 0.31321(13)
H14 H 0.7100 0.5895 0.3888
C23 C 0.86337(17) 0.70936(13) 0.29190(13)
H15 H 0.9011 0.6920 0.3525
C24 C 0.31716(17) 0.48808(13) 0.31303(13)
C25 C 0.34616(17) 0.59799(13) 0.22077(13)
H16 H 0.2811 0.6338 0.1782
C26 C 0.46786(16) 0.65449(13) 0.19124(12)
H17 H 0.4852 0.7285 0.1280
C27 C 0.56673(16) 0.60608(13) 0.25168(12)
C28 C 0.53970(17) 0.49503(13) 0.34126(13)
H18 H 0.6061 0.4583 0.3824
C29 C 0.41835(17) 0.43822(14) 0.37071(13)
H19 H 0.4030 0.3630 0.4320
C30 C -0.03585(16) 0.36394(13) 0.36403(13)
C31 C -0.07961(18) 0.29692(14) 0.32671(14)
H20 H -0.0260 0.2969 0.2539
C32 C -0.20052(19) 0.23012(15) 0.39426(16)
H21 H -0.2273 0.1830 0.3686
C33 C -0.28203(19) 0.23197(16) 0.49880(16)
H22 H -0.3641 0.1855 0.5455
C34 C -0.24351(18) 0.30170(15) 0.53481(14)
H23 H -0.3010 0.3051 0.6053
C35 C -0.12124(17) 0.36685(14) 0.46850(13)
H24 H -0.0953 0.4140 0.4945
C36 C 0.14418(16) 0.48018(13) 0.16802(13)
C37 C 0.27748(17) 0.45738(14) 0.10290(14)
H25 H 0.3415 0.4071 0.1412
C38 C 0.31748(19) 0.50723(17) -0.01711(15)
H26 H 0.4081 0.4905 -0.0607
C39 C 0.2251(2) 0.58153(18) -0.07326(15)
H27 H 0.2527 0.6165 -0.1556
C40 C 0.0930(2) 0.60491(17) -0.01000(15)
H28 H 0.0301 0.6565 -0.0488
C41 C 0.05191(18) 0.55333(14) 0.10989(14)
H29 H -0.0404 0.5680 0.1530
loop_
_geom_bond_atom_site_label_1
_geom_bond_atom_site_label_2
_geom_bond_site_symmetry_1
_geom_bond_site_symmetry_2
N1 C1 1_555 1_555
C1 C2 1_555 1_555
C2 C3 1_555 1_555
C3 C6 1_555 1_555
C4 H1 1_555 1_555
C5 C4 1_555 1_555
C6 C7 1_555 1_555
C7 H2 1_555 1_555
C8 C7 1_555 1_555
H3 C8 1_555 1_555
C9 C8 1_555 1_555
H4 C9 1_555 1_555
C10 C9 1_555 1_555
H5 C10 1_555 1_555
C11 C6 1_555 1_555
H6 C11 1_555 1_555
C12 C3 1_555 1_555
C13 C12 1_555 1_555
H7 C13 1_555 1_555
C14 C13 1_555 1_555
H8 C14 1_555 1_555
C15 C14 1_555 1_555
H9 C15 1_555 1_555
C16 C15 1_555 1_555
H10 C16 1_555 1_555
C17 C12 1_555 1_555
H11 C17 1_555 1_555
C18 C2 1_555 1_555
C19 C18 1_555 1_555
H12 C19 1_555 1_555
C20 C19 1_555 1_555
H13 C20 1_555 1_555
C21 C20 1_555 1_555
C22 C21 1_555 1_555
H14 C22 1_555 1_555
C23 C18 1_555 1_555
H15 C23 1_555 1_555
C24 C4 1_555 1_555
C25 C24 1_555 1_555
H16 C25 1_555 1_555
C26 C25 1_555 1_555
H17 C26 1_555 1_555
C27 C21 1_555 1_555
C28 C27 1_555 1_555
H18 C28 1_555 1_555
C29 C24 1_555 1_555
H19 C29 1_555 1_555
C30 C5 1_555 1_555
C31 C30 1_555 1_555
H20 C31 1_555 1_555
C32 C31 1_555 1_555
H21 C32 1_555 1_555
C33 C32 1_555 1_555
H22 C33 1_555 1_555
C34 C33 1_555 1_555
H23 C34 1_555 1_555
C35 C30 1_555 1_555
H24 C35 1_555 1_555
C36 C5 1_555 1_555
C37 C36 1_555 1_555
H25 C37 1_555 1_555
C38 C37 1_555 1_555
H26 C38 1_555 1_555
C39 C38 1_555 1_555
H27 C39 1_555 1_555
C40 C39 1_555 1_555
H28 C40 1_555 1_555
C41 C36 1_555 1_555
H29 C41 1_555 1_555
C10 C11 1_555 1_555
C16 C17 1_555 1_555
C22 C23 1_555 1_555
C26 C27 1_555 1_555
C28 C29 1_555 1_555
C34 C35 1_555 1_555
C40 C41 1_555 1_555

#END
