
#######################################################################
#
#                 Cambridge Crystallographic Data Centre
#                                CCDC 
#
#######################################################################
#
# If this CIF has been generated from an entry in the Cambridge 
# Structural Database, then it will include bibliographic, chemical, 
# crystal, experimental, refinement or atomic coordinate data resulting 
# from the CCDC's data processing and validation procedures.
#
#######################################################################

data_JAJFAE
_chemical_formula_moiety         'C39 H28 N2'
_chemical_name_systematic        
2-(4'-(diphenylamino)biphenyl-4-yl)-3,3-diphenylacrylonitrile
_symmetry_cell_setting           triclinic
_symmetry_space_group_name_H-M   'P -1'
_symmetry_Int_Tables_number      2
_space_group_name_Hall           '-P 1'
loop_
_symmetry_equiv_pos_site_id
_symmetry_equiv_pos_as_xyz
1 x,y,z
2 -x,-y,-z
_cell_length_a                   8.5867(7)
_cell_length_b                   12.9115(11)
_cell_length_c                   14.5681(14)
_cell_angle_alpha                64.226(9)
_cell_angle_beta                 84.232(7)
_cell_angle_gamma                85.650(7)
_cell_volume                     1446.15
_exptl_crystal_colour            yellow
_exptl_crystal_description       plate
_cell_formula_units_Z            2
loop_
_atom_site_label
_atom_site_type_symbol
_atom_site_fract_x
_atom_site_fract_y
_atom_site_fract_z
N1 N -0.13818(19) 0.38575(17) 0.49744(13)
N2 N 1.04170(17) 0.19392(14) 0.19411(12)
C1 C 0.0041(2) 0.53397(18) 0.33141(14)
C2 C -0.0509(2) 0.64429(18) 0.28124(15)
C3 C -0.0803(2) 0.45447(19) 0.42285(15)
C4 C -0.2073(2) 0.68447(19) 0.31012(15)
C5 C -0.3378(2) 0.6174(2) 0.33984(15)
H1 H -0.3300 0.5443 0.3384
C6 C -0.4803(2) 0.6547(2) 0.37183(16)
H2 H -0.5679 0.6066 0.3937
C7 C -0.4934(3) 0.7617(2) 0.37156(18)
H3 H -0.5904 0.7879 0.3930
C8 C -0.3661(3) 0.8307(2) 0.34033(19)
H4 H -0.3759 0.9045 0.3402
C9 C -0.2228(2) 0.7936(2) 0.30880(18)
H5 H -0.1360 0.8423 0.2865
C10 C 0.0492(2) 0.73294(18) 0.20053(15)
C11 C 0.1903(2) 0.7583(2) 0.22331(16)
H6 H 0.2238 0.7173 0.2904
C12 C 0.2829(2) 0.8425(2) 0.14964(17)
H7 H 0.3789 0.8594 0.1665
C13 C 0.2359(2) 0.90246(19) 0.05087(17)
H8 H 0.2999 0.9597 -0.0001
C14 C 0.0953(2) 0.87796(18) 0.02765(16)
H9 H 0.0631 0.9179 -0.0399
C15 C 0.0012(2) 0.79566(18) 0.10198(15)
H10 H -0.0972 0.7817 0.0858
C16 C 0.1551(2) 0.48480(17) 0.30570(15)
C17 C 0.2482(2) 0.41321(19) 0.38374(15)
H11 H 0.2136 0.3955 0.4528
C18 C 0.3902(2) 0.36760(18) 0.36183(14)
H12 H 0.4528 0.3207 0.4163
C19 C 0.4443(2) 0.38864(16) 0.26175(14)
C20 C 0.3471(2) 0.45709(17) 0.18417(14)
H13 H 0.3790 0.4717 0.1154
C21 C 0.2058(2) 0.50387(17) 0.20558(14)
H14 H 0.1422 0.5497 0.1514
C22 C 0.8934(2) 0.24485(17) 0.20784(14)
C23 C 0.8642(2) 0.27665(16) 0.28795(14)
H15 H 0.9447 0.2673 0.3314
C24 C 0.7184(2) 0.32192(17) 0.30472(14)
H16 H 0.7002 0.3415 0.3607
C25 C 0.5979(2) 0.33952(16) 0.24176(14)
C26 C 0.6293(2) 0.30950(18) 0.16011(14)
H17 H 0.5500 0.3215 0.1151
C27 C 0.7748(2) 0.26239(18) 0.14367(15)
H18 H 0.7933 0.2421 0.0881
C28 C 1.1101(2) 0.11192(17) 0.28504(14)
C29 C 1.0409(3) 0.0090(2) 0.34337(18)
H19 H 0.9476 -0.0081 0.3235
C30 C 1.1070(3) -0.0709(2) 0.4320(2)
H20 H 1.0583 -0.1420 0.4724
C31 C 1.2413(3) -0.0471(2) 0.46056(19)
H21 H 1.2870 -0.1015 0.5204
C32 C 1.3091(3) 0.0554(3) 0.40258(19)
H22 H 1.4023 0.0725 0.4226
C33 C 1.2443(3) 0.1353(2) 0.31480(17)
H23 H 1.2931 0.2065 0.2751
C34 C 1.1385(2) 0.24526(17) 0.10347(14)
C35 C 1.1106(2) 0.35794(18) 0.03135(15)
H24 H 1.0233 0.4017 0.0429
C36 C 1.2088(2) 0.40668(19) -0.05675(16)
H25 H 1.1868 0.4830 -0.1057
C37 C 1.3383(2) 0.3458(2) -0.07442(16)
H26 H 1.4067 0.3801 -0.1343
C38 C 1.3669(2) 0.2342(2) -0.00360(17)
H27 H 1.4557 0.1916 -0.0151
C39 C 1.2677(2) 0.18310(19) 0.08432(15)
H28 H 1.2878 0.1057 0.1315
loop_
_geom_bond_atom_site_label_1
_geom_bond_atom_site_label_2
_geom_bond_site_symmetry_1
_geom_bond_site_symmetry_2
N1 C3 1_555 1_555
N2 C22 1_555 1_555
C1 C2 1_555 1_555
C2 C4 1_555 1_555
C3 C1 1_555 1_555
C4 C5 1_555 1_555
C5 H1 1_555 1_555
C6 C5 1_555 1_555
H2 C6 1_555 1_555
C7 C6 1_555 1_555
H3 C7 1_555 1_555
C8 C7 1_555 1_555
H4 C8 1_555 1_555
C9 C4 1_555 1_555
H5 C9 1_555 1_555
C10 C2 1_555 1_555
C11 C10 1_555 1_555
H6 C11 1_555 1_555
C12 C11 1_555 1_555
H7 C12 1_555 1_555
C13 C12 1_555 1_555
H8 C13 1_555 1_555
C14 C13 1_555 1_555
H9 C14 1_555 1_555
C15 C10 1_555 1_555
H10 C15 1_555 1_555
C16 C1 1_555 1_555
C17 C16 1_555 1_555
H11 C17 1_555 1_555
C18 C17 1_555 1_555
H12 C18 1_555 1_555
C19 C18 1_555 1_555
C20 C19 1_555 1_555
H13 C20 1_555 1_555
C21 C16 1_555 1_555
H14 C21 1_555 1_555
C22 C23 1_555 1_555
C23 H15 1_555 1_555
C24 C23 1_555 1_555
H16 C24 1_555 1_555
C25 C19 1_555 1_555
C26 C25 1_555 1_555
H17 C26 1_555 1_555
C27 C22 1_555 1_555
H18 C27 1_555 1_555
C28 N2 1_555 1_555
C29 C28 1_555 1_555
H19 C29 1_555 1_555
C30 C29 1_555 1_555
H20 C30 1_555 1_555
C31 C30 1_555 1_555
H21 C31 1_555 1_555
C32 C31 1_555 1_555
H22 C32 1_555 1_555
C33 C28 1_555 1_555
H23 C33 1_555 1_555
C34 N2 1_555 1_555
C35 C34 1_555 1_555
H24 C35 1_555 1_555
C36 C35 1_555 1_555
H25 C36 1_555 1_555
C37 C36 1_555 1_555
H26 C37 1_555 1_555
C38 C37 1_555 1_555
H27 C38 1_555 1_555
C39 C34 1_555 1_555
H28 C39 1_555 1_555
C8 C9 1_555 1_555
C14 C15 1_555 1_555
C20 C21 1_555 1_555
C24 C25 1_555 1_555
C26 C27 1_555 1_555
C32 C33 1_555 1_555
C38 C39 1_555 1_555

#END
