
#######################################################################
#
#                 Cambridge Crystallographic Data Centre
#                                CCDC 
#
#######################################################################
#
# If this CIF has been generated from an entry in the Cambridge 
# Structural Database, then it will include bibliographic, chemical, 
# crystal, experimental, refinement or atomic coordinate data resulting 
# from the CCDC's data processing and validation procedures.
#
#######################################################################

data_JAJHAG
_chemical_formula_moiety         'C14 H6 Cl2 N2 O1'
_chemical_name_systematic        4,4'-oxybis(2-chlorobenzonitrile)
_symmetry_cell_setting           monoclinic
_symmetry_space_group_name_H-M   'P 21/n'
_symmetry_Int_Tables_number      14
_space_group_name_Hall           '-P 2yn'
loop_
_symmetry_equiv_pos_site_id
_symmetry_equiv_pos_as_xyz
1 x,y,z
2 1/2-x,1/2+y,1/2-z
3 -x,-y,-z
4 1/2+x,1/2-y,1/2+z
_cell_length_a                   8.346(3)
_cell_length_b                   14.009(6)
_cell_length_c                   11.294(4)
_cell_angle_alpha                90
_cell_angle_beta                 90.604(6)
_cell_angle_gamma                90
_cell_volume                     1320.41
_cell_formula_units_Z            4
loop_
_atom_site_label
_atom_site_type_symbol
_atom_site_fract_x
_atom_site_fract_y
_atom_site_fract_z
C1 C 0.3180(2) 1.01036(14) 0.08534(16)
H1 H 0.2982 1.0711 0.1149
C2 C 0.2512(2) 0.98158(14) -0.02112(16)
C3 C 0.2788(2) 0.89031(14) -0.06511(16)
C4 C 0.3761(2) 0.82808(14) 0.00001(17)
H2 H 0.3954 0.7670 -0.0288
C5 C 0.4438(2) 0.85583(14) 0.10625(16)
H3 H 0.5078 0.8139 0.1496
C6 C 0.4148(2) 0.94716(13) 0.14720(15)
C7 C 0.5102(2) 0.92688(13) 0.34597(16)
C8 C 0.6487(2) 0.94168(14) 0.41154(17)
H4 H 0.7278 0.9828 0.3846
C9 C 0.6673(2) 0.89422(14) 0.51773(17)
C10 C 0.5494(2) 0.83178(14) 0.55781(16)
C11 C 0.4122(2) 0.81788(14) 0.48861(17)
H5 H 0.3335 0.7760 0.5144
C12 C 0.3913(2) 0.86493(14) 0.38306(17)
H6 H 0.2994 0.8555 0.3373
C13 C 0.2123(2) 0.86017(15) -0.17691(19)
C14 C 0.5657(3) 0.78364(16) 0.66946(19)
Cl1 Cl 0.13533(7) 1.06080(4) -0.10252(5)
Cl2 Cl 0.83795(7) 0.91264(5) 0.60215(5)
N1 N 0.1616(3) 0.83444(17) -0.26545(19)
N2 N 0.5758(3) 0.74505(17) 0.75806(18)
O1 O 0.49115(17) 0.98339(9) 0.24648(11)
loop_
_geom_bond_atom_site_label_1
_geom_bond_atom_site_label_2
_geom_bond_site_symmetry_1
_geom_bond_site_symmetry_2
C1 H1 1_555 1_555
C2 C1 1_555 1_555
C3 C2 1_555 1_555
C4 C3 1_555 1_555
H2 C4 1_555 1_555
C5 C4 1_555 1_555
H3 C5 1_555 1_555
C6 C1 1_555 1_555
C7 C8 1_555 1_555
C8 H4 1_555 1_555
C9 C8 1_555 1_555
C10 C9 1_555 1_555
C11 C10 1_555 1_555
H5 C11 1_555 1_555
C12 C7 1_555 1_555
H6 C12 1_555 1_555
C13 C3 1_555 1_555
C14 C10 1_555 1_555
Cl1 C2 1_555 1_555
Cl2 C9 1_555 1_555
N1 C13 1_555 1_555
N2 C14 1_555 1_555
O1 C6 1_555 1_555
C5 C6 1_555 1_555
C7 O1 1_555 1_555
C11 C12 1_555 1_555

#END
