
#######################################################################
#
#                 Cambridge Crystallographic Data Centre
#                                CCDC 
#
#######################################################################
#
# If this CIF has been generated from an entry in the Cambridge 
# Structural Database, then it will include bibliographic, chemical, 
# crystal, experimental, refinement or atomic coordinate data resulting 
# from the CCDC's data processing and validation procedures.
#
#######################################################################

data_JAJMUF
_chemical_formula_moiety         'C14 H8 N2 O8,2(C3 H7 N1 O1)'
_chemical_name_systematic        
"2,2'-dinitrobiphenyl-4,4'-dicarboxylic acid N,N-dimethylformamide solvate"
_symmetry_cell_setting           monoclinic
_symmetry_space_group_name_H-M   'P 21/c'
_symmetry_Int_Tables_number      14
_space_group_name_Hall           '-P 2ybc'
loop_
_symmetry_equiv_pos_site_id
_symmetry_equiv_pos_as_xyz
1 x,y,z
2 -x,1/2+y,1/2-z
3 -x,-y,-z
4 x,1/2-y,1/2+z
_cell_length_a                   9.336(4)
_cell_length_b                   19.687(8)
_cell_length_c                   25.449(10)
_cell_angle_alpha                90
_cell_angle_beta                 98.754(8)
_cell_angle_gamma                90
_cell_volume                     4622.98
_cell_formula_units_Z            8
loop_
_atom_site_label
_atom_site_type_symbol
_atom_site_fract_x
_atom_site_fract_y
_atom_site_fract_z
C1 C 0.3534(17) 0.0876(8) 0.6364(5)
C2 C 0.3986(13) 0.1018(6) 0.6923(5)
C3 C 0.3170(12) 0.1468(6) 0.7181(4)
H1 H 0.2371 0.1690 0.6994
C4 C 0.3584(12) 0.1579(5) 0.7731(4)
C5 C 0.4820(12) 0.1271(5) 0.8031(4)
C6 C 0.5587(13) 0.0843(6) 0.7760(5)
H2 H 0.6403 0.0628 0.7942
C7 C 0.5177(13) 0.0713(6) 0.7207(5)
H3 H 0.5729 0.0417 0.7036
C8 C 0.6477(13) 0.1300(7) 1.0310(4)
C9 C 0.6040(11) 0.1297(6) 0.9724(4)
C10 C 0.6488(11) 0.1823(6) 0.9429(4)
H4 H 0.7031 0.2178 0.9599
C11 C 0.6127(11) 0.1824(5) 0.8878(4)
C12 C 0.5248(10) 0.1324(5) 0.8611(4)
C13 C 0.4805(12) 0.0808(6) 0.8917(4)
H5 H 0.4229 0.0463 0.8748
C14 C 0.5184(11) 0.0783(6) 0.9468(4)
H6 H 0.4869 0.0427 0.9661
N1 N 0.2678(11) 0.2039(5) 0.7986(4)
N2 N 0.6688(11) 0.2383(5) 0.8596(4)
O1 O 0.2396(12) 0.1191(6) 0.6139(4)
H7 H 0.188(16) 0.096(7) 0.590(5)
O2 O 0.4265(12) 0.0509(6) 0.6119(4)
O3 O 0.7306(10) 0.1710(5) 1.0528(3)
O4 O 0.5937(10) 0.0787(5) 1.0542(3)
H8 H 0.6170 0.0817 1.0865
O5 O 0.1690(9) 0.2359(5) 0.7705(3)
O6 O 0.2889(10) 0.2087(5) 0.8469(4)
O7 O 0.6464(9) 0.2378(4) 0.8103(4)
O8 O 0.7391(10) 0.2843(5) 0.8849(4)
C15 C 0.0235(15) 0.3843(7) 0.3936(5)
C16 C 0.0710(12) 0.3843(6) 0.4512(4)
C17 C 0.0257(12) 0.3302(6) 0.4805(5)
H9 H -0.0330 0.2962 0.4634
C18 C 0.0695(12) 0.3279(6) 0.5352(4)
C19 C 0.1572(11) 0.3781(6) 0.5613(5)
C20 C 0.1994(12) 0.4319(6) 0.5310(5)
H10 H 0.2568 0.4664 0.5480
C21 C 0.1575(12) 0.4351(6) 0.4759(5)
H11 H 0.1875 0.4709 0.4564
C22 C 0.3146(15) 0.4004(7) 0.7911(6)
C23 C 0.2850(13) 0.3936(6) 0.7309(4)
C24 C 0.3577(11) 0.3483(6) 0.7044(4)
H12 H 0.4325 0.3223 0.7225
C25 C 0.3176(11) 0.3417(6) 0.6489(5)
C26 C 0.2071(12) 0.3804(6) 0.6206(4)
C27 C 0.1403(13) 0.4267(6) 0.6496(5)
H13 H 0.0666 0.4539 0.6321
C28 C 0.1810(13) 0.4338(6) 0.7047(5)
H14 H 0.1360 0.4662 0.7232
N3 N 0.0186(11) 0.2699(6) 0.5626(5)
N4 N 0.3963(12) 0.2918(6) 0.6220(5)
O9 O 0.0878(10) 0.4314(5) 0.3685(3)
H15 H 0.0602 0.4283 0.3364
O10 O -0.0642(10) 0.3434(5) 0.3708(3)
O11 O 0.2551(11) 0.4383(5) 0.8155(3)
O12 O 0.4148(11) 0.3570(6) 0.8121(3)
H16 H 0.404(17) 0.365(8) 0.844(2)
O13 O -0.0380(10) 0.2225(5) 0.5381(4)
O14 O 0.0306(10) 0.2727(5) 0.6120(4)
O15 O 0.3606(11) 0.2812(6) 0.5742(4)
O16 O 0.5006(11) 0.2630(5) 0.6477(4)
C29 C 0.1524(16) 0.1285(8) 0.4849(6)
H17 H 0.2175 0.1639 0.4942
C30 C -0.0213(17) 0.0741(8) 0.4184(6)
H18 H 0.0271 0.0369 0.4043
H19 H -0.0931 0.0925 0.3911
H20 H -0.0673 0.0585 0.4475
C31 C 0.1099(16) 0.1802(8) 0.4000(5)
H21 H 0.1782 0.2119 0.4182
H22 H 0.0208 0.2032 0.3872
H23 H 0.1487 0.1608 0.3706
N5 N 0.0823(11) 0.1258(5) 0.4370(4)
O17 O 0.1350(12) 0.0849(6) 0.5192(4)
C32 C 0.9294(13) 0.1201(7) 0.7483(5)
H24 H 0.8988 0.1512 0.7718
C33 C 0.9191(16) 0.0807(8) 0.6577(5)
H25 H 0.9822 0.0467 0.6756
H26 H 0.9690 0.1050 0.6332
H27 H 0.8344 0.0593 0.6386
C34 C 0.7739(13) 0.1796(7) 0.6754(5)
H28 H 0.7365 0.2004 0.7047
H29 H 0.6956 0.1598 0.6515
H30 H 0.8214 0.2133 0.6570
N6 N 0.8776(10) 0.1267(5) 0.6955(4)
O18 O 1.0152(9) 0.0750(4) 0.7667(3)
C35 C 0.7582(14) 0.3863(6) 0.6773(5)
H31 H 0.8018 0.3559 0.6566
C36 C 0.9112(14) 0.3382(8) 0.7533(6)
H32 H 0.9168 0.3005 0.7298
H33 H 0.8871 0.3219 0.7865
H34 H 1.0031 0.3610 0.7596
C37 C 0.7399(16) 0.4318(8) 0.7639(5)
H35 H 0.8092 0.4670 0.7749
H36 H 0.7190 0.4075 0.7945
H37 H 0.6524 0.4518 0.7456
N7 N 0.7982(9) 0.3860(5) 0.7289(4)
O19 O 0.6628(10) 0.4263(4) 0.6546(3)
C38 C 0.5365(16) 0.3928(8) 0.9363(6)
H38 H 0.5599 0.4301 0.9169
C39 C 0.5698(16) 0.3324(7) 1.0222(5)
H39 H 0.5068 0.3003 1.0018
H40 H 0.5262 0.3476 1.0520
H41 H 0.6611 0.3112 1.0348
C40 C 0.6908(19) 0.4431(9) 1.0151(7)
H42 H 0.7871 0.4251 1.0234
H43 H 0.6578 0.4577 1.0472
H44 H 0.6912 0.4812 0.9915
N8 N 0.5926(11) 0.3901(6) 0.9891(4)
O20 O 0.4612(11) 0.3514(6) 0.9141(4)
loop_
_geom_bond_atom_site_label_1
_geom_bond_atom_site_label_2
_geom_bond_site_symmetry_1
_geom_bond_site_symmetry_2
C1 C2 1_555 1_555
C2 C3 1_555 1_555
C3 H1 1_555 1_555
C4 C3 1_555 1_555
C5 C4 1_555 1_555
C6 C5 1_555 1_555
H2 C6 1_555 1_555
C7 C2 1_555 1_555
H3 C7 1_555 1_555
C8 C9 1_555 1_555
C9 C10 1_555 1_555
C10 H4 1_555 1_555
C11 C10 1_555 1_555
C12 C5 1_555 1_555
C13 C12 1_555 1_555
H5 C13 1_555 1_555
C14 C9 1_555 1_555
H6 C14 1_555 1_555
N1 C4 1_555 1_555
N2 C11 1_555 1_555
O1 C1 1_555 1_555
H7 O1 1_555 1_555
O2 C1 1_555 1_555
O3 C8 1_555 1_555
O4 C8 1_555 1_555
H8 O4 1_555 1_555
O5 N1 1_555 1_555
O6 N1 1_555 1_555
O7 N2 1_555 1_555
O8 N2 1_555 1_555
C15 C16 1_555 1_555
C16 C17 1_555 1_555
C17 H9 1_555 1_555
C18 C17 1_555 1_555
C19 C18 1_555 1_555
C20 C19 1_555 1_555
H10 C20 1_555 1_555
C21 C16 1_555 1_555
H11 C21 1_555 1_555
C22 C23 1_555 1_555
C23 C24 1_555 1_555
C24 H12 1_555 1_555
C25 C24 1_555 1_555
C26 C19 1_555 1_555
C27 C26 1_555 1_555
H13 C27 1_555 1_555
C28 C23 1_555 1_555
H14 C28 1_555 1_555
N3 C18 1_555 1_555
N4 C25 1_555 1_555
O9 C15 1_555 1_555
H15 O9 1_555 1_555
O10 C15 1_555 1_555
O11 C22 1_555 1_555
O12 C22 1_555 1_555
H16 O12 1_555 1_555
O13 N3 1_555 1_555
O14 N3 1_555 1_555
O15 N4 1_555 1_555
O16 N4 1_555 1_555
C29 H17 1_555 1_555
C30 H18 1_555 1_555
H19 C30 1_555 1_555
H20 C30 1_555 1_555
C31 H21 1_555 1_555
H22 C31 1_555 1_555
H23 C31 1_555 1_555
N5 C29 1_555 1_555
O17 C29 1_555 1_555
C32 H24 1_555 1_555
C33 H25 1_555 1_555
H26 C33 1_555 1_555
H27 C33 1_555 1_555
C34 H28 1_555 1_555
H29 C34 1_555 1_555
H30 C34 1_555 1_555
N6 C32 1_555 1_555
O18 C32 1_555 1_555
C35 H31 1_555 1_555
C36 H32 1_555 1_555
H33 C36 1_555 1_555
H34 C36 1_555 1_555
C37 H35 1_555 1_555
H36 C37 1_555 1_555
H37 C37 1_555 1_555
N7 C35 1_555 1_555
O19 C35 1_555 1_555
C38 H38 1_555 1_555
C39 H39 1_555 1_555
H40 C39 1_555 1_555
H41 C39 1_555 1_555
C40 H42 1_555 1_555
H43 C40 1_555 1_555
H44 C40 1_555 1_555
N8 C38 1_555 1_555
O20 C38 1_555 1_555
C6 C7 1_555 1_555
C11 C12 1_555 1_555
C13 C14 1_555 1_555
C20 C21 1_555 1_555
C25 C26 1_555 1_555
C27 C28 1_555 1_555
C30 N5 1_555 1_555
C31 N5 1_555 1_555
C33 N6 1_555 1_555
C34 N6 1_555 1_555
C36 N7 1_555 1_555
C37 N7 1_555 1_555
C39 N8 1_555 1_555
C40 N8 1_555 1_555

#END
