
#######################################################################
#
#                 Cambridge Crystallographic Data Centre
#                                CCDC 
#
#######################################################################
#
# If this CIF has been generated from an entry in the Cambridge 
# Structural Database, then it will include bibliographic, chemical, 
# crystal, experimental, refinement or atomic coordinate data resulting 
# from the CCDC's data processing and validation procedures.
#
#######################################################################

data_JAJSIW
_chemical_formula_moiety         'C38 H56 O8'
_chemical_name_systematic        
'3-(5-n-Butyl-5-methyl-4-(p-methoxyphenyl)-tetrahydrofuran-2-yl)propionic acid'
_symmetry_cell_setting           orthorhombic
_symmetry_space_group_name_H-M   'P c a 21'
_symmetry_Int_Tables_number      29
_space_group_name_Hall           'P 2c -2ac'
loop_
_symmetry_equiv_pos_site_id
_symmetry_equiv_pos_as_xyz
1 x,y,z
2 -x,-y,1/2+z
3 1/2-x,y,1/2+z
4 1/2+x,-y,z
_cell_length_a                   9.109(3)
_cell_length_b                   17.163(3)
_cell_length_c                   22.733(5)
_cell_angle_alpha                90
_cell_angle_beta                 90
_cell_angle_gamma                90
_cell_volume                     3554.03
_exptl_crystal_colour            colorless
_exptl_crystal_description       rod
_chemical_melting_point          104-106deg.C
_cell_formula_units_Z            4
_exptl_crystal_recrystallization_method 'diethyl ether/ethyl acetate'
loop_
_atom_site_label
_atom_site_type_symbol
_atom_site_fract_x
_atom_site_fract_y
_atom_site_fract_z
O1 O 0.2403(6) -0.0613(3) 0.0942(3)
O2 O 0.0095(7) 0.1569(4) -0.0211(3)
O3 O 0.1711(7) 0.2117(4) 0.0402(3)
O4 O -0.0764(6) -0.4776(4) 0.1557(3)
C1 C 0.2292(10) -0.1331(5) 0.1277(4)
C2 C 0.1773(8) -0.1925(5) 0.0812(4)
C3 C 0.0848(10) -0.1419(5) 0.0398(4)
C4 C 0.1720(10) -0.0684(6) 0.0369(5)
C5 C 0.0934(9) 0.0050(5) 0.0232(4)
C6 C 0.1887(9) 0.0762(5) 0.0246(4)
C7 C 0.1139(11) 0.1515(6) 0.0130(5)
C8 C 0.1115(10) -0.2680(5) 0.1026(4)
C9 C -0.0383(11) -0.2750(7) 0.1152(5)
C10 C -0.0965(9) -0.3448(6) 0.1327(5)
C11 C -0.0084(11) -0.4113(6) 0.1365(5)
C12 C 0.1398(10) -0.4061(5) 0.1268(4)
C13 C 0.1966(10) -0.3348(5) 0.1099(4)
C14 C 0.0135(10) -0.5454(5) 0.1641(5)
C15 C 0.3836(9) -0.1536(6) 0.1496(4)
C16 C 0.4523(11) -0.0967(7) 0.1924(4)
C17 C 0.6144(11) -0.1082(6) 0.2016(5)
C18 C 0.6550(11) -0.1879(6) 0.2251(5)
C19 C 0.1197(10) -0.1215(6) 0.1763(5)
O5 O -0.1918(6) 0.5620(4) -0.0949(3)
O6 O 0.0393(7) 0.3450(4) 0.0200(3)
O7 O -0.1238(6) 0.2906(4) -0.0418(3)
O8 O 0.1255(7) 0.9786(3) -0.1613(3)
C20 C -0.1812(9) 0.6355(5) -0.1275(4)
C21 C -0.1265(9) 0.6944(6) -0.0816(4)
C22 C -0.0332(10) 0.6447(5) -0.0413(4)
C23 C -0.1245(10) 0.5704(6) -0.0378(4)
C24 C -0.0377(9) 0.4971(5) -0.0242(4)
C25 C -0.1413(9) 0.4268(6) -0.0256(4)
C26 C -0.0697(11) 0.3506(6) -0.0138(4)
C27 C -0.0600(10) 0.7697(6) -0.1036(4)
C28 C 0.0872(10) 0.7762(5) -0.1178(4)
C29 C 0.1441(9) 0.8470(6) -0.1364(4)
C30 C 0.0585(10) 0.9108(6) -0.1422(4)
C31 C -0.0902(10) 0.9056(7) -0.1282(5)
C32 C -0.1434(10) 0.8346(6) -0.1090(4)
C33 C 0.0387(11) 1.0457(5) -0.1684(5)
C34 C -0.3332(10) 0.6548(6) -0.1509(5)
C35 C -0.3999(10) 0.5991(6) -0.1941(5)
C36 C -0.5657(11) 0.6105(7) -0.2017(5)
C37 C -0.6083(11) 0.6904(7) -0.2210(5)
C38 C -0.0703(10) 0.6206(5) -0.1772(4)
H1 H 0.0480(7) 0.2660(2) 0.0440(3)
H2 H 0.2669 -0.2072 0.0584
H3 H 0.0754 -0.1663 0.0005
H4 H -0.0144 -0.1325 0.0561
H5 H 0.2514 -0.0755 0.0070
H6 H 0.0127 0.0118 0.0519
H7 H 0.0488 0.0004 -0.0163
H8 H 0.2361 0.0793 0.0637
H9 H 0.2677 0.0696 -0.0049
H10 H -0.1003 -0.2308 0.1115
H11 H -0.1978 -0.3481 0.1424
H12 H 0.2016 -0.4502 0.1315
H13 H 0.2992 -0.3311 0.1029
H14 H -0.0481 -0.5892 0.1766
H15 H 0.0874 -0.5347 0.1944
H16 H 0.0627 -0.5586 0.1271
H17 H 0.3795 -0.2054 0.1687
H18 H 0.4491 -0.1582 0.1150
H19 H 0.4355 -0.0431 0.1778
H20 H 0.4019 -0.1015 0.2308
H21 H 0.6501 -0.0681 0.2295
H22 H 0.6656 -0.0999 0.1637
H23 H 0.7620 -0.1920 0.2282
H24 H 0.6183 -0.2281 0.1983
H25 H 0.6110 -0.1951 0.2641
H26 H 0.0246 -0.1067 0.1595
H27 H 0.1541 -0.0802 0.2027
H28 H 0.1088 -0.1701 0.1986
loop_
_geom_bond_atom_site_label_1
_geom_bond_atom_site_label_2
_geom_bond_site_symmetry_1
_geom_bond_site_symmetry_2
O1 C1 1_555 1_555
O2 C7 1_555 1_555
O3 C7 1_555 1_555
O4 C11 1_555 1_555
C1 C2 1_555 1_555
C2 C3 1_555 1_555
C3 C4 1_555 1_555
C4 O1 1_555 1_555
C5 C4 1_555 1_555
C6 C5 1_555 1_555
C7 C6 1_555 1_555
C8 C2 1_555 1_555
C9 C8 1_555 1_555
C10 C9 1_555 1_555
C11 C10 1_555 1_555
C12 C11 1_555 1_555
C13 C8 1_555 1_555
C14 O4 1_555 1_555
C15 C1 1_555 1_555
C16 C15 1_555 1_555
C17 C16 1_555 1_555
C18 C17 1_555 1_555
C19 C1 1_555 1_555
O5 C20 1_555 1_555
O6 C26 1_555 1_555
O7 C26 1_555 1_555
O8 C30 1_555 1_555
C20 C21 1_555 1_555
C21 C22 1_555 1_555
C22 C23 1_555 1_555
C23 O5 1_555 1_555
C24 C23 1_555 1_555
C25 C24 1_555 1_555
C26 C25 1_555 1_555
C27 C21 1_555 1_555
C28 C27 1_555 1_555
C29 C28 1_555 1_555
C30 C29 1_555 1_555
C31 C30 1_555 1_555
C32 C27 1_555 1_555
C33 O8 1_555 1_555
C34 C20 1_555 1_555
C35 C34 1_555 1_555
C36 C35 1_555 1_555
C37 C36 1_555 1_555
C38 C20 1_555 1_555
H1 O3 1_555 1_555
H2 C2 1_555 1_555
H3 C3 1_555 1_555
H4 C3 1_555 1_555
H5 C4 1_555 1_555
H6 C5 1_555 1_555
H7 C5 1_555 1_555
H8 C6 1_555 1_555
H9 C6 1_555 1_555
H10 C9 1_555 1_555
H11 C10 1_555 1_555
H12 C12 1_555 1_555
H13 C13 1_555 1_555
H14 C14 1_555 1_555
H15 C14 1_555 1_555
H16 C14 1_555 1_555
H17 C15 1_555 1_555
H18 C15 1_555 1_555
H19 C16 1_555 1_555
H20 C16 1_555 1_555
H21 C17 1_555 1_555
H22 C17 1_555 1_555
H23 C18 1_555 1_555
H24 C18 1_555 1_555
H25 C18 1_555 1_555
H26 C19 1_555 1_555
H27 C19 1_555 1_555
H28 C19 1_555 1_555
C12 C13 1_555 1_555
O6 H1 1_555 1_555
C31 C32 1_555 1_555

#END
