
#######################################################################
#
#                 Cambridge Crystallographic Data Centre
#                                CCDC 
#
#######################################################################
#
# If this CIF has been generated from an entry in the Cambridge 
# Structural Database, then it will include bibliographic, chemical, 
# crystal, experimental, refinement or atomic coordinate data resulting 
# from the CCDC's data processing and validation procedures.
#
#######################################################################

data_JAJZID
_chemical_formula_moiety         'C30 H22 I2'
_chemical_name_systematic        
11,12-bis(4-Iodophenyl)-1,10-dimethyldibenzo(a,e)cyclo-octene
_symmetry_cell_setting           monoclinic
_symmetry_space_group_name_H-M   'P 21/c'
_symmetry_Int_Tables_number      14
_space_group_name_Hall           '-P 2ybc'
loop_
_symmetry_equiv_pos_site_id
_symmetry_equiv_pos_as_xyz
1 x,y,z
2 -x,1/2+y,1/2-z
3 -x,-y,-z
4 x,1/2-y,1/2+z
_cell_length_a                   11.265(2)
_cell_length_b                   12.807(2)
_cell_length_c                   17.197(2)
_cell_angle_alpha                90
_cell_angle_beta                 93.95(3)
_cell_angle_gamma                90
_cell_volume                     2475.13
_exptl_crystal_colour            colorless
_cell_formula_units_Z            4
loop_
_atom_site_label
_atom_site_type_symbol
_atom_site_fract_x
_atom_site_fract_y
_atom_site_fract_z
I1 I 1.01155(4) -0.26286(3) 0.54473(2)
I2 I 0.61253(3) 0.08677(4) 0.13928(3)
C1 C 1.2263(4) 0.0451(4) 0.2998(3)
C2 C 1.3454(4) 0.0914(4) 0.3243(3)
C3 C 1.3554(5) 0.1993(4) 0.3328(3)
C4 C 1.2573(5) 0.2748(4) 0.3121(3)
H1 H 1.2298(5) 0.3131(4) 0.3531(3)
C5 C 1.2050(5) 0.2935(4) 0.2423(3)
H2 H 1.1463(5) 0.3446(4) 0.2378(3)
C6 C 1.2347(4) 0.2379(4) 0.1717(3)
C7 C 1.2347(4) 0.1279(4) 0.1693(3)
C8 C 1.1706(4) 0.0703(4) 0.2300(3)
C9 C 1.4420(5) 0.0264(4) 0.3458(3)
C10 C 1.5465(5) 0.0723(5) 0.3765(4)
H3 H 1.6114(5) 0.0299(5) 0.3907(4)
C11 C 1.5570(5) 0.1780(5) 0.3865(4)
H4 H 1.6276(5) 0.2068(5) 0.4080(4)
C12 C 1.4618(5) 0.2411(5) 0.3643(3)
H5 H 1.4689(5) 0.3130(5) 0.3704(3)
C13 C 1.2752(5) 0.2918(4) 0.1088(3)
H6 H 1.2715(5) 0.3643(4) 0.1081(3)
C14 C 1.3204(5) 0.2403(5) 0.0480(3)
H7 H 1.3467(5) 0.2781(5) 0.0063(3)
C15 C 1.3275(5) 0.1346(5) 0.0478(3)
H8 H 1.3615(5) 0.1010(5) 0.0068(3)
C16 C 1.2846(4) 0.0751(4) 0.1080(3)
C17 C 1.4368(6) -0.0908(5) 0.3339(4)
H9 H 1.3736(25) -0.1075(5) 0.2956(19)
H10 H 1.4224(38) -0.1244(5) 0.3823(7)
H11 H 1.5111(15) -0.1148(7) 0.3163(24)
C18 C 1.2948(5) -0.0413(4) 0.1082(3)
H12 H 1.3351(25) -0.0633(5) 0.0636(11)
H13 H 1.2167(5) -0.0716(4) 0.1060(19)
H14 H 1.3390(25) -0.0636(5) 0.1549(10)
C19 C 1.1714(4) -0.0244(4) 0.3571(3)
C20 C 1.1818(5) -0.0017(4) 0.4369(3)
H15 H 1.2210(5) 0.0586(4) 0.4543(3)
C21 C 1.1344(5) -0.0680(4) 0.4898(3)
H16 H 1.1392(5) -0.0511(4) 0.5426(3)
C22 C 1.0806(5) -0.1581(4) 0.4646(3)
C23 C 1.0684(5) -0.1840(4) 0.3869(3)
H17 H 1.0300(5) -0.2452(4) 0.3704(3)
C24 C 1.1147(5) -0.1169(4) 0.3339(3)
H18 H 1.1077(5) -0.1340(4) 0.2812(3)
C25 C 1.0395(4) 0.0589(4) 0.2111(3)
C26 C 0.9927(5) 0.0308(4) 0.1361(3)
H19 H 1.0442(5) 0.0100(4) 0.0990(3)
C27 C 0.8716(5) 0.0335(4) 0.1164(3)
H20 H 0.8419(5) 0.0121(4) 0.0671(3)
C28 C 0.7948(4) 0.0684(4) 0.1705(3)
C29 C 0.8385(5) 0.0956(4) 0.2445(3)
H21 H 0.7870(5) 0.1175(4) 0.2813(3)
C30 C 0.9596(4) 0.0902(4) 0.2638(3)
H22 H 0.9881(4) 0.1083(4) 0.3140(3)
loop_
_geom_bond_atom_site_label_1
_geom_bond_atom_site_label_2
_geom_bond_site_symmetry_1
_geom_bond_site_symmetry_2
I1 C22 1_555 1_555
I2 C28 1_555 1_555
C1 C2 1_555 1_555
C2 C3 1_555 1_555
C3 C4 1_555 1_555
C4 H1 1_555 1_555
C5 C4 1_555 1_555
H2 C5 1_555 1_555
C6 C5 1_555 1_555
C7 C6 1_555 1_555
C8 C1 1_555 1_555
C9 C2 1_555 1_555
C10 C9 1_555 1_555
H3 C10 1_555 1_555
C11 C10 1_555 1_555
H4 C11 1_555 1_555
C12 C3 1_555 1_555
H5 C12 1_555 1_555
C13 C6 1_555 1_555
H6 C13 1_555 1_555
C14 C13 1_555 1_555
H7 C14 1_555 1_555
C15 C14 1_555 1_555
H8 C15 1_555 1_555
C16 C7 1_555 1_555
C17 C9 1_555 1_555
H9 C17 1_555 1_555
H10 C17 1_555 1_555
H11 C17 1_555 1_555
C18 C16 1_555 1_555
H12 C18 1_555 1_555
H13 C18 1_555 1_555
H14 C18 1_555 1_555
C19 C1 1_555 1_555
C20 C19 1_555 1_555
H15 C20 1_555 1_555
C21 C20 1_555 1_555
H16 C21 1_555 1_555
C22 C21 1_555 1_555
C23 C22 1_555 1_555
H17 C23 1_555 1_555
C24 C19 1_555 1_555
H18 C24 1_555 1_555
C25 C8 1_555 1_555
C26 C25 1_555 1_555
H19 C26 1_555 1_555
C27 C26 1_555 1_555
H20 C27 1_555 1_555
C28 C27 1_555 1_555
C29 C28 1_555 1_555
H21 C29 1_555 1_555
C30 C25 1_555 1_555
H22 C30 1_555 1_555
C7 C8 1_555 1_555
C11 C12 1_555 1_555
C15 C16 1_555 1_555
C23 C24 1_555 1_555
C29 C30 1_555 1_555

#END
