
#######################################################################
#
#                 Cambridge Crystallographic Data Centre
#                                CCDC 
#
#######################################################################
#
# If this CIF has been generated from an entry in the Cambridge 
# Structural Database, then it will include bibliographic, chemical, 
# crystal, experimental, refinement or atomic coordinate data resulting 
# from the CCDC's data processing and validation procedures.
#
#######################################################################

data_JAKCUW
_chemical_formula_moiety         'C24 H24 O2 S1 Se1'
_chemical_name_systematic        
'4-methylphenyl 1-phenyl-1-(phenylselanyl)pent-1-en-2-yl sulfone'
_symmetry_cell_setting           triclinic
_symmetry_space_group_name_H-M   'P -1'
_symmetry_Int_Tables_number      2
_space_group_name_Hall           '-P 1'
loop_
_symmetry_equiv_pos_site_id
_symmetry_equiv_pos_as_xyz
1 x,y,z
2 -x,-y,-z
_cell_length_a                   8.7143(17)
_cell_length_b                   10.963(2)
_cell_length_c                   12.352(3)
_cell_angle_alpha                91.21(3)
_cell_angle_beta                 95.23(3)
_cell_angle_gamma                108.64(3)
_cell_volume                     1111.91
_exptl_crystal_colour            colorless
_exptl_crystal_description       block
_cell_formula_units_Z            2
loop_
_atom_site_label
_atom_site_type_symbol
_atom_site_fract_x
_atom_site_fract_y
_atom_site_fract_z
Se1 Se 0.19455(8) 0.62561(5) 0.58481(4)
S1 S 0.54144(11) 0.75271(8) 0.89182(8)
C1 C 0.3872(4) 0.7206(3) 0.9805(3)
C2 C 0.3456(4) 0.8197(3) 1.0267(3)
H1 H 0.3974 0.9047 1.0108
O1 O 0.6422(3) 0.6757(3) 0.9233(3)
C3 C 0.3281(5) 0.9447(4) 0.7736(3)
H2 H 0.4307 0.9759 0.7493
O2 O 0.6177(3) 0.8885(2) 0.8898(3)
C4 C 0.3144(5) 0.7217(4) 0.7166(3)
C5 C 0.2437(4) 0.8152(4) 0.7634(3)
C6 C 0.3124(5) 0.5945(3) 1.0048(3)
H3 H 0.3430 0.5282 0.9750
C7 C 0.1453(5) 0.6643(4) 1.1201(3)
C8 C 0.4423(5) 0.6899(4) 0.7583(3)
C9 C 0.2250(5) 0.7909(3) 1.0972(3)
H4 H 0.1974 0.8573 1.1296
C10 C 0.2611(6) 1.0289(5) 0.8200(4)
H5 H 0.3179 1.1168 0.8262
C11 C 0.1916(6) 0.5681(4) 1.0740(4)
H6 H 0.1401 0.4831 1.0899
C12 C 0.1535(7) 0.7625(5) 0.5068(4)
C13 C 0.4387(7) 0.4575(5) 0.7254(4)
H7 H 0.4510 0.4456 0.8029
H8 H 0.3232 0.4310 0.7012
C14 C 0.5171(6) 0.5996(4) 0.7042(4)
H9 H 0.6320 0.6252 0.7299
H10 H 0.5084 0.6095 0.6262
C15 C 0.1088(6) 0.9821(6) 0.8574(4)
H11 H 0.0653 1.0384 0.8910
C16 C 0.0872(5) 0.7699(5) 0.7976(4)
H12 H 0.0266 0.6829 0.7881
C17 C 0.0237(6) 0.8555(6) 0.8453(4)
H13 H -0.0791 0.8253 0.8695
C18 C 0.0138(7) 0.6366(5) 1.1947(5)
H14 H -0.0004 0.7159 1.2183
H15 H 0.0436 0.5947 1.2568
H16 H -0.0862 0.5813 1.1568
C19 C 0.5177(9) 0.3743(6) 0.6651(5)
H17 H 0.4668 0.2854 0.6792
H18 H 0.6316 0.3996 0.6900
H19 H 0.5044 0.3854 0.5884
C20 C -0.0015(9) 0.7642(7) 0.4845(6)
H20 H -0.0866 0.7020 0.5122
C21 C 0.0928(17) 0.9452(11) 0.3826(7)
H21 H 0.0726 1.0081 0.3395
C22 C 0.2813(10) 0.8514(7) 0.4657(5)
H22 H 0.3870 0.8488 0.4786
C23 C -0.0344(13) 0.8574(10) 0.4208(8)
H23 H -0.1401 0.8591 0.4053
C24 C 0.2464(15) 0.9467(8) 0.4033(6)
H24 H 0.3303 1.0108 0.3764
loop_
_geom_bond_atom_site_label_1
_geom_bond_atom_site_label_2
_geom_bond_site_symmetry_1
_geom_bond_site_symmetry_2
Se1 C4 1_555 1_555
S1 C1 1_555 1_555
C1 C2 1_555 1_555
C2 H1 1_555 1_555
O1 S1 1_555 1_555
C3 H2 1_555 1_555
O2 S1 1_555 1_555
C4 C5 1_555 1_555
C5 C3 1_555 1_555
C6 C1 1_555 1_555
H3 C6 1_555 1_555
C7 C9 1_555 1_555
C8 S1 1_555 1_555
C9 C2 1_555 1_555
H4 C9 1_555 1_555
C10 C3 1_555 1_555
H5 C10 1_555 1_555
C11 C6 1_555 1_555
H6 C11 1_555 1_555
C12 Se1 1_555 1_555
C13 H7 1_555 1_555
H8 C13 1_555 1_555
C14 C8 1_555 1_555
H9 C14 1_555 1_555
H10 C14 1_555 1_555
C15 C10 1_555 1_555
H11 C15 1_555 1_555
C16 C5 1_555 1_555
H12 C16 1_555 1_555
C17 C15 1_555 1_555
H13 C17 1_555 1_555
C18 C7 1_555 1_555
H14 C18 1_555 1_555
H15 C18 1_555 1_555
H16 C18 1_555 1_555
C19 C13 1_555 1_555
H17 C19 1_555 1_555
H18 C19 1_555 1_555
H19 C19 1_555 1_555
C20 C12 1_555 1_555
H20 C20 1_555 1_555
C21 H21 1_555 1_555
C22 C12 1_555 1_555
H22 C22 1_555 1_555
C23 C20 1_555 1_555
H23 C23 1_555 1_555
C24 C21 1_555 1_555
H24 C24 1_555 1_555
C4 C8 1_555 1_555
C7 C11 1_555 1_555
C13 C14 1_555 1_555
C16 C17 1_555 1_555
C21 C23 1_555 1_555
C22 C24 1_555 1_555

#END
