
#######################################################################
#
#                 Cambridge Crystallographic Data Centre
#                                CCDC 
#
#######################################################################
#
# If this CIF has been generated from an entry in the Cambridge 
# Structural Database, then it will include bibliographic, chemical, 
# crystal, experimental, refinement or atomic coordinate data resulting 
# from the CCDC's data processing and validation procedures.
#
#######################################################################

data_JAKFOT
_chemical_formula_moiety         'C32 H38 N2 O2 S3'
_chemical_name_systematic        
2,7-dioctyl-3,6-disulfanylidene-2,3,6,7-tetrahydrobenzo[lmn]thieno[2,3-f][3,8]phenanthroline-1,8-dione
_symmetry_cell_setting           monoclinic
_symmetry_space_group_name_H-M   'P 21/c'
_symmetry_Int_Tables_number      14
_space_group_name_Hall           '-P 2ybc'
loop_
_symmetry_equiv_pos_site_id
_symmetry_equiv_pos_as_xyz
1 x,y,z
2 -x,1/2+y,1/2-z
3 -x,-y,-z
4 x,1/2-y,1/2+z
_cell_length_a                   20.4770(9)
_cell_length_b                   5.2589(2)
_cell_length_c                   28.0402(12)
_cell_angle_alpha                90
_cell_angle_beta                 101.0066(19)
_cell_angle_gamma                90
_cell_volume                     2964.01
_exptl_crystal_colour            red
_exptl_crystal_description       needle
_cell_formula_units_Z            4
loop_
_atom_site_label
_atom_site_type_symbol
_atom_site_fract_x
_atom_site_fract_y
_atom_site_fract_z
S1 S 1.12304(5) -0.8536(2) 0.93770(4)
S2 S 0.78172(7) -0.6345(3) 0.98810(5)
O1 O 1.07842(13) -0.1558(5) 0.82007(9)
N1 N 1.09739(15) -0.4569(6) 0.87952(10)
C1 C 0.98972(18) -0.2343(7) 0.86017(12)
C2 C 0.90109(19) -0.3457(7) 0.90420(13)
C3 C 1.00765(19) -0.5783(7) 0.92016(12)
C4 C 0.88261(18) -0.0054(6) 0.84388(11)
C5 C 0.96627(19) -0.3861(7) 0.89508(12)
C6 C 0.94896(19) -0.0512(6) 0.83487(11)
C7 C 0.9826(2) -0.7291(8) 0.95337(13)
H1 H 1.0092 -0.8622 0.9698
C8 C 0.9193(2) -0.6878(8) 0.96282(14)
H2 H 0.9041 -0.7908 0.9863
N2 N 0.77368(17) -0.2651(7) 0.92535(13)
C9 C 1.07519(19) -0.6231(7) 0.91104(12)
C10 C 0.86001(19) -0.1559(8) 0.87857(13)
C11 C 0.8776(2) -0.5014(8) 0.93909(13)
C12 C 0.7930(2) -0.1146(9) 0.88917(16)
C13 C 1.05662(19) -0.2766(8) 0.85114(13)
O2 O 0.75532(16) 0.0458(7) 0.86833(13)
C14 C 1.17471(19) -0.6363(7) 0.82917(14)
H3 H 1.1583 -0.8093 0.8344
H4 H 1.1472 -0.5675 0.7991
C15 C 0.8104(2) -0.4618(9) 0.94947(14)
C16 C 1.16670(18) -0.4685(8) 0.87169(14)
H5 H 1.1956 -0.5340 0.9015
H6 H 1.1818 -0.2944 0.8659
C17 C 1.2461(2) -0.6523(9) 0.82292(16)
H7 H 1.2740 -0.7090 0.8539
H8 H 1.2614 -0.4807 0.8155
C18 C 0.8949(2) 0.2929(8) 0.78392(13)
H9 H 0.8829 0.4283 0.7615
C19 C 0.7068(2) -0.2030(10) 0.93612(19)
H10 H 0.6980 -0.0195 0.9301
H11 H 0.7073 -0.2359 0.9709
C20 C 1.2561(2) -0.8346(9) 0.78250(17)
H12 H 1.2356 -1.0002 0.7878
H13 H 1.2322 -0.7664 0.7511
C21 C 1.3366(2) -1.0774(11) 0.74059(19)
H14 H 1.3144 -1.2369 0.7474
H15 H 1.3138 -1.0155 0.7083
C22 C 0.6517(2) -0.3530(11) 0.9062(2)
H16 H 0.6592 -0.5367 0.9128
H17 H 0.6511 -0.3230 0.8713
C23 C 1.3278(2) -0.8787(11) 0.7791(2)
H18 H 1.3525 -0.9356 0.8112
H19 H 1.3475 -0.7158 0.7712
C24 C 1.4076(3) -1.1354(14) 0.7384(2)
H20 H 1.4312 -1.1921 0.7708
H21 H 1.4296 -0.9785 0.7299
C25 C 1.4133(4) -1.3422(13) 0.7009(3)
H22 H 1.4021 -1.5076 0.7133
H23 H 1.4590 -1.3469 0.6950
H24 H 1.3825 -1.3044 0.6704
C26 C 0.5267(4) -0.4032(19) 0.8941(4)
H25 H 0.5296 -0.5800 0.9065
H26 H 0.5300 -0.4123 0.8594
C27 C 0.5845(3) -0.2731(15) 0.9187(3)
H27 H 0.5874 -0.2962 0.9541
H28 H 0.5783 -0.0891 0.9118
C28 C 0.4422(6) -0.331(3) 0.9434(5)
H29 H 0.4674 -0.1968 0.9638
H30 H 0.4604 -0.4962 0.9568
C29 C 0.4575(5) -0.309(3) 0.8960(5)
H31 H 0.4538 -0.1279 0.8859
H32 H 0.4246 -0.4070 0.8727
C30 C 0.3363(6) -0.080(2) 0.9345(5)
H33 H 0.3336 -0.0649 0.8993
H34 H 0.3631 0.0603 0.9510
H35 H 0.2915 -0.0723 0.9419
C31 C 0.3665(5) -0.316(2) 0.9509(6)
H36 H 0.3406 -0.4563 0.9329
H37 H 0.3654 -0.3373 0.9858
C32 C 0.8516(4) 0.2026(8) 0.81252(13)
H38 H 0.8081 0.2663 0.8119
S3 S 0.9706(3) 0.1485(3) 0.79099(9)
C33? C 0.9548(4) 0.1482(10) 0.7956(2)
H39? H 0.9929 0.1715 0.7813
S4? S 0.8311(3) 0.2272(11) 0.81312(19)
loop_
_geom_bond_atom_site_label_1
_geom_bond_atom_site_label_2
_geom_bond_site_symmetry_1
_geom_bond_site_symmetry_2
S1 C9 1_555 1_555
S2 C15 1_555 1_555
O1 C13 1_555 1_555
N1 C9 1_555 1_555
C1 C5 1_555 1_555
C2 C5 1_555 1_555
C3 C5 1_555 1_555
C4 C6 1_555 1_555
C6 C1 1_555 1_555
C7 C3 1_555 1_555
H1 C7 1_555 1_555
C8 C7 1_555 1_555
H2 C8 1_555 1_555
N2 C12 1_555 1_555
C9 C3 1_555 1_555
C10 C2 1_555 1_555
C11 C2 1_555 1_555
C12 C10 1_555 1_555
C13 N1 1_555 1_555
O2 C12 1_555 1_555
C14 H3 1_555 1_555
H4 C14 1_555 1_555
C15 N2 1_555 1_555
C16 N1 1_555 1_555
H5 C16 1_555 1_555
H6 C16 1_555 1_555
C17 C14 1_555 1_555
H7 C17 1_555 1_555
H8 C17 1_555 1_555
C18 H9 1_555 1_555
C19 N2 1_555 1_555
H10 C19 1_555 1_555
H11 C19 1_555 1_555
C20 C17 1_555 1_555
H12 C20 1_555 1_555
H13 C20 1_555 1_555
C21 H14 1_555 1_555
H15 C21 1_555 1_555
C22 C19 1_555 1_555
H16 C22 1_555 1_555
H17 C22 1_555 1_555
C23 C20 1_555 1_555
H18 C23 1_555 1_555
H19 C23 1_555 1_555
C24 C21 1_555 1_555
H20 C24 1_555 1_555
H21 C24 1_555 1_555
C25 C24 1_555 1_555
H22 C25 1_555 1_555
H23 C25 1_555 1_555
H24 C25 1_555 1_555
C26 H25 1_555 1_555
H26 C26 1_555 1_555
C27 C22 1_555 1_555
H27 C27 1_555 1_555
H28 C27 1_555 1_555
C28 H29 1_555 1_555
H30 C28 1_555 1_555
C29 C26 1_555 1_555
H31 C29 1_555 1_555
H32 C29 1_555 1_555
C30 H33 1_555 1_555
H34 C30 1_555 1_555
H35 C30 1_555 1_555
C31 C28 1_555 1_555
H36 C31 1_555 1_555
H37 C31 1_555 1_555
C32 C4 1_555 1_555
H38 C32 1_555 1_555
S3 C6 1_555 1_555
C1 C13 1_555 1_555
C4 C10 1_555 1_555
C8 C11 1_555 1_555
C11 C15 1_555 1_555
C14 C16 1_555 1_555
C18 C32 1_555 1_555
C18 S3 1_555 1_555
C21 C23 1_555 1_555
C26 C27 1_555 1_555
C28 C29 1_555 1_555
C30 C31 1_555 1_555

#END
