
#######################################################################
#
#                 Cambridge Crystallographic Data Centre
#                                CCDC 
#
#######################################################################
#
# If this CIF has been generated from an entry in the Cambridge 
# Structural Database, then it will include bibliographic, chemical, 
# crystal, experimental, refinement or atomic coordinate data resulting 
# from the CCDC's data processing and validation procedures.
#
#######################################################################

data_JAKGEH01
_chemical_name_common            Pentoxifylline
_chemical_formula_moiety         'C13 H18 N4 O3'
_chemical_name_systematic        
3,7-Dimethyl-1-(5-oxohexyl)-1H,3H-purine-2,6-dione
_chemical_properties_biological  
'drug used to treat the symptoms of intermittent claudication resulting from peripheral artery disease'
_symmetry_cell_setting           monoclinic
_symmetry_space_group_name_H-M   'P 21/c'
_symmetry_Int_Tables_number      14
_space_group_name_Hall           '-P 2ybc'
loop_
_symmetry_equiv_pos_site_id
_symmetry_equiv_pos_as_xyz
1 x,y,z
2 -x,1/2+y,1/2-z
3 -x,-y,-z
4 x,1/2-y,1/2+z
_cell_length_a                   9.743(6)
_cell_length_b                   17.410(8)
_cell_length_c                   7.956(3)
_cell_angle_alpha                90
_cell_angle_beta                 90.89(2)
_cell_angle_gamma                90
_cell_volume                     1349.38
_exptl_crystal_colour            colorless
_exptl_crystal_description       plate
_chemical_melting_point          '365 K'
_cell_formula_units_Z            4
loop_
_atom_site_label
_atom_site_type_symbol
_atom_site_fract_x
_atom_site_fract_y
_atom_site_fract_z
O1 O -0.79244(18) 0.03718(9) -0.4841(2)
O2 O -0.54702(19) -0.15692(9) -0.2345(2)
N1 N -0.6688(2) -0.05902(10) -0.3550(2)
O3 O -1.1444(2) -0.31616(11) -0.4130(3)
N2 N -0.5641(2) 0.14522(11) -0.3470(2)
N3 N -0.4583(2) -0.03670(11) -0.2089(2)
C1 C -0.5831(2) 0.06649(13) -0.3380(3)
N4 N -0.3878(2) 0.09676(12) -0.1963(3)
C2 C -0.4742(2) 0.04006(13) -0.2463(3)
C3 C -0.7740(3) -0.11505(13) -0.4085(3)
H1 H -0.7303 -0.1639 -0.4317
H2 H -0.8180 -0.0973 -0.5116
C4 C -0.5568(3) -0.08839(14) -0.2631(3)
C5 C -0.9288(3) -0.26965(13) -0.3170(3)
H3 H -0.8532 -0.2731 -0.3946
H4 H -0.8920 -0.2790 -0.2049
C6 C -1.0310(3) -0.33177(14) -0.3593(3)
C7 C -0.9861(2) -0.18878(13) -0.3236(3)
H5 H -1.0633 -0.1856 -0.2484
H6 H -1.0203 -0.1787 -0.4366
C8 C -0.9876(3) -0.41325(14) -0.3319(3)
H7 H -1.0331 -0.4457 -0.4128
H8 H -1.0117 -0.4290 -0.2206
H9 H -0.8900 -0.4173 -0.3446
C9 C -0.3361(3) -0.06489(15) -0.1159(3)
H10 H -0.2675 -0.0805 -0.1942
H11 H -0.3612 -0.1079 -0.0474
H12 H -0.3002 -0.0246 -0.0456
C10 C -0.6905(3) 0.01842(13) -0.4012(3)
C11 C -0.8821(3) -0.12644(14) -0.2754(3)
H13 H -0.9303 -0.0784 -0.2583
H14 H -0.8373 -0.1403 -0.1700
C12 C -0.6522(3) 0.20142(14) -0.4321(3)
H15 H -0.6097 0.2511 -0.4268
H16 H -0.7394 0.2034 -0.3778
H17 H -0.6653 0.1867 -0.5475
C13 C -0.4478(3) 0.15899(15) -0.2608(3)
H18 H -0.4118 0.2081 -0.2469
loop_
_geom_bond_atom_site_label_1
_geom_bond_atom_site_label_2
_geom_bond_site_symmetry_1
_geom_bond_site_symmetry_2
O1 C10 1_555 1_555
O2 C4 1_555 1_555
N1 C3 1_555 1_555
O3 C6 1_555 1_555
N2 C1 1_555 1_555
N3 C2 1_555 1_555
C1 C2 1_555 1_555
N4 C2 1_555 1_555
C3 H1 1_555 1_555
H2 C3 1_555 1_555
C4 N1 1_555 1_555
C5 H3 1_555 1_555
H4 C5 1_555 1_555
C6 C5 1_555 1_555
C7 C5 1_555 1_555
H5 C7 1_555 1_555
H6 C7 1_555 1_555
C8 C6 1_555 1_555
H7 C8 1_555 1_555
H8 C8 1_555 1_555
H9 C8 1_555 1_555
C9 N3 1_555 1_555
H10 C9 1_555 1_555
H11 C9 1_555 1_555
H12 C9 1_555 1_555
C10 N1 1_555 1_555
C11 C3 1_555 1_555
H13 C11 1_555 1_555
H14 C11 1_555 1_555
C12 N2 1_555 1_555
H15 C12 1_555 1_555
H16 C12 1_555 1_555
H17 C12 1_555 1_555
C13 N2 1_555 1_555
H18 C13 1_555 1_555
N3 C4 1_555 1_555
C1 C10 1_555 1_555
N4 C13 1_555 1_555
C7 C11 1_555 1_555

#END
