
#######################################################################
#
#                 Cambridge Crystallographic Data Centre
#                                CCDC 
#
#######################################################################
#
# If this CIF has been generated from an entry in the Cambridge 
# Structural Database, then it will include bibliographic, chemical, 
# crystal, experimental, refinement or atomic coordinate data resulting 
# from the CCDC's data processing and validation procedures.
#
#######################################################################

data_JAKKEO
_chemical_formula_moiety         '8(C6 H8 N2),3(Cl1 O4 1-),6(H2 O1),3(Li1 1+)'
_chemical_name_systematic        
'tri-lithium triperchlorate octakis(o-phenylenediamine) hexahydrate'
_symmetry_cell_setting           triclinic
_symmetry_space_group_name_H-M   'P -1'
_symmetry_Int_Tables_number      2
_space_group_name_Hall           '-P 1'
loop_
_symmetry_equiv_pos_site_id
_symmetry_equiv_pos_as_xyz
1 x,y,z
2 -x,-y,-z
_cell_length_a                   10.5838(18)
_cell_length_b                   14.560(3)
_cell_length_c                   20.914(4)
_cell_angle_alpha                100.411(4)
_cell_angle_beta                 90.2790(19)
_cell_angle_gamma                100.262(3)
_cell_volume                     3116.8
_exptl_crystal_colour            colorless
_exptl_crystal_description       prism
_cell_formula_units_Z            2
loop_
_atom_site_label
_atom_site_type_symbol
_atom_site_fract_x
_atom_site_fract_y
_atom_site_fract_z
O1 O 0.33419(15) 0.48599(12) 0.55415(8)
H1 H 0.306(4) 0.435(3) 0.5842(18)
H2 H 0.317(3) 0.538(2) 0.5787(15)
O2 O 0.42829(15) 0.35285(11) 0.46699(9)
H3 H 0.428(3) 0.3245(18) 0.4994(12)
H4 H 0.445(3) 0.322(2) 0.4313(16)
O3 O 0.37683(16) 0.51512(12) 0.42276(8)
H5 H 0.396(3) 0.488(2) 0.3841(14)
H6 H 0.328(3) 0.565(2) 0.4121(14)
Li1 Li 0.2640(4) 0.4111(3) 0.46239(19)
Li2 Li 0.500 0.500 0.500
N1 N 0.1261(2) 0.27232(15) 0.45496(9)
N2 N 0.1509(2) 0.36098(15) 0.35067(12)
C1 C 0.1408(2) 0.21622(15) 0.39292(10)
C2 C 0.1510(2) 0.26280(15) 0.33920(10)
C3 C 0.1696(2) 0.21181(17) 0.27814(10)
C4 C 0.1813(2) 0.11689(17) 0.26971(11)
C5 C 0.1743(2) 0.07155(16) 0.32301(11)
C6 C 0.1533(2) 0.12189(16) 0.38378(11)
H7 H 0.048(3) 0.2878(17) 0.4583(11)
H8 H 0.132(2) 0.2408(16) 0.4850(11)
H9 H 0.169(3) 0.385(2) 0.3173(15)
H10 H 0.084(3) 0.382(2) 0.3715(15)
H11 H 0.17451 0.24242 0.24154
H12 H 0.19407 0.08306 0.22766
H13 H 0.18367 0.00697 0.31789
H14 H 0.14751 0.09068 0.4201
O4 O 0.13200(16) 0.51179(12) -0.07716(8)
H15 H 0.098(3) 0.485(2) -0.1197(14)
H16 H 0.204(4) 0.567(2) -0.0839(15)
O5 O -0.00082(15) 0.35146(11) -0.02978(9)
H17 H -0.042(4) 0.320(3) -0.0678(18)
H18 H -0.022(2) 0.3221(18) 0.0010(12)
O6 O 0.15913(16) 0.48784(12) 0.05529(7)
H19 H 0.199(4) 0.539(3) 0.0770(16)
H20 H 0.166(3) 0.436(2) 0.0832(15)
Li3 Li 0.1931(4) 0.4117(3) -0.0345(2)
Li4 Li 0.000 0.500 0.000
N3 N 0.2642(2) 0.27478(15) -0.04534(9)
N4 N 0.2817(2) 0.35592(16) -0.15318(13)
C7 C 0.2183(2) 0.21607(15) -0.10664(10)
C8 C 0.2297(2) 0.25896(15) -0.16169(10)
C9 C 0.1822(2) 0.20449(18) -0.22146(11)
C10 C 0.1221(2) 0.11100(17) -0.22692(11)
C11 C 0.1088(2) 0.06922(16) -0.17206(11)
C12 C 0.1578(2) 0.12245(16) -0.11268(11)
H21 H 0.248(2) 0.2429(16) -0.0152(11)
H22 H 0.347(3) 0.291(2) -0.0438(13)
H23 H 0.276(3) 0.379(2) -0.1862(14)
H24 H 0.353(3) 0.379(2) -0.1285(14)
H25 H 0.19128 0.23228 -0.25932
H26 H 0.08986 0.07526 -0.26816
H27 H 0.06666 0.00514 -0.17526
H28 H 0.14965 0.09392 -0.07513
Cl1 Cl -0.00625(5) 0.49937(3) 0.24574(2)
O7 O -0.03584(16) 0.57343(11) 0.21373(8)
O8 O -0.05309(15) 0.51139(11) 0.31049(7)
O9 O -0.06538(16) 0.40799(10) 0.20909(7)
O10 O 0.13170(14) 0.50550(11) 0.24916(7)
Cl2 Cl 0.49347(5) 0.49843(3) 0.25230(2)
O11 O 0.43763(15) 0.48514(11) 0.18788(7)
O12 O 0.48194(16) 0.59081(10) 0.28791(7)
O13 O 0.42749(17) 0.42598(11) 0.28566(8)
O14 O 0.62775(14) 0.49122(11) 0.24834(7)
N5 N -0.04239(19) 0.24331(15) 0.07892(10)
N6 N 0.1856(2) 0.35647(14) 0.13609(10)
C13 C 0.0664(2) 0.20173(15) 0.08619(9)
C14 C 0.1828(2) 0.25874(14) 0.11212(9)
C15 C 0.2929(2) 0.21899(16) 0.11262(10)
C16 C 0.2899(2) 0.12334(16) 0.08857(10)
C17 C 0.1742(2) 0.06631(16) 0.06518(10)
C18 C 0.0639(2) 0.10512(15) 0.06394(10)
H29 H -0.053(3) 0.2892(19) 0.1135(12)
H30 H -0.110(3) 0.203(2) 0.0742(12)
H31 H 0.263(3) 0.382(2) 0.1509(14)
H32 H 0.128(3) 0.3635(19) 0.1641(13)
H33 H 0.37166 0.25811 0.12978
H34 H 0.36619 0.09739 0.08816
H35 H 0.17026 0.00029 0.0499
H36 H -0.01491 0.06515 0.04763
N7 N 0.7196(2) 0.36171(13) -0.16286(10)
N8 N 0.90363(19) 0.24701(15) -0.15367(9)
C19 C 0.6803(2) 0.26269(14) -0.16975(9)
C20 C 0.7719(2) 0.20493(14) -0.16454(9)
C21 C 0.7306(2) 0.10823(16) -0.16675(10)
C22 C 0.6016(2) 0.06755(16) -0.17465(10)
C23 C 0.5115(2) 0.12382(16) -0.18110(10)
C24 C 0.5514(2) 0.22044(16) -0.17885(9)
H37 H 0.656(3) 0.3920(19) -0.1698(12)
H38 H 0.785(3) 0.3799(19) -0.1841(12)
H39 H 0.928(2) 0.2893(17) -0.1789(11)
H40 H 0.955(3) 0.204(2) -0.1638(13)
H41 H 0.79217 0.06924 -0.16275
H42 H 0.57507 0.00143 -0.17563
H43 H 0.4229 0.09642 -0.18704
H44 H 0.48919 0.25862 -0.18363
N9 N 0.5914(2) 0.24900(18) -0.01234(10)
N10 N 0.6555(2) 0.35753(14) 0.11100(11)
C25 C 0.6246(2) 0.20477(15) 0.03746(9)
C26 C 0.64996(19) 0.25827(15) 0.10069(10)
C27 C 0.6760(2) 0.21285(17) 0.15122(10)
C28 C 0.6780(2) 0.11606(18) 0.13978(12)
C29 C 0.6540(2) 0.06435(16) 0.07794(13)
C30 C 0.6274(2) 0.10830(16) 0.02743(11)
H45 H 0.595(3) 0.2184(18) -0.0499(13)
H46 H 0.627(3) 0.303(2) -0.0122(13)
H47 H 0.597(3) 0.3750(19) 0.0925(13)
H48 H 0.654(3) 0.3824(18) 0.1500(13)
H49 H 0.69251 0.24856 0.19409
H50 H 0.69593 0.08592 0.17459
H51 H 0.65567 -0.00175 0.06981
H52 H 0.6107 0.07162 -0.01516
N11 N 0.7107(2) 0.36191(14) 0.33789(10)
N12 N 0.46979(19) 0.24672(15) 0.34302(10)
C31 C 0.7021(2) 0.26294(15) 0.33100(9)
C32 C 0.5813(2) 0.20499(15) 0.33414(9)
C33 C 0.5748(2) 0.10844(16) 0.33149(10)
C34 C 0.6845(3) 0.06815(16) 0.32671(11)
C35 C 0.8028(2) 0.12490(17) 0.32310(10)
C36 C 0.8107(2) 0.22121(16) 0.32479(10)
H53 H 0.785(3) 0.3928(17) 0.3324(11)
H54 H 0.654(3) 0.3778(19) 0.3141(13)
H55 H 0.468(2) 0.2869(17) 0.3186(11)
H56 H 0.399(3) 0.2036(18) 0.3339(11)
H57 H 0.49348 0.06901 0.33299
H58 H 0.67836 0.00206 0.32591
H59 H 0.87839 0.09787 0.31946
H60 H 0.89222 0.25961 0.32166
N13 N 0.7824(2) 0.25693(17) 0.48955(10)
N14 N 0.7800(2) 0.36290(14) 0.61446(11)
C37 C 0.7277(2) 0.21209(15) 0.53898(10)
C38 C 0.7334(2) 0.26408(14) 0.60306(9)
C39 C 0.6850(2) 0.21835(16) 0.65260(10)
C40 C 0.6313(2) 0.12253(16) 0.64040(11)
C41 C 0.6250(2) 0.07167(16) 0.57750(11)
C42 C 0.6723(2) 0.11654(15) 0.52732(11)
H61 H 0.759(2) 0.2265(18) 0.4526(12)
H62 H 0.783(3) 0.315(2) 0.4905(12)
H63 H 0.790(3) 0.387(2) 0.6560(14)
H64 H 0.843(3) 0.3777(18) 0.5958(12)
H65 H 0.68871 0.25323 0.6958
H66 H 0.59905 0.09202 0.67501
H67 H 0.58816 0.00601 0.56875
H68 H 0.66672 0.08132 0.48416
N15 N 0.41791(19) 0.25251(15) 0.57767(10)
N16 N 0.2416(2) 0.35968(13) 0.63780(10)
C43 C 0.2900(2) 0.20796(15) 0.58502(9)
C44 C 0.2000(2) 0.26192(14) 0.61297(9)
C45 C 0.0721(2) 0.21877(16) 0.61332(10)
C46 C 0.0322(2) 0.12280(16) 0.58783(11)
C47 C 0.1220(2) 0.06903(16) 0.56240(11)
C48 C 0.2495(2) 0.11175(16) 0.56090(10)
H69 H 0.472(3) 0.211(2) 0.5729(13)
H70 H 0.446(3) 0.296(2) 0.6089(13)
H71 H 0.309(3) 0.3711(19) 0.6654(13)
H72 H 0.174(3) 0.384(2) 0.6526(14)
H73 H 0.01066 0.25545 0.6313
H74 H -0.05584 0.09436 0.58786
H75 H 0.09616 0.00301 0.54603
H76 H 0.31046 0.07454 0.54304
Cl3? Cl 0.01900(10) 0.49393(7) 0.52148(5)
O15? O 0.1134(5) 0.5088(3) 0.4921(2)
O16? O 0.0924(5) 0.4876(4) 0.4619(2)
O17? O 0.0713(3) 0.5824(2) 0.56376(14)
O18? O 0.0331(3) 0.4154(2) 0.55190(14)
O19? O 0.4010(5) 0.4861(3) -0.03955(18)
Cl4? Cl 0.47801(10) 0.49417(7) 0.02059(5)
O20? O 0.4693(3) 0.5831(2) 0.06193(14)
O21? O 0.4254(3) 0.4163(2) 0.05201(14)
O22? O 0.6094(4) 0.4916(3) 0.0069(2)
loop_
_geom_bond_atom_site_label_1
_geom_bond_atom_site_label_2
_geom_bond_site_symmetry_1
_geom_bond_site_symmetry_2
O1 H1 1_555 1_555
H2 O1 1_555 1_555
O2 H3 1_555 1_555
H4 O2 1_555 1_555
O3 H5 1_555 1_555
H6 O3 1_555 1_555
N1 C1 1_555 1_555
N2 C2 1_555 1_555
C1 C2 1_555 1_555
C2 C3 1_555 1_555
C3 C4 1_555 1_555
C4 C5 1_555 1_555
C5 C6 1_555 1_555
C6 C1 1_555 1_555
H7 N1 1_555 1_555
H8 N1 1_555 1_555
H9 N2 1_555 1_555
H10 N2 1_555 1_555
H11 C3 1_555 1_555
H12 C4 1_555 1_555
H13 C5 1_555 1_555
H14 C6 1_555 1_555
O4 H15 1_555 1_555
H16 O4 1_555 1_555
O5 H17 1_555 1_555
H18 O5 1_555 1_555
O6 H19 1_555 1_555
H20 O6 1_555 1_555
N3 C7 1_555 1_555
N4 C8 1_555 1_555
C7 C8 1_555 1_555
C8 C9 1_555 1_555
C9 C10 1_555 1_555
C10 C11 1_555 1_555
C11 C12 1_555 1_555
C12 C7 1_555 1_555
H21 N3 1_555 1_555
H22 N3 1_555 1_555
H23 N4 1_555 1_555
H24 N4 1_555 1_555
H25 C9 1_555 1_555
H26 C10 1_555 1_555
H27 C11 1_555 1_555
H28 C12 1_555 1_555
Cl1 O7 1_555 1_555
O8 Cl1 1_555 1_555
O9 Cl1 1_555 1_555
O10 Cl1 1_555 1_555
Cl2 O11 1_555 1_555
O12 Cl2 1_555 1_555
O13 Cl2 1_555 1_555
O14 Cl2 1_555 1_555
N5 C13 1_555 1_555
N6 C14 1_555 1_555
C13 C14 1_555 1_555
C14 C15 1_555 1_555
C15 C16 1_555 1_555
C16 C17 1_555 1_555
C17 C18 1_555 1_555
C18 C13 1_555 1_555
H29 N5 1_555 1_555
H30 N5 1_555 1_555
H31 N6 1_555 1_555
H32 N6 1_555 1_555
H33 C15 1_555 1_555
H34 C16 1_555 1_555
H35 C17 1_555 1_555
H36 C18 1_555 1_555
N7 C19 1_555 1_555
N8 C20 1_555 1_555
C19 C20 1_555 1_555
C20 C21 1_555 1_555
C21 C22 1_555 1_555
C22 C23 1_555 1_555
C23 C24 1_555 1_555
C24 C19 1_555 1_555
H37 N7 1_555 1_555
H38 N7 1_555 1_555
H39 N8 1_555 1_555
H40 N8 1_555 1_555
H41 C21 1_555 1_555
H42 C22 1_555 1_555
H43 C23 1_555 1_555
H44 C24 1_555 1_555
N9 C25 1_555 1_555
N10 C26 1_555 1_555
C25 C26 1_555 1_555
C26 C27 1_555 1_555
C27 C28 1_555 1_555
C28 C29 1_555 1_555
C29 C30 1_555 1_555
C30 C25 1_555 1_555
H45 N9 1_555 1_555
H46 N9 1_555 1_555
H47 N10 1_555 1_555
H48 N10 1_555 1_555
H49 C27 1_555 1_555
H50 C28 1_555 1_555
H51 C29 1_555 1_555
H52 C30 1_555 1_555
N11 C31 1_555 1_555
N12 C32 1_555 1_555
C31 C32 1_555 1_555
C32 C33 1_555 1_555
C33 C34 1_555 1_555
C34 C35 1_555 1_555
C35 C36 1_555 1_555
C36 C31 1_555 1_555
H53 N11 1_555 1_555
H54 N11 1_555 1_555
H55 N12 1_555 1_555
H56 N12 1_555 1_555
H57 C33 1_555 1_555
H58 C34 1_555 1_555
H59 C35 1_555 1_555
H60 C36 1_555 1_555
N13 C37 1_555 1_555
N14 C38 1_555 1_555
C37 C38 1_555 1_555
C38 C39 1_555 1_555
C39 C40 1_555 1_555
C40 C41 1_555 1_555
C41 C42 1_555 1_555
C42 C37 1_555 1_555
H61 N13 1_555 1_555
H62 N13 1_555 1_555
H63 N14 1_555 1_555
H64 N14 1_555 1_555
H65 C39 1_555 1_555
H66 C40 1_555 1_555
H67 C41 1_555 1_555
H68 C42 1_555 1_555
N15 C43 1_555 1_555
N16 C44 1_555 1_555
C43 C44 1_555 1_555
C44 C45 1_555 1_555
C45 C46 1_555 1_555
C46 C47 1_555 1_555
C47 C48 1_555 1_555
C48 C43 1_555 1_555
H69 N15 1_555 1_555
H70 N15 1_555 1_555
H71 N16 1_555 1_555
H72 N16 1_555 1_555
H73 C45 1_555 1_555
H74 C46 1_555 1_555
H75 C47 1_555 1_555
H76 C48 1_555 1_555

#END
