
#######################################################################
#
#                 Cambridge Crystallographic Data Centre
#                                CCDC 
#
#######################################################################
#
# If this CIF has been generated from an entry in the Cambridge 
# Structural Database, then it will include bibliographic, chemical, 
# crystal, experimental, refinement or atomic coordinate data resulting 
# from the CCDC's data processing and validation procedures.
#
#######################################################################

data_JAKROF
_chemical_formula_moiety         'C26 H34 N2 P2'
_chemical_name_systematic        
2-(t-butyl(2-((t-butyl(pyridin-2-yl)phosphino)methyl)benzyl)phosphino)pyridine
_symmetry_cell_setting           triclinic
_symmetry_space_group_name_H-M   'P -1'
_symmetry_Int_Tables_number      2
_space_group_name_Hall           '-P 1'
loop_
_symmetry_equiv_pos_site_id
_symmetry_equiv_pos_as_xyz
1 x,y,z
2 -x,-y,-z
_cell_length_a                   7.9694(2)
_cell_length_b                   16.5043(4)
_cell_length_c                   19.6929(5)
_cell_angle_alpha                75.2895(6)
_cell_angle_beta                 84.0696(7)
_cell_angle_gamma                86.1823(7)
_cell_volume                     2489.69
_exptl_crystal_colour            colorless
_exptl_crystal_description       prism
_cell_formula_units_Z            4
loop_
_atom_site_label
_atom_site_type_symbol
_atom_site_fract_x
_atom_site_fract_y
_atom_site_fract_z
C1 C 0.83739(17) 0.30548(9) 0.22175(7)
H1 H 0.8798 0.3233 0.2610
H2 H 0.7703 0.3531 0.1946
C2 C 0.72553(16) 0.23232(9) 0.25155(7)
C3 C 0.58422(18) 0.22684(10) 0.21645(7)
H3 H 0.5613 0.2698 0.1757
C4 C 0.47759(18) 0.16132(11) 0.23902(8)
H4 H 0.3827 0.1593 0.2141
C5 C 0.50907(19) 0.09850(10) 0.29809(8)
H5 H 0.4363 0.0529 0.3140
C6 C 0.64815(17) 0.10257(9) 0.33400(7)
H6 H 0.6690 0.0594 0.3748
C7 C 0.75775(16) 0.16826(8) 0.31173(6)
C8 C 0.91176(16) 0.16541(8) 0.35129(6)
H7 H 1.0119 0.1759 0.3166
H8 H 0.9269 0.1080 0.3815
C9 C 0.91381(16) 0.27126(8) 0.08646(6)
C10 C 0.98080(19) 0.21229(9) 0.05093(7)
H9 H 1.0757 0.1774 0.0669
C11 C 0.9088(2) 0.20447(11) -0.00795(8)
H10 H 0.9533 0.1646 -0.0331
C12 C 0.77098(19) 0.25589(11) -0.02916(7)
H11 H 0.7174 0.2519 -0.0690
C13 C 0.7123(2) 0.31334(12) 0.00871(8)
H12 H 0.6180 0.3491 -0.0068
C14 C 1.1253(2) 0.38128(11) 0.12868(8)
C15 C 1.2257(2) 0.39129(12) 0.18819(10)
H13 H 1.2915 0.4418 0.1718
H14 H 1.3022 0.3421 0.2019
H15 H 1.1475 0.3963 0.2289
C16 C 1.2494(3) 0.37156(15) 0.06603(11)
H16 H 1.1863 0.3698 0.0263
H17 H 1.3179 0.3194 0.0796
H18 H 1.3233 0.4193 0.0521
C17 C 1.0072(3) 0.45803(11) 0.10652(9)
H19 H 0.9336 0.4658 0.1476
H20 H 0.9380 0.4498 0.0706
H21 H 1.0740 0.5078 0.0871
C18 C 0.75616(15) 0.19348(8) 0.48171(6)
C19 C 0.69234(18) 0.24329(10) 0.52691(7)
H22 H 0.7226 0.3000 0.5179
C20 C 0.5837(2) 0.20832(12) 0.58540(8)
H23 H 0.5402 0.2404 0.6176
C21 C 0.54017(19) 0.12668(13) 0.59579(8)
H24 H 0.4659 0.1012 0.6352
C22 C 0.60645(19) 0.08243(11) 0.54787(8)
H25 H 0.5740 0.0263 0.5550
C23 C 1.11172(17) 0.21069(9) 0.44951(7)
C24 C 1.1218(2) 0.26507(11) 0.50101(8)
H26 H 1.2315 0.2546 0.5207
H27 H 1.0314 0.2512 0.5392
H28 H 1.1089 0.3243 0.4762
C25 C 1.1305(2) 0.11896(11) 0.48850(12)
H29 H 1.1263 0.0838 0.4555
H30 H 1.0383 0.1053 0.5260
H31 H 1.2389 0.1086 0.5092
C26 C 1.2536(2) 0.23345(16) 0.39065(10)
H32 H 1.3624 0.2256 0.4110
H33 H 1.2374 0.2922 0.3649
H34 H 1.2521 0.1973 0.3583
N1 N 0.77974(16) 0.32194(9) 0.06594(6)
N2 N 0.71363(15) 0.11370(8) 0.49195(6)
P1 P 1.01911(4) 0.27845(2) 0.16356(2)
P2 P 0.90723(4) 0.24044(2) 0.40719(2)
C27 C 0.29075(16) 0.83616(8) 0.23624(6)
H35 H 0.3547 0.8794 0.2481
H36 H 0.2317 0.8036 0.2805
C28 C 0.41275(15) 0.77829(8) 0.20558(6)
C29 C 0.57377(17) 0.80578(9) 0.17825(7)
H37 H 0.6036 0.8598 0.1803
C30 C 0.69083(18) 0.75631(11) 0.14826(8)
H38 H 0.7998 0.7763 0.1303
C31 C 0.64879(19) 0.67810(11) 0.14456(8)
H39 H 0.7279 0.6441 0.1235
C32 C 0.49055(18) 0.64942(9) 0.17170(7)
H40 H 0.4627 0.5951 0.1694
C33 C 0.37035(15) 0.69831(8) 0.20241(6)
C34 C 0.19771(15) 0.66410(8) 0.22797(6)
H41 H 0.1855 0.6150 0.2089
H42 H 0.1112 0.7074 0.2087
C35 C 0.25453(14) 0.97185(7) 0.11345(5)
C36 C 0.46468(17) 1.06952(9) 0.08441(8)
H43 H 0.5545 1.0952 0.0981
C37 C 0.41448(18) 1.09860(9) 0.01697(8)
H44 H 0.4701 1.1431 -0.0162
C38 C 0.28196(18) 1.06123(8) -0.00055(7)
H45 H 0.2483 1.0797 -0.0471
C39 C -0.00281(16) 0.95033(8) 0.22992(7)
C40 C 0.0952(2) 1.00292(11) 0.26455(9)
H46 H 0.0161 1.0323 0.2926
H47 H 0.1593 1.0440 0.2280
H48 H 0.1732 0.9662 0.2953
C41 C -0.12524(19) 1.00685(9) 0.18180(8)
H49 H -0.2037 1.0368 0.2095
H50 H -0.1889 0.9725 0.1604
H51 H -0.0615 1.0474 0.1447
C42 C -0.10447(19) 0.88736(10) 0.28753(8)
H52 H -0.0271 0.8499 0.3180
H53 H -0.1702 0.8543 0.2657
H54 H -0.1812 0.9176 0.3157
C43 C 0.29830(15) 0.53858(7) 0.34628(6)
C44 C 0.34261(17) 0.51080(9) 0.41525(7)
H55 H 0.2988 0.5394 0.4499
C45 C 0.45078(19) 0.44134(10) 0.43275(8)
H56 H 0.4797 0.4204 0.4798
C46 C 0.51580(18) 0.40316(9) 0.38081(9)
H57 H 0.5927 0.3561 0.3909
C47 C 0.46697(18) 0.43473(9) 0.31347(9)
H58 H 0.5129 0.4082 0.2777
C48 C -0.05705(15) 0.58411(8) 0.33676(6)
C49 C -0.18955(18) 0.65673(9) 0.32488(8)
H59 H -0.1679 0.6928 0.2773
H60 H -0.1832 0.6894 0.3596
H61 H -0.3023 0.6343 0.3302
C50 C -0.08551(18) 0.53291(9) 0.41311(7)
H62 H -0.2020 0.5147 0.4226
H63 H -0.0653 0.5675 0.4449
H64 H -0.0074 0.4837 0.4207
C51 C -0.07533(18) 0.52833(10) 0.28728(8)
H65 H 0.0147 0.4843 0.2930
H66 H -0.0671 0.5622 0.2384
H67 H -0.1854 0.5026 0.2986
N3 N 0.35849(14) 0.50060(7) 0.29571(6)
P3 P 0.13200(4) 0.88860(2) 0.17511(2)
P4 P 0.15568(4) 0.63216(2) 0.32530(2)
N4 N 0.3880(4) 1.0053(2) 0.13090(16)
C52 C 0.1954(5) 0.9976(3) 0.04700(12)
H68 H 0.1017 0.9731 0.0350
H69? H 0.5604 1.0931 0.0958
H70? H 0.2426 1.0800 -0.0461
C53? C 0.3834(8) 1.0082(4) 0.13599(19)
H71? H 0.4134 0.9921 0.1832
N5? N 0.2091(7) 0.9980(4) 0.04751(15)
loop_
_geom_bond_atom_site_label_1
_geom_bond_atom_site_label_2
_geom_bond_site_symmetry_1
_geom_bond_site_symmetry_2
C1 H1 1_555 1_555
H2 C1 1_555 1_555
C2 C1 1_555 1_555
C3 C2 1_555 1_555
H3 C3 1_555 1_555
C4 C3 1_555 1_555
H4 C4 1_555 1_555
C5 C4 1_555 1_555
H5 C5 1_555 1_555
C6 C5 1_555 1_555
H6 C6 1_555 1_555
C7 C2 1_555 1_555
C8 C7 1_555 1_555
H7 C8 1_555 1_555
H8 C8 1_555 1_555
C9 C10 1_555 1_555
C10 H9 1_555 1_555
C11 C10 1_555 1_555
H10 C11 1_555 1_555
C12 C11 1_555 1_555
H11 C12 1_555 1_555
C13 C12 1_555 1_555
H12 C13 1_555 1_555
C14 C15 1_555 1_555
C15 H13 1_555 1_555
H14 C15 1_555 1_555
H15 C15 1_555 1_555
C16 C14 1_555 1_555
H16 C16 1_555 1_555
H17 C16 1_555 1_555
H18 C16 1_555 1_555
C17 C14 1_555 1_555
H19 C17 1_555 1_555
H20 C17 1_555 1_555
H21 C17 1_555 1_555
C18 C19 1_555 1_555
C19 H22 1_555 1_555
C20 C19 1_555 1_555
H23 C20 1_555 1_555
C21 C20 1_555 1_555
H24 C21 1_555 1_555
C22 C21 1_555 1_555
H25 C22 1_555 1_555
C23 C24 1_555 1_555
C24 H26 1_555 1_555
H27 C24 1_555 1_555
H28 C24 1_555 1_555
C25 C23 1_555 1_555
H29 C25 1_555 1_555
H30 C25 1_555 1_555
H31 C25 1_555 1_555
C26 C23 1_555 1_555
H32 C26 1_555 1_555
H33 C26 1_555 1_555
H34 C26 1_555 1_555
N1 C9 1_555 1_555
N2 C18 1_555 1_555
P1 C1 1_555 1_555
P2 C8 1_555 1_555
C27 H35 1_555 1_555
H36 C27 1_555 1_555
C28 C27 1_555 1_555
C29 C28 1_555 1_555
H37 C29 1_555 1_555
C30 C29 1_555 1_555
H38 C30 1_555 1_555
C31 C30 1_555 1_555
H39 C31 1_555 1_555
C32 C31 1_555 1_555
H40 C32 1_555 1_555
C33 C28 1_555 1_555
C34 C33 1_555 1_555
H41 C34 1_555 1_555
H42 C34 1_555 1_555
C35 P3 1_555 1_555
C36 H43 1_555 1_555
C37 C36 1_555 1_555
H44 C37 1_555 1_555
C38 C37 1_555 1_555
H45 C38 1_555 1_555
C39 C40 1_555 1_555
C40 H46 1_555 1_555
H47 C40 1_555 1_555
H48 C40 1_555 1_555
C41 C39 1_555 1_555
H49 C41 1_555 1_555
H50 C41 1_555 1_555
H51 C41 1_555 1_555
C42 C39 1_555 1_555
H52 C42 1_555 1_555
H53 C42 1_555 1_555
H54 C42 1_555 1_555
C43 C44 1_555 1_555
C44 H55 1_555 1_555
C45 C44 1_555 1_555
H56 C45 1_555 1_555
C46 C45 1_555 1_555
H57 C46 1_555 1_555
C47 C46 1_555 1_555
H58 C47 1_555 1_555
C48 C49 1_555 1_555
C49 H59 1_555 1_555
H60 C49 1_555 1_555
H61 C49 1_555 1_555
C50 C48 1_555 1_555
H62 C50 1_555 1_555
H63 C50 1_555 1_555
H64 C50 1_555 1_555
C51 C48 1_555 1_555
H65 C51 1_555 1_555
H66 C51 1_555 1_555
H67 C51 1_555 1_555
N3 C43 1_555 1_555
P3 C27 1_555 1_555
P4 C34 1_555 1_555
N4 C35 1_555 1_555
C52 C35 1_555 1_555
H68 C52 1_555 1_555
C6 C7 1_555 1_555
C9 P1 1_555 1_555
C13 N1 1_555 1_555
C14 P1 1_555 1_555
C18 P2 1_555 1_555
C22 N2 1_555 1_555
C23 P2 1_555 1_555
C32 C33 1_555 1_555
C36 N4 1_555 1_555
C38 C52 1_555 1_555
C39 P3 1_555 1_555
C43 P4 1_555 1_555
C47 N3 1_555 1_555
C48 P4 1_555 1_555

#END
