
#######################################################################
#
#                 Cambridge Crystallographic Data Centre
#                                CCDC 
#
#######################################################################
#
# If this CIF has been generated from an entry in the Cambridge 
# Structural Database, then it will include bibliographic, chemical, 
# crystal, experimental, refinement or atomic coordinate data resulting 
# from the CCDC's data processing and validation procedures.
#
#######################################################################

data_JAKSAP
_chemical_formula_moiety         'C14 H19 N1 O6 Si1'
_chemical_name_systematic        o-Methoxybenzyloxysilatrane
_symmetry_cell_setting           orthorhombic
_symmetry_space_group_name_H-M   'P c a b'
_symmetry_Int_Tables_number      61
_space_group_name_Hall           '-P 2bc 2ac'
loop_
_symmetry_equiv_pos_site_id
_symmetry_equiv_pos_as_xyz
1 x,y,z
2 -x,1/2-y,1/2+z
3 1/2+x,-y,1/2-z
4 1/2-x,1/2+y,-z
5 -x,-y,-z
6 x,1/2+y,1/2-z
7 1/2-x,y,1/2+z
8 1/2+x,1/2-y,z
_cell_length_a                   19.653(4)
_cell_length_b                   12.565(3)
_cell_length_c                   12.570(3)
_cell_angle_alpha                90
_cell_angle_beta                 90
_cell_angle_gamma                90
_cell_volume                     3104.04
_cell_formula_units_Z            8
loop_
_atom_site_label
_atom_site_type_symbol
_atom_site_fract_x
_atom_site_fract_y
_atom_site_fract_z
Si1 Si 0.0430(1) 0.1390(1) 0.1759(1)
O1 O 0.1055(2) 0.2225(3) 0.1280(3)
O2 O -0.0199(2) 0.1998(2) 0.1134(3)
O3 O 0.0778(2) 0.0281(2) 0.1328(3)
O4 O 0.0597(2) 0.1754(3) 0.3001(2)
O5 O 0.0943(2) 0.1853(3) -0.0455(3)
O6 O 0.2116(2) 0.2296(4) -0.1469(3)
N1 N -0.0325(2) 0.0430(3) 0.2388(3)
C1 C 0.1728(2) 0.3187(4) 0.0073(4)
C2 C 0.2168(3) 0.3152(5) -0.0820(5)
C3 C 0.2622(3) 0.3983(7) -0.0977(6)
C4 C 0.2646(4) 0.4831(7) -0.0286(9)
C5 C 0.2223(4) 0.4881(6) 0.0575(7)
C6 C 0.1759(3) 0.4054(4) 0.0769(5)
C7 C 0.2556(4) 0.2228(8) -0.2369(6)
C8 C 0.1205(2) 0.2345(4) 0.0254(4)
C9 C -0.0882(2) 0.1747(4) 0.1325(5)
C10 C -0.0927(3) 0.0576(4) 0.1688(5)
C11 C -0.0058(3) -0.0666(4) 0.2333(4)
C12 C 0.0422(3) -0.0701(4) 0.1392(4)
C13 C 0.0269(3) 0.1215(4) 0.3855(4)
C14 C -0.0430(3) 0.0839(5) 0.3480(4)
loop_
_geom_bond_atom_site_label_1
_geom_bond_atom_site_label_2
_geom_bond_site_symmetry_1
_geom_bond_site_symmetry_2
Si1 O1 1_555 1_555
O1 C8 1_555 1_555
O2 Si1 1_555 1_555
O3 Si1 1_555 1_555
O4 Si1 1_555 1_555
O5 C8 1_555 1_555
O6 C2 1_555 1_555
N1 Si1 1_555 1_555
C1 C2 1_555 1_555
C2 C3 1_555 1_555
C3 C4 1_555 1_555
C4 C5 1_555 1_555
C5 C6 1_555 1_555
C6 C1 1_555 1_555
C7 O6 1_555 1_555
C8 C1 1_555 1_555
C9 O2 1_555 1_555
C10 N1 1_555 1_555
C11 N1 1_555 1_555
C12 O3 1_555 1_555
C13 O4 1_555 1_555
C14 N1 1_555 1_555
C9 C10 1_555 1_555
C11 C12 1_555 1_555
C13 C14 1_555 1_555

#END
