
#######################################################################
#
#                 Cambridge Crystallographic Data Centre
#                                CCDC 
#
#######################################################################
#
# If this CIF has been generated from an entry in the Cambridge 
# Structural Database, then it will include bibliographic, chemical, 
# crystal, experimental, refinement or atomic coordinate data resulting 
# from the CCDC's data processing and validation procedures.
#
#######################################################################

data_JAKSAS
_chemical_formula_moiety         'C18 H23 Br1 F3 N1 O5'
_chemical_name_systematic        
'methyl 4-(2-bromo-1-(trifluoromethoxy)ethyl)-N-(t-butoxycarbonyl)phenylalaninate'
_symmetry_cell_setting           orthorhombic
_symmetry_space_group_name_H-M   'P 21 21 21'
_symmetry_Int_Tables_number      19
_space_group_name_Hall           'P 2ac 2ab'
loop_
_symmetry_equiv_pos_site_id
_symmetry_equiv_pos_as_xyz
1 x,y,z
2 1/2-x,-y,1/2+z
3 1/2+x,1/2-y,-z
4 -x,1/2+y,1/2-z
_cell_length_a                   5.2010(18)
_cell_length_b                   15.638(5)
_cell_length_c                   25.819(8)
_cell_angle_alpha                90
_cell_angle_beta                 90
_cell_angle_gamma                90
_cell_volume                     2099.94
_exptl_crystal_colour            colorless
_exptl_crystal_description       block
_cell_formula_units_Z            4
loop_
_atom_site_label
_atom_site_type_symbol
_atom_site_fract_x
_atom_site_fract_y
_atom_site_fract_z
C2 C 0.735(3) 0.2245(11) 0.4178(7)
F4 F 0.7190(13) 0.1502(4) 0.4511(2)
F5 F 1.001(2) 0.2288(10) 0.4018(7)
F6 F 0.692(3) 0.2968(7) 0.4508(4)
Br1 Br 0.3605(5) 0.04740(13) 0.33456(8)
O1 O 0.596(2) 0.2174(6) 0.3853(4)
O2 O 0.6276(13) 0.6198(5) 0.4047(3)
O3 O 0.3192(12) 0.6094(5) 0.4667(3)
O4 O -0.023(2) 0.7709(7) 0.3356(4)
O5 O 0.174(4) 0.7418(9) 0.2615(5)
N1 N 0.1997(15) 0.6417(6) 0.3874(3)
H1 H 0.0516 0.6527 0.4007
C3 C 0.392(3) 0.2263(11) 0.3658(6)
H2 H 0.2718 0.2127 0.3939
C4 C 0.315(3) 0.1626(10) 0.3217(6)
H3 H 0.4130 0.1772 0.2910
H4 H 0.1348 0.1719 0.3136
C5 C 0.335(3) 0.3215(9) 0.3539(5)
C6 C 0.143(3) 0.3596(8) 0.3762(5)
H5 H 0.0581 0.3317 0.4031
C7 C 0.057(2) 0.4410(8) 0.3615(4)
H6 H -0.0827 0.4653 0.3784
C8 C 0.1760(19) 0.4851(7) 0.3228(4)
C9 C 0.403(2) 0.4477(8) 0.3012(4)
H7 H 0.5015 0.4783 0.2775
C10 C 0.477(2) 0.3652(9) 0.3158(5)
H8 H 0.6189 0.3394 0.3005
C11 C 0.095(2) 0.5726(7) 0.3054(4)
H9 H 0.1239 0.5776 0.2684
H10 H -0.0881 0.5792 0.3115
C12 C 0.235(2) 0.6433(7) 0.3324(4)
H11 H 0.4188 0.6361 0.3254
C13 C 0.148(3) 0.7258(8) 0.3062(5)
C14 C -0.130(4) 0.8450(11) 0.3098(7)
H12 H -0.0003 0.8711 0.2885
H13 H -0.1878 0.8854 0.3353
H14 H -0.2721 0.8278 0.2886
C15 C 0.4040(18) 0.6226(7) 0.4187(4)
C16 C 0.500(2) 0.5838(8) 0.5078(5)
C17 C 0.319(2) 0.5715(9) 0.5551(5)
H15 H 0.2888 0.6257 0.5714
H16 H 0.3973 0.5332 0.5794
H17 H 0.1579 0.5479 0.5436
C18 C 0.678(3) 0.6557(9) 0.5214(5)
H18 H 0.7799 0.6705 0.4916
H19 H 0.7898 0.6382 0.5491
H20 H 0.5801 0.7046 0.5321
C19 C 0.641(2) 0.5041(8) 0.4927(5)
H21 H 0.5197 0.4609 0.4825
H22 H 0.7400 0.4839 0.5216
H23 H 0.7538 0.5164 0.4642
C1? C 0.627(4) 0.2099(12) 0.4304(7)
F1? F 0.592(2) 0.2857(6) 0.4584(3)
F2? F 0.465(4) 0.1454(10) 0.4521(7)
F3? F 0.889(3) 0.1812(11) 0.4404(6)
loop_
_geom_bond_atom_site_label_1
_geom_bond_atom_site_label_2
_geom_bond_site_symmetry_1
_geom_bond_site_symmetry_2
C2 F4 1_555 1_555
F5 C2 1_555 1_555
F6 C2 1_555 1_555
Br1 C4 1_555 1_555
O1 C2 1_555 1_555
O2 C15 1_555 1_555
O3 C15 1_555 1_555
O4 C13 1_555 1_555
O5 C13 1_555 1_555
N1 H1 1_555 1_555
C3 O1 1_555 1_555
H2 C3 1_555 1_555
C4 C3 1_555 1_555
H3 C4 1_555 1_555
H4 C4 1_555 1_555
C5 C3 1_555 1_555
C6 C5 1_555 1_555
H5 C6 1_555 1_555
C7 C6 1_555 1_555
H6 C7 1_555 1_555
C8 C7 1_555 1_555
C9 C8 1_555 1_555
H7 C9 1_555 1_555
C10 C5 1_555 1_555
H8 C10 1_555 1_555
C11 C8 1_555 1_555
H9 C11 1_555 1_555
H10 C11 1_555 1_555
C12 N1 1_555 1_555
H11 C12 1_555 1_555
C13 C12 1_555 1_555
C14 O4 1_555 1_555
H12 C14 1_555 1_555
H13 C14 1_555 1_555
H14 C14 1_555 1_555
C15 N1 1_555 1_555
C16 O3 1_555 1_555
C17 C16 1_555 1_555
H15 C17 1_555 1_555
H16 C17 1_555 1_555
H17 C17 1_555 1_555
C18 C16 1_555 1_555
H18 C18 1_555 1_555
H19 C18 1_555 1_555
H20 C18 1_555 1_555
C19 C16 1_555 1_555
H21 C19 1_555 1_555
H22 C19 1_555 1_555
H23 C19 1_555 1_555
C9 C10 1_555 1_555
C11 C12 1_555 1_555

#END
