
#######################################################################
#
#                 Cambridge Crystallographic Data Centre
#                                CCDC 
#
#######################################################################
#
# If this CIF has been generated from an entry in the Cambridge 
# Structural Database, then it will include bibliographic, chemical, 
# crystal, experimental, refinement or atomic coordinate data resulting 
# from the CCDC's data processing and validation procedures.
#
#######################################################################

data_JAKSIA
_chemical_formula_moiety         'C14 H18 Br1 F3 O4'
_chemical_name_systematic        
7-bromo-8a-ethyl-3a-methyl-6-(trifluoromethoxy)octahydrofuro[2,3-b][1]benzofuran-2(3H)-one
_symmetry_cell_setting           monoclinic
_symmetry_space_group_name_H-M   'C 2'
_symmetry_Int_Tables_number      5
_space_group_name_Hall           'C 2y'
loop_
_symmetry_equiv_pos_site_id
_symmetry_equiv_pos_as_xyz
1 x,y,z
2 -x,y,-z
3 1/2+x,1/2+y,z
4 1/2-x,1/2+y,-z
_cell_length_a                   15.821(3)
_cell_length_b                   8.6277(17)
_cell_length_c                   12.917(3)
_cell_angle_alpha                90
_cell_angle_beta                 114.50(3)
_cell_angle_gamma                90
_cell_volume                     1604.4
_exptl_crystal_colour            colorless
_exptl_crystal_description       block
_cell_formula_units_Z            4
loop_
_atom_site_label
_atom_site_type_symbol
_atom_site_fract_x
_atom_site_fract_y
_atom_site_fract_z
Br1 Br 0.08759(10) 0.3858(5) 0.14953(15)
C1 C 0.3669(9) 0.3883(16) -0.0073(12)
C2 C 0.4028(10) 0.2501(14) 0.0652(12)
H1 H 0.4611 0.2174 0.0643
H2 H 0.3588 0.1654 0.0372
C3 C 0.4170(9) 0.2932(14) 0.1854(10)
C4 C 0.3717(8) 0.4532(12) 0.1663(11)
C5 C 0.5200(11) 0.2966(19) 0.2628(16)
H3 H 0.5283 0.2910 0.3407
H4 H 0.5466 0.3911 0.2508
H5 H 0.5501 0.2097 0.2459
C6 C 0.4272(10) 0.5903(14) 0.2430(13)
H6 H 0.4428 0.5651 0.3220
H7 H 0.4847 0.6044 0.2343
C7 C 0.3709(11) 0.7437(14) 0.2121(14)
H8 H 0.3868 0.8014 0.1591
H9 H 0.3853 0.8040 0.2797
H10 H 0.3056 0.7205 0.1782
C8 C 0.2640(9) 0.2787(14) 0.1672(11)
H11 H 0.2379 0.2530 0.0860
C9 C 0.3578(9) 0.2012(15) 0.2278(11)
H12 H 0.3540 0.0939 0.2013
C10 C 0.3899(9) 0.2022(15) 0.3564(10)
H13 H 0.4445 0.1372 0.3910
H14 H 0.4072 0.3070 0.3845
C11 C 0.3166(12) 0.1455(19) 0.3912(13)
H15 H 0.3406 0.1446 0.4736
H16 H 0.2996 0.0402 0.3643
C12 C 0.2320(9) 0.2477(16) 0.3432(11)
H17 H 0.2475 0.3530 0.3737
C13 C 0.1921(8) 0.2508(17) 0.2142(11)
H18 H 0.1681 0.1462 0.1894
C14 C 0.1540(6) 0.2282(10) 0.4646(10)
F1 F 0.0988(11) 0.1364(16) 0.4883(12)
F2 F 0.1125(10) 0.3683(13) 0.4376(10)
F3 F 0.2324(8) 0.2474(17) 0.5535(8)
O1 O 0.3575(7) 0.4066(13) -0.1030(7)
O2 O 0.3464(6) 0.4984(10) 0.0483(8)
O3 O 0.2910(6) 0.4412(8) 0.1836(6)
O4 O 0.1650(6) 0.1822(11) 0.3756(8)
F4? F 0.0773(13) 0.290(4) 0.4475(19)
F5? F 0.2192(15) 0.315(3) 0.5322(15)
F6? F 0.158(3) 0.104(2) 0.5288(17)
loop_
_geom_bond_atom_site_label_1
_geom_bond_atom_site_label_2
_geom_bond_site_symmetry_1
_geom_bond_site_symmetry_2
Br1 C13 1_555 1_555
C1 C2 1_555 1_555
C2 H1 1_555 1_555
H2 C2 1_555 1_555
C3 C2 1_555 1_555
C4 C3 1_555 1_555
C5 C3 1_555 1_555
H3 C5 1_555 1_555
H4 C5 1_555 1_555
H5 C5 1_555 1_555
C6 C4 1_555 1_555
H6 C6 1_555 1_555
H7 C6 1_555 1_555
C7 C6 1_555 1_555
H8 C7 1_555 1_555
H9 C7 1_555 1_555
H10 C7 1_555 1_555
C8 H11 1_555 1_555
C9 C3 1_555 1_555
H12 C9 1_555 1_555
C10 C9 1_555 1_555
H13 C10 1_555 1_555
H14 C10 1_555 1_555
C11 C10 1_555 1_555
H15 C11 1_555 1_555
H16 C11 1_555 1_555
C12 C11 1_555 1_555
H17 C12 1_555 1_555
C13 C8 1_555 1_555
H18 C13 1_555 1_555
C14 F1 1_555 1_555
F2 C14 1_555 1_555
F3 C14 1_555 1_555
O1 C1 1_555 1_555
O2 C1 1_555 1_555
O3 C4 1_555 1_555
O4 C12 1_555 1_555
C4 O2 1_555 1_555
C8 C9 1_555 1_555
C8 O3 1_555 1_555
C12 C13 1_555 1_555
C14 O4 1_555 1_555

#END
