
#######################################################################
#
#                 Cambridge Crystallographic Data Centre
#                                CCDC 
#
#######################################################################
#
# If this CIF has been generated from an entry in the Cambridge 
# Structural Database, then it will include bibliographic, chemical, 
# crystal, experimental, refinement or atomic coordinate data resulting 
# from the CCDC's data processing and validation procedures.
#
#######################################################################

data_JAKTOE
_chemical_formula_moiety         'C14 H11 F1 N2 O4'
_chemical_name_systematic        N-Acetyl-5-fluoro-N'-o-toluoyluracil
_chemical_properties_biological  'antitumour activity'
_symmetry_cell_setting           monoclinic
_symmetry_space_group_name_H-M   'P 21/n'
_symmetry_Int_Tables_number      14
_space_group_name_Hall           '-P 2yn'
loop_
_symmetry_equiv_pos_site_id
_symmetry_equiv_pos_as_xyz
1 x,y,z
2 1/2-x,1/2+y,1/2-z
3 -x,-y,-z
4 1/2+x,1/2-y,1/2+z
_cell_length_a                   15.795(4)
_cell_length_b                   8.367(3)
_cell_length_c                   10.720(4)
_cell_angle_alpha                90
_cell_angle_beta                 104.98(3)
_cell_angle_gamma                90
_cell_volume                     1368.57
_cell_formula_units_Z            4
loop_
_atom_site_label
_atom_site_type_symbol
_atom_site_fract_x
_atom_site_fract_y
_atom_site_fract_z
F1 F 0.6583(1) 0.1795(3) 0.0059(2)
O1 O 0.5258(2) -0.2633(3) 0.1527(2)
O2 O 0.6077(1) 0.0273(3) 0.4642(2)
O3 O 0.6403(1) 0.4018(3) 0.4612(2)
O4 O 0.7214(2) 0.3634(3) 0.2216(2)
N1 N 0.5883(1) -0.0395(3) 0.2498(2)
N2 N 0.6643(1) 0.1902(3) 0.3403(2)
C1 C 0.5457(2) -0.1932(4) 0.2527(3)
C2 C 0.6191(2) 0.0556(3) 0.3594(2)
C3 C 0.6906(2) 0.2985(3) 0.4544(3)
C4 C 0.6805(2) 0.2420(4) 0.2258(3)
C5 C 0.6441(2) 0.1375(4) 0.1196(2)
C6 C 0.6024(2) 0.0057(4) 0.1316(2)
C7 C 0.5276(3) -0.2506(4) 0.3734(4)
C8 C 0.7753(2) 0.2647(3) 0.5447(2)
C9 C 0.8274(2) 0.1424(3) 0.5168(2)
C10 C 0.9069(2) 0.1063(3) 0.6006(3)
C11 C 0.9347(2) 0.1914(4) 0.7122(3)
C12 C 0.8845(2) 0.3125(4) 0.7406(2)
C13 C 0.8038(2) 0.3523(3) 0.6591(2)
C14 C 0.7519(2) 0.4843(4) 0.6993(3)
loop_
_geom_bond_atom_site_label_1
_geom_bond_atom_site_label_2
_geom_bond_site_symmetry_1
_geom_bond_site_symmetry_2
F1 C5 1_555 1_555
O1 C1 1_555 1_555
O2 C2 1_555 1_555
O3 C3 1_555 1_555
O4 C4 1_555 1_555
N1 C1 1_555 1_555
N2 C2 1_555 1_555
C1 C7 1_555 1_555
C2 N1 1_555 1_555
C3 N2 1_555 1_555
C4 N2 1_555 1_555
C5 C4 1_555 1_555
C6 N1 1_555 1_555
C8 C3 1_555 1_555
C9 C8 1_555 1_555
C10 C9 1_555 1_555
C11 C10 1_555 1_555
C12 C11 1_555 1_555
C13 C8 1_555 1_555
C14 C13 1_555 1_555
C5 C6 1_555 1_555
C12 C13 1_555 1_555

#END
