
#######################################################################
#
#                 Cambridge Crystallographic Data Centre
#                                CCDC 
#
#######################################################################
#
# If this CIF has been generated from an entry in the Cambridge 
# Structural Database, then it will include bibliographic, chemical, 
# crystal, experimental, refinement or atomic coordinate data resulting 
# from the CCDC's data processing and validation procedures.
#
#######################################################################

data_JAKTOF
_chemical_formula_moiety         'C18 H27 N1 O11'
_chemical_name_systematic        
'Methyl 2-(1-(acetylamino)-1(methoxycarbonyl)methyl)-2-deoxy-\a-L-glucopyranoside-3,4,6-triacetate'
_symmetry_cell_setting           monoclinic
_symmetry_space_group_name_H-M   'P 21'
_symmetry_Int_Tables_number      4
_space_group_name_Hall           'P 2yb'
loop_
_symmetry_equiv_pos_site_id
_symmetry_equiv_pos_as_xyz
1 x,y,z
2 -x,1/2+y,-z
_cell_length_a                   10.287(2)
_cell_length_b                   10.734(2)
_cell_length_c                   10.614(2)
_cell_angle_alpha                90
_cell_angle_beta                 107.240(10)
_cell_angle_gamma                90
_cell_volume                     1119.35
_exptl_crystal_colour            colorless
_exptl_crystal_description       prism
_chemical_melting_point          '160-161 deg.C'
_cell_formula_units_Z            2
loop_
_atom_site_label
_atom_site_type_symbol
_atom_site_fract_x
_atom_site_fract_y
_atom_site_fract_z
O1 O 0.38071(11) 0.9314 0.85631(12)
C1 C 0.48642(15) 0.94915(18) 0.97758(16)
H1 H 0.5424 0.8738 1.0001
O2 O 0.56489(13) 1.04847(16) 0.96012(14)
C2 C 0.42808(14) 0.98325(18) 1.08996(15)
H2 H 0.3881 1.0667 1.0724
C3 C 0.31568(14) 0.89286(18) 1.09529(15)
H3 H 0.3557 0.8126 1.1304
O3 O 0.24319(12) 0.94491(17) 1.18120(12)
C4 C 0.21454(14) 0.87402(18) 0.96037(15)
H4 H 0.1648 0.9515 0.9297
O4 O 0.12182(12) 0.77765(16) 0.97253(13)
C5 C 0.29112(16) 0.83241(19) 0.86363(16)
H5 H 0.3448 0.7579 0.8985
C6 C 0.54406(16) 0.9879(2) 1.22264(16)
H6 H 0.6219 1.0299 1.2058
N1 N 0.58899(17) 0.8654(2) 1.27381(18)
H7 H 0.534(3) 0.819(3) 1.310(3)
C7 C 0.6560(3) 1.0204(3) 0.8865(4)
H8 H 0.7143 1.0906 0.8882
H9 H 0.6051 1.0021 0.7969
H10 H 0.7103 0.9494 0.9246
C8 C 0.2319(2) 0.8754(3) 1.28353(19)
O5 O 0.2900(2) 0.7783(2) 1.31484(19)
C9 C 0.1399(3) 0.9370(5) 1.3508(3)
H11 H 0.1571 0.9035 1.4381
H12 H 0.0468 0.9219 1.3013
H13 H 0.1569 1.0251 1.3561
C10 C -0.01003(18) 0.8098(2) 0.9492(2)
O6 O -0.05309(15) 0.9098(2) 0.9101(3)
C11 C -0.0906(3) 0.7038(3) 0.9777(4)
H14 H -0.0397 0.6280 0.9832
H15 H -0.1749 0.6968 0.9082
H16 H -0.1092 0.7182 1.0599
O7 O 0.10832(13) 0.90919(19) 0.67952(13)
C12 C 0.1978(2) 0.8048(2) 0.72690(19)
H17 H 0.2516 0.7891 0.6674
H18 H 0.1445 0.7309 0.7294
O8 O -0.0709(2) 0.7809(3) 0.6224(3)
C13 C -0.0248(2) 0.8837(3) 0.6295(2)
C14 C -0.1042(3) 1.0015(4) 0.5868(4)
H19 H -0.1977 0.9878 0.5824
H20 H -0.0987 1.0256 0.5014
H21 H -0.0670 1.0664 0.6492
C15 C 0.50489(19) 1.0626(2) 1.32796(18)
O9 O 0.4983(2) 1.0214(2) 1.43091(16)
O10 O 0.48043(19) 1.18009(19) 1.28949(15)
C16 C 0.4454(4) 1.2633(3) 1.3826(3)
H22 H 0.4530 1.3481 1.3570
H23 H 0.5064 1.2494 1.4693
H24 H 0.3537 1.2472 1.3828
C17 C 0.7082(2) 0.8156(3) 1.2689(3)
O11 O 0.7834(2) 0.8713(3) 1.2197(3)
C18 C 0.7385(4) 0.6876(3) 1.3264(3)
H25 H 0.6564 0.6507 1.3347
H26 H 0.8045 0.6930 1.4119
H27 H 0.7740 0.6371 1.2696
loop_
_geom_bond_atom_site_label_1
_geom_bond_atom_site_label_2
_geom_bond_site_symmetry_1
_geom_bond_site_symmetry_2
O1 C1 1_555 1_555
C1 H1 1_555 1_555
O2 C1 1_555 1_555
C2 C1 1_555 1_555
H2 C2 1_555 1_555
C3 C2 1_555 1_555
H3 C3 1_555 1_555
O3 C3 1_555 1_555
C4 C3 1_555 1_555
H4 C4 1_555 1_555
O4 C4 1_555 1_555
C5 O1 1_555 1_555
H5 C5 1_555 1_555
C6 C2 1_555 1_555
H6 C6 1_555 1_555
N1 C6 1_555 1_555
H7 N1 1_555 1_555
C7 O2 1_555 1_555
H8 C7 1_555 1_555
H9 C7 1_555 1_555
H10 C7 1_555 1_555
C8 O3 1_555 1_555
O5 C8 1_555 1_555
C9 C8 1_555 1_555
H11 C9 1_555 1_555
H12 C9 1_555 1_555
H13 C9 1_555 1_555
C10 O4 1_555 1_555
O6 C10 1_555 1_555
C11 C10 1_555 1_555
H14 C11 1_555 1_555
H15 C11 1_555 1_555
H16 C11 1_555 1_555
O7 C12 1_555 1_555
C12 C5 1_555 1_555
H17 C12 1_555 1_555
H18 C12 1_555 1_555
O8 C13 1_555 1_555
C13 O7 1_555 1_555
C14 C13 1_555 1_555
H19 C14 1_555 1_555
H20 C14 1_555 1_555
H21 C14 1_555 1_555
C15 C6 1_555 1_555
O9 C15 1_555 1_555
O10 C15 1_555 1_555
C16 O10 1_555 1_555
H22 C16 1_555 1_555
H23 C16 1_555 1_555
H24 C16 1_555 1_555
C17 N1 1_555 1_555
O11 C17 1_555 1_555
C18 C17 1_555 1_555
H25 C18 1_555 1_555
H26 C18 1_555 1_555
H27 C18 1_555 1_555
C4 C5 1_555 1_555

#END
