
#######################################################################
#
#                 Cambridge Crystallographic Data Centre
#                                CCDC 
#
#######################################################################
#
# If this CIF has been generated from an entry in the Cambridge 
# Structural Database, then it will include bibliographic, chemical, 
# crystal, experimental, refinement or atomic coordinate data resulting 
# from the CCDC's data processing and validation procedures.
#
#######################################################################

data_JAKYOJ10
_chemical_formula_moiety         'C20 H22 N4 O2 P2 S4'
_chemical_name_systematic        
trans-6,13-bis(Propylthio)-6,13-dithioxo-5,12-dioxa-6a,7,13a,14-tetra-aza-6,13-diphosphadibenz(a,h)anthracene
_symmetry_cell_setting           orthorhombic
_symmetry_space_group_name_H-M   'P c a b'
_symmetry_Int_Tables_number      61
_space_group_name_Hall           '-P 2bc 2ac'
loop_
_symmetry_equiv_pos_site_id
_symmetry_equiv_pos_as_xyz
1 x,y,z
2 1/2-x,y,1/2+z
3 1/2+x,1/2-y,z
4 -x,1/2-y,1/2+z
5 -x,-y,-z
6 1/2+x,-y,1/2-z
7 1/2-x,1/2+y,-z
8 x,1/2+y,1/2-z
_cell_length_a                   7.255(2)
_cell_length_b                   18.297(3)
_cell_length_c                   18.576(2)
_cell_angle_alpha                90
_cell_angle_beta                 90
_cell_angle_gamma                90
_cell_volume                     2465.87
_cell_formula_units_Z            4
loop_
_atom_site_label
_atom_site_type_symbol
_atom_site_fract_x
_atom_site_fract_y
_atom_site_fract_z
P1 P 0.0817(1) 0.09813(5) 0.12667(5)
S1 S -0.1231(2) 0.14054(9) 0.17405(7)
S2 S 0.2492(2) 0.03100(9) 0.18637(7)
O1 O 0.2077(5) 0.1594(2) 0.0904(2)
N1 N 0.0385(5) 0.0456(2) 0.0531(2)
N2 N -0.1183(5) 0.0009(2) 0.0589(2)
C1 C 0.3445(6) 0.1419(2) 0.0413(2)
C2 C 0.3185(5) 0.0843(2) -0.0075(2)
C3 C 0.4577(6) 0.0715(2) -0.0580(2)
C4 C 0.6148(6) 0.1142(3) -0.0615(3)
C5 C 0.6353(7) 0.1727(3) -0.0114(3)
C6 C 0.5030(7) 0.1849(2) 0.0406(3)
C7 C 0.1514(5) 0.0401(2) -0.0072(2)
C8 C 0.2679(8) 0.0828(3) 0.2693(3)
C9 C 0.391(1) 0.1497(5) 0.2644(4)
C10 C 0.409(2) 0.1888(7) 0.3360(4)
H1 H 0.294(5) 0.051(2) 0.307(2)
H2 H 0.12(2) 0.090(7) 0.292(6)
H3 H 0.32(3) 0.18(1) 0.23(1)
H4 H 0.50(2) 0.139(8) 0.243(8)
H5 H 0.45(3) 0.17(1) 0.36(1)
H6 H 0.25(3) 0.21(1) 0.36(1)
H7 H 0.48(4) 0.26(1) 0.32(1)
H8 H 0.44(1) 0.034(5) -0.099(5)
H9 H 0.71(1) 0.111(5) -0.103(5)
H10 H 0.72(1) 0.198(5) -0.007(6)
H11 H 0.526(6) 0.217(2) 0.073(3)
C7D C -0.1514(5) -0.0401(2) 0.0072(2)
N1D N -0.0385(5) -0.0456(2) -0.0531(2)
P1D P -0.0817(1) -0.09813(5) -0.12667(5)
S1D S 0.1231(2) -0.14054(9) -0.17405(7)
S2D S -0.2492(2) -0.03100(9) -0.18637(7)
C8D C -0.2679(8) -0.0828(3) -0.2693(3)
C9D C -0.391(1) -0.1497(5) -0.2644(4)
C10D C -0.409(2) -0.1888(7) -0.3360(4)
H5D H -0.45(3) -0.17(1) -0.36(1)
H6D H -0.25(3) -0.21(1) -0.36(1)
H7D H -0.48(4) -0.26(1) -0.32(1)
H3D H -0.32(3) -0.18(1) -0.23(1)
H4D H -0.50(2) -0.139(8) -0.243(8)
H1D H -0.294(5) -0.051(2) -0.307(2)
H2D H -0.12(2) -0.090(7) -0.292(6)
O1D O -0.2077(5) -0.1594(2) -0.0904(2)
C1D C -0.3445(6) -0.1419(2) -0.0413(2)
C2D C -0.3185(5) -0.0843(2) 0.0075(2)
C3D C -0.4577(6) -0.0715(2) 0.0580(2)
C4D C -0.6148(6) -0.1142(3) 0.0615(3)
C5D C -0.6353(7) -0.1727(3) 0.0114(3)
C6D C -0.5030(7) -0.1849(2) -0.0406(3)
H11D H -0.526(6) -0.217(2) -0.073(3)
H10D H -0.72(1) -0.198(5) 0.007(6)
H9D H -0.71(1) -0.111(5) 0.103(5)
H8D H -0.44(1) -0.034(5) 0.099(5)
N2D N 0.1183(5) -0.0009(2) -0.0589(2)
loop_
_geom_bond_atom_site_label_1
_geom_bond_atom_site_label_2
_geom_bond_site_symmetry_1
_geom_bond_site_symmetry_2
P1 S1 1_555 1_555
S2 P1 1_555 1_555
O1 P1 1_555 1_555
N1 P1 1_555 1_555
N2 N1 1_555 1_555
C1 O1 1_555 1_555
C2 C1 1_555 1_555
C3 C2 1_555 1_555
C4 C3 1_555 1_555
C5 C4 1_555 1_555
C6 C1 1_555 1_555
C7 N1 1_555 1_555
C8 S2 1_555 1_555
C9 C8 1_555 1_555
C10 C9 1_555 1_555
H1 C8 1_555 1_555
H2 C8 1_555 1_555
H3 C9 1_555 1_555
H4 C9 1_555 1_555
H5 C10 1_555 1_555
H6 C10 1_555 1_555
H7 C10 1_555 1_555
H8 C3 1_555 1_555
H9 C4 1_555 1_555
H10 C5 1_555 1_555
H11 C6 1_555 1_555
C7D N2 1_555 1_555
N1D C7D 1_555 1_555
P1D N1D 1_555 1_555
S1D P1D 1_555 1_555
S2D P1D 1_555 1_555
C8D S2D 1_555 1_555
C9D C8D 1_555 1_555
C10D C9D 1_555 1_555
H5D C10D 1_555 1_555
H6D C10D 1_555 1_555
H7D C10D 1_555 1_555
H3D C9D 1_555 1_555
H4D C9D 1_555 1_555
H1D C8D 1_555 1_555
H2D C8D 1_555 1_555
O1D P1D 1_555 1_555
C1D O1D 1_555 1_555
C2D C7D 1_555 1_555
C3D C2D 1_555 1_555
C4D C3D 1_555 1_555
C5D C4D 1_555 1_555
C6D C1D 1_555 1_555
H11D C6D 1_555 1_555
H10D C5D 1_555 1_555
H9D C4D 1_555 1_555
H8D C3D 1_555 1_555
N2D C7 1_555 1_555
C2 C7 1_555 1_555
C5 C6 1_555 1_555
N1D N2D 1_555 1_555
C1D C2D 1_555 1_555
C5D C6D 1_555 1_555

#END
