
#######################################################################
#
#                 Cambridge Crystallographic Data Centre
#                                CCDC 
#
#######################################################################
#
# If this CIF has been generated from an entry in the Cambridge 
# Structural Database, then it will include bibliographic, chemical, 
# crystal, experimental, refinement or atomic coordinate data resulting 
# from the CCDC's data processing and validation procedures.
#
#######################################################################

data_JAKZAW10
_chemical_formula_moiety         'C22 H26 N4 O2 P2 S4'
_chemical_name_systematic        
6,13-bis(Butylthio)-5,12-dioxa-6,13-dithioxo-6a,7,13a,14-tetra-aza-6,13-diphosphadibenz(a,h)anthracene
_symmetry_cell_setting           monoclinic
_symmetry_space_group_name_H-M   'A 2/a'
_symmetry_Int_Tables_number      15
_space_group_name_Hall           '-A 2yn'
loop_
_symmetry_equiv_pos_site_id
_symmetry_equiv_pos_as_xyz
1 x,y,z
2 x,1/2+y,1/2+z
3 1/2-x,y,-z
4 1/2-x,1/2+y,1/2-z
5 -x,-y,-z
6 -x,1/2-y,1/2-z
7 1/2+x,-y,z
8 1/2+x,1/2-y,1/2+z
_cell_length_a                   14.941(5)
_cell_length_b                   7.050(1)
_cell_length_c                   24.832(4)
_cell_angle_alpha                90
_cell_angle_beta                 90.48(2)
_cell_angle_gamma                90
_cell_volume                     2615.56
_cell_formula_units_Z            4
loop_
_atom_site_label
_atom_site_type_symbol
_atom_site_fract_x
_atom_site_fract_y
_atom_site_fract_z
P1 P 0.3136(1) 0.3560(3) 0.61388(8)
S1 S 0.2566(1) 0.5198(3) 0.66251(9)
S2 S 0.3021(1) 0.0692(3) 0.62594(8)
O1 O 0.4166(3) 0.4089(7) 0.6078(2)
N1 N 0.2821(3) 0.3755(8) 0.5496(2)
N2 N 0.1896(3) 0.3255(8) 0.5428(2)
C1 C 0.4689(4) 0.3294(9) 0.5674(3)
C2 C 0.4329(4) 0.295(1) 0.5167(3)
C3 C 0.4899(4) 0.233(1) 0.4772(3)
C4 C 0.5795(4) 0.203(1) 0.4878(3)
C5 C 0.6126(4) 0.238(1) 0.5389(3)
C6 C 0.5585(4) 0.300(1) 0.5782(3)
C7 C 0.3381(4) 0.3309(8) 0.5060(3)
C8 C 0.3280(4) 0.046(1) 0.6973(3)
C9 C 0.4255(5) 0.061(1) 0.7113(3)
C10 C 0.4856(3) -0.077(1) 0.6828(4)
C11 C 0.5823(6) -0.056(2) 0.7006(5)
H1 H 0.467(4) 0.211(9) 0.442(3)
H2 H 0.616(4) 0.158(9) 0.461(3)
H3 H 0.674(4) 0.219(9) 0.546(3)
H4 H 0.581(4) 0.325(9) 0.613(3)
H5 H 0.307(4) -0.077(9) 0.709(3)
H6 H 0.296(4) 0.142(9) 0.715(3)
H7 H 0.431(4) 0.040(9) 0.749(3)
H8 H 0.444(4) 0.187(9) 0.702(3)
H9 H 0.466(4) -0.203(9) 0.690(3)
H10 H 0.481(4) -0.054(9) 0.645(3)
H11 H 0.616(4) 0.006(9) 0.674(3)
H12 H 0.607(4) -0.173(9) 0.708(3)
H13 H 0.580(4) 0.047(9) 0.743(3)
C7B C 0.1619(4) 0.3309(8) 0.4940(3)
N2B N 0.3104(3) 0.3255(8) 0.4572(2)
N1B N 0.2179(3) 0.3755(8) 0.4504(2)
C2B C 0.0671(4) 0.295(1) 0.4833(3)
P1B P 0.1864(1) 0.3560(3) 0.38612(8)
C1B C 0.0311(4) 0.3294(9) 0.4326(3)
C3B C 0.0101(4) 0.233(1) 0.5228(3)
S1B S 0.2434(1) 0.5198(3) 0.33749(9)
S2B S 0.1979(1) 0.0692(3) 0.37406(8)
O1B O 0.0834(3) 0.4089(7) 0.3922(2)
C6B C -0.0585(4) 0.300(1) 0.4218(3)
C4B C -0.0795(4) 0.203(1) 0.5122(3)
H1B H 0.033(4) 0.211(9) 0.558(3)
C8B C 0.1720(4) 0.046(1) 0.3027(3)
C5B C -0.1126(4) 0.238(1) 0.4611(3)
H4B H -0.081(4) 0.325(9) 0.387(3)
H2B H -0.116(4) 0.158(9) 0.539(3)
C9B C 0.0745(5) 0.061(1) 0.2887(3)
H5B H 0.193(4) -0.077(9) 0.291(3)
H6B H 0.204(4) 0.142(9) 0.285(3)
H3B H -0.174(4) 0.219(9) 0.454(3)
C10B C 0.0144(3) -0.077(1) 0.3172(4)
H7B H 0.069(4) 0.040(9) 0.251(3)
H8B H 0.056(4) 0.187(9) 0.298(3)
C11B C -0.0823(6) -0.056(2) 0.2994(5)
H9B H 0.034(4) -0.203(9) 0.310(3)
H10B H 0.019(4) -0.054(9) 0.355(3)
H11B H -0.116(4) 0.006(9) 0.326(3)
H12B H -0.107(4) -0.173(9) 0.292(3)
H13B H -0.080(4) 0.047(9) 0.257(3)
loop_
_geom_bond_atom_site_label_1
_geom_bond_atom_site_label_2
_geom_bond_site_symmetry_1
_geom_bond_site_symmetry_2
P1 S1 1_555 1_555
S2 P1 1_555 1_555
O1 P1 1_555 1_555
N1 P1 1_555 1_555
N2 N1 1_555 1_555
C1 O1 1_555 1_555
C2 C1 1_555 1_555
C3 C2 1_555 1_555
C4 C3 1_555 1_555
C5 C4 1_555 1_555
C6 C1 1_555 1_555
C7 N1 1_555 1_555
C8 S2 1_555 1_555
C9 C8 1_555 1_555
C10 C9 1_555 1_555
C11 C10 1_555 1_555
H1 C3 1_555 1_555
H2 C4 1_555 1_555
H3 C5 1_555 1_555
H4 C6 1_555 1_555
H5 C8 1_555 1_555
H6 C8 1_555 1_555
H7 C9 1_555 1_555
H8 C9 1_555 1_555
H9 C10 1_555 1_555
H10 C10 1_555 1_555
H11 C11 1_555 1_555
H12 C11 1_555 1_555
H13 C11 1_555 1_555
C7B N2 1_555 1_555
N2B C7 1_555 1_555
N1B C7B 1_555 1_555
C2B C7B 1_555 1_555
P1B N1B 1_555 1_555
C1B C2B 1_555 1_555
C3B C2B 1_555 1_555
S1B P1B 1_555 1_555
S2B P1B 1_555 1_555
O1B P1B 1_555 1_555
C6B C1B 1_555 1_555
C4B C3B 1_555 1_555
H1B C3B 1_555 1_555
C8B S2B 1_555 1_555
C5B C6B 1_555 1_555
H4B C6B 1_555 1_555
H2B C4B 1_555 1_555
C9B C8B 1_555 1_555
H5B C8B 1_555 1_555
H6B C8B 1_555 1_555
H3B C5B 1_555 1_555
C10B C9B 1_555 1_555
H7B C9B 1_555 1_555
H8B C9B 1_555 1_555
C11B C10B 1_555 1_555
H9B C10B 1_555 1_555
H10B C10B 1_555 1_555
H11B C11B 1_555 1_555
H12B C11B 1_555 1_555
H13B C11B 1_555 1_555
C2 C7 1_555 1_555
C5 C6 1_555 1_555
N2B N1B 1_555 1_555
C1B O1B 1_555 1_555
C4B C5B 1_555 1_555

#END
