
#######################################################################
#
#                 Cambridge Crystallographic Data Centre
#                                CCDC 
#
#######################################################################
#
# If this CIF has been generated from an entry in the Cambridge 
# Structural Database, then it will include bibliographic, chemical, 
# crystal, experimental, refinement or atomic coordinate data resulting 
# from the CCDC's data processing and validation procedures.
#
#######################################################################

data_JALBUW
_chemical_name_common            
'(E)-(2-(3-chlorophenyl)-1 fluorovinyl)diphenyl phosphine borane'
_chemical_formula_moiety         'C20 H18 B1 Cl1 F1 P1'
_chemical_name_systematic        
(E)-((2-(3-chlorophenyl)-1-fluoroethenyl)(diphenyl)phosphane)(trihydrido)boron
_symmetry_cell_setting           monoclinic
_symmetry_space_group_name_H-M   'P 21/n'
_symmetry_Int_Tables_number      14
_space_group_name_Hall           '-P 2yn'
loop_
_symmetry_equiv_pos_site_id
_symmetry_equiv_pos_as_xyz
1 x,y,z
2 1/2-x,1/2+y,1/2-z
3 -x,-y,-z
4 1/2+x,1/2-y,1/2+z
_cell_length_a                   11.8720(4)
_cell_length_b                   12.1211(4)
_cell_length_c                   13.7228(5)
_cell_angle_alpha                90
_cell_angle_beta                 112.1550(13)
_cell_angle_gamma                90
_cell_volume                     1828.93
_exptl_crystal_colour            colorless
_exptl_crystal_description       block
_cell_formula_units_Z            4
loop_
_atom_site_label
_atom_site_type_symbol
_atom_site_fract_x
_atom_site_fract_y
_atom_site_fract_z
P1 P 0.34576(2) 0.21246(2) 0.07137(2)
Cl1 Cl -0.23863(3) 0.21751(3) 0.14876(3)
C1 C 0.19168(10) 0.21585(9) 0.06712(9)
C2 C 0.51113(10) 0.05100(10) 0.17532(10)
C3 C 0.09976(10) 0.16087(10) -0.00293(9)
C4 C -0.18995(10) 0.17794(9) 0.04918(10)
C5 C 0.42763(10) 0.12715(9) 0.18384(9)
C6 C 0.51492(11) 0.37261(10) 0.18310(10)
C7 C -0.06741(10) 0.18571(10) 0.06695(9)
C8 C -0.02741(10) 0.15314(9) -0.01264(9)
C9 C -0.27491(11) 0.13984(10) -0.04496(10)
C10 C -0.23518(11) 0.10617(11) -0.12316(10)
C11 C -0.11242(11) 0.11133(10) -0.10693(9)
C12 C 0.40244(10) 0.35125(9) 0.10421(9)
C13 C 0.40559(14) 0.13270(11) 0.27671(10)
C14 C 0.46507(16) 0.06111(12) 0.35877(11)
C15 C 0.54705(13) -0.01570(11) 0.34918(10)
C16 C 0.55970(13) 0.48011(11) 0.20087(11)
C17 C 0.57066(12) -0.02040(11) 0.25809(11)
C18 C 0.49233(16) 0.56576(13) 0.13964(14)
C19 C 0.38215(19) 0.54408(14) 0.06009(17)
C20 C 0.33661(16) 0.43735(13) 0.04171(15)
B1 B 0.34945(12) 0.16213(12) -0.05993(11)
F1 F 0.17565(7) 0.27761(8) 0.14358(7)
H1 H 0.1214(15) 0.1229(14) -0.0560(13)
H2 H -0.0137(16) 0.2119(14) 0.1364(14)
H3 H -0.3611(15) 0.1396(14) -0.0515(13)
H4 H -0.0858(15) 0.0897(14) -0.1621(14)
H5 H -0.2905(17) 0.0791(16) -0.1869(15)
H6 H 0.5643(16) 0.3139(15) 0.2252(14)
H7 H 0.6365(18) 0.4949(17) 0.2521(16)
H8 H 0.259(2) 0.4206(19) -0.0125(17)
H9 H 0.523(2) 0.640(2) 0.1518(17)
H10 H 0.336(2) 0.604(2) 0.0166(19)
H11 H 0.5266(16) 0.0468(15) 0.1130(14)
H12 H 0.5870(18) -0.0660(17) 0.4044(16)
H13 H 0.6240(17) -0.0730(16) 0.2519(15)
H14 H 0.3524(19) 0.1809(18) 0.2833(16)
H15 H 0.453(2) 0.068(2) 0.4207(19)
H16 H 0.3120(17) 0.0761(16) -0.0710(15)
H17 H 0.4453(17) 0.1666(16) -0.0527(15)
H18 H 0.2872(17) 0.2195(15) -0.1153(15)
loop_
_geom_bond_atom_site_label_1
_geom_bond_atom_site_label_2
_geom_bond_site_symmetry_1
_geom_bond_site_symmetry_2
P1 C1 1_555 1_555
Cl1 C4 1_555 1_555
C1 C3 1_555 1_555
C2 C5 1_555 1_555
C3 C8 1_555 1_555
C4 C7 1_555 1_555
C5 P1 1_555 1_555
C6 C12 1_555 1_555
C7 C8 1_555 1_555
C8 C11 1_555 1_555
C9 C4 1_555 1_555
C10 C9 1_555 1_555
C11 C10 1_555 1_555
C12 P1 1_555 1_555
C13 C5 1_555 1_555
C14 C13 1_555 1_555
C15 C14 1_555 1_555
C16 C6 1_555 1_555
C17 C2 1_555 1_555
C18 C16 1_555 1_555
C19 C18 1_555 1_555
C20 C12 1_555 1_555
B1 P1 1_555 1_555
F1 C1 1_555 1_555
H1 C3 1_555 1_555
H2 C7 1_555 1_555
H3 C9 1_555 1_555
H4 C11 1_555 1_555
H5 C10 1_555 1_555
H6 C6 1_555 1_555
H7 C16 1_555 1_555
H8 C20 1_555 1_555
H9 C18 1_555 1_555
H10 C19 1_555 1_555
H11 C2 1_555 1_555
H12 C15 1_555 1_555
H13 C17 1_555 1_555
H14 C13 1_555 1_555
H15 C14 1_555 1_555
H16 B1 1_555 1_555
H17 B1 1_555 1_555
H18 B1 1_555 1_555
C15 C17 1_555 1_555
C19 C20 1_555 1_555

#END
