
#######################################################################
#
#                 Cambridge Crystallographic Data Centre
#                                CCDC 
#
#######################################################################
#
# If this CIF has been generated from an entry in the Cambridge 
# Structural Database, then it will include bibliographic, chemical, 
# crystal, experimental, refinement or atomic coordinate data resulting 
# from the CCDC's data processing and validation procedures.
#
#######################################################################

data_JALCEE
_chemical_formula_moiety         'C21 H30 N1 O3 1+,Br1 1-'
_chemical_name_systematic        'Finetianine hydrobomide'
_symmetry_cell_setting           orthorhombic
_symmetry_space_group_name_H-M   'P 21 21 21'
_symmetry_Int_Tables_number      19
_space_group_name_Hall           'P 2ac 2ab'
loop_
_symmetry_equiv_pos_site_id
_symmetry_equiv_pos_as_xyz
1 x,y,z
2 1/2+x,1/2-y,-z
3 -x,1/2+y,1/2-z
4 1/2-x,-y,1/2+z
_cell_length_a                   9.987(2)
_cell_length_b                   13.643(1)
_cell_length_c                   14.178(4)
_cell_angle_alpha                90
_cell_angle_beta                 90
_cell_angle_gamma                90
_cell_volume                     1931.79
_cell_formula_units_Z            4
loop_
_atom_site_label
_atom_site_type_symbol
_atom_site_fract_x
_atom_site_fract_y
_atom_site_fract_z
Br1 Br 0.55993(6) 0.77912(4) 1.03537(4)
O1 O 0.8832(4) 0.2582(3) 1.0522(2)
O2 O 0.5444(4) 0.5184(2) 1.0416(2)
O3 O 0.7836(3) 0.3108(3) 0.7041(2)
N1 N 0.6052(4) 0.6710(3) 0.8412(3)
C1 C 0.4834(5) 0.4902(3) 0.9539(3)
C2 C 0.3606(5) 0.5537(4) 0.9346(4)
C3 C 0.3102(5) 0.5445(4) 0.8339(4)
C4 C 0.4194(5) 0.5645(4) 0.7615(3)
C5 C 0.5294(5) 0.4863(3) 0.7713(3)
C6 C 0.6504(5) 0.5075(4) 0.7072(3)
C7 C 0.7629(5) 0.5350(3) 0.7789(3)
C8 C 0.8160(4) 0.4415(3) 0.8251(3)
C9 C 0.6899(5) 0.4024(3) 0.8800(3)
C10 C 0.5891(4) 0.4882(3) 0.8730(3)
C11 C 0.7247(5) 0.3655(4) 0.9795(3)
C12 C 0.8606(6) 0.3182(3) 0.9902(3)
C13 C 0.9672(5) 0.3516(3) 0.9220(3)
C14 C 0.9340(5) 0.4579(3) 0.8925(4)
C15 C 0.8779(4) 0.3615(4) 0.7608(3)
C16 C 0.9468(4) 0.2946(3) 0.8316(3)
C17 C 0.9721(6) 0.2000(4) 0.8181(3)
C18 C 0.3578(6) 0.5619(5) 0.6619(4)
C19 C 0.4854(5) 0.6666(3) 0.7728(3)
C20 C 0.6803(5) 0.5772(3) 0.8611(3)
C21 C 0.7001(6) 0.7515(3) 0.8128(4)
loop_
_geom_bond_atom_site_label_1
_geom_bond_atom_site_label_2
_geom_bond_site_symmetry_1
_geom_bond_site_symmetry_2
O1 C12 1_555 1_555
O2 C1 1_555 1_555
O3 C15 1_555 1_555
N1 C19 1_555 1_555
C1 C2 1_555 1_555
C2 C3 1_555 1_555
C3 C4 1_555 1_555
C4 C5 1_555 1_555
C5 C6 1_555 1_555
C6 C7 1_555 1_555
C7 C8 1_555 1_555
C8 C9 1_555 1_555
C9 C10 1_555 1_555
C10 C1 1_555 1_555
C11 C9 1_555 1_555
C12 C11 1_555 1_555
C13 C12 1_555 1_555
C14 C8 1_555 1_555
C15 C8 1_555 1_555
C16 C13 1_555 1_555
C17 C16 1_555 1_555
C18 C4 1_555 1_555
C19 C4 1_555 1_555
C20 N1 1_555 1_555
C21 N1 1_555 1_555
C5 C10 1_555 1_555
C7 C20 1_555 1_555
C10 C20 1_555 1_555
C13 C14 1_555 1_555
C15 C16 1_555 1_555

#END
