
#######################################################################
#
#                 Cambridge Crystallographic Data Centre
#                                CCDC 
#
#######################################################################
#
# If this CIF has been generated from an entry in the Cambridge 
# Structural Database, then it will include bibliographic, chemical, 
# crystal, experimental, refinement or atomic coordinate data resulting 
# from the CCDC's data processing and validation procedures.
#
#######################################################################

data_JALCAA
_chemical_formula_moiety         'C21 H29 N1 O3'
_chemical_name_systematic        Finetianine
_symmetry_cell_setting           orthorhombic
_symmetry_space_group_name_H-M   'P 21 21 21'
_symmetry_Int_Tables_number      19
_space_group_name_Hall           'P 2ac 2ab'
loop_
_symmetry_equiv_pos_site_id
_symmetry_equiv_pos_as_xyz
1 x,y,z
2 1/2+x,1/2-y,-z
3 -x,1/2+y,1/2-z
4 1/2-x,-y,1/2+z
_cell_length_a                   9.786(2)
_cell_length_b                   13.420(2)
_cell_length_c                   14.231(1)
_cell_angle_alpha                90
_cell_angle_beta                 90
_cell_angle_gamma                90
_cell_volume                     1868.93
_chemical_melting_point          238-240deg.C
_cell_formula_units_Z            4
loop_
_atom_site_label
_atom_site_type_symbol
_atom_site_fract_x
_atom_site_fract_y
_atom_site_fract_z
O1 O 0.1423(3) 0.2195(2) 0.5124(1)
O2 O -0.2514(2) 0.2920(1) 0.3059(1)
O3 O 0.1206(2) -0.0699(2) 0.3085(2)
N1 N -0.1867(3) 0.1949(2) 0.0813(2)
C1 C -0.2866(3) 0.1892(2) 0.2860(2)
C2 C -0.4122(3) 0.1906(3) 0.2237(2)
C3 C -0.4421(3) 0.0882(3) 0.1829(3)
C4 C -0.3187(3) 0.0434(2) 0.1322(2)
C5 C -0.2007(3) 0.0319(2) 0.2018(2)
C6 C -0.0660(3) 0.0010(2) 0.1512(2)
C7 C 0.0193(3) 0.0963(2) 0.1527(2)
C8 C 0.0862(3) 0.1060(2) 0.2499(2)
C9 C -0.0417(3) 0.1180(2) 0.3153(2)
C10 C -0.1622(3) 0.1346(2) 0.2450(2)
C11 C -0.0192(3) 0.2003(2) 0.3893(2)
C12 C 0.1214(4) 0.2003(2) 0.4301(2)
C13 C 0.2355(3) 0.1783(2) 0.3614(2)
C14 C 0.1847(3) 0.1942(2) 0.2610(2)
C15 C 0.1841(3) 0.0209(2) 0.2828(2)
C16 C 0.2596(4) 0.0668(3) 0.3643(2)
C17 C 0.3285(5) 0.0186(3) 0.4286(3)
C18 C -0.3631(4) -0.0568(3) 0.0907(3)
C19 C -0.2691(3) 0.1102(3) 0.0513(2)
C20 C -0.0914(3) 0.1791(2) 0.1584(2)
C21 C -0.1245(4) 0.2463(3) 0.0019(2)
loop_
_geom_bond_atom_site_label_1
_geom_bond_atom_site_label_2
_geom_bond_site_symmetry_1
_geom_bond_site_symmetry_2
O1 C12 1_555 1_555
O2 C1 1_555 1_555
O3 C15 1_555 1_555
N1 C19 1_555 1_555
C1 C2 1_555 1_555
C2 C3 1_555 1_555
C3 C4 1_555 1_555
C4 C5 1_555 1_555
C5 C6 1_555 1_555
C6 C7 1_555 1_555
C7 C8 1_555 1_555
C8 C9 1_555 1_555
C9 C10 1_555 1_555
C10 C1 1_555 1_555
C11 C9 1_555 1_555
C12 C11 1_555 1_555
C13 C12 1_555 1_555
C14 C8 1_555 1_555
C15 C8 1_555 1_555
C16 C13 1_555 1_555
C17 C16 1_555 1_555
C18 C4 1_555 1_555
C19 C4 1_555 1_555
C20 N1 1_555 1_555
C21 N1 1_555 1_555
C5 C10 1_555 1_555
C7 C20 1_555 1_555
C10 C20 1_555 1_555
C13 C14 1_555 1_555
C15 C16 1_555 1_555

#END
