
#######################################################################
#
#                 Cambridge Crystallographic Data Centre
#                                CCDC 
#
#######################################################################
#
# If this CIF has been generated from an entry in the Cambridge 
# Structural Database, then it will include bibliographic, chemical, 
# crystal, experimental, refinement or atomic coordinate data resulting 
# from the CCDC's data processing and validation procedures.
#
#######################################################################

data_JALDAB
_chemical_formula_moiety         'C15 H19 N1 O1'
_chemical_name_systematic        3-Piperidino-1-phenyl-but-2-en-1-one
_symmetry_cell_setting           monoclinic
_symmetry_space_group_name_H-M   'P 21/c'
_symmetry_Int_Tables_number      14
_space_group_name_Hall           '-P 2ybc'
loop_
_symmetry_equiv_pos_site_id
_symmetry_equiv_pos_as_xyz
1 x,y,z
2 -x,1/2+y,1/2-z
3 -x,-y,-z
4 x,1/2-y,1/2+z
_cell_length_a                   10.828(2)
_cell_length_b                   10.811(3)
_cell_length_c                   11.180(2)
_cell_angle_alpha                90
_cell_angle_beta                 95.20(1)
_cell_angle_gamma                90
_cell_volume                     1303.36
_chemical_melting_point          99deg.C
_cell_formula_units_Z            4
loop_
_atom_site_label
_atom_site_type_symbol
_atom_site_fract_x
_atom_site_fract_y
_atom_site_fract_z
C1 C 0.265(2) -0.052(2) 0.872(2)
C2 C 0.131(2) -0.048(2) 0.854(2)
C3 C 0.066(2) -0.126(2) 0.928(2)
C4 C 0.127(2) -0.193(2) 1.023(2)
C5 C 0.255(2) -0.190(2) 1.038(2)
C6 C 0.329(3) -0.122(2) 0.968(2)
C7 C 0.331(2) 0.031(2) 0.781(1)
O1 O 0.273(1) 0.115(1) 0.730(1)
C8 C 0.457(2) -0.010(2) 0.773(2)
C9 C 0.538(2) 0.055(2) 0.709(2)
C10 C 0.511(2) 0.182(2) 0.647(2)
N1 N 0.653(1) 0.012(2) 0.692(2)
C11 C 0.692(2) -0.124(2) 0.736(2)
C12 C 0.748(2) -0.190(2) 0.640(2)
C13 C 0.860(2) -0.116(2) 0.597(2)
C14 C 0.808(2) 0.020(2) 0.555(2)
C15 C 0.761(2) 0.081(2) 0.654(2)
loop_
_geom_bond_atom_site_label_1
_geom_bond_atom_site_label_2
_geom_bond_site_symmetry_1
_geom_bond_site_symmetry_2
C1 C2 1_555 1_555
C2 C3 1_555 1_555
C3 C4 1_555 1_555
C4 C5 1_555 1_555
C5 C6 1_555 1_555
C6 C1 1_555 1_555
C7 C1 1_555 1_555
O1 C7 1_555 1_555
C8 C7 1_555 1_555
C9 C8 1_555 1_555
C10 C9 1_555 1_555
N1 C9 1_555 1_555
C11 N1 1_555 1_555
C12 C11 1_555 1_555
C13 C12 1_555 1_555
C14 C13 1_555 1_555
C15 N1 1_555 1_555
C14 C15 1_555 1_555

#END
