
#######################################################################
#
#                 Cambridge Crystallographic Data Centre
#                                CCDC 
#
#######################################################################
#
# If this CIF has been generated from an entry in the Cambridge 
# Structural Database, then it will include bibliographic, chemical, 
# crystal, experimental, refinement or atomic coordinate data resulting 
# from the CCDC's data processing and validation procedures.
#
#######################################################################

data_JALDOS
_chemical_formula_moiety         'C23 H18 N2 O1 S1,C10 H2 N4'
_chemical_name_systematic        
'benzene-1,2,4,5-tetracarbonitrile 1-(5-(9-anthryl)-3-(2-thienyl)-4,5-dihydro-1H-pyrazol-1-yl)ethanone'
_symmetry_cell_setting           monoclinic
_symmetry_space_group_name_H-M   'P 21/c'
_symmetry_Int_Tables_number      14
_space_group_name_Hall           '-P 2ybc'
loop_
_symmetry_equiv_pos_site_id
_symmetry_equiv_pos_as_xyz
1 x,y,z
2 -x,1/2+y,1/2-z
3 -x,-y,-z
4 x,1/2-y,1/2+z
_cell_length_a                   19.549(4)
_cell_length_b                   7.3430(15)
_cell_length_c                   19.666(4)
_cell_angle_alpha                90
_cell_angle_beta                 93.12(3)
_cell_angle_gamma                90
_cell_volume                     2818.84
_exptl_crystal_colour            orange
_exptl_crystal_description       Rod
_cell_formula_units_Z            4
loop_
_atom_site_label
_atom_site_type_symbol
_atom_site_fract_x
_atom_site_fract_y
_atom_site_fract_z
S1 S 1.10263(7) 1.1407(2) 0.13367(7)
O1 O 0.85382(16) 0.5557(5) 0.13717(18)
N1 N 0.91077(18) 0.8205(5) 0.13544(18)
C1 C 0.7902(2) 0.9548(6) 0.1247(2)
N2 N 0.97527(17) 0.9049(5) 0.13432(18)
C2 C 0.7280(2) 0.9227(7) 0.0867(2)
C3 C 0.7230(2) 0.8650(7) 0.0178(3)
H1 H 0.7631 0.8437 -0.0043
C4 C 0.6619(3) 0.8396(8) -0.0170(3)
H2 H 0.6604 0.8027 -0.0623
C5 C 0.6010(3) 0.8696(9) 0.0160(3)
H3 H 0.5591 0.8528 -0.0079
C6 C 0.6021(3) 0.9213(8) 0.0807(3)
H4 H 0.5609 0.9396 0.1013
C7 C 0.6652(2) 0.9494(7) 0.1194(3)
C8 C 0.6656(2) 1.0126(7) 0.1855(3)
H5 H 0.6244 1.0242 0.2066
C9 C 0.7264(3) 1.0591(7) 0.2211(3)
C10 C 0.7259(3) 1.1313(8) 0.2880(3)
H6 H 0.6847 1.1373 0.3093
C11 C 0.7841(3) 1.1921(8) 0.3217(3)
H7 H 0.7825 1.2457 0.3644
C12 C 0.8466(3) 1.1721(8) 0.2905(2)
H8 H 0.8866 1.2137 0.3131
C13 C 0.8505(2) 1.0940(7) 0.2283(2)
H9 H 0.8930 1.0819 0.2099
C14 C 0.7906(2) 1.0297(7) 0.1905(2)
C15 C 0.8577(2) 0.9164(7) 0.0909(2)
H10 H 0.8472 0.8395 0.0509
C16 C 0.8975(2) 1.0852(7) 0.0672(2)
H11 H 0.8965 1.0927 0.0179
H12 H 0.8790 1.1969 0.0851
C17 C 0.9693(2) 1.0487(6) 0.0969(2)
C18 C 1.0273(2) 1.1650(7) 0.0864(2)
C19 C 1.0314(2) 1.3001(7) 0.0392(2)
H13 H 0.9955 1.3324 0.0086
C20 C 1.0964(2) 1.3860(7) 0.0420(3)
H14 H 1.1083 1.4809 0.0137
C21 C 1.1391(2) 1.3130(7) 0.0910(2)
H15 H 1.1837 1.3529 0.1003
C22 C 0.9060(2) 0.6428(7) 0.1529(2)
C23 C 0.9653(2) 0.5601(6) 0.1924(2)
H16 H 1.0008 0.6494 0.1995
H17 H 0.9509 0.5185 0.2356
H18 H 0.9825 0.4589 0.1675
N3 N 0.5153(3) 0.6302(10) 0.2855(3)
N4 N 0.5647(3) 0.3452(10) -0.0420(3)
N5 N 0.7642(2) 0.3439(7) -0.0013(2)
N6 N 0.7179(3) 0.6489(8) 0.3215(3)
C24 C 0.5682(3) 0.4718(8) 0.1300(3)
H19 H 0.5210 0.4680 0.1213
C25 C 0.6119(3) 0.4239(8) 0.0792(3)
C26 C 0.6830(2) 0.4288(7) 0.0930(3)
C27 C 0.7091(2) 0.4815(7) 0.1564(3)
H20 H 0.7562 0.4832 0.1657
C28 C 0.6653(3) 0.5322(7) 0.2067(3)
C29 C 0.5951(3) 0.5246(9) 0.1927(3)
C30 C 0.5501(3) 0.5828(10) 0.2448(4)
C31 C 0.5853(3) 0.3806(10) 0.0110(3)
C32 C 0.7286(3) 0.3808(8) 0.0400(3)
C33 C 0.6940(3) 0.5957(9) 0.2721(3)
loop_
_geom_bond_atom_site_label_1
_geom_bond_atom_site_label_2
_geom_bond_site_symmetry_1
_geom_bond_site_symmetry_2
S1 C18 1_555 1_555
O1 C22 1_555 1_555
N1 N2 1_555 1_555
C1 C2 1_555 1_555
N2 C17 1_555 1_555
C2 C3 1_555 1_555
C3 H1 1_555 1_555
C4 C3 1_555 1_555
H2 C4 1_555 1_555
C5 C4 1_555 1_555
H3 C5 1_555 1_555
C6 C5 1_555 1_555
H4 C6 1_555 1_555
C7 C2 1_555 1_555
C8 C7 1_555 1_555
H5 C8 1_555 1_555
C9 C8 1_555 1_555
C10 C9 1_555 1_555
H6 C10 1_555 1_555
C11 C10 1_555 1_555
H7 C11 1_555 1_555
C12 C11 1_555 1_555
H8 C12 1_555 1_555
C13 C12 1_555 1_555
H9 C13 1_555 1_555
C14 C1 1_555 1_555
C15 N1 1_555 1_555
H10 C15 1_555 1_555
C16 C15 1_555 1_555
H11 C16 1_555 1_555
H12 C16 1_555 1_555
C17 C16 1_555 1_555
C18 C17 1_555 1_555
C19 C18 1_555 1_555
H13 C19 1_555 1_555
C20 C19 1_555 1_555
H14 C20 1_555 1_555
C21 S1 1_555 1_555
H15 C21 1_555 1_555
C22 N1 1_555 1_555
C23 C22 1_555 1_555
H16 C23 1_555 1_555
H17 C23 1_555 1_555
H18 C23 1_555 1_555
N3 C30 1_555 1_555
N4 C31 1_555 1_555
N5 C32 1_555 1_555
N6 C33 1_555 1_555
C24 H19 1_555 1_555
C25 C24 1_555 1_555
C26 C25 1_555 1_555
C27 C26 1_555 1_555
H20 C27 1_555 1_555
C28 C27 1_555 1_555
C29 C24 1_555 1_555
C30 C29 1_555 1_555
C31 C25 1_555 1_555
C32 C26 1_555 1_555
C33 C28 1_555 1_555
C1 C15 1_555 1_555
C6 C7 1_555 1_555
C9 C14 1_555 1_555
C13 C14 1_555 1_555
C20 C21 1_555 1_555
C28 C29 1_555 1_555

#END
