
#######################################################################
#
#                 Cambridge Crystallographic Data Centre
#                                CCDC 
#
#######################################################################
#
# If this CIF has been generated from an entry in the Cambridge 
# Structural Database, then it will include bibliographic, chemical, 
# crystal, experimental, refinement or atomic coordinate data resulting 
# from the CCDC's data processing and validation procedures.
#
#######################################################################

data_JALDEI
_chemical_formula_moiety         '2(C29 H22 N2 O1),C10 H2 N4'
_chemical_name_systematic        
'benzene-1,2,4,5-tetracarbonitrile bis(1-(5-(9-anthryl)-3-(2-naphthyl)-4,5-dihydro-1H-pyrazol-1-yl)ethanone)'
_symmetry_cell_setting           monoclinic
_symmetry_space_group_name_H-M   'P 21/c'
_symmetry_Int_Tables_number      14
_space_group_name_Hall           '-P 2ybc'
loop_
_symmetry_equiv_pos_site_id
_symmetry_equiv_pos_as_xyz
1 x,y,z
2 -x,1/2+y,1/2-z
3 -x,-y,-z
4 x,1/2-y,1/2+z
_cell_length_a                   15.821(3)
_cell_length_b                   17.653(4)
_cell_length_c                   9.6890(19)
_cell_angle_alpha                90
_cell_angle_beta                 93.57(3)
_cell_angle_gamma                90
_cell_volume                     2700.77
_exptl_crystal_colour            orange
_exptl_crystal_description       block
_cell_formula_units_Z            2
loop_
_atom_site_label
_atom_site_type_symbol
_atom_site_fract_x
_atom_site_fract_y
_atom_site_fract_z
O1 O 0.74785(16) -0.06161(13) 0.0624(3)
N1 N 0.65453(16) 0.00370(15) 0.1761(3)
C1 C 0.76923(19) 0.10294(17) 0.1553(3)
N2 N 0.57389(15) 0.01102(14) 0.2207(3)
C2 C 0.8540(2) 0.11941(17) 0.2051(3)
C3 C 0.8900(2) 0.0962(2) 0.3371(4)
H1 H 0.8582 0.0664 0.3937
C4 C 0.9690(3) 0.1167(2) 0.3812(4)
H2 H 0.9908 0.1005 0.4676
C5 C 1.0194(3) 0.1616(3) 0.3001(5)
H3 H 1.0734 0.1758 0.3335
C6 C 0.9894(2) 0.1844(2) 0.1738(5)
H4 H 1.0237 0.2132 0.1196
C7 C 0.9061(2) 0.16489(18) 0.1220(4)
C8 C 0.8747(2) 0.18846(18) -0.0077(4)
H5 H 0.9102 0.2148 -0.0639
C9 C 0.7923(2) 0.17387(18) -0.0559(4)
C10 C 0.7605(3) 0.19969(19) -0.1903(4)
H6 H 0.7971 0.2236 -0.2477
C11 C 0.6792(3) 0.1900(2) -0.2343(4)
H7 H 0.6600 0.2069 -0.3215
C12 C 0.6235(2) 0.1544(2) -0.1486(4)
H8 H 0.5668 0.1489 -0.1786
C13 C 0.6509(2) 0.12752(18) -0.0223(4)
H9 H 0.6121 0.1044 0.0324
C14 C 0.7372(2) 0.13356(16) 0.0294(3)
C15 C 0.71728(19) 0.05444(18) 0.2479(3)
H10 H 0.7563 0.0233 0.3063
C16 C 0.66027(19) 0.09858(19) 0.3422(3)
H11 H 0.6795 0.0928 0.4387
H12 H 0.6590 0.1520 0.3190
C17 C 0.5751(2) 0.06292(18) 0.3134(3)
C18 C 0.49786(19) 0.08358(18) 0.3804(3)
C19 C 0.4989(2) 0.14131(18) 0.4731(3)
H13 H 0.5490 0.1679 0.4923
C20 C 0.4257(2) 0.16204(19) 0.5413(3)
C21 C 0.4250(2) 0.2212(2) 0.6382(3)
H14 H 0.4744 0.2485 0.6600
C22 C 0.3525(3) 0.2392(2) 0.7010(4)
H15 H 0.3530 0.2783 0.7653
C23 C 0.2782(3) 0.1994(3) 0.6695(4)
H16 H 0.2294 0.2122 0.7128
C24 C 0.2760(2) 0.1419(2) 0.5757(4)
H17 H 0.2257 0.1159 0.5550
C25 C 0.3495(2) 0.12159(19) 0.5101(3)
C26 C 0.3505(2) 0.06223(19) 0.4129(3)
H18 H 0.3008 0.0354 0.3911
C27 C 0.4218(2) 0.04317(18) 0.3505(3)
H19 H 0.4207 0.0033 0.2877
C28 C 0.6742(2) -0.0518(2) 0.0877(4)
C29 C 0.6032(2) -0.09796(19) 0.0235(3)
H20 H 0.5506 -0.0810 0.0574
H21 H 0.6013 -0.0922 -0.0752
H22 H 0.6119 -0.1503 0.0470
N3 N 1.1469(2) 0.9710(2) 0.3418(3)
N4 N 0.9227(2) 0.8681(2) 0.2962(3)
C30 C 0.9214(2) 0.96530(19) -0.0163(4)
H23 H 0.8688 0.9419 -0.0273
C31 C 0.9722(2) 0.95401(19) 0.1039(3)
C32 C 1.0508(2) 0.9887(2) 0.1196(3)
C33 C 1.1041(2) 0.9783(2) 0.2438(4)
C34 C 0.9438(2) 0.9058(2) 0.2105(4)
N3B N 0.8531(2) 1.0290(2) -0.3418(3)
N4B N 1.0773(2) 1.1319(2) -0.2962(3)
C30B C 1.0786(2) 1.03470(19) 0.0163(4)
H23B H 1.1312 1.0581 0.0273
C31B C 1.0278(2) 1.04599(19) -0.1039(3)
C32B C 0.9492(2) 1.0113(2) -0.1196(3)
C33B C 0.8959(2) 1.0217(2) -0.2438(4)
C34B C 1.0562(2) 1.0942(2) -0.2105(4)
loop_
_geom_bond_atom_site_label_1
_geom_bond_atom_site_label_2
_geom_bond_site_symmetry_1
_geom_bond_site_symmetry_2
O1 C28 1_555 1_555
N1 N2 1_555 1_555
C1 C2 1_555 1_555
N2 C17 1_555 1_555
C2 C3 1_555 1_555
C3 H1 1_555 1_555
C4 C3 1_555 1_555
H2 C4 1_555 1_555
C5 C4 1_555 1_555
H3 C5 1_555 1_555
C6 C5 1_555 1_555
H4 C6 1_555 1_555
C7 C2 1_555 1_555
C8 C7 1_555 1_555
H5 C8 1_555 1_555
C9 C8 1_555 1_555
C10 C9 1_555 1_555
H6 C10 1_555 1_555
C11 C10 1_555 1_555
H7 C11 1_555 1_555
C12 C11 1_555 1_555
H8 C12 1_555 1_555
C13 C12 1_555 1_555
H9 C13 1_555 1_555
C14 C1 1_555 1_555
C15 N1 1_555 1_555
H10 C15 1_555 1_555
C16 C15 1_555 1_555
H11 C16 1_555 1_555
H12 C16 1_555 1_555
C17 C16 1_555 1_555
C18 C17 1_555 1_555
C19 C18 1_555 1_555
H13 C19 1_555 1_555
C20 C19 1_555 1_555
C21 C20 1_555 1_555
H14 C21 1_555 1_555
C22 C21 1_555 1_555
H15 C22 1_555 1_555
C23 C22 1_555 1_555
H16 C23 1_555 1_555
C24 C23 1_555 1_555
H17 C24 1_555 1_555
C25 C20 1_555 1_555
C26 C25 1_555 1_555
H18 C26 1_555 1_555
C27 C18 1_555 1_555
H19 C27 1_555 1_555
C28 N1 1_555 1_555
C29 C28 1_555 1_555
H20 C29 1_555 1_555
H21 C29 1_555 1_555
H22 C29 1_555 1_555
N3 C33 1_555 1_555
N4 C34 1_555 1_555
C30 H23 1_555 1_555
C31 C30 1_555 1_555
C32 C31 1_555 1_555
C33 C32 1_555 1_555
C34 C31 1_555 1_555
N3B C33B 1_555 1_555
N4B C34B 1_555 1_555
C30B C32 1_555 1_555
H23B C30B 1_555 1_555
C31B C30B 1_555 1_555
C32B C30 1_555 1_555
C33B C32B 1_555 1_555
C34B C31B 1_555 1_555
C1 C15 1_555 1_555
C6 C7 1_555 1_555
C9 C14 1_555 1_555
C13 C14 1_555 1_555
C24 C25 1_555 1_555
C26 C27 1_555 1_555
C31B C32B 1_555 1_555

#END
