
#######################################################################
#
#                 Cambridge Crystallographic Data Centre
#                                CCDC 
#
#######################################################################
#
# If this CIF has been generated from an entry in the Cambridge 
# Structural Database, then it will include bibliographic, chemical, 
# crystal, experimental, refinement or atomic coordinate data resulting 
# from the CCDC's data processing and validation procedures.
#
#######################################################################

data_JALLIS
_chemical_formula_moiety         'C14 H5 Br1 F4'
_chemical_name_systematic        1-Bromo-4-(phenylethynyl)tetrafluorobenzene
_symmetry_cell_setting           monoclinic
_symmetry_space_group_name_H-M   'P 21/n'
_symmetry_Int_Tables_number      14
_space_group_name_Hall           '-P 2yn'
loop_
_symmetry_equiv_pos_site_id
_symmetry_equiv_pos_as_xyz
1 x,y,z
2 1/2+x,1/2-y,1/2+z
3 -x,-y,-z
4 1/2-x,1/2+y,1/2-z
_cell_length_a                   12.7523(9)
_cell_length_b                   4.9660(4)
_cell_length_c                   18.3674(14)
_cell_angle_alpha                90
_cell_angle_beta                 93.231(2)
_cell_angle_gamma                90
_cell_volume                     1161.32
_exptl_crystal_colour            yellow
_exptl_crystal_description       plate
_chemical_melting_point          '373-374 K'
_cell_formula_units_Z            4
_exptl_crystal_recrystallization_method hexane
loop_
_atom_site_label
_atom_site_type_symbol
_atom_site_fract_x
_atom_site_fract_y
_atom_site_fract_z
Br1 Br 0.69382(3) -0.34602(8) 0.48020(2)
C1 C 0.6382(3) -0.0961(7) 0.41187(19)
C2 C 0.5318(3) -0.0483(8) 0.4033(2)
C3 C 0.4922(3) 0.1430(8) 0.35566(19)
C4 C 0.5574(3) 0.3017(7) 0.31458(19)
C5 C 0.6646(3) 0.2485(7) 0.3235(2)
C6 C 0.7043(3) 0.0566(7) 0.3712(2)
C7 C 0.5161(3) 0.5047(8) 0.2653(2)
C8 C 0.4815(3) 0.6740(8) 0.2248(2)
C9 C 0.4396(3) 0.8793(7) 0.1764(2)
C10 C 0.3359(3) 0.9604(8) 0.1792(2)
H1 H 0.295(3) 0.889(8) 0.213(2)
C11 C 0.2963(3) 1.1618(9) 0.1331(2)
H2 H 0.228(3) 1.218(8) 0.136(2)
C12 C 0.3598(4) 1.2775(8) 0.0838(2)
H3 H 0.335(3) 1.415(8) 0.054(2)
C13 C 0.4624(4) 1.1968(8) 0.0797(2)
H4 H 0.503(3) 1.264(8) 0.046(2)
C14 C 0.5033(3) 0.9989(8) 0.1257(2)
H5 H 0.575(3) 0.951(7) 0.1250(19)
F1 F 0.46489(17) -0.1959(4) 0.44108(12)
F2 F 0.38823(16) 0.1801(5) 0.34857(12)
F3 F 0.73197(17) 0.3984(4) 0.28716(12)
F4 F 0.80864(16) 0.0194(5) 0.37863(12)
loop_
_geom_bond_atom_site_label_1
_geom_bond_atom_site_label_2
_geom_bond_site_symmetry_1
_geom_bond_site_symmetry_2
Br1 C1 1_555 1_555
C1 C2 1_555 1_555
C2 C3 1_555 1_555
C3 C4 1_555 1_555
C4 C5 1_555 1_555
C5 C6 1_555 1_555
C6 C1 1_555 1_555
C7 C4 1_555 1_555
C8 C7 1_555 1_555
C9 C8 1_555 1_555
C10 C9 1_555 1_555
H1 C10 1_555 1_555
C11 C10 1_555 1_555
H2 C11 1_555 1_555
C12 C11 1_555 1_555
H3 C12 1_555 1_555
C13 C12 1_555 1_555
H4 C13 1_555 1_555
C14 C9 1_555 1_555
H5 C14 1_555 1_555
F1 C2 1_555 1_555
F2 C3 1_555 1_555
F3 C5 1_555 1_555
F4 C6 1_555 1_555
C13 C14 1_555 1_555

#END
