
#######################################################################
#
#                 Cambridge Crystallographic Data Centre
#                                CCDC 
#
#######################################################################
#
# If this CIF has been generated from an entry in the Cambridge 
# Structural Database, then it will include bibliographic, chemical, 
# crystal, experimental, refinement or atomic coordinate data resulting 
# from the CCDC's data processing and validation procedures.
#
#######################################################################

data_JALNES
_chemical_formula_moiety         'C17 H17 N1 O3 S1'
_chemical_name_systematic        
5-(((4-methylphenyl)sulfonyl)methyl)-3-phenyl-4,5-dihydro-1,2-oxazole
_symmetry_cell_setting           monoclinic
_symmetry_space_group_name_H-M   'P 21/c'
_symmetry_Int_Tables_number      14
_space_group_name_Hall           '-P 2ybc'
loop_
_symmetry_equiv_pos_site_id
_symmetry_equiv_pos_as_xyz
1 x,y,z
2 -x,1/2+y,1/2-z
3 -x,-y,-z
4 x,1/2-y,1/2+z
_cell_length_a                   18.0767(10)
_cell_length_b                   10.7938(6)
_cell_length_c                   8.1475(5)
_cell_angle_alpha                90
_cell_angle_beta                 91.9760(10)
_cell_angle_gamma                90
_cell_volume                     1588.76
_exptl_crystal_colour            colorless
_exptl_crystal_description       plate
_cell_formula_units_Z            4
loop_
_atom_site_label
_atom_site_type_symbol
_atom_site_fract_x
_atom_site_fract_y
_atom_site_fract_z
N1 N 0.06169(8) 0.22026(14) 0.02278(18)
O1 O 0.26381(8) -0.03713(13) 0.34109(17)
O2 O 0.35178(8) 0.13694(16) 0.36745(19)
O3 O 0.13714(7) 0.21096(13) -0.01388(15)
S1 S 0.30001(3) 0.06647(5) 0.26847(6)
C1 C -0.08417(9) 0.21203(15) 0.1392(2)
H1 H -0.0721 0.2785 0.0725
C2 C -0.15499(10) 0.20093(18) 0.1944(2)
H2 H -0.1904 0.2601 0.1651
C3 C -0.17390(11) 0.10251(19) 0.2931(2)
H3 H -0.2217 0.0959 0.3309
C4 C -0.12176(11) 0.01469(18) 0.3351(2)
H4 H -0.1345 -0.0522 0.4003
C5 C -0.05033(10) 0.02505(16) 0.2809(2)
H5 H -0.0153 -0.0347 0.3105
C6 C -0.03038(9) 0.12425(14) 0.18238(18)
C7 C 0.04516(9) 0.13517(14) 0.12398(18)
C8 C 0.10860(9) 0.05266(16) 0.1730(2)
H6 H 0.0999 -0.0320 0.1375
H7 H 0.1182 0.0539 0.2909
C9 C 0.17139(9) 0.11144(16) 0.0823(2)
H8 H 0.1930 0.0505 0.0087
C10 C 0.23226(10) 0.17117(16) 0.1886(2)
H9 H 0.2098 0.2131 0.2796
H10 H 0.2567 0.2335 0.1240
C11 C 0.34416(9) 0.01445(17) 0.0926(2)
C12 C 0.39142(11) 0.0923(2) 0.0128(3)
H11 H 0.4016 0.1711 0.0540
C13 C 0.42356(13) 0.0520(2) -0.1291(3)
H12 H 0.4549 0.1050 -0.1837
C14 C 0.41031(11) -0.0648(2) -0.1918(3)
C15 C 0.36341(12) -0.1407(2) -0.1100(3)
H13 H 0.3541 -0.2201 -0.1501
C16 C 0.32959(11) -0.10216(18) 0.0309(3)
H14 H 0.2972 -0.1546 0.0836
C17 C 0.44631(15) -0.1053(3) -0.3479(3)
H15 H 0.4168 -0.0779 -0.4412
H16 H 0.4501 -0.1940 -0.3496
H17 H 0.4949 -0.0697 -0.3519
loop_
_geom_bond_atom_site_label_1
_geom_bond_atom_site_label_2
_geom_bond_site_symmetry_1
_geom_bond_site_symmetry_2
N1 O3 1_555 1_555
O1 S1 1_555 1_555
O2 S1 1_555 1_555
O3 C9 1_555 1_555
S1 C10 1_555 1_555
C1 H1 1_555 1_555
C2 C1 1_555 1_555
H2 C2 1_555 1_555
C3 C2 1_555 1_555
H3 C3 1_555 1_555
C4 C3 1_555 1_555
H4 C4 1_555 1_555
C5 C4 1_555 1_555
H5 C5 1_555 1_555
C6 C1 1_555 1_555
C7 N1 1_555 1_555
C8 C7 1_555 1_555
H6 C8 1_555 1_555
H7 C8 1_555 1_555
C9 C8 1_555 1_555
H8 C9 1_555 1_555
C10 C9 1_555 1_555
H9 C10 1_555 1_555
H10 C10 1_555 1_555
C11 S1 1_555 1_555
C12 C11 1_555 1_555
H11 C12 1_555 1_555
C13 C12 1_555 1_555
H12 C13 1_555 1_555
C14 C13 1_555 1_555
C15 C14 1_555 1_555
H13 C15 1_555 1_555
C16 C11 1_555 1_555
H14 C16 1_555 1_555
C17 C14 1_555 1_555
H15 C17 1_555 1_555
H16 C17 1_555 1_555
H17 C17 1_555 1_555
C5 C6 1_555 1_555
C6 C7 1_555 1_555
C15 C16 1_555 1_555

#END
