
#######################################################################
#
#                 Cambridge Crystallographic Data Centre
#                                CCDC 
#
#######################################################################
#
# If this CIF has been generated from an entry in the Cambridge 
# Structural Database, then it will include bibliographic, chemical, 
# crystal, experimental, refinement or atomic coordinate data resulting 
# from the CCDC's data processing and validation procedures.
#
#######################################################################

data_JALQET
_chemical_formula_moiety         'C14 H22 N2 O3'
_chemical_name_systematic        
5-Hydroxy-3,3-dimethyl-2,9-dioxo-1,8-diazacyclotetradeca-6,12-diene
_symmetry_cell_setting           monoclinic
_symmetry_space_group_name_H-M   'P 21/n'
_symmetry_Int_Tables_number      14
_space_group_name_Hall           '-P 2yn'
loop_
_symmetry_equiv_pos_site_id
_symmetry_equiv_pos_as_xyz
1 x,y,z
2 1/2-x,1/2+y,1/2-z
3 -x,-y,-z
4 1/2+x,1/2-y,1/2+z
_cell_length_a                   10.6541(9)
_cell_length_b                   9.4448(8)
_cell_length_c                   14.5765(12)
_cell_angle_alpha                90
_cell_angle_beta                 109.205(2)
_cell_angle_gamma                90
_cell_volume                     1385.14
_cell_formula_units_Z            4
_exptl_crystal_recrystallization_method 'ethyl acetate/methanol'
loop_
_atom_site_label
_atom_site_type_symbol
_atom_site_fract_x
_atom_site_fract_y
_atom_site_fract_z
O1 O -0.02202(10) 0.53488(11) 0.14004(7)
O2 O -0.32106(10) 0.18780(12) -0.01221(8)
H1 H -0.3217 0.1085 -0.0385
O3 O 0.27214(11) 0.07554(11) 0.06858(7)
N1 N 0.13535(11) 0.39589(12) 0.23992(8)
H2 H 0.1525 0.3221 0.2790
N2 N 0.12398(12) 0.24735(13) -0.00029(8)
H3 H 0.1069 0.3218 -0.0387
C1 C 0.00869(13) 0.43369(14) 0.19680(9)
C2 C -0.09801(13) 0.34981(15) 0.22344(9)
C3 C -0.14581(15) 0.44922(17) 0.28885(11)
H4 H -0.0718 0.4696 0.3483
H5 H -0.2178 0.4035 0.3058
H6 H -0.1783 0.5378 0.2541
C4 C -0.04564(13) 0.21211(15) 0.27846(10)
H7 H -0.0022 0.1552 0.2414
H8 H -0.1199 0.1586 0.2869
H9 H 0.0186 0.2346 0.3423
C5 C -0.21705(13) 0.31855(15) 0.13127(10)
H10 H -0.2919 0.2851 0.1517
H11 H -0.2450 0.4086 0.0956
C6 C -0.19386(14) 0.21009(16) 0.06105(10)
H12 H -0.1631 0.1192 0.0966
C7 C -0.09317(15) 0.25870(16) 0.01712(10)
H13 H -0.1129 0.3400 -0.0235
C8 C 0.02265(14) 0.19434(15) 0.03172(10)
H14 H 0.0377 0.1070 0.0660
C9 C 0.24658(15) 0.18938(15) 0.02519(10)
C10 C 0.35272(16) 0.27769(17) 0.00506(11)
H15 H 0.3171 0.3195 -0.0607
H16 H 0.4293 0.2168 0.0071
C11 C 0.39915(15) 0.39681(16) 0.08120(10)
H17 H 0.4799 0.4416 0.0749
H18 H 0.3290 0.4701 0.0680
C12 C 0.42897(14) 0.34353(16) 0.18307(10)
H19 H 0.5022 0.2807 0.2064
C13 C 0.36401(13) 0.37466(15) 0.24445(10)
H20 H 0.3949 0.3311 0.3066
C14 C 0.24678(13) 0.47183(15) 0.22506(10)
H21 H 0.2708 0.5542 0.2694
H22 H 0.2207 0.5072 0.1574
loop_
_geom_bond_atom_site_label_1
_geom_bond_atom_site_label_2
_geom_bond_site_symmetry_1
_geom_bond_site_symmetry_2
O1 C1 1_555 1_555
O2 H1 1_555 1_555
O3 C9 1_555 1_555
N1 H2 1_555 1_555
N2 H3 1_555 1_555
C1 N1 1_555 1_555
C2 C1 1_555 1_555
C3 C2 1_555 1_555
H4 C3 1_555 1_555
H5 C3 1_555 1_555
H6 C3 1_555 1_555
C4 C2 1_555 1_555
H7 C4 1_555 1_555
H8 C4 1_555 1_555
H9 C4 1_555 1_555
C5 C2 1_555 1_555
H10 C5 1_555 1_555
H11 C5 1_555 1_555
C6 O2 1_555 1_555
H12 C6 1_555 1_555
C7 C6 1_555 1_555
H13 C7 1_555 1_555
C8 N2 1_555 1_555
H14 C8 1_555 1_555
C9 N2 1_555 1_555
C10 C9 1_555 1_555
H15 C10 1_555 1_555
H16 C10 1_555 1_555
C11 C10 1_555 1_555
H17 C11 1_555 1_555
H18 C11 1_555 1_555
C12 C11 1_555 1_555
H19 C12 1_555 1_555
C13 C12 1_555 1_555
H20 C13 1_555 1_555
C14 N1 1_555 1_555
H21 C14 1_555 1_555
H22 C14 1_555 1_555
C5 C6 1_555 1_555
C7 C8 1_555 1_555
C13 C14 1_555 1_555

#END
