
#######################################################################
#
#                 Cambridge Crystallographic Data Centre
#                                CCDC 
#
#######################################################################
#
# If this CIF has been generated from an entry in the Cambridge 
# Structural Database, then it will include bibliographic, chemical, 
# crystal, experimental, refinement or atomic coordinate data resulting 
# from the CCDC's data processing and validation procedures.
#
#######################################################################

data_JALROE
_chemical_name_common            
3-(5-Methyl-2-pyridinesulfonyl)-3-azatricyclo[3.2.1.0$2,4!]octane
_chemical_formula_moiety         'C13 H16 N2 O2 S1'
_chemical_name_systematic        
exo-N-(5-Methyl-2-pyridinesulfonyl)norbornylaziridine
_symmetry_cell_setting           triclinic
_symmetry_space_group_name_H-M   'P -1'
_symmetry_Int_Tables_number      2
_space_group_name_Hall           '-P 1'
loop_
_symmetry_equiv_pos_site_id
_symmetry_equiv_pos_as_xyz
1 x,y,z
2 -x,-y,-z
_cell_length_a                   6.360(13)
_cell_length_b                   7.68(3)
_cell_length_c                   14.36(4)
_cell_angle_alpha                89.06(13)
_cell_angle_beta                 79.77(17)
_cell_angle_gamma                73.49(13)
_cell_volume                     661.37
_exptl_crystal_colour            colorless
_chemical_melting_point          97-98deg.C
_cell_formula_units_Z            2
_exptl_crystal_recrystallization_method dichloromethane/hexane
loop_
_atom_site_label
_atom_site_type_symbol
_atom_site_fract_x
_atom_site_fract_y
_atom_site_fract_z
S1 S 0.65127(16) 0.73348(14) 0.77895(7)
O1 O 0.7565(6) 0.7387(5) 0.8591(2)
C1 C 0.8463(6) 0.7428(6) 0.6758(3)
N1 N 0.4504(6) 0.9218(5) 0.7733(2)
N2 N 0.7758(6) 0.7400(6) 0.5943(3)
O2 O 0.5599(6) 0.5865(4) 0.7677(3)
C2 C 0.2929(7) 0.9810(6) 0.8649(3)
H1 H 0.3134 0.9078 0.9209
C3 C 1.2082(8) 0.7454(8) 0.6001(4)
C4 C 1.1412(8) 0.7452(7) 0.5145(4)
C5 C 1.0606(7) 0.7436(7) 0.6829(3)
H2 H 1.1035 0.7429 0.7416
C6 C 0.4483(7) 1.0839(6) 0.8293(3)
H3 H 0.5728 1.0817 0.8614
C7 C 0.3045(9) 1.2613(6) 0.8007(4)
H4 H 0.3803 1.3303 0.7553
C8 C 0.1825(9) 1.3605(7) 0.8962(4)
H5 H 0.2858 1.3567 0.9389
H6 H 0.1049 1.4864 0.8871
C9 C 0.0665(8) 1.1026(7) 0.8572(4)
H7 H -0.0502 1.0421 0.8577
C10 C 0.9240(9) 0.7412(8) 0.5159(3)
H8 H 0.8782 0.7393 0.4580
C11 C 0.1167(10) 1.2050(8) 0.7699(4)
H9 H -0.0078 1.3081 0.7619
H10 H 0.1664 1.1274 0.7129
C12 C 0.0181(9) 1.2533(8) 0.9339(4)
H11 H -0.1347 1.3297 0.9411
H12 H 0.0447 1.2023 0.9945
C13 C 1.2956(11) 0.7451(10) 0.4217(4)
H13 H 1.3251 0.6317 0.3877
H14 H 1.4331 0.7605 0.4338
H15 H 1.2269 0.8431 0.3847
H16 H 1.344(11) 0.742(8) 0.600(4)
loop_
_geom_bond_atom_site_label_1
_geom_bond_atom_site_label_2
_geom_bond_site_symmetry_1
_geom_bond_site_symmetry_2
S1 O1 1_555 1_555
C1 S1 1_555 1_555
N1 S1 1_555 1_555
N2 C1 1_555 1_555
O2 S1 1_555 1_555
C2 N1 1_555 1_555
H1 C2 1_555 1_555
C3 C4 1_555 1_555
C4 C10 1_555 1_555
C5 C1 1_555 1_555
H2 C5 1_555 1_555
C6 N1 1_555 1_555
H3 C6 1_555 1_555
C7 C6 1_555 1_555
H4 C7 1_555 1_555
C8 C7 1_555 1_555
H5 C8 1_555 1_555
H6 C8 1_555 1_555
C9 C2 1_555 1_555
H7 C9 1_555 1_555
C10 N2 1_555 1_555
H8 C10 1_555 1_555
C11 C7 1_555 1_555
H9 C11 1_555 1_555
H10 C11 1_555 1_555
C12 C8 1_555 1_555
H11 C12 1_555 1_555
H12 C12 1_555 1_555
C13 C4 1_555 1_555
H13 C13 1_555 1_555
H14 C13 1_555 1_555
H15 C13 1_555 1_555
H16 C3 1_555 1_555
C2 C6 1_555 1_555
C3 C5 1_555 1_555
C9 C12 1_555 1_555
C9 C11 1_555 1_555

#END
