
#######################################################################
#
#                 Cambridge Crystallographic Data Centre
#                                CCDC 
#
#######################################################################
#
# If this CIF has been generated from an entry in the Cambridge 
# Structural Database, then it will include bibliographic, chemical, 
# crystal, experimental, refinement or atomic coordinate data resulting 
# from the CCDC's data processing and validation procedures.
#
#######################################################################

data_JALRIX
_chemical_formula_moiety         'C18 H15 Cl3 N3 O3 P3'
_chemical_name_systematic        
'2,4,6-Trichloro-1,3,5-triphenyl-1,3,5,2\l^5^,4\l^5^,6\l^5^-triazatriphosphorinane 2,4,6-trioxide'
_symmetry_cell_setting           monoclinic
_symmetry_space_group_name_H-M   'P 21/n'
_symmetry_Int_Tables_number      14
_space_group_name_Hall           '-P 2yn'
loop_
_symmetry_equiv_pos_site_id
_symmetry_equiv_pos_as_xyz
1 x,y,z
2 1/2-x,1/2+y,1/2-z
3 -x,-y,-z
4 1/2+x,1/2-y,1/2+z
_cell_length_a                   11.401(2)
_cell_length_b                   15.545(3)
_cell_length_c                   12.695(3)
_cell_angle_alpha                90
_cell_angle_beta                 92.01(1)
_cell_angle_gamma                90
_cell_volume                     2248.53
_exptl_crystal_colour            white
_chemical_melting_point          222-224deg.C
_cell_formula_units_Z            4
loop_
_atom_site_label
_atom_site_type_symbol
_atom_site_fract_x
_atom_site_fract_y
_atom_site_fract_z
P1 P 0.3217(1) 0.8488(1) 0.1957(1)
Cl1 Cl 0.3505(1) 0.7709(1) 0.3183(1)
O1 O 0.3522(3) 0.9377(2) 0.2204(3)
N1 N 0.1817(3) 0.8352(2) 0.1564(3)
C1 C 0.0401(3) 0.8991(2) 0.2765(2)
C2 C -0.0347(3) 0.9660(2) 0.3036(2)
C3 C -0.0462(3) 1.0382(2) 0.2389(2)
C4 C 0.0171(3) 1.0436(2) 0.1470(2)
C5 C 0.0918(3) 0.9767(2) 0.1198(2)
C6 C 0.1033(3) 0.9045(2) 0.1846(2)
P2 P 0.1153(1) 0.7473(1) 0.1087(1)
Cl2 Cl 0.0835(2) 0.6695(1) 0.2284(1)
O2 O 0.0092(3) 0.7664(3) 0.0464(3)
N2 N 0.2238(3) 0.6980(2) 0.0495(3)
C7 C 0.2571(3) 0.5422(2) 0.0538(2)
C8 C 0.2367(3) 0.4601(2) 0.0128(2)
C9 C 0.1592(3) 0.4488(2) -0.0735(2)
C10 C 0.1020(3) 0.5198(2) -0.1190(2)
C11 C 0.1224(3) 0.6019(2) -0.0780(2)
C12 C 0.2000(3) 0.6131(2) 0.0083(2)
P3 P 0.3410(1) 0.7456(1) 0.0012(1)
Cl3 Cl 0.2760(2) 0.8308(1) -0.1061(1)
O3 O 0.4238(4) 0.6886(3) -0.0440(4)
N3 N 0.3957(3) 0.8051(2) 0.0987(3)
C13 C 0.6041(3) 0.7791(2) 0.1463(3)
C14 C 0.7224(3) 0.7995(2) 0.1367(3)
C15 C 0.7546(3) 0.8679(2) 0.0726(3)
C16 C 0.6686(3) 0.9158(2) 0.0182(3)
C17 C 0.5503(3) 0.8953(2) 0.0278(3)
C18 C 0.5181(3) 0.8269(2) 0.0919(3)
H1 H 0.0480 0.8494 0.3210
H2 H -0.0782 0.9623 0.3668
H3 H -0.0976 1.0843 0.2575
H4 H 0.0091 1.0933 0.1024
H5 H 0.1353 0.9804 0.0566
H6 H 0.3105 0.5499 0.1132
H7 H 0.2761 0.4113 0.0441
H8 H 0.1451 0.3923 -0.1017
H9 H 0.0486 0.5120 -0.1784
H10 H 0.0831 0.6507 -0.1093
H11 H 0.5819 0.7320 0.1904
H12 H 0.7816 0.7666 0.1741
H13 H 0.8360 0.8820 0.0660
H14 H 0.6907 0.9628 -0.0259
H15 H 0.4911 0.9282 -0.0096
loop_
_geom_bond_atom_site_label_1
_geom_bond_atom_site_label_2
_geom_bond_site_symmetry_1
_geom_bond_site_symmetry_2
P1 Cl1 1_555 1_555
O1 P1 1_555 1_555
N1 P1 1_555 1_555
C1 C2 1_555 1_555
C2 C3 1_555 1_555
C3 C4 1_555 1_555
C4 C5 1_555 1_555
C5 C6 1_555 1_555
C6 N1 1_555 1_555
P2 N1 1_555 1_555
Cl2 P2 1_555 1_555
O2 P2 1_555 1_555
N2 P2 1_555 1_555
C7 C8 1_555 1_555
C8 C9 1_555 1_555
C9 C10 1_555 1_555
C10 C11 1_555 1_555
C11 C12 1_555 1_555
C12 N2 1_555 1_555
P3 N2 1_555 1_555
Cl3 P3 1_555 1_555
O3 P3 1_555 1_555
N3 P1 1_555 1_555
C13 C14 1_555 1_555
C14 C15 1_555 1_555
C15 C16 1_555 1_555
C16 C17 1_555 1_555
C17 C18 1_555 1_555
C18 N3 1_555 1_555
H1 C1 1_555 1_555
H2 C2 1_555 1_555
H3 C3 1_555 1_555
H4 C4 1_555 1_555
H5 C5 1_555 1_555
H6 C7 1_555 1_555
H7 C8 1_555 1_555
H8 C9 1_555 1_555
H9 C10 1_555 1_555
H10 C11 1_555 1_555
H11 C13 1_555 1_555
H12 C14 1_555 1_555
H13 C15 1_555 1_555
H14 C16 1_555 1_555
H15 C17 1_555 1_555
C1 C6 1_555 1_555
C7 C12 1_555 1_555
P3 N3 1_555 1_555
C13 C18 1_555 1_555

#END
