
#######################################################################
#
#                 Cambridge Crystallographic Data Centre
#                                CCDC 
#
#######################################################################
#
# If this CIF has been generated from an entry in the Cambridge 
# Structural Database, then it will include bibliographic, chemical, 
# crystal, experimental, refinement or atomic coordinate data resulting 
# from the CCDC's data processing and validation procedures.
#
#######################################################################

data_JALTOG
_chemical_formula_moiety         'C12 H14 Cl2 O3'
_chemical_name_systematic        
1',2'-Dideoxy-\b-1'-(2,4-dichloro-5-methylphenyl)-D-ribofuranose
_symmetry_cell_setting           monoclinic
_symmetry_space_group_name_H-M   'P 21'
_symmetry_Int_Tables_number      4
_space_group_name_Hall           'P 2yb'
loop_
_symmetry_equiv_pos_site_id
_symmetry_equiv_pos_as_xyz
1 x,y,z
2 -x,1/2+y,-z
_cell_length_a                   9.5718(9)
_cell_length_b                   6.7804(6)
_cell_length_c                   19.5091(18)
_cell_angle_alpha                90
_cell_angle_beta                 99.319(2)
_cell_angle_gamma                90
_cell_volume                     1249.44
_exptl_crystal_colour            colorless
_exptl_crystal_description       rhombic
_cell_formula_units_Z            4
_exptl_crystal_recrystallization_method chloroform
loop_
_atom_site_label
_atom_site_type_symbol
_atom_site_fract_x
_atom_site_fract_y
_atom_site_fract_z
Cl1 Cl 0.84827(8) 0.79287(12) 0.25706(4)
Cl2 Cl 0.41979(9) 0.74951(15) 0.04347(4)
O1 O 0.5462(2) -0.0732(4) 0.42885(11)
H1 H 0.5021 -0.1802 0.4219
O2 O 0.7313(2) 0.1881(3) 0.30731(11)
O3 O 0.8504(2) 0.3213(3) 0.46038(11)
H2 H 0.8548 0.4242 0.4846
C1 C 0.5694(3) 0.0088(5) 0.36311(16)
H3 H 0.4910 0.0991 0.3447
H4 H 0.5728 -0.0983 0.3289
C2 C 0.7084(3) 0.1201(5) 0.37466(15)
H5 H 0.7867 0.0289 0.3945
C3 C 0.7116(3) 0.3036(5) 0.42047(15)
H6 H 0.6382 0.2948 0.4515
C4 C 0.6775(3) 0.4685(5) 0.36820(16)
H7 H 0.7205 0.5943 0.3868
H8 H 0.5739 0.4866 0.3554
C5 C 0.7427(3) 0.3987(5) 0.30585(16)
H9 H 0.8449 0.4369 0.3126
C6 C 0.6689(3) 0.4795(5) 0.23767(16)
C7 C 0.7054(3) 0.6605(5) 0.21243(16)
C8 C 0.6302(3) 0.7430(5) 0.15286(17)
H10 H 0.6561 0.8683 0.1370
C9 C 0.5169(3) 0.6405(5) 0.11666(16)
C10 C 0.4778(3) 0.4540(5) 0.13745(17)
C11 C 0.5561(3) 0.3785(5) 0.19879(16)
H11 H 0.5312 0.2528 0.2146
C12 C 0.3586(3) 0.3368(6) 0.09628(17)
H12 H 0.2708 0.4135 0.0915
H13 H 0.3465 0.2129 0.1205
H14 H 0.3813 0.3080 0.0501
Cl3 Cl 0.72469(9) 1.40101(12) 0.78560(4)
Cl4 Cl 1.13086(9) 1.09683(15) 0.97731(4)
O4 O 0.9000(2) 0.6455(4) 0.54155(12)
H15 H 0.9775 0.6918 0.5341
O5 O 0.7182(2) 0.8183(3) 0.68108(10)
O6 O 0.5990(2) 1.0763(3) 0.55852(10)
H16 H 0.5714 1.0335 0.5182
C13 C 0.8807(3) 0.6922(5) 0.61122(17)
H17 H 0.9601 0.7757 0.6336
H18 H 0.8805 0.5693 0.6386
C14 C 0.7424(3) 0.8002(5) 0.61015(15)
H19 H 0.6637 0.7228 0.5826
C15 C 0.7407(3) 1.0111(5) 0.58224(16)
H20 H 0.8010 1.0240 0.5451
C16 C 0.8005(3) 1.1279(5) 0.64615(16)
H21 H 0.7695 1.2672 0.6418
H22 H 0.9053 1.1231 0.6548
C17 C 0.7379(3) 1.0213(5) 0.70443(16)
H23 H 0.6437 1.0803 0.7083
C18 C 0.8325(3) 1.0332(5) 0.77374(16)
C19 C 0.8344(3) 1.2019(5) 0.81471(17)
C20 C 0.9240(3) 1.2197(5) 0.87743(17)
H24 H 0.9221 1.3348 0.9050
C21 C 1.0159(3) 1.0684(5) 0.89936(16)
C22 C 1.0203(3) 0.8947(5) 0.86067(16)
C23 C 0.9268(3) 0.8830(5) 0.79848(15)
H25 H 0.9270 0.7666 0.7714
C24 C 1.1226(4) 0.7288(5) 0.88517(18)
H26 H 1.1104 0.6220 0.8509
H27 H 1.1036 0.6789 0.9299
H28 H 1.2199 0.7784 0.8906
loop_
_geom_bond_atom_site_label_1
_geom_bond_atom_site_label_2
_geom_bond_site_symmetry_1
_geom_bond_site_symmetry_2
Cl1 C7 1_555 1_555
Cl2 C9 1_555 1_555
O1 H1 1_555 1_555
O2 C2 1_555 1_555
O3 H2 1_555 1_555
C1 O1 1_555 1_555
H3 C1 1_555 1_555
H4 C1 1_555 1_555
C2 C1 1_555 1_555
H5 C2 1_555 1_555
C3 O3 1_555 1_555
H6 C3 1_555 1_555
C4 C3 1_555 1_555
H7 C4 1_555 1_555
H8 C4 1_555 1_555
C5 O2 1_555 1_555
H9 C5 1_555 1_555
C6 C5 1_555 1_555
C7 C6 1_555 1_555
C8 C7 1_555 1_555
H10 C8 1_555 1_555
C9 C8 1_555 1_555
C10 C9 1_555 1_555
C11 C6 1_555 1_555
H11 C11 1_555 1_555
C12 C10 1_555 1_555
H12 C12 1_555 1_555
H13 C12 1_555 1_555
H14 C12 1_555 1_555
Cl3 C19 1_555 1_555
Cl4 C21 1_555 1_555
O4 H15 1_555 1_555
O5 C14 1_555 1_555
O6 H16 1_555 1_555
C13 O4 1_555 1_555
H17 C13 1_555 1_555
H18 C13 1_555 1_555
C14 C13 1_555 1_555
H19 C14 1_555 1_555
C15 O6 1_555 1_555
H20 C15 1_555 1_555
C16 C15 1_555 1_555
H21 C16 1_555 1_555
H22 C16 1_555 1_555
C17 O5 1_555 1_555
H23 C17 1_555 1_555
C18 C17 1_555 1_555
C19 C18 1_555 1_555
C20 C19 1_555 1_555
H24 C20 1_555 1_555
C21 C20 1_555 1_555
C22 C21 1_555 1_555
C23 C18 1_555 1_555
H25 C23 1_555 1_555
C24 C22 1_555 1_555
H26 C24 1_555 1_555
H27 C24 1_555 1_555
H28 C24 1_555 1_555
C2 C3 1_555 1_555
C4 C5 1_555 1_555
C10 C11 1_555 1_555
C14 C15 1_555 1_555
C16 C17 1_555 1_555
C22 C23 1_555 1_555

#END
