
#######################################################################
#
#                 Cambridge Crystallographic Data Centre
#                                CCDC 
#
#######################################################################
#
# If this CIF has been generated from an entry in the Cambridge 
# Structural Database, then it will include bibliographic, chemical, 
# crystal, experimental, refinement or atomic coordinate data resulting 
# from the CCDC's data processing and validation procedures.
#
#######################################################################

data_JALZII
_chemical_formula_moiety         'C24 H42 N9 3+,3(C2 F3 O2 1-),3(H2 O1)'
_chemical_name_systematic        
"7,7',7''-(1,3,5-triazine-2,4,6-triyl)tris(3,7-diazabicyclo[3.3.1]nonan-3-ium) tris(trifluoroacetate) trihydrate"
_symmetry_cell_setting           triclinic
_symmetry_space_group_name_H-M   'P 1'
_symmetry_Int_Tables_number      1
_space_group_name_Hall           'P 1'
loop_
_symmetry_equiv_pos_site_id
_symmetry_equiv_pos_as_xyz
1 x,y,z
_cell_length_a                   11.7211(12)
_cell_length_b                   13.3701(14)
_cell_length_c                   14.4150(16)
_cell_angle_alpha                108.775(3)
_cell_angle_beta                 101.081(3)
_cell_angle_gamma                108.208(2)
_cell_volume                     1921.06
_exptl_crystal_colour            colorless
_exptl_crystal_description       Needle
_cell_formula_units_Z            2
loop_
_atom_site_label
_atom_site_type_symbol
_atom_site_fract_x
_atom_site_fract_y
_atom_site_fract_z
N1 N 0.9771(5) 0.6954(4) 0.9929(4)
N2 N 0.7576(5) 0.6101(5) 0.9188(4)
N3 N 0.8888(5) 0.5260(4) 0.8469(4)
N4 N 0.7938(5) 0.3578(4) 0.6943(4)
N5 N 0.5412(5) 0.5247(5) 0.8310(5)
N6 N 0.6642(5) 0.4390(4) 0.7632(4)
N7 N 1.1207(5) 0.9113(5) 0.9840(5)
H1 H 1.0516 0.8513 0.9370
H2 H 1.1418 0.9638 0.9579
C1 C 0.6795(7) 0.2541(6) 0.6239(6)
H3 H 0.6097 0.2763 0.6066
H4 H 0.6565 0.2035 0.6588
C2 C 0.3199(6) 0.4643(7) 0.7292(7)
H5 H 0.2439 0.3942 0.6836
C3 C 0.8159(8) 0.1621(7) 0.5491(7)
H6 H 0.8266 0.1177 0.4858
H7 H 0.8072 0.1179 0.5911
C4 C 0.6996(8) 0.1886(6) 0.5241(6)
H8 H 0.6249 0.1157 0.4839
C5 C 1.0795(7) 0.8877(6) 1.1393(6)
H9 H 1.0708 0.9308 1.2049
C6 C 0.7826(5) 0.4441(5) 0.7706(5)
N8 N 0.8328(8) 0.3646(6) 0.5081(6)
H10 H 0.8233 0.4142 0.5614
H11 H 0.8423 0.3959 0.4627
C7 C 0.9300(8) 0.2786(7) 0.6087(7)
H12 H 1.0059 0.2627 0.6248
C8 C 1.2105(6) 0.8005(5) 1.0626(5)
H13 H 1.2875 0.7856 1.0760
C9 C 0.3469(8) 0.5454(8) 0.6709(7)
H14 H 0.3717 0.5103 0.6124
H15 H 0.2699 0.5545 0.6445
N9 N 0.4490(6) 0.6603(6) 0.7407(6)
H16 H 0.4480 0.7088 0.7107
H17 H 0.5234 0.6543 0.7472
C10 C 0.9166(6) 0.3453(6) 0.7126(5)
H18 H 0.9208 0.3041 0.7568
H19 H 0.9861 0.4210 0.7477
C11 C 1.1001(6) 0.6878(6) 1.0058(6)
H20 H 1.1055 0.6506 0.9378
H21 H 1.1052 0.6392 1.0425
C12 C 0.8711(6) 0.6077(5) 0.9168(5)
C13 C 0.6572(6) 0.5231(5) 0.8381(5)
C14 C 0.9590(8) 0.7721(6) 1.0844(6)
H22 H 0.9464 0.7354 1.1319
H23 H 0.8846 0.7869 1.0626
C15 C 1.0885(8) 0.9622(6) 1.0799(6)
H24 H 1.1536 1.0389 1.1236
H25 H 1.0082 0.9689 1.0603
C16 C 0.9492(9) 0.3484(8) 0.5457(7)
H26 H 1.0188 0.4231 0.5876
H27 H 0.9714 0.3094 0.4870
C17 C 1.2241(7) 0.8735(7) 1.0010(7)
H28 H 1.3038 0.9409 1.0373
H29 H 1.2279 0.8295 0.9344
C18 C 0.2929(7) 0.5232(7) 0.8240(8)
H30 H 0.2701 0.4720 0.8584
H31 H 0.2225 0.5443 0.8055
C19 C 0.4109(7) 0.6300(7) 0.8953(6)
H32 H 0.3944 0.6675 0.9588
C20 C 1.1998(7) 0.8665(7) 1.1674(6)
H33 H 1.1923 0.8209 1.2081
H34 H 1.2736 0.9389 1.2066
C21 C 0.4301(6) 0.4288(6) 0.7551(7)
H35 H 0.4049 0.3695 0.7810
H36 H 0.4494 0.3964 0.6926
C22 C 0.7172(10) 0.2578(7) 0.4590(6)
H37 H 0.7198 0.2102 0.3932
H38 H 0.6442 0.2769 0.4449
C23 C 0.5250(7) 0.5960(7) 0.9251(6)
H39 H 0.6022 0.6653 0.9650
H40 H 0.5090 0.5533 0.9678
C24 C 0.4408(9) 0.7114(8) 0.8462(8)
H41 H 0.5212 0.7754 0.8903
H42 H 0.3760 0.7420 0.8417
O1 O 0.7999(5) 0.2715(5) 0.1984(5)
C25 C 0.9071(8) 0.2701(7) 0.2230(7)
O2 O 1.0095(5) 0.3519(5) 0.2795(5)
F1 F 1.0141(7) 0.1500(6) 0.1997(9)
F2 F 0.8161(6) 0.0687(5) 0.1164(6)
C26 C 0.9136(9) 0.1575(7) 0.1812(9)
F3 F 0.8903(11) 0.1136(7) 0.2670(10)
O3 O 0.1712(6) 0.0971(5) 0.9280(5)
O4 O 0.1508(7) -0.0154(7) 0.7699(7)
C27 C 0.1494(7) 0.0664(7) 0.8335(7)
F4 F 0.1864(8) 0.2372(6) 0.8104(10)
C28 C 0.1052(10) 0.1410(9) 0.7911(8)
F5 F 0.0231(8) 0.1769(8) 0.8358(8)
F6 F 0.0203(13) 0.0912(8) 0.7029(7)
C29 C 0.8329(6) 0.4274(5) 0.0818(5)
N10 N 1.2520(6) 0.3699(6) 0.2548(5)
H43 H 1.2515 0.3230 0.2868
H44 H 1.1783 0.3774 0.2468
N11 N 1.0373(5) 0.5956(5) 0.2351(5)
C30 C 0.9204(6) 0.5890(5) 0.2274(5)
C31 C 1.0402(6) 0.5057(5) 0.1587(5)
C32 C 1.1804(7) 0.4346(6) 0.0721(6)
H45 H 1.1967 0.4779 0.0301
H46 H 1.1042 0.3648 0.0309
N12 N 1.1588(5) 0.5033(5) 0.1629(5)
N13 N 0.8136(5) 0.5081(4) 0.1538(4)
N14 N 0.9053(5) 0.6736(4) 0.3020(4)
N15 N 0.8662(8) 0.6664(6) 0.4901(5)
H47 H 0.8759 0.6178 0.4364
H48 H 0.8556 0.6338 0.5345
N16 N 0.9438(5) 0.4225(4) 0.0784(4)
N17 N 0.5843(6) 0.1192(5) 0.0136(5)
H49 H 0.6537 0.1801 0.0591
H50 H 0.5656 0.0675 0.0408
C33 C 0.6058(6) 0.3503(5) -0.0078(6)
H51 H 0.6028 0.3983 -0.0456
H52 H 0.5994 0.3882 0.0595
C34 C 0.4748(7) 0.1564(7) -0.0047(6)
H53 H 0.4702 0.2010 0.0614
H54 H 0.3955 0.0886 -0.0413
C35 C 1.2750(7) 0.6039(6) 0.2431(6)
H55 H 1.2548 0.6365 0.3052
H56 H 1.3012 0.6630 0.2173
C36 C 0.7402(6) 0.2595(6) -0.0843(5)
H57 H 0.8154 0.2460 -0.0619
H58 H 0.7539 0.2975 -0.1307
C37 C 0.5071(7) 0.1649(6) -0.1685(5)
H59 H 0.5124 0.2092 -0.2103
H60 H 0.4342 0.0917 -0.2071
C38 C 0.4925(6) 0.2295(6) -0.0685(6)
H61 H 0.4149 0.2427 -0.0855
C39 C 0.7873(7) 0.6873(7) 0.2843(6)
H62 H 0.7177 0.6117 0.2474
H63 H 0.7852 0.7293 0.2407
C40 C 1.2629(7) 0.3164(7) 0.1507(6)
H64 H 1.1846 0.2497 0.1066
H65 H 1.3312 0.2902 0.1576
N18 N 0.7262(5) 0.3361(5) 0.0051(4)
C41 C 1.2892(7) 0.4028(7) 0.0998(8)
H66 H 1.3051 0.3662 0.0356
C42 C 0.7675(7) 0.7518(6) 0.3850(6)
H67 H 0.6915 0.7669 0.3670
C43 C 0.6108(7) 0.0690(6) -0.0821(6)
H68 H 0.5414 -0.0053 -0.1260
H69 H 0.6872 0.0555 -0.0648
C44 C 0.6284(7) 0.1441(6) -0.1440(5)
H70 H 0.6398 0.1026 -0.2089
C45 C 0.9847(8) 0.7769(8) 0.5424(7)
H71 H 1.0586 0.7595 0.5582
H72 H 0.9804 0.8257 0.6069
C46 C 0.7507(9) 0.6859(7) 0.4534(8)
H73 H 0.7324 0.7291 0.5127
H74 H 0.6788 0.6120 0.4147
C47 C 0.9970(7) 0.8402(6) 0.4713(6)
H75 H 1.0704 0.9144 0.5099
C48 C 1.4095(7) 0.5117(8) 0.1708(7)
H76 H 1.4811 0.4914 0.1870
H77 H 1.4293 0.5641 0.1371
C49 C 0.8797(7) 0.8656(6) 0.4465(6)
H78 H 0.8678 0.9078 0.5100
H79 H 0.8891 0.9121 0.4065
C50 C 1.0180(7) 0.7779(6) 0.3718(6)
H80 H 1.0388 0.8292 0.3373
H81 H 1.0893 0.7573 0.3884
C51 C 1.3591(8) 0.4874(8) 0.3227(7)
H82 H 1.3393 0.5223 0.3843
H83 H 1.4365 0.4769 0.3446
C52 C 1.3824(7) 0.5687(7) 0.2699(7)
H84 H 1.4582 0.6386 0.3162
F7 F 0.8897(6) 0.9619(5) 0.8722(7)
O5 O 0.6918(5) 0.6774(4) 0.7176(5)
F8 F 0.6881(8) 0.8860(6) 0.7805(6)
O6 O 0.9027(5) 0.7624(5) 0.8030(5)
C53 C 0.7959(7) 0.7613(6) 0.7748(6)
C54 C 0.7876(9) 0.8758(10) 0.8195(14)
F9 F 0.7456(9) 0.8723(6) 0.9109(8)
O7 O 0.4167(7) 0.8234(7) 0.6673(7)
F10 F 0.488(2) 0.9768(7) 0.5911(8)
C55 C 0.3845(8) 0.7919(7) 0.5718(8)
F11 F 0.4125(16) 0.8533(7) 0.4430(6)
C56 C 0.4397(17) 0.8706(11) 0.5311(9)
O8 O 0.2982(12) 0.7113(12) 0.5146(10)
F12 F 0.5616(14) 0.882(3) 0.545(2)
O9 O 0.5265(5) 0.9349(5) 0.0692(5)
C57 C 0.6039(11) 0.8897(8) 0.2092(9)
O10 O 0.5483(9) 1.0519(6) 0.2248(7)
C58 C 0.5588(7) 0.9658(7) 0.1604(8)
F13 F 0.614(2) 0.8165(12) 0.1515(8)
F14 F 0.5159(12) 0.8279(18) 0.2259(19)
F15 F 0.6817(11) 0.9423(9) 0.2957(7)
O11 O 0.9583(7) 0.6047(6) 0.6600(6)
O12 O 0.4905(7) 0.2342(7) 0.2510(6)
O13 O 0.6627(9) 0.4872(6) 0.5458(7)
O14 O 0.2110(7) 0.7959(8) 0.7482(5)
O15 O 0.0450(9) 0.5435(7) 0.4518(6)
O16 O 0.7326(10) 0.4234(6) 0.3333(6)
C59 C 0.3168(14) 0.2416(10) 0.4215(9)
O17 O 0.2888(8) 0.2103(7) 0.3299(6)
C60 C 0.2436(13) 0.1519(11) 0.4637(9)
O18 O 0.3938(17) 0.3328(9) 0.4863(11)
F16 F 0.1757(15) 0.0615(8) 0.4029(7)
F17 F 0.3206(16) 0.1575(11) 0.5430(9)
F18 F 0.1835(17) 0.1918(16) 0.5176(14)
loop_
_geom_bond_atom_site_label_1
_geom_bond_atom_site_label_2
_geom_bond_site_symmetry_1
_geom_bond_site_symmetry_2
N1 C11 1_555 1_555
N2 C12 1_555 1_555
N3 C6 1_555 1_555
N4 C1 1_555 1_555
N5 C13 1_555 1_555
N6 C6 1_555 1_555
N7 H1 1_555 1_555
H2 N7 1_555 1_555
C1 H3 1_555 1_555
H4 C1 1_555 1_555
C2 H5 1_555 1_555
C3 H6 1_555 1_555
H7 C3 1_555 1_555
C4 C1 1_555 1_555
H8 C4 1_555 1_555
C5 H9 1_555 1_555
C6 N4 1_555 1_555
N8 H10 1_555 1_555
H11 N8 1_555 1_555
C7 C3 1_555 1_555
H12 C7 1_555 1_555
C8 H13 1_555 1_555
C9 C2 1_555 1_555
H14 C9 1_555 1_555
H15 C9 1_555 1_555
N9 C9 1_555 1_555
H16 N9 1_555 1_555
H17 N9 1_555 1_555
C10 N4 1_555 1_555
H18 C10 1_555 1_555
H19 C10 1_555 1_555
C11 C8 1_555 1_555
H20 C11 1_555 1_555
H21 C11 1_555 1_555
C12 N1 1_555 1_555
C13 N2 1_555 1_555
C14 N1 1_555 1_555
H22 C14 1_555 1_555
H23 C14 1_555 1_555
C15 N7 1_555 1_555
H24 C15 1_555 1_555
H25 C15 1_555 1_555
C16 N8 1_555 1_555
H26 C16 1_555 1_555
H27 C16 1_555 1_555
C17 N7 1_555 1_555
H28 C17 1_555 1_555
H29 C17 1_555 1_555
C18 C2 1_555 1_555
H30 C18 1_555 1_555
H31 C18 1_555 1_555
C19 C18 1_555 1_555
H32 C19 1_555 1_555
C20 C5 1_555 1_555
H33 C20 1_555 1_555
H34 C20 1_555 1_555
C21 N5 1_555 1_555
H35 C21 1_555 1_555
H36 C21 1_555 1_555
C22 C4 1_555 1_555
H37 C22 1_555 1_555
H38 C22 1_555 1_555
C23 N5 1_555 1_555
H39 C23 1_555 1_555
H40 C23 1_555 1_555
C24 N9 1_555 1_555
H41 C24 1_555 1_555
H42 C24 1_555 1_555
O1 C25 1_555 1_555
C25 O2 1_555 1_555
F1 C26 1_555 1_555
F2 C26 1_555 1_555
C26 C25 1_555 1_555
F3 C26 1_555 1_555
O3 C27 1_555 1_555
O4 C27 1_555 1_555
C27 C28 1_555 1_555
F4 C28 1_555 1_555
C28 F5 1_555 1_555
F6 C28 1_555 1_555
C29 N13 1_555 1_555
N10 H43 1_555 1_555
H44 N10 1_555 1_555
N11 C30 1_555 1_555
C30 N13 1_555 1_555
C31 N11 1_555 1_555
C32 H45 1_555 1_555
H46 C32 1_555 1_555
N12 C31 1_555 1_555
N14 C30 1_555 1_555
N15 H47 1_555 1_555
H48 N15 1_555 1_555
N16 C29 1_555 1_555
N17 H49 1_555 1_555
H50 N17 1_555 1_555
C33 H51 1_555 1_555
H52 C33 1_555 1_555
C34 N17 1_555 1_555
H53 C34 1_555 1_555
H54 C34 1_555 1_555
C35 N12 1_555 1_555
H55 C35 1_555 1_555
H56 C35 1_555 1_555
C36 H57 1_555 1_555
H58 C36 1_555 1_555
C37 H59 1_555 1_555
H60 C37 1_555 1_555
C38 C33 1_555 1_555
H61 C38 1_555 1_555
C39 N14 1_555 1_555
H62 C39 1_555 1_555
H63 C39 1_555 1_555
C40 N10 1_555 1_555
H64 C40 1_555 1_555
H65 C40 1_555 1_555
N18 C29 1_555 1_555
C41 C32 1_555 1_555
H66 C41 1_555 1_555
C42 C39 1_555 1_555
H67 C42 1_555 1_555
C43 N17 1_555 1_555
H68 C43 1_555 1_555
H69 C43 1_555 1_555
C44 C36 1_555 1_555
H70 C44 1_555 1_555
C45 N15 1_555 1_555
H71 C45 1_555 1_555
H72 C45 1_555 1_555
C46 N15 1_555 1_555
H73 C46 1_555 1_555
H74 C46 1_555 1_555
C47 C45 1_555 1_555
H75 C47 1_555 1_555
C48 C41 1_555 1_555
H76 C48 1_555 1_555
H77 C48 1_555 1_555
C49 C42 1_555 1_555
H78 C49 1_555 1_555
H79 C49 1_555 1_555
C50 N14 1_555 1_555
H80 C50 1_555 1_555
H81 C50 1_555 1_555
C51 N10 1_555 1_555
H82 C51 1_555 1_555
H83 C51 1_555 1_555
C52 C35 1_555 1_555
H84 C52 1_555 1_555
F7 C54 1_555 1_555
O5 C53 1_555 1_555
F8 C54 1_555 1_555
O6 C53 1_555 1_555
C53 C54 1_555 1_555
C54 F9 1_555 1_555
O7 C55 1_555 1_555
F10 C56 1_555 1_555
C55 C56 1_555 1_555
F11 C56 1_555 1_555
C56 F12 1_555 1_555
O8 C55 1_555 1_555
O9 C58 1_555 1_555
C57 C58 1_555 1_555
O10 C58 1_555 1_555
F13 C57 1_555 1_555
F14 C57 1_555 1_555
F15 C57 1_555 1_555
C59 O17 1_555 1_555
C60 C59 1_555 1_555
O18 C59 1_555 1_555
F16 C60 1_555 1_555
F17 C60 1_555 1_555
F18 C60 1_555 1_555
N3 C12 1_555 1_555
N6 C13 1_555 1_555
C2 C21 1_555 1_555
C3 C4 1_555 1_555
C5 C14 1_555 1_555
C5 C15 1_555 1_555
N8 C22 1_555 1_555
C7 C10 1_555 1_555
C7 C16 1_555 1_555
C8 C17 1_555 1_555
C8 C20 1_555 1_555
C19 C23 1_555 1_555
C19 C24 1_555 1_555
C31 N16 1_555 1_555
C32 N12 1_555 1_555
C33 N18 1_555 1_555
C34 C38 1_555 1_555
C36 N18 1_555 1_555
C37 C38 1_555 1_555
C37 C44 1_555 1_555
C40 C41 1_555 1_555
C42 C46 1_555 1_555
C43 C44 1_555 1_555
C47 C49 1_555 1_555
C47 C50 1_555 1_555
C48 C52 1_555 1_555
C51 C52 1_555 1_555

#END
