
#######################################################################
#
#                 Cambridge Crystallographic Data Centre
#                                CCDC 
#
#######################################################################
#
# If this CIF has been generated from an entry in the Cambridge 
# Structural Database, then it will include bibliographic, chemical, 
# crystal, experimental, refinement or atomic coordinate data resulting 
# from the CCDC's data processing and validation procedures.
#
#######################################################################

data_JAMCAE
_chemical_formula_moiety         'C22 H17 N1 O1,0.5(C1 H2 Cl2)'
_chemical_name_systematic        
'1-phenyl-2-(2-phenyl-1H-indol-3-yl)ethanone dichloromethane solvate'
_symmetry_cell_setting           triclinic
_symmetry_space_group_name_H-M   'P -1'
_symmetry_Int_Tables_number      2
_space_group_name_Hall           '-P 1'
loop_
_symmetry_equiv_pos_site_id
_symmetry_equiv_pos_as_xyz
1 x,y,z
2 -x,-y,-z
_cell_length_a                   11.6053(7)
_cell_length_b                   11.7949(6)
_cell_length_c                   15.3626(8)
_cell_angle_alpha                67.535(2)
_cell_angle_beta                 68.697(2)
_cell_angle_gamma                71.831(3)
_cell_volume                     1773.6
_exptl_crystal_colour            colorless
_exptl_crystal_description       PLATE
_cell_formula_units_Z            4
_exptl_crystal_recrystallization_method 'Petroleum ether/Dichloromethane'
loop_
_atom_site_label
_atom_site_type_symbol
_atom_site_fract_x
_atom_site_fract_y
_atom_site_fract_z
O1 O 0.71570(7) 0.42864(7) 0.27402(6)
N1 N 1.12684(8) 0.28389(8) 0.15700(6)
H1 H 1.1959 0.2498 0.1765
C1 C 0.94799(9) 0.41937(9) 0.12935(7)
C2 C 0.96978(9) 0.31869(9) 0.09129(7)
C3 C 0.91079(10) 0.29686(10) 0.03556(8)
H2 H 0.8362 0.3523 0.0210
C4 C 0.96313(11) 0.19334(11) 0.00229(8)
H3 H 0.9252 0.1791 -0.0370
C5 C 1.07123(12) 0.10887(11) 0.02540(8)
H4 H 1.1041 0.0376 0.0026
C6 C 1.13118(10) 0.12720(10) 0.08093(8)
H5 H 1.2034 0.0691 0.0978
C7 C 1.08113(9) 0.23462(9) 0.11107(7)
C8 C 1.04659(9) 0.39594(9) 0.16774(7)
C9 C 0.84499(9) 0.53317(9) 0.11948(7)
H6 H 0.8231 0.5508 0.0584
H7 H 0.8775 0.6053 0.1126
C10 C 0.72529(9) 0.52371(9) 0.20440(7)
C11 C 0.61972(9) 0.63580(9) 0.20173(7)
C12 C 0.63450(10) 0.75172(10) 0.13182(8)
H8 H 0.7120 0.7598 0.0818
C13 C 0.53655(11) 0.85565(10) 0.13479(9)
H9 H 0.5472 0.9345 0.0870
C14 C 0.42318(11) 0.84422(11) 0.20762(9)
H10 H 0.3566 0.9154 0.2100
C15 C 0.40699(10) 0.72918(11) 0.27692(9)
H11 H 0.3292 0.7216 0.3265
C16 C 0.50427(10) 0.62500(10) 0.27396(8)
H12 H 0.4925 0.5461 0.3211
C17 C 1.08085(9) 0.47814(9) 0.20171(7)
C18 C 1.20586(10) 0.49389(10) 0.17050(8)
H13 H 1.2703 0.4435 0.1339
C19 C 1.23618(11) 0.58260(12) 0.19269(9)
H14 H 1.3210 0.5934 0.1705
C20 C 1.14293(11) 0.65569(12) 0.24726(9)
H15 H 1.1636 0.7177 0.2611
C21 C 1.01954(11) 0.63803(11) 0.28158(9)
H16 H 0.9562 0.6863 0.3205
C22 C 0.98854(10) 0.54982(10) 0.25902(8)
H17 H 0.9039 0.5381 0.2827
O2 O 0.28494(7) 0.11441(7) 0.29483(6)
N2 N 0.61846(8) 0.20291(8) 0.33883(6)
H18 H 0.6547 0.2627 0.3312
C23 C 0.47020(9) 0.08884(9) 0.38606(7)
C24 C 0.58762(9) 0.02543(9) 0.33541(7)
C25 C 0.62413(10) -0.08618(10) 0.31117(8)
H19 H 0.5653 -0.1381 0.3308
C26 C 0.74737(11) -0.11931(11) 0.25819(9)
H20 H 0.7730 -0.1945 0.2410
C27 C 0.83535(11) -0.04388(11) 0.22940(8)
H21 H 0.9194 -0.0690 0.1929
C28 C 0.80258(10) 0.06642(10) 0.25297(8)
H22 H 0.8624 0.1172 0.2337
C29 C 0.67797(10) 0.09967(9) 0.30616(7)
C30 C 0.49226(9) 0.19719(9) 0.38561(7)
C31 C 0.35403(9) 0.03495(10) 0.43988(7)
H23 H 0.2997 0.0798 0.4882
H24 H 0.3792 -0.0537 0.4771
C32 C 0.27578(9) 0.04035(9) 0.37721(7)
C33 C 0.18626(9) -0.04767(9) 0.42026(8)
C34 C 0.11411(10) -0.04656(10) 0.36395(9)
H25 H 0.1215 0.0104 0.2996
C35 C 0.03181(11) -0.12846(11) 0.40198(10)
H26 H -0.0163 -0.1280 0.3633
C36 C 0.01947(10) -0.21101(11) 0.49620(10)
H27 H -0.0366 -0.2673 0.5216
C37 C 0.08874(11) -0.21159(11) 0.55329(9)
H28 H 0.0793 -0.2673 0.6182
C38 C 0.17202(10) -0.13045(10) 0.51539(8)
H29 H 0.2197 -0.1313 0.5546
C39 C 0.40689(10) 0.29474(9) 0.42918(7)
C40 C 0.44534(11) 0.34229(10) 0.48248(8)
H30 H 0.5281 0.3116 0.4904
C41 C 0.36315(12) 0.43421(11) 0.52383(8)
H31 H 0.3895 0.4657 0.5605
C42 C 0.24278(13) 0.48001(11) 0.51165(9)
H32 H 0.1869 0.5434 0.5394
C43 C 0.20380(12) 0.43347(12) 0.45897(10)
H33 H 0.1210 0.4647 0.4512
C44 C 0.28525(11) 0.34150(11) 0.41760(8)
H34 H 0.2582 0.3102 0.3813
C45 C 0.54981(13) 0.24796(13) 0.12589(9)
H35 H 0.4941 0.2134 0.1917
H36 H 0.6352 0.1943 0.1214
Cl1 Cl 0.49110(11) 0.24656(15) 0.03494(10)
Cl2 Cl 0.55698(3) 0.40213(3) 0.11051(2)
Cl3? Cl 0.5108(7) 0.2266(7) 0.0310(6)
loop_
_geom_bond_atom_site_label_1
_geom_bond_atom_site_label_2
_geom_bond_site_symmetry_1
_geom_bond_site_symmetry_2
O1 C10 1_555 1_555
N1 H1 1_555 1_555
C1 C2 1_555 1_555
C2 C3 1_555 1_555
C3 H2 1_555 1_555
C4 C3 1_555 1_555
H3 C4 1_555 1_555
C5 C4 1_555 1_555
H4 C5 1_555 1_555
C6 C5 1_555 1_555
H5 C6 1_555 1_555
C7 N1 1_555 1_555
C8 N1 1_555 1_555
C9 C1 1_555 1_555
H6 C9 1_555 1_555
H7 C9 1_555 1_555
C10 C9 1_555 1_555
C11 C10 1_555 1_555
C12 C11 1_555 1_555
H8 C12 1_555 1_555
C13 C12 1_555 1_555
H9 C13 1_555 1_555
C14 C13 1_555 1_555
H10 C14 1_555 1_555
C15 C14 1_555 1_555
H11 C15 1_555 1_555
C16 C11 1_555 1_555
H12 C16 1_555 1_555
C17 C8 1_555 1_555
C18 C17 1_555 1_555
H13 C18 1_555 1_555
C19 C18 1_555 1_555
H14 C19 1_555 1_555
C20 C19 1_555 1_555
H15 C20 1_555 1_555
C21 C20 1_555 1_555
H16 C21 1_555 1_555
C22 C17 1_555 1_555
H17 C22 1_555 1_555
O2 C32 1_555 1_555
N2 H18 1_555 1_555
C23 C24 1_555 1_555
C24 C25 1_555 1_555
C25 H19 1_555 1_555
C26 C25 1_555 1_555
H20 C26 1_555 1_555
C27 C26 1_555 1_555
H21 C27 1_555 1_555
C28 C27 1_555 1_555
H22 C28 1_555 1_555
C29 N2 1_555 1_555
C30 N2 1_555 1_555
C31 C23 1_555 1_555
H23 C31 1_555 1_555
H24 C31 1_555 1_555
C32 C31 1_555 1_555
C33 C32 1_555 1_555
C34 C33 1_555 1_555
H25 C34 1_555 1_555
C35 C34 1_555 1_555
H26 C35 1_555 1_555
C36 C35 1_555 1_555
H27 C36 1_555 1_555
C37 C36 1_555 1_555
H28 C37 1_555 1_555
C38 C33 1_555 1_555
H29 C38 1_555 1_555
C39 C30 1_555 1_555
C40 C39 1_555 1_555
H30 C40 1_555 1_555
C41 C40 1_555 1_555
H31 C41 1_555 1_555
C42 C41 1_555 1_555
H32 C42 1_555 1_555
C43 C42 1_555 1_555
H33 C43 1_555 1_555
C44 C39 1_555 1_555
H34 C44 1_555 1_555
C45 H35 1_555 1_555
H36 C45 1_555 1_555
Cl1 C45 1_555 1_555
Cl2 C45 1_555 1_555
C1 C8 1_555 1_555
C2 C7 1_555 1_555
C6 C7 1_555 1_555
C15 C16 1_555 1_555
C21 C22 1_555 1_555
C23 C30 1_555 1_555
C24 C29 1_555 1_555
C28 C29 1_555 1_555
C37 C38 1_555 1_555
C43 C44 1_555 1_555

#END
