
#######################################################################
#
#                 Cambridge Crystallographic Data Centre
#                                CCDC 
#
#######################################################################
#
# If this CIF has been generated from an entry in the Cambridge 
# Structural Database, then it will include bibliographic, chemical, 
# crystal, experimental, refinement or atomic coordinate data resulting 
# from the CCDC's data processing and validation procedures.
#
#######################################################################

data_JAMGOT
_chemical_formula_moiety         'C19 H34 O4'
_chemical_name_systematic        
(4R-(4\a,5\b))-5-((1S*,2R*,3S*)-2-Hydroxy-1,3-dimethyl-4-pentenyl)-2,2,4-trimethyl-4-((2R*)-2-methyl-3-oxopentyl)-1,3-dioxolane
_symmetry_cell_setting           orthorhombic
_symmetry_space_group_name_H-M   'P 21 21 21'
_symmetry_Int_Tables_number      19
_space_group_name_Hall           'P 2ac 2ab'
loop_
_symmetry_equiv_pos_site_id
_symmetry_equiv_pos_as_xyz
1 x,y,z
2 1/2+x,1/2-y,-z
3 -x,1/2+y,1/2-z
4 1/2-x,-y,1/2+z
_cell_length_a                   7.949(2)
_cell_length_b                   14.880(5)
_cell_length_c                   17.047(5)
_cell_angle_alpha                90
_cell_angle_beta                 90
_cell_angle_gamma                90
_cell_volume                     2016.34
_exptl_crystal_colour            colorless
_cell_formula_units_Z            4
loop_
_atom_site_label
_atom_site_type_symbol
_atom_site_fract_x
_atom_site_fract_y
_atom_site_fract_z
C1 C 0.2831(9) 0.2733(4) 0.4176(4)
C2 C 0.3171(9) 0.3576(4) 0.4343(4)
C3 C 0.2673(7) 0.4363(4) 0.3844(3)
C4 C 0.1500(7) 0.5003(3) 0.4286(3)
C5 C -0.0047(7) 0.4556(3) 0.4652(3)
C6 C -0.0985(6) 0.5209(3) 0.5178(3)
C7 C -0.0123(6) 0.5604(3) 0.5913(3)
C8 C 0.0697(7) 0.6515(3) 0.5769(3)
C9 C 0.0836(7) 0.7093(3) 0.6498(3)
C10 C -0.0849(7) 0.7509(3) 0.6708(3)
C11 C -0.1392(9) 0.7465(4) 0.7563(3)
C12 C -0.3064(10) 0.7900(5) 0.7739(4)
O1 O -0.1695(5) 0.7894(2) 0.6217(2)
C13 C 0.2072(9) 0.7875(5) 0.6371(5)
O2 O -0.1542(4) 0.5744(2) 0.6430(2)
C14 C 0.1039(8) 0.4935(4) 0.6304(3)
O3 O -0.2412(4) 0.4741(2) 0.5508(2)
C15 C -0.1229(8) 0.4177(5) 0.4026(4)
O4 O 0.0905(5) 0.5694(3) 0.3778(2)
C16 C 0.4231(8) 0.4852(5) 0.3555(4)
C17 C -0.4291(9) 0.5955(6) 0.5885(5)
C18 C -0.2978(7) 0.5270(4) 0.6146(3)
C19 C -0.3619(12) 0.4638(6) 0.6779(4)
H1 H 0.3327(9) 0.2240(4) 0.4501(4)
H2 H 0.2076(9) 0.2585(4) 0.3725(4)
H3 H 0.3928(9) 0.3715(4) 0.4796(4)
H4 H 0.203(5) 0.413(2) 0.337(2)
H5 H 0.218(4) 0.526(2) 0.473(2)
H6 H 0.033(5) 0.404(3) 0.500(2)
H7 H -0.137(4) 0.572(3) 0.488(2)
H8 H 0.180(6) 0.643(3) 0.551(2)
H9 H -0.001(5) 0.690(3) 0.536(2)
H10 H 0.114(5) 0.675(3) 0.696(2)
H11 H -0.130(7) 0.685(4) 0.769(3)
H12 H -0.043(5) 0.776(3) 0.785(2)
H13 H -0.331(5) 0.790(3) 0.824(2)
H14 H -0.416(5) 0.757(3) 0.745(2)
H15 H -0.295(6) 0.849(3) 0.758(2)
H16 H 0.319(7) 0.762(3) 0.631(3)
H17 H 0.218(6) 0.824(3) 0.684(3)
H18 H 0.161(7) 0.822(4) 0.593(3)
H19 H 0.205(5) 0.480(3) 0.598(2)
H20 H 0.038(6) 0.437(3) 0.640(2)
H21 H 0.141(5) 0.516(2) 0.682(2)
H22 H -0.063(7) 0.372(3) 0.378(3)
H23 H -0.163(7) 0.466(3) 0.367(3)
H24 H -0.229(6) 0.387(3) 0.424(2)
H25 H 0.152(7) 0.610(3) 0.382(3)
H26 H 0.393(7) 0.537(3) 0.323(3)
H27 H 0.506(7) 0.448(3) 0.325(3)
H28 H 0.491(8) 0.510(4) 0.404(4)
H29 H -0.538(8) 0.566(4) 0.565(4)
H30 H -0.383(8) 0.634(4) 0.547(4)
H31 H -0.466(7) 0.628(3) 0.632(3)
H32 H -0.398(7) 0.502(4) 0.720(3)
H33 H -0.266(8) 0.423(4) 0.699(4)
H34 H -0.462(7) 0.426(3) 0.657(3)
loop_
_geom_bond_atom_site_label_1
_geom_bond_atom_site_label_2
_geom_bond_site_symmetry_1
_geom_bond_site_symmetry_2
C1 C2 1_555 1_555
C2 C3 1_555 1_555
C3 C4 1_555 1_555
C4 C5 1_555 1_555
C5 C6 1_555 1_555
C6 C7 1_555 1_555
C7 C8 1_555 1_555
C8 C9 1_555 1_555
C9 C10 1_555 1_555
C10 C11 1_555 1_555
C11 C12 1_555 1_555
C12 H13 1_555 1_555
O1 C10 1_555 1_555
C13 C9 1_555 1_555
O2 C7 1_555 1_555
C14 C7 1_555 1_555
O3 C6 1_555 1_555
C15 C5 1_555 1_555
O4 C4 1_555 1_555
C16 C3 1_555 1_555
C17 C18 1_555 1_555
C18 O2 1_555 1_555
C19 C18 1_555 1_555
H1 C1 1_555 1_555
H2 C1 1_555 1_555
H3 C2 1_555 1_555
H4 C3 1_555 1_555
H5 C4 1_555 1_555
H6 C5 1_555 1_555
H7 C6 1_555 1_555
H8 C8 1_555 1_555
H9 C8 1_555 1_555
H10 C9 1_555 1_555
H11 C11 1_555 1_555
H12 C11 1_555 1_555
H14 C12 1_555 1_555
H15 C12 1_555 1_555
H16 C13 1_555 1_555
H17 C13 1_555 1_555
H18 C13 1_555 1_555
H19 C14 1_555 1_555
H20 C14 1_555 1_555
H21 C14 1_555 1_555
H22 C15 1_555 1_555
H23 C15 1_555 1_555
H24 C15 1_555 1_555
H25 O4 1_555 1_555
H26 C16 1_555 1_555
H27 C16 1_555 1_555
H28 C16 1_555 1_555
H29 C17 1_555 1_555
H30 C17 1_555 1_555
H31 C17 1_555 1_555
H32 C19 1_555 1_555
H33 C19 1_555 1_555
H34 C19 1_555 1_555
O3 C18 1_555 1_555

#END
