
#######################################################################
#
#                 Cambridge Crystallographic Data Centre
#                                CCDC 
#
#######################################################################
#
# If this CIF has been generated from an entry in the Cambridge 
# Structural Database, then it will include bibliographic, chemical, 
# crystal, experimental, refinement or atomic coordinate data resulting 
# from the CCDC's data processing and validation procedures.
#
#######################################################################

data_JAMLAK
_chemical_formula_moiety         'C11 H18 N1 O1 1+,I1 1-'
_chemical_name_systematic        '(p-Hydroxyphenethyl)trimethylammonium iodide'
_symmetry_cell_setting           triclinic
_symmetry_space_group_name_H-M   'P -1'
_symmetry_Int_Tables_number      2
_space_group_name_Hall           '-P 1'
loop_
_symmetry_equiv_pos_site_id
_symmetry_equiv_pos_as_xyz
1 x,y,z
2 -x,-y,-z
_cell_length_a                   9.619(1)
_cell_length_b                   9.926(1)
_cell_length_c                   14.179(2)
_cell_angle_alpha                95.24(1)
_cell_angle_beta                 97.50(1)
_cell_angle_gamma                98.97(1)
_cell_volume                     1317.14
_cell_formula_units_Z            4
loop_
_atom_site_label
_atom_site_type_symbol
_atom_site_fract_x
_atom_site_fract_y
_atom_site_fract_z
I1 I 0.1681(1) 0.2287(1) 0.4175(1)
C1 C 0.2925(5) 0.0971(4) 0.8580(3)
C2 C 0.4317(5) 0.1069(4) 0.8421(3)
C3 C 0.4680(5) 0.1126(5) 0.7506(3)
C4 C 0.3640(4) 0.1101(4) 0.6737(3)
O1 O 0.4049(4) 0.1147(4) 0.5854(2)
C5 C 0.2228(5) 0.1032(4) 0.6884(3)
C6 C 0.1887(5) 0.0960(4) 0.7796(3)
C7 C 0.2555(6) 0.0890(4) 0.9579(3)
C8 C 0.2663(5) 0.2310(4) 1.0088(3)
N1 N 0.2386(4) 0.2355(3) 1.1125(2)
C9 C 0.0987(5) 0.1523(5) 1.1213(3)
C10 C 0.3518(5) 0.1809(6) 1.1729(3)
C11 C 0.2355(9) 0.3801(5) 1.1466(4)
H1 H 0.5053 0.1097 0.8953
H2 H 0.5657 0.1184 0.7411
H3 H 0.3506 0.1369 0.5251
H4 H 0.1497 0.1035 0.6354
H5 H 0.0911 0.0902 0.7892
H6 H 0.3201 0.0406 0.9931
H7 H 0.1600 0.0406 0.9540
H8 H 0.3606 0.2797 1.0084
H9 H 0.1983 0.2764 0.9741
H10 H 0.0223 0.1784 1.0802
H11 H 0.0821 0.1649 1.1866
H12 H 0.1034 0.0575 1.1038
H13 H 0.4411 0.2312 1.1626
H14 H 0.3480 0.0849 1.1537
H15 H 0.3427 0.1944 1.2396
H16 H 0.2158 0.3846 1.2114
H17 H 0.1610 0.4108 1.1067
H18 H 0.3246 0.4378 1.1443
I2 I 0.8546(1) 0.2516(1) -0.1040(1)
C12 C 0.6824(4) 0.3498(4) 0.3261(3)
C13 C 0.7302(5) 0.2661(4) 0.2585(3)
C14 C 0.7409(5) 0.3016(4) 0.1677(3)
C15 C 0.7049(5) 0.4241(4) 0.1434(3)
O2 O 0.7083(5) 0.4624(4) 0.0533(2)
C16 C 0.6600(6) 0.5114(5) 0.2101(3)
C17 C 0.6490(5) 0.4736(5) 0.3004(3)
C18 C 0.6694(5) 0.3060(5) 0.4243(3)
C19 C 0.8088(4) 0.3582(4) 0.4896(3)
N2 N 0.8172(4) 0.3189(3) 0.5907(2)
C20 C 0.7032(5) 0.3671(5) 0.6388(3)
C21 C 0.9594(5) 0.3858(5) 0.6439(3)
C22 C 0.8057(6) 0.1650(4) 0.5900(3)
H19 H 0.7565 0.1810 0.2752
H20 H 0.7734 0.2413 0.1217
H21 H 0.7443 0.3789 0.0246
H22 H 0.6367 0.5978 0.1938
H23 H 0.6174 0.5344 0.3466
H24 H 0.5941 0.3439 0.4495
H25 H 0.6488 0.2076 0.4199
H26 H 0.8827 0.3231 0.4607
H27 H 0.8256 0.4566 0.4937
H28 H 0.6107 0.3155 0.6139
H29 H 0.7032 0.4626 0.6329
H30 H 0.7262 0.3548 0.7051
H31 H 0.9645 0.3616 0.7081
H32 H 0.9639 0.4833 0.6450
H33 H 1.0378 0.3590 0.6157
H34 H 0.7118 0.1180 0.5638
H35 H 0.8275 0.1471 0.6552
H36 H 0.8735 0.1330 0.5532
loop_
_geom_bond_atom_site_label_1
_geom_bond_atom_site_label_2
_geom_bond_site_symmetry_1
_geom_bond_site_symmetry_2
C1 C2 1_555 1_555
C2 C3 1_555 1_555
C3 C4 1_555 1_555
C4 O1 1_555 1_555
O1 H3 1_555 1_555
C5 C4 1_555 1_555
C6 C1 1_555 1_555
C7 C1 1_555 1_555
C8 C7 1_555 1_555
N1 C8 1_555 1_555
C9 N1 1_555 1_555
C10 N1 1_555 1_555
C11 N1 1_555 1_555
C12 C13 1_555 1_555
C13 C14 1_555 1_555
C14 C15 1_555 1_555
C15 O2 1_555 1_555
O2 H21 1_555 1_555
C16 C15 1_555 1_555
C17 C12 1_555 1_555
C18 C12 1_555 1_555
C19 C18 1_555 1_555
N2 C19 1_555 1_555
C20 N2 1_555 1_555
C21 N2 1_555 1_555
C22 N2 1_555 1_555
H1 C2 1_555 1_555
H2 C3 1_555 1_555
H4 C5 1_555 1_555
H5 C6 1_555 1_555
H6 C7 1_555 1_555
H7 C7 1_555 1_555
H8 C8 1_555 1_555
H9 C8 1_555 1_555
H10 C9 1_555 1_555
H11 C9 1_555 1_555
H12 C9 1_555 1_555
H13 C10 1_555 1_555
H14 C10 1_555 1_555
H15 C10 1_555 1_555
H16 C11 1_555 1_555
H17 C11 1_555 1_555
H18 C11 1_555 1_555
H19 C13 1_555 1_555
H20 C14 1_555 1_555
H22 C16 1_555 1_555
H23 C17 1_555 1_555
H24 C18 1_555 1_555
H25 C18 1_555 1_555
H26 C19 1_555 1_555
H27 C19 1_555 1_555
H28 C20 1_555 1_555
H29 C20 1_555 1_555
H30 C20 1_555 1_555
H31 C21 1_555 1_555
H32 C21 1_555 1_555
H33 C21 1_555 1_555
H34 C22 1_555 1_555
H35 C22 1_555 1_555
H36 C22 1_555 1_555
C5 C6 1_555 1_555
C16 C17 1_555 1_555

#END
