
#######################################################################
#
#                 Cambridge Crystallographic Data Centre
#                                CCDC 
#
#######################################################################
#
# If this CIF has been generated from an entry in the Cambridge 
# Structural Database, then it will include bibliographic, chemical, 
# crystal, experimental, refinement or atomic coordinate data resulting 
# from the CCDC's data processing and validation procedures.
#
#######################################################################

data_JAMNOB
_chemical_formula_moiety         'C22 H20 N2 O6,5(H2 O1)'
_chemical_name_systematic        
"1,4-bis(4'-Picolyloxy)benzene-N,N'-diacetate pentahydrate"
_symmetry_cell_setting           monoclinic
_symmetry_space_group_name_H-M   'C 2/c'
_symmetry_Int_Tables_number      15
_space_group_name_Hall           '-C 2yn'
loop_
_symmetry_equiv_pos_site_id
_symmetry_equiv_pos_as_xyz
1 x,y,z
2 1/2+x,1/2+y,z
3 -x,y,1/2-z
4 1/2-x,1/2+y,1/2-z
5 -x,-y,-z
6 1/2-x,1/2-y,-z
7 x,-y,1/2+z
8 1/2+x,1/2-y,1/2+z
_cell_length_a                   20.5811(15)
_cell_length_b                   9.0156(7)
_cell_length_c                   13.2848(9)
_cell_angle_alpha                90
_cell_angle_beta                 99.834(2)
_cell_angle_gamma                90
_cell_volume                     2428.79
_exptl_crystal_colour            colorless
_exptl_crystal_description       block
_cell_formula_units_Z            4
loop_
_atom_site_label
_atom_site_type_symbol
_atom_site_fract_x
_atom_site_fract_y
_atom_site_fract_z
O1 O 0.18000(9) 0.3824(2) 0.15984(13)
O2 O 0.17446(9) 0.4136(3) -0.00682(13)
O3 O 0.42898(8) 0.47561(18) 0.55409(12)
N1 N 0.31336(10) 0.4192(2) 0.19897(14)
C1 C 0.20416(13) 0.4084(3) 0.08307(17)
C2 C 0.27716(13) 0.4433(3) 0.09440(17)
H1 H 0.2965 0.3816 0.0475
H2 H 0.2824 0.5460 0.0755
C3 C 0.33080(12) 0.5352(3) 0.26072(18)
H3 H 0.3207 0.6308 0.2367
C4 C 0.36329(12) 0.5153(3) 0.35869(17)
H4 H 0.3751 0.5969 0.4007
C5 C 0.37842(11) 0.3733(3) 0.39492(16)
C6 C 0.35918(13) 0.2552(3) 0.32956(18)
H5 H 0.3681 0.1586 0.3521
C7 C 0.32729(13) 0.2802(3) 0.23263(18)
H6 H 0.3150 0.2004 0.1892
C8 C 0.41570(13) 0.3412(3) 0.49926(17)
H7 H 0.3900 0.2760 0.5353
H8 H 0.4568 0.2915 0.4940
C9 C 0.46473(11) 0.4637(3) 0.65175(16)
C10 C 0.48246(13) 0.3316(3) 0.70027(17)
H9 H 0.4711 0.2423 0.6668
C11 C 0.48248(11) 0.5969(3) 0.70103(16)
H10 H 0.4707 0.6863 0.6679
C10B C 0.51754(13) 0.3316(3) 0.79973(17)
C9B C 0.53527(11) 0.4637(3) 0.84825(16)
O3B O 0.57102(8) 0.47561(18) 0.94591(12)
C8B C 0.58430(13) 0.3412(3) 1.00074(17)
C5B C 0.62158(11) 0.3733(3) 1.10508(16)
C4B C 0.63671(12) 0.5153(3) 1.14131(17)
C3B C 0.66920(12) 0.5352(3) 1.23928(18)
N1B N 0.68664(10) 0.4192(2) 1.30103(14)
C2B C 0.72284(13) 0.4433(3) 1.40560(17)
C1B C 0.79584(13) 0.4084(3) 1.41693(17)
O1B O 0.82000(9) 0.3824(2) 1.34016(13)
O2B O 0.82554(9) 0.4136(3) 1.50682(13)
H1B H 0.7035 0.3816 1.4525
H2B H 0.7176 0.5460 1.4245
C7B C 0.67271(13) 0.2802(3) 1.26737(18)
C6B C 0.64082(13) 0.2552(3) 1.17044(18)
H5B H 0.6319 0.1586 1.1479
H6B H 0.6850 0.2004 1.3108
H3B H 0.6793 0.6308 1.2633
H4B H 0.6249 0.5969 1.0993
H7B H 0.6100 0.2760 0.9647
H8B H 0.5432 0.2915 1.0060
C11B C 0.51752(11) 0.5969(3) 0.79897(16)
H10B H 0.5293 0.6863 0.8321
H9B H 0.5289 0.2423 0.8332
O4 O 0.20160(12) 0.3443(3) 0.37231(15)
H11 H 0.1925 0.3681 0.3040
H12 H 0.1949 0.4253 0.4114
O5 O 0.03961(13) 0.4388(3) -0.0630(3)
H13 H 0.0679 0.3593 -0.0507
H14 H -0.0045 0.4599 -0.0826
O6? O 0.4497(3) 0.0024(6) 0.2828(4)
H15? H 0.4259 0.0122 0.2179
H16? H 0.4885 0.0024 0.2572
loop_
_geom_bond_atom_site_label_1
_geom_bond_atom_site_label_2
_geom_bond_site_symmetry_1
_geom_bond_site_symmetry_2
O1 C1 1_555 1_555
O2 C1 1_555 1_555
O3 C8 1_555 1_555
N1 C2 1_555 1_555
C1 C2 1_555 1_555
C2 H1 1_555 1_555
H2 C2 1_555 1_555
C3 N1 1_555 1_555
H3 C3 1_555 1_555
C4 C3 1_555 1_555
H4 C4 1_555 1_555
C5 C4 1_555 1_555
C6 C5 1_555 1_555
H5 C6 1_555 1_555
C7 N1 1_555 1_555
H6 C7 1_555 1_555
C8 C5 1_555 1_555
H7 C8 1_555 1_555
H8 C8 1_555 1_555
C9 O3 1_555 1_555
C10 C9 1_555 1_555
H9 C10 1_555 1_555
C11 C9 1_555 1_555
H10 C11 1_555 1_555
O4 H11 1_555 1_555
H12 O4 1_555 1_555
O5 H13 1_555 1_555
H14 O5 1_555 1_555
C10B C10 1_555 1_555
C9B C10B 1_555 1_555
O3B C9B 1_555 1_555
C8B O3B 1_555 1_555
C5B C8B 1_555 1_555
C4B C5B 1_555 1_555
C3B C4B 1_555 1_555
N1B C3B 1_555 1_555
C2B N1B 1_555 1_555
C1B C2B 1_555 1_555
O1B C1B 1_555 1_555
O2B C1B 1_555 1_555
H1B C2B 1_555 1_555
H2B C2B 1_555 1_555
C7B N1B 1_555 1_555
C6B C5B 1_555 1_555
H5B C6B 1_555 1_555
H6B C7B 1_555 1_555
H3B C3B 1_555 1_555
H4B C4B 1_555 1_555
H7B C8B 1_555 1_555
H8B C8B 1_555 1_555
C11B C11 1_555 1_555
H10B C11B 1_555 1_555
H9B C10B 1_555 1_555
C6 C7 1_555 1_555
C9B C11B 1_555 1_555
C7B C6B 1_555 1_555

#END
