
#######################################################################
#
#                 Cambridge Crystallographic Data Centre
#                                CCDC 
#
#######################################################################
#
# If this CIF has been generated from an entry in the Cambridge 
# Structural Database, then it will include bibliographic, chemical, 
# crystal, experimental, refinement or atomic coordinate data resulting 
# from the CCDC's data processing and validation procedures.
#
#######################################################################

data_JAMNIV
_chemical_formula_moiety         'C22 H20 N2 O6,6(H2 O1)'
_chemical_name_systematic        
"1,4-bis(3'-Picolyloxy)benzene-N,N'-diacetate hexahydrate"
_symmetry_cell_setting           triclinic
_symmetry_space_group_name_H-M   'P -1'
_symmetry_Int_Tables_number      2
_space_group_name_Hall           '-P 1'
loop_
_symmetry_equiv_pos_site_id
_symmetry_equiv_pos_as_xyz
1 x,y,z
2 -x,-y,-z
_cell_length_a                   4.9953(10)
_cell_length_b                   9.4261(19)
_cell_length_c                   13.723(3)
_cell_angle_alpha                83.878(4)
_cell_angle_beta                 84.934(4)
_cell_angle_gamma                86.101(4)
_cell_volume                     638.849
_exptl_crystal_colour            colorless
_exptl_crystal_description       block
_cell_formula_units_Z            1
loop_
_atom_site_label
_atom_site_type_symbol
_atom_site_fract_x
_atom_site_fract_y
_atom_site_fract_z
O1 O -0.1242(3) 0.04289(18) 0.34233(13)
O2 O 0.5355(4) 0.57372(18) 0.13946(15)
O3 O 0.7396(4) 0.37576(19) 0.20764(16)
N1 N 0.4103(4) 0.20126(19) 0.13712(14)
C1 C 0.5695(5) 0.4416(2) 0.15757(18)
C2 C 0.3801(5) 0.3562(2) 0.10775(19)
H1 H 0.1956 0.3898 0.1244
H2 H 0.4160 0.3734 0.0370
C3 C 0.6145(5) 0.1234(3) 0.09466(19)
H3 H 0.7332 0.1668 0.0463
C4 C 0.6474(5) -0.0196(3) 0.12263(19)
H4 H 0.7880 -0.0738 0.0930
C5 C 0.4731(5) -0.0836(3) 0.19442(19)
H5 H 0.4941 -0.1813 0.2130
C6 C 0.2650(4) -0.0018(2) 0.23919(17)
C7 C 0.2388(4) 0.1419(2) 0.20807(17)
H6 H 0.1003 0.1986 0.2367
C8 C 0.0763(5) -0.0654(2) 0.32007(19)
H7 H -0.0052 -0.1464 0.2993
H8 H 0.1722 -0.0977 0.3776
C9 C -0.3054(5) 0.0157(3) 0.42211(18)
C10 C -0.4884(5) 0.1286(3) 0.44225(18)
H9 H -0.4798 0.2151 0.4029
C11 C -0.3176(5) -0.1137(2) 0.48031(18)
H10 H -0.1959 -0.1897 0.4671
C11A C -0.6824(5) 0.1137(2) 0.51969(18)
C9A C -0.6946(5) -0.0157(3) 0.57789(18)
O1A O -0.8758(3) -0.04289(18) 0.65767(13)
C8A C -1.0763(5) 0.0654(2) 0.67993(19)
C6A C -1.2650(4) 0.0018(2) 0.76081(17)
C5A C -1.4731(5) 0.0836(3) 0.80558(19)
C4A C -1.6474(5) 0.0196(3) 0.87737(19)
C3A C -1.6145(5) -0.1234(3) 0.90534(19)
N1A N -1.4103(4) -0.20126(19) 0.86288(14)
C2A C -1.3801(5) -0.3562(2) 0.89225(19)
C1A C -1.5695(5) -0.4416(2) 0.84243(18)
O2A O -1.5355(4) -0.57372(18) 0.86054(15)
O3A O -1.7396(4) -0.37576(19) 0.79236(16)
H1A H -1.1956 -0.3898 0.8756
H2A H -1.4160 -0.3734 0.9630
C7A C -1.2388(4) -0.1419(2) 0.79193(17)
H6A H -1.1003 -0.1986 0.7633
H3A H -1.7332 -0.1668 0.9537
H4A H -1.7880 0.0738 0.9070
H5A H -1.4941 0.1813 0.7870
H7A H -0.9948 0.1464 0.7007
H8A H -1.1722 0.0977 0.6224
C10A C -0.5116(5) -0.1286(3) 0.55775(18)
H9A H -0.5202 -0.2151 0.5971
H10A H -0.8041 0.1897 0.5329
O4 O 1.0381(4) 0.7041(2) 0.08800(18)
H11 H 0.8945 0.6538 0.1161
H12 H 1.1937 0.6560 0.1078
O5 O 0.2811(7) 0.6096(3) 0.4188(3)
H13 H 0.1252 0.5739 0.4032
H14 H 0.2529 0.5748 0.4839
O6 O 0.8174(8) 0.5065(5) 0.3734(3)
H15 H 0.7934 0.4606 0.3193
H16 H 0.6568 0.5591 0.3827
loop_
_geom_bond_atom_site_label_1
_geom_bond_atom_site_label_2
_geom_bond_site_symmetry_1
_geom_bond_site_symmetry_2
O1 C8 1_555 1_555
O2 C1 1_555 1_555
O3 C1 1_555 1_555
N1 C2 1_555 1_555
C1 C2 1_555 1_555
C2 H1 1_555 1_555
H2 C2 1_555 1_555
C3 N1 1_555 1_555
H3 C3 1_555 1_555
C4 C3 1_555 1_555
H4 C4 1_555 1_555
C5 C4 1_555 1_555
H5 C5 1_555 1_555
C6 C5 1_555 1_555
C7 N1 1_555 1_555
H6 C7 1_555 1_555
C8 C6 1_555 1_555
H7 C8 1_555 1_555
H8 C8 1_555 1_555
C9 O1 1_555 1_555
C10 C9 1_555 1_555
H9 C10 1_555 1_555
C11 C9 1_555 1_555
H10 C11 1_555 1_555
O4 H11 1_555 1_555
H12 O4 1_555 1_555
O5 H13 1_555 1_555
H14 O5 1_555 1_555
O6 H15 1_555 1_555
H16 O6 1_555 1_555
C11A C10 1_555 1_555
C9A C11A 1_555 1_555
O1A C9A 1_555 1_555
C8A O1A 1_555 1_555
C6A C8A 1_555 1_555
C5A C6A 1_555 1_555
C4A C5A 1_555 1_555
C3A C4A 1_555 1_555
N1A C3A 1_555 1_555
C2A N1A 1_555 1_555
C1A C2A 1_555 1_555
O2A C1A 1_555 1_555
O3A C1A 1_555 1_555
H1A C2A 1_555 1_555
H2A C2A 1_555 1_555
C7A C6A 1_555 1_555
H6A C7A 1_555 1_555
H3A C3A 1_555 1_555
H4A C4A 1_555 1_555
H5A C5A 1_555 1_555
H7A C8A 1_555 1_555
H8A C8A 1_555 1_555
C10A C11 1_555 1_555
H9A C10A 1_555 1_555
H10A C11A 1_555 1_555
C6 C7 1_555 1_555
C9A C10A 1_555 1_555
N1A C7A 1_555 1_555

#END
