
#######################################################################
#
#                 Cambridge Crystallographic Data Centre
#                                CCDC 
#
#######################################################################
#
# If this CIF has been generated from an entry in the Cambridge 
# Structural Database, then it will include bibliographic, chemical, 
# crystal, experimental, refinement or atomic coordinate data resulting 
# from the CCDC's data processing and validation procedures.
#
#######################################################################

data_JAMQAS
_chemical_formula_moiety         'C24 H25 N1 O1'
_chemical_name_systematic        
2-(4-methylphenyl)-2-phenyl-N-(3-phenylpropyl)acetamide
_symmetry_cell_setting           monoclinic
_symmetry_space_group_name_H-M   'P 21/c'
_symmetry_Int_Tables_number      14
_space_group_name_Hall           '-P 2ybc'
loop_
_symmetry_equiv_pos_site_id
_symmetry_equiv_pos_as_xyz
1 x,y,z
2 -x,1/2+y,1/2-z
3 -x,-y,-z
4 x,1/2-y,1/2+z
_cell_length_a                   9.6694(8)
_cell_length_b                   22.4408(18)
_cell_length_c                   9.5645(7)
_cell_angle_alpha                90
_cell_angle_beta                 104.407(2)
_cell_angle_gamma                90
_cell_volume                     2010.13
_exptl_crystal_colour            colorless
_exptl_crystal_description       block
_cell_formula_units_Z            4
loop_
_atom_site_label
_atom_site_type_symbol
_atom_site_fract_x
_atom_site_fract_y
_atom_site_fract_z
O1 O 0.1840(2) 0.26966(11) 0.8492(2)
N1 N 0.1419(3) 0.28376(12) 0.6108(2)
H1 H 0.1713 0.2781 0.5341
C1 C 0.4114(3) 0.15630(15) 0.9348(3)
H2 H 0.4594 0.1862 0.9950
C2 C 0.4000(4) 0.10009(19) 0.9905(4)
H3 H 0.4387 0.0928 1.0882
C3 C 0.3326(5) 0.0554(2) 0.9035(6)
H4 H 0.3263 0.0176 0.9412
C4 C 0.2749(4) 0.0662(2) 0.7618(6)
H5 H 0.2294 0.0356 0.7023
C5 C 0.2827(4) 0.12193(19) 0.7048(4)
H6 H 0.2412 0.1288 0.6076
C6 C 0.3528(3) 0.16837(14) 0.7918(3)
C7 C 0.4883(3) 0.26597(14) 0.7945(3)
C8 C 0.4894(4) 0.31751(17) 0.8739(4)
H7 H 0.4043 0.3317 0.8900
C9 C 0.6149(5) 0.34834(18) 0.9299(4)
H8 H 0.6122 0.3830 0.9827
C10 C 0.7429(5) 0.3292(2) 0.9097(4)
C11 C 0.7427(4) 0.2780(2) 0.8307(4)
H9 H 0.8282 0.2639 0.8155
C12 C 0.6189(4) 0.24717(17) 0.7738(4)
H10 H 0.6223 0.2129 0.7200
C13 C 0.8778(6) 0.3613(3) 0.9739(6)
H11 H 0.8574 0.3963 1.0233
H12 H 0.9223 0.3729 0.8989
H13 H 0.9409 0.3357 1.0412
C14 C 0.3553(3) 0.23021(14) 0.7283(3)
H14 H 0.3527 0.2249 0.6260
C15 C 0.2190(3) 0.26265(14) 0.7344(3)
C16 C 0.0099(3) 0.31604(16) 0.5989(3)
H15 H 0.0133 0.3362 0.6895
H16 H -0.0690 0.2881 0.5811
C17 C -0.0156(3) 0.36147(15) 0.4783(3)
H17 H 0.0629 0.3896 0.4963
H18 H -0.0188 0.3414 0.3877
C18 C -0.1523(4) 0.39422(18) 0.4668(4)
H19 H -0.1468 0.4142 0.5580
H20 H -0.2288 0.3652 0.4534
C19 C -0.1924(3) 0.43996(15) 0.3473(3)
C20 C -0.3322(4) 0.45009(16) 0.2831(3)
H21 H -0.4010 0.4264 0.3086
C21 C -0.3750(5) 0.4934(2) 0.1835(4)
H22 H -0.4717 0.4994 0.1423
C22 C -0.2768(6) 0.52790(19) 0.1441(4)
H23 H -0.3056 0.5580 0.0761
C23 C -0.1363(6) 0.5185(2) 0.2039(5)
H24 H -0.0686 0.5420 0.1761
C24 C -0.0929(4) 0.4746(2) 0.3058(5)
H25 H 0.0039 0.4684 0.3464
loop_
_geom_bond_atom_site_label_1
_geom_bond_atom_site_label_2
_geom_bond_site_symmetry_1
_geom_bond_site_symmetry_2
O1 C15 1_555 1_555
N1 H1 1_555 1_555
C1 H2 1_555 1_555
C2 C1 1_555 1_555
H3 C2 1_555 1_555
C3 C2 1_555 1_555
H4 C3 1_555 1_555
C4 C3 1_555 1_555
H5 C4 1_555 1_555
C5 C4 1_555 1_555
H6 C5 1_555 1_555
C6 C1 1_555 1_555
C7 C8 1_555 1_555
C8 H7 1_555 1_555
C9 C8 1_555 1_555
H8 C9 1_555 1_555
C10 C9 1_555 1_555
C11 C10 1_555 1_555
H9 C11 1_555 1_555
C12 C7 1_555 1_555
H10 C12 1_555 1_555
C13 C10 1_555 1_555
H11 C13 1_555 1_555
H12 C13 1_555 1_555
H13 C13 1_555 1_555
C14 C6 1_555 1_555
H14 C14 1_555 1_555
C15 N1 1_555 1_555
C16 N1 1_555 1_555
H15 C16 1_555 1_555
H16 C16 1_555 1_555
C17 C16 1_555 1_555
H17 C17 1_555 1_555
H18 C17 1_555 1_555
C18 C17 1_555 1_555
H19 C18 1_555 1_555
H20 C18 1_555 1_555
C19 C18 1_555 1_555
C20 C19 1_555 1_555
H21 C20 1_555 1_555
C21 C20 1_555 1_555
H22 C21 1_555 1_555
C22 C21 1_555 1_555
H23 C22 1_555 1_555
C23 C22 1_555 1_555
H24 C23 1_555 1_555
C24 C19 1_555 1_555
H25 C24 1_555 1_555
C5 C6 1_555 1_555
C7 C14 1_555 1_555
C11 C12 1_555 1_555
C14 C15 1_555 1_555
C23 C24 1_555 1_555

#END
