
#######################################################################
#
#                 Cambridge Crystallographic Data Centre
#                                CCDC 
#
#######################################################################
#
# If this CIF has been generated from an entry in the Cambridge 
# Structural Database, then it will include bibliographic, chemical, 
# crystal, experimental, refinement or atomic coordinate data resulting 
# from the CCDC's data processing and validation procedures.
#
#######################################################################

data_JAMVUI10
_chemical_formula_moiety         'C16 H26 O4'
_chemical_name_systematic        
(+-)-(4aS,5aR,7aS,11aR,12aR,14aR)-Perhydropyrano(3,2-b)pyrano(2',3':6,7)oxepano(2,3-f)oxepane
_symmetry_cell_setting           triclinic
_symmetry_space_group_name_H-M   'P -1'
_symmetry_Int_Tables_number      2
_space_group_name_Hall           '-P 1'
loop_
_symmetry_equiv_pos_site_id
_symmetry_equiv_pos_as_xyz
1 x,y,z
2 -x,-y,-z
_cell_length_a                   10.911(4)
_cell_length_b                   10.065(5)
_cell_length_c                   14.835(3)
_cell_angle_alpha                91.10(2)
_cell_angle_beta                 110.50(2)
_cell_angle_gamma                89.52(3)
_cell_volume                     1525.71
_exptl_crystal_colour            colorless
_chemical_melting_point          95-96deg.C
_cell_formula_units_Z            4
loop_
_atom_site_label
_atom_site_type_symbol
_atom_site_fract_x
_atom_site_fract_y
_atom_site_fract_z
C1 C 0.5693(4) -0.1685(4) 0.4523(2)
C2 C 0.7018(4) -0.1211(4) 0.5181(2)
C3 C 0.7556(3) -0.0168(3) 0.4682(2)
C4 C 0.7494(3) -0.0701(3) 0.3707(2)
C5 C 0.6091(3) -0.1091(3) 0.3119(2)
C6 C 0.5891(4) -0.1582(3) 0.2104(2)
C7 C 0.6048(4) -0.0461(3) 0.1465(2)
C8 C 0.7435(3) -0.0181(3) 0.1520(2)
C9 C 0.8464(3) -0.0188(3) 0.2532(2)
C10 C 0.9707(3) 0.0554(3) 0.2622(2)
C11 C 0.9646(3) 0.2062(3) 0.2738(2)
C12 C 0.8769(3) 0.2794(3) 0.1862(2)
C13 C 0.7400(3) 0.2246(3) 0.1419(2)
C14 C 0.6553(4) 0.3145(4) 0.0626(2)
C15 C 0.6645(4) 0.4584(4) 0.0963(3)
C16 C 0.8050(4) 0.4989(3) 0.1405(3)
O1 O 0.5728(2) -0.2143(2) 0.3612(2)
O2 O 0.7976(2) 0.0310(2) 0.3254(1)
O3 O 0.7457(2) 0.0981(2) 0.0979(1)
O4 O 0.8741(2) 0.4138(2) 0.2177(2)
H1 H 0.8027 -0.1494 0.3757
H2 H 0.5566 -0.0294 0.3067
H3 H 0.7714 -0.0909 0.1207
H4 H 0.8685 -0.1110 0.2646
H5 H 0.9151 0.2700 0.1377
H6 H 0.7017 0.2191 0.1910
H7 H 0.5084 -0.0959 0.4425
H8 H 0.5398 -0.2384 0.4823
H9 H 0.7609 -0.1950 0.5355
H10 H 0.6953 -0.0837 0.5767
H11 H 0.8425 0.0052 0.5062
H12 H 0.7021 0.0612 0.4589
H13 H 0.5024 -0.1953 0.1823
H14 H 0.6509 -0.2256 0.2128
H15 H 0.5700 0.0345 0.1648
H16 H 0.5519 -0.0663 0.0808
H17 H 0.9919 0.0371 0.2057
H18 H 1.0406 0.0222 0.3166
H19 H 1.0491 0.2407 0.2926
H20 H 0.9294 0.2224 0.3245
H21 H 0.5646 0.2846 0.0427
H22 H 0.6812 0.3036 0.0073
H23 H 0.6252 0.4709 0.1431
H24 H 0.6225 0.5152 0.0429
H25 H 0.8106 0.5880 0.1616
H26 H 0.8439 0.4914 0.0907
C17 C 0.9500(3) 0.2968(4) 0.5457(3)
C18 C 0.8461(3) 0.3809(3) 0.4748(2)
C19 C 0.7991(3) 0.4902(3) 0.5277(2)
C20 C 0.7573(3) 0.4273(3) 0.6039(2)
C21 C 0.8709(3) 0.3484(3) 0.6719(2)
C22 C 0.8429(4) 0.2835(3) 0.7540(2)
C23 C 0.8289(4) 0.3865(4) 0.8283(2)
C24 C 0.6949(3) 0.4482(3) 0.8052(2)
C25 C 0.6264(3) 0.4840(3) 0.6998(2)
C26 C 0.5184(3) 0.5874(4) 0.6836(2)
C27 C 0.5643(4) 0.7309(4) 0.7024(2)
C28 C 0.6391(3) 0.7710(3) 0.8056(2)
C29 C 0.7509(3) 0.6784(3) 0.8569(2)
C30 C 0.8313(3) 0.7343(3) 0.9557(2)
C31 C 0.8695(4) 0.8776(4) 0.9493(2)
C32 C 0.7526(4) 0.9584(4) 0.8949(3)
O5 O 0.9056(2) 0.2449(2) 0.6176(2)
O6 O 0.7143(2) 0.5289(2) 0.6542(1)
O7 O 0.6993(2) 0.5546(2) 0.8726(1)
O8 O 0.6856(3) 0.9014(2) 0.8016(2)
H27 H 0.6865 0.3673 0.5758
H28 H 0.9410 0.4125 0.7007
H29 H 0.6370 0.3810 0.8135
H30 H 0.5868 0.4019 0.6706
H31 H 0.5835 0.7693 0.8438
H32 H 0.8018 0.6678 0.8165
H33 H 1.0263 0.3511 0.5758
H34 H 0.9750 0.2257 0.5115
H35 H 0.7745 0.3247 0.4396
H36 H 0.8807 0.4193 0.4303
H37 H 0.7266 0.5360 0.4829
H38 H 0.8676 0.5518 0.5565
H39 H 0.9092 0.2210 0.7843
H40 H 0.7607 0.2364 0.7270
H41 H 0.8904 0.4565 0.8310
H42 H 0.8553 0.3452 0.8887
H43 H 0.4716 0.5701 0.7241
H44 H 0.4628 0.5821 0.6179
H45 H 0.4860 0.7823 0.6794
H46 H 0.6162 0.7448 0.6651
H47 H 0.9110 0.6827 0.9818
H48 H 0.7844 0.7289 0.9983
H49 H 0.9298 0.8802 0.9161
H50 H 0.9069 0.9150 1.0113
H51 H 0.7816 1.0455 0.8862
H52 H 0.6958 0.9652 0.9299
loop_
_geom_bond_atom_site_label_1
_geom_bond_atom_site_label_2
_geom_bond_site_symmetry_1
_geom_bond_site_symmetry_2
C1 C2 1_555 1_555
C2 C3 1_555 1_555
C3 C4 1_555 1_555
C4 C5 1_555 1_555
C5 C6 1_555 1_555
C6 C7 1_555 1_555
C7 C8 1_555 1_555
C8 C9 1_555 1_555
C9 C10 1_555 1_555
C10 C11 1_555 1_555
C11 C12 1_555 1_555
C12 C13 1_555 1_555
C13 C14 1_555 1_555
C14 C15 1_555 1_555
C15 C16 1_555 1_555
C16 O4 1_555 1_555
O1 C1 1_555 1_555
O2 C4 1_555 1_555
O3 C8 1_555 1_555
O4 C12 1_555 1_555
C17 C18 1_555 1_555
C18 C19 1_555 1_555
C19 C20 1_555 1_555
C20 C21 1_555 1_555
C21 C22 1_555 1_555
C22 C23 1_555 1_555
C23 C24 1_555 1_555
C24 C25 1_555 1_555
C25 C26 1_555 1_555
C26 C27 1_555 1_555
C27 C28 1_555 1_555
C28 C29 1_555 1_555
C29 C30 1_555 1_555
C30 C31 1_555 1_555
C31 C32 1_555 1_555
C32 O8 1_555 1_555
O5 C17 1_555 1_555
O6 C20 1_555 1_555
O7 C24 1_555 1_555
O8 C28 1_555 1_555
H1 C4 1_555 1_555
H2 C5 1_555 1_555
H3 C8 1_555 1_555
H4 C9 1_555 1_555
H5 C12 1_555 1_555
H6 C13 1_555 1_555
H7 C1 1_555 1_555
H8 C1 1_555 1_555
H9 C2 1_555 1_555
H10 C2 1_555 1_555
H11 C3 1_555 1_555
H12 C3 1_555 1_555
H13 C6 1_555 1_555
H14 C6 1_555 1_555
H15 C7 1_555 1_555
H16 C7 1_555 1_555
H17 C10 1_555 1_555
H18 C10 1_555 1_555
H19 C11 1_555 1_555
H20 C11 1_555 1_555
H21 C14 1_555 1_555
H22 C14 1_555 1_555
H23 C15 1_555 1_555
H24 C15 1_555 1_555
H25 C16 1_555 1_555
H26 C16 1_555 1_555
H27 C20 1_555 1_555
H28 C21 1_555 1_555
H29 C24 1_555 1_555
H30 C25 1_555 1_555
H31 C28 1_555 1_555
H32 C29 1_555 1_555
H33 C17 1_555 1_555
H34 C17 1_555 1_555
H35 C18 1_555 1_555
H36 C18 1_555 1_555
H37 C19 1_555 1_555
H38 C19 1_555 1_555
H39 C22 1_555 1_555
H40 C22 1_555 1_555
H41 C23 1_555 1_555
H42 C23 1_555 1_555
H43 C26 1_555 1_555
H44 C26 1_555 1_555
H45 C27 1_555 1_555
H46 C27 1_555 1_555
H47 C30 1_555 1_555
H48 C30 1_555 1_555
H49 C31 1_555 1_555
H50 C31 1_555 1_555
H51 C32 1_555 1_555
H52 C32 1_555 1_555
C5 O1 1_555 1_555
C9 O2 1_555 1_555
C13 O3 1_555 1_555
C21 O5 1_555 1_555
C25 O6 1_555 1_555
C29 O7 1_555 1_555

#END
