
#######################################################################
#
#                 Cambridge Crystallographic Data Centre
#                                CCDC 
#
#######################################################################
#
# If this CIF has been generated from an entry in the Cambridge 
# Structural Database, then it will include bibliographic, chemical, 
# crystal, experimental, refinement or atomic coordinate data resulting 
# from the CCDC's data processing and validation procedures.
#
#######################################################################

data_JANBUV
_chemical_formula_moiety         'C17 H37 Li1 N5 1+,C24 H20 B1 1-'
_chemical_name_systematic        
'(5,12,17-Trimethyl-1,5,9,12,17-penta-azabicyclo(7.5.5)nonadecane)-lithium tetraphenylborate'
_symmetry_cell_setting           monoclinic
_symmetry_space_group_name_H-M   'C 2/c'
_symmetry_Int_Tables_number      15
_space_group_name_Hall           '-C 2yn'
loop_
_symmetry_equiv_pos_site_id
_symmetry_equiv_pos_as_xyz
1 x,y,z
2 1/2+x,1/2+y,z
3 -x,y,1/2-z
4 1/2-x,1/2+y,1/2-z
5 -x,-y,-z
6 1/2-x,1/2-y,-z
7 x,-y,1/2+z
8 1/2+x,1/2-y,1/2+z
_cell_length_a                   24.43(1)
_cell_length_b                   20.04(1)
_cell_length_c                   19.33(2)
_cell_angle_alpha                90
_cell_angle_beta                 128.03(6)
_cell_angle_gamma                90
_cell_volume                     7454.31
_exptl_crystal_colour            colorless
_cell_formula_units_Z            8
loop_
_atom_site_label
_atom_site_type_symbol
_atom_site_fract_x
_atom_site_fract_y
_atom_site_fract_z
B1 B 0.2705(18) 0.9219(19) 0.2720(23)
C10 C 0.2286(8) 1.0126(11) 0.1620(12)
C11 C 0.1774(8) 1.0470(11) 0.0864(12)
C12 C 0.1087(8) 1.0252(11) 0.0355(12)
C13 C 0.0910(8) 0.9691(11) 0.0604(12)
C14 C 0.1422(8) 0.9347(11) 0.1361(12)
C15 C 0.2109(8) 0.9565(11) 0.1869(12)
C16 C 0.2982(9) 0.8015(15) 0.3454(14)
C17 C 0.2949(9) 0.7320(15) 0.3446(14)
C18 C 0.2565(9) 0.6978(15) 0.2656(14)
C19 C 0.2214(9) 0.7330(15) 0.1876(14)
C20 C 0.2247(9) 0.8024(15) 0.1884(14)
C21 C 0.2631(9) 0.8367(15) 0.2674(14)
C22 C 0.4096(15) 0.9365(9) 0.3877(15)
C23 C 0.4764(15) 0.9392(9) 0.4118(15)
C24 C 0.4860(15) 0.9355(9) 0.3484(15)
C25 C 0.4288(15) 0.9290(9) 0.2610(15)
C26 C 0.3620(15) 0.9263(9) 0.2369(15)
C27 C 0.3524(15) 0.9300(9) 0.3003(15)
C28 C 0.3050(11) 1.0158(14) 0.3866(16)
C29 C 0.3018(11) 1.0471(14) 0.4479(16)
C30 C 0.2620(11) 1.0194(14) 0.4697(16)
C31 C 0.2255(11) 0.9603(14) 0.4304(16)
C32 C 0.2287(11) 0.9290(14) 0.3691(16)
C33 C 0.2685(11) 0.9568(14) 0.3472(16)
Li2 Li 0.0000 0.1706(54) 0.2500
N4 N 0.0000 0.0640(25) 0.2500
N5 N -0.0998(18) 0.2159(18) 0.1096(24)
N6 N 0.0480(24) 0.2071(26) 0.1904(30)
C34 C -0.0601(34) 0.2320(28) 0.0733(38)
C35 C 0.0059(34) 0.2558(28) 0.1400(42)
C36 C 0.1244(25) 0.2283(24) 0.2875(34)
C37 C -0.1087(24) 0.2620(26) 0.1536(33)
C38 C -0.1692(25) 0.1812(22) 0.0371(31)
C39 C 0.0647(40) 0.0429(34) 0.3120(50)
C40 C 0.0209(35) 0.0492(28) 0.1947(38)
C41 C 0.0890(29) 0.0791(29) 0.2198(35)
C42 C 0.0599(27) 0.1448(31) 0.1649(34)
N5B N 0.0998(18) 0.2159(18) 0.3904(24)
N6B N -0.0480(24) 0.2071(26) 0.3096(30)
C39B C -0.0647(40) 0.0429(34) 0.1880(50)
C40B C -0.0209(35) 0.0492(28) 0.3053(38)
C37B C 0.1087(24) 0.2620(26) 0.3464(33)
C36B C -0.1244(25) 0.2283(24) 0.2125(34)
C34B C 0.0601(34) 0.2320(28) 0.4267(38)
C38B C 0.1692(25) 0.1812(22) 0.4629(31)
C35B C -0.0059(34) 0.2558(28) 0.3600(42)
C42B C -0.0599(27) 0.1448(31) 0.3351(34)
C41B C -0.0890(29) 0.0791(29) 0.2802(35)
Li1 Li 0.5000 0.2053(51) 0.2500
N1 N 0.5000 0.3180(22) 0.2500
N2 N 0.3944(21) 0.1604(24) 0.1458(32)
N3 N 0.5281(32) 0.1723(34) 0.1593(38)
C1 C 0.4150(31) 0.1179(29) 0.0919(32)
C2 C 0.4749(53) 0.1244(44) 0.1151(53)
C3 C 0.3320(24) 0.2087(21) 0.0829(30)
C4 C 0.3883(30) 0.1218(34) 0.1958(51)
C5 C 0.5840(38) 0.1317(32) 0.2183(52)
C6 C 0.4166(40) 0.3309(38) 0.1740(51)
C7 C 0.5101(33) 0.3242(31) 0.1797(39)
C8 C 0.5329(39) 0.2947(47) 0.1572(55)
C9 C 0.5148(41) 0.2363(51) 0.1098(53)
N2B N 0.6056(21) 0.1604(24) 0.3542(32)
N3B N 0.4719(32) 0.1723(34) 0.3407(38)
C6B C 0.5834(40) 0.3309(38) 0.3260(51)
C7B C 0.4899(33) 0.3242(31) 0.3203(39)
C5B C 0.4160(38) 0.1317(32) 0.2817(52)
C4B C 0.6117(30) 0.1218(34) 0.3042(51)
C1B C 0.5850(31) 0.1179(29) 0.4081(32)
C3B C 0.6680(24) 0.2087(21) 0.4171(30)
C2B C 0.5251(53) 0.1244(44) 0.3849(53)
C9B C 0.4852(41) 0.2363(51) 0.3902(53)
C8B C 0.4671(39) 0.2947(47) 0.3428(55)
loop_
_geom_bond_atom_site_label_1
_geom_bond_atom_site_label_2
_geom_bond_site_symmetry_1
_geom_bond_site_symmetry_2
Li1 N1 1_555 1_555
N1 C6 1_555 1_555
N2 Li1 1_555 1_555
N3 Li1 1_555 1_555
C1 N2 1_555 1_555
C2 N3 1_555 1_555
C3 N2 1_555 1_555
C4 N2 1_555 1_555
C5 N3 1_555 1_555
C7 N1 1_555 1_555
C8 C7 1_555 1_555
C9 N3 1_555 1_555
B1 C15 1_555 1_555
C10 C11 1_555 1_555
C11 C12 1_555 1_555
C12 C13 1_555 1_555
C13 C14 1_555 1_555
C14 C15 1_555 1_555
C15 C10 1_555 1_555
C16 C17 1_555 1_555
C17 C18 1_555 1_555
C18 C19 1_555 1_555
C19 C20 1_555 1_555
C20 C21 1_555 1_555
C21 B1 1_555 1_555
C22 C23 1_555 1_555
C23 C24 1_555 1_555
C24 C25 1_555 1_555
C25 C26 1_555 1_555
C26 C27 1_555 1_555
C27 B1 1_555 1_555
C28 C29 1_555 1_555
C29 C30 1_555 1_555
C30 C31 1_555 1_555
C31 C32 1_555 1_555
C32 C33 1_555 1_555
C33 B1 1_555 1_555
Li2 N4 1_555 1_555
N4 C39 1_555 1_555
N5 Li2 1_555 1_555
N6 Li2 1_555 1_555
C34 N5 1_555 1_555
C35 N6 1_555 1_555
C36 N6 1_555 1_555
C37 N5 1_555 1_555
C38 N5 1_555 1_555
C40 N4 1_555 1_555
C41 C40 1_555 1_555
C42 N6 1_555 1_555
N2B Li1 1_555 1_555
N3B Li1 1_555 1_555
C6B N1 1_555 1_555
C7B N1 1_555 1_555
C5B C4 1_555 1_555
C4B C5 1_555 1_555
C1B N2B 1_555 1_555
C3B N2B 1_555 1_555
C2B N3B 1_555 1_555
C9B N3B 1_555 1_555
C8B C7B 1_555 1_555
N5B Li2 1_555 1_555
N6B Li2 1_555 1_555
C39B N4 1_555 1_555
C40B N4 1_555 1_555
C37B C36 1_555 1_555
C36B C37 1_555 1_555
C34B N5B 1_555 1_555
C38B N5B 1_555 1_555
C35B N6B 1_555 1_555
C42B N6B 1_555 1_555
C41B C40B 1_555 1_555
C1 C2 1_555 1_555
C8 C9 1_555 1_555
C16 C21 1_555 1_555
C22 C27 1_555 1_555
C28 C33 1_555 1_555
C34 C35 1_555 1_555
C41 C42 1_555 1_555
N2B C4B 1_555 1_555
N3B C5B 1_555 1_555
C1B C2B 1_555 1_555
C9B C8B 1_555 1_555
N5B C37B 1_555 1_555
N6B C36B 1_555 1_555
C34B C35B 1_555 1_555
C42B C41B 1_555 1_555

#END
