
#######################################################################
#
#                 Cambridge Crystallographic Data Centre
#                                CCDC 
#
#######################################################################
#
# If this CIF has been generated from an entry in the Cambridge 
# Structural Database, then it will include bibliographic, chemical, 
# crystal, experimental, refinement or atomic coordinate data resulting 
# from the CCDC's data processing and validation procedures.
#
#######################################################################

data_JANGUB
_chemical_formula_moiety         'C11 H13 N5'
_chemical_name_systematic        
9-t-Butyl-5H-tetrazolo(1',5':1,5)pyrrolo(3,4-b)pyridine
_symmetry_cell_setting           monoclinic
_symmetry_space_group_name_H-M   'P 21/m'
_symmetry_Int_Tables_number      11
_space_group_name_Hall           '-P 2yb'
loop_
_symmetry_equiv_pos_site_id
_symmetry_equiv_pos_as_xyz
1 x,y,z
2 x,1/2-y,z
3 -x,-y,-z
4 -x,1/2+y,-z
_cell_length_a                   9.222(5)
_cell_length_b                   6.636(3)
_cell_length_c                   9.268(4)
_cell_angle_alpha                90
_cell_angle_beta                 102.43(3)
_cell_angle_gamma                90
_cell_volume                     553.881
_exptl_crystal_colour            colorless
_exptl_crystal_description       needles
_chemical_melting_point          '484-485 K'
_cell_formula_units_Z            2
_exptl_crystal_recrystallization_method toluene
loop_
_atom_site_label
_atom_site_type_symbol
_atom_site_fract_x
_atom_site_fract_y
_atom_site_fract_z
N1 N -0.1903(4) 0.2500 -0.0231(4)
N2 N -0.1111(6) 0.2500 -0.1321(4)
N3 N 0.0315(6) 0.2500 -0.0780(4)
N4 N 0.0453(4) 0.2500 0.0677(4)
N5 N 0.1519(3) 0.2500 0.4554(4)
C1 C -0.0898(5) 0.2500 0.1002(4)
C2 C -0.0705(4) 0.2500 0.2598(4)
C3 C 0.0850(4) 0.2500 0.3168(4)
C4 C 0.1675(5) 0.2500 0.1927(5)
H1 H 0.2280 0.3682 0.1952
C5 C 0.0601(5) 0.2500 0.5496(4)
H2 H 0.1005 0.2500 0.6542
C6 C -0.0932(4) 0.2500 0.5070(4)
H3 H -0.1555 0.2500 0.5778
C7 C -0.1650(4) 0.2500 0.3607(4)
C8 C -0.3357(4) 0.2500 0.3090(5)
C9 C -0.3842(3) 0.4391(6) 0.2204(4)
H4 H -0.4904 0.4463 0.1894
H5 H -0.3482 0.5570 0.2768
H6 H -0.3411 0.4318 0.1351
C10 C -0.4070(5) 0.2500 0.4460(6)
H7 H -0.5130 0.2500 0.4126
H8 H -0.3768 0.3681 0.5045
C9A C -0.3842(3) 0.0609(6) 0.2204(4)
H4A H -0.4904 0.0537 0.1894
H5A H -0.3482 -0.0570 0.2768
H6A H -0.3411 0.0682 0.1351
H8A H -0.3768 0.1319 0.5045
H1A H 0.2280 0.1318 0.1952
loop_
_geom_bond_atom_site_label_1
_geom_bond_atom_site_label_2
_geom_bond_site_symmetry_1
_geom_bond_site_symmetry_2
N1 N2 1_555 1_555
N2 N3 1_555 1_555
N3 N4 1_555 1_555
N4 C1 1_555 1_555
N5 C3 1_555 1_555
C1 N1 1_555 1_555
C2 C1 1_555 1_555
C3 C2 1_555 1_555
C4 N4 1_555 1_555
H1 C4 1_555 1_555
C5 N5 1_555 1_555
H2 C5 1_555 1_555
C6 C5 1_555 1_555
H3 C6 1_555 1_555
C7 C2 1_555 1_555
C8 C7 1_555 1_555
C9 C8 1_555 1_555
H4 C9 1_555 1_555
H5 C9 1_555 1_555
H6 C9 1_555 1_555
C10 C8 1_555 1_555
H7 C10 1_555 1_555
H8 C10 1_555 1_555
C9A C8 1_555 1_555
H4A C9A 1_555 1_555
H5A C9A 1_555 1_555
H6A C9A 1_555 1_555
H8A C10 1_555 1_555
H1A C4 1_555 1_555
C3 C4 1_555 1_555
C6 C7 1_555 1_555

#END
