
#######################################################################
#
#                 Cambridge Crystallographic Data Centre
#                                CCDC 
#
#######################################################################
#
# If this CIF has been generated from an entry in the Cambridge 
# Structural Database, then it will include bibliographic, chemical, 
# crystal, experimental, refinement or atomic coordinate data resulting 
# from the CCDC's data processing and validation procedures.
#
#######################################################################

data_JANJAK
_chemical_formula_moiety         'C19 H20 N2 O1'
_chemical_name_systematic        
5-Allyl-9-methyl-9,9a-dihydro-8H-indolo(1,7a-c)quinazolin-6(5H)-one
_symmetry_cell_setting           monoclinic
_symmetry_space_group_name_H-M   'P 21/n'
_symmetry_Int_Tables_number      14
_space_group_name_Hall           '-P 2yn'
loop_
_symmetry_equiv_pos_site_id
_symmetry_equiv_pos_as_xyz
1 x,y,z
2 1/2+x,1/2-y,1/2+z
3 -x,-y,-z
4 1/2-x,1/2+y,1/2-z
_cell_length_a                   11.904(2)
_cell_length_b                   13.284(2)
_cell_length_c                   9.819(1)
_cell_angle_alpha                90
_cell_angle_beta                 92.13(1)
_cell_angle_gamma                90
_cell_volume                     1551.63
_exptl_crystal_colour            colorless
_exptl_crystal_description       plate
_chemical_melting_point          '353-355 K'
_cell_formula_units_Z            4
_exptl_crystal_recrystallization_method dichloromethane/hexane
loop_
_atom_site_label
_atom_site_type_symbol
_atom_site_fract_x
_atom_site_fract_y
_atom_site_fract_z
N1 N 0.1259(1) 0.3682(1) 0.6150(1)
C1 C 0.1804(1) 0.4145(1) 0.5084(2)
N2 N 0.1852(1) 0.3594(1) 0.3942(1)
C2 C 0.2560(2) 0.3860(2) 0.2818(2)
C3 C 0.2173(1) 0.3149(1) 0.1682(2)
C4 C 0.1723(1) 0.2218(1) 0.2443(2)
C5 C 0.0967(2) 0.1594(2) 0.1529(2)
C6 C -0.0134(2) 0.1763(2) 0.1463(2)
C7 C -0.0631(1) 0.2528(2) 0.2306(2)
C8 C -0.0051(1) 0.2974(1) 0.3317(2)
C9 C 0.1158(1) 0.2684(1) 0.3673(2)
C10 C 0.1183(1) 0.2082(1) 0.4977(2)
C11 C 0.1161(1) 0.1036(1) 0.5011(2)
C12 C 0.1108(2) 0.0527(2) 0.6241(2)
C13 C 0.1079(2) 0.1064(2) 0.7440(2)
C14 C 0.1113(1) 0.2106(1) 0.7433(2)
C15 C 0.1179(1) 0.2621(1) 0.6199(2)
O1 O 0.2211(1) 0.4992(1) 0.5187(2)
C16 C 0.3079(2) 0.2882(2) 0.0684(2)
C17 C 0.1063(2) 0.4287(2) 0.7376(2)
C18 C -0.0148(2) 0.4281(2) 0.7730(2)
C19 C -0.0519(2) 0.4089(2) 0.8944(2)
H1 H 0.337(2) 0.373(2) 0.305(2)
H2 H 0.247(2) 0.459(2) 0.248(2)
H3 H 0.152(2) 0.347(2) 0.114(2)
H4 H 0.241(2) 0.182(1) 0.277(2)
H5 H 0.133(2) 0.110(2) 0.097(2)
H6 H -0.059(2) 0.135(2) 0.077(2)
H7 H -0.146(2) 0.268(2) 0.219(2)
H8 H -0.038(2) 0.346(2) 0.390(2)
H9 H 0.112(2) 0.067(1) 0.415(2)
H10 H 0.107(2) -0.022(2) 0.630(2)
H11 H 0.101(2) 0.068(2) 0.832(2)
H12 H 0.114(2) 0.247(2) 0.829(2)
H13 H 0.333(2) 0.349(2) 0.019(3)
H14 H 0.370(2) 0.257(2) 0.119(3)
H15 H 0.277(2) 0.244(2) -0.008(2)
H16 H 0.135(2) 0.497(2) 0.711(2)
H17 H 0.156(2) 0.406(2) 0.813(2)
H18 H -0.069(2) 0.445(2) 0.697(2)
H19 H 0.000(2) 0.392(2) 0.968(2)
H20 H -0.144(2) 0.406(2) 0.921(3)
loop_
_geom_bond_atom_site_label_1
_geom_bond_atom_site_label_2
_geom_bond_site_symmetry_1
_geom_bond_site_symmetry_2
N1 C1 1_555 1_555
C1 N2 1_555 1_555
N2 C2 1_555 1_555
C2 C3 1_555 1_555
C3 C4 1_555 1_555
C4 C5 1_555 1_555
C5 C6 1_555 1_555
C6 C7 1_555 1_555
C7 C8 1_555 1_555
C8 C9 1_555 1_555
C9 N2 1_555 1_555
C10 C9 1_555 1_555
C11 C10 1_555 1_555
C12 C11 1_555 1_555
C13 C12 1_555 1_555
C14 C13 1_555 1_555
C15 N1 1_555 1_555
O1 C1 1_555 1_555
C16 C3 1_555 1_555
C17 N1 1_555 1_555
C18 C17 1_555 1_555
C19 C18 1_555 1_555
H1 C2 1_555 1_555
H2 C2 1_555 1_555
H3 C3 1_555 1_555
H4 C4 1_555 1_555
H5 C5 1_555 1_555
H6 C6 1_555 1_555
H7 C7 1_555 1_555
H8 C8 1_555 1_555
H9 C11 1_555 1_555
H10 C12 1_555 1_555
H11 C13 1_555 1_555
H12 C14 1_555 1_555
H13 C16 1_555 1_555
H14 C16 1_555 1_555
H15 C16 1_555 1_555
H16 C17 1_555 1_555
H17 C17 1_555 1_555
H18 C18 1_555 1_555
H19 C19 1_555 1_555
H20 C19 1_555 1_555
C4 C9 1_555 1_555
C10 C15 1_555 1_555
C14 C15 1_555 1_555

#END
