
#######################################################################
#
#                 Cambridge Crystallographic Data Centre
#                                CCDC 
#
#######################################################################
#
# If this CIF has been generated from an entry in the Cambridge 
# Structural Database, then it will include bibliographic, chemical, 
# crystal, experimental, refinement or atomic coordinate data resulting 
# from the CCDC's data processing and validation procedures.
#
#######################################################################

data_JANXOO
_chemical_formula_moiety         'C63 H76 Si3'
_chemical_name_systematic        
(tetraceno[2,1,12,11-opqra]tetracene-7,8,16-triyltriethyne-2,1-diyl)tris(triisopropylsilane)
_symmetry_cell_setting           orthorhombic
_symmetry_space_group_name_H-M   'P n a 21'
_symmetry_Int_Tables_number      33
_space_group_name_Hall           'P 2c -2n'
loop_
_symmetry_equiv_pos_site_id
_symmetry_equiv_pos_as_xyz
1 x,y,z
2 -x,-y,1/2+z
3 1/2-x,1/2+y,1/2+z
4 1/2+x,1/2-y,z
_cell_length_a                   33.707(2)
_cell_length_b                   16.5828(12)
_cell_length_c                   19.1233(11)
_cell_angle_alpha                90
_cell_angle_beta                 90
_cell_angle_gamma                90
_cell_volume                     10689.1
_exptl_crystal_colour            'metallic green'
_cell_formula_units_Z            8
loop_
_atom_site_label
_atom_site_type_symbol
_atom_site_fract_x
_atom_site_fract_y
_atom_site_fract_z
Si1 Si 0.38915(15) 1.0142(4) 0.3546(3)
Si2 Si 0.71323(16) 0.6097(3) 0.5990(3)
Si3 Si 0.48663(19) 1.2179(4) 0.1618(3)
C1 C 0.5827(5) 1.0053(10) 0.4110(8)
C2 C 0.6215(5) 0.8982(10) 0.4658(8)
C3 C 0.5472(5) 1.1102(10) 0.3471(9)
C4 C 0.5245(5) 0.8901(10) 0.3684(8)
C5 C 0.5659(5) 0.7823(10) 0.4159(8)
C6 C 0.5606(5) 0.8635(9) 0.4025(8)
C7 C 0.6474(5) 0.9598(9) 0.4915(8)
H1 H 0.6688 0.9449 0.5211
C8 C 0.6010(5) 0.7568(9) 0.4552(7)
C9 C 0.5460(5) 0.6383(10) 0.4064(8)
C10 C 0.5874(5) 0.9242(10) 0.4260(8)
C11 C 0.6054(5) 1.1460(10) 0.4172(8)
C12 C 0.5186(5) 0.9712(10) 0.3566(8)
C13 C 0.5396(5) 0.7193(10) 0.3914(8)
C14 C 0.6092(5) 1.0628(10) 0.4345(9)
C15 C 0.4974(5) 0.8286(10) 0.3465(8)
H2 H 0.4737 0.8444 0.3234
C16 C 0.5038(5) 0.7491(10) 0.3570(9)
H3 H 0.4845 0.7114 0.3416
C17 C 0.5740(5) 1.1685(10) 0.3704(9)
C18 C 0.5800(5) 0.6135(10) 0.4470(8)
C19 C 0.6077(5) 0.6748(10) 0.4706(9)
C20 C 0.5483(5) 1.0318(10) 0.3706(9)
C21 C 0.6702(5) 0.6331(10) 0.5432(9)
C22 C 0.5196(6) 1.1355(12) 0.2907(10)
C23 C 0.4420(6) 1.0060(12) 0.3369(10)
C24 C 0.6318(5) 1.2064(10) 0.4410(9)
H4 H 0.6528 1.1923 0.4717
C25 C 0.5193(6) 0.5735(10) 0.3858(9)
H5 H 0.4961 0.5870 0.3602
C26 C 0.6276(6) 0.8173(10) 0.4798(9)
H6 H 0.6500 0.8017 0.5066
C27 C 0.4783(5) 0.9956(10) 0.3392(9)
C28 C 0.6417(5) 0.6516(10) 0.5079(9)
C29 C 0.4510(8) 1.2950(14) 0.1945(12)
H7 H 0.4271 1.2656 0.2123
C30 C 0.5046(6) 1.1654(12) 0.2377(10)
C31 C 0.3736(6) 1.1194(12) 0.3383(11)
H8 H 0.3699 1.1226 0.2864
C32 C 0.5851(6) 0.5337(10) 0.4639(9)
H9 H 0.6080 0.5180 0.4897
C33 C 0.6425(5) 1.0374(10) 0.4754(9)
H10 H 0.6612 1.0761 0.4912
C34 C 0.4674(8) 1.3481(14) 0.2566(12)
H11 H 0.4771 1.3128 0.2940
H12 H 0.4892 1.3820 0.2397
H13 H 0.4461 1.3823 0.2748
C35 C 0.5713(6) 1.2507(11) 0.3476(10)
H14 H 0.5510 1.2665 0.3160
C36 C 0.4031(7) 1.1822(13) 0.3543(14)
H15 H 0.4289 1.1667 0.3345
H16 H 0.3946 1.2336 0.3339
H17 H 0.4056 1.1880 0.4051
C37 C 0.7206(7) 0.6920(13) 0.6612(12)
H18 H 0.7434 0.6789 0.6926
C38 C 0.7570(7) 0.5992(14) 0.5409(12)
H19 H 0.7589 0.6502 0.5131
C39 C 0.3327(6) 1.1422(15) 0.3689(13)
H20 H 0.3134 1.0998 0.3577
H21 H 0.3348 1.1478 0.4197
H22 H 0.3238 1.1934 0.3485
C40 C 0.4611(7) 1.1448(12) 0.1025(12)
H23 H 0.4503 1.1759 0.0620
C41 C 0.3636(8) 0.9337(15) 0.2954(12)
H24 H 0.3790 0.8822 0.2948
C42 C 0.6604(7) 0.4880(14) 0.6572(12)
H25 H 0.6454 0.4953 0.6138
H26 H 0.6584 0.4317 0.6724
H27 H 0.6495 0.5234 0.6935
C43 C 0.5975(6) 1.3050(12) 0.3712(10)
H28 H 0.5957 1.3586 0.3540
C44 C 0.5260(6) 0.4956(11) 0.4012(9)
H29 H 0.5092 0.4549 0.3827
C45 C 0.3970(7) 0.8932(13) 0.4593(12)
H30 H 0.3836 0.8570 0.4262
H31 H 0.4258 0.8888 0.4532
H32 H 0.3899 0.8780 0.5072
C46 C 0.6272(6) 1.2872(12) 0.4196(10)
H33 H 0.6439 1.3284 0.4376
C47 C 0.7012(7) 0.5079(13) 0.6453(11)
H34 H 0.7110 0.4655 0.6123
C48 C 0.4258(8) 1.1005(15) 0.1379(12)
H35 H 0.4071 1.1403 0.1566
H36 H 0.4123 1.0666 0.1034
H37 H 0.4358 1.0667 0.1761
C49 C 0.7971(5) 0.5898(17) 0.5809(13)
H38 H 0.8000 0.6341 0.6144
H39 H 0.7973 0.5382 0.6060
H40 H 0.8191 0.5911 0.5475
C50 C 0.7521(8) 0.5296(15) 0.4880(14)
H41 H 0.7269 0.5359 0.4630
H42 H 0.7741 0.5308 0.4544
H43 H 0.7523 0.4780 0.5129
C51 C 0.5237(8) 1.2841(15) 0.0398(13)
H44 H 0.5083 1.2455 0.0120
H45 H 0.5088 1.3345 0.0444
H46 H 0.5490 1.2949 0.0163
C52 C 0.5321(8) 1.2469(14) 0.1165(12)
H47 H 0.5494 1.1983 0.1115
C53 C 0.3836(6) 0.9828(12) 0.4450(10)
H48 H 0.3547 0.9861 0.4565
C54 C 0.3574(8) 0.9655(17) 0.2229(14)
H49 H 0.3832 0.9753 0.2009
H50 H 0.3426 0.9258 0.1953
H51 H 0.3424 1.0160 0.2250
C55 C 0.7299(8) 0.7719(15) 0.6198(15)
H52 H 0.7534 0.7638 0.5905
H53 H 0.7071 0.7857 0.5901
H54 H 0.7348 0.8158 0.6530
C56 C 0.5575(6) 0.4746(12) 0.4442(9)
H55 H 0.5603 0.4207 0.4601
C57 C 0.7273(8) 0.4981(16) 0.7113(11)
H56 H 0.7548 0.5124 0.7001
H57 H 0.7174 0.5336 0.7484
H58 H 0.7263 0.4420 0.7273
C58 C 0.6828(8) 0.7091(17) 0.7068(15)
H59 H 0.6759 0.6607 0.7336
H60 H 0.6882 0.7537 0.7390
H61 H 0.6606 0.7236 0.6762
C59 C 0.4365(9) 1.3563(17) 0.1386(13)
H62 H 0.4258 1.3271 0.0982
H63 H 0.4156 1.3904 0.1587
H64 H 0.4587 1.3901 0.1236
C60 C 0.3191(7) 0.9198(18) 0.3264(16)
H65 H 0.3208 0.8989 0.3742
H66 H 0.3047 0.9712 0.3266
H67 H 0.3049 0.8810 0.2969
C61 C 0.4900(9) 1.0820(17) 0.0737(14)
H68 H 0.5124 1.1094 0.0512
H69 H 0.4998 1.0482 0.1120
H70 H 0.4763 1.0482 0.0392
C62 C 0.4052(8) 1.0346(14) 0.4975(12)
H71 H 0.3978 1.0912 0.4907
H72 H 0.3980 1.0177 0.5450
H73 H 0.4339 1.0285 0.4910
C63 C 0.5560(9) 1.3148(16) 0.1513(16)
H74 H 0.5630 1.2990 0.1991
H75 H 0.5803 1.3246 0.1245
H76 H 0.5401 1.3642 0.1525
Si4 Si 0.48737(19) 0.7243(4) 0.1135(3)
C64 C 0.6751(5) 1.0418(10) 0.2952(8)
C65 C 0.7631(5) 0.9692(10) 0.4013(8)
C66 C 0.7232(5) 0.9721(10) 0.3681(8)
C67 C 0.6563(5) 0.9662(10) 0.2815(8)
C68 C 0.6203(5) 0.9608(10) 0.2372(8)
C69 C 0.6155(6) 0.6682(11) 0.2650(9)
C70 C 0.7592(5) 1.1556(10) 0.4821(9)
C71 C 0.6172(5) 0.8152(10) 0.2524(9)
C72 C 0.6502(6) 0.6701(11) 0.3087(9)
C73 C 0.7097(5) 1.1924(9) 0.3241(8)
C74 C 0.7037(5) 0.7534(11) 0.3668(9)
H77 H 0.7156 0.7052 0.3836
C75 C 0.7085(5) 1.0463(9) 0.3434(8)
C76 C 0.6667(5) 0.7474(10) 0.3244(8)
C77 C 0.6797(5) 1.1868(11) 0.2730(9)
C78 C 0.6598(5) 1.1118(10) 0.2604(8)
C79 C 0.5999(6) 0.7412(12) 0.2379(10)
C80 C 0.7062(5) 0.8973(10) 0.3528(9)
C81 C 0.7971(6) 0.9563(10) 0.4184(9)
C82 C 0.7167(6) 1.3364(11) 0.3017(9)
H78 H 0.7294 1.3864 0.3112
C83 C 0.6029(5) 0.8888(10) 0.2257(8)
H79 H 0.5795 0.8877 0.1979
C84 C 0.7275(6) 1.2691(10) 0.3367(9)
H80 H 0.7478 1.2730 0.3710
C85 C 0.6519(5) 0.8177(10) 0.2957(8)
C86 C 0.7203(6) 0.8221(10) 0.3818(9)
H81 H 0.7424 0.8228 0.4126
C87 C 0.6683(6) 1.2586(10) 0.2379(9)
H82 H 0.6475 1.2560 0.2044
C88 C 0.7444(6) 1.1352(10) 0.4245(10)
C89 C 0.5985(6) 0.5924(11) 0.2507(9)
H83 H 0.5758 0.5907 0.2213
C90 C 0.7217(5) 1.1228(10) 0.3614(9)
C91 C 0.6861(6) 1.3315(12) 0.2505(10)
H84 H 0.6781 1.3782 0.2254
C92 C 0.6636(6) 0.5964(10) 0.3350(9)
H85 H 0.6860 0.5974 0.3652
C93 C 0.6700(5) 0.8941(11) 0.3114(9)
C94 C 0.5349(6) 0.7349(10) 0.1608(9)
C95 C 0.6473(6) 0.5239(11) 0.3208(9)
H86 H 0.6586 0.4762 0.3398
C96 C 0.5646(6) 0.7387(11) 0.1949(10)
C97 C 0.6243(5) 1.1066(11) 0.2194(8)
H87 H 0.6132 1.1539 0.1993
C98 C 0.6068(6) 1.0359(11) 0.2097(9)
H88 H 0.5834 1.0352 0.1821
C99 C 0.8527(6) 1.2055(16) 0.5544(13)
H89 H 0.8553 1.1471 0.5606
H90 H 0.8526 1.2184 0.5044
H91 H 0.8751 1.2327 0.5770
C100 C 0.8092(9) 1.3222(15) 0.5790(18)
H92 H 0.7841 1.3384 0.6007
H93 H 0.8312 1.3504 0.6019
H94 H 0.8087 1.3360 0.5292
C101 C 0.4691(8) 0.6125(14) 0.1191(13)
H95 H 0.4445 0.6029 0.0911
C102 C 0.8642(8) 1.0835(15) 0.3669(14)
H96 H 0.8357 1.0951 0.3693
H97 H 0.8792 1.1335 0.3739
H98 H 0.8707 1.0607 0.3210
C103 C 0.6131(6) 0.5191(12) 0.2775(10)
H99 H 0.6008 0.4690 0.2670
C104 C 0.5207(13) 0.711(3) -0.030(2)
H100 H 0.5176 0.6524 -0.0264
H101 H 0.5150 0.7282 -0.0780
H102 H 0.5479 0.7259 -0.0178
C105 C 0.7408(6) 1.0153(14) 0.5986(14)
H103 H 0.7335 1.0149 0.5490
H104 H 0.7498 0.9614 0.6125
H105 H 0.7177 1.0306 0.6267
C106 C 0.4493(10) 0.776(2) 0.1656(18)
H106 H 0.4502 0.7537 0.2140
C107 C 0.8325(11) 0.819(2) 0.3187(19)
H107 H 0.8076 0.8470 0.3087
H108 H 0.8425 0.7937 0.2758
H109 H 0.8278 0.7771 0.3541
C108 C 0.8754(11) 1.022(2) 0.425(2)
H110 H 0.8716 1.0496 0.4710
C109 C 0.7739(10) 1.0756(17) 0.6103(16)
H111 H 0.7977 1.0521 0.5866
C110 C 0.4953(15) 0.8452(16) 0.017(3)
H112 H 0.4764 0.8693 0.0499
H113 H 0.5223 0.8614 0.0297
H114 H 0.4893 0.8637 -0.0305
C111 C 0.4641(9) 0.5888(17) 0.1959(13)
H115 H 0.4421 0.6194 0.2163
H116 H 0.4584 0.5310 0.1992
H117 H 0.4886 0.6009 0.2215
C112 C 0.4919(8) 0.7522(12) 0.0202(12)
H118 H 0.4651 0.7405 0.0001
C113 C 0.8609(9) 0.8746(16) 0.3443(15)
H119 H 0.8668 0.9141 0.3062
C114 C 0.7305(13) 1.250(2) 0.6843(16)
H120 H 0.7369 1.2010 0.7099
H121 H 0.7532 1.2873 0.6860
H122 H 0.7074 1.2764 0.7057
C115 C 0.7208(10) 1.2291(18) 0.6060(15)
H123 H 0.6988 1.1887 0.6053
C116 C 0.7100(9) 1.2981(17) 0.5565(17)
H124 H 0.7048 1.2765 0.5098
H125 H 0.6863 1.3256 0.5740
H126 H 0.7321 1.3365 0.5542
Si5 Si 0.76818(17) 1.1778(4) 0.5729(4)
Si6 Si 0.84911(16) 0.9337(4) 0.4271(3)
C117 C 0.9024(9) 0.8211(17) 0.3600(18)
H127 H 0.9231 0.8571 0.3779
H128 H 0.8967 0.7793 0.3948
H129 H 0.9115 0.7959 0.3165
C118 C 0.9202(16) 1.011(3) 0.414(3)
H130 H 0.9304 0.9727 0.4486
H131 H 0.9251 0.9902 0.3668
H132 H 0.9336 1.0630 0.4196
C119 C 0.8146(9) 1.2337(17) 0.587(2)
H133 H 0.8195 1.2271 0.6382
C120 C 0.7825(12) 1.072(2) 0.6829(18)
H134 H 0.8039 1.1102 0.6939
H135 H 0.7587 1.0866 0.7096
H136 H 0.7908 1.0174 0.6954
C121 C 0.5099(12) 0.552(2) 0.090(2)
H137 H 0.5153 0.5635 0.0407
H138 H 0.5335 0.5648 0.1180
H139 H 0.5033 0.4949 0.0957
C122 C 0.4557(15) 0.862(3) 0.171(2)
H140 H 0.4823 0.8725 0.1895
H141 H 0.4532 0.8869 0.1246
H142 H 0.4358 0.8857 0.2025
C123 C 0.4091(17) 0.762(3) 0.138(3)
H143 H 0.4044 0.7040 0.1338
H144 H 0.3894 0.7859 0.1693
H145 H 0.4067 0.7871 0.0914
C124 C 0.8304(13) 0.789(2) 0.496(2)
H146 H 0.8382 0.7637 0.4521
H147 H 0.8346 0.7514 0.5348
H148 H 0.8024 0.8044 0.4940
C125 C 0.8569(14) 0.936(2) 0.574(2)
H149 H 0.8771 0.9767 0.5642
H150 H 0.8309 0.9620 0.5776
H151 H 0.8631 0.9091 0.6185
C126 C 0.8561(12) 0.866(2) 0.5082(19)
H152 H 0.8841 0.8468 0.5049
H153? H 0.4795 0.5719 0.0850
H154? H 0.4660 0.7500 -0.0053
C127? C 0.429(2) 0.852(4) 0.099(4)
H155? H 0.4116 0.8094 0.0808
H156? H 0.4124 0.8917 0.1244
H157? H 0.4422 0.8793 0.0601
C128? C 0.4816(16) 0.890(3) 0.169(3)
H158? H 0.5030 0.8761 0.2021
H159? H 0.4930 0.9155 0.1277
H160? H 0.4633 0.9279 0.1921
C129? C 0.460(2) 0.816(4) 0.149(3)
H161? H 0.4451 0.7974 0.1914
C130? C 0.518(2) 0.833(3) 0.001(4)
H162? H 0.5025 0.8814 0.0135
H163? H 0.5426 0.8328 0.0282
H164? H 0.5239 0.8338 -0.0488
C131? C 0.521(2) 0.684(4) -0.003(4)
H165? H 0.5089 0.6317 0.0061
H166? H 0.5270 0.6899 -0.0525
H167? H 0.5457 0.6888 0.0244
C132? C 0.4172(15) 0.641(3) 0.116(3)
H168? H 0.4106 0.6605 0.0694
H169? H 0.4008 0.5940 0.1274
H170? H 0.4123 0.6837 0.1506
loop_
_geom_bond_atom_site_label_1
_geom_bond_atom_site_label_2
_geom_bond_site_symmetry_1
_geom_bond_site_symmetry_2
Si1 C23 1_555 1_555
Si2 C21 1_555 1_555
Si3 C29 1_555 1_555
C1 C10 1_555 1_555
C2 C7 1_555 1_555
C3 C17 1_555 1_555
C4 C6 1_555 1_555
C5 C6 1_555 1_555
C6 C10 1_555 1_555
C7 H1 1_555 1_555
C8 C5 1_555 1_555
C9 C13 1_555 1_555
C10 C2 1_555 1_555
C11 C14 1_555 1_555
C12 C4 1_555 1_555
C13 C5 1_555 1_555
C14 C1 1_555 1_555
C15 C4 1_555 1_555
H2 C15 1_555 1_555
C16 C13 1_555 1_555
H3 C16 1_555 1_555
C17 C11 1_555 1_555
C18 C9 1_555 1_555
C19 C8 1_555 1_555
C20 C1 1_555 1_555
C21 C28 1_555 1_555
C22 C3 1_555 1_555
C23 C27 1_555 1_555
C24 C11 1_555 1_555
H4 C24 1_555 1_555
C25 C9 1_555 1_555
H5 C25 1_555 1_555
C26 C2 1_555 1_555
H6 C26 1_555 1_555
C27 C12 1_555 1_555
C28 C19 1_555 1_555
C29 H7 1_555 1_555
C30 Si3 1_555 1_555
C31 Si1 1_555 1_555
H8 C31 1_555 1_555
C32 C18 1_555 1_555
H9 C32 1_555 1_555
C33 C7 1_555 1_555
H10 C33 1_555 1_555
C34 C29 1_555 1_555
H11 C34 1_555 1_555
H12 C34 1_555 1_555
H13 C34 1_555 1_555
C35 C17 1_555 1_555
H14 C35 1_555 1_555
C36 C31 1_555 1_555
H15 C36 1_555 1_555
H16 C36 1_555 1_555
H17 C36 1_555 1_555
C37 Si2 1_555 1_555
H18 C37 1_555 1_555
C38 Si2 1_555 1_555
H19 C38 1_555 1_555
C39 C31 1_555 1_555
H20 C39 1_555 1_555
H21 C39 1_555 1_555
H22 C39 1_555 1_555
C40 Si3 1_555 1_555
H23 C40 1_555 1_555
C41 Si1 1_555 1_555
H24 C41 1_555 1_555
C42 H25 1_555 1_555
H26 C42 1_555 1_555
H27 C42 1_555 1_555
C43 C35 1_555 1_555
H28 C43 1_555 1_555
C44 C25 1_555 1_555
H29 C44 1_555 1_555
C45 H30 1_555 1_555
H31 C45 1_555 1_555
H32 C45 1_555 1_555
C46 C24 1_555 1_555
H33 C46 1_555 1_555
C47 Si2 1_555 1_555
H34 C47 1_555 1_555
C48 C40 1_555 1_555
H35 C48 1_555 1_555
H36 C48 1_555 1_555
H37 C48 1_555 1_555
C49 C38 1_555 1_555
H38 C49 1_555 1_555
H39 C49 1_555 1_555
H40 C49 1_555 1_555
C50 C38 1_555 1_555
H41 C50 1_555 1_555
H42 C50 1_555 1_555
H43 C50 1_555 1_555
C51 H44 1_555 1_555
H45 C51 1_555 1_555
H46 C51 1_555 1_555
C52 Si3 1_555 1_555
H47 C52 1_555 1_555
C53 Si1 1_555 1_555
H48 C53 1_555 1_555
C54 C41 1_555 1_555
H49 C54 1_555 1_555
H50 C54 1_555 1_555
H51 C54 1_555 1_555
C55 C37 1_555 1_555
H52 C55 1_555 1_555
H53 C55 1_555 1_555
H54 C55 1_555 1_555
C56 C32 1_555 1_555
H55 C56 1_555 1_555
C57 C47 1_555 1_555
H56 C57 1_555 1_555
H57 C57 1_555 1_555
H58 C57 1_555 1_555
C58 C37 1_555 1_555
H59 C58 1_555 1_555
H60 C58 1_555 1_555
H61 C58 1_555 1_555
C59 C29 1_555 1_555
H62 C59 1_555 1_555
H63 C59 1_555 1_555
H64 C59 1_555 1_555
C60 C41 1_555 1_555
H65 C60 1_555 1_555
H66 C60 1_555 1_555
H67 C60 1_555 1_555
C61 C40 1_555 1_555
H68 C61 1_555 1_555
H69 C61 1_555 1_555
H70 C61 1_555 1_555
C62 C53 1_555 1_555
H71 C62 1_555 1_555
H72 C62 1_555 1_555
H73 C62 1_555 1_555
C63 C52 1_555 1_555
H74 C63 1_555 1_555
H75 C63 1_555 1_555
H76 C63 1_555 1_555
Si4 C94 1_555 1_555
C64 C67 1_555 1_555
C65 C66 1_555 1_555
C66 C75 1_555 1_555
C67 C68 1_555 1_555
C68 C83 1_555 1_555
C69 C72 1_555 1_555
C70 C88 1_555 1_555
C71 C79 1_555 1_555
C72 C76 1_555 1_555
C73 C77 1_555 1_555
C74 H77 1_555 1_555
C75 C64 1_555 1_555
C76 C74 1_555 1_555
C77 C78 1_555 1_555
C78 C64 1_555 1_555
C79 C69 1_555 1_555
C80 C66 1_555 1_555
C81 C65 1_555 1_555
C82 H78 1_555 1_555
C83 C71 1_555 1_555
H79 C83 1_555 1_555
C84 C73 1_555 1_555
H80 C84 1_555 1_555
C85 C71 1_555 1_555
C86 C74 1_555 1_555
H81 C86 1_555 1_555
C87 C77 1_555 1_555
H82 C87 1_555 1_555
C88 C90 1_555 1_555
C89 C69 1_555 1_555
H83 C89 1_555 1_555
C90 C73 1_555 1_555
C91 C82 1_555 1_555
H84 C91 1_555 1_555
C92 C72 1_555 1_555
H85 C92 1_555 1_555
C93 C67 1_555 1_555
C94 C96 1_555 1_555
C95 C92 1_555 1_555
H86 C95 1_555 1_555
C96 C79 1_555 1_555
C97 C78 1_555 1_555
H87 C97 1_555 1_555
C98 C68 1_555 1_555
H88 C98 1_555 1_555
C99 H89 1_555 1_555
H90 C99 1_555 1_555
H91 C99 1_555 1_555
C100 H92 1_555 1_555
H93 C100 1_555 1_555
H94 C100 1_555 1_555
C101 Si4 1_555 1_555
H95 C101 1_555 1_555
C102 H96 1_555 1_555
H97 C102 1_555 1_555
H98 C102 1_555 1_555
C103 C89 1_555 1_555
H99 C103 1_555 1_555
C104 H100 1_555 1_555
H101 C104 1_555 1_555
H102 C104 1_555 1_555
C105 H103 1_555 1_555
H104 C105 1_555 1_555
H105 C105 1_555 1_555
C106 Si4 1_555 1_555
H106 C106 1_555 1_555
C107 H107 1_555 1_555
H108 C107 1_555 1_555
H109 C107 1_555 1_555
C108 C102 1_555 1_555
H110 C108 1_555 1_555
C109 C105 1_555 1_555
H111 C109 1_555 1_555
C110 H112 1_555 1_555
H113 C110 1_555 1_555
H114 C110 1_555 1_555
C111 C101 1_555 1_555
H115 C111 1_555 1_555
H116 C111 1_555 1_555
H117 C111 1_555 1_555
C112 Si4 1_555 1_555
H118 C112 1_555 1_555
C113 C107 1_555 1_555
H119 C113 1_555 1_555
C114 H120 1_555 1_555
H121 C114 1_555 1_555
H122 C114 1_555 1_555
C115 C114 1_555 1_555
H123 C115 1_555 1_555
C116 C115 1_555 1_555
H124 C116 1_555 1_555
H125 C116 1_555 1_555
H126 C116 1_555 1_555
Si5 C70 1_555 1_555
Si6 C81 1_555 1_555
C117 C113 1_555 1_555
H127 C117 1_555 1_555
H128 C117 1_555 1_555
H129 C117 1_555 1_555
C118 C108 1_555 1_555
H130 C118 1_555 1_555
H131 C118 1_555 1_555
H132 C118 1_555 1_555
C119 C99 1_555 1_555
H133 C119 1_555 1_555
C120 C109 1_555 1_555
H134 C120 1_555 1_555
H135 C120 1_555 1_555
H136 C120 1_555 1_555
C121 C101 1_555 1_555
H137 C121 1_555 1_555
H138 C121 1_555 1_555
H139 C121 1_555 1_555
C122 C106 1_555 1_555
H140 C122 1_555 1_555
H141 C122 1_555 1_555
H142 C122 1_555 1_555
C123 C106 1_555 1_555
H143 C123 1_555 1_555
H144 C123 1_555 1_555
H145 C123 1_555 1_555
C124 H146 1_555 1_555
H147 C124 1_555 1_555
H148 C124 1_555 1_555
C125 H149 1_555 1_555
H150 C125 1_555 1_555
H151 C125 1_555 1_555
C126 Si6 1_555 1_555
H152 C126 1_555 1_555
C3 C20 1_555 1_555
C8 C26 1_555 1_555
C12 C20 1_555 1_555
C14 C33 1_555 1_555
C15 C16 1_555 1_555
C18 C19 1_555 1_555
C22 C30 1_555 1_555
C42 C47 1_555 1_555
C43 C46 1_555 1_555
C44 C56 1_555 1_555
C45 C53 1_555 1_555
C51 C52 1_555 1_555
C75 C90 1_555 1_555
C76 C85 1_555 1_555
C80 C86 1_555 1_555
C80 C93 1_555 1_555
C82 C84 1_555 1_555
C85 C93 1_555 1_555
C87 C91 1_555 1_555
C95 C103 1_555 1_555
C97 C98 1_555 1_555
C100 C119 1_555 1_555
C104 C112 1_555 1_555
C108 Si6 1_555 1_555
C109 Si5 1_555 1_555
C110 C112 1_555 1_555
C113 Si6 1_555 1_555
C115 Si5 1_555 1_555
Si5 C119 1_555 1_555
C124 C126 1_555 1_555
C125 C126 1_555 1_555

#END
