
#######################################################################
#
#                 Cambridge Crystallographic Data Centre
#                                CCDC 
#
#######################################################################
#
# If this CIF has been generated from an entry in the Cambridge 
# Structural Database, then it will include bibliographic, chemical, 
# crystal, experimental, refinement or atomic coordinate data resulting 
# from the CCDC's data processing and validation procedures.
#
#######################################################################

data_JAPBOR
_chemical_formula_moiety         'C22 H24 O1'
_chemical_name_systematic        
3-(Pentacyclo(5.4.0.0^2,6^.0^3,10^.0^5,9^)undec-8-yl)pentacyclo(6.3.0.0^2,6^.0^3,10^.0^5,9^)undecan-4-one
_symmetry_cell_setting           triclinic
_symmetry_space_group_name_H-M   'P -1'
_symmetry_Int_Tables_number      2
_space_group_name_Hall           '-P 1'
loop_
_symmetry_equiv_pos_site_id
_symmetry_equiv_pos_as_xyz
1 x,y,z
2 -x,-y,-z
_cell_length_a                   6.4193(6)
_cell_length_b                   10.812(1)
_cell_length_c                   11.302(1)
_cell_angle_alpha                90.180(7)
_cell_angle_beta                 94.073(7)
_cell_angle_gamma                105.190(7)
_cell_volume                     754.91
_exptl_crystal_colour            colorless
_chemical_melting_point          379.7-380.7K
_cell_formula_units_Z            2
loop_
_atom_site_label
_atom_site_type_symbol
_atom_site_fract_x
_atom_site_fract_y
_atom_site_fract_z
C1 C 0.0234(3) -0.1661(2) 0.2844(2)
C2 C 0.1232(3) -0.1079(2) 0.1681(2)
C3 C 0.3423(2) -0.0102(1) 0.2125(1)
C4 C 0.5077(2) -0.0608(2) 0.1523(1)
O1 O 0.6675(2) -0.0033(1) 0.1057(1)
C5 C 0.4177(3) -0.2013(2) 0.1681(2)
C6 C 0.1907(3) -0.2221(2) 0.1081(2)
C7 C 0.0659(3) -0.3411(2) 0.1678(2)
C8 C 0.1145(3) -0.2826(2) 0.2917(2)
C9 C 0.3605(3) -0.2101(2) 0.2995(1)
C10 C 0.3660(2) -0.0674(2) 0.3364(1)
C11 C 0.1488(3) -0.0803(2) 0.3849(2)
C12 C 0.1923(3) 0.3220(2) 0.1882(2)
C13 C 0.2934(3) 0.3859(2) 0.3084(2)
C14 C 0.5362(3) 0.4424(2) 0.2966(2)
C15 C 0.6462(4) 0.3891(2) 0.3983(2)
C16 C 0.5220(3) 0.2495(2) 0.3702(2)
C17 C 0.2851(3) 0.2522(2) 0.3603(2)
C18 C 0.1836(2) 0.1872(2) 0.2396(2)
C19 C 0.3540(2) 0.1307(1) 0.1897(1)
C20 C 0.5577(2) 0.2296(2) 0.2396(2)
C21 C 0.5658(3) 0.3660(2) 0.1866(2)
C22 C 0.3677(3) 0.3644(2) 0.1050(2)
H1 H -0.1336(20) -0.1875(17) 0.2835(15)
H2 H 0.0334(25) -0.0708(15) 0.1154(14)
H3 H 0.4999(26) -0.2573(16) 0.1418(15)
H4 H 0.1835(24) -0.2196(15) 0.0237(14)
H5 H -0.0841(29) -0.3647(18) 0.1458(16)
H6 H 0.1280(29) -0.4166(19) 0.1551(16)
H7 H 0.0702(27) -0.3372(16) 0.3579(14)
H8 H 0.4566(24) -0.2475(15) 0.3522(13)
H9 H 0.4979(23) -0.0238(14) 0.3857(12)
H10 H 0.1350(26) -0.1169(16) 0.4633(14)
H11 H 0.1097(27) 0.0048(17) 0.3936(15)
H12 H 0.0525(29) 0.3328(18) 0.1585(16)
H13 H 0.2219(26) 0.4392(16) 0.3482(14)
H14 H 0.5731(27) 0.5340(17) 0.2870(16)
H15 H 0.8122(37) 0.4018(23) 0.3980(21)
H16 H 0.6083(32) 0.4128(20) 0.4782(17)
H17 H 0.5646(26) 0.1839(16) 0.4208(15)
H18 H 0.2108(26) 0.2274(16) 0.4318(14)
H19 H 0.0451(25) 0.1302(15) 0.2375(13)
H20 H 0.3419(23) 0.1328(15) 0.1016(13)
H21 H 0.6893(25) 0.2063(15) 0.2303(14)
H22 H 0.7000(30) 0.4025(19) 0.1533(16)
H23 H 0.3728(29) 0.4551(20) 0.0766(16)
H24 H 0.3461(28) 0.3067(18) 0.0328(16)
loop_
_geom_bond_atom_site_label_1
_geom_bond_atom_site_label_2
_geom_bond_site_symmetry_1
_geom_bond_site_symmetry_2
C1 C2 1_555 1_555
C2 C3 1_555 1_555
C3 C4 1_555 1_555
C4 O1 1_555 1_555
C5 C4 1_555 1_555
C6 C2 1_555 1_555
C7 C6 1_555 1_555
C8 C1 1_555 1_555
C9 C5 1_555 1_555
C10 C3 1_555 1_555
C11 C1 1_555 1_555
C12 C13 1_555 1_555
C13 C14 1_555 1_555
C14 C15 1_555 1_555
C15 C16 1_555 1_555
C16 C17 1_555 1_555
C17 C13 1_555 1_555
C18 C12 1_555 1_555
C19 C3 1_555 1_555
C20 C16 1_555 1_555
C21 C14 1_555 1_555
C22 C12 1_555 1_555
H1 C1 1_555 1_555
H2 C2 1_555 1_555
H3 C5 1_555 1_555
H4 C6 1_555 1_555
H5 C7 1_555 1_555
H6 C7 1_555 1_555
H7 C8 1_555 1_555
H8 C9 1_555 1_555
H9 C10 1_555 1_555
H10 C11 1_555 1_555
H11 C11 1_555 1_555
H12 C12 1_555 1_555
H13 C13 1_555 1_555
H14 C14 1_555 1_555
H15 C15 1_555 1_555
H16 C15 1_555 1_555
H17 C16 1_555 1_555
H18 C17 1_555 1_555
H19 C18 1_555 1_555
H20 C19 1_555 1_555
H21 C20 1_555 1_555
H22 C21 1_555 1_555
H23 C22 1_555 1_555
H24 C22 1_555 1_555
C5 C6 1_555 1_555
C7 C8 1_555 1_555
C8 C9 1_555 1_555
C9 C10 1_555 1_555
C10 C11 1_555 1_555
C17 C18 1_555 1_555
C18 C19 1_555 1_555
C19 C20 1_555 1_555
C20 C21 1_555 1_555
C21 C22 1_555 1_555

#END
