
#######################################################################
#
#                 Cambridge Crystallographic Data Centre
#                                CCDC 
#
#######################################################################
#
# If this CIF has been generated from an entry in the Cambridge 
# Structural Database, then it will include bibliographic, chemical, 
# crystal, experimental, refinement or atomic coordinate data resulting 
# from the CCDC's data processing and validation procedures.
#
#######################################################################

data_JAPGUF
_chemical_formula_moiety         'C13 H15 Br1 O2'
_chemical_name_systematic        
'methyl 3-(4-bromophenyl)-2,2-dimethylcyclopropanecarboxylate'
_symmetry_cell_setting           orthorhombic
_symmetry_space_group_name_H-M   'P 21 21 21'
_symmetry_Int_Tables_number      19
_space_group_name_Hall           'P 2ac 2ab'
loop_
_symmetry_equiv_pos_site_id
_symmetry_equiv_pos_as_xyz
1 x,y,z
2 1/2+x,1/2-y,-z
3 -x,1/2+y,1/2-z
4 1/2-x,-y,1/2+z
_cell_length_a                   5.8360(10)
_cell_length_b                   7.5891(14)
_cell_length_c                   29.064(5)
_cell_angle_alpha                90
_cell_angle_beta                 90
_cell_angle_gamma                90
_cell_volume                     1287.24
_exptl_crystal_colour            colorless
_exptl_crystal_description       prism
_cell_formula_units_Z            4
_exptl_crystal_recrystallization_method hexane
loop_
_atom_site_label
_atom_site_type_symbol
_atom_site_fract_x
_atom_site_fract_y
_atom_site_fract_z
Br1 Br 0.65215(3) 0.22324(3) 0.164682(6)
O1 O 1.2805(2) 0.5293(2) 0.43284(5)
O2 O 0.9143(2) 0.5898(2) 0.44937(5)
C1 C 1.3485(4) 0.6717(3) 0.46272(6)
H1 H 1.2700 0.7801 0.4534
H2 H 1.5146 0.6889 0.4606
H3 H 1.3072 0.6430 0.4945
C2 C 1.0543(3) 0.5031(3) 0.42903(6)
C3 C 1.0051(3) 0.3564(3) 0.39694(6)
H4 H 1.1378 0.3179 0.3776
C4 C 0.7742(3) 0.3501(3) 0.37310(6)
H5 H 0.6634 0.4408 0.3844
C5 C 0.8309(3) 0.2114(3) 0.40810(6)
C6 C 0.8959(5) 0.0292(3) 0.39124(9)
H6 H 0.7570 -0.0415 0.3870
H7 H 0.9955 -0.0277 0.4139
H8 H 0.9773 0.0391 0.3619
C7 C 0.7054(4) 0.2147(4) 0.45361(7)
H9 H 0.6603 0.3359 0.4608
H10 H 0.8063 0.1698 0.4779
H11 H 0.5684 0.1404 0.4516
C8 C 0.7559(3) 0.3135(2) 0.32251(6)
C9 C 0.9220(3) 0.3659(3) 0.29142(6)
H12 H 1.0566 0.4223 0.3024
C10 C 0.8960(3) 0.3379(3) 0.24421(6)
H13 H 1.0117 0.3734 0.2232
C11 C 0.6982(3) 0.2574(3) 0.22888(6)
C12 C 0.5304(3) 0.2012(3) 0.25878(6)
H14 H 0.3964 0.1447 0.2476
C13 C 0.5607(3) 0.2286(3) 0.30570(6)
H15 H 0.4468 0.1890 0.3266
loop_
_geom_bond_atom_site_label_1
_geom_bond_atom_site_label_2
_geom_bond_site_symmetry_1
_geom_bond_site_symmetry_2
Br1 C11 1_555 1_555
O1 C1 1_555 1_555
O2 C2 1_555 1_555
C1 H1 1_555 1_555
H2 C1 1_555 1_555
H3 C1 1_555 1_555
C2 O1 1_555 1_555
C3 C2 1_555 1_555
H4 C3 1_555 1_555
C4 C3 1_555 1_555
H5 C4 1_555 1_555
C5 C3 1_555 1_555
C6 C5 1_555 1_555
H6 C6 1_555 1_555
H7 C6 1_555 1_555
H8 C6 1_555 1_555
C7 C5 1_555 1_555
H9 C7 1_555 1_555
H10 C7 1_555 1_555
H11 C7 1_555 1_555
C8 C4 1_555 1_555
C9 C8 1_555 1_555
H12 C9 1_555 1_555
C10 C9 1_555 1_555
H13 C10 1_555 1_555
C11 C10 1_555 1_555
C12 C11 1_555 1_555
H14 C12 1_555 1_555
C13 C8 1_555 1_555
H15 C13 1_555 1_555
C4 C5 1_555 1_555
C12 C13 1_555 1_555

#END
