
#######################################################################
#
#                 Cambridge Crystallographic Data Centre
#                                CCDC 
#
#######################################################################
#
# If this CIF has been generated from an entry in the Cambridge 
# Structural Database, then it will include bibliographic, chemical, 
# crystal, experimental, refinement or atomic coordinate data resulting 
# from the CCDC's data processing and validation procedures.
#
#######################################################################

data_JAPHEN
_chemical_formula_moiety         'C7 H10 O5 S2'
_chemical_name_systematic        '2(O-Ethyl dithiocarbonato)succinic acid'
_symmetry_cell_setting           monoclinic
_symmetry_space_group_name_H-M   'P 21/c'
_symmetry_Int_Tables_number      14
_space_group_name_Hall           '-P 2ybc'
loop_
_symmetry_equiv_pos_site_id
_symmetry_equiv_pos_as_xyz
1 x,y,z
2 -x,1/2+y,1/2-z
3 -x,-y,-z
4 x,1/2-y,1/2+z
_cell_length_a                   11.906(3)
_cell_length_b                   5.363(1)
_cell_length_c                   19.167(4)
_cell_angle_alpha                90
_cell_angle_beta                 114.71(2)
_cell_angle_gamma                90
_cell_volume                     1111.79
_cell_formula_units_Z            4
loop_
_atom_site_label
_atom_site_type_symbol
_atom_site_fract_x
_atom_site_fract_y
_atom_site_fract_z
S1 S 0.3938(1) 0.0002(3) 0.1804(1)
S2 S 0.5533(2) 0.1803(5) 0.1120(1)
C1 C 0.1329(5) 0.4014(10) 0.2236(3)
C2 C 0.2419(4) 0.3573(9) 0.2040(3)
C3 C 0.2421(4) 0.0944(8) 0.1741(3)
C4 C 0.1368(4) 0.0534(10) 0.0952(3)
C5 C 0.4171(5) 0.1771(11) 0.1112(3)
C6 C 0.3218(6) 0.4499(16) 0.0029(4)
C7 C 0.2070(8) 0.4114(19) -0.0658(4)
O1 O 0.1129(3) 0.6380(6) 0.2305(2)
O2 O 0.0736(3) 0.2344(6) 0.2340(2)
O3 O 0.0578(3) 0.2136(6) 0.0661(2)
O4 O 0.1359(3) -0.1635(6) 0.0642(2)
O5 O 0.3171(3) 0.2904(6) 0.0635(2)
H1 H 0.322 0.372 0.260
H2 H 0.245 0.479 0.166
H3 H 0.233 -0.009 0.208
H5 H 0.389 0.454 -0.002
H6 H 0.220 0.493 -0.109
H7 H 0.197 0.172 -0.069
H8 H 0.150 0.397 -0.053
H4? H 0.305 0.309 -0.053
loop_
_geom_bond_atom_site_label_1
_geom_bond_atom_site_label_2
_geom_bond_site_symmetry_1
_geom_bond_site_symmetry_2
S1 C3 1_555 1_555
S2 C5 1_555 1_555
C1 C2 1_555 1_555
C2 C3 1_555 1_555
C3 C4 1_555 1_555
C4 O3 1_555 1_555
C5 S1 1_555 1_555
C6 C7 1_555 1_555
C7 H6 1_555 1_555
O1 C1 1_555 1_555
O2 C1 1_555 1_555
O4 C4 1_555 1_555
O5 C5 1_555 1_555
H1 C2 1_555 1_555
H2 C2 1_555 1_555
H3 C3 1_555 1_555
H5 C6 1_555 1_555
H7 C7 1_555 1_555
H8 C7 1_555 1_555
C6 O5 1_555 1_555

#END
