
#######################################################################
#
#                 Cambridge Crystallographic Data Centre
#                                CCDC 
#
#######################################################################
#
# If this CIF has been generated from an entry in the Cambridge 
# Structural Database, then it will include bibliographic, chemical, 
# crystal, experimental, refinement or atomic coordinate data resulting 
# from the CCDC's data processing and validation procedures.
#
#######################################################################

data_JAPKUJ
_chemical_formula_moiety         'C43 H31 N5 S1'
_chemical_name_systematic        
4,4'-(6-(2-thienyl)-1,3,5-triazine-2,4-diyl)bis(N,N-diphenylaniline)
_symmetry_cell_setting           triclinic
_symmetry_space_group_name_H-M   'P -1'
_symmetry_Int_Tables_number      2
_space_group_name_Hall           '-P 1'
loop_
_symmetry_equiv_pos_site_id
_symmetry_equiv_pos_as_xyz
1 x,y,z
2 -x,-y,-z
_cell_length_a                   9.8927(10)
_cell_length_b                   12.0814(12)
_cell_length_c                   15.7433(17)
_cell_angle_alpha                83.329(2)
_cell_angle_beta                 74.299(2)
_cell_angle_gamma                72.169(2)
_cell_volume                     1723.24
_exptl_crystal_colour            yellow
_exptl_crystal_description       block
_cell_formula_units_Z            2
loop_
_atom_site_label
_atom_site_type_symbol
_atom_site_fract_x
_atom_site_fract_y
_atom_site_fract_z
C1 C -0.0236(7) -0.1122(7) 1.1674(5)
H1 H -0.0932 -0.1283 1.2163
C2 C 0.0263(7) -0.1707(5) 1.0913(4)
H2 H -0.0070 -0.2323 1.0842
C3 C 0.1244(5) -0.1359(4) 1.0276(3)
H3 H 0.1661 -0.1668 0.9719
C4 C 0.1554(5) -0.0417(4) 1.0598(3)
C5 C 0.2552(5) 0.0254(4) 1.0125(3)
C6 C 0.4147(5) 0.0605(4) 0.8871(3)
C7 C 0.3669(5) 0.1621(3) 1.0087(3)
C8 C 0.3994(5) 0.2476(4) 1.0538(3)
C9 C 0.3325(5) 0.2719(4) 1.1415(3)
H4 H 0.2602 0.2375 1.1721
C10 C 0.3708(5) 0.3454(4) 1.1837(3)
H5 H 0.3238 0.3609 1.2426
C11 C 0.4775(5) 0.3971(4) 1.1408(3)
C12 C 0.5458(5) 0.3741(4) 1.0523(3)
H6 H 0.6183 0.4085 1.0222
C13 C 0.5067(5) 0.3018(4) 1.0100(3)
H7 H 0.5521 0.2879 0.9507
C14 C 0.6714(6) 0.4689(4) 1.1631(3)
C15 C 0.7812(7) 0.3661(5) 1.1509(3)
H8 H 0.7580 0.2961 1.1569
C16 C 0.9258(7) 0.3658(6) 1.1298(4)
H9 H 0.9999 0.2958 1.1199
C17 C 0.9606(9) 0.4676(9) 1.1234(6)
H10 H 1.0580 0.4678 1.1098
C18 C 0.8480(11) 0.5715(8) 1.1376(6)
H11 H 0.8712 0.6412 1.1336
C19 C 0.7066(8) 0.5730(5) 1.1570(4)
H12 H 0.6328 0.6432 1.1662
C20 C 0.4216(6) 0.5380(4) 1.2552(3)
C21 C 0.4630(7) 0.5437(4) 1.3309(4)
H13 H 0.5581 0.5045 1.3349
C22 C 0.3659(11) 0.6063(6) 1.4004(4)
H14 H 0.3954 0.6092 1.4512
C23 C 0.2266(11) 0.6643(6) 1.3958(5)
H15 H 0.1599 0.7053 1.4436
C24 C 0.1863(8) 0.6616(5) 1.3208(6)
H16 H 0.0918 0.7028 1.3168
C25 C 0.2835(7) 0.5983(5) 1.2495(4)
H17 H 0.2542 0.5973 1.1984
C26 C 0.5902(5) 0.0934(4) 0.7468(3)
H18 H 0.6064 0.1520 0.7727
C27 C 0.4899(5) 0.0351(4) 0.7956(3)
C28 C 0.4676(5) -0.0501(4) 0.7532(3)
H19 H 0.3998 -0.0891 0.7829
C29 C 0.5453(5) -0.0776(4) 0.6671(3)
H20 H 0.5301 -0.1359 0.6403
C30 C 0.6435(5) -0.0206(4) 0.6212(3)
C31 C 0.6644(5) 0.0658(4) 0.6623(3)
H21 H 0.7305 0.1059 0.6314
C32 C 0.7624(6) 0.0414(4) 0.4734(3)
C33 C 0.6630(6) 0.1468(5) 0.4652(3)
H22 H 0.5672 0.1616 0.4996
C34 C 0.7040(8) 0.2308(5) 0.4066(4)
H23 H 0.6346 0.3011 0.3999
C35 C 0.8452(9) 0.2124(6) 0.3581(4)
H24 H 0.8728 0.2705 0.3195
C36 C 0.9449(8) 0.1091(6) 0.3665(4)
H25 H 1.0417 0.0965 0.3343
C37 C 0.9038(6) 0.0223(5) 0.4226(3)
H26 H 0.9721 -0.0496 0.4262
C38 C 0.7507(5) -0.1567(4) 0.4998(3)
C39 C 0.7262(6) -0.1677(5) 0.4185(4)
H27 H 0.6938 -0.1020 0.3840
C40 C 0.7507(7) -0.2778(7) 0.3899(5)
H28 H 0.7356 -0.2857 0.3354
C41 C 0.7964(9) -0.3748(7) 0.4399(7)
H29 H 0.8114 -0.4480 0.4198
C42 C 0.8197(8) -0.3647(6) 0.5181(6)
H30 H 0.8507 -0.4313 0.5521
C43 C 0.7984(6) -0.2574(5) 0.5489(4)
H31 H 0.8161 -0.2520 0.6031
N1 N 0.7220(4) -0.0467(3) 0.5320(2)
N2 N 0.3243(4) -0.0031(3) 0.9290(2)
N3 N 0.2711(4) 0.1072(3) 1.0555(2)
N4 N 0.4395(4) 0.1433(3) 0.9245(2)
N5 N 0.5228(5) 0.4707(3) 1.1842(3)
S1 S 0.0559(2) -0.00857(18) 1.16171(11)
loop_
_geom_bond_atom_site_label_1
_geom_bond_atom_site_label_2
_geom_bond_site_symmetry_1
_geom_bond_site_symmetry_2
C1 H1 1_555 1_555
C2 C1 1_555 1_555
H2 C2 1_555 1_555
C3 C2 1_555 1_555
H3 C3 1_555 1_555
C4 C3 1_555 1_555
C5 C4 1_555 1_555
C6 C27 1_555 1_555
C7 C8 1_555 1_555
C8 C9 1_555 1_555
C9 H4 1_555 1_555
C10 C9 1_555 1_555
H5 C10 1_555 1_555
C11 C10 1_555 1_555
C12 C11 1_555 1_555
H6 C12 1_555 1_555
C13 C8 1_555 1_555
H7 C13 1_555 1_555
C14 C15 1_555 1_555
C15 H8 1_555 1_555
C16 C15 1_555 1_555
H9 C16 1_555 1_555
C17 C16 1_555 1_555
H10 C17 1_555 1_555
C18 C17 1_555 1_555
H11 C18 1_555 1_555
C19 C14 1_555 1_555
H12 C19 1_555 1_555
C20 C21 1_555 1_555
C21 H13 1_555 1_555
C22 C21 1_555 1_555
H14 C22 1_555 1_555
C23 C22 1_555 1_555
H15 C23 1_555 1_555
C24 C23 1_555 1_555
H16 C24 1_555 1_555
C25 C20 1_555 1_555
H17 C25 1_555 1_555
C26 H18 1_555 1_555
C27 C26 1_555 1_555
C28 C27 1_555 1_555
H19 C28 1_555 1_555
C29 C28 1_555 1_555
H20 C29 1_555 1_555
C30 C29 1_555 1_555
C31 C26 1_555 1_555
H21 C31 1_555 1_555
C32 C33 1_555 1_555
C33 H22 1_555 1_555
C34 C33 1_555 1_555
H23 C34 1_555 1_555
C35 C34 1_555 1_555
H24 C35 1_555 1_555
C36 C35 1_555 1_555
H25 C36 1_555 1_555
C37 C32 1_555 1_555
H26 C37 1_555 1_555
C38 C39 1_555 1_555
C39 H27 1_555 1_555
C40 C39 1_555 1_555
H28 C40 1_555 1_555
C41 C40 1_555 1_555
H29 C41 1_555 1_555
C42 C41 1_555 1_555
H30 C42 1_555 1_555
C43 C38 1_555 1_555
H31 C43 1_555 1_555
N1 C30 1_555 1_555
N2 C5 1_555 1_555
N3 C5 1_555 1_555
N4 C6 1_555 1_555
N5 C11 1_555 1_555
S1 C1 1_555 1_555
C4 S1 1_555 1_555
C6 N2 1_555 1_555
C7 N3 1_555 1_555
C7 N4 1_555 1_555
C12 C13 1_555 1_555
C14 N5 1_555 1_555
C18 C19 1_555 1_555
C20 N5 1_555 1_555
C24 C25 1_555 1_555
C30 C31 1_555 1_555
C32 N1 1_555 1_555
C36 C37 1_555 1_555
C38 N1 1_555 1_555
C42 C43 1_555 1_555

#END
