
#######################################################################
#
#                 Cambridge Crystallographic Data Centre
#                                CCDC 
#
#######################################################################
#
# If this CIF has been generated from an entry in the Cambridge 
# Structural Database, then it will include bibliographic, chemical, 
# crystal, experimental, refinement or atomic coordinate data resulting 
# from the CCDC's data processing and validation procedures.
#
#######################################################################

data_JAPLAQ
_chemical_formula_moiety         'C29 H20 N4 S2'
_chemical_name_systematic        
4-(4,6-bis(2-thienyl)-1,3,5-triazin-2-yl)-N,N-diphenylaniline
_symmetry_cell_setting           monoclinic
_symmetry_space_group_name_H-M   'P 21/c'
_symmetry_Int_Tables_number      14
_space_group_name_Hall           '-P 2ybc'
loop_
_symmetry_equiv_pos_site_id
_symmetry_equiv_pos_as_xyz
1 x,y,z
2 -x,1/2+y,1/2-z
3 -x,-y,-z
4 x,1/2-y,1/2+z
_cell_length_a                   18.598(3)
_cell_length_b                   4.9325(7)
_cell_length_c                   27.313(4)
_cell_angle_alpha                90
_cell_angle_beta                 103.913(2)
_cell_angle_gamma                90
_cell_volume                     2432.04
_exptl_crystal_colour            yellow
_exptl_crystal_description       block
_cell_formula_units_Z            4
loop_
_atom_site_label
_atom_site_type_symbol
_atom_site_fract_x
_atom_site_fract_y
_atom_site_fract_z
C1 C 0.1314(3) -0.0708(10) 0.02938(18)
H1 H 0.1164 -0.1771 0.0006
C2 C 0.1998(3) -0.0950(9) 0.06152(16)
H2 H 0.2339 -0.2241 0.0567
C3 C 0.2167(2) 0.0992(7) 0.10518(13)
H3 H 0.2605 0.1231 0.1297
C4 C 0.1431(2) 0.2461(9) 0.09851(15)
C5 C -0.1286(3) 1.1505(12) 0.1505(2)
H4 H -0.1616 1.2717 0.1594
C6 C -0.1467(3) 0.9988(11) 0.10574(19)
H5 H -0.1918 1.0161 0.0822
C7 C -0.08794(17) 0.8084(8) 0.09891(13)
H6 H -0.0891 0.6831 0.0733
C8 C -0.0256(2) 0.8708(9) 0.14448(15)
C9 C 0.0480(2) 0.7457(9) 0.15468(14)
C10 C 0.1273(2) 0.4550(8) 0.13248(14)
C11 C 0.1660(2) 0.7196(8) 0.20085(14)
C12 C 0.2245(2) 0.8196(8) 0.24357(14)
C13 C 0.2933(2) 0.6931(8) 0.25660(14)
H7 H 0.3025 0.5445 0.2380
C14 C 0.3482(2) 0.7842(9) 0.29654(15)
H8 H 0.3937 0.6964 0.3049
C15 C 0.3352(2) 1.0101(8) 0.32470(14)
C16 C 0.2668(2) 1.1341(8) 0.31212(14)
H9 H 0.2576 1.2820 0.3309
C17 C 0.2117(2) 1.0426(8) 0.27218(14)
H10 H 0.1659 1.1291 0.2642
C18 C 0.4670(2) 1.1107(8) 0.35831(14)
C19 C 0.4815(2) 1.1987(9) 0.31379(15)
H11 H 0.4427 1.2540 0.2874
C20 C 0.5530(2) 1.2054(10) 0.30809(17)
H12 H 0.5618 1.2636 0.2777
C21 C 0.6120(3) 1.1270(10) 0.34682(18)
H13 H 0.6603 1.1334 0.3430
C22 C 0.5969(2) 1.0390(10) 0.39123(17)
H14 H 0.6359 0.9860 0.4177
C23 C 0.5259(2) 1.0277(9) 0.39741(15)
H15 H 0.5170 0.9649 0.4275
C24 C 0.3770(2) 1.2075(9) 0.40921(14)
C25 C 0.4163(3) 1.4280(9) 0.43410(17)
H16 H 0.4517 1.5131 0.4204
C26 C 0.4034(3) 1.5209(11) 0.47861(18)
H17 H 0.4314 1.6636 0.4955
C27 C 0.3503(3) 1.4072(12) 0.49814(18)
H18 H 0.3415 1.4740 0.5280
C28 C 0.3088(3) 1.1907(12) 0.47378(17)
H19 H 0.2719 1.1135 0.4870
C29 C 0.3232(2) 1.0897(10) 0.42897(15)
H20 H 0.2963 0.9430 0.4127
N1 N 0.39328(18) 1.1057(7) 0.36460(12)
N2 N 0.09819(18) 0.8329(7) 0.19451(12)
N3 N 0.05911(18) 0.5590(7) 0.12172(12)
N4 N 0.18344(17) 0.5290(7) 0.17142(11)
S1 S 0.07746(8) 0.1616(3) 0.04551(5)
S2 S -0.04596(8) 1.0991(4) 0.18581(6)
loop_
_geom_bond_atom_site_label_1
_geom_bond_atom_site_label_2
_geom_bond_site_symmetry_1
_geom_bond_site_symmetry_2
C1 H1 1_555 1_555
C2 C1 1_555 1_555
H2 C2 1_555 1_555
C3 C2 1_555 1_555
H3 C3 1_555 1_555
C4 C3 1_555 1_555
C5 H4 1_555 1_555
C6 C5 1_555 1_555
H5 C6 1_555 1_555
C7 C6 1_555 1_555
H6 C7 1_555 1_555
C8 C7 1_555 1_555
C9 C8 1_555 1_555
C10 C4 1_555 1_555
C11 C12 1_555 1_555
C12 C13 1_555 1_555
C13 H7 1_555 1_555
C14 C13 1_555 1_555
H8 C14 1_555 1_555
C15 C14 1_555 1_555
C16 C15 1_555 1_555
H9 C16 1_555 1_555
C17 C12 1_555 1_555
H10 C17 1_555 1_555
C18 C19 1_555 1_555
C19 H11 1_555 1_555
C20 C19 1_555 1_555
H12 C20 1_555 1_555
C21 C20 1_555 1_555
H13 C21 1_555 1_555
C22 C21 1_555 1_555
H14 C22 1_555 1_555
C23 C18 1_555 1_555
H15 C23 1_555 1_555
C24 C25 1_555 1_555
C25 H16 1_555 1_555
C26 C25 1_555 1_555
H17 C26 1_555 1_555
C27 C26 1_555 1_555
H18 C27 1_555 1_555
C28 C27 1_555 1_555
H19 C28 1_555 1_555
C29 C24 1_555 1_555
H20 C29 1_555 1_555
N1 C15 1_555 1_555
N2 C9 1_555 1_555
N3 C9 1_555 1_555
N4 C10 1_555 1_555
S1 C1 1_555 1_555
S2 C5 1_555 1_555
C4 S1 1_555 1_555
C8 S2 1_555 1_555
C10 N3 1_555 1_555
C11 N2 1_555 1_555
C11 N4 1_555 1_555
C16 C17 1_555 1_555
C18 N1 1_555 1_555
C22 C23 1_555 1_555
C24 N1 1_555 1_555
C28 C29 1_555 1_555

#END
