
#######################################################################
#
#                 Cambridge Crystallographic Data Centre
#                                CCDC 
#
#######################################################################
#
# If this CIF has been generated from an entry in the Cambridge 
# Structural Database, then it will include bibliographic, chemical, 
# crystal, experimental, refinement or atomic coordinate data resulting 
# from the CCDC's data processing and validation procedures.
#
#######################################################################

data_JAPMOF
_chemical_formula_moiety         'C42 H42 O10,C1 H4 O1'
_chemical_name_systematic        
"5,7-diisopropoxy-2'-(4-isopropoxyphenyl)-5',7'-dimethoxy-2-(4-methoxyphenyl)-4H,4'H-3,8'-bichromene-4,4'-dione methanol solvate"
_symmetry_cell_setting           triclinic
_symmetry_space_group_name_H-M   'P -1'
_symmetry_Int_Tables_number      2
_space_group_name_Hall           '-P 1'
loop_
_symmetry_equiv_pos_site_id
_symmetry_equiv_pos_as_xyz
1 x,y,z
2 -x,-y,-z
_cell_length_a                   15.1534(10)
_cell_length_b                   15.8118(10)
_cell_length_c                   17.7296(10)
_cell_angle_alpha                68.774(4)
_cell_angle_beta                 76.898(5)
_cell_angle_gamma                79.352(5)
_cell_volume                     3832.03
_exptl_crystal_colour            colorless
_exptl_crystal_description       Prism
_cell_formula_units_Z            4
loop_
_atom_site_label
_atom_site_type_symbol
_atom_site_fract_x
_atom_site_fract_y
_atom_site_fract_z
O1 O -0.00408(7) 0.36976(7) 0.13927(6)
O2 O 0.05359(7) 0.13740(7) 0.01517(6)
O3 O 0.25678(6) 0.13823(6) 0.17461(6)
O4 O 0.12770(7) 0.36376(7) 0.23049(6)
O5 O 0.64645(7) -0.00222(7) 0.25266(6)
O6 O 0.34592(7) 0.39998(7) 0.17334(6)
O7 O 0.35748(7) 0.39699(7) 0.44477(6)
O8 O 0.22871(6) 0.16777(6) 0.40216(5)
O9 O 0.26310(7) 0.27402(7) 0.56999(6)
O10 O 0.04217(8) -0.19719(7) 0.56610(6)
C1 C 0.17727(9) 0.17988(9) 0.14591(8)
C2 C 0.15300(9) 0.14149(9) 0.09551(8)
H1 H 0.1889 0.0899 0.0846
C3 C 0.07519(9) 0.18026(9) 0.06155(8)
C4 C 0.02229(10) 0.25602(10) 0.07854(9)
H2 H -0.0314 0.2819 0.0555
C5 C 0.04815(9) 0.29317(9) 0.12876(8)
C6 C 0.12808(9) 0.25651(9) 0.16393(8)
C7 C 0.16480(9) 0.29615(9) 0.21199(8)
C8 C 0.25214(9) 0.24974(9) 0.23680(8)
C9 C 0.29408(9) 0.17612(9) 0.21649(8)
C10 C 0.38406(9) 0.12737(9) 0.23262(8)
C11 C 0.39752(9) 0.03249(9) 0.26462(8)
H3 H 0.3467 -0.0014 0.2808
C12 C 0.48397(9) -0.01347(9) 0.27324(8)
H4 H 0.4922 -0.0782 0.2955
C13 C 0.55837(9) 0.03614(10) 0.24890(8)
C14 C 0.54584(9) 0.13148(10) 0.21738(9)
H5 H 0.5966 0.1653 0.2015
C15 C 0.45969(9) 0.17633(9) 0.20932(8)
H6 H 0.4514 0.2411 0.1877
C16 C 0.66158(10) -0.09972(10) 0.28577(10)
H7 H 0.6317 -0.1204 0.3435
H8 H 0.7272 -0.1192 0.2820
H9 H 0.6361 -0.1264 0.2545
C17 C -0.00570(11) 0.18813(11) -0.04432(9)
H10 H -0.0596 0.2208 -0.0179
C18 C 0.04577(15) 0.25643(13) -0.11638(11)
H11 H 0.0658 0.2996 -0.0975
H12 H 0.0059 0.2897 -0.1568
H13 H 0.0991 0.2244 -0.1418
C19 C -0.03692(11) 0.11684(12) -0.06754(10)
H14 H 0.0163 0.0817 -0.0895
H15 H -0.0757 0.1469 -0.1094
H16 H -0.0716 0.0757 -0.0188
C20 C -0.06005(10) 0.35785(11) 0.22021(10)
H17 H -0.0232 0.3194 0.2634
C21 C -0.14222(12) 0.31190(15) 0.22933(13)
H18 H -0.1785 0.3495 0.1870
H19 H -0.1794 0.3044 0.2839
H20 H -0.1224 0.2519 0.2230
C22 C -0.08380(13) 0.45301(13) 0.22548(12)
H21 H -0.0276 0.4794 0.2185
H22 H -0.1208 0.4500 0.2792
H23 H -0.1183 0.4913 0.1821
C23 C 0.28877(9) 0.28494(9) 0.28922(8)
C24 C 0.33229(9) 0.36422(9) 0.25655(8)
C25 C 0.35840(9) 0.40248(9) 0.30705(8)
H24 H 0.3904 0.4549 0.2835
C26 C 0.33696(9) 0.36305(9) 0.39162(8)
C27 C 0.29103(9) 0.28325(9) 0.42850(8)
C28 C 0.27105(9) 0.24608(9) 0.37424(8)
C29 C 0.26018(9) 0.24094(9) 0.51696(8)
C30 C 0.22155(10) 0.15592(9) 0.54010(8)
H25 H 0.2065 0.1218 0.5968
C31 C 0.20624(9) 0.12356(9) 0.48416(8)
C32 C 0.16315(10) 0.04061(9) 0.50208(8)
C33 C 0.17303(10) -0.00212(10) 0.44438(9)
H26 H 0.2068 0.0238 0.3910
C34 C 0.13443(11) -0.08224(10) 0.46303(9)
H27 H 0.1427 -0.1110 0.4228
C35 C 0.08394(10) -0.11996(9) 0.54021(9)
C36 C 0.07086(13) -0.07578(12) 0.59749(10)
H28 H 0.0348 -0.1001 0.6501
C37 C 0.10988(13) 0.00312(11) 0.57851(9)
H29 H 0.1003 0.0325 0.6183
C38 C 0.05899(10) -0.25352(10) 0.51486(9)
H30 H 0.0549 -0.2143 0.4568
C39 C -0.01704(11) -0.31448(11) 0.54871(11)
H31 H -0.0146 -0.3506 0.6064
H32 H -0.0097 -0.3555 0.5169
H33 H -0.0760 -0.2767 0.5447
C40 C 0.15177(12) -0.30767(12) 0.51852(12)
H34 H 0.1985 -0.2658 0.5013
H35 H 0.1630 -0.3437 0.4818
H36 H 0.1542 -0.3487 0.5749
C41 C 0.39517(11) 0.47845(10) 0.13281(9)
H37 H 0.3664 0.5273 0.1550
H38 H 0.3943 0.4996 0.0737
H39 H 0.4584 0.4619 0.1420
C42 C 0.38576(14) 0.48684(11) 0.41225(10)
H40 H 0.4424 0.4874 0.3723
H41 H 0.3961 0.5041 0.4571
H42 H 0.3381 0.5304 0.3851
O11 O 0.49605(7) 0.79385(8) 0.49156(7)
O12 O 0.55436(7) 0.62201(8) 0.31259(7)
O13 O 0.27281(6) 0.81221(6) 0.33554(6)
O14 O 0.42541(7) 0.63333(7) 0.22674(6)
O15 O -0.11748(6) 0.95029(7) 0.24673(6)
O16 O 0.19380(7) 0.56989(6) 0.30152(6)
O17 O 0.16873(8) 0.61459(7) 0.02204(6)
O18 O 0.30000(7) 0.82302(6) 0.09113(5)
O19 O 0.23902(9) 0.76164(7) -0.09383(6)
O20 O 0.43335(9) 1.20080(7) 0.00457(7)
C43 C 0.35742(9) 0.77518(9) 0.35565(8)
C44 C 0.37918(9) 0.80447(9) 0.41374(8)
H43 H 0.3379 0.8457 0.4364
C45 C 0.46352(10) 0.77095(10) 0.43713(8)
C46 C 0.52449(10) 0.71101(10) 0.40289(9)
H44 H 0.5826 0.6900 0.4188
C47 C 0.50065(9) 0.68223(9) 0.34613(9)
C48 C 0.41409(9) 0.71402(9) 0.32060(8)
C49 C 0.38091(9) 0.68473(9) 0.26288(8)
C50 C 0.28634(9) 0.72123(9) 0.25143(8)
C51 C 0.23816(9) 0.78182(9) 0.28616(8)
C52 C 0.14499(9) 0.82681(9) 0.27623(8)
C53 C 0.07115(9) 0.77572(9) 0.29805(8)
H45 H 0.0808 0.7110 0.3194
C54 C -0.01561(9) 0.81898(9) 0.28872(8)
H46 H -0.0656 0.7841 0.3047
C55 C -0.02982(9) 0.91404(9) 0.25581(8)
C56 C 0.04257(9) 0.96552(9) 0.23506(8)
H47 H 0.0328 1.0303 0.2136
C57 C 0.12920(9) 0.92166(9) 0.24588(8)
H48 H 0.1785 0.9569 0.2324
C58 C -0.13361(10) 1.04729(10) 0.20658(10)
H49 H -0.1158 1.0792 0.2380
H50 H -0.1985 1.0646 0.2034
H51 H -0.0975 1.0641 0.1510
C59 C 0.44039(11) 0.85491(12) 0.53208(10)
H52 H 0.4119 0.9088 0.4910
C60 C 0.36744(16) 0.80708(19) 0.59848(12)
H53 H 0.3275 0.7859 0.5742
H54 H 0.3315 0.8495 0.6258
H55 H 0.3957 0.7546 0.6388
C61 C 0.50767(13) 0.88561(14) 0.56616(12)
H56 H 0.5337 0.8330 0.6079
H57 H 0.4760 0.9316 0.5910
H58 H 0.5566 0.9120 0.5215
C62 C 0.64417(10) 0.58566(11) 0.33336(11)
H59 H 0.6444 0.5821 0.3908
C63 C 0.71238(12) 0.64634(13) 0.27482(13)
H60 H 0.7129 0.6485 0.2188
H61 H 0.7730 0.6224 0.2891
H62 H 0.6961 0.7080 0.2781
C64 C 0.66113(15) 0.49032(14) 0.3276(2)
H63 H 0.6117 0.4549 0.3636
H64 H 0.7194 0.4601 0.3449
H65 H 0.6633 0.4944 0.2708
C65 C 0.24953(9) 0.69367(9) 0.19394(8)
C66 C 0.20624(9) 0.61511(9) 0.21917(8)
C67 C 0.17804(9) 0.58652(9) 0.16314(8)
H66 H 0.1485 0.5328 0.1818
C68 C 0.19379(9) 0.63760(9) 0.08009(8)
C69 C 0.23607(9) 0.71937(9) 0.05085(8)
C70 C 0.26149(9) 0.74425(9) 0.11056(8)
C71 C 0.25226(10) 0.77986(10) -0.03542(8)
C72 C 0.28569(10) 0.86489(9) -0.04785(8)
H67 H 0.2923 0.9091 -0.1014
C73 C 0.30777(9) 0.88386(9) 0.01305(8)
C74 C 0.34171(9) 0.96740(9) 0.00772(8)
C75 C 0.38667(10) 0.96792(9) 0.06834(8)
H68 H 0.3962 0.9134 0.1129
C76 C 0.41711(10) 1.04650(10) 0.06404(9)
H69 H 0.4488 1.0453 0.1050
C77 C 0.40191(10) 1.12785(10) 0.00029(9)
C78 C 0.35848(11) 1.12867(10) -0.06138(9)
H70 H 0.3491 1.1834 -0.1059
C79 C 0.32903(11) 1.04854(10) -0.05718(9)
H71 H 0.2997 1.0491 -0.0994
C80 C 0.41071(12) 1.29220(10) -0.04995(10)
H72 H 0.4238 1.2932 -0.1081
C81 C 0.31146(14) 1.32532(12) -0.02704(13)
H73 H 0.2729 1.2850 -0.0322
H74 H 0.2977 1.3876 -0.0639
H75 H 0.2994 1.3249 0.0298
C82 C 0.47333(14) 1.34919(12) -0.03866(12)
H76 H 0.4631 1.3444 0.0193
H77 H 0.4606 1.4131 -0.0725
H78 H 0.5369 1.3270 -0.0555
C83 C 0.13694(10) 0.49709(10) 0.33466(9)
H79 H 0.0767 0.5200 0.3192
H80 H 0.1306 0.4738 0.3947
H81 H 0.1647 0.4478 0.3127
C84 C 0.13058(15) 0.53001(12) 0.04708(10)
H82 H 0.1745 0.4794 0.0721
H83 H 0.1168 0.5216 -0.0010
H84 H 0.0744 0.5313 0.0872
O21 O 0.18971(9) 0.45727(8) 0.54039(9)
H85 H 0.2237 0.4087 0.5409
C85 C 0.10487(12) 0.43632(14) 0.58853(12)
H86 H 0.1122 0.3772 0.6321
H87 H 0.0641 0.4333 0.5541
H88 H 0.0787 0.4837 0.6132
O22 O 0.32290(13) 0.58253(10) 0.89433(10)
H89 H 0.2885 0.6189 0.9158
C86 C 0.37474(16) 0.63156(18) 0.82156(16)
H90 H 0.3358 0.6831 0.7904
H91 H 0.4014 0.5917 0.7889
H92 H 0.4236 0.6546 0.8340
loop_
_geom_bond_atom_site_label_1
_geom_bond_atom_site_label_2
_geom_bond_site_symmetry_1
_geom_bond_site_symmetry_2
O1 C5 1_555 1_555
O2 C3 1_555 1_555
O3 C1 1_555 1_555
O4 C7 1_555 1_555
O5 C13 1_555 1_555
O6 C24 1_555 1_555
O7 C26 1_555 1_555
O8 C28 1_555 1_555
O9 C29 1_555 1_555
O10 C35 1_555 1_555
C1 C2 1_555 1_555
C2 H1 1_555 1_555
C3 C2 1_555 1_555
C4 C3 1_555 1_555
H2 C4 1_555 1_555
C5 C4 1_555 1_555
C6 C1 1_555 1_555
C7 C6 1_555 1_555
C8 C7 1_555 1_555
C9 O3 1_555 1_555
C10 C9 1_555 1_555
C11 C10 1_555 1_555
H3 C11 1_555 1_555
C12 C11 1_555 1_555
H4 C12 1_555 1_555
C13 C12 1_555 1_555
C14 C13 1_555 1_555
H5 C14 1_555 1_555
C15 C10 1_555 1_555
H6 C15 1_555 1_555
C16 O5 1_555 1_555
H7 C16 1_555 1_555
H8 C16 1_555 1_555
H9 C16 1_555 1_555
C17 O2 1_555 1_555
H10 C17 1_555 1_555
C18 C17 1_555 1_555
H11 C18 1_555 1_555
H12 C18 1_555 1_555
H13 C18 1_555 1_555
C19 C17 1_555 1_555
H14 C19 1_555 1_555
H15 C19 1_555 1_555
H16 C19 1_555 1_555
C20 O1 1_555 1_555
H17 C20 1_555 1_555
C21 C20 1_555 1_555
H18 C21 1_555 1_555
H19 C21 1_555 1_555
H20 C21 1_555 1_555
C22 C20 1_555 1_555
H21 C22 1_555 1_555
H22 C22 1_555 1_555
H23 C22 1_555 1_555
C23 C8 1_555 1_555
C24 C23 1_555 1_555
C25 C24 1_555 1_555
H24 C25 1_555 1_555
C26 C25 1_555 1_555
C27 C26 1_555 1_555
C28 C23 1_555 1_555
C29 C27 1_555 1_555
C30 C29 1_555 1_555
H25 C30 1_555 1_555
C31 O8 1_555 1_555
C32 C31 1_555 1_555
C33 C32 1_555 1_555
H26 C33 1_555 1_555
C34 C33 1_555 1_555
H27 C34 1_555 1_555
C35 C34 1_555 1_555
C36 C35 1_555 1_555
H28 C36 1_555 1_555
C37 C32 1_555 1_555
H29 C37 1_555 1_555
C38 O10 1_555 1_555
H30 C38 1_555 1_555
C39 C38 1_555 1_555
H31 C39 1_555 1_555
H32 C39 1_555 1_555
H33 C39 1_555 1_555
C40 C38 1_555 1_555
H34 C40 1_555 1_555
H35 C40 1_555 1_555
H36 C40 1_555 1_555
C41 O6 1_555 1_555
H37 C41 1_555 1_555
H38 C41 1_555 1_555
H39 C41 1_555 1_555
C42 O7 1_555 1_555
H40 C42 1_555 1_555
H41 C42 1_555 1_555
H42 C42 1_555 1_555
O11 C45 1_555 1_555
O12 C47 1_555 1_555
O13 C43 1_555 1_555
O14 C49 1_555 1_555
O15 C55 1_555 1_555
O16 C66 1_555 1_555
O17 C68 1_555 1_555
O18 C70 1_555 1_555
O19 C71 1_555 1_555
O20 C77 1_555 1_555
C43 C44 1_555 1_555
C44 H43 1_555 1_555
C45 C44 1_555 1_555
C46 C45 1_555 1_555
H44 C46 1_555 1_555
C47 C46 1_555 1_555
C48 C43 1_555 1_555
C49 C48 1_555 1_555
C50 C49 1_555 1_555
C51 O13 1_555 1_555
C52 C51 1_555 1_555
C53 C52 1_555 1_555
H45 C53 1_555 1_555
C54 C53 1_555 1_555
H46 C54 1_555 1_555
C55 C54 1_555 1_555
C56 C55 1_555 1_555
H47 C56 1_555 1_555
C57 C52 1_555 1_555
H48 C57 1_555 1_555
C58 O15 1_555 1_555
H49 C58 1_555 1_555
H50 C58 1_555 1_555
H51 C58 1_555 1_555
C59 O11 1_555 1_555
H52 C59 1_555 1_555
C60 C59 1_555 1_555
H53 C60 1_555 1_555
H54 C60 1_555 1_555
H55 C60 1_555 1_555
C61 C59 1_555 1_555
H56 C61 1_555 1_555
H57 C61 1_555 1_555
H58 C61 1_555 1_555
C62 O12 1_555 1_555
H59 C62 1_555 1_555
C63 C62 1_555 1_555
H60 C63 1_555 1_555
H61 C63 1_555 1_555
H62 C63 1_555 1_555
C64 C62 1_555 1_555
H63 C64 1_555 1_555
H64 C64 1_555 1_555
H65 C64 1_555 1_555
C65 C50 1_555 1_555
C66 C65 1_555 1_555
C67 C66 1_555 1_555
H66 C67 1_555 1_555
C68 C67 1_555 1_555
C69 C68 1_555 1_555
C70 C65 1_555 1_555
C71 C69 1_555 1_555
C72 C71 1_555 1_555
H67 C72 1_555 1_555
C73 O18 1_555 1_555
C74 C73 1_555 1_555
C75 C74 1_555 1_555
H68 C75 1_555 1_555
C76 C75 1_555 1_555
H69 C76 1_555 1_555
C77 C76 1_555 1_555
C78 C77 1_555 1_555
H70 C78 1_555 1_555
C79 C74 1_555 1_555
H71 C79 1_555 1_555
C80 O20 1_555 1_555
H72 C80 1_555 1_555
C81 C80 1_555 1_555
H73 C81 1_555 1_555
H74 C81 1_555 1_555
H75 C81 1_555 1_555
C82 C80 1_555 1_555
H76 C82 1_555 1_555
H77 C82 1_555 1_555
H78 C82 1_555 1_555
C83 O16 1_555 1_555
H79 C83 1_555 1_555
H80 C83 1_555 1_555
H81 C83 1_555 1_555
C84 O17 1_555 1_555
H82 C84 1_555 1_555
H83 C84 1_555 1_555
H84 C84 1_555 1_555
O21 H85 1_555 1_555
C85 O21 1_555 1_555
H86 C85 1_555 1_555
H87 C85 1_555 1_555
H88 C85 1_555 1_555
O22 H89 1_555 1_555
C86 O22 1_555 1_555
H90 C86 1_555 1_555
H91 C86 1_555 1_555
H92 C86 1_555 1_555
C5 C6 1_555 1_555
C8 C9 1_555 1_555
C14 C15 1_555 1_555
C27 C28 1_555 1_555
C30 C31 1_555 1_555
C36 C37 1_555 1_555
C47 C48 1_555 1_555
C50 C51 1_555 1_555
C56 C57 1_555 1_555
C69 C70 1_555 1_555
C72 C73 1_555 1_555
C78 C79 1_555 1_555

#END
