
#######################################################################
#
#                 Cambridge Crystallographic Data Centre
#                                CCDC 
#
#######################################################################
#
# If this CIF has been generated from an entry in the Cambridge 
# Structural Database, then it will include bibliographic, chemical, 
# crystal, experimental, refinement or atomic coordinate data resulting 
# from the CCDC's data processing and validation procedures.
#
#######################################################################

data_JAPMIZ
_chemical_formula_moiety         'C41 H40 O11'
_chemical_name_systematic        
"2'-(3,4-dimethoxyphenyl)-5,7-diisopropoxy-5',7'-dimethoxy-2-(4-methoxyphenyl)-4H,4'H-3,6'-bichromene-4,4'-dione unknown solvate"
_symmetry_cell_setting           triclinic
_symmetry_space_group_name_H-M   'P -1'
_symmetry_Int_Tables_number      2
_space_group_name_Hall           '-P 1'
loop_
_symmetry_equiv_pos_site_id
_symmetry_equiv_pos_as_xyz
1 x,y,z
2 -x,-y,-z
_cell_length_a                   9.7469(7)
_cell_length_b                   13.1171(8)
_cell_length_c                   17.5212(12)
_cell_angle_alpha                70.806(8)
_cell_angle_beta                 75.292(8)
_cell_angle_gamma                73.524(8)
_cell_volume                     1996.54
_exptl_crystal_colour            colorless
_exptl_crystal_description       Prism
_cell_formula_units_Z            2
loop_
_atom_site_label
_atom_site_type_symbol
_atom_site_fract_x
_atom_site_fract_y
_atom_site_fract_z
O1 O 0.12061(11) 0.41018(8) 1.08961(6)
O2 O 0.19913(19) 0.10862(11) 1.05110(9)
O3 O 0.06038(12) 0.03799(9) 1.20310(7)
O4 O -0.20178(13) 0.30788(9) 1.34190(7)
O5 O 0.43126(12) 0.76830(9) 0.83744(7)
O6 O 0.13708(12) 0.35770(9) 0.85810(7)
O7 O 0.51607(13) 0.17046(10) 1.00532(7)
O8 O 0.56747(12) 0.12483(9) 0.74135(6)
O9 O 0.18514(13) 0.34183(10) 0.69602(7)
O10 O 0.67636(12) 0.04456(9) 0.40838(6)
O11 O 0.89068(13) -0.10809(10) 0.46298(7)
C1 C 0.05686(15) 0.32940(12) 1.14820(9)
C2 C -0.03982(16) 0.36567(12) 1.21257(9)
H1 H -0.0588 0.4401 1.2143
C3 C -0.10690(16) 0.28802(13) 1.27382(9)
C4 C -0.07745(17) 0.17815(13) 1.27144(9)
H2 H -0.1251 0.1266 1.3142
C5 C 0.02014(16) 0.14395(12) 1.20750(9)
C6 C 0.08865(15) 0.22166(12) 1.14187(9)
C7 C 0.17802(18) 0.19743(13) 1.06639(10)
C8 C 0.23969(16) 0.28858(12) 1.00611(9)
C9 C 0.21367(15) 0.38732(12) 1.02092(8)
C10 C 0.27432(15) 0.48448(12) 0.97091(9)
C11 C 0.41903(16) 0.47362(13) 0.93040(9)
H3 H 0.4792 0.4019 0.9333
C12 C 0.47596(16) 0.56608(13) 0.88597(9)
H4 H 0.5747 0.5575 0.8592
C13 C 0.38775(16) 0.67147(13) 0.88083(9)
C14 C 0.24384(16) 0.68340(13) 0.92146(9)
H5 H 0.1838 0.7552 0.9184
C15 C 0.18844(16) 0.59121(12) 0.96611(9)
H6 H 0.0905 0.6002 0.9941
C16 C 0.5827(2) 0.76274(17) 0.80885(12)
H7 H 0.6349 0.7246 0.8549
H8 H 0.5999 0.8378 0.7847
H9 H 0.6176 0.7220 0.7672
C17 C -0.02659(18) -0.04027(13) 1.25606(10)
H10 H -0.0529 -0.0311 1.3128
C18 C -0.1632(2) -0.01983(16) 1.22241(14)
H11 H -0.2154 0.0573 1.2166
H12 H -0.2255 -0.0690 1.2602
H13 H -0.1372 -0.0346 1.1686
C19 C 0.07082(19) -0.15323(13) 1.25694(10)
H14 H 0.1011 -0.1602 1.2008
H15 H 0.0176 -0.2106 1.2909
H16 H 0.1569 -0.1620 1.2797
C20 C -0.26753(19) 0.42169(14) 1.34385(10)
H17 H -0.1912 0.4663 1.3245
C21 C -0.3807(2) 0.47017(16) 1.28929(13)
H18 H -0.3340 0.4716 1.2325
H19 H -0.4281 0.5457 1.2923
H20 H -0.4535 0.4247 1.3076
C22 C -0.3325(3) 0.41522(18) 1.43303(12)
H21 H -0.4035 0.3682 1.4525
H22 H -0.3809 0.4896 1.4384
H23 H -0.2552 0.3837 1.4660
C23 C 0.32967(16) 0.26044(12) 0.93017(9)
C24 C 0.46869(17) 0.18958(13) 0.93462(9)
C25 C 0.54601(17) 0.14455(13) 0.87078(9)
H24 H 0.6383 0.0953 0.8744
C26 C 0.48354(16) 0.17405(12) 0.80120(9)
C27 C 0.52202(17) 0.14892(13) 0.66858(9)
C28 C 0.39793(18) 0.22168(13) 0.65316(10)
H25 H 0.3727 0.2382 0.6008
C29 C 0.29945(17) 0.27692(13) 0.71249(10)
C30 C 0.34910(16) 0.24668(12) 0.79133(9)
C31 C 0.27182(16) 0.28794(12) 0.86006(9)
C32 C 0.02232(19) 0.30243(18) 0.86886(13)
H26 H 0.0429 0.2656 0.8255
H27 H -0.0703 0.3568 0.8659
H28 H 0.0162 0.2473 0.9226
C33 C 0.65419(19) 0.09755(15) 1.01582(11)
H29 H 0.6520 0.0240 1.0144
H30 H 0.6757 0.0924 1.0688
H31 H 0.7296 0.1263 0.9715
C34 C 0.62308(17) 0.08292(13) 0.61529(9)
C35 C 0.73980(17) 0.00099(13) 0.64342(9)
H32 H 0.7573 -0.0105 0.6969
C36 C 0.83139(18) -0.06454(14) 0.59404(9)
H33 H 0.9102 -0.1206 0.6142
C37 C 0.80789(17) -0.04813(13) 0.51548(9)
C38 C 0.69042(17) 0.03543(13) 0.48603(9)
C39 C 0.59985(17) 0.09966(13) 0.53525(9)
H34 H 0.5210 0.1558 0.5151
C40 C 0.56504(19) 0.13260(15) 0.37342(10)
H35 H 0.4697 0.1219 0.4059
H36 H 0.5693 0.1328 0.3169
H37 H 0.5798 0.2034 0.3735
C41 C 1.0140(2) -0.18992(15) 0.48984(11)
H38 H 1.0797 -0.1545 0.5012
H39 H 1.0652 -0.2266 0.4468
H40 H 0.9817 -0.2448 0.5399
loop_
_geom_bond_atom_site_label_1
_geom_bond_atom_site_label_2
_geom_bond_site_symmetry_1
_geom_bond_site_symmetry_2
O1 C1 1_555 1_555
O2 C7 1_555 1_555
O3 C5 1_555 1_555
O4 C3 1_555 1_555
O5 C13 1_555 1_555
O6 C31 1_555 1_555
O7 C24 1_555 1_555
O8 C26 1_555 1_555
O9 C29 1_555 1_555
O10 C38 1_555 1_555
O11 C37 1_555 1_555
C1 C2 1_555 1_555
C2 H1 1_555 1_555
C3 C2 1_555 1_555
C4 C3 1_555 1_555
H2 C4 1_555 1_555
C5 C4 1_555 1_555
C6 C1 1_555 1_555
C7 C6 1_555 1_555
C8 C7 1_555 1_555
C9 O1 1_555 1_555
C10 C9 1_555 1_555
C11 C10 1_555 1_555
H3 C11 1_555 1_555
C12 C11 1_555 1_555
H4 C12 1_555 1_555
C13 C12 1_555 1_555
C14 C13 1_555 1_555
H5 C14 1_555 1_555
C15 C10 1_555 1_555
H6 C15 1_555 1_555
C16 O5 1_555 1_555
H7 C16 1_555 1_555
H8 C16 1_555 1_555
H9 C16 1_555 1_555
C17 O3 1_555 1_555
H10 C17 1_555 1_555
C18 C17 1_555 1_555
H11 C18 1_555 1_555
H12 C18 1_555 1_555
H13 C18 1_555 1_555
C19 C17 1_555 1_555
H14 C19 1_555 1_555
H15 C19 1_555 1_555
H16 C19 1_555 1_555
C20 O4 1_555 1_555
H17 C20 1_555 1_555
C21 C20 1_555 1_555
H18 C21 1_555 1_555
H19 C21 1_555 1_555
H20 C21 1_555 1_555
C22 C20 1_555 1_555
H21 C22 1_555 1_555
H22 C22 1_555 1_555
H23 C22 1_555 1_555
C23 C8 1_555 1_555
C24 C23 1_555 1_555
C25 C24 1_555 1_555
H24 C25 1_555 1_555
C26 C25 1_555 1_555
C27 O8 1_555 1_555
C28 C27 1_555 1_555
H25 C28 1_555 1_555
C29 C28 1_555 1_555
C30 C26 1_555 1_555
C31 C23 1_555 1_555
C32 O6 1_555 1_555
H26 C32 1_555 1_555
H27 C32 1_555 1_555
H28 C32 1_555 1_555
C33 O7 1_555 1_555
H29 C33 1_555 1_555
H30 C33 1_555 1_555
H31 C33 1_555 1_555
C34 C27 1_555 1_555
C35 C34 1_555 1_555
H32 C35 1_555 1_555
C36 C35 1_555 1_555
H33 C36 1_555 1_555
C37 C36 1_555 1_555
C38 C37 1_555 1_555
C39 C34 1_555 1_555
H34 C39 1_555 1_555
C40 O10 1_555 1_555
H35 C40 1_555 1_555
H36 C40 1_555 1_555
H37 C40 1_555 1_555
C41 O11 1_555 1_555
H38 C41 1_555 1_555
H39 C41 1_555 1_555
H40 C41 1_555 1_555
C5 C6 1_555 1_555
C8 C9 1_555 1_555
C14 C15 1_555 1_555
C29 C30 1_555 1_555
C30 C31 1_555 1_555
C38 C39 1_555 1_555

#END
