
#######################################################################
#
#                 Cambridge Crystallographic Data Centre
#                                CCDC 
#
#######################################################################
#
# If this CIF has been generated from an entry in the Cambridge 
# Structural Database, then it will include bibliographic, chemical, 
# crystal, experimental, refinement or atomic coordinate data resulting 
# from the CCDC's data processing and validation procedures.
#
#######################################################################

data_JAPVIF
_chemical_formula_moiety         'C18 H36 N2 O6 Rb1 1+,Rb1 1-'
_chemical_name_systematic        'Cryptand(2.2.2)-rubidium rubidide'
_symmetry_cell_setting           triclinic
_symmetry_space_group_name_H-M   'P -1'
_symmetry_Int_Tables_number      2
_space_group_name_Hall           '-P 1'
loop_
_symmetry_equiv_pos_site_id
_symmetry_equiv_pos_as_xyz
1 x,y,z
2 -x,-y,-z
_cell_length_a                   12.418(4)
_cell_length_b                   12.419(3)
_cell_length_c                   11.582(3)
_cell_angle_alpha                106.36(2)
_cell_angle_beta                 91.46(3)
_cell_angle_gamma                62.38(2)
_cell_volume                     1506.89
_cell_formula_units_Z            2
loop_
_atom_site_label
_atom_site_type_symbol
_atom_site_fract_x
_atom_site_fract_y
_atom_site_fract_z
Rb1 Rb -0.1561(1) -0.1890(1) -0.0467(1)
O1 O -0.3598(8) -0.0203(8) -0.1442(9)
O2 O -0.3200(8) 0.0660(8) 0.0994(9)
O3 O 0.0653(8) -0.2053(8) 0.0430(9)
O4 O 0.0427(8) -0.2229(8) -0.2076(9)
O5 O -0.1622(8) -0.4271(8) -0.165(1)
O6 O -0.2030(9) -0.3240(8) 0.093(1)
N1 N -0.165(1) -0.264(1) -0.315(1)
N2 N -0.148(1) -0.116(1) 0.220(1)
C1 C -0.287(1) -0.180(2) -0.341(2)
C2 C -0.339(1) -0.040(1) -0.271(1)
C3 C -0.415(1) 0.111(1) -0.076(2)
C4 C -0.430(1) 0.126(1) 0.054(1)
C5 C -0.337(1) 0.081(1) 0.224(1)
C6 C -0.219(2) 0.023(1) 0.270(2)
C7 C -0.023(2) -0.162(1) 0.246(1)
C8 C 0.058(1) -0.140(1) 0.166(1)
C9 C 0.145(1) -0.195(1) -0.032(1)
C10 C 0.153(1) -0.269(1) -0.158(1)
C11 C 0.049(1) -0.295(1) -0.327(1)
C12 C -0.073(1) -0.245(2) -0.375(1)
C13 C -0.136(2) -0.399(1) -0.358(2)
C14 C -0.205(1) -0.431(1) -0.279(2)
C15 C -0.228(1) -0.452(1) -0.088(2)
C16 C -0.178(1) -0.451(1) 0.031(2)
C17 C -0.162(1) -0.314(1) 0.210(1)
C18 C -0.203(2) -0.178(1) 0.277(1)
H1 H -0.342 -0.207 -0.320
H2 H -0.283 -0.190 -0.426
H3 H -0.282 -0.013 -0.285
H4 H -0.414 0.007 -0.299
H5 H -0.491 0.156 -0.103
H6 H -0.361 0.144 -0.087
H7 H -0.471 0.214 0.099
H8 H -0.480 0.088 0.064
H9 H -0.382 0.040 0.235
H10 H -0.382 0.169 0.267
H11 H -0.172 0.061 0.253
H12 H -0.235 0.044 0.356
H13 H 0.014 -0.251 0.233
H14 H -0.023 -0.120 0.329
H15 H 0.020 -0.051 0.176
H16 H 0.138 -0.168 0.189
H17 H 0.223 -0.223 -0.005
H18 H 0.112 -0.109 -0.030
H19 H 0.214 -0.270 -0.206
H20 H 0.177 -0.354 -0.158
H21 H 0.073 -0.380 -0.329
H22 H 0.109 -0.295 -0.377
H23 H -0.103 -0.156 -0.360
H24 H -0.062 -0.285 -0.460
H25 H -0.051 -0.450 -0.355
H26 H -0.152 -0.419 -0.440
H27 H -0.289 -0.370 -0.269
H28 H -0.195 -0.514 -0.319
H29 H -0.224 -0.533 -0.125
H30 H -0.312 -0.388 -0.072
H31 H -0.214 -0.480 0.077
H32 H -0.092 -0.506 0.015
H33 H -0.076 -0.361 0.202
H34 H -0.197 -0.348 0.254
Rb2 Rb 0.5357(1) 0.3664(2) 0.6427(2)
H35? H -0.289 0.0000 0.279
H36? H -0.182 0.0000 0.357
loop_
_geom_bond_atom_site_label_1
_geom_bond_atom_site_label_2
_geom_bond_site_symmetry_1
_geom_bond_site_symmetry_2
Rb1 O1 1_555 1_555
O1 C2 1_555 1_555
O2 Rb1 1_555 1_555
O3 Rb1 1_555 1_555
O4 Rb1 1_555 1_555
O5 Rb1 1_555 1_555
O6 Rb1 1_555 1_555
N1 Rb1 1_555 1_555
N2 Rb1 1_555 1_555
C1 N1 1_555 1_555
C2 C1 1_555 1_555
C3 O1 1_555 1_555
C4 O2 1_555 1_555
C5 O2 1_555 1_555
C6 N2 1_555 1_555
C7 N2 1_555 1_555
C8 O3 1_555 1_555
C9 O3 1_555 1_555
C10 O4 1_555 1_555
C11 O4 1_555 1_555
C12 N1 1_555 1_555
C13 N1 1_555 1_555
C14 O5 1_555 1_555
C15 O5 1_555 1_555
C16 O6 1_555 1_555
C17 O6 1_555 1_555
C18 N2 1_555 1_555
H1 C1 1_555 1_555
H2 C1 1_555 1_555
H3 C2 1_555 1_555
H4 C2 1_555 1_555
H5 C3 1_555 1_555
H6 C3 1_555 1_555
H7 C4 1_555 1_555
H8 C4 1_555 1_555
H9 C5 1_555 1_555
H10 C5 1_555 1_555
H11 C6 1_555 1_555
H12 C6 1_555 1_555
H13 C7 1_555 1_555
H14 C7 1_555 1_555
H15 C8 1_555 1_555
H16 C8 1_555 1_555
H17 C9 1_555 1_555
H18 C9 1_555 1_555
H19 C10 1_555 1_555
H20 C10 1_555 1_555
H21 C11 1_555 1_555
H22 C11 1_555 1_555
H23 C12 1_555 1_555
H24 C12 1_555 1_555
H25 C13 1_555 1_555
H26 C13 1_555 1_555
H27 C14 1_555 1_555
H28 C14 1_555 1_555
H29 C15 1_555 1_555
H30 C15 1_555 1_555
H31 C16 1_555 1_555
H32 C16 1_555 1_555
H33 C17 1_555 1_555
H34 C17 1_555 1_555
C3 C4 1_555 1_555
C5 C6 1_555 1_555
C7 C8 1_555 1_555
C9 C10 1_555 1_555
C11 C12 1_555 1_555
C13 C14 1_555 1_555
C15 C16 1_555 1_555
C17 C18 1_555 1_555

#END
