
#######################################################################
#
#                 Cambridge Crystallographic Data Centre
#                                CCDC 
#
#######################################################################
#
# If this CIF has been generated from an entry in the Cambridge 
# Structural Database, then it will include bibliographic, chemical, 
# crystal, experimental, refinement or atomic coordinate data resulting 
# from the CCDC's data processing and validation procedures.
#
#######################################################################

data_JAPVEB
_chemical_formula_moiety         'C18 H36 K1 N2 O6 1+,K1 1-'
_chemical_name_systematic        'Cryptand(2.2.2)-potassium potasside'
_symmetry_cell_setting           triclinic
_symmetry_space_group_name_H-M   'P -1'
_symmetry_Int_Tables_number      2
_space_group_name_Hall           '-P 1'
loop_
_symmetry_equiv_pos_site_id
_symmetry_equiv_pos_as_xyz
1 x,y,z
2 -x,-y,-z
_cell_length_a                   12.300(5)
_cell_length_b                   12.421(6)
_cell_length_c                   11.474(6)
_cell_angle_alpha                106.55(4)
_cell_angle_beta                 92.68(4)
_cell_angle_gamma                62.02(3)
_cell_volume                     1476.1
_cell_formula_units_Z            2
loop_
_atom_site_label
_atom_site_type_symbol
_atom_site_fract_x
_atom_site_fract_y
_atom_site_fract_z
K1 K 0.53429(8) 0.37032(8) 0.63754(9)
K2 K -0.15813(5) -0.18659(5) -0.04676(6)
O1 O -0.3603(2) -0.0242(2) -0.1501(2)
O2 O -0.3212(2) 0.0648(2) 0.0936(2)
O3 O 0.0616(2) -0.2034(2) 0.0465(2)
O4 O 0.0392(2) -0.2215(2) -0.2022(2)
O5 O -0.1618(2) -0.4210(2) -0.1642(2)
O6 O -0.2029(2) -0.3187(2) 0.0905(2)
N1 N -0.1635(2) -0.2631(2) -0.3153(2)
N2 N -0.1492(2) -0.1141(2) 0.2213(2)
C1 C -0.2887(3) -0.1840(3) -0.3450(3)
C2 C -0.3439(3) -0.0443(3) -0.2774(3)
C3 C -0.4144(3) 0.1088(3) -0.0847(3)
C4 C -0.4352(3) 0.1283(3) 0.0463(4)
C5 C -0.3376(3) 0.0882(3) 0.2224(3)
C6 C -0.2158(3) 0.0264(3) 0.2693(3)
C7 C -0.0188(3) -0.1620(3) 0.2485(3)
C8 C 0.0583(3) -0.1396(3) 0.1704(3)
C9 C 0.1442(2) -0.1938(3) -0.0286(3)
C10 C 0.1557(2) -0.2712(3) -0.1551(3)
C11 C 0.0506(3) -0.2915(3) -0.3266(3)
C12 C -0.0738(3) -0.2432(3) -0.3745(3)
C13 C -0.1325(3) -0.3995(3) -0.3584(4)
C14 C -0.1993(3) -0.4354(3) -0.2831(4)
C15 C -0.2272(3) -0.4506(3) -0.0892(4)
C16 C -0.1813(3) -0.4450(3) 0.0311(4)
C17 C -0.1699(3) -0.3065(3) 0.2122(3)
C18 C -0.2093(3) -0.1685(3) 0.2771(3)
H1 H -0.336(2) -0.213(2) -0.325(3)
H2 H -0.290(3) -0.190(3) -0.438(3)
H3 H -0.297(2) -0.004(2) -0.289(2)
H4 H -0.418(3) 0.003(3) -0.306(3)
H5 H -0.486(2) 0.151(2) -0.120(3)
H6 H -0.361(2) 0.141(2) -0.100(2)
H7 H -0.465(2) 0.215(2) 0.091(2)
H8 H -0.483(2) 0.097(2) 0.060(3)
H9 H -0.391(2) 0.058(2) 0.238(2)
H10 H -0.377(2) 0.177(2) 0.259(3)
H11 H -0.160(3) 0.059(3) 0.244(3)
H12 H -0.230(3) 0.054(3) 0.355(3)
H13 H 0.011(3) -0.251(3) 0.236(3)
H14 H -0.012(3) -0.129(3) 0.339(3)
H15 H 0.020(2) -0.047(2) 0.181(2)
H16 H 0.144(2) -0.179(2) 0.194(3)
H17 H 0.217(2) -0.222(2) 0.003(2)
H18 H 0.110(2) -0.101(2) -0.020(2)
H19 H 0.214(2) -0.266(2) -0.207(2)
H20 H 0.182(2) -0.363(2) -0.160(2)
H21 H 0.086(3) -0.382(2) -0.331(3)
H22 H 0.105(3) -0.280(3) -0.371(3)
H23 H -0.108(2) -0.151(2) -0.362(2)
H24 H -0.065(3) -0.282(3) -0.464(3)
H25 H -0.050(2) -0.446(2) -0.354(2)
H26 H -0.153(3) -0.421(3) -0.443(3)
H27 H -0.286(3) -0.384(3) -0.276(3)
H28 H -0.176(3) -0.521(3) -0.319(3)
H29 H -0.216(2) -0.533(2) -0.130(3)
H30 H -0.307(2) -0.391(2) -0.085(3)
H31 H -0.225(2) -0.467(2) 0.082(3)
H32 H -0.093(2) -0.504(3) 0.026(3)
H33 H -0.086(3) -0.357(3) 0.214(3)
H34 H -0.213(2) -0.336(2) 0.250(3)
H35 H -0.298(2) -0.115(2) 0.276(2)
H36 H -0.191(3) -0.163(3) 0.368(3)
loop_
_geom_bond_atom_site_label_1
_geom_bond_atom_site_label_2
_geom_bond_site_symmetry_1
_geom_bond_site_symmetry_2
K2 O1 1_555 1_555
O1 C2 1_555 1_555
O2 K2 1_555 1_555
O3 K2 1_555 1_555
O4 K2 1_555 1_555
O5 K2 1_555 1_555
O6 K2 1_555 1_555
N1 K2 1_555 1_555
N2 K2 1_555 1_555
C1 N1 1_555 1_555
C2 C1 1_555 1_555
C3 O1 1_555 1_555
C4 O2 1_555 1_555
C5 O2 1_555 1_555
C6 N2 1_555 1_555
C7 N2 1_555 1_555
C8 O3 1_555 1_555
C9 O3 1_555 1_555
C10 O4 1_555 1_555
C11 O4 1_555 1_555
C12 N1 1_555 1_555
C13 N1 1_555 1_555
C14 O5 1_555 1_555
C15 O5 1_555 1_555
C16 O6 1_555 1_555
C17 O6 1_555 1_555
C18 N2 1_555 1_555
H1 C1 1_555 1_555
H2 C1 1_555 1_555
H3 C2 1_555 1_555
H4 C2 1_555 1_555
H5 C3 1_555 1_555
H6 C3 1_555 1_555
H7 C4 1_555 1_555
H8 C4 1_555 1_555
H9 C5 1_555 1_555
H10 C5 1_555 1_555
H11 C6 1_555 1_555
H12 C6 1_555 1_555
H13 C7 1_555 1_555
H14 C7 1_555 1_555
H15 C8 1_555 1_555
H16 C8 1_555 1_555
H17 C9 1_555 1_555
H18 C9 1_555 1_555
H19 C10 1_555 1_555
H20 C10 1_555 1_555
H21 C11 1_555 1_555
H22 C11 1_555 1_555
H23 C12 1_555 1_555
H24 C12 1_555 1_555
H25 C13 1_555 1_555
H26 C13 1_555 1_555
H27 C14 1_555 1_555
H28 C14 1_555 1_555
H29 C15 1_555 1_555
H30 C15 1_555 1_555
H31 C16 1_555 1_555
H32 C16 1_555 1_555
H33 C17 1_555 1_555
H34 C17 1_555 1_555
H35 C18 1_555 1_555
H36 C18 1_555 1_555
C3 C4 1_555 1_555
C5 C6 1_555 1_555
C7 C8 1_555 1_555
C9 C10 1_555 1_555
C11 C12 1_555 1_555
C13 C14 1_555 1_555
C15 C16 1_555 1_555
C17 C18 1_555 1_555

#END
