
#######################################################################
#
#                 Cambridge Crystallographic Data Centre
#                                CCDC 
#
#######################################################################
#
# If this CIF has been generated from an entry in the Cambridge 
# Structural Database, then it will include bibliographic, chemical, 
# crystal, experimental, refinement or atomic coordinate data resulting 
# from the CCDC's data processing and validation procedures.
#
#######################################################################

data_JAPXII
_chemical_formula_moiety         'C48 H40 Br2 N2 O4,2(C1 H1 Cl3)'
_chemical_name_systematic        
"N,N'-bis(2,6-Diisopropylphenyl)-1,7-dibromoperylene-3,4,9,10-tetracarboxydiimide chloroform solvate"
_symmetry_cell_setting           monoclinic
_symmetry_space_group_name_H-M   'C 2/c'
_symmetry_Int_Tables_number      15
_space_group_name_Hall           '-C 2yn'
loop_
_symmetry_equiv_pos_site_id
_symmetry_equiv_pos_as_xyz
1 x,y,z
2 1/2+x,1/2+y,z
3 -x,y,1/2-z
4 1/2-x,1/2+y,1/2-z
5 -x,-y,-z
6 1/2-x,1/2-y,-z
7 x,-y,1/2+z
8 1/2+x,1/2-y,1/2+z
_cell_length_a                   18.9970(3)
_cell_length_b                   14.3640(2)
_cell_length_c                   19.2690(3)
_cell_angle_alpha                90
_cell_angle_beta                 109.8150(10)
_cell_angle_gamma                90
_cell_volume                     4946.67
_cell_formula_units_Z            4
loop_
_atom_site_label
_atom_site_type_symbol
_atom_site_fract_x
_atom_site_fract_y
_atom_site_fract_z
Br1 Br -0.21816(2) 0.30477(4) -0.24428(2)
O1 O -0.1797(2) 0.2127(2) -0.5778(2)
O2 O -0.0653(2) 0.2728(3) 0.0393(2)
N1 N -0.0570(2) 0.2380(2) -0.55914(15)
C1 C -0.1167(2) 0.2758(3) -0.1905(2)
C2 C -0.0618(2) 0.2552(2) -0.2217(2)
C3 C 0.0136(2) 0.2473(2) -0.1724(2)
C4 C -0.0753(2) 0.2382(2) -0.3008(2)
C5 C -0.1441(2) 0.2130(3) -0.3506(2)
H1 H -0.1830(2) 0.2005(3) -0.3330(2)
C6 C -0.1576(2) 0.2057(3) -0.4264(2)
H2 H -0.2043(2) 0.1870(3) -0.4580(2)
C7 C -0.1014(2) 0.2263(3) -0.4539(2)
C8 C 0.0286(2) 0.2453(2) -0.0949(2)
C9 C -0.0299(2) 0.2613(3) -0.0670(2)
C10 C -0.1001(2) 0.2784(3) -0.1138(2)
H3 H -0.1378(2) 0.2921(3) -0.0948(2)
C11 C -0.1173(2) 0.2249(3) -0.5343(2)
C12 C -0.0158(2) 0.2582(3) 0.0135(2)
C13 C -0.0720(2) 0.2333(3) -0.6381(2)
C14 C -0.0749(2) 0.1465(3) -0.6707(2)
C15 C -0.0890(3) 0.1443(3) -0.7462(2)
H4 H -0.0925(3) 0.0871(3) -0.7696(2)
C16 C -0.0980(3) 0.2239(4) -0.7871(2)
H5 H -0.1057(3) 0.2207(4) -0.8374(2)
C17 C -0.0955(3) 0.3079(3) -0.7538(2)
H6 H -0.1027(3) 0.3617(3) -0.7822(2)
C18 C -0.0828(3) 0.3159(3) -0.6787(2)
C19 C -0.0636(3) 0.0571(3) -0.6262(3)
H7 H -0.0722(3) 0.0717(3) -0.5801(3)
C20 C -0.1180(5) -0.0188(5) -0.6641(5)
H8 H -0.1683(5) 0.0042(5) -0.6769(5)
H9 H -0.1115(5) -0.0711(5) -0.6315(5)
H10 H -0.1089(5) -0.0379(5) -0.7081(5)
C21 C 0.0158(4) 0.0223(5) -0.6058(5)
H11 H 0.0498(4) 0.0712(5) -0.5819(5)
H12 H 0.0253(4) 0.0033(5) -0.6496(5)
H13 H 0.0228(4) -0.0298(5) -0.5729(5)
C22 C -0.0842(4) 0.4100(3) -0.6436(3)
H14 H -0.0706(4) 0.3999(3) -0.5904(3)
C23 C -0.1628(5) 0.4488(6) -0.6709(6)
H15 H -0.1634(5) 0.5083(6) -0.6485(6)
H16 H -0.1958(5) 0.4069(6) -0.6579(6)
H17 H -0.1792(5) 0.4557(6) -0.7236(6)
C24 C -0.0277(5) 0.4785(5) -0.6549(6)
H18 H 0.0214(5) 0.4515(5) -0.6369(6)
H19 H -0.0283(5) 0.5349(5) -0.6284(6)
H20 H -0.0407(5) 0.4921(5) -0.7065(6)
Br1B Br 0.21816(2) 0.30477(4) -0.25572(2)
O1B O 0.1797(2) 0.2127(2) 0.0778(2)
O2B O 0.0653(2) 0.2728(3) -0.5393(2)
N1B N 0.0570(2) 0.2380(2) 0.05914(15)
C1B C 0.1167(2) 0.2758(3) -0.3095(2)
C2B C 0.0618(2) 0.2552(2) -0.2783(2)
C3B C -0.0136(2) 0.2473(2) -0.3276(2)
C4B C 0.0753(2) 0.2382(2) -0.1992(2)
C5B C 0.1441(2) 0.2130(3) -0.1494(2)
H1B H 0.1830(2) 0.2005(3) -0.1670(2)
C6B C 0.1576(2) 0.2057(3) -0.0736(2)
H2B H 0.2043(2) 0.1870(3) -0.0420(2)
C7B C 0.1014(2) 0.2263(3) -0.0461(2)
C8B C -0.0286(2) 0.2453(2) -0.4051(2)
C9B C 0.0299(2) 0.2613(3) -0.4330(2)
C10B C 0.1001(2) 0.2784(3) -0.3862(2)
H3B H 0.1378(2) 0.2921(3) -0.4052(2)
C11B C 0.1173(2) 0.2249(3) 0.0343(2)
C12B C 0.0158(2) 0.2582(3) -0.5135(2)
C13B C 0.0720(2) 0.2333(3) 0.1381(2)
C14B C 0.0749(2) 0.1465(3) 0.1707(2)
C15B C 0.0890(3) 0.1443(3) 0.2462(2)
H4B H 0.0925(3) 0.0871(3) 0.2696(2)
C16B C 0.0980(3) 0.2239(4) 0.2871(2)
H5B H 0.1057(3) 0.2207(4) 0.3374(2)
C17B C 0.0955(3) 0.3079(3) 0.2538(2)
H6B H 0.1027(3) 0.3617(3) 0.2822(2)
C18B C 0.0828(3) 0.3159(3) 0.1787(2)
C19B C 0.0636(3) 0.0571(3) 0.1262(3)
H7B H 0.0722(3) 0.0717(3) 0.0801(3)
C20B C 0.1180(5) -0.0188(5) 0.1641(5)
H8B H 0.1683(5) 0.0042(5) 0.1769(5)
H9B H 0.1115(5) -0.0711(5) 0.1315(5)
H10B H 0.1089(5) -0.0379(5) 0.2081(5)
C21B C -0.0158(4) 0.0223(5) 0.1058(5)
H11B H -0.0498(4) 0.0712(5) 0.0819(5)
H12B H -0.0253(4) 0.0033(5) 0.1496(5)
H13B H -0.0228(4) -0.0298(5) 0.0729(5)
C22B C 0.0842(4) 0.4100(3) 0.1436(3)
H14B H 0.0706(4) 0.3999(3) 0.0904(3)
C23B C 0.1628(5) 0.4488(6) 0.1709(6)
H15B H 0.1634(5) 0.5083(6) 0.1485(6)
H16B H 0.1958(5) 0.4069(6) 0.1579(6)
H17B H 0.1792(5) 0.4557(6) 0.2236(6)
C24B C 0.0277(5) 0.4785(5) 0.1549(6)
H18B H -0.0214(5) 0.4515(5) 0.1369(6)
H19B H 0.0283(5) 0.5349(5) 0.1284(6)
H20B H 0.0407(5) 0.4921(5) 0.2065(6)
C25 C 0.2900(6) -0.0779(7) 0.0293(5)
H21 H 0.3373(6) -0.1077(7) 0.0369(5)
Cl1 Cl 0.2346(3) -0.0854(5) -0.0648(3)
Cl2 Cl 0.2463(6) -0.1275(10) 0.0813(4)
Cl3 Cl 0.3033(6) 0.0215(6) 0.0948(6)
Cl4? Cl 0.2234(11) -0.1447(10) 0.0357(13)
Cl5? Cl 0.2931(24) -0.0301(13) -0.0389(12)
Cl6? Cl 0.3238(7) 0.0320(6) 0.0457(8)
loop_
_geom_bond_atom_site_label_1
_geom_bond_atom_site_label_2
_geom_bond_site_symmetry_1
_geom_bond_site_symmetry_2
Br1 C1 1_555 1_555
O1 C11 1_555 1_555
O2 C12 1_555 1_555
N1 C11 1_555 1_555
C1 C2 1_555 1_555
C2 C3 1_555 1_555
C3 C8 1_555 1_555
C4 C2 1_555 1_555
C5 C4 1_555 1_555
H1 C5 1_555 1_555
C6 C5 1_555 1_555
H2 C6 1_555 1_555
C7 C6 1_555 1_555
C8 C9 1_555 1_555
C9 C10 1_555 1_555
C10 C1 1_555 1_555
H3 C10 1_555 1_555
C11 C7 1_555 1_555
C12 C9 1_555 1_555
C13 N1 1_555 1_555
C14 C13 1_555 1_555
C15 C14 1_555 1_555
H4 C15 1_555 1_555
C16 C15 1_555 1_555
H5 C16 1_555 1_555
C17 C16 1_555 1_555
H6 C17 1_555 1_555
C18 C13 1_555 1_555
C19 C14 1_555 1_555
H7 C19 1_555 1_555
C20 C19 1_555 1_555
H8 C20 1_555 1_555
H9 C20 1_555 1_555
H10 C20 1_555 1_555
C21 C19 1_555 1_555
H11 C21 1_555 1_555
H12 C21 1_555 1_555
H13 C21 1_555 1_555
C22 C18 1_555 1_555
H14 C22 1_555 1_555
C23 C22 1_555 1_555
H15 C23 1_555 1_555
H16 C23 1_555 1_555
H17 C23 1_555 1_555
C24 C22 1_555 1_555
H18 C24 1_555 1_555
H19 C24 1_555 1_555
H20 C24 1_555 1_555
C25 H21 1_555 1_555
Cl1 C25 1_555 1_555
Cl2 C25 1_555 1_555
Cl3 C25 1_555 1_555
Br1B C1B 1_555 1_555
O1B C11B 1_555 1_555
O2B C12B 1_555 1_555
N1B C12 1_555 1_555
C1B C2B 1_555 1_555
C2B C3B 1_555 1_555
C3B C4 1_555 1_555
C4B C3 1_555 1_555
C5B C4B 1_555 1_555
H1B C5B 1_555 1_555
C6B C5B 1_555 1_555
H2B C6B 1_555 1_555
C7B C8 1_555 1_555
C8B C7 1_555 1_555
C9B C8B 1_555 1_555
C10B C1B 1_555 1_555
H3B C10B 1_555 1_555
C11B N1B 1_555 1_555
C12B N1 1_555 1_555
C13B N1B 1_555 1_555
C14B C13B 1_555 1_555
C15B C14B 1_555 1_555
H4B C15B 1_555 1_555
C16B C15B 1_555 1_555
H5B C16B 1_555 1_555
C17B C16B 1_555 1_555
H6B C17B 1_555 1_555
C18B C13B 1_555 1_555
C19B C14B 1_555 1_555
H7B C19B 1_555 1_555
C20B C19B 1_555 1_555
H8B C20B 1_555 1_555
H9B C20B 1_555 1_555
H10B C20B 1_555 1_555
C21B C19B 1_555 1_555
H11B C21B 1_555 1_555
H12B C21B 1_555 1_555
H13B C21B 1_555 1_555
C22B C18B 1_555 1_555
H14B C22B 1_555 1_555
C23B C22B 1_555 1_555
H15B C23B 1_555 1_555
H16B C23B 1_555 1_555
H17B C23B 1_555 1_555
C24B C22B 1_555 1_555
H18B C24B 1_555 1_555
H19B C24B 1_555 1_555
H20B C24B 1_555 1_555
C17 C18 1_555 1_555
C2B C4B 1_555 1_555
C3B C8B 1_555 1_555
C6B C7B 1_555 1_555
C7B C11B 1_555 1_555
C9B C10B 1_555 1_555
C9B C12B 1_555 1_555
C17B C18B 1_555 1_555

#END
