
#######################################################################
#
#                 Cambridge Crystallographic Data Centre
#                                CCDC 
#
#######################################################################
#
# If this CIF has been generated from an entry in the Cambridge 
# Structural Database, then it will include bibliographic, chemical, 
# crystal, experimental, refinement or atomic coordinate data resulting 
# from the CCDC's data processing and validation procedures.
#
#######################################################################

data_JAPYAA
_chemical_formula_moiety         'C11 H6 Br2 Cl6 O1'
_chemical_name_systematic        
'endo-exo 9-exo-10-endo-Dibromo-3,4,5,6,12,12-hexachloro-11-oxatetracyclo(6.2.1.1^3,6^.0^2,7^)dodec-4-ene'
_symmetry_cell_setting           monoclinic
_symmetry_space_group_name_H-M   'P 21/n'
_symmetry_Int_Tables_number      14
_space_group_name_Hall           '-P 2yn'
loop_
_symmetry_equiv_pos_site_id
_symmetry_equiv_pos_as_xyz
1 x,y,z
2 1/2-x,1/2+y,1/2-z
3 -x,-y,-z
4 1/2+x,1/2-y,1/2+z
_cell_length_a                   8.089(3)
_cell_length_b                   14.484(7)
_cell_length_c                   13.619(8)
_cell_angle_alpha                90
_cell_angle_beta                 98.4(4)
_cell_angle_gamma                90
_cell_volume                     1578.5
_cell_formula_units_Z            4
loop_
_atom_site_label
_atom_site_type_symbol
_atom_site_fract_x
_atom_site_fract_y
_atom_site_fract_z
Br1 Br 0.2343(1) 0.5007(1) 0.4515(1)
Br2 Br 0.1234(1) 0.5499(1) 0.1466(1)
Cl1 Cl -0.2306(2) 0.2720(1) 0.0044(1)
Cl2 Cl -0.0413(3) 0.1234(1) 0.1679(2)
Cl3 Cl -0.1841(3) 0.1561(1) 0.3877(2)
Cl4 Cl -0.4582(2) 0.3269(1) 0.3619(1)
Cl5 Cl -0.4869(2) 0.4153(1) 0.1222(1)
Cl6 Cl -0.5485(2) 0.2228(1) 0.1342(1)
O1 O 0.0731(6) 0.3164(3) 0.3059(3)
C1 C 0.0642(8) 0.3612(5) 0.2113(5)
C2 C -0.1234(8) 0.3736(4) 0.1748(5)
C3 C -0.2253(8) 0.2893(5) 0.1325(5)
C4 C -0.1739(8) 0.2058(4) 0.1978(5)
C5 C -0.2304(8) 0.2186(5) 0.2805(5)
C6 C -0.3183(8) 0.3108(5) 0.2763(5)
C7 C -0.1885(8) 0.3889(5) 0.2762(5)
C8 C -0.0263(8) 0.3836(4) 0.3503(5)
C9 C 0.0658(8) 0.4736(5) 0.3373(5)
C10 C 0.1468(8) 0.4531(5) 0.2453(5)
C11 C -0.3961(8) 0.3084(4) 0.1656(5)
H1 H 0.1230(80) 0.3273(46) 0.1655(51)
H2 H -0.1415(88) 0.4214(47) 0.1266(53)
H3 H -0.2427(92) 0.4460(48) 0.2713(52)
H4 H -0.0322(89) 0.3673(47) 0.4132(54)
H5 H -0.0081(88) 0.5264(45) 0.3265(51)
H6 H 0.2533(98) 0.4377(47) 0.2606(53)
loop_
_geom_bond_atom_site_label_1
_geom_bond_atom_site_label_2
_geom_bond_site_symmetry_1
_geom_bond_site_symmetry_2
Br1 C9 1_555 1_555
Br2 C10 1_555 1_555
Cl1 C3 1_555 1_555
Cl2 C4 1_555 1_555
Cl3 C5 1_555 1_555
Cl4 C6 1_555 1_555
Cl5 C11 1_555 1_555
Cl6 C11 1_555 1_555
O1 C1 1_555 1_555
C1 C2 1_555 1_555
C2 C3 1_555 1_555
C3 C4 1_555 1_555
C4 C5 1_555 1_555
C5 C6 1_555 1_555
C6 C7 1_555 1_555
C7 C2 1_555 1_555
C8 O1 1_555 1_555
C9 C8 1_555 1_555
C10 C1 1_555 1_555
C11 C3 1_555 1_555
H1 C1 1_555 1_555
H2 C2 1_555 1_555
H3 C7 1_555 1_555
H4 C8 1_555 1_555
H5 C9 1_555 1_555
H6 C10 1_555 1_555
C6 C11 1_555 1_555
C7 C8 1_555 1_555
C9 C10 1_555 1_555

#END
