
#######################################################################
#
#                 Cambridge Crystallographic Data Centre
#                                CCDC 
#
#######################################################################
#
# If this CIF has been generated from an entry in the Cambridge 
# Structural Database, then it will include bibliographic, chemical, 
# crystal, experimental, refinement or atomic coordinate data resulting 
# from the CCDC's data processing and validation procedures.
#
#######################################################################

data_JAQMIY01
_chemical_formula_moiety         'C12 H8 N2,C6 F4 I2'
_chemical_name_systematic        
'1,10-phenanthroline 1,2,4,5-tetrafluoro-3,6-di-iodobenzene'
_symmetry_cell_setting           monoclinic
_symmetry_space_group_name_H-M   'P 21/c'
_symmetry_Int_Tables_number      14
_space_group_name_Hall           '-P 2ybc'
loop_
_symmetry_equiv_pos_site_id
_symmetry_equiv_pos_as_xyz
1 x,y,z
2 -x,1/2+y,1/2-z
3 -x,-y,-z
4 x,1/2-y,1/2+z
_cell_length_a                   4.5168(17)
_cell_length_b                   16.209(6)
_cell_length_c                   23.822(9)
_cell_angle_alpha                90
_cell_angle_beta                 91.980(7)
_cell_angle_gamma                90
_cell_volume                     1743.03
_exptl_crystal_description       bulk
_cell_formula_units_Z            4
loop_
_atom_site_label
_atom_site_type_symbol
_atom_site_fract_x
_atom_site_fract_y
_atom_site_fract_z
C1 C 0.6048(10) 0.9247(3) 0.2348(2)
H1 H 0.6610 0.9692 0.2588
C2 C 0.7302(10) 0.9206(3) 0.1815(2)
H2 H 0.8635 0.9619 0.1697
C3 C 0.6559(10) 0.8560(3) 0.1473(2)
H3 H 0.7397 0.8513 0.1114
C4 C 0.4544(9) 0.7961(3) 0.16529(18)
C5 C 0.3715(10) 0.7258(3) 0.13176(18)
H4 H 0.4493 0.7196 0.0955
C6 C 0.1863(10) 0.6688(3) 0.15084(18)
H5 H 0.1372 0.6223 0.1280
C7 C 0.0598(10) 0.6763(3) 0.20511(17)
C8 C -0.1388(10) 0.6181(3) 0.22607(19)
H6 H -0.1919 0.5705 0.2046
C9 C -0.2542(11) 0.6306(3) 0.27754(19)
H7 H -0.3889 0.5920 0.2925
C10 C -0.1709(10) 0.7009(3) 0.30769(18)
H8 H -0.2554 0.7091 0.3432
C11 C 0.3392(9) 0.8062(3) 0.21927(17)
C12 C 0.1339(9) 0.7448(3) 0.23899(16)
N1 N 0.4137(8) 0.8702(2) 0.25342(15)
N2 N 0.0168(8) 0.7567(2) 0.29038(14)
C13 C 0.0354(10) 0.9533(3) 0.45064(16)
C14 C 0.1837(10) 1.0263(3) 0.45987(16)
C15 C 0.1506(10) 1.0719(3) 0.50791(17)
F1 F 0.3711(6) 1.05471(17) 0.42108(10)
F2 F 0.3032(6) 1.14312(17) 0.51307(10)
I1 I 0.07790(7) 0.885116(19) 0.376173(11)
C13B C -0.0354(10) 1.0467(3) 0.54936(16)
C14B C -0.1837(10) 0.9737(3) 0.54013(16)
C15B C -0.1506(10) 0.9281(3) 0.49209(17)
F1B F -0.3711(6) 0.94529(17) 0.57892(10)
F2B F -0.3032(6) 0.85688(17) 0.48693(10)
I1B I -0.07790(7) 1.114884(19) 0.623827(11)
C16 C 0.4071(9) 0.5765(3) 0.47778(17)
C17 C 0.3085(9) 0.5476(3) 0.52841(18)
C18 C 0.3982(10) 0.4737(3) 0.55046(17)
F3 F 0.1161(6) 0.59342(18) 0.55729(11)
F4 F 0.2947(6) 0.45025(17) 0.59993(10)
I2 I 0.27648(7) 0.691148(19) 0.445925(13)
C16B C 0.5929(9) 0.4235(3) 0.52222(17)
C17B C 0.6915(9) 0.4524(3) 0.47159(18)
C18B C 0.6018(10) 0.5263(3) 0.44954(17)
F3B F 0.8839(6) 0.40658(18) 0.44271(11)
F4B F 0.7053(6) 0.54975(17) 0.40007(10)
I2B I 0.72352(7) 0.308852(19) 0.554075(13)
loop_
_geom_bond_atom_site_label_1
_geom_bond_atom_site_label_2
_geom_bond_site_symmetry_1
_geom_bond_site_symmetry_2
C1 H1 1_555 1_555
C2 C1 1_555 1_555
H2 C2 1_555 1_555
C3 C2 1_555 1_555
H3 C3 1_555 1_555
C4 C3 1_555 1_555
C5 C4 1_555 1_555
H4 C5 1_555 1_555
C6 C5 1_555 1_555
H5 C6 1_555 1_555
C7 C6 1_555 1_555
C8 C7 1_555 1_555
H6 C8 1_555 1_555
C9 C8 1_555 1_555
H7 C9 1_555 1_555
C10 C9 1_555 1_555
H8 C10 1_555 1_555
C11 C4 1_555 1_555
C12 C7 1_555 1_555
N1 C1 1_555 1_555
N2 C10 1_555 1_555
C13 C14 1_555 1_555
C14 C15 1_555 1_555
C15 F2 1_555 1_555
F1 C14 1_555 1_555
I1 C13 1_555 1_555
C16 C17 1_555 1_555
C17 C18 1_555 1_555
C18 F4 1_555 1_555
F3 C17 1_555 1_555
I2 C16 1_555 1_555
C13B C15 1_555 1_555
C14B C13B 1_555 1_555
C15B C13 1_555 1_555
F1B C14B 1_555 1_555
F2B C15B 1_555 1_555
I1B C13B 1_555 1_555
C16B C18 1_555 1_555
C17B C16B 1_555 1_555
C18B C16 1_555 1_555
F3B C17B 1_555 1_555
F4B C18B 1_555 1_555
I2B C16B 1_555 1_555
C11 C12 1_555 1_555
C11 N1 1_555 1_555
C12 N2 1_555 1_555
C14B C15B 1_555 1_555
C17B C18B 1_555 1_555

#END
