
#######################################################################
#
#                 Cambridge Crystallographic Data Centre
#                                CCDC 
#
#######################################################################
#
# If this CIF has been generated from an entry in the Cambridge 
# Structural Database, then it will include bibliographic, chemical, 
# crystal, experimental, refinement or atomic coordinate data resulting 
# from the CCDC's data processing and validation procedures.
#
#######################################################################

data_JAQVEC
_chemical_formula_moiety         'C18 H21 Cl2 O5 1-,C9 H13 N2 O4 1+'
_chemical_name_systematic        
'[(D)-threo-2-Ammonio-1-(4-nitrophenyl)-propane-1,3-diol][(S)-(3R*,5S*)-5-[6-(2,4-dichlorophenyl)hexyl]-3-hydroxytetrahydrofuran-2-on-3-yl]ethanoate'
_chemical_properties_biological  
'agent inhibiting cholesterol and fatty acid synthesis in HepG2 cells and also reduces plasma triglyceride levels'
_symmetry_cell_setting           monoclinic
_symmetry_space_group_name_H-M   'P 21'
_symmetry_Int_Tables_number      4
_space_group_name_Hall           'P 2yb'
loop_
_symmetry_equiv_pos_site_id
_symmetry_equiv_pos_as_xyz
1 x,y,z
2 -x,1/2+y,-z
_cell_length_a                   9.920(2)
_cell_length_b                   5.321(1)
_cell_length_c                   28.038(8)
_cell_angle_alpha                90
_cell_angle_beta                 96.43(3)
_cell_angle_gamma                90
_cell_volume                     1470.66
_chemical_melting_point          87-88.5deg.C
_cell_formula_units_Z            2
_exptl_crystal_recrystallization_method ethanol/isopropanol
loop_
_atom_site_label
_atom_site_type_symbol
_atom_site_fract_x
_atom_site_fract_y
_atom_site_fract_z
Cl1 Cl 1.4168(5) 1.1763(12) 0.5794(1)
Cl2 Cl 1.3279(3) 1.1089(10) 0.3904(1)
O1 O 0.8818(3) 0.8814(6) 0.8204(1)
O2 O 0.9298(3) 0.8178(6) 0.8985(1)
O3 O 0.6250(3) 0.8780(7) 0.8676(1)
O4 O 0.6854(3) 0.8813(6) 0.9625(1)
O5 O 0.8553(3) 1.1332(6) 0.9898(1)
C1 C 0.8588(4) 0.9145(8) 0.8657(1)
C2 C 0.7286(4) 1.0647(8) 0.8686(1)
C3 C 0.7148(5) 1.1978(11) 0.8204(2)
C4 C 0.7752(5) 1.0096(11) 0.7878(2)
C5 C 0.8389(5) 1.1168(12) 0.7460(2)
C6 C 0.9165(6) 0.9200(12) 0.7199(2)
C7 C 0.9701(6) 1.0225(14) 0.6755(2)
C8 C 1.0694(7) 0.8465(15) 0.6543(2)
C9 C 1.1137(8) 0.9438(17) 0.6074(2)
C10 C 1.2266(11) 0.7856(24) 0.5900(3)
C11 C 1.2523(10) 0.8643(23) 0.5392(3)
C12 C 1.3382(9) 1.0567(24) 0.5307(3)
C13 C 1.3614(9) 1.1287(23) 0.4855(3)
C14 C 1.2948(10) 1.0110(26) 0.4470(3)
C15 C 1.2104(13) 0.8262(29) 0.4544(3)
C16 C 1.1914(13) 0.7563(29) 0.4994(4)
C17 C 0.7329(4) 1.2275(8) 0.9134(1)
C18 C 0.7602(4) 1.0710(8) 0.9587(1)
H1 H 0.6205(41) 0.8248(81) 0.8952(3)
H2 H 0.7656(5) 1.3561(11) 0.8222(2)
H3 H 0.6195(5) 1.2324(11) 0.8092(2)
H4 H 0.7048(5) 0.8860(11) 0.7758(2)
H5 H 0.9014(5) 1.2519(12) 0.7575(2)
H6 H 0.7677(5) 1.1905(12) 0.7232(2)
H7 H 0.9927(6) 0.8571(12) 0.7420(2)
H8 H 0.8562(6) 0.7779(12) 0.7109(2)
H9 H 1.0155(6) 1.1830(14) 0.6835(2)
H10 H 0.8934(6) 1.0556(14) 0.6512(2)
H11 H 1.1498(7) 0.8243(15) 0.6776(2)
H12 H 1.0267(7) 0.6816(15) 0.6486(2)
H13 H 1.1453(8) 1.1176(17) 0.6119(2)
H14 H 1.0355(8) 0.9441(17) 0.5827(2)
H15 H 1.2011(11) 0.6077(24) 0.5900(3)
H16 H 1.3100(11) 0.8069(24) 0.6119(3)
H17 H 1.4230(9) 1.2587(23) 0.4812(3)
H18 H 1.1632(13) 0.7429(29) 0.4281(3)
H19 H 1.1281(13) 0.6283(29) 0.5032(4)
H20 H 0.8043(4) 1.3545(8) 0.9128(1)
H21 H 0.6461(4) 1.3151(8) 0.9136(1)
O6 O 0.5133(6) 0.5973(17) 0.7192(2)
O7 O 0.3722(7) 0.3302(18) 0.6866(2)
O8 O 0.0334(3) 0.3568(6) 0.8873(1)
O9 O 0.4013(3) -0.1278(7) 0.9604(1)
N1 N 0.4179(6) 0.4569(14) 0.7202(2)
N2 N 0.1490(3) 0.0997(7) 0.9665(1)
C19 C 0.1983(5) 0.2283(11) 0.8106(2)
C20 C 0.2573(6) 0.2523(13) 0.7686(2)
C21 C 0.3552(5) 0.4318(11) 0.7651(2)
C22 C 0.3980(5) 0.5843(11) 0.8025(2)
C23 C 0.3405(4) 0.5590(9) 0.8447(2)
C24 C 0.2406(4) 0.3830(9) 0.8495(1)
C25 C 0.1771(4) 0.3578(9) 0.8958(1)
C26 C 0.2182(4) 0.1142(8) 0.9222(1)
C27 C 0.3711(4) 0.0973(9) 0.9348(1)
H22 H 0.0054(3) 0.2113(93) 0.8904(12)
H23 H 0.4844(7) -0.1526(59) 0.9631(19)
H24 H 0.1871(22) 0.2105(43) 0.9883(4)
H25 H 0.1575(28) -0.0566(18) 0.9787(6)
H26 H 0.0605(8) 0.1364(59) 0.9594(2)
H27 H 0.1298(5) 0.1083(11) 0.8129(2)
H28 H 0.2306(6) 0.1461(13) 0.7424(2)
H29 H 0.4657(5) 0.7052(11) 0.7997(2)
H30 H 0.3699(4) 0.6638(9) 0.8708(2)
H31 H 0.2061(4) 0.5017(9) 0.9168(1)
H32 H 0.1880(4) -0.0293(8) 0.9012(1)
H33 H 0.4161(4) 0.0985(9) 0.9054(1)
H34 H 0.4037(4) 0.2419(9) 0.9545(1)
Cl3? Cl 1.0858(8) 0.5513(16) 0.5141(2)
H35? H 1.3810(9) 1.1484(24) 0.5568(3)
loop_
_geom_bond_atom_site_label_1
_geom_bond_atom_site_label_2
_geom_bond_site_symmetry_1
_geom_bond_site_symmetry_2
Cl1 C12 1_555 1_555
Cl2 C14 1_555 1_555
O1 C1 1_555 1_555
O2 C1 1_555 1_555
O3 C2 1_555 1_555
O4 C18 1_555 1_555
O5 C18 1_555 1_555
C1 C2 1_555 1_555
C2 C3 1_555 1_555
C3 C4 1_555 1_555
C4 O1 1_555 1_555
C5 C4 1_555 1_555
C6 C5 1_555 1_555
C7 C6 1_555 1_555
C8 C7 1_555 1_555
C9 C8 1_555 1_555
C10 C9 1_555 1_555
C11 C10 1_555 1_555
C12 C11 1_555 1_555
C13 C12 1_555 1_555
C14 C13 1_555 1_555
C15 C14 1_555 1_555
C16 C11 1_555 1_555
C17 C2 1_555 1_555
C18 C17 1_555 1_555
H1 O3 1_555 1_555
H2 C3 1_555 1_555
H3 C3 1_555 1_555
H4 C4 1_555 1_555
H5 C5 1_555 1_555
H6 C5 1_555 1_555
H7 C6 1_555 1_555
H8 C6 1_555 1_555
H9 C7 1_555 1_555
H10 C7 1_555 1_555
H11 C8 1_555 1_555
H12 C8 1_555 1_555
H13 C9 1_555 1_555
H14 C9 1_555 1_555
H15 C10 1_555 1_555
H16 C10 1_555 1_555
H17 C13 1_555 1_555
H18 C15 1_555 1_555
H19 C16 1_555 1_555
H20 C17 1_555 1_555
H21 C17 1_555 1_555
O6 N1 1_555 1_555
O7 N1 1_555 1_555
O8 C25 1_555 1_555
O9 C27 1_555 1_555
N1 C21 1_555 1_555
N2 C26 1_555 1_555
C19 C20 1_555 1_555
C20 C21 1_555 1_555
C21 C22 1_555 1_555
C22 C23 1_555 1_555
C23 C24 1_555 1_555
C24 C19 1_555 1_555
C25 C24 1_555 1_555
C26 C25 1_555 1_555
C27 C26 1_555 1_555
H22 O8 1_555 1_555
H23 O9 1_555 1_555
H24 N2 1_555 1_555
H25 N2 1_555 1_555
H26 N2 1_555 1_555
H27 C19 1_555 1_555
H28 C20 1_555 1_555
H29 C22 1_555 1_555
H30 C23 1_555 1_555
H31 C25 1_555 1_555
H32 C26 1_555 1_555
H33 C27 1_555 1_555
H34 C27 1_555 1_555
C15 C16 1_555 1_555

#END
