
#######################################################################
#
#                 Cambridge Crystallographic Data Centre
#                                CCDC 
#
#######################################################################
#
# If this CIF has been generated from an entry in the Cambridge 
# Structural Database, then it will include bibliographic, chemical, 
# crystal, experimental, refinement or atomic coordinate data resulting 
# from the CCDC's data processing and validation procedures.
#
#######################################################################

data_JAQXEH
_chemical_formula_moiety         'C37 H44 O14'
_chemical_name_systematic        
'2,3,4,6,13a-pentaacetoxy-2,9,9,12-tetramethyl-5-methylene-8,13-dioxo-2,3,3a,4,5,6,7,8,9,12,13,13a-dodecahydro-1H-cyclopenta[12]annulen-7-yl benzoate'
_symmetry_cell_setting           monoclinic
_symmetry_space_group_name_H-M   'P 21'
_symmetry_Int_Tables_number      4
_space_group_name_Hall           'P 2yb'
loop_
_symmetry_equiv_pos_site_id
_symmetry_equiv_pos_as_xyz
1 x,y,z
2 -x,1/2+y,-z
_cell_length_a                   10.3325(2)
_cell_length_b                   11.2728(2)
_cell_length_c                   16.5382(11)
_cell_angle_alpha                90
_cell_angle_beta                 94.107(7)
_cell_angle_gamma                90
_cell_volume                     1921.36
_exptl_crystal_colour            colorless
_exptl_crystal_description       tab
_cell_formula_units_Z            2
loop_
_atom_site_label
_atom_site_type_symbol
_atom_site_fract_x
_atom_site_fract_y
_atom_site_fract_z
O1 O 0.2796(2) 0.1040(2) 0.15656(14)
O2 O 0.6881(2) 0.2026(2) 0.21179(14)
O3 O 0.2048(2) 0.6048(2) 0.36339(13)
O4 O 0.4534(2) 0.0399(2) 0.31520(14)
O5 O 0.2449(2) 0.1852(2) 0.31669(14)
O6 O 0.4485(2) 0.5751(2) 0.33261(15)
O7 O 0.5119(3) 0.2735(3) 0.05891(16)
O8 O 0.0558(3) 0.2433(4) 0.2556(2)
O9 O 0.6090(3) 0.4752(4) 0.2803(3)
O10 O 0.2273(4) 0.7601(3) 0.24433(18)
O11 O 0.2950(3) 0.0347(3) 0.03056(18)
O12 O 0.5113(4) 0.0799(4) 0.44471(18)
O13 O -0.0016(3) 0.6429(3) 0.32028(19)
O14 O 0.7965(3) 0.1220(3) 0.11152(19)
C1 C 0.5168(3) 0.0681(4) 0.1531(2)
H1 H 0.4831 -0.0118 0.1572
H2 H 0.5598 0.0745 0.1030
C2 C 0.6123(3) 0.0957(3) 0.2260(2)
C3 C 0.5218(3) 0.1436(3) 0.2877(2)
H3 H 0.5692 0.1856 0.3326
C4 C 0.4307(3) 0.2255(3) 0.23696(18)
H4 H 0.4837 0.2945 0.2249
C5 C 0.3122(3) 0.2767(3) 0.27524(19)
H5 H 0.2528 0.3085 0.2317
C6 C 0.3491(3) 0.3764(3) 0.33356(19)
C7 C 0.3572(3) 0.4952(3) 0.29133(19)
H6 H 0.3841 0.4816 0.2365
C8 C 0.2259(3) 0.5582(3) 0.28488(19)
H7 H 0.1576 0.5005 0.2693
C9 C 0.2223(3) 0.6581(4) 0.2223(2)
C10 C 0.2103(4) 0.6274(4) 0.1314(2)
C11 C 0.2111(4) 0.4978(3) 0.1133(2)
H8 H 0.1443 0.4533 0.1329
C12 C 0.2961(4) 0.4390(4) 0.0726(2)
H9 H 0.3683 0.4805 0.0575
C13 C 0.2854(4) 0.3115(3) 0.0492(2)
H10 H 0.2090 0.2763 0.0715
C14 C 0.4083(3) 0.2475(3) 0.0833(2)
C15 C 0.4061(3) 0.1590(3) 0.15417(19)
C16 C 0.6985(4) -0.0062(4) 0.2560(3)
H11 H 0.7566 -0.0264 0.2153
H12 H 0.6458 -0.0737 0.2667
H13 H 0.7478 0.0169 0.3048
C17 C 0.7685(3) 0.2066(5) 0.1503(2)
C18 C 0.8140(5) 0.3305(5) 0.1393(3)
H14 H 0.8154 0.3718 0.1902
H15 H 0.7561 0.3703 0.1002
H16 H 0.8997 0.3293 0.1205
C19 C 0.4560(4) 0.0175(4) 0.3942(2)
C20 C 0.3823(5) -0.0929(5) 0.4115(3)
H17 H 0.4395 -0.1486 0.4396
H18 H 0.3477 -0.1272 0.3613
H19 H 0.3125 -0.0736 0.4445
C21 C 0.1158(4) 0.1770(4) 0.2997(3)
C22 C 0.0618(5) 0.0728(6) 0.3428(4)
H20 H -0.0305 0.0813 0.3438
H21 H 0.1003 0.0694 0.3973
H22 H 0.0811 0.0010 0.3148
C23 C 0.3679(4) 0.3634(4) 0.4123(2)
H23 H 0.3586 0.2890 0.4356
H24 H 0.3905 0.4285 0.4449
C24 C 0.5743(4) 0.5548(5) 0.3216(3)
C25 C 0.6598(4) 0.6394(6) 0.3687(4)
H25 H 0.6982 0.6007 0.4162
H26 H 0.6096 0.7061 0.3845
H27 H 0.7269 0.6663 0.3359
C26 C 0.0876(3) 0.6539(4) 0.3712(2)
C27 C 0.0832(3) 0.7234(3) 0.4469(2)
C28 C -0.0232(4) 0.7968(4) 0.4548(3)
H28 H -0.0906 0.7987 0.4144
C29 C -0.0282(5) 0.8673(4) 0.5234(4)
H29 H -0.0990 0.9170 0.5286
C30 C 0.0706(5) 0.8642(5) 0.5837(3)
H30 H 0.0669 0.9116 0.6296
C31 C 0.1746(5) 0.7908(5) 0.5757(3)
H31 H 0.2412 0.7882 0.6166
C32 C 0.1821(4) 0.7204(4) 0.5077(2)
H32 H 0.2535 0.6713 0.5028
C33 C 0.0744(6) 0.6743(5) 0.0995(4)
H33 H 0.0658 0.7559 0.1150
H34 H 0.0081 0.6280 0.1223
H35 H 0.0656 0.6681 0.0414
C34 C 0.3176(6) 0.6950(5) 0.0929(3)
H36 H 0.3071 0.7785 0.1018
H37 H 0.3129 0.6793 0.0357
H38 H 0.4004 0.6698 0.1169
C35 C 0.2745(5) 0.3000(5) -0.0441(2)
H39 H 0.2572 0.2188 -0.0589
H40 H 0.3544 0.3247 -0.0651
H41 H 0.2050 0.3492 -0.0663
C36 C 0.2334(4) 0.0460(4) 0.0888(3)
C37 C 0.0987(4) 0.0041(5) 0.0976(3)
H42 H 0.0426 0.0712 0.1026
H43 H 0.0971 -0.0446 0.1451
H44 H 0.0694 -0.0413 0.0507
loop_
_geom_bond_atom_site_label_1
_geom_bond_atom_site_label_2
_geom_bond_site_symmetry_1
_geom_bond_site_symmetry_2
O1 C15 1_555 1_555
O2 C2 1_555 1_555
O3 C8 1_555 1_555
O4 C3 1_555 1_555
O5 C5 1_555 1_555
O6 C7 1_555 1_555
O7 C14 1_555 1_555
O8 C21 1_555 1_555
O9 C24 1_555 1_555
O10 C9 1_555 1_555
O11 C36 1_555 1_555
O12 C19 1_555 1_555
O13 C26 1_555 1_555
O14 C17 1_555 1_555
C1 H1 1_555 1_555
H2 C1 1_555 1_555
C2 C1 1_555 1_555
C3 C2 1_555 1_555
H3 C3 1_555 1_555
C4 C3 1_555 1_555
H4 C4 1_555 1_555
C5 C4 1_555 1_555
H5 C5 1_555 1_555
C6 C5 1_555 1_555
C7 C6 1_555 1_555
H6 C7 1_555 1_555
C8 C7 1_555 1_555
H7 C8 1_555 1_555
C9 C8 1_555 1_555
C10 C9 1_555 1_555
C11 C10 1_555 1_555
H8 C11 1_555 1_555
C12 C11 1_555 1_555
H9 C12 1_555 1_555
C13 C12 1_555 1_555
H10 C13 1_555 1_555
C14 C13 1_555 1_555
C15 C1 1_555 1_555
C16 C2 1_555 1_555
H11 C16 1_555 1_555
H12 C16 1_555 1_555
H13 C16 1_555 1_555
C17 O2 1_555 1_555
C18 C17 1_555 1_555
H14 C18 1_555 1_555
H15 C18 1_555 1_555
H16 C18 1_555 1_555
C19 O4 1_555 1_555
C20 C19 1_555 1_555
H17 C20 1_555 1_555
H18 C20 1_555 1_555
H19 C20 1_555 1_555
C21 O5 1_555 1_555
C22 C21 1_555 1_555
H20 C22 1_555 1_555
H21 C22 1_555 1_555
H22 C22 1_555 1_555
C23 C6 1_555 1_555
H23 C23 1_555 1_555
H24 C23 1_555 1_555
C24 O6 1_555 1_555
C25 C24 1_555 1_555
H25 C25 1_555 1_555
H26 C25 1_555 1_555
H27 C25 1_555 1_555
C26 O3 1_555 1_555
C27 C26 1_555 1_555
C28 C27 1_555 1_555
H28 C28 1_555 1_555
C29 C28 1_555 1_555
H29 C29 1_555 1_555
C30 C29 1_555 1_555
H30 C30 1_555 1_555
C31 C30 1_555 1_555
H31 C31 1_555 1_555
C32 C27 1_555 1_555
H32 C32 1_555 1_555
C33 C10 1_555 1_555
H33 C33 1_555 1_555
H34 C33 1_555 1_555
H35 C33 1_555 1_555
C34 C10 1_555 1_555
H36 C34 1_555 1_555
H37 C34 1_555 1_555
H38 C34 1_555 1_555
C35 C13 1_555 1_555
H39 C35 1_555 1_555
H40 C35 1_555 1_555
H41 C35 1_555 1_555
C36 O1 1_555 1_555
C37 C36 1_555 1_555
H42 C37 1_555 1_555
H43 C37 1_555 1_555
H44 C37 1_555 1_555
C4 C15 1_555 1_555
C14 C15 1_555 1_555
C31 C32 1_555 1_555

#END
