
#######################################################################
#
#                 Cambridge Crystallographic Data Centre
#                                CCDC 
#
#######################################################################
#
# If this CIF has been generated from an entry in the Cambridge 
# Structural Database, then it will include bibliographic, chemical, 
# crystal, experimental, refinement or atomic coordinate data resulting 
# from the CCDC's data processing and validation procedures.
#
#######################################################################

data_JAQXAD
_chemical_formula_moiety         'C35 H46 O14'
_chemical_name_systematic        
'2,3,4,6,13a-pentaacetoxy-2,9,9,12-tetramethyl-5-methylene-8,13-dioxo-2,3,3a,4,5,6,7,8,9,12,13,13a-dodecahydro-1H-cyclopenta[12]annulen-7-yl 2-methylbut-2-enoate'
_symmetry_cell_setting           orthorhombic
_symmetry_space_group_name_H-M   'P 21 21 21'
_symmetry_Int_Tables_number      19
_space_group_name_Hall           'P 2ac 2ab'
loop_
_symmetry_equiv_pos_site_id
_symmetry_equiv_pos_as_xyz
1 x,y,z
2 1/2+x,1/2-y,-z
3 -x,1/2+y,1/2-z
4 1/2-x,-y,1/2+z
_cell_length_a                   14.7924(5)
_cell_length_b                   14.9823(5)
_cell_length_c                   34.252(2)
_cell_angle_alpha                90
_cell_angle_beta                 90
_cell_angle_gamma                90
_cell_volume                     7591.07
_exptl_crystal_colour            colorless
_exptl_crystal_description       prism
_cell_formula_units_Z            8
loop_
_atom_site_label
_atom_site_type_symbol
_atom_site_fract_x
_atom_site_fract_y
_atom_site_fract_z
O1 O 0.8522(6) -0.1536(5) -0.06069(19)
O2 O 0.7938(6) -0.2921(6) -0.0535(2)
O3 O 1.0105(5) -0.1135(4) 0.0464(2)
O4 O 0.9627(7) -0.2371(6) 0.0777(2)
O5 O 0.7800(6) -0.1602(5) 0.0230(2)
O6 O 0.7365(5) 0.3074(5) 0.0414(2)
O7 O 0.9070(4) 0.2973(4) 0.01513(18)
O8 O 0.9344(6) 0.3357(5) 0.0780(3)
O9 O 0.8066(5) 0.1943(4) -0.0347(2)
O10 O 1.0812(5) 0.0373(4) 0.0066(2)
O11 O 1.0774(6) 0.1291(7) 0.0576(3)
O12 O 1.0844(5) -0.1062(5) -0.0403(2)
O13 O 1.1261(6) -0.0200(6) -0.0905(3)
C1 C 0.9475(8) -0.2114(7) -0.0066(3)
H1 H 0.8975 -0.2536 -0.0015
H2 H 1.0055 -0.2416 -0.0009
C2 C 0.9452(8) -0.1796(6) -0.0492(3)
C3 C 0.9895(7) -0.0885(7) -0.0473(3)
H3 H 0.9787 -0.0517 -0.0712
C4 C 0.9458(7) -0.0486(6) -0.0104(3)
H4 H 0.8821 -0.0354 -0.0184
C5 C 0.9821(8) 0.0417(6) 0.0056(3)
H5 H 0.9599 0.0488 0.0330
C6 C 0.9488(8) 0.1196(7) -0.0177(3)
C7 C 0.8567(7) 0.1507(7) -0.0040(3)
H6 H 0.8216 0.0976 0.0050
C8 C 0.8652(7) 0.2154(6) 0.0297(3)
H7 H 0.9056 0.1886 0.0499
C9 C 0.7744(7) 0.2373(8) 0.0484(3)
C10 C 0.7327(7) 0.1703(7) 0.0762(3)
C11 C 0.7905(7) 0.0869(7) 0.0825(3)
H8 H 0.8450 0.0937 0.0969
C12 C 0.7702(7) 0.0036(7) 0.0691(3)
H9 H 0.7174 -0.0042 0.0537
C13 C 0.8280(7) -0.0764(6) 0.0779(3)
H10 H 0.8876 -0.0572 0.0888
C14 C 0.8418(9) -0.1266(6) 0.0387(3)
C15 C 0.9372(8) -0.1272(7) 0.0184(3)
C16 C 0.9829(8) -0.2424(7) -0.0798(3)
H11 H 0.9812 -0.2134 -0.1055
H12 H 0.9465 -0.2970 -0.0806
H13 H 1.0456 -0.2576 -0.0733
C17 C 0.9936(8) 0.1540(7) -0.0474(3)
H14 H 1.0501 0.1293 -0.0550
H15 H 0.9694 0.2036 -0.0612
C18 C 0.7213(9) 0.2166(8) 0.1156(3)
H16 H 0.7808 0.2272 0.1272
H17 H 0.6855 0.1785 0.1330
H18 H 0.6902 0.2737 0.1118
C19 C 0.6380(8) 0.1453(8) 0.0600(4)
H19 H 0.6016 0.1995 0.0570
H20 H 0.6078 0.1045 0.0782
H21 H 0.6448 0.1161 0.0346
C20 C 0.7790(9) -0.1393(8) 0.1067(3)
H22 H 0.7676 -0.1075 0.1313
H23 H 0.8170 -0.1916 0.1119
H24 H 0.7215 -0.1586 0.0954
C21 C 1.0139(10) -0.1752(10) 0.0752(4)
C22 C 1.0844(10) -0.1513(9) 0.1034(4)
H25 H 1.0698 -0.0936 0.1153
H26 H 1.1428 -0.1471 0.0900
H27 H 1.0878 -0.1972 0.1237
C23 C 1.1456(10) -0.0679(10) -0.0637(4)
C24 C 1.2387(8) -0.0938(10) -0.0531(4)
H28 H 1.2632 -0.1339 -0.0730
H29 H 1.2381 -0.1244 -0.0278
H30 H 1.2766 -0.0403 -0.0513
C25 C 0.7838(9) -0.2134(10) -0.0585(4)
C26 C 0.6970(9) -0.1641(8) -0.0637(4)
H31 H 0.6866 -0.1534 -0.0916
H32 H 0.7002 -0.1069 -0.0500
H33 H 0.6472 -0.1997 -0.0531
C27 C 0.7457(8) 0.1400(9) -0.0533(3)
O14 O 0.7382(7) 0.0620(6) -0.0441(3)
C28 C 0.6946(8) 0.1877(8) -0.0842(3)
H34 H 0.6545 0.1457 -0.0976
H35 H 0.7371 0.2136 -0.1030
H36 H 0.6585 0.2354 -0.0723
C29 C 1.1182(10) 0.0834(9) 0.0362(4)
C30 C 1.2179(9) 0.0659(9) 0.0366(4)
H37 H 1.2493 0.1143 0.0230
H38 H 1.2303 0.0091 0.0235
H39 H 1.2392 0.0628 0.0637
C31 C 0.9366(8) 0.3555(8) 0.0434(4)
C32 C 0.9651(8) 0.4394(8) 0.0278(4)
C33 C 0.9997(9) 0.5060(8) 0.0584(4)
H40 H 1.0077 0.5647 0.0462
H41 H 1.0577 0.4852 0.0688
H42 H 0.9557 0.5106 0.0797
C34 C 0.9590(8) 0.4558(8) -0.0101(5)
H43 H 0.9386 0.4092 -0.0267
C35 C 0.9833(12) 0.5474(9) -0.0290(5)
H44 H 0.9276 0.5800 -0.0351
H45 H 1.0175 0.5373 -0.0531
H46 H 1.0200 0.5825 -0.0108
O15 O 0.6246(5) -0.2177(6) 0.34384(19)
O16 O 0.4875(8) -0.2844(6) 0.3446(3)
O17 O 0.6659(6) 0.0036(6) 0.3085(2)
O18 O 0.8018(5) -0.0136(5) 0.2559(2)
O19 O 0.8474(7) -0.0324(6) 0.1948(2)
O20 O 1.0680(6) -0.1728(5) 0.2494(2)
O21 O 1.0914(7) -0.1039(7) 0.1928(3)
O22 O 1.0843(7) -0.3155(6) 0.2051(3)
O23 O 0.9744(5) -0.2754(5) 0.29891(19)
O24 O 0.8425(7) -0.3240(5) 0.3222(2)
O25 O 0.6103(6) -0.3144(6) 0.2619(3)
O26 O 0.6326(6) -0.0912(5) 0.2268(2)
O27 O 0.7678(9) 0.0502(8) 0.3531(3)
O28 O 0.5052(7) -0.1498(9) 0.2033(3)
C36 C 0.5534(7) -0.1446(9) 0.2869(3)
H47 H 0.5175 -0.0915 0.2794
H48 H 0.5127 -0.1970 0.2870
C37 C 0.5924(9) -0.1310(8) 0.3274(3)
C38 C 0.6858(8) -0.0883(8) 0.3184(3)
H49 H 0.7284 -0.0931 0.3410
C39 C 0.7186(7) -0.1418(7) 0.2827(3)
H50 H 0.7343 -0.2018 0.2936
C40 C 0.8054(8) -0.1104(7) 0.2626(3)
H51 H 0.8081 -0.1401 0.2365
C41 C 0.8878(7) -0.1374(7) 0.2846(3)
C42 C 0.9232(7) -0.2244(7) 0.2701(3)
H52 H 0.8705 -0.2615 0.2617
C43 C 0.9840(8) -0.2101(7) 0.2347(3)
H53 H 0.9548 -0.1656 0.2169
C44 C 1.0050(11) -0.2946(8) 0.2115(3)
C45 C 0.9289(10) -0.3517(8) 0.1953(3)
C46 C 0.8432(11) -0.2985(8) 0.1906(3)
H54 H 0.8455 -0.2448 0.1759
C47 C 0.7638(11) -0.3230(8) 0.2062(3)
H55 H 0.7630 -0.3751 0.2220
C48 C 0.6754(10) -0.2738(10) 0.2004(4)
H56 H 0.6855 -0.2167 0.1859
C49 C 0.6358(8) -0.2550(11) 0.2414(3)
C50 C 0.6307(8) -0.1593(8) 0.2570(3)
C51 C 0.5341(8) -0.0829(9) 0.3559(3)
H57 H 0.4815 -0.1199 0.3623
H58 H 0.5138 -0.0265 0.3444
H59 H 0.5687 -0.0707 0.3797
C52 C 0.9200(8) -0.0940(8) 0.3147(3)
H60 H 0.8903 -0.0417 0.3238
H61 H 0.9730 -0.1147 0.3275
C53 C 0.9562(9) -0.3830(8) 0.1539(3)
H62 H 0.9530 -0.3325 0.1358
H63 H 0.9149 -0.4301 0.1452
H64 H 1.0181 -0.4063 0.1545
C54 C 0.9222(8) -0.4312(7) 0.2230(3)
H65 H 0.9817 -0.4594 0.2256
H66 H 0.8789 -0.4747 0.2126
H67 H 0.9016 -0.4106 0.2487
C55 C 0.6066(10) -0.3353(10) 0.1778(4)
H68 H 0.6290 -0.3461 0.1513
H69 H 0.5476 -0.3057 0.1765
H70 H 0.6004 -0.3923 0.1916
C56 C 0.5611(13) -0.0953(12) 0.2005(5)
C57 C 0.5721(11) -0.0219(12) 0.1718(4)
H71 H 0.5351 -0.0342 0.1487
H72 H 0.6358 -0.0175 0.1642
H73 H 0.5528 0.0345 0.1837
C58 C 0.5687(12) -0.2865(10) 0.3501(4)
C59 C 0.6153(9) -0.3646(9) 0.3657(4)
H74 H 0.5707 -0.4077 0.3753
H75 H 0.6549 -0.3463 0.3872
H76 H 0.6515 -0.3921 0.3450
C60 C 0.7133(14) 0.0690(12) 0.3288(6)
C61 C 0.6800(12) 0.1613(9) 0.3159(5)
H77 H 0.6526 0.1921 0.3381
H78 H 0.6349 0.1543 0.2951
H79 H 0.7311 0.1963 0.3061
C62 C 0.8200(9) 0.0162(8) 0.2202(4)
C63 C 0.8030(9) 0.1120(8) 0.2161(4)
H80 H 0.8290 0.1333 0.1915
H81 H 0.8309 0.1438 0.2380
H82 H 0.7376 0.1229 0.2162
C64 C 1.1184(10) -0.1253(8) 0.2240(4)
C65 C 1.2104(10) -0.1047(9) 0.2397(5)
C66 C 1.2688(10) -0.0516(10) 0.2125(5)
H83 H 1.3011 -0.0055 0.2272
H84 H 1.2309 -0.0233 0.1925
H85 H 1.3126 -0.0913 0.1998
C67 C 1.2301(10) -0.1315(10) 0.2754(6)
H86 H 1.1854 -0.1654 0.2887
C68 C 1.3193(10) -0.1129(12) 0.2975(6)
H87 H 1.3311 -0.1616 0.3159
H88 H 1.3140 -0.0565 0.3119
H89 H 1.3692 -0.1088 0.2788
C69 C 0.9233(12) -0.3234(9) 0.3245(4)
C70 C 0.9817(10) -0.3759(10) 0.3525(4)
H90 H 0.9435 -0.4041 0.3724
H91 H 1.0249 -0.3357 0.3652
H92 H 1.0147 -0.4221 0.3381
loop_
_geom_bond_atom_site_label_1
_geom_bond_atom_site_label_2
_geom_bond_site_symmetry_1
_geom_bond_site_symmetry_2
O1 C2 1_555 1_555
O2 C25 1_555 1_555
O3 C15 1_555 1_555
O4 C21 1_555 1_555
O5 C14 1_555 1_555
O6 C9 1_555 1_555
O7 C8 1_555 1_555
O8 C31 1_555 1_555
O9 C7 1_555 1_555
O10 C5 1_555 1_555
O11 C29 1_555 1_555
O12 C3 1_555 1_555
O13 C23 1_555 1_555
C1 H1 1_555 1_555
H2 C1 1_555 1_555
C2 C1 1_555 1_555
C3 C2 1_555 1_555
H3 C3 1_555 1_555
C4 C3 1_555 1_555
H4 C4 1_555 1_555
C5 C4 1_555 1_555
H5 C5 1_555 1_555
C6 C5 1_555 1_555
C7 C6 1_555 1_555
H6 C7 1_555 1_555
C8 C7 1_555 1_555
H7 C8 1_555 1_555
C9 C8 1_555 1_555
C10 C9 1_555 1_555
C11 C10 1_555 1_555
H8 C11 1_555 1_555
C12 C11 1_555 1_555
H9 C12 1_555 1_555
C13 C12 1_555 1_555
H10 C13 1_555 1_555
C14 C13 1_555 1_555
C15 C1 1_555 1_555
C16 C2 1_555 1_555
H11 C16 1_555 1_555
H12 C16 1_555 1_555
H13 C16 1_555 1_555
C17 C6 1_555 1_555
H14 C17 1_555 1_555
H15 C17 1_555 1_555
C18 C10 1_555 1_555
H16 C18 1_555 1_555
H17 C18 1_555 1_555
H18 C18 1_555 1_555
C19 C10 1_555 1_555
H19 C19 1_555 1_555
H20 C19 1_555 1_555
H21 C19 1_555 1_555
C20 C13 1_555 1_555
H22 C20 1_555 1_555
H23 C20 1_555 1_555
H24 C20 1_555 1_555
C21 O3 1_555 1_555
C22 C21 1_555 1_555
H25 C22 1_555 1_555
H26 C22 1_555 1_555
H27 C22 1_555 1_555
C23 O12 1_555 1_555
C24 C23 1_555 1_555
H28 C24 1_555 1_555
H29 C24 1_555 1_555
H30 C24 1_555 1_555
C25 O1 1_555 1_555
C26 C25 1_555 1_555
H31 C26 1_555 1_555
H32 C26 1_555 1_555
H33 C26 1_555 1_555
C27 O9 1_555 1_555
O14 C27 1_555 1_555
C28 C27 1_555 1_555
H34 C28 1_555 1_555
H35 C28 1_555 1_555
H36 C28 1_555 1_555
C29 O10 1_555 1_555
C30 C29 1_555 1_555
H37 C30 1_555 1_555
H38 C30 1_555 1_555
H39 C30 1_555 1_555
C31 O7 1_555 1_555
C32 C31 1_555 1_555
C33 C32 1_555 1_555
H40 C33 1_555 1_555
H41 C33 1_555 1_555
H42 C33 1_555 1_555
C34 C32 1_555 1_555
H43 C34 1_555 1_555
C35 C34 1_555 1_555
H44 C35 1_555 1_555
H45 C35 1_555 1_555
H46 C35 1_555 1_555
O15 C37 1_555 1_555
O16 C58 1_555 1_555
O17 C38 1_555 1_555
O18 C40 1_555 1_555
O19 C62 1_555 1_555
O20 C43 1_555 1_555
O21 C64 1_555 1_555
O22 C44 1_555 1_555
O23 C42 1_555 1_555
O24 C69 1_555 1_555
O25 C49 1_555 1_555
O26 C50 1_555 1_555
O27 C60 1_555 1_555
O28 C56 1_555 1_555
C36 H47 1_555 1_555
H48 C36 1_555 1_555
C37 C36 1_555 1_555
C38 C37 1_555 1_555
H49 C38 1_555 1_555
C39 C38 1_555 1_555
H50 C39 1_555 1_555
C40 C39 1_555 1_555
H51 C40 1_555 1_555
C41 C40 1_555 1_555
C42 C41 1_555 1_555
H52 C42 1_555 1_555
C43 C42 1_555 1_555
H53 C43 1_555 1_555
C44 C43 1_555 1_555
C45 C44 1_555 1_555
C46 C45 1_555 1_555
H54 C46 1_555 1_555
C47 C46 1_555 1_555
H55 C47 1_555 1_555
C48 C47 1_555 1_555
H56 C48 1_555 1_555
C49 C48 1_555 1_555
C50 C36 1_555 1_555
C51 C37 1_555 1_555
H57 C51 1_555 1_555
H58 C51 1_555 1_555
H59 C51 1_555 1_555
C52 C41 1_555 1_555
H60 C52 1_555 1_555
H61 C52 1_555 1_555
C53 C45 1_555 1_555
H62 C53 1_555 1_555
H63 C53 1_555 1_555
H64 C53 1_555 1_555
C54 C45 1_555 1_555
H65 C54 1_555 1_555
H66 C54 1_555 1_555
H67 C54 1_555 1_555
C55 C48 1_555 1_555
H68 C55 1_555 1_555
H69 C55 1_555 1_555
H70 C55 1_555 1_555
C56 O26 1_555 1_555
C57 C56 1_555 1_555
H71 C57 1_555 1_555
H72 C57 1_555 1_555
H73 C57 1_555 1_555
C58 O15 1_555 1_555
C59 C58 1_555 1_555
H74 C59 1_555 1_555
H75 C59 1_555 1_555
H76 C59 1_555 1_555
C60 O17 1_555 1_555
C61 C60 1_555 1_555
H77 C61 1_555 1_555
H78 C61 1_555 1_555
H79 C61 1_555 1_555
C62 O18 1_555 1_555
C63 C62 1_555 1_555
H80 C63 1_555 1_555
H81 C63 1_555 1_555
H82 C63 1_555 1_555
C64 O20 1_555 1_555
C65 C64 1_555 1_555
C66 C65 1_555 1_555
H83 C66 1_555 1_555
H84 C66 1_555 1_555
H85 C66 1_555 1_555
C67 C65 1_555 1_555
H86 C67 1_555 1_555
C68 C67 1_555 1_555
H87 C68 1_555 1_555
H88 C68 1_555 1_555
H89 C68 1_555 1_555
C69 O23 1_555 1_555
C70 C69 1_555 1_555
H90 C70 1_555 1_555
H91 C70 1_555 1_555
H92 C70 1_555 1_555
C4 C15 1_555 1_555
C14 C15 1_555 1_555
C39 C50 1_555 1_555
C49 C50 1_555 1_555

#END
