
#######################################################################
#
#                 Cambridge Crystallographic Data Centre
#                                CCDC 
#
#######################################################################
#
# If this CIF has been generated from an entry in the Cambridge 
# Structural Database, then it will include bibliographic, chemical, 
# crystal, experimental, refinement or atomic coordinate data resulting 
# from the CCDC's data processing and validation procedures.
#
#######################################################################

data_JARBIO
_chemical_formula_moiety         'C22 H18 N4 O8,C3 H7 N1 O1,H2 O1'
_chemical_name_systematic        
"N,N'-bis(p-Nitrophenyl)-2,2'-(p-phenylenedioxy)diacetamide dimethylformamide solvate monohydrate"
_symmetry_cell_setting           monoclinic
_symmetry_space_group_name_H-M   'P 21/c'
_symmetry_Int_Tables_number      14
_space_group_name_Hall           '-P 2ybc'
loop_
_symmetry_equiv_pos_site_id
_symmetry_equiv_pos_as_xyz
1 x,y,z
2 -x,1/2+y,1/2-z
3 -x,-y,-z
4 x,1/2-y,1/2+z
_cell_length_a                   7.2812(4)
_cell_length_b                   25.5894(13)
_cell_length_c                   14.3434(7)
_cell_angle_alpha                90.00
_cell_angle_beta                 91.1100(10)
_cell_angle_gamma                90.00
_cell_volume                     2671.98
_cell_formula_units_Z            4
_exptl_crystal_recrystallization_method dimethylformamide/ethanol
loop_
_atom_site_label
_atom_site_type_symbol
_atom_site_fract_x
_atom_site_fract_y
_atom_site_fract_z
O1 O -0.0942(3) 0.87635(7) 0.30739(14)
O2 O -0.0109(3) 0.90345(6) 0.44254(14)
O3 O 0.2405(3) 0.67053(6) 0.63752(11)
O4 O 0.20992(19) 0.56071(5) 0.48922(9)
O5 O 0.3218(2) 0.34725(5) 0.47620(9)
O6 O 0.3115(2) 0.23135(6) 0.34562(10)
O7 O 0.6107(3) 0.01502(6) 0.58754(14)
O8 O 0.6432(4) 0.04897(7) 0.72014(14)
N1 N -0.0341(3) 0.86858(7) 0.38534(16)
N2 N 0.1585(2) 0.66350(6) 0.48502(13)
N3 N 0.3912(2) 0.24804(6) 0.49708(12)
N4 N 0.6033(3) 0.05211(7) 0.63921(15)
C1 C 0.0137(3) 0.81531(7) 0.41267(15)
C2 C -0.0036(3) 0.77568(9) 0.34853(17)
C3 C 0.0455(3) 0.72589(9) 0.37426(16)
C4 C 0.1110(3) 0.71545(7) 0.46353(14)
C5 C 0.1256(3) 0.75600(8) 0.52761(15)
C6 C 0.0768(3) 0.80589(8) 0.50149(16)
C7 C 0.2144(3) 0.64415(8) 0.56802(15)
C8 C 0.2457(3) 0.58625(8) 0.57500(15)
C9 C 0.2378(2) 0.50721(7) 0.48874(13)
C10 C 0.2929(3) 0.47876(8) 0.56588(16)
C11 C 0.3178(3) 0.42553(8) 0.55915(15)
C12 C 0.2884(3) 0.40035(7) 0.47524(14)
C13 C 0.2333(3) 0.42851(8) 0.39795(15)
C14 C 0.2082(3) 0.48195(8) 0.40566(15)
C15 C 0.2904(4) 0.31851(8) 0.39414(15)
C16 C 0.3335(3) 0.26180(8) 0.41051(14)
C17 C 0.4418(3) 0.19812(7) 0.52902(13)
C18 C 0.5078(3) 0.19390(8) 0.62022(14)
C19 C 0.5616(3) 0.14651(8) 0.65616(16)
C20 C 0.5478(3) 0.10281(7) 0.60105(14)
C21 C 0.4828(3) 0.10572(8) 0.51084(16)
C22 C 0.4299(3) 0.15332(8) 0.47442(16)
H7 H 0.518(3) 0.2260(8) 0.6572(13)
H8 H 0.400(2) 0.2718(7) 0.5374(13)
H9 H 0.370(3) 0.5796(7) 0.5961(13)
H10 H 0.161(3) 0.3193(7) 0.3773(13)
H11 H 0.315(3) 0.4940(8) 0.6207(14)
H12 H 0.036(3) 0.6986(9) 0.3286(16)
H13 H 0.089(3) 0.8340(9) 0.5425(15)
H14 H 0.146(3) 0.6412(8) 0.4418(15)
H15 H 0.163(3) 0.5732(8) 0.6236(15)
H16 H -0.046(3) 0.7823(8) 0.2871(16)
H17 H 0.211(3) 0.4129(7) 0.3417(14)
H18 H 0.374(3) 0.3293(8) 0.3477(15)
H19 H 0.168(3) 0.5011(8) 0.3524(14)
H21 H 0.170(3) 0.7513(8) 0.5861(15)
H22 H 0.607(3) 0.1444(7) 0.7131(14)
H23 H 0.357(3) 0.4034(8) 0.6101(14)
H24 H 0.379(3) 0.1555(9) 0.4144(16)
H25 H 0.465(3) 0.0738(9) 0.4763(15)
O9 O -0.2424(3) 1.12725(7) 0.22308(14)
N5 N -0.1043(3) 1.06503(7) 0.30998(13)
C23 C -0.2476(4) 1.08901(11) 0.27334(19)
C24 C 0.0765(5) 1.08435(14) 0.2951(3)
H1 H 0.0697 1.1155 0.2579
H2 H 0.1468 1.0584 0.2633
H3 H 0.1347 1.0922 0.3541
C25 C -0.1207(5) 1.01813(11) 0.3652(2)
H4 H -0.2480 1.0090 0.3700
H5 H -0.0692 1.0241 0.4264
H6 H -0.0558 0.9901 0.3358
H26 H -0.370(4) 1.0680(10) 0.2890(18)
O10 O -0.5640(3) 1.18415(7) 0.17896(13)
H20 H -0.600(5) 1.1990(14) 0.235(3)
H27 H -0.480(5) 1.1639(14) 0.203(2)
loop_
_geom_bond_atom_site_label_1
_geom_bond_atom_site_label_2
_geom_bond_site_symmetry_1
_geom_bond_site_symmetry_2
O1 N1 1_555 1_555
O2 N1 1_555 1_555
O3 C7 1_555 1_555
O4 C8 1_555 1_555
O5 C12 1_555 1_555
O6 C16 1_555 1_555
O7 N4 1_555 1_555
O8 N4 1_555 1_555
O9 C23 1_555 1_555
N1 C1 1_555 1_555
N2 C4 1_555 1_555
N3 C16 1_555 1_555
N4 C20 1_555 1_555
N5 C23 1_555 1_555
C1 C2 1_555 1_555
C2 C3 1_555 1_555
C3 C4 1_555 1_555
C4 C5 1_555 1_555
C5 C6 1_555 1_555
C6 C1 1_555 1_555
C7 N2 1_555 1_555
C8 C7 1_555 1_555
C9 O4 1_555 1_555
C10 C9 1_555 1_555
C11 C10 1_555 1_555
C12 C11 1_555 1_555
C13 C12 1_555 1_555
C14 C9 1_555 1_555
C15 O5 1_555 1_555
C16 C15 1_555 1_555
C17 N3 1_555 1_555
C18 C17 1_555 1_555
C19 C18 1_555 1_555
C20 C19 1_555 1_555
C21 C20 1_555 1_555
C22 C17 1_555 1_555
C23 H26 1_555 1_555
C24 N5 1_555 1_555
H1 C24 1_555 1_555
H2 C24 1_555 1_555
H3 C24 1_555 1_555
C25 N5 1_555 1_555
H4 C25 1_555 1_555
H5 C25 1_555 1_555
H6 C25 1_555 1_555
O10 H20 1_555 1_555
H7 C18 1_555 1_555
H8 N3 1_555 1_555
H9 C8 1_555 1_555
H10 C15 1_555 1_555
H11 C10 1_555 1_555
H12 C3 1_555 1_555
H13 C6 1_555 1_555
H14 N2 1_555 1_555
H15 C8 1_555 1_555
H16 C2 1_555 1_555
H17 C13 1_555 1_555
H18 C15 1_555 1_555
H19 C14 1_555 1_555
H21 C5 1_555 1_555
H22 C19 1_555 1_555
H23 C11 1_555 1_555
H24 C22 1_555 1_555
H25 C21 1_555 1_555
H27 O10 1_555 1_555
C13 C14 1_555 1_555
C21 C22 1_555 1_555

#END
