
#######################################################################
#
#                 Cambridge Crystallographic Data Centre
#                                CCDC 
#
#######################################################################
#
# If this CIF has been generated from an entry in the Cambridge 
# Structural Database, then it will include bibliographic, chemical, 
# crystal, experimental, refinement or atomic coordinate data resulting 
# from the CCDC's data processing and validation procedures.
#
#######################################################################

data_JARBAG
_chemical_formula_moiety         'C20 H15 N3 S2'
_chemical_name_systematic        
1-(2-Benzothiazole)-3-phenyl-5-(3-thienyl)-2-pyrazoline
_symmetry_cell_setting           triclinic
_symmetry_space_group_name_H-M   'P -1'
_symmetry_Int_Tables_number      2
_space_group_name_Hall           '-P 1'
loop_
_symmetry_equiv_pos_site_id
_symmetry_equiv_pos_as_xyz
1 x,y,z
2 -x,-y,-z
_cell_length_a                   9.4430(11)
_cell_length_b                   9.9384(13)
_cell_length_c                   9.9394(13)
_cell_angle_alpha                83.107(10)
_cell_angle_beta                 79.947(10)
_cell_angle_gamma                70.221(7)
_cell_volume                     862.417
_exptl_crystal_colour            'light yellow'
_exptl_crystal_description       chunk
_chemical_melting_point          '170-171 deg.C'
_cell_formula_units_Z            2
_exptl_crystal_recrystallization_method 'ethanol/ethyl acetate'
loop_
_atom_site_label
_atom_site_type_symbol
_atom_site_fract_x
_atom_site_fract_y
_atom_site_fract_z
S1 S 0.91888(5) 0.49102(4) 0.16877(4)
S2 S 0.37504(7) 0.33747(6) 0.10315(6)
N1 N 0.76426(15) 0.33130(15) 0.32292(15)
N2 N 0.89175(15) 0.21623(14) 0.28248(14)
N3 N 0.64464(16) 0.57939(15) 0.30769(15)
C1 C 0.86953(18) 0.10121(17) 0.34386(16)
C2 C 0.72040(18) 0.13022(17) 0.43787(17)
H1 H 0.7360 0.1168 0.5352
H2 H 0.6642 0.0671 0.4217
C3 C 0.63617(18) 0.28830(17) 0.39778(17)
H3 H 0.5902 0.3436 0.4812
C4 C 0.76017(18) 0.46628(17) 0.27679(16)
C5 C 0.82042(19) 0.67463(17) 0.16341(17)
C6 C 0.8672(2) 0.78553(19) 0.09312(18)
H4 H 0.9648 0.7669 0.0397
C7 C 0.7670(2) 0.92381(19) 0.10359(18)
H5 H 0.7967 1.0015 0.0574
C8 C 0.6236(2) 0.95100(19) 0.18055(19)
H6 H 0.5561 1.0467 0.1847
C9 C 0.5779(2) 0.84073(19) 0.25118(19)
H7 H 0.4802 0.8604 0.3045
C10 C 0.67698(19) 0.70011(17) 0.24322(16)
C11 C 0.98449(19) -0.04072(17) 0.32636(17)
C12 C 1.1162(2) -0.05835(19) 0.23109(18)
H8 H 1.1327 0.0225 0.1779
C13 C 1.2229(2) -0.1931(2) 0.2139(2)
H9 H 1.3111 -0.2044 0.1476
C14 C 1.2016(2) -0.3119(2) 0.2931(2)
H10 H 1.2753 -0.4041 0.2817
C15 C 1.0728(2) -0.2948(2) 0.3882(2)
H11 H 1.0584 -0.3757 0.4428
C16 C 0.9636(2) -0.16048(19) 0.40494(19)
H12 H 0.8746 -0.1503 0.4700
C17 C 0.51705(19) 0.30474(17) 0.30773(17)
C18 C 0.5301(2) 0.33892(19) 0.16991(19)
H13 H 0.6147 0.3608 0.1175
C19 C 0.2890(2) 0.29025(19) 0.2552(2)
H14 H 0.1937 0.2744 0.2694
C20 C 0.3783(2) 0.2775(2) 0.3587(2)
H15 H 0.3490 0.2533 0.4523
loop_
_geom_bond_atom_site_label_1
_geom_bond_atom_site_label_2
_geom_bond_site_symmetry_1
_geom_bond_site_symmetry_2
S1 C4 1_555 1_555
S2 C18 1_555 1_555
N1 N2 1_555 1_555
N2 C1 1_555 1_555
N3 C4 1_555 1_555
C1 C2 1_555 1_555
C2 H1 1_555 1_555
H2 C2 1_555 1_555
C3 N1 1_555 1_555
H3 C3 1_555 1_555
C4 N1 1_555 1_555
C5 S1 1_555 1_555
C6 C5 1_555 1_555
H4 C6 1_555 1_555
C7 C6 1_555 1_555
H5 C7 1_555 1_555
C8 C7 1_555 1_555
H6 C8 1_555 1_555
C9 C8 1_555 1_555
H7 C9 1_555 1_555
C10 N3 1_555 1_555
C11 C1 1_555 1_555
C12 C11 1_555 1_555
H8 C12 1_555 1_555
C13 C12 1_555 1_555
H9 C13 1_555 1_555
C14 C13 1_555 1_555
H10 C14 1_555 1_555
C15 C14 1_555 1_555
H11 C15 1_555 1_555
C16 C11 1_555 1_555
H12 C16 1_555 1_555
C17 C3 1_555 1_555
C18 C17 1_555 1_555
H13 C18 1_555 1_555
C19 S2 1_555 1_555
H14 C19 1_555 1_555
C20 C17 1_555 1_555
H15 C20 1_555 1_555
C2 C3 1_555 1_555
C5 C10 1_555 1_555
C9 C10 1_555 1_555
C15 C16 1_555 1_555
C19 C20 1_555 1_555

#END
