
#######################################################################
#
#                 Cambridge Crystallographic Data Centre
#                                CCDC 
#
#######################################################################
#
# If this CIF has been generated from an entry in the Cambridge 
# Structural Database, then it will include bibliographic, chemical, 
# crystal, experimental, refinement or atomic coordinate data resulting 
# from the CCDC's data processing and validation procedures.
#
#######################################################################

data_JARBEK
_chemical_formula_moiety         'C20 H15 N3 S2'
_chemical_name_systematic        
1-(2-Benzothiazole)-3-(2-thienyl)-5-phenyl-2-pyrazoline
_symmetry_cell_setting           monoclinic
_symmetry_space_group_name_H-M   'P 21/c'
_symmetry_Int_Tables_number      14
_space_group_name_Hall           '-P 2ybc'
loop_
_symmetry_equiv_pos_site_id
_symmetry_equiv_pos_as_xyz
1 x,y,z
2 -x,1/2+y,1/2-z
3 -x,-y,-z
4 x,1/2-y,1/2+z
_cell_length_a                   11.6158(17)
_cell_length_b                   11.2796(18)
_cell_length_c                   13.082(2)
_cell_angle_alpha                90
_cell_angle_beta                 91.087(4)
_cell_angle_gamma                90
_cell_volume                     1713.72
_exptl_crystal_colour            yellow
_exptl_crystal_description       block
_chemical_melting_point          '170-172 deg.C'
_cell_formula_units_Z            4
_exptl_crystal_recrystallization_method 'ethanol/ethyl acetate'
loop_
_atom_site_label
_atom_site_type_symbol
_atom_site_fract_x
_atom_site_fract_y
_atom_site_fract_z
S1 S 0.27111(4) 0.00268(4) 0.45163(4)
S2 S -0.04743(5) 0.11983(5) 0.71866(5)
N1 N 0.27324(14) 0.21096(14) 0.55239(13)
N2 N 0.17367(14) 0.17063(14) 0.59793(13)
N3 N 0.42773(14) 0.17027(14) 0.44627(12)
C1 C 0.15558(16) 0.23836(17) 0.67608(14)
C2 C 0.24952(17) 0.32763(17) 0.69600(15)
H1 H 0.2989 0.3042 0.7551
H2 H 0.2175 0.4076 0.7084
C3 C 0.31645(17) 0.32341(16) 0.59539(15)
H3 H 0.4012 0.3186 0.6097
C4 C 0.33018(17) 0.14071(16) 0.48630(14)
C5 C 0.38997(17) -0.01916(16) 0.37400(14)
C6 C 0.41518(19) -0.11460(17) 0.31176(15)
H4 H 0.3644 -0.1804 0.3067
C7 C 0.5155(2) -0.11209(19) 0.25724(16)
H5 H 0.5337 -0.1766 0.2137
C8 C 0.59053(19) -0.01606(19) 0.26516(16)
H6 H 0.6597 -0.0162 0.2275
C9 C 0.56555(17) 0.07981(18) 0.32732(15)
H7 H 0.6171 0.1450 0.3324
C10 C 0.46420(17) 0.07941(16) 0.38199(14)
C11 C 0.05601(17) 0.22705(16) 0.73939(15)
C12 C 0.02903(19) 0.29604(18) 0.82202(16)
H8 H 0.0752 0.3604 0.8454
C13 C -0.0746(2) 0.2616(2) 0.86874(18)
H9 H -0.1055 0.2995 0.9270
C14 C -0.1245(2) 0.1682(2) 0.8207(2)
H10 H -0.1947 0.1332 0.8413
C15 C 0.28838(16) 0.42881(17) 0.52796(14)
C16 C 0.35932(16) 0.52761(17) 0.53103(15)
H11 H 0.4293 0.5249 0.5697
C17 C 0.32986(19) 0.63039(18) 0.47859(16)
H12 H 0.3793 0.6975 0.4814
C18 C 0.2281(2) 0.6346(2) 0.42225(17)
H13 H 0.2069 0.7050 0.3868
C19 C 0.15710(19) 0.5363(2) 0.41748(18)
H14 H 0.0877 0.5391 0.3779
C20 C 0.18640(18) 0.43434(19) 0.46983(16)
H15 H 0.1369 0.3674 0.4664
loop_
_geom_bond_atom_site_label_1
_geom_bond_atom_site_label_2
_geom_bond_site_symmetry_1
_geom_bond_site_symmetry_2
S1 C4 1_555 1_555
S2 C11 1_555 1_555
N1 N2 1_555 1_555
N2 C1 1_555 1_555
N3 C4 1_555 1_555
C1 C2 1_555 1_555
C2 H1 1_555 1_555
H2 C2 1_555 1_555
C3 N1 1_555 1_555
H3 C3 1_555 1_555
C4 N1 1_555 1_555
C5 S1 1_555 1_555
C6 C5 1_555 1_555
H4 C6 1_555 1_555
C7 C6 1_555 1_555
H5 C7 1_555 1_555
C8 C7 1_555 1_555
H6 C8 1_555 1_555
C9 C8 1_555 1_555
H7 C9 1_555 1_555
C10 N3 1_555 1_555
C11 C1 1_555 1_555
C12 C11 1_555 1_555
H8 C12 1_555 1_555
C13 C12 1_555 1_555
H9 C13 1_555 1_555
C14 S2 1_555 1_555
H10 C14 1_555 1_555
C15 C3 1_555 1_555
C16 C15 1_555 1_555
H11 C16 1_555 1_555
C17 C16 1_555 1_555
H12 C17 1_555 1_555
C18 C17 1_555 1_555
H13 C18 1_555 1_555
C19 C18 1_555 1_555
H14 C19 1_555 1_555
C20 C15 1_555 1_555
H15 C20 1_555 1_555
C2 C3 1_555 1_555
C5 C10 1_555 1_555
C9 C10 1_555 1_555
C13 C14 1_555 1_555
C19 C20 1_555 1_555

#END
