
#######################################################################
#
#                 Cambridge Crystallographic Data Centre
#                                CCDC 
#
#######################################################################
#
# If this CIF has been generated from an entry in the Cambridge 
# Structural Database, then it will include bibliographic, chemical, 
# crystal, experimental, refinement or atomic coordinate data resulting 
# from the CCDC's data processing and validation procedures.
#
#######################################################################

data_JARCEN
_chemical_formula_moiety         'C12 H9 F2 N3 O2'
_chemical_name_systematic        
3-(difluoromethyl)-5-phenyl-3a,6a-dihydropyrrolo[3,4-c]pyrazole-4,6(3H,5H)-dione
_symmetry_cell_setting           monoclinic
_symmetry_space_group_name_H-M   'P 21/n'
_symmetry_Int_Tables_number      14
_space_group_name_Hall           '-P 2yn'
loop_
_symmetry_equiv_pos_site_id
_symmetry_equiv_pos_as_xyz
1 x,y,z
2 1/2-x,1/2+y,1/2-z
3 -x,-y,-z
4 1/2+x,1/2-y,1/2+z
_cell_length_a                   5.5535(7)
_cell_length_b                   23.370(4)
_cell_length_c                   9.2361(15)
_cell_angle_alpha                90
_cell_angle_beta                 104.374(16)
_cell_angle_gamma                90
_cell_volume                     1161.19
_cell_formula_units_Z            4
loop_
_atom_site_label
_atom_site_type_symbol
_atom_site_fract_x
_atom_site_fract_y
_atom_site_fract_z
F1 F 0.4867(5) 0.04488(9) 0.3783(3)
F2 F 0.4254(4) 0.03319(8) 0.1411(3)
O1 O 1.0368(3) 0.25634(8) 0.5090(2)
O2 O 0.2317(3) 0.24282(7) 0.2343(2)
N1 N 0.6313(4) 0.26328(9) 0.3696(2)
N2 N 0.9163(4) 0.13822(10) 0.3662(3)
N3 N 0.7836(5) 0.11481(10) 0.2548(3)
C1 C 0.8386(5) 0.23482(11) 0.4509(3)
C2 C 0.7712(5) 0.17174(11) 0.4517(3)
H1 H 0.7951 0.1572 0.5537
C3 C 0.5123(5) 0.12598(11) 0.2382(3)
H2 H 0.4410 0.1443 0.1416
C4 C 0.5033(4) 0.16741(10) 0.3653(3)
H3 H 0.3986 0.1525 0.4278
C5 C 0.4294(5) 0.22742(11) 0.3133(3)
C6 C 0.3888(6) 0.07001(13) 0.2453(5)
H4 H 0.2101 0.0759 0.2329
C7 C 0.6241(5) 0.32390(11) 0.3449(3)
C8 C 0.4541(5) 0.35676(12) 0.3959(4)
H5 H 0.3493 0.3398 0.4479
C9 C 0.4423(6) 0.41435(14) 0.3688(4)
H6 H 0.3290 0.4367 0.4027
C10 C 0.5982(7) 0.43966(14) 0.2910(5)
H7 H 0.5883 0.4788 0.2719
C11 C 0.7670(6) 0.40670(13) 0.2424(4)
H8 H 0.8737 0.4238 0.1920
C12 C 0.7802(5) 0.34849(12) 0.2673(3)
H9 H 0.8925 0.3262 0.2324
loop_
_geom_bond_atom_site_label_1
_geom_bond_atom_site_label_2
_geom_bond_site_symmetry_1
_geom_bond_site_symmetry_2
F1 C6 1_555 1_555
F2 C6 1_555 1_555
O1 C1 1_555 1_555
O2 C5 1_555 1_555
N1 C1 1_555 1_555
N2 N3 1_555 1_555
N3 C3 1_555 1_555
C1 C2 1_555 1_555
C2 N2 1_555 1_555
H1 C2 1_555 1_555
C3 H2 1_555 1_555
C4 C2 1_555 1_555
H3 C4 1_555 1_555
C5 N1 1_555 1_555
C6 C3 1_555 1_555
H4 C6 1_555 1_555
C7 N1 1_555 1_555
C8 C7 1_555 1_555
H5 C8 1_555 1_555
C9 C8 1_555 1_555
H6 C9 1_555 1_555
C10 C9 1_555 1_555
H7 C10 1_555 1_555
C11 C10 1_555 1_555
H8 C11 1_555 1_555
C12 C7 1_555 1_555
H9 C12 1_555 1_555
C3 C4 1_555 1_555
C4 C5 1_555 1_555
C11 C12 1_555 1_555

#END
