
#######################################################################
#
#                 Cambridge Crystallographic Data Centre
#                                CCDC 
#
#######################################################################
#
# If this CIF has been generated from an entry in the Cambridge 
# Structural Database, then it will include bibliographic, chemical, 
# crystal, experimental, refinement or atomic coordinate data resulting 
# from the CCDC's data processing and validation procedures.
#
#######################################################################

data_JARCOX
_chemical_formula_moiety         'C7 H10 F2 N2 O2'
_chemical_name_systematic        
'ethyl 5-(difluoromethyl)-4,5-dihydro-1H-pyrazole-3-carboxylate'
_symmetry_cell_setting           monoclinic
_symmetry_space_group_name_H-M   'P 21/c'
_symmetry_Int_Tables_number      14
_space_group_name_Hall           '-P 2ybc'
loop_
_symmetry_equiv_pos_site_id
_symmetry_equiv_pos_as_xyz
1 x,y,z
2 -x,1/2+y,1/2-z
3 -x,-y,-z
4 x,1/2-y,1/2+z
_cell_length_a                   9.782(3)
_cell_length_b                   7.9638(8)
_cell_length_c                   11.881(3)
_cell_angle_alpha                90
_cell_angle_beta                 105.44(3)
_cell_angle_gamma                90
_cell_volume                     892.149
_cell_formula_units_Z            4
loop_
_atom_site_label
_atom_site_type_symbol
_atom_site_fract_x
_atom_site_fract_y
_atom_site_fract_z
F1 F 0.1760(3) 0.2828(3) 0.1546(2)
F2 F 0.1306(3) 0.0726(3) 0.2566(2)
O1 O 0.3965(3) 0.7922(2) 0.3943(2)
O2 O 0.2444(2) 0.6670(2) 0.47925(18)
N1 N 0.4465(3) 0.4764(3) 0.3140(2)
N2 N 0.4543(3) 0.3110(3) 0.2914(3)
H1 H 0.491(3) 0.282(4) 0.225(3)
C1 C 0.3452(4) 0.2144(3) 0.3261(3)
H2 H 0.3893 0.1199 0.3754
C2 C 0.2883(4) 0.3412(3) 0.3995(3)
H3 H 0.1858 0.3500 0.3735
H4 H 0.3166 0.3123 0.4818
C3 C 0.3581(4) 0.4980(3) 0.3760(3)
C4 C 0.3371(4) 0.6680(4) 0.4156(3)
C5 C 0.2108(4) 0.8281(4) 0.5235(3)
H5 H 0.1679 0.9021 0.4589
H6 H 0.2968 0.8807 0.5699
C6 C 0.1125(4) 0.7998(4) 0.5950(3)
H7 H 0.0838 0.9058 0.6197
H8 H 0.1584 0.7343 0.6623
H9 H 0.0305 0.7406 0.5500
C7 C 0.2360(5) 0.1499(5) 0.2222(4)
H10 H 0.2790 0.0724 0.1774
loop_
_geom_bond_atom_site_label_1
_geom_bond_atom_site_label_2
_geom_bond_site_symmetry_1
_geom_bond_site_symmetry_2
F1 C7 1_555 1_555
F2 C7 1_555 1_555
O1 C4 1_555 1_555
O2 C4 1_555 1_555
N1 N2 1_555 1_555
N2 H1 1_555 1_555
C1 N2 1_555 1_555
H2 C1 1_555 1_555
C2 C1 1_555 1_555
H3 C2 1_555 1_555
H4 C2 1_555 1_555
C3 N1 1_555 1_555
C4 C3 1_555 1_555
C5 O2 1_555 1_555
H5 C5 1_555 1_555
H6 C5 1_555 1_555
C6 C5 1_555 1_555
H7 C6 1_555 1_555
H8 C6 1_555 1_555
H9 C6 1_555 1_555
C7 C1 1_555 1_555
H10 C7 1_555 1_555
C2 C3 1_555 1_555

#END
