
#######################################################################
#
#                 Cambridge Crystallographic Data Centre
#                                CCDC 
#
#######################################################################
#
# If this CIF has been generated from an entry in the Cambridge 
# Structural Database, then it will include bibliographic, chemical, 
# crystal, experimental, refinement or atomic coordinate data resulting 
# from the CCDC's data processing and validation procedures.
#
#######################################################################

data_JARCUD
_chemical_formula_moiety         'C6 H8 F2 N2 O2'
_chemical_name_systematic        
'methyl 5-(difluoromethyl)-4,5-dihydro-1H-pyrazole-3-carboxylate'
_symmetry_cell_setting           monoclinic
_symmetry_space_group_name_H-M   'P 21/c'
_symmetry_Int_Tables_number      14
_space_group_name_Hall           '-P 2ybc'
loop_
_symmetry_equiv_pos_site_id
_symmetry_equiv_pos_as_xyz
1 x,y,z
2 -x,1/2+y,1/2-z
3 -x,-y,-z
4 x,1/2-y,1/2+z
_cell_length_a                   8.6840(8)
_cell_length_b                   7.8070(5)
_cell_length_c                   11.6860(9)
_cell_angle_alpha                90
_cell_angle_beta                 102.589(9)
_cell_angle_gamma                90
_cell_volume                     773.217
_cell_formula_units_Z            4
loop_
_atom_site_label
_atom_site_type_symbol
_atom_site_fract_x
_atom_site_fract_y
_atom_site_fract_z
F1 F 0.8731(3) 0.2817(3) 0.33803(16)
F2 F 0.9177(3) 0.0620(3) 0.23325(18)
O1 O 0.6152(3) 0.7964(2) 0.09604(17)
O2 O 0.7796(2) 0.6681(2) -0.00110(14)
N1 N 0.5652(2) 0.4778(2) 0.18576(16)
N2 N 0.5612(3) 0.3116(3) 0.2126(2)
H1 H 0.513(3) 0.281(3) 0.265(2)
C1 C 0.6795(3) 0.2092(3) 0.1722(2)
H2 H 0.6288 0.1120 0.1257
C2 C 0.7413(4) 0.3362(3) 0.0929(2)
H3 H 0.8553 0.3456 0.1143
H4 H 0.7093 0.3039 0.0110
C3 C 0.6631(3) 0.4989(3) 0.11769(18)
C4 C 0.6813(3) 0.6699(3) 0.07212(19)
C5 C 0.8066(4) 0.8304(4) -0.0515(2)
H5 H 0.7074 0.8857 -0.0816
H6 H 0.8604 0.8124 -0.1140
H7 H 0.8702 0.9013 0.0076
C6 C 0.8027(4) 0.1462(4) 0.2733(2)
H8 H 0.7550 0.0697 0.3224
loop_
_geom_bond_atom_site_label_1
_geom_bond_atom_site_label_2
_geom_bond_site_symmetry_1
_geom_bond_site_symmetry_2
F1 C6 1_555 1_555
F2 C6 1_555 1_555
O1 C4 1_555 1_555
O2 C4 1_555 1_555
N1 N2 1_555 1_555
N2 H1 1_555 1_555
C1 N2 1_555 1_555
H2 C1 1_555 1_555
C2 C1 1_555 1_555
H3 C2 1_555 1_555
H4 C2 1_555 1_555
C3 N1 1_555 1_555
C4 C3 1_555 1_555
C5 O2 1_555 1_555
H5 C5 1_555 1_555
H6 C5 1_555 1_555
H7 C5 1_555 1_555
C6 C1 1_555 1_555
H8 C6 1_555 1_555
C2 C3 1_555 1_555

#END
