
#######################################################################
#
#                 Cambridge Crystallographic Data Centre
#                                CCDC 
#
#######################################################################
#
# If this CIF has been generated from an entry in the Cambridge 
# Structural Database, then it will include bibliographic, chemical, 
# crystal, experimental, refinement or atomic coordinate data resulting 
# from the CCDC's data processing and validation procedures.
#
#######################################################################

data_JARPEX02
_chemical_name_common            'Sudan yellow'
_chemical_formula_moiety         'C16 H12 N2 O1'
_chemical_name_systematic        1-Phenylazo-2-naphthol
_symmetry_cell_setting           monoclinic
_symmetry_space_group_name_H-M   'C 2/c'
_symmetry_Int_Tables_number      15
_space_group_name_Hall           '-C 2yn'
loop_
_symmetry_equiv_pos_site_id
_symmetry_equiv_pos_as_xyz
1 x,y,z
2 1/2+x,1/2+y,z
3 -x,y,1/2-z
4 1/2-x,1/2+y,1/2-z
5 -x,-y,-z
6 1/2-x,1/2-y,-z
7 x,-y,1/2+z
8 1/2+x,1/2-y,1/2+z
_cell_length_a                   27.832(4)
_cell_length_b                   6.028(2)
_cell_length_c                   14.879(3)
_cell_angle_alpha                90
_cell_angle_beta                 103.79(1)
_cell_angle_gamma                90
_cell_volume                     2424.32
_exptl_crystal_colour            yellow
_cell_formula_units_Z            8
loop_
_atom_site_label
_atom_site_type_symbol
_atom_site_fract_x
_atom_site_fract_y
_atom_site_fract_z
O1 O 0.23137(5) 0.36832(26) 0.09090(10)
N1 N 0.12797(6) 0.26482(28) 0.03766(11)
N2 N 0.15807(7) 0.13296(30) 0.00681(11)
C1 C 0.14724(8) 0.43848(33) 0.09026(13)
C2 C 0.19973(8) 0.48992(36) 0.11577(14)
C3 C 0.21472(8) 0.68862(37) 0.17036(15)
C4 C 0.18132(8) 0.82343(39) 0.19431(15)
C5 C 0.12883(8) 0.77960(36) 0.16868(13)
C6 C 0.09531(8) 0.92891(37) 0.19252(15)
C7 C 0.04527(8) 0.88665(39) 0.16852(15)
C8 C 0.02794(8) 0.69171(38) 0.12080(15)
C9 C 0.06045(8) 0.54215(38) 0.09665(15)
C10 C 0.11155(7) 0.58405(34) 0.11864(13)
C11 C 0.13822(8) -0.05157(35) -0.04851(13)
C12 C 0.17165(8) -0.19473(37) -0.07550(14)
C13 C 0.15418(9) -0.38116(39) -0.12790(15)
C14 C 0.10396(9) -0.42529(38) -0.15326(15)
C15 C 0.07115(9) -0.28081(37) -0.12636(15)
C16 C 0.08777(8) -0.09357(38) -0.07399(14)
loop_
_geom_bond_atom_site_label_1
_geom_bond_atom_site_label_2
_geom_bond_site_symmetry_1
_geom_bond_site_symmetry_2
O1 C2 1_555 1_555
N1 N2 1_555 1_555
N2 C11 1_555 1_555
C1 N1 1_555 1_555
C2 C1 1_555 1_555
C3 C2 1_555 1_555
C4 C3 1_555 1_555
C5 C4 1_555 1_555
C6 C5 1_555 1_555
C7 C6 1_555 1_555
C8 C7 1_555 1_555
C9 C8 1_555 1_555
C10 C1 1_555 1_555
C11 C12 1_555 1_555
C12 C13 1_555 1_555
C13 C14 1_555 1_555
C14 C15 1_555 1_555
C15 C16 1_555 1_555
C16 C11 1_555 1_555
C5 C10 1_555 1_555
C9 C10 1_555 1_555

#END
