
#######################################################################
#
#                 Cambridge Crystallographic Data Centre
#                                CCDC 
#
#######################################################################
#
# If this CIF has been generated from an entry in the Cambridge 
# Structural Database, then it will include bibliographic, chemical, 
# crystal, experimental, refinement or atomic coordinate data resulting 
# from the CCDC's data processing and validation procedures.
#
#######################################################################

data_JASLIB
_chemical_formula_moiety         'C16 H17 N5 O1'
_chemical_name_systematic        
2-ethyl-3-((2-methoxybenzylidene)hydrazono)-2,3-dihydro[1,2,4]triazolo[4,3-a]pyridine
_symmetry_cell_setting           orthorhombic
_symmetry_space_group_name_H-M   'P n a 21'
_symmetry_Int_Tables_number      33
_space_group_name_Hall           'P 2c -2n'
loop_
_symmetry_equiv_pos_site_id
_symmetry_equiv_pos_as_xyz
1 x,y,z
2 -x,-y,1/2+z
3 1/2+x,1/2-y,z
4 1/2-x,1/2+y,1/2+z
_cell_length_a                   8.5848(3)
_cell_length_b                   8.8196(3)
_cell_length_c                   19.7253(8)
_cell_angle_alpha                90
_cell_angle_beta                 90
_cell_angle_gamma                90
_cell_volume                     1493.49
_exptl_crystal_colour            yellow
_exptl_crystal_description       block
_chemical_melting_point          '137-139 deg.C'
_cell_formula_units_Z            4
loop_
_atom_site_label
_atom_site_type_symbol
_atom_site_fract_x
_atom_site_fract_y
_atom_site_fract_z
O1 O 0.2331(3) 0.7181(3) 0.61568(16)
N1 N 0.4108(3) 0.3595(3) 0.51697(14)
N2 N 0.5120(3) 0.3963(3) 0.46567(15)
N3 N 0.5471(3) 0.1212(3) 0.44203(14)
N4 N 0.6647(3) 0.2876(3) 0.38008(15)
N5 N 0.7057(4) 0.1482(3) 0.35246(15)
C1 C 0.5666(3) 0.2770(3) 0.43380(16)
C2 C 0.3542(4) 0.4725(3) 0.54862(17)
H1 H 0.3845 0.5699 0.5361
C3 C 0.6362(4) 0.0503(4) 0.3913(2)
C4 C 0.2431(4) 0.4536(4) 0.60406(16)
C5 C 0.1795(3) 0.5811(4) 0.63720(18)
C6 C 0.4612(4) 0.0383(4) 0.4888(2)
H2 H 0.4039 0.0874 0.5222
C7 C 0.6385(5) -0.1106(4) 0.3896(2)
H3 H 0.6977 -0.1613 0.3573
C8 C 0.5969(5) 0.4825(5) 0.2958(2)
H4 H 0.5875 0.4090 0.2601
H5 H 0.6317 0.5772 0.2771
H6 H 0.4974 0.4964 0.3171
C9 C 0.0691(4) 0.5620(5) 0.6878(2)
H7 H 0.0265 0.6465 0.7091
C10 C 0.1928(4) 0.3109(4) 0.6247(2)
H8 H 0.2332 0.2254 0.6034
C11 C 0.4621(5) -0.1132(4) 0.4850(2)
H9 H 0.4020 -0.1692 0.5151
C12 C 0.7127(4) 0.4276(4) 0.34724(18)
H10 H 0.8123 0.4115 0.3251
H11 H 0.7270 0.5053 0.3815
C13 C 0.0221(5) 0.4195(6) 0.7066(2)
H12 H -0.0524 0.4082 0.7404
C14 C 0.0842(5) 0.2930(5) 0.6759(2)
H13 H 0.0535 0.1966 0.6895
C15 C 0.5534(5) -0.1898(4) 0.4356(2)
H14 H 0.5549 -0.2952 0.4348
C16 C 0.1696(5) 0.8512(4) 0.6455(3)
H15 H 0.2101 0.9389 0.6227
H16 H 0.1977 0.8551 0.6926
H17 H 0.0582 0.8494 0.6413
loop_
_geom_bond_atom_site_label_1
_geom_bond_atom_site_label_2
_geom_bond_site_symmetry_1
_geom_bond_site_symmetry_2
O1 C5 1_555 1_555
N1 N2 1_555 1_555
N2 C1 1_555 1_555
N3 C1 1_555 1_555
N4 N5 1_555 1_555
N5 C3 1_555 1_555
C1 N4 1_555 1_555
C2 N1 1_555 1_555
H1 C2 1_555 1_555
C3 N3 1_555 1_555
C4 C2 1_555 1_555
C5 C4 1_555 1_555
C6 N3 1_555 1_555
H2 C6 1_555 1_555
C7 C3 1_555 1_555
H3 C7 1_555 1_555
C8 H4 1_555 1_555
H5 C8 1_555 1_555
H6 C8 1_555 1_555
C9 C5 1_555 1_555
H7 C9 1_555 1_555
C10 C4 1_555 1_555
H8 C10 1_555 1_555
C11 C6 1_555 1_555
H9 C11 1_555 1_555
C12 N4 1_555 1_555
H10 C12 1_555 1_555
H11 C12 1_555 1_555
C13 C9 1_555 1_555
H12 C13 1_555 1_555
C14 C10 1_555 1_555
H13 C14 1_555 1_555
C15 C7 1_555 1_555
H14 C15 1_555 1_555
C16 O1 1_555 1_555
H15 C16 1_555 1_555
H16 C16 1_555 1_555
H17 C16 1_555 1_555
C8 C12 1_555 1_555
C11 C15 1_555 1_555
C13 C14 1_555 1_555

#END
