
#######################################################################
#
#                 Cambridge Crystallographic Data Centre
#                                CCDC 
#
#######################################################################
#
# If this CIF has been generated from an entry in the Cambridge 
# Structural Database, then it will include bibliographic, chemical, 
# crystal, experimental, refinement or atomic coordinate data resulting 
# from the CCDC's data processing and validation procedures.
#
#######################################################################

data_JASLUL
_chemical_formula_moiety         'C30 H30 O6,H2 O1'
_chemical_name_systematic        
'6,7-bis(Methoxycarbonyl)-15,16-dimethoxyoctacyclo[10.10.1.1^4,9^.0^2,11^.0^3,10^.0^5,8^.0^13,22^.0^15,20^]tetracosa-6,13,15,17,19,21-hexaene monohydrate'
_symmetry_cell_setting           monoclinic
_symmetry_space_group_name_H-M   'C 2/c'
_symmetry_Int_Tables_number      15
_space_group_name_Hall           '-C 2yn'
loop_
_symmetry_equiv_pos_site_id
_symmetry_equiv_pos_as_xyz
1 x,y,z
2 1/2+x,1/2+y,z
3 -x,y,1/2-z
4 1/2-x,1/2+y,1/2-z
5 -x,-y,-z
6 1/2-x,1/2-y,-z
7 x,-y,1/2+z
8 1/2+x,1/2-y,1/2+z
_cell_length_a                   30.929(7)
_cell_length_b                   8.7003(12)
_cell_length_c                   21.194(3)
_cell_angle_alpha                90
_cell_angle_beta                 113.466(14)
_cell_angle_gamma                90
_cell_volume                     5231.46
_exptl_crystal_colour            colorless
_exptl_crystal_description       prism
_chemical_melting_point          214-215deg.C
_cell_formula_units_Z            8
loop_
_atom_site_label
_atom_site_type_symbol
_atom_site_fract_x
_atom_site_fract_y
_atom_site_fract_z
O1 O 0.23594(19) -0.1887(6) 0.0677(3)
O2 O 0.18318(18) -0.4229(7) 0.0480(3)
O3 O -0.0840(3) 0.3273(9) 0.3579(6)
O4 O 0.0503(2) 0.6303(8) 0.4230(5)
O5 O -0.0660(2) 0.1028(8) 0.3996(4)
O6 O -0.0215(2) 0.5864(7) 0.4179(4)
C1 C 0.1422(2) -0.2120(9) 0.3634(4)
H1 H 0.1289 -0.3076 0.3724
C2 C 0.1089(3) -0.0728(9) 0.3427(4)
H2 H 0.0853 -0.0778 0.2953
C3 C 0.0896(3) -0.0137(9) 0.3935(4)
H3 H 0.0951 -0.0821 0.4326
C4 C 0.0410(3) 0.0635(9) 0.3647(4)
H4 H 0.0148 -0.0034 0.3369
C5 C 0.0358(3) 0.1374(9) 0.4267(4)
H5 H 0.0405 0.0681 0.4654
C6 C -0.0030(3) 0.2546(10) 0.4123(4)
C7 C 0.0263(3) 0.3766(10) 0.4267(4)
C8 C 0.0699(3) 0.2795(8) 0.4439(4)
H6 H 0.0931 0.2861 0.4916
C9 C 0.0906(3) 0.2658(9) 0.3891(4)
H7 H 0.1042 0.3609 0.3802
C10 C 0.1243(3) 0.1292(9) 0.4103(4)
H8 H 0.1480 0.1331 0.4577
C11 C 0.1427(2) 0.0694(9) 0.3570(4)
H9 H 0.1363 0.1372 0.3174
C12 C 0.1922(3) -0.0093(10) 0.3847(4)
H10 H 0.2192 0.0569 0.4100
C13 C 0.1932(3) -0.0902(10) 0.3221(4)
C14 C 0.2150(3) -0.0584(10) 0.2793(4)
H11 H 0.2352 0.0257 0.2879
C15 C 0.2071(2) -0.1543(9) 0.2210(4)
C16 C 0.2279(3) -0.1205(9) 0.1739(4)
H12 H 0.2481 -0.0368 0.1817
C17 C 0.2185(3) -0.2106(10) 0.1169(4)
C18 C 0.1880(3) -0.3415(9) 0.1057(4)
C19 C 0.1678(2) -0.3747(9) 0.1491(4)
H13 H 0.1480 -0.4595 0.1405
C20 C 0.1760(2) -0.2843(9) 0.2073(4)
C21 C 0.1549(3) -0.3141(10) 0.2544(4)
H14 H 0.1354 -0.3993 0.2477
C22 C 0.1626(3) -0.2206(10) 0.3093(4)
C23 C 0.1846(3) -0.1465(9) 0.4241(4)
H15 H 0.1767 -0.1159 0.4622
H16 H 0.2113 -0.2162 0.4401
C24 C 0.0488(3) 0.2027(9) 0.3270(4)
H17 H 0.0221 0.2722 0.3112
H18 H 0.0573 0.1746 0.2892
C25 C -0.0549(4) 0.2374(12) 0.3864(6)
C26 C 0.0209(4) 0.5439(11) 0.4223(5)
C27 C 0.2718(3) -0.0726(10) 0.0816(4)
H19 H 0.2816 -0.0678 0.0440
H20 H 0.2983 -0.0980 0.1232
H21 H 0.2593 0.0253 0.0869
C28 C 0.1629(3) -0.5715(10) 0.0423(5)
H22 H 0.1605 -0.6185 0.0001
H23 H 0.1320 -0.5627 0.0425
H24 H 0.1823 -0.6338 0.0804
C29 C -0.1160(3) 0.0657(13) 0.3755(7)
H25 H -0.1195 -0.0375 0.3887
H26 H -0.1305 0.0745 0.3263
H27 H -0.1309 0.1358 0.3956
C30 C -0.0323(3) 0.7481(11) 0.4075(6)
H28 H -0.0635 0.7660 0.4056
H29 H -0.0309 0.7804 0.3651
H30 H -0.0099 0.8055 0.4449
O7 O -0.04330(17) 0.5515(7) 0.2593(3)
loop_
_geom_bond_atom_site_label_1
_geom_bond_atom_site_label_2
_geom_bond_site_symmetry_1
_geom_bond_site_symmetry_2
O1 C17 1_555 1_555
O2 C18 1_555 1_555
O3 C25 1_555 1_555
O4 C26 1_555 1_555
O5 C25 1_555 1_555
O6 C26 1_555 1_555
C1 H1 1_555 1_555
C2 C1 1_555 1_555
H2 C2 1_555 1_555
C3 C2 1_555 1_555
H3 C3 1_555 1_555
C4 C3 1_555 1_555
H4 C4 1_555 1_555
C5 C4 1_555 1_555
H5 C5 1_555 1_555
C6 C5 1_555 1_555
C7 C6 1_555 1_555
C8 C5 1_555 1_555
H6 C8 1_555 1_555
C9 C8 1_555 1_555
H7 C9 1_555 1_555
C10 C3 1_555 1_555
H8 C10 1_555 1_555
C11 C2 1_555 1_555
H9 C11 1_555 1_555
C12 C11 1_555 1_555
H10 C12 1_555 1_555
C13 C12 1_555 1_555
C14 C13 1_555 1_555
H11 C14 1_555 1_555
C15 C14 1_555 1_555
C16 C15 1_555 1_555
H12 C16 1_555 1_555
C17 C16 1_555 1_555
C18 C17 1_555 1_555
C19 C18 1_555 1_555
H13 C19 1_555 1_555
C20 C15 1_555 1_555
C21 C20 1_555 1_555
H14 C21 1_555 1_555
C22 C1 1_555 1_555
C23 C1 1_555 1_555
H15 C23 1_555 1_555
H16 C23 1_555 1_555
C24 C4 1_555 1_555
H17 C24 1_555 1_555
H18 C24 1_555 1_555
C25 C6 1_555 1_555
C26 C7 1_555 1_555
C27 O1 1_555 1_555
H19 C27 1_555 1_555
H20 C27 1_555 1_555
H21 C27 1_555 1_555
C28 O2 1_555 1_555
H22 C28 1_555 1_555
H23 C28 1_555 1_555
H24 C28 1_555 1_555
C29 O5 1_555 1_555
H25 C29 1_555 1_555
H26 C29 1_555 1_555
H27 C29 1_555 1_555
C30 O6 1_555 1_555
H28 C30 1_555 1_555
H29 C30 1_555 1_555
H30 C30 1_555 1_555
C7 C8 1_555 1_555
C9 C10 1_555 1_555
C9 C24 1_555 1_555
C10 C11 1_555 1_555
C12 C23 1_555 1_555
C13 C22 1_555 1_555
C19 C20 1_555 1_555
C21 C22 1_555 1_555

#END
