
#######################################################################
#
#                 Cambridge Crystallographic Data Centre
#                                CCDC 
#
#######################################################################
#
# If this CIF has been generated from an entry in the Cambridge 
# Structural Database, then it will include bibliographic, chemical, 
# crystal, experimental, refinement or atomic coordinate data resulting 
# from the CCDC's data processing and validation procedures.
#
#######################################################################

data_JASSII
_chemical_name_common            
"4',4'''-ditriptycene-2,2':6',2'':6'',2''':6''',2''''-quinquepyridine unknown solvate"
_chemical_formula_moiety         'C65 H41 N5'
_chemical_name_systematic        
"4',4'''-bis(pentacyclo[6.6.6.0^2,7^.0^9,14^.0^15,20^]icosa-2,4,6,9,11,13,15,17,19-nonaen-1-yl)-2,2':6',2'':6'',2''':6''',2''''-quinquepyridine unknown solvate"
_symmetry_cell_setting           tetragonal
_symmetry_space_group_name_H-M   'I 41/a'
_symmetry_Int_Tables_number      88
_space_group_name_Hall           '-I 4ad'
loop_
_symmetry_equiv_pos_site_id
_symmetry_equiv_pos_as_xyz
1 x,y,z
2 1/2-x,-y,1/2+z
3 3/4-y,1/4+x,1/4+z
4 3/4+y,3/4-x,3/4+z
5 1/2+x,1/2+y,1/2+z
6 -x,1/2-y,z
7 1/4-y,3/4+x,3/4+z
8 1/4+y,1/4-x,1/4+z
9 -x,-y,-z
10 1/2+x,y,1/2-z
11 1/4+y,3/4-x,3/4-z
12 1/4-y,1/4+x,1/4-z
13 1/2-x,1/2-y,1/2-z
14 x,1/2+y,-z
15 3/4+y,1/4-x,1/4-z
16 3/4-y,3/4+x,3/4-z
_cell_length_a                   18.263(3)
_cell_length_b                   18.263(3)
_cell_length_c                   61.044(9)
_cell_angle_alpha                90
_cell_angle_beta                 90
_cell_angle_gamma                90
_cell_volume                     20360.4
_exptl_crystal_colour            colorless
_exptl_crystal_description       Plate
_cell_formula_units_Z            16
_exptl_crystal_recrystallization_method 'Vapour deposition'
loop_
_atom_site_label
_atom_site_type_symbol
_atom_site_fract_x
_atom_site_fract_y
_atom_site_fract_z
N1 N 0.3955(2) 0.29090(19) 0.23743(5)
N2 N 0.42401(16) 0.30462(17) 0.17932(5)
N3 N 0.40234(16) 0.27605(16) 0.12149(5)
N4 N 0.40960(17) 0.30166(17) 0.06298(5)
N5 N 0.3715(2) 0.2868(3) 0.00581(6)
C1 C 0.3957(3) 0.3344(3) 0.25524(7)
H1 H 0.3811 0.3142 0.2689
C2 C 0.4160(2) 0.4064(3) 0.25451(7)
H2 H 0.4138 0.4358 0.2673
C3 C 0.4398(3) 0.4358(2) 0.23507(7)
H3 H 0.4550 0.4855 0.2342
C4 C 0.4409(2) 0.3913(2) 0.21681(7)
H4 H 0.4584 0.4094 0.2032
C5 C 0.4158(2) 0.31920(19) 0.21864(6)
C6 C 0.4028(2) 0.2740(2) 0.19832(6)
C7 C 0.3657(2) 0.2077(2) 0.19949(6)
H5 H 0.3545 0.1868 0.2133
C8 C 0.34499(19) 0.1719(2) 0.18029(6)
C9 C 0.36387(19) 0.2062(2) 0.16085(6)
H6 H 0.3493 0.1849 0.1473
C10 C 0.40387(19) 0.27117(19) 0.16074(5)
C11 C 0.4263(2) 0.30710(19) 0.14022(6)
C12 C 0.4684(2) 0.3705(2) 0.14020(6)
H7 H 0.4834 0.3925 0.1536
C13 C 0.4880(2) 0.4011(2) 0.12011(6)
H8 H 0.5169 0.4443 0.1196
C14 C 0.4653(2) 0.3683(2) 0.10109(6)
H9 H 0.4793 0.3878 0.0873
C15 C 0.42168(18) 0.3064(2) 0.10226(6)
C16 C 0.3892(2) 0.2727(2) 0.08248(6)
C17 C 0.3410(2) 0.2151(2) 0.08385(6)
H10 H 0.3305 0.1938 0.0977
C18 C 0.3071(2) 0.1876(2) 0.06496(6)
C19 C 0.3305(2) 0.2154(2) 0.04500(6)
H11 H 0.3122 0.1958 0.0317
C20 C 0.3816(2) 0.2728(2) 0.04471(6)
C21 C 0.4077(2) 0.3053(3) 0.02375(6)
C22 C 0.4662(3) 0.3526(3) 0.02325(7)
H12 H 0.4918 0.3642 0.0363
C23 C 0.4874(3) 0.3827(4) 0.00367(9)
H13 H 0.5257 0.4178 0.0031
C24 C 0.4529(4) 0.3618(4) -0.01474(10)
H14 H 0.4681 0.3799 -0.0286
C25 C 0.3958(4) 0.3143(4) -0.01325(9)
H15 H 0.3719 0.2998 -0.0264
C26 C 0.2931(2) 0.1067(2) 0.18085(6)
C27 C 0.3002(2) 0.0542(2) 0.20078(7)
C28 C 0.3607(3) 0.0471(2) 0.21501(7)
H16 H 0.4018 0.0786 0.2135
C29 C 0.3597(4) -0.0065(3) 0.23121(9)
H17 H 0.3997 -0.0103 0.2411
C30 C 0.3021(4) -0.0537(3) 0.23316(10)
H18 H 0.3015 -0.0885 0.2447
C31 C 0.2443(3) -0.0510(3) 0.21832(8)
H19 H 0.2053 -0.0851 0.2194
C32 C 0.2436(3) 0.0018(2) 0.20177(7)
C33 C 0.1909(2) 0.0061(2) 0.18331(7)
H20 H 0.1518 -0.0320 0.1843
C34 C 0.1600(2) 0.0833(2) 0.18332(6)
C35 C 0.0862(2) 0.1037(3) 0.18344(7)
H21 H 0.0493 0.0671 0.1841
C36 C 0.0669(2) 0.1757(3) 0.18258(8)
H22 H 0.0167 0.1892 0.1825
C37 C 0.1211(2) 0.2296(3) 0.18180(8)
H23 H 0.1078 0.2799 0.1817
C38 C 0.1932(2) 0.2100(2) 0.18118(6)
H24 H 0.2298 0.2468 0.1801
C39 C 0.2135(2) 0.1371(2) 0.18214(6)
C40 C 0.2919(2) 0.0529(2) 0.16120(6)
C41 C 0.3403(2) 0.0474(2) 0.14376(6)
H25 H 0.3801 0.0807 0.1427
C42 C 0.3311(2) -0.0063(2) 0.12782(7)
H26 H 0.3639 -0.0083 0.1157
C43 C 0.2760(2) -0.0560(2) 0.12930(7)
H27 H 0.2704 -0.0929 0.1185
C44 C 0.2275(2) -0.0522(2) 0.14702(7)
H28 H 0.1884 -0.0862 0.1481
C45 C 0.2359(2) -0.0005(2) 0.16263(6)
C46 C 0.2569(2) 0.1211(2) 0.06628(5)
C47 C 0.2068(2) 0.1145(2) 0.08709(6)
C48 C 0.1924(2) 0.1665(2) 0.10302(6)
H29 H 0.2156 0.2130 0.1023
C49 C 0.1444(2) 0.1513(3) 0.11996(7)
H30 H 0.1343 0.1877 0.1307
C50 C 0.1115(2) 0.0840(2) 0.12134(7)
H31 H 0.0803 0.0729 0.1333
C51 C 0.1238(2) 0.0322(2) 0.10517(7)
H32 H 0.0998 -0.0139 0.1058
C52 C 0.1706(2) 0.0474(2) 0.08827(6)
C53 C 0.1846(2) -0.0031(2) 0.06882(6)
H33 H 0.1567 -0.0501 0.0697
C54 C 0.1648(2) 0.0422(2) 0.04874(6)
C55 C 0.1112(2) 0.0232(2) 0.03366(6)
H34 H 0.0887 -0.0237 0.0341
C56 C 0.0914(2) 0.0741(2) 0.01800(6)
H35 H 0.0567 0.0609 0.0071
C57 C 0.1202(2) 0.1424(2) 0.01789(6)
H36 H 0.1030 0.1774 0.0076
C58 C 0.1749(2) 0.1619(2) 0.03275(6)
H37 H 0.1945 0.2101 0.0327
C59 C 0.2009(2) 0.1099(2) 0.04786(6)
C60 C 0.3067(2) 0.0518(2) 0.06653(6)
C61 C 0.3814(2) 0.0493(2) 0.06562(6)
H38 H 0.4084 0.0934 0.0639
C62 C 0.4182(3) -0.0171(2) 0.06719(7)
H39 H 0.4703 -0.0180 0.0672
C63 C 0.3797(3) -0.0811(3) 0.06871(7)
H40 H 0.4048 -0.1265 0.0695
C64 C 0.3042(3) -0.0795(2) 0.06905(7)
H41 H 0.2776 -0.1241 0.0700
C65 C 0.2667(2) -0.0143(2) 0.06795(6)
loop_
_geom_bond_atom_site_label_1
_geom_bond_atom_site_label_2
_geom_bond_site_symmetry_1
_geom_bond_site_symmetry_2
N1 C1 1_555 1_555
N2 C6 1_555 1_555
N3 C11 1_555 1_555
N4 C16 1_555 1_555
N5 C21 1_555 1_555
C1 H1 1_555 1_555
C2 C1 1_555 1_555
H2 C2 1_555 1_555
C3 C2 1_555 1_555
H3 C3 1_555 1_555
C4 C3 1_555 1_555
H4 C4 1_555 1_555
C5 N1 1_555 1_555
C6 C5 1_555 1_555
C7 C6 1_555 1_555
H5 C7 1_555 1_555
C8 C7 1_555 1_555
C9 C8 1_555 1_555
H6 C9 1_555 1_555
C10 N2 1_555 1_555
C11 C10 1_555 1_555
C12 C11 1_555 1_555
H7 C12 1_555 1_555
C13 C12 1_555 1_555
H8 C13 1_555 1_555
C14 C13 1_555 1_555
H9 C14 1_555 1_555
C15 N3 1_555 1_555
C16 C15 1_555 1_555
C17 C16 1_555 1_555
H10 C17 1_555 1_555
C18 C17 1_555 1_555
C19 C18 1_555 1_555
H11 C19 1_555 1_555
C20 N4 1_555 1_555
C21 C20 1_555 1_555
C22 C21 1_555 1_555
H12 C22 1_555 1_555
C23 C22 1_555 1_555
H13 C23 1_555 1_555
C24 C23 1_555 1_555
H14 C24 1_555 1_555
C25 N5 1_555 1_555
H15 C25 1_555 1_555
C26 C8 1_555 1_555
C27 C26 1_555 1_555
C28 C27 1_555 1_555
H16 C28 1_555 1_555
C29 C28 1_555 1_555
H17 C29 1_555 1_555
C30 C29 1_555 1_555
H18 C30 1_555 1_555
C31 C30 1_555 1_555
H19 C31 1_555 1_555
C32 C27 1_555 1_555
C33 C32 1_555 1_555
H20 C33 1_555 1_555
C34 C33 1_555 1_555
C35 C34 1_555 1_555
H21 C35 1_555 1_555
C36 C35 1_555 1_555
H22 C36 1_555 1_555
C37 C36 1_555 1_555
H23 C37 1_555 1_555
C38 C37 1_555 1_555
H24 C38 1_555 1_555
C39 C26 1_555 1_555
C40 C26 1_555 1_555
C41 C40 1_555 1_555
H25 C41 1_555 1_555
C42 C41 1_555 1_555
H26 C42 1_555 1_555
C43 C42 1_555 1_555
H27 C43 1_555 1_555
C44 C43 1_555 1_555
H28 C44 1_555 1_555
C45 C33 1_555 1_555
C46 C18 1_555 1_555
C47 C46 1_555 1_555
C48 C47 1_555 1_555
H29 C48 1_555 1_555
C49 C48 1_555 1_555
H30 C49 1_555 1_555
C50 C49 1_555 1_555
H31 C50 1_555 1_555
C51 C50 1_555 1_555
H32 C51 1_555 1_555
C52 C47 1_555 1_555
C53 C52 1_555 1_555
H33 C53 1_555 1_555
C54 C53 1_555 1_555
C55 C54 1_555 1_555
H34 C55 1_555 1_555
C56 C55 1_555 1_555
H35 C56 1_555 1_555
C57 C56 1_555 1_555
H36 C57 1_555 1_555
C58 C57 1_555 1_555
H37 C58 1_555 1_555
C59 C46 1_555 1_555
C60 C46 1_555 1_555
C61 C60 1_555 1_555
H38 C61 1_555 1_555
C62 C61 1_555 1_555
H39 C62 1_555 1_555
C63 C62 1_555 1_555
H40 C63 1_555 1_555
C64 C63 1_555 1_555
H41 C64 1_555 1_555
C65 C53 1_555 1_555
C4 C5 1_555 1_555
C9 C10 1_555 1_555
C14 C15 1_555 1_555
C19 C20 1_555 1_555
C24 C25 1_555 1_555
C31 C32 1_555 1_555
C34 C39 1_555 1_555
C38 C39 1_555 1_555
C40 C45 1_555 1_555
C44 C45 1_555 1_555
C51 C52 1_555 1_555
C54 C59 1_555 1_555
C58 C59 1_555 1_555
C60 C65 1_555 1_555
C64 C65 1_555 1_555

#END
