
#######################################################################
#
#                 Cambridge Crystallographic Data Centre
#                                CCDC 
#
#######################################################################
#
# If this CIF has been generated from an entry in the Cambridge 
# Structural Database, then it will include bibliographic, chemical, 
# crystal, experimental, refinement or atomic coordinate data resulting 
# from the CCDC's data processing and validation procedures.
#
#######################################################################

data_JASSIF10
_chemical_compound_source        'Fritillaria ussuriensis'
_chemical_formula_moiety         'C26 H42 N1 O3 1+,I1 1-,H2 O1'
_chemical_name_systematic        'Pingbeinone hydroiodide monohydrate'
_symmetry_cell_setting           orthorhombic
_symmetry_space_group_name_H-M   'P 21 21 21'
_symmetry_Int_Tables_number      19
_space_group_name_Hall           'P 2ac 2ab'
loop_
_symmetry_equiv_pos_site_id
_symmetry_equiv_pos_as_xyz
1 x,y,z
2 1/2+x,1/2-y,-z
3 -x,1/2+y,1/2-z
4 1/2-x,-y,1/2+z
_cell_length_a                   15.064(6)
_cell_length_b                   17.546(4)
_cell_length_c                   11.178(3)
_cell_angle_alpha                90
_cell_angle_beta                 90
_cell_angle_gamma                90
_cell_volume                     2954.49
_exptl_crystal_colour            white
_cell_formula_units_Z            4
loop_
_atom_site_label
_atom_site_type_symbol
_atom_site_fract_x
_atom_site_fract_y
_atom_site_fract_z
I1 I 1.0086(1) 0.3168(1) 0.4856(1)
O1 O 0.9019(5) 0.3356(5) 0.2007(7)
O2 O 0.8263(5) 0.0660(6) 0.3428(10)
O3 O 0.4024(4) 0.0723(4) 0.0818(6)
N1 N 0.4288(5) 0.0068(5) -0.1365(6)
C1 C 0.6932(7) 0.2488(7) 0.0774(9)
C2 C 0.7781(8) 0.2962(7) 0.0779(10)
C3 C 0.8182(7) 0.2928(7) 0.2050(10)
C4 C 0.8347(7) 0.2149(8) 0.2465(10)
C5 C 0.7495(6) 0.1693(6) 0.2465(7)
C6 C 0.7557(7) 0.0896(6) 0.3033(11)
C7 C 0.6715(6) 0.0436(6) 0.3069(9)
C8 C 0.6233(6) 0.0448(6) 0.1851(8)
C9 C 0.6184(6) 0.1243(6) 0.1355(6)
C10 C 0.7070(6) 0.1629(6) 0.1190(7)
C11 C 0.5563(6) 0.1096(6) 0.0245(9)
C12 C 0.4906(6) 0.0448(5) 0.0661(8)
C13 C 0.4855(6) -0.0193(5) -0.0327(9)
C14 C 0.5298(6) 0.0117(6) 0.1826(9)
C15 C 0.5206(7) -0.0725(7) 0.2009(10)
C16 C 0.4371(8) -0.1017(7) 0.1448(10)
C17 C 0.4487(7) -0.0953(5) 0.0064(8)
C18 C 0.7658(8) 0.1199(7) 0.0305(11)
C19 C 0.3584(7) -0.1074(7) -0.0665(9)
C20 C 0.2797(9) -0.1418(8) -0.0003(12)
C21 C 0.3404(6) -0.0301(6) -0.1150(9)
C22 C 0.2804(6) -0.0260(8) -0.2222(11)
C23 C 0.3236(7) -0.0563(7) -0.3369(10)
C24 C 0.4116(8) -0.0147(7) -0.3621(8)
C25 C 0.4735(6) -0.0203(7) -0.2555(8)
C26 C 0.4610(14) -0.0510(10) -0.4699(11)
O4 O 0.3848(11) 0.1924(13) 0.2488(14)
loop_
_geom_bond_atom_site_label_1
_geom_bond_atom_site_label_2
_geom_bond_site_symmetry_1
_geom_bond_site_symmetry_2
O1 C3 1_555 1_555
O2 C6 1_555 1_555
O3 C12 1_555 1_555
N1 C13 1_555 1_555
C1 C2 1_555 1_555
C2 C3 1_555 1_555
C3 C4 1_555 1_555
C4 C5 1_555 1_555
C5 C6 1_555 1_555
C6 C7 1_555 1_555
C7 C8 1_555 1_555
C8 C9 1_555 1_555
C9 C10 1_555 1_555
C10 C1 1_555 1_555
C11 C9 1_555 1_555
C12 C11 1_555 1_555
C13 C12 1_555 1_555
C14 C8 1_555 1_555
C15 C14 1_555 1_555
C16 C15 1_555 1_555
C17 C13 1_555 1_555
C18 C10 1_555 1_555
C19 C17 1_555 1_555
C20 C19 1_555 1_555
C21 N1 1_555 1_555
C22 C21 1_555 1_555
C23 C22 1_555 1_555
C24 C23 1_555 1_555
C25 N1 1_555 1_555
C26 C24 1_555 1_555
C5 C10 1_555 1_555
C12 C14 1_555 1_555
C16 C17 1_555 1_555
C19 C21 1_555 1_555
C24 C25 1_555 1_555

#END
