
#######################################################################
#
#                 Cambridge Crystallographic Data Centre
#                                CCDC 
#
#######################################################################
#
# If this CIF has been generated from an entry in the Cambridge 
# Structural Database, then it will include bibliographic, chemical, 
# crystal, experimental, refinement or atomic coordinate data resulting 
# from the CCDC's data processing and validation procedures.
#
#######################################################################

data_JATFUF01
_chemical_formula_moiety         'C6 H9 N3 O3'
_chemical_name_systematic        2,4,6-Trimethoxy-1,3,5-triazine
_symmetry_cell_setting           orthorhombic
_symmetry_space_group_name_H-M   'P n m a'
_symmetry_Int_Tables_number      62
_space_group_name_Hall           '-P 2ac 2n'
loop_
_symmetry_equiv_pos_site_id
_symmetry_equiv_pos_as_xyz
1 x,y,z
2 1/2-x,-y,1/2+z
3 1/2+x,1/2-y,1/2-z
4 -x,1/2+y,-z
5 -x,-y,-z
6 1/2+x,y,1/2-z
7 1/2-x,1/2+y,1/2+z
8 x,1/2-y,z
_cell_length_a                   8.406(2)
_cell_length_b                   6.520(1)
_cell_length_c                   14.294(3)
_cell_angle_alpha                90
_cell_angle_beta                 90
_cell_angle_gamma                90
_cell_volume                     783.413
_exptl_crystal_colour            white
_exptl_crystal_description       prisms
_cell_formula_units_Z            4
loop_
_atom_site_label
_atom_site_type_symbol
_atom_site_fract_x
_atom_site_fract_y
_atom_site_fract_z
N1 N 0.61744(8) 0.25000 0.48257(4)
O1 O 0.66383(7) 0.25000 0.63621(4)
C1 C 0.55550(9) 0.25000 0.56908(5)
N2 N 0.40216(8) 0.25000 0.59119(5)
O2 O 0.15302(7) 0.25000 0.53780(5)
C2 C 0.30668(9) 0.25000 0.51621(5)
N3 N 0.35001(7) 0.25000 0.42734(4)
O3 O 0.55160(7) 0.25000 0.32675(4)
C3 C 0.50782(8) 0.25000 0.41599(5)
C4 C 0.60610(12) 0.25000 0.73139(6)
C5 C 0.04251(11) 0.25000 0.46024(7)
C6 C 0.72064(11) 0.25000 0.30808(6)
H1 H 0.7044(22) 0.2500 0.7711(11)
H2 H 0.5437(14) 0.1285(17) 0.7426(8)
H3 H -0.0510(16) 0.2500 0.4908(11)
H4 H 0.0630(13) 0.1300(19) 0.4219(8)
H5 H 0.7244(20) 0.2500 0.2415(11)
H6 H 0.7668(11) 0.1295(15) 0.3350(7)
H2G H 0.5437(14) 0.3715(17) 0.7426(8)
H4G H 0.0630(13) 0.3700(19) 0.4219(8)
H6G H 0.7668(11) 0.3705(15) 0.3350(7)
loop_
_geom_bond_atom_site_label_1
_geom_bond_atom_site_label_2
_geom_bond_site_symmetry_1
_geom_bond_site_symmetry_2
N1 C1 1_555 1_555
O1 C1 1_555 1_555
C1 N2 1_555 1_555
N2 C2 1_555 1_555
O2 C2 1_555 1_555
C2 N3 1_555 1_555
N3 C3 1_555 1_555
O3 C3 1_555 1_555
C3 N1 1_555 1_555
C4 O1 1_555 1_555
C5 O2 1_555 1_555
C6 O3 1_555 1_555
H1 C4 1_555 1_555
H2 C4 1_555 1_555
H3 C5 1_555 1_555
H4 C5 1_555 1_555
H5 C6 1_555 1_555
H6 C6 1_555 1_555
H2G C4 1_555 1_555
H4G C5 1_555 1_555
H6G C6 1_555 1_555

#END
