
#######################################################################
#
#                 Cambridge Crystallographic Data Centre
#                                CCDC 
#
#######################################################################
#
# If this CIF has been generated from an entry in the Cambridge 
# Structural Database, then it will include bibliographic, chemical, 
# crystal, experimental, refinement or atomic coordinate data resulting 
# from the CCDC's data processing and validation procedures.
#
#######################################################################

data_JAVBEO
_chemical_formula_moiety         'C20 H30 N2 O3 S1'
_chemical_name_systematic        
'3-(1H-Indol-2-yl)-2-(2-methylpropane-2-sulfinylamino)hexanoic acid ethyl ester'
_symmetry_cell_setting           triclinic
_symmetry_space_group_name_H-M   'P -1'
_symmetry_Int_Tables_number      2
_space_group_name_Hall           '-P 1'
loop_
_symmetry_equiv_pos_site_id
_symmetry_equiv_pos_as_xyz
1 x,y,z
2 -x,-y,-z
_cell_length_a                   11.2030(2)
_cell_length_b                   13.3349(2)
_cell_length_c                   14.7243(3)
_cell_angle_alpha                95.661(1)
_cell_angle_beta                 96.933(1)
_cell_angle_gamma                103.407(1)
_cell_volume                     2105.74
_exptl_crystal_colour            colorless
_exptl_crystal_description       prisms
_chemical_melting_point          50-52deg.C
_cell_formula_units_Z            4
_exptl_crystal_recrystallization_method ether/pentane
loop_
_atom_site_label
_atom_site_type_symbol
_atom_site_fract_x
_atom_site_fract_y
_atom_site_fract_z
N1 N 0.83631(15) 0.14320(15) 0.95735(12)
C1 C 0.74661(19) 0.17657(16) 0.90544(14)
C2 C 0.7959(2) 0.27502(17) 0.88706(15)
H1 H 0.7534 0.3163 0.8515
C3 C 0.92336(19) 0.30484(16) 0.93037(15)
C4 C 1.0214(2) 0.39311(17) 0.93566(16)
H2 H 1.0085 0.4527 0.9079
C5 C 1.1356(2) 0.39348(18) 0.98201(16)
H3 H 1.2028 0.4542 0.9863
C6 C 1.1560(2) 0.30765(18) 1.02297(15)
H4 H 1.2377 0.3098 1.0531
C7 C 1.06136(19) 0.21972(17) 1.01984(14)
H5 H 1.0748 0.1610 1.0487
C8 C 0.94536(18) 0.21960(16) 0.97316(14)
C9 C 0.62042(18) 0.10368(16) 0.87418(14)
H6 H 0.6188 0.0410 0.9015
C10 C 0.51678(18) 0.14919(16) 0.90705(14)
H7 H 0.5113 0.2080 0.8756
N2 N 0.39888(15) 0.06960(14) 0.88208(12)
S1 S 0.26897(5) 0.10219(4) 0.89998(4)
O1 O 0.22411(13) 0.05565(11) 0.98157(10)
C11 C 0.16591(19) 0.02361(16) 0.79814(14)
C12 C 0.2107(2) 0.06960(19) 0.71443(15)
H8 H 0.1606 0.0317 0.6586
H9 H 0.2057 0.1408 0.7190
H10 H 0.2954 0.0666 0.7137
C13 C 0.0374(2) 0.0390(2) 0.80951(17)
H11 H -0.0224 -0.0002 0.7587
H12 H 0.0149 0.0157 0.8662
H13 H 0.0393 0.1115 0.8111
C14 C 0.1685(2) -0.09024(16) 0.79438(16)
H14 H 0.1143 -0.1299 0.7409
H15 H 0.2518 -0.0960 0.7911
H16 H 0.1420 -0.1164 0.8490
C15 C 0.54594(18) 0.18412(16) 1.01057(14)
O2 O 0.56764(14) 0.12827(11) 1.06751(10)
O3 O 0.54272(13) 0.28230(10) 1.03174(9)
C16 C 0.5776(2) 0.32601(17) 1.12920(14)
H17 H 0.5420 0.2761 1.1673
H18 H 0.5463 0.3866 1.1402
C17 C 0.7160(2) 0.35515(18) 1.15395(17)
H19 H 0.7395 0.3841 1.2177
H20 H 0.7466 0.2941 1.1432
H21 H 0.7509 0.4055 1.1159
C18 C 0.5969(2) 0.07340(19) 0.76907(15)
H22 H 0.5984 0.1357 0.7412
H23 H 0.5152 0.0283 0.7520
C19 C 0.6901(2) 0.01872(18) 0.73164(16)
H24 H 0.7721 0.0634 0.7484
H25 H 0.6720 0.0067 0.6655
C20 C 0.6884(2) -0.08495(18) 0.76669(17)
H26 H 0.7479 -0.1168 0.7416
H27 H 0.7078 -0.0729 0.8328
H28 H 0.6068 -0.1301 0.7491
H57 H 0.405(2) 0.0106(17) 0.9037(15)
H60 H 0.824(2) 0.0845(18) 0.9793(15)
N3 N 1.30029(15) 0.43382(14) 0.63132(13)
C21 C 1.18735(18) 0.38475(16) 0.65402(14)
C22 C 1.20415(18) 0.36211(15) 0.74199(14)
H29 H 1.1403 0.3291 0.7750
C23 C 1.33444(18) 0.39613(15) 0.77631(14)
C24 C 1.40896(19) 0.39247(16) 0.85880(14)
H30 H 1.3722 0.3643 0.9093
C25 C 1.53547(19) 0.43158(16) 0.86695(15)
H31 H 1.5873 0.4288 0.9231
C26 C 1.59031(19) 0.47470(16) 0.79471(15)
H32 H 1.6788 0.5004 0.8023
C27 C 1.51973(18) 0.48037(16) 0.71274(15)
H33 H 1.5570 0.5109 0.6633
C28 C 1.39257(18) 0.44058(15) 0.70457(14)
C29 C 1.07466(18) 0.35750(16) 0.58100(14)
H34 H 1.0927 0.3998 0.5329
C30 C 0.96220(18) 0.38423(16) 0.61864(14)
H35 H 0.9418 0.3424 0.6667
N4 N 0.85575(15) 0.35735(15) 0.54395(13)
S2 S 0.71927(5) 0.37183(4) 0.56802(4)
O4 O 0.69852(13) 0.47203(12) 0.53992(10)
C31 C 0.6182(2) 0.26895(18) 0.48032(16)
C32 C 0.6514(2) 0.2820(2) 0.38468(16)
H36 H 0.5974 0.2276 0.3406
H37 H 0.6418 0.3483 0.3692
H38 H 0.7359 0.2786 0.3836
C33 C 0.4876(2) 0.2811(2) 0.4871(2)
H39 H 0.4290 0.2299 0.4429
H40 H 0.4699 0.2711 0.5482
H41 H 0.4816 0.3494 0.4751
C34 C 0.6351(3) 0.1652(2) 0.5086(2)
H42 H 0.5849 0.1082 0.4653
H43 H 0.7209 0.1645 0.5107
H44 H 0.6116 0.1587 0.5687
C35 C 0.99188(19) 0.49889(17) 0.65734(14)
O5 O 1.05139(13) 0.56842(12) 0.62213(10)
O6 O 0.93951(13) 0.51359(11) 0.73201(10)
C36 C 0.9573(2) 0.62149(18) 0.77374(16)
H45 H 1.0409 0.6591 0.7719
H46 H 0.9445 0.6230 0.8371
C37 C 0.8679(2) 0.67315(18) 0.72485(17)
H47 H 0.8804 0.7439 0.7522
H48 H 0.8816 0.6719 0.6617
H49 H 0.7845 0.6355 0.7274
C38 C 1.04801(19) 0.24342(17) 0.53893(15)
H50 H 0.9842 0.2302 0.4864
H51 H 1.0182 0.1999 0.5837
C39 C 1.16219(19) 0.21361(17) 0.50808(15)
H52 H 1.2219 0.2173 0.5616
H53 H 1.1987 0.2630 0.4699
C40 C 1.1320(2) 0.10630(19) 0.45382(17)
H54 H 1.2057 0.0903 0.4357
H55 H 1.0965 0.0568 0.4924
H56 H 1.0731 0.1030 0.3998
H58 H 1.3075(19) 0.4604(16) 0.5831(15)
H59 H 0.873(2) 0.3842(18) 0.4993(17)
loop_
_geom_bond_atom_site_label_1
_geom_bond_atom_site_label_2
_geom_bond_site_symmetry_1
_geom_bond_site_symmetry_2
N1 C1 1_555 1_555
C1 C2 1_555 1_555
C2 H1 1_555 1_555
C3 C2 1_555 1_555
C4 C3 1_555 1_555
H2 C4 1_555 1_555
C5 C4 1_555 1_555
H3 C5 1_555 1_555
C6 C5 1_555 1_555
H4 C6 1_555 1_555
C7 C6 1_555 1_555
H5 C7 1_555 1_555
C8 N1 1_555 1_555
C9 C1 1_555 1_555
H6 C9 1_555 1_555
C10 C9 1_555 1_555
H7 C10 1_555 1_555
N2 C10 1_555 1_555
S1 N2 1_555 1_555
O1 S1 1_555 1_555
C11 S1 1_555 1_555
C12 C11 1_555 1_555
H8 C12 1_555 1_555
H9 C12 1_555 1_555
H10 C12 1_555 1_555
C13 C11 1_555 1_555
H11 C13 1_555 1_555
H12 C13 1_555 1_555
H13 C13 1_555 1_555
C14 C11 1_555 1_555
H14 C14 1_555 1_555
H15 C14 1_555 1_555
H16 C14 1_555 1_555
C15 C10 1_555 1_555
O2 C15 1_555 1_555
O3 C15 1_555 1_555
C16 O3 1_555 1_555
H17 C16 1_555 1_555
H18 C16 1_555 1_555
C17 C16 1_555 1_555
H19 C17 1_555 1_555
H20 C17 1_555 1_555
H21 C17 1_555 1_555
C18 C9 1_555 1_555
H22 C18 1_555 1_555
H23 C18 1_555 1_555
C19 C18 1_555 1_555
H24 C19 1_555 1_555
H25 C19 1_555 1_555
C20 C19 1_555 1_555
H26 C20 1_555 1_555
H27 C20 1_555 1_555
H28 C20 1_555 1_555
N3 C21 1_555 1_555
C21 C22 1_555 1_555
C22 H29 1_555 1_555
C23 C22 1_555 1_555
C24 C23 1_555 1_555
H30 C24 1_555 1_555
C25 C24 1_555 1_555
H31 C25 1_555 1_555
C26 C25 1_555 1_555
H32 C26 1_555 1_555
C27 C26 1_555 1_555
H33 C27 1_555 1_555
C28 N3 1_555 1_555
C29 C21 1_555 1_555
H34 C29 1_555 1_555
C30 C29 1_555 1_555
H35 C30 1_555 1_555
N4 C30 1_555 1_555
S2 N4 1_555 1_555
O4 S2 1_555 1_555
C31 S2 1_555 1_555
C32 C31 1_555 1_555
H36 C32 1_555 1_555
H37 C32 1_555 1_555
H38 C32 1_555 1_555
C33 C31 1_555 1_555
H39 C33 1_555 1_555
H40 C33 1_555 1_555
H41 C33 1_555 1_555
C34 C31 1_555 1_555
H42 C34 1_555 1_555
H43 C34 1_555 1_555
H44 C34 1_555 1_555
C35 C30 1_555 1_555
O5 C35 1_555 1_555
O6 C35 1_555 1_555
C36 O6 1_555 1_555
H45 C36 1_555 1_555
H46 C36 1_555 1_555
C37 C36 1_555 1_555
H47 C37 1_555 1_555
H48 C37 1_555 1_555
H49 C37 1_555 1_555
C38 C29 1_555 1_555
H50 C38 1_555 1_555
H51 C38 1_555 1_555
C39 C38 1_555 1_555
H52 C39 1_555 1_555
H53 C39 1_555 1_555
C40 C39 1_555 1_555
H54 C40 1_555 1_555
H55 C40 1_555 1_555
H56 C40 1_555 1_555
H57 N2 1_555 1_555
H58 N3 1_555 1_555
H59 N4 1_555 1_555
H60 N1 1_555 1_555
C3 C8 1_555 1_555
C7 C8 1_555 1_555
C23 C28 1_555 1_555
C27 C28 1_555 1_555

#END
