
#######################################################################
#
#                 Cambridge Crystallographic Data Centre
#                                CCDC 
#
#######################################################################
#
# If this CIF has been generated from an entry in the Cambridge 
# Structural Database, then it will include bibliographic, chemical, 
# crystal, experimental, refinement or atomic coordinate data resulting 
# from the CCDC's data processing and validation procedures.
#
#######################################################################

data_JAVDUI
_chemical_formula_moiety         'C6 H16 N1 1+,C7 H3 N2 O7 1-'
_chemical_name_systematic        
'N-isopropylpropan-2-aminium 2-hydroxy-3,5-dinitrobenzoate'
_symmetry_cell_setting           monoclinic
_symmetry_space_group_name_H-M   'C 2/c'
_symmetry_Int_Tables_number      15
_space_group_name_Hall           '-C 2yn'
loop_
_symmetry_equiv_pos_site_id
_symmetry_equiv_pos_as_xyz
1 x,y,z
2 -x,y,1/2-z
3 1/2+x,1/2+y,z
4 1/2-x,1/2+y,1/2-z
5 -x,-y,-z
6 x,-y,1/2+z
7 1/2-x,1/2-y,-z
8 1/2+x,1/2-y,1/2+z
_cell_length_a                   24.120(2)
_cell_length_b                   7.1300(6)
_cell_length_c                   21.6001(19)
_cell_angle_alpha                90
_cell_angle_beta                 120.760(2)
_cell_angle_gamma                90
_cell_volume                     3192.1
_exptl_crystal_colour            colorless
_exptl_crystal_description       block
_cell_formula_units_Z            8
loop_
_atom_site_label
_atom_site_type_symbol
_atom_site_fract_x
_atom_site_fract_y
_atom_site_fract_z
N1 N 0.79877(16) 0.2782(5) 0.11960(18)
H1 H 0.8074 0.2166 0.0892
H2 H 0.7593 0.3293 0.0929
C1 C 0.7952(3) 0.1356(8) 0.1687(3)
H3 H 0.8368 0.0707 0.1949
C2 C 0.7826(3) 0.2312(10) 0.2229(3)
H4 H 0.7414 0.2929 0.1981
H5 H 0.8158 0.3220 0.2497
H6 H 0.7825 0.1392 0.2553
C3 C 0.7443(3) -0.0050(9) 0.1227(3)
H7 H 0.7026 0.0525 0.1017
H8 H 0.7465 -0.1096 0.1519
H9 H 0.7514 -0.0479 0.0852
C4 C 0.8461(2) 0.4346(7) 0.1523(3)
H10 H 0.8358 0.5063 0.1839
C5 C 0.9139(3) 0.3633(10) 0.1964(3)
H11 H 0.9179 0.2889 0.2356
H12 H 0.9431 0.4675 0.2153
H13 H 0.9240 0.2879 0.1667
C6 C 0.8373(3) 0.5608(8) 0.0921(3)
H14 H 0.8511 0.4964 0.0632
H15 H 0.8627 0.6723 0.1120
H16 H 0.7927 0.5943 0.0627
N2 N 0.4964(3) 0.1824(6) 0.5619(3)
N3 N 0.4261(3) 0.2992(7) 0.3118(3)
O1 O 0.68477(16) 0.5169(5) 0.5645(2)
O2 O 0.65532(17) 0.5505(5) 0.4492(2)
O3 O 0.61621(17) 0.3489(5) 0.59814(18)
H17 H 0.6484 0.3982 0.6015
O4 O 0.5375(3) 0.1748(7) 0.6233(3)
O5 O 0.4409(2) 0.1291(6) 0.5387(3)
O6 O 0.3736(2) 0.2400(8) 0.2974(2)
O7 O 0.4386(2) 0.3511(8) 0.2672(2)
C7 C 0.6459(2) 0.4967(6) 0.4975(3)
C8 C 0.58337(19) 0.4016(5) 0.4769(2)
C9 C 0.5718(2) 0.3336(6) 0.5304(2)
C10 C 0.5120(2) 0.2548(6) 0.5089(3)
C11 C 0.4649(2) 0.2448(6) 0.4385(3)
H18 H 0.4247 0.1942 0.4253
C12 C 0.4772(2) 0.3097(6) 0.3877(2)
C13 C 0.5356(2) 0.3872(6) 0.4052(2)
H19 H 0.5430 0.4295 0.3693
loop_
_geom_bond_atom_site_label_1
_geom_bond_atom_site_label_2
_geom_bond_site_symmetry_1
_geom_bond_site_symmetry_2
N1 H1 1_555 1_555
H2 N1 1_555 1_555
C1 N1 1_555 1_555
H3 C1 1_555 1_555
C2 C1 1_555 1_555
H4 C2 1_555 1_555
H5 C2 1_555 1_555
H6 C2 1_555 1_555
C3 C1 1_555 1_555
H7 C3 1_555 1_555
H8 C3 1_555 1_555
H9 C3 1_555 1_555
C4 N1 1_555 1_555
H10 C4 1_555 1_555
C5 C4 1_555 1_555
H11 C5 1_555 1_555
H12 C5 1_555 1_555
H13 C5 1_555 1_555
C6 C4 1_555 1_555
H14 C6 1_555 1_555
H15 C6 1_555 1_555
H16 C6 1_555 1_555
N2 O4 1_555 1_555
N3 O6 1_555 1_555
O1 C7 1_555 1_555
O2 C7 1_555 1_555
O3 H17 1_555 1_555
O5 N2 1_555 1_555
O7 N3 1_555 1_555
C7 C8 1_555 1_555
C8 C9 1_555 1_555
C9 O3 1_555 1_555
C10 N2 1_555 1_555
C11 C10 1_555 1_555
H18 C11 1_555 1_555
C12 N3 1_555 1_555
C13 C8 1_555 1_555
H19 C13 1_555 1_555
C9 C10 1_555 1_555
C11 C12 1_555 1_555
C12 C13 1_555 1_555

#END
