
#######################################################################
#
#                 Cambridge Crystallographic Data Centre
#                                CCDC 
#
#######################################################################
#
# If this CIF has been generated from an entry in the Cambridge 
# Structural Database, then it will include bibliographic, chemical, 
# crystal, experimental, refinement or atomic coordinate data resulting 
# from the CCDC's data processing and validation procedures.
#
#######################################################################

data_JAVDES
_chemical_formula_moiety         'C6 H16 N1 1+,C11 H7 O3 1-'
_chemical_name_systematic        
'N-isopropylpropan-2-aminium 3-hydroxy-2-naphthoate'
_symmetry_cell_setting           monoclinic
_symmetry_space_group_name_H-M   'C 2/c'
_symmetry_Int_Tables_number      15
_space_group_name_Hall           '-C 2yn'
loop_
_symmetry_equiv_pos_site_id
_symmetry_equiv_pos_as_xyz
1 x,y,z
2 -x,y,1/2-z
3 1/2+x,1/2+y,z
4 1/2-x,1/2+y,1/2-z
5 -x,-y,-z
6 x,-y,1/2+z
7 1/2-x,1/2-y,-z
8 1/2+x,1/2-y,1/2+z
_cell_length_a                   19.734(11)
_cell_length_b                   8.443(4)
_cell_length_c                   19.141(9)
_cell_angle_alpha                90
_cell_angle_beta                 91.023(11)
_cell_angle_gamma                90
_cell_volume                     3188.65
_exptl_crystal_colour            colorless
_exptl_crystal_description       block
_cell_formula_units_Z            8
loop_
_atom_site_label
_atom_site_type_symbol
_atom_site_fract_x
_atom_site_fract_y
_atom_site_fract_z
N1 N 0.07461(11) 0.0814(2) 0.07562(11)
H1 H 0.0574 0.1313 0.0377
H2 H 0.0446 0.0064 0.0876
C1 C 0.07888(15) 0.1994(3) 0.13406(15)
H3 H 0.1126 0.2798 0.1221
C2 C 0.10147(18) 0.1196(4) 0.20096(16)
H4 H 0.0694 0.0390 0.2129
H5 H 0.1042 0.1966 0.2378
H6 H 0.1452 0.0724 0.1947
C3 C 0.01107(17) 0.2794(4) 0.14037(17)
H7 H -0.0011 0.3289 0.0967
H8 H 0.0136 0.3583 0.1764
H9 H -0.0226 0.2022 0.1519
C4 C 0.13846(14) -0.0006(3) 0.05446(15)
H10 H 0.1556 -0.0625 0.0943
C5 C 0.19225(15) 0.1166(4) 0.03425(16)
H11 H 0.2315 0.0607 0.0186
H12 H 0.2043 0.1807 0.0740
H13 H 0.1751 0.1831 -0.0027
C6 C 0.12101(17) -0.1128(4) -0.00407(17)
H14 H 0.0869 -0.1856 0.0109
H15 H 0.1608 -0.1705 -0.0169
H16 H 0.1042 -0.0539 -0.0436
O1 O 0.00777(11) 0.8536(3) 0.36902(11)
O2 O 0.04256(11) 0.7196(2) 0.46298(11)
O3 O 0.13111(11) 0.5035(2) 0.45351(10)
H17 H 0.1018 0.5579 0.4716
C7 C 0.04261(15) 0.7489(3) 0.39805(17)
C8 C 0.09235(14) 0.6767(3) 0.28380(15)
H18 H 0.0624 0.7485 0.2632
C9 C 0.08937(13) 0.6521(3) 0.35395(15)
C10 C 0.13377(15) 0.5373(3) 0.38479(15)
C11 C 0.17944(15) 0.4596(3) 0.34455(17)
H19 H 0.2079 0.3846 0.3653
C12 C 0.18474(14) 0.4896(3) 0.27307(15)
C13 C 0.13869(13) 0.5982(3) 0.24126(15)
C14 C 0.14287(16) 0.6260(3) 0.16866(16)
H20 H 0.1115 0.6927 0.1469
C15 C 0.19193(18) 0.5568(4) 0.13012(17)
H21 H 0.1945 0.5777 0.0825
C16 C 0.23868(17) 0.4540(4) 0.1624(2)
H22 H 0.2730 0.4093 0.1362
C17 C 0.23460(15) 0.4188(4) 0.23099(19)
H23 H 0.2650 0.3469 0.2509
loop_
_geom_bond_atom_site_label_1
_geom_bond_atom_site_label_2
_geom_bond_site_symmetry_1
_geom_bond_site_symmetry_2
N1 H1 1_555 1_555
H2 N1 1_555 1_555
C1 N1 1_555 1_555
H3 C1 1_555 1_555
C2 C1 1_555 1_555
H4 C2 1_555 1_555
H5 C2 1_555 1_555
H6 C2 1_555 1_555
C3 C1 1_555 1_555
H7 C3 1_555 1_555
H8 C3 1_555 1_555
H9 C3 1_555 1_555
C4 N1 1_555 1_555
H10 C4 1_555 1_555
C5 C4 1_555 1_555
H11 C5 1_555 1_555
H12 C5 1_555 1_555
H13 C5 1_555 1_555
C6 C4 1_555 1_555
H14 C6 1_555 1_555
H15 C6 1_555 1_555
H16 C6 1_555 1_555
O1 C7 1_555 1_555
O2 C7 1_555 1_555
O3 H17 1_555 1_555
C7 C9 1_555 1_555
C8 H18 1_555 1_555
C9 C8 1_555 1_555
C10 O3 1_555 1_555
C11 C10 1_555 1_555
H19 C11 1_555 1_555
C12 C11 1_555 1_555
C13 C8 1_555 1_555
C14 C13 1_555 1_555
H20 C14 1_555 1_555
C15 C14 1_555 1_555
H21 C15 1_555 1_555
C16 C15 1_555 1_555
H22 C16 1_555 1_555
C17 C12 1_555 1_555
H23 C17 1_555 1_555
C9 C10 1_555 1_555
C12 C13 1_555 1_555
C16 C17 1_555 1_555

#END
