
#######################################################################
#
#                 Cambridge Crystallographic Data Centre
#                                CCDC 
#
#######################################################################
#
# If this CIF has been generated from an entry in the Cambridge 
# Structural Database, then it will include bibliographic, chemical, 
# crystal, experimental, refinement or atomic coordinate data resulting 
# from the CCDC's data processing and validation procedures.
#
#######################################################################

data_JAVFOE
_chemical_formula_moiety         'C6 H16 N1 1+,C10 H9 O4 1-'
_chemical_name_systematic        
'N-isopropylpropan-2-aminium (2-(carboxymethyl)phenyl)acetate'
_symmetry_cell_setting           triclinic
_symmetry_space_group_name_H-M   'P -1'
_symmetry_Int_Tables_number      2
_space_group_name_Hall           '-P 1'
loop_
_symmetry_equiv_pos_site_id
_symmetry_equiv_pos_as_xyz
1 x,y,z
2 -x,-y,-z
_cell_length_a                   8.0675(8)
_cell_length_b                   9.2168(9)
_cell_length_c                   11.8716(11)
_cell_angle_alpha                94.1500(10)
_cell_angle_beta                 101.726(2)
_cell_angle_gamma                92.2610(10)
_cell_volume                     860.716
_exptl_crystal_colour            colorless
_exptl_crystal_description       block
_cell_formula_units_Z            2
loop_
_atom_site_label
_atom_site_type_symbol
_atom_site_fract_x
_atom_site_fract_y
_atom_site_fract_z
N1 N 0.1147(2) 0.91518(17) 0.18509(15)
H1 H 0.1195 0.9955 0.1468
H2 H 0.0362 0.8523 0.1403
C1 C 0.2832(3) 0.8476(2) 0.1957(2)
H3 H 0.2727 0.7505 0.2230
C2 C 0.4199(3) 0.9370(3) 0.2817(3)
H4 H 0.5268 0.8938 0.2842
H5 H 0.3926 0.9397 0.3568
H6 H 0.4272 1.0344 0.2586
C3 C 0.3248(4) 0.8308(3) 0.0774(2)
H7 H 0.2365 0.7716 0.0260
H8 H 0.4305 0.7850 0.0820
H9 H 0.3337 0.9250 0.0489
C4 C 0.0515(3) 0.9577(3) 0.2922(2)
H10 H 0.1334 1.0294 0.3407
C5 C 0.0346(4) 0.8254(3) 0.3600(2)
H11 H -0.0431 0.7531 0.3126
H12 H -0.0073 0.8543 0.4279
H13 H 0.1435 0.7855 0.3820
C6 C -0.1149(3) 1.0286(3) 0.2569(3)
H14 H -0.0981 1.1113 0.2150
H15 H -0.1563 1.0597 0.3245
H16 H -0.1961 0.9597 0.2087
O1 O 0.1323(2) 0.16681(16) 0.07557(16)
O2 O 0.1164(2) 0.30687(16) -0.06722(14)
O3 O 0.6007(2) 0.60482(18) 0.22960(17)
O4 O 0.7506(2) 0.46634(17) 0.13306(17)
H17 H 0.7880 0.5456 0.1191
C7 C 0.1525(3) 0.2856(2) 0.0393(2)
C8 C 0.2130(3) 0.4195(2) 0.1230(2)
H18 H 0.3079 0.4679 0.0994
H19 H 0.1224 0.4864 0.1162
C9 C 0.6387(3) 0.4862(2) 0.1972(2)
C10 C 0.5639(3) 0.3432(2) 0.2239(2)
H20 H 0.5155 0.2872 0.1516
H21 H 0.6551 0.2890 0.2644
C11 C 0.2668(3) 0.3906(2) 0.2476(2)
C12 C 0.4300(3) 0.3538(2) 0.2949(2)
C13 C 0.4687(4) 0.3251(3) 0.4105(2)
H22 H 0.5775 0.2995 0.4427
C14 C 0.3485(6) 0.3337(3) 0.4781(3)
H23 H 0.3760 0.3131 0.5550
C15 C 0.1915(6) 0.3721(3) 0.4325(4)
H24 H 0.1113 0.3800 0.4786
C16 C 0.1485(4) 0.3998(3) 0.3188(3)
H25 H 0.0389 0.4251 0.2885
loop_
_geom_bond_atom_site_label_1
_geom_bond_atom_site_label_2
_geom_bond_site_symmetry_1
_geom_bond_site_symmetry_2
N1 H1 1_555 1_555
H2 N1 1_555 1_555
C1 N1 1_555 1_555
H3 C1 1_555 1_555
C2 C1 1_555 1_555
H4 C2 1_555 1_555
H5 C2 1_555 1_555
H6 C2 1_555 1_555
C3 C1 1_555 1_555
H7 C3 1_555 1_555
H8 C3 1_555 1_555
H9 C3 1_555 1_555
C4 N1 1_555 1_555
H10 C4 1_555 1_555
C5 C4 1_555 1_555
H11 C5 1_555 1_555
H12 C5 1_555 1_555
H13 C5 1_555 1_555
C6 C4 1_555 1_555
H14 C6 1_555 1_555
H15 C6 1_555 1_555
H16 C6 1_555 1_555
O1 C7 1_555 1_555
O2 C7 1_555 1_555
O3 C9 1_555 1_555
O4 H17 1_555 1_555
C7 C8 1_555 1_555
C8 H18 1_555 1_555
H19 C8 1_555 1_555
C9 O4 1_555 1_555
C10 C9 1_555 1_555
H20 C10 1_555 1_555
H21 C10 1_555 1_555
C11 C8 1_555 1_555
C12 C10 1_555 1_555
C13 C12 1_555 1_555
H22 C13 1_555 1_555
C14 C13 1_555 1_555
H23 C14 1_555 1_555
C15 C14 1_555 1_555
H24 C15 1_555 1_555
C16 C11 1_555 1_555
H25 C16 1_555 1_555
C11 C12 1_555 1_555
C15 C16 1_555 1_555

#END
