
#######################################################################
#
#                 Cambridge Crystallographic Data Centre
#                                CCDC 
#
#######################################################################
#
# If this CIF has been generated from an entry in the Cambridge 
# Structural Database, then it will include bibliographic, chemical, 
# crystal, experimental, refinement or atomic coordinate data resulting 
# from the CCDC's data processing and validation procedures.
#
#######################################################################

data_JAVHUM
_chemical_formula_moiety         'C10 H12 N3 1+,H1 O4 S1 1-,H2 O1'
_chemical_name_systematic        
'7-amino-2,4-dimethyl-1,8-naphthyridin-1-ium hydrogen sulfate monohydrate'
_symmetry_cell_setting           orthorhombic
_symmetry_space_group_name_H-M   'P 21 21 21'
_symmetry_Int_Tables_number      19
_space_group_name_Hall           'P 2ac 2ab'
loop_
_symmetry_equiv_pos_site_id
_symmetry_equiv_pos_as_xyz
1 x,y,z
2 1/2-x,-y,1/2+z
3 -x,1/2+y,1/2-z
4 1/2+x,1/2-y,-z
_cell_length_a                   6.6228(5)
_cell_length_b                   10.6452(11)
_cell_length_c                   18.3747(18)
_cell_angle_alpha                90
_cell_angle_beta                 90
_cell_angle_gamma                90
_cell_volume                     1295.44
_exptl_crystal_colour            colorless
_exptl_crystal_description       BLOCK
_cell_formula_units_Z            4
loop_
_atom_site_label
_atom_site_type_symbol
_atom_site_fract_x
_atom_site_fract_y
_atom_site_fract_z
N1 N 0.5222(7) 0.4177(3) 0.45325(19)
N2 N 0.5228(8) 0.4082(3) 0.57748(19)
H1 H 0.5205 0.4889 0.5762
N3 N 0.5196(10) 0.4295(4) 0.3299(2)
H2 H 0.5179 0.5100 0.3338
H3 H 0.5195 0.3951 0.2876
C1 C 0.5223(9) 0.3583(4) 0.3893(2)
C2 C 0.5260(8) 0.2242(4) 0.3842(3)
H4 H 0.5272 0.1859 0.3387
C3 C 0.5276(9) 0.1538(4) 0.4444(3)
H5 H 0.5290 0.0666 0.4409
C4 C 0.5272(8) 0.2134(4) 0.5150(2)
C5 C 0.5250(8) 0.3443(4) 0.5129(2)
C6 C 0.5239(9) 0.3517(4) 0.6429(2)
C7 C 0.5289(9) 0.2224(4) 0.6443(3)
H6 H 0.5326 0.1819 0.6891
C8 C 0.5285(9) 0.1501(4) 0.5811(3)
C9 C 0.5255(12) 0.4319(5) 0.7092(3)
H7 H 0.6547 0.4720 0.7137
H8 H 0.5008 0.3808 0.7513
H9 H 0.4220 0.4947 0.7052
C10 C 0.5304(11) 0.0090(4) 0.5857(3)
H10 H 0.5022 -0.0165 0.6348
H11 H 0.6609 -0.0218 0.5715
H12 H 0.4294 -0.0247 0.5537
O1 O 0.5526(14) 0.2921(8) 0.0700(4)
O2 O 0.4408(13) 0.4145(5) 0.1681(3)
O3 O 0.5907(14) 0.2147(9) 0.1917(5)
O4 O 0.2737(9) 0.2217(5) 0.1415(3)
H13 H 0.1947 0.2607 0.1156
S1 S 0.4791(3) 0.28991(12) 0.14291(7)
O9 O 0.4803(7) 0.1763(3) 0.93726(18)
H15 H 0.5126 0.2100 0.9776
H16 H 0.3534 0.1833 0.9319
O5? O 0.591(7) 0.218(3) 0.090(2)
O6? O 0.395(6) 0.203(3) 0.1956(17)
O7? O 0.626(6) 0.368(3) 0.1834(18)
O8? O 0.332(5) 0.369(3) 0.1112(19)
H14? H 0.2317 0.3272 0.1013
loop_
_geom_bond_atom_site_label_1
_geom_bond_atom_site_label_2
_geom_bond_site_symmetry_1
_geom_bond_site_symmetry_2
N1 C1 1_555 1_555
N2 H1 1_555 1_555
N3 H2 1_555 1_555
H3 N3 1_555 1_555
C1 N3 1_555 1_555
C2 C1 1_555 1_555
H4 C2 1_555 1_555
C3 C2 1_555 1_555
H5 C3 1_555 1_555
C4 C3 1_555 1_555
C5 N1 1_555 1_555
C6 N2 1_555 1_555
C7 C6 1_555 1_555
H6 C7 1_555 1_555
C8 C4 1_555 1_555
C9 C6 1_555 1_555
H7 C9 1_555 1_555
H8 C9 1_555 1_555
H9 C9 1_555 1_555
C10 C8 1_555 1_555
H10 C10 1_555 1_555
H11 C10 1_555 1_555
H12 C10 1_555 1_555
O1 S1 1_555 1_555
O2 S1 1_555 1_555
O3 S1 1_555 1_555
O4 H13 1_555 1_555
S1 O4 1_555 1_555
O9 H15 1_555 1_555
H16 O9 1_555 1_555
N2 C5 1_555 1_555
C4 C5 1_555 1_555
C7 C8 1_555 1_555

#END
