
#######################################################################
#
#                 Cambridge Crystallographic Data Centre
#                                CCDC 
#
#######################################################################
#
# If this CIF has been generated from an entry in the Cambridge 
# Structural Database, then it will include bibliographic, chemical, 
# crystal, experimental, refinement or atomic coordinate data resulting 
# from the CCDC's data processing and validation procedures.
#
#######################################################################

data_JAVHOG
_chemical_formula_moiety         'C10 H12 N3 1+,C1 H4 O1,Br1 1-'
_chemical_name_systematic        
'7-amino-2,4-dimethyl-1,8-naphthyridin-1-ium bromide methanol solvate'
_symmetry_cell_setting           monoclinic
_symmetry_space_group_name_H-M   'P 21/n'
_symmetry_Int_Tables_number      14
_space_group_name_Hall           '-P 2yn'
loop_
_symmetry_equiv_pos_site_id
_symmetry_equiv_pos_as_xyz
1 x,y,z
2 1/2-x,1/2+y,1/2-z
3 -x,-y,-z
4 1/2+x,1/2-y,1/2+z
_cell_length_a                   7.3583(5)
_cell_length_b                   9.4936(4)
_cell_length_c                   18.1879(9)
_cell_angle_alpha                90
_cell_angle_beta                 91.5460(10)
_cell_angle_gamma                90
_cell_volume                     1270.09
_exptl_crystal_colour            colorless
_exptl_crystal_description       block
_cell_formula_units_Z            4
loop_
_atom_site_label
_atom_site_type_symbol
_atom_site_fract_x
_atom_site_fract_y
_atom_site_fract_z
Br1 Br 0.55822(9) 0.97538(5) 0.68677(3)
N1 N 0.7912(5) 0.4776(4) 0.57284(19)
N2 N 0.8100(5) 0.6597(4) 0.49107(18)
H1 H 0.8527 0.7079 0.5276
N3 N 0.7671(6) 0.2964(4) 0.65538(18)
H2 H 0.8145 0.3496 0.6890
H3 H 0.7362 0.2114 0.6658
C1 C 0.7417(6) 0.3454(5) 0.5871(2)
C2 C 0.6663(7) 0.2542(5) 0.5309(2)
H4 H 0.6347 0.1621 0.5425
C3 C 0.6416(7) 0.3017(5) 0.4618(2)
H5 H 0.5927 0.2426 0.4257
C4 C 0.6901(6) 0.4425(5) 0.4439(2)
C5 C 0.7631(6) 0.5223(5) 0.5033(2)
C6 C 0.7933(7) 0.7235(5) 0.4255(2)
C7 C 0.7259(7) 0.6457(5) 0.3669(2)
H6 H 0.7170 0.6877 0.3208
C8 C 0.6711(7) 0.5081(5) 0.3743(2)
C9 C 0.8492(8) 0.8744(5) 0.4204(3)
H7 H 0.7442 0.9316 0.4097
H8 H 0.9347 0.8850 0.3818
H9 H 0.9047 0.9035 0.4662
C10 C 0.5876(8) 0.4289(6) 0.3092(2)
H10 H 0.4611 0.4526 0.3039
H11 H 0.6000 0.3294 0.3173
H12 H 0.6491 0.4546 0.2653
O1 O 0.8932(6) 0.8324(4) 0.60627(17)
H13 H 0.8050 0.8751 0.6215
C11 C 0.9857(9) 0.7690(7) 0.6647(3)
H14 H 1.1089 0.8023 0.6670
H15 H 0.9850 0.6687 0.6581
H16 H 0.9272 0.7921 0.7097
loop_
_geom_bond_atom_site_label_1
_geom_bond_atom_site_label_2
_geom_bond_site_symmetry_1
_geom_bond_site_symmetry_2
N1 C1 1_555 1_555
N2 H1 1_555 1_555
N3 H2 1_555 1_555
H3 N3 1_555 1_555
C1 N3 1_555 1_555
C2 C1 1_555 1_555
H4 C2 1_555 1_555
C3 C2 1_555 1_555
H5 C3 1_555 1_555
C4 C3 1_555 1_555
C5 N1 1_555 1_555
C6 N2 1_555 1_555
C7 C6 1_555 1_555
H6 C7 1_555 1_555
C8 C4 1_555 1_555
C9 C6 1_555 1_555
H7 C9 1_555 1_555
H8 C9 1_555 1_555
H9 C9 1_555 1_555
C10 C8 1_555 1_555
H10 C10 1_555 1_555
H11 C10 1_555 1_555
H12 C10 1_555 1_555
O1 H13 1_555 1_555
C11 O1 1_555 1_555
H14 C11 1_555 1_555
H15 C11 1_555 1_555
H16 C11 1_555 1_555
N2 C5 1_555 1_555
C4 C5 1_555 1_555
C7 C8 1_555 1_555

#END
