
#######################################################################
#
#                 Cambridge Crystallographic Data Centre
#                                CCDC 
#
#######################################################################
#
# If this CIF has been generated from an entry in the Cambridge 
# Structural Database, then it will include bibliographic, chemical, 
# crystal, experimental, refinement or atomic coordinate data resulting 
# from the CCDC's data processing and validation procedures.
#
#######################################################################

data_JAVJAU
_chemical_formula_moiety         'C6 H8 N1 O1 1+,H2 O4 P1 1-'
_chemical_name_systematic        '2-hydroxyanilinium dihydrogen phosphate'
_symmetry_cell_setting           triclinic
_symmetry_space_group_name_H-M   'P -1'
_symmetry_Int_Tables_number      2
_space_group_name_Hall           '-P 1'
loop_
_symmetry_equiv_pos_site_id
_symmetry_equiv_pos_as_xyz
1 x,y,z
2 -x,-y,-z
_cell_length_a                   4.8421(3)
_cell_length_b                   9.3867(11)
_cell_length_c                   9.6691(15)
_cell_angle_alpha                92.9920(10)
_cell_angle_beta                 95.2270(10)
_cell_angle_gamma                97.935(2)
_cell_volume                     432.52
_exptl_crystal_colour            colorless
_exptl_crystal_description       block
_cell_formula_units_Z            2
loop_
_atom_site_label
_atom_site_type_symbol
_atom_site_fract_x
_atom_site_fract_y
_atom_site_fract_z
N1 N 0.3067(11) 0.5051(5) 0.1469(5)
H1 H 0.4307 0.4444 0.1373
H2 H 0.2890 0.5531 0.0703
H3 H 0.1417 0.4557 0.1601
O1 O 0.7589(10) 0.6969(5) 0.1328(5)
H4 H 0.8930 0.7608 0.1342
C1 C 0.4031(13) 0.6065(6) 0.2662(6)
C2 C 0.6357(14) 0.7082(7) 0.2535(7)
C3 C 0.7261(16) 0.8116(7) 0.3628(8)
H5 H 0.8786 0.8821 0.3563
C4 C 0.585(2) 0.8079(9) 0.4816(8)
H6 H 0.6483 0.8756 0.5553
C5 C 0.359(2) 0.7084(10) 0.4932(8)
H7 H 0.2666 0.7100 0.5733
C6 C 0.2650(16) 0.6036(8) 0.3852(7)
H8 H 0.1128 0.5334 0.3932
O2 O 0.2124(9) 0.8631(4) 1.0438(4)
O3 O 0.5604(9) 0.8817(4) 0.8636(5)
H9 H 0.5630 0.9693 0.8681
O4 O 0.2462(9) 0.6469(4) 0.8902(4)
O5 O 0.0581(10) 0.8591(5) 0.7888(5)
H10 H -0.0987 0.8211 0.8029
P1 P 0.2794(3) 0.80985(14) 0.89495(15)
loop_
_geom_bond_atom_site_label_1
_geom_bond_atom_site_label_2
_geom_bond_site_symmetry_1
_geom_bond_site_symmetry_2
N1 H1 1_555 1_555
H2 N1 1_555 1_555
H3 N1 1_555 1_555
O1 H4 1_555 1_555
C1 N1 1_555 1_555
C2 O1 1_555 1_555
C3 C2 1_555 1_555
H5 C3 1_555 1_555
C4 C3 1_555 1_555
H6 C4 1_555 1_555
C5 C4 1_555 1_555
H7 C5 1_555 1_555
C6 C1 1_555 1_555
H8 C6 1_555 1_555
O2 P1 1_555 1_555
O3 H9 1_555 1_555
O4 P1 1_555 1_555
O5 H10 1_555 1_555
P1 O3 1_555 1_555
C1 C2 1_555 1_555
C5 C6 1_555 1_555
O5 P1 1_555 1_555

#END
