
#######################################################################
#
#                 Cambridge Crystallographic Data Centre
#                                CCDC 
#
#######################################################################
#
# If this CIF has been generated from an entry in the Cambridge 
# Structural Database, then it will include bibliographic, chemical, 
# crystal, experimental, refinement or atomic coordinate data resulting 
# from the CCDC's data processing and validation procedures.
#
#######################################################################

data_JAVMIF
_chemical_formula_moiety         'C38 H41 N7 O6'
_chemical_name_systematic        
3,3'-((2-((2-butyl-1,3-dioxo-2,3-dihydro-1H-benzo[de]isoquinolin-6-yl)amino)ethyl)imino)bis(N'-(2-hydroxybenzylidene)propanehydrazide)
_symmetry_cell_setting           monoclinic
_symmetry_space_group_name_H-M   'P 21/c'
_symmetry_Int_Tables_number      14
_space_group_name_Hall           '-P 2ybc'
loop_
_symmetry_equiv_pos_site_id
_symmetry_equiv_pos_as_xyz
1 x,y,z
2 -x,1/2+y,1/2-z
3 -x,-y,-z
4 x,1/2-y,1/2+z
_cell_length_a                   17.486(3)
_cell_length_b                   15.978(3)
_cell_length_c                   14.021(2)
_cell_angle_alpha                90
_cell_angle_beta                 110.170(3)
_cell_angle_gamma                90
_cell_volume                     3677.11
_cell_formula_units_Z            4
loop_
_atom_site_label
_atom_site_type_symbol
_atom_site_fract_x
_atom_site_fract_y
_atom_site_fract_z
O1 O 0.2760(2) 0.3514(2) 0.5480(3)
O2 O 0.4247(2) 0.4860(2) 0.3878(2)
O3 O -0.0667(1) 0.5394(1) 0.1165(2)
O4 O 0.0148(1) 0.8231(1) 0.1382(2)
O5 O 0.1570(2) 0.4757(1) 0.1305(2)
H1 H 0.1147 0.5021 0.1203
O6 O 0.2387(2) 0.8402(2) 0.1287(2)
H2 H 0.1992 0.8455 0.1470
N1 N 0.3524(2) 0.4209(2) 0.4711(3)
N2 N 0.0417(1) 0.6630(2) 0.3763(2)
H3 H 0.0504 0.7085 0.3487
N3 N -0.0997(1) 0.7382(1) 0.2390(2)
N4 N -0.0069(2) 0.6510(2) 0.0745(2)
H4 H -0.0101 0.7033 0.0590
N5 N 0.0622(2) 0.6067(2) 0.0818(2)
N6 N 0.0896(1) 0.9069(2) 0.2649(2)
H5 H 0.0924 0.9348 0.3185
N7 N 0.1559(2) 0.9027(2) 0.2347(2)
C1 C 0.4833(7) 0.1773(7) 0.5529(10)
H6 H 0.4984 0.2088 0.6149
H7 H 0.5231 0.1343 0.5588
H8 H 0.4309 0.1522 0.5402
C2 C 0.4798(6) 0.2326(5) 0.4693(8)
H9 H 0.4781 0.1991 0.4109
H10 H 0.5292 0.2660 0.4885
C3 C 0.4088(5) 0.2890(5) 0.4402(7)
H11 H 0.3994 0.3101 0.3722
H12 H 0.3610 0.2574 0.4386
C4 C 0.4195(4) 0.3596(4) 0.5098(7)
H13 H 0.4710 0.3870 0.5184
H14 H 0.4212 0.3392 0.5756
C5 C 0.3649(2) 0.4854(2) 0.4126(3)
C6 C 0.3031(2) 0.5524(2) 0.3838(2)
C7 C 0.3153(2) 0.6204(2) 0.3310(2)
H15 H 0.3622 0.6238 0.3141
C8 C 0.2587(2) 0.6831(2) 0.3033(2)
H16 H 0.2678 0.7291 0.2681
C9 C 0.1887(2) 0.6793(2) 0.3264(2)
H17 H 0.1508 0.7224 0.3061
C10 C 0.1737(2) 0.6108(2) 0.3806(2)
C11 C 0.1021(2) 0.6040(2) 0.4074(2)
C12 C 0.0967(2) 0.5375(2) 0.4685(2)
H18 H 0.0519 0.5338 0.4896
C13 C 0.1566(2) 0.4767(2) 0.4988(2)
H19 H 0.1512 0.4331 0.5399
C14 C 0.2233(2) 0.4792(2) 0.4698(2)
C15 C 0.2836(2) 0.4126(2) 0.5000(3)
C16 C 0.2331(2) 0.5471(2) 0.4110(2)
C17 C -0.0358(2) 0.6509(2) 0.3885(2)
H20 H -0.0280 0.6448 0.4601
H21 H -0.0609 0.6000 0.3540
C18 C -0.0911(2) 0.7243(2) 0.3454(2)
H22 H -0.1443 0.7137 0.3503
H23 H -0.0688 0.7741 0.3847
C19 C -0.1597(2) 0.6813(2) 0.1720(2)
H24 H -0.2137 0.7052 0.1562
H25 H -0.1585 0.6286 0.2068
C20 C -0.1438(2) 0.6652(2) 0.0742(2)
H26 H -0.1905 0.6370 0.0264
H27 H -0.1369 0.7182 0.0445
C21 C -0.0698(2) 0.6129(2) 0.0914(2)
C22 C 0.1174(2) 0.6447(2) 0.0582(2)
H28 H 0.1093 0.7001 0.0367
C23 C -0.1202(2) 0.8252(2) 0.2072(2)
H29 H -0.1642 0.8434 0.2295
H30 H -0.1395 0.8278 0.1336
C24 C -0.0497(2) 0.8842(2) 0.2487(2)
H31 H -0.0296 0.8804 0.3223
H32 H -0.0690 0.9409 0.2306
C25 C 0.0200(2) 0.8679(2) 0.2112(2)
C26 C 0.2175(2) 0.9476(2) 0.2819(3)
H33 H 0.2160 0.9809 0.3357
C27 C 0.1922(2) 0.6033(2) 0.0641(2)
C28 C 0.2490(2) 0.6466(3) 0.0356(3)
H34 H 0.2380 0.7012 0.0116
C29 C 0.3387(3) 0.5294(4) 0.0809(4)
H35 H 0.3882 0.5047 0.0865
C30 C 0.2842(2) 0.4860(3) 0.1104(3)
H36 H 0.2966 0.4323 0.1367
C31 C 0.2885(2) 0.9480(2) 0.2540(3)
C32 C 0.3520(3) 1.0056(4) 0.3016(4)
H37 H 0.3478 1.0418 0.3514
C33 C 0.4192(3) 1.0070(5) 0.2734(6)
H38 H 0.4600 1.0456 0.3043
C34 C 0.4290(4) 0.9562(6) 0.2043(7)
H39 H 0.4763 0.9592 0.1883
C35 C 0.3673(3) 0.8963(4) 0.1539(4)
H40 H 0.3735 0.8597 0.1055
C36 C 0.2979(3) 0.8955(3) 0.1804(4)
C37 C 0.3223(3) 0.6097(4) 0.0425(4)
H41 H 0.3600 0.6384 0.0216
C38 C 0.2096(2) 0.5222(2) 0.1013(2)
C39? C 0.5675(8) 0.2319(16) 0.604(2)
H42? H 0.5813 0.2788 0.5705
H43? H 0.5687 0.1816 0.5674
H44? H 0.6062 0.2275 0.6720
C40? C 0.4865(13) 0.2438(17) 0.609(3)
H45? H 0.4875 0.2296 0.6763
H46? H 0.4494 0.2053 0.5613
C41? C 0.4553(18) 0.3285(15) 0.584(3)
H47? H 0.4317 0.3461 0.6345
H48? H 0.5005 0.3657 0.5902
C42? C 0.394(3) 0.3379(18) 0.484(3)
H49? H 0.3542 0.2937 0.4723
H50? H 0.4203 0.3323 0.4330
loop_
_geom_bond_atom_site_label_1
_geom_bond_atom_site_label_2
_geom_bond_site_symmetry_1
_geom_bond_site_symmetry_2
O1 C15 1_555 1_555
O2 C5 1_555 1_555
O3 C21 1_555 1_555
O4 C25 1_555 1_555
O5 H1 1_555 1_555
O6 H2 1_555 1_555
N1 C4 1_555 1_555
N2 H3 1_555 1_555
N3 C18 1_555 1_555
N4 H4 1_555 1_555
N5 N4 1_555 1_555
N6 H5 1_555 1_555
N7 N6 1_555 1_555
C1 H6 1_555 1_555
H7 C1 1_555 1_555
H8 C1 1_555 1_555
C2 C1 1_555 1_555
H9 C2 1_555 1_555
H10 C2 1_555 1_555
C3 C2 1_555 1_555
H11 C3 1_555 1_555
H12 C3 1_555 1_555
C4 C3 1_555 1_555
H13 C4 1_555 1_555
H14 C4 1_555 1_555
C5 N1 1_555 1_555
C6 C5 1_555 1_555
C7 C6 1_555 1_555
H15 C7 1_555 1_555
C8 C7 1_555 1_555
H16 C8 1_555 1_555
C9 C8 1_555 1_555
H17 C9 1_555 1_555
C10 C9 1_555 1_555
C11 N2 1_555 1_555
C12 C11 1_555 1_555
H18 C12 1_555 1_555
C13 C12 1_555 1_555
H19 C13 1_555 1_555
C14 C13 1_555 1_555
C15 N1 1_555 1_555
C16 C6 1_555 1_555
C17 N2 1_555 1_555
H20 C17 1_555 1_555
H21 C17 1_555 1_555
C18 C17 1_555 1_555
H22 C18 1_555 1_555
H23 C18 1_555 1_555
C19 N3 1_555 1_555
H24 C19 1_555 1_555
H25 C19 1_555 1_555
C20 C19 1_555 1_555
H26 C20 1_555 1_555
H27 C20 1_555 1_555
C21 N4 1_555 1_555
C22 N5 1_555 1_555
H28 C22 1_555 1_555
C23 N3 1_555 1_555
H29 C23 1_555 1_555
H30 C23 1_555 1_555
C24 C23 1_555 1_555
H31 C24 1_555 1_555
H32 C24 1_555 1_555
C25 N6 1_555 1_555
C26 N7 1_555 1_555
H33 C26 1_555 1_555
C27 C22 1_555 1_555
C28 C27 1_555 1_555
H34 C28 1_555 1_555
C29 H35 1_555 1_555
C30 C29 1_555 1_555
H36 C30 1_555 1_555
C31 C26 1_555 1_555
C32 C31 1_555 1_555
H37 C32 1_555 1_555
C33 C32 1_555 1_555
H38 C33 1_555 1_555
C34 C33 1_555 1_555
H39 C34 1_555 1_555
C35 C34 1_555 1_555
H40 C35 1_555 1_555
C36 O6 1_555 1_555
C37 C28 1_555 1_555
H41 C37 1_555 1_555
C38 O5 1_555 1_555
C10 C11 1_555 1_555
C10 C16 1_555 1_555
C14 C15 1_555 1_555
C14 C16 1_555 1_555
C20 C21 1_555 1_555
C24 C25 1_555 1_555
C27 C38 1_555 1_555
C29 C37 1_555 1_555
C30 C38 1_555 1_555
C31 C36 1_555 1_555
C35 C36 1_555 1_555

#END
