
#######################################################################
#
#                 Cambridge Crystallographic Data Centre
#                                CCDC 
#
#######################################################################
#
# If this CIF has been generated from an entry in the Cambridge 
# Structural Database, then it will include bibliographic, chemical, 
# crystal, experimental, refinement or atomic coordinate data resulting 
# from the CCDC's data processing and validation procedures.
#
#######################################################################

data_JAVPII
_chemical_formula_moiety         'C6 H16 N1 1+,C8 H5 Cl2 O3 1-'
_chemical_name_systematic        
'N,N-diisopropylammonium (2,4-dichlorophenoxy)acetate'
_symmetry_cell_setting           triclinic
_symmetry_space_group_name_H-M   'P -1'
_symmetry_Int_Tables_number      2
_space_group_name_Hall           '-P 1'
loop_
_symmetry_equiv_pos_site_id
_symmetry_equiv_pos_as_xyz
1 x,y,z
2 -x,-y,-z
_cell_length_a                   8.1669(9)
_cell_length_b                   8.7500(11)
_cell_length_c                   13.1141(13)
_cell_angle_alpha                99.3010(10)
_cell_angle_beta                 101.4160(10)
_cell_angle_gamma                111.744(2)
_cell_volume                     824.341
_exptl_crystal_colour            colorless
_exptl_crystal_description       block
_cell_formula_units_Z            2
loop_
_atom_site_label
_atom_site_type_symbol
_atom_site_fract_x
_atom_site_fract_y
_atom_site_fract_z
Cl1 Cl 1.31571(12) 0.27618(14) 0.35109(8)
Cl2 Cl 0.83239(16) 0.16770(14) 0.58344(8)
O1 O 0.7613(3) 0.1796(2) 0.08266(17)
O2 O 0.7322(3) 0.3862(2) 0.01359(16)
O3 O 1.0910(3) 0.4015(3) 0.22761(15)
C1 C 0.8128(4) 0.3284(3) 0.0778(2)
C2 C 0.9929(4) 0.4628(4) 0.1537(2)
H1 H 1.0712 0.5156 0.1111
H2 H 0.9681 0.5504 0.1946
C3 C 1.0230(4) 0.3530(3) 0.3089(2)
C4 C 1.1200(4) 0.2881(4) 0.3755(2)
C5 C 1.0617(4) 0.2310(4) 0.4596(2)
H3 H 1.1264 0.1858 0.5028
C6 C 0.9081(5) 0.2418(4) 0.4785(2)
C7 C 0.8131(4) 0.3096(4) 0.4170(2)
H4 H 0.7103 0.3191 0.4323
C8 C 0.8698(4) 0.3644(4) 0.3315(2)
H5 H 0.8037 0.4092 0.2890
N1 N 0.6079(3) 0.8484(3) 0.10554(16)
H6 H 0.4923 0.7806 0.0651
H7 H 0.6359 0.9508 0.0911
C9 C 0.7316(4) 0.7769(4) 0.0676(2)
H8 H 0.6955 0.6608 0.0763
C10 C 0.9292(4) 0.8828(4) 0.1324(3)
H9 H 0.9618 0.9997 0.1313
H10 H 1.0074 0.8420 0.1018
H11 H 0.9440 0.8741 0.2054
C11 C 0.7022(5) 0.7695(5) -0.0508(3)
H12 H 0.5751 0.7014 -0.0887
H13 H 0.7764 0.7197 -0.0787
H14 H 0.7366 0.8826 -0.0603
C12 C 0.6077(4) 0.8713(4) 0.2209(2)
H15 H 0.7289 0.9559 0.2658
C13 C 0.5696(5) 0.7051(5) 0.2532(3)
H16 H 0.4546 0.6190 0.2067
H17 H 0.5639 0.7212 0.3264
H18 H 0.6663 0.6701 0.2469
C14 C 0.4670(5) 0.9394(5) 0.2351(3)
H19 H 0.4922 1.0404 0.2097
H20 H 0.4724 0.9662 0.3099
H21 H 0.3467 0.8550 0.1946
loop_
_geom_bond_atom_site_label_1
_geom_bond_atom_site_label_2
_geom_bond_site_symmetry_1
_geom_bond_site_symmetry_2
Cl1 C4 1_555 1_555
Cl2 C6 1_555 1_555
O1 C1 1_555 1_555
O2 C1 1_555 1_555
O3 C2 1_555 1_555
C1 C2 1_555 1_555
C2 H1 1_555 1_555
H2 C2 1_555 1_555
C3 O3 1_555 1_555
C4 C3 1_555 1_555
C5 C4 1_555 1_555
H3 C5 1_555 1_555
C6 C5 1_555 1_555
C7 C6 1_555 1_555
H4 C7 1_555 1_555
C8 C3 1_555 1_555
H5 C8 1_555 1_555
N1 H6 1_555 1_555
H7 N1 1_555 1_555
C9 N1 1_555 1_555
H8 C9 1_555 1_555
C10 C9 1_555 1_555
H9 C10 1_555 1_555
H10 C10 1_555 1_555
H11 C10 1_555 1_555
C11 C9 1_555 1_555
H12 C11 1_555 1_555
H13 C11 1_555 1_555
H14 C11 1_555 1_555
C12 N1 1_555 1_555
H15 C12 1_555 1_555
C13 C12 1_555 1_555
H16 C13 1_555 1_555
H17 C13 1_555 1_555
H18 C13 1_555 1_555
C14 C12 1_555 1_555
H19 C14 1_555 1_555
H20 C14 1_555 1_555
H21 C14 1_555 1_555
C7 C8 1_555 1_555

#END
