
#######################################################################
#
#                 Cambridge Crystallographic Data Centre
#                                CCDC 
#
#######################################################################
#
# If this CIF has been generated from an entry in the Cambridge 
# Structural Database, then it will include bibliographic, chemical, 
# crystal, experimental, refinement or atomic coordinate data resulting 
# from the CCDC's data processing and validation procedures.
#
#######################################################################

data_JAVWUB
_chemical_formula_moiety         'C22 H17 N3 O2 S1'
_chemical_name_systematic        
1-benzyl-2'-phenyl-3'-sulfanylidenespiro[indole-3,5'-[1,2,4]oxadiazolidin]-2(1H)-one
_symmetry_cell_setting           monoclinic
_symmetry_space_group_name_H-M   'P 21/c'
_symmetry_Int_Tables_number      14
_space_group_name_Hall           '-P 2ybc'
loop_
_symmetry_equiv_pos_site_id
_symmetry_equiv_pos_as_xyz
1 x,y,z
2 -x,1/2+y,1/2-z
3 -x,-y,-z
4 x,1/2-y,1/2+z
_cell_length_a                   11.5135(16)
_cell_length_b                   9.0923(11)
_cell_length_c                   18.575(3)
_cell_angle_alpha                90
_cell_angle_beta                 103.339(3)
_cell_angle_gamma                90
_cell_volume                     1892.05
_exptl_crystal_colour            colorless
_exptl_crystal_description       Prism
_cell_formula_units_Z            4
_exptl_crystal_preparation       Fiber
loop_
_atom_site_label
_atom_site_type_symbol
_atom_site_fract_x
_atom_site_fract_y
_atom_site_fract_z
S1 S 1.03223(2) 1.16123(3) 0.10364(2)
O1 O 0.64805(8) 1.08510(9) -0.01790(5)
O2 O 0.76126(7) 0.91926(9) 0.12258(4)
N1 N 0.59922(8) 0.84329(11) -0.04831(5)
N2 N 0.88311(9) 0.94062(11) 0.04547(5)
N3 N 0.83504(8) 1.04868(11) 0.13896(5)
C1 C 0.64769(9) 0.70407(12) -0.02428(6)
C2 C 0.60631(11) 0.56763(13) -0.05079(6)
H1 H 0.5381 0.5574 -0.0905
C3 C 0.66889(12) 0.44535(14) -0.01685(7)
H2 H 0.6417 0.3497 -0.0332
C4 C 0.77003(12) 0.45963(14) 0.04032(7)
H3 H 0.8114 0.3742 0.0619
C5 C 0.81142(10) 0.59872(14) 0.06633(6)
H4 H 0.8806 0.6094 0.1053
C6 C 0.74869(9) 0.72004(12) 0.03359(6)
C7 C 0.76845(9) 0.88032(13) 0.04887(6)
C8 C 0.66438(10) 0.95376(13) -0.00944(6)
C9 C 0.49798(10) 0.86649(14) -0.11082(6)
H5 H 0.4694 0.9689 -0.1096
H6 H 0.4321 0.8001 -0.1059
C10 C 0.52860(10) 0.83877(13) -0.18466(6)
C11 C 0.44558(10) 0.77048(14) -0.24089(7)
H7 H 0.3728 0.7353 -0.2315
C12 C 0.46825(12) 0.75332(15) -0.31070(7)
H8 H 0.4107 0.7071 -0.3489
C13 C 0.57424(12) 0.80327(15) -0.32463(7)
H9 H 0.5892 0.7928 -0.3726
C14 C 0.65882(11) 0.86879(16) -0.26840(7)
H10 H 0.7324 0.9016 -0.2776
C15 C 0.63615(11) 0.88649(15) -0.19868(7)
H11 H 0.6943 0.9314 -0.1603
C16 C 0.91559(9) 1.04819(12) 0.09550(6)
C17 C 0.84965(9) 1.09578(13) 0.21374(6)
C18 C 0.87721(10) 1.24194(14) 0.23101(7)
H12 H 0.8896 1.3085 0.1941
C19 C 0.88635(11) 1.28962(16) 0.30327(7)
H13 H 0.9059 1.3893 0.3158
C20 C 0.86723(11) 1.19346(17) 0.35695(7)
H14 H 0.8729 1.2272 0.4060
C21 C 0.83976(12) 1.04771(17) 0.33895(7)
H15 H 0.8270 0.9815 0.3759
C22 C 0.83074(11) 0.99754(14) 0.26714(7)
H16 H 0.8119 0.8976 0.2548
H17 H 0.9108(14) 0.9271(18) 0.0086(9)
loop_
_geom_bond_atom_site_label_1
_geom_bond_atom_site_label_2
_geom_bond_site_symmetry_1
_geom_bond_site_symmetry_2
S1 C16 1_555 1_555
O1 C8 1_555 1_555
O2 N3 1_555 1_555
N1 C1 1_555 1_555
N2 C7 1_555 1_555
N3 C16 1_555 1_555
C1 C2 1_555 1_555
C2 H1 1_555 1_555
C3 C2 1_555 1_555
H2 C3 1_555 1_555
C4 C3 1_555 1_555
H3 C4 1_555 1_555
C5 C4 1_555 1_555
H4 C5 1_555 1_555
C6 C1 1_555 1_555
C7 O2 1_555 1_555
C8 N1 1_555 1_555
C9 N1 1_555 1_555
H5 C9 1_555 1_555
H6 C9 1_555 1_555
C10 C9 1_555 1_555
C11 C10 1_555 1_555
H7 C11 1_555 1_555
C12 C11 1_555 1_555
H8 C12 1_555 1_555
C13 C12 1_555 1_555
H9 C13 1_555 1_555
C14 C13 1_555 1_555
H10 C14 1_555 1_555
C15 C10 1_555 1_555
H11 C15 1_555 1_555
C16 N2 1_555 1_555
C17 N3 1_555 1_555
C18 C17 1_555 1_555
H12 C18 1_555 1_555
C19 C18 1_555 1_555
H13 C19 1_555 1_555
C20 C19 1_555 1_555
H14 C20 1_555 1_555
C21 C20 1_555 1_555
H15 C21 1_555 1_555
C22 C17 1_555 1_555
H16 C22 1_555 1_555
H17 N2 1_555 1_555
C5 C6 1_555 1_555
C6 C7 1_555 1_555
C7 C8 1_555 1_555
C14 C15 1_555 1_555
C21 C22 1_555 1_555

#END
