
#######################################################################
#
#                 Cambridge Crystallographic Data Centre
#                                CCDC 
#
#######################################################################
#
# If this CIF has been generated from an entry in the Cambridge 
# Structural Database, then it will include bibliographic, chemical, 
# crystal, experimental, refinement or atomic coordinate data resulting 
# from the CCDC's data processing and validation procedures.
#
#######################################################################

data_JAVWIP
_chemical_formula_moiety         'C25 H23 Br1 N2 O3'
_chemical_name_systematic        
(2R,3S)-3-(4-bromophenyl)-3',6,6-trimethyl-1'-phenyl-3,5,6,7-tetrahydro-4H-spiro[benzofuran-2,4'-pyrazole]-4,5'(1'H)-dione
_symmetry_cell_setting           monoclinic
_symmetry_space_group_name_H-M   'C 2'
_symmetry_Int_Tables_number      5
_space_group_name_Hall           'C 2y'
loop_
_symmetry_equiv_pos_site_id
_symmetry_equiv_pos_as_xyz
1 x,y,z
2 -x,y,-z
3 1/2+x,1/2+y,z
4 1/2-x,1/2+y,-z
_cell_length_a                   23.597(4)
_cell_length_b                   5.5908(9)
_cell_length_c                   19.685(3)
_cell_angle_alpha                90
_cell_angle_beta                 122.260(3)
_cell_angle_gamma                90
_cell_volume                     2196.08
_exptl_crystal_colour            colorless
_exptl_crystal_description       prismatic
_chemical_melting_point          '121.6 deg.C'
_cell_formula_units_Z            4
_chemical_properties_physical    ', Hygroscopic'
_exptl_crystal_recrystallization_method dichloromethane
loop_
_atom_site_label
_atom_site_type_symbol
_atom_site_fract_x
_atom_site_fract_y
_atom_site_fract_z
Br1 Br -0.08715(2) 0.75340(14) 0.76900(3)
N1 N 0.15910(17) 1.1406(8) 0.6111(2)
N2 N 0.09921(18) 1.0083(8) 0.5802(2)
O1 O 0.26765(16) 1.1177(7) 0.96200(19)
O2 O 0.21104(15) 0.6674(6) 0.73899(16)
O3 O 0.26746(15) 1.1121(7) 0.72169(18)
C1 C 0.2784(2) 0.9426(9) 0.9343(3)
C2 C 0.33502(19) 0.7692(13) 0.9846(2)
H1 H 0.3183 0.6438 1.0035
H2 H 0.3699 0.8536 1.0315
C3 C 0.36620(19) 0.6530(9) 0.9421(2)
C4 C 0.3099(2) 0.5312(9) 0.8652(3)
H3 H 0.3266 0.4848 0.8316
H4 H 0.2951 0.3881 0.8792
C5 C 0.25317(19) 0.6975(8) 0.8209(2)
C6 C 0.23758(19) 0.8788(8) 0.8500(2)
C7 C 0.17465(18) 0.9975(9) 0.7842(2)
H5 H 0.1814 1.1708 0.7855
C8 C 0.1741(2) 0.8853(9) 0.7106(2)
C9 C 0.2090(2) 1.0590(9) 0.6840(2)
C10 C 0.1073(2) 0.8579(9) 0.6333(2)
C11 C 0.0552(2) 0.6773(10) 0.6160(3)
H6 H 0.0138 0.7219 0.5682
H7 H 0.0489 0.6695 0.6603
H8 H 0.0691 0.5236 0.6084
C12 C 0.1622(2) 1.3137(9) 0.5603(3)
C13 C 0.1102(2) 1.3303(10) 0.4811(3)
H9 H 0.0740 1.2259 0.4600
C14 C 0.1133(3) 1.5063(13) 0.4335(3)
H10 H 0.0781 1.5206 0.3802
C15 C 0.1661(3) 1.6586(12) 0.4622(3)
H11 H 0.1675 1.7729 0.4288
C16 C 0.2173(3) 1.6412(11) 0.5413(3)
H12 H 0.2533 1.7466 0.5620
C17 C 0.2159(2) 1.4686(11) 0.5905(3)
H13 H 0.2510 1.4566 0.6438
C18 C 0.4011(2) 0.8372(9) 0.9200(3)
H14 H 0.4364 0.9126 0.9679
H15 H 0.3693 0.9558 0.8854
H16 H 0.4198 0.7594 0.8928
C19 C 0.4164(2) 0.4653(11) 0.9972(3)
H17 H 0.4377 0.3958 0.9717
H18 H 0.3937 0.3428 1.0078
H19 H 0.4497 0.5388 1.0468
C20 C 0.11266(19) 0.9439(8) 0.7865(2)
C21 C 0.10778(18) 0.7429(12) 0.8230(2)
H20 H 0.1448 0.6434 0.8516
C22 C 0.0482(2) 0.6857(9) 0.8179(2)
H21 H 0.0450 0.5472 0.8418
C23 C -0.0056(2) 0.8356(9) 0.7773(3)
C24 C -0.0017(2) 1.0398(11) 0.7425(3)
H22 H -0.0384 1.1419 0.7160
C25 C 0.0576(2) 1.0938(10) 0.7472(3)
H23 H 0.0604 1.2334 0.7235
loop_
_geom_bond_atom_site_label_1
_geom_bond_atom_site_label_2
_geom_bond_site_symmetry_1
_geom_bond_site_symmetry_2
Br1 C23 1_555 1_555
N1 N2 1_555 1_555
N2 C10 1_555 1_555
O1 C1 1_555 1_555
O2 C5 1_555 1_555
O3 C9 1_555 1_555
C1 C2 1_555 1_555
C2 H1 1_555 1_555
H2 C2 1_555 1_555
C3 C2 1_555 1_555
C4 C3 1_555 1_555
H3 C4 1_555 1_555
H4 C4 1_555 1_555
C5 C4 1_555 1_555
C6 C1 1_555 1_555
C7 C6 1_555 1_555
H5 C7 1_555 1_555
C8 O2 1_555 1_555
C9 N1 1_555 1_555
C10 C8 1_555 1_555
C11 C10 1_555 1_555
H6 C11 1_555 1_555
H7 C11 1_555 1_555
H8 C11 1_555 1_555
C12 N1 1_555 1_555
C13 C12 1_555 1_555
H9 C13 1_555 1_555
C14 C13 1_555 1_555
H10 C14 1_555 1_555
C15 C14 1_555 1_555
H11 C15 1_555 1_555
C16 C15 1_555 1_555
H12 C16 1_555 1_555
C17 C12 1_555 1_555
H13 C17 1_555 1_555
C18 C3 1_555 1_555
H14 C18 1_555 1_555
H15 C18 1_555 1_555
H16 C18 1_555 1_555
C19 C3 1_555 1_555
H17 C19 1_555 1_555
H18 C19 1_555 1_555
H19 C19 1_555 1_555
C20 C7 1_555 1_555
C21 C20 1_555 1_555
H20 C21 1_555 1_555
C22 C21 1_555 1_555
H21 C22 1_555 1_555
C23 C22 1_555 1_555
C24 C23 1_555 1_555
H22 C24 1_555 1_555
C25 C20 1_555 1_555
H23 C25 1_555 1_555
C5 C6 1_555 1_555
C7 C8 1_555 1_555
C8 C9 1_555 1_555
C16 C17 1_555 1_555
C24 C25 1_555 1_555

#END
