
#######################################################################
#
#                 Cambridge Crystallographic Data Centre
#                                CCDC 
#
#######################################################################
#
# If this CIF has been generated from an entry in the Cambridge 
# Structural Database, then it will include bibliographic, chemical, 
# crystal, experimental, refinement or atomic coordinate data resulting 
# from the CCDC's data processing and validation procedures.
#
#######################################################################

data_JAVZUC
_chemical_formula_moiety         'C24 H22 N2 O2'
_chemical_name_systematic        
3,3-Dimethyl-9-(4-hydroxylphenyl)-1,2,3,4,9,10-hexahydropyrido(2,3-c)acridine-1-one
_symmetry_cell_setting           tetragonal
_symmetry_space_group_name_H-M   'P 43 21 2'
_symmetry_Int_Tables_number      96
_space_group_name_Hall           'P 4nw 2abw'
loop_
_symmetry_equiv_pos_site_id
_symmetry_equiv_pos_as_xyz
1 x,y,z
2 -x,-y,1/2+z
3 1/2-y,1/2+x,3/4+z
4 1/2+y,1/2-x,1/4+z
5 1/2-x,1/2+y,3/4-z
6 1/2+x,1/2-y,1/4-z
7 y,x,-z
8 -y,-x,1/2-z
_cell_length_a                   11.7044(11)
_cell_length_b                   11.7044(11)
_cell_length_c                   28.975(3)
_cell_angle_alpha                90
_cell_angle_beta                 90
_cell_angle_gamma                90
_cell_volume                     3969.37
_exptl_crystal_colour            'pale yellow'
_exptl_crystal_description       block
_chemical_melting_point          'above 573 K'
_cell_formula_units_Z            8
_exptl_crystal_recrystallization_method DMF/water
loop_
_atom_site_label
_atom_site_type_symbol
_atom_site_fract_x
_atom_site_fract_y
_atom_site_fract_z
O1 O 0.52325(14) 0.89133(14) 0.25882(6)
O2 O 0.43304(13) 1.01115(13) 0.06146(5)
H1 H 0.4900 1.0146 0.0439
N1 N 0.70825(15) 0.55391(15) 0.21572(6)
H2 H 0.7718 0.5137 0.2161
N2 N 0.5006(2) 0.2233(2) 0.15550(7)
C1 C 0.70915(17) 0.66116(17) 0.23357(6)
C2 C 0.61405(17) 0.72793(18) 0.23248(7)
C3 C 0.50667(18) 0.69323(19) 0.20696(7)
H3 H 0.4412 0.7009 0.2289
C4 C 0.51209(19) 0.56916(19) 0.19187(7)
C5 C 0.60921(19) 0.50507(18) 0.19670(7)
C6 C 0.61311(19) 0.83416(19) 0.25659(7)
C7 C 0.7198(2) 0.8743(2) 0.28052(8)
H4 H 0.7166 0.8503 0.3133
H5 H 0.7217 0.9588 0.2799
C8 C 0.8304(2) 0.82873(18) 0.25911(8)
C9 C 0.81886(19) 0.69862(18) 0.25578(8)
H6 H 0.8838 0.6681 0.2377
H7 H 0.8233 0.6657 0.2872
C10 C 0.48465(18) 0.77408(18) 0.16668(7)
C11 C 0.56379(18) 0.78414(19) 0.13106(7)
H8 H 0.6296 0.7367 0.1311
C12 C 0.54842(17) 0.86198(18) 0.09562(7)
H9 H 0.6033 0.8676 0.0716
C13 C 0.45272(18) 0.93160(18) 0.09536(7)
C14 C 0.3724(2) 0.9214(2) 0.12999(8)
H10 H 0.3059 0.9680 0.1297
C15 C 0.3889(2) 0.8432(2) 0.16519(8)
H11 H 0.3331 0.8369 0.1889
C16 C 0.4134(2) 0.5179(2) 0.17247(8)
H12 H 0.3467 0.5629 0.1681
C17 C 0.4121(2) 0.4057(2) 0.15996(8)
H13 H 0.3449 0.3735 0.1470
C18 C 0.5093(2) 0.3374(2) 0.16616(8)
C19 C 0.5899(3) 0.1589(2) 0.16293(10)
H14 H 0.5834 0.0796 0.1566
C20 C 0.6947(3) 0.1995(2) 0.17972(9)
H15 H 0.7574 0.1490 0.1838
C21 C 0.7051(2) 0.3133(2) 0.19021(8)
H16 H 0.7756 0.3426 0.2014
C22 C 0.6110(2) 0.38614(19) 0.18429(7)
C23 C 0.8490(2) 0.8806(2) 0.21127(9)
H17 H 0.9201 0.8508 0.1981
H18 H 0.8540 0.9639 0.2139
H19 H 0.7848 0.8603 0.1912
C24 C 0.9313(2) 0.8582(2) 0.29044(11)
H20 H 1.0019 0.8284 0.2769
H21 H 0.9195 0.8238 0.3209
H22 H 0.9370 0.9414 0.2936
loop_
_geom_bond_atom_site_label_1
_geom_bond_atom_site_label_2
_geom_bond_site_symmetry_1
_geom_bond_site_symmetry_2
O1 C6 1_555 1_555
O2 H1 1_555 1_555
N1 H2 1_555 1_555
N2 C18 1_555 1_555
C1 N1 1_555 1_555
C2 C1 1_555 1_555
C3 C2 1_555 1_555
H3 C3 1_555 1_555
C4 C3 1_555 1_555
C5 N1 1_555 1_555
C6 C2 1_555 1_555
C7 C6 1_555 1_555
H4 C7 1_555 1_555
H5 C7 1_555 1_555
C8 C7 1_555 1_555
C9 C1 1_555 1_555
H6 C9 1_555 1_555
H7 C9 1_555 1_555
C10 C3 1_555 1_555
C11 C10 1_555 1_555
H8 C11 1_555 1_555
C12 C11 1_555 1_555
H9 C12 1_555 1_555
C13 O2 1_555 1_555
C14 C13 1_555 1_555
H10 C14 1_555 1_555
C15 C10 1_555 1_555
H11 C15 1_555 1_555
C16 C4 1_555 1_555
H12 C16 1_555 1_555
C17 C16 1_555 1_555
H13 C17 1_555 1_555
C18 C17 1_555 1_555
C19 N2 1_555 1_555
H14 C19 1_555 1_555
C20 C19 1_555 1_555
H15 C20 1_555 1_555
C21 C20 1_555 1_555
H16 C21 1_555 1_555
C22 C5 1_555 1_555
C23 C8 1_555 1_555
H17 C23 1_555 1_555
H18 C23 1_555 1_555
H19 C23 1_555 1_555
C24 C8 1_555 1_555
H20 C24 1_555 1_555
H21 C24 1_555 1_555
H22 C24 1_555 1_555
C4 C5 1_555 1_555
C8 C9 1_555 1_555
C12 C13 1_555 1_555
C14 C15 1_555 1_555
C18 C22 1_555 1_555
C21 C22 1_555 1_555

#END
