
#######################################################################
#
#                 Cambridge Crystallographic Data Centre
#                                CCDC 
#
#######################################################################
#
# If this CIF has been generated from an entry in the Cambridge 
# Structural Database, then it will include bibliographic, chemical, 
# crystal, experimental, refinement or atomic coordinate data resulting 
# from the CCDC's data processing and validation procedures.
#
#######################################################################

data_JAWBEP
_chemical_formula_moiety         'C19 H14 Cl1 N1 O1'
_chemical_name_systematic        
4-(4-Chlorophenyl)-1,2,3,4-tetrahydrobenzo(f)quinolin-2-one
_symmetry_cell_setting           monoclinic
_symmetry_space_group_name_H-M   'P 21/n'
_symmetry_Int_Tables_number      14
_space_group_name_Hall           '-P 2yn'
loop_
_symmetry_equiv_pos_site_id
_symmetry_equiv_pos_as_xyz
1 x,y,z
2 1/2-x,1/2+y,1/2-z
3 -x,-y,-z
4 1/2+x,1/2-y,1/2+z
_cell_length_a                   7.5826(12)
_cell_length_b                   9.0381(11)
_cell_length_c                   21.150(4)
_cell_angle_alpha                90
_cell_angle_beta                 92.333(4)
_cell_angle_gamma                90
_cell_volume                     1448.26
_exptl_crystal_colour            'pale yellow'
_exptl_crystal_description       block
_chemical_melting_point          '515-516 K'
_cell_formula_units_Z            4
_exptl_crystal_recrystallization_method DMF/water
loop_
_atom_site_label
_atom_site_type_symbol
_atom_site_fract_x
_atom_site_fract_y
_atom_site_fract_z
Cl1 Cl -0.28228(7) 0.14518(8) 0.20779(2)
O1 O 0.56466(18) 0.00179(14) 0.41650(6)
N1 N 0.41414(19) 0.17413(16) 0.46954(7)
H1 H 0.4040 0.1124 0.5014
C1 C 0.4964(2) 0.12580(19) 0.41831(8)
C2 C 0.5086(2) 0.23309(19) 0.36443(8)
H2 H 0.5059 0.1760 0.3245
H3 H 0.6247 0.2830 0.3684
C3 C 0.3647(2) 0.35282(18) 0.35880(8)
H4 H 0.4149 0.4384 0.3355
C4 C 0.3175(2) 0.40814(18) 0.42390(7)
C5 C 0.3431(2) 0.31743(18) 0.47549(8)
C6 C 0.2956(2) 0.36178(19) 0.53679(8)
H5 H 0.3132 0.2965 0.5717
C7 C 0.2248(2) 0.49782(19) 0.54549(8)
H6 H 0.1912 0.5263 0.5865
C8 C 0.2003(2) 0.59835(19) 0.49420(8)
C9 C 0.1324(2) 0.7417(2) 0.50293(9)
H7 H 0.1037 0.7729 0.5442
C10 C 0.1072(3) 0.8365(2) 0.45322(10)
H8 H 0.0621 0.9331 0.4599
C11 C 0.1481(3) 0.7906(2) 0.39235(10)
H9 H 0.1290 0.8562 0.3576
C12 C 0.2151(2) 0.65294(19) 0.38222(9)
H10 H 0.2421 0.6243 0.3405
C13 C 0.2450(2) 0.55211(18) 0.43259(8)
C14 C 0.2018(2) 0.30036(18) 0.32096(7)
C15 C 0.0960(2) 0.18735(19) 0.34309(8)
H11 H 0.1262 0.1428 0.3827
C16 C -0.0522(2) 0.1381(2) 0.30895(8)
H12 H -0.1231 0.0609 0.3248
C17 C -0.0946(2) 0.2041(2) 0.25109(8)
C18 C 0.0077(3) 0.3155(2) 0.22741(8)
H13 H -0.0226 0.3592 0.1876
C19 C 0.1552(2) 0.3627(2) 0.26251(8)
H14 H 0.2262 0.4394 0.2463
loop_
_geom_bond_atom_site_label_1
_geom_bond_atom_site_label_2
_geom_bond_site_symmetry_1
_geom_bond_site_symmetry_2
Cl1 C17 1_555 1_555
O1 C1 1_555 1_555
N1 H1 1_555 1_555
C1 N1 1_555 1_555
C2 C1 1_555 1_555
H2 C2 1_555 1_555
H3 C2 1_555 1_555
C3 C2 1_555 1_555
H4 C3 1_555 1_555
C4 C3 1_555 1_555
C5 N1 1_555 1_555
C6 C5 1_555 1_555
H5 C6 1_555 1_555
C7 C6 1_555 1_555
H6 C7 1_555 1_555
C8 C7 1_555 1_555
C9 C8 1_555 1_555
H7 C9 1_555 1_555
C10 C9 1_555 1_555
H8 C10 1_555 1_555
C11 C10 1_555 1_555
H9 C11 1_555 1_555
C12 C11 1_555 1_555
H10 C12 1_555 1_555
C13 C4 1_555 1_555
C14 C3 1_555 1_555
C15 C14 1_555 1_555
H11 C15 1_555 1_555
C16 C15 1_555 1_555
H12 C16 1_555 1_555
C17 C16 1_555 1_555
C18 C17 1_555 1_555
H13 C18 1_555 1_555
C19 C14 1_555 1_555
H14 C19 1_555 1_555
C4 C5 1_555 1_555
C8 C13 1_555 1_555
C12 C13 1_555 1_555
C18 C19 1_555 1_555

#END
