
#######################################################################
#
#                 Cambridge Crystallographic Data Centre
#                                CCDC 
#
#######################################################################
#
# If this CIF has been generated from an entry in the Cambridge 
# Structural Database, then it will include bibliographic, chemical, 
# crystal, experimental, refinement or atomic coordinate data resulting 
# from the CCDC's data processing and validation procedures.
#
#######################################################################

data_JAWBAL
_chemical_formula_moiety         'C25 H22 Cl1 N1 O1'
_chemical_name_systematic        
3,3-Dimethyl-9-(4-chlorophenyl)-1,2,3,4,9,10-hexahydrobenzo(a)acridine-1-one
_symmetry_cell_setting           monoclinic
_symmetry_space_group_name_H-M   'P 21/n'
_symmetry_Int_Tables_number      14
_space_group_name_Hall           '-P 2yn'
loop_
_symmetry_equiv_pos_site_id
_symmetry_equiv_pos_as_xyz
1 x,y,z
2 1/2-x,1/2+y,1/2-z
3 -x,-y,-z
4 1/2+x,1/2-y,1/2+z
_cell_length_a                   10.4242(14)
_cell_length_b                   11.777(2)
_cell_length_c                   16.173(3)
_cell_angle_alpha                90
_cell_angle_beta                 91.024(5)
_cell_angle_gamma                90
_cell_volume                     1985.17
_exptl_crystal_colour            'pale yellow'
_exptl_crystal_description       block
_chemical_melting_point          'above 573 K'
_cell_formula_units_Z            4
_exptl_crystal_recrystallization_method dimethylformamide/water
loop_
_atom_site_label
_atom_site_type_symbol
_atom_site_fract_x
_atom_site_fract_y
_atom_site_fract_z
Cl1 Cl 0.25815(7) 0.32943(7) 0.61413(4)
O1 O 0.74493(15) 0.07287(13) 0.38584(9)
N1 N 0.65557(18) 0.39253(16) 0.22235(11)
H1 H 0.6807 0.4593 0.2043
C1 C 0.7330(2) 0.33393(19) 0.27571(13)
C2 C 0.6891(2) 0.23876(18) 0.31426(13)
C3 C 0.5495(2) 0.20292(19) 0.30833(13)
H2 H 0.5465 0.1186 0.3011
C4 C 0.4830(2) 0.25729(19) 0.23378(13)
C5 C 0.5367(2) 0.34931(19) 0.19529(13)
C6 C 0.7785(2) 0.16686(19) 0.35823(13)
C7 C 0.9163(2) 0.2034(2) 0.36580(16)
H3 H 0.9648 0.1679 0.3205
H4 H 0.9524 0.1742 0.4187
C8 C 0.9374(2) 0.3323(2) 0.36277(15)
C9 C 0.8679(2) 0.3766(2) 0.28525(14)
H5 H 0.8664 0.4606 0.2871
H6 H 0.9168 0.3538 0.2360
C10 C 0.4791(2) 0.23271(19) 0.38750(13)
C11 C 0.4569(2) 0.3457(2) 0.40680(13)
H7 H 0.4890 0.4035 0.3718
C12 C 0.3889(2) 0.3758(2) 0.47609(14)
H8 H 0.3738 0.4534 0.4886
C13 C 0.3435(2) 0.2912(2) 0.52659(14)
C14 C 0.3653(2) 0.1781(2) 0.51021(15)
H9 H 0.3339 0.1209 0.5460
C15 C 0.4341(2) 0.1493(2) 0.44040(14)
H10 H 0.4506 0.0716 0.4287
C16 C 0.4756(2) 0.4025(2) 0.12646(14)
H11 H 0.5165 0.4639 0.0994
C17 C 0.3591(2) 0.3661(2) 0.09927(14)
H12 H 0.3180 0.4032 0.0538
C18 C 0.2977(2) 0.2733(2) 0.13799(14)
C19 C 0.1754(2) 0.2340(2) 0.11119(15)
H13 H 0.1322 0.2713 0.0667
C20 C 0.1186(3) 0.1434(2) 0.14822(16)
H14 H 0.0364 0.1184 0.1296
C21 C 0.1810(2) 0.0871(2) 0.21345(15)
H15 H 0.1411 0.0237 0.2387
C22 C 0.2991(2) 0.1227(2) 0.24118(14)
H16 H 0.3402 0.0836 0.2857
C23 C 0.3614(2) 0.21674(19) 0.20479(13)
C24 C 0.8846(3) 0.3872(2) 0.44120(16)
H17 H 0.8961 0.4697 0.4384
H18 H 0.9308 0.3574 0.4898
H19 H 0.7930 0.3696 0.4455
C25 C 1.0808(3) 0.3576(3) 0.3577(2)
H20 H 1.1140 0.3265 0.3061
H21 H 1.1260 0.3226 0.4049
H22 H 1.0944 0.4399 0.3589
loop_
_geom_bond_atom_site_label_1
_geom_bond_atom_site_label_2
_geom_bond_site_symmetry_1
_geom_bond_site_symmetry_2
Cl1 C13 1_555 1_555
O1 C6 1_555 1_555
N1 H1 1_555 1_555
C1 N1 1_555 1_555
C2 C1 1_555 1_555
C3 C2 1_555 1_555
H2 C3 1_555 1_555
C4 C3 1_555 1_555
C5 N1 1_555 1_555
C6 C2 1_555 1_555
C7 C6 1_555 1_555
H3 C7 1_555 1_555
H4 C7 1_555 1_555
C8 C7 1_555 1_555
C9 C1 1_555 1_555
H5 C9 1_555 1_555
H6 C9 1_555 1_555
C10 C3 1_555 1_555
C11 C10 1_555 1_555
H7 C11 1_555 1_555
C12 C11 1_555 1_555
H8 C12 1_555 1_555
C13 C12 1_555 1_555
C14 C13 1_555 1_555
H9 C14 1_555 1_555
C15 C10 1_555 1_555
H10 C15 1_555 1_555
C16 C5 1_555 1_555
H11 C16 1_555 1_555
C17 C16 1_555 1_555
H12 C17 1_555 1_555
C18 C17 1_555 1_555
C19 C18 1_555 1_555
H13 C19 1_555 1_555
C20 C19 1_555 1_555
H14 C20 1_555 1_555
C21 C20 1_555 1_555
H15 C21 1_555 1_555
C22 C21 1_555 1_555
H16 C22 1_555 1_555
C23 C4 1_555 1_555
C24 C8 1_555 1_555
H17 C24 1_555 1_555
H18 C24 1_555 1_555
H19 C24 1_555 1_555
C25 C8 1_555 1_555
H20 C25 1_555 1_555
H21 C25 1_555 1_555
H22 C25 1_555 1_555
C4 C5 1_555 1_555
C8 C9 1_555 1_555
C14 C15 1_555 1_555
C18 C23 1_555 1_555
C22 C23 1_555 1_555

#END
