
#######################################################################
#
#                 Cambridge Crystallographic Data Centre
#                                CCDC 
#
#######################################################################
#
# If this CIF has been generated from an entry in the Cambridge 
# Structural Database, then it will include bibliographic, chemical, 
# crystal, experimental, refinement or atomic coordinate data resulting 
# from the CCDC's data processing and validation procedures.
#
#######################################################################

data_JAWBIT
_chemical_name_common            No
_chemical_formula_moiety         'C23 H20 Cl2 O5'
_chemical_name_systematic        
3,3-Dimethyl-7,11-bis(4-chlorophenyl)-2,4-dioxaspiro(5.5)undecan-1,5,9-trione
_symmetry_cell_setting           monoclinic
_symmetry_space_group_name_H-M   'C 2/c'
_symmetry_Int_Tables_number      15
_space_group_name_Hall           '-C 2yn'
loop_
_symmetry_equiv_pos_site_id
_symmetry_equiv_pos_as_xyz
1 x,y,z
2 -x,y,1/2-z
3 1/2+x,1/2+y,z
4 1/2-x,1/2+y,1/2-z
5 -x,-y,-z
6 x,-y,1/2+z
7 1/2-x,1/2-y,-z
8 1/2+x,1/2-y,1/2+z
_cell_length_a                   37.432(5)
_cell_length_b                   9.8998(10)
_cell_length_c                   11.5926(14)
_cell_angle_alpha                90.00
_cell_angle_beta                 96.534(4)
_cell_angle_gamma                90.00
_cell_volume                     4267.96
_exptl_crystal_colour            'pale yellow'
_exptl_crystal_description       block
_chemical_melting_point          '481-482 K'
_cell_formula_units_Z            8
_exptl_crystal_recrystallization_method DMF/water
loop_
_atom_site_label
_atom_site_type_symbol
_atom_site_fract_x
_atom_site_fract_y
_atom_site_fract_z
Cl1 Cl 0.530861(14) 0.70326(5) 0.37676(4)
Cl2 Cl 0.775133(15) -0.12275(7) 0.37076(6)
O1 O 0.53856(3) -0.14104(13) 0.05802(11)
O2 O 0.59453(3) 0.03140(12) 0.39283(10)
O3 O 0.63236(4) 0.19651(17) 0.42400(11)
O4 O 0.65326(4) 0.32537(16) 0.27013(12)
O5 O 0.64005(3) 0.27189(13) 0.08859(11)
C1 C 0.55789(5) -0.06967(17) 0.12295(14)
C2 C 0.54516(4) 0.06184(17) 0.16788(15)
H1 H 0.5397 0.0488 0.2487
H2 H 0.5226 0.0885 0.1205
C3 C 0.57268(4) 0.17682(15) 0.16559(13)
H3 H 0.5747 0.1962 0.0819
C4 C 0.61140(4) 0.13651(15) 0.22189(13)
C5 C 0.62331(4) 0.00218(16) 0.16546(13)
H4 H 0.6247 0.0229 0.0816
C6 C 0.59560(5) -0.11167(16) 0.16825(15)
H5 H 0.6028 -0.1883 0.1212
H6 H 0.5958 -0.1437 0.2492
C7 C 0.61186(4) 0.11713(16) 0.35143(13)
C8 C 0.65499(5) 0.3037(2) 0.39266(16)
C9 C 0.63626(4) 0.24820(17) 0.18766(15)
C10 C 0.64228(8) 0.4320(3) 0.4435(2)
H7 H 0.6174 0.4499 0.4112
H8 H 0.6576 0.5070 0.4245
H9 H 0.6435 0.4228 0.5280
C11 C 0.69286(6) 0.2655(3) 0.4356(2)
H10 H 0.6951 0.2530 0.5200
H11 H 0.7092 0.3373 0.4165
H12 H 0.6991 0.1811 0.3985
C12 C 0.56049(4) 0.30738(16) 0.21787(14)
C13 C 0.54543(4) 0.30978(17) 0.32260(14)
H13 H 0.5413 0.2272 0.3607
C14 C 0.53635(4) 0.43103(18) 0.37195(14)
H14 H 0.5263 0.4318 0.4435
C15 C 0.54220(5) 0.55065(17) 0.31552(15)
C16 C 0.55630(5) 0.55172(17) 0.21017(15)
H15 H 0.5596 0.6344 0.1712
C17 C 0.56550(4) 0.42972(17) 0.16248(14)
H16 H 0.5754 0.4296 0.0906
C18 C 0.66095(4) -0.03839(17) 0.21574(14)
C19 C 0.69027(5) 0.01103(19) 0.16496(16)
H17 H 0.6861 0.0637 0.0962
C20 C 0.72530(5) -0.0144(2) 0.21181(18)
H18 H 0.7450 0.0217 0.1768
C21 C 0.73111(5) -0.0931(2) 0.31006(18)
C22 C 0.70280(5) -0.1476(2) 0.36068(17)
H19 H 0.7072 -0.2039 0.4271
C23 C 0.66781(5) -0.11963(19) 0.31415(16)
H20 H 0.6483 -0.1562 0.3497
loop_
_geom_bond_atom_site_label_1
_geom_bond_atom_site_label_2
_geom_bond_site_symmetry_1
_geom_bond_site_symmetry_2
Cl1 C15 1_555 1_555
Cl2 C21 1_555 1_555
O1 C1 1_555 1_555
O2 C7 1_555 1_555
O3 C7 1_555 1_555
O4 C8 1_555 1_555
O5 C9 1_555 1_555
C1 C2 1_555 1_555
C2 H1 1_555 1_555
H2 C2 1_555 1_555
C3 C2 1_555 1_555
H3 C3 1_555 1_555
C4 C3 1_555 1_555
C5 C4 1_555 1_555
H4 C5 1_555 1_555
C6 C1 1_555 1_555
H5 C6 1_555 1_555
H6 C6 1_555 1_555
C7 C4 1_555 1_555
C8 O3 1_555 1_555
C9 O4 1_555 1_555
C10 C8 1_555 1_555
H7 C10 1_555 1_555
H8 C10 1_555 1_555
H9 C10 1_555 1_555
C11 C8 1_555 1_555
H10 C11 1_555 1_555
H11 C11 1_555 1_555
H12 C11 1_555 1_555
C12 C3 1_555 1_555
C13 C12 1_555 1_555
H13 C13 1_555 1_555
C14 C13 1_555 1_555
H14 C14 1_555 1_555
C15 C14 1_555 1_555
C16 C15 1_555 1_555
H15 C16 1_555 1_555
C17 C12 1_555 1_555
H16 C17 1_555 1_555
C18 C5 1_555 1_555
C19 C18 1_555 1_555
H17 C19 1_555 1_555
C20 C19 1_555 1_555
H18 C20 1_555 1_555
C21 C20 1_555 1_555
C22 C21 1_555 1_555
H19 C22 1_555 1_555
C23 C18 1_555 1_555
H20 C23 1_555 1_555
C4 C9 1_555 1_555
C5 C6 1_555 1_555
C16 C17 1_555 1_555
C22 C23 1_555 1_555

#END
