
#######################################################################
#
#                 Cambridge Crystallographic Data Centre
#                                CCDC 
#
#######################################################################
#
# If this CIF has been generated from an entry in the Cambridge 
# Structural Database, then it will include bibliographic, chemical, 
# crystal, experimental, refinement or atomic coordinate data resulting 
# from the CCDC's data processing and validation procedures.
#
#######################################################################

data_JAWFET
_chemical_formula_moiety         'C48 H48 O4'
_chemical_name_systematic        
5,11,17,23-Tetraethynyl-25,26,27,28-tetra-n-propoxycalix(4)arene
_symmetry_cell_setting           orthorhombic
_symmetry_space_group_name_H-M   'P n a 21'
_symmetry_Int_Tables_number      33
_space_group_name_Hall           'P 2c -2n'
loop_
_symmetry_equiv_pos_site_id
_symmetry_equiv_pos_as_xyz
1 x,y,z
2 -x,-y,1/2+z
3 1/2+x,1/2-y,z
4 1/2-x,1/2+y,1/2+z
_cell_length_a                   17.392(6)
_cell_length_b                   12.885(4)
_cell_length_c                   17.374(2)
_cell_angle_alpha                90
_cell_angle_beta                 90
_cell_angle_gamma                90
_cell_volume                     3893.44
_exptl_crystal_colour            colorless
_exptl_crystal_description       prism
_chemical_melting_point          'above 300deg.C'
_cell_formula_units_Z            4
loop_
_atom_site_label
_atom_site_type_symbol
_atom_site_fract_x
_atom_site_fract_y
_atom_site_fract_z
C1 C 0.80530(17) 1.2266(2) 0.94725(14)
C2 C 0.83226(16) 1.3068(2) 0.90151(14)
H1 H 0.7968 1.3563 0.8820
C3 C 0.90969(16) 1.3169(2) 0.88340(15)
C4 C 0.95915(16) 1.2375(2) 0.90551(14)
H2 H 1.0112 1.2396 0.8891
C5 C 0.93452(16) 1.1552(2) 0.95092(14)
C6 C 0.85793(17) 1.1564(2) 0.97624(15)
C7 C 0.93709(18) 1.4052(3) 0.84115(16)
C8 C 0.95567(19) 1.4796(3) 0.80919(17)
H3 H 0.9710 1.5408 0.7829
C9 C 0.98472(15) 1.0621(2) 0.96626(15)
H4 H 0.9850 1.0471 1.0221
H5 H 1.0381 1.0777 0.9503
O1 O 0.83365(10) 1.08184(14) 1.02860(9)
C10 C 0.86241(17) 1.0996(2) 1.10656(14)
H6 H 0.9157 1.1261 1.1037
H7 H 0.8636 1.0327 1.1346
C11 C 0.81356(17) 1.1759(2) 1.15082(16)
H8 H 0.8415 1.1968 1.1980
H9 H 0.8061 1.2389 1.1190
C12 C 0.73583(18) 1.1339(3) 1.17334(16)
H10 H 0.7424 1.0777 1.2108
H11 H 0.7096 1.1070 1.1275
H12 H 0.7050 1.1895 1.1963
C13 C 0.95616(14) 0.9673(2) 0.92290(15)
C14 C 0.95037(15) 0.9706(2) 0.84329(15)
H13 H 0.9653 1.0316 0.8164
C15 C 0.92300(15) 0.8855(2) 0.80239(15)
C16 C 0.89826(15) 0.7986(2) 0.84241(15)
H14 H 0.8786 0.7408 0.8147
C17 C 0.90165(14) 0.7945(2) 0.92222(15)
C18 C 0.93307(15) 0.8784(2) 0.96134(14)
C19 C 0.91777(17) 0.8870(2) 0.71962(17)
C20 C 0.9110(2) 0.8789(3) 0.6534(2)
H15 H 0.9054 0.8722 0.5992
C21 C 0.86762(15) 0.7012(2) 0.96323(15)
H16 H 0.8709 0.7115 1.0196
H17 H 0.8974 0.6382 0.9499
O2 O 0.93652(10) 0.87447(14) 1.04116(9)
C22 C 1.01052(17) 0.8405(2) 1.06873(14)
H18 H 1.0507 0.8914 1.0544
H19 H 1.0240 0.7726 1.0457
C23 C 1.00530(17) 0.8312(3) 1.15489(16)
H20 H 0.9820 0.8952 1.1760
H21 H 1.0578 0.8248 1.1764
C24 C 0.9579(2) 0.7385(3) 1.18023(16)
H22 H 0.9795 0.6751 1.1579
H23 H 0.9047 0.7472 1.1627
H24 H 0.9588 0.7334 1.2365
C25 C 0.78393(16) 0.6866(2) 0.93989(14)
C26 C 0.76045(15) 0.5959(2) 0.90302(14)
H25 H 0.7960 0.5405 0.8975
C27 C 0.68647(16) 0.5843(2) 0.87417(15)
C28 C 0.63568(15) 0.6682(2) 0.87900(14)
H26 H 0.5860 0.6625 0.8568
C29 C 0.65651(15) 0.7594(2) 0.91557(14)
C30 C 0.73002(16) 0.7655(2) 0.94855(14)
C31 C 0.66362(16) 0.4892(2) 0.83756(16)
C32 C 0.64546(17) 0.4114(3) 0.80759(17)
H27 H 0.6307 0.3484 0.7833
C33 C 0.60304(14) 0.8525(2) 0.91790(15)
H28 H 0.5561 0.8365 0.8880
H29 H 0.5875 0.8655 0.9719
O3 O 0.74909(10) 0.85689(14) 0.98441(9)
C34 C 0.75372(16) 0.8537(2) 1.06718(14)
H30 H 0.7665 0.9242 1.0860
H31 H 0.7967 0.8073 1.0818
C35 C 0.68291(16) 0.8178(2) 1.10736(14)
H32 H 0.6709 0.7459 1.0913
H33 H 0.6391 0.8626 1.0925
C36 C 0.69332(17) 0.8213(2) 1.19340(14)
H34 H 0.7036 0.8929 1.2095
H35 H 0.7367 0.7771 1.2081
H36 H 0.6464 0.7963 1.2186
C37 C 0.63960(14) 0.9493(2) 0.88575(14)
C38 C 0.66158(15) 0.9526(2) 0.80905(15)
H37 H 0.6512 0.8947 0.7768
C39 C 0.69866(17) 1.0392(2) 0.77829(15)
C40 C 0.71474(16) 1.1223(2) 0.82760(15)
H38 H 0.7406 1.1814 0.8076
C41 C 0.69422(15) 1.1210(2) 0.90444(15)
C42 C 0.65450(14) 1.0356(2) 0.93161(14)
C43 C 0.71821(18) 1.0437(2) 0.69829(19)
C44 C 0.7337(2) 1.0462(3) 0.6325(2)
H39 H 0.7463 1.0483 0.5793
C45 C 0.72013(15) 1.2087(2) 0.95716(14)
H40 H 0.6916 1.2730 0.9444
H41 H 0.7089 1.1905 1.0114
O4 O 0.63163(10) 1.03218(14) 1.00819(9)
C46 C 0.55938(16) 1.0833(2) 1.02117(16)
H42 H 0.5219 1.0612 0.9815
H43 H 0.5664 1.1593 1.0166
C47 C 0.52958(19) 1.0585(3) 1.09725(18)
H44 H 0.5686 1.0774 1.1363
H45 H 0.5210 0.9826 1.1006
C48 C 0.45507(19) 1.1140(3) 1.1157(2)
H46 H 0.4193 1.1062 1.0725
H47 H 0.4655 1.1878 1.1243
H48 H 0.4323 1.0838 1.1622
loop_
_geom_bond_atom_site_label_1
_geom_bond_atom_site_label_2
_geom_bond_site_symmetry_1
_geom_bond_site_symmetry_2
C1 C2 1_555 1_555
C2 H1 1_555 1_555
C3 C2 1_555 1_555
C4 C3 1_555 1_555
H2 C4 1_555 1_555
C5 C4 1_555 1_555
C6 C1 1_555 1_555
C7 C3 1_555 1_555
C8 C7 1_555 1_555
H3 C8 1_555 1_555
C9 C5 1_555 1_555
H4 C9 1_555 1_555
H5 C9 1_555 1_555
O1 C6 1_555 1_555
C10 O1 1_555 1_555
H6 C10 1_555 1_555
H7 C10 1_555 1_555
C11 C10 1_555 1_555
H8 C11 1_555 1_555
H9 C11 1_555 1_555
C12 C11 1_555 1_555
H10 C12 1_555 1_555
H11 C12 1_555 1_555
H12 C12 1_555 1_555
C13 C9 1_555 1_555
C14 C13 1_555 1_555
H13 C14 1_555 1_555
C15 C14 1_555 1_555
C16 C15 1_555 1_555
H14 C16 1_555 1_555
C17 C16 1_555 1_555
C18 C13 1_555 1_555
C19 C15 1_555 1_555
C20 C19 1_555 1_555
H15 C20 1_555 1_555
C21 C17 1_555 1_555
H16 C21 1_555 1_555
H17 C21 1_555 1_555
O2 C18 1_555 1_555
C22 O2 1_555 1_555
H18 C22 1_555 1_555
H19 C22 1_555 1_555
C23 C22 1_555 1_555
H20 C23 1_555 1_555
H21 C23 1_555 1_555
C24 C23 1_555 1_555
H22 C24 1_555 1_555
H23 C24 1_555 1_555
H24 C24 1_555 1_555
C25 C21 1_555 1_555
C26 C25 1_555 1_555
H25 C26 1_555 1_555
C27 C26 1_555 1_555
C28 C27 1_555 1_555
H26 C28 1_555 1_555
C29 C28 1_555 1_555
C30 C25 1_555 1_555
C31 C27 1_555 1_555
C32 C31 1_555 1_555
H27 C32 1_555 1_555
C33 C29 1_555 1_555
H28 C33 1_555 1_555
H29 C33 1_555 1_555
O3 C30 1_555 1_555
C34 O3 1_555 1_555
H30 C34 1_555 1_555
H31 C34 1_555 1_555
C35 C34 1_555 1_555
H32 C35 1_555 1_555
H33 C35 1_555 1_555
C36 C35 1_555 1_555
H34 C36 1_555 1_555
H35 C36 1_555 1_555
H36 C36 1_555 1_555
C37 C33 1_555 1_555
C38 C37 1_555 1_555
H37 C38 1_555 1_555
C39 C38 1_555 1_555
C40 C39 1_555 1_555
H38 C40 1_555 1_555
C41 C40 1_555 1_555
C42 C37 1_555 1_555
C43 C39 1_555 1_555
C44 C43 1_555 1_555
H39 C44 1_555 1_555
C45 C1 1_555 1_555
H40 C45 1_555 1_555
H41 C45 1_555 1_555
O4 C42 1_555 1_555
C46 O4 1_555 1_555
H42 C46 1_555 1_555
H43 C46 1_555 1_555
C47 C46 1_555 1_555
H44 C47 1_555 1_555
H45 C47 1_555 1_555
C48 C47 1_555 1_555
H46 C48 1_555 1_555
H47 C48 1_555 1_555
H48 C48 1_555 1_555
C5 C6 1_555 1_555
C17 C18 1_555 1_555
C29 C30 1_555 1_555
C41 C42 1_555 1_555
C41 C45 1_555 1_555

#END
