
#######################################################################
#
#                 Cambridge Crystallographic Data Centre
#                                CCDC 
#
#######################################################################
#
# If this CIF has been generated from an entry in the Cambridge 
# Structural Database, then it will include bibliographic, chemical, 
# crystal, experimental, refinement or atomic coordinate data resulting 
# from the CCDC's data processing and validation procedures.
#
#######################################################################

data_JAWHOF
_chemical_formula_moiety         '0.5(C15 H16 N2 O3 S1),0.5(C15 H16 N2 O3 S1)'
_chemical_name_systematic        
4-((1E)-2-(2-Hydroxybenzylideneamino)ethyl)benzensulfonamide
_chemical_properties_biological  
'inactive against Aspergillus niger and Aspergillus flavus'
_symmetry_cell_setting           monoclinic
_symmetry_space_group_name_H-M   'P n'
_symmetry_Int_Tables_number      7
_space_group_name_Hall           'P -2yac'
loop_
_symmetry_equiv_pos_site_id
_symmetry_equiv_pos_as_xyz
1 x,y,z
2 1/2+x,-y,1/2+z
_cell_length_a                   8.2232(7)
_cell_length_b                   9.5901(8)
_cell_length_c                   18.2600(15)
_cell_angle_alpha                90
_cell_angle_beta                 98.2870(10)
_cell_angle_gamma                90
_cell_volume                     1424.97
_exptl_crystal_colour            colorless
_exptl_crystal_description       irregular
_chemical_melting_point          141deg.C
_cell_formula_units_Z            4
_exptl_crystal_recrystallization_method ethanol
loop_
_atom_site_label
_atom_site_type_symbol
_atom_site_fract_x
_atom_site_fract_y
_atom_site_fract_z
N1 N 1.0072(2) 1.0580(2) 0.57417(10)
O1 O 1.09918(19) 1.23936(15) 0.66490(9)
S1 S 1.06195(6) 1.09292(5) 0.65993(3)
O2 O 1.18843(19) 0.99814(17) 0.68938(9)
C1 C 0.8911(2) 1.06235(19) 0.70708(11)
C2 C 0.7411(3) 1.0235(3) 0.67015(12)
C3 C 0.6107(3) 0.9972(3) 0.70911(13)
C4 C 0.6320(3) 1.0068(2) 0.78581(11)
C5 C 0.7842(3) 1.0482(2) 0.82228(12)
C6 C 0.9143(3) 1.0762(2) 0.78359(12)
C7 C 0.4938(3) 0.9712(2) 0.82941(12)
C8 C 0.4231(3) 0.8253(2) 0.81104(13)
N2 N 0.3197(2) 0.78344(17) 0.86540(10)
C9 C 0.1606(3) 0.7768(2) 0.85532(12)
C10 C 0.0709(3) 0.74437(19) 0.91421(12)
C11 C 0.1568(3) 0.72130(19) 0.98741(12)
C12 C 0.0597(3) 0.7011(2) 1.04507(13)
C13 C -0.1086(3) 0.7025(2) 1.03070(15)
C14 C -0.1914(3) 0.7212(2) 0.95915(16)
C15 C -0.1031(3) 0.7410(2) 0.90184(14)
O3 O 0.31655(18) 0.71927(15) 1.00037(8)
H1 H 0.938(3) 1.124(2) 0.5507(13)
H2 H 0.981(3) 0.986(3) 0.5680(16)
H3 H 0.719(4) 1.020(3) 0.6165(17)
H4 H 0.503(4) 0.967(3) 0.6778(15)
H5 H 0.800(3) 1.059(3) 0.8765(15)
H6 H 1.021(3) 1.106(2) 0.8074(13)
H7 H 0.403(3) 1.037(3) 0.8155(13)
H8 H 0.538(3) 0.974(2) 0.8858(13)
H9 H 0.364(3) 0.826(3) 0.7638(15)
H10 H 0.507(3) 0.762(2) 0.8155(12)
H11 H 0.359(4) 0.769(3) 0.9146(18)
H12 H 0.105(3) 0.792(3) 0.8102(15)
H13 H 0.117(3) 0.689(3) 1.0950(15)
H14 H -0.171(3) 0.696(3) 1.0696(15)
H15 H -0.318(4) 0.724(3) 0.9491(19)
H16 H -0.157(3) 0.758(2) 0.8535(13)
N3 N 1.0206(3) 0.5018(2) 0.58076(13)
O4 O 1.12275(18) 0.64358(16) 0.68894(9)
S2 S 0.97965(5) 0.62781(5) 0.63455(3)
O5 O 0.92208(19) 0.74308(15) 0.58815(9)
C16 C 0.8166(2) 0.56947(19) 0.68052(11)
C17 C 0.8517(3) 0.4708(2) 0.73595(13)
C18 C 0.7251(3) 0.4130(2) 0.76763(13)
C19 C 0.5622(2) 0.4527(2) 0.74506(11)
C20 C 0.5301(3) 0.5539(2) 0.69046(11)
C21 C 0.6572(3) 0.6130(2) 0.65778(11)
C22 C 0.4253(3) 0.3822(2) 0.77851(13)
C23 C 0.4428(3) 0.3995(3) 0.86170(13)
N4 N 0.3267(2) 0.31057(18) 0.89399(9)
C24 C 0.1989(3) 0.3675(2) 0.91314(12)
C25 C 0.0796(2) 0.28995(19) 0.94888(11)
C26 C 0.1056(2) 0.1493(2) 0.96937(10)
C27 C -0.0075(3) 0.0807(2) 1.00666(12)
C28 C -0.1438(3) 0.1511(3) 1.02413(12)
C29 C -0.1720(3) 0.2892(3) 1.00360(13)
C30 C -0.0603(3) 0.3576(2) 0.96648(12)
O6 O 0.23866(18) 0.07826(15) 0.95290(9)
H17 H 1.043(4) 0.433(3) 0.6068(18)
H18 H 0.939(3) 0.481(2) 0.5519(15)
H19 H 0.963(3) 0.442(3) 0.7511(14)
H20 H 0.749(3) 0.343(2) 0.8053(14)
H21 H 0.421(3) 0.586(2) 0.6710(13)
H22 H 0.628(3) 0.682(2) 0.6243(13)
H23 H 0.311(3) 0.417(3) 0.7517(15)
H24 H 0.422(3) 0.281(3) 0.7642(14)
H25 H 0.558(4) 0.369(3) 0.8840(17)
H26 H 0.431(3) 0.494(3) 0.8749(15)
H27 H 0.178(3) 0.470(3) 0.9093(14)
H28 H 0.009(3) -0.019(3) 1.0213(14)
H29 H -0.216(4) 0.105(3) 1.0522(19)
H30 H -0.261(4) 0.339(3) 1.0188(18)
H31 H -0.080(3) 0.451(2) 0.9534(12)
H32 H 0.302(4) 0.142(3) 0.9308(19)
loop_
_geom_bond_atom_site_label_1
_geom_bond_atom_site_label_2
_geom_bond_site_symmetry_1
_geom_bond_site_symmetry_2
N1 S1 1_555 1_555
O1 S1 1_555 1_555
S1 O2 1_555 1_555
C1 S1 1_555 1_555
C2 C1 1_555 1_555
C3 C2 1_555 1_555
C4 C3 1_555 1_555
C5 C4 1_555 1_555
C6 C1 1_555 1_555
C7 C4 1_555 1_555
C8 C7 1_555 1_555
N2 C8 1_555 1_555
C9 N2 1_555 1_555
C10 C9 1_555 1_555
C11 C10 1_555 1_555
C12 C11 1_555 1_555
C13 C12 1_555 1_555
C14 C13 1_555 1_555
C15 C10 1_555 1_555
O3 C11 1_555 1_555
N3 S2 1_555 1_555
O4 S2 1_555 1_555
S2 O5 1_555 1_555
C16 S2 1_555 1_555
C17 C16 1_555 1_555
C18 C17 1_555 1_555
C19 C18 1_555 1_555
C20 C19 1_555 1_555
C21 C16 1_555 1_555
C22 C19 1_555 1_555
C23 C22 1_555 1_555
N4 C23 1_555 1_555
C24 N4 1_555 1_555
C25 C24 1_555 1_555
C26 C25 1_555 1_555
C27 C26 1_555 1_555
C28 C27 1_555 1_555
C29 C28 1_555 1_555
C30 C25 1_555 1_555
O6 C26 1_555 1_555
H1 N1 1_555 1_555
H2 N1 1_555 1_555
H3 C2 1_555 1_555
H4 C3 1_555 1_555
H5 C5 1_555 1_555
H6 C6 1_555 1_555
H7 C7 1_555 1_555
H8 C7 1_555 1_555
H9 C8 1_555 1_555
H10 C8 1_555 1_555
H11 N2 1_555 1_555
H12 C9 1_555 1_555
H13 C12 1_555 1_555
H14 C13 1_555 1_555
H15 C14 1_555 1_555
H16 C15 1_555 1_555
H17 N3 1_555 1_555
H18 N3 1_555 1_555
H19 C17 1_555 1_555
H20 C18 1_555 1_555
H21 C20 1_555 1_555
H22 C21 1_555 1_555
H23 C22 1_555 1_555
H24 C22 1_555 1_555
H25 C23 1_555 1_555
H26 C23 1_555 1_555
H27 C24 1_555 1_555
H28 C27 1_555 1_555
H29 C28 1_555 1_555
H30 C29 1_555 1_555
H31 C30 1_555 1_555
H32 O6 1_555 1_555
C5 C6 1_555 1_555
C14 C15 1_555 1_555
C20 C21 1_555 1_555
C29 C30 1_555 1_555

#END
