
#######################################################################
#
#                 Cambridge Crystallographic Data Centre
#                                CCDC 
#
#######################################################################
#
# If this CIF has been generated from an entry in the Cambridge 
# Structural Database, then it will include bibliographic, chemical, 
# crystal, experimental, refinement or atomic coordinate data resulting 
# from the CCDC's data processing and validation procedures.
#
#######################################################################

data_JAWLIC
_chemical_name_common            'PDB Chemical Component code: ZAH'
_chemical_formula_moiety         'C16 H20 N2 O5'
_chemical_name_systematic        Benzyloxycarbonyl-L-alanyl-L-proline
_symmetry_cell_setting           orthorhombic
_symmetry_space_group_name_H-M   'P 21 21 21'
_symmetry_Int_Tables_number      19
_space_group_name_Hall           'P 2ac 2ab'
loop_
_symmetry_equiv_pos_site_id
_symmetry_equiv_pos_as_xyz
1 x,y,z
2 1/2+x,1/2-y,-z
3 -x,1/2+y,1/2-z
4 1/2-x,-y,1/2+z
_cell_length_a                   8.503(3)
_cell_length_b                   22.156(6)
_cell_length_c                   8.588(3)
_cell_angle_alpha                90
_cell_angle_beta                 90
_cell_angle_gamma                90
_cell_volume                     1617.91
_exptl_crystal_colour            colorless
_cell_formula_units_Z            4
loop_
_atom_site_label
_atom_site_type_symbol
_atom_site_fract_x
_atom_site_fract_y
_atom_site_fract_z
C1 C 1.1644(5) 0.1058(2) 0.8681(5)
C2 C 1.2936(6) 0.1414(3) 0.8547(6)
C3 C 1.2763(8) 0.2046(4) 0.8555(7)
C4 C 1.1275(10) 0.2303(3) 0.8709(8)
C5 C 0.9977(6) 0.1935(2) 0.8818(6)
C6 C 1.0134(5) 0.1316(2) 0.8802(4)
C7 C 0.8740(5) 0.0910(2) 0.8883(5)
C8 C 0.7188(4) 0.1018(2) 0.6579(5)
C9 C 0.5819(4) 0.1069(2) 0.4132(5)
C10 C 0.6131(6) 0.0882(2) 0.2451(5)
C11 C 0.4162(4) 0.0870(2) 0.4584(4)
C12 C 0.1352(4) 0.1039(2) 0.4454(5)
C13 C 0.0377(5) 0.1597(2) 0.4053(8)
C14 C 0.1420(7) 0.1989(4) 0.3073(10)
C15 C 0.3077(5) 0.1862(2) 0.3618(6)
C16 C 0.0911(4) 0.0514(2) 0.3420(5)
N1 N 0.6982(4) 0.0803(2) 0.5134(4)
N2 N 0.2974(4) 0.1233(1) 0.4256(4)
O1 O 0.8327(3) 0.0705(1) 0.7323(1)
O2 O 0.6463(4) 0.1431(1) 0.7133(4)
O3 O 0.3950(3) 0.0363(1) 0.5137(3)
O4 O -0.0213(4) 0.0201(2) 0.3678(5)
O5 O 0.1843(4) 0.0444(1) 0.2210(3)
H1 H 1.166(6) 0.054(2) 0.884(6)
H2 H 1.420(7) 0.126(2) 0.831(7)
H3 H 1.383(6) 0.212(2) 0.844(7)
H4 H 1.157(9) 0.278(3) 0.871(8)
H5 H 0.884(8) 0.199(3) 0.893(8)
H6 H 0.881(5) 0.053(2) 0.946(5)
H7 H 0.781(5) 0.121(2) 0.928(5)
H8 H 0.586(4) 0.153(2) 0.403(4)
H9 H 0.610(6) 0.040(2) 0.256(7)
H10 H 0.535(5) 0.107(2) 0.184(5)
H11 H 0.722(6) 0.101(2) 0.221(7)
H12 H 0.767(5) 0.046(2) 0.473(5)
H13 H 0.142(6) 0.020(2) 0.170(6)
C17? C 0.1478(7) 0.2132(3) 0.4021(12)
H14? H 0.122(4) 0.090(2) 0.554(4)
loop_
_geom_bond_atom_site_label_1
_geom_bond_atom_site_label_2
_geom_bond_site_symmetry_1
_geom_bond_site_symmetry_2
C1 C2 1_555 1_555
C2 C3 1_555 1_555
C3 C4 1_555 1_555
C4 C5 1_555 1_555
C5 C6 1_555 1_555
C6 C1 1_555 1_555
C7 C6 1_555 1_555
C8 N1 1_555 1_555
C9 C10 1_555 1_555
C10 H9 1_555 1_555
C11 C9 1_555 1_555
C12 C13 1_555 1_555
C13 C14 1_555 1_555
C14 C15 1_555 1_555
C15 N2 1_555 1_555
C16 C12 1_555 1_555
N1 C9 1_555 1_555
N2 C11 1_555 1_555
O1 C7 1_555 1_555
O2 C8 1_555 1_555
O3 C11 1_555 1_555
O4 C16 1_555 1_555
O5 C16 1_555 1_555
H1 C1 1_555 1_555
H2 C2 1_555 1_555
H3 C3 1_555 1_555
H4 C4 1_555 1_555
H5 C5 1_555 1_555
H6 C7 1_555 1_555
H7 C7 1_555 1_555
H8 C9 1_555 1_555
H10 C10 1_555 1_555
H11 C10 1_555 1_555
H12 N1 1_555 1_555
H13 O5 1_555 1_555
C8 O1 1_555 1_555
C12 N2 1_555 1_555

#END
