
#######################################################################
#
#                 Cambridge Crystallographic Data Centre
#                                CCDC 
#
#######################################################################
#
# If this CIF has been generated from an entry in the Cambridge 
# Structural Database, then it will include bibliographic, chemical, 
# crystal, experimental, refinement or atomic coordinate data resulting 
# from the CCDC's data processing and validation procedures.
#
#######################################################################

data_JAWQUT03
_chemical_formula_moiety         'C10 H20 Ca1 N2 O11'
_chemical_name_systematic        (15-Crown-5)-bis(nitrato-O,O')-calcium
_symmetry_cell_setting           orthorhombic
_symmetry_space_group_name_H-M   'P c a 21'
_symmetry_Int_Tables_number      29
_space_group_name_Hall           'P 2c -2ac'
loop_
_symmetry_equiv_pos_site_id
_symmetry_equiv_pos_as_xyz
1 x,y,z
2 -x,-y,1/2+z
3 1/2+x,-y,z
4 1/2-x,y,1/2+z
_cell_length_a                   15.2101(9)
_cell_length_b                   15.9269(11)
_cell_length_c                   13.2898(10)
_cell_angle_alpha                90
_cell_angle_beta                 90
_cell_angle_gamma                90
_cell_volume                     3219.45
_exptl_crystal_colour            colorless
_exptl_crystal_description       block
_cell_formula_units_Z            8
loop_
_atom_site_label
_atom_site_type_symbol
_atom_site_fract_x
_atom_site_fract_y
_atom_site_fract_z
Ca1 Ca 0.05984(2) 0.92127(3) 0.59570(3)
C1 C -0.11427(16) 0.80087(14) 0.5386(2)
H1 H -0.1522 0.7523 0.5464
H2 H -0.1010 0.8070 0.4676
C2 C -0.16130(14) 0.87718(14) 0.5748(2)
H3 H -0.2114 0.8892 0.5320
H4 H -0.1821 0.8691 0.6431
C3 C -0.13269(13) 1.02364(13) 0.6060(2)
H5 H -0.1960 1.0202 0.6142
H6 H -0.1200 1.0671 0.5571
C4 C -0.09068(14) 1.04552(15) 0.70510(19)
H7 H -0.1100 1.1005 0.7275
H8 H -0.1064 1.0045 0.7560
C5 C 0.05212(15) 1.08081(15) 0.77049(19)
H9 H 0.0348 1.0554 0.8338
H10 H 0.0423 1.1409 0.7746
C6 C 0.14714(15) 1.06254(14) 0.74837(19)
H11 H 0.1651 1.0932 0.6887
H12 H 0.1831 1.0815 0.8042
C7 C 0.16597(15) 0.92729(15) 0.82497(18)
H13 H 0.1210 0.9462 0.8714
H14 H 0.2230 0.9352 0.8563
C8 C 0.15241(15) 0.83699(16) 0.79975(19)
H15 H 0.1984 0.8174 0.7550
H16 H 0.1533 0.8031 0.8604
C9 C 0.04004(18) 0.74644(14) 0.7390(2)
H17 H 0.0359 0.7187 0.8038
H18 H 0.0813 0.7157 0.6973
C10 C -0.04786(17) 0.74998(15) 0.6898(2)
H19 H -0.0721 0.6940 0.6827
H20 H -0.0882 0.7835 0.7296
N1 N 0.15311(12) 0.80818(11) 0.46738(16)
N2 N 0.12208(12) 1.04705(11) 0.45165(15)
O1 O -0.03470(10) 0.78746(9) 0.59294(14)
O2 O -0.09930(9) 0.94451(9) 0.57084(13)
O3 O 0.00283(9) 1.04522(10) 0.68842(12)
O4 O 0.16104(9) 0.97403(10) 0.73262(12)
O5 O 0.06832(9) 0.83136(9) 0.75145(13)
O6 O 0.17460(11) 0.81743(11) 0.55892(14)
O7 O 0.19471(12) 0.76086(11) 0.41223(15)
O8 O 0.08743(11) 0.84871(10) 0.43500(13)
O9 O 0.17136(10) 1.00660(10) 0.51115(15)
O10 O 0.04008(10) 1.03711(10) 0.46137(13)
O11 O 0.15336(11) 1.09352(10) 0.38739(14)
Ca2 Ca 0.07285(3) 0.43066(3) 0.64701(3)
C11 C -0.08965(17) 0.29539(16) 0.6997(3)
H21 H -0.0780 0.3026 0.7709
H22 H -0.1225 0.2437 0.6912
C12 C -0.14391(15) 0.36791(14) 0.6625(3)
H23 H -0.1631 0.3582 0.5939
H24 H -0.1953 0.3758 0.7047
C13 C -0.12915(13) 0.51656(14) 0.6383(2)
H25 H -0.1219 0.5579 0.6913
H26 H -0.1916 0.5077 0.6279
C14 C -0.08813(14) 0.54792(14) 0.5436(2)
H27 H -0.0997 0.5093 0.4888
H28 H -0.1122 0.6024 0.5260
C15 C 0.05069(15) 0.59550(15) 0.48053(19)
H29 H 0.0372 0.6550 0.4800
H30 H 0.0337 0.5717 0.4162
C16 C 0.14724(15) 0.58202(14) 0.4988(2)
H31 H 0.1806 0.6043 0.4427
H32 H 0.1650 0.6118 0.5591
C17 C 0.16959(16) 0.45146(16) 0.41490(19)
H33 H 0.2235 0.4657 0.3799
H34 H 0.1203 0.4679 0.3730
C18 C 0.16646(15) 0.36001(16) 0.4350(2)
H35 H 0.1678 0.3288 0.3723
H36 H 0.2165 0.3431 0.4756
C19 C 0.07055(18) 0.25613(14) 0.5010(2)
H37 H 0.1165 0.2313 0.5418
H38 H 0.0695 0.2279 0.4363
C20 C -0.01568(18) 0.24793(14) 0.5517(2)
H39 H -0.0614 0.2738 0.5114
H40 H -0.0303 0.1892 0.5611
O12 O -0.08812(10) 0.43880(9) 0.66760(15)
O13 O -0.00859(10) 0.28926(10) 0.64690(15)
O14 O 0.08623(10) 0.34405(9) 0.48772(13)
O15 O 0.16573(10) 0.49449(10) 0.51021(13)
O16 O 0.00454(9) 0.55441(10) 0.56089(12)
O17 O 0.20617(12) 0.24723(10) 0.79822(16)
O18 O 0.19643(11) 0.33393(11) 0.67222(14)
O19 O 0.11184(12) 0.34981(11) 0.80164(14)
O20 O 0.17322(10) 0.52816(11) 0.73072(13)
O21 O 0.04149(10) 0.53218(10) 0.79065(13)
O22 O 0.14684(11) 0.60067(10) 0.86625(14)
N3 N 0.17179(13) 0.30893(12) 0.75817(17)
N4 N 0.12090(12) 0.55467(11) 0.79759(15)
loop_
_geom_bond_atom_site_label_1
_geom_bond_atom_site_label_2
_geom_bond_site_symmetry_1
_geom_bond_site_symmetry_2
Ca1 O1 1_555 1_555
C1 H1 1_555 1_555
H2 C1 1_555 1_555
C2 C1 1_555 1_555
H3 C2 1_555 1_555
H4 C2 1_555 1_555
C3 H5 1_555 1_555
H6 C3 1_555 1_555
C4 C3 1_555 1_555
H7 C4 1_555 1_555
H8 C4 1_555 1_555
C5 H9 1_555 1_555
H10 C5 1_555 1_555
C6 C5 1_555 1_555
H11 C6 1_555 1_555
H12 C6 1_555 1_555
C7 H13 1_555 1_555
H14 C7 1_555 1_555
C8 C7 1_555 1_555
H15 C8 1_555 1_555
H16 C8 1_555 1_555
C9 H17 1_555 1_555
H18 C9 1_555 1_555
C10 C9 1_555 1_555
H19 C10 1_555 1_555
H20 C10 1_555 1_555
N1 O6 1_555 1_555
N2 O9 1_555 1_555
O1 C1 1_555 1_555
O2 Ca1 1_555 1_555
O3 Ca1 1_555 1_555
O4 Ca1 1_555 1_555
O5 Ca1 1_555 1_555
O6 Ca1 1_555 1_555
O7 N1 1_555 1_555
O8 Ca1 1_555 1_555
O9 Ca1 1_555 1_555
O10 Ca1 1_555 1_555
O11 N2 1_555 1_555
Ca2 O12 1_555 1_555
C11 H21 1_555 1_555
H22 C11 1_555 1_555
C12 C11 1_555 1_555
H23 C12 1_555 1_555
H24 C12 1_555 1_555
C13 H25 1_555 1_555
H26 C13 1_555 1_555
C14 C13 1_555 1_555
H27 C14 1_555 1_555
H28 C14 1_555 1_555
C15 H29 1_555 1_555
H30 C15 1_555 1_555
C16 C15 1_555 1_555
H31 C16 1_555 1_555
H32 C16 1_555 1_555
C17 H33 1_555 1_555
H34 C17 1_555 1_555
C18 C17 1_555 1_555
H35 C18 1_555 1_555
H36 C18 1_555 1_555
C19 H37 1_555 1_555
H38 C19 1_555 1_555
C20 C19 1_555 1_555
H39 C20 1_555 1_555
H40 C20 1_555 1_555
O12 C12 1_555 1_555
O13 Ca2 1_555 1_555
O14 Ca2 1_555 1_555
O15 Ca2 1_555 1_555
O16 Ca2 1_555 1_555
O17 N3 1_555 1_555
O18 Ca2 1_555 1_555
O19 Ca2 1_555 1_555
O20 Ca2 1_555 1_555
O21 Ca2 1_555 1_555
O22 N4 1_555 1_555
N3 O18 1_555 1_555
N4 O20 1_555 1_555
C2 O2 1_555 1_555
C3 O2 1_555 1_555
C4 O3 1_555 1_555
C5 O3 1_555 1_555
C6 O4 1_555 1_555
C7 O4 1_555 1_555
C8 O5 1_555 1_555
C9 O5 1_555 1_555
C10 O1 1_555 1_555
N1 O8 1_555 1_555
N2 O10 1_555 1_555
C11 O13 1_555 1_555
C13 O12 1_555 1_555
C14 O16 1_555 1_555
C15 O16 1_555 1_555
C16 O15 1_555 1_555
C17 O15 1_555 1_555
C18 O14 1_555 1_555
C19 O14 1_555 1_555
C20 O13 1_555 1_555
O19 N3 1_555 1_555
O21 N4 1_555 1_555

#END
