
#######################################################################
#
#                 Cambridge Crystallographic Data Centre
#                                CCDC 
#
#######################################################################
#
# If this CIF has been generated from an entry in the Cambridge 
# Structural Database, then it will include bibliographic, chemical, 
# crystal, experimental, refinement or atomic coordinate data resulting 
# from the CCDC's data processing and validation procedures.
#
#######################################################################

data_JAWQUT04
_chemical_formula_moiety         'C10 H20 Ca1 N2 O11'
_chemical_name_systematic        (15-Crown-5)-bis(nitrato-O,O')-calcium
_symmetry_cell_setting           orthorhombic
_symmetry_space_group_name_H-M   'P b c a'
_symmetry_Int_Tables_number      61
_space_group_name_Hall           '-P 2ac 2ab'
loop_
_symmetry_equiv_pos_site_id
_symmetry_equiv_pos_as_xyz
1 x,y,z
2 1/2-x,-y,1/2+z
3 -x,1/2+y,1/2-z
4 1/2+x,1/2-y,-z
5 -x,-y,-z
6 1/2+x,y,1/2-z
7 x,1/2-y,1/2+z
8 1/2-x,1/2+y,z
_cell_length_a                   15.232(5)
_cell_length_b                   13.373(4)
_cell_length_c                   15.993(5)
_cell_angle_alpha                90
_cell_angle_beta                 90
_cell_angle_gamma                90
_cell_volume                     3257.73
_exptl_crystal_colour            colorless
_exptl_crystal_description       block
_cell_formula_units_Z            8
loop_
_atom_site_label
_atom_site_type_symbol
_atom_site_fract_x
_atom_site_fract_y
_atom_site_fract_z
Ca1 Ca 0.06628(4) 0.27497(5) 0.32387(4)
N1 N 0.12102(18) 0.4222(2) 0.19910(17)
O1 O -0.02206(18) 0.27659(19) 0.46164(15)
O2 O -0.09388(15) 0.2970(2) 0.30895(15)
O3 O 0.07674(17) 0.11819(18) 0.41262(16)
O4 O 0.00310(14) 0.18547(17) 0.20061(15)
O5 O 0.16323(15) 0.13798(17) 0.26583(17)
O6 O 0.04048(15) 0.41397(19) 0.21561(16)
O7 O 0.17194(16) 0.35874(19) 0.23215(18)
O8 O 0.14966(18) 0.4886(2) 0.15354(16)
O9 O 0.0999(2) 0.4317(2) 0.40076(17)
C1 C -0.1315(2) 0.2657(3) 0.2304(2)
H1 H -0.1215 0.3167 0.1883
H2 H -0.1944 0.2568 0.2367
C2 C -0.0903(2) 0.1695(3) 0.2034(2)
H3 H -0.1043 0.1167 0.2428
H4 H -0.1119 0.1502 0.1487
O10 O 0.18603(19) 0.3050(2) 0.42358(19)
C3 C 0.0505(2) 0.1043(3) 0.1624(2)
H5 H 0.0387 0.1018 0.1029
H6 H 0.0333 0.0410 0.1871
N2 N 0.1632(2) 0.3942(3) 0.44162(18)
C4 C 0.0547(3) 0.1312(3) 0.4980(2)
H7 H 0.0984 0.1723 0.5257
H8 H 0.0522 0.0670 0.5261
C5 C -0.0329(3) 0.1810(3) 0.5009(2)
H9 H -0.0762 0.1415 0.4711
H10 H -0.0522 0.1892 0.5583
C6 C 0.1466(2) 0.1242(3) 0.1781(3)
H11 H 0.1811 0.0684 0.1576
H12 H 0.1644 0.1837 0.1479
O11 O 0.2013(2) 0.4415(3) 0.49664(18)
C7 C 0.1590(3) 0.0678(3) 0.4017(3)
H13 H 0.1602 0.0066 0.4342
H14 H 0.2070 0.1102 0.4199
C8 C -0.1530(3) 0.2937(4) 0.3774(2)
H15 H -0.1734 0.2259 0.3866
H16 H -0.2034 0.3362 0.3668
C9 C 0.1674(3) 0.0449(3) 0.3108(3)
H17 H 0.2228 0.0117 0.2999
H18 H 0.1201 0.0011 0.2932
C10 C -0.1029(3) 0.3304(4) 0.4513(3)
H19 H -0.0902 0.4010 0.4445
H20 H -0.1384 0.3226 0.5012
loop_
_geom_bond_atom_site_label_1
_geom_bond_atom_site_label_2
_geom_bond_site_symmetry_1
_geom_bond_site_symmetry_2
Ca1 O1 1_555 1_555
N1 O6 1_555 1_555
O1 C5 1_555 1_555
O2 Ca1 1_555 1_555
O3 Ca1 1_555 1_555
O4 Ca1 1_555 1_555
O5 Ca1 1_555 1_555
O6 Ca1 1_555 1_555
O7 Ca1 1_555 1_555
O8 N1 1_555 1_555
O9 Ca1 1_555 1_555
C1 O2 1_555 1_555
H1 C1 1_555 1_555
H2 C1 1_555 1_555
C2 O4 1_555 1_555
H3 C2 1_555 1_555
H4 C2 1_555 1_555
O10 Ca1 1_555 1_555
C3 O4 1_555 1_555
H5 C3 1_555 1_555
H6 C3 1_555 1_555
N2 O9 1_555 1_555
C4 O3 1_555 1_555
H7 C4 1_555 1_555
H8 C4 1_555 1_555
C5 C4 1_555 1_555
H9 C5 1_555 1_555
H10 C5 1_555 1_555
C6 O5 1_555 1_555
H11 C6 1_555 1_555
H12 C6 1_555 1_555
O11 N2 1_555 1_555
C7 O3 1_555 1_555
H13 C7 1_555 1_555
H14 C7 1_555 1_555
C8 O2 1_555 1_555
H15 C8 1_555 1_555
H16 C8 1_555 1_555
C9 O5 1_555 1_555
H17 C9 1_555 1_555
H18 C9 1_555 1_555
C10 O1 1_555 1_555
H19 C10 1_555 1_555
H20 C10 1_555 1_555
N1 O7 1_555 1_555
C1 C2 1_555 1_555
O10 N2 1_555 1_555
C3 C6 1_555 1_555
C7 C9 1_555 1_555
C8 C10 1_555 1_555

#END
