
#######################################################################
#
#                 Cambridge Crystallographic Data Centre
#                                CCDC 
#
#######################################################################
#
# If this CIF has been generated from an entry in the Cambridge 
# Structural Database, then it will include bibliographic, chemical, 
# crystal, experimental, refinement or atomic coordinate data resulting 
# from the CCDC's data processing and validation procedures.
#
#######################################################################

data_JAWQUT02
_chemical_formula_moiety         'C10 H20 Ca1 N2 O11'
_chemical_name_systematic        (15-Crown-5)-bis(nitrato-O,O')-calcium
_symmetry_cell_setting           orthorhombic
_symmetry_space_group_name_H-M   'P c a 21'
_symmetry_Int_Tables_number      29
_space_group_name_Hall           'P 2c -2ac'
loop_
_symmetry_equiv_pos_site_id
_symmetry_equiv_pos_as_xyz
1 x,y,z
2 -x,-y,1/2+z
3 1/2+x,-y,z
4 1/2-x,y,1/2+z
_cell_length_a                   15.233(5)
_cell_length_b                   15.899(5)
_cell_length_c                   13.221(4)
_cell_angle_alpha                90
_cell_angle_beta                 90
_cell_angle_gamma                90
_cell_volume                     3201.99
_exptl_crystal_colour            colorless
_exptl_crystal_description       block
_cell_formula_units_Z            8
loop_
_atom_site_label
_atom_site_type_symbol
_atom_site_fract_x
_atom_site_fract_y
_atom_site_fract_z
Ca1 Ca 0.05692(3) 0.91902(3) 0.59516(4)
C1 C -0.1188(2) 0.80162(18) 0.5371(3)
H1 H -0.1576 0.7535 0.5442
H2 H -0.1048 0.8079 0.4659
C2 C -0.16506(18) 0.87946(18) 0.5739(3)
H3 H -0.2155 0.8918 0.5316
H4 H -0.1850 0.8720 0.6430
C3 C -0.13331(17) 1.02587(17) 0.6059(2)
H5 H -0.1966 1.0237 0.6138
H6 H -0.1194 1.0702 0.5581
C4 C -0.09084(17) 1.04420(19) 0.7061(2)
H7 H -0.1095 1.0987 0.7312
H8 H -0.1069 1.0017 0.7553
C5 C 0.05277(19) 1.07757(18) 0.7723(2)
H9 H 0.0359 1.0511 0.8354
H10 H 0.0434 1.1377 0.7781
C6 C 0.14758(19) 1.05892(18) 0.7481(2)
H11 H 0.1648 1.0895 0.6878
H12 H 0.1844 1.0777 0.8035
C7 C 0.1654(2) 0.92288(19) 0.8247(2)
H13 H 0.1213 0.9427 0.8719
H14 H 0.2228 0.9299 0.8554
C8 C 0.14974(19) 0.83169(18) 0.7998(2)
H15 H 0.1949 0.8108 0.7545
H16 H 0.1500 0.7978 0.8608
C9 C 0.0344(2) 0.74402(17) 0.7396(2)
H17 H 0.0300 0.7163 0.8048
H18 H 0.0745 0.7122 0.6973
C10 C -0.0542(2) 0.74987(19) 0.6907(2)
H19 H -0.0801 0.6944 0.6838
H20 H -0.0932 0.7847 0.7308
N1 N 0.14958(15) 0.80722(14) 0.46249(19)
N2 N 0.12287(16) 1.04547(14) 0.45203(19)
O1 O -0.03986(12) 0.78694(12) 0.59300(16)
O2 O -0.10169(13) 0.94635(12) 0.56804(17)
O3 O 0.00251(12) 1.04366(13) 0.68939(16)
O4 O 0.16050(13) 0.96990(13) 0.73208(15)
O5 O 0.06493(13) 0.82864(13) 0.75169(16)
O6 O 0.16954(14) 0.81321(13) 0.55597(16)
O7 O 0.19246(14) 0.76396(13) 0.40391(17)
O8 O 0.08172(14) 0.84762(13) 0.43239(16)
O9 O 0.17121(13) 1.00092(13) 0.50979(17)
O10 O 0.04052(13) 1.03826(12) 0.46253(16)
O11 O 0.15550(14) 1.09275(12) 0.38860(17)
Ca2 Ca 0.07542(4) 0.43284(3) 0.64784(5)
C11 C -0.0841(2) 0.2938(2) 0.7002(3)
H21 H -0.0728 0.3009 0.7719
H22 H -0.1158 0.2414 0.6912
C12 C -0.1399(2) 0.36537(18) 0.6632(3)
H23 H -0.1589 0.3554 0.5943
H24 H -0.1913 0.3720 0.7057
C13 C -0.12908(18) 0.51565(17) 0.6399(3)
H25 H -0.1230 0.5569 0.6935
H26 H -0.1912 0.5054 0.6291
C14 C -0.08818(18) 0.54826(18) 0.5448(2)
H27 H -0.0985 0.5094 0.4895
H28 H -0.1135 0.6023 0.5270
C15 C 0.05082(19) 0.59959(19) 0.4826(2)
H29 H 0.0366 0.6591 0.4830
H30 H 0.0341 0.5763 0.4175
C16 C 0.14760(19) 0.58717(18) 0.5004(3)
H31 H 0.1805 0.6103 0.4441
H32 H 0.1651 0.6167 0.5613
C17 C 0.1706(2) 0.45709(19) 0.4140(2)
H33 H 0.2239 0.4726 0.3784
H34 H 0.1206 0.4735 0.3730
C18 C 0.16898(19) 0.3645(2) 0.4328(2)
H35 H 0.1703 0.3341 0.3693
H36 H 0.2195 0.3479 0.4727
C19 C 0.0768(2) 0.25785(18) 0.5001(3)
H37 H 0.1237 0.2344 0.5410
H38 H 0.0765 0.2294 0.4351
C20 C -0.0092(2) 0.24703(19) 0.5519(3)
H39 H -0.0560 0.2713 0.5115
H40 H -0.0216 0.1878 0.5620
O12 O -0.08587(13) 0.43836(12) 0.66836(18)
O13 O -0.00276(13) 0.28947(12) 0.64734(17)
O14 O 0.08943(13) 0.34630(12) 0.48658(16)
O15 O 0.16717(13) 0.49865(12) 0.51080(16)
O16 O 0.00504(12) 0.55696(12) 0.56283(15)
O17 O 0.20719(15) 0.24443(13) 0.79356(18)
O18 O 0.19979(14) 0.33663(13) 0.67113(16)
O19 O 0.11602(15) 0.35057(13) 0.80242(17)
O20 O 0.17399(13) 0.53247(13) 0.73244(16)
O21 O 0.04197(13) 0.53171(13) 0.79423(17)
O22 O 0.14573(14) 0.60304(13) 0.87032(17)
N3 N 0.17486(17) 0.30894(15) 0.7569(2)
N4 N 0.12065(16) 0.55713(14) 0.8007(2)
loop_
_geom_bond_atom_site_label_1
_geom_bond_atom_site_label_2
_geom_bond_site_symmetry_1
_geom_bond_site_symmetry_2
Ca1 O1 1_555 1_555
C1 H1 1_555 1_555
H2 C1 1_555 1_555
C2 C1 1_555 1_555
H3 C2 1_555 1_555
H4 C2 1_555 1_555
C3 H5 1_555 1_555
H6 C3 1_555 1_555
C4 C3 1_555 1_555
H7 C4 1_555 1_555
H8 C4 1_555 1_555
C5 H9 1_555 1_555
H10 C5 1_555 1_555
C6 C5 1_555 1_555
H11 C6 1_555 1_555
H12 C6 1_555 1_555
C7 H13 1_555 1_555
H14 C7 1_555 1_555
C8 C7 1_555 1_555
H15 C8 1_555 1_555
H16 C8 1_555 1_555
C9 H17 1_555 1_555
H18 C9 1_555 1_555
C10 C9 1_555 1_555
H19 C10 1_555 1_555
H20 C10 1_555 1_555
N1 O6 1_555 1_555
N2 O9 1_555 1_555
O1 C1 1_555 1_555
O2 Ca1 1_555 1_555
O3 Ca1 1_555 1_555
O4 Ca1 1_555 1_555
O5 Ca1 1_555 1_555
O6 Ca1 1_555 1_555
O7 N1 1_555 1_555
O8 Ca1 1_555 1_555
O9 Ca1 1_555 1_555
O10 Ca1 1_555 1_555
O11 N2 1_555 1_555
Ca2 O12 1_555 1_555
C11 H21 1_555 1_555
H22 C11 1_555 1_555
C12 C11 1_555 1_555
H23 C12 1_555 1_555
H24 C12 1_555 1_555
C13 H25 1_555 1_555
H26 C13 1_555 1_555
C14 C13 1_555 1_555
H27 C14 1_555 1_555
H28 C14 1_555 1_555
C15 H29 1_555 1_555
H30 C15 1_555 1_555
C16 C15 1_555 1_555
H31 C16 1_555 1_555
H32 C16 1_555 1_555
C17 H33 1_555 1_555
H34 C17 1_555 1_555
C18 C17 1_555 1_555
H35 C18 1_555 1_555
H36 C18 1_555 1_555
C19 H37 1_555 1_555
H38 C19 1_555 1_555
C20 C19 1_555 1_555
H39 C20 1_555 1_555
H40 C20 1_555 1_555
O12 C12 1_555 1_555
O13 Ca2 1_555 1_555
O14 Ca2 1_555 1_555
O15 Ca2 1_555 1_555
O16 Ca2 1_555 1_555
O17 N3 1_555 1_555
O18 Ca2 1_555 1_555
O19 Ca2 1_555 1_555
O20 Ca2 1_555 1_555
O21 Ca2 1_555 1_555
O22 N4 1_555 1_555
N3 O18 1_555 1_555
N4 O20 1_555 1_555
C2 O2 1_555 1_555
C3 O2 1_555 1_555
C4 O3 1_555 1_555
C5 O3 1_555 1_555
C6 O4 1_555 1_555
C7 O4 1_555 1_555
C8 O5 1_555 1_555
C9 O5 1_555 1_555
C10 O1 1_555 1_555
N1 O8 1_555 1_555
N2 O10 1_555 1_555
C11 O13 1_555 1_555
C13 O12 1_555 1_555
C14 O16 1_555 1_555
C15 O16 1_555 1_555
C16 O15 1_555 1_555
C17 O15 1_555 1_555
C18 O14 1_555 1_555
C19 O14 1_555 1_555
C20 O13 1_555 1_555
O19 N3 1_555 1_555
O21 N4 1_555 1_555

#END
