
#######################################################################
#
#                 Cambridge Crystallographic Data Centre
#                                CCDC 
#
#######################################################################
#
# If this CIF has been generated from an entry in the Cambridge 
# Structural Database, then it will include bibliographic, chemical, 
# crystal, experimental, refinement or atomic coordinate data resulting 
# from the CCDC's data processing and validation procedures.
#
#######################################################################

data_JAWTAD
_chemical_formula_moiety         'C15 H39 Ba1 N3 O6 2+,2(C2 F3 O2 1-)'
_chemical_name_systematic        
'tris(N,N-bis(2-Hydroxyethyl)-N-methylamine)-barium(ii) bis(trifluoroacetate)'
_symmetry_cell_setting           orthorhombic
_symmetry_space_group_name_H-M   'P 21 21 21'
_symmetry_Int_Tables_number      19
_space_group_name_Hall           'P 2ac 2ab'
loop_
_symmetry_equiv_pos_site_id
_symmetry_equiv_pos_as_xyz
1 x,y,z
2 1/2-x,-y,1/2+z
3 -x,1/2+y,1/2-z
4 1/2+x,1/2-y,-z
_cell_length_a                   10.3244(3)
_cell_length_b                   16.9143(5)
_cell_length_c                   17.3474(3)
_cell_angle_alpha                90
_cell_angle_beta                 90
_cell_angle_gamma                90
_cell_volume                     3029.38
_exptl_crystal_colour            colorless
_exptl_crystal_description       block
_cell_formula_units_Z            4
loop_
_atom_site_label
_atom_site_type_symbol
_atom_site_fract_x
_atom_site_fract_y
_atom_site_fract_z
Ba1 Ba 0.19404(4) 0.00180(3) 0.50754(2)
O1 O 0.0673(7) -0.0311(4) 0.6490(4)
O2 O 0.0639(6) -0.0182(4) 0.3680(3)
O3 O 0.3848(6) -0.0081(4) 0.6221(3)
O4 O 0.1022(7) 0.1465(3) 0.4621(4)
O5 O 0.1797(7) -0.1591(4) 0.5324(4)
N1 N -0.0883(8) -0.0266(4) 0.5078(4)
N2 N 0.2865(7) 0.1445(4) 0.5820(4)
C1 C -0.0707(11) -0.0381(8) 0.6508(6)
H1 H -0.1097 0.0147 0.6588
H2 H -0.0965 -0.0723 0.6946
C2 C -0.1215(10) -0.0733(6) 0.5761(6)
H3 H -0.0857 -0.1272 0.5700
H4 H -0.2169 -0.0780 0.5795
C3 C -0.1103(12) -0.0788(7) 0.4401(7)
H5 H -0.2031 -0.0932 0.4377
H6 H -0.0598 -0.1280 0.4468
C4 C -0.0718(11) -0.0401(7) 0.3659(6)
H7 H -0.0872 -0.0769 0.3225
H8 H -0.1254 0.0077 0.3574
C5 C -0.1706(10) 0.0453(7) 0.5060(8)
H9 H -0.2621 0.0298 0.5064
H10 H -0.1520 0.0755 0.4591
H11 H -0.1520 0.0780 0.5513
C6 C 0.4426(11) 0.0606(5) 0.6544(5)
H12 H 0.5365 0.0516 0.6620
H13 H 0.4033 0.0719 0.7053
C7 C 0.4224(10) 0.1295(5) 0.6017(5)
H14 H 0.4587 0.1774 0.6264
H15 H 0.4715 0.1202 0.5535
C8 C 0.2799(9) 0.2115(5) 0.5283(5)
H16 H 0.3436 0.2036 0.4863
H17 H 0.3032 0.2607 0.5559
C9 C 0.1457(10) 0.2204(5) 0.4937(5)
H18 H 0.0844 0.2382 0.5341
H19 H 0.1476 0.2610 0.4526
C10 C 0.2061(11) 0.1601(6) 0.6515(5)
H20 H 0.2368 0.2082 0.6771
H21 H 0.2131 0.1153 0.6871
H22 H 0.1154 0.1669 0.6362
O10 O 0.3676(9) 0.0640(5) 0.3969(4)
N3 N 0.3741(8) -0.1042(5) 0.4275(4)
C15 C 0.2600(11) -0.2140(7) 0.4904(7)
C16 C 0.4713(12) 0.0165(7) 0.3664(7)
C17 C 0.308(2) -0.1740(14) 0.4143(14)
H23 H 0.3651 -0.2111 0.3864
H24 H 0.2321 -0.1629 0.3810
C18 C 0.413(3) -0.0646(16) 0.3561(15)
H25 H 0.3364 -0.0601 0.3222
H26 H 0.4772 -0.0985 0.3293
C19 C 0.4932(19) -0.1192(12) 0.4735(12)
H27 H 0.5507 -0.1547 0.4448
H28 H 0.4695 -0.1438 0.5227
H29 H 0.5378 -0.0691 0.4833
O6 O 0.1237(12) -0.2344(5) 0.6589(5)
O7 O 0.1367(9) -0.1457(5) 0.7526(5)
C11 C 0.1390(12) -0.2104(8) 0.7258(7)
C12 C 0.1747(14) -0.2800(7) 0.7816(7)
F1 F 0.1326(14) -0.3478(5) 0.7653(6)
F2 F 0.2994(8) -0.2866(7) 0.7947(5)
F3 F 0.1157(12) -0.2671(7) 0.8509(5)
O8 O -0.0444(7) 0.1724(4) 0.3371(3)
O9 O 0.0602(7) 0.0905(4) 0.2551(4)
C13 C -0.0041(9) 0.1487(5) 0.2719(5)
C14 C -0.0407(9) 0.2006(5) 0.2021(4)
F4 F -0.0424(14) 0.1714(11) 0.1297(6)
F5 F 0.0356(13) 0.2652(7) 0.1957(11)
F6 F -0.1636(10) 0.2197(9) 0.2212(10)
F7? F -0.0779(14) 0.2741(6) 0.2226(11)
F8? F -0.1464(11) 0.1686(10) 0.1686(9)
F9? F 0.0600(11) 0.2063(9) 0.1525(8)
C20? C 0.393(2) -0.1728(13) 0.4740(13)
H30? H 0.4343 -0.1576 0.5233
H31? H 0.4515 -0.2101 0.4471
C21? C 0.493(2) -0.0631(13) 0.4183(13)
H32? H 0.5569 -0.0979 0.3928
H33? H 0.5276 -0.0482 0.4695
C22? C 0.328(2) -0.1263(13) 0.3476(12)
H34? H 0.3916 -0.1614 0.3233
H35? H 0.3183 -0.0783 0.3165
H36? H 0.2445 -0.1535 0.3513
loop_
_geom_bond_atom_site_label_1
_geom_bond_atom_site_label_2
_geom_bond_site_symmetry_1
_geom_bond_site_symmetry_2
Ba1 O1 1_555 1_555
O1 C1 1_555 1_555
O2 Ba1 1_555 1_555
O3 Ba1 1_555 1_555
O4 Ba1 1_555 1_555
O5 Ba1 1_555 1_555
O6 C11 1_555 1_555
O7 C11 1_555 1_555
O8 C13 1_555 1_555
O9 C13 1_555 1_555
N1 Ba1 1_555 1_555
N2 Ba1 1_555 1_555
C1 H1 1_555 1_555
H2 C1 1_555 1_555
C2 N1 1_555 1_555
H3 C2 1_555 1_555
H4 C2 1_555 1_555
C3 N1 1_555 1_555
H5 C3 1_555 1_555
H6 C3 1_555 1_555
C4 O2 1_555 1_555
H7 C4 1_555 1_555
H8 C4 1_555 1_555
C5 N1 1_555 1_555
H9 C5 1_555 1_555
H10 C5 1_555 1_555
H11 C5 1_555 1_555
C6 O3 1_555 1_555
H12 C6 1_555 1_555
H13 C6 1_555 1_555
C7 N2 1_555 1_555
H14 C7 1_555 1_555
H15 C7 1_555 1_555
C8 N2 1_555 1_555
H16 C8 1_555 1_555
H17 C8 1_555 1_555
C9 O4 1_555 1_555
H18 C9 1_555 1_555
H19 C9 1_555 1_555
C10 N2 1_555 1_555
H20 C10 1_555 1_555
H21 C10 1_555 1_555
H22 C10 1_555 1_555
C11 C12 1_555 1_555
C12 F1 1_555 1_555
F2 C12 1_555 1_555
F3 C12 1_555 1_555
C13 C14 1_555 1_555
C14 F4 1_555 1_555
F5 C14 1_555 1_555
F6 C14 1_555 1_555
O10 Ba1 1_555 1_555
N3 Ba1 1_555 1_555
C15 O5 1_555 1_555
C16 O10 1_555 1_555
C17 N3 1_555 1_555
H23 C17 1_555 1_555
H24 C17 1_555 1_555
C18 N3 1_555 1_555
H25 C18 1_555 1_555
H26 C18 1_555 1_555
C19 N3 1_555 1_555
H27 C19 1_555 1_555
H28 C19 1_555 1_555
H29 C19 1_555 1_555
C1 C2 1_555 1_555
C3 C4 1_555 1_555
C6 C7 1_555 1_555
C8 C9 1_555 1_555
C15 C17 1_555 1_555
C16 C18 1_555 1_555

#END
