
#######################################################################
#
#                 Cambridge Crystallographic Data Centre
#                                CCDC 
#
#######################################################################
#
# If this CIF has been generated from an entry in the Cambridge 
# Structural Database, then it will include bibliographic, chemical, 
# crystal, experimental, refinement or atomic coordinate data resulting 
# from the CCDC's data processing and validation procedures.
#
#######################################################################

data_JAXKOJ
_chemical_formula_moiety         'C92 H92 O8 P4 S4,0.5(C1 H4 O1),1.5(H2 O1)'
_chemical_name_systematic        
'5,11,17,23-Tetra-t-butyl-25,26,27,28-tetrakis(diphenylphosphinoylmethoxy)thiacalix(4)arene methanol solvate sesquihydrate'
_symmetry_cell_setting           monoclinic
_symmetry_space_group_name_H-M   'P 21/n'
_symmetry_Int_Tables_number      14
_space_group_name_Hall           '-P 2yn'
loop_
_symmetry_equiv_pos_site_id
_symmetry_equiv_pos_as_xyz
1 x,y,z
2 1/2-x,1/2+y,1/2-z
3 -x,-y,-z
4 1/2+x,1/2-y,1/2+z
_cell_length_a                   21.441(3)
_cell_length_b                   17.559(2)
_cell_length_c                   27.647(3)
_cell_angle_alpha                90
_cell_angle_beta                 92.058(3)
_cell_angle_gamma                90
_cell_volume                     10401.9
_exptl_crystal_colour            colorless
_exptl_crystal_description       flat
_cell_formula_units_Z            4
_chemical_properties_physical    air-sensitive
_exptl_crystal_recrystallization_method 'dichloromethane/petroleum ether'
loop_
_atom_site_label
_atom_site_type_symbol
_atom_site_fract_x
_atom_site_fract_y
_atom_site_fract_z
P1 P 0.41212(11) 0.15058(13) 0.19549(9)
P2 P 0.15095(11) 0.22754(14) 0.17348(9)
P3 P 0.09655(13) 0.33345(14) 0.00177(11)
P4 P 0.36834(12) 0.34774(14) 0.06536(11)
S1 S 0.25539(10) -0.01691(13) 0.16224(8)
S2 S 0.06984(10) 0.10501(13) 0.04006(9)
S3 S 0.25387(11) 0.22823(13) -0.07372(9)
S4 S 0.43982(10) 0.10894(13) 0.04963(9)
O1 O 0.3317(2) 0.1138(3) 0.1165(2)
O2 O 0.1469(2) 0.0862(3) 0.1357(2)
O3 O 0.1776(2) 0.2092(3) 0.0178(2)
O4 O 0.3618(3) 0.2372(3) -0.0020(2)
O5 O 0.4645(3) 0.1705(3) 0.1640(2)
O6 O 0.1712(3) 0.3050(3) 0.1588(2)
O7 O 0.0424(3) 0.2892(3) 0.0182(2)
O8 O 0.3560(3) 0.3547(3) 0.1184(2)
C1 C 0.4097(4) 0.0311(5) 0.0846(3)
C2 C 0.4376(4) -0.0407(5) 0.0830(3)
H1 H 0.4733 -0.0465 0.0653
C3 C 0.4147(4) -0.1033(5) 0.1065(3)
C4 C 0.3592(4) -0.0929(5) 0.1311(3)
H2 H 0.3415 -0.1345 0.1463
C5 C 0.3302(4) -0.0239(5) 0.1334(3)
C6 C 0.3567(4) 0.0411(5) 0.1130(3)
C7 C 0.2033(3) -0.0240(4) 0.1105(3)
C8 C 0.2053(4) -0.0898(4) 0.0802(3)
H3 H 0.2347 -0.1275 0.0873
C9 C 0.1638(4) -0.0989(5) 0.0400(3)
C10 C 0.1238(4) -0.0376(4) 0.0296(3)
H4 H 0.0975 -0.0406 0.0022
C11 C 0.1215(4) 0.0271(5) 0.0579(3)
C12 C 0.1590(4) 0.0317(5) 0.1004(3)
C13 C 0.1011(4) 0.1230(4) -0.0180(3)
C14 C 0.0743(4) 0.0871(5) -0.0591(4)
H5 H 0.0392 0.0567 -0.0559
C15 C 0.0994(5) 0.0961(5) -0.1048(4)
C16 C 0.1526(4) 0.1412(5) -0.1082(3)
H6 H 0.1701 0.1472 -0.1383
C17 C 0.1809(4) 0.1779(4) -0.0680(4)
C18 C 0.1528(4) 0.1727(4) -0.0237(3)
C19 C 0.3067(4) 0.1516(5) -0.0558(3)
C20 C 0.3035(4) 0.0816(5) -0.0803(3)
H7 H 0.2749 0.0755 -0.1061
C21 C 0.3426(4) 0.0210(5) -0.0667(4)
C22 C 0.3831(4) 0.0320(5) -0.0269(3)
H8 H 0.4080 -0.0084 -0.0161
C23 C 0.3877(4) 0.1010(5) -0.0030(3)
C24 C 0.3508(4) 0.1641(5) -0.0181(3)
C25 C 0.4455(4) -0.1830(6) 0.1047(4)
C26 C 0.4578(8) -0.2127(10) 0.1561(4)
H9 H 0.4199 -0.2107 0.1736
H10 H 0.4890 -0.1818 0.1723
H11 H 0.4723 -0.2644 0.1549
C27 C 0.5020(7) -0.1912(11) 0.0737(6)
H12 H 0.5136 -0.2439 0.0720
H13 H 0.5361 -0.1624 0.0878
H14 H 0.4921 -0.1726 0.0417
C28 C 0.3959(7) -0.2414(9) 0.0830(6)
H15 H 0.4142 -0.2912 0.0817
H16 H 0.3829 -0.2257 0.0509
H17 H 0.3604 -0.2428 0.1031
C32 C 0.1587(5) -0.1723(5) 0.0123(4)
C33 C 0.0934(5) -0.2075(6) 0.0210(4)
H27 H 0.0899 -0.2187 0.0547
H28 H 0.0885 -0.2535 0.0025
H29 H 0.0615 -0.1718 0.0110
C34 C 0.2071(6) -0.2315(6) 0.0268(4)
H30 H 0.2055 -0.2411 0.0610
H31 H 0.2478 -0.2132 0.0194
H32 H 0.1986 -0.2779 0.0094
C35 C 0.1617(6) -0.1574(6) -0.0430(4)
H33 H 0.1297 -0.1217 -0.0528
H34 H 0.1553 -0.2043 -0.0602
H35 H 0.2018 -0.1368 -0.0501
C36 C 0.0710(5) 0.0571(6) -0.1498(4)
C37 C 0.0101(6) 0.0179(9) -0.1398(4)
H36 H 0.0165 -0.0175 -0.1136
H37 H -0.0046 -0.0089 -0.1682
H38 H -0.0202 0.0552 -0.1311
C38 C 0.1186(6) 0.0011(8) -0.1690(5)
H39 H 0.1273 -0.0375 -0.1451
H40 H 0.1563 0.0278 -0.1758
H41 H 0.1020 -0.0222 -0.1981
C39 C 0.0586(7) 0.1149(8) -0.1897(4)
H42 H 0.0292 0.1521 -0.1791
H43 H 0.0417 0.0896 -0.2180
H44 H 0.0969 0.1398 -0.1972
C40 C 0.3427(5) -0.0546(6) -0.0952(4)
C41 C 0.4008(6) -0.0555(9) -0.1258(5)
H45 H 0.3993 -0.0131 -0.1477
H46 H 0.4019 -0.1021 -0.1439
H47 H 0.4374 -0.0519 -0.1050
C42 C 0.2833(5) -0.0653(6) -0.1271(4)
H48 H 0.2803 -0.0251 -0.1506
H49 H 0.2475 -0.0641 -0.1073
H50 H 0.2851 -0.1135 -0.1435
C43 C 0.3457(6) -0.1234(6) -0.0597(5)
H51 H 0.3821 -0.1190 -0.0387
H52 H 0.3477 -0.1699 -0.0778
H53 H 0.3091 -0.1237 -0.0407
C44 C 0.3361(4) 0.1496(4) 0.1634(3)
H54 H 0.3067 0.1244 0.1840
H55 H 0.3224 0.2020 0.1596
C45 C 0.4230(5) 0.0609(5) 0.2251(3)
C46 C 0.4808(6) 0.0266(7) 0.2233(4)
H56 H 0.5121 0.0497 0.2060
C47 C 0.4931(7) -0.0425(9) 0.2473(6)
H57 H 0.5325 -0.0644 0.2457
C48 C 0.4485(10) -0.0783(8) 0.2729(6)
H58 H 0.4573 -0.1234 0.2894
C49 C 0.3894(8) -0.0458(8) 0.2737(4)
H59 H 0.3579 -0.0700 0.2901
C50 C 0.3776(5) 0.0221(6) 0.2504(4)
H60 H 0.3378 0.0430 0.2515
C51 C 0.3984(4) 0.2209(6) 0.2420(4)
C52 C 0.4030(4) 0.2036(6) 0.2915(5)
H61 H 0.4114 0.1540 0.3015
C53 C 0.3950(5) 0.2614(9) 0.3258(4)
H62 H 0.3996 0.2504 0.3587
C54 C 0.3805(5) 0.3335(8) 0.3111(6)
H63 H 0.3739 0.3711 0.3340
C55 C 0.3755(6) 0.3510(7) 0.2636(6)
H64 H 0.3660 0.4006 0.2539
C56 C 0.3846(5) 0.2950(7) 0.2293(4)
H65 H 0.3812 0.3077 0.1967
C57 C 0.1734(4) 0.1593(5) 0.1276(3)
H66 H 0.1597 0.1777 0.0959
H67 H 0.2186 0.1550 0.1281
C58 C 0.1838(4) 0.1987(6) 0.2312(3)
C59 C 0.1836(5) 0.1229(6) 0.2465(4)
H68 H 0.1656 0.0858 0.2265
C60 C 0.2097(6) 0.1022(7) 0.2911(5)
H69 H 0.2107 0.0517 0.3012
C61 C 0.2345(5) 0.1603(11) 0.3201(4)
H70 H 0.2517 0.1476 0.3504
C62 C 0.2347(5) 0.2350(10) 0.3064(5)
H71 H 0.2512 0.2723 0.3270
C63 C 0.2102(4) 0.2533(6) 0.2621(4)
H72 H 0.2111 0.3038 0.2520
C64 C 0.0680(4) 0.2202(5) 0.1760(4)
C65 C 0.0373(6) 0.1988(6) 0.2163(4)
H73 H 0.0605 0.1839 0.2437
C66 C -0.0285(7) 0.1987(8) 0.2178(6)
H74 H -0.0483 0.1864 0.2462
C67 C -0.0625(6) 0.2170(9) 0.1769(8)
H75 H -0.1058 0.2148 0.1766
C68 C -0.0326(7) 0.2387(8) 0.1358(6)
H76 H -0.0558 0.2524 0.1082
C69 C 0.0318(6) 0.2402(6) 0.1356(4)
H77 H 0.0513 0.2550 0.1076
C70 C 0.1725(4) 0.2916(5) 0.0208(3)
H78 H 0.2043 0.3137 0.0010
H79 H 0.1818 0.3066 0.0540
C71 C 0.1024(5) 0.4296(6) 0.0271(5)
C72 C 0.1217(6) 0.4437(7) 0.0742(5)
H80 H 0.1355 0.4031 0.0934
C73 C 0.1215(7) 0.5133(8) 0.0933(5)
H81 H 0.1357 0.5203 0.1252
C74 C 0.1012(7) 0.5738(8) 0.0673(7)
H82 H 0.0998 0.6216 0.0818
C75 C 0.0821(6) 0.5654(7) 0.0186(7)
H83 H 0.0689 0.6071 0.0003
C76 C 0.0834(5) 0.4925(7) -0.0015(5)
H84 H 0.0717 0.4854 -0.0340
C77 C 0.0982(6) 0.3423(6) -0.0627(4)
C78 C 0.1479(6) 0.3808(7) -0.0858(6)
H85 H 0.1796 0.4028 -0.0667
C79 C 0.1504(8) 0.3864(9) -0.1339(7)
H86 H 0.1836 0.4110 -0.1479
C80 C 0.1031(11) 0.3554(11) -0.1624(6)
H87 H 0.1031 0.3606 -0.1959
C81 C 0.0543(8) 0.3152(9) -0.1402(8)
H88 H 0.0233 0.2919 -0.1593
C82 C 0.0523(6) 0.3103(7) -0.0908(6)
H89 H 0.0195 0.2852 -0.0765
C83 C 0.3398(4) 0.2555(4) 0.0449(3)
H90 H 0.3537 0.2167 0.0679
H91 H 0.2945 0.2558 0.0437
C84 C 0.4502(4) 0.3493(5) 0.0534(4)
C85 C 0.4887(5) 0.3040(6) 0.0828(4)
H92 H 0.4714 0.2735 0.1064
C86 C 0.5524(6) 0.3040(7) 0.0775(5)
H93 H 0.5775 0.2735 0.0977
C87 C 0.5792(5) 0.3474(8) 0.0434(6)
H94 H 0.6223 0.3469 0.0406
C88 C 0.5418(6) 0.3928(7) 0.0127(5)
H95 H 0.5598 0.4221 -0.0112
C89 C 0.4772(5) 0.3939(6) 0.0180(4)
H96 H 0.4521 0.4245 -0.0021
C90 C 0.3301(5) 0.4211(5) 0.0309(4)
C91 C 0.3230(5) 0.4189(6) -0.0184(6)
H97 H 0.3382 0.3773 -0.0351
C92 C 0.2926(7) 0.4794(9) -0.0450(6)
H98 H 0.2880 0.4770 -0.0785
C93 C 0.2701(7) 0.5416(10) -0.0200(8)
H99 H 0.2509 0.5819 -0.0364
C94 C 0.2766(7) 0.5422(8) 0.0270(7)
H100 H 0.2601 0.5828 0.0440
C95 C 0.3070(5) 0.4848(8) 0.0526(5)
H101 H 0.3121 0.4896 0.0860
O9 O 0.2382(3) -0.0796(4) 0.3282(3)
O10 O 0.0433(14) 0.0083(17) 0.3182(11)
C96 C -0.0022(18) 0.035(3) 0.3522(14)
O11 O 0.5717(10) 0.2379(12) 0.2095(7)
C29? C 0.5132(8) -0.1662(15) 0.1262(8)
H18? H 0.5111 -0.1543 0.1600
H19? H 0.5307 -0.1238 0.1094
H20? H 0.5390 -0.2103 0.1222
C30? C 0.4577(11) -0.2078(13) 0.0524(5)
H21? H 0.4775 -0.2568 0.0527
H22? H 0.4844 -0.1712 0.0376
H23? H 0.4188 -0.2107 0.0342
C31? C 0.4208(11) -0.2493(12) 0.1331(8)
H24? H 0.4484 -0.2920 0.1306
H25? H 0.3801 -0.2630 0.1204
H26? H 0.4181 -0.2351 0.1665
loop_
_geom_bond_atom_site_label_1
_geom_bond_atom_site_label_2
_geom_bond_site_symmetry_1
_geom_bond_site_symmetry_2
P1 O5 1_555 1_555
P2 O6 1_555 1_555
P3 O7 1_555 1_555
P4 O8 1_555 1_555
S1 C5 1_555 1_555
S2 C11 1_555 1_555
S3 C17 1_555 1_555
S4 C1 1_555 1_555
O1 C6 1_555 1_555
O2 C12 1_555 1_555
O3 C18 1_555 1_555
O4 C24 1_555 1_555
C1 C2 1_555 1_555
C2 H1 1_555 1_555
C3 C2 1_555 1_555
C4 C3 1_555 1_555
H2 C4 1_555 1_555
C5 C4 1_555 1_555
C6 C1 1_555 1_555
C7 S1 1_555 1_555
C8 C7 1_555 1_555
H3 C8 1_555 1_555
C9 C8 1_555 1_555
C10 C9 1_555 1_555
H4 C10 1_555 1_555
C11 C10 1_555 1_555
C12 C7 1_555 1_555
C13 S2 1_555 1_555
C14 C13 1_555 1_555
H5 C14 1_555 1_555
C15 C14 1_555 1_555
C16 C15 1_555 1_555
H6 C16 1_555 1_555
C17 C16 1_555 1_555
C18 C13 1_555 1_555
C19 S3 1_555 1_555
C20 C19 1_555 1_555
H7 C20 1_555 1_555
C21 C20 1_555 1_555
C22 C21 1_555 1_555
H8 C22 1_555 1_555
C23 S4 1_555 1_555
C24 C19 1_555 1_555
C25 C3 1_555 1_555
C26 C25 1_555 1_555
H9 C26 1_555 1_555
H10 C26 1_555 1_555
H11 C26 1_555 1_555
C27 C25 1_555 1_555
H12 C27 1_555 1_555
H13 C27 1_555 1_555
H14 C27 1_555 1_555
C28 C25 1_555 1_555
H15 C28 1_555 1_555
H16 C28 1_555 1_555
H17 C28 1_555 1_555
C32 C9 1_555 1_555
C33 C32 1_555 1_555
H27 C33 1_555 1_555
H28 C33 1_555 1_555
H29 C33 1_555 1_555
C34 C32 1_555 1_555
H30 C34 1_555 1_555
H31 C34 1_555 1_555
H32 C34 1_555 1_555
C35 C32 1_555 1_555
H33 C35 1_555 1_555
H34 C35 1_555 1_555
H35 C35 1_555 1_555
C36 C15 1_555 1_555
C37 C36 1_555 1_555
H36 C37 1_555 1_555
H37 C37 1_555 1_555
H38 C37 1_555 1_555
C38 C36 1_555 1_555
H39 C38 1_555 1_555
H40 C38 1_555 1_555
H41 C38 1_555 1_555
C39 C36 1_555 1_555
H42 C39 1_555 1_555
H43 C39 1_555 1_555
H44 C39 1_555 1_555
C40 C21 1_555 1_555
C41 C40 1_555 1_555
H45 C41 1_555 1_555
H46 C41 1_555 1_555
H47 C41 1_555 1_555
C42 C40 1_555 1_555
H48 C42 1_555 1_555
H49 C42 1_555 1_555
H50 C42 1_555 1_555
C43 C40 1_555 1_555
H51 C43 1_555 1_555
H52 C43 1_555 1_555
H53 C43 1_555 1_555
C44 P1 1_555 1_555
H54 C44 1_555 1_555
H55 C44 1_555 1_555
C45 P1 1_555 1_555
C46 C45 1_555 1_555
H56 C46 1_555 1_555
C47 C46 1_555 1_555
H57 C47 1_555 1_555
C48 C47 1_555 1_555
H58 C48 1_555 1_555
C49 C48 1_555 1_555
H59 C49 1_555 1_555
C50 C45 1_555 1_555
H60 C50 1_555 1_555
C51 P1 1_555 1_555
C52 C51 1_555 1_555
H61 C52 1_555 1_555
C53 C52 1_555 1_555
H62 C53 1_555 1_555
C54 C53 1_555 1_555
H63 C54 1_555 1_555
C55 C54 1_555 1_555
H64 C55 1_555 1_555
C56 C51 1_555 1_555
H65 C56 1_555 1_555
C57 P2 1_555 1_555
H66 C57 1_555 1_555
H67 C57 1_555 1_555
C58 P2 1_555 1_555
C59 C58 1_555 1_555
H68 C59 1_555 1_555
C60 C59 1_555 1_555
H69 C60 1_555 1_555
C61 C60 1_555 1_555
H70 C61 1_555 1_555
C62 C61 1_555 1_555
H71 C62 1_555 1_555
C63 C58 1_555 1_555
H72 C63 1_555 1_555
C64 P2 1_555 1_555
C65 C64 1_555 1_555
H73 C65 1_555 1_555
C66 C65 1_555 1_555
H74 C66 1_555 1_555
C67 C66 1_555 1_555
H75 C67 1_555 1_555
C68 C67 1_555 1_555
H76 C68 1_555 1_555
C69 C64 1_555 1_555
H77 C69 1_555 1_555
C70 P3 1_555 1_555
H78 C70 1_555 1_555
H79 C70 1_555 1_555
C71 P3 1_555 1_555
C72 C71 1_555 1_555
H80 C72 1_555 1_555
C73 C72 1_555 1_555
H81 C73 1_555 1_555
C74 C73 1_555 1_555
H82 C74 1_555 1_555
C75 C74 1_555 1_555
H83 C75 1_555 1_555
C76 C71 1_555 1_555
H84 C76 1_555 1_555
C77 P3 1_555 1_555
C78 C77 1_555 1_555
H85 C78 1_555 1_555
C79 C78 1_555 1_555
H86 C79 1_555 1_555
C80 C79 1_555 1_555
H87 C80 1_555 1_555
C81 C80 1_555 1_555
H88 C81 1_555 1_555
C82 C77 1_555 1_555
H89 C82 1_555 1_555
C83 P4 1_555 1_555
H90 C83 1_555 1_555
H91 C83 1_555 1_555
C84 P4 1_555 1_555
C85 C84 1_555 1_555
H92 C85 1_555 1_555
C86 C85 1_555 1_555
H93 C86 1_555 1_555
C87 C86 1_555 1_555
H94 C87 1_555 1_555
C88 C87 1_555 1_555
H95 C88 1_555 1_555
C89 C84 1_555 1_555
H96 C89 1_555 1_555
C90 P4 1_555 1_555
C91 C90 1_555 1_555
H97 C91 1_555 1_555
C92 C91 1_555 1_555
H98 C92 1_555 1_555
C93 C92 1_555 1_555
H99 C93 1_555 1_555
C94 C93 1_555 1_555
H100 C94 1_555 1_555
C95 C90 1_555 1_555
H101 C95 1_555 1_555
O10 C96 1_555 1_555
O1 C44 1_555 1_555
O2 C57 1_555 1_555
O3 C70 1_555 1_555
O4 C83 1_555 1_555
C5 C6 1_555 1_555
C11 C12 1_555 1_555
C17 C18 1_555 1_555
C22 C23 1_555 1_555
C23 C24 1_555 1_555
C49 C50 1_555 1_555
C55 C56 1_555 1_555
C62 C63 1_555 1_555
C68 C69 1_555 1_555
C75 C76 1_555 1_555
C81 C82 1_555 1_555
C88 C89 1_555 1_555
C94 C95 1_555 1_555

#END
