
#######################################################################
#
#                 Cambridge Crystallographic Data Centre
#                                CCDC 
#
#######################################################################
#
# If this CIF has been generated from an entry in the Cambridge 
# Structural Database, then it will include bibliographic, chemical, 
# crystal, experimental, refinement or atomic coordinate data resulting 
# from the CCDC's data processing and validation procedures.
#
#######################################################################

data_JAXLIE
_chemical_formula_moiety         'C10 H10 N2 S4'
_chemical_name_systematic        
trans-2,2'-(1,4-but-2-enediyldithio)-1,3-dithiazole
_symmetry_cell_setting           monoclinic
_symmetry_space_group_name_H-M   'P 21/n'
_symmetry_Int_Tables_number      14
_space_group_name_Hall           '-P 2yn'
loop_
_symmetry_equiv_pos_site_id
_symmetry_equiv_pos_as_xyz
1 x,y,z
2 1/2-x,1/2+y,1/2-z
3 -x,-y,-z
4 1/2+x,1/2-y,1/2+z
_cell_length_a                   5.935(3)
_cell_length_b                   7.568(3)
_cell_length_c                   14.307(7)
_cell_angle_alpha                90
_cell_angle_beta                 94.926(7)
_cell_angle_gamma                90
_cell_volume                     640.241
_exptl_crystal_colour            colorless
_chemical_melting_point          '319-320 K'
_cell_formula_units_Z            2
loop_
_atom_site_label
_atom_site_type_symbol
_atom_site_fract_x
_atom_site_fract_y
_atom_site_fract_z
S1 S 0.72310(15) 0.58054(10) 0.62275(7)
S2 S 0.60962(13) 0.18964(10) 0.59176(6)
N1 N 0.3704(4) 0.4323(3) 0.67426(18)
C1 C 0.5535(5) 0.3999(3) 0.63287(19)
C2 C 0.5330(6) 0.7044(4) 0.6785(2)
H1 H 0.5479 0.8242 0.6921
C3 C 0.3627(6) 0.6042(4) 0.6992(2)
H2 H 0.2430 0.6497 0.7296
C4 C 0.903(4) 0.227(4) 0.5543(19)
H3 H 0.8988 0.2927 0.4959
H4 H 0.9976 0.2897 0.6021
C5 C 0.9880(18) 0.0375(12) 0.5419(5)
H5 H 1.0248 -0.0295 0.5955
S1B S 1.27690(15) -0.58054(10) 0.37725(7)
S2B S 1.39038(13) -0.18964(10) 0.40824(6)
N1B N 1.6296(4) -0.4323(3) 0.32574(18)
C1B C 1.4465(5) -0.3999(3) 0.36713(19)
C2B C 1.4670(6) -0.7044(4) 0.3215(2)
H1B H 1.4521 -0.8242 0.3079
C3B C 1.6373(6) -0.6042(4) 0.3008(2)
H2B H 1.7570 -0.6497 0.2704
C4B C 1.097(4) -0.227(4) 0.4457(19)
H3B H 1.1012 -0.2927 0.5041
H4B H 1.0024 -0.2897 0.3979
C5B C 1.0120(18) -0.0375(12) 0.4581(5)
H5B H 0.9752 0.0295 0.4045
C6? C 0.858(5) 0.211(4) 0.536(2)
H6? H 0.8411 0.3106 0.4938
H7? H 0.9798 0.2381 0.5835
C7? C 0.9219(11) 0.0617(10) 0.4849(11)
H8? H 0.8506 0.0468 0.4250
loop_
_geom_bond_atom_site_label_1
_geom_bond_atom_site_label_2
_geom_bond_site_symmetry_1
_geom_bond_site_symmetry_2
S1 C1 1_555 1_555
S2 C1 1_555 1_555
N1 C1 1_555 1_555
C2 S1 1_555 1_555
H1 C2 1_555 1_555
C3 N1 1_555 1_555
H2 C3 1_555 1_555
C4 S2 1_555 1_555
H3 C4 1_555 1_555
H4 C4 1_555 1_555
C5 C4 1_555 1_555
H5 C5 1_555 1_555
S1B C1B 1_555 1_555
S2B C1B 1_555 1_555
N1B C1B 1_555 1_555
C2B S1B 1_555 1_555
H1B C2B 1_555 1_555
C3B N1B 1_555 1_555
H2B C3B 1_555 1_555
C4B S2B 1_555 1_555
H3B C4B 1_555 1_555
H4B C4B 1_555 1_555
C5B C5 1_555 1_555
H5B C5B 1_555 1_555
C2 C3 1_555 1_555
C2B C3B 1_555 1_555
C4B C5B 1_555 1_555

#END
