
#######################################################################
#
#                 Cambridge Crystallographic Data Centre
#                                CCDC 
#
#######################################################################
#
# If this CIF has been generated from an entry in the Cambridge 
# Structural Database, then it will include bibliographic, chemical, 
# crystal, experimental, refinement or atomic coordinate data resulting 
# from the CCDC's data processing and validation procedures.
#
#######################################################################

data_JAXROP
_chemical_formula_moiety         
'6(C10 H8 N2 2-),6(C6 H16 N2),14(Na1 1+),O1 2-,4(C6 H6)'
_chemical_name_systematic        
'Tetradecasodium hexakis(bipyridine-di-ide) oxide hexakis(tetramethylethylenediamine) benzene solvate'
_symmetry_cell_setting           triclinic
_symmetry_space_group_name_H-M   'P -1'
_symmetry_Int_Tables_number      2
_space_group_name_Hall           '-P 1'
loop_
_symmetry_equiv_pos_site_id
_symmetry_equiv_pos_as_xyz
1 x,y,z
2 -x,-y,-z
_cell_length_a                   14.278(2)
_cell_length_b                   14.423(3)
_cell_length_c                   16.671(2)
_cell_angle_alpha                90.74(2)
_cell_angle_beta                 111.97(1)
_cell_angle_gamma                92.03(2)
_cell_volume                     3180.51
_exptl_crystal_colour            black
_exptl_crystal_description       block
_cell_formula_units_Z            1
_chemical_properties_physical    Air-sensitive
loop_
_atom_site_label
_atom_site_type_symbol
_atom_site_fract_x
_atom_site_fract_y
_atom_site_fract_z
Na2 Na 0.50087(9) 0.33666(8) 0.11897(8)
Na3 Na 0.32323(9) 0.37830(8) -0.04709(8)
Na4 Na 0.91861(9) 0.41528(8) 0.22219(8)
Na5 Na 0.52551(10) 0.26854(8) 0.30236(8)
Na6 Na 0.23155(9) 0.17364(8) -0.10020(7)
Na7 Na 0.57672(11) 0.39191(9) -0.09179(9)
O1 O 0.4814(8) 0.5236(7) -0.0305(6)
O1A O 0.5186(8) 0.4764(7) 0.0305(6)
C1 C 1.0549(3) 0.2248(2) 0.2555(3)
H1 H 0.9891(3) 0.1911(2) 0.2307(3)
H2 H 1.0704(3) 0.2392(2) 0.3168(3)
H3 H 1.1073(3) 0.1861(2) 0.2498(3)
C2 C 1.0261(3) 0.2883(3) 0.1184(2)
H4 H 1.0239(3) 0.3458(3) 0.0873(2)
H5 H 0.9598(3) 0.2554(3) 0.0949(2)
H6 H 1.0773(3) 0.2488(3) 0.1116(2)
N1 N 1.0518(2) 0.3102(2) 0.2099(2)
C3 C 1.1488(3) 0.3612(2) 0.2457(2)
H7 H 1.1528(3) 0.4072(2) 0.2034(2)
H8 H 1.2034(3) 0.3175(2) 0.2545(2)
C4 C 1.1659(3) 0.4107(2) 0.3299(2)
H9 H 1.1641(3) 0.3646(2) 0.3728(2)
H10 H 1.2340(3) 0.4419(2) 0.3516(2)
N2 N 1.0912(2) 0.4793(2) 0.3226(2)
C5 C 1.1053(3) 0.5572(3) 0.2739(3)
H11 H 1.0985(3) 0.5356(3) 0.2160(3)
H12 H 1.1728(3) 0.5863(3) 0.3038(3)
H13 H 1.0541(3) 0.6027(3) 0.2690(3)
C6 C 1.1014(4) 0.5120(3) 0.4080(3)
H14 H 1.0919(4) 0.4595(3) 0.4413(3)
H15 H 1.0502(4) 0.5575(3) 0.4029(3)
H16 H 1.1689(4) 0.5412(3) 0.4377(3)
C7 C 0.4036(6) 0.2680(6) 0.4261(5)
H17 H 0.3969(6) 0.2010(6) 0.4139(5)
H18 H 0.3569(6) 0.2997(6) 0.3763(5)
H19 H 0.3875(6) 0.2813(6) 0.4772(5)
C8 C 0.5177(7) 0.3953(6) 0.4597(6)
H20 H 0.4745(7) 0.4260(6) 0.4076(6)
H21 H 0.5876(7) 0.4198(6) 0.4766(6)
H22 H 0.4940(7) 0.4072(6) 0.5069(6)
N3 N 0.5137(3) 0.3031(2) 0.4435(2)
C11 C 0.5700(5) 0.2433(3) 0.5089(3)
H29 H 0.6381(5) 0.2733(3) 0.5380(3)
H30 H 0.5380(5) 0.2412(3) 0.5522(3)
C12 C 0.5837(4) 0.1512(3) 0.4891(3)
H31 H 0.5233(4) 0.1138(3) 0.4870(3)
H32 H 0.6419(4) 0.1290(3) 0.5382(3)
N4 N 0.6003(3) 0.1301(2) 0.4114(2)
C13 C 0.7043(4) 0.1500(4) 0.4231(3)
H33 H 0.7140(4) 0.1351(4) 0.3693(3)
H34 H 0.7482(4) 0.1125(4) 0.4697(3)
H35 H 0.7214(4) 0.2160(4) 0.4383(3)
C14 C 0.5775(5) 0.0324(3) 0.3887(3)
H36 H 0.5890(5) 0.0183(3) 0.3355(3)
H37 H 0.5067(5) 0.0174(3) 0.3794(3)
H38 H 0.6214(5) -0.0047(3) 0.4357(3)
C15 C 0.0421(3) 0.0439(3) -0.0893(2)
H39 H 0.0295(3) 0.0967(3) -0.0577(2)
H40 H 0.0095(3) -0.0126(3) -0.0778(2)
H41 H 0.0142(3) 0.0552(3) -0.1515(2)
C16 C 0.1911(3) 0.0161(3) 0.0316(2)
H42 H 0.2640(3) 0.0083(3) 0.0509(2)
H43 H 0.1584(3) -0.0402(3) 0.0434(2)
H44 H 0.1783(3) 0.0692(3) 0.0628(2)
N5 N 0.1498(2) 0.0324(2) -0.0613(2)
C17 C 0.1709(3) -0.0456(2) -0.1072(2)
H45 H 0.1290(3) -0.1003(2) -0.1037(2)
H46 H 0.2427(3) -0.0606(2) -0.0777(2)
C18 C 0.1512(3) -0.0286(2) -0.2001(2)
H47 H 0.1642(3) -0.0857(2) -0.2271(2)
H48 H 0.0791(3) -0.0151(2) -0.2301(2)
N6 N 0.2129(2) 0.0473(2) -0.2119(2)
C19 C 0.3175(3) 0.0213(2) -0.1853(2)
H49 H 0.3585(3) 0.0735(2) -0.1937(2)
H50 H 0.3215(3) -0.0325(2) -0.2202(2)
H51 H 0.3431(3) 0.0056(2) -0.1240(2)
C20 C 0.1763(4) 0.0711(3) -0.3028(2)
H52 H 0.2184(4) 0.1227(3) -0.3106(2)
H53 H 0.1061(4) 0.0896(3) -0.3213(2)
H54 H 0.1798(4) 0.0172(3) -0.3378(2)
N7 N 0.8232(2) 0.5624(2) 0.1728(2)
C21 C 0.8512(2) 0.6409(2) 0.2211(2)
H55 H 0.8303(2) 0.6456(2) 0.2688(2)
C22 C 0.9062(3) 0.7143(2) 0.2093(2)
H56 H 0.9218(3) 0.7680(2) 0.2463(2)
C23 C 0.9394(3) 0.7075(2) 0.1388(2)
H57 H 0.9788(3) 0.7570(2) 0.1283(2)
C24 C 0.9151(2) 0.6313(2) 0.0874(2)
H58 H 0.9370(2) 0.6278(2) 0.0402(2)
C25 C 0.8565(2) 0.5544(2) 0.1016(2)
C26 C 0.8307(2) 0.4732(2) 0.0520(2)
C27 C 0.8536(3) 0.4564(2) -0.0244(2)
H59 H 0.8905(3) 0.5027(2) -0.0417(2)
C28 C 0.8239(3) 0.3771(3) -0.0710(2)
H60 H 0.8393(3) 0.3679(3) -0.1212(2)
C29 C 0.7695(3) 0.3069(3) -0.0457(2)
H61 H 0.7445(3) 0.2514(3) -0.0795(2)
C30 C 0.7548(3) 0.3225(2) 0.0290(2)
H62 H 0.7228(3) 0.2734(2) 0.0479(2)
N8 N 0.7808(2) 0.4002(2) 0.0790(2)
N9 N 0.4900(2) 0.4225(2) 0.2368(2)
C31 C 0.4121(3) 0.4765(2) 0.2242(2)
H63 H 0.3471(3) 0.4512(2) 0.1890(2)
C32 C 0.4164(4) 0.5645(3) 0.2568(3)
H64 H 0.3578(4) 0.6000(3) 0.2422(3)
C33 C 0.5115(4) 0.6002(3) 0.3129(3)
H65 H 0.5177(4) 0.6600(3) 0.3393(3)
C34 C 0.5938(3) 0.5500(2) 0.3294(2)
H66 H 0.6576(3) 0.5743(2) 0.3684(2)
C35 C 0.5869(3) 0.4598(2) 0.2888(2)
C36 C 0.6690(2) 0.4070(2) 0.2986(2)
C37 C 0.7709(3) 0.4292(3) 0.3574(2)
H67 H 0.7841(3) 0.4833(3) 0.3936(2)
C38 C 0.8481(3) 0.3755(3) 0.3627(3)
H68 H 0.9143(3) 0.3914(3) 0.4031(3)
C39 C 0.8309(3) 0.2953(3) 0.3081(2)
H69 H 0.8846(3) 0.2578(3) 0.3087(2)
C40 C 0.7332(3) 0.2748(2) 0.2546(2)
H70 H 0.7216(3) 0.2200(2) 0.2194(2)
N10 N 0.6518(2) 0.3233(2) 0.2460(2)
N11 N 0.3328(2) 0.2479(2) 0.0431(2)
C41 C 0.3066(2) 0.2451(2) 0.1118(2)
H71 H 0.2558(2) 0.2858(2) 0.1120(2)
C42 C 0.3446(3) 0.1903(2) 0.1817(2)
H72 H 0.3235(3) 0.1947(2) 0.2293(2)
C43 C 0.4178(3) 0.1258(2) 0.1801(2)
H73 H 0.4442(3) 0.0840(2) 0.2259(2)
C44 C 0.4490(2) 0.1247(2) 0.1136(2)
H74 H 0.4979(2) 0.0818(2) 0.1132(2)
C45 C 0.4105(2) 0.1868(2) 0.0424(2)
C46 C 0.4422(2) 0.1917(2) -0.0260(2)
C47 C 0.5238(2) 0.1401(2) -0.0329(2)
H75 H 0.5581(2) 0.0990(2) 0.0116(2)
C48 C 0.5524(3) 0.1488(2) -0.1003(3)
H76 H 0.6068(3) 0.1146(2) -0.1031(3)
C49 C 0.5007(3) 0.2098(2) -0.1680(3)
H77 H 0.5205(3) 0.2187(2) -0.2159(3)
C50 C 0.4217(3) 0.2545(2) -0.1608(2)
H78 H 0.3852(3) 0.2923(2) -0.2075(2)
N12 N 0.3903(2) 0.2506(2) -0.0948(2)
C51 C 0.1438(3) -0.1026(4) 0.3245(3)
H79 H 0.0945(3) -0.1012(4) 0.3500(3)
C52 C 0.1707(5) -0.1823(4) 0.3044(4)
H80 H 0.1416(5) -0.2379(4) 0.3167(4)
C53 C 0.2393(7) -0.1874(4) 0.2664(4)
H81 H 0.2577(7) -0.2458(4) 0.2511(4)
C54 C 0.2814(5) -0.1067(6) 0.2508(3)
H82 H 0.3306(5) -0.1081(6) 0.2252(3)
C55 C 0.2526(5) -0.0251(4) 0.2718(3)
H83 H 0.2805(5) 0.0315(4) 0.2599(3)
C56 C 0.1841(4) -0.0235(3) 0.3100(3)
H84 H 0.1649(4) 0.0340(3) 0.3263(3)
C57 C 0.0831(6) 0.1081(3) -0.5309(3)
H85 H 0.0722(6) 0.0486(3) -0.5588(3)
C58 C 0.1772(5) 0.1522(5) -0.5040(4)
H86 H 0.2324(5) 0.1243(5) -0.5122(4)
C59 C 0.1883(6) 0.2407(5) -0.4639(4)
H87 H 0.2514(6) 0.2745(5) -0.4439(4)
C60 C 0.1051(8) 0.2764(4) -0.4546(3)
H88 H 0.1104(8) 0.3362(4) -0.4283(3)
C61 C 0.0185(6) 0.2292(5) -0.4816(4)
H89 H -0.0378(6) 0.2556(5) -0.4741(4)
C62 C 0.0071(5) 0.1486(5) -0.5178(4)
H90 H -0.0570(5) 0.1167(5) -0.5358(4)
Na1 Na 0.68717(10) 0.45523(9) 0.15860(8)
O2? O 0.5077(4) 0.4882(4) 0.0142(3)
C9? C 0.4204(10) 0.3311(9) 0.4291(8)
H23? H 0.3994(10) 0.3723(9) 0.3797(8)
H24? H 0.4203(10) 0.3645(9) 0.4806(8)
H25? H 0.3732(10) 0.2769(9) 0.4163(8)
C10? C 0.5810(8) 0.3959(6) 0.4847(6)
H26? H 0.6525(8) 0.3843(6) 0.4984(6)
H27? H 0.5712(8) 0.4142(6) 0.5377(6)
H28? H 0.5604(8) 0.4458(6) 0.4431(6)
loop_
_geom_bond_atom_site_label_1
_geom_bond_atom_site_label_2
_geom_bond_site_symmetry_1
_geom_bond_site_symmetry_2
O1 O1A 1_555 1_555
C1 H1 1_555 1_555
H2 C1 1_555 1_555
H3 C1 1_555 1_555
C2 H4 1_555 1_555
H5 C2 1_555 1_555
H6 C2 1_555 1_555
N1 C1 1_555 1_555
C3 N1 1_555 1_555
H7 C3 1_555 1_555
H8 C3 1_555 1_555
C4 C3 1_555 1_555
H9 C4 1_555 1_555
H10 C4 1_555 1_555
N2 C4 1_555 1_555
C5 N2 1_555 1_555
H11 C5 1_555 1_555
H12 C5 1_555 1_555
H13 C5 1_555 1_555
C6 N2 1_555 1_555
H14 C6 1_555 1_555
H15 C6 1_555 1_555
H16 C6 1_555 1_555
C7 H17 1_555 1_555
H18 C7 1_555 1_555
H19 C7 1_555 1_555
C8 H20 1_555 1_555
H21 C8 1_555 1_555
H22 C8 1_555 1_555
N3 C7 1_555 1_555
C11 N3 1_555 1_555
H29 C11 1_555 1_555
H30 C11 1_555 1_555
C12 C11 1_555 1_555
H31 C12 1_555 1_555
H32 C12 1_555 1_555
N4 C12 1_555 1_555
C13 N4 1_555 1_555
H33 C13 1_555 1_555
H34 C13 1_555 1_555
H35 C13 1_555 1_555
C14 N4 1_555 1_555
H36 C14 1_555 1_555
H37 C14 1_555 1_555
H38 C14 1_555 1_555
C15 H39 1_555 1_555
H40 C15 1_555 1_555
H41 C15 1_555 1_555
C16 H42 1_555 1_555
H43 C16 1_555 1_555
H44 C16 1_555 1_555
N5 C15 1_555 1_555
C17 N5 1_555 1_555
H45 C17 1_555 1_555
H46 C17 1_555 1_555
C18 C17 1_555 1_555
H47 C18 1_555 1_555
H48 C18 1_555 1_555
N6 C18 1_555 1_555
C19 N6 1_555 1_555
H49 C19 1_555 1_555
H50 C19 1_555 1_555
H51 C19 1_555 1_555
C20 N6 1_555 1_555
H52 C20 1_555 1_555
H53 C20 1_555 1_555
H54 C20 1_555 1_555
N7 C21 1_555 1_555
C21 H55 1_555 1_555
C22 C21 1_555 1_555
H56 C22 1_555 1_555
C23 C22 1_555 1_555
H57 C23 1_555 1_555
C24 C23 1_555 1_555
H58 C24 1_555 1_555
C25 N7 1_555 1_555
C26 C25 1_555 1_555
C27 C26 1_555 1_555
H59 C27 1_555 1_555
C28 C27 1_555 1_555
H60 C28 1_555 1_555
C29 C28 1_555 1_555
H61 C29 1_555 1_555
C30 C29 1_555 1_555
H62 C30 1_555 1_555
N8 C26 1_555 1_555
N9 C31 1_555 1_555
C31 H63 1_555 1_555
C32 C31 1_555 1_555
H64 C32 1_555 1_555
C33 C32 1_555 1_555
H65 C33 1_555 1_555
C34 C33 1_555 1_555
H66 C34 1_555 1_555
C35 N9 1_555 1_555
C36 C35 1_555 1_555
C37 C36 1_555 1_555
H67 C37 1_555 1_555
C38 C37 1_555 1_555
H68 C38 1_555 1_555
C39 C38 1_555 1_555
H69 C39 1_555 1_555
C40 C39 1_555 1_555
H70 C40 1_555 1_555
N10 C36 1_555 1_555
N11 C41 1_555 1_555
C41 H71 1_555 1_555
C42 C41 1_555 1_555
H72 C42 1_555 1_555
C43 C42 1_555 1_555
H73 C43 1_555 1_555
C44 C43 1_555 1_555
H74 C44 1_555 1_555
C45 N11 1_555 1_555
C46 C45 1_555 1_555
C47 C46 1_555 1_555
H75 C47 1_555 1_555
C48 C47 1_555 1_555
H76 C48 1_555 1_555
C49 C48 1_555 1_555
H77 C49 1_555 1_555
C50 C49 1_555 1_555
H78 C50 1_555 1_555
N12 C46 1_555 1_555
C51 H79 1_555 1_555
C52 C51 1_555 1_555
H80 C52 1_555 1_555
C53 C52 1_555 1_555
H81 C53 1_555 1_555
C54 C53 1_555 1_555
H82 C54 1_555 1_555
C55 C54 1_555 1_555
H83 C55 1_555 1_555
C56 C51 1_555 1_555
H84 C56 1_555 1_555
C57 H85 1_555 1_555
C58 C57 1_555 1_555
H86 C58 1_555 1_555
C59 C58 1_555 1_555
H87 C59 1_555 1_555
C60 C59 1_555 1_555
H88 C60 1_555 1_555
C61 C60 1_555 1_555
H89 C61 1_555 1_555
C62 C57 1_555 1_555
H90 C62 1_555 1_555
C2 N1 1_555 1_555
C8 N3 1_555 1_555
C16 N5 1_555 1_555
C24 C25 1_555 1_555
C30 N8 1_555 1_555
C34 C35 1_555 1_555
C40 N10 1_555 1_555
C44 C45 1_555 1_555
C50 N12 1_555 1_555
C55 C56 1_555 1_555
C61 C62 1_555 1_555

#END
