
#######################################################################
#
#                 Cambridge Crystallographic Data Centre
#                                CCDC 
#
#######################################################################
#
# If this CIF has been generated from an entry in the Cambridge 
# Structural Database, then it will include bibliographic, chemical, 
# crystal, experimental, refinement or atomic coordinate data resulting 
# from the CCDC's data processing and validation procedures.
#
#######################################################################

data_JAXREG
_chemical_formula_moiety         'C6 H7 N4 1+,C2 Cl3 O2 1-'
_chemical_name_systematic        "2,2'-Biimidazol-1-ium trichloroacetate"
_symmetry_cell_setting           monoclinic
_symmetry_space_group_name_H-M   'P 21/c'
_symmetry_Int_Tables_number      14
_space_group_name_Hall           '-P 2ybc'
loop_
_symmetry_equiv_pos_site_id
_symmetry_equiv_pos_as_xyz
1 x,y,z
2 -x,1/2+y,1/2-z
3 -x,-y,-z
4 x,1/2-y,1/2+z
_cell_length_a                   12.4010(13)
_cell_length_b                   5.5664(6)
_cell_length_c                   17.3648(18)
_cell_angle_alpha                90
_cell_angle_beta                 100.858(2)
_cell_angle_gamma                90
_cell_volume                     1177.21
_exptl_crystal_colour            colorless
_exptl_crystal_description       block
_cell_formula_units_Z            4
loop_
_atom_site_label
_atom_site_type_symbol
_atom_site_fract_x
_atom_site_fract_y
_atom_site_fract_z
Cl1 Cl 0.71002(8) -0.82356(16) 0.70084(6)
Cl2 Cl 0.52275(7) -0.67802(19) 0.58778(6)
Cl3 Cl 0.58366(9) -0.41198(19) 0.73127(6)
O1 O 0.6633(2) -0.2887(5) 0.56260(15)
O2 O 0.8033(2) -0.3819(5) 0.65586(18)
C7 C 0.6342(3) -0.5741(6) 0.65736(19)
C8 C 0.7085(3) -0.3986(6) 0.62063(19)
N1 N 0.9417(2) -0.0367(5) 0.62658(17)
N2 N 1.0299(2) 0.2672(6) 0.58630(16)
N3 N 0.8404(2) 0.3665(5) 0.46057(16)
N4 N 0.7490(2) 0.0753(6) 0.49863(16)
C1 C 1.0397(3) -0.0192(7) 0.6768(2)
H1 H 1.0650 -0.1164 0.7200
C2 C 1.0926(3) 0.1663(7) 0.6515(2)
H2 H 1.1622 0.2190 0.6751
C3 C 0.9382(3) 0.1388(6) 0.57350(18)
C4 C 0.8453(3) 0.1900(6) 0.51222(18)
C5 C 0.6821(3) 0.1835(7) 0.4371(2)
H3 H 0.6105 0.1391 0.4156
C6 C 0.7382(3) 0.3641(7) 0.4135(2)
H4 H 0.7127 0.4697 0.3726
H5 H 0.894(2) -0.140(5) 0.632(2)
H6 H 0.889(2) 0.469(5) 0.455(2)
H7 H 0.729(3) -0.038(5) 0.5259(18)
loop_
_geom_bond_atom_site_label_1
_geom_bond_atom_site_label_2
_geom_bond_site_symmetry_1
_geom_bond_site_symmetry_2
Cl1 C7 1_555 1_555
Cl2 C7 1_555 1_555
Cl3 C7 1_555 1_555
O1 C8 1_555 1_555
O2 C8 1_555 1_555
N1 C1 1_555 1_555
N2 C2 1_555 1_555
N3 C4 1_555 1_555
N4 C4 1_555 1_555
C1 H1 1_555 1_555
C2 C1 1_555 1_555
H2 C2 1_555 1_555
C3 N1 1_555 1_555
C4 C3 1_555 1_555
C5 N4 1_555 1_555
H3 C5 1_555 1_555
C6 N3 1_555 1_555
H4 C6 1_555 1_555
C7 C8 1_555 1_555
H5 N1 1_555 1_555
H6 N3 1_555 1_555
H7 N4 1_555 1_555
N2 C3 1_555 1_555
C5 C6 1_555 1_555

#END
