
#######################################################################
#
#                 Cambridge Crystallographic Data Centre
#                                CCDC 
#
#######################################################################
#
# If this CIF has been generated from an entry in the Cambridge 
# Structural Database, then it will include bibliographic, chemical, 
# crystal, experimental, refinement or atomic coordinate data resulting 
# from the CCDC's data processing and validation procedures.
#
#######################################################################

data_JAXTIM
_chemical_formula_moiety         'C15 H14 N2 O3 S1'
_chemical_name_systematic        
1-Benzoyl-6-methyl-3-methylsulfanyl-6,7-dihydro-1H-pyrano(4,3-c)pyrazol-4-one
_chemical_properties_biological  bioactive
_symmetry_cell_setting           monoclinic
_symmetry_space_group_name_H-M   'C c'
_symmetry_Int_Tables_number      9
_space_group_name_Hall           'C -2yc'
loop_
_symmetry_equiv_pos_site_id
_symmetry_equiv_pos_as_xyz
1 x,y,z
2 x,-y,1/2+z
3 1/2+x,1/2+y,z
4 1/2+x,1/2-y,1/2+z
_cell_length_a                   24.083(3)
_cell_length_b                   7.3930(10)
_cell_length_c                   18.820(3)
_cell_angle_alpha                90
_cell_angle_beta                 117.765(2)
_cell_angle_gamma                90
_cell_volume                     2965.02
_exptl_crystal_colour            colorless
_exptl_crystal_description       block
_chemical_melting_point          '409 K'
_cell_formula_units_Z            8
_exptl_crystal_recrystallization_method n-hexane/dichloromethane
loop_
_atom_site_label
_atom_site_type_symbol
_atom_site_fract_x
_atom_site_fract_y
_atom_site_fract_z
S1 S 0.04136(4) 0.91899(12) 0.39817(5)
O1 O 0.07728(10) 0.7514(4) 0.73258(15)
O2 O 0.23882(10) 0.7938(3) 0.61883(15)
O3 O 0.18794(12) 0.8394(4) 0.48764(17)
N1 N 0.02812(10) 0.8631(3) 0.53063(14)
N2 N 0.06663(10) 0.8286(3) 0.61146(14)
C1 C -0.05586(14) 0.9944(5) 0.5884(2)
H1 H -0.0376 1.0536 0.5609
C2 C -0.11539(15) 1.0425(5) 0.5753(2)
H2 H -0.1367 1.1359 0.5399
C3 C -0.14311(15) 0.9528(6) 0.6142(2)
H3 H -0.1832 0.9853 0.6053
C4 C -0.11182(17) 0.8156(6) 0.6662(2)
H4 H -0.1312 0.7529 0.6915
C5 C -0.05203(15) 0.7694(5) 0.6815(2)
H5 H -0.0306 0.6782 0.7182
C6 C -0.02351(14) 0.8587(4) 0.64222(19)
C7 C 0.04247(13) 0.8082(4) 0.66675(19)
C8 C 0.12818(12) 0.8182(4) 0.62826(18)
C9 C 0.18531(13) 0.7763(4) 0.70407(19)
H6 H 0.1876 0.6474 0.7146
H7 H 0.1840 0.8390 0.7485
C10 C 0.24181(13) 0.8363(5) 0.6959(2)
H8 H 0.2456 0.9678 0.7030
C11 C 0.30170(15) 0.7518(6) 0.7584(3)
H9 H 0.2990 0.6227 0.7524
H10 H 0.3077 0.7835 0.8109
H11 H 0.3365 0.7955 0.7515
C12 C 0.18652(15) 0.8317(5) 0.5508(2)
C13 C 0.12973(13) 0.8487(4) 0.55818(18)
C14 C 0.06669(13) 0.8751(4) 0.49927(17)
C15 C -0.04159(17) 0.9176(6) 0.3615(2)
H12 H -0.0549 0.7984 0.3672
H13 H -0.0621 0.9517 0.3059
H14 H -0.0525 1.0019 0.3918
S2 S 0.11933(4) 0.72625(12) 0.20956(5)
O4 O -0.03343(9) 0.5761(4) -0.14800(12)
O5 O 0.22943(10) 0.6905(4) 0.16330(14)
O6 O 0.20959(9) 0.6529(3) 0.03736(13)
N3 N 0.02469(10) 0.6134(3) -0.01498(13)
N4 N 0.02837(12) 0.6482(4) 0.06007(14)
C16 C -0.14289(13) 0.6791(5) -0.13527(18)
H15 H -0.1383 0.7423 -0.1749
C17 C -0.20015(14) 0.6773(5) -0.1355(2)
H16 H -0.2339 0.7414 -0.1743
C18 C -0.20692(15) 0.5801(5) -0.0779(2)
H17 H -0.2454 0.5781 -0.0777
C19 C -0.15721(17) 0.4863(6) -0.0208(2)
H18 H -0.1624 0.4185 0.0172
C20 C -0.09922(14) 0.4913(5) -0.01922(19)
H19 H -0.0652 0.4299 0.0205
C21 C -0.09244(13) 0.5880(4) -0.07685(18)
C22 C -0.03339(13) 0.5895(4) -0.08434(18)
C23 C 0.08835(14) 0.6767(4) 0.10783(17)
C24 C 0.0529(2) 0.6934(6) 0.2263(2)
H20 H 0.0181 0.7625 0.1878
H21 H 0.0629 0.7327 0.2795
H22 H 0.0419 0.5675 0.2205
C25 C 0.12368(13) 0.6642(4) 0.06572(17)
C26 C 0.19096(14) 0.6730(4) 0.09394(19)
C27 C 0.16678(14) 0.6694(6) -0.0464(2)
H23 H 0.1608 0.7995 -0.0573
C28 C 0.19932(15) 0.6019(6) -0.0921(2)
H24 H 0.2380 0.6667 -0.0754
H25 H 0.1729 0.6205 -0.1485
H26 H 0.2080 0.4752 -0.0818
C29 C 0.10223(13) 0.5921(4) -0.07399(18)
H27 H 0.0728 0.6493 -0.1238
H28 H 0.1026 0.4633 -0.0836
C30 C 0.08257(12) 0.6238(4) -0.01167(16)
loop_
_geom_bond_atom_site_label_1
_geom_bond_atom_site_label_2
_geom_bond_site_symmetry_1
_geom_bond_site_symmetry_2
S1 C14 1_555 1_555
S2 C23 1_555 1_555
O1 C7 1_555 1_555
O2 C10 1_555 1_555
O3 C12 1_555 1_555
O4 C22 1_555 1_555
O5 C26 1_555 1_555
O6 C26 1_555 1_555
N1 N2 1_555 1_555
N2 C7 1_555 1_555
N3 N4 1_555 1_555
N4 C23 1_555 1_555
C1 H1 1_555 1_555
C2 C1 1_555 1_555
H2 C2 1_555 1_555
C3 C2 1_555 1_555
H3 C3 1_555 1_555
C4 C3 1_555 1_555
H4 C4 1_555 1_555
C5 C4 1_555 1_555
H5 C5 1_555 1_555
C6 C1 1_555 1_555
C7 C6 1_555 1_555
C8 N2 1_555 1_555
C9 C8 1_555 1_555
H6 C9 1_555 1_555
H7 C9 1_555 1_555
C10 C9 1_555 1_555
H8 C10 1_555 1_555
C11 C10 1_555 1_555
H9 C11 1_555 1_555
H10 C11 1_555 1_555
H11 C11 1_555 1_555
C12 O2 1_555 1_555
C13 C8 1_555 1_555
C14 N1 1_555 1_555
C15 S1 1_555 1_555
H12 C15 1_555 1_555
H13 C15 1_555 1_555
H14 C15 1_555 1_555
C16 H15 1_555 1_555
C17 C16 1_555 1_555
H16 C17 1_555 1_555
C18 C17 1_555 1_555
H17 C18 1_555 1_555
C19 C18 1_555 1_555
H18 C19 1_555 1_555
C20 C19 1_555 1_555
H19 C20 1_555 1_555
C21 C16 1_555 1_555
C22 N3 1_555 1_555
C23 C25 1_555 1_555
C24 S2 1_555 1_555
H20 C24 1_555 1_555
H21 C24 1_555 1_555
H22 C24 1_555 1_555
C25 C26 1_555 1_555
C27 O6 1_555 1_555
H23 C27 1_555 1_555
C28 C27 1_555 1_555
H24 C28 1_555 1_555
H25 C28 1_555 1_555
H26 C28 1_555 1_555
C29 C27 1_555 1_555
H27 C29 1_555 1_555
H28 C29 1_555 1_555
C30 N3 1_555 1_555
C5 C6 1_555 1_555
C12 C13 1_555 1_555
C13 C14 1_555 1_555
C20 C21 1_555 1_555
C21 C22 1_555 1_555
C25 C30 1_555 1_555
C29 C30 1_555 1_555

#END
