
#######################################################################
#
#                 Cambridge Crystallographic Data Centre
#                                CCDC 
#
#######################################################################
#
# If this CIF has been generated from an entry in the Cambridge 
# Structural Database, then it will include bibliographic, chemical, 
# crystal, experimental, refinement or atomic coordinate data resulting 
# from the CCDC's data processing and validation procedures.
#
#######################################################################

data_JAXTAE01
_chemical_formula_moiety         'C14 H10 N4 O4'
_chemical_name_systematic        
(E,E)-1,4-bis(3-Nitrophenyl)-2,3-diaza-1,3-butadiene
_symmetry_cell_setting           monoclinic
_symmetry_space_group_name_H-M   'P 21/n'
_symmetry_Int_Tables_number      14
_space_group_name_Hall           '-P 2yn'
loop_
_symmetry_equiv_pos_site_id
_symmetry_equiv_pos_as_xyz
1 x,y,z
2 1/2-x,1/2+y,1/2-z
3 -x,-y,-z
4 1/2+x,1/2-y,1/2+z
_cell_length_a                   7.0128(4)
_cell_length_b                   7.6318(5)
_cell_length_c                   12.8037(5)
_cell_angle_alpha                90
_cell_angle_beta                 105.825(3)
_cell_angle_gamma                90
_cell_volume                     659.286
_exptl_crystal_colour            yellow
_exptl_crystal_description       plate
_chemical_melting_point          '475-477 K'
_cell_formula_units_Z            2
_exptl_crystal_recrystallization_method 1,2-dichloroethane
loop_
_atom_site_label
_atom_site_type_symbol
_atom_site_fract_x
_atom_site_fract_y
_atom_site_fract_z
O1 O -0.09983(16) 0.27543(15) 0.68104(8)
O2 O -0.34487(15) 0.11164(15) 0.59533(9)
N1 N 0.41253(17) 0.46167(16) 0.50700(9)
N2 N -0.19378(18) 0.19608(16) 0.59948(10)
C1 C 0.1283(2) 0.29160(18) 0.41783(11)
C2 C 0.0541(2) 0.28839(19) 0.50926(11)
C3 C -0.1216(2) 0.20250(19) 0.50200(11)
C4 C -0.2296(2) 0.1181(2) 0.40910(12)
C5 C -0.1544(2) 0.1209(2) 0.31907(12)
C6 C 0.0221(2) 0.20644(19) 0.32335(11)
C7 C 0.3159(2) 0.37952(19) 0.42187(11)
H1 H 0.1238 0.3444 0.5748
H2 H -0.3506 0.0603 0.4068
H3 H -0.2247 0.0636 0.2541
H4 H 0.0713 0.2071 0.2612
H5 H 0.3666 0.3755 0.3603
O1B O 1.09983(16) 0.72457(15) 0.31896(8)
O2B O 1.34487(15) 0.88836(15) 0.40467(9)
N1B N 0.58747(17) 0.53833(16) 0.49300(9)
N2B N 1.19378(18) 0.80392(16) 0.40052(10)
C1B C 0.8717(2) 0.70840(18) 0.58217(11)
C2B C 0.9459(2) 0.71161(19) 0.49074(11)
C3B C 1.1216(2) 0.79750(19) 0.49800(11)
C4B C 1.2296(2) 0.8819(2) 0.59090(12)
C5B C 1.1544(2) 0.8791(2) 0.68093(12)
C6B C 0.9779(2) 0.79356(19) 0.67665(11)
C7B C 0.6841(2) 0.62048(19) 0.57813(11)
H1B H 0.8762 0.6556 0.4252
H2B H 1.3506 0.9397 0.5932
H3B H 1.2247 0.9364 0.7459
H4B H 0.9287 0.7929 0.7388
H5B H 0.6334 0.6245 0.6397
loop_
_geom_bond_atom_site_label_1
_geom_bond_atom_site_label_2
_geom_bond_site_symmetry_1
_geom_bond_site_symmetry_2
O1 N2 1_555 1_555
O2 N2 1_555 1_555
N1 C7 1_555 1_555
N2 C3 1_555 1_555
C1 C2 1_555 1_555
C2 C3 1_555 1_555
C3 C4 1_555 1_555
C4 C5 1_555 1_555
C5 C6 1_555 1_555
C6 C1 1_555 1_555
C7 C1 1_555 1_555
H1 C2 1_555 1_555
H2 C4 1_555 1_555
H3 C5 1_555 1_555
H4 C6 1_555 1_555
H5 C7 1_555 1_555
O1B N2B 1_555 1_555
O2B N2B 1_555 1_555
N1B N1 1_555 1_555
N2B C3B 1_555 1_555
C1B C2B 1_555 1_555
C2B C3B 1_555 1_555
C3B C4B 1_555 1_555
C4B C5B 1_555 1_555
C5B C6B 1_555 1_555
C6B C1B 1_555 1_555
C7B N1B 1_555 1_555
H1B C2B 1_555 1_555
H2B C4B 1_555 1_555
H3B C5B 1_555 1_555
H4B C6B 1_555 1_555
H5B C7B 1_555 1_555
C1B C7B 1_555 1_555

#END
