
#######################################################################
#
#                 Cambridge Crystallographic Data Centre
#                                CCDC 
#
#######################################################################
#
# If this CIF has been generated from an entry in the Cambridge 
# Structural Database, then it will include bibliographic, chemical, 
# crystal, experimental, refinement or atomic coordinate data resulting 
# from the CCDC's data processing and validation procedures.
#
#######################################################################

data_JAXVEK
_chemical_formula_moiety         'C4 H5 N3 O2'
_chemical_name_systematic        'Methyl 1H-1,2,4-triazole-3-carboxylate'
_symmetry_cell_setting           monoclinic
_symmetry_space_group_name_H-M   'P 21/n'
_symmetry_Int_Tables_number      14
_space_group_name_Hall           '-P 2yn'
loop_
_symmetry_equiv_pos_site_id
_symmetry_equiv_pos_as_xyz
1 x,y,z
2 1/2-x,1/2+y,1/2-z
3 -x,-y,-z
4 1/2+x,1/2-y,1/2+z
_cell_length_a                   3.9737(9)
_cell_length_b                   18.160(4)
_cell_length_c                   8.1865(19)
_cell_angle_alpha                90
_cell_angle_beta                 102.596(4)
_cell_angle_gamma                90
_cell_volume                     576.539
_exptl_crystal_colour            colorless
_exptl_crystal_description       block
_cell_formula_units_Z            4
_exptl_crystal_recrystallization_method water/methanol
loop_
_atom_site_label
_atom_site_type_symbol
_atom_site_fract_x
_atom_site_fract_y
_atom_site_fract_z
O1 O 0.3505(4) 0.39535(7) 0.12670(17)
O2 O 0.2107(3) 0.46242(7) 0.33138(17)
N1 N 0.1973(4) 0.26613(8) 0.28949(17)
N2 N 0.0297(4) 0.33867(8) 0.47971(17)
N3 N -0.0137(4) 0.26701(8) 0.51244(19)
C1 C 0.0859(5) 0.22506(11) 0.4003(2)
H1 H 0.0788 0.1739 0.3993
C2 C 0.1574(4) 0.33524(9) 0.34415(19)
C3 C 0.2501(4) 0.40039(9) 0.2544(2)
C4 C 0.3033(6) 0.52920(11) 0.2565(3)
H2 H 0.5460 0.5289 0.2592
H3 H 0.2487 0.5709 0.3180
H4 H 0.1767 0.5323 0.1426
H5 H -0.100(6) 0.2543(14) 0.608(3)
loop_
_geom_bond_atom_site_label_1
_geom_bond_atom_site_label_2
_geom_bond_site_symmetry_1
_geom_bond_site_symmetry_2
O1 C3 1_555 1_555
O2 C3 1_555 1_555
N1 C1 1_555 1_555
N2 N3 1_555 1_555
N3 C1 1_555 1_555
C1 H1 1_555 1_555
C2 N1 1_555 1_555
C3 C2 1_555 1_555
C4 O2 1_555 1_555
H2 C4 1_555 1_555
H3 C4 1_555 1_555
H4 C4 1_555 1_555
H5 N3 1_555 1_555
N2 C2 1_555 1_555

#END
