
#######################################################################
#
#                 Cambridge Crystallographic Data Centre
#                                CCDC 
#
#######################################################################
#
# If this CIF has been generated from an entry in the Cambridge 
# Structural Database, then it will include bibliographic, chemical, 
# crystal, experimental, refinement or atomic coordinate data resulting 
# from the CCDC's data processing and validation procedures.
#
#######################################################################

data_JAXYIR
_chemical_compound_source        
'axenic culture of liverwort Ricciocarpus natans'
_chemical_formula_moiety         'C15 H20 O3'
_chemical_name_systematic        'Ricciocarpin A'
_chemical_properties_biological  'molluscicidal activity'
_symmetry_cell_setting           monoclinic
_symmetry_space_group_name_H-M   'P 21'
_symmetry_Int_Tables_number      4
_space_group_name_Hall           'P 2yb'
loop_
_symmetry_equiv_pos_site_id
_symmetry_equiv_pos_as_xyz
1 x,y,z
2 -x,1/2+y,-z
_cell_length_a                   8.5060(7)
_cell_length_b                   7.4661(7)
_cell_length_c                   10.7330(10)
_cell_angle_alpha                90
_cell_angle_beta                 102.626(2)
_cell_angle_gamma                90
_cell_volume                     665.134
_exptl_crystal_colour            colorless
_exptl_crystal_description       plate
_cell_formula_units_Z            2
_exptl_crystal_recrystallization_method methanol
loop_
_atom_site_label
_atom_site_type_symbol
_atom_site_fract_x
_atom_site_fract_y
_atom_site_fract_z
C1 C 0.1308(7) 0.8375(9) 0.1655(5)
H1 H 0.1156 0.7146 0.1553
O1 O 0.1909(4) 0.6505(5) 0.3953(3)
O2 O 0.2200(5) 0.3919(5) 0.4919(4)
C2 C 0.2304(5) 0.6521(6) 0.6241(4)
H2 H 0.1259 0.7070 0.6247
C3 C 0.2744(6) 0.5312(7) 0.7408(5)
H3 H 0.3766 0.4729 0.7420
H4 H 0.1930 0.4390 0.7364
C4 C 0.2867(6) 0.6402(8) 0.8626(4)
H5 H 0.1808 0.6849 0.8664
H6 H 0.3237 0.5634 0.9360
C5 C 0.4015(6) 0.7963(7) 0.8683(4)
H7 H 0.5098 0.7499 0.8770
H8 H 0.3995 0.8663 0.9441
C6 C 0.3636(5) 0.9201(6) 0.7518(4)
C7 C 0.3556(5) 0.8059(6) 0.6311(4)
H9 H 0.4612 0.7484 0.6407
C8 C 0.3259(5) 0.9092(6) 0.5046(4)
H10 H 0.3118 1.0352 0.5215
H11 H 0.4200 0.8981 0.4679
C9 C 0.1800(5) 0.8437(6) 0.4090(4)
H12 H 0.0831 0.8717 0.4406
C10 C 0.1637(5) 0.9238(7) 0.2790(4)
C11 C 0.1761(6) 1.1036(8) 0.2498(5)
H13 H 0.1979 1.1973 0.3082
C12 C 0.1512(6) 1.1182(9) 0.1241(4)
H14 H 0.1529 1.2251 0.0799
O3 O 0.1231(5) 0.9553(8) 0.0697(4)
C13 C 0.2133(6) 0.5519(6) 0.5018(5)
C14 C 0.5008(6) 1.0549(7) 0.7624(5)
H15 H 0.5121 1.1212 0.8404
H16 H 0.4774 1.1359 0.6912
H17 H 0.5993 0.9924 0.7621
C15 C 0.2076(6) 1.0222(7) 0.7479(5)
H18 H 0.1831 1.0950 0.6724
H19 H 0.2199 1.0973 0.8220
H20 H 0.1215 0.9387 0.7469
loop_
_geom_bond_atom_site_label_1
_geom_bond_atom_site_label_2
_geom_bond_site_symmetry_1
_geom_bond_site_symmetry_2
C1 H1 1_555 1_555
O1 C9 1_555 1_555
O2 C13 1_555 1_555
C2 H2 1_555 1_555
C3 C2 1_555 1_555
H3 C3 1_555 1_555
H4 C3 1_555 1_555
C4 C3 1_555 1_555
H5 C4 1_555 1_555
H6 C4 1_555 1_555
C5 C4 1_555 1_555
H7 C5 1_555 1_555
H8 C5 1_555 1_555
C6 C5 1_555 1_555
C7 C2 1_555 1_555
H9 C7 1_555 1_555
C8 C7 1_555 1_555
H10 C8 1_555 1_555
H11 C8 1_555 1_555
C9 C8 1_555 1_555
H12 C9 1_555 1_555
C10 C1 1_555 1_555
C11 C10 1_555 1_555
H13 C11 1_555 1_555
C12 C11 1_555 1_555
H14 C12 1_555 1_555
O3 C1 1_555 1_555
C13 O1 1_555 1_555
C14 C6 1_555 1_555
H15 C14 1_555 1_555
H16 C14 1_555 1_555
H17 C14 1_555 1_555
C15 C6 1_555 1_555
H18 C15 1_555 1_555
H19 C15 1_555 1_555
H20 C15 1_555 1_555
C2 C13 1_555 1_555
C6 C7 1_555 1_555
C9 C10 1_555 1_555
C12 O3 1_555 1_555

#END
