
#######################################################################
#
#                 Cambridge Crystallographic Data Centre
#                                CCDC 
#
#######################################################################
#
# If this CIF has been generated from an entry in the Cambridge 
# Structural Database, then it will include bibliographic, chemical, 
# crystal, experimental, refinement or atomic coordinate data resulting 
# from the CCDC's data processing and validation procedures.
#
#######################################################################

data_JAYBAP
_chemical_formula_moiety         'C56 H60 B2 F4 N4 O2 S2'
_chemical_name_systematic        
10,10'-({2,5-bis[(2-ethylhexyl)oxy]-1,4-phenylene}bis[(ethyne-2,1-diyl)thiene-5,2-diyl])bis(5,5-difluoro-3,7-dimethyl-5H-dipyrrolo[1,2-c:2',1'-f][1,3,2]diazaboratinin-4-ium)
_symmetry_cell_setting           triclinic
_symmetry_space_group_name_H-M   'P -1'
_symmetry_Int_Tables_number      2
_space_group_name_Hall           '-P 1'
loop_
_symmetry_equiv_pos_site_id
_symmetry_equiv_pos_as_xyz
1 x,y,z
2 -x,-y,-z
_cell_length_a                   10.1366(12)
_cell_length_b                   10.9280(12)
_cell_length_c                   12.6758(14)
_cell_angle_alpha                66.265(7)
_cell_angle_beta                 87.951(7)
_cell_angle_gamma                81.738(7)
_cell_volume                     1271.65
_exptl_crystal_colour            red
_exptl_crystal_description       block
_cell_formula_units_Z            1
loop_
_atom_site_label
_atom_site_type_symbol
_atom_site_fract_x
_atom_site_fract_y
_atom_site_fract_z
F1 F -0.0346(4) 1.2811(4) 0.1121(5)
F2 F -0.0825(4) 1.2443(5) -0.0449(4)
S1 S 0.44108(17) 0.84309(19) 0.28472(19)
O1 O 0.8280(5) 0.6769(6) 0.5629(6)
N1 N 0.1430(6) 1.1820(6) 0.0295(6)
N2 N -0.0362(5) 1.0544(6) 0.1343(6)
B1 B -0.0060(8) 1.1962(9) 0.0550(8)
C1 C 0.1422(10) 1.4108(9) -0.1275(8)
C2 C -0.2834(7) 1.1123(9) 0.1267(9)
C3 C 0.2087(8) 1.2748(8) -0.0491(7)
C4 C 0.3455(8) 1.2240(9) -0.0434(8)
C5 C 0.3610(7) 1.0964(8) 0.0405(7)
C6 C 0.2363(6) 1.0664(7) 0.0886(6)
C7 C 0.1935(6) 0.9518(7) 0.1702(7)
C8 C 0.0601(7) 0.9442(7) 0.1948(7)
C9 C -0.0072(8) 0.8426(9) 0.2702(8)
C10 C -0.1401(8) 0.8885(9) 0.2567(9)
C11 C -0.1568(7) 1.0190(8) 0.1731(8)
C12 C 0.2926(6) 0.8311(7) 0.2299(7)
C13 C 0.2840(7) 0.7005(7) 0.2501(7)
C14 C 0.3959(7) 0.6108(8) 0.3089(7)
C15 C 0.4915(7) 0.6709(7) 0.3326(7)
C16 C 0.6191(7) 0.6157(7) 0.3861(7)
C17 C 0.7306(7) 0.5767(7) 0.4236(7)
C18 C 0.8663(6) 0.5347(7) 0.4648(6)
C19 C 0.9171(7) 0.5886(7) 0.5352(7)
C20 C 1.0497(7) 0.5557(7) 0.5679(7)
C21 C 0.8772(9) 0.7444(13) 0.6283(12)
C22 C 0.7601(11) 0.8327(15) 0.6468(15)
C23 C 0.7034(12) 0.9477(19) 0.5422(19)
C24 C 0.7969(18) 1.0526(19) 0.4817(19)
C25 C 0.6495(12) 0.7620(18) 0.7036(16)
C26 C 0.6830(13) 0.6446(17) 0.8055(16)
C27 C 0.5685(17) 0.593(2) 0.871(2)
C28 C 0.603(2) 0.456(2) 0.975(2)
H1 H 0.2052 1.4611 -0.1768
H2 H 0.1016 1.4585 -0.0832
H3 H 0.0741 1.4019 -0.1733
H4 H -0.3585 1.0711 0.1636
H5 H -0.2827 1.1930 0.1394
H6 H -0.2925 1.1373 0.0455
H7 H 0.4144 1.2714 -0.0893
H8 H 0.4432 1.0354 0.0638
H9 H 0.0342 0.7552 0.3245
H10 H -0.2105 0.8385 0.2963
H11 H 0.2087 0.6733 0.2258
H12 H 0.4042 0.5147 0.3317
H13 H 1.0854 0.5950 0.6144
H14 H 0.9482 0.7923 0.5923
H15 H 0.9127 0.6751 0.7038
H16 H 0.7907 0.8715 0.6964
H17 H 0.6248 0.9960 0.5586
H18 H 0.6800 0.9152 0.4862
H19 H 0.7504 1.1282 0.4081
H20 H 0.8193 1.0994 0.5247
H21 H 0.8745 1.0186 0.4524
H22 H 0.5859 0.8249 0.7203
H23 H 0.6109 0.7388 0.6477
H24 H 0.7356 0.6665 0.8540
H25 H 0.7311 0.5777 0.7849
H26 H 0.5227 0.6575 0.8947
H27 H 0.5111 0.5779 0.8189
H28 H 0.5246 0.4256 1.0114
H29 H 0.6604 0.4681 1.0252
H30 H 0.6487 0.3885 0.9494
F1A F 2.0346(4) -0.2811(4) 0.8879(5)
F2A F 2.0825(4) -0.2443(5) 1.0449(4)
S1A S 1.55892(17) 0.15691(19) 0.71528(19)
O1A O 1.1720(5) 0.3231(6) 0.4371(6)
N1A N 1.8570(6) -0.1820(6) 0.9705(6)
N2A N 2.0362(5) -0.0544(6) 0.8657(6)
B1A B 2.0060(8) -0.1962(9) 0.9450(8)
C1A C 1.8578(10) -0.4108(9) 1.1275(8)
C2A C 2.2834(7) -0.1123(9) 0.8733(9)
C3A C 1.7913(8) -0.2748(8) 1.0491(7)
C4A C 1.6545(8) -0.2240(9) 1.0434(8)
C5A C 1.6390(7) -0.0964(8) 0.9595(7)
C6A C 1.7637(6) -0.0664(7) 0.9114(6)
C7A C 1.8065(6) 0.0482(7) 0.8298(7)
C8A C 1.9399(7) 0.0558(7) 0.8052(7)
C9A C 2.0072(8) 0.1574(9) 0.7298(8)
C10A C 2.1401(8) 0.1115(9) 0.7433(9)
C11A C 2.1568(7) -0.0190(8) 0.8269(8)
C12A C 1.7074(6) 0.1689(7) 0.7701(7)
C13A C 1.7160(7) 0.2995(7) 0.7499(7)
C14A C 1.6041(7) 0.3892(8) 0.6911(7)
C15A C 1.5085(7) 0.3291(7) 0.6674(7)
C16A C 1.3809(7) 0.3843(7) 0.6139(7)
C17A C 1.2694(7) 0.4233(7) 0.5764(7)
C18A C 1.1337(6) 0.4653(7) 0.5352(6)
C19A C 1.0829(7) 0.4114(7) 0.4648(7)
C20A C 0.9503(7) 0.4443(7) 0.4321(7)
C21A C 1.1228(9) 0.2556(13) 0.3717(12)
C22A C 1.2399(11) 0.1673(15) 0.3532(15)
C23A C 1.2966(12) 0.0523(19) 0.4578(19)
C24A C 1.2031(18) -0.0526(19) 0.5183(19)
C25A C 1.3505(12) 0.2380(18) 0.2964(16)
C26A C 1.3170(13) 0.3554(17) 0.1945(16)
C27A C 1.4315(17) 0.407(2) 0.129(2)
C28A C 1.397(2) 0.544(2) 0.025(2)
H1A H 1.7948 -0.4611 1.1768
H2A H 1.8984 -0.4585 1.0832
H3A H 1.9259 -0.4019 1.1733
H4A H 2.3585 -0.0711 0.8364
H5A H 2.2827 -0.1930 0.8606
H6A H 2.2925 -0.1373 0.9545
H7A H 1.5856 -0.2714 1.0893
H8A H 1.5568 -0.0354 0.9362
H9A H 1.9658 0.2448 0.6755
H10A H 2.2105 0.1615 0.7037
H11A H 1.7913 0.3267 0.7742
H12A H 1.5958 0.4853 0.6683
H13A H 0.9146 0.4050 0.3856
H14A H 1.0518 0.2077 0.4077
H15A H 1.0873 0.3249 0.2962
H16A H 1.2093 0.1285 0.3036
H17A H 1.3752 0.0040 0.4414
H18A H 1.3200 0.0848 0.5138
H19A H 1.2496 -0.1282 0.5919
H20A H 1.1807 -0.0994 0.4753
H21A H 1.1255 -0.0186 0.5476
H22A H 1.4141 0.1751 0.2797
H23A H 1.3891 0.2612 0.3523
H24A H 1.2644 0.3335 0.1460
H25A H 1.2689 0.4223 0.2151
H26A H 1.4773 0.3425 0.1053
H27A H 1.4889 0.4221 0.1811
H28A H 1.4754 0.5744 -0.0114
H29A H 1.3396 0.5319 -0.0252
H30A H 1.3513 0.6115 0.0506
loop_
_geom_bond_atom_site_label_1
_geom_bond_atom_site_label_2
_geom_bond_site_symmetry_1
_geom_bond_site_symmetry_2
F1 B1 1_555 1_555
F2 B1 1_555 1_555
S1 C12 1_555 1_555
O1 C19 1_555 1_555
N1 B1 1_555 1_555
N2 B1 1_555 1_555
C1 C3 1_555 1_555
C2 C11 1_555 1_555
C3 N1 1_555 1_555
C4 C3 1_555 1_555
C5 C4 1_555 1_555
C6 N1 1_555 1_555
C7 C6 1_555 1_555
C8 N2 1_555 1_555
C9 C8 1_555 1_555
C10 C9 1_555 1_555
C11 N2 1_555 1_555
C12 C7 1_555 1_555
C13 C12 1_555 1_555
C14 C13 1_555 1_555
C15 S1 1_555 1_555
C16 C15 1_555 1_555
C17 C16 1_555 1_555
C18 C17 1_555 1_555
C19 C18 1_555 1_555
C20 C19 1_555 1_555
C21 O1 1_555 1_555
C22 C21 1_555 1_555
C23 C22 1_555 1_555
C24 C23 1_555 1_555
C25 C22 1_555 1_555
C26 C25 1_555 1_555
C27 C26 1_555 1_555
C28 C27 1_555 1_555
H1 C1 1_555 1_555
H2 C1 1_555 1_555
H3 C1 1_555 1_555
H4 C2 1_555 1_555
H5 C2 1_555 1_555
H6 C2 1_555 1_555
H7 C4 1_555 1_555
H8 C5 1_555 1_555
H9 C9 1_555 1_555
H10 C10 1_555 1_555
H11 C13 1_555 1_555
H12 C14 1_555 1_555
H13 C20 1_555 1_555
H14 C21 1_555 1_555
H15 C21 1_555 1_555
H16 C22 1_555 1_555
H17 C23 1_555 1_555
H18 C23 1_555 1_555
H19 C24 1_555 1_555
H20 C24 1_555 1_555
H21 C24 1_555 1_555
H22 C25 1_555 1_555
H23 C25 1_555 1_555
H24 C26 1_555 1_555
H25 C26 1_555 1_555
H26 C27 1_555 1_555
H27 C27 1_555 1_555
H28 C28 1_555 1_555
H29 C28 1_555 1_555
H30 C28 1_555 1_555
F1A B1A 1_555 1_555
F2A B1A 1_555 1_555
S1A C12A 1_555 1_555
O1A C19A 1_555 1_555
N1A B1A 1_555 1_555
N2A B1A 1_555 1_555
C1A C3A 1_555 1_555
C2A C11A 1_555 1_555
C3A N1A 1_555 1_555
C4A C3A 1_555 1_555
C5A C4A 1_555 1_555
C6A N1A 1_555 1_555
C7A C6A 1_555 1_555
C8A N2A 1_555 1_555
C9A C8A 1_555 1_555
C10A C9A 1_555 1_555
C11A N2A 1_555 1_555
C12A C7A 1_555 1_555
C13A C12A 1_555 1_555
C14A C13A 1_555 1_555
C15A S1A 1_555 1_555
C16A C15A 1_555 1_555
C17A C16A 1_555 1_555
C18A C20 1_555 1_555
C19A C18A 1_555 1_555
C20A C18 1_555 1_555
C21A O1A 1_555 1_555
C22A C21A 1_555 1_555
C23A C22A 1_555 1_555
C24A C23A 1_555 1_555
C25A C22A 1_555 1_555
C26A C25A 1_555 1_555
C27A C26A 1_555 1_555
C28A C27A 1_555 1_555
H1A C1A 1_555 1_555
H2A C1A 1_555 1_555
H3A C1A 1_555 1_555
H4A C2A 1_555 1_555
H5A C2A 1_555 1_555
H6A C2A 1_555 1_555
H7A C4A 1_555 1_555
H8A C5A 1_555 1_555
H9A C9A 1_555 1_555
H10A C10A 1_555 1_555
H11A C13A 1_555 1_555
H12A C14A 1_555 1_555
H13A C20A 1_555 1_555
H14A C21A 1_555 1_555
H15A C21A 1_555 1_555
H16A C22A 1_555 1_555
H17A C23A 1_555 1_555
H18A C23A 1_555 1_555
H19A C24A 1_555 1_555
H20A C24A 1_555 1_555
H21A C24A 1_555 1_555
H22A C25A 1_555 1_555
H23A C25A 1_555 1_555
H24A C26A 1_555 1_555
H25A C26A 1_555 1_555
H26A C27A 1_555 1_555
H27A C27A 1_555 1_555
H28A C28A 1_555 1_555
H29A C28A 1_555 1_555
H30A C28A 1_555 1_555
C5 C6 1_555 1_555
C7 C8 1_555 1_555
C10 C11 1_555 1_555
C14 C15 1_555 1_555
C5A C6A 1_555 1_555
C7A C8A 1_555 1_555
C10A C11A 1_555 1_555
C14A C15A 1_555 1_555
C17A C18A 1_555 1_555
C19A C20A 1_555 1_555

#END
