
#######################################################################
#
#                 Cambridge Crystallographic Data Centre
#                                CCDC 
#
#######################################################################
#
# If this CIF has been generated from an entry in the Cambridge 
# Structural Database, then it will include bibliographic, chemical, 
# crystal, experimental, refinement or atomic coordinate data resulting 
# from the CCDC's data processing and validation procedures.
#
#######################################################################

data_JAYBER
_chemical_formula_moiety         'C7 H7 N1 O3,2(H2 O1)'
_chemical_name_systematic        '3-Hydroxypyridinium-1-acetate dihydrate'
_symmetry_cell_setting           triclinic
_symmetry_space_group_name_H-M   'P -1'
_symmetry_Int_Tables_number      2
_space_group_name_Hall           '-P 1'
loop_
_symmetry_equiv_pos_site_id
_symmetry_equiv_pos_as_xyz
1 x,y,z
2 -x,-y,-z
_cell_length_a                   6.9055(14)
_cell_length_b                   7.0086(14)
_cell_length_c                   10.074(2)
_cell_angle_alpha                71.62(3)
_cell_angle_beta                 76.09(3)
_cell_angle_gamma                71.93(3)
_cell_volume                     434.339
_exptl_crystal_colour            colorless
_exptl_crystal_description       prism
_cell_formula_units_Z            2
loop_
_atom_site_label
_atom_site_type_symbol
_atom_site_fract_x
_atom_site_fract_y
_atom_site_fract_z
O1 O 0.99046(19) 0.27444(19) 0.15643(16)
H1 H 0.904(3) 0.393(2) 0.131(3)
H2 H 1.105(2) 0.283(4) 0.099(2)
O2 O 0.7696(2) 0.9840(2) 0.23527(14)
H3 H 0.839(3) 1.076(3) 0.208(3)
H4 H 0.664(3) 1.031(4) 0.193(3)
O3 O 0.43843(18) 0.19172(18) 1.08790(11)
O4 O 0.33578(18) 0.3908(2) 0.88503(15)
O5 O 0.7123(2) 0.82908(16) 0.50564(12)
H5 H 0.729(4) 0.878(3) 0.4151(11)
N1 N 0.71951(16) 0.32632(17) 0.73416(11)
C1 C 0.4677(2) 0.2776(2) 0.95851(15)
C2 C 0.6930(2) 0.2334(2) 0.88853(14)
H6 H 0.7697 0.2877 0.9307
H7 H 0.7504 0.0842 0.9070
C3 C 0.7063(2) 0.5302(2) 0.68688(14)
H8 H 0.6834 0.6082 0.7512
C4 C 0.7265(2) 0.6261(2) 0.54320(14)
C5 C 0.7591(2) 0.5069(2) 0.44944(14)
H9 H 0.7739 0.5670 0.3523
C6 C 0.7693(2) 0.2981(2) 0.50249(16)
H10 H 0.7904 0.2169 0.4404
C7 C 0.7486(2) 0.2082(2) 0.64544(15)
H11 H 0.7546 0.0672 0.6806
loop_
_geom_bond_atom_site_label_1
_geom_bond_atom_site_label_2
_geom_bond_site_symmetry_1
_geom_bond_site_symmetry_2
O1 H1 1_555 1_555
H2 O1 1_555 1_555
O2 H3 1_555 1_555
H4 O2 1_555 1_555
O3 C1 1_555 1_555
O4 C1 1_555 1_555
O5 H5 1_555 1_555
N1 C2 1_555 1_555
C1 C2 1_555 1_555
C2 H6 1_555 1_555
H7 C2 1_555 1_555
C3 N1 1_555 1_555
H8 C3 1_555 1_555
C4 O5 1_555 1_555
C5 C4 1_555 1_555
H9 C5 1_555 1_555
C6 C5 1_555 1_555
H10 C6 1_555 1_555
C7 N1 1_555 1_555
H11 C7 1_555 1_555
C3 C4 1_555 1_555
C6 C7 1_555 1_555

#END
