
#######################################################################
#
#                 Cambridge Crystallographic Data Centre
#                                CCDC 
#
#######################################################################
#
# If this CIF has been generated from an entry in the Cambridge 
# Structural Database, then it will include bibliographic, chemical, 
# crystal, experimental, refinement or atomic coordinate data resulting 
# from the CCDC's data processing and validation procedures.
#
#######################################################################

data_JAYBOD
_chemical_formula_moiety         'C26 H16 N4 O4,2(H2 O1)'
_chemical_name_systematic        
'2,7-bis(pyridin-4-ylmethyl)benzo[lmn][3,8]phenanthroline-1,3,6,8(2H,7H)-tetrone dihydrate'
_symmetry_cell_setting           monoclinic
_symmetry_space_group_name_H-M   'C 2/c'
_symmetry_Int_Tables_number      15
_space_group_name_Hall           '-C 2yn'
loop_
_symmetry_equiv_pos_site_id
_symmetry_equiv_pos_as_xyz
1 x,y,z
2 -x,y,1/2-z
3 1/2+x,1/2+y,z
4 1/2-x,1/2+y,1/2-z
5 -x,-y,-z
6 x,-y,1/2+z
7 1/2-x,1/2-y,-z
8 1/2+x,1/2-y,1/2+z
_cell_length_a                   27.561(3)
_cell_length_b                   4.6812(2)
_cell_length_c                   21.646(4)
_cell_angle_alpha                90
_cell_angle_beta                 128.914(17)
_cell_angle_gamma                90
_cell_volume                     2173
_exptl_crystal_colour            orange
_exptl_crystal_description       block
_cell_formula_units_Z            4
loop_
_atom_site_label
_atom_site_type_symbol
_atom_site_fract_x
_atom_site_fract_y
_atom_site_fract_z
O1 O 0.17330(5) 0.4718(2) 0.04889(6)
O2 O 0.01859(5) 1.0760(3) -0.13255(7)
N1 N 0.09631(5) 0.7783(3) -0.04017(7)
C1 C 0.01910(7) 0.5546(3) -0.00865(8)
C2 C 0.08085(7) 0.4519(3) 0.03510(8)
C3 C -0.00501(7) 0.7629(3) -0.06846(8)
C4 C 0.12116(7) 0.5623(3) 0.01687(9)
C5 C 0.13812(7) 0.9068(3) -0.05312(10)
H1 H 0.1797 0.9204 -0.0024
H2 H 0.1239 1.0995 -0.0730
C6 C -0.06552(7) 0.8576(3) -0.11042(9)
H3 H -0.0811 0.9943 -0.1500
C7 C 0.03579(7) 0.8868(3) -0.08439(9)
C8 C 0.10374(7) 0.2508(3) 0.09387(8)
H4 H 0.1446 0.1867 0.1227
C9 C 0.19231(7) 0.7959(4) -0.10869(10)
H5 H 0.2231 0.9254 -0.0727
N2 N 0.15410(6) 0.4633(3) -0.21412(8)
C10 C 0.14207(7) 0.7454(3) -0.11007(9)
C11 C 0.09735(7) 0.5556(3) -0.16609(9)
H6 H 0.0622 0.5189 -0.1703
C12 C 0.10534(8) 0.4202(4) -0.21604(10)
H7 H 0.0749 0.2916 -0.2531
C13 C 0.19629(7) 0.6531(4) -0.16093(10)
H8 H 0.2303 0.6909 -0.1591
O1D O -0.17330(5) 0.5282(2) -0.04889(6)
O2D O -0.01859(5) -0.0760(3) 0.13255(7)
N1D N -0.09631(5) 0.2217(3) 0.04017(7)
C1D C -0.01910(7) 0.4454(3) 0.00865(8)
C2D C -0.08085(7) 0.5481(3) -0.03510(8)
C3D C 0.00501(7) 0.2371(3) 0.06846(8)
C4D C -0.12116(7) 0.4377(3) -0.01687(9)
C5D C -0.13812(7) 0.0932(3) 0.05312(10)
H1D H -0.1797 0.0796 0.0024
H2D H -0.1239 -0.0995 0.0730
C6D C 0.06552(7) 0.1424(3) 0.11042(9)
H3D H 0.0811 0.0057 0.1500
C7D C -0.03579(7) 0.1132(3) 0.08439(9)
C8D C -0.10374(7) 0.7492(3) -0.09387(8)
H4D H -0.1446 0.8133 -0.1227
C9D C -0.19231(7) 0.2041(4) 0.10869(10)
H5D H -0.2231 0.0746 0.0727
N2D N -0.15410(6) 0.5367(3) 0.21412(8)
C10D C -0.14207(7) 0.2546(3) 0.11007(9)
C11D C -0.09735(7) 0.4444(3) 0.16609(9)
H6D H -0.0622 0.4811 0.1703
C12D C -0.10534(8) 0.5798(4) 0.21604(10)
H7D H -0.0749 0.7084 0.2531
C13D C -0.19629(7) 0.3469(4) 0.16093(10)
H8D H -0.2303 0.3091 0.1591
O3 O 0.21293(6) 0.2371(3) -0.27702(8)
H9 H 0.1915(12) 0.282(6) -0.2563(15)
H10 H 0.2415(15) 0.061(7) -0.2435(19)
loop_
_geom_bond_atom_site_label_1
_geom_bond_atom_site_label_2
_geom_bond_site_symmetry_1
_geom_bond_site_symmetry_2
O1 C4 1_555 1_555
O2 C7 1_555 1_555
N1 C4 1_555 1_555
C1 C2 1_555 1_555
C2 C4 1_555 1_555
C3 C1 1_555 1_555
C5 N1 1_555 1_555
H1 C5 1_555 1_555
H2 C5 1_555 1_555
C6 C3 1_555 1_555
H3 C6 1_555 1_555
C7 N1 1_555 1_555
C8 C2 1_555 1_555
H4 C8 1_555 1_555
C9 H5 1_555 1_555
N2 C12 1_555 1_555
C10 C5 1_555 1_555
C11 C10 1_555 1_555
H6 C11 1_555 1_555
C12 C11 1_555 1_555
H7 C12 1_555 1_555
C13 C9 1_555 1_555
H8 C13 1_555 1_555
O3 H9 1_555 1_555
H10 O3 1_555 1_555
O1D C4D 1_555 1_555
O2D C7D 1_555 1_555
N1D C4D 1_555 1_555
C1D C1 1_555 1_555
C2D C1D 1_555 1_555
C3D C1D 1_555 1_555
C4D C2D 1_555 1_555
C5D N1D 1_555 1_555
H1D C5D 1_555 1_555
H2D C5D 1_555 1_555
C6D C8 1_555 1_555
H3D C6D 1_555 1_555
C7D N1D 1_555 1_555
C8D C6 1_555 1_555
H4D C8D 1_555 1_555
C9D H5D 1_555 1_555
N2D C12D 1_555 1_555
C10D C5D 1_555 1_555
C11D C10D 1_555 1_555
H6D C11D 1_555 1_555
C12D C11D 1_555 1_555
H7D C12D 1_555 1_555
C13D C9D 1_555 1_555
H8D C13D 1_555 1_555
C3 C7 1_555 1_555
C9 C10 1_555 1_555
N2 C13 1_555 1_555
C2D C8D 1_555 1_555
C3D C6D 1_555 1_555
C3D C7D 1_555 1_555
C9D C10D 1_555 1_555
N2D C13D 1_555 1_555

#END
