
#######################################################################
#
#                 Cambridge Crystallographic Data Centre
#                                CCDC 
#
#######################################################################
#
# If this CIF has been generated from an entry in the Cambridge 
# Structural Database, then it will include bibliographic, chemical, 
# crystal, experimental, refinement or atomic coordinate data resulting 
# from the CCDC's data processing and validation procedures.
#
#######################################################################

data_JAYCIW
_chemical_formula_moiety         'C19 H24 O4'
_chemical_name_systematic        
(4aS,10aR)-1,2,3,4,4a,10a-hexahydro-6,7-dimethoxy-1,1,4a-trimethylphenanthrene-9,10-dione
_chemical_properties_biological  
'active against HeLa, CNE and MCF human cancer cell lines'
_symmetry_cell_setting           monoclinic
_symmetry_space_group_name_H-M   'P 21/n'
_symmetry_Int_Tables_number      14
_space_group_name_Hall           '-P 2yn'
loop_
_symmetry_equiv_pos_site_id
_symmetry_equiv_pos_as_xyz
1 x,y,z
2 1/2-x,1/2+y,1/2-z
3 -x,-y,-z
4 1/2+x,1/2-y,1/2+z
_cell_length_a                   7.7629(7)
_cell_length_b                   14.0592(12)
_cell_length_c                   15.0990(13)
_cell_angle_alpha                90
_cell_angle_beta                 93.955(2)
_cell_angle_gamma                90
_cell_volume                     1643.98
_exptl_crystal_colour            colorless
_exptl_crystal_description       block
_cell_formula_units_Z            4
_exptl_crystal_recrystallization_method ethanol
loop_
_atom_site_label
_atom_site_type_symbol
_atom_site_fract_x
_atom_site_fract_y
_atom_site_fract_z
O1 O 0.1734(3) 0.60765(14) 0.49383(13)
O2 O 0.3092(3) 0.44016(15) 0.49060(13)
O3 O 0.2129(4) 0.29682(17) 0.79487(16)
O4 O 0.0543(3) 0.36088(17) 0.93672(15)
C1 C 0.1680(3) 0.5574(2) 0.56996(18)
C2 C 0.2403(3) 0.4655(2) 0.56770(18)
C3 C 0.2354(3) 0.4090(2) 0.64139(18)
H1 H 0.2838 0.3484 0.6411
C4 C 0.1585(3) 0.44106(19) 0.71730(17)
C5 C 0.0910(3) 0.53309(19) 0.72090(18)
C6 C 0.0992(3) 0.59027(19) 0.64609(18)
H2 H 0.0572 0.6522 0.6474
C7 C 0.1468(4) 0.3748(2) 0.79117(19)
C8 C 0.0404(4) 0.4062(2) 0.86894(18)
C9 C -0.0732(3) 0.49208(19) 0.85538(17)
H3 H -0.0904 0.5168 0.9148
C10 C 0.0240(3) 0.57145(19) 0.80713(17)
C11 C -0.0970(4) 0.6570(2) 0.79435(19)
H4 H -0.1160 0.6839 0.8520
H5 H -0.0412 0.7052 0.7603
C12 C -0.2701(4) 0.6325(2) 0.7473(2)
H6 H -0.2532 0.6086 0.6883
H7 H -0.3411 0.6892 0.7414
C13 C -0.3604(4) 0.5578(2) 0.7999(2)
H8 H -0.4713 0.5434 0.7693
H9 H -0.3821 0.5839 0.8576
C14 C -0.2578(3) 0.4653(2) 0.81340(19)
C15 C 0.1823(4) 0.6023(2) 0.8674(2)
H10 H 0.2572 0.5486 0.8788
H11 H 0.1449 0.6260 0.9225
H12 H 0.2435 0.6514 0.8385
C16 C 0.1123(5) 0.7031(2) 0.4929(2)
H13 H -0.0066 0.7039 0.5066
H14 H 0.1227 0.7302 0.4352
H15 H 0.1797 0.7397 0.5364
C17 C 0.4093(4) 0.3554(2) 0.4921(2)
H16 H 0.4968 0.3584 0.5402
H17 H 0.4627 0.3490 0.4370
H18 H 0.3358 0.3017 0.5003
C18 C -0.2565(4) 0.4127(2) 0.7244(2)
H19 H -0.1892 0.3557 0.7321
H20 H -0.2070 0.4529 0.6815
H21 H -0.3727 0.3966 0.7039
C19 C -0.3475(4) 0.4017(3) 0.8787(2)
H22 H -0.4627 0.3876 0.8551
H23 H -0.3522 0.4341 0.9345
H24 H -0.2839 0.3435 0.8875
loop_
_geom_bond_atom_site_label_1
_geom_bond_atom_site_label_2
_geom_bond_site_symmetry_1
_geom_bond_site_symmetry_2
O1 C1 1_555 1_555
O2 C2 1_555 1_555
O3 C7 1_555 1_555
O4 C8 1_555 1_555
C1 C2 1_555 1_555
C2 C3 1_555 1_555
C3 H1 1_555 1_555
C4 C3 1_555 1_555
C5 C4 1_555 1_555
C6 C1 1_555 1_555
H2 C6 1_555 1_555
C7 C4 1_555 1_555
C8 C7 1_555 1_555
C9 C8 1_555 1_555
H3 C9 1_555 1_555
C10 C5 1_555 1_555
C11 C10 1_555 1_555
H4 C11 1_555 1_555
H5 C11 1_555 1_555
C12 C11 1_555 1_555
H6 C12 1_555 1_555
H7 C12 1_555 1_555
C13 C12 1_555 1_555
H8 C13 1_555 1_555
H9 C13 1_555 1_555
C14 C9 1_555 1_555
C15 C10 1_555 1_555
H10 C15 1_555 1_555
H11 C15 1_555 1_555
H12 C15 1_555 1_555
C16 O1 1_555 1_555
H13 C16 1_555 1_555
H14 C16 1_555 1_555
H15 C16 1_555 1_555
C17 O2 1_555 1_555
H16 C17 1_555 1_555
H17 C17 1_555 1_555
H18 C17 1_555 1_555
C18 C14 1_555 1_555
H19 C18 1_555 1_555
H20 C18 1_555 1_555
H21 C18 1_555 1_555
C19 C14 1_555 1_555
H22 C19 1_555 1_555
H23 C19 1_555 1_555
H24 C19 1_555 1_555
C5 C6 1_555 1_555
C9 C10 1_555 1_555
C13 C14 1_555 1_555

#END
