
#######################################################################
#
#                 Cambridge Crystallographic Data Centre
#                                CCDC 
#
#######################################################################
#
# If this CIF has been generated from an entry in the Cambridge 
# Structural Database, then it will include bibliographic, chemical, 
# crystal, experimental, refinement or atomic coordinate data resulting 
# from the CCDC's data processing and validation procedures.
#
#######################################################################

data_JAYFUL
_chemical_formula_moiety         'C14 H20 O9'
_chemical_name_systematic        1,2,3,4-Tetra-O-acetyl-\a-L-fucopyranose
_symmetry_cell_setting           orthorhombic
_symmetry_space_group_name_H-M   'P 21 21 21'
_symmetry_Int_Tables_number      19
_space_group_name_Hall           'P 2ac 2ab'
loop_
_symmetry_equiv_pos_site_id
_symmetry_equiv_pos_as_xyz
1 x,y,z
2 1/2-x,-y,1/2+z
3 -x,1/2+y,1/2-z
4 1/2+x,1/2-y,-z
_cell_length_a                   9.9942(9)
_cell_length_b                   10.3822(9)
_cell_length_c                   15.8183(14)
_cell_angle_alpha                90
_cell_angle_beta                 90
_cell_angle_gamma                90
_cell_volume                     1641.34
_exptl_crystal_colour            colorless
_exptl_crystal_description       block
_cell_formula_units_Z            4
_exptl_crystal_recrystallization_method 'hexanes/ethyl acetate'
loop_
_atom_site_label
_atom_site_type_symbol
_atom_site_fract_x
_atom_site_fract_y
_atom_site_fract_z
C1 C 0.17294(15) 0.66947(15) 0.97730(9)
H1 H 0.0800 0.7052 0.9758
C2 C 0.21222(15) 0.62356(15) 0.88877(9)
H2 H 0.1472 0.5567 0.8692
C3 C 0.35172(15) 0.56694(15) 0.88988(9)
H3 H 0.4197 0.6352 0.9018
C4 C 0.35775(15) 0.46031(15) 0.95696(9)
H4 H 0.4514 0.4272 0.9620
C5 C 0.30974(16) 0.50950(16) 1.04212(10)
H5 H 0.3746 0.5753 1.0633
C6 C 0.29645(18) 0.40358(19) 1.10764(11)
H6 H 0.2271 0.3426 1.0898
H7 H 0.2716 0.4414 1.1622
H8 H 0.3820 0.3583 1.1133
C7 C 0.22285(16) 0.89296(15) 0.99816(10)
C8 C 0.32526(17) 0.98311(17) 1.03392(11)
H9 H 0.2841 1.0673 1.0442
H10 H 0.3992 0.9927 0.9937
H11 H 0.3595 0.9483 1.0873
C9 C 0.08882(16) 0.76075(16) 0.79842(9)
C10 C 0.09537(18) 0.87795(17) 0.74315(11)
H12 H 0.0697 0.9541 0.7760
H13 H 0.0339 0.8676 0.6954
H14 H 0.1868 0.8888 0.7219
C11 C 0.50286(16) 0.49256(17) 0.78417(10)
C12 C 0.50903(19) 0.4197(2) 0.70261(10)
H15 H 0.6002 0.3878 0.6937
H16 H 0.4840 0.4768 0.6559
H17 H 0.4469 0.3467 0.7048
C13 C 0.32845(18) 0.25778(16) 0.88810(11)
C14 C 0.2233(2) 0.17244(18) 0.84987(13)
H18 H 0.2625 0.0884 0.8364
H19 H 0.1889 0.2122 0.7981
H20 H 0.1499 0.1610 0.8902
O1 O 0.17862(11) 0.56854(12) 1.03490(7)
O2 O 0.26520(11) 0.76922(11) 1.00384(7)
O3 O 0.11796(12) 0.92343(12) 0.96659(8)
O4 O 0.21064(11) 0.73068(10) 0.83086(7)
O5 O -0.01063(13) 0.70045(14) 0.81378(8)
O6 O 0.37317(11) 0.51141(12) 0.80761(7)
O7 O 0.59603(12) 0.53089(15) 0.82460(7)
O8 O 0.26984(11) 0.35784(11) 0.92937(7)
O9 O 0.44668(13) 0.24212(13) 0.88277(9)
loop_
_geom_bond_atom_site_label_1
_geom_bond_atom_site_label_2
_geom_bond_site_symmetry_1
_geom_bond_site_symmetry_2
C1 H1 1_555 1_555
C2 C1 1_555 1_555
H2 C2 1_555 1_555
C3 C2 1_555 1_555
H3 C3 1_555 1_555
C4 C3 1_555 1_555
H4 C4 1_555 1_555
C5 C4 1_555 1_555
H5 C5 1_555 1_555
C6 C5 1_555 1_555
H6 C6 1_555 1_555
H7 C6 1_555 1_555
H8 C6 1_555 1_555
C7 C8 1_555 1_555
C8 H9 1_555 1_555
H10 C8 1_555 1_555
H11 C8 1_555 1_555
C9 C10 1_555 1_555
C10 H12 1_555 1_555
H13 C10 1_555 1_555
H14 C10 1_555 1_555
C11 C12 1_555 1_555
C12 H15 1_555 1_555
H16 C12 1_555 1_555
H17 C12 1_555 1_555
C13 C14 1_555 1_555
C14 H18 1_555 1_555
H19 C14 1_555 1_555
H20 C14 1_555 1_555
O1 C1 1_555 1_555
O2 C1 1_555 1_555
O3 C7 1_555 1_555
O4 C2 1_555 1_555
O5 C9 1_555 1_555
O6 C3 1_555 1_555
O7 C11 1_555 1_555
O8 C4 1_555 1_555
O9 C13 1_555 1_555
C5 O1 1_555 1_555
C7 O2 1_555 1_555
C9 O4 1_555 1_555
C11 O6 1_555 1_555
C13 O8 1_555 1_555

#END
