
#######################################################################
#
#                 Cambridge Crystallographic Data Centre
#                                CCDC 
#
#######################################################################
#
# If this CIF has been generated from an entry in the Cambridge 
# Structural Database, then it will include bibliographic, chemical, 
# crystal, experimental, refinement or atomic coordinate data resulting 
# from the CCDC's data processing and validation procedures.
#
#######################################################################

data_JAYLAX
_chemical_formula_moiety         'C14 H13 N3 O3'
_chemical_name_systematic        
'2-Hydroxy-3-methoxybenzaldehyde (pyridine-2-carbonyl)hydrazone'
_symmetry_cell_setting           monoclinic
_symmetry_space_group_name_H-M   'P 21/c'
_symmetry_Int_Tables_number      14
_space_group_name_Hall           '-P 2ybc'
loop_
_symmetry_equiv_pos_site_id
_symmetry_equiv_pos_as_xyz
1 x,y,z
2 -x,1/2+y,1/2-z
3 -x,-y,-z
4 x,1/2-y,1/2+z
_cell_length_a                   16.534(5)
_cell_length_b                   7.538(2)
_cell_length_c                   11.228(3)
_cell_angle_alpha                90
_cell_angle_beta                 108.554(5)
_cell_angle_gamma                90
_cell_volume                     1326.65
_exptl_crystal_colour            yellow
_exptl_crystal_description       block
_chemical_melting_point          '448-450 K'
_cell_formula_units_Z            4
_exptl_crystal_recrystallization_method methanol/DMF
loop_
_atom_site_label
_atom_site_type_symbol
_atom_site_fract_x
_atom_site_fract_y
_atom_site_fract_z
N1 N 0.08494(12) 0.2922(3) 0.0425(2)
N2 N 0.16853(11) 0.3484(3) 0.0764(2)
N3 N -0.07752(11) 0.2193(3) -0.00313(18)
O1 O 0.07793(11) 0.2321(3) -0.15842(18)
O2 O 0.31227(11) 0.4202(3) 0.03536(16)
O3 O 0.46664(10) 0.5484(2) 0.11839(17)
C1 C 0.04442(15) 0.2396(3) -0.0761(3)
C2 C -0.04700(14) 0.1916(3) -0.0984(2)
C3 C -0.09546(19) 0.1238(4) -0.2120(3)
C4 C -0.1796(2) 0.0824(4) -0.2281(3)
C5 C -0.21181(18) 0.1107(4) -0.1332(3)
C6 C -0.15918(15) 0.1779(4) -0.0232(3)
C7 C 0.20228(16) 0.3997(4) 0.1902(3)
C8 C 0.28863(14) 0.4682(3) 0.2333(2)
C9 C 0.33864(14) 0.4792(3) 0.1554(2)
C10 C 0.42132(15) 0.5505(3) 0.2016(2)
C11 C 0.4509(2) 0.6150(4) 0.3212(3)
C12 C 0.4009(2) 0.6046(4) 0.3988(3)
C13 C 0.3216(2) 0.5297(4) 0.3569(3)
C14 C 0.55417(19) 0.5964(6) 0.1638(4)
H1 H 0.0611(16) 0.291(4) 0.099(3)
H2 H -0.0698(16) 0.103(4) -0.278(3)
H3 H -0.2128(19) 0.035(4) -0.302(3)
H4 H -0.2695(17) 0.082(3) -0.140(2)
H5 H -0.1784(15) 0.196(3) 0.054(2)
H6 H 0.1708(16) 0.395(4) 0.253(3)
H7 H 0.2587(13) 0.383(4) 0.020(3)
H8 H 0.5065(18) 0.669(4) 0.350(3)
H9 H 0.4172(18) 0.650(4) 0.478(3)
H10 H 0.2847(15) 0.514(3) 0.409(2)
H11 H 0.5765(19) 0.567(4) 0.093(3)
H12 H 0.583(2) 0.532(4) 0.244(3)
H13 H 0.5596(19) 0.715(5) 0.192(3)
loop_
_geom_bond_atom_site_label_1
_geom_bond_atom_site_label_2
_geom_bond_site_symmetry_1
_geom_bond_site_symmetry_2
N1 N2 1_555 1_555
N2 C7 1_555 1_555
N3 C2 1_555 1_555
O1 C1 1_555 1_555
O2 C9 1_555 1_555
O3 C10 1_555 1_555
C1 N1 1_555 1_555
C2 C1 1_555 1_555
C3 C2 1_555 1_555
C4 C3 1_555 1_555
C5 C4 1_555 1_555
C6 N3 1_555 1_555
C7 C8 1_555 1_555
C8 C9 1_555 1_555
C9 C10 1_555 1_555
C10 C11 1_555 1_555
C11 C12 1_555 1_555
C12 C13 1_555 1_555
C13 C8 1_555 1_555
C14 O3 1_555 1_555
H1 N1 1_555 1_555
H2 C3 1_555 1_555
H3 C4 1_555 1_555
H4 C5 1_555 1_555
H5 C6 1_555 1_555
H6 C7 1_555 1_555
H7 O2 1_555 1_555
H8 C11 1_555 1_555
H9 C12 1_555 1_555
H10 C13 1_555 1_555
H11 C14 1_555 1_555
H12 C14 1_555 1_555
H13 C14 1_555 1_555
C5 C6 1_555 1_555

#END
