
#######################################################################
#
#                 Cambridge Crystallographic Data Centre
#                                CCDC 
#
#######################################################################
#
# If this CIF has been generated from an entry in the Cambridge 
# Structural Database, then it will include bibliographic, chemical, 
# crystal, experimental, refinement or atomic coordinate data resulting 
# from the CCDC's data processing and validation procedures.
#
#######################################################################

data_JAYLUT
_chemical_formula_moiety         'C60 H48 Si1,C1 H2 Cl2'
_chemical_name_systematic        
'1,2,3,4-tetrakis(4-methylphenyl)-6,7,8,9-tetraphenyl-5-silaspiro[4.4]nona-1,3,6,8-tetraene dichloromethane solvate'
_symmetry_cell_setting           monoclinic
_symmetry_space_group_name_H-M   'P 21/c'
_symmetry_Int_Tables_number      14
_space_group_name_Hall           '-P 2ybc'
loop_
_symmetry_equiv_pos_site_id
_symmetry_equiv_pos_as_xyz
1 x,y,z
2 -x,1/2+y,1/2-z
3 -x,-y,-z
4 x,1/2-y,1/2+z
_cell_length_a                   14.0503(15)
_cell_length_b                   14.8155(17)
_cell_length_c                   24.010(3)
_cell_angle_alpha                90
_cell_angle_beta                 99.126(2)
_cell_angle_gamma                90
_cell_volume                     4934.71
_exptl_crystal_colour            colorless
_exptl_crystal_description       Prism
_cell_formula_units_Z            4
_exptl_crystal_preparation       Fiber
loop_
_atom_site_label
_atom_site_type_symbol
_atom_site_fract_x
_atom_site_fract_y
_atom_site_fract_z
Si1 Si 0.32512(4) 0.77229(4) 0.08415(3)
C1 C 0.27600(16) 0.65789(15) 0.06580(11)
C2 C 0.44536(14) 0.72819(13) 0.11691(9)
C3 C 0.18137(17) 0.63978(18) 0.03025(13)
C4 C 0.1025(2) 0.6929(3) 0.03702(15)
H1 H 0.1091 0.7390 0.0649
C5 C 0.0127(3) 0.6785(4) 0.0025(2)
H2 H -0.0416 0.7134 0.0084
C6 C 0.0033(3) 0.6149(4) -0.0391(2)
H3 H -0.0573 0.6062 -0.0624
C7 C 0.0807(3) 0.5635(3) -0.0474(2)
H4 H 0.0740 0.5200 -0.0768
C8 C 0.1693(2) 0.5749(2) -0.01289(17)
H5 H 0.2224 0.5382 -0.0186
C9 C 0.3237(2) 0.50127(15) 0.09215(16)
C10 C 0.2506(2) 0.4680(2) 0.11916(15)
H6 H 0.2134 0.5082 0.1378
C11 C 0.2318(3) 0.3758(2) 0.11890(18)
H7 H 0.1818 0.3531 0.1374
C12 C 0.2863(3) 0.31699(15) 0.0916(2)
H8 H 0.2735 0.2540 0.0914
C13 C 0.3594(3) 0.3503(2) 0.0646(2)
H9 H 0.3966 0.3101 0.0460
C14 C 0.3781(2) 0.4424(2) 0.06487(17)
H10 H 0.4281 0.4652 0.0464
C15 C 0.34637(18) 0.59786(15) 0.08443(14)
C16 C 0.5127(3) 0.5735(3) 0.1476(2)
C17 C 0.4942(4) 0.5142(3) 0.1905(2)
H11 H 0.4325 0.5142 0.2020
C18 C 0.5642(3) 0.4566(3) 0.2159(2)
H12 H 0.5512 0.4175 0.2451
C19 C 0.6542(4) 0.4553(3) 0.1987(3)
H13 H 0.7019 0.4139 0.2155
C20 C 0.6745(4) 0.5127(4) 0.1581(3)
H14 H 0.7365 0.5118 0.1471
C21 C 0.6041(3) 0.5733(4) 0.1323(2)
H15 H 0.6189 0.6142 0.1044
C22 C 0.43984(15) 0.63711(14) 0.11443(12)
C23 C 0.52598(15) 0.78217(13) 0.14682(9)
C24 C 0.56524(16) 0.76485(15) 0.20277(10)
H16 H 0.5429 0.7145 0.2215
C25 C 0.63605(17) 0.81949(17) 0.23160(10)
H17 H 0.6608 0.8073 0.2700
C26 C 0.6710(2) 0.89170(17) 0.20477(12)
H18 H 0.7189 0.9300 0.2247
C27 C 0.6360(2) 0.9078(2) 0.14894(13)
H19 H 0.6624 0.9555 0.1298
C28 C 0.5627(2) 0.85502(18) 0.12033(11)
H20 H 0.5371 0.8687 0.0822
C29 C 0.31877(16) 0.85567(14) 0.02601(10)
C30 C 0.26826(18) 0.92776(15) 0.04003(11)
C31 C 0.23973(18) 0.92586(15) 0.09831(11)
C32 C 0.25849(17) 0.84726(15) 0.12741(10)
C33 C 0.36527(16) 0.84489(14) -0.02450(9)
C34 C 0.36386(16) 0.76271(15) -0.05211(9)
H21 H 0.3300 0.7134 -0.0392
C35 C 0.41093(17) 0.75097(16) -0.09821(10)
H22 H 0.4070 0.6944 -0.1170
C36 C 0.46326(17) 0.82006(16) -0.11722(10)
C37 C 0.4673(2) 0.90145(17) -0.08876(14)
H23 H 0.5043 0.9495 -0.1005
C38 C 0.4187(2) 0.91441(16) -0.04354(13)
H24 H 0.4219 0.9714 -0.0252
C39 C 0.5143(2) 0.8075(2) -0.16750(12)
H25 H 0.5026 0.7463 -0.1824
H26 H 0.5837 0.8167 -0.1559
H27 H 0.4897 0.8515 -0.1968
C40 C 0.2345(2) 1.00170(16) -0.00094(12)
C41 C 0.1693(2) 0.9795(2) -0.04909(13)
H28 H 0.1484 0.9188 -0.0549
C42 C 0.1344(3) 1.0449(2) -0.08881(15)
H29 H 0.0898 1.0283 -0.1212
C43 C 0.1640(3) 1.1337(2) -0.08165(16)
C44 C 0.2276(4) 1.1551(2) -0.03392(16)
H30 H 0.2482 1.2160 -0.0283
C45 C 0.2632(3) 1.09075(17) 0.00664(13)
H31 H 0.3068 1.1081 0.0392
C46 C 0.1274(4) 1.2048(3) -0.12553(18)
H32 H 0.0719 1.2359 -0.1144
H33 H 0.1081 1.1757 -0.1622
H34 H 0.1788 1.2486 -0.1282
C47 C 0.2120(6) 1.0132(4) 0.1289(3)
C48 C 0.1298(6) 1.0577(4) 0.1027(3)
H35 H 0.0972 1.0371 0.0673
C49 C 0.0952(4) 1.1322(4) 0.1284(4)
H36 H 0.0390 1.1626 0.1105
C50 C 0.1428(3) 1.1624(3) 0.1803(4)
C51 C 0.2250(3) 1.1179(3) 0.2064(4)
H37 H 0.2576 1.1385 0.2418
C52 C 0.2596(4) 1.0434(3) 0.1807(4)
H38 H 0.3158 1.0130 0.1986
C53 C 0.1044(4) 1.2433(5) 0.2097(5)
H39 H 0.0641 1.2218 0.2368
H40 H 0.0658 1.2818 0.1816
H41 H 0.1587 1.2781 0.2297
C54 C 0.23016(16) 0.81994(14) 0.18171(10)
C55 C 0.14970(16) 0.85436(14) 0.20222(9)
H42 H 0.1117 0.9000 0.1816
C56 C 0.12476(15) 0.82256(15) 0.25238(9)
H43 H 0.0701 0.8473 0.2656
C57 C 0.17784(16) 0.75533(16) 0.28381(9)
C58 C 0.25661(17) 0.72032(16) 0.26321(10)
H44 H 0.2940 0.6742 0.2837
C59 C 0.28179(18) 0.75143(16) 0.21322(11)
H45 H 0.3358 0.7255 0.1999
C60 C 0.15026(19) 0.7199(2) 0.33838(10)
H46 H 0.0947 0.6794 0.3298
H47 H 0.1335 0.7706 0.3612
H48 H 0.2048 0.6867 0.3594
C80 C 0.0425(5) 0.5934(6) 0.1907(4)
H66 H 0.0778 0.6503 0.2013
H67 H 0.0349 0.5865 0.1492
Cl1 Cl 0.1058(2) 0.5024(2) 0.2237(3)
Cl2 Cl -0.0692(4) 0.5965(3) 0.2121(2)
C61? C 0.3542(2) 0.49647(15) 0.06135(16)
C62? C 0.2916(2) 0.4359(2) 0.08088(17)
H49? H 0.2456 0.4569 0.1029
C63? C 0.2961(3) 0.3446(2) 0.0681(2)
H50? H 0.2533 0.3032 0.0815
C64? C 0.3634(3) 0.31394(15) 0.0359(2)
H51? H 0.3665 0.2516 0.0272
C65? C 0.4261(3) 0.3745(2) 0.01633(17)
H52? H 0.4720 0.3536 -0.0057
C66? C 0.4215(2) 0.46579(19) 0.02908(15)
H53? H 0.4643 0.5072 0.0157
C67? C 0.5297(3) 0.5802(4) 0.1259(3)
C68? C 0.5227(4) 0.5123(4) 0.1650(2)
H54? H 0.4635 0.5023 0.1784
C69? C 0.6024(5) 0.4589(3) 0.1845(3)
H55? H 0.5977 0.4125 0.2113
C70? C 0.6891(4) 0.4735(4) 0.1650(3)
H56? H 0.7436 0.4370 0.1783
C71? C 0.6961(3) 0.5414(4) 0.1259(3)
H57? H 0.7553 0.5514 0.1125
C72? C 0.6163(4) 0.5947(4) 0.1063(3)
H58? H 0.6211 0.6412 0.0796
C73? C 0.1903(6) 1.0069(4) 0.1141(4)
C74? C 0.1083(6) 1.0516(5) 0.0879(4)
H59? H 0.0699 1.0258 0.0557
C75? C 0.0824(4) 1.1340(5) 0.1088(4)
H60? H 0.0263 1.1645 0.0908
C76? C 0.1385(4) 1.1717(3) 0.1559(5)
C77? C 0.2205(4) 1.1271(4) 0.1822(5)
H61? H 0.2588 1.1529 0.2144
C78? C 0.2464(4) 1.0447(4) 0.1613(4)
H62? H 0.3024 1.0142 0.1792
C79? C 0.1130(5) 1.2641(5) 0.1774(6)
H63? H 0.0619 1.2916 0.1502
H64? H 0.1702 1.3029 0.1821
H65? H 0.0905 1.2571 0.2138
C81? C 0.0004(6) 0.5148(7) 0.1557(4)
H68? H -0.0096 0.5426 0.1177
H69? H -0.0259 0.4526 0.1521
Cl3? Cl -0.0566(4) 0.5736(4) 0.1980(3)
Cl4? Cl 0.1296(2) 0.51104(19) 0.18368(17)
C82? C -0.0141(9) 0.5395(14) 0.2156(7)
H70? H -0.0591 0.4931 0.1971
H71? H -0.0504 0.5796 0.2376
Cl5? Cl 0.0298(4) 0.6011(3) 0.1654(2)
Cl6? Cl 0.0772(3) 0.4879(3) 0.26018(17)
loop_
_geom_bond_atom_site_label_1
_geom_bond_atom_site_label_2
_geom_bond_site_symmetry_1
_geom_bond_site_symmetry_2
Si1 C1 1_555 1_555
C1 C3 1_555 1_555
C2 Si1 1_555 1_555
C3 C4 1_555 1_555
C4 H1 1_555 1_555
C5 C4 1_555 1_555
H2 C5 1_555 1_555
C6 C5 1_555 1_555
H3 C6 1_555 1_555
C7 C6 1_555 1_555
H4 C7 1_555 1_555
C8 C3 1_555 1_555
H5 C8 1_555 1_555
C9 C10 1_555 1_555
C10 H6 1_555 1_555
C11 C10 1_555 1_555
H7 C11 1_555 1_555
C12 C11 1_555 1_555
H8 C12 1_555 1_555
C13 C12 1_555 1_555
H9 C13 1_555 1_555
C14 C9 1_555 1_555
H10 C14 1_555 1_555
C15 C1 1_555 1_555
C16 C17 1_555 1_555
C17 H11 1_555 1_555
C18 C17 1_555 1_555
H12 C18 1_555 1_555
C19 C18 1_555 1_555
H13 C19 1_555 1_555
C20 C19 1_555 1_555
H14 C20 1_555 1_555
C21 C16 1_555 1_555
H15 C21 1_555 1_555
C22 C2 1_555 1_555
C23 C2 1_555 1_555
C24 C23 1_555 1_555
H16 C24 1_555 1_555
C25 C24 1_555 1_555
H17 C25 1_555 1_555
C26 C25 1_555 1_555
H18 C26 1_555 1_555
C27 C26 1_555 1_555
H19 C27 1_555 1_555
C28 C23 1_555 1_555
H20 C28 1_555 1_555
C29 Si1 1_555 1_555
C30 C29 1_555 1_555
C31 C30 1_555 1_555
C32 Si1 1_555 1_555
C33 C29 1_555 1_555
C34 C33 1_555 1_555
H21 C34 1_555 1_555
C35 C34 1_555 1_555
H22 C35 1_555 1_555
C36 C35 1_555 1_555
C37 C36 1_555 1_555
H23 C37 1_555 1_555
C38 C33 1_555 1_555
H24 C38 1_555 1_555
C39 C36 1_555 1_555
H25 C39 1_555 1_555
H26 C39 1_555 1_555
H27 C39 1_555 1_555
C40 C30 1_555 1_555
C41 C40 1_555 1_555
H28 C41 1_555 1_555
C42 C41 1_555 1_555
H29 C42 1_555 1_555
C43 C42 1_555 1_555
C44 C43 1_555 1_555
H30 C44 1_555 1_555
C45 C40 1_555 1_555
H31 C45 1_555 1_555
C46 C43 1_555 1_555
H32 C46 1_555 1_555
H33 C46 1_555 1_555
H34 C46 1_555 1_555
C47 C31 1_555 1_555
C48 C47 1_555 1_555
H35 C48 1_555 1_555
C49 C48 1_555 1_555
H36 C49 1_555 1_555
C50 C49 1_555 1_555
C51 C50 1_555 1_555
H37 C51 1_555 1_555
C52 C47 1_555 1_555
H38 C52 1_555 1_555
C53 C50 1_555 1_555
H39 C53 1_555 1_555
H40 C53 1_555 1_555
H41 C53 1_555 1_555
C54 C32 1_555 1_555
C55 C54 1_555 1_555
H42 C55 1_555 1_555
C56 C55 1_555 1_555
H43 C56 1_555 1_555
C57 C56 1_555 1_555
C58 C57 1_555 1_555
H44 C58 1_555 1_555
C59 C54 1_555 1_555
H45 C59 1_555 1_555
C60 C57 1_555 1_555
H46 C60 1_555 1_555
H47 C60 1_555 1_555
H48 C60 1_555 1_555
C80 H66 1_555 1_555
H67 C80 1_555 1_555
Cl1 C80 1_555 1_555
Cl2 C80 1_555 1_555
C7 C8 1_555 1_555
C9 C15 1_555 1_555
C13 C14 1_555 1_555
C15 C22 1_555 1_555
C16 C22 1_555 1_555
C20 C21 1_555 1_555
C27 C28 1_555 1_555
C31 C32 1_555 1_555
C37 C38 1_555 1_555
C44 C45 1_555 1_555
C51 C52 1_555 1_555
C58 C59 1_555 1_555

#END
