
#######################################################################
#
#                 Cambridge Crystallographic Data Centre
#                                CCDC 
#
#######################################################################
#
# If this CIF has been generated from an entry in the Cambridge 
# Structural Database, then it will include bibliographic, chemical, 
# crystal, experimental, refinement or atomic coordinate data resulting 
# from the CCDC's data processing and validation procedures.
#
#######################################################################

data_JAYPUU05
_chemical_formula_moiety         'C6 H16 N1 1+,Cl1 1-'
_chemical_name_systematic        'Di-isopropylammonium chloride'
_symmetry_cell_setting           monoclinic
_symmetry_space_group_name_H-M   'P 21/m'
_symmetry_Int_Tables_number      11
_space_group_name_Hall           '-P 2yb'
loop_
_symmetry_equiv_pos_site_id
_symmetry_equiv_pos_as_xyz
1 x,y,z
2 -x,1/2+y,-z
3 -x,-y,-z
4 x,1/2-y,z
_cell_length_a                   7.8093(16)
_cell_length_b                   8.0180(16)
_cell_length_c                   7.8125(16)
_cell_angle_alpha                90
_cell_angle_beta                 114.75(3)
_cell_angle_gamma                90
_cell_volume                     444.245
_cell_formula_units_Z            2
loop_
_atom_site_label
_atom_site_type_symbol
_atom_site_fract_x
_atom_site_fract_y
_atom_site_fract_z
C1 C 0.761(4) 0.2500 0.216(4)
H1 H 0.8871 0.2500 0.3118
H2 H 0.7395 0.3460 0.1401
C2 C 0.403(5) 0.2500 0.147(3)
H3 H 0.3273 0.2500 0.2117
H4 H 0.3761 0.1540 0.0701
C3 C 0.589(5) 0.2500 0.281(4)
C4 C 0.860(4) 0.2500 0.611(5)
H5 H 0.9738 0.2500 0.5983
C5 C 0.881(3) 0.401(9) 0.743(3)
H6 H 0.9801 0.3848 0.8664
H7 H 0.7662 0.4211 0.7502
H8 H 0.9105 0.4940 0.6876
N1 N 0.673(4) 0.143(10) 0.456(4)
H2C H 0.7395 0.1540 0.1401
H4C H 0.3761 0.3460 0.0701
C5C C 0.881(3) 0.099(9) 0.743(3)
H6C H 0.9801 0.1152 0.8664
H7C H 0.7662 0.0789 0.7502
H8C H 0.9105 0.0060 0.6876
N1C N 0.673(4) 0.357(10) 0.456(4)
Cl1 Cl 0.3659(4) 0.2500 0.6302(4)
H9? H 0.5995 0.3636 0.3153
H10? H 0.5829 0.1641 0.4905
H11? H 0.6813 0.0341 0.4478
loop_
_geom_bond_atom_site_label_1
_geom_bond_atom_site_label_2
_geom_bond_site_symmetry_1
_geom_bond_site_symmetry_2
C1 H1 1_555 1_555
H2 C1 1_555 1_555
C2 H3 1_555 1_555
H4 C2 1_555 1_555
C3 C1 1_555 1_555
C4 H5 1_555 1_555
C5 C4 1_555 1_555
H6 C5 1_555 1_555
H7 C5 1_555 1_555
H8 C5 1_555 1_555
N1 C3 1_555 1_555
H2C C1 1_555 1_555
H4C C2 1_555 1_555
C5C C4 1_555 1_555
H6C C5C 1_555 1_555
H7C C5C 1_555 1_555
H8C C5C 1_555 1_555
N1C C3 1_555 1_555
C2 C3 1_555 1_555
C4 N1 1_555 1_555
C4 N1C 1_555 1_555
N1 N1C 1_555 1_555

#END
