
#######################################################################
#
#                 Cambridge Crystallographic Data Centre
#                                CCDC 
#
#######################################################################
#
# If this CIF has been generated from an entry in the Cambridge 
# Structural Database, then it will include bibliographic, chemical, 
# crystal, experimental, refinement or atomic coordinate data resulting 
# from the CCDC's data processing and validation procedures.
#
#######################################################################

data_JAYVIP
_chemical_formula_moiety         'C31 H29 N1'
_chemical_name_systematic        
N-Benzyl-4-(4,4-diphenylbuta-1,3-dienyl)-N-ethylaniline
_symmetry_cell_setting           monoclinic
_symmetry_space_group_name_H-M   'P 21/n'
_symmetry_Int_Tables_number      14
_space_group_name_Hall           '-P 2yn'
loop_
_symmetry_equiv_pos_site_id
_symmetry_equiv_pos_as_xyz
1 x,y,z
2 1/2-x,1/2+y,1/2-z
3 -x,-y,-z
4 1/2+x,1/2-y,1/2+z
_cell_length_a                   10.4818(17)
_cell_length_b                   17.071(3)
_cell_length_c                   13.460(2)
_cell_angle_alpha                90
_cell_angle_beta                 92.780(3)
_cell_angle_gamma                90
_cell_volume                     2405.63
_exptl_crystal_colour            yellow
_exptl_crystal_description       block
_chemical_melting_point          '378 K'
_cell_formula_units_Z            4
_exptl_crystal_recrystallization_method 'ethyl acetate'
loop_
_atom_site_label
_atom_site_type_symbol
_atom_site_fract_x
_atom_site_fract_y
_atom_site_fract_z
N1 N 0.21977(16) 0.14371(9) -0.14336(11)
C1 C 0.46795(16) 0.14783(10) 0.50835(12)
C2 C 0.56105(17) 0.13857(10) 0.59347(12)
C3 C 0.68090(19) 0.10444(11) 0.58330(15)
H1 H 0.7023 0.0859 0.5213
C4 C 0.7681(2) 0.09747(13) 0.66269(18)
H2 H 0.8465 0.0736 0.6539
C5 C 0.7400(2) 0.12545(13) 0.75455(17)
H3 H 0.7992 0.1211 0.8080
C6 C 0.6244(2) 0.15975(13) 0.76666(15)
H4 H 0.6046 0.1789 0.8288
C7 C 0.53623(19) 0.16633(11) 0.68732(14)
H5 H 0.4580 0.1901 0.6972
C8 C 0.36282(17) 0.20631(10) 0.51745(11)
C9 C 0.23606(18) 0.18248(12) 0.50986(13)
H6 H 0.2168 0.1301 0.4975
C10 C 0.1377(2) 0.23574(15) 0.52055(15)
H7 H 0.0534 0.2187 0.5163
C11 C 0.1642(2) 0.31336(15) 0.53727(15)
H8 H 0.0982 0.3491 0.5440
C12 C 0.2883(2) 0.33777(13) 0.54395(15)
H9 H 0.3066 0.3905 0.5544
C13 C 0.38694(19) 0.28493(11) 0.53537(13)
H10 H 0.4710 0.3024 0.5417
C14 C 0.47490(18) 0.10599(10) 0.42352(13)
H11 H 0.5293 0.0629 0.4259
C15 C 0.40746(17) 0.12099(11) 0.33060(13)
H12 H 0.3506 0.1629 0.3275
C16 C 0.42036(17) 0.07897(11) 0.24756(13)
H13 H 0.4683 0.0333 0.2544
C17 C 0.36818(16) 0.09660(10) 0.14828(12)
C18 C 0.37168(16) 0.04132(10) 0.07216(13)
H14 H 0.4078 -0.0074 0.0863
C19 C 0.32379(17) 0.05607(10) -0.02300(13)
H15 H 0.3277 0.0171 -0.0710
C20 C 0.26938(17) 0.12853(10) -0.04898(13)
C21 C 0.26646(17) 0.18462(10) 0.02727(13)
H16 H 0.2311 0.2336 0.0134
C22 C 0.31446(17) 0.16878(10) 0.12145(13)
H17 H 0.3111 0.2077 0.1696
C23 C 0.23721(19) 0.09033(11) -0.22513(13)
H18 H 0.3187 0.0641 -0.2140
H19 H 0.2415 0.1207 -0.2858
C24 C 0.13449(18) 0.02878(11) -0.24072(14)
C25 C 0.04772(19) 0.01214(13) -0.16991(16)
H20 H 0.0500 0.0404 -0.1108
C26 C -0.0423(2) -0.04579(16) -0.1858(2)
H21 H -0.0996 -0.0568 -0.1370
C27 C -0.0479(3) -0.08700(15) -0.2722(3)
H22 H -0.1078 -0.1267 -0.2821
C28 C 0.0351(3) -0.06989(17) -0.3447(3)
H23 H 0.0299 -0.0969 -0.4047
C29 C 0.1267(2) -0.01232(13) -0.32851(18)
H24 H 0.1836 -0.0013 -0.3776
C30 C 0.1486(2) 0.21590(12) -0.16801(15)
H25 H 0.0988 0.2303 -0.1119
H26 H 0.0894 0.2057 -0.2242
C31 C 0.2323(2) 0.28325(13) -0.19296(18)
H27 H 0.2920 0.2933 -0.1381
H28 H 0.1807 0.3289 -0.2058
H29 H 0.2780 0.2707 -0.2510
loop_
_geom_bond_atom_site_label_1
_geom_bond_atom_site_label_2
_geom_bond_site_symmetry_1
_geom_bond_site_symmetry_2
N1 C20 1_555 1_555
C1 C2 1_555 1_555
C2 C3 1_555 1_555
C3 H1 1_555 1_555
C4 C3 1_555 1_555
H2 C4 1_555 1_555
C5 C4 1_555 1_555
H3 C5 1_555 1_555
C6 C5 1_555 1_555
H4 C6 1_555 1_555
C7 C2 1_555 1_555
H5 C7 1_555 1_555
C8 C1 1_555 1_555
C9 C8 1_555 1_555
H6 C9 1_555 1_555
C10 C9 1_555 1_555
H7 C10 1_555 1_555
C11 C10 1_555 1_555
H8 C11 1_555 1_555
C12 C11 1_555 1_555
H9 C12 1_555 1_555
C13 C8 1_555 1_555
H10 C13 1_555 1_555
C14 C1 1_555 1_555
H11 C14 1_555 1_555
C15 C14 1_555 1_555
H12 C15 1_555 1_555
C16 C15 1_555 1_555
H13 C16 1_555 1_555
C17 C16 1_555 1_555
C18 C17 1_555 1_555
H14 C18 1_555 1_555
C19 C18 1_555 1_555
H15 C19 1_555 1_555
C20 C19 1_555 1_555
C21 C20 1_555 1_555
H16 C21 1_555 1_555
C22 C17 1_555 1_555
H17 C22 1_555 1_555
C23 N1 1_555 1_555
H18 C23 1_555 1_555
H19 C23 1_555 1_555
C24 C23 1_555 1_555
C25 C24 1_555 1_555
H20 C25 1_555 1_555
C26 C25 1_555 1_555
H21 C26 1_555 1_555
C27 C26 1_555 1_555
H22 C27 1_555 1_555
C28 C27 1_555 1_555
H23 C28 1_555 1_555
C29 C24 1_555 1_555
H24 C29 1_555 1_555
C30 N1 1_555 1_555
H25 C30 1_555 1_555
H26 C30 1_555 1_555
C31 C30 1_555 1_555
H27 C31 1_555 1_555
H28 C31 1_555 1_555
H29 C31 1_555 1_555
C6 C7 1_555 1_555
C12 C13 1_555 1_555
C21 C22 1_555 1_555
C28 C29 1_555 1_555

#END
