
#######################################################################
#
#                 Cambridge Crystallographic Data Centre
#                                CCDC 
#
#######################################################################
#
# If this CIF has been generated from an entry in the Cambridge 
# Structural Database, then it will include bibliographic, chemical, 
# crystal, experimental, refinement or atomic coordinate data resulting 
# from the CCDC's data processing and validation procedures.
#
#######################################################################

data_JAYWOW
_chemical_formula_moiety         'C18 H20 Cl1 N1 O2'
_chemical_name_systematic        
4-(4-Chlorophenyl)-1,7,7-trimethyl-1,2,3,4,5,6,7,8-octahydroquinoline-2,5-dione
_symmetry_cell_setting           orthorhombic
_symmetry_space_group_name_H-M   'P c a 21'
_symmetry_Int_Tables_number      29
_space_group_name_Hall           'P 2c -2ac'
loop_
_symmetry_equiv_pos_site_id
_symmetry_equiv_pos_as_xyz
1 x,y,z
2 -x,-y,1/2+z
3 1/2+x,-y,z
4 1/2-x,y,1/2+z
_cell_length_a                   17.492(3)
_cell_length_b                   9.805(2)
_cell_length_c                   9.634(2)
_cell_angle_alpha                90
_cell_angle_beta                 90
_cell_angle_gamma                90
_cell_volume                     1652.32
_exptl_crystal_colour            yellow
_exptl_crystal_description       block
_cell_formula_units_Z            4
_exptl_crystal_recrystallization_method ethanol
loop_
_atom_site_label
_atom_site_type_symbol
_atom_site_fract_x
_atom_site_fract_y
_atom_site_fract_z
Cl1 Cl 0.19846(12) -0.41262(17) 0.3234(4)
N1 N -0.0080(2) 0.2082(5) 0.4219(5)
O1 O -0.0336(3) 0.1489(7) 0.2017(5)
O2 O 0.2465(2) 0.2864(4) 0.5616(5)
C1 C 0.0128(4) 0.1929(7) 0.2833(7)
C2 C 0.0901(4) 0.2313(7) 0.2432(6)
H1 H 0.0921 0.3292 0.2296
H2 H 0.1025 0.1882 0.1554
C3 C 0.1494(3) 0.1909(5) 0.3499(6)
H3 H 0.1975 0.2366 0.3262
C4 C 0.1218(3) 0.2474(5) 0.4874(5)
C5 C 0.1791(3) 0.2980(5) 0.5846(6)
C6 C 0.1508(3) 0.3728(9) 0.7070(8)
H4 H 0.1881 0.3628 0.7808
H5 H 0.1486 0.4689 0.6835
C7 C 0.0770(3) 0.3332(6) 0.7611(6)
C8 C 0.0171(3) 0.3047(6) 0.6516(6)
H6 H -0.0188 0.2386 0.6885
H7 H -0.0110 0.3883 0.6341
C9 C 0.0465(3) 0.2536(5) 0.5195(6)
C10 C -0.0854(3) 0.1780(8) 0.4633(9)
H8 H -0.1083 0.2581 0.5027
H9 H -0.0852 0.1062 0.5311
H10 H -0.1144 0.1496 0.3837
C11 C 0.1637(2) 0.0402(5) 0.3519(5)
C12 C 0.2105(3) -0.0171(6) 0.2507(7)
H11 H 0.2345 0.0392 0.1863
C13 C 0.2218(3) -0.1565(7) 0.2447(8)
H12 H 0.2540 -0.1930 0.1774
C14 C 0.1865(3) -0.2398(6) 0.3356(8)
C15 C 0.1413(3) -0.1873(5) 0.4389(7)
H13 H 0.1181 -0.2444 0.5034
C16 C 0.1309(3) -0.0489(5) 0.4451(6)
H14 H 0.1004 -0.0135 0.5155
C17 C 0.0932(4) 0.1822(6) 0.8257(8)
H15 H 0.1114 0.1227 0.7538
H16 H 0.0467 0.1461 0.8638
H17 H 0.1310 0.1888 0.8976
C18 C 0.0476(4) 0.4086(7) 0.8815(7)
H18 H 0.0891 0.4297 0.9432
H19 H 0.0105 0.3538 0.9293
H20 H 0.0240 0.4917 0.8507
loop_
_geom_bond_atom_site_label_1
_geom_bond_atom_site_label_2
_geom_bond_site_symmetry_1
_geom_bond_site_symmetry_2
Cl1 C14 1_555 1_555
N1 C1 1_555 1_555
O1 C1 1_555 1_555
O2 C5 1_555 1_555
C1 C2 1_555 1_555
C2 H1 1_555 1_555
H2 C2 1_555 1_555
C3 C2 1_555 1_555
H3 C3 1_555 1_555
C4 C3 1_555 1_555
C5 C4 1_555 1_555
C6 C5 1_555 1_555
H4 C6 1_555 1_555
H5 C6 1_555 1_555
C7 C6 1_555 1_555
C8 C7 1_555 1_555
H6 C8 1_555 1_555
H7 C8 1_555 1_555
C9 N1 1_555 1_555
C10 N1 1_555 1_555
H8 C10 1_555 1_555
H9 C10 1_555 1_555
H10 C10 1_555 1_555
C11 C3 1_555 1_555
C12 C11 1_555 1_555
H11 C12 1_555 1_555
C13 C12 1_555 1_555
H12 C13 1_555 1_555
C14 C13 1_555 1_555
C15 C14 1_555 1_555
H13 C15 1_555 1_555
C16 C11 1_555 1_555
H14 C16 1_555 1_555
C17 C7 1_555 1_555
H15 C17 1_555 1_555
H16 C17 1_555 1_555
H17 C17 1_555 1_555
C18 C7 1_555 1_555
H18 C18 1_555 1_555
H19 C18 1_555 1_555
H20 C18 1_555 1_555
C4 C9 1_555 1_555
C8 C9 1_555 1_555
C15 C16 1_555 1_555

#END
