
#######################################################################
#
#                 Cambridge Crystallographic Data Centre
#                                CCDC 
#
#######################################################################
#
# If this CIF has been generated from an entry in the Cambridge 
# Structural Database, then it will include bibliographic, chemical, 
# crystal, experimental, refinement or atomic coordinate data resulting 
# from the CCDC's data processing and validation procedures.
#
#######################################################################

data_JAYXEN
_chemical_formula_moiety         'C12 H10 N3 O1 1+,Cl1 1-,3(H2 O1)'
_chemical_name_systematic        
"8-Methyl-5-oxo-5,6-dihydrodipyrido(1,2-a:3',2'-e)pyrimidin-11-ium chloride trihydrate"
_chemical_properties_biological  'potential biological activity'
_symmetry_cell_setting           hexagonal
_symmetry_space_group_name_H-M   'P 63/m'
_symmetry_Int_Tables_number      176
_space_group_name_Hall           '-P 6c'
loop_
_symmetry_equiv_pos_site_id
_symmetry_equiv_pos_as_xyz
1 x,y,z
2 -y,x-y,z
3 -x+y,-x,z
4 y,-x+y,1/2+z
5 x-y,x,1/2+z
6 -x,-y,1/2+z
7 -x,-y,-z
8 y,-x+y,-z
9 x-y,x,-z
10 -y,x-y,1/2-z
11 -x+y,-x,1/2-z
12 x,y,1/2-z
_cell_length_a                   19.4419(3)
_cell_length_b                   19.4419(3)
_cell_length_c                   6.54980(10)
_cell_angle_alpha                90
_cell_angle_beta                 90
_cell_angle_gamma                120
_cell_volume                     2144.06
_exptl_crystal_colour            colorless
_exptl_crystal_description       block
_chemical_melting_point          '535-536 K'
_cell_formula_units_Z            6
_exptl_crystal_recrystallization_method ethanol
loop_
_atom_site_label
_atom_site_type_symbol
_atom_site_fract_x
_atom_site_fract_y
_atom_site_fract_z
Cl1 Cl 0.59489(2) 0.63371(2) 0.2500
N1 N 0.31683(9) 0.21861(8) 0.2500
N2 N 0.35594(8) 0.35325(8) 0.2500
N3 N 0.49140(8) 0.45024(8) 0.2500
H1 H 0.5271 0.5011 0.2500
O1 O 0.58999(7) 0.42027(8) 0.2500
C1 C 0.33541(11) 0.16126(10) 0.2500
H7 H 0.2932 0.1077 0.2500
C2 C 0.41286(11) 0.17494(11) 0.2500
H8 H 0.4231 0.1320 0.2500
C3 C 0.47436(11) 0.25274(11) 0.2500
H9 H 0.5280 0.2644 0.2500
C4 C 0.45646(10) 0.31379(10) 0.2500
C5 C 0.51927(10) 0.39755(10) 0.2500
C6 C 0.41393(9) 0.43090(9) 0.2500
C7 C 0.39353(10) 0.49036(10) 0.2500
H10 H 0.4342 0.5445 0.2500
C8 C 0.31520(11) 0.47143(10) 0.2500
C9 C 0.25658(10) 0.39012(11) 0.2500
H11 H 0.2020 0.3753 0.2500
C10 C 0.27715(10) 0.33322(10) 0.2500
H12 H 0.2369 0.2788 0.2500
C11 C 0.37690(10) 0.29249(9) 0.2500
C12 C 0.29336(11) 0.53520(11) 0.2500
H13 H 0.2354 0.5108 0.2500
H14 H 0.3152 0.5682 0.1278
H14K H 0.3152 0.5682 0.3722
O2 O 0.74225(8) 0.80351(8) 0.2500
H3 H 0.7687 0.8119 0.3541
H3K H 0.7687 0.8119 0.1459
O3 O 0.85472(5) 0.87284(5) 0.54356(15)
H4 H 0.8927 0.8697 0.5071
H6 H 0.8202 0.8503 0.4499
H2? H 0.7048 0.7548 0.2500
H5? H 0.8471 0.8648 0.6729
loop_
_geom_bond_atom_site_label_1
_geom_bond_atom_site_label_2
_geom_bond_site_symmetry_1
_geom_bond_site_symmetry_2
N1 C1 1_555 1_555
N2 C6 1_555 1_555
N3 H1 1_555 1_555
O1 C5 1_555 1_555
O2 H3 1_555 1_555
O3 H4 1_555 1_555
H6 O3 1_555 1_555
C1 H7 1_555 1_555
C2 C1 1_555 1_555
H8 C2 1_555 1_555
C3 C2 1_555 1_555
H9 C3 1_555 1_555
C4 C3 1_555 1_555
C5 N3 1_555 1_555
C6 N3 1_555 1_555
C7 C6 1_555 1_555
H10 C7 1_555 1_555
C8 C7 1_555 1_555
C9 C8 1_555 1_555
H11 C9 1_555 1_555
C10 N2 1_555 1_555
H12 C10 1_555 1_555
C11 N1 1_555 1_555
C12 C8 1_555 1_555
H13 C12 1_555 1_555
H14 C12 1_555 1_555
H3K O2 1_555 1_555
H14K C12 1_555 1_555
N2 C11 1_555 1_555
C4 C5 1_555 1_555
C4 C11 1_555 1_555
C9 C10 1_555 1_555

#END
