
#######################################################################
#
#                 Cambridge Crystallographic Data Centre
#                                CCDC 
#
#######################################################################
#
# If this CIF has been generated from an entry in the Cambridge 
# Structural Database, then it will include bibliographic, chemical, 
# crystal, experimental, refinement or atomic coordinate data resulting 
# from the CCDC's data processing and validation procedures.
#
#######################################################################

data_JAZCES
_chemical_formula_moiety         'C22 H21 N1 O3 S2'
_chemical_name_systematic        
8-Methoxy-10-p-tosyl-10-aza-1-thia(2.2)metacyclophane
_symmetry_cell_setting           triclinic
_symmetry_space_group_name_H-M   'P -1'
_symmetry_Int_Tables_number      2
_space_group_name_Hall           '-P 1'
loop_
_symmetry_equiv_pos_site_id
_symmetry_equiv_pos_as_xyz
1 x,y,z
2 -x,-y,-z
_cell_length_a                   7.261(1)
_cell_length_b                   9.791(3)
_cell_length_c                   14.857(4)
_cell_angle_alpha                94.55(2)
_cell_angle_beta                 99.19(3)
_cell_angle_gamma                101.37(2)
_cell_volume                     1015.48
_exptl_crystal_colour            colorless
_cell_formula_units_Z            2
loop_
_atom_site_label
_atom_site_type_symbol
_atom_site_fract_x
_atom_site_fract_y
_atom_site_fract_z
S1 S 0.6048(1) 0.96897(8) 0.28311(5)
S2 S 0.91818(8) 0.45346(5) 0.20146(4)
O1 O 1.0318(2) 0.9620(1) 0.17313(9)
O2 O 0.7343(2) 0.4291(2) 0.2278(1)
O3 O 0.9364(2) 0.3854(2) 0.1159(1)
N1 N 1.0019(3) 0.6200(2) 0.2011(1)
C1 C 0.8780(3) 0.7496(2) 0.0782(1)
C2 C 0.7188(4) 0.6715(2) 0.0192(1)
C3 C 0.5528(4) 0.7230(3) 0.0026(2)
C4 C 0.5421(3) 0.8457(3) 0.0512(2)
C5 C 0.6984(3) 0.9268(2) 0.1115(2)
C6 C 0.8713(3) 0.8816(2) 0.1175(1)
C7 C 0.6807(4) 1.0419(2) 0.1805(2)
C8 C 0.7976(4) 0.8856(2) 0.3170(2)
C9 C 0.9548(5) 0.9541(3) 0.3808(2)
C10 C 1.1192(5) 0.9003(3) 0.3942(2)
C11 C 1.1305(4) 0.7845(2) 0.3381(2)
C12 C 0.9751(3) 0.7168(2) 0.2739(1)
C13 C 0.8015(3) 0.7602(2) 0.2673(1)
C14 C 1.0401(3) 0.6823(2) 0.1155(1)
C15 C 1.1337(3) 1.0696(2) 0.1302(2)
C16 C 1.0778(3) 0.4076(2) 0.2905(1)
C17 C 1.0242(4) 0.3799(2) 0.3727(2)
C18 C 1.1519(4) 0.3413(3) 0.4411(2)
C19 C 1.3316(4) 0.3289(2) 0.4269(2)
C20 C 1.3826(4) 0.3581(3) 0.3445(2)
C21 C 1.2591(3) 0.3984(2) 0.2758(2)
C22 C 1.4686(5) 0.2841(3) 0.5010(2)
H1 H 1.420 0.268 0.556
H2 H 1.495 0.200 0.475
H3 H 1.583 0.355 0.515
H4 H 1.115 0.325 0.499
H5 H 0.899 0.388 0.381
H6 H 1.506 0.349 0.335
H7 H 1.294 0.418 0.219
H8 H 0.954 1.038 0.417
H9 H 1.226 0.941 0.441
H10 H 1.240 0.745 0.341
H11 H 0.689 0.705 0.230
H12 H 1.051 0.610 0.071
H13 H 1.156 0.751 0.129
H14 H 0.720 0.582 -0.011
H15 H 0.447 0.675 -0.042
H16 H 0.425 0.877 0.043
H17 H 1.244 1.120 0.172
H18 H 1.171 1.030 0.077
H19 H 1.053 1.132 0.113
H20 H 0.801 1.105 0.198
H21 H 0.589 1.091 0.154
loop_
_geom_bond_atom_site_label_1
_geom_bond_atom_site_label_2
_geom_bond_site_symmetry_1
_geom_bond_site_symmetry_2
S1 C7 1_555 1_555
S2 O2 1_555 1_555
O1 C6 1_555 1_555
O3 S2 1_555 1_555
N1 S2 1_555 1_555
C1 C2 1_555 1_555
C2 C3 1_555 1_555
C3 C4 1_555 1_555
C4 C5 1_555 1_555
C5 C6 1_555 1_555
C6 C1 1_555 1_555
C7 C5 1_555 1_555
C8 S1 1_555 1_555
C9 C8 1_555 1_555
C10 C9 1_555 1_555
C11 C10 1_555 1_555
C12 N1 1_555 1_555
C13 C8 1_555 1_555
C14 N1 1_555 1_555
C15 O1 1_555 1_555
C16 S2 1_555 1_555
C17 C16 1_555 1_555
C18 C17 1_555 1_555
C19 C18 1_555 1_555
C20 C19 1_555 1_555
C21 C16 1_555 1_555
C22 C19 1_555 1_555
H1 C22 1_555 1_555
H2 C22 1_555 1_555
H3 C22 1_555 1_555
H4 C18 1_555 1_555
H5 C17 1_555 1_555
H6 C20 1_555 1_555
H7 C21 1_555 1_555
H8 C9 1_555 1_555
H9 C10 1_555 1_555
H10 C11 1_555 1_555
H11 C13 1_555 1_555
H12 C14 1_555 1_555
H13 C14 1_555 1_555
H14 C2 1_555 1_555
H15 C3 1_555 1_555
H16 C4 1_555 1_555
H17 C15 1_555 1_555
H18 C15 1_555 1_555
H19 C15 1_555 1_555
H20 C7 1_555 1_555
H21 C7 1_555 1_555
C1 C14 1_555 1_555
C11 C12 1_555 1_555
C12 C13 1_555 1_555
C20 C21 1_555 1_555

#END
