
#######################################################################
#
#                 Cambridge Crystallographic Data Centre
#                                CCDC 
#
#######################################################################
#
# If this CIF has been generated from an entry in the Cambridge 
# Structural Database, then it will include bibliographic, chemical, 
# crystal, experimental, refinement or atomic coordinate data resulting 
# from the CCDC's data processing and validation procedures.
#
#######################################################################

data_JAZJUS
_chemical_formula_moiety         'C23 H21 N1 O6'
_chemical_name_systematic        
'2-(4-(1-naphthyl)-3-nitro-5-oxo-5,6,7,8-tetrahydro-4H-chromen-2-yl)ethyl acetate'
_symmetry_cell_setting           monoclinic
_symmetry_space_group_name_H-M   'P 21'
_symmetry_Int_Tables_number      4
_space_group_name_Hall           'P 2yb'
loop_
_symmetry_equiv_pos_site_id
_symmetry_equiv_pos_as_xyz
1 x,y,z
2 -x,1/2+y,-z
_cell_length_a                   6.4071(8)
_cell_length_b                   9.4614(11)
_cell_length_c                   16.4578(19)
_cell_angle_alpha                90
_cell_angle_beta                 94.239(11)
_cell_angle_gamma                90
_cell_volume                     994.945
_exptl_crystal_colour            'light colorless'
_exptl_crystal_description       block
_cell_formula_units_Z            2
loop_
_atom_site_label
_atom_site_type_symbol
_atom_site_fract_x
_atom_site_fract_y
_atom_site_fract_z
O1 O 1.0990(4) 0.3362(3) 0.68921(19)
O2 O 0.4695(4) 0.2925(3) 0.81686(16)
O3 O 0.7636(7) 0.7309(4) 0.8387(3)
O4 O 0.4299(6) 0.7304(4) 0.8408(2)
O5 O 0.5445(5) 0.4758(4) 1.02106(18)
O6 O 0.8003(6) 0.3355(5) 0.9834(3)
N1 N 0.5961(6) 0.6699(4) 0.83118(17)
C1 C 0.6279(5) 0.2425(4) 0.7727(2)
C2 C 0.6149(7) 0.0864(5) 0.7616(3)
H1 H 0.4698 0.0588 0.7507
H2 H 0.6685 0.0399 0.8114
C3 C 0.7386(9) 0.0398(5) 0.6926(3)
H3 H 0.7566 -0.0619 0.6953
H4 H 0.6597 0.0616 0.6415
C4 C 0.9470(8) 0.1071(5) 0.6927(3)
H5 H 1.0041 0.0876 0.6409
H6 H 1.0387 0.0630 0.7349
C5 C 0.9509(6) 0.2642(5) 0.7064(2)
C6 C 0.7717(5) 0.3264(4) 0.74422(19)
C7 C 0.7659(6) 0.4841(4) 0.7518(2)
H7 H 0.9016 0.5171 0.7759
C8 C 0.5987(6) 0.5227(4) 0.8079(2)
C9 C 0.4647(5) 0.4322(4) 0.8374(2)
C10 C 0.3070(6) 0.4522(6) 0.8998(2)
H8 H 0.1759 0.4079 0.8807
H9 H 0.2813 0.5523 0.9069
C11 C 0.3858(7) 0.3875(6) 0.9812(3)
H10 H 0.2702 0.3774 1.0157
H11 H 0.4428 0.2943 0.9723
C12 C 0.7436(8) 0.4352(6) 1.0202(3)
C13 C 0.8862(9) 0.5325(9) 1.0696(5)
H12 H 0.9578 0.5928 1.0339
H13 H 0.9868 0.4781 1.1025
H14 H 0.8057 0.5892 1.1042
C14 C 0.7222(5) 0.5541(4) 0.66732(19)
C15 C 0.5407(5) 0.5185(4) 0.6224(2)
H15 H 0.4492 0.4547 0.6440
C16 C 0.4890(7) 0.5761(5) 0.5442(2)
H16 H 0.3641 0.5515 0.5152
C17 C 0.6230(7) 0.6678(5) 0.5118(2)
H17 H 0.5898 0.7048 0.4601
C18 C 0.8120(7) 0.7078(4) 0.5553(2)
C19 C 0.9519(8) 0.8031(5) 0.5215(3)
H18 H 0.9192 0.8401 0.4697
C20 C 1.1337(9) 0.8411(5) 0.5637(4)
H19 H 1.2250 0.9029 0.5404
C21 C 1.1846(7) 0.7873(5) 0.6427(3)
H20 H 1.3082 0.8155 0.6713
C22 C 1.0560(6) 0.6952(4) 0.6773(3)
H21 H 1.0927 0.6606 0.7293
C23 C 0.8647(6) 0.6506(4) 0.6350(2)
loop_
_geom_bond_atom_site_label_1
_geom_bond_atom_site_label_2
_geom_bond_site_symmetry_1
_geom_bond_site_symmetry_2
O1 C5 1_555 1_555
O2 C1 1_555 1_555
O3 N1 1_555 1_555
O4 N1 1_555 1_555
O5 C11 1_555 1_555
O6 C12 1_555 1_555
N1 C8 1_555 1_555
C1 C2 1_555 1_555
C2 H1 1_555 1_555
H2 C2 1_555 1_555
C3 C2 1_555 1_555
H3 C3 1_555 1_555
H4 C3 1_555 1_555
C4 C3 1_555 1_555
H5 C4 1_555 1_555
H6 C4 1_555 1_555
C5 C4 1_555 1_555
C6 C1 1_555 1_555
C7 C6 1_555 1_555
H7 C7 1_555 1_555
C8 C7 1_555 1_555
C9 O2 1_555 1_555
C10 C9 1_555 1_555
H8 C10 1_555 1_555
H9 C10 1_555 1_555
C11 C10 1_555 1_555
H10 C11 1_555 1_555
H11 C11 1_555 1_555
C12 O5 1_555 1_555
C13 C12 1_555 1_555
H12 C13 1_555 1_555
H13 C13 1_555 1_555
H14 C13 1_555 1_555
C14 C7 1_555 1_555
C15 C14 1_555 1_555
H15 C15 1_555 1_555
C16 C15 1_555 1_555
H16 C16 1_555 1_555
C17 C16 1_555 1_555
H17 C17 1_555 1_555
C18 C17 1_555 1_555
C19 C18 1_555 1_555
H18 C19 1_555 1_555
C20 C19 1_555 1_555
H19 C20 1_555 1_555
C21 C20 1_555 1_555
H20 C21 1_555 1_555
C22 C21 1_555 1_555
H21 C22 1_555 1_555
C23 C14 1_555 1_555
C5 C6 1_555 1_555
C8 C9 1_555 1_555
C18 C23 1_555 1_555
C22 C23 1_555 1_555

#END
