
#######################################################################
#
#                 Cambridge Crystallographic Data Centre
#                                CCDC 
#
#######################################################################
#
# If this CIF has been generated from an entry in the Cambridge 
# Structural Database, then it will include bibliographic, chemical, 
# crystal, experimental, refinement or atomic coordinate data resulting 
# from the CCDC's data processing and validation procedures.
#
#######################################################################

data_JAZMUV
_chemical_formula_moiety         'C20 H20 N2 O6'
_chemical_name_systematic        
'triethyl 2-cyano-3-(4-cyanophenyl)cyclopropane-1,1,2-tricarboxylate'
_symmetry_cell_setting           orthorhombic
_symmetry_space_group_name_H-M   'P 21 21 21'
_symmetry_Int_Tables_number      19
_space_group_name_Hall           'P 2ac 2ab'
loop_
_symmetry_equiv_pos_site_id
_symmetry_equiv_pos_as_xyz
1 x,y,z
2 1/2-x,-y,1/2+z
3 -x,1/2+y,1/2-z
4 1/2+x,1/2-y,-z
_cell_length_a                   8.72897(9)
_cell_length_b                   8.81956(12)
_cell_length_c                   26.2284(3)
_cell_angle_alpha                90
_cell_angle_beta                 90
_cell_angle_gamma                90
_cell_volume                     2019.21
_exptl_crystal_colour            colorless
_exptl_crystal_description       prism
_cell_formula_units_Z            4
loop_
_atom_site_label
_atom_site_type_symbol
_atom_site_fract_x
_atom_site_fract_y
_atom_site_fract_z
O1 O 0.0301(4) 0.6280(5) 0.25075(13)
O2 O -0.0442(4) 0.7648(5) 0.31802(15)
O3 O -0.0755(3) 0.4454(4) 0.36250(13)
O4 O -0.0450(4) 0.5822(4) 0.43355(12)
O5 O 0.2018(5) 0.3253(6) 0.4190(2)
O6 O 0.3987(4) 0.4137(5) 0.37585(17)
N1 N 0.3905(5) 0.5215(6) 0.26055(16)
N2 N 0.9438(5) 0.9558(7) 0.4394(2)
C1 C 0.1873(4) 0.6243(4) 0.32283(13)
C2 C 0.1652(4) 0.5505(4) 0.37577(13)
C3 C 0.2295(4) 0.7082(4) 0.37153(13)
H1 H 0.1549 0.7867 0.3806
C4 C 0.0425(4) 0.6806(4) 0.29714(16)
C5 C -0.1007(8) 0.6823(10) 0.2209(3)
H2 H -0.1261 0.7845 0.2317
H3 H -0.0721 0.6861 0.1852
C6 C -0.2290(9) 0.5907(10) 0.2263(5)
H4 H -0.3144 0.6367 0.2092
H5 H -0.2524 0.5791 0.2619
H6 H -0.2089 0.4931 0.2116
C7 C 0.0019(4) 0.5304(4) 0.39474(14)
C8 C -0.2353(5) 0.4111(7) 0.3745(2)
H7 H -0.2471 0.3948 0.4109
H8 H -0.3007 0.4948 0.3645
C9 C -0.2764(7) 0.2773(8) 0.3472(5)
H9 H -0.2673 0.2957 0.3112
H10 H -0.3802 0.2502 0.3551
H11 H -0.2093 0.1959 0.3568
C10 C 0.2710(4) 0.4222(5) 0.38944(17)
C11 C 0.2880(9) 0.1834(10) 0.4321(4)
H12 H 0.2190 0.0974 0.4344
H13 H 0.3654 0.1620 0.4066
C12 C 0.355(2) 0.213(2) 0.4788(5)
H14 H 0.3819 0.3186 0.4807
H15 H 0.4451 0.1523 0.4827
H16 H 0.2835 0.1895 0.5056
C13 C 0.3035(4) 0.5644(4) 0.28934(14)
C14 C 0.3898(4) 0.7505(4) 0.38511(12)
C15 C 0.4398(5) 0.7358(6) 0.43492(14)
H17 H 0.3754 0.6920 0.4590
C16 C 0.5829(5) 0.7849(7) 0.44944(15)
H18 H 0.6159 0.7726 0.4829
C17 C 0.6781(4) 0.8534(4) 0.41332(15)
C18 C 0.6297(4) 0.8681(4) 0.36323(14)
H19 H 0.6938 0.9117 0.3390
C19 C 0.4858(4) 0.8176(4) 0.34954(12)
H20 H 0.4528 0.8286 0.3160
C20 C 0.8278(5) 0.9084(5) 0.42824(18)
loop_
_geom_bond_atom_site_label_1
_geom_bond_atom_site_label_2
_geom_bond_site_symmetry_1
_geom_bond_site_symmetry_2
O1 C4 1_555 1_555
O2 C4 1_555 1_555
O3 C7 1_555 1_555
O4 C7 1_555 1_555
O5 C10 1_555 1_555
O6 C10 1_555 1_555
N1 C13 1_555 1_555
N2 C20 1_555 1_555
C1 C2 1_555 1_555
C2 C3 1_555 1_555
C3 C1 1_555 1_555
H1 C3 1_555 1_555
C4 C1 1_555 1_555
C5 O1 1_555 1_555
H2 C5 1_555 1_555
H3 C5 1_555 1_555
C6 C5 1_555 1_555
H4 C6 1_555 1_555
H5 C6 1_555 1_555
H6 C6 1_555 1_555
C7 C2 1_555 1_555
C8 O3 1_555 1_555
H7 C8 1_555 1_555
H8 C8 1_555 1_555
C9 C8 1_555 1_555
H9 C9 1_555 1_555
H10 C9 1_555 1_555
H11 C9 1_555 1_555
C10 C2 1_555 1_555
C11 O5 1_555 1_555
H12 C11 1_555 1_555
H13 C11 1_555 1_555
C12 C11 1_555 1_555
H14 C12 1_555 1_555
H15 C12 1_555 1_555
H16 C12 1_555 1_555
C13 C1 1_555 1_555
C14 C3 1_555 1_555
C15 C14 1_555 1_555
H17 C15 1_555 1_555
C16 C15 1_555 1_555
H18 C16 1_555 1_555
C17 C16 1_555 1_555
C18 C17 1_555 1_555
H19 C18 1_555 1_555
C19 C14 1_555 1_555
H20 C19 1_555 1_555
C20 C17 1_555 1_555
C18 C19 1_555 1_555

#END
