
#######################################################################
#
#                 Cambridge Crystallographic Data Centre
#                                CCDC 
#
#######################################################################
#
# If this CIF has been generated from an entry in the Cambridge 
# Structural Database, then it will include bibliographic, chemical, 
# crystal, experimental, refinement or atomic coordinate data resulting 
# from the CCDC's data processing and validation procedures.
#
#######################################################################

data_JEBFEB01
_chemical_formula_moiety         'C12 H11 N2 O1 P1'
_chemical_name_systematic        1,3-Dihydrido-2-phenyl-1,3,2-diazaphosphole
_symmetry_cell_setting           orthorhombic
_symmetry_space_group_name_H-M   'P n m a'
_symmetry_Int_Tables_number      62
_space_group_name_Hall           '-P 2ac 2n'
loop_
_symmetry_equiv_pos_site_id
_symmetry_equiv_pos_as_xyz
1 x,y,z
2 1/2-x,-y,1/2+z
3 1/2+x,1/2-y,1/2-z
4 -x,1/2+y,-z
5 -x,-y,-z
6 1/2+x,y,1/2-z
7 1/2-x,1/2+y,1/2+z
8 x,1/2-y,z
_cell_length_a                   17.816(4)
_cell_length_b                   7.578(2)
_cell_length_c                   8.709(2)
_cell_angle_alpha                90
_cell_angle_beta                 90
_cell_angle_gamma                90
_cell_volume                     1175.8
_exptl_crystal_colour            colorless
_chemical_melting_point          278-279deg.C
_cell_formula_units_Z            4
loop_
_atom_site_label
_atom_site_type_symbol
_atom_site_fract_x
_atom_site_fract_y
_atom_site_fract_z
P1 P 0.4586(1) 0.2500 0.9233(1)
O1 O 0.5342(1) 0.2500 0.9951(2)
N1 N 0.4002(1) 0.4075(3) 0.9772(2)
C1 C 0.4675(2) 0.2500 0.7202(3)
C2 C 0.5373(2) 0.2500 0.6524(4)
C3 C 0.5428(3) 0.2500 0.4928(6)
C4 C 0.4794(4) 0.2500 0.4049(5)
C5 C 0.4116(3) 0.2500 0.4706(5)
C6 C 0.4043(2) 0.2500 0.6283(4)
C7 C 0.3398(1) 0.3416(3) 1.0638(2)
C8 C 0.2855(1) 0.4353(4) 1.1413(3)
C9 C 0.2305(1) 0.3401(4) 1.2203(3)
H1 H 0.4138(11) 0.5180(38) 0.9817(25)
H2 H 0.5819 0.2500 0.7144
H3 H 0.5913 0.2500 0.4447
H4 H 0.4835 0.2500 0.2950
H5 H 0.3674 0.2500 0.4073
H6 H 0.3553 0.2500 0.6741
H7 H 0.2857 0.5620 1.1409
H8 H 0.1898 0.4247 1.2757
N1G N 0.4002(1) 0.0925(3) 0.9772(2)
C7G C 0.3398(1) 0.1584(3) 1.0638(2)
C9G C 0.2305(1) 0.1599(4) 1.2203(3)
H1G H 0.4138(11) -0.0180(38) 0.9817(25)
C8G C 0.2855(1) 0.0647(4) 1.1413(3)
H8G H 0.1898 0.0753 1.2757
H7G H 0.2857 -0.0620 1.1409
loop_
_geom_bond_atom_site_label_1
_geom_bond_atom_site_label_2
_geom_bond_site_symmetry_1
_geom_bond_site_symmetry_2
P1 O1 1_555 1_555
N1 P1 1_555 1_555
C1 P1 1_555 1_555
C2 C1 1_555 1_555
C3 C2 1_555 1_555
C4 C3 1_555 1_555
C5 C4 1_555 1_555
C6 C1 1_555 1_555
C7 N1 1_555 1_555
C8 C7 1_555 1_555
C9 C8 1_555 1_555
H1 N1 1_555 1_555
H2 C2 1_555 1_555
H3 C3 1_555 1_555
H4 C4 1_555 1_555
H5 C5 1_555 1_555
H6 C6 1_555 1_555
H7 C8 1_555 1_555
H8 C9 1_555 1_555
N1G P1 1_555 1_555
C7G C7 1_555 1_555
C9G C9 1_555 1_555
H1G N1G 1_555 1_555
C8G C7G 1_555 1_555
H8G C9G 1_555 1_555
H7G C8G 1_555 1_555
C5 C6 1_555 1_555
N1G C7G 1_555 1_555
C9G C8G 1_555 1_555

#END
