
#######################################################################
#
#                 Cambridge Crystallographic Data Centre
#                                CCDC 
#
#######################################################################
#
# If this CIF has been generated from an entry in the Cambridge 
# Structural Database, then it will include bibliographic, chemical, 
# crystal, experimental, refinement or atomic coordinate data resulting 
# from the CCDC's data processing and validation procedures.
#
#######################################################################

data_JEBHEG
_chemical_name_common            
'tetra(5-oxotetrazolate)-ocataaqua-di-calcium 5-oxotetrazolate monohydrate'
_chemical_formula_moiety         'C4 H24 Ca2 N16 O14,C1 H2 N4 O1,H2 O1'
_chemical_name_systematic        
'bis(\m-aqua)-octa-aqua-tetrakis(5-oxo-4,5-dihydrotetrazolide)-di-cacium 5-oxo-4,5-dihydrotetrazole monohydrate'
_symmetry_cell_setting           orthorhombic
_symmetry_space_group_name_H-M   'C c c m'
_symmetry_Int_Tables_number      66
_space_group_name_Hall           '-C 2 2n'
loop_
_symmetry_equiv_pos_site_id
_symmetry_equiv_pos_as_xyz
1 x,y,z
2 -x,-y,z
3 x,-y,1/2-z
4 -x,y,1/2-z
5 1/2+x,1/2+y,z
6 1/2-x,1/2-y,z
7 1/2+x,1/2-y,1/2-z
8 1/2-x,1/2+y,1/2-z
9 -x,-y,-z
10 x,y,-z
11 -x,y,1/2+z
12 x,-y,1/2+z
13 1/2-x,1/2-y,-z
14 1/2+x,1/2+y,-z
15 1/2-x,1/2+y,1/2+z
16 1/2+x,1/2-y,1/2+z
_cell_length_a                   14.9853(10)
_cell_length_b                   24.4542(15)
_cell_length_c                   6.7717(3)
_cell_angle_alpha                90
_cell_angle_beta                 90
_cell_angle_gamma                90
_cell_volume                     2481.51
_exptl_crystal_colour            white
_exptl_crystal_description       block
_cell_formula_units_Z            4
loop_
_atom_site_label
_atom_site_type_symbol
_atom_site_fract_x
_atom_site_fract_y
_atom_site_fract_z
N9 N 0.071(2) 0.4906(10) 0.5000
H8 H 0.1172 0.4701 0.5000
N10 N 0.075(2) 0.5447(10) 0.5000
N11 N -0.007(2) 0.5611(10) 0.5000
N12 N -0.062(2) 0.5171(10) 0.5000
H9 H -0.1195 0.5170 0.5000
O6 O -0.0433(17) 0.4229(10) 0.5000
C3 C -0.013(2) 0.4722(11) 0.5000
N9A N -0.071(2) 0.5094(10) 0.5000
H8A H -0.1172 0.5299 0.5000
N10A N -0.075(2) 0.4553(10) 0.5000
N11A N 0.007(2) 0.4389(10) 0.5000
N12A N 0.062(2) 0.4829(10) 0.5000
H9A H 0.1195 0.4830 0.5000
O6A O 0.0433(17) 0.5771(10) 0.5000
C3A C 0.013(2) 0.5278(11) 0.5000
O7 O 0.0759(17) 0.4372(10) 0.5000
H10 H 0.1293 0.4475 0.5000
H11 H 0.0403 0.4629 0.4756
H11I H 0.0403 0.4629 0.5244
O7A O -0.0759(17) 0.5628(10) 0.5000
H10A H -0.1293 0.5525 0.5000
H11A H -0.0403 0.5371 0.4756
H11H H -0.0403 0.5371 0.5244
Ca1 Ca 0.28648(17) 0.33200(10) 0.5000
N1 N 0.3914(7) 0.4711(4) 0.5000
H1 H 0.4437 0.4566 0.5000
N2 N 0.3157(7) 0.4427(4) 0.5000
N3 N 0.2522(8) 0.4793(5) 0.5000
N4 N 0.2864(8) 0.5311(5) 0.5000
N5 N 0.5091(7) 0.2649(4) 0.5000
N6 N 0.4193(8) 0.2569(4) 0.5000
N7 N 0.4005(8) 0.2071(4) 0.5000
N8 N 0.4724(8) 0.1796(4) 0.5000
H2 H 0.4757 0.1445 0.5000
O1 O 0.4329(6) 0.5634(4) 0.5000
O2 O 0.6255(6) 0.2033(4) 0.5000
O3 O 0.2500 0.2500 0.7312(14)
H3 H 0.213(7) 0.257(5) 0.794(17)
O4 O 0.3954(5) 0.3509(3) 0.7499(11)
H4 H 0.4039 0.3797 0.8176
H5 H 0.4200 0.3244 0.8099
O5 O 0.1928(4) 0.3794(3) 0.2626(11)
H6 H 0.1736 0.3569 0.1767
H7 H 0.2232 0.4038 0.2039
C1 C 0.3766(9) 0.5244(5) 0.5000
C2 C 0.5439(9) 0.2145(5) 0.5000
H3E H 0.287(7) 0.243(5) 0.794(17)
Ca1E Ca 0.21352(17) 0.16800(10) 0.5000
N1E N 0.1086(7) 0.0289(4) 0.5000
H1E H 0.0563 0.0434 0.5000
N2E N 0.1843(7) 0.0573(4) 0.5000
N3E N 0.2478(8) 0.0207(5) 0.5000
N4E N 0.2136(8) -0.0311(5) 0.5000
N5E N -0.0091(7) 0.2351(4) 0.5000
N6E N 0.0807(8) 0.2431(4) 0.5000
N7E N 0.0995(8) 0.2929(4) 0.5000
N8E N 0.0276(8) 0.3204(4) 0.5000
H2E H 0.0243 0.3555 0.5000
O1E O 0.0671(6) -0.0634(4) 0.5000
O2E O -0.1255(6) 0.2967(4) 0.5000
O4E O 0.1046(5) 0.1491(3) 0.7499(11)
H4E H 0.0961 0.1203 0.8176
H5E H 0.0800 0.1756 0.8099
O5E O 0.3072(4) 0.1206(3) 0.2626(11)
H6E H 0.3264 0.1431 0.1767
H7E H 0.2768 0.0962 0.2039
C1E C 0.1234(9) -0.0244(5) 0.5000
C2E C -0.0439(9) 0.2855(5) 0.5000
O3I O 0.2500 0.2500 0.2688(14)
H3I H 0.213(7) 0.257(5) 0.206(17)
O4I O 0.3954(5) 0.3509(3) 0.2501(11)
H4I H 0.4039 0.3797 0.1824
H5I H 0.4200 0.3244 0.1901
O5I O 0.1928(4) 0.3794(3) 0.7374(11)
H6I H 0.1736 0.3569 0.8233
H7I H 0.2232 0.4038 0.7961
H3L H 0.287(7) 0.243(5) 0.206(17)
O4L O 0.1046(5) 0.1491(3) 0.2501(11)
H4L H 0.0961 0.1203 0.1824
H5L H 0.0800 0.1756 0.1901
O5L O 0.3072(4) 0.1206(3) 0.7374(11)
H6L H 0.3264 0.1431 0.8233
H7L H 0.2768 0.0962 0.7961
loop_
_geom_bond_atom_site_label_1
_geom_bond_atom_site_label_2
_geom_bond_site_symmetry_1
_geom_bond_site_symmetry_2
Ca1 N2 1_555 1_555
N1 H1 1_555 1_555
N2 N1 1_555 1_555
N3 N2 1_555 1_555
N4 N3 1_555 1_555
N5 N6 1_555 1_555
N6 Ca1 1_555 1_555
N7 N6 1_555 1_555
N8 N7 1_555 1_555
H2 N8 1_555 1_555
O1 C1 1_555 1_555
O2 C2 1_555 1_555
O3 Ca1 1_555 1_555
H3 O3 1_555 1_555
O4 Ca1 1_555 1_555
H4 O4 1_555 1_555
H5 O4 1_555 1_555
O5 Ca1 1_555 1_555
H6 O5 1_555 1_555
H7 O5 1_555 1_555
C1 N1 1_555 1_555
C2 N5 1_555 1_555
N9 H8 1_555 1_555
N10 N9 1_555 1_555
N11 N10 1_555 1_555
N12 N11 1_555 1_555
H9 N12 1_555 1_555
O6 C3 1_555 1_555
C3 N9 1_555 1_555
O7 H10 1_555 1_555
H11 O7 1_555 1_555
H3E O3 1_555 1_555
Ca1E O3 1_555 1_555
N1E H1E 1_555 1_555
N2E Ca1E 1_555 1_555
N3E N2E 1_555 1_555
N4E N3E 1_555 1_555
N5E N6E 1_555 1_555
N6E Ca1E 1_555 1_555
N7E N6E 1_555 1_555
N8E N7E 1_555 1_555
H2E N8E 1_555 1_555
O1E C1E 1_555 1_555
O2E C2E 1_555 1_555
O4E Ca1E 1_555 1_555
H4E O4E 1_555 1_555
H5E O4E 1_555 1_555
O5E Ca1E 1_555 1_555
H6E O5E 1_555 1_555
H7E O5E 1_555 1_555
C1E N1E 1_555 1_555
C2E N5E 1_555 1_555
O3I Ca1 1_555 1_555
H3I O3I 1_555 1_555
O4I Ca1 1_555 1_555
H4I O4I 1_555 1_555
H5I O4I 1_555 1_555
O5I Ca1 1_555 1_555
H6I O5I 1_555 1_555
H7I O5I 1_555 1_555
H3L O3I 1_555 1_555
O4L Ca1E 1_555 1_555
H4L O4L 1_555 1_555
H5L O4L 1_555 1_555
O5L Ca1E 1_555 1_555
H6L O5L 1_555 1_555
H7L O5L 1_555 1_555
N9A N12 1_555 1_555
H8A N9A 1_555 1_555
N10A N9A 1_555 1_555
N11A N10A 1_555 1_555
N12A N9 1_555 1_555
H9A N12A 1_555 1_555
O6A C3A 1_555 1_555
C3A N9A 1_555 1_555
H11I O7 1_555 1_555
O7A H10A 1_555 1_555
H11A O7A 1_555 1_555
H11H O7A 1_555 1_555
N4 C1 1_555 1_555
N8 C2 1_555 1_555
N12 C3 1_555 1_555
Ca1E O3I 1_555 1_555
N1E N2E 1_555 1_555
N4E C1E 1_555 1_555
N8E C2E 1_555 1_555
N11A N12A 1_555 1_555
N12A C3A 1_555 1_555

#END
