
#######################################################################
#
#                 Cambridge Crystallographic Data Centre
#                                CCDC 
#
#######################################################################
#
# If this CIF has been generated from an entry in the Cambridge 
# Structural Database, then it will include bibliographic, chemical, 
# crystal, experimental, refinement or atomic coordinate data resulting 
# from the CCDC's data processing and validation procedures.
#
#######################################################################

data_JEBKOT
_chemical_formula_moiety         'C4 H24 N16 O14 Sr2'
_chemical_name_systematic        
bis(\m-aqua)-bis(\m-5-oxo-1,5-dihydrotetrazol-2-ide)-bis(5-oxo-1,5-dihydrotetrazol-2-ide)-octa-aqua-di-strontium
_symmetry_cell_setting           orthorhombic
_symmetry_space_group_name_H-M   'P n n m'
_symmetry_Int_Tables_number      58
_space_group_name_Hall           '-P 2 2n'
loop_
_symmetry_equiv_pos_site_id
_symmetry_equiv_pos_as_xyz
1 x,y,z
2 -x,-y,z
3 1/2-x,1/2+y,1/2-z
4 1/2+x,1/2-y,1/2-z
5 -x,-y,-z
6 x,y,-z
7 1/2+x,1/2-y,1/2+z
8 1/2-x,1/2+y,1/2+z
_cell_length_a                   11.2966(9)
_cell_length_b                   14.7871(13)
_cell_length_c                   6.9961(5)
_cell_angle_alpha                90
_cell_angle_beta                 90
_cell_angle_gamma                90
_cell_volume                     1168.66
_exptl_crystal_colour            white
_exptl_crystal_description       block
_cell_formula_units_Z            2
loop_
_atom_site_label
_atom_site_type_symbol
_atom_site_fract_x
_atom_site_fract_y
_atom_site_fract_z
Sr1 Sr 0.56124(3) 0.64003(2) 0.5000
N1 N 0.8404(3) 0.4882(2) 0.5000
H1 H 0.8854 0.5351 0.5000
N2 N 0.7198(3) 0.4896(2) 0.5000
N3 N 0.6864(3) 0.4049(2) 0.5000
N4 N 0.7809(3) 0.3475(2) 0.5000
N5 N 0.5982(3) 0.9058(2) 0.5000
H2 H 0.5223 0.9102 0.5000
N6 N 0.6594(3) 0.8268(2) 0.5000
N7 N 0.7702(3) 0.8493(2) 0.5000
N8 N 0.7851(3) 0.9419(2) 0.5000
O1 O 0.9879(3) 0.3759(2) 0.5000
O2 O 0.6450(2) 1.06035(19) 0.5000
O3 O 0.5000 0.5000 0.2542(3)
H3 H 0.5581 0.4852 0.1837
O4 O 0.45652(18) 0.73512(18) 0.2510(3)
H4 H 0.4030 0.7069 0.1898
H5 H 0.4789 0.7797 0.1835
O5 O 0.7155(2) 0.66574(15) 0.7606(3)
H6 H 0.7576 0.6300 0.8271
H7 H 0.7129 0.7165 0.8175
C1 C 0.8786(3) 0.4013(3) 0.5000
C2 C 0.6743(3) 0.9769(3) 0.5000
H3A H 0.4419 0.5148 0.1837
Sr1A Sr 0.43876(3) 0.35997(2) 0.5000
N1A N 0.1596(3) 0.5118(2) 0.5000
H1A H 0.1146 0.4649 0.5000
N2A N 0.2802(3) 0.5104(2) 0.5000
N3A N 0.3136(3) 0.5951(2) 0.5000
N4A N 0.2191(3) 0.6525(2) 0.5000
N5A N 0.4018(3) 0.0942(2) 0.5000
H2A H 0.4777 0.0898 0.5000
N6A N 0.3406(3) 0.1732(2) 0.5000
N7A N 0.2298(3) 0.1507(2) 0.5000
N8A N 0.2149(3) 0.0581(2) 0.5000
O1A O 0.0121(3) 0.6241(2) 0.5000
O2A O 0.3550(2) -0.06035(19) 0.5000
O4A O 0.54348(18) 0.26488(18) 0.2510(3)
H4A H 0.5970 0.2931 0.1898
H5A H 0.5211 0.2203 0.1835
O5A O 0.2845(2) 0.33426(15) 0.7606(3)
H6A H 0.2424 0.3700 0.8271
H7A H 0.2871 0.2835 0.8175
C1A C 0.1214(3) 0.5987(3) 0.5000
C2A C 0.3257(3) 0.0231(3) 0.5000
O3D O 0.5000 0.5000 0.7458(3)
H3D H 0.4419 0.5148 0.8163
O4D O 0.54348(18) 0.26488(18) 0.7490(3)
H4D H 0.5970 0.2931 0.8102
H5D H 0.5211 0.2203 0.8165
O5D O 0.2845(2) 0.33426(15) 0.2394(3)
H6D H 0.2424 0.3700 0.1729
H7D H 0.2871 0.2835 0.1825
H3E H 0.5581 0.4852 0.8163
O4E O 0.45652(18) 0.73512(18) 0.7490(3)
H4E H 0.4030 0.7069 0.8102
H5E H 0.4789 0.7797 0.8165
O5E O 0.7155(2) 0.66574(15) 0.2394(3)
H6E H 0.7576 0.6300 0.1729
H7E H 0.7129 0.7165 0.1825
loop_
_geom_bond_atom_site_label_1
_geom_bond_atom_site_label_2
_geom_bond_site_symmetry_1
_geom_bond_site_symmetry_2
Sr1 N2 1_555 1_555
N1 H1 1_555 1_555
N2 N1 1_555 1_555
N3 N2 1_555 1_555
N4 N3 1_555 1_555
N5 H2 1_555 1_555
N6 Sr1 1_555 1_555
N7 N6 1_555 1_555
N8 N7 1_555 1_555
O1 C1 1_555 1_555
O2 C2 1_555 1_555
O3 Sr1 1_555 1_555
H3 O3 1_555 1_555
O4 Sr1 1_555 1_555
H4 O4 1_555 1_555
H5 O4 1_555 1_555
O5 Sr1 1_555 1_555
H6 O5 1_555 1_555
H7 O5 1_555 1_555
C1 N1 1_555 1_555
C2 N5 1_555 1_555
H3A O3 1_555 1_555
Sr1A N3 1_555 1_555
N1A H1A 1_555 1_555
N2A Sr1A 1_555 1_555
N3A Sr1 1_555 1_555
N4A N3A 1_555 1_555
N5A H2A 1_555 1_555
N6A Sr1A 1_555 1_555
N7A N6A 1_555 1_555
N8A N7A 1_555 1_555
O1A C1A 1_555 1_555
O2A C2A 1_555 1_555
O4A Sr1A 1_555 1_555
H4A O4A 1_555 1_555
H5A O4A 1_555 1_555
O5A Sr1A 1_555 1_555
H6A O5A 1_555 1_555
H7A O5A 1_555 1_555
C1A N1A 1_555 1_555
C2A N5A 1_555 1_555
O3D Sr1 1_555 1_555
H3D O3D 1_555 1_555
O4D Sr1A 1_555 1_555
H4D O4D 1_555 1_555
H5D O4D 1_555 1_555
O5D Sr1A 1_555 1_555
H6D O5D 1_555 1_555
H7D O5D 1_555 1_555
H3E O3D 1_555 1_555
O4E Sr1 1_555 1_555
H4E O4E 1_555 1_555
H5E O4E 1_555 1_555
O5E Sr1 1_555 1_555
H6E O5E 1_555 1_555
H7E O5E 1_555 1_555
N4 C1 1_555 1_555
N5 N6 1_555 1_555
N8 C2 1_555 1_555
O3 Sr1A 1_555 1_555
Sr1A O3D 1_555 1_555
N1A N2A 1_555 1_555
N2A N3A 1_555 1_555
N4A C1A 1_555 1_555
N5A N6A 1_555 1_555
N8A C2A 1_555 1_555

#END
