
#######################################################################
#
#                 Cambridge Crystallographic Data Centre
#                                CCDC 
#
#######################################################################
#
# If this CIF has been generated from an entry in the Cambridge 
# Structural Database, then it will include bibliographic, chemical, 
# crystal, experimental, refinement or atomic coordinate data resulting 
# from the CCDC's data processing and validation procedures.
#
#######################################################################

data_JEBKIN
_chemical_formula_moiety         'C2 H10 Mg1 N8 O6'
_chemical_name_systematic        tetraaqua-bis(1H-tetrazol-5-olato)-magnesium
_symmetry_cell_setting           orthorhombic
_symmetry_space_group_name_H-M   'C m c a'
_symmetry_Int_Tables_number      64
_space_group_name_Hall           '-C 2ac 2'
loop_
_symmetry_equiv_pos_site_id
_symmetry_equiv_pos_as_xyz
1 x,y,z
2 -x,1/2-y,1/2+z
3 -x,1/2+y,1/2-z
4 x,-y,-z
5 1/2+x,1/2+y,z
6 1/2-x,-y,1/2+z
7 1/2-x,y,1/2-z
8 1/2+x,1/2-y,-z
9 -x,-y,-z
10 x,1/2+y,1/2-z
11 x,1/2-y,1/2+z
12 -x,y,z
13 1/2-x,1/2-y,-z
14 1/2+x,y,1/2-z
15 1/2+x,-y,1/2+z
16 1/2-x,1/2+y,z
_cell_length_a                   6.6379(5)
_cell_length_b                   16.5198(14)
_cell_length_c                   9.1359(7)
_cell_angle_alpha                90
_cell_angle_beta                 90
_cell_angle_gamma                90
_cell_volume                     1001.81
_exptl_crystal_colour            white
_exptl_crystal_description       block
_cell_formula_units_Z            4
loop_
_atom_site_label
_atom_site_type_symbol
_atom_site_fract_x
_atom_site_fract_y
_atom_site_fract_z
Mg1 Mg 0.5000 0.5000 0.0000
N1 N 0.5000 0.30296(15) 0.1880(3)
H1 H 0.5000 0.2964 0.0946
N2 N 0.5000 0.27715(17) 0.4126(3)
N3 N 0.5000 0.35865(16) 0.4010(3)
C1 C 0.5000 0.37475(19) 0.2566(4)
N4 N 0.5000 0.24328(16) 0.2866(3)
O1 O 0.4538(5) 0.44274(16) 0.1979(3)
O2 O 0.6598(6) 0.5952(2) 0.0852(3)
H2 H 0.6123 0.6381 0.1232
H3 H 0.7593 0.6081 0.0315
O1K O 0.5462(5) 0.44274(16) 0.1979(3)
N1C N 0.5000 0.69704(15) -0.1880(3)
H1C H 0.5000 0.7036 -0.0946
N2C N 0.5000 0.72285(17) -0.4126(3)
N3C N 0.5000 0.64135(16) -0.4010(3)
C1C C 0.5000 0.62525(19) -0.2566(4)
N4C N 0.5000 0.75672(16) -0.2866(3)
O1C O 0.4538(5) 0.55726(16) -0.1979(3)
O2C O 0.6598(6) 0.4048(2) -0.0852(3)
H2C H 0.6123 0.3619 -0.1232
H3C H 0.7593 0.3919 -0.0315
O1H O 0.5462(5) 0.55726(16) -0.1979(3)
O2H O 0.3402(6) 0.4048(2) -0.0852(3)
H2H H 0.3877 0.3619 -0.1232
H3H H 0.2407 0.3919 -0.0315
O2K O 0.3402(6) 0.5952(2) 0.0852(3)
H2K H 0.3877 0.6381 0.1232
H3K H 0.2407 0.6081 0.0315
O3? O 0.7633(6) 0.5438(2) 0.0871(3)
H4? H 0.8307 0.5158 0.1478
H5? H 0.8448 0.5714 0.0355
loop_
_geom_bond_atom_site_label_1
_geom_bond_atom_site_label_2
_geom_bond_site_symmetry_1
_geom_bond_site_symmetry_2
Mg1 O1 1_555 1_555
N1 H1 1_555 1_555
N2 N3 1_555 1_555
N3 C1 1_555 1_555
C1 N1 1_555 1_555
N4 N1 1_555 1_555
O1 C1 1_555 1_555
O2 Mg1 1_555 1_555
H2 O2 1_555 1_555
H3 O2 1_555 1_555
O1K Mg1 1_555 1_555
N1C H1C 1_555 1_555
N2C N3C 1_555 1_555
N3C C1C 1_555 1_555
C1C N1C 1_555 1_555
N4C N1C 1_555 1_555
O1C Mg1 1_555 1_555
O2C Mg1 1_555 1_555
H2C O2C 1_555 1_555
H3C O2C 1_555 1_555
O1H Mg1 1_555 1_555
O2H Mg1 1_555 1_555
H2H O2H 1_555 1_555
H3H O2H 1_555 1_555
O2K Mg1 1_555 1_555
H2K O2K 1_555 1_555
H3K O2K 1_555 1_555
N2 N4 1_555 1_555
C1 O1K 1_555 1_555
O1 O1K 1_555 1_555
N2C N4C 1_555 1_555
C1C O1C 1_555 1_555
C1C O1H 1_555 1_555
O1C O1H 1_555 1_555

#END
