
#######################################################################
#
#                 Cambridge Crystallographic Data Centre
#                                CCDC 
#
#######################################################################
#
# If this CIF has been generated from an entry in the Cambridge 
# Structural Database, then it will include bibliographic, chemical, 
# crystal, experimental, refinement or atomic coordinate data resulting 
# from the CCDC's data processing and validation procedures.
#
#######################################################################

data_JEBLUX01
_chemical_formula_moiety         'C36 H46 B2'
_chemical_name_systematic        bis((\m~2~-hydrido)-dimesityl-borane)
_symmetry_cell_setting           monoclinic
_symmetry_space_group_name_H-M   'P 2/n'
_symmetry_Int_Tables_number      13
_space_group_name_Hall           '-P 2yac'
loop_
_symmetry_equiv_pos_site_id
_symmetry_equiv_pos_as_xyz
1 x,y,z
2 1/2+x,-y,1/2+z
3 -x,-y,-z
4 1/2-x,y,1/2-z
_cell_length_a                   12.2778(8)
_cell_length_b                   7.7353(6)
_cell_length_c                   16.5979(12)
_cell_angle_alpha                90
_cell_angle_beta                 109.836(3)
_cell_angle_gamma                90
_cell_volume                     1482.82
_exptl_crystal_colour            yellow
_exptl_crystal_description       Block
_cell_formula_units_Z            2
loop_
_atom_site_label
_atom_site_type_symbol
_atom_site_fract_x
_atom_site_fract_y
_atom_site_fract_z
C1 C 0.99833(7) 0.36235(12) 0.29593(6)
C2 C 1.11724(8) 0.34149(12) 0.31225(6)
H1 H 1.16319(18) 0.4429(3) 0.29090(15)
C3 C 0.72235(8) 0.41188(13) 0.50051(6)
H2 H 0.7454(2) 0.5242(3) 0.54226(14)
C4 C 1.11707(8) 0.07222(12) 0.38223(6)
H3 H 1.16225(18) -0.0418(3) 0.41578(15)
C5 C 1.17834(8) 0.19765(12) 0.35472(6)
C6 C 0.66782(7) 0.12406(12) 0.39324(6)
C7 C 0.99849(8) 0.08851(12) 0.36711(6)
C8 C 0.77230(8) 0.39319(12) 0.43710(6)
C9 C 0.74528(7) 0.24817(12) 0.38098(6)
C10 C 0.61839(8) 0.14871(12) 0.45711(6)
H4 H 0.55850(19) 0.0512(3) 0.46429(15)
C11 C 0.63333(8) -0.04051(13) 0.34190(6)
H5 H 0.6865(2) -0.0704(3) 0.30353(18)
H6 H 0.5441(2) -0.0335(4) 0.29877(18)
H7 H 0.6393(3) -0.1501(3) 0.38416(16)
C12 C 0.93597(7) 0.23484(12) 0.32311(5)
C13 C 1.30632(8) 0.17862(14) 0.37191(6)
H8 H 1.3276(3) 0.0539(5) 0.3544(4)
H9 H 1.3545(2) 0.1945(6) 0.43899(19)
H10 H 1.3392(2) 0.2746(5) 0.3394(3)
C14 C 0.64385(8) 0.29148(13) 0.51136(6)
C15 C 0.94499(8) 0.52524(12) 0.24836(6)
H11 H 1.0043(2) 0.6328(3) 0.26840(19)
H12 H 0.8656(2) 0.5636(3) 0.25816(19)
H13 H 0.9248(3) 0.5091(4) 0.17968(15)
C16 C 0.58990(9) 0.31604(14) 0.57969(6)
H14 H 0.6460(17) 0.372(4) 0.6352(12)
H15 H 0.514(2) 0.394(4) 0.5582(12)
H16 H 0.562(2) 0.199(2) 0.5994(15)
C17 C 0.93883(8) -0.05893(12) 0.39492(6)
H20 H 1.0018(2) -0.1534(3) 0.43231(17)
H21 H 0.8804(2) -0.1263(3) 0.33943(15)
H22 H 0.8877(2) -0.0162(3) 0.43337(17)
C18 C 0.84916(8) 0.53789(13) 0.42748(6)
H23 H 0.8701(2) 0.6261(3) 0.48198(16)
H24 H 0.8054(2) 0.6141(3) 0.36983(16)
H25 H 0.9297(2) 0.4920(3) 0.42170(17)
B1 B 0.80011(9) 0.24143(14) 0.30626(7)
H26 H 0.7500 0.1165(4) 0.2500
H27 H 0.7500 0.3669(4) 0.2500
B1C B 0.69989(9) 0.24143(14) 0.19374(7)
C9C C 0.75472(7) 0.24817(12) 0.11902(6)
C6C C 0.83218(7) 0.12406(12) 0.10676(6)
C10C C 0.88161(8) 0.14871(12) 0.04289(6)
H4C H 0.94150(19) 0.0512(3) 0.03571(15)
C14C C 0.85615(8) 0.29148(13) -0.01136(6)
C3C C 0.77765(8) 0.41188(13) -0.00051(6)
H2C H 0.7546(2) 0.5242(3) -0.04226(14)
C8C C 0.72770(8) 0.39319(12) 0.06290(6)
C18C C 0.65084(8) 0.53789(13) 0.07252(6)
H23C H 0.6299(2) 0.6261(3) 0.01802(16)
H24C H 0.6946(2) 0.6141(3) 0.13017(16)
H25C H 0.5703(2) 0.4920(3) 0.07830(17)
C16C C 0.91010(9) 0.31604(14) -0.07969(6)
H14C H 0.8540(17) 0.372(4) -0.1352(12)
H15C H 0.986(2) 0.394(4) -0.0582(12)
H16C H 0.938(2) 0.199(2) -0.0994(15)
C11C C 0.86667(8) -0.04051(13) 0.15810(6)
H5C H 0.8135(2) -0.0704(3) 0.19647(18)
H6C H 0.9559(2) -0.0335(4) 0.20123(18)
H7C H 0.8607(3) -0.1501(3) 0.11584(16)
C12C C 0.56403(7) 0.23484(12) 0.17689(5)
C1C C 0.50167(7) 0.36235(12) 0.20407(6)
C2C C 0.38276(8) 0.34149(12) 0.18775(6)
H1C H 0.33681(18) 0.4429(3) 0.20910(15)
C5C C 0.32166(8) 0.19765(12) 0.14528(6)
C4C C 0.38293(8) 0.07222(12) 0.11777(6)
H3C H 0.33775(18) -0.0418(3) 0.08422(15)
C7C C 0.50151(8) 0.08851(12) 0.13289(6)
C17C C 0.56117(8) -0.05893(12) 0.10508(6)
H20C H 0.4982(2) -0.1534(3) 0.06769(17)
H21C H 0.6196(2) -0.1263(3) 0.16057(15)
H22C H 0.6123(2) -0.0162(3) 0.06663(17)
C13C C 0.19368(8) 0.17862(14) 0.12809(6)
H8C H 0.1724(3) 0.0539(5) 0.1456(4)
H9C H 0.1455(2) 0.1945(6) 0.06101(19)
H10C H 0.1608(2) 0.2746(5) 0.1606(3)
C15C C 0.55501(8) 0.52524(12) 0.25164(6)
H11C H 0.4957(2) 0.6328(3) 0.23160(19)
H12C H 0.6344(2) 0.5636(3) 0.24184(19)
H13C H 0.5752(3) 0.5091(4) 0.32032(15)
H17? H 0.555(3) 0.4386(15) 0.5781(16)
H18? H 0.529(2) 0.225(3) 0.5775(17)
H19? H 0.6546(14) 0.310(4) 0.6414(8)
loop_
_geom_bond_atom_site_label_1
_geom_bond_atom_site_label_2
_geom_bond_site_symmetry_1
_geom_bond_site_symmetry_2
C1 C2 1_555 1_555
C2 H1 1_555 1_555
C3 H2 1_555 1_555
C4 H3 1_555 1_555
C5 C2 1_555 1_555
C6 C9 1_555 1_555
C7 C4 1_555 1_555
C8 C3 1_555 1_555
C9 C8 1_555 1_555
C10 C6 1_555 1_555
H4 C10 1_555 1_555
C11 C6 1_555 1_555
H5 C11 1_555 1_555
H6 C11 1_555 1_555
H7 C11 1_555 1_555
C12 C1 1_555 1_555
C13 C5 1_555 1_555
H8 C13 1_555 1_555
H9 C13 1_555 1_555
H10 C13 1_555 1_555
C14 C3 1_555 1_555
C15 C1 1_555 1_555
H11 C15 1_555 1_555
H12 C15 1_555 1_555
H13 C15 1_555 1_555
C16 C14 1_555 1_555
H14 C16 1_555 1_555
H15 C16 1_555 1_555
H16 C16 1_555 1_555
C17 C7 1_555 1_555
H20 C17 1_555 1_555
H21 C17 1_555 1_555
H22 C17 1_555 1_555
C18 C8 1_555 1_555
H23 C18 1_555 1_555
H24 C18 1_555 1_555
H25 C18 1_555 1_555
B1 C9 1_555 1_555
H26 B1 1_555 1_555
H27 B1 1_555 1_555
B1C H26 1_555 1_555
C9C B1C 1_555 1_555
C6C C9C 1_555 1_555
C10C C6C 1_555 1_555
H4C C10C 1_555 1_555
C14C C10C 1_555 1_555
C3C C14C 1_555 1_555
H2C C3C 1_555 1_555
C8C C9C 1_555 1_555
C18C C8C 1_555 1_555
H23C C18C 1_555 1_555
H24C C18C 1_555 1_555
H25C C18C 1_555 1_555
C16C C14C 1_555 1_555
H14C C16C 1_555 1_555
H15C C16C 1_555 1_555
H16C C16C 1_555 1_555
C11C C6C 1_555 1_555
H5C C11C 1_555 1_555
H6C C11C 1_555 1_555
H7C C11C 1_555 1_555
C12C B1C 1_555 1_555
C1C C12C 1_555 1_555
C2C C1C 1_555 1_555
H1C C2C 1_555 1_555
C5C C2C 1_555 1_555
C4C C5C 1_555 1_555
H3C C4C 1_555 1_555
C7C C12C 1_555 1_555
C17C C7C 1_555 1_555
H20C C17C 1_555 1_555
H21C C17C 1_555 1_555
H22C C17C 1_555 1_555
C13C C5C 1_555 1_555
H8C C13C 1_555 1_555
H9C C13C 1_555 1_555
H10C C13C 1_555 1_555
C15C C1C 1_555 1_555
H11C C15C 1_555 1_555
H12C C15C 1_555 1_555
H13C C15C 1_555 1_555
C4 C5 1_555 1_555
C7 C12 1_555 1_555
C10 C14 1_555 1_555
C12 B1 1_555 1_555
H27 B1C 1_555 1_555
C3C C8C 1_555 1_555
C4C C7C 1_555 1_555

#END
