
#######################################################################
#
#                 Cambridge Crystallographic Data Centre
#                                CCDC 
#
#######################################################################
#
# If this CIF has been generated from an entry in the Cambridge 
# Structural Database, then it will include bibliographic, chemical, 
# crystal, experimental, refinement or atomic coordinate data resulting 
# from the CCDC's data processing and validation procedures.
#
#######################################################################

data_JEBNAG
_chemical_formula_moiety         'C56 H46'
_chemical_name_systematic        
13,13'-(1,2-Phenylene)bis(7-t-butyl-8H-indeno(2,1-b)phenanthrene)
_symmetry_cell_setting           orthorhombic
_symmetry_space_group_name_H-M   'P b c a'
_symmetry_Int_Tables_number      61
_space_group_name_Hall           '-P 2ac 2ab'
loop_
_symmetry_equiv_pos_site_id
_symmetry_equiv_pos_as_xyz
1 x,y,z
2 1/2-x,-y,1/2+z
3 -x,1/2+y,1/2-z
4 1/2+x,1/2-y,-z
5 -x,-y,-z
6 1/2+x,y,1/2-z
7 x,1/2-y,1/2+z
8 1/2-x,1/2+y,z
_cell_length_a                   16.8596(15)
_cell_length_b                   16.7551(15)
_cell_length_c                   30.209(3)
_cell_angle_alpha                90
_cell_angle_beta                 90
_cell_angle_gamma                90
_cell_volume                     8533.57
_cell_formula_units_Z            8
loop_
_atom_site_label
_atom_site_type_symbol
_atom_site_fract_x
_atom_site_fract_y
_atom_site_fract_z
C1 C 0.87681(11) 0.87263(10) 0.29581(6)
C2 C 0.85364(13) 0.80895(12) 0.26885(7)
H1 H 0.8889 0.7671 0.2642
C3 C 0.78048(14) 0.80647(13) 0.24904(8)
H2 H 0.7666 0.7636 0.2311
C4 C 0.72792(13) 0.86794(13) 0.25589(8)
H3 H 0.6777 0.8661 0.2431
C5 C 0.74955(12) 0.93215(12) 0.28157(7)
H4 H 0.7136 0.9735 0.2858
C6 C 0.82421(10) 0.93674(10) 0.30139(6)
C7 C 0.85247(10) 1.00993(10) 0.32601(7)
C8 C 0.87928(11) 1.07660(10) 0.30315(7)
C9 C 0.87049(11) 1.09747(11) 0.25587(7)
C10 C 0.83472(13) 1.05903(13) 0.22011(7)
H5 H 0.8112 1.0093 0.2238
C11 C 0.83472(13) 1.09593(14) 0.17908(8)
H6 H 0.8109 1.0704 0.1552
C12 C 0.86919(14) 1.16961(14) 0.17291(8)
H7 H 0.8685 1.1933 0.1451
C13 C 0.90475(13) 1.20845(13) 0.20803(8)
H8 H 0.9281 1.2583 0.2041
C14 C 0.90510(12) 1.17211(11) 0.24907(7)
C15 C 0.94008(13) 1.20358(12) 0.29105(7)
H9 H 0.9156 1.2538 0.2993
H10 H 0.9968 1.2115 0.2880
C16 C 0.92210(11) 1.13939(10) 0.32486(7)
C17 C 0.94578(11) 1.13288(10) 0.36874(7)
C18 C 0.92161(11) 1.06122(11) 0.39153(6)
C19 C 0.95534(13) 1.03594(12) 0.43316(7)
H11 H 0.9977 1.0647 0.4448
C20 C 0.92821(15) 0.97297(13) 0.45573(7)
H12 H 0.9563 0.9548 0.4802
C21 C 0.85746(14) 0.93328(12) 0.44307(7)
C22 C 0.81749(19) 0.88027(15) 0.47128(9)
H13 H 0.8410 0.8652 0.4978
C23 C 0.7456(2) 0.85070(18) 0.46059(10)
H14 H 0.7203 0.8147 0.4793
C24 C 0.70934(19) 0.87485(17) 0.42098(10)
H15 H 0.6584 0.8572 0.4143
C25 C 0.74795(14) 0.92398(13) 0.39218(8)
H16 H 0.7233 0.9389 0.3659
C26 C 0.82450(12) 0.95245(11) 0.40159(7)
C27 C 0.86601(11) 1.00808(10) 0.37243(7)
C28 C 0.95330(11) 0.86899(10) 0.32105(7)
C29 C 0.95680(11) 0.82231(11) 0.35885(7)
C30 C 0.89744(12) 0.76490(11) 0.37689(7)
C31 C 0.82236(13) 0.74032(13) 0.36336(9)
H17 H 0.7987 0.7636 0.3387
C32 C 0.78286(17) 0.68099(15) 0.38665(11)
H18 H 0.7335 0.6634 0.3769
C33 C 0.81625(18) 0.64798(17) 0.42411(11)
H19 H 0.7892 0.6085 0.4396
C34 C 0.88892(18) 0.67308(16) 0.43859(10)
H20 H 0.9110 0.6513 0.4641
C35 C 0.92931(14) 0.73105(13) 0.41515(8)
C36 C 1.00948(14) 0.76527(14) 0.42478(8)
H21 H 1.0494 0.7236 0.4254
H22 H 1.0096 0.7928 0.4530
C37 C 1.02472(11) 0.82300(11) 0.38714(7)
C38 C 1.08855(12) 0.87364(11) 0.37991(7)
C39 C 1.08134(11) 0.92710(11) 0.34272(7)
C40 C 1.13209(12) 0.99544(13) 0.33681(8)
H23 H 1.1702 1.0058 0.3583
C41 C 1.12741(13) 1.04498(13) 0.30198(9)
H24 H 1.1566 1.0921 0.3021
C42 C 1.07892(12) 1.02674(12) 0.26515(8)
C43 C 1.08605(15) 1.06839(13) 0.22469(10)
H25 H 1.1172 1.1141 0.2235
C44 C 1.04864(17) 1.04342(16) 0.18758(10)
H26 H 1.0536 1.0718 0.1613
C45 C 1.00277(16) 0.97477(15) 0.18937(8)
H27 H 0.9793 0.9555 0.1637
C46 C 0.99159(13) 0.93485(13) 0.22874(7)
H28 H 0.9596 0.8897 0.2292
C47 C 1.02728(11) 0.96059(11) 0.26832(7)
C48 C 1.01947(11) 0.91840(10) 0.31072(7)
C49 C 0.99318(13) 1.19846(12) 0.39452(7)
C50 C 1.08117(15) 1.17490(16) 0.39990(9)
H29 H 1.1056 1.1713 0.3713
H30 H 1.0846 1.1242 0.4145
H31 H 1.1080 1.2146 0.4172
C51 C 0.99344(19) 1.28009(14) 0.37179(9)
H32 H 1.0177 1.3187 0.3909
H33 H 0.9399 1.2960 0.3655
H34 H 1.0229 1.2768 0.3446
C52 C 0.95421(17) 1.21442(14) 0.43959(8)
H35 H 0.9612 1.1688 0.4584
H36 H 0.8986 1.2242 0.4355
H37 H 0.9784 1.2602 0.4531
C53 C 1.16517(12) 0.87477(13) 0.40869(8)
C54 C 1.17559(15) 0.80269(16) 0.43950(9)
H38 H 1.2272 0.8046 0.4529
H39 H 1.1704 0.7543 0.4227
H40 H 1.1357 0.8041 0.4622
C55 C 1.23929(13) 0.87090(15) 0.37822(9)
H41 H 1.2864 0.8755 0.3959
H42 H 1.2374 0.9139 0.3573
H43 H 1.2398 0.8209 0.3627
C56 C 1.16603(15) 0.94818(16) 0.43958(9)
H44 H 1.1197 0.9475 0.4580
H45 H 1.1663 0.9960 0.4221
H46 H 1.2126 0.9467 0.4578
loop_
_geom_bond_atom_site_label_1
_geom_bond_atom_site_label_2
_geom_bond_site_symmetry_1
_geom_bond_site_symmetry_2
C1 C2 1_555 1_555
C2 H1 1_555 1_555
C3 C2 1_555 1_555
H2 C3 1_555 1_555
C4 C3 1_555 1_555
H3 C4 1_555 1_555
C5 C4 1_555 1_555
H4 C5 1_555 1_555
C6 C1 1_555 1_555
C7 C6 1_555 1_555
C8 C7 1_555 1_555
C9 C8 1_555 1_555
C10 C9 1_555 1_555
H5 C10 1_555 1_555
C11 C10 1_555 1_555
H6 C11 1_555 1_555
C12 C11 1_555 1_555
H7 C12 1_555 1_555
C13 C12 1_555 1_555
H8 C13 1_555 1_555
C14 C9 1_555 1_555
C15 C14 1_555 1_555
H9 C15 1_555 1_555
H10 C15 1_555 1_555
C16 C8 1_555 1_555
C17 C16 1_555 1_555
C18 C17 1_555 1_555
C19 C18 1_555 1_555
H11 C19 1_555 1_555
C20 C19 1_555 1_555
H12 C20 1_555 1_555
C21 C20 1_555 1_555
C22 C21 1_555 1_555
H13 C22 1_555 1_555
C23 C22 1_555 1_555
H14 C23 1_555 1_555
C24 C23 1_555 1_555
H15 C24 1_555 1_555
C25 C24 1_555 1_555
H16 C25 1_555 1_555
C26 C21 1_555 1_555
C27 C7 1_555 1_555
C28 C1 1_555 1_555
C29 C28 1_555 1_555
C30 C29 1_555 1_555
C31 C30 1_555 1_555
H17 C31 1_555 1_555
C32 C31 1_555 1_555
H18 C32 1_555 1_555
C33 C32 1_555 1_555
H19 C33 1_555 1_555
C34 C33 1_555 1_555
H20 C34 1_555 1_555
C35 C30 1_555 1_555
C36 C35 1_555 1_555
H21 C36 1_555 1_555
H22 C36 1_555 1_555
C37 C29 1_555 1_555
C38 C37 1_555 1_555
C39 C38 1_555 1_555
C40 C39 1_555 1_555
H23 C40 1_555 1_555
C41 C40 1_555 1_555
H24 C41 1_555 1_555
C42 C41 1_555 1_555
C43 C42 1_555 1_555
H25 C43 1_555 1_555
C44 C43 1_555 1_555
H26 C44 1_555 1_555
C45 C44 1_555 1_555
H27 C45 1_555 1_555
C46 C45 1_555 1_555
H28 C46 1_555 1_555
C47 C42 1_555 1_555
C48 C28 1_555 1_555
C49 C17 1_555 1_555
C50 C49 1_555 1_555
H29 C50 1_555 1_555
H30 C50 1_555 1_555
H31 C50 1_555 1_555
C51 C49 1_555 1_555
H32 C51 1_555 1_555
H33 C51 1_555 1_555
H34 C51 1_555 1_555
C52 C49 1_555 1_555
H35 C52 1_555 1_555
H36 C52 1_555 1_555
H37 C52 1_555 1_555
C53 C38 1_555 1_555
C54 C53 1_555 1_555
H38 C54 1_555 1_555
H39 C54 1_555 1_555
H40 C54 1_555 1_555
C55 C53 1_555 1_555
H41 C55 1_555 1_555
H42 C55 1_555 1_555
H43 C55 1_555 1_555
C56 C53 1_555 1_555
H44 C56 1_555 1_555
H45 C56 1_555 1_555
H46 C56 1_555 1_555
C5 C6 1_555 1_555
C13 C14 1_555 1_555
C15 C16 1_555 1_555
C18 C27 1_555 1_555
C25 C26 1_555 1_555
C26 C27 1_555 1_555
C34 C35 1_555 1_555
C36 C37 1_555 1_555
C39 C48 1_555 1_555
C46 C47 1_555 1_555
C47 C48 1_555 1_555

#END
