
#######################################################################
#
#                 Cambridge Crystallographic Data Centre
#                                CCDC 
#
#######################################################################
#
# If this CIF has been generated from an entry in the Cambridge 
# Structural Database, then it will include bibliographic, chemical, 
# crystal, experimental, refinement or atomic coordinate data resulting 
# from the CCDC's data processing and validation procedures.
#
#######################################################################

data_JEBQUC
_chemical_formula_moiety         'C16 H19 N5 O2'
_chemical_name_systematic        
6-(3-Ethylthyminylmethyl)-1-methyl-5-aminobenzimidazole
_symmetry_cell_setting           monoclinic
_symmetry_space_group_name_H-M   'P 21/n'
_symmetry_Int_Tables_number      14
_space_group_name_Hall           '-P 2yn'
loop_
_symmetry_equiv_pos_site_id
_symmetry_equiv_pos_as_xyz
1 x,y,z
2 1/2+x,1/2-y,1/2+z
3 -x,-y,-z
4 1/2-x,1/2+y,1/2-z
_cell_length_a                   7.9755(4)
_cell_length_b                   8.9983(4)
_cell_length_c                   22.1344(3)
_cell_angle_alpha                90.00
_cell_angle_beta                 99.636(2)
_cell_angle_gamma                90.00
_cell_volume                     1566.08
_exptl_crystal_colour            colorless
_exptl_crystal_description       block
_chemical_melting_point          'above 230deg.C'
_cell_formula_units_Z            4
_exptl_crystal_recrystallization_method '95% methanol'
loop_
_atom_site_label
_atom_site_type_symbol
_atom_site_fract_x
_atom_site_fract_y
_atom_site_fract_z
C1 C 0.4709(3) 0.6589(3) 0.10420(13)
H1 H 0.4399 0.6193 0.0626
H2 H 0.5907 0.6346 0.1186
C2 C 0.4518(3) 0.8260(3) 0.10179(13)
N1 N 0.1001(3) 0.4922(3) 0.15641(12)
N2 N 0.6346(3) 0.8533(3) 0.20120(11)
H3 H 0.6841 0.9094 0.2310
H4 H 0.6456 0.7572 0.2037
C3 C 0.5379(3) 0.9173(3) 0.14974(13)
C4 C 0.4447(4) 0.5202(3) 0.19941(14)
O1 O 0.5997(2) 0.5310(2) 0.21534(10)
C5 C 0.5211(4) 1.0716(3) 0.14636(14)
H5 H 0.5768 1.1325 0.1780
N3 N 0.3664(3) 0.5843(2) 0.14430(11)
C6 C 0.4207(4) 1.1329(3) 0.09538(14)
C7 C 0.1952(4) 0.5628(3) 0.11934(16)
O2 O 0.1372(2) 0.6087(2) 0.06794(10)
C8 C 0.3360(3) 1.0424(3) 0.04891(13)
C9 C 0.3347(4) 0.4492(3) 0.23529(15)
C10 C 0.3518(3) 0.8896(3) 0.05121(13)
H6 H 0.2959 0.8301 0.0191
C11 C 0.1699(4) 0.4382(3) 0.21271(15)
H7 H 0.0983 0.3911 0.2365
N4 N 0.3822(4) 1.2798(3) 0.08021(13)
C12 C -0.0818(3) 0.4694(4) 0.13345(16)
H9 H -0.1442 0.4737 0.1680
H10 H -0.1234 0.5503 0.1053
C13 C 0.2794(4) 1.2757(4) 0.02817(17)
H11 H 0.2331 1.3616 0.0077
C14 C -0.1175(4) 0.3276(5) 0.10178(19)
H12 H -0.2388 0.3189 0.0872
H13 H -0.0804 0.2468 0.1299
H14 H -0.0571 0.3229 0.0673
N5 N 0.2451(3) 1.1379(3) 0.00623(11)
C15 C 0.1419(4) 1.0965(3) -0.05120(14)
H15 H 0.0921 1.1849 -0.0720
H16 H 0.0521 1.0300 -0.0435
H17 H 0.2121 1.0467 -0.0768
C16 C 0.4081(4) 0.3927(4) 0.29848(15)
H18 H 0.3186 0.3472 0.3169
H19 H 0.4572 0.4750 0.3238
H20 H 0.4956 0.3197 0.2953
H8? H 0.4192 1.3584 0.1012
loop_
_geom_bond_atom_site_label_1
_geom_bond_atom_site_label_2
_geom_bond_site_symmetry_1
_geom_bond_site_symmetry_2
C1 H1 1_555 1_555
H2 C1 1_555 1_555
C2 C1 1_555 1_555
N1 C7 1_555 1_555
N2 H3 1_555 1_555
H4 N2 1_555 1_555
C3 C2 1_555 1_555
C4 O1 1_555 1_555
C5 C3 1_555 1_555
H5 C5 1_555 1_555
N3 C1 1_555 1_555
C6 C5 1_555 1_555
C7 N3 1_555 1_555
O2 C7 1_555 1_555
C8 C6 1_555 1_555
C9 C4 1_555 1_555
C10 C2 1_555 1_555
H6 C10 1_555 1_555
C11 N1 1_555 1_555
H7 C11 1_555 1_555
N4 C6 1_555 1_555
C12 N1 1_555 1_555
H9 C12 1_555 1_555
H10 C12 1_555 1_555
C13 N4 1_555 1_555
H11 C13 1_555 1_555
C14 C12 1_555 1_555
H12 C14 1_555 1_555
H13 C14 1_555 1_555
H14 C14 1_555 1_555
N5 C8 1_555 1_555
C15 N5 1_555 1_555
H15 C15 1_555 1_555
H16 C15 1_555 1_555
H17 C15 1_555 1_555
C16 C9 1_555 1_555
H18 C16 1_555 1_555
H19 C16 1_555 1_555
H20 C16 1_555 1_555
N2 C3 1_555 1_555
C4 N3 1_555 1_555
C8 C10 1_555 1_555
C9 C11 1_555 1_555
C13 N5 1_555 1_555

#END
