
#######################################################################
#
#                 Cambridge Crystallographic Data Centre
#                                CCDC 
#
#######################################################################
#
# If this CIF has been generated from an entry in the Cambridge 
# Structural Database, then it will include bibliographic, chemical, 
# crystal, experimental, refinement or atomic coordinate data resulting 
# from the CCDC's data processing and validation procedures.
#
#######################################################################

data_JEBTES
_chemical_formula_moiety         'C28 H25 F1 O3 S1'
_chemical_name_systematic        
4-(4-fluorophenyl)-1-methyl-3-((4-methylphenyl)sulfonyl)-1,2,3,4-tetrahydrophenanthren-9-ol
_symmetry_cell_setting           triclinic
_symmetry_space_group_name_H-M   'P -1'
_symmetry_Int_Tables_number      2
_space_group_name_Hall           '-P 1'
loop_
_symmetry_equiv_pos_site_id
_symmetry_equiv_pos_as_xyz
1 x,y,z
2 -x,-y,-z
_cell_length_a                   7.7512(6)
_cell_length_b                   11.6780(9)
_cell_length_c                   13.0912(10)
_cell_angle_alpha                74.837(2)
_cell_angle_beta                 79.922(2)
_cell_angle_gamma                86.822(2)
_cell_volume                     1126.04
_exptl_crystal_colour            colorless
_cell_formula_units_Z            2
loop_
_atom_site_label
_atom_site_type_symbol
_atom_site_fract_x
_atom_site_fract_y
_atom_site_fract_z
C1 C 0.55315(16) 0.24282(11) 0.37998(10)
H1 H 0.5032 0.1717 0.3671
C2 C 0.40159(16) 0.30775(11) 0.43571(10)
H2 H 0.3043 0.2517 0.4698
H3 H 0.4425 0.3347 0.4930
C3 C 0.33374(16) 0.41526(11) 0.35659(10)
H4 H 0.2957 0.3867 0.2984
C4 C 0.48788(16) 0.49715(11) 0.30675(10)
C5 C 0.48199(16) 0.61732(11) 0.31082(10)
H5 H 0.3771 0.6494 0.3425
C6 C 0.62592(17) 0.68753(11) 0.26962(10)
C7 C 0.78111(16) 0.64372(11) 0.21557(10)
C8 C 0.92542(18) 0.71815(12) 0.16478(11)
H6 H 0.9203 0.7987 0.1677
C9 C 1.07236(18) 0.67583(13) 0.11141(12)
H7 H 1.1688 0.7267 0.0777
C10 C 1.08007(17) 0.55638(12) 0.10663(11)
H8 H 1.1818 0.5273 0.0690
C11 C 0.94298(17) 0.48197(12) 0.15549(10)
H9 H 0.9513 0.4017 0.1516
C12 C 0.78784(16) 0.52254(11) 0.21207(10)
C13 C 0.63988(16) 0.44875(11) 0.26221(10)
C14 C 0.65050(16) 0.31717(11) 0.26971(10)
H10 H 0.7772 0.2945 0.2671
C15 C 0.59098(16) 0.27877(11) 0.17853(10)
C16 C 0.63903(17) 0.16549(11) 0.16586(10)
H11 H 0.7120 0.1169 0.2114
C17 C 0.58246(18) 0.12259(11) 0.08829(11)
H12 H 0.6152 0.0454 0.0803
C18 C 0.47732(18) 0.19517(12) 0.02317(10)
C19 C 0.43028(18) 0.30850(12) 0.03048(11)
H13 H 0.3597 0.3571 -0.0167
C20 C 0.48886(17) 0.35020(11) 0.10893(10)
H14 H 0.4586 0.4284 0.1149
C21 C 0.17519(17) 0.47050(12) 0.41331(11)
H15 H 0.2091 0.4977 0.4717
H16 H 0.0827 0.4113 0.4428
H17 H 0.1318 0.5381 0.3619
C22 C 0.86091(16) 0.10700(11) 0.40876(10)
C23 C 1.01773(17) 0.16069(11) 0.35234(10)
H18 H 1.0447 0.2380 0.3554
C24 C 1.13356(17) 0.09972(12) 0.29188(11)
H19 H 1.2402 0.1360 0.2527
C25 C 1.09608(17) -0.01448(11) 0.28752(10)
C26 C 0.94090(17) -0.06710(11) 0.34713(10)
H20 H 0.9161 -0.1458 0.3469
C27 C 0.82166(17) -0.00669(11) 0.40697(10)
H21 H 0.7148 -0.0428 0.4461
C28 C 1.21926(18) -0.07782(13) 0.21770(11)
H22 H 1.2051 -0.1637 0.2465
H23 H 1.3403 -0.0566 0.2166
H24 H 1.1926 -0.0544 0.1446
F1 F 0.41838(12) 0.15256(7) -0.05123(7)
O1 O 0.60356(12) 0.11214(8) 0.56727(7)
O2 O 0.78856(12) 0.29032(8) 0.48762(8)
O3 O 0.63224(12) 0.80195(8) 0.27635(7)
H25 H 0.5451 0.8160 0.3196
S1 S 0.70315(4) 0.19071(3) 0.47313(2)
loop_
_geom_bond_atom_site_label_1
_geom_bond_atom_site_label_2
_geom_bond_site_symmetry_1
_geom_bond_site_symmetry_2
C1 H1 1_555 1_555
C2 C1 1_555 1_555
H2 C2 1_555 1_555
H3 C2 1_555 1_555
C3 C2 1_555 1_555
H4 C3 1_555 1_555
C4 C3 1_555 1_555
C5 C4 1_555 1_555
H5 C5 1_555 1_555
C6 C5 1_555 1_555
C7 C6 1_555 1_555
C8 C7 1_555 1_555
H6 C8 1_555 1_555
C9 C8 1_555 1_555
H7 C9 1_555 1_555
C10 C9 1_555 1_555
H8 C10 1_555 1_555
C11 C10 1_555 1_555
H9 C11 1_555 1_555
C12 C7 1_555 1_555
C13 C4 1_555 1_555
C14 C1 1_555 1_555
H10 C14 1_555 1_555
C15 C14 1_555 1_555
C16 C15 1_555 1_555
H11 C16 1_555 1_555
C17 C16 1_555 1_555
H12 C17 1_555 1_555
C18 C17 1_555 1_555
C19 C18 1_555 1_555
H13 C19 1_555 1_555
C20 C15 1_555 1_555
H14 C20 1_555 1_555
C21 C3 1_555 1_555
H15 C21 1_555 1_555
H16 C21 1_555 1_555
H17 C21 1_555 1_555
C22 C23 1_555 1_555
C23 H18 1_555 1_555
C24 C23 1_555 1_555
H19 C24 1_555 1_555
C25 C24 1_555 1_555
C26 C25 1_555 1_555
H20 C26 1_555 1_555
C27 C22 1_555 1_555
H21 C27 1_555 1_555
C28 C25 1_555 1_555
H22 C28 1_555 1_555
H23 C28 1_555 1_555
H24 C28 1_555 1_555
F1 C18 1_555 1_555
O1 S1 1_555 1_555
O2 S1 1_555 1_555
O3 C6 1_555 1_555
H25 O3 1_555 1_555
S1 C1 1_555 1_555
C11 C12 1_555 1_555
C12 C13 1_555 1_555
C13 C14 1_555 1_555
C19 C20 1_555 1_555
C22 S1 1_555 1_555
C26 C27 1_555 1_555

#END
