
#######################################################################
#
#                 Cambridge Crystallographic Data Centre
#                                CCDC 
#
#######################################################################
#
# If this CIF has been generated from an entry in the Cambridge 
# Structural Database, then it will include bibliographic, chemical, 
# crystal, experimental, refinement or atomic coordinate data resulting 
# from the CCDC's data processing and validation procedures.
#
#######################################################################

data_JEBTIW
_chemical_formula_moiety         'C34 H30 O3 S1'
_chemical_name_systematic        
4-(1-(biphenyl-4-yl)-2-((4-methylphenyl)sulfonyl)pent-4-en-1-yl)naphthalen-1-ol
_symmetry_cell_setting           orthorhombic
_symmetry_space_group_name_H-M   'P c a 21'
_symmetry_Int_Tables_number      29
_space_group_name_Hall           'P 2c -2ac'
loop_
_symmetry_equiv_pos_site_id
_symmetry_equiv_pos_as_xyz
1 x,y,z
2 -x,-y,1/2+z
3 1/2+x,-y,z
4 1/2-x,y,1/2+z
_cell_length_a                   11.4491(5)
_cell_length_b                   17.7989(6)
_cell_length_c                   26.9170(11)
_cell_angle_alpha                90
_cell_angle_beta                 90
_cell_angle_gamma                90
_cell_volume                     5485.18
_exptl_crystal_colour            colorless
_cell_formula_units_Z            8
loop_
_atom_site_label
_atom_site_type_symbol
_atom_site_fract_x
_atom_site_fract_y
_atom_site_fract_z
S1 S 0.68641(13) 0.18519(8) 0.42406(5)
O1 O 0.5631(4) 0.1960(3) 0.4156(2)
O2 O 0.7483(4) 0.2426(2) 0.45051(16)
O3 O 0.8172(5) -0.1714(3) 0.6058(2)
H1 H 0.7787 -0.2056 0.5937
C1 C 0.7503(6) 0.1767(3) 0.3652(2)
C2 C 0.7025(8) 0.1290(4) 0.3304(3)
H2 H 0.6394 0.0985 0.3384
C3 C 0.7516(10) 0.1276(5) 0.2824(3)
H3 H 0.7195 0.0959 0.2586
C4 C 0.8446(9) 0.1713(5) 0.2701(3)
C5 C 0.8904(7) 0.2152(5) 0.3057(3)
H4 H 0.9558 0.2439 0.2980
C6 C 0.8450(6) 0.2196(3) 0.3530(3)
H5 H 0.8785 0.2514 0.3764
C7 C 0.6999(5) 0.0961(3) 0.4573(2)
H6 H 0.6849 0.0551 0.4339
C8 C 0.8240(5) 0.0856(3) 0.4793(2)
H7 H 0.8372 0.1283 0.5016
C9 C 0.8275(5) 0.0155(3) 0.5115(2)
C10 C 0.7759(6) -0.0499(3) 0.4973(2)
H8 H 0.7407 -0.0520 0.4662
C11 C 0.7732(6) -0.1146(4) 0.5273(3)
H9 H 0.7396 -0.1587 0.5154
C12 C 0.8200(6) -0.1122(4) 0.5735(2)
C13 C 0.8773(5) -0.0473(3) 0.5904(2)
C14 C 0.9285(6) -0.0456(4) 0.6376(3)
H10 H 0.9220 -0.0872 0.6584
C15 C 0.9882(8) 0.0166(5) 0.6536(3)
H11 H 1.0200 0.0176 0.6854
C16 C 1.0012(8) 0.0785(4) 0.6222(3)
H12 H 1.0457 0.1194 0.6325
C17 C 0.9493(6) 0.0795(3) 0.5766(3)
H13 H 0.9566 0.1219 0.5567
C18 C 0.8837(5) 0.0166(3) 0.5588(2)
C19 C 0.6031(6) 0.0954(4) 0.4972(2)
H14 H 0.5284 0.1034 0.4810
H15 H 0.6011 0.0461 0.5125
C20 C 0.6173(7) 0.1535(5) 0.5373(3)
H16 H 0.6022 0.2033 0.5291
C21 C 0.6484(9) 0.1394(6) 0.5817(3)
H17 H 0.6642 0.0903 0.5913
H18 H 0.6553 0.1783 0.6046
C22 C 0.9213(5) 0.0878(3) 0.4410(2)
C23 C 0.9282(5) 0.0382(3) 0.4015(2)
H19 H 0.8741 -0.0006 0.3990
C24 C 1.0140(6) 0.0452(3) 0.3657(2)
H20 H 1.0142 0.0126 0.3387
C25 C 1.1001(5) 0.1000(3) 0.3691(2)
C26 C 1.0949(6) 0.1476(4) 0.4095(2)
H21 H 1.1521 0.1843 0.4130
C27 C 1.0077(5) 0.1426(3) 0.4450(2)
H22 H 1.0068 0.1760 0.4716
C28 C 0.8921(11) 0.1673(7) 0.2185(3)
H23 H 0.8736 0.2128 0.2011
H24 H 0.8578 0.1253 0.2015
H25 H 0.9753 0.1611 0.2198
C29 C 1.1914(6) 0.1110(4) 0.3301(3)
C30 C 1.1776(8) 0.0879(6) 0.2823(3)
H26 H 1.1090 0.0635 0.2733
C31 C 1.2634(10) 0.0997(7) 0.2468(4)
H27 H 1.2529 0.0817 0.2147
C32 C 1.3612(10) 0.1367(7) 0.2585(4)
H28 H 1.4150 0.1486 0.2339
C33 C 1.3818(9) 0.1568(7) 0.3057(4)
H29 H 1.4523 0.1795 0.3140
C34 C 1.2986(7) 0.1439(5) 0.3423(3)
H30 H 1.3143 0.1571 0.3750
S2 S 0.58057(13) 0.68524(8) 0.56993(6)
O4 O 0.7048(4) 0.6971(3) 0.5756(2)
O5 O 0.5142(4) 0.7421(2) 0.54433(16)
O6 O 0.4391(5) 0.3237(3) 0.39311(18)
H31 H 0.4548 0.2851 0.4084
C35 C 0.5232(5) 0.6757(3) 0.6301(2)
C36 C 0.5786(7) 0.6280(5) 0.6638(3)
H32 H 0.6420 0.5988 0.6541
C37 C 0.5375(9) 0.6252(5) 0.7110(3)
H33 H 0.5733 0.5931 0.7336
C38 C 0.4430(8) 0.6690(5) 0.7267(3)
C39 C 0.3935(7) 0.7154(5) 0.6931(3)
H34 H 0.3321 0.7460 0.7032
C40 C 0.4306(6) 0.7190(4) 0.6444(2)
H35 H 0.3933 0.7503 0.6217
C41 C 0.5655(5) 0.5967(3) 0.5372(2)
H36 H 0.5840 0.5557 0.5602
C42 C 0.4405(5) 0.5846(3) 0.5168(2)
H37 H 0.4252 0.6263 0.4940
C43 C 0.4336(5) 0.5126(3) 0.4856(2)
C44 C 0.4880(6) 0.4475(3) 0.5002(2)
H38 H 0.5251 0.4462 0.5310
C45 C 0.4895(6) 0.3835(3) 0.4705(3)
H39 H 0.5263 0.3403 0.4820
C46 C 0.4382(5) 0.3832(3) 0.4252(3)
C47 C 0.3790(5) 0.4478(3) 0.4080(2)
C48 C 0.3236(7) 0.4496(4) 0.3615(3)
H40 H 0.3300 0.4084 0.3404
C49 C 0.2615(8) 0.5100(4) 0.3467(3)
H41 H 0.2243 0.5098 0.3160
C50 C 0.2529(8) 0.5728(4) 0.3778(3)
H42 H 0.2079 0.6136 0.3679
C51 C 0.3089(6) 0.5750(4) 0.4218(3)
H43 H 0.3041 0.6180 0.4414
C52 C 0.3747(5) 0.5130(3) 0.4386(2)
C53 C 0.4011(10) 0.6634(6) 0.7800(3)
H44 H 0.4659 0.6705 0.8021
H45 H 0.3674 0.6147 0.7855
H46 H 0.3433 0.7014 0.7860
C54 C 0.6580(6) 0.5975(4) 0.4953(3)
H47 H 0.7342 0.6053 0.5101
H48 H 0.6588 0.5485 0.4795
C55 C 0.6404(7) 0.6549(4) 0.4566(3)
H49 H 0.6574 0.7044 0.4649
C56 C 0.6028(7) 0.6419(6) 0.4113(3)
H50 H 0.5848 0.5932 0.4014
H51 H 0.5941 0.6815 0.3890
C57 C 0.3456(5) 0.5880(3) 0.5567(2)
C58 C 0.2589(5) 0.6423(4) 0.5545(2)
H52 H 0.2584 0.6760 0.5281
C59 C 0.1739(6) 0.6475(4) 0.5900(2)
H53 H 0.1171 0.6846 0.5870
C60 C 0.1701(5) 0.5986(3) 0.6308(3)
C61 C 0.2569(6) 0.5444(3) 0.6327(3)
H54 H 0.2576 0.5108 0.6591
C62 C 0.3426(5) 0.5384(3) 0.5967(2)
H55 H 0.3988 0.5008 0.5992
C63 C 0.0804(6) 0.6078(4) 0.6694(3)
C64 C -0.0270(7) 0.6391(5) 0.6598(4)
H56 H -0.0441 0.6534 0.6274
C65 C -0.1111(9) 0.6504(7) 0.6962(5)
H57 H -0.1822 0.6728 0.6883
C66 C -0.0870(10) 0.6277(7) 0.7445(5)
H58 H -0.1419 0.6353 0.7695
C67 C 0.0162(10) 0.5944(5) 0.7552(4)
H59 H 0.0313 0.5781 0.7874
C68 C 0.1010(8) 0.5844(5) 0.7178(3)
H60 H 0.1718 0.5617 0.7257
loop_
_geom_bond_atom_site_label_1
_geom_bond_atom_site_label_2
_geom_bond_site_symmetry_1
_geom_bond_site_symmetry_2
S1 O1 1_555 1_555
O2 S1 1_555 1_555
O3 H1 1_555 1_555
C1 S1 1_555 1_555
C2 C1 1_555 1_555
H2 C2 1_555 1_555
C3 C2 1_555 1_555
H3 C3 1_555 1_555
C4 C3 1_555 1_555
C5 C4 1_555 1_555
H4 C5 1_555 1_555
C6 C1 1_555 1_555
H5 C6 1_555 1_555
C7 S1 1_555 1_555
H6 C7 1_555 1_555
C8 C7 1_555 1_555
H7 C8 1_555 1_555
C9 C8 1_555 1_555
C10 C9 1_555 1_555
H8 C10 1_555 1_555
C11 C10 1_555 1_555
H9 C11 1_555 1_555
C12 O3 1_555 1_555
C13 C12 1_555 1_555
C14 C13 1_555 1_555
H10 C14 1_555 1_555
C15 C14 1_555 1_555
H11 C15 1_555 1_555
C16 C15 1_555 1_555
H12 C16 1_555 1_555
C17 C16 1_555 1_555
H13 C17 1_555 1_555
C18 C9 1_555 1_555
C19 C7 1_555 1_555
H14 C19 1_555 1_555
H15 C19 1_555 1_555
C20 C19 1_555 1_555
H16 C20 1_555 1_555
C21 C20 1_555 1_555
H17 C21 1_555 1_555
H18 C21 1_555 1_555
C22 C8 1_555 1_555
C23 C22 1_555 1_555
H19 C23 1_555 1_555
C24 C23 1_555 1_555
H20 C24 1_555 1_555
C25 C24 1_555 1_555
C26 C25 1_555 1_555
H21 C26 1_555 1_555
C27 C22 1_555 1_555
H22 C27 1_555 1_555
C28 C4 1_555 1_555
H23 C28 1_555 1_555
H24 C28 1_555 1_555
H25 C28 1_555 1_555
C29 C25 1_555 1_555
C30 C29 1_555 1_555
H26 C30 1_555 1_555
C31 C30 1_555 1_555
H27 C31 1_555 1_555
C32 C31 1_555 1_555
H28 C32 1_555 1_555
C33 C32 1_555 1_555
H29 C33 1_555 1_555
C34 C29 1_555 1_555
H30 C34 1_555 1_555
S2 O4 1_555 1_555
O5 S2 1_555 1_555
O6 H31 1_555 1_555
C35 S2 1_555 1_555
C36 C35 1_555 1_555
H32 C36 1_555 1_555
C37 C36 1_555 1_555
H33 C37 1_555 1_555
C38 C37 1_555 1_555
C39 C38 1_555 1_555
H34 C39 1_555 1_555
C40 C35 1_555 1_555
H35 C40 1_555 1_555
C41 S2 1_555 1_555
H36 C41 1_555 1_555
C42 C41 1_555 1_555
H37 C42 1_555 1_555
C43 C42 1_555 1_555
C44 C43 1_555 1_555
H38 C44 1_555 1_555
C45 C44 1_555 1_555
H39 C45 1_555 1_555
C46 O6 1_555 1_555
C47 C46 1_555 1_555
C48 C47 1_555 1_555
H40 C48 1_555 1_555
C49 C48 1_555 1_555
H41 C49 1_555 1_555
C50 C49 1_555 1_555
H42 C50 1_555 1_555
C51 C50 1_555 1_555
H43 C51 1_555 1_555
C52 C43 1_555 1_555
C53 C38 1_555 1_555
H44 C53 1_555 1_555
H45 C53 1_555 1_555
H46 C53 1_555 1_555
C54 C41 1_555 1_555
H47 C54 1_555 1_555
H48 C54 1_555 1_555
C55 C54 1_555 1_555
H49 C55 1_555 1_555
C56 C55 1_555 1_555
H50 C56 1_555 1_555
H51 C56 1_555 1_555
C57 C42 1_555 1_555
C58 C57 1_555 1_555
H52 C58 1_555 1_555
C59 C58 1_555 1_555
H53 C59 1_555 1_555
C60 C59 1_555 1_555
C61 C60 1_555 1_555
H54 C61 1_555 1_555
C62 C57 1_555 1_555
H55 C62 1_555 1_555
C63 C60 1_555 1_555
C64 C63 1_555 1_555
H56 C64 1_555 1_555
C65 C64 1_555 1_555
H57 C65 1_555 1_555
C66 C65 1_555 1_555
H58 C66 1_555 1_555
C67 C66 1_555 1_555
H59 C67 1_555 1_555
C68 C63 1_555 1_555
H60 C68 1_555 1_555
C5 C6 1_555 1_555
C11 C12 1_555 1_555
C13 C18 1_555 1_555
C17 C18 1_555 1_555
C26 C27 1_555 1_555
C33 C34 1_555 1_555
C39 C40 1_555 1_555
C45 C46 1_555 1_555
C47 C52 1_555 1_555
C51 C52 1_555 1_555
C61 C62 1_555 1_555
C67 C68 1_555 1_555

#END
