
#######################################################################
#
#                 Cambridge Crystallographic Data Centre
#                                CCDC 
#
#######################################################################
#
# If this CIF has been generated from an entry in the Cambridge 
# Structural Database, then it will include bibliographic, chemical, 
# crystal, experimental, refinement or atomic coordinate data resulting 
# from the CCDC's data processing and validation procedures.
#
#######################################################################

data_JEBTOZ01
_chemical_formula_moiety         'C12 H32 Li2 N4 S6'
_chemical_name_systematic        
(\m~2~-Hexasulfido-S^1^,S^1^,S^6^,S^6^)-bis((N,N,N',N'-tetramethylethylenediamine-N,N')-lithium)
_symmetry_cell_setting           monoclinic
_symmetry_space_group_name_H-M   'C 2/c'
_symmetry_Int_Tables_number      15
_space_group_name_Hall           '-C 2yn'
loop_
_symmetry_equiv_pos_site_id
_symmetry_equiv_pos_as_xyz
1 x,y,z
2 1/2+x,1/2+y,z
3 -x,y,1/2-z
4 1/2-x,1/2+y,1/2-z
5 -x,-y,-z
6 1/2-x,1/2-y,-z
7 x,-y,1/2+z
8 1/2+x,1/2-y,1/2+z
_cell_length_a                   22.808(4)
_cell_length_b                   9.194(1)
_cell_length_c                   15.038(2)
_cell_angle_alpha                90
_cell_angle_beta                 129.80(1)
_cell_angle_gamma                90
_cell_volume                     2422.72
_exptl_crystal_colour            orange
_cell_formula_units_Z            4
loop_
_atom_site_label
_atom_site_type_symbol
_atom_site_fract_x
_atom_site_fract_y
_atom_site_fract_z
S1 S 0.4306(1) 0.1533(2) 0.7784(1)
S2 S 0.4283(6) 0.3684(10) 0.8108(7)
S4 S 0.4425(3) 0.4898(3) 0.7112(5)
N1 N 0.3527(2) 0.2203(5) 0.4390(3)
N2 N 0.3764(2) -0.0692(4) 0.5384(3)
C1 C 0.2958(4) 0.3134(9) 0.4247(5)
C2 C 0.3873(3) 0.2958(10) 0.3986(6)
C3 C 0.3156(5) 0.0875(11) 0.3706(5)
C4 C 0.3089(4) -0.0306(9) 0.4212(7)
C5 C 0.3507(4) -0.1458(7) 0.5939(6)
C6 C 0.4280(4) -0.1638(7) 0.5404(6)
Li1 Li 0.4294(4) 0.1370(8) 0.6116(6)
H1 H 0.2742 0.2696 0.4559
H2 H 0.2558 0.3387 0.3451
H3 H 0.3235 0.3995 0.4680
H4 H 0.4240 0.2252 0.4149
H5 H 0.4130 0.3843 0.4393
H6 H 0.3517 0.3146 0.3169
H7 H 0.3524 0.0441 0.3671
H8 H 0.2696 0.1078 0.2935
H9 H 0.2732 0.0138 0.4265
H10 H 0.2881 -0.1200 0.3787
H11 H 0.3199 -0.0803 0.5983
H12 H 0.3958 -0.1721 0.6706
H13 H 0.3218 -0.2316 0.5522
H14 H 0.4485 -0.1135 0.5097
H15 H 0.4024 -0.2504 0.4962
H16 H 0.4688 -0.1893 0.6197
Li1B Li 0.5706(4) 0.1370(8) 0.8884(6)
S4B S 0.5575(3) 0.4898(3) 0.7888(5)
S1B S 0.5694(1) 0.1533(2) 0.7216(1)
N1B N 0.6473(2) 0.2203(5) 1.0610(3)
N2B N 0.6236(2) -0.0692(4) 0.9616(3)
S2B S 0.5717(6) 0.3684(10) 0.6892(7)
C1B C 0.7042(4) 0.3134(9) 1.0753(5)
C2B C 0.6127(3) 0.2958(10) 1.1014(6)
C3B C 0.6844(5) 0.0875(11) 1.1294(5)
C4B C 0.6911(4) -0.0306(9) 1.0788(7)
C5B C 0.6493(4) -0.1458(7) 0.9061(6)
C6B C 0.5720(4) -0.1638(7) 0.9596(6)
H1B H 0.7258 0.2696 1.0441
H2B H 0.7442 0.3387 1.1549
H3B H 0.6765 0.3995 1.0320
H4B H 0.5760 0.2252 1.0851
H5B H 0.5870 0.3843 1.0607
H6B H 0.6483 0.3146 1.1831
H7B H 0.6476 0.0441 1.1329
H8B H 0.7304 0.1078 1.2065
H9B H 0.7268 0.0138 1.0735
H10B H 0.7119 -0.1200 1.1213
H11B H 0.6801 -0.0803 0.9017
H12B H 0.6042 -0.1721 0.8294
H13B H 0.6782 -0.2316 0.9478
H14B H 0.5515 -0.1135 0.9903
H15B H 0.5976 -0.2504 1.0038
H16B H 0.5312 -0.1893 0.8803
S3? S 0.4102(7) 0.6341(17) 0.7645(11)
S5? S 0.4974(4) 0.4858(5) 0.8154(7)
loop_
_geom_bond_atom_site_label_1
_geom_bond_atom_site_label_2
_geom_bond_site_symmetry_1
_geom_bond_site_symmetry_2
S1 S2 1_555 1_555
S2 S4 1_555 1_555
S4 S4B 1_555 1_555
N1 C1 1_555 1_555
N2 C4 1_555 1_555
C1 H1 1_555 1_555
C2 N1 1_555 1_555
C3 N1 1_555 1_555
C4 C3 1_555 1_555
C5 N2 1_555 1_555
C6 N2 1_555 1_555
Li1 S1 1_555 1_555
H2 C1 1_555 1_555
H3 C1 1_555 1_555
H4 C2 1_555 1_555
H5 C2 1_555 1_555
H6 C2 1_555 1_555
H7 C3 1_555 1_555
H8 C3 1_555 1_555
H9 C4 1_555 1_555
H10 C4 1_555 1_555
H11 C5 1_555 1_555
H12 C5 1_555 1_555
H13 C5 1_555 1_555
H14 C6 1_555 1_555
H15 C6 1_555 1_555
H16 C6 1_555 1_555
Li1B S1 1_555 1_555
S4B S2B 1_555 1_555
S1B Li1 1_555 1_555
N1B Li1B 1_555 1_555
N2B Li1B 1_555 1_555
S2B S1B 1_555 1_555
C1B N1B 1_555 1_555
C2B N1B 1_555 1_555
C3B N1B 1_555 1_555
C4B N2B 1_555 1_555
C5B N2B 1_555 1_555
C6B N2B 1_555 1_555
H1B C1B 1_555 1_555
H2B C1B 1_555 1_555
H3B C1B 1_555 1_555
H4B C2B 1_555 1_555
H5B C2B 1_555 1_555
H6B C2B 1_555 1_555
H7B C3B 1_555 1_555
H8B C3B 1_555 1_555
H9B C4B 1_555 1_555
H10B C4B 1_555 1_555
H11B C5B 1_555 1_555
H12B C5B 1_555 1_555
H13B C5B 1_555 1_555
H14B C6B 1_555 1_555
H15B C6B 1_555 1_555
H16B C6B 1_555 1_555
N1 Li1 1_555 1_555
N2 Li1 1_555 1_555
Li1B S1B 1_555 1_555
C3B C4B 1_555 1_555

#END
