
#######################################################################
#
#                 Cambridge Crystallographic Data Centre
#                                CCDC 
#
#######################################################################
#
# If this CIF has been generated from an entry in the Cambridge 
# Structural Database, then it will include bibliographic, chemical, 
# crystal, experimental, refinement or atomic coordinate data resulting 
# from the CCDC's data processing and validation procedures.
#
#######################################################################

data_JEBTAO
_chemical_formula_moiety         'C28 H26 O3 S1'
_chemical_name_systematic        
1-methyl-3-((4-methylphenyl)sulfonyl)-4-phenyl-1,2,3,4-tetrahydrophenanthren-9-ol
_symmetry_cell_setting           triclinic
_symmetry_space_group_name_H-M   'P -1'
_symmetry_Int_Tables_number      2
_space_group_name_Hall           '-P 1'
loop_
_symmetry_equiv_pos_site_id
_symmetry_equiv_pos_as_xyz
1 x,y,z
2 -x,-y,-z
_cell_length_a                   7.7884(7)
_cell_length_b                   11.6933(11)
_cell_length_c                   12.7018(11)
_cell_angle_alpha                76.661(2)
_cell_angle_beta                 80.261(2)
_cell_angle_gamma                87.702(2)
_cell_volume                     1109.35
_exptl_crystal_colour            colorless
_cell_formula_units_Z            2
loop_
_atom_site_label
_atom_site_type_symbol
_atom_site_fract_x
_atom_site_fract_y
_atom_site_fract_z
S1 S 0.29905(4) 0.31088(3) 0.52550(3)
O1 O 0.21345(13) 0.21086(9) 0.50946(9)
O2 O 0.37373(14) -0.29840(9) 0.73392(9)
H1 H 0.461(3) -0.3137(16) 0.6856(16)
O3 O 0.39839(13) 0.38753(9) 0.42989(8)
C1 C -0.0739(2) -0.16579(14) 0.88803(13)
H2 H -0.1701 -0.2161 0.9221
C2 C 0.07474(19) -0.20978(13) 0.83706(12)
H3 H 0.0812 -0.2909 0.8364
C3 C 0.21838(18) -0.13620(13) 0.78549(11)
C4 C 0.21012(18) -0.01387(12) 0.78631(11)
C5 C 0.35813(17) 0.05894(12) 0.73644(11)
C6 C 0.35034(17) 0.18953(12) 0.73204(11)
H4 H 0.2248 0.2126 0.7355
C7 C 0.44829(17) 0.26227(12) 0.62066(11)
H5 H 0.4977 0.3337 0.6352
C8 C 0.14210(17) 0.39450(12) 0.59218(11)
C9 C -0.01445(18) 0.34149(13) 0.64847(12)
H6 H -0.0411 0.2641 0.6446
C10 C -0.13056(18) 0.40300(13) 0.71001(12)
H7 H -0.2368 0.3670 0.7493
C11 C -0.09363(18) 0.51729(13) 0.71510(11)
C12 C -0.2173(2) 0.58198(14) 0.78570(13)
H8 H -0.1867 0.5660 0.8594
H9 H -0.3367 0.5554 0.7903
H10 H -0.2091 0.6666 0.7534
C13 C 0.51027(17) 0.01015(12) 0.69217(11)
C14 C 0.51813(18) -0.11044(12) 0.69105(11)
H11 H 0.6232 -0.1428 0.6600
C15 C 0.37562(18) -0.18120(12) 0.73430(11)
C16 C 0.05339(18) 0.02777(13) 0.84063(12)
H12 H 0.0438 0.1085 0.8428
C17 C -0.08374(19) -0.04577(14) 0.88982(12)
H13 H -0.1867 -0.0155 0.9256
C18 C 0.66443(17) 0.09146(12) 0.64224(12)
H14 H 0.7036 0.1203 0.7026
C19 C 0.82061(18) 0.03577(13) 0.58289(13)
H15 H 0.8645 -0.0298 0.6348
H16 H 0.9126 0.0947 0.5523
H17 H 0.7851 0.0066 0.5234
C20 C 0.59942(18) 0.19739(12) 0.56313(12)
H18 H 0.5597 0.1704 0.5029
H19 H 0.6971 0.2528 0.5304
C21 C 0.41267(18) 0.22584(12) 0.82758(11)
C22 C 0.50715(19) 0.15079(13) 0.89863(12)
H20 H 0.5330 0.0732 0.8895
C23 C 0.5643(2) 0.18857(14) 0.98328(12)
H21 H 0.6301 0.1369 1.0307
C24 C 0.5258(2) 0.30117(14) 0.99878(12)
H22 H 0.5659 0.3270 1.0560
C25 C 0.4280(2) 0.37566(13) 0.92958(12)
H23 H 0.3990 0.4523 0.9404
C26 C 0.37257(19) 0.33840(13) 0.84480(12)
H24 H 0.3063 0.3902 0.7977
C27 C 0.18114(18) 0.50817(12) 0.59502(11)
H25 H 0.2880 0.5437 0.5561
C28 C 0.06168(19) 0.56946(13) 0.65562(12)
H26 H 0.0862 0.6481 0.6565
loop_
_geom_bond_atom_site_label_1
_geom_bond_atom_site_label_2
_geom_bond_site_symmetry_1
_geom_bond_site_symmetry_2
S1 O1 1_555 1_555
O2 H1 1_555 1_555
O3 S1 1_555 1_555
C1 H2 1_555 1_555
C2 C1 1_555 1_555
H3 C2 1_555 1_555
C3 C2 1_555 1_555
C4 C3 1_555 1_555
C5 C4 1_555 1_555
C6 C5 1_555 1_555
H4 C6 1_555 1_555
C7 S1 1_555 1_555
H5 C7 1_555 1_555
C8 S1 1_555 1_555
C9 C8 1_555 1_555
H6 C9 1_555 1_555
C10 C9 1_555 1_555
H7 C10 1_555 1_555
C11 C10 1_555 1_555
C12 C11 1_555 1_555
H8 C12 1_555 1_555
H9 C12 1_555 1_555
H10 C12 1_555 1_555
C13 C5 1_555 1_555
C14 C13 1_555 1_555
H11 C14 1_555 1_555
C15 O2 1_555 1_555
C16 C4 1_555 1_555
H12 C16 1_555 1_555
C17 C1 1_555 1_555
H13 C17 1_555 1_555
C18 C13 1_555 1_555
H14 C18 1_555 1_555
C19 C18 1_555 1_555
H15 C19 1_555 1_555
H16 C19 1_555 1_555
H17 C19 1_555 1_555
C20 C7 1_555 1_555
H18 C20 1_555 1_555
H19 C20 1_555 1_555
C21 C6 1_555 1_555
C22 C21 1_555 1_555
H20 C22 1_555 1_555
C23 C22 1_555 1_555
H21 C23 1_555 1_555
C24 C23 1_555 1_555
H22 C24 1_555 1_555
C25 C24 1_555 1_555
H23 C25 1_555 1_555
C26 C21 1_555 1_555
H24 C26 1_555 1_555
C27 C8 1_555 1_555
H25 C27 1_555 1_555
C28 C11 1_555 1_555
H26 C28 1_555 1_555
C3 C15 1_555 1_555
C6 C7 1_555 1_555
C14 C15 1_555 1_555
C16 C17 1_555 1_555
C18 C20 1_555 1_555
C25 C26 1_555 1_555
C27 C28 1_555 1_555

#END
