
#######################################################################
#
#                 Cambridge Crystallographic Data Centre
#                                CCDC 
#
#######################################################################
#
# If this CIF has been generated from an entry in the Cambridge 
# Structural Database, then it will include bibliographic, chemical, 
# crystal, experimental, refinement or atomic coordinate data resulting 
# from the CCDC's data processing and validation procedures.
#
#######################################################################

data_JECFOM
_chemical_formula_moiety         'C16 H12 N2'
_chemical_name_systematic        2,2'-Dicyano-5,5'-dimethyl-biphenyl
_symmetry_cell_setting           monoclinic
_symmetry_space_group_name_H-M   'A a'
_symmetry_Int_Tables_number      9
_space_group_name_Hall           'A -2ya'
loop_
_symmetry_equiv_pos_site_id
_symmetry_equiv_pos_as_xyz
1 x,y,z
2 x,1/2+y,1/2+z
3 1/2+x,-y,z
4 1/2+x,1/2-y,1/2+z
_cell_length_a                   11.4279(12)
_cell_length_b                   8.1217(9)
_cell_length_c                   13.5791(15)
_cell_angle_alpha                90
_cell_angle_beta                 98.331(4)
_cell_angle_gamma                90
_cell_volume                     1247.03
_exptl_crystal_colour            'pale bronze'
_cell_formula_units_Z            4
loop_
_atom_site_label
_atom_site_type_symbol
_atom_site_fract_x
_atom_site_fract_y
_atom_site_fract_z
C1 C 0.0613 0.2206(20) 0.0452
C2 C 0.0489(17) 0.3627(22) 0.2052(15)
C3 C 0.6953(21) 0.3626(31) -0.0294(19)
C4 C 0.6221(16) 0.2912(22) 0.0497(15)
C5 C 0.5014(18) 0.2839(25) 0.0292(17)
C6 C 0.6191(16) 0.1478(20) 0.2077(14)
C7 C 0.1183(22) 0.1610(29) -0.0281(19)
C8 C 0.2444(19) 0.1537(22) -0.0074(16)
C9 C 0.2388(17) 0.2824(24) 0.1482(16)
C10 C 0.4365(18) 0.2138(21) 0.1043(16)
C11 C 0.1133(19) 0.2847(23) 0.1329(16)
C12 C 0.3042(19) 0.2156(25) 0.0851(17)
C13 C 0.4968(18) 0.1480(21) 0.1899(15)
N1 N 0.3932(18) 0.0184(17) 0.3268(15)
C14 C 0.3097(19) 0.0680(25) -0.0783(17)
C15 C 0.4394(19) 0.0752(25) 0.2612(17)
N2 N 0.3587(18) -0.0085(22) -0.1297(15)
C16 C 0.6908(14) 0.2273(31) 0.1395(12)
loop_
_geom_bond_atom_site_label_1
_geom_bond_atom_site_label_2
_geom_bond_site_symmetry_1
_geom_bond_site_symmetry_2
C1 C7 1_555 1_555
C2 C11 1_555 1_555
C3 C4 1_555 1_555
C4 C5 1_555 1_555
C5 C10 1_555 1_555
C6 C13 1_555 1_555
C7 C8 1_555 1_555
C8 C12 1_555 1_555
C9 C11 1_555 1_555
C10 C12 1_555 1_555
C11 C1 1_555 1_555
C12 C9 1_555 1_555
C13 C10 1_555 1_555
N1 C15 1_555 1_555
C14 C8 1_555 1_555
C15 C13 1_555 1_555
N2 C14 1_555 1_555
C16 C4 1_555 1_555
C6 C16 1_555 1_555

#END
