
#######################################################################
#
#                 Cambridge Crystallographic Data Centre
#                                CCDC 
#
#######################################################################
#
# If this CIF has been generated from an entry in the Cambridge 
# Structural Database, then it will include bibliographic, chemical, 
# crystal, experimental, refinement or atomic coordinate data resulting 
# from the CCDC's data processing and validation procedures.
#
#######################################################################

data_JECJIN
_chemical_formula_moiety         'C21 H16 Br1 Cl1 F3 N1 O4'
_chemical_name_systematic        
'2-(4-bromophenyl)-3-(4-chlorobenzene-1-carbonyl)-5-methoxycarbonyl-4-methyl-4-(trifluoromethyl)-3,4-dihydro-2H-pyrrole N-oxide'
_symmetry_cell_setting           monoclinic
_symmetry_space_group_name_H-M   'P 21'
_symmetry_Int_Tables_number      4
_space_group_name_Hall           'P 2yb'
loop_
_symmetry_equiv_pos_site_id
_symmetry_equiv_pos_as_xyz
1 x,y,z
2 -x,1/2+y,-z
_cell_length_a                   18.4648(12)
_cell_length_b                   10.5267(7)
_cell_length_c                   22.6707(15)
_cell_angle_alpha                90
_cell_angle_beta                 104.961(2)
_cell_angle_gamma                90
_cell_volume                     4257.21
_exptl_crystal_colour            colorless
_exptl_crystal_description       block
_cell_formula_units_Z            8
loop_
_atom_site_label
_atom_site_type_symbol
_atom_site_fract_x
_atom_site_fract_y
_atom_site_fract_z
Br1 Br 0.76458(4) 0.49099(7) 0.77648(3)
Cl1 Cl 0.86799(14) -0.2820(2) 1.14599(11)
O1 O 1.1504(3) 0.5831(7) 1.0740(2)
O2 O 1.1475(2) 0.5779(5) 1.17198(18)
O3 O 0.8530(3) 0.3456(5) 1.1338(3)
O4 O 0.9867(3) 0.6444(5) 1.0291(2)
N1 N 0.9896(3) 0.5408(5) 1.0591(2)
F1 F 1.0593(2) 0.1626(4) 1.1481(2)
F2 F 1.1479(2) 0.3000(4) 1.17329(18)
F3 F 1.0998(2) 0.2558(4) 1.07914(18)
C1 C 0.8089(4) 0.4712(7) 0.8617(3)
C2 C 0.8763(4) 0.4102(6) 0.8808(3)
H1 H 0.8984 0.3732 0.8525
C3 C 0.9113(4) 0.4039(7) 0.9422(3)
H2 H 0.9574 0.3633 0.9554
C4 C 0.8786(3) 0.4571(6) 0.9841(3)
C5 C 0.8081(3) 0.5133(7) 0.9643(3)
H3 H 0.7843 0.5467 0.9923
C6 C 0.7739(4) 0.5189(7) 0.9020(3)
H4 H 0.7268 0.5557 0.8883
C7 C 1.0456(3) 0.4941(7) 1.0998(3)
C8 C 1.0254(3) 0.3749(6) 1.1290(3)
C9 C 0.9491(3) 0.3370(6) 1.0822(3)
H5 H 0.9591 0.2776 1.0520
C10 C 0.9191(4) 0.4628(6) 1.0506(3)
H6 H 0.8864 0.5030 1.0730
C11 C 0.8919(4) 0.2786(7) 1.1123(3)
C12 C 0.8889(4) 0.1382(7) 1.1192(3)
C13 C 0.9047(4) 0.0523(7) 1.0771(3)
H7 H 0.9192 0.0825 1.0433
C14 C 0.8989(4) -0.0765(7) 1.0852(4)
H8 H 0.9092 -0.1336 1.0571
C15 C 0.8774(4) -0.1196(7) 1.1357(4)
C16 C 0.8629(4) -0.0381(7) 1.1777(4)
H9 H 0.8503 -0.0691 1.2122
C17 C 0.8669(4) 0.0917(7) 1.1687(3)
H10 H 0.8547 0.1478 1.1963
C18 C 1.0173(4) 0.4017(7) 1.1939(3)
H11 H 1.0653 0.4241 1.2201
H12 H 0.9988 0.3271 1.2095
H13 H 0.9829 0.4705 1.1925
C19 C 1.0819(4) 0.2725(6) 1.1319(3)
C20 C 1.1207(4) 0.5565(7) 1.1129(3)
C21 C 1.2242(4) 0.6302(8) 1.1898(3)
H14 H 1.2393 0.6421 1.2332
H15 H 1.2252 0.7104 1.1698
H16 H 1.2580 0.5722 1.1778
Br2 Br 1.77742(5) 0.86549(9) 1.68297(4)
Cl2 Cl 1.57651(16) 0.1256(2) 1.32326(11)
F4 F 1.3071(2) 0.7061(4) 1.34604(19)
F5 F 1.3931(2) 0.5693(4) 1.3459(2)
F6 F 1.3795(2) 0.6435(4) 1.43068(19)
O5 O 1.3077(3) 0.9987(6) 1.3598(2)
O6 O 1.3344(3) 0.9610(5) 1.4586(2)
O7 O 1.5846(3) 0.7574(5) 1.3283(2)
O8 O 1.4937(3) 1.0409(4) 1.4711(2)
N2 N 1.4835(3) 0.9409(5) 1.4390(2)
C22 C 1.5577(4) 0.4990(7) 1.2931(3)
H17 H 1.5542 0.5539 1.2603
C23 C 1.5615(4) 0.3685(8) 1.2855(3)
H18 H 1.5591 0.3355 1.2470
C24 C 1.5688(5) 0.2887(7) 1.3337(4)
C25 C 1.5714(4) 0.3341(7) 1.3906(3)
H19 H 1.5783 0.2786 1.4235
C26 C 1.5638(4) 0.4621(7) 1.3991(3)
H20 H 1.5617 0.4920 1.4372
C27 C 1.5593(4) 0.5471(6) 1.3520(3)
C28 C 1.5557(4) 0.6877(6) 1.3578(3)
C29 C 1.5149(3) 0.7416(6) 1.4031(3)
H21 H 1.5143 0.6790 1.4350
C30 C 1.4321(3) 0.7815(6) 1.3688(3)
C31 C 1.4197(4) 0.8924(6) 1.4077(3)
C32 C 1.5501(3) 0.8660(6) 1.4318(3)
H22 H 1.5720 0.9099 1.4025
C33 C 1.6084(3) 0.8557(6) 1.4914(3)
C34 C 1.5888(4) 0.8070(6) 1.5423(3)
H23 H 1.5409 0.7743 1.5382
C35 C 1.6395(4) 0.8068(7) 1.5987(3)
H24 H 1.6263 0.7748 1.6328
C36 C 1.7114(4) 0.8560(8) 1.6037(3)
C37 C 1.7329(4) 0.8979(7) 1.5542(3)
H25 H 1.7817 0.9258 1.5581
C38 C 1.6809(4) 0.8986(7) 1.4976(3)
H26 H 1.6949 0.9282 1.4635
C39 C 1.4202(4) 0.8187(7) 1.3025(3)
H27 H 1.3686 0.8417 1.2858
H28 H 1.4326 0.7483 1.2801
H29 H 1.4517 0.8897 1.2997
C40 C 1.2650(5) 1.0257(8) 1.4625(4)
H30 H 1.2610 1.0232 1.5038
H31 H 1.2226 0.9835 1.4363
H32 H 1.2662 1.1125 1.4498
C41 C 1.3482(4) 0.9568(6) 1.4055(3)
C42 C 1.3778(4) 0.6750(7) 1.3730(3)
Br3 Br 1.33955(6) 0.33924(9) 2.18507(4)
Cl3 Cl 1.30546(14) 1.0620(2) 1.83017(11)
O9 O 1.6395(3) 0.2368(6) 1.9578(2)
O10 O 1.6026(3) 0.1983(6) 1.8577(2)
O11 O 1.3064(3) 0.4302(5) 1.8269(2)
O12 O 1.4899(3) 0.1528(4) 1.9732(2)
F7 F 1.5883(2) 0.4864(4) 1.8394(2)
F8 F 1.5749(2) 0.5470(4) 1.9257(2)
F9 F 1.5012(2) 0.6193(4) 1.8430(2)
N3 N 1.4786(3) 0.2517(5) 1.9406(2)
C43 C 1.4413(4) 0.3836(6) 2.0443(3)
H33 H 1.4874 0.4118 2.0401
C44 C 1.4258(4) 0.3865(7) 2.1002(3)
H34 H 1.4619 0.4157 2.1341
C45 C 1.3573(4) 0.3467(7) 2.1069(3)
C46 C 1.3025(4) 0.3090(8) 2.0565(4)
H35 H 1.2548 0.2888 2.0602
C47 C 1.3185(4) 0.3013(7) 2.0005(3)
H36 H 1.2824 0.2709 1.9669
C48 C 1.3875(3) 0.3382(6) 1.9939(3)
C49 C 1.4057(3) 0.3250(6) 1.9334(3)
H37 H 1.3651 0.2786 1.9053
C50 C 1.5193(4) 0.2990(7) 1.9076(3)
C51 C 1.4820(3) 0.4083(6) 1.8682(3)
C52 C 1.4213(4) 0.4471(6) 1.9023(3)
H38 H 1.4427 0.5106 1.9336
C53 C 1.3520(4) 0.5024(7) 1.8584(3)
C54 C 1.3420(3) 0.6431(7) 1.8533(3)
C55 C 1.3658(4) 0.7233(8) 1.9030(3)
H39 H 1.3908 0.6903 1.9408
C56 C 1.3524(4) 0.8529(7) 1.8964(3)
H40 H 1.3643 0.9071 1.9299
C57 C 1.3210(4) 0.8983(7) 1.8388(4)
C58 C 1.2976(4) 0.8226(7) 1.7892(4)
H41 H 1.2751 0.8570 1.7511
C59 C 1.3079(4) 0.6926(6) 1.7966(3)
H42 H 1.2918 0.6387 1.7633
C60 C 1.4499(4) 0.3641(7) 1.8023(3)
H43 H 1.4902 0.3423 1.7846
H44 H 1.4206 0.4312 1.7791
H45 H 1.4186 0.2910 1.8019
C61 C 1.5372(4) 0.5131(7) 1.8694(3)
C62 C 1.5917(4) 0.2382(8) 1.9043(3)
C63 C 1.7124(4) 0.1780(8) 1.9613(4)
H46 H 1.7427 0.1814 2.0026
H47 H 1.7370 0.2230 1.9352
H48 H 1.7052 0.0910 1.9484
Br4 Br 1.08495(7) 0.73576(9) 1.27271(4)
Cl4 Cl 1.21488(15) 1.5141(2) 1.64184(12)
F10 F 1.0368(3) 1.0689(4) 1.6481(2)
F11 F 0.9549(2) 0.9741(5) 1.57719(18)
F12 F 0.9641(2) 0.9277(4) 1.67043(19)
O13 O 1.2345(3) 0.8847(5) 1.6281(2)
O14 O 0.8997(3) 0.6508(6) 1.5833(2)
O15 O 0.9758(3) 0.6452(5) 1.6774(2)
O16 O 1.0316(3) 0.5846(5) 1.5301(2)
N4 N 1.0500(3) 0.6880(5) 1.5589(2)
C64 C 1.1089(4) 0.7697(6) 1.4815(3)
C65 C 1.0500(5) 0.8283(7) 1.4400(3)
H49 H 1.0144 0.8732 1.4540
C66 C 1.0439(5) 0.8208(8) 1.3782(3)
H50 H 1.0038 0.8595 1.3507
C67 C 1.0968(6) 0.7561(8) 1.3572(3)
C68 C 1.1574(5) 0.6999(7) 1.3975(4)
H51 H 1.1938 0.6569 1.3837
C69 C 1.1620(4) 0.7096(7) 1.4588(3)
H52 H 1.2032 0.6738 1.4863
C70 C 1.0214(4) 0.7357(7) 1.6014(3)
C71 C 1.0609(3) 0.8564(6) 1.6278(3)
C72 C 1.1045(3) 0.8915(6) 1.5786(3)
H53 H 1.0741 0.9494 1.5483
C73 C 1.1137(4) 0.7649(6) 1.5484(3)
H54 H 1.1612 0.7257 1.5701
C74 C 1.1798(4) 0.9524(6) 1.6078(3)
C75 C 1.1877(4) 1.0936(6) 1.6133(3)
C76 C 1.2412(4) 1.1413(7) 1.6628(3)
H55 H 1.2733 1.0859 1.6891
C77 C 1.2473(4) 1.2710(8) 1.6737(4)
H56 H 1.2800 1.3033 1.7088
C78 C 1.2034(4) 1.3501(7) 1.6309(3)
C79 C 1.1524(4) 1.3061(7) 1.5801(3)
H57 H 1.1240 1.3624 1.5517
C80 C 1.1438(4) 1.1757(6) 1.5715(3)
H58 H 1.1086 1.1439 1.5377
C81 C 1.1127(4) 0.8346(7) 1.6932(3)
H59 H 1.0826 0.8133 1.7206
H60 H 1.1406 0.9107 1.7071
H61 H 1.1469 0.7662 1.6922
C82 C 1.0039(4) 0.9565(7) 1.6302(3)
C83 C 0.9583(5) 0.6718(7) 1.6187(3)
C84 C 0.9162(4) 0.5904(7) 1.7013(4)
H62 H 0.9350 0.5748 1.7443
H63 H 0.8997 0.5119 1.6807
H64 H 0.8749 0.6486 1.6947
loop_
_geom_bond_atom_site_label_1
_geom_bond_atom_site_label_2
_geom_bond_site_symmetry_1
_geom_bond_site_symmetry_2
Br1 C1 1_555 1_555
Cl1 C15 1_555 1_555
O1 C20 1_555 1_555
O2 C20 1_555 1_555
O3 C11 1_555 1_555
O4 N1 1_555 1_555
N1 C7 1_555 1_555
F1 C19 1_555 1_555
F2 C19 1_555 1_555
F3 C19 1_555 1_555
C1 C2 1_555 1_555
C2 H1 1_555 1_555
C3 C2 1_555 1_555
H2 C3 1_555 1_555
C4 C3 1_555 1_555
C5 C4 1_555 1_555
H3 C5 1_555 1_555
C6 C1 1_555 1_555
H4 C6 1_555 1_555
C7 C8 1_555 1_555
C8 C9 1_555 1_555
C9 H5 1_555 1_555
C10 N1 1_555 1_555
H6 C10 1_555 1_555
C11 C9 1_555 1_555
C12 C11 1_555 1_555
C13 C12 1_555 1_555
H7 C13 1_555 1_555
C14 C13 1_555 1_555
H8 C14 1_555 1_555
C15 C14 1_555 1_555
C16 C15 1_555 1_555
H9 C16 1_555 1_555
C17 C12 1_555 1_555
H10 C17 1_555 1_555
C18 C8 1_555 1_555
H11 C18 1_555 1_555
H12 C18 1_555 1_555
H13 C18 1_555 1_555
C19 C8 1_555 1_555
C20 C7 1_555 1_555
C21 O2 1_555 1_555
H14 C21 1_555 1_555
H15 C21 1_555 1_555
H16 C21 1_555 1_555
Br2 C36 1_555 1_555
Cl2 C24 1_555 1_555
F4 C42 1_555 1_555
F5 C42 1_555 1_555
F6 C42 1_555 1_555
O5 C41 1_555 1_555
O6 C40 1_555 1_555
O7 C28 1_555 1_555
O8 N2 1_555 1_555
N2 C31 1_555 1_555
C22 H17 1_555 1_555
C23 C22 1_555 1_555
H18 C23 1_555 1_555
C24 C23 1_555 1_555
C25 C24 1_555 1_555
H19 C25 1_555 1_555
C26 C25 1_555 1_555
H20 C26 1_555 1_555
C27 C22 1_555 1_555
C28 C27 1_555 1_555
C29 C28 1_555 1_555
H21 C29 1_555 1_555
C30 C29 1_555 1_555
C31 C30 1_555 1_555
C32 N2 1_555 1_555
H22 C32 1_555 1_555
C33 C32 1_555 1_555
C34 C33 1_555 1_555
H23 C34 1_555 1_555
C35 C34 1_555 1_555
H24 C35 1_555 1_555
C36 C35 1_555 1_555
C37 C36 1_555 1_555
H25 C37 1_555 1_555
C38 C33 1_555 1_555
H26 C38 1_555 1_555
C39 C30 1_555 1_555
H27 C39 1_555 1_555
H28 C39 1_555 1_555
H29 C39 1_555 1_555
C40 H30 1_555 1_555
H31 C40 1_555 1_555
H32 C40 1_555 1_555
C41 O6 1_555 1_555
C42 C30 1_555 1_555
Br3 C45 1_555 1_555
Cl3 C57 1_555 1_555
O9 C62 1_555 1_555
O10 C62 1_555 1_555
O11 C53 1_555 1_555
O12 N3 1_555 1_555
F7 C61 1_555 1_555
F8 C61 1_555 1_555
F9 C61 1_555 1_555
N3 C49 1_555 1_555
C43 H33 1_555 1_555
C44 C43 1_555 1_555
H34 C44 1_555 1_555
C45 C44 1_555 1_555
C46 C45 1_555 1_555
H35 C46 1_555 1_555
C47 C46 1_555 1_555
H36 C47 1_555 1_555
C48 C43 1_555 1_555
C49 C48 1_555 1_555
H37 C49 1_555 1_555
C50 N3 1_555 1_555
C51 C50 1_555 1_555
C52 C49 1_555 1_555
H38 C52 1_555 1_555
C53 C52 1_555 1_555
C54 C53 1_555 1_555
C55 C54 1_555 1_555
H39 C55 1_555 1_555
C56 C55 1_555 1_555
H40 C56 1_555 1_555
C57 C56 1_555 1_555
C58 C57 1_555 1_555
H41 C58 1_555 1_555
C59 C54 1_555 1_555
H42 C59 1_555 1_555
C60 C51 1_555 1_555
H43 C60 1_555 1_555
H44 C60 1_555 1_555
H45 C60 1_555 1_555
C61 C51 1_555 1_555
C62 C50 1_555 1_555
C63 O9 1_555 1_555
H46 C63 1_555 1_555
H47 C63 1_555 1_555
H48 C63 1_555 1_555
Br4 C67 1_555 1_555
Cl4 C78 1_555 1_555
F10 C82 1_555 1_555
F11 C82 1_555 1_555
F12 C82 1_555 1_555
O13 C74 1_555 1_555
O14 C83 1_555 1_555
O15 C83 1_555 1_555
O16 N4 1_555 1_555
N4 C70 1_555 1_555
C64 C65 1_555 1_555
C65 H49 1_555 1_555
C66 C65 1_555 1_555
H50 C66 1_555 1_555
C67 C66 1_555 1_555
C68 C67 1_555 1_555
H51 C68 1_555 1_555
C69 C64 1_555 1_555
H52 C69 1_555 1_555
C70 C71 1_555 1_555
C71 C72 1_555 1_555
C72 H53 1_555 1_555
C73 N4 1_555 1_555
H54 C73 1_555 1_555
C74 C72 1_555 1_555
C75 C74 1_555 1_555
C76 C75 1_555 1_555
H55 C76 1_555 1_555
C77 C76 1_555 1_555
H56 C77 1_555 1_555
C78 C77 1_555 1_555
C79 C78 1_555 1_555
H57 C79 1_555 1_555
C80 C75 1_555 1_555
H58 C80 1_555 1_555
C81 C71 1_555 1_555
H59 C81 1_555 1_555
H60 C81 1_555 1_555
H61 C81 1_555 1_555
C82 C71 1_555 1_555
C83 C70 1_555 1_555
C84 O15 1_555 1_555
H62 C84 1_555 1_555
H63 C84 1_555 1_555
H64 C84 1_555 1_555
C4 C10 1_555 1_555
C5 C6 1_555 1_555
C9 C10 1_555 1_555
C16 C17 1_555 1_555
C26 C27 1_555 1_555
C29 C32 1_555 1_555
C31 C41 1_555 1_555
C37 C38 1_555 1_555
C47 C48 1_555 1_555
C51 C52 1_555 1_555
C58 C59 1_555 1_555
C64 C73 1_555 1_555
C68 C69 1_555 1_555
C72 C73 1_555 1_555
C79 C80 1_555 1_555

#END
