
#######################################################################
#
#                 Cambridge Crystallographic Data Centre
#                                CCDC 
#
#######################################################################
#
# If this CIF has been generated from an entry in the Cambridge 
# Structural Database, then it will include bibliographic, chemical, 
# crystal, experimental, refinement or atomic coordinate data resulting 
# from the CCDC's data processing and validation procedures.
#
#######################################################################

data_JECJOQ
_chemical_formula_moiety         'C26 H20 B2 N4 O1,0.5(C4 H8 O1)'
_chemical_name_systematic        
"trans-bis(\m~2~-7-Azaindole-N,N')-(\m~2~-oxo)-bis(phenyl-boron(iii)) tetrahydrofuran solvate"
_symmetry_cell_setting           monoclinic
_symmetry_space_group_name_H-M   'P 21/n'
_symmetry_Int_Tables_number      14
_space_group_name_Hall           '-P 2yn'
loop_
_symmetry_equiv_pos_site_id
_symmetry_equiv_pos_as_xyz
1 x,y,z
2 1/2+x,1/2-y,1/2+z
3 -x,-y,-z
4 1/2-x,1/2+y,1/2-z
_cell_length_a                   11.184(6)
_cell_length_b                   13.891(8)
_cell_length_c                   16.281(8)
_cell_angle_alpha                90
_cell_angle_beta                 108.72(3)
_cell_angle_gamma                90
_cell_volume                     2395.56
_exptl_crystal_colour            colorless
_exptl_crystal_description       block
_cell_formula_units_Z            4
_exptl_crystal_recrystallization_method THF/hexane
loop_
_atom_site_label
_atom_site_type_symbol
_atom_site_fract_x
_atom_site_fract_y
_atom_site_fract_z
O2 O -0.6031(14) 0.4749(11) -0.0823(7)
C21 C -0.4915(10) 0.4377(8) -0.0510(7)
C22 C -0.5686(9) 0.5625(6) -0.0441(6)
C22B C -0.4314(9) 0.4375(6) 0.0441(6)
O2B O -0.3969(14) 0.5251(11) 0.0823(7)
C21B C -0.5085(10) 0.5623(8) 0.0510(7)
O1 O 0.1267(3) 0.1944(2) 0.1274(2)
N1 N -0.0690(4) 0.2604(3) 0.0307(3)
B1 B -0.0024(5) 0.2065(4) 0.1221(3)
C1 C 0.0028(5) 0.3199(4) 0.0001(3)
C2 C -0.1915(5) 0.2561(4) -0.0209(4)
H1 H -0.2469(5) 0.2165(4) -0.0043(4)
N2 N 0.1275(4) 0.3361(3) 0.0411(2)
B2 B 0.2021(5) 0.2753(4) 0.1247(4)
C3 C -0.2356(8) 0.3066(6) -0.0948(5)
H2 H -0.3202(8) 0.2991(6) -0.1273(5)
N3 N 0.2020(3) 0.3447(3) 0.2053(2)
N4 N -0.0041(3) 0.2843(3) 0.1926(2)
C4 C -0.1690(9) 0.3647(7) -0.1238(6)
H3 H -0.2038(9) 0.3986(7) -0.1753(6)
C5 C -0.0461(7) 0.3742(5) -0.0760(4)
C6 C 0.0655(9) 0.4339(5) -0.0822(5)
H4 H 0.0673(9) 0.4786(5) -0.1244(5)
C7 C 0.1675(6) 0.4040(4) -0.0065(4)
H5 H 0.2496(6) 0.4274(4) 0.0082(4)
C8 C 0.0957(4) 0.3430(3) 0.2284(3)
C9 C 0.2900(5) 0.4101(4) 0.2479(3)
H6 H 0.3651(5) 0.4138(4) 0.2352(3)
C10 C 0.2722(5) 0.4707(4) 0.3088(3)
H7 H 0.3359(5) 0.5140(4) 0.3364(3)
C11 C 0.1629(6) 0.4701(4) 0.3310(4)
H8 H 0.1524(6) 0.5123(4) 0.3725(4)
C12 C 0.0716(5) 0.4061(4) 0.2905(3)
C13 C -0.0550(5) 0.3819(4) 0.2890(4)
H9 H -0.0996(5) 0.4100(4) 0.3221(4)
C14 C -0.0958(5) 0.3106(4) 0.2303(3)
H10 H -0.1752(5) 0.2824(4) 0.2164(3)
C15 C -0.0705(4) 0.1079(3) 0.1276(3)
C16 C -0.0846(4) 0.0720(4) 0.2042(3)
H11 H -0.0655(4) 0.1116(4) 0.2527(3)
C17 C -0.1265(5) -0.0217(4) 0.2098(4)
H12 H -0.1356(5) -0.0432(4) 0.2616(4)
C18 C -0.1544(5) -0.0821(4) 0.1397(4)
H13 H -0.1818(5) -0.1446(4) 0.1437(4)
C19 C -0.1414(5) -0.0493(4) 0.0635(4)
H14 H -0.1603(5) -0.0893(4) 0.0152(4)
C20 C -0.1001(4) 0.0435(4) 0.0593(3)
H15 H -0.0917(4) 0.0642(4) 0.0071(3)
C23 C 0.3432(4) 0.2456(3) 0.1260(3)
C24 C 0.3663(5) 0.2232(4) 0.0483(4)
H16 H 0.3047(5) 0.2368(4) -0.0043(4)
C25 C 0.4798(6) 0.1809(4) 0.0483(4)
H17 H 0.4924(6) 0.1669(4) -0.0042(4)
C26 C 0.5713(6) 0.1601(4) 0.1234(5)
H18 H 0.6458(6) 0.1308(4) 0.1228(5)
C27 C 0.5530(5) 0.1832(4) 0.2016(4)
H19 H 0.6165(5) 0.1711(4) 0.2537(4)
C28 C 0.4399(5) 0.2242(4) 0.2019(4)
H20 H 0.4285(5) 0.2378(4) 0.2548(4)
loop_
_geom_bond_atom_site_label_1
_geom_bond_atom_site_label_2
_geom_bond_site_symmetry_1
_geom_bond_site_symmetry_2
O1 B1 1_555 1_555
N1 B1 1_555 1_555
B1 N4 1_555 1_555
C1 N1 1_555 1_555
C2 N1 1_555 1_555
H1 C2 1_555 1_555
N2 C1 1_555 1_555
B2 O1 1_555 1_555
O2 C21 1_555 1_555
C3 C2 1_555 1_555
H2 C3 1_555 1_555
N3 B2 1_555 1_555
N4 C8 1_555 1_555
C4 C3 1_555 1_555
H3 C4 1_555 1_555
C5 C1 1_555 1_555
C6 C5 1_555 1_555
H4 C6 1_555 1_555
C7 N2 1_555 1_555
H5 C7 1_555 1_555
C8 N3 1_555 1_555
C9 N3 1_555 1_555
H6 C9 1_555 1_555
C10 C9 1_555 1_555
H7 C10 1_555 1_555
C11 C10 1_555 1_555
H8 C11 1_555 1_555
C12 C8 1_555 1_555
C13 C12 1_555 1_555
H9 C13 1_555 1_555
C14 N4 1_555 1_555
H10 C14 1_555 1_555
C15 B1 1_555 1_555
C16 C15 1_555 1_555
H11 C16 1_555 1_555
C17 C16 1_555 1_555
H12 C17 1_555 1_555
C18 C17 1_555 1_555
H13 C18 1_555 1_555
C19 C18 1_555 1_555
H14 C19 1_555 1_555
C20 C15 1_555 1_555
H15 C20 1_555 1_555
C21 C22B 1_555 1_555
C22 O2 1_555 1_555
C23 B2 1_555 1_555
C24 C23 1_555 1_555
H16 C24 1_555 1_555
C25 C24 1_555 1_555
H17 C25 1_555 1_555
C26 C25 1_555 1_555
H18 C26 1_555 1_555
C27 C26 1_555 1_555
H19 C27 1_555 1_555
C28 C23 1_555 1_555
H20 C28 1_555 1_555
C22B O2B 1_555 1_555
O2B C21B 1_555 1_555
C21B C22 1_555 1_555
N2 B2 1_555 1_555
C4 C5 1_555 1_555
C6 C7 1_555 1_555
C11 C12 1_555 1_555
C13 C14 1_555 1_555
C19 C20 1_555 1_555
C27 C28 1_555 1_555

#END
