
#######################################################################
#
#                 Cambridge Crystallographic Data Centre
#                                CCDC 
#
#######################################################################
#
# If this CIF has been generated from an entry in the Cambridge 
# Structural Database, then it will include bibliographic, chemical, 
# crystal, experimental, refinement or atomic coordinate data resulting 
# from the CCDC's data processing and validation procedures.
#
#######################################################################

data_JECLEL
_chemical_formula_moiety         'C29 H22 Cl2 O4 S1'
_chemical_name_systematic        
'(E)-2-(4-chlorophenyl)-1-(1-((4-chlorophenyl)sulfonyl)propan-2-ylidene)-1,2-dihydrocyclobuta[b]naphthalen-3-yl acetate'
_symmetry_cell_setting           monoclinic
_symmetry_space_group_name_H-M   'P 21/c'
_symmetry_Int_Tables_number      14
_space_group_name_Hall           '-P 2ybc'
loop_
_symmetry_equiv_pos_site_id
_symmetry_equiv_pos_as_xyz
1 x,y,z
2 -x,1/2+y,1/2-z
3 -x,-y,-z
4 x,1/2-y,1/2+z
_cell_length_a                   9.7920(8)
_cell_length_b                   26.9760(16)
_cell_length_c                   12.4593(10)
_cell_angle_alpha                90
_cell_angle_beta                 129.294(5)
_cell_angle_gamma                90
_cell_volume                     2547.01
_exptl_crystal_colour            yellow
_exptl_crystal_description       block
_chemical_melting_point          '132-133 deg.C'
_cell_formula_units_Z            4
loop_
_atom_site_label
_atom_site_type_symbol
_atom_site_fract_x
_atom_site_fract_y
_atom_site_fract_z
Cl1 Cl 1.55788(11) 0.22563(3) 1.21374(7)
Cl2 Cl 0.43408(17) 0.07805(4) 0.83146(12)
S1 S 0.93860(9) 0.18507(3) 0.59218(7)
O1 O 1.0029(3) 0.18829(8) 0.5172(2)
O2 O 0.7857(2) 0.21324(7) 0.5459(2)
O3 O 0.0306(2) 0.11151(7) 0.1427(2)
C1 C 1.0799(4) 0.20234(12) 0.8587(3)
H1 H 0.965866 0.198407 0.828214
C2 C 1.2178(4) 0.21092(13) 0.9964(3)
H2 H 1.198046 0.212460 1.060113
C3 C 1.3836(4) 0.21716(10) 1.0391(3)
C4 C 1.4156(4) 0.21642(11) 0.9467(3)
H3 H 1.528419 0.222265 0.976389
C5 C 1.2778(3) 0.20686(10) 0.8095(3)
H4 H 1.297400 0.205314 0.745699
C6 C 1.1121(3) 0.19966(9) 0.7670(3)
C7 C 0.8948(3) 0.12174(9) 0.6012(3)
H5 H 1.005637 0.104025 0.663186
H6 H 0.833960 0.119781 0.639280
C8 C 0.7844(3) 0.09744(9) 0.4615(3)
C9 C 0.8813(4) 0.06915(12) 0.4248(3)
H7 H 0.941280 0.041540 0.486772
H8 H 0.965816 0.090501 0.432868
H9 H 0.798873 0.057269 0.331220
C10 C 0.6101(3) 0.10105(9) 0.3761(3)
C11 C 0.4738(3) 0.12702(9) 0.3831(3)
H10 H 0.477419 0.163075 0.375467
C12 C 0.3373(3) 0.10374(9) 0.2410(3)
C13 C 0.4642(3) 0.08248(9) 0.2364(3)
C14 C 0.4200(3) 0.05481(10) 0.1271(3)
H11 H 0.505626 0.041234 0.125115
C15 C 0.2381(3) 0.04761(9) 0.0168(3)
C16 C 0.1088(3) 0.06854(9) 0.0212(3)
C17 C 0.1629(3) 0.09691(9) 0.1383(3)
C18 C -0.0705(4) 0.05957(10) -0.0900(3)
H12 H -0.156402 0.073125 -0.088218
C19 C -0.1198(4) 0.03156(11) -0.1993(3)
H13 H -0.239125 0.026529 -0.272394
C20 C 0.0054(4) 0.01021(11) -0.2037(3)
H14 H -0.029916 -0.009567 -0.278527
C21 C 0.1795(4) 0.01825(10) -0.0986(3)
H15 H 0.262374 0.003995 -0.103031
C22 C 0.4682(3) 0.11366(9) 0.4969(3)
C23 C 0.4064(4) 0.06825(10) 0.5005(3)
H16 H 0.370256 0.044863 0.432289
C24 C 0.3975(4) 0.05706(12) 0.6039(4)
H17 H 0.355707 0.026318 0.605367
C25 C 0.4501(4) 0.09125(12) 0.7037(3)
C26 C 0.5145(4) 0.13625(11) 0.7042(3)
H18 H 0.552727 0.159185 0.773858
C27 C 0.5219(4) 0.14713(10) 0.6004(3)
H19 H 0.564278 0.177920 0.599994
C28 C 0.0277(5) 0.15671(13) 0.1819(4)
C29 C -0.1156(5) 0.16460(14) 0.1887(4)
H20 H -0.205359 0.139949 0.133723
H21 H -0.165456 0.196971 0.153656
H22 H -0.069312 0.162027 0.283287
O4 O 0.1400(4) 0.18703(10) 0.2151(4)
O5? O -0.033(3) 0.1772(7) 0.055(3)
loop_
_geom_bond_atom_site_label_1
_geom_bond_atom_site_label_2
_geom_bond_site_symmetry_1
_geom_bond_site_symmetry_2
Cl1 C3 1_555 1_555
Cl2 C25 1_555 1_555
S1 O1 1_555 1_555
O2 S1 1_555 1_555
O3 C17 1_555 1_555
C1 H1 1_555 1_555
C2 C1 1_555 1_555
H2 C2 1_555 1_555
C3 C2 1_555 1_555
C4 C3 1_555 1_555
H3 C4 1_555 1_555
C5 C4 1_555 1_555
H4 C5 1_555 1_555
C6 S1 1_555 1_555
C7 S1 1_555 1_555
H5 C7 1_555 1_555
H6 C7 1_555 1_555
C8 C7 1_555 1_555
C9 C8 1_555 1_555
H7 C9 1_555 1_555
H8 C9 1_555 1_555
H9 C9 1_555 1_555
C10 C8 1_555 1_555
C11 C10 1_555 1_555
H10 C11 1_555 1_555
C12 C11 1_555 1_555
C13 C10 1_555 1_555
C14 C13 1_555 1_555
H11 C14 1_555 1_555
C15 C14 1_555 1_555
C16 C15 1_555 1_555
C17 C12 1_555 1_555
C18 C16 1_555 1_555
H12 C18 1_555 1_555
C19 C18 1_555 1_555
H13 C19 1_555 1_555
C20 C19 1_555 1_555
H14 C20 1_555 1_555
C21 C15 1_555 1_555
H15 C21 1_555 1_555
C22 C11 1_555 1_555
C23 C22 1_555 1_555
H16 C23 1_555 1_555
C24 C23 1_555 1_555
H17 C24 1_555 1_555
C25 C24 1_555 1_555
C26 C25 1_555 1_555
H18 C26 1_555 1_555
C27 C22 1_555 1_555
H19 C27 1_555 1_555
C28 O3 1_555 1_555
C29 C28 1_555 1_555
H20 C29 1_555 1_555
H21 C29 1_555 1_555
H22 C29 1_555 1_555
O4 C28 1_555 1_555
C1 C6 1_555 1_555
C5 C6 1_555 1_555
C12 C13 1_555 1_555
C16 C17 1_555 1_555
C20 C21 1_555 1_555
C26 C27 1_555 1_555

#END
