
#######################################################################
#
#                 Cambridge Crystallographic Data Centre
#                                CCDC 
#
#######################################################################
#
# If this CIF has been generated from an entry in the Cambridge 
# Structural Database, then it will include bibliographic, chemical, 
# crystal, experimental, refinement or atomic coordinate data resulting 
# from the CCDC's data processing and validation procedures.
#
#######################################################################

data_JECLAH
_chemical_formula_moiety         'C21 H20 Br1 Cl1 F3 N1 O3'
_chemical_name_systematic        
'methyl (2S,3R,4R,5R)-5-(4-bromophenyl)-4-((S)-(4-chlorophenyl)(hydroxy)methyl)-3-methyl-3-(trifluoromethyl)pyrrolidine-2-carboxylate'
_symmetry_cell_setting           monoclinic
_symmetry_space_group_name_H-M   'P 21'
_symmetry_Int_Tables_number      4
_space_group_name_Hall           'P 2yb'
loop_
_symmetry_equiv_pos_site_id
_symmetry_equiv_pos_as_xyz
1 x,y,z
2 -x,1/2+y,-z
_cell_length_a                   7.9928(7)
_cell_length_b                   10.3771(9)
_cell_length_c                   12.8507(11)
_cell_angle_alpha                90
_cell_angle_beta                 98.625(2)
_cell_angle_gamma                90
_cell_volume                     1053.81
_exptl_crystal_colour            colorless
_exptl_crystal_description       block
_chemical_melting_point          '74-75 deg.C'
_cell_formula_units_Z            2
loop_
_atom_site_label
_atom_site_type_symbol
_atom_site_fract_x
_atom_site_fract_y
_atom_site_fract_z
Br1 Br 0.09429(4) 0.64829(4) 0.319298(19)
Cl1 Cl -0.46089(10) 0.75071(9) 0.41891(6)
F1 F 0.34258(19) 0.33012(15) 1.02244(12)
F2 F 0.1278(2) 0.27251(14) 0.91217(14)
F3 F 0.33622(18) 0.36808(14) 0.85823(12)
O1 O 0.5784(2) 0.5474(2) 0.98505(16)
O2 O 0.4555(2) 0.5710(2) 1.12867(14)
O3 O -0.2057(2) 0.42186(18) 0.86174(15)
H1 H -0.2783 0.4291 0.9001
N1 N 0.3030(2) 0.6612(2) 0.86296(14)
H2 H 0.3933 0.6904 0.8424
C1 C 0.1386(2) 0.6585(2) 0.68521(16)
C2 C 0.2094(3) 0.5599(2) 0.6353(2)
H3 H 0.2636 0.4930 0.6752
C3 C 0.2020(3) 0.5578(3) 0.52689(19)
H4 H 0.2512 0.4908 0.4942
C4 C 0.1210(3) 0.6562(3) 0.46872(17)
C5 C 0.0567(3) 0.7587(3) 0.5163(2)
H5 H 0.0064 0.8268 0.4761
C6 C 0.0670(3) 0.7605(2) 0.6242(2)
H6 H 0.0254 0.8311 0.6567
C7 C -0.2330(3) 0.5958(2) 0.7353(2)
C8 C -0.2382(3) 0.5212(2) 0.6460(2)
H7 H -0.1925 0.4386 0.6514
C9 C -0.3097(3) 0.5669(3) 0.5492(2)
H8 H -0.3125 0.5158 0.4895
C10 C -0.3774(3) 0.6894(3) 0.5413(2)
C11 C -0.3799(3) 0.7634(3) 0.6296(2)
H9 H -0.4303 0.8444 0.6244
C12 C -0.3064(3) 0.7161(3) 0.7268(2)
H10 H -0.3068 0.7662 0.7868
C13 C 0.1337(3) 0.6543(2) 0.80231(16)
H11 H 0.0699 0.7295 0.8206
C14 C 0.0474(3) 0.5311(2) 0.83970(18)
H12 H 0.0625 0.4615 0.7903
C15 C 0.1544(3) 0.4957(2) 0.94838(18)
C16 C 0.2866(3) 0.6082(2) 0.96557(18)
H13 H 0.2388 0.6759 1.0055
C17 C -0.1424(3) 0.5464(2) 0.8407(2)
H14 H -0.1613 0.6061 0.8968
C18 C 0.2397(3) 0.3679(2) 0.9353(2)
C19 C 0.4571(3) 0.5730(2) 1.0255(2)
C20 C 0.6085(4) 0.5229(4) 1.1923(3)
H15 H 0.5950 0.5250 1.2653
H16 H 0.7027 0.5760 1.1816
H17 H 0.6288 0.4359 1.1722
C21 C 0.0604(3) 0.4843(3) 1.0435(2)
H18 H 0.1392 0.4622 1.1048
H19 H -0.0246 0.4185 1.0304
H20 H 0.0076 0.5652 1.0549
loop_
_geom_bond_atom_site_label_1
_geom_bond_atom_site_label_2
_geom_bond_site_symmetry_1
_geom_bond_site_symmetry_2
Br1 C4 1_555 1_555
Cl1 C10 1_555 1_555
F1 C18 1_555 1_555
F2 C18 1_555 1_555
F3 C18 1_555 1_555
O1 C19 1_555 1_555
O2 C19 1_555 1_555
O3 H1 1_555 1_555
N1 H2 1_555 1_555
C1 C2 1_555 1_555
C2 H3 1_555 1_555
C3 C2 1_555 1_555
H4 C3 1_555 1_555
C4 C3 1_555 1_555
C5 C4 1_555 1_555
H5 C5 1_555 1_555
C6 C1 1_555 1_555
H6 C6 1_555 1_555
C7 C8 1_555 1_555
C8 H7 1_555 1_555
C9 C8 1_555 1_555
H8 C9 1_555 1_555
C10 C9 1_555 1_555
C11 C10 1_555 1_555
H9 C11 1_555 1_555
C12 C7 1_555 1_555
H10 C12 1_555 1_555
C13 N1 1_555 1_555
H11 C13 1_555 1_555
C14 C13 1_555 1_555
H12 C14 1_555 1_555
C15 C14 1_555 1_555
C16 N1 1_555 1_555
H13 C16 1_555 1_555
C17 O3 1_555 1_555
H14 C17 1_555 1_555
C18 C15 1_555 1_555
C19 C16 1_555 1_555
C20 O2 1_555 1_555
H15 C20 1_555 1_555
H16 C20 1_555 1_555
H17 C20 1_555 1_555
C21 C15 1_555 1_555
H18 C21 1_555 1_555
H19 C21 1_555 1_555
H20 C21 1_555 1_555
C1 C13 1_555 1_555
C5 C6 1_555 1_555
C7 C17 1_555 1_555
C11 C12 1_555 1_555
C14 C17 1_555 1_555
C15 C16 1_555 1_555

#END
