
#######################################################################
#
#                 Cambridge Crystallographic Data Centre
#                                CCDC 
#
#######################################################################
#
# If this CIF has been generated from an entry in the Cambridge 
# Structural Database, then it will include bibliographic, chemical, 
# crystal, experimental, refinement or atomic coordinate data resulting 
# from the CCDC's data processing and validation procedures.
#
#######################################################################

data_JECPIT
_chemical_formula_moiety         'C17 H29 N1 O4'
_chemical_name_systematic        
trans-(3R,7R,9aS)-3-t-butyl-7-hexyltetrahydro-3H,5H,9H-[1,3]oxazolo[4,3-c][1,4]oxazepine-5,9-dione
_symmetry_cell_setting           orthorhombic
_symmetry_space_group_name_H-M   'P 21 21 21'
_symmetry_Int_Tables_number      19
_space_group_name_Hall           'P 2ac 2ab'
loop_
_symmetry_equiv_pos_site_id
_symmetry_equiv_pos_as_xyz
1 x,y,z
2 1/2-x,-y,1/2+z
3 1/2+x,1/2-y,-z
4 -x,1/2+y,1/2-z
_cell_length_a                   5.65117(9)
_cell_length_b                   11.07138(12)
_cell_length_c                   29.0073(4)
_cell_angle_alpha                90
_cell_angle_beta                 90
_cell_angle_gamma                90
_cell_volume                     1814.88
_exptl_crystal_colour            colorless
_exptl_crystal_description       'rect. Prism'
_chemical_melting_point          '94-96 deg.C'
_cell_formula_units_Z            4
loop_
_atom_site_label
_atom_site_type_symbol
_atom_site_fract_x
_atom_site_fract_y
_atom_site_fract_z
C1 C 0.2653(6) 0.8482(2) 0.72425(9)
H1 H 0.1054 0.8618 0.7122
C2 C 0.2788(8) 0.7250(3) 0.74664(12)
H2 H 0.2637 0.6660 0.7221
H3 H 0.4379 0.7168 0.7588
C3 C 0.1127(6) 0.6863(2) 0.78431(10)
C4 C -0.0477(5) 0.8940(2) 0.79511(9)
H4 H -0.1316 0.8883 0.7656
C5 C 0.1675(6) 0.9732(2) 0.78960(10)
C6 C -0.1461(5) 0.7378(2) 0.84985(10)
H5 H -0.2238 0.6617 0.8416
C7 C -0.2168(6) 0.9375(2) 0.83222(11)
H6 H -0.1326 0.9813 0.8561
H7 H -0.3373 0.9898 0.8192
C8 C -0.0240(5) 0.7205(3) 0.89645(11)
C9 C -0.2169(8) 0.6892(5) 0.93141(15)
H8 H -0.3250 0.7557 0.9341
H9 H -0.1459 0.6736 0.9609
H10 H -0.3009 0.6187 0.9212
C10 C 0.1124(8) 0.8322(4) 0.91205(13)
H11 H 0.2273 0.8533 0.8891
H12 H 0.1913 0.8153 0.9406
H13 H 0.0043 0.8982 0.9163
C11 C 0.1493(8) 0.6141(4) 0.89361(15)
H14 H 0.0651 0.5423 0.8850
H15 H 0.2227 0.6022 0.9231
H16 H 0.2687 0.6313 0.8710
C12 C 0.4441(7) 0.8621(3) 0.68576(11)
H17 H 0.5993 0.8397 0.6972
H18 H 0.4506 0.9463 0.6766
C13 C 0.3861(9) 0.7855(4) 0.64398(11)
H19 H 0.4159 0.7017 0.6517
H20 H 0.2182 0.7933 0.6377
C14 C 0.519(3) 0.8147(13) 0.6004(3)
H21 H 0.6866 0.8004 0.6058
H22 H 0.4999 0.9000 0.5938
C15 C 0.444(3) 0.7429(9) 0.5582(3)
H23 H 0.2762 0.7566 0.5532
H24 H 0.5273 0.7747 0.5316
C16 C 0.485(3) 0.6099(9) 0.5602(4)
H25 H 0.3805 0.5747 0.5831
H26 H 0.6467 0.5949 0.5699
C17 C 0.443(13) 0.549(4) 0.5141(13)
H27 H 0.5760 0.5628 0.4943
H28 H 0.3028 0.5821 0.5001
H29 H 0.4219 0.4639 0.5187
N1 N 0.0122(4) 0.77202(19) 0.81152(8)
O1 O 0.0879(6) 0.57879(17) 0.79176(8)
O2 O 0.2058(5) 1.06084(19) 0.81273(8)
O3 O 0.3245(4) 0.94194(17) 0.75727(7)
O4 O -0.3199(4) 0.82960(19) 0.85031(8)
H30? H 0.2448 0.8169 0.6292
H31? H 0.3536 0.7034 0.6538
C18? C 0.588(3) 0.7848(13) 0.6096(4)
H32? H 0.5916 0.8627 0.5942
H33? H 0.7351 0.7763 0.6264
C19? C 0.579(2) 0.6875(10) 0.5731(3)
H34? H 0.6920 0.7087 0.5494
H35? H 0.6335 0.6131 0.5872
C20? C 0.348(3) 0.6608(11) 0.5497(4)
H36? H 0.2965 0.7327 0.5335
H37? H 0.2305 0.6427 0.5731
C21? C 0.358(11) 0.557(4) 0.5160(15)
H38? H 0.4174 0.5852 0.4869
H39? H 0.2016 0.5245 0.5118
H40? H 0.4602 0.4951 0.5278
loop_
_geom_bond_atom_site_label_1
_geom_bond_atom_site_label_2
_geom_bond_site_symmetry_1
_geom_bond_site_symmetry_2
C1 H1 1_555 1_555
C2 C1 1_555 1_555
H2 C2 1_555 1_555
H3 C2 1_555 1_555
C3 C2 1_555 1_555
C4 H4 1_555 1_555
C5 C4 1_555 1_555
C6 H5 1_555 1_555
C7 C4 1_555 1_555
H6 C7 1_555 1_555
H7 C7 1_555 1_555
C8 C6 1_555 1_555
C9 C8 1_555 1_555
H8 C9 1_555 1_555
H9 C9 1_555 1_555
H10 C9 1_555 1_555
C10 C8 1_555 1_555
H11 C10 1_555 1_555
H12 C10 1_555 1_555
H13 C10 1_555 1_555
C11 C8 1_555 1_555
H14 C11 1_555 1_555
H15 C11 1_555 1_555
H16 C11 1_555 1_555
C12 C1 1_555 1_555
H17 C12 1_555 1_555
H18 C12 1_555 1_555
C13 C12 1_555 1_555
H19 C13 1_555 1_555
H20 C13 1_555 1_555
C14 C13 1_555 1_555
H21 C14 1_555 1_555
H22 C14 1_555 1_555
C15 C14 1_555 1_555
H23 C15 1_555 1_555
H24 C15 1_555 1_555
C16 C15 1_555 1_555
H25 C16 1_555 1_555
H26 C16 1_555 1_555
C17 C16 1_555 1_555
H27 C17 1_555 1_555
H28 C17 1_555 1_555
H29 C17 1_555 1_555
N1 C3 1_555 1_555
O1 C3 1_555 1_555
O2 C5 1_555 1_555
O3 C1 1_555 1_555
O4 C6 1_555 1_555
C4 N1 1_555 1_555
C5 O3 1_555 1_555
C6 N1 1_555 1_555
C7 O4 1_555 1_555

#END
