
#######################################################################
#
#                 Cambridge Crystallographic Data Centre
#                                CCDC 
#
#######################################################################
#
# If this CIF has been generated from an entry in the Cambridge 
# Structural Database, then it will include bibliographic, chemical, 
# crystal, experimental, refinement or atomic coordinate data resulting 
# from the CCDC's data processing and validation procedures.
#
#######################################################################

data_JECTAP
_chemical_formula_moiety         'C17 H18 O2'
_chemical_name_systematic        phenyl(3-phenyloxolan-2-yl)methanol
_symmetry_cell_setting           monoclinic
_symmetry_space_group_name_H-M   'P 21'
_symmetry_Int_Tables_number      4
_space_group_name_Hall           'P 2yb'
loop_
_symmetry_equiv_pos_site_id
_symmetry_equiv_pos_as_xyz
1 x,y,z
2 -x,1/2+y,-z
_cell_length_a                   7.9793(9)
_cell_length_b                   5.7456(9)
_cell_length_c                   15.4757(16)
_cell_angle_alpha                90
_cell_angle_beta                 103.111(7)
_cell_angle_gamma                90
_cell_volume                     691.002
_exptl_crystal_colour            colorless
_exptl_crystal_description       Needle
_cell_formula_units_Z            2
loop_
_atom_site_label
_atom_site_type_symbol
_atom_site_fract_x
_atom_site_fract_y
_atom_site_fract_z
O1 O 1.0253(3) 0.7623(5) 0.11569(15)
H1 H 1.0330 0.7894 0.0648
O2 O 0.8772(4) 0.3336(6) 0.04123(15)
C1 C 1.1862(4) 0.7321(7) 0.2924(2)
H2 H 1.1126 0.8555 0.2717
C2 C 1.2781(5) 0.7299(8) 0.3797(3)
H3 H 1.2644 0.8511 0.4173
C3 C 1.3894(5) 0.5505(9) 0.4117(3)
H4 H 1.4509 0.5496 0.4704
C4 C 1.4078(4) 0.3741(9) 0.3555(3)
H5 H 1.4835 0.2529 0.3763
C5 C 1.3164(4) 0.3723(8) 0.2688(2)
H6 H 1.3303 0.2497 0.2318
C6 C 1.2030(4) 0.5527(7) 0.2359(2)
C7 C 1.0981(5) 0.5394(7) 0.1423(2)
H7 H 1.1748 0.4972 0.1035
C8 C 0.9577(4) 0.3535(7) 0.13291(19)
H8 H 1.0098 0.2041 0.1548
C9 C 0.7037(6) 0.3529(19) 0.0297(3)
H9 H 0.6517 0.2001 0.0181
H10 H 0.6588 0.4502 -0.0215
C10 C 0.6569(5) 0.4519(9) 0.1065(3)
H11 H 0.5577 0.3725 0.1190
H12 H 0.6300 0.6160 0.0974
C11 C 0.8157(4) 0.4173(7) 0.1828(2)
H13 H 0.8453 0.5679 0.2120
C12 C 0.7986(4) 0.2410(7) 0.2532(2)
C13 C 0.6946(5) 0.0433(8) 0.2340(3)
H14 H 0.6334 0.0166 0.1762
C14 C 0.6819(5) -0.1133(8) 0.3004(3)
H15 H 0.6098 -0.2418 0.2869
C15 C 0.7734(5) -0.0814(9) 0.3851(3)
H16 H 0.7653 -0.1879 0.4292
C16 C 0.8780(5) 0.1107(9) 0.4045(3)
H17 H 0.9412 0.1346 0.4621
C17 C 0.8896(4) 0.2679(8) 0.3388(2)
H18 H 0.9615 0.3963 0.3532
loop_
_geom_bond_atom_site_label_1
_geom_bond_atom_site_label_2
_geom_bond_site_symmetry_1
_geom_bond_site_symmetry_2
O1 H1 1_555 1_555
O2 C8 1_555 1_555
C1 H2 1_555 1_555
C2 C1 1_555 1_555
H3 C2 1_555 1_555
C3 C2 1_555 1_555
H4 C3 1_555 1_555
C4 C3 1_555 1_555
H5 C4 1_555 1_555
C5 C4 1_555 1_555
H6 C5 1_555 1_555
C6 C1 1_555 1_555
C7 O1 1_555 1_555
H7 C7 1_555 1_555
C8 C7 1_555 1_555
H8 C8 1_555 1_555
C9 O2 1_555 1_555
H9 C9 1_555 1_555
H10 C9 1_555 1_555
C10 C9 1_555 1_555
H11 C10 1_555 1_555
H12 C10 1_555 1_555
C11 C8 1_555 1_555
H13 C11 1_555 1_555
C12 C11 1_555 1_555
C13 C12 1_555 1_555
H14 C13 1_555 1_555
C14 C13 1_555 1_555
H15 C14 1_555 1_555
C15 C14 1_555 1_555
H16 C15 1_555 1_555
C16 C15 1_555 1_555
H17 C16 1_555 1_555
C17 C12 1_555 1_555
H18 C17 1_555 1_555
C5 C6 1_555 1_555
C6 C7 1_555 1_555
C10 C11 1_555 1_555
C16 C17 1_555 1_555

#END
