
#######################################################################
#
#                 Cambridge Crystallographic Data Centre
#                                CCDC 
#
#######################################################################
#
# If this CIF has been generated from an entry in the Cambridge 
# Structural Database, then it will include bibliographic, chemical, 
# crystal, experimental, refinement or atomic coordinate data resulting 
# from the CCDC's data processing and validation procedures.
#
#######################################################################

data_JECWEW
_chemical_formula_moiety         'C20 H12 N2 S1'
_chemical_name_systematic        
2-(1,3-benzothiazol-2-yl)-3-(naphthalen-1-yl)prop-2-enenitrile
_symmetry_cell_setting           monoclinic
_symmetry_space_group_name_H-M   'P 21/c'
_symmetry_Int_Tables_number      14
_space_group_name_Hall           '-P 2ybc'
loop_
_symmetry_equiv_pos_site_id
_symmetry_equiv_pos_as_xyz
1 x,y,z
2 -x,1/2+y,1/2-z
3 -x,-y,-z
4 x,1/2-y,1/2+z
_cell_length_a                   8.8463(8)
_cell_length_b                   16.0512(15)
_cell_length_c                   11.2042(10)
_cell_angle_alpha                90
_cell_angle_beta                 107.683(10)
_cell_angle_gamma                90
_cell_volume                     1515.76
_exptl_crystal_colour            'light yellow'
_exptl_crystal_description       plate
_cell_formula_units_Z            4
loop_
_atom_site_label
_atom_site_type_symbol
_atom_site_fract_x
_atom_site_fract_y
_atom_site_fract_z
S1 S 0.31883(10) 0.23073(6) 0.91825(8)
N1 N 0.1291(4) 0.0834(2) 0.4860(3)
N2 N 0.3896(3) 0.20978(16) 0.7112(2)
C1 C 0.0664(4) 0.1055(2) 0.9024(3)
C2 C -0.0372(4) 0.1627(2) 0.9215(4)
H1 H -0.1063 0.1899 0.8533
C3 C -0.0414(5) 0.1816(3) 1.0443(4)
H2 H -0.1126 0.2209 1.0561
C4 C 0.0594(5) 0.1417(3) 1.1448(4)
H3 H 0.0573 0.1547 1.2252
C5 C 0.1667(4) 0.0811(2) 1.1282(3)
C6 C 0.2739(5) 0.0391(3) 1.2297(4)
H4 H 0.2741 0.0519 1.3108
C7 C 0.3755(5) -0.0188(3) 1.2133(4)
H5 H 0.4451 -0.0455 1.2819
C8 C 0.3749(5) -0.0383(3) 1.0925(4)
H6 H 0.4440 -0.0791 1.0812
C9 C 0.2770(4) 0.0002(2) 0.9903(3)
H7 H 0.2809 -0.0139 0.9108
C10 C 0.1684(4) 0.0619(2) 1.0042(3)
C11 C 0.0692(4) 0.0883(2) 0.7722(3)
H8 H -0.0024 0.0492 0.7257
C12 C 0.1671(4) 0.1248(2) 0.7171(3)
C13 C 0.2926(4) 0.18555(19) 0.7722(3)
C14 C 0.4753(4) 0.2874(2) 0.8978(3)
C15 C 0.5718(4) 0.3454(2) 0.9783(3)
H9 H 0.5577 0.3580 1.0553
C16 C 0.6885(4) 0.3833(2) 0.9402(3)
H10 H 0.7544 0.4223 0.9922
C17 C 0.7100(4) 0.3646(2) 0.8253(3)
H11 H 0.7904 0.3909 0.8021
C18 C 0.6145(4) 0.3080(2) 0.7459(3)
H12 H 0.6292 0.2964 0.6688
C19 C 0.4946(4) 0.26777(19) 0.7814(3)
C20 C 0.1488(4) 0.1021(2) 0.5879(3)
loop_
_geom_bond_atom_site_label_1
_geom_bond_atom_site_label_2
_geom_bond_site_symmetry_1
_geom_bond_site_symmetry_2
S1 C13 1_555 1_555
N1 C20 1_555 1_555
N2 C13 1_555 1_555
C1 C2 1_555 1_555
C2 H1 1_555 1_555
C3 C2 1_555 1_555
H2 C3 1_555 1_555
C4 C3 1_555 1_555
H3 C4 1_555 1_555
C5 C4 1_555 1_555
C6 C5 1_555 1_555
H4 C6 1_555 1_555
C7 C6 1_555 1_555
H5 C7 1_555 1_555
C8 C7 1_555 1_555
H6 C8 1_555 1_555
C9 C8 1_555 1_555
H7 C9 1_555 1_555
C10 C1 1_555 1_555
C11 C1 1_555 1_555
H8 C11 1_555 1_555
C12 C11 1_555 1_555
C13 C12 1_555 1_555
C14 S1 1_555 1_555
C15 C14 1_555 1_555
H9 C15 1_555 1_555
C16 C15 1_555 1_555
H10 C16 1_555 1_555
C17 C16 1_555 1_555
H11 C17 1_555 1_555
C18 C17 1_555 1_555
H12 C18 1_555 1_555
C19 N2 1_555 1_555
C20 C12 1_555 1_555
C5 C10 1_555 1_555
C9 C10 1_555 1_555
C14 C19 1_555 1_555
C18 C19 1_555 1_555

#END
