
#######################################################################
#
#                 Cambridge Crystallographic Data Centre
#                                CCDC 
#
#######################################################################
#
# If this CIF has been generated from an entry in the Cambridge 
# Structural Database, then it will include bibliographic, chemical, 
# crystal, experimental, refinement or atomic coordinate data resulting 
# from the CCDC's data processing and validation procedures.
#
#######################################################################

data_JECWIX
_chemical_formula_moiety         'C24 H28 O4 S1 Si1'
_chemical_name_systematic        
'rac-3-t-Butyldiphenylsiloxy-2,3,3a,7a-tetrahydrobenzo(b)thiophen-5(4H)-one 1,1-dioxide'
_symmetry_cell_setting           triclinic
_symmetry_space_group_name_H-M   'P -1'
_symmetry_Int_Tables_number      2
_space_group_name_Hall           '-P 1'
loop_
_symmetry_equiv_pos_site_id
_symmetry_equiv_pos_as_xyz
1 x,y,z
2 -x,-y,-z
_cell_length_a                   9.113(2)
_cell_length_b                   11.020(2)
_cell_length_c                   12.551(3)
_cell_angle_alpha                74.01(2)
_cell_angle_beta                 70.83(2)
_cell_angle_gamma                88.70(2)
_cell_volume                     1141.29
_exptl_crystal_colour            colorless
_cell_formula_units_Z            2
loop_
_atom_site_label
_atom_site_type_symbol
_atom_site_fract_x
_atom_site_fract_y
_atom_site_fract_z
S1 S 0.05317(7) 0.22070(5) 0.00138(4)
C1 C -0.0442(3) 0.2132(3) 0.1527(2)
C2 C 0.0544(2) 0.1389(2) 0.22194(15)
C3 C 0.1342(2) 0.0431(2) 0.15667(15)
C4 C 0.2602(3) -0.0236(2) 0.2005(2)
C5 C 0.4127(3) 0.0519(2) 0.1570(2)
C6 C 0.4553(3) 0.1463(2) 0.0413(2)
C7 C 0.3580(3) 0.1728(2) -0.0183(2)
C8 C 0.1976(3) 0.1107(2) 0.0243(2)
O1 O 0.5037(2) 0.0323(2) 0.2115(2)
O2 O 0.1269(3) 0.3436(2) -0.0659(2)
O3 O -0.0509(2) 0.1665(2) -0.0404(2)
O4 O 0.16820(13) 0.21882(11) 0.22938(10)
Si1 Si 0.13921(5) 0.31090(4) 0.31845(4)
C9 C -0.0735(2) 0.3381(2) 0.37314(14)
C10 C -0.1716(2) 0.2433(2) 0.4680(2)
C11 C -0.3314(2) 0.2526(2) 0.5110(2)
C12 C -0.3957(2) 0.3573(2) 0.4605(2)
C13 C -0.3026(3) 0.4518(2) 0.3681(2)
C14 C -0.1423(2) 0.4424(2) 0.3245(2)
C15 C 0.1875(2) 0.2284(2) 0.45369(15)
C16 C 0.2734(2) 0.1221(2) 0.4642(2)
C17 C 0.3068(2) 0.0677(2) 0.5668(2)
C18 C 0.2566(2) 0.1186(2) 0.6596(2)
C19 C 0.1715(2) 0.2237(2) 0.6521(2)
C20 C 0.1371(2) 0.2772(2) 0.5503(2)
C21 C 0.2774(2) 0.4548(2) 0.2284(2)
C22 C 0.2637(4) 0.5522(3) 0.2966(3)
C23 C 0.4432(3) 0.4093(3) 0.2017(2)
C24 C 0.2506(4) 0.5148(3) 0.1112(2)
H1 H -0.057(3) 0.293(2) 0.156(2)
H2 H -0.146(4) 0.169(3) 0.169(3)
H3 H -0.013(2) 0.095(2) 0.301(2)
H4 H 0.054(2) -0.017(2) 0.169(2)
H5 H 0.218(3) -0.050(2) 0.285(2)
H6 H 0.282(3) -0.100(2) 0.172(2)
H7 H 0.560(3) 0.194(2) 0.010(2)
H8 H 0.388(3) 0.228(2) -0.095(2)
H9 H 0.191(3) 0.048(2) -0.016(2)
H10 H -0.125(2) 0.163(2) 0.508(2)
H11 H -0.396(3) 0.182(2) 0.580(2)
H12 H -0.508(3) 0.359(2) 0.492(2)
H13 H -0.345(3) 0.526(2) 0.322(2)
H14 H -0.078(2) 0.510(2) 0.259(2)
H15 H 0.315(2) 0.089(2) 0.402(2)
H16 H 0.366(3) -0.002(2) 0.571(2)
H17 H 0.279(3) 0.083(2) 0.729(2)
H18 H 0.134(2) 0.261(2) 0.717(2)
H19 H 0.073(3) 0.350(2) 0.547(2)
H20 H 0.342(3) 0.621(2) 0.252(2)
H21 H 0.287(4) 0.537(3) 0.364(3)
H22 H 0.166(4) 0.589(3) 0.308(3)
H23 H 0.453(3) 0.344(2) 0.158(2)
H24 H 0.523(3) 0.489(3) 0.152(3)
H25 H 0.471(3) 0.350(3) 0.267(3)
H26 H 0.325(4) 0.579(3) 0.068(3)
H27 H 0.147(4) 0.545(3) 0.120(3)
H28 H 0.255(3) 0.456(3) 0.066(3)
loop_
_geom_bond_atom_site_label_1
_geom_bond_atom_site_label_2
_geom_bond_site_symmetry_1
_geom_bond_site_symmetry_2
S1 C1 1_555 1_555
C1 C2 1_555 1_555
C2 C3 1_555 1_555
C3 C4 1_555 1_555
C4 C5 1_555 1_555
C5 C6 1_555 1_555
C6 C7 1_555 1_555
C7 C8 1_555 1_555
C8 S1 1_555 1_555
O1 C5 1_555 1_555
O2 S1 1_555 1_555
O3 S1 1_555 1_555
O4 C2 1_555 1_555
Si1 O4 1_555 1_555
C9 Si1 1_555 1_555
C10 C9 1_555 1_555
C11 C10 1_555 1_555
C12 C11 1_555 1_555
C13 C12 1_555 1_555
C14 C9 1_555 1_555
C15 Si1 1_555 1_555
C16 C15 1_555 1_555
C17 C16 1_555 1_555
C18 C17 1_555 1_555
C19 C18 1_555 1_555
C20 C15 1_555 1_555
C21 Si1 1_555 1_555
C22 C21 1_555 1_555
C23 C21 1_555 1_555
C24 C21 1_555 1_555
H1 C1 1_555 1_555
H2 C1 1_555 1_555
H3 C2 1_555 1_555
H4 C3 1_555 1_555
H5 C4 1_555 1_555
H6 C4 1_555 1_555
H7 C6 1_555 1_555
H8 C7 1_555 1_555
H9 C8 1_555 1_555
H10 C10 1_555 1_555
H11 C11 1_555 1_555
H12 C12 1_555 1_555
H13 C13 1_555 1_555
H14 C14 1_555 1_555
H15 C16 1_555 1_555
H16 C17 1_555 1_555
H17 C18 1_555 1_555
H18 C19 1_555 1_555
H19 C20 1_555 1_555
H20 C22 1_555 1_555
H21 C22 1_555 1_555
H22 C22 1_555 1_555
H23 C23 1_555 1_555
H24 C23 1_555 1_555
H25 C23 1_555 1_555
H26 C24 1_555 1_555
H27 C24 1_555 1_555
H28 C24 1_555 1_555
C3 C8 1_555 1_555
C13 C14 1_555 1_555
C19 C20 1_555 1_555

#END
