
#######################################################################
#
#                 Cambridge Crystallographic Data Centre
#                                CCDC 
#
#######################################################################
#
# If this CIF has been generated from an entry in the Cambridge 
# Structural Database, then it will include bibliographic, chemical, 
# crystal, experimental, refinement or atomic coordinate data resulting 
# from the CCDC's data processing and validation procedures.
#
#######################################################################

data_JECWET
_chemical_formula_moiety         'C17 H30 O4 S1 Si1'
_chemical_name_systematic        
'rac-3-Tri-isopropylsiloxy-2,3,3a,7a-tetrahydrobenzo(b)thiophen-5(4H)-one 1,1-dioxide'
_symmetry_cell_setting           triclinic
_symmetry_space_group_name_H-M   'P -1'
_symmetry_Int_Tables_number      2
_space_group_name_Hall           '-P 1'
loop_
_symmetry_equiv_pos_site_id
_symmetry_equiv_pos_as_xyz
1 x,y,z
2 -x,-y,-z
_cell_length_a                   7.4383(14)
_cell_length_b                   8.1000(15)
_cell_length_c                   16.895(3)
_cell_angle_alpha                80.202(14)
_cell_angle_beta                 88.800(15)
_cell_angle_gamma                76.231(14)
_cell_volume                     974.051
_exptl_crystal_colour            colorless
_cell_formula_units_Z            2
loop_
_atom_site_label
_atom_site_type_symbol
_atom_site_fract_x
_atom_site_fract_y
_atom_site_fract_z
S1 S 0.79906(9) -0.18444(7) 0.46833(3)
C1 C 0.7710(4) 0.0175(3) 0.40049(14)
C2 C 0.7909(3) -0.0326(3) 0.31680(12)
C3 C 0.6957(3) -0.1810(3) 0.31841(13)
C4 C 0.4843(3) -0.1271(3) 0.3228(2)
C5 C 0.3944(3) -0.2766(3) 0.34314(14)
C6 C 0.5019(4) -0.4338(3) 0.39332(14)
C7 C 0.6743(4) -0.4490(3) 0.41811(14)
C8 C 0.7802(3) -0.3145(3) 0.39181(13)
O1 O 0.2368(2) -0.2657(2) 0.32158(12)
O2 O 0.6460(3) -0.1815(2) 0.52186(10)
O3 O 0.9835(3) -0.2367(2) 0.50276(11)
O4 O 0.7130(2) 0.1107(2) 0.25649(8)
Si1 Si 0.82792(8) 0.18351(7) 0.17783(3)
C9 C 0.8786(4) 0.0267(3) 0.10460(15)
C10 C 1.0211(5) -0.1412(4) 0.1342(2)
C11 C 0.7037(6) -0.0116(5) 0.0739(3)
C12 C 0.6593(3) 0.3839(3) 0.12737(14)
C13 C 0.5652(6) 0.5046(4) 0.1837(2)
C14 C 0.7386(6) 0.4797(4) 0.0544(2)
C15 C 1.0520(3) 0.2132(3) 0.21587(14)
C16 C 1.1902(5) 0.2483(6) 0.1511(3)
C17 C 1.0283(6) 0.3451(5) 0.2732(2)
H1 H 0.647(3) 0.088(3) 0.4081(12)
H2 H 0.864(3) 0.066(3) 0.4124(13)
H3 H 0.921(3) -0.077(2) 0.3073(11)
H4 H 0.727(3) -0.232(2) 0.2713(12)
H5 H 0.437(3) -0.062(3) 0.2715(13)
H6 H 0.449(3) -0.054(3) 0.3623(13)
H7 H 0.433(3) -0.524(3) 0.4072(14)
H8 H 0.736(3) -0.551(3) 0.4536(14)
H9 H 0.905(3) -0.362(3) 0.3822(12)
H10 H 0.924(3) 0.082(3) 0.062(2)
H11 H 0.982(4) -0.209(4) 0.181(2)
H12 H 1.047(4) -0.217(4) 0.092(2)
H13 H 1.137(4) -0.125(4) 0.150(2)
H14 H 0.634(5) -0.062(4) 0.115(2)
H15 H 0.733(4) -0.091(4) 0.037(2)
H16 H 0.629(4) 0.086(4) 0.045(2)
H17 H 0.574(3) 0.333(3) 0.1103(14)
H18 H 0.657(5) 0.564(4) 0.198(2)
H19 H 0.470(5) 0.593(4) 0.156(2)
H20 H 0.525(4) 0.441(4) 0.234(2)
H21 H 0.827(4) 0.529(4) 0.075(2)
H22 H 0.639(4) 0.580(4) 0.029(2)
H23 H 0.782(4) 0.398(4) 0.019(2)
H24 H 1.103(3) 0.101(3) 0.2444(14)
H25 H 1.149(4) 0.367(4) 0.120(2)
H26 H 1.201(5) 0.186(5) 0.112(2)
H27 H 1.305(5) 0.242(4) 0.176(2)
H28 H 0.935(5) 0.330(4) 0.314(2)
H29 H 0.986(5) 0.460(5) 0.243(2)
H30 H 1.151(5) 0.330(4) 0.303(2)
loop_
_geom_bond_atom_site_label_1
_geom_bond_atom_site_label_2
_geom_bond_site_symmetry_1
_geom_bond_site_symmetry_2
S1 C1 1_555 1_555
C1 C2 1_555 1_555
C2 C3 1_555 1_555
C3 C4 1_555 1_555
C4 C5 1_555 1_555
C5 C6 1_555 1_555
C6 C7 1_555 1_555
C7 C8 1_555 1_555
C8 S1 1_555 1_555
O1 C5 1_555 1_555
O2 S1 1_555 1_555
O3 S1 1_555 1_555
O4 C2 1_555 1_555
Si1 O4 1_555 1_555
C9 Si1 1_555 1_555
C10 C9 1_555 1_555
C11 C9 1_555 1_555
C12 Si1 1_555 1_555
C13 C12 1_555 1_555
C14 C12 1_555 1_555
C15 Si1 1_555 1_555
C16 C15 1_555 1_555
C17 C15 1_555 1_555
H1 C1 1_555 1_555
H2 C1 1_555 1_555
H3 C2 1_555 1_555
H4 C3 1_555 1_555
H5 C4 1_555 1_555
H6 C4 1_555 1_555
H7 C6 1_555 1_555
H8 C7 1_555 1_555
H9 C8 1_555 1_555
H10 C9 1_555 1_555
H11 C10 1_555 1_555
H12 C10 1_555 1_555
H13 C10 1_555 1_555
H14 C11 1_555 1_555
H15 C11 1_555 1_555
H16 C11 1_555 1_555
H17 C12 1_555 1_555
H18 C13 1_555 1_555
H19 C13 1_555 1_555
H20 C13 1_555 1_555
H21 C14 1_555 1_555
H22 C14 1_555 1_555
H23 C14 1_555 1_555
H24 C15 1_555 1_555
H25 C16 1_555 1_555
H26 C16 1_555 1_555
H27 C16 1_555 1_555
H28 C17 1_555 1_555
H29 C17 1_555 1_555
H30 C17 1_555 1_555
C3 C8 1_555 1_555

#END
