
#######################################################################
#
#                 Cambridge Crystallographic Data Centre
#                                CCDC 
#
#######################################################################
#
# If this CIF has been generated from an entry in the Cambridge 
# Structural Database, then it will include bibliographic, chemical, 
# crystal, experimental, refinement or atomic coordinate data resulting 
# from the CCDC's data processing and validation procedures.
#
#######################################################################

data_JEDCAZ
_chemical_name_common            
'1,2-bis[2-methyl-5-(2-chlorophenyl)-3-thienyl]- 3,3,4,4,5,5-hexafluorocyclopent-1-ene'
_chemical_formula_moiety         'C27 H16 Cl2 F6 S2'
_chemical_name_systematic        
3,3'-(3,3,4,4,5,5-hexafluorocyclopent-1-ene-1,2-diyl)bis[5-(2-chlorophenyl)-2-methylthiophene]
_symmetry_cell_setting           triclinic
_symmetry_space_group_name_H-M   'P -1'
_symmetry_Int_Tables_number      2
_space_group_name_Hall           '-P 1'
loop_
_symmetry_equiv_pos_site_id
_symmetry_equiv_pos_as_xyz
1 x,y,z
2 -x,-y,-z
_cell_length_a                   8.3612(5)
_cell_length_b                   11.8991(7)
_cell_length_c                   13.3979(7)
_cell_angle_alpha                94.667(3)
_cell_angle_beta                 99.927(3)
_cell_angle_gamma                105.882(3)
_cell_volume                     1251.21
_exptl_crystal_colour            colorless
_exptl_crystal_description       block
_cell_formula_units_Z            2
loop_
_atom_site_label
_atom_site_type_symbol
_atom_site_fract_x
_atom_site_fract_y
_atom_site_fract_z
F1 F 0.94621(16) 0.42238(12) 0.68682(10)
F2 F 0.66362(18) 0.27524(13) 0.59259(10)
F3 F 0.97290(15) 0.55419(12) 0.85262(10)
F4 F 0.83904(16) 0.40994(13) 0.92427(9)
F5 F 0.93077(16) 0.28731(12) 0.78785(10)
F6 F 0.60254(16) 0.20721(11) 0.73129(11)
S1 S 0.19182(6) 0.44838(5) 0.52368(4)
S2 S 0.44459(6) 0.67914(4) 0.93354(4)
C1 C 0.1542(2) 0.30129(19) 0.54138(15)
C2 C 0.2915(2) 0.28732(18) 0.60626(15)
H1 H 0.2981 0.2130 0.6246
C3 C 0.4233(2) 0.39467(18) 0.64349(14)
C4 C 0.3870(2) 0.49101(18) 0.60523(14)
C5 C 0.4911(3) 0.61764(19) 0.62287(16)
H2 H 0.5980 0.6270 0.6708
H3 H 0.4281 0.6663 0.6515
H4 H 0.5155 0.6427 0.5578
C6 C 0.5828(2) 0.40005(18) 0.71145(14)
C7 C 0.6707(3) 0.30804(19) 0.69248(15)
C8 C 0.8548(3) 0.36530(19) 0.75072(15)
C9 C 0.8381(2) 0.45562(19) 0.83443(15)
C10 C 0.6716(2) 0.47820(18) 0.79449(14)
C11 C 0.6198(2) 0.57061(18) 0.84796(14)
C12 C 0.7224(3) 0.69031(18) 0.87545(15)
H5 H 0.8338 0.7181 0.8627
C13 C 0.6453(3) 0.76098(19) 0.92172(16)
C14 C 0.4638(2) 0.55070(18) 0.87537(14)
C15 C 0.3219(2) 0.43918(18) 0.86162(16)
H6 H 0.3536 0.3749 0.8275
H7 H 0.2197 0.4491 0.8197
H8 H 0.2992 0.4203 0.9286
C16 C 0.7036(8) 0.8888(2) 0.9640(4)
C17 C 0.6745(8) 0.9217(4) 1.0596(4)
H9 H 0.6172 0.8635 1.0961
C18 C 0.7291(7) 1.0398(4) 1.1018(4)
H10 H 0.7092 1.0623 1.1671
C19 C 0.8129(6) 1.1249(3) 1.0484(4)
H11 H 0.8503 1.2056 1.0772
C20 C 0.8421(6) 1.0921(3) 0.9528(4)
H12 H 0.8993 1.1503 0.9163
C21 C 0.7874(7) 0.9740(4) 0.9106(3)
Cl1 Cl 0.8232(4) 0.94038(16) 0.79068(13)
Cl2 Cl -0.06925(10) 0.29879(7) 0.32438(6)
C22 C -0.01318(17) 0.20465(12) 0.50305(12)
C23 C -0.1187(2) 0.20023(14) 0.40959(12)
C24 C -0.2715(2) 0.11102(17) 0.37950(12)
H13 H -0.3436 0.1080 0.3156
C25 C -0.31878(18) 0.02623(15) 0.44287(15)
H14 H -0.4232 -0.0347 0.4223
C26 C -0.21327(19) 0.03065(13) 0.53634(13)
H15 H -0.2456 -0.0273 0.5797
C27 C -0.06048(17) 0.11986(13) 0.56643(10)
H16 H 0.0116 0.1229 0.6303
C28? C 0.7162(8) 0.8913(2) 0.9453(4)
C29? C 0.7022(6) 0.9545(3) 1.0337(3)
C30? C 0.7693(6) 1.0766(3) 1.0508(3)
H17? H 0.7597 1.1198 1.1111
C31? C 0.8505(6) 1.1354(2) 0.9796(4)
H18? H 0.8963 1.2188 0.9913
C32? C 0.8645(6) 1.0721(4) 0.8912(4)
H19? H 0.9200 1.1123 0.8426
C33? C 0.7974(8) 0.9501(4) 0.8741(3)
H20? H 0.8070 0.9068 0.8138
Cl3? Cl 0.6132(2) 0.88918(12) 1.12859(10)
Cl4? Cl -0.0164(2) 0.08661(18) 0.63089(12)
C34? C -0.0054(10) 0.2320(9) 0.4823(8)
C35? C -0.0774(11) 0.2628(7) 0.3911(8)
H21? H -0.0193 0.3319 0.3664
C36? C -0.2344(11) 0.1926(8) 0.3360(6)
H22? H -0.2836 0.2137 0.2736
C37? C -0.3194(10) 0.0915(8) 0.3721(8)
H23? H -0.4267 0.0435 0.3344
C38? C -0.2474(12) 0.0606(7) 0.4633(8)
H24? H -0.3055 -0.0085 0.4880
C39? C -0.0904(13) 0.1308(9) 0.5184(7)
loop_
_geom_bond_atom_site_label_1
_geom_bond_atom_site_label_2
_geom_bond_site_symmetry_1
_geom_bond_site_symmetry_2
F1 C8 1_555 1_555
F2 C7 1_555 1_555
F3 C9 1_555 1_555
F4 C9 1_555 1_555
F5 C8 1_555 1_555
F6 C7 1_555 1_555
S1 C1 1_555 1_555
S2 C13 1_555 1_555
C1 C2 1_555 1_555
C2 H1 1_555 1_555
C3 C2 1_555 1_555
C4 S1 1_555 1_555
C5 C4 1_555 1_555
H2 C5 1_555 1_555
H3 C5 1_555 1_555
H4 C5 1_555 1_555
C6 C3 1_555 1_555
C7 C6 1_555 1_555
C8 C7 1_555 1_555
C9 C8 1_555 1_555
C10 C6 1_555 1_555
C11 C10 1_555 1_555
C12 C11 1_555 1_555
H5 C12 1_555 1_555
C13 C12 1_555 1_555
C14 S2 1_555 1_555
C15 C14 1_555 1_555
H6 C15 1_555 1_555
H7 C15 1_555 1_555
H8 C15 1_555 1_555
C16 C13 1_555 1_555
C17 C16 1_555 1_555
H9 C17 1_555 1_555
C18 C17 1_555 1_555
H10 C18 1_555 1_555
C19 C18 1_555 1_555
H11 C19 1_555 1_555
C20 C19 1_555 1_555
H12 C20 1_555 1_555
C21 C16 1_555 1_555
Cl1 C21 1_555 1_555
Cl2 C23 1_555 1_555
C22 C1 1_555 1_555
C23 C22 1_555 1_555
C24 C23 1_555 1_555
H13 C24 1_555 1_555
C25 C24 1_555 1_555
H14 C25 1_555 1_555
C26 C25 1_555 1_555
H15 C26 1_555 1_555
C27 C22 1_555 1_555
H16 C27 1_555 1_555
C3 C4 1_555 1_555
C9 C10 1_555 1_555
C11 C14 1_555 1_555
C20 C21 1_555 1_555
C26 C27 1_555 1_555

#END
