
#######################################################################
#
#                 Cambridge Crystallographic Data Centre
#                                CCDC 
#
#######################################################################
#
# If this CIF has been generated from an entry in the Cambridge 
# Structural Database, then it will include bibliographic, chemical, 
# crystal, experimental, refinement or atomic coordinate data resulting 
# from the CCDC's data processing and validation procedures.
#
#######################################################################

data_JEDDOO
_chemical_formula_moiety         'C11 H11 N3'
_chemical_name_systematic        '[4-(dimethylamino)phenyl]propanedinitrile'
_symmetry_cell_setting           monoclinic
_symmetry_space_group_name_H-M   'P 21/c'
_symmetry_Int_Tables_number      14
_space_group_name_Hall           '-P 2ybc'
loop_
_symmetry_equiv_pos_site_id
_symmetry_equiv_pos_as_xyz
1 x,y,z
2 -x,1/2+y,1/2-z
3 -x,-y,-z
4 x,1/2-y,1/2+z
_cell_length_a                   8.032(2)
_cell_length_b                   6.421(2)
_cell_length_c                   19.345(4)
_cell_angle_alpha                90
_cell_angle_beta                 96.34(3)
_cell_angle_gamma                90
_cell_volume                     991.587
_exptl_crystal_colour            'light green'
_exptl_crystal_description       plate
_cell_formula_units_Z            4
loop_
_atom_site_label
_atom_site_type_symbol
_atom_site_fract_x
_atom_site_fract_y
_atom_site_fract_z
C1 C 0.85575(14) 0.81756(17) 0.43852(6)
H1 H 0.8131 0.9156 0.4712
H2 H 0.8442 0.8786 0.3918
H3 H 0.9742 0.7884 0.4532
C2 C 0.71846(15) 0.52305(19) 0.37129(5)
H4 H 0.7862 0.3966 0.3693
H5 H 0.7411 0.6173 0.3336
H6 H 0.5994 0.4858 0.3661
C3 C 0.74850(11) 0.51863(15) 0.49816(5)
C4 C 0.81372(13) 0.59998(16) 0.56321(5)
H7 H 0.8677 0.7319 0.5654
C5 C 0.80031(12) 0.49059(15) 0.62385(5)
H8 H 0.8447 0.549 0.6671
C6 C 0.72337(11) 0.29720(15) 0.62278(5)
C7 C 0.65650(12) 0.21579(16) 0.55914(5)
H9 H 0.6019 0.0843 0.5576
C8 C 0.66830(12) 0.32343(16) 0.49802(5)
H10 H 0.6215 0.2648 0.4551
C9 C 0.72368(12) 0.17492(16) 0.69038(5)
H11 H 0.7336 0.2767 0.7298
C10 C 0.86907(13) 0.03193(15) 0.70048(5)
C11 C 0.56899(13) 0.05343(17) 0.69376(5)
N1 N 0.76101(11) 0.62578(14) 0.43764(4)
N2 N 0.44898(13) -0.03963(18) 0.69612(6)
N3 N 0.98280(12) -0.07520(15) 0.70701(5)
loop_
_geom_bond_atom_site_label_1
_geom_bond_atom_site_label_2
_geom_bond_site_symmetry_1
_geom_bond_site_symmetry_2
C1 H1 1_555 1_555
H2 C1 1_555 1_555
H3 C1 1_555 1_555
C2 H4 1_555 1_555
H5 C2 1_555 1_555
H6 C2 1_555 1_555
C3 C4 1_555 1_555
C4 H7 1_555 1_555
C5 C4 1_555 1_555
H8 C5 1_555 1_555
C6 C5 1_555 1_555
C7 C6 1_555 1_555
H9 C7 1_555 1_555
C8 C3 1_555 1_555
H10 C8 1_555 1_555
C9 C6 1_555 1_555
H11 C9 1_555 1_555
C10 C9 1_555 1_555
C11 C9 1_555 1_555
N1 C1 1_555 1_555
N2 C11 1_555 1_555
N3 C10 1_555 1_555
C2 N1 1_555 1_555
C3 N1 1_555 1_555
C7 C8 1_555 1_555

#END
