
#######################################################################
#
#                 Cambridge Crystallographic Data Centre
#                                CCDC 
#
#######################################################################
#
# If this CIF has been generated from an entry in the Cambridge 
# Structural Database, then it will include bibliographic, chemical, 
# crystal, experimental, refinement or atomic coordinate data resulting 
# from the CCDC's data processing and validation procedures.
#
#######################################################################

data_JEDGUX
_chemical_formula_moiety         'C19 H16 F1 N2 1+,I1 1-'
_chemical_name_systematic        
'2-(4-fluorophenyl)-1,3-dimethyl-1H-perimidin-3-ium  iodide'
_symmetry_cell_setting           orthorhombic
_symmetry_space_group_name_H-M   'P b c a'
_symmetry_Int_Tables_number      61
_space_group_name_Hall           '-P 2ac 2ab'
loop_
_symmetry_equiv_pos_site_id
_symmetry_equiv_pos_as_xyz
1 x,y,z
2 1/2-x,-y,1/2+z
3 1/2+x,1/2-y,-z
4 -x,1/2+y,1/2-z
5 -x,-y,-z
6 1/2+x,y,1/2-z
7 1/2-x,1/2+y,z
8 x,1/2-y,1/2+z
_cell_length_a                   15.1714(3)
_cell_length_b                   14.0610(3)
_cell_length_c                   15.9365(3)
_cell_angle_alpha                90
_cell_angle_beta                 90
_cell_angle_gamma                90
_cell_volume                     3399.65
_exptl_crystal_colour            yellow
_exptl_crystal_description       needle
_cell_formula_units_Z            8
loop_
_atom_site_label
_atom_site_type_symbol
_atom_site_fract_x
_atom_site_fract_y
_atom_site_fract_z
I1 I 0.17862(2) 0.29067(2) 0.19499(2)
N1 N -0.03826(17) 0.1060(2) 0.19949(15)
F1 F 0.12041(17) -0.05816(19) 0.53529(13)
N2 N 0.09676(16) 0.05249(18) 0.15008(16)
C1 C 0.0402(2) 0.0656(2) 0.21233(19)
C2 C -0.0043(2) 0.1263(2) 0.05321(19)
C3 C 0.0627(2) 0.0333(2) 0.29880(19)
C4 C -0.1689(3) 0.2055(3) 0.0230(3)
H1 H -0.2246 0.2307 0.0128
C5 C -0.0269(3) 0.1580(2) -0.0288(2)
C6 C -0.0654(2) 0.1369(2) 0.1188(2)
C7 C 0.1834(2) 0.0092(3) 0.1648(3)
H2 H 0.2286 0.0560 0.1562
H3 H 0.1919 -0.0425 0.1264
H4 H 0.1863 -0.0141 0.2213
C8 C 0.0371(3) 0.1489(3) -0.0921(2)
H5 H 0.0245 0.1709 -0.1458
C9 C 0.0786(2) 0.0849(2) 0.06742(19)
C10 C -0.1117(3) 0.1979(3) -0.0407(3)
H6 H -0.1281 0.2191 -0.0937
C11 C -0.1470(2) 0.1766(3) 0.1049(3)
H7 H -0.1869 0.1842 0.1487
C12 C 0.0342(3) -0.0550(3) 0.3254(2)
H8 H 0.0018 -0.0934 0.2892
C13 C 0.1390(3) 0.0768(3) 0.0036(2)
H9 H 0.1941 0.0501 0.0134
C14 C 0.0535(3) -0.0866(3) 0.4056(2)
H10 H 0.0346 -0.1459 0.4241
C15 C 0.1009(2) -0.0284(3) 0.4564(2)
C16 C 0.1274(3) 0.0597(3) 0.4332(2)
H11 H 0.1578 0.0983 0.4707
C17 C 0.1156(3) 0.1096(3) -0.0770(2)
H12 H 0.1558 0.1037 -0.1207
C18 C 0.1088(3) 0.0913(3) 0.3533(2)
H13 H 0.1271 0.1514 0.3361
C19 C -0.1012(3) 0.1188(4) 0.2692(3)
H14 H -0.1470 0.0719 0.2650
H15 H -0.1266 0.1812 0.2662
H16 H -0.0709 0.1114 0.3217
loop_
_geom_bond_atom_site_label_1
_geom_bond_atom_site_label_2
_geom_bond_site_symmetry_1
_geom_bond_site_symmetry_2
N1 C1 1_555 1_555
F1 C15 1_555 1_555
N2 C1 1_555 1_555
C1 C3 1_555 1_555
C2 C5 1_555 1_555
C3 C12 1_555 1_555
C4 H1 1_555 1_555
C5 C8 1_555 1_555
C6 N1 1_555 1_555
C7 N2 1_555 1_555
H2 C7 1_555 1_555
H3 C7 1_555 1_555
H4 C7 1_555 1_555
C8 H5 1_555 1_555
C9 N2 1_555 1_555
C10 C4 1_555 1_555
H6 C10 1_555 1_555
C11 C4 1_555 1_555
H7 C11 1_555 1_555
C12 H8 1_555 1_555
C13 C9 1_555 1_555
H9 C13 1_555 1_555
C14 C12 1_555 1_555
H10 C14 1_555 1_555
C15 C14 1_555 1_555
C16 C15 1_555 1_555
H11 C16 1_555 1_555
C17 C8 1_555 1_555
H12 C17 1_555 1_555
C18 C3 1_555 1_555
H13 C18 1_555 1_555
C19 N1 1_555 1_555
H14 C19 1_555 1_555
H15 C19 1_555 1_555
H16 C19 1_555 1_555
C2 C6 1_555 1_555
C2 C9 1_555 1_555
C5 C10 1_555 1_555
C6 C11 1_555 1_555
C13 C17 1_555 1_555
C16 C18 1_555 1_555

#END
