
#######################################################################
#
#                 Cambridge Crystallographic Data Centre
#                                CCDC 
#
#######################################################################
#
# If this CIF has been generated from an entry in the Cambridge 
# Structural Database, then it will include bibliographic, chemical, 
# crystal, experimental, refinement or atomic coordinate data resulting 
# from the CCDC's data processing and validation procedures.
#
#######################################################################

data_JEDHEI
_chemical_formula_moiety         'C12 H6 Br2 N2'
_chemical_name_systematic        2,9-dibromo-1,10-phenanthroline
_symmetry_cell_setting           orthorhombic
_symmetry_space_group_name_H-M   'P n a 21'
_symmetry_Int_Tables_number      33
_space_group_name_Hall           'P 2c -2n'
loop_
_symmetry_equiv_pos_site_id
_symmetry_equiv_pos_as_xyz
1 x,y,z
2 -x,-y,1/2+z
3 1/2+x,1/2-y,z
4 1/2-x,1/2+y,1/2+z
_cell_length_a                   19.6816(9)
_cell_length_b                   4.6554(2)
_cell_length_c                   11.8795(6)
_cell_angle_alpha                90
_cell_angle_beta                 90
_cell_angle_gamma                90
_cell_volume                     1088.47
_exptl_crystal_colour            yellow
_exptl_crystal_description       block
_cell_formula_units_Z            4
loop_
_atom_site_label
_atom_site_type_symbol
_atom_site_fract_x
_atom_site_fract_y
_atom_site_fract_z
Br1 Br -0.85903(4) -0.90747(17) -0.52569(9)
Br2 Br -0.52602(4) -0.55951(16) -0.73479(7)
N1 N -0.7464(3) -0.5700(13) -0.4877(6)
N2 N -0.6191(3) -0.4343(14) -0.5682(6)
C1 C -0.8035(4) -0.6449(16) -0.4423(7)
C2 C -0.8290(4) -0.5494(18) -0.3380(9)
H1 H -0.8695 -0.6209 -0.3088
C3 C -0.7920(5) -0.348(2) -0.2818(8)
H2 H -0.8073 -0.2746 -0.2135
C4 C -0.7302(4) -0.2539(16) -0.3288(7)
C5 C -0.6892(4) -0.0370(19) -0.2734(8)
H3 H -0.7047 0.0467 -0.2070
C6 C -0.6286(5) 0.0452(18) -0.3173(9)
H4 H -0.6035 0.1894 -0.2825
C7 C -0.6033(4) -0.0897(14) -0.4170(7)
C8 C -0.5387(4) -0.0220(19) -0.4608(9)
H5 H -0.5121 0.1177 -0.4263
C9 C -0.5152(4) -0.1640(18) -0.5549(7)
H6 H -0.4725 -0.1261 -0.5848
C10 C -0.5583(4) -0.3663(16) -0.6029(6)
C11 C -0.6420(4) -0.3019(16) -0.4727(6)
C12 C -0.7078(4) -0.3764(15) -0.4305(7)
loop_
_geom_bond_atom_site_label_1
_geom_bond_atom_site_label_2
_geom_bond_site_symmetry_1
_geom_bond_site_symmetry_2
Br1 C1 1_555 1_555
Br2 C10 1_555 1_555
N1 C1 1_555 1_555
N2 C10 1_555 1_555
C1 C2 1_555 1_555
C2 H1 1_555 1_555
C3 C2 1_555 1_555
H2 C3 1_555 1_555
C4 C3 1_555 1_555
C5 C4 1_555 1_555
H3 C5 1_555 1_555
C6 C5 1_555 1_555
H4 C6 1_555 1_555
C7 C6 1_555 1_555
C8 C7 1_555 1_555
H5 C8 1_555 1_555
C9 C8 1_555 1_555
H6 C9 1_555 1_555
C10 C9 1_555 1_555
C11 N2 1_555 1_555
C12 N1 1_555 1_555
C4 C12 1_555 1_555
C7 C11 1_555 1_555
C11 C12 1_555 1_555

#END
