
#######################################################################
#
#                 Cambridge Crystallographic Data Centre
#                                CCDC 
#
#######################################################################
#
# If this CIF has been generated from an entry in the Cambridge 
# Structural Database, then it will include bibliographic, chemical, 
# crystal, experimental, refinement or atomic coordinate data resulting 
# from the CCDC's data processing and validation procedures.
#
#######################################################################

data_JEDHOS
_chemical_name_common            
'methyl 4-(4-hydroxy-3-methoxyphenyl)-2,7,7-trimethyl-5-oxo-1,4,5,6,7,8-hexahydroquinoline-3-carboxylate'
_chemical_formula_moiety         'C21 H25 N1 O5'
_chemical_name_systematic        
'4-(4-hydroxy-3-methoxy-phenyl)-2,7,7-trimethyl-5-oxo-1,4,5,6,7,8-hexahydro-quinoline-3-carboxylic acid methyl ester'
_symmetry_cell_setting           monoclinic
_symmetry_space_group_name_H-M   'P 21/n'
_symmetry_Int_Tables_number      14
_space_group_name_Hall           '-P 2yn'
loop_
_symmetry_equiv_pos_site_id
_symmetry_equiv_pos_as_xyz
1 x,y,z
2 1/2-x,1/2+y,1/2-z
3 -x,-y,-z
4 1/2+x,1/2-y,1/2+z
_cell_length_a                   10.4501(19)
_cell_length_b                   15.750(3)
_cell_length_c                   12.043(2)
_cell_angle_alpha                90
_cell_angle_beta                 102.625(3)
_cell_angle_gamma                90
_cell_volume                     1934.22
_exptl_crystal_colour            yellow
_exptl_crystal_description       block
_cell_formula_units_Z            4
loop_
_atom_site_label
_atom_site_type_symbol
_atom_site_fract_x
_atom_site_fract_y
_atom_site_fract_z
C1 C 1.04804(14) 0.22405(9) 0.77988(12)
O1 O 0.92778(11) 0.27798(8) 0.60839(10)
O2 O 0.69873(11) 0.23929(8) 1.03129(9)
N1 N 1.18817(13) 0.17437(8) 0.94733(11)
H1 H 1.2395 0.1867 1.0114
C2 C 0.83370(14) 0.19126(9) 0.90154(13)
H2 H 0.9102 0.2110 0.9492
C3 C 1.14640(14) 0.23797(9) 0.87192(13)
C4 C 0.71583(15) 0.20077(9) 0.93349(13)
O3 O 0.48242(11) 0.17830(9) 0.89240(13)
C5 C 0.84018(14) 0.15248(9) 0.79907(13)
C6 C 1.21675(16) 0.32065(10) 0.89535(14)
H3 H 1.2964 0.3184 0.8665
H4 H 1.2417 0.3293 0.9770
C7 C 0.97206(14) 0.14151(9) 0.76615(13)
H5 H 0.9555 0.1249 0.6858
C8 C 0.60700(15) 0.13205(11) 0.76264(14)
H6 H 0.5306 0.1118 0.7153
C9 C 1.05275(15) 0.07179(10) 0.83618(14)
C10 C 1.15148(15) 0.09029(10) 0.92534(14)
C11 C 0.60105(15) 0.17018(10) 0.86371(14)
C12 C 1.01234(15) 0.28971(10) 0.69652(13)
C13 C 1.13427(16) 0.39568(10) 0.84138(14)
C14 C 1.08216(17) 0.37394(10) 0.71622(14)
H7 H 1.0222 0.4183 0.6816
H8 H 1.1550 0.3734 0.6782
O4 O 0.92563(14) -0.02307(8) 0.71196(14)
C15 C 0.72552(15) 0.12345(11) 0.73030(14)
H9 H 0.7278 0.0977 0.6612
C16 C 0.81005(18) 0.27561(12) 1.10420(15)
H10 H 0.7847 0.3005 1.1689
H11 H 0.8464 0.3187 1.0638
H12 H 0.8746 0.2323 1.1293
C17 C 1.01794(17) -0.01661(11) 0.80775(17)
C18 C 1.23382(19) 0.03018(12) 1.00672(18)
H13 H 1.2050 -0.0269 0.9879
H14 H 1.2255 0.0430 1.0827
H15 H 1.3239 0.0358 1.0019
O5 O 1.06387(19) -0.07875(9) 0.85754(15)
C19 C 1.2197(2) 0.47501(11) 0.85234(19)
H16 H 1.2917 0.4654 0.8162
H17 H 1.2529 0.4876 0.9314
H18 H 1.1684 0.5220 0.8164
C20 C 1.02050(19) 0.41088(12) 0.89928(17)
H19 H 0.9663 0.3611 0.8919
H20 H 0.9694 0.4582 0.8640
H21 H 1.0541 0.4229 0.9784
C21 C 0.8837(3) -0.10792(14) 0.6768(3)
H22 H 0.8183 -0.1055 0.6071
H23 H 0.8474 -0.1345 0.7347
H24 H 0.9574 -0.1403 0.6650
H25 H 0.493(2) 0.1945(15) 0.963(2)
loop_
_geom_bond_atom_site_label_1
_geom_bond_atom_site_label_2
_geom_bond_site_symmetry_1
_geom_bond_site_symmetry_2
C1 C3 1_555 1_555
O1 C12 1_555 1_555
O2 C4 1_555 1_555
N1 H1 1_555 1_555
C2 H2 1_555 1_555
C3 N1 1_555 1_555
C4 C2 1_555 1_555
O3 C11 1_555 1_555
C5 C2 1_555 1_555
C6 C3 1_555 1_555
H3 C6 1_555 1_555
H4 C6 1_555 1_555
C7 C1 1_555 1_555
H5 C7 1_555 1_555
C8 H6 1_555 1_555
C9 C7 1_555 1_555
C10 N1 1_555 1_555
C11 C4 1_555 1_555
C12 C1 1_555 1_555
C13 C6 1_555 1_555
C14 C12 1_555 1_555
H7 C14 1_555 1_555
H8 C14 1_555 1_555
O4 C17 1_555 1_555
C15 C5 1_555 1_555
H9 C15 1_555 1_555
C16 O2 1_555 1_555
H10 C16 1_555 1_555
H11 C16 1_555 1_555
H12 C16 1_555 1_555
C17 C9 1_555 1_555
C18 C10 1_555 1_555
H13 C18 1_555 1_555
H14 C18 1_555 1_555
H15 C18 1_555 1_555
O5 C17 1_555 1_555
C19 C13 1_555 1_555
H16 C19 1_555 1_555
H17 C19 1_555 1_555
H18 C19 1_555 1_555
C20 C13 1_555 1_555
H19 C20 1_555 1_555
H20 C20 1_555 1_555
H21 C20 1_555 1_555
C21 O4 1_555 1_555
H22 C21 1_555 1_555
H23 C21 1_555 1_555
H24 C21 1_555 1_555
H25 O3 1_555 1_555
C5 C7 1_555 1_555
C8 C11 1_555 1_555
C8 C15 1_555 1_555
C9 C10 1_555 1_555
C13 C14 1_555 1_555

#END
