
#######################################################################
#
#                 Cambridge Crystallographic Data Centre
#                                CCDC 
#
#######################################################################
#
# If this CIF has been generated from an entry in the Cambridge 
# Structural Database, then it will include bibliographic, chemical, 
# crystal, experimental, refinement or atomic coordinate data resulting 
# from the CCDC's data processing and validation procedures.
#
#######################################################################

data_JEDJIO
_chemical_formula_moiety         'C50 H40 N2 O4'
_chemical_name_systematic        
8-(2-butyl-1,3-dioxo-2,3-dihydro-1H-benzo[de]isoquinolin-6-yl)-2-(2,6-diisopropylphenyl)-1H-benzo[5,10]anthra[2,1,9-def]isoquinoline-1,3(2H)-dione
_symmetry_cell_setting           triclinic
_symmetry_space_group_name_H-M   'P -1'
_symmetry_Int_Tables_number      2
_space_group_name_Hall           '-P 1'
loop_
_symmetry_equiv_pos_site_id
_symmetry_equiv_pos_as_xyz
1 x,y,z
2 -x,-y,-z
_cell_length_a                   9.1467(5)
_cell_length_b                   14.6826(9)
_cell_length_c                   15.2901(9)
_cell_angle_alpha                70.998(2)
_cell_angle_beta                 77.370(2)
_cell_angle_gamma                84.344(2)
_cell_volume                     1893.71
_exptl_crystal_colour            red
_exptl_crystal_description       block
_cell_formula_units_Z            2
loop_
_atom_site_label
_atom_site_type_symbol
_atom_site_fract_x
_atom_site_fract_y
_atom_site_fract_z
C1 C 0.1493(3) 0.6930(2) 0.06982(19)
C2 C 0.1874(3) 0.6862(2) -0.0198(2)
H1 H 0.2571 0.6391 -0.0321
C3 C 0.1239(3) 0.7482(2) -0.0920(2)
H2 H 0.1510 0.7415 -0.1519
C4 C -0.0142(3) 0.8786(2) -0.24345(19)
H3 H 0.0566 0.8323 -0.2564
C5 C -0.0817(3) 0.9397(2) -0.3157(2)
H4 H -0.0540 0.9335 -0.3758
C6 C -0.3311(3) 1.0903(2) -0.1884(2)
H5 H -0.3759 1.1319 -0.2361
C7 C -0.3665(3) 1.0994(2) -0.1010(2)
H6 H -0.4360 1.1468 -0.0892
C8 C -0.2997(3) 1.0382(2) -0.0279(2)
H7 H -0.3258 1.0458 0.0316
C9 C -0.1597(3) 0.9073(2) 0.1248(2)
H8 H -0.2282 0.9544 0.1384
C10 C -0.0936(3) 0.8441(2) 0.1967(2)
H9 H -0.1186 0.8499 0.2570
C11 C 0.0073(3) 0.77380(19) 0.17947(18)
C12 C 0.0455(3) 0.76501(19) 0.08852(18)
C13 C -0.0204(3) 0.82974(19) 0.01404(17)
C14 C 0.0208(3) 0.8202(2) -0.07745(18)
C15 C -0.0501(3) 0.88531(19) -0.15387(18)
C16 C -0.1570(3) 0.95621(19) -0.13402(18)
C17 C -0.1965(3) 0.96729(19) -0.04227(19)
C18 C -0.1262(3) 0.90179(19) 0.03414(18)
C19 C -0.2269(3) 1.01851(19) -0.20832(19)
C20 C -0.1871(3) 1.0081(2) -0.30021(19)
C21 C 0.2149(3) 0.6233(2) 0.1458(2)
C22 C 0.0731(3) 0.7059(2) 0.2574(2)
C23 C 0.2148(3) 0.5546(2) 0.31342(19)
C24 C 0.1171(3) 0.4792(2) 0.3633(2)
C25 C 0.1664(4) 0.4052(2) 0.4352(2)
H10 H 0.1030 0.3550 0.4716
C26 C 0.3050(4) 0.4049(3) 0.4533(2)
H11 H 0.3361 0.3536 0.5007
C27 C 0.4000(4) 0.4786(3) 0.4029(2)
H12 H 0.4948 0.4765 0.4165
C28 C 0.3571(3) 0.5571(2) 0.3315(2)
C29 C 0.4617(4) 0.6397(3) 0.2789(3)
H13 H 0.4124 0.6857 0.2308
C30 C 0.4880(6) 0.6922(3) 0.3450(3)
H14 H 0.5537 0.7446 0.3102
H15 H 0.5328 0.6482 0.3944
H16 H 0.3940 0.7169 0.3720
C31 C 0.6083(5) 0.6049(4) 0.2277(3)
H17 H 0.6726 0.6585 0.1949
H18 H 0.5873 0.5769 0.1833
H19 H 0.6572 0.5575 0.2729
C32 C -0.0330(3) 0.4744(2) 0.3393(2)
H20 H -0.0689 0.5408 0.3124
C33 C -0.1515(4) 0.4251(3) 0.4249(3)
H21 H -0.2442 0.4247 0.4053
H22 H -0.1662 0.4595 0.4700
H23 H -0.1187 0.3600 0.4533
C34 C -0.0159(4) 0.4246(3) 0.2641(3)
H24 H -0.1119 0.4225 0.2493
H25 H 0.0234 0.3601 0.2875
H26 H 0.0516 0.4598 0.2083
C35 C -0.2523(3) 1.0694(2) -0.38257(19)
C36 C -0.1580(3) 1.1268(2) -0.4587(2)
H27 H -0.0587 1.1307 -0.4551
C37 C -0.2074(3) 1.1797(2) -0.5416(2)
H28 H -0.1400 1.2168 -0.5927
C38 C -0.3545(3) 1.17756(19) -0.54871(19)
C39 C -0.4551(3) 1.11957(18) -0.47176(18)
C40 C -0.4046(3) 1.06364(19) -0.38707(19)
C41 C -0.5097(3) 1.00379(19) -0.31493(18)
H29 H -0.4799 0.9662 -0.2595
C42 C -0.6528(3) 0.9992(2) -0.3236(2)
H30 H -0.7188 0.9585 -0.2746
C43 C -0.7018(3) 1.0549(2) -0.4056(2)
H31 H -0.8004 1.0519 -0.4108
C44 C -0.6036(3) 1.11473(19) -0.47889(19)
C45 C -0.6579(3) 1.1728(2) -0.5646(2)
C46 C -0.4047(3) 1.2335(2) -0.6362(2)
C47 C -0.6093(4) 1.2946(2) -0.7231(2)
H32 H -0.5550 1.3540 -0.7469
H33 H -0.7147 1.3107 -0.7054
C48 C -0.5896(4) 1.2495(2) -0.8005(2)
H34 H -0.6457 1.1908 -0.7773
H35 H -0.4846 1.2323 -0.8176
C49 C -0.6416(5) 1.3158(3) -0.8872(3)
H36 H -0.7478 1.3306 -0.8708
H37 H -0.5889 1.3757 -0.9087
C50 C -0.6153(6) 1.2728(4) -0.9654(3)
H38 H -0.6494 1.3176 -1.0190
H39 H -0.6695 1.2143 -0.9450
H40 H -0.5102 1.2588 -0.9825
N1 N 0.1664(2) 0.63151(16) 0.23628(15)
N2 N -0.5561(3) 1.23112(16) -0.63810(16)
O1 O 0.3060(2) 0.56071(17) 0.13251(14)
O2 O 0.0467(3) 0.71225(16) 0.33661(15)
O3 O -0.3192(3) 1.28118(17) -0.70574(15)
O4 O -0.7880(2) 1.17238(17) -0.57236(15)
loop_
_geom_bond_atom_site_label_1
_geom_bond_atom_site_label_2
_geom_bond_site_symmetry_1
_geom_bond_site_symmetry_2
C1 C2 1_555 1_555
C2 H1 1_555 1_555
C3 C2 1_555 1_555
H2 C3 1_555 1_555
C4 H3 1_555 1_555
C5 C4 1_555 1_555
H4 C5 1_555 1_555
C6 H5 1_555 1_555
C7 C6 1_555 1_555
H6 C7 1_555 1_555
C8 C7 1_555 1_555
H7 C8 1_555 1_555
C9 H8 1_555 1_555
C10 C9 1_555 1_555
H9 C10 1_555 1_555
C11 C10 1_555 1_555
C12 C1 1_555 1_555
C13 C12 1_555 1_555
C14 C3 1_555 1_555
C15 C4 1_555 1_555
C16 C15 1_555 1_555
C17 C8 1_555 1_555
C18 C9 1_555 1_555
C19 C6 1_555 1_555
C20 C5 1_555 1_555
C21 C1 1_555 1_555
C22 C11 1_555 1_555
C23 C24 1_555 1_555
C24 C25 1_555 1_555
C25 H10 1_555 1_555
C26 C25 1_555 1_555
H11 C26 1_555 1_555
C27 C26 1_555 1_555
H12 C27 1_555 1_555
C28 C23 1_555 1_555
C29 C28 1_555 1_555
H13 C29 1_555 1_555
C30 C29 1_555 1_555
H14 C30 1_555 1_555
H15 C30 1_555 1_555
H16 C30 1_555 1_555
C31 C29 1_555 1_555
H17 C31 1_555 1_555
H18 C31 1_555 1_555
H19 C31 1_555 1_555
C32 C24 1_555 1_555
H20 C32 1_555 1_555
C33 C32 1_555 1_555
H21 C33 1_555 1_555
H22 C33 1_555 1_555
H23 C33 1_555 1_555
C34 C32 1_555 1_555
H24 C34 1_555 1_555
H25 C34 1_555 1_555
H26 C34 1_555 1_555
C35 C20 1_555 1_555
C36 C35 1_555 1_555
H27 C36 1_555 1_555
C37 C36 1_555 1_555
H28 C37 1_555 1_555
C38 C37 1_555 1_555
C39 C38 1_555 1_555
C40 C35 1_555 1_555
C41 C40 1_555 1_555
H29 C41 1_555 1_555
C42 C41 1_555 1_555
H30 C42 1_555 1_555
C43 C42 1_555 1_555
H31 C43 1_555 1_555
C44 C39 1_555 1_555
C45 C44 1_555 1_555
C46 C38 1_555 1_555
C47 H32 1_555 1_555
H33 C47 1_555 1_555
C48 C47 1_555 1_555
H34 C48 1_555 1_555
H35 C48 1_555 1_555
C49 C48 1_555 1_555
H36 C49 1_555 1_555
H37 C49 1_555 1_555
C50 C49 1_555 1_555
H38 C50 1_555 1_555
H39 C50 1_555 1_555
H40 C50 1_555 1_555
N1 C21 1_555 1_555
N2 C45 1_555 1_555
O1 C21 1_555 1_555
O2 C22 1_555 1_555
O3 C46 1_555 1_555
O4 C45 1_555 1_555
C11 C12 1_555 1_555
C13 C14 1_555 1_555
C13 C18 1_555 1_555
C14 C15 1_555 1_555
C16 C17 1_555 1_555
C16 C19 1_555 1_555
C17 C18 1_555 1_555
C19 C20 1_555 1_555
C22 N1 1_555 1_555
C23 N1 1_555 1_555
C27 C28 1_555 1_555
C39 C40 1_555 1_555
C43 C44 1_555 1_555
C46 N2 1_555 1_555
C47 N2 1_555 1_555

#END
