
#######################################################################
#
#                 Cambridge Crystallographic Data Centre
#                                CCDC 
#
#######################################################################
#
# If this CIF has been generated from an entry in the Cambridge 
# Structural Database, then it will include bibliographic, chemical, 
# crystal, experimental, refinement or atomic coordinate data resulting 
# from the CCDC's data processing and validation procedures.
#
#######################################################################

data_JEDPUG
_chemical_formula_moiety         'C24 H24 N5 O1 1+,C1 H3 O3 S1 1-,C2 H3 N1'
_chemical_name_systematic        
'4-{[(3-{[4-(1-cyanocyclopentyl)phenyl]carbamoyl}pyridin-2-yl)amino]methyl}pyridinium methanesulfonate acetonitrile solvate'
_symmetry_cell_setting           monoclinic
_symmetry_space_group_name_H-M   'C 2/c'
_symmetry_Int_Tables_number      15
_space_group_name_Hall           '-C 2yn'
loop_
_symmetry_equiv_pos_site_id
_symmetry_equiv_pos_as_xyz
1 x,y,z
2 -x,y,1/2-z
3 1/2+x,1/2+y,z
4 1/2-x,1/2+y,1/2-z
5 -x,-y,-z
6 x,-y,1/2+z
7 1/2-x,1/2-y,-z
8 1/2+x,1/2-y,1/2+z
_cell_length_a                   16.3920(5)
_cell_length_b                   8.8029(3)
_cell_length_c                   38.7653(14)
_cell_angle_alpha                90
_cell_angle_beta                 101.831(2)
_cell_angle_gamma                90
_cell_volume                     5474.89
_exptl_crystal_colour            'light colorless'
_exptl_crystal_description       block
_cell_formula_units_Z            8
loop_
_atom_site_label
_atom_site_type_symbol
_atom_site_fract_x
_atom_site_fract_y
_atom_site_fract_z
S1 S 0.63982(5) -0.34568(10) 0.28383(2)
O1 O 0.70289(14) -0.3016(2) 0.31394(5)
O2 O 0.61943(14) -0.2220(3) 0.25936(6)
O3 O 0.6621(2) -0.4819(3) 0.26842(7)
C1 C 0.5510(6) -0.3602(10) 0.3035(2)
H1 H 0.5581 -0.4463 0.3198
H2 H 0.5010 -0.3759 0.2851
H3 H 0.5450 -0.2664 0.3163
O4 O 0.70191(10) 0.74243(18) 0.39559(4)
N1 N 0.75314(11) 0.84802(19) 0.44878(5)
H7 H 0.7888 0.8376 0.4690
N2 N 0.88344(12) 0.3919(2) 0.41779(5)
N3 N 0.79423(13) 0.5211(2) 0.37427(5)
H8 H 0.7524 0.5846 0.3678
N4 N 0.62295(13) 1.5962(2) 0.47912(6)
C3 C 0.74906(13) 0.7347(2) 0.42453(6)
C4 C 0.70394(13) 0.9813(2) 0.44366(6)
C5 C 0.60982(13) 1.2503(2) 0.43656(5)
N5 N 0.73368(16) -0.0082(3) 0.32446(6)
C6 C 0.82752(13) 0.5054(2) 0.40897(6)
C7 C 0.73976(13) 1.1176(2) 0.45698(6)
H9 H 0.7968 1.1203 0.4684
C8 C 0.80606(13) 0.6035(2) 0.43498(6)
C9 C 0.55875(13) 1.3958(2) 0.43125(6)
C10 C 0.69310(13) 1.2495(2) 0.45369(6)
H10 H 0.7184 1.3414 0.4633
C11 C 0.84139(13) 0.5734(2) 0.46995(6)
H11 H 0.8274 0.6352 0.4880
C12 C 0.57486(13) 1.1133(2) 0.42270(6)
H12 H 0.5185 1.1114 0.4104
C13 C 0.62063(13) 0.9803(3) 0.42659(6)
H13 H 0.5950 0.8878 0.4175
C14 C 0.59590(14) 1.5089(2) 0.45786(6)
C15 C 0.55291(14) 1.4632(3) 0.39369(6)
H14 H 0.5997 1.5337 0.3933
H15 H 0.5539 1.3814 0.3763
C16 C 0.89693(14) 0.4543(3) 0.47892(6)
H16 H 0.9206 0.4316 0.5028
C17 C 0.78884(15) 0.2815(3) 0.33952(6)
C18 C 0.91644(14) 0.3703(3) 0.45185(7)
H17 H 0.9563 0.2912 0.4578
C19 C 0.46502(14) 1.3780(3) 0.43423(7)
H18 H 0.4510 1.2694 0.4363
H19 H 0.4546 1.4322 0.4553
C20 C 0.82433(16) 0.4379(3) 0.34728(6)
H20 H 0.8857 0.4291 0.3544
H21 H 0.8120 0.4980 0.3252
C21 C 0.73726(16) 0.2122(3) 0.35875(6)
H22 H 0.7204 0.2654 0.3774
C22 C 0.80943(17) 0.2016(3) 0.31156(6)
H23 H 0.8430 0.2478 0.2972
C23 C 0.71017(18) 0.0659(3) 0.35083(7)
H24 H 0.6748 0.0179 0.3641
C24 C 0.78127(19) 0.0571(3) 0.30482(7)
H25 H 0.7958 0.0023 0.2858
C25 C 0.47086(18) 1.5465(4) 0.38586(8)
H26 H 0.4503 1.5585 0.3602
H27 H 0.4759 1.6479 0.3971
C26 C 0.41379(18) 1.4444(5) 0.40164(10)
H28 H 0.3670 1.5038 0.4073
H29 H 0.3907 1.3631 0.3848
H30 H 0.711(2) -0.107(4) 0.3207(9)
C27 C 0.6143(3) -0.8403(5) 0.23583(11)
H31 H 0.6705 -0.8582 0.2317
H32 H 0.5969 -0.9273 0.2484
H33 H 0.6142 -0.7483 0.2500
C28 C 0.5575(4) -0.8216(6) 0.20275(13)
N6 N 0.5137(4) -0.8097(9) 0.17648(14)
C2? C 0.5545(14) -0.446(2) 0.2940(6)
H4? H 0.5751 -0.5324 0.3094
H5? H 0.5190 -0.4841 0.2722
H6? H 0.5220 -0.3786 0.3061
loop_
_geom_bond_atom_site_label_1
_geom_bond_atom_site_label_2
_geom_bond_site_symmetry_1
_geom_bond_site_symmetry_2
S1 O1 1_555 1_555
O2 S1 1_555 1_555
O3 S1 1_555 1_555
C1 S1 1_555 1_555
H1 C1 1_555 1_555
H2 C1 1_555 1_555
H3 C1 1_555 1_555
O4 C3 1_555 1_555
N1 H7 1_555 1_555
N2 C6 1_555 1_555
N3 H8 1_555 1_555
N4 C14 1_555 1_555
C3 N1 1_555 1_555
C4 N1 1_555 1_555
C5 C9 1_555 1_555
N5 C23 1_555 1_555
C6 N3 1_555 1_555
C7 C4 1_555 1_555
H9 C7 1_555 1_555
C8 C3 1_555 1_555
C9 C14 1_555 1_555
C10 C5 1_555 1_555
H10 C10 1_555 1_555
C11 C8 1_555 1_555
H11 C11 1_555 1_555
C12 C5 1_555 1_555
H12 C12 1_555 1_555
C13 C4 1_555 1_555
H13 C13 1_555 1_555
C15 C9 1_555 1_555
H14 C15 1_555 1_555
H15 C15 1_555 1_555
C16 C11 1_555 1_555
H16 C16 1_555 1_555
C17 C20 1_555 1_555
C18 N2 1_555 1_555
H17 C18 1_555 1_555
C19 C9 1_555 1_555
H18 C19 1_555 1_555
H19 C19 1_555 1_555
C20 N3 1_555 1_555
H20 C20 1_555 1_555
H21 C20 1_555 1_555
C21 C17 1_555 1_555
H22 C21 1_555 1_555
C22 C17 1_555 1_555
H23 C22 1_555 1_555
C23 C21 1_555 1_555
H24 C23 1_555 1_555
C24 N5 1_555 1_555
H25 C24 1_555 1_555
C25 C15 1_555 1_555
H26 C25 1_555 1_555
H27 C25 1_555 1_555
C26 C19 1_555 1_555
H28 C26 1_555 1_555
H29 C26 1_555 1_555
H30 N5 1_555 1_555
C27 H31 1_555 1_555
H32 C27 1_555 1_555
H33 C27 1_555 1_555
C28 C27 1_555 1_555
N6 C28 1_555 1_555
C6 C8 1_555 1_555
C7 C10 1_555 1_555
C12 C13 1_555 1_555
C16 C18 1_555 1_555
C22 C24 1_555 1_555
C25 C26 1_555 1_555

#END
