
#######################################################################
#
#                 Cambridge Crystallographic Data Centre
#                                CCDC 
#
#######################################################################
#
# If this CIF has been generated from an entry in the Cambridge 
# Structural Database, then it will include bibliographic, chemical, 
# crystal, experimental, refinement or atomic coordinate data resulting 
# from the CCDC's data processing and validation procedures.
#
#######################################################################

data_JEDQAN
_chemical_formula_moiety         'C24 H24 N5 O1 1+,C1 H3 O3 S1 1-,C1 H3 N1 O2'
_chemical_name_systematic        
'4-{[(3-{[4-(1-cyanocyclopentyl)phenyl]carbamoyl}pyridin-2-yl)amino]methyl}pyridinium methanesulfonate  nitromethane solvate'
_symmetry_cell_setting           monoclinic
_symmetry_space_group_name_H-M   'C c'
_symmetry_Int_Tables_number      9
_space_group_name_Hall           'C -2yc'
loop_
_symmetry_equiv_pos_site_id
_symmetry_equiv_pos_as_xyz
1 x,y,z
2 x,-y,1/2+z
3 1/2+x,1/2+y,z
4 1/2+x,1/2-y,1/2+z
_cell_length_a                   8.7891(13)
_cell_length_b                   16.025(3)
_cell_length_c                   19.203(2)
_cell_angle_alpha                90
_cell_angle_beta                 98.628(9)
_cell_angle_gamma                90
_cell_volume                     2674.04
_exptl_crystal_colour            'light white'
_exptl_crystal_description       prism
_cell_formula_units_Z            4
loop_
_atom_site_label
_atom_site_type_symbol
_atom_site_fract_x
_atom_site_fract_y
_atom_site_fract_z
S1 S 0.30829(13) 0.83599(7) 0.22945(6)
O1 O 0.2347(4) 0.8056(2) 0.16106(16)
O2 O 0.1978(4) 0.85894(18) 0.27485(14)
O3 O 0.4277(4) 0.7784(2) 0.26115(15)
C1 C 0.381(2) 0.9296(11) 0.2012(12)
H1 H 0.4518 0.9176 0.1677
H2 H 0.4361 0.9595 0.2419
H3 H 0.2959 0.9641 0.1784
N1 N 0.9370(5) 0.7642(2) 1.14588(18)
H7 H 1.0340 0.7800 1.1538
O4 O 0.1325(3) 0.82204(17) 1.00567(14)
N2 N 0.3724(4) 0.7215(2) 1.05007(16)
H8 H 0.3112 0.7608 1.0620
N3 N -0.0050(4) 0.7952(2) 0.89831(17)
H9 H -0.0067 0.7681 0.8584
N4 N 0.4786(4) 0.6513(2) 0.96472(17)
C3 C 0.3776(5) 0.6641(2) 0.8419(2)
H10 H 0.3861 0.6508 0.7945
N5 N -0.7810(5) 0.9330(2) 0.8410(2)
C4 C 0.8431(6) 0.7978(3) 1.0916(2)
H11 H 0.8813 0.8387 1.0629
C5 C 0.6912(6) 0.7732(3) 1.0774(2)
H12 H 0.6243 0.7976 1.0393
C6 C 0.6365(5) 0.7125(3) 1.1193(2)
C7 C 0.4736(5) 0.6798(3) 1.1048(2)
H13 H 0.4775 0.6200 1.0923
H14 H 0.4283 0.6836 1.1489
C8 C 0.3669(5) 0.7028(3) 0.9802(2)
C9 C 0.2507(5) 0.7353(2) 0.9279(2)
C10 C 0.1233(5) 0.7886(3) 0.9472(2)
C11 C -0.1360(5) 0.8429(3) 0.90735(19)
C12 C -0.1242(5) 0.9208(3) 0.9407(2)
H15 H -0.0261 0.9432 0.9587
C13 C -0.2568(5) 0.9649(3) 0.9472(2)
H16 H -0.2482 1.0171 0.9709
C14 C -0.4023(5) 0.9350(3) 0.9198(2)
C15 C -0.5470(5) 0.9827(2) 0.9323(2)
C16 C -0.5797(5) 0.9687(3) 1.0096(2)
H17 H -0.6479 0.9199 1.0121
H18 H -0.4827 0.9596 1.0422
C17 C -0.6584(6) 1.0489(3) 1.0278(2)
H19 H -0.6519 1.0558 1.0793
H20 H -0.7679 1.0500 1.0059
C18 C 0.7377(6) 0.6816(3) 1.1760(2)
H21 H 0.7025 0.6420 1.2067
C19 C 0.8879(6) 0.7079(3) 1.1881(2)
H22 H 0.9566 0.6858 1.2265
C20 C 0.4813(5) 0.6336(3) 0.8963(2)
H23 H 0.5602 0.5977 0.8851
C21 C 0.2604(5) 0.7146(2) 0.8578(2)
H24 H 0.1858 0.7355 0.8210
C22 C -0.6797(5) 0.9534(3) 0.8821(2)
C23 C -0.5374(5) 1.0799(2) 0.9252(2)
H25 H -0.4348 1.0967 0.9147
H26 H -0.6166 1.1001 0.8867
C24 C -0.5655(7) 1.1159(3) 0.9963(2)
H27 H -0.4669 1.1264 1.0273
H28 H -0.6241 1.1688 0.9896
C25 C -0.4119(5) 0.8580(3) 0.8856(2)
H29 H -0.5097 0.8365 0.8661
C26 C -0.2798(5) 0.8126(3) 0.8797(2)
H30 H -0.2883 0.7601 0.8565
O5 O 0.6525(5) 0.9248(3) 0.6764(2)
N6 N 0.7633(6) 0.9708(3) 0.6891(2)
C27 C 0.8717(7) 0.9562(3) 0.7536(2)
H31 H 0.9667 0.9875 0.7514
H32 H 0.8953 0.8965 0.7581
H33 H 0.8259 0.9749 0.7944
O6 O 0.7869(6) 1.0267(3) 0.6508(2)
C2? C 0.427(2) 0.9227(11) 0.2199(10)
H4? H 0.4986 0.9088 0.1869
H5? H 0.4863 0.9371 0.2658
H6? H 0.3637 0.9703 0.2017
loop_
_geom_bond_atom_site_label_1
_geom_bond_atom_site_label_2
_geom_bond_site_symmetry_1
_geom_bond_site_symmetry_2
S1 O1 1_555 1_555
O2 S1 1_555 1_555
O3 S1 1_555 1_555
C1 S1 1_555 1_555
H1 C1 1_555 1_555
H2 C1 1_555 1_555
H3 C1 1_555 1_555
N1 H7 1_555 1_555
O4 C10 1_555 1_555
N2 H8 1_555 1_555
N3 H9 1_555 1_555
N4 C8 1_555 1_555
C3 H10 1_555 1_555
N5 C22 1_555 1_555
C4 N1 1_555 1_555
H11 C4 1_555 1_555
C5 C4 1_555 1_555
H12 C5 1_555 1_555
C6 C5 1_555 1_555
C7 N2 1_555 1_555
H13 C7 1_555 1_555
H14 C7 1_555 1_555
C8 N2 1_555 1_555
C9 C8 1_555 1_555
C10 N3 1_555 1_555
C11 N3 1_555 1_555
C12 C11 1_555 1_555
H15 C12 1_555 1_555
C13 C12 1_555 1_555
H16 C13 1_555 1_555
C14 C13 1_555 1_555
C15 C14 1_555 1_555
C16 C15 1_555 1_555
H17 C16 1_555 1_555
H18 C16 1_555 1_555
C17 C16 1_555 1_555
H19 C17 1_555 1_555
H20 C17 1_555 1_555
C18 C6 1_555 1_555
H21 C18 1_555 1_555
C19 N1 1_555 1_555
H22 C19 1_555 1_555
C20 N4 1_555 1_555
H23 C20 1_555 1_555
C21 C3 1_555 1_555
H24 C21 1_555 1_555
C22 C15 1_555 1_555
C23 C15 1_555 1_555
H25 C23 1_555 1_555
H26 C23 1_555 1_555
C24 C17 1_555 1_555
H27 C24 1_555 1_555
H28 C24 1_555 1_555
C25 C14 1_555 1_555
H29 C25 1_555 1_555
C26 C11 1_555 1_555
H30 C26 1_555 1_555
O5 N6 1_555 1_555
N6 C27 1_555 1_555
C27 H31 1_555 1_555
H32 C27 1_555 1_555
H33 C27 1_555 1_555
O6 N6 1_555 1_555
C3 C20 1_555 1_555
C6 C7 1_555 1_555
C9 C10 1_555 1_555
C9 C21 1_555 1_555
C18 C19 1_555 1_555
C23 C24 1_555 1_555
C25 C26 1_555 1_555

#END
