
#######################################################################
#
#                 Cambridge Crystallographic Data Centre
#                                CCDC 
#
#######################################################################
#
# If this CIF has been generated from an entry in the Cambridge 
# Structural Database, then it will include bibliographic, chemical, 
# crystal, experimental, refinement or atomic coordinate data resulting 
# from the CCDC's data processing and validation procedures.
#
#######################################################################

data_JEDQIV
_chemical_formula_moiety         'C24 H24 N5 O1 1+,C1 H3 O3 S1 1-,C2 H4 O2'
_chemical_name_systematic        
'4-{[(3-{[4-(1-cyanocyclopentyl)phenyl]carbamoyl}pyridin-2-yl)amino]methyl}pyridinium methanesulfonate acetic acid solvate'
_symmetry_cell_setting           monoclinic
_symmetry_space_group_name_H-M   'C c'
_symmetry_Int_Tables_number      9
_space_group_name_Hall           'C -2yc'
loop_
_symmetry_equiv_pos_site_id
_symmetry_equiv_pos_as_xyz
1 x,y,z
2 x,-y,1/2+z
3 1/2+x,1/2+y,z
4 1/2+x,1/2-y,1/2+z
_cell_length_a                   8.7239(10)
_cell_length_b                   16.8777(16)
_cell_length_c                   18.5992(19)
_cell_angle_alpha                90
_cell_angle_beta                 97.572(9)
_cell_angle_gamma                90
_cell_volume                     2714.65
_exptl_crystal_colour            'light white'
_exptl_crystal_description       needle
_cell_formula_units_Z            4
loop_
_atom_site_label
_atom_site_type_symbol
_atom_site_fract_x
_atom_site_fract_y
_atom_site_fract_z
S1 S 0.1897(2) 0.33037(9) 0.28527(9)
O1 O 0.1308(6) 0.3326(3) 0.2090(2)
O2 O 0.0699(6) 0.3370(3) 0.3321(2)
O3 O 0.2869(6) 0.2605(2) 0.3049(2)
C1 C 0.3103(10) 0.4133(4) 0.3022(4)
H1 H 0.3937 0.4106 0.2718
H2 H 0.3546 0.4139 0.3535
H3 H 0.2498 0.4617 0.2909
N1 N -0.4124(7) 0.2374(3) 0.3436(3)
H4 H -0.5093 0.2526 0.3337
O4 O 0.3762(5) 0.3065(2) 0.4879(2)
C2 C 1.061(2) 0.5930(7) 0.4908(8)
H5 H 1.1065 0.6467 0.4957
H6 H 0.9624 0.5955 0.4576
N2 N 0.1507(7) 0.2006(3) 0.4465(3)
H7 H 0.2131 0.2372 0.4332
N3 N 0.5231(6) 0.2783(3) 0.5944(3)
H8 H 0.5289 0.2499 0.6344
N4 N 0.0469(7) 0.1352(3) 0.5360(3)
C3 C -0.3587(10) 0.1812(4) 0.3020(4)
H9 H -0.4251 0.1585 0.2628
C4 C -0.2086(9) 0.1573(3) 0.3164(4)
H10 H -0.1688 0.1188 0.2865
C5 C -0.1138(8) 0.1898(3) 0.3754(3)
C6 C 0.0505(8) 0.1589(4) 0.3905(3)
H11 H 0.0467 0.1025 0.4045
H12 H 0.0976 0.1615 0.3449
C7 C 0.1529(8) 0.1862(3) 0.5177(4)
C8 C 0.2682(8) 0.2219(4) 0.5706(3)
C9 C 0.3924(8) 0.2727(3) 0.5470(3)
C10 C 0.6512(8) 0.3264(4) 0.5847(3)
C11 C 0.6352(8) 0.4007(4) 0.5511(3)
H13 H 0.5354 0.4205 0.5334
C12 C 0.7658(9) 0.4452(4) 0.5439(4)
H14 H 0.7536 0.4949 0.5199
C13 C 0.9138(9) 0.4197(3) 0.5706(3)
C14 C 1.0553(9) 0.4684(3) 0.5590(3)
C15 C 1.0956(9) 0.4565(3) 0.4806(3)
H15 H 1.1657 0.4106 0.4785
H16 H 1.0007 0.4474 0.4461
C16 C 1.1750(10) 0.5331(4) 0.4626(4)
H17 H 1.1788 0.5388 0.4099
H18 H 1.2807 0.5376 0.4892
C17 C -0.1714(9) 0.2479(4) 0.4159(3)
H19 H -0.1068 0.2722 0.4549
C18 C -0.3230(9) 0.2708(4) 0.3997(4)
H20 H -0.3645 0.3102 0.4281
C19 C 0.0457(9) 0.1213(4) 0.6069(4)
H21 H -0.0295 0.0853 0.6202
C20 C 0.1458(8) 0.1552(4) 0.6617(4)
H22 H 0.1367 0.1450 0.7112
C21 C 0.2587(9) 0.2042(3) 0.6426(4)
H23 H 0.3318 0.2266 0.6793
C22 C 0.7986(9) 0.3002(4) 0.6118(3)
H24 H 0.8110 0.2501 0.6350
C23 C 0.9259(8) 0.3455(3) 0.6056(3)
H25 H 1.0251 0.3266 0.6253
C24 C 1.0346(9) 0.5604(3) 0.5642(4)
H26 H 0.9293 0.5735 0.5748
H27 H 1.1108 0.5828 0.6030
C25 C 1.1886(9) 0.4457(4) 0.6113(4)
N5 N 1.2956(8) 0.4303(3) 0.6514(3)
O5 O 0.9846(8) 0.4794(3) 0.7683(4)
O6 O 0.8245(7) 0.5682(3) 0.8066(3)
H34 H 0.9070 0.5934 0.8186
C27 C 0.8560(11) 0.4999(4) 0.7748(4)
C28 C 0.7123(9) 0.4554(4) 0.7471(4)
H35 H 0.7317 0.3983 0.7523
H36 H 0.6819 0.4681 0.6957
H37 H 0.6290 0.4705 0.7749
H28? H 1.1415 0.5478 0.4114
H29? H 1.2885 0.5254 0.4691
H30? H 0.9245 0.5747 0.5506
H31? H 1.0676 0.5786 0.6144
C26? C 1.132(5) 0.5993(13) 0.5130(19)
H32? H 1.2264 0.6228 0.5403
H33? H 1.0732 0.6416 0.4848
loop_
_geom_bond_atom_site_label_1
_geom_bond_atom_site_label_2
_geom_bond_site_symmetry_1
_geom_bond_site_symmetry_2
S1 O1 1_555 1_555
O2 S1 1_555 1_555
O3 S1 1_555 1_555
C1 S1 1_555 1_555
H1 C1 1_555 1_555
H2 C1 1_555 1_555
H3 C1 1_555 1_555
N1 H4 1_555 1_555
O4 C9 1_555 1_555
C2 H5 1_555 1_555
H6 C2 1_555 1_555
N2 H7 1_555 1_555
N3 H8 1_555 1_555
N4 C7 1_555 1_555
C3 N1 1_555 1_555
H9 C3 1_555 1_555
C4 C3 1_555 1_555
H10 C4 1_555 1_555
C5 C4 1_555 1_555
C6 N2 1_555 1_555
H11 C6 1_555 1_555
H12 C6 1_555 1_555
C7 N2 1_555 1_555
C8 C7 1_555 1_555
C9 N3 1_555 1_555
C10 N3 1_555 1_555
C11 C10 1_555 1_555
H13 C11 1_555 1_555
C12 C11 1_555 1_555
H14 C12 1_555 1_555
C13 C12 1_555 1_555
C14 C13 1_555 1_555
C15 C14 1_555 1_555
H15 C15 1_555 1_555
H16 C15 1_555 1_555
C16 C2 1_555 1_555
H17 C16 1_555 1_555
H18 C16 1_555 1_555
C17 C5 1_555 1_555
H19 C17 1_555 1_555
C18 N1 1_555 1_555
H20 C18 1_555 1_555
C19 N4 1_555 1_555
H21 C19 1_555 1_555
C20 C19 1_555 1_555
H22 C20 1_555 1_555
C21 C8 1_555 1_555
H23 C21 1_555 1_555
C22 C10 1_555 1_555
H24 C22 1_555 1_555
C23 C13 1_555 1_555
H25 C23 1_555 1_555
C24 C2 1_555 1_555
H26 C24 1_555 1_555
H27 C24 1_555 1_555
C25 C14 1_555 1_555
N5 C25 1_555 1_555
O5 C27 1_555 1_555
O6 H34 1_555 1_555
C27 O6 1_555 1_555
C28 C27 1_555 1_555
H35 C28 1_555 1_555
H36 C28 1_555 1_555
H37 C28 1_555 1_555
C5 C6 1_555 1_555
C8 C9 1_555 1_555
C14 C24 1_555 1_555
C15 C16 1_555 1_555
C17 C18 1_555 1_555
C20 C21 1_555 1_555
C22 C23 1_555 1_555

#END
