
#######################################################################
#
#                 Cambridge Crystallographic Data Centre
#                                CCDC 
#
#######################################################################
#
# If this CIF has been generated from an entry in the Cambridge 
# Structural Database, then it will include bibliographic, chemical, 
# crystal, experimental, refinement or atomic coordinate data resulting 
# from the CCDC's data processing and validation procedures.
#
#######################################################################

data_JEDTUK01
_chemical_formula_moiety         'C24 H24 N5 O1 1+,C3 H7 N1 O1,C1 H3 O3 S1 1-'
_chemical_name_systematic        
'4-{[(3-{[4-(1-cyanocyclopentyl)phenyl]carbamoyl}pyridin-2-yl)amino]methyl}pyridinium methanesulfonate N,N-dimethylformamide solvate'
_symmetry_cell_setting           triclinic
_symmetry_space_group_name_H-M   'P -1'
_symmetry_Int_Tables_number      2
_space_group_name_Hall           '-P 1'
loop_
_symmetry_equiv_pos_site_id
_symmetry_equiv_pos_as_xyz
1 x,y,z
2 -x,-y,-z
_cell_length_a                   8.9476(5)
_cell_length_b                   9.4601(5)
_cell_length_c                   19.5226(10)
_cell_angle_alpha                76.528(3)
_cell_angle_beta                 84.240(3)
_cell_angle_gamma                61.991(3)
_cell_volume                     1418.72
_exptl_crystal_colour            colorless
_exptl_crystal_description       block
_cell_formula_units_Z            2
loop_
_atom_site_label
_atom_site_type_symbol
_atom_site_fract_x
_atom_site_fract_y
_atom_site_fract_z
S1 S 0.1030(2) 0.27886(19) 0.43229(7)
O1 O 0.0989(5) 0.2032(6) 0.3758(2)
O2 O -0.0303(7) 0.2908(7) 0.4809(2)
O3 O 0.2675(7) 0.1989(8) 0.4647(3)
C1 C 0.0678(11) 0.4760(9) 0.3904(4)
H1 H 0.0842 0.5296 0.4242
H2 H -0.0483 0.5394 0.3717
H3 H 0.1476 0.4700 0.3516
O4 O -0.0127(5) 0.6117(5) 0.78995(19)
N1 N 0.9530(7) 0.2799(8) 0.9613(3)
N2 N 0.0747(5) 0.6095(5) 0.8956(2)
H4 H 0.0422 0.6409 0.9359
C2 C 0.5305(6) 0.4771(6) 0.9065(3)
H5 H 0.6019 0.5066 0.9263
C3 C 0.6030(6) 0.3476(6) 0.8719(2)
C4 C 0.7943(6) 0.2548(6) 0.8623(2)
N3 N -0.5208(6) 0.9231(6) 0.8378(2)
N4 N -0.8312(6) 0.8239(7) 0.6501(2)
H6 H -0.9121 0.8027 0.6411
C5 C -0.7183(8) 0.7219(8) 0.7019(3)
H7 H -0.7229 0.6252 0.7271
C6 C -0.5966(7) 0.7586(7) 0.7181(3)
H8 H -0.5173 0.6874 0.7550
C7 C -0.5888(6) 0.8979(6) 0.6813(2)
C8 C -0.4615(7) 0.9488(7) 0.6966(3)
H9 H -0.4032 0.9677 0.6522
H10 H -0.5237 1.0548 0.7115
N5 N -0.3349(5) 0.8358(6) 0.7493(2)
H11 H -0.2363 0.7661 0.7356
C9 C -0.3606(6) 0.8317(6) 0.8191(3)
C10 C -0.2262(6) 0.7385(6) 0.8703(2)
C11 C -0.0494(6) 0.6487(6) 0.8478(3)
C12 C 0.2490(6) 0.5230(6) 0.8845(2)
C13 C 0.3584(6) 0.5635(6) 0.9126(2)
H12 H 0.3127 0.6521 0.9362
C14 C 0.8670(7) 0.0690(6) 0.8652(4)
H13 H 0.8990 0.0050 0.9140
H14 H 0.7837 0.0455 0.8469
C15 C 0.8534(7) 0.3182(7) 0.7899(3)
H15 H 0.7744 0.3410 0.7521
H16 H 0.8599 0.4198 0.7898
C16 C -0.5535(7) 0.9197(7) 0.9061(3)
H17 H -0.6664 0.9856 0.9189
C17 C -0.4350(7) 0.8275(7) 0.9593(3)
H18 H -0.4660 0.8261 1.0073
C18 C -0.2705(7) 0.7375(6) 0.9404(3)
H19 H -0.1857 0.6736 0.9760
C19 C -0.8227(8) 0.9557(8) 0.6124(3)
H20 H -0.9011 1.0232 0.5749
C20 C -0.7040(7) 0.9960(7) 0.6265(3)
H21 H -0.6996 1.0911 0.5990
C21 C 0.3216(7) 0.3939(6) 0.8501(3)
H22 H 0.2507 0.3627 0.8310
C22 C 0.4935(7) 0.3099(6) 0.8432(3)
H23 H 0.5391 0.2240 0.8180
C23 C 0.8839(7) 0.2710(7) 0.9182(3)
C24 C 1.023(2) 0.0286(14) 0.8180(10)
H24 H 1.1273 -0.0414 0.8473
H25 H 1.0203 -0.0328 0.7839
C25 C 1.028(2) 0.1812(15) 0.7795(18)
H26 H 1.0495 0.1802 0.7289
H27 H 1.1169 0.1947 0.7991
N6 N 0.4486(7) 0.7017(7) 0.4215(3)
O5 O 0.6413(11) 0.6035(10) 0.3394(4)
C28 C 0.6034(12) 0.6328(11) 0.3989(5)
H36 H 0.6928 0.6033 0.4303
C29 C 0.4137(12) 0.7485(11) 0.4892(4)
H37 H 0.5206 0.7098 0.5137
H38 H 0.3465 0.6993 0.5175
H39 H 0.3503 0.8681 0.4821
C30 C 0.3097(13) 0.7446(15) 0.3779(5)
H40 H 0.3516 0.7142 0.3324
H41 H 0.2357 0.8630 0.3702
H42 H 0.2458 0.6863 0.4007
H28? H 0.9400 0.0054 0.9076
H29? H 0.7732 0.0401 0.8684
C26? C 0.969(5) 0.026(3) 0.8000(13)
H30? H 1.0757 -0.0766 0.8119
H31? H 0.9034 0.0142 0.7657
C27? C 1.003(5) 0.167(3) 0.772(4)
H32? H 1.0165 0.1815 0.7198
H33? H 1.1083 0.1489 0.7926
H34? H 0.7619 0.3669 0.7541
H35? H 0.8881 0.4017 0.7930
loop_
_geom_bond_atom_site_label_1
_geom_bond_atom_site_label_2
_geom_bond_site_symmetry_1
_geom_bond_site_symmetry_2
S1 O1 1_555 1_555
O2 S1 1_555 1_555
O3 S1 1_555 1_555
C1 S1 1_555 1_555
H1 C1 1_555 1_555
H2 C1 1_555 1_555
H3 C1 1_555 1_555
O4 C11 1_555 1_555
N1 C23 1_555 1_555
N2 H4 1_555 1_555
C2 H5 1_555 1_555
C3 C2 1_555 1_555
C4 C3 1_555 1_555
N3 C9 1_555 1_555
N4 H6 1_555 1_555
C5 N4 1_555 1_555
H7 C5 1_555 1_555
C6 C5 1_555 1_555
H8 C6 1_555 1_555
C7 C6 1_555 1_555
C8 C7 1_555 1_555
H9 C8 1_555 1_555
H10 C8 1_555 1_555
N5 C8 1_555 1_555
H11 N5 1_555 1_555
C9 N5 1_555 1_555
C10 C9 1_555 1_555
C11 N2 1_555 1_555
C12 N2 1_555 1_555
C13 C2 1_555 1_555
H12 C13 1_555 1_555
C14 C4 1_555 1_555
H13 C14 1_555 1_555
H14 C14 1_555 1_555
C15 C4 1_555 1_555
H15 C15 1_555 1_555
H16 C15 1_555 1_555
C16 N3 1_555 1_555
H17 C16 1_555 1_555
C17 C16 1_555 1_555
H18 C17 1_555 1_555
C18 C10 1_555 1_555
H19 C18 1_555 1_555
C19 N4 1_555 1_555
H20 C19 1_555 1_555
C20 C7 1_555 1_555
H21 C20 1_555 1_555
C21 C12 1_555 1_555
H22 C21 1_555 1_555
C22 C3 1_555 1_555
H23 C22 1_555 1_555
C23 C4 1_555 1_555
C24 C14 1_555 1_555
H24 C24 1_555 1_555
H25 C24 1_555 1_555
C25 C15 1_555 1_555
H26 C25 1_555 1_555
H27 C25 1_555 1_555
N6 C28 1_555 1_555
O5 C28 1_555 1_555
C28 H36 1_555 1_555
C29 N6 1_555 1_555
H37 C29 1_555 1_555
H38 C29 1_555 1_555
H39 C29 1_555 1_555
C30 N6 1_555 1_555
H40 C30 1_555 1_555
H41 C30 1_555 1_555
H42 C30 1_555 1_555
C10 C11 1_555 1_555
C12 C13 1_555 1_555
C17 C18 1_555 1_555
C19 C20 1_555 1_555
C21 C22 1_555 1_555
C24 C25 1_555 1_555

#END
