
#######################################################################
#
#                 Cambridge Crystallographic Data Centre
#                                CCDC 
#
#######################################################################
#
# If this CIF has been generated from an entry in the Cambridge 
# Structural Database, then it will include bibliographic, chemical, 
# crystal, experimental, refinement or atomic coordinate data resulting 
# from the CCDC's data processing and validation procedures.
#
#######################################################################

data_JEDVAP
_chemical_compound_source        'Heartwood of Pinus morrisonicola'
_chemical_formula_moiety         'C18 H16 O6'
_chemical_name_systematic        
(2R,3R)-3-Acetoxy-5,7-dihydroxy-6-methylflavanone
_symmetry_cell_setting           monoclinic
_symmetry_space_group_name_H-M   'I 2'
_symmetry_Int_Tables_number      5
_space_group_name_Hall           'I 2y'
loop_
_symmetry_equiv_pos_site_id
_symmetry_equiv_pos_as_xyz
1 x,y,z
2 1/2+x,1/2+y,1/2+z
3 -x,y,-z
4 1/2-x,1/2+y,1/2-z
_cell_length_a                   14.488(5)
_cell_length_b                   8.034(1)
_cell_length_c                   14.341(5)
_cell_angle_alpha                90
_cell_angle_beta                 110.76(3)
_cell_angle_gamma                90
_cell_volume                     1560.87
_cell_formula_units_Z            4
loop_
_atom_site_label
_atom_site_type_symbol
_atom_site_fract_x
_atom_site_fract_y
_atom_site_fract_z
O1 O 0.5622(2) 0.68310 0.1532(2)
C1 C 0.6382(2) 0.6817(6) 0.1178(3)
C2 C 0.6592(3) 0.5313(6) 0.0843(3)
C3 C 0.7368(3) 0.5259(6) 0.0500(3)
C4 C 0.7966(3) 0.6618(6) 0.0502(3)
C5 C 0.7718(3) 0.8111(6) 0.0829(3)
C6 C 0.6905(3) 0.8258(6) 0.1155(3)
C7 C 0.6584(3) 0.9852(6) 0.1389(3)
C8 C 0.5616(3) 0.9777(6) 0.1550(3)
C9 C 0.5598(3) 0.8229(6) 0.2151(3)
C10 C 0.4720(3) 0.8035(6) 0.2456(3)
C11 C 0.3784(3) 0.8293(7) 0.1813(3)
C12 C 0.2993(3) 0.8061(10) 0.2103(4)
C13 C 0.3120(3) 0.7580(9) 0.3038(4)
C14 C 0.4049(3) 0.7280(9) 0.3693(3)
C15 C 0.4861(3) 0.7505(7) 0.3419(3)
O2 O 0.7601(2) 0.3811(4) 0.0152(2)
C16 C 0.8825(3) 0.6468(6) 0.0153(3)
O3 O 0.8242(2) 0.9495(5) 0.0792(2)
O4 O 0.7028(2) 1.1170(5) 0.1417(2)
O5 O 0.5474(2) 1.1218(5) 0.2066(2)
C17 C 0.4695(3) 1.2193(6) 0.1588(3)
O6 O 0.4173(2) 1.1944(5) 0.0749(2)
C18 C 0.4587(3) 1.3559(6) 0.2231(3)
H1 H 0.616 0.429 0.084
H2 H 0.506 0.968 0.087
H3 H 0.623 0.825 0.279
H4 H 0.368 0.867 0.108
H5 H 0.229 0.831 0.161
H6 H 0.254 0.733 0.325
H7 H 0.418 0.685 0.442
H8 H 0.557 0.737 0.389
H9 H 0.708 0.317 -0.010
H10 H 0.928 0.556 0.057
H11 H 0.921 0.754 0.028
H12 H 0.855 0.616 -0.056
H13 H 0.792 1.059 0.094
H14 H 0.398 1.423 0.191
H15 H 0.519 1.433 0.240
H16 H 0.458 1.299 0.286
loop_
_geom_bond_atom_site_label_1
_geom_bond_atom_site_label_2
_geom_bond_site_symmetry_1
_geom_bond_site_symmetry_2
O1 C1 1_555 1_555
C1 C2 1_555 1_555
C2 C3 1_555 1_555
C3 C4 1_555 1_555
C4 C5 1_555 1_555
C5 C6 1_555 1_555
C6 C1 1_555 1_555
C7 C6 1_555 1_555
C8 C7 1_555 1_555
C9 O1 1_555 1_555
C10 C9 1_555 1_555
C11 C10 1_555 1_555
C12 C11 1_555 1_555
C13 C12 1_555 1_555
C14 C13 1_555 1_555
C15 C10 1_555 1_555
O2 C3 1_555 1_555
C16 C4 1_555 1_555
O3 C5 1_555 1_555
O4 C7 1_555 1_555
O5 C8 1_555 1_555
C17 O5 1_555 1_555
O6 C17 1_555 1_555
C18 C17 1_555 1_555
H1 C2 1_555 1_555
H2 C8 1_555 1_555
H3 C9 1_555 1_555
H4 C11 1_555 1_555
H5 C12 1_555 1_555
H6 C13 1_555 1_555
H7 C14 1_555 1_555
H8 C15 1_555 1_555
H9 O2 1_555 1_555
H10 C16 1_555 1_555
H11 C16 1_555 1_555
H12 C16 1_555 1_555
H13 O3 1_555 1_555
H14 C18 1_555 1_555
H15 C18 1_555 1_555
H16 C18 1_555 1_555
C8 C9 1_555 1_555
C14 C15 1_555 1_555

#END
