
#######################################################################
#
#                 Cambridge Crystallographic Data Centre
#                                CCDC 
#
#######################################################################
#
# If this CIF has been generated from an entry in the Cambridge 
# Structural Database, then it will include bibliographic, chemical, 
# crystal, experimental, refinement or atomic coordinate data resulting 
# from the CCDC's data processing and validation procedures.
#
#######################################################################

data_JEDXUO
_chemical_formula_moiety         'C38 H44 N2 O4'
_chemical_name_systematic        
"2,8-di-t-butyl-5,11-dipentylpyrrolo[3',4':9,10]phenanthro[4,5-efg]isoindole-4,6,10,12(5H,11H)-tetrone unknown solvate"
_symmetry_cell_setting           monoclinic
_symmetry_space_group_name_H-M   'P 2/c'
_symmetry_Int_Tables_number      13
_space_group_name_Hall           '-P 2yc'
loop_
_symmetry_equiv_pos_site_id
_symmetry_equiv_pos_as_xyz
1 x,y,z
2 -x,y,1/2-z
3 -x,-y,-z
4 x,-y,1/2+z
_cell_length_a                   11.7109(5)
_cell_length_b                   24.1569(8)
_cell_length_c                   13.5011(5)
_cell_angle_alpha                90
_cell_angle_beta                 108.608(5)
_cell_angle_gamma                90
_cell_volume                     3619.78
_exptl_crystal_colour            'light orange'
_exptl_crystal_description       block
_cell_formula_units_Z            4
_exptl_crystal_recrystallization_method acetone/chloroform
_exptl_crystal_preparation       ', Luminescent'
loop_
_atom_site_label
_atom_site_type_symbol
_atom_site_fract_x
_atom_site_fract_y
_atom_site_fract_z
O1 O 0.37390(14) 0.27436(6) 0.54706(10)
O2 O 0.35792(14) 0.09794(6) 0.42331(11)
O3 O 0.34586(14) 0.22542(6) -0.16964(10)
O4 O 0.33058(15) 0.40165(6) -0.05334(12)
N1 N 0.36995(16) 0.18091(7) 0.51072(12)
N2 N 0.33752(16) 0.31879(7) -0.13632(12)
C1 C 0.36549(17) 0.23688(8) 0.48596(15)
C2 C 0.35881(17) 0.14791(8) 0.42329(14)
C3 C 0.34891(16) 0.18716(7) 0.33533(14)
C4 C 0.35086(16) 0.23962(8) 0.37191(14)
C5 C 0.34320(16) 0.28747(7) 0.30799(14)
C6 C 0.33349(17) 0.34132(8) 0.34124(15)
H1 H 0.3348 0.3471 0.4097
C7 C 0.32186(17) 0.38684(8) 0.27525(16)
C8 C 0.32661(17) 0.37747(7) 0.17470(16)
H2 H 0.3226 0.4076 0.1308
C9 C 0.33721(16) 0.32424(7) 0.13787(14)
C10 C 0.34196(15) 0.27743(7) 0.20355(14)
C11 C 0.34346(15) 0.22215(7) 0.16572(14)
C12 C 0.34199(16) 0.17523(7) 0.22929(14)
C13 C 0.33301(17) 0.12199(7) 0.18763(14)
H3 H 0.3307 0.0919 0.2300
C14 C 0.32733(17) 0.11244(7) 0.08410(14)
C15 C 0.33583(17) 0.15781(7) 0.02336(14)
H4 H 0.3369 0.1519 -0.0444
C16 C 0.34283(16) 0.21214(7) 0.06140(14)
C17 C 0.34307(16) 0.26001(7) -0.00045(14)
C18 C 0.34261(17) 0.26280(8) -0.11122(14)
C19 C 0.33584(18) 0.35160(8) -0.05164(15)
C20 C 0.33978(17) 0.31240(7) 0.03536(14)
C21 C 0.3223(2) 0.34013(10) -0.24072(17)
H5 H 0.3541 0.3138 -0.2794
H6 H 0.3664 0.3746 -0.2358
C22 C 0.1836(3) 0.35030(13) -0.2997(2)
H7 H 0.1400 0.3163 -0.2983
H8 H 0.1544 0.3782 -0.2620
C23 C 0.1557(3) 0.36838(17) -0.4097(2)
H9 H 0.1840 0.3403 -0.4477
H10 H 0.1997 0.4022 -0.4112
C24 C 0.0181(4) 0.37887(18) -0.4669(3)
H11 H 0.0048 0.3829 -0.5412
H12 H -0.0274 0.3469 -0.4572
C25 C -0.0255(4) 0.4271(2) -0.4293(3)
H13 H -0.1077 0.4336 -0.4707
H14 H 0.0228 0.4585 -0.4344
H15 H -0.0207 0.4217 -0.3577
C26 C 0.3846(2) 0.15896(9) 0.61502(15)
H16 H 0.4149 0.1881 0.6662
H17 H 0.4440 0.1295 0.6303
C27 C 0.2681(2) 0.13671(10) 0.62555(18)
H18 H 0.2835 0.1226 0.6959
H19 H 0.2408 0.1060 0.5776
C28 C 0.1679(2) 0.17996(11) 0.60332(18)
H20 H 0.1983 0.2123 0.6462
H21 H 0.1470 0.1912 0.5307
C29 C 0.0557(3) 0.16014(15) 0.6239(3)
H22 H 0.0765 0.1478 0.6958
H23 H 0.0231 0.1287 0.5791
C30 C -0.0399(3) 0.20473(19) 0.6045(3)
H24 H -0.0591 0.2179 0.5340
H25 H -0.0102 0.2348 0.6522
H26 H -0.1110 0.1897 0.6150
C31 C 0.30805(19) 0.05378(8) 0.03919(15)
C32 C 0.1853(2) 0.03266(9) 0.0417(2)
H27 H 0.1843 0.0324 0.1125
H28 H 0.1722 -0.0042 0.0138
H29 H 0.1227 0.0566 0.0003
C33 C 0.4068(2) 0.01547(8) 0.10630(18)
H30 H 0.4843 0.0296 0.1088
H31 H 0.3962 -0.0210 0.0764
H32 H 0.4017 0.0138 0.1758
C34 C 0.3103(2) 0.05167(9) -0.07341(17)
H33 H 0.2459 0.0739 -0.1171
H34 H 0.3004 0.0141 -0.0977
H35 H 0.3860 0.0657 -0.0760
C35 C 0.3015(2) 0.44490(8) 0.31236(17)
C36 C 0.3946(4) 0.45867(16) 0.4113(3)
H36 H 0.3926 0.4321 0.4637
H37 H 0.3798 0.4950 0.4333
H38 H 0.4723 0.4579 0.4016
C37 C 0.1745(4) 0.44450(18) 0.3270(4)
H39 H 0.1142 0.4369 0.2612
H40 H 0.1592 0.4800 0.3523
H41 H 0.1721 0.4164 0.3765
C38 C 0.2949(5) 0.49002(14) 0.2292(3)
H42 H 0.3702 0.4915 0.2152
H43 H 0.2791 0.5253 0.2549
H44 H 0.2314 0.4812 0.1660
C39? C 0.3196(10) 0.4464(3) 0.4358(7)
H45? H 0.2622 0.4222 0.4507
H46? H 0.3078 0.4835 0.4561
H47? H 0.3997 0.4344 0.4740
C40? C 0.1880(8) 0.4654(4) 0.2521(9)
H48? H 0.1923 0.4787 0.1864
H49? H 0.1649 0.4951 0.2889
H50? H 0.1293 0.4362 0.2399
C41? C 0.4110(9) 0.4825(3) 0.3097(8)
H51? H 0.4851 0.4659 0.3517
H52? H 0.4030 0.5186 0.3368
H53? H 0.4113 0.4860 0.2390
loop_
_geom_bond_atom_site_label_1
_geom_bond_atom_site_label_2
_geom_bond_site_symmetry_1
_geom_bond_site_symmetry_2
O1 C1 1_555 1_555
O2 C2 1_555 1_555
O3 C18 1_555 1_555
O4 C19 1_555 1_555
N1 C1 1_555 1_555
N2 C18 1_555 1_555
C1 C4 1_555 1_555
C2 N1 1_555 1_555
C3 C2 1_555 1_555
C4 C3 1_555 1_555
C5 C4 1_555 1_555
C6 C5 1_555 1_555
H1 C6 1_555 1_555
C7 C6 1_555 1_555
C8 C7 1_555 1_555
H2 C8 1_555 1_555
C9 C8 1_555 1_555
C10 C5 1_555 1_555
C11 C10 1_555 1_555
C12 C3 1_555 1_555
C13 C12 1_555 1_555
H3 C13 1_555 1_555
C14 C13 1_555 1_555
C15 C14 1_555 1_555
H4 C15 1_555 1_555
C16 C11 1_555 1_555
C17 C16 1_555 1_555
C18 C17 1_555 1_555
C19 N2 1_555 1_555
C20 C9 1_555 1_555
C21 N2 1_555 1_555
H5 C21 1_555 1_555
H6 C21 1_555 1_555
C22 C21 1_555 1_555
H7 C22 1_555 1_555
H8 C22 1_555 1_555
C23 C22 1_555 1_555
H9 C23 1_555 1_555
H10 C23 1_555 1_555
C24 C23 1_555 1_555
H11 C24 1_555 1_555
H12 C24 1_555 1_555
C25 C24 1_555 1_555
H13 C25 1_555 1_555
H14 C25 1_555 1_555
H15 C25 1_555 1_555
C26 N1 1_555 1_555
H16 C26 1_555 1_555
H17 C26 1_555 1_555
C27 C26 1_555 1_555
H18 C27 1_555 1_555
H19 C27 1_555 1_555
C28 C27 1_555 1_555
H20 C28 1_555 1_555
H21 C28 1_555 1_555
C29 C28 1_555 1_555
H22 C29 1_555 1_555
H23 C29 1_555 1_555
C30 C29 1_555 1_555
H24 C30 1_555 1_555
H25 C30 1_555 1_555
H26 C30 1_555 1_555
C31 C14 1_555 1_555
C32 C31 1_555 1_555
H27 C32 1_555 1_555
H28 C32 1_555 1_555
H29 C32 1_555 1_555
C33 C31 1_555 1_555
H30 C33 1_555 1_555
H31 C33 1_555 1_555
H32 C33 1_555 1_555
C34 C31 1_555 1_555
H33 C34 1_555 1_555
H34 C34 1_555 1_555
H35 C34 1_555 1_555
C35 C7 1_555 1_555
C36 C35 1_555 1_555
H36 C36 1_555 1_555
H37 C36 1_555 1_555
H38 C36 1_555 1_555
C37 C35 1_555 1_555
H39 C37 1_555 1_555
H40 C37 1_555 1_555
H41 C37 1_555 1_555
C38 C35 1_555 1_555
H42 C38 1_555 1_555
H43 C38 1_555 1_555
H44 C38 1_555 1_555
C9 C10 1_555 1_555
C11 C12 1_555 1_555
C15 C16 1_555 1_555
C17 C20 1_555 1_555
C19 C20 1_555 1_555

#END
