
#######################################################################
#
#                 Cambridge Crystallographic Data Centre
#                                CCDC 
#
#######################################################################
#
# If this CIF has been generated from an entry in the Cambridge 
# Structural Database, then it will include bibliographic, chemical, 
# crystal, experimental, refinement or atomic coordinate data resulting 
# from the CCDC's data processing and validation procedures.
#
#######################################################################

data_JEDYEZ
_chemical_formula_moiety         'C32 H32 N2 O4'
_chemical_name_systematic        
5,11-dihexylpyrrolo[3',4':9,10]phenanthro[4,5-efg]isoindole-4,6,10,12(5H,11H)-tetrone
_symmetry_cell_setting           triclinic
_symmetry_space_group_name_H-M   'P -1'
_symmetry_Int_Tables_number      2
_space_group_name_Hall           '-P 1'
loop_
_symmetry_equiv_pos_site_id
_symmetry_equiv_pos_as_xyz
1 x,y,z
2 -x,-y,-z
_cell_length_a                   4.7947(10)
_cell_length_b                   8.164(2)
_cell_length_c                   17.056(5)
_cell_angle_alpha                86.01(2)
_cell_angle_beta                 87.23(2)
_cell_angle_gamma                74.97(2)
_cell_volume                     642.918
_exptl_crystal_colour            'dark brown'
_exptl_crystal_description       needle
_cell_formula_units_Z            1
_exptl_crystal_recrystallization_method acetone/chloroform
loop_
_atom_site_label
_atom_site_type_symbol
_atom_site_fract_x
_atom_site_fract_y
_atom_site_fract_z
O1 O 0.0879(5) 0.0661(3) 0.26452(14)
O2 O -0.0794(5) -0.3549(3) 0.12671(14)
N1 N -0.0270(5) -0.1596(3) 0.21232(16)
C1 C 0.4600(6) 0.2246(4) 0.14057(19)
H1 H 0.3832 0.2418 0.1914
C2 C 0.6214(7) 0.3289(4) 0.1066(2)
H2 H 0.6539 0.4153 0.1348
C3 C 0.7358(6) 0.3068(4) 0.03097(19)
H3 H 0.8443 0.3785 0.0088
C4 C 0.6900(6) 0.1776(4) -0.01242(17)
C5 C 0.5248(6) 0.0670(3) 0.02170(17)
C6 C 0.4097(6) 0.0928(4) 0.09964(18)
C7 C 0.2453(6) -0.0206(4) 0.13144(17)
C8 C 0.0996(6) -0.0236(4) 0.2107(2)
C9 C 0.0167(6) -0.2376(4) 0.1413(2)
C10 C 0.1978(6) -0.1472(3) 0.09079(18)
C11 C -0.2002(7) -0.2042(4) 0.2797(2)
H4 H -0.3191 -0.2738 0.2625
H5 H -0.3284 -0.1010 0.2986
C12 C -0.0200(7) -0.2988(4) 0.3466(2)
H6 H -0.1474 -0.3105 0.3914
H7 H 0.1062 -0.2315 0.3617
C13 C 0.1627(7) -0.4737(4) 0.3279(2)
H8 H 0.2933 -0.4628 0.2837
H9 H 0.0379 -0.5415 0.3125
C14 C 0.3379(8) -0.5648(4) 0.3975(2)
H10 H 0.4652 -0.4975 0.4118
H11 H 0.2065 -0.5715 0.4420
C15 C 0.5150(8) -0.7397(5) 0.3827(2)
H12 H 0.6427 -0.7333 0.3373
H13 H 0.3871 -0.8078 0.3698
C16 C 0.6946(9) -0.8283(5) 0.4510(3)
H14 H 0.7994 -0.9403 0.4375
H15 H 0.5703 -0.8363 0.4962
H16 H 0.8283 -0.7646 0.4628
O1A O 0.9121(5) -0.0661(3) -0.26452(14)
O2A O 1.0794(5) 0.3549(3) -0.12671(14)
N1A N 1.0270(5) 0.1596(3) -0.21232(16)
C1A C 0.5400(6) -0.2246(4) -0.14057(19)
H1A H 0.6168 -0.2418 -0.1914
C2A C 0.3786(7) -0.3289(4) -0.1066(2)
H2A H 0.3461 -0.4153 -0.1348
C3A C 0.2642(6) -0.3068(4) -0.03097(19)
H3A H 0.1557 -0.3785 -0.0088
C4A C 0.3100(6) -0.1776(4) 0.01242(17)
C5A C 0.4752(6) -0.0670(3) -0.02170(17)
C6A C 0.5903(6) -0.0928(4) -0.09964(18)
C7A C 0.7547(6) 0.0206(4) -0.13144(17)
C8A C 0.9004(6) 0.0236(4) -0.2107(2)
C9A C 0.9833(6) 0.2376(4) -0.1413(2)
C10A C 0.8022(6) 0.1472(3) -0.09079(18)
C11A C 1.2002(7) 0.2042(4) -0.2797(2)
H4A H 1.3191 0.2738 -0.2625
H5A H 1.3284 0.1010 -0.2986
C12A C 1.0200(7) 0.2988(4) -0.3466(2)
H6A H 1.1474 0.3105 -0.3914
H7A H 0.8938 0.2315 -0.3617
C13A C 0.8373(7) 0.4737(4) -0.3279(2)
H8A H 0.7067 0.4628 -0.2837
H9A H 0.9621 0.5415 -0.3125
C14A C 0.6621(8) 0.5648(4) -0.3975(2)
H10A H 0.5348 0.4975 -0.4118
H11A H 0.7935 0.5715 -0.4420
C15A C 0.4850(8) 0.7397(5) -0.3827(2)
H12A H 0.3573 0.7333 -0.3373
H13A H 0.6129 0.8078 -0.3698
C16A C 0.3054(9) 0.8283(5) -0.4510(3)
H14A H 0.2006 0.9403 -0.4375
H15A H 0.4297 0.8363 -0.4962
H16A H 0.1717 0.7646 -0.4628
loop_
_geom_bond_atom_site_label_1
_geom_bond_atom_site_label_2
_geom_bond_site_symmetry_1
_geom_bond_site_symmetry_2
O1 C8 1_555 1_555
O2 C9 1_555 1_555
N1 C8 1_555 1_555
C1 H1 1_555 1_555
C2 C1 1_555 1_555
H2 C2 1_555 1_555
C3 C2 1_555 1_555
H3 C3 1_555 1_555
C4 C3 1_555 1_555
C5 C4 1_555 1_555
C6 C1 1_555 1_555
C7 C6 1_555 1_555
C8 C7 1_555 1_555
C9 N1 1_555 1_555
C10 C7 1_555 1_555
C11 N1 1_555 1_555
H4 C11 1_555 1_555
H5 C11 1_555 1_555
C12 C11 1_555 1_555
H6 C12 1_555 1_555
H7 C12 1_555 1_555
C13 C12 1_555 1_555
H8 C13 1_555 1_555
H9 C13 1_555 1_555
C14 C13 1_555 1_555
H10 C14 1_555 1_555
H11 C14 1_555 1_555
C15 C14 1_555 1_555
H12 C15 1_555 1_555
H13 C15 1_555 1_555
C16 C15 1_555 1_555
H14 C16 1_555 1_555
H15 C16 1_555 1_555
H16 C16 1_555 1_555
O1A C8A 1_555 1_555
O2A C9A 1_555 1_555
N1A C8A 1_555 1_555
C1A H1A 1_555 1_555
C2A C1A 1_555 1_555
H2A C2A 1_555 1_555
C3A C2A 1_555 1_555
H3A C3A 1_555 1_555
C4A C10 1_555 1_555
C5A C5 1_555 1_555
C6A C1A 1_555 1_555
C7A C6A 1_555 1_555
C8A C7A 1_555 1_555
C9A N1A 1_555 1_555
C10A C4 1_555 1_555
C11A N1A 1_555 1_555
H4A C11A 1_555 1_555
H5A C11A 1_555 1_555
C12A C11A 1_555 1_555
H6A C12A 1_555 1_555
H7A C12A 1_555 1_555
C13A C12A 1_555 1_555
H8A C13A 1_555 1_555
H9A C13A 1_555 1_555
C14A C13A 1_555 1_555
H10A C14A 1_555 1_555
H11A C14A 1_555 1_555
C15A C14A 1_555 1_555
H12A C15A 1_555 1_555
H13A C15A 1_555 1_555
C16A C15A 1_555 1_555
H14A C16A 1_555 1_555
H15A C16A 1_555 1_555
H16A C16A 1_555 1_555
C5 C6 1_555 1_555
C9 C10 1_555 1_555
C3A C4A 1_555 1_555
C4A C5A 1_555 1_555
C5A C6A 1_555 1_555
C7A C10A 1_555 1_555
C9A C10A 1_555 1_555

#END
