
#######################################################################
#
#                 Cambridge Crystallographic Data Centre
#                                CCDC 
#
#######################################################################
#
# If this CIF has been generated from an entry in the Cambridge 
# Structural Database, then it will include bibliographic, chemical, 
# crystal, experimental, refinement or atomic coordinate data resulting 
# from the CCDC's data processing and validation procedures.
#
#######################################################################

data_JEDYAV
_chemical_formula_moiety         'C30 H28 N2 O4'
_chemical_name_systematic        
5,11-dipentylpyrrolo[3',4':9,10]phenanthro[4,5-efg]isoindole-4,6,10,12(5H,11H)-tetrone
_symmetry_cell_setting           triclinic
_symmetry_space_group_name_H-M   'P -1'
_symmetry_Int_Tables_number      2
_space_group_name_Hall           '-P 1'
loop_
_symmetry_equiv_pos_site_id
_symmetry_equiv_pos_as_xyz
1 x,y,z
2 -x,-y,-z
_cell_length_a                   4.8796(10)
_cell_length_b                   7.9983(19)
_cell_length_c                   16.328(2)
_cell_angle_alpha                99.842(16)
_cell_angle_beta                 90.839(14)
_cell_angle_gamma                106.130(19)
_cell_volume                     601.861
_exptl_crystal_colour            'dark yellow'
_exptl_crystal_description       plate
_cell_formula_units_Z            1
_exptl_crystal_recrystallization_method acetone/chloroform
loop_
_atom_site_label
_atom_site_type_symbol
_atom_site_fract_x
_atom_site_fract_y
_atom_site_fract_z
O1 O 0.4728(5) 0.3936(3) 0.13074(15)
O2 O 0.6894(6) 0.0126(4) 0.28063(16)
N1 N 0.5587(6) 0.2250(4) 0.22374(18)
C1 C 1.0331(6) -0.0608(4) 0.02352(18)
C2 C 1.1851(6) -0.1829(4) -0.01184(19)
C3 C 1.2478(7) -0.2979(4) 0.0357(2)
H1 H 1.3480 -0.3762 0.0131
C4 C 1.1633(7) -0.2971(4) 0.1161(2)
H2 H 1.2053 -0.3757 0.1468
C5 C 1.0174(7) -0.1808(4) 0.1512(2)
H3 H 0.9634 -0.1813 0.2056
C6 C 0.9499(6) -0.0632(4) 0.10663(19)
C7 C 0.7995(6) 0.0613(4) 0.13926(19)
C8 C 0.7362(6) 0.1750(4) 0.0949(2)
C9 C 0.5754(7) 0.2823(4) 0.1478(2)
C10 C 0.6844(7) 0.0875(5) 0.2227(2)
C11 C 0.4085(8) 0.2880(5) 0.2936(2)
H4 H 0.2842 0.1867 0.3128
H5 H 0.2888 0.3541 0.2744
C12 C 0.6044(10) 0.4039(6) 0.3658(2)
H6 H 0.4892 0.4305 0.4114
H7 H 0.7252 0.3378 0.3844
C13 C 0.7913(10) 0.5741(6) 0.3475(3)
H8 H 0.6730 0.6379 0.3256
H9 H 0.9185 0.5488 0.3051
C14 C 0.9708(14) 0.6921(8) 0.4258(3)
H10 H 0.8424 0.7171 0.4679
H11 H 1.0864 0.6269 0.4478
C15 C 1.1514(15) 0.8530(9) 0.4110(4)
H12 H 1.2883 0.8298 0.3724
H13 H 1.2496 0.9216 0.4625
H14 H 1.0395 0.9177 0.3882
O1A O 1.5272(5) -0.3936(3) -0.13074(15)
O2A O 1.3106(6) -0.0126(4) -0.28063(16)
N1A N 1.4413(6) -0.2250(4) -0.22374(18)
C1A C 0.9669(6) 0.0608(4) -0.02352(18)
C2A C 0.8149(6) 0.1829(4) 0.01184(19)
C3A C 0.7522(7) 0.2979(4) -0.0357(2)
H1A H 0.6520 0.3762 -0.0131
C4A C 0.8367(7) 0.2971(4) -0.1161(2)
H2A H 0.7947 0.3757 -0.1468
C5A C 0.9826(7) 0.1808(4) -0.1512(2)
H3A H 1.0366 0.1813 -0.2056
C6A C 1.0501(6) 0.0632(4) -0.10663(19)
C7A C 1.2005(6) -0.0613(4) -0.13926(19)
C8A C 1.2638(6) -0.1750(4) -0.0949(2)
C9A C 1.4246(7) -0.2823(4) -0.1478(2)
C10A C 1.3156(7) -0.0875(5) -0.2227(2)
C11A C 1.5915(8) -0.2880(5) -0.2936(2)
H4A H 1.7158 -0.1867 -0.3128
H5A H 1.7112 -0.3541 -0.2744
C12A C 1.3956(10) -0.4039(6) -0.3658(2)
H6A H 1.5108 -0.4305 -0.4114
H7A H 1.2748 -0.3378 -0.3844
C13A C 1.2087(10) -0.5741(6) -0.3475(3)
H8A H 1.3270 -0.6379 -0.3256
H9A H 1.0815 -0.5488 -0.3051
C14A C 1.0292(14) -0.6921(8) -0.4258(3)
H10A H 1.1576 -0.7171 -0.4679
H11A H 0.9136 -0.6269 -0.4478
C15A C 0.8486(15) -0.8530(9) -0.4110(4)
H12A H 0.7117 -0.8298 -0.3724
H13A H 0.7504 -0.9216 -0.4625
H14A H 0.9605 -0.9177 -0.3882
loop_
_geom_bond_atom_site_label_1
_geom_bond_atom_site_label_2
_geom_bond_site_symmetry_1
_geom_bond_site_symmetry_2
O1 C9 1_555 1_555
O2 C10 1_555 1_555
N1 C9 1_555 1_555
C1 C2 1_555 1_555
C2 C3 1_555 1_555
C3 H1 1_555 1_555
C4 C3 1_555 1_555
H2 C4 1_555 1_555
C5 C4 1_555 1_555
H3 C5 1_555 1_555
C6 C1 1_555 1_555
C7 C6 1_555 1_555
C8 C7 1_555 1_555
C9 C8 1_555 1_555
C10 N1 1_555 1_555
C11 N1 1_555 1_555
H4 C11 1_555 1_555
H5 C11 1_555 1_555
C12 C11 1_555 1_555
H6 C12 1_555 1_555
H7 C12 1_555 1_555
C13 C12 1_555 1_555
H8 C13 1_555 1_555
H9 C13 1_555 1_555
C14 C13 1_555 1_555
H10 C14 1_555 1_555
H11 C14 1_555 1_555
C15 C14 1_555 1_555
H12 C15 1_555 1_555
H13 C15 1_555 1_555
H14 C15 1_555 1_555
O1A C9A 1_555 1_555
O2A C10A 1_555 1_555
N1A C9A 1_555 1_555
C1A C1 1_555 1_555
C2A C8 1_555 1_555
C3A C2A 1_555 1_555
H1A C3A 1_555 1_555
C4A C3A 1_555 1_555
H2A C4A 1_555 1_555
C5A C4A 1_555 1_555
H3A C5A 1_555 1_555
C6A C1A 1_555 1_555
C7A C6A 1_555 1_555
C8A C2 1_555 1_555
C9A C8A 1_555 1_555
C10A N1A 1_555 1_555
C11A N1A 1_555 1_555
H4A C11A 1_555 1_555
H5A C11A 1_555 1_555
C12A C11A 1_555 1_555
H6A C12A 1_555 1_555
H7A C12A 1_555 1_555
C13A C12A 1_555 1_555
H8A C13A 1_555 1_555
H9A C13A 1_555 1_555
C14A C13A 1_555 1_555
H10A C14A 1_555 1_555
H11A C14A 1_555 1_555
C15A C14A 1_555 1_555
H12A C15A 1_555 1_555
H13A C15A 1_555 1_555
H14A C15A 1_555 1_555
C5 C6 1_555 1_555
C7 C10 1_555 1_555
C1A C2A 1_555 1_555
C5A C6A 1_555 1_555
C7A C8A 1_555 1_555
C7A C10A 1_555 1_555

#END
