
#######################################################################
#
#                 Cambridge Crystallographic Data Centre
#                                CCDC 
#
#######################################################################
#
# If this CIF has been generated from an entry in the Cambridge 
# Structural Database, then it will include bibliographic, chemical, 
# crystal, experimental, refinement or atomic coordinate data resulting 
# from the CCDC's data processing and validation procedures.
#
#######################################################################

data_JEDYID
_chemical_formula_moiety         'C40 H48 N2 O4'
_chemical_name_systematic        
2,8-di-t-butyl-5,11-dihexylpyrrolo[3',4':9,10]phenanthro[4,5-efg]isoindole-4,6,10,12(5H,11H)-tetrone
_symmetry_cell_setting           triclinic
_symmetry_space_group_name_H-M   'P -1'
_symmetry_Int_Tables_number      2
_space_group_name_Hall           '-P 1'
loop_
_symmetry_equiv_pos_site_id
_symmetry_equiv_pos_as_xyz
1 x,y,z
2 -x,-y,-z
_cell_length_a                   14.6944(11)
_cell_length_b                   14.9237(10)
_cell_length_c                   16.7811(11)
_cell_angle_alpha                79.771(6)
_cell_angle_beta                 72.743(6)
_cell_angle_gamma                86.377(6)
_cell_volume                     3458.27
_exptl_crystal_colour            'dark orange'
_exptl_crystal_description       block
_cell_formula_units_Z            4
_exptl_crystal_recrystallization_method Sublimation
loop_
_atom_site_label
_atom_site_type_symbol
_atom_site_fract_x
_atom_site_fract_y
_atom_site_fract_z
O1 O 0.37203(18) 0.4689(2) 0.08578(16)
O2 O 0.48843(17) 0.32187(19) 0.29755(16)
O3 O -0.18518(16) 0.47639(18) 0.43468(15)
O4 O -0.07253(17) 0.31546(19) 0.64420(15)
N1 N 0.4534(2) 0.3966(2) 0.17698(19)
N2 N -0.15202(19) 0.3960(2) 0.55422(17)
C1 C 0.1328(2) 0.4195(2) 0.33225(19)
C2 C 0.0352(2) 0.4466(2) 0.34870(19)
C3 C -0.0249(2) 0.4191(2) 0.43303(19)
C4 C 0.0094(2) 0.3723(2) 0.49545(19)
C5 C 0.1074(2) 0.3472(2) 0.4826(2)
C6 C 0.1687(2) 0.3708(2) 0.39914(19)
C7 C 0.1446(2) 0.3051(2) 0.5478(2)
H1 H 0.1029 0.2905 0.6035
C8 C 0.2415(2) 0.2839(2) 0.5330(2)
C9 C 0.3011(2) 0.3053(2) 0.4511(2)
H2 H 0.3671 0.2909 0.4403
C10 C 0.2671(2) 0.3474(2) 0.3838(2)
C11 C 0.3259(2) 0.3718(2) 0.2992(2)
C12 C 0.2922(2) 0.4171(2) 0.2355(2)
C13 C 0.1592(2) 0.4959(2) 0.1859(2)
H3 H 0.2011 0.5121 0.1304
C14 C 0.0639(2) 0.5238(2) 0.2026(2)
C15 C 0.0036(2) 0.4983(2) 0.2836(2)
H4 H -0.0615 0.5167 0.2954
C16 C 0.4315(2) 0.3582(3) 0.2626(2)
C17 C 0.3726(3) 0.4326(3) 0.1562(2)
C18 C -0.1290(2) 0.4364(2) 0.4688(2)
C19 C -0.0720(2) 0.3556(3) 0.5748(2)
C20 C 0.2793(3) 0.2455(3) 0.6083(2)
C21 C 0.2175(4) 0.1666(4) 0.6640(3)
H5 H 0.1519 0.1882 0.6852
H6 H 0.2422 0.1422 0.7118
H7 H 0.2188 0.1186 0.6307
C22 C 0.2731(3) 0.3202(3) 0.6601(3)
H8 H 0.3130 0.3712 0.6254
H9 H 0.2955 0.2966 0.7095
H10 H 0.2068 0.3411 0.6791
C23 C 0.3809(4) 0.2120(5) 0.5802(3)
H11 H 0.3856 0.1671 0.5430
H12 H 0.4007 0.1836 0.6298
H13 H 0.4225 0.2634 0.5494
C24 C 0.5490(3) 0.3969(4) 0.1166(3)
H14 H 0.5938 0.3714 0.1489
H15 H 0.5668 0.4612 0.0932
C25 C 0.0268(3) 0.5858(3) 0.1349(2)
C26 C 0.0965(3) 0.5910(3) 0.0468(2)
H16 H 0.1560 0.6185 0.0453
H17 H 0.0687 0.6283 0.0055
H18 H 0.1098 0.5295 0.0329
C27 C -0.0680(3) 0.5494(3) 0.1336(2)
H19 H -0.0585 0.4873 0.1209
H20 H -0.0910 0.5887 0.0901
H21 H -0.1150 0.5490 0.1891
C28 C 0.0102(3) 0.6809(3) 0.1595(3)
H22 H -0.0343 0.6770 0.2165
H23 H -0.0165 0.7212 0.1191
H24 H 0.0710 0.7053 0.1586
C29 C -0.2459(3) 0.4049(3) 0.6151(2)
H25 H -0.2372 0.4145 0.6692
H26 H -0.2792 0.4592 0.5933
C30 C -0.3055(3) 0.3249(4) 0.6309(3)
H27 H -0.2774 0.2725 0.6610
H28 H -0.3061 0.3094 0.5761
C31 C -0.4106(4) 0.3412(5) 0.6848(4)
H29 H -0.4427 0.3841 0.6493
H30 H -0.4450 0.2827 0.7005
C32 C 0.1947(2) 0.4446(2) 0.24882(19)
C33 C 0.5618(7) 0.3062(7) 0.0787(7)
H31 H 0.5529 0.2533 0.1250
H32 H 0.5129 0.3036 0.0493
C34 C 0.6602(5) 0.3015(6) 0.0168(5)
H33 H 0.6722 0.3593 -0.0239
H34 H 0.7081 0.2958 0.0484
C35 C 0.6736(8) 0.2234(9) -0.0317(7)
H35 H 0.7417 0.2172 -0.0630
H36 H 0.6534 0.1659 0.0080
C36 C 0.6160(11) 0.2409(10) -0.0916(9)
H37 H 0.6457 0.2856 -0.1425
H38 H 0.5498 0.2599 -0.0648
C37 C 0.6413(18) 0.1710(15) -0.1541(12)
H39 H 0.6245 0.2268 -0.1876
H40 H 0.5922 0.1252 -0.1432
H41 H 0.7029 0.1476 -0.1855
C38 C -0.4180(10) 0.3764(11) 0.7596(9)
H42 H -0.3871 0.4365 0.7454
H43 H -0.3863 0.3347 0.7962
C39 C -0.5289(8) 0.3859(9) 0.8074(8)
H44 H -0.5558 0.3239 0.8218
H45 H -0.5335 0.4060 0.8616
C40 C -0.5922(9) 0.4450(8) 0.7683(7)
H46 H -0.5918 0.4256 0.7154
H47 H -0.5703 0.5080 0.7563
H48 H -0.6571 0.4412 0.8070
O5 O -0.19251(16) 0.13292(17) 0.61045(15)
O6 O 0.09243(17) 0.00757(17) 0.62947(14)
O7 O 0.06451(19) 0.34064(18) 0.08657(15)
O8 O 0.35235(19) 0.2322(2) 0.11344(15)
N3 N -0.06018(19) 0.06301(19) 0.64142(16)
N4 N 0.2196(2) 0.2968(2) 0.07948(18)
C41 C 0.1331(2) 0.1074(2) 0.44051(18)
C42 C 0.0488(2) 0.0996(2) 0.50993(19)
C43 C -0.0369(2) 0.1353(2) 0.5043(2)
C44 C -0.0501(2) 0.1829(2) 0.4265(2)
C45 C 0.0338(2) 0.1948(2) 0.35585(19)
C46 C 0.1237(2) 0.1586(2) 0.36273(18)
C47 C 0.2068(2) 0.1699(2) 0.29218(19)
C48 C 0.2929(2) 0.1278(2) 0.2989(2)
H49 H 0.3477 0.1362 0.2511
C49 C 0.3007(2) 0.0739(2) 0.3738(2)
C50 C 0.2204(2) 0.0661(2) 0.44415(19)
H50 H 0.2250 0.0316 0.4962
C51 C 0.0352(2) 0.0504(2) 0.5985(2)
C52 C -0.1090(2) 0.1130(2) 0.5892(2)
C53 C -0.1393(2) 0.2130(2) 0.4161(2)
H51 H -0.1943 0.2046 0.4637
C54 C -0.1490(2) 0.2546(2) 0.3385(2)
C55 C -0.0668(2) 0.2698(2) 0.2700(2)
H52 H -0.0724 0.3008 0.2171
C56 C 0.0231(2) 0.2412(2) 0.2767(2)
C57 C 0.1087(2) 0.2539(2) 0.2082(2)
C58 C 0.1944(2) 0.2211(2) 0.21550(19)
C59 C 0.1221(3) 0.3030(2) 0.1197(2)
C60 C 0.2680(3) 0.2478(3) 0.1331(2)
C61 C 0.3941(2) 0.0234(3) 0.3753(2)
C62 C 0.3869(3) -0.0352(3) 0.4609(2)
H53 H 0.3738 0.0037 0.5044
H54 H 0.4472 -0.0683 0.4586
H55 H 0.3352 -0.0789 0.4747
C63 C 0.4736(2) 0.0927(3) 0.3557(2)
H56 H 0.4798 0.1300 0.3001
H57 H 0.5339 0.0605 0.3555
H58 H 0.4579 0.1320 0.3990
C64 C 0.4183(3) -0.0383(3) 0.3075(3)
H59 H 0.3656 -0.0800 0.3182
H60 H 0.4765 -0.0734 0.3095
H61 H 0.4283 -0.0007 0.2515
C65 C -0.1022(3) 0.0270(3) 0.7312(2)
H62 H -0.0777 -0.0356 0.7440
H63 H -0.1722 0.0238 0.7435
C66 C -0.0795(3) 0.0852(3) 0.7871(2)
H64 H -0.1076 0.1467 0.7767
H65 H -0.0095 0.0918 0.7719
C67 C -0.1173(3) 0.0455(3) 0.8814(2)
H66 H -0.1038 0.0889 0.9145
H67 H -0.1874 0.0403 0.8962
C68 C -0.0759(3) -0.0475(3) 0.9083(3)
H68 H -0.1048 -0.0662 0.9699
H69 H -0.0955 -0.0923 0.8796
C69 C 0.0304(3) -0.0525(3) 0.8898(3)
H70 H 0.0515 -0.0033 0.9125
H71 H 0.0599 -0.0424 0.8277
C70 C 0.0646(4) -0.1437(4) 0.9281(3)
H72 H 0.0443 -0.1926 0.9055
H73 H 0.0373 -0.1531 0.9897
H74 H 0.1343 -0.1440 0.9138
C71 C -0.2472(3) 0.2777(3) 0.3246(2)
C72 C -0.3242(3) 0.2870(4) 0.4061(3)
H75 H -0.3309 0.2291 0.4452
H76 H -0.3848 0.3034 0.3937
H77 H -0.3067 0.3347 0.4319
C73 C -0.2743(4) 0.1994(5) 0.2905(4)
H78 H -0.2311 0.1969 0.2339
H79 H -0.3399 0.2082 0.2874
H80 H -0.2695 0.1422 0.3282
C74 C -0.2454(4) 0.3673(4) 0.2658(4)
H81 H -0.2179 0.4141 0.2857
H82 H -0.3106 0.3852 0.2652
H83 H -0.2067 0.3607 0.2085
C75 C 0.2639(3) 0.3358(3) -0.0091(2)
H84 H 0.3323 0.3460 -0.0177
H85 H 0.2337 0.3955 -0.0224
C76 C 0.2542(4) 0.2741(3) -0.0690(3)
H86 H 0.1856 0.2642 -0.0599
H87 H 0.2809 0.3056 -0.1279
C77 C 0.3030(4) 0.1833(3) -0.0587(3)
H88 H 0.2742 0.1501 -0.0008
H89 H 0.3711 0.1928 -0.0653
C78 C 0.2959(4) 0.1252(4) -0.1224(3)
H90 H 0.2281 0.1224 -0.1204
H91 H 0.3310 0.1557 -0.1798
C79 C 0.3334(4) 0.0309(4) -0.1091(3)
H92 H 0.3002 0.0005 -0.0511
H93 H 0.4021 0.0331 -0.1139
C80 C 0.3206(4) -0.0249(4) -0.1724(3)
H94 H 0.3514 0.0060 -0.2300
H95 H 0.2525 -0.0314 -0.1649
H96 H 0.3497 -0.0853 -0.1631
H97? H 0.5980 0.4003 0.1456
H98? H 0.5559 0.4502 0.0709
H99? H -0.4099 0.3494 0.7419
H100? H -0.4479 0.2859 0.6917
C81? C 0.5659(9) 0.3464(9) 0.0425(7)
H101? H 0.5118 0.3550 0.0180
H102? H 0.6253 0.3665 -0.0023
C82? C 0.5739(11) 0.2518(10) 0.0817(9)
H103? H 0.5226 0.2380 0.1356
H104? H 0.6360 0.2413 0.0938
C83? C 0.5646(11) 0.1838(11) 0.0131(11)
H105? H 0.5592 0.1195 0.0417
H106? H 0.5063 0.2004 -0.0044
C84? C 0.6486(14) 0.1936(17) -0.0620(12)
H107? H 0.6997 0.1541 -0.0469
H108? H 0.6704 0.2572 -0.0724
C85? C -0.4653(7) 0.4284(8) 0.6454(8)
C86? C -0.5000 0.5000 0.5000
C87? C -0.4637(10) 0.4543(12) 0.5449(10)
H109? H -0.3959 0.4698 0.5171
H110? H -0.4702 0.3934 0.5316
C88? C 0.6240(14) 0.1189(13) -0.1146(11)
H111? H 0.6896 0.1056 -0.1464
H112? H 0.5811 0.1127 -0.1482
H113? H 0.6055 0.0761 -0.0612
loop_
_geom_bond_atom_site_label_1
_geom_bond_atom_site_label_2
_geom_bond_site_symmetry_1
_geom_bond_site_symmetry_2
O1 C17 1_555 1_555
O2 C16 1_555 1_555
O3 C18 1_555 1_555
O4 C19 1_555 1_555
N1 C16 1_555 1_555
N2 C18 1_555 1_555
C1 C2 1_555 1_555
C2 C3 1_555 1_555
C3 C4 1_555 1_555
C4 C5 1_555 1_555
C5 C6 1_555 1_555
C6 C1 1_555 1_555
C7 C5 1_555 1_555
H1 C7 1_555 1_555
C8 C7 1_555 1_555
C9 C8 1_555 1_555
H2 C9 1_555 1_555
C10 C6 1_555 1_555
C11 C10 1_555 1_555
C12 C11 1_555 1_555
C13 H3 1_555 1_555
C14 C13 1_555 1_555
C15 C2 1_555 1_555
H4 C15 1_555 1_555
C16 C11 1_555 1_555
C17 N1 1_555 1_555
C18 C3 1_555 1_555
C19 N2 1_555 1_555
C20 C8 1_555 1_555
C21 C20 1_555 1_555
H5 C21 1_555 1_555
H6 C21 1_555 1_555
H7 C21 1_555 1_555
C22 C20 1_555 1_555
H8 C22 1_555 1_555
H9 C22 1_555 1_555
H10 C22 1_555 1_555
C23 C20 1_555 1_555
H11 C23 1_555 1_555
H12 C23 1_555 1_555
H13 C23 1_555 1_555
C24 N1 1_555 1_555
H14 C24 1_555 1_555
H15 C24 1_555 1_555
C25 C14 1_555 1_555
C26 C25 1_555 1_555
H16 C26 1_555 1_555
H17 C26 1_555 1_555
H18 C26 1_555 1_555
C27 C25 1_555 1_555
H19 C27 1_555 1_555
H20 C27 1_555 1_555
H21 C27 1_555 1_555
C28 C25 1_555 1_555
H22 C28 1_555 1_555
H23 C28 1_555 1_555
H24 C28 1_555 1_555
C29 N2 1_555 1_555
H25 C29 1_555 1_555
H26 C29 1_555 1_555
C30 C29 1_555 1_555
H27 C30 1_555 1_555
H28 C30 1_555 1_555
C31 C30 1_555 1_555
H29 C31 1_555 1_555
H30 C31 1_555 1_555
C32 C1 1_555 1_555
C33 C24 1_555 1_555
H31 C33 1_555 1_555
H32 C33 1_555 1_555
C34 C33 1_555 1_555
H33 C34 1_555 1_555
H34 C34 1_555 1_555
C35 C34 1_555 1_555
H35 C35 1_555 1_555
H36 C35 1_555 1_555
C36 C35 1_555 1_555
H37 C36 1_555 1_555
H38 C36 1_555 1_555
C37 C36 1_555 1_555
H39 C37 1_555 1_555
H40 C37 1_555 1_555
H41 C37 1_555 1_555
C38 C31 1_555 1_555
H42 C38 1_555 1_555
H43 C38 1_555 1_555
C39 C38 1_555 1_555
H44 C39 1_555 1_555
H45 C39 1_555 1_555
C40 C39 1_555 1_555
H46 C40 1_555 1_555
H47 C40 1_555 1_555
H48 C40 1_555 1_555
O5 C52 1_555 1_555
O6 C51 1_555 1_555
O7 C59 1_555 1_555
O8 C60 1_555 1_555
N3 C51 1_555 1_555
N4 C59 1_555 1_555
C41 C42 1_555 1_555
C42 C43 1_555 1_555
C43 C44 1_555 1_555
C44 C45 1_555 1_555
C45 C46 1_555 1_555
C46 C41 1_555 1_555
C47 C46 1_555 1_555
C48 C47 1_555 1_555
H49 C48 1_555 1_555
C49 C48 1_555 1_555
C50 C41 1_555 1_555
H50 C50 1_555 1_555
C51 C42 1_555 1_555
C52 N3 1_555 1_555
C53 C44 1_555 1_555
H51 C53 1_555 1_555
C54 C53 1_555 1_555
C55 C54 1_555 1_555
H52 C55 1_555 1_555
C56 C45 1_555 1_555
C57 C56 1_555 1_555
C58 C47 1_555 1_555
C59 C57 1_555 1_555
C60 N4 1_555 1_555
C61 C49 1_555 1_555
C62 C61 1_555 1_555
H53 C62 1_555 1_555
H54 C62 1_555 1_555
H55 C62 1_555 1_555
C63 C61 1_555 1_555
H56 C63 1_555 1_555
H57 C63 1_555 1_555
H58 C63 1_555 1_555
C64 C61 1_555 1_555
H59 C64 1_555 1_555
H60 C64 1_555 1_555
H61 C64 1_555 1_555
C65 N3 1_555 1_555
H62 C65 1_555 1_555
H63 C65 1_555 1_555
C66 C65 1_555 1_555
H64 C66 1_555 1_555
H65 C66 1_555 1_555
C67 C66 1_555 1_555
H66 C67 1_555 1_555
H67 C67 1_555 1_555
C68 C67 1_555 1_555
H68 C68 1_555 1_555
H69 C68 1_555 1_555
C69 C68 1_555 1_555
H70 C69 1_555 1_555
H71 C69 1_555 1_555
C70 C69 1_555 1_555
H72 C70 1_555 1_555
H73 C70 1_555 1_555
H74 C70 1_555 1_555
C71 C54 1_555 1_555
C72 C71 1_555 1_555
H75 C72 1_555 1_555
H76 C72 1_555 1_555
H77 C72 1_555 1_555
C73 C71 1_555 1_555
H78 C73 1_555 1_555
H79 C73 1_555 1_555
H80 C73 1_555 1_555
C74 C71 1_555 1_555
H81 C74 1_555 1_555
H82 C74 1_555 1_555
H83 C74 1_555 1_555
C75 N4 1_555 1_555
H84 C75 1_555 1_555
H85 C75 1_555 1_555
C76 C75 1_555 1_555
H86 C76 1_555 1_555
H87 C76 1_555 1_555
C77 C76 1_555 1_555
H88 C77 1_555 1_555
H89 C77 1_555 1_555
C78 C77 1_555 1_555
H90 C78 1_555 1_555
H91 C78 1_555 1_555
C79 C78 1_555 1_555
H92 C79 1_555 1_555
H93 C79 1_555 1_555
C80 C79 1_555 1_555
H94 C80 1_555 1_555
H95 C80 1_555 1_555
H96 C80 1_555 1_555
C4 C19 1_555 1_555
C9 C10 1_555 1_555
C12 C17 1_555 1_555
C12 C32 1_555 1_555
C13 C32 1_555 1_555
C14 C15 1_555 1_555
C43 C52 1_555 1_555
C49 C50 1_555 1_555
C55 C56 1_555 1_555
C57 C58 1_555 1_555
C58 C60 1_555 1_555

#END
